0:0
     RDKit          3D

 48 52  0  0  1  0  0  0  0  0999 V2000
   -6.7870   19.7160  -33.7640 C   0  0  0  0  0  0  0  0  0  0  0  0
   -7.4320   20.5110  -32.7220 C   0  0  0  0  0  0  0  0  0  0  0  0
   -8.6310   20.0370  -32.1970 C   0  0  0  0  0  0  0  0  0  0  0  0
   -9.2770   20.7400  -31.2240 C   0  0  0  0  0  0  0  0  0  0  0  0
   -8.7390   21.9050  -30.7770 C   0  0  0  0  0  0  0  0  0  0  0  0
   -7.5560   22.3720  -31.2960 C   0  0  0  0  0  0  0  0  0  0  0  0
   -6.9090   23.8750  -30.7160 Cl  0  0  0  0  0  0  0  0  0  0  0  0
   -6.8560   21.6870  -32.2940 C   0  0  0  0  0  0  0  0  0  0  0  0
   -5.6600   22.2310  -32.7770 N   0  0  0  0  0  0  0  0  0  0  0  0
   -4.3560   21.8290  -32.4530 C   0  0  0  0  0  0  0  0  0  0  0  0
   -3.8730   20.7000  -33.1330 C   0  0  0  0  0  0  0  0  0  0  0  0
   -2.6150   20.1920  -32.9030 C   0  0  0  0  0  0  0  0  0  0  0  0
   -2.1900   19.1550  -33.5360 N   0  0  0  0  0  0  0  0  0  0  0  0
   -2.9400   17.9140  -33.5340 C   0  0  0  0  0  0  0  0  0  0  0  0
   -4.0600   17.7720  -34.5720 C   0  0  0  0  0  0  0  0  0  0  0  0
   -2.7590   17.0480  -34.7090 C   0  0  0  0  0  0  0  0  0  0  0  0
   -1.8580   20.8270  -31.9930 N   0  0  0  0  0  0  0  0  0  0  0  0
   -0.6270   20.5200  -31.6120 N   0  0  0  0  0  0  0  0  0  0  0  0
   -0.2270   21.3930  -30.6910 C   0  0  0  0  0  0  0  0  0  0  0  0
   -1.2670   22.2730  -30.5020 C   0  0  0  0  0  0  0  0  0  0  0  0
   -1.2650   23.2840  -29.6710 C   0  0  0  0  0  0  0  0  0  0  0  0
   -2.4390   23.7970  -28.9820 C   0  0  0  0  0  0  0  0  0  0  0  0
   -2.7660   23.5750  -27.6950 N   0  0  0  0  0  0  0  0  0  0  0  0
   -3.9270   24.1920  -27.4110 C   0  0  0  0  0  0  0  0  0  0  0  0
   -4.5400   24.2010  -26.3020 O   0  0  0  0  0  0  0  0  0  0  0  0
   -4.3270   24.8060  -28.5380 N   0  0  0  0  0  0  0  0  0  0  0  0
   -3.4380   24.5860  -29.5220 C   0  0  0  0  0  0  0  0  0  0  0  0
   -3.4960   25.0520  -30.8300 O   0  0  0  0  0  0  0  0  0  0  0  0
   -2.3070   21.9140  -31.3310 C   0  0  0  0  0  0  0  0  0  0  0  0
   -3.5550   22.4250  -31.5520 N   0  0  0  0  0  0  0  0  0  0  0  0
   -6.1590   18.9420  -33.2987 H   0  0  0  0  0  0  0  0  0  0  0  0
   -7.5556   19.2378  -34.3890 H   0  0  0  0  0  0  0  0  0  0  0  0
   -6.1607   20.3696  -34.3890 H   0  0  0  0  0  0  0  0  0  0  0  0
   -9.0579   19.0935  -32.5680 H   0  0  0  0  0  0  0  0  0  0  0  0
  -10.2237   20.3682  -30.8052 H   0  0  0  0  0  0  0  0  0  0  0  0
   -9.2550   22.4788  -29.9931 H   0  0  0  0  0  0  0  0  0  0  0  0
   -5.7490   23.0400  -33.4640 H   0  0  0  0  0  0  0  0  0  0  0  0
   -4.5202   20.2060  -33.8727 H   0  0  0  0  0  0  0  0  0  0  0  0
   -2.8736   17.7852  -32.4436 H   0  0  0  0  0  0  0  0  0  0  0  0
   -4.9791   17.2203  -34.3252 H   0  0  0  0  0  0  0  0  0  0  0  0
   -4.6493   18.4602  -35.1958 H   0  0  0  0  0  0  0  0  0  0  0  0
   -2.7283   15.9560  -34.5800 H   0  0  0  0  0  0  0  0  0  0  0  0
   -1.9994   16.9848  -35.5021 H   0  0  0  0  0  0  0  0  0  0  0  0
    0.7469   21.4080  -30.1797 H   0  0  0  0  0  0  0  0  0  0  0  0
   -0.3037   23.7832  -29.4792 H   0  0  0  0  0  0  0  0  0  0  0  0
   -2.2200   23.0160  -27.0080 H   0  0  0  0  0  0  0  0  0  0  0  0
   -5.1950   25.3740  -28.6520 H   0  0  0  0  0  0  0  0  0  0  0  0
   -3.1330   24.4790  -31.5860 H   0  0  0  0  0  0  0  0  0  0  0  0
  1  2  1  0
  2  3  2  0
  3  4  1  0
  4  5  2  0
  5  6  1  0
  6  7  1  0
  6  8  2  0
  8  9  1  0
  9 10  1  0
 10 11  2  0
 11 12  1  0
 12 13  2  0
 13 14  1  0
 14 15  1  0
 15 16  1  0
 12 17  1  0
 17 18  1  0
 18 19  2  0
 19 20  1  0
 20 21  2  0
 21 22  1  0
 22 23  1  0
 23 24  1  0
 24 25  2  0
 24 26  1  0
 26 27  1  0
 27 28  1  0
 20 29  1  0
 29 30  2  0
  8  2  1  0
 30 10  1  0
 16 14  1  0
 29 17  1  0
 27 22  2  0
  1 31  1  0
  1 32  1  0
  1 33  1  0
  3 34  1  0
  4 35  1  0
  5 36  1  0
  9 37  1  0
 11 38  1  0
 14 39  1  0
 15 40  1  0
 15 41  1  0
 16 42  1  0
 16 43  1  0
 19 44  1  0
 21 45  1  0
 23 46  1  0
 26 47  1  0
 28 48  1  0
M  END
>  <smiles>  (1) 
Cc1cccc(Cl)c1Nc1cc(=NC2CC2)n2ncc(=Cc3[nH]c(=O)[nH]c3O)c2n1

>  <score_type>  (1) 
oracle

>  <origin>  (1) 
adg

>  <m_score__min__energy>  (1) 
-10.18

>  <m_primary>  (1) 
energy

$$$$
1:0
     RDKit          3D

 53 55  0  0  0  0  0  0  0  0999 V2000
    0.3990   26.8360  -23.3890 C   0  0  0  0  0  0  0  0  0  0  0  0
   -0.6860   27.2920  -24.1900 O   0  0  0  0  0  0  0  0  0  0  0  0
   -1.0190   26.7650  -25.4470 C   0  0  0  0  0  0  0  0  0  0  0  0
   -1.9700   25.7390  -25.6060 C   0  0  0  0  0  0  0  0  0  0  0  0
   -2.2660   25.2440  -26.8810 C   0  0  0  0  0  0  0  0  0  0  0  0
   -1.6060   25.7470  -28.0070 C   0  0  0  0  0  0  0  0  0  0  0  0
   -1.9450   25.2330  -29.3010 N   0  0  0  0  0  0  0  0  0  0  0  0
   -3.2200   24.7160  -29.7060 C   0  0  0  0  0  0  0  0  0  0  0  0
   -3.8430   25.2990  -30.6320 O   0  0  0  0  0  0  0  0  0  0  0  0
   -3.8850   23.5760  -28.9830 C   0  0  0  0  0  0  0  0  0  0  0  0
   -4.6560   22.6650  -29.9600 C   0  0  0  0  0  0  0  0  0  0  0  0
   -5.8150   23.3580  -30.5770 N   0  0  0  0  0  0  0  0  0  0  0  0
   -7.0460   23.2340  -29.7390 C   0  0  0  0  0  0  0  0  0  0  0  0
   -8.0060   22.1570  -30.2650 C   0  0  0  0  0  0  0  0  0  0  0  0
   -8.4540   22.4810  -31.6360 N   0  0  0  0  0  0  0  0  0  0  0  0
   -9.1640   21.3670  -32.3060 C   0  0  0  0  0  0  0  0  0  0  0  0
   -8.3150   20.1270  -32.5060 C   0  0  0  0  0  0  0  0  0  0  0  0
   -7.2320   20.1460  -33.4020 C   0  0  0  0  0  0  0  0  0  0  0  0
   -6.4520   19.0030  -33.5940 C   0  0  0  0  0  0  0  0  0  0  0  0
   -6.7350   17.8330  -32.8840 C   0  0  0  0  0  0  0  0  0  0  0  0
   -7.7930   17.8110  -31.9730 C   0  0  0  0  0  0  0  0  0  0  0  0
   -8.5760   18.9520  -31.7770 C   0  0  0  0  0  0  0  0  0  0  0  0
   -7.4320   23.1530  -32.4730 C   0  0  0  0  0  0  0  0  0  0  0  0
   -6.0090   22.8710  -31.9680 C   0  0  0  0  0  0  0  0  0  0  0  0
   -0.6840   26.7930  -27.8520 C   0  0  0  0  0  0  0  0  0  0  0  0
   -0.3840   27.2880  -26.5800 C   0  0  0  0  0  0  0  0  0  0  0  0
    0.5200   28.2910  -26.4490 F   0  0  0  0  0  0  0  0  0  0  0  0
    0.1405   26.9446  -22.3253 H   0  0  0  0  0  0  0  0  0  0  0  0
    0.5994   25.7775  -23.6114 H   0  0  0  0  0  0  0  0  0  0  0  0
    1.2954   27.4335  -23.6114 H   0  0  0  0  0  0  0  0  0  0  0  0
   -2.4821   25.3251  -24.7249 H   0  0  0  0  0  0  0  0  0  0  0  0
   -3.0226   24.4542  -26.9985 H   0  0  0  0  0  0  0  0  0  0  0  0
   -3.1160   22.9805  -28.4692 H   0  0  0  0  0  0  0  0  0  0  0  0
   -4.6012   23.9943  -28.2605 H   0  0  0  0  0  0  0  0  0  0  0  0
   -3.9712   22.3412  -30.7576 H   0  0  0  0  0  0  0  0  0  0  0  0
   -5.0404   21.8067  -29.3894 H   0  0  0  0  0  0  0  0  0  0  0  0
   -5.5830   24.3790  -30.6470 H   0  0  0  0  0  0  0  0  0  0  0  0
   -6.7497   22.9723  -28.7125 H   0  0  0  0  0  0  0  0  0  0  0  0
   -7.5733   24.1988  -29.7727 H   0  0  0  0  0  0  0  0  0  0  0  0
   -7.4893   21.1859  -30.2740 H   0  0  0  0  0  0  0  0  0  0  0  0
   -8.8858   22.1151  -29.6061 H   0  0  0  0  0  0  0  0  0  0  0  0
  -10.0359   21.0942  -31.6934 H   0  0  0  0  0  0  0  0  0  0  0  0
   -9.4455   21.7251  -33.3072 H   0  0  0  0  0  0  0  0  0  0  0  0
   -6.9971   21.0670  -33.9557 H   0  0  0  0  0  0  0  0  0  0  0  0
   -5.6134   19.0240  -34.3055 H   0  0  0  0  0  0  0  0  0  0  0  0
   -6.1255   16.9312  -33.0425 H   0  0  0  0  0  0  0  0  0  0  0  0
   -8.0109   16.8928  -31.4078 H   0  0  0  0  0  0  0  0  0  0  0  0
   -9.4005   18.9314  -31.0492 H   0  0  0  0  0  0  0  0  0  0  0  0
   -7.5221   22.7885  -33.5069 H   0  0  0  0  0  0  0  0  0  0  0  0
   -7.6056   24.2380  -32.4210 H   0  0  0  0  0  0  0  0  0  0  0  0
   -5.8293   21.7861  -31.9946 H   0  0  0  0  0  0  0  0  0  0  0  0
   -5.3009   23.4029  -32.6204 H   0  0  0  0  0  0  0  0  0  0  0  0
   -0.1944   27.2260  -28.7368 H   0  0  0  0  0  0  0  0  0  0  0  0
  1  2  1  0
  2  3  1  0
  3  4  2  0
  4  5  1  0
  5  6  2  0
  6  7  1  0
  7  8  1  0
  8  9  2  0
  8 10  1  0
 10 11  1  0
 11 12  1  0
 12 13  1  0
 13 14  1  0
 14 15  1  0
 15 16  1  0
 16 17  1  0
 17 18  2  0
 18 19  1  0
 19 20  2  0
 20 21  1  0
 21 22  2  0
 15 23  1  0
 23 24  1  0
  6 25  1  0
 25 26  2  0
 26 27  1  0
 26  3  1  0
 24 12  1  0
 22 17  1  0
  1 28  1  0
  1 29  1  0
  1 30  1  0
  4 31  1  0
  5 32  1  0
 10 33  1  0
 10 34  1  0
 11 35  1  0
 11 36  1  0
 12 37  1  0
 13 38  1  0
 13 39  1  0
 14 40  1  0
 14 41  1  0
 16 42  1  0
 16 43  1  0
 18 44  1  0
 19 45  1  0
 20 46  1  0
 21 47  1  0
 22 48  1  0
 23 49  1  0
 23 50  1  0
 24 51  1  0
 24 52  1  0
 25 53  1  0
M  CHG  2   7  -1  12   1
M  END
>  <UniqueID>  (2) 
1

>  <SMILES>  (2) 
COc1ccc([N-]C(=O)CC[NH+]2CCN(Cc3ccccc3)CC2)cc1F

>  <Energy>  (2) 
72.62714848800286

>  <Genealogy>  (2) 
COc1ccc([N-]C(=O)CC[NH+]2CCN(Cc3ccccc3)CC2)cc1F (protonated)
COc1ccc([N-]C(=O)CC[NH+]2CCN(Cc3ccccc3)CC2)cc1F (3D coordinates assigned)
COc1ccc([N-]C(=O)CC[NH+]2CCN(Cc3ccccc3)CC2)cc1F (nonaromatic ring conformer: 72.62714848800286 kcal/mol)

>  <smiles>  (2) 
COc1ccc(NC(=O)CCN2CCN(Cc3ccccc3)CC2)cc1F

>  <score_type>  (2) 
oracle

>  <origin>  (2) 
adg

>  <m_score__min__energy>  (2) 
-9.6699999999999999

>  <m_primary>  (2) 
energy

$$$$
2:0
     RDKit          3D

 23 24  0  0  0  0  0  0  0  0999 V2000
   -0.1760   26.6610  -23.6690 C   0  0  0  0  0  0  0  0  0  0  0  0
   -0.9000   26.1860  -24.8820 C   0  0  0  0  0  0  0  0  0  0  0  0
   -2.2180   26.3420  -25.0940 N   0  0  0  0  0  0  0  0  0  0  0  0
   -2.5020   25.7830  -26.2570 N   0  0  0  0  0  0  0  0  0  0  0  0
   -1.3320   25.2940  -26.7140 C   0  0  0  0  0  0  0  0  0  0  0  0
   -1.1700   24.5940  -28.0200 C   0  0  0  0  0  0  0  0  0  0  0  0
   -2.0510   25.2100  -29.0080 N   0  0  0  0  0  0  0  0  0  0  0  0
   -3.1780   24.6940  -29.3990 C   0  0  0  0  0  0  0  0  0  0  0  0
   -3.6890   23.5870  -28.7920 N   0  0  0  0  0  0  0  0  0  0  0  0
   -4.8670   23.0460  -29.1990 C   0  0  0  0  0  0  0  0  0  0  0  0
   -5.5710   23.6280  -30.2530 C   0  0  0  0  0  0  0  0  0  0  0  0
   -7.2300   22.8900  -30.8450 Br  0  0  0  0  0  0  0  0  0  0  0  0
   -5.0350   24.7620  -30.8640 C   0  0  0  0  0  0  0  0  0  0  0  0
   -3.8530   25.2720  -30.4270 N   0  0  0  0  0  0  0  0  0  0  0  0
   -0.3450   25.5380  -25.8780 O   0  0  0  0  0  0  0  0  0  0  0  0
   -0.7036   26.3148  -22.7680 H   0  0  0  0  0  0  0  0  0  0  0  0
    0.8477   26.2584  -23.6718 H   0  0  0  0  0  0  0  0  0  0  0  0
   -0.1377   27.7603  -23.6718 H   0  0  0  0  0  0  0  0  0  0  0  0
   -2.9100   26.8140  -24.4700 H   0  0  0  0  0  0  0  0  0  0  0  0
   -0.1257   24.6780  -28.3553 H   0  0  0  0  0  0  0  0  0  0  0  0
   -1.4305   23.5316  -27.9044 H   0  0  0  0  0  0  0  0  0  0  0  0
   -5.2646   22.1509  -28.6983 H   0  0  0  0  0  0  0  0  0  0  0  0
   -5.5678   25.2425  -31.6978 H   0  0  0  0  0  0  0  0  0  0  0  0
  1  2  1  0
  2  3  2  0
  3  4  1  0
  4  5  2  0
  5  6  1  0
  6  7  1  0
  7  8  2  3
  8  9  1  0
  9 10  2  0
 10 11  1  0
 11 12  1  0
 11 13  2  0
 13 14  1  0
  5 15  1  0
 15  2  1  0
 14  8  1  0
  1 16  1  0
  1 17  1  0
  1 18  1  0
  3 19  1  0
  6 20  1  0
  6 21  1  0
 10 22  1  0
 13 23  1  0
M  CHG  2   3   1  14  -1
M  END
>  <UniqueID>  (3) 
2

>  <SMILES>  (3) 
Cc1[nH+]nc(CN=c2ncc(Br)c[n-]2)o1

>  <Energy>  (3) 
55.9181056115072

>  <Genealogy>  (3) 
Cc1[nH+]nc(CN=c2ncc(Br)c[n-]2)o1 (protonated)
Cc1[nH+]nc(CN=c2ncc(Br)c[n-]2)o1 (3D coordinates assigned)
Cc1[nH+]nc(CN=c2ncc(Br)c[n-]2)o1 (optimized conformer: 55.9181056115072 kcal/mol)

>  <smiles>  (3) 
Cc1nnc(CN=c2ncc(Br)c[nH]2)o1

>  <score_type>  (3) 
oracle

>  <origin>  (3) 
adg

>  <m_score__min__energy>  (3) 
-7.25

>  <m_primary>  (3) 
energy

$$$$
3:0
     RDKit          3D

 43 45  0  0  0  0  0  0  0  0999 V2000
   -0.8820   26.1280  -28.0480 C   0  0  0  0  0  0  0  0  0  0  0  0
   -1.8710   25.6670  -28.9610 O   0  0  0  0  0  0  0  0  0  0  0  0
   -2.7260   24.5980  -28.6730 C   0  0  0  0  0  0  0  0  0  0  0  0
   -2.6300   23.9920  -27.5700 O   0  0  0  0  0  0  0  0  0  0  0  0
   -3.7430   24.1800  -29.6620 C   0  0  0  0  0  0  0  0  0  0  0  0
   -5.0340   24.7370  -29.6320 C   0  0  0  0  0  0  0  0  0  0  0  0
   -5.9980   24.3440  -30.5660 C   0  0  0  0  0  0  0  0  0  0  0  0
   -5.6970   23.3820  -31.5350 C   0  0  0  0  0  0  0  0  0  0  0  0
   -6.6870   23.0260  -32.4620 O   0  0  0  0  0  0  0  0  0  0  0  0
   -7.6240   21.9930  -32.3000 C   0  0  0  0  0  0  0  0  0  0  0  0
   -8.9400   22.2650  -31.8960 C   0  0  0  0  0  0  0  0  0  0  0  0
   -9.8540   21.2220  -31.7600 C   0  0  0  0  0  0  0  0  0  0  0  0
   -9.4830   19.9420  -32.0280 N   0  0  0  0  0  0  0  0  0  0  0  0
   -8.2180   19.6380  -32.4410 C   0  0  0  0  0  0  0  0  0  0  0  0
   -7.8670   18.3100  -32.7200 C   0  0  0  0  0  0  0  0  0  0  0  0
   -6.5650   17.9890  -33.1480 C   0  0  0  0  0  0  0  0  0  0  0  0
   -6.1810   16.6680  -33.4360 O   0  0  0  0  0  0  0  0  0  0  0  0
   -5.2210   15.9260  -32.6920 C   0  0  0  0  0  0  0  0  0  0  0  0
   -5.6100   19.0040  -33.2980 C   0  0  0  0  0  0  0  0  0  0  0  0
   -4.3210   18.6470  -33.7270 O   0  0  0  0  0  0  0  0  0  0  0  0
   -3.1410   19.3950  -33.4530 C   0  0  0  0  0  0  0  0  0  0  0  0
   -5.9600   20.3400  -33.0190 C   0  0  0  0  0  0  0  0  0  0  0  0
   -7.2580   20.6650  -32.5920 C   0  0  0  0  0  0  0  0  0  0  0  0
   -4.4020   22.8360  -31.5820 C   0  0  0  0  0  0  0  0  0  0  0  0
   -3.4370   23.2270  -30.6510 C   0  0  0  0  0  0  0  0  0  0  0  0
   -1.2303   25.9656  -27.0173 H   0  0  0  0  0  0  0  0  0  0  0  0
    0.0539   25.5733  -28.2104 H   0  0  0  0  0  0  0  0  0  0  0  0
   -0.7050   27.2014  -28.2104 H   0  0  0  0  0  0  0  0  0  0  0  0
   -5.2874   25.4872  -28.8684 H   0  0  0  0  0  0  0  0  0  0  0  0
   -7.0008   24.7952  -30.5380 H   0  0  0  0  0  0  0  0  0  0  0  0
   -9.2495   23.2997  -31.6870 H   0  0  0  0  0  0  0  0  0  0  0  0
  -10.8825   21.4358  -31.4336 H   0  0  0  0  0  0  0  0  0  0  0  0
  -10.1970   19.1850  -31.9160 H   0  0  0  0  0  0  0  0  0  0  0  0
   -8.6152   17.5121  -32.6035 H   0  0  0  0  0  0  0  0  0  0  0  0
   -5.4026   16.0664  -31.6162 H   0  0  0  0  0  0  0  0  0  0  0  0
   -5.3085   14.8585  -32.9424 H   0  0  0  0  0  0  0  0  0  0  0  0
   -4.2100   16.2797  -32.9424 H   0  0  0  0  0  0  0  0  0  0  0  0
   -3.0057   19.4808  -32.3647 H   0  0  0  0  0  0  0  0  0  0  0  0
   -2.2720   18.8825  -33.8913 H   0  0  0  0  0  0  0  0  0  0  0  0
   -3.2337   20.3996  -33.8913 H   0  0  0  0  0  0  0  0  0  0  0  0
   -5.2098   21.1358  -33.1367 H   0  0  0  0  0  0  0  0  0  0  0  0
   -4.1476   22.0970  -32.3561 H   0  0  0  0  0  0  0  0  0  0  0  0
   -2.4299   22.7865  -30.6912 H   0  0  0  0  0  0  0  0  0  0  0  0
  1  2  1  0
  2  3  1  0
  3  4  2  0
  3  5  1  0
  5  6  2  0
  6  7  1  0
  7  8  2  0
  8  9  1  0
  9 10  1  0
 10 11  2  0
 11 12  1  0
 12 13  2  0
 13 14  1  0
 14 15  2  0
 15 16  1  0
 16 17  1  0
 17 18  1  0
 16 19  2  0
 19 20  1  0
 20 21  1  0
 19 22  1  0
 22 23  2  0
  8 24  1  0
 24 25  2  0
 25  5  1  0
 23 10  1  0
 23 14  1  0
  1 26  1  0
  1 27  1  0
  1 28  1  0
  6 29  1  0
  7 30  1  0
 11 31  1  0
 12 32  1  0
 13 33  1  0
 15 34  1  0
 18 35  1  0
 18 36  1  0
 18 37  1  0
 21 38  1  0
 21 39  1  0
 21 40  1  0
 22 41  1  0
 24 42  1  0
 25 43  1  0
M  CHG  1  13   1
M  END
>  <UniqueID>  (4) 
3

>  <SMILES>  (4) 
COC(=O)c1ccc(Oc2cc[nH+]c3cc(OC)c(OC)cc23)cc1

>  <Energy>  (4) 
53.02061103118567

>  <Genealogy>  (4) 
COC(=O)c1ccc(Oc2cc[nH+]c3cc(OC)c(OC)cc23)cc1 (protonated)
COC(=O)c1ccc(Oc2cc[nH+]c3cc(OC)c(OC)cc23)cc1 (3D coordinates assigned)
COC(=O)c1ccc(Oc2cc[nH+]c3cc(OC)c(OC)cc23)cc1 (optimized conformer: 53.02061103118567 kcal/mol)

>  <smiles>  (4) 
COC(=O)c1ccc(Oc2ccnc3cc(OC)c(OC)cc23)cc1

>  <score_type>  (4) 
oracle

>  <origin>  (4) 
adg

>  <m_score__min__energy>  (4) 
-6.8200000000000003

>  <m_primary>  (4) 
energy

$$$$
4:0
     RDKit          3D

 31 32  0  0  1  0  0  0  0  0999 V2000
   -6.5070   25.7050  -29.3340 C   0  0  0  0  0  0  0  0  0  0  0  0
   -5.5220   24.7520  -29.9240 C   0  0  0  0  0  0  0  0  0  0  0  0
   -5.8890   23.9030  -30.9610 C   0  0  0  0  0  0  0  0  0  0  0  0
   -5.0050   23.0070  -31.5330 C   0  0  0  0  0  0  0  0  0  0  0  0
   -5.3870   22.2350  -32.4950 N   0  0  0  0  0  0  0  0  0  0  0  0
   -6.8010   22.0810  -32.6700 C   0  0  0  0  0  0  0  0  0  0  0  0
   -7.2530   20.6750  -32.5230 C   0  0  0  0  0  0  0  0  0  0  0  0
   -6.5120   19.7120  -33.1860 C   0  0  0  0  0  0  0  0  0  0  0  0
   -6.8680   18.3820  -33.0970 C   0  0  0  0  0  0  0  0  0  0  0  0
   -5.9110   17.1610  -33.9500 Cl  0  0  0  0  0  0  0  0  0  0  0  0
   -7.9700   18.0160  -32.3410 C   0  0  0  0  0  0  0  0  0  0  0  0
   -8.7080   18.9770  -31.6820 C   0  0  0  0  0  0  0  0  0  0  0  0
   -8.3510   20.3090  -31.7700 C   0  0  0  0  0  0  0  0  0  0  0  0
   -9.2740   21.5580  -30.9380 Cl  0  0  0  0  0  0  0  0  0  0  0  0
   -3.7310   22.9680  -31.0510 N   0  0  0  0  0  0  0  0  0  0  0  0
   -3.3670   23.7870  -30.0480 C   0  0  0  0  0  0  0  0  0  0  0  0
   -1.9800   23.7840  -29.4810 C   0  0  0  0  0  0  0  0  0  0  0  0
   -4.2500   24.6640  -29.4950 N   0  0  0  0  0  0  0  0  0  0  0  0
   -6.4543   25.6540  -28.2364 H   0  0  0  0  0  0  0  0  0  0  0  0
   -6.2719   26.7272  -29.6653 H   0  0  0  0  0  0  0  0  0  0  0  0
   -7.5209   25.4363  -29.6653 H   0  0  0  0  0  0  0  0  0  0  0  0
   -6.9205   23.9453  -31.3407 H   0  0  0  0  0  0  0  0  0  0  0  0
   -7.3165   22.6956  -31.9173 H   0  0  0  0  0  0  0  0  0  0  0  0
   -7.0427   22.3992  -33.6949 H   0  0  0  0  0  0  0  0  0  0  0  0
   -5.6379   20.0076  -33.7848 H   0  0  0  0  0  0  0  0  0  0  0  0
   -8.2569   16.9567  -32.2662 H   0  0  0  0  0  0  0  0  0  0  0  0
   -9.5833   18.6822  -31.0846 H   0  0  0  0  0  0  0  0  0  0  0  0
   -2.0330   23.7841  -28.3823 H   0  0  0  0  0  0  0  0  0  0  0  0
   -1.4463   22.8847  -29.8222 H   0  0  0  0  0  0  0  0  0  0  0  0
   -1.4424   24.6810  -29.8222 H   0  0  0  0  0  0  0  0  0  0  0  0
   -3.9340   25.2990  -28.7030 H   0  0  0  0  0  0  0  0  0  0  0  0
  1  2  1  0
  2  3  2  0
  3  4  1  0
  4  5  2  0
  5  6  1  0
  6  7  1  0
  7  8  2  0
  8  9  1  0
  9 10  1  0
  9 11  2  0
 11 12  1  0
 12 13  2  0
 13 14  1  0
  4 15  1  0
 15 16  2  0
 16 17  1  0
 16 18  1  0
 18  2  1  0
 13  7  1  0
  1 19  1  0
  1 20  1  0
  1 21  1  0
  3 22  1  0
  6 23  1  0
  6 24  1  0
  8 25  1  0
 11 26  1  0
 12 27  1  0
 17 28  1  0
 17 29  1  0
 17 30  1  0
 18 31  1  0
M  END
>  <smiles>  (5) 
Cc1cc(=NCc2cc(Cl)ccc2Cl)nc(C)[nH]1

>  <score_type>  (5) 
oracle

>  <origin>  (5) 
adg

>  <m_score__min__energy>  (5) 
-7.9100000000000001

>  <m_primary>  (5) 
energy

$$$$
5:0
     RDKit          3D

 52 54  0  0  0  0  0  0  0  0999 V2000
   -3.0620   21.0380  -28.2050 C   0  0  0  0  0  0  0  0  0  0  0  0
   -2.5820   22.2850  -27.4650 C   0  0  0  0  0  0  0  0  0  0  0  0
   -3.4600   23.5170  -27.7520 C   0  0  0  0  0  0  0  0  0  0  0  0
   -2.9750   24.3180  -28.8910 N   0  0  0  0  0  0  0  0  0  0  0  0
   -1.6210   24.8910  -28.8310 C   0  0  0  0  0  0  0  0  0  0  0  0
   -1.2820   25.4160  -27.4300 C   0  0  0  0  0  0  0  0  0  0  0  0
   -0.5430   26.7500  -27.4770 C   0  0  0  0  0  0  0  0  0  0  0  0
   -3.6150   24.2400  -30.1800 C   0  0  0  0  0  0  0  0  0  0  0  0
   -3.8980   25.3000  -30.7990 O   0  0  0  0  0  0  0  0  0  0  0  0
   -3.9020   22.9160  -30.8280 C   0  0  0  0  0  0  0  0  0  0  0  0
   -4.9750   23.0690  -31.9090 C   0  0  0  0  0  0  0  0  0  0  0  0
   -5.6470   21.7500  -32.1860 C   0  0  0  0  0  0  0  0  0  0  0  0
   -5.0930   20.6000  -32.7690 C   0  0  0  0  0  0  0  0  0  0  0  0
   -3.6810   20.3730  -33.1330 C   0  0  0  0  0  0  0  0  0  0  0  0
   -2.8320   21.4390  -33.4700 C   0  0  0  0  0  0  0  0  0  0  0  0
   -1.5050   21.1760  -33.8210 C   0  0  0  0  0  0  0  0  0  0  0  0
   -1.0390   19.9000  -33.8190 N   0  0  0  0  0  0  0  0  0  0  0  0
   -1.8330   18.8520  -33.4740 C   0  0  0  0  0  0  0  0  0  0  0  0
   -3.1660   19.0700  -33.1170 C   0  0  0  0  0  0  0  0  0  0  0  0
   -6.0400   19.7130  -33.0180 O   0  0  0  0  0  0  0  0  0  0  0  0
   -7.1830   20.2260  -32.6320 C   0  0  0  0  0  0  0  0  0  0  0  0
   -8.4450   19.6430  -32.7200 C   0  0  0  0  0  0  0  0  0  0  0  0
   -9.5480   20.3920  -32.2740 C   0  0  0  0  0  0  0  0  0  0  0  0
   -9.3660   21.6940  -31.7600 C   0  0  0  0  0  0  0  0  0  0  0  0
   -8.0800   22.2580  -31.6810 C   0  0  0  0  0  0  0  0  0  0  0  0
   -7.0020   21.4840  -32.1180 C   0  0  0  0  0  0  0  0  0  0  0  0
   -3.3577   20.2697  -27.4754 H   0  0  0  0  0  0  0  0  0  0  0  0
   -3.9252   21.2957  -28.8363 H   0  0  0  0  0  0  0  0  0  0  0  0
   -2.2488   20.6505  -28.8363 H   0  0  0  0  0  0  0  0  0  0  0  0
   -2.6011   22.0826  -26.3839 H   0  0  0  0  0  0  0  0  0  0  0  0
   -1.5646   22.5110  -27.8169 H   0  0  0  0  0  0  0  0  0  0  0  0
   -4.4817   23.1752  -27.9738 H   0  0  0  0  0  0  0  0  0  0  0  0
   -3.4263   24.1598  -26.8600 H   0  0  0  0  0  0  0  0  0  0  0  0
   -0.8933   24.1127  -29.1045 H   0  0  0  0  0  0  0  0  0  0  0  0
   -1.5787   25.7382  -29.5313 H   0  0  0  0  0  0  0  0  0  0  0  0
   -2.2169   25.5487  -26.8658 H   0  0  0  0  0  0  0  0  0  0  0  0
   -0.6221   24.6816  -26.9450 H   0  0  0  0  0  0  0  0  0  0  0  0
   -0.3499   27.0985  -26.4517 H   0  0  0  0  0  0  0  0  0  0  0  0
    0.4125   26.6214  -28.0066 H   0  0  0  0  0  0  0  0  0  0  0  0
   -1.1588   27.4918  -28.0066 H   0  0  0  0  0  0  0  0  0  0  0  0
   -2.9795   22.5296  -31.2859 H   0  0  0  0  0  0  0  0  0  0  0  0
   -4.2668   22.2166  -30.0614 H   0  0  0  0  0  0  0  0  0  0  0  0
   -5.7293   23.7935  -31.5684 H   0  0  0  0  0  0  0  0  0  0  0  0
   -4.4957   23.4216  -32.8341 H   0  0  0  0  0  0  0  0  0  0  0  0
   -3.2080   22.4727  -33.4579 H   0  0  0  0  0  0  0  0  0  0  0  0
   -0.8365   22.0040  -34.0995 H   0  0  0  0  0  0  0  0  0  0  0  0
   -1.4252   17.8304  -33.4759 H   0  0  0  0  0  0  0  0  0  0  0  0
   -3.8067   18.2247  -32.8254 H   0  0  0  0  0  0  0  0  0  0  0  0
   -8.5745   18.6287  -33.1256 H   0  0  0  0  0  0  0  0  0  0  0  0
  -10.5587   19.9609  -32.3259 H   0  0  0  0  0  0  0  0  0  0  0  0
  -10.2372   22.2723  -31.4184 H   0  0  0  0  0  0  0  0  0  0  0  0
   -7.9280   23.2742  -31.2884 H   0  0  0  0  0  0  0  0  0  0  0  0
  1  2  1  0
  2  3  1  0
  3  4  1  0
  4  5  1  0
  5  6  1  0
  6  7  1  0
  4  8  1  0
  8  9  2  0
  8 10  1  0
 10 11  1  0
 11 12  1  0
 12 13  2  0
 13 14  1  0
 14 15  2  0
 15 16  1  0
 16 17  2  0
 17 18  1  0
 18 19  2  0
 13 20  1  0
 20 21  1  0
 21 22  2  0
 22 23  1  0
 23 24  2  0
 24 25  1  0
 25 26  2  0
 26 12  1  0
 19 14  1  0
 26 21  1  0
  1 27  1  0
  1 28  1  0
  1 29  1  0
  2 30  1  0
  2 31  1  0
  3 32  1  0
  3 33  1  0
  5 34  1  0
  5 35  1  0
  6 36  1  0
  6 37  1  0
  7 38  1  0
  7 39  1  0
  7 40  1  0
 10 41  1  0
 10 42  1  0
 11 43  1  0
 11 44  1  0
 15 45  1  0
 16 46  1  0
 18 47  1  0
 19 48  1  0
 22 49  1  0
 23 50  1  0
 24 51  1  0
 25 52  1  0
M  END
>  <UniqueID>  (6) 
4

>  <SMILES>  (6) 
CCCN(CCC)C(=O)CCc1c(-c2ccncc2)oc2ccccc12

>  <Energy>  (6) 
84.56837106432859

>  <Genealogy>  (6) 
CCCN(CCC)C(=O)CCc1c(-c2ccncc2)oc2ccccc12 (3D coordinates assigned)
CCCN(CCC)C(=O)CCc1c(-c2ccncc2)oc2ccccc12 (optimized conformer: 84.56837106432859 kcal/mol)

>  <smiles>  (6) 
CCCN(CCC)C(=O)CCc1c(-c2ccncc2)oc2ccccc12

>  <score_type>  (6) 
oracle

>  <origin>  (6) 
adg

>  <m_score__min__energy>  (6) 
-8.7300000000000004

>  <m_primary>  (6) 
energy

$$$$
6:0
     RDKit          3D

 40 43  0  0  0  0  0  0  0  0999 V2000
   -0.6210   27.1730  -23.3330 C   0  0  0  0  0  0  0  0  0  0  0  0
   -0.6520   25.9870  -24.2430 C   0  0  0  0  0  0  0  0  0  0  0  0
   -1.6030   25.9000  -25.2110 N   0  0  0  0  0  0  0  0  0  0  0  0
   -1.6540   24.8210  -26.0320 C   0  0  0  0  0  0  0  0  0  0  0  0
   -2.6270   24.7280  -27.0320 C   0  0  0  0  0  0  0  0  0  0  0  0
   -2.6690   23.6050  -27.8800 C   0  0  0  0  0  0  0  0  0  0  0  0
   -3.7000   23.5030  -28.9440 C   0  0  0  0  0  0  0  0  0  0  0  0
   -4.8230   24.3490  -28.9340 C   0  0  0  0  0  0  0  0  0  0  0  0
   -5.7940   24.2520  -29.9360 C   0  0  0  0  0  0  0  0  0  0  0  0
   -5.6550   23.3230  -30.9710 C   0  0  0  0  0  0  0  0  0  0  0  0
   -6.6570   23.2480  -31.9490 O   0  0  0  0  0  0  0  0  0  0  0  0
   -7.5580   22.1840  -32.1120 C   0  0  0  0  0  0  0  0  0  0  0  0
   -8.9230   22.3090  -31.7920 C   0  0  0  0  0  0  0  0  0  0  0  0
   -9.7850   21.2200  -31.9530 C   0  0  0  0  0  0  0  0  0  0  0  0
   -9.2920   19.9990  -32.4220 C   0  0  0  0  0  0  0  0  0  0  0  0
   -7.9340   19.8640  -32.7230 C   0  0  0  0  0  0  0  0  0  0  0  0
   -7.0690   20.9510  -32.5630 C   0  0  0  0  0  0  0  0  0  0  0  0
   -4.5450   22.4600  -30.9750 C   0  0  0  0  0  0  0  0  0  0  0  0
   -3.5740   22.5540  -29.9740 C   0  0  0  0  0  0  0  0  0  0  0  0
   -1.7180   22.5800  -27.7050 C   0  0  0  0  0  0  0  0  0  0  0  0
   -0.7460   22.6730  -26.7030 C   0  0  0  0  0  0  0  0  0  0  0  0
   -0.7140   23.7910  -25.8680 C   0  0  0  0  0  0  0  0  0  0  0  0
    0.2170   23.9070  -24.8880 N   0  0  0  0  0  0  0  0  0  0  0  0
    0.2490   24.9760  -24.0910 N   0  0  0  0  0  0  0  0  0  0  0  0
   -0.6299   26.8329  -22.2869 H   0  0  0  0  0  0  0  0  0  0  0  0
    0.2927   27.7559  -23.5213 H   0  0  0  0  0  0  0  0  0  0  0  0
   -1.5030   27.8028  -23.5213 H   0  0  0  0  0  0  0  0  0  0  0  0
   -3.3630   25.5360  -27.1566 H   0  0  0  0  0  0  0  0  0  0  0  0
   -4.9388   25.0929  -28.1320 H   0  0  0  0  0  0  0  0  0  0  0  0
   -6.6737   24.9118  -29.9093 H   0  0  0  0  0  0  0  0  0  0  0  0
   -9.3125   23.2659  -31.4143 H   0  0  0  0  0  0  0  0  0  0  0  0
  -10.8528   21.3243  -31.7102 H   0  0  0  0  0  0  0  0  0  0  0  0
   -9.9725   19.1449  -32.5541 H   0  0  0  0  0  0  0  0  0  0  0  0
   -7.5450   18.9013  -33.0863 H   0  0  0  0  0  0  0  0  0  0  0  0
   -5.9992   20.8374  -32.7924 H   0  0  0  0  0  0  0  0  0  0  0  0
   -4.4402   21.7070  -31.7700 H   0  0  0  0  0  0  0  0  0  0  0  0
   -2.7045   21.8804  -29.9921 H   0  0  0  0  0  0  0  0  0  0  0  0
   -1.7401   21.6984  -28.3624 H   0  0  0  0  0  0  0  0  0  0  0  0
   -0.0088   21.8669  -26.5736 H   0  0  0  0  0  0  0  0  0  0  0  0
    0.9770   25.0290  -23.3440 H   0  0  0  0  0  0  0  0  0  0  0  0
  1  2  1  0
  2  3  2  0
  3  4  1  0
  4  5  2  0
  5  6  1  0
  6  7  1  0
  7  8  2  0
  8  9  1  0
  9 10  2  0
 10 11  1  0
 11 12  1  0
 12 13  2  0
 13 14  1  0
 14 15  2  0
 15 16  1  0
 16 17  2  0
 10 18  1  0
 18 19  2  0
  6 20  2  0
 20 21  1  0
 21 22  2  0
 22 23  1  0
 23 24  2  0
 24  2  1  0
 22  4  1  0
 19  7  1  0
 17 12  1  0
  1 25  1  0
  1 26  1  0
  1 27  1  0
  5 28  1  0
  8 29  1  0
  9 30  1  0
 13 31  1  0
 14 32  1  0
 15 33  1  0
 16 34  1  0
 17 35  1  0
 18 36  1  0
 19 37  1  0
 20 38  1  0
 21 39  1  0
 24 40  1  0
M  CHG  1  24   1
M  END
>  <UniqueID>  (7) 
5

>  <SMILES>  (7) 
Cc1nc2cc(-c3ccc(Oc4ccccc4)cc3)ccc2n[nH+]1

>  <Energy>  (7) 
58.58818028560831

>  <Genealogy>  (7) 
Cc1nc2cc(-c3ccc(Oc4ccccc4)cc3)ccc2n[nH+]1 (protonated)
Cc1nc2cc(-c3ccc(Oc4ccccc4)cc3)ccc2n[nH+]1 (3D coordinates assigned)
Cc1nc2cc(-c3ccc(Oc4ccccc4)cc3)ccc2n[nH+]1 (optimized conformer: 58.58818028560831 kcal/mol)

>  <smiles>  (7) 
Cc1nnc2ccc(-c3ccc(Oc4ccccc4)cc3)cc2n1

>  <score_type>  (7) 
oracle

>  <origin>  (7) 
adg

>  <m_score__min__energy>  (7) 
-8.9499999999999993

>  <m_primary>  (7) 
energy

$$$$
7:0
     RDKit          3D

 39 40  0  0  0  0  0  0  0  0999 V2000
   -1.2210   21.1820  -33.2290 C   0  0  0  0  0  0  0  0  0  0  0  0
   -1.1330   21.5410  -31.7530 C   0  0  0  0  0  0  0  0  0  0  0  0
   -2.3780   22.0550  -31.2820 O   0  0  0  0  0  0  0  0  0  0  0  0
   -3.6190   21.6410  -31.7800 C   0  0  0  0  0  0  0  0  0  0  0  0
   -3.9500   20.4240  -31.7530 O   0  0  0  0  0  0  0  0  0  0  0  0
   -4.5930   22.6670  -32.2680 C   0  0  0  0  0  0  0  0  0  0  0  0
   -5.5690   22.9980  -31.2040 N   0  0  0  0  0  0  0  0  0  0  0  0
   -6.9020   23.3120  -31.7570 C   0  0  0  0  0  0  0  0  0  0  0  0
   -7.7130   22.0600  -31.9670 C   0  0  0  0  0  0  0  0  0  0  0  0
   -7.0750   20.8660  -32.3420 C   0  0  0  0  0  0  0  0  0  0  0  0
   -7.8210   19.6970  -32.5230 C   0  0  0  0  0  0  0  0  0  0  0  0
   -9.2050   19.7120  -32.3290 C   0  0  0  0  0  0  0  0  0  0  0  0
   -9.8470   20.8980  -31.9630 C   0  0  0  0  0  0  0  0  0  0  0  0
   -9.1060   22.0710  -31.7860 C   0  0  0  0  0  0  0  0  0  0  0  0
   -4.9970   24.3680  -30.2790 S   0  0  0  0  0  0  0  0  0  0  0  0
   -6.1320   24.9940  -29.5180 O   0  0  0  0  0  0  0  0  0  0  0  0
   -4.3980   25.3890  -31.2060 O   0  0  0  0  0  0  0  0  0  0  0  0
   -3.7840   23.8380  -29.1290 C   0  0  0  0  0  0  0  0  0  0  0  0
   -3.8980   22.7440  -28.2860 C   0  0  0  0  0  0  0  0  0  0  0  0
   -2.7670   22.5570  -27.4820 C   0  0  0  0  0  0  0  0  0  0  0  0
   -1.7700   23.5010  -27.6940 C   0  0  0  0  0  0  0  0  0  0  0  0
   -2.2940   24.5710  -28.8830 S   0  0  0  0  0  0  0  0  0  0  0  0
   -1.4817   20.1184  -33.3327 H   0  0  0  0  0  0  0  0  0  0  0  0
   -1.9948   21.7979  -33.7107 H   0  0  0  0  0  0  0  0  0  0  0  0
   -0.2501   21.3702  -33.7107 H   0  0  0  0  0  0  0  0  0  0  0  0
   -0.8737   20.6401  -31.1775 H   0  0  0  0  0  0  0  0  0  0  0  0
   -0.3606   22.3134  -31.6232 H   0  0  0  0  0  0  0  0  0  0  0  0
   -4.0470   23.5777  -32.5553 H   0  0  0  0  0  0  0  0  0  0  0  0
   -5.1341   22.2618  -33.1358 H   0  0  0  0  0  0  0  0  0  0  0  0
   -7.4350   23.9715  -31.0563 H   0  0  0  0  0  0  0  0  0  0  0  0
   -6.7678   23.8075  -32.7299 H   0  0  0  0  0  0  0  0  0  0  0  0
   -5.9856   20.8505  -32.4937 H   0  0  0  0  0  0  0  0  0  0  0  0
   -7.3178   18.7645  -32.8184 H   0  0  0  0  0  0  0  0  0  0  0  0
   -9.7892   18.7898  -32.4645 H   0  0  0  0  0  0  0  0  0  0  0  0
  -10.9368   20.9091  -31.8139 H   0  0  0  0  0  0  0  0  0  0  0  0
   -9.6153   23.0044  -31.5044 H   0  0  0  0  0  0  0  0  0  0  0  0
   -4.7831   22.0917  -28.2521 H   0  0  0  0  0  0  0  0  0  0  0  0
   -2.6764   21.7397  -26.7514 H   0  0  0  0  0  0  0  0  0  0  0  0
   -0.8021   23.5422  -27.1730 H   0  0  0  0  0  0  0  0  0  0  0  0
  1  2  1  0
  2  3  1  0
  3  4  1  0
  4  5  2  0
  4  6  1  0
  6  7  1  0
  7  8  1  0
  8  9  1  0
  9 10  2  0
 10 11  1  0
 11 12  2  0
 12 13  1  0
 13 14  2  0
  7 15  1  0
 15 16  2  0
 15 17  2  0
 15 18  1  0
 18 19  2  0
 19 20  1  0
 20 21  2  0
 21 22  1  0
 14  9  1  0
 22 18  1  0
  1 23  1  0
  1 24  1  0
  1 25  1  0
  2 26  1  0
  2 27  1  0
  6 28  1  0
  6 29  1  0
  8 30  1  0
  8 31  1  0
 10 32  1  0
 11 33  1  0
 12 34  1  0
 13 35  1  0
 14 36  1  0
 19 37  1  0
 20 38  1  0
 21 39  1  0
M  END
>  <UniqueID>  (8) 
6

>  <SMILES>  (8) 
CCOC(=O)CN(Cc1ccccc1)S(=O)(=O)c1cccs1

>  <Energy>  (8) 
58.338269213512504

>  <Genealogy>  (8) 
CCOC(=O)CN(Cc1ccccc1)S(=O)(=O)c1cccs1 (3D coordinates assigned)
CCOC(=O)CN(Cc1ccccc1)S(=O)(=O)c1cccs1 (optimized conformer: 58.338269213512504 kcal/mol)

>  <smiles>  (8) 
CCOC(=O)CN(Cc1ccccc1)S(=O)(=O)c1cccs1

>  <score_type>  (8) 
oracle

>  <origin>  (8) 
adg

>  <m_score__min__energy>  (8) 
-7.8799999999999999

>  <m_primary>  (8) 
energy

$$$$
8:0
     RDKit          3D

 32 34  0  0  0  0  0  0  0  0999 V2000
   -7.4315   22.7952  -33.2613 H   0  0  0  0  0  0  0  0  0  0  0  0
   -7.4510   22.3560  -32.2530 C   0  0  0  0  0  0  0  0  0  0  0  0
   -7.2580   23.1440  -31.2370 N   0  0  0  0  0  0  0  0  0  0  0  0
   -6.0400   23.7760  -30.9300 N   0  0  0  0  0  0  0  0  0  0  0  0
   -4.8340   23.1910  -30.9190 C   0  0  0  0  0  0  0  0  0  0  0  0
   -4.6645   22.1052  -30.9663 H   0  0  0  0  0  0  0  0  0  0  0  0
   -3.8580   24.1170  -30.8420 N   0  0  0  0  0  0  0  0  0  0  0  0
   -4.4460   25.3070  -30.8400 N   0  0  0  0  0  0  0  0  0  0  0  0
   -5.7740   25.0950  -30.9090 C   0  0  0  0  0  0  0  0  0  0  0  0
   -6.5348   25.8887  -30.9434 H   0  0  0  0  0  0  0  0  0  0  0  0
   -7.6950   20.9040  -32.1300 C   0  0  0  0  0  0  0  0  0  0  0  0
   -8.8020   20.4680  -31.3880 C   0  0  0  0  0  0  0  0  0  0  0  0
   -9.4363   21.2022  -30.8698 H   0  0  0  0  0  0  0  0  0  0  0  0
   -9.1040   19.1070  -31.3030 C   0  0  0  0  0  0  0  0  0  0  0  0
   -9.9592   18.7706  -30.6985 H   0  0  0  0  0  0  0  0  0  0  0  0
   -8.3220   18.1740  -31.9840 C   0  0  0  0  0  0  0  0  0  0  0  0
   -8.5617   17.1026  -31.9161 H   0  0  0  0  0  0  0  0  0  0  0  0
   -7.2350   18.5980  -32.7520 C   0  0  0  0  0  0  0  0  0  0  0  0
   -6.6331   17.8591  -33.3013 H   0  0  0  0  0  0  0  0  0  0  0  0
   -6.9040   19.9660  -32.8280 C   0  0  0  0  0  0  0  0  0  0  0  0
   -5.8410   20.4300  -33.6240 O   0  0  0  0  0  0  0  0  0  0  0  0
   -4.4980   20.0590  -33.4800 C   0  0  0  0  0  0  0  0  0  0  0  0
   -3.6540   20.8910  -32.7320 C   0  0  0  0  0  0  0  0  0  0  0  0
   -4.0538   21.8103  -32.2791 H   0  0  0  0  0  0  0  0  0  0  0  0
   -2.3080   20.5600  -32.5580 C   0  0  0  0  0  0  0  0  0  0  0  0
   -1.6500   21.2227  -31.9768 H   0  0  0  0  0  0  0  0  0  0  0  0
   -1.7970   19.3890  -33.1210 C   0  0  0  0  0  0  0  0  0  0  0  0
   -0.7352   19.1335  -32.9896 H   0  0  0  0  0  0  0  0  0  0  0  0
   -2.6340   18.5420  -33.8510 C   0  0  0  0  0  0  0  0  0  0  0  0
   -2.2305   17.6164  -34.2873 H   0  0  0  0  0  0  0  0  0  0  0  0
   -3.9850   18.8660  -34.0300 C   0  0  0  0  0  0  0  0  0  0  0  0
   -5.0110   17.7360  -34.8990 Cl  0  0  0  0  0  0  0  0  0  0  0  0
  1  2  1  0
  2  3  2  0
  3  4  1  0
  4  5  1  0
  5  6  1  0
  5  7  2  0
  7  8  1  0
  8  9  2  0
  9 10  1  0
  2 11  1  0
 11 12  2  0
 12 13  1  0
 12 14  1  0
 14 15  1  0
 14 16  2  0
 16 17  1  0
 16 18  1  0
 18 19  1  0
 18 20  2  0
 20 21  1  0
 21 22  1  0
 22 23  2  0
 23 24  1  0
 23 25  1  0
 25 26  1  0
 25 27  2  0
 27 28  1  0
 27 29  1  0
 29 30  1  0
 29 31  2  0
 31 32  1  0
  9  4  1  0
 20 11  1  0
 31 22  1  0
M  END
>  <UniqueID>  (9) 
7

>  <SMILES>  (9) 
Clc1ccccc1Oc1ccccc1/C=N\n1cnnc1

>  <Energy>  (9) 
89.50059712858068

>  <Genealogy>  (9) 
Clc1ccccc1Oc1ccccc1/C=N\n1cnnc1 (cis-trans isomerization)
Clc1ccccc1Oc1ccccc1/C=N\n1cnnc1 (3D coordinates assigned)
Clc1ccccc1Oc1ccccc1/C=N\n1cnnc1 (optimized conformer: 89.50059712858068 kcal/mol)

>  <smiles>  (9) 
Clc1ccccc1Oc1ccccc1C=Nn1cnnc1

>  <score_type>  (9) 
oracle

>  <origin>  (9) 
adg

>  <m_score__min__energy>  (9) 
-7.9800000000000004

>  <m_primary>  (9) 
energy

$$$$
9:0
     RDKit          3D

 57 60  0  0  0  0  0  0  0  0999 V2000
   -2.8080   18.5340  -34.2740 C   0  0  0  0  0  0  0  0  0  0  0  0
   -2.5660   19.3600  -33.0830 N   0  0  0  0  0  0  0  0  0  0  0  0
   -1.4920   19.1140  -32.3220 N   0  0  0  0  0  0  0  0  0  0  0  0
   -1.2080   19.8590  -31.2210 C   0  0  0  0  0  0  0  0  0  0  0  0
   -2.0500   20.9120  -30.8530 C   0  0  0  0  0  0  0  0  0  0  0  0
   -1.7720   21.7040  -29.6850 N   0  0  0  0  0  0  0  0  0  0  0  0
   -0.5100   22.4480  -29.5970 C   0  0  0  0  0  0  0  0  0  0  0  0
   -0.6730   23.7900  -28.8510 C   0  0  0  0  0  0  0  0  0  0  0  0
   -1.8300   23.8400  -27.7900 C   0  0  0  0  0  0  0  0  0  0  0  0
   -3.1230   24.4180  -28.3610 C   0  0  0  0  0  0  0  0  0  0  0  0
   -4.1450   24.4850  -27.6260 O   0  0  0  0  0  0  0  0  0  0  0  0
   -3.1750   24.9640  -29.6850 N   0  0  0  0  0  0  0  0  0  0  0  0
   -4.2920   24.7430  -30.6020 C   0  0  0  0  0  0  0  0  0  0  0  0
   -4.9330   23.3750  -30.3040 C   0  0  0  0  0  0  0  0  0  0  0  0
   -6.4430   23.4190  -30.5740 C   0  0  0  0  0  0  0  0  0  0  0  0
   -7.1330   24.3350  -29.7340 O   0  0  0  0  0  0  0  0  0  0  0  0
   -6.4100   25.5330  -29.4510 C   0  0  0  0  0  0  0  0  0  0  0  0
   -5.3190   25.8850  -30.4800 C   0  0  0  0  0  0  0  0  0  0  0  0
   -1.3940   24.7800  -26.6480 C   0  0  0  0  0  0  0  0  0  0  0  0
   -1.5670   26.1750  -26.8080 C   0  0  0  0  0  0  0  0  0  0  0  0
   -1.1960   27.0680  -25.7990 C   0  0  0  0  0  0  0  0  0  0  0  0
   -0.6540   26.5890  -24.6080 C   0  0  0  0  0  0  0  0  0  0  0  0
   -0.4770   25.2160  -24.4250 C   0  0  0  0  0  0  0  0  0  0  0  0
   -0.8370   24.3160  -25.4330 C   0  0  0  0  0  0  0  0  0  0  0  0
   -2.1160   22.3860  -27.3130 C   0  0  0  0  0  0  0  0  0  0  0  0
   -2.5900   21.4990  -28.4770 C   0  0  0  0  0  0  0  0  0  0  0  0
   -3.1730   21.1690  -31.6410 C   0  0  0  0  0  0  0  0  0  0  0  0
   -3.4140   20.3910  -32.7720 C   0  0  0  0  0  0  0  0  0  0  0  0
   -4.4090   20.6520  -33.5010 O   0  0  0  0  0  0  0  0  0  0  0  0
   -3.1047   17.5212  -33.9637 H   0  0  0  0  0  0  0  0  0  0  0  0
   -3.6121   18.9837  -34.8749 H   0  0  0  0  0  0  0  0  0  0  0  0
   -1.8883   18.4787  -34.8749 H   0  0  0  0  0  0  0  0  0  0  0  0
   -0.8340   18.3390  -32.5690 H   0  0  0  0  0  0  0  0  0  0  0  0
   -0.3152   19.6330  -30.6195 H   0  0  0  0  0  0  0  0  0  0  0  0
    0.2272   21.8323  -29.0609 H   0  0  0  0  0  0  0  0  0  0  0  0
   -0.1777   22.6703  -30.6218 H   0  0  0  0  0  0  0  0  0  0  0  0
    0.2723   24.0054  -28.3314 H   0  0  0  0  0  0  0  0  0  0  0  0
   -0.9369   24.5315  -29.6194 H   0  0  0  0  0  0  0  0  0  0  0  0
   -3.9247   24.7384  -31.6388 H   0  0  0  0  0  0  0  0  0  0  0  0
   -4.4722   22.6113  -30.9478 H   0  0  0  0  0  0  0  0  0  0  0  0
   -4.7679   23.1278  -29.2449 H   0  0  0  0  0  0  0  0  0  0  0  0
   -6.6029   23.7154  -31.6212 H   0  0  0  0  0  0  0  0  0  0  0  0
   -6.8432   22.4161  -30.3643 H   0  0  0  0  0  0  0  0  0  0  0  0
   -7.1278   26.3657  -29.4143 H   0  0  0  0  0  0  0  0  0  0  0  0
   -5.8926   25.3650  -28.4949 H   0  0  0  0  0  0  0  0  0  0  0  0
   -5.7889   26.0535  -31.4602 H   0  0  0  0  0  0  0  0  0  0  0  0
   -4.7975   26.7933  -30.1437 H   0  0  0  0  0  0  0  0  0  0  0  0
   -2.0005   26.5630  -27.7416 H   0  0  0  0  0  0  0  0  0  0  0  0
   -1.3319   28.1497  -25.9451 H   0  0  0  0  0  0  0  0  0  0  0  0
   -0.3658   27.2919  -23.8125 H   0  0  0  0  0  0  0  0  0  0  0  0
   -0.0520   24.8402  -23.4826 H   0  0  0  0  0  0  0  0  0  0  0  0
   -0.6857   23.2373  -25.2798 H   0  0  0  0  0  0  0  0  0  0  0  0
   -1.1943   21.9598  -26.8900 H   0  0  0  0  0  0  0  0  0  0  0  0
   -2.9127   22.4195  -26.5553 H   0  0  0  0  0  0  0  0  0  0  0  0
   -2.5195   20.4441  -28.1733 H   0  0  0  0  0  0  0  0  0  0  0  0
   -3.6287   21.7714  -28.7154 H   0  0  0  0  0  0  0  0  0  0  0  0
   -3.8640   21.9811  -31.3709 H   0  0  0  0  0  0  0  0  0  0  0  0
  1  2  1  0
  2  3  1  0
  3  4  2  0
  4  5  1  0
  5  6  1  0
  6  7  1  0
  7  8  1  0
  8  9  1  0
  9 10  1  0
 10 11  2  0
 10 12  1  0
 12 13  1  0
 13 14  1  0
 14 15  1  0
 15 16  1  0
 16 17  1  0
 17 18  1  0
  9 19  1  0
 19 20  2  0
 20 21  1  0
 21 22  2  0
 22 23  1  0
 23 24  2  0
  9 25  1  0
 25 26  1  0
  5 27  2  0
 27 28  1  0
 28 29  2  0
 28  2  1  0
 26  6  1  0
 18 13  1  0
 24 19  1  0
  1 30  1  0
  1 31  1  0
  1 32  1  0
  3 33  1  0
  4 34  1  0
  7 35  1  0
  7 36  1  0
  8 37  1  0
  8 38  1  0
 13 39  1  0
 14 40  1  0
 14 41  1  0
 15 42  1  0
 15 43  1  0
 17 44  1  0
 17 45  1  0
 18 46  1  0
 18 47  1  0
 20 48  1  0
 21 49  1  0
 22 50  1  0
 23 51  1  0
 24 52  1  0
 25 53  1  0
 25 54  1  0
 26 55  1  0
 26 56  1  0
 27 57  1  0
M  CHG  2   3   1  12  -1
M  END
>  <UniqueID>  (10) 
8

>  <SMILES>  (10) 
Cn1[nH+]cc(N2CCC(C(=O)[N-]C3CCOCC3)(c3ccccc3)CC2)cc1=O

>  <Energy>  (10) 
83.54975183409252

>  <Genealogy>  (10) 
Cn1[nH+]cc(N2CCC(C(=O)[N-]C3CCOCC3)(c3ccccc3)CC2)cc1=O (protonated)
Cn1[nH+]cc(N2CCC(C(=O)[N-]C3CCOCC3)(c3ccccc3)CC2)cc1=O (3D coordinates assigned)
Cn1[nH+]cc(N2CCC(C(=O)[N-]C3CCOCC3)(c3ccccc3)CC2)cc1=O (nonaromatic ring conformer: 83.54975183409252 kcal/mol)

>  <smiles>  (10) 
Cn1ncc(N2CCC(C(=O)NC3CCOCC3)(c3ccccc3)CC2)cc1=O

>  <score_type>  (10) 
oracle

>  <origin>  (10) 
adg

>  <m_score__min__energy>  (10) 
-10.869999999999999

>  <m_primary>  (10) 
energy

$$$$
10:0
     RDKit          3D

 24 26  0  0  0  0  0  0  0  0999 V2000
   -6.0990   25.2670  -29.7220 C   0  0  0  0  0  0  0  0  0  0  0  0
   -4.8170   25.1960  -30.2690 C   0  0  0  0  0  0  0  0  0  0  0  0
   -4.5320   24.2650  -31.2180 N   0  0  0  0  0  0  0  0  0  0  0  0
   -5.4730   23.3940  -31.6710 C   0  0  0  0  0  0  0  0  0  0  0  0
   -6.7820   23.4410  -31.1630 C   0  0  0  0  0  0  0  0  0  0  0  0
   -7.8150   22.4900  -31.6220 C   0  0  0  0  0  0  0  0  0  0  0  0
   -9.0720   22.8480  -31.9670 N   0  0  0  0  0  0  0  0  0  0  0  0
   -9.7470   21.7580  -32.3140 N   0  0  0  0  0  0  0  0  0  0  0  0
   -8.8750   20.7410  -32.1820 C   0  0  0  0  0  0  0  0  0  0  0  0
   -9.1180   19.3980  -32.4610 C   0  0  0  0  0  0  0  0  0  0  0  0
   -8.0510   18.4990  -32.2980 C   0  0  0  0  0  0  0  0  0  0  0  0
   -6.7870   18.9610  -31.8800 C   0  0  0  0  0  0  0  0  0  0  0  0
   -6.6010   20.3270  -31.6160 C   0  0  0  0  0  0  0  0  0  0  0  0
   -7.6680   21.1570  -31.7600 N   0  0  0  0  0  0  0  0  0  0  0  0
   -7.0820   24.3830  -30.1680 C   0  0  0  0  0  0  0  0  0  0  0  0
   -6.3320   26.0122  -28.9472 H   0  0  0  0  0  0  0  0  0  0  0  0
   -4.0364   25.8939  -29.9320 H   0  0  0  0  0  0  0  0  0  0  0  0
   -5.2085   22.6505  -32.4374 H   0  0  0  0  0  0  0  0  0  0  0  0
   -9.4770   23.8110  -31.9530 H   0  0  0  0  0  0  0  0  0  0  0  0
  -10.1078   19.0545  -32.7962 H   0  0  0  0  0  0  0  0  0  0  0  0
   -8.2030   17.4280  -32.4978 H   0  0  0  0  0  0  0  0  0  0  0  0
   -5.9514   18.2556  -31.7613 H   0  0  0  0  0  0  0  0  0  0  0  0
   -5.6206   20.7145  -31.3018 H   0  0  0  0  0  0  0  0  0  0  0  0
   -8.0939   24.4249  -29.7386 H   0  0  0  0  0  0  0  0  0  0  0  0
  1  2  2  0
  2  3  1  0
  3  4  2  0
  4  5  1  0
  5  6  1  0
  6  7  2  0
  7  8  1  0
  8  9  2  0
  9 10  1  0
 10 11  2  0
 11 12  1  0
 12 13  2  0
 13 14  1  0
  5 15  2  0
 15  1  1  0
 14  6  1  0
 14  9  1  0
  1 16  1  0
  2 17  1  0
  4 18  1  0
  7 19  1  0
 10 20  1  0
 11 21  1  0
 12 22  1  0
 13 23  1  0
 15 24  1  0
M  CHG  1   7   1
M  END
>  <UniqueID>  (11) 
9

>  <SMILES>  (11) 
c1cncc(-c2[nH+]nc3ccccn23)c1

>  <Energy>  (11) 
74.04085835767947

>  <Genealogy>  (11) 
c1cncc(-c2[nH+]nc3ccccn23)c1 (protonated)
c1cncc(-c2[nH+]nc3ccccn23)c1 (3D coordinates assigned)
c1cncc(-c2[nH+]nc3ccccn23)c1 (optimized conformer: 74.04085835767947 kcal/mol)

>  <smiles>  (11) 
c1cncc(-c2nnc3ccccn23)c1

>  <score_type>  (11) 
oracle

>  <origin>  (11) 
adg

>  <m_score__min__energy>  (11) 
-6.5199999999999996

>  <m_primary>  (11) 
energy

$$$$
11:0
     RDKit          3D

 42 44  0  0  0  0  0  0  0  0999 V2000
   -5.3360   17.0080  -34.5340 C   0  0  0  0  0  0  0  0  0  0  0  0
   -6.1850   16.8950  -33.3970 O   0  0  0  0  0  0  0  0  0  0  0  0
   -6.9000   17.9620  -32.8330 C   0  0  0  0  0  0  0  0  0  0  0  0
   -8.0900   17.7750  -32.1050 C   0  0  0  0  0  0  0  0  0  0  0  0
   -8.7650   18.8720  -31.5630 C   0  0  0  0  0  0  0  0  0  0  0  0
   -8.2590   20.1700  -31.7300 C   0  0  0  0  0  0  0  0  0  0  0  0
   -9.0100   21.3560  -31.1810 C   0  0  0  0  0  0  0  0  0  0  0  0
   -8.8870   22.5060  -32.0930 N   0  0  0  0  0  0  0  0  0  0  0  0
   -7.8550   23.4650  -31.6520 C   0  0  0  0  0  0  0  0  0  0  0  0
   -6.9350   22.9130  -30.5470 C   0  0  0  0  0  0  0  0  0  0  0  0
   -5.6910   23.7400  -30.3820 C   0  0  0  0  0  0  0  0  0  0  0  0
   -5.4770   25.0170  -30.8920 C   0  0  0  0  0  0  0  0  0  0  0  0
   -4.2770   25.4920  -30.4880 N   0  0  0  0  0  0  0  0  0  0  0  0
   -3.7350   24.5300  -29.7210 C   0  0  0  0  0  0  0  0  0  0  0  0
   -2.5090   24.5690  -29.0600 C   0  0  0  0  0  0  0  0  0  0  0  0
   -2.1410   23.4500  -28.2890 C   0  0  0  0  0  0  0  0  0  0  0  0
   -2.9990   22.3320  -28.1980 C   0  0  0  0  0  0  0  0  0  0  0  0
   -4.2300   22.3200  -28.8760 C   0  0  0  0  0  0  0  0  0  0  0  0
   -4.5690   23.4440  -29.6320 C   0  0  0  0  0  0  0  0  0  0  0  0
   -7.0810   20.3580  -32.4680 C   0  0  0  0  0  0  0  0  0  0  0  0
   -6.4060   19.2600  -33.0100 C   0  0  0  0  0  0  0  0  0  0  0  0
   -4.2962   17.1464  -34.2029 H   0  0  0  0  0  0  0  0  0  0  0  0
   -5.4094   16.0922  -35.1389 H   0  0  0  0  0  0  0  0  0  0  0  0
   -5.6464   17.8728  -35.1389 H   0  0  0  0  0  0  0  0  0  0  0  0
   -8.4906   16.7606  -31.9620 H   0  0  0  0  0  0  0  0  0  0  0  0
   -9.6985   18.7170  -31.0021 H   0  0  0  0  0  0  0  0  0  0  0  0
  -10.0723   21.0930  -31.0699 H   0  0  0  0  0  0  0  0  0  0  0  0
   -8.5847   21.6275  -30.2036 H   0  0  0  0  0  0  0  0  0  0  0  0
   -8.6060   22.1490  -33.0370 H   0  0  0  0  0  0  0  0  0  0  0  0
   -9.8130   22.9820  -32.1970 H   0  0  0  0  0  0  0  0  0  0  0  0
   -7.2346   23.7325  -32.5201 H   0  0  0  0  0  0  0  0  0  0  0  0
   -8.3805   24.3347  -31.2308 H   0  0  0  0  0  0  0  0  0  0  0  0
   -7.4868   22.9085  -29.5954 H   0  0  0  0  0  0  0  0  0  0  0  0
   -6.6302   21.8964  -30.8363 H   0  0  0  0  0  0  0  0  0  0  0  0
   -6.1843   25.5631  -31.5334 H   0  0  0  0  0  0  0  0  0  0  0  0
   -3.8660   26.4240  -30.7150 H   0  0  0  0  0  0  0  0  0  0  0  0
   -1.8497   25.4461  -29.1381 H   0  0  0  0  0  0  0  0  0  0  0  0
   -1.1796   23.4465  -27.7544 H   0  0  0  0  0  0  0  0  0  0  0  0
   -2.7015   21.4637  -27.5917 H   0  0  0  0  0  0  0  0  0  0  0  0
   -4.9045   21.4533  -28.8132 H   0  0  0  0  0  0  0  0  0  0  0  0
   -6.6866   21.3734  -32.6210 H   0  0  0  0  0  0  0  0  0  0  0  0
   -5.4787   19.4174  -33.5804 H   0  0  0  0  0  0  0  0  0  0  0  0
  1  2  1  0
  2  3  1  0
  3  4  2  0
  4  5  1  0
  5  6  2  0
  6  7  1  0
  7  8  1  0
  8  9  1  0
  9 10  1  0
 10 11  1  0
 11 12  2  0
 12 13  1  0
 13 14  1  0
 14 15  2  0
 15 16  1  0
 16 17  2  0
 17 18  1  0
 18 19  2  0
  6 20  1  0
 20 21  2  0
 21  3  1  0
 19 11  1  0
 19 14  1  0
  1 22  1  0
  1 23  1  0
  1 24  1  0
  4 25  1  0
  5 26  1  0
  7 27  1  0
  7 28  1  0
  8 29  1  0
  8 30  1  0
  9 31  1  0
  9 32  1  0
 10 33  1  0
 10 34  1  0
 12 35  1  0
 13 36  1  0
 15 37  1  0
 16 38  1  0
 17 39  1  0
 18 40  1  0
 20 41  1  0
 21 42  1  0
M  CHG  1   8   1
M  END
>  <UniqueID>  (12) 
10

>  <SMILES>  (12) 
COc1ccc(C[NH2+]CCc2c[nH]c3ccccc23)cc1

>  <Energy>  (12) 
72.71315872992326

>  <Genealogy>  (12) 
COc1ccc(C[NH2+]CCc2c[nH]c3ccccc23)cc1 (protonated)
COc1ccc(C[NH2+]CCc2c[nH]c3ccccc23)cc1 (3D coordinates assigned)
COc1ccc(C[NH2+]CCc2c[nH]c3ccccc23)cc1 (optimized conformer: 72.71315872992326 kcal/mol)

>  <smiles>  (12) 
COc1ccc(CNCCc2c[nH]c3ccccc23)cc1

>  <score_type>  (12) 
oracle

>  <origin>  (12) 
adg

>  <m_score__min__energy>  (12) 
-7.4800000000000004

>  <m_primary>  (12) 
energy

$$$$
12:0
     RDKit          3D

 47 51  0  0  0  0  0  0  0  0999 V2000
   -2.3220   22.2970  -31.9640 C   0  0  0  0  0  0  0  0  0  0  0  0
   -3.5430   21.5930  -32.3610 N   0  0  0  0  0  0  0  0  0  0  0  0
   -3.6580   20.4350  -33.0720 C   0  0  0  0  0  0  0  0  0  0  0  0
   -2.5340   19.6970  -33.6850 C   0  0  0  0  0  0  0  0  0  0  0  0
   -2.5890   18.3040  -33.8460 C   0  0  0  0  0  0  0  0  0  0  0  0
   -1.5070   17.6160  -34.3980 C   0  0  0  0  0  0  0  0  0  0  0  0
   -0.3560   18.3090  -34.7820 C   0  0  0  0  0  0  0  0  0  0  0  0
   -0.2750   19.7010  -34.6120 C   0  0  0  0  0  0  0  0  0  0  0  0
    0.9520   20.4380  -35.0010 C   0  0  0  0  0  0  0  0  0  0  0  0
    0.8500   21.6360  -35.7330 C   0  0  0  0  0  0  0  0  0  0  0  0
    1.9990   22.3420  -36.1000 C   0  0  0  0  0  0  0  0  0  0  0  0
    1.8890   23.4980  -36.8000 F   0  0  0  0  0  0  0  0  0  0  0  0
    3.2610   21.8600  -35.7440 C   0  0  0  0  0  0  0  0  0  0  0  0
    3.3750   20.6690  -35.0220 C   0  0  0  0  0  0  0  0  0  0  0  0
    2.2310   19.9570  -34.6510 C   0  0  0  0  0  0  0  0  0  0  0  0
    2.3740   18.7840  -33.9830 F   0  0  0  0  0  0  0  0  0  0  0  0
   -1.3670   20.3860  -34.0500 C   0  0  0  0  0  0  0  0  0  0  0  0
   -4.9400   20.0070  -33.1870 N   0  0  0  0  0  0  0  0  0  0  0  0
   -5.6440   20.9560  -32.5400 C   0  0  0  0  0  0  0  0  0  0  0  0
   -7.0210   21.0190  -32.3620 C   0  0  0  0  0  0  0  0  0  0  0  0
   -7.8740   20.0260  -32.8650 C   0  0  0  0  0  0  0  0  0  0  0  0
   -9.2510   20.1220  -32.6660 C   0  0  0  0  0  0  0  0  0  0  0  0
   -9.7830   21.2040  -31.9680 C   0  0  0  0  0  0  0  0  0  0  0  0
   -8.9460   22.2020  -31.4600 C   0  0  0  0  0  0  0  0  0  0  0  0
   -7.5430   22.1360  -31.6430 C   0  0  0  0  0  0  0  0  0  0  0  0
   -6.6850   23.1170  -31.1530 N   0  0  0  0  0  0  0  0  0  0  0  0
   -7.2260   24.2740  -30.4140 C   0  0  0  0  0  0  0  0  0  0  0  0
   -5.3200   23.0160  -31.3570 C   0  0  0  0  0  0  0  0  0  0  0  0
   -4.5320   23.9080  -30.9360 O   0  0  0  0  0  0  0  0  0  0  0  0
   -4.8160   21.9130  -32.0510 C   0  0  0  0  0  0  0  0  0  0  0  0
   -2.2598   22.3328  -30.8663 H   0  0  0  0  0  0  0  0  0  0  0  0
   -1.4458   21.7654  -32.3637 H   0  0  0  0  0  0  0  0  0  0  0  0
   -2.3431   23.3216  -32.3637 H   0  0  0  0  0  0  0  0  0  0  0  0
   -3.4885   17.7519  -33.5359 H   0  0  0  0  0  0  0  0  0  0  0  0
   -1.5606   16.5254  -34.5310 H   0  0  0  0  0  0  0  0  0  0  0  0
    0.4915   17.7613  -35.2199 H   0  0  0  0  0  0  0  0  0  0  0  0
   -0.1409   22.0192  -36.0182 H   0  0  0  0  0  0  0  0  0  0  0  0
    4.1644   22.4177  -36.0319 H   0  0  0  0  0  0  0  0  0  0  0  0
    4.3697   20.2901  -34.7444 H   0  0  0  0  0  0  0  0  0  0  0  0
   -1.3059   21.4733  -33.8948 H   0  0  0  0  0  0  0  0  0  0  0  0
   -7.4567   19.1708  -33.4169 H   0  0  0  0  0  0  0  0  0  0  0  0
   -9.9184   19.3419  -33.0609 H   0  0  0  0  0  0  0  0  0  0  0  0
  -10.8701   21.2736  -31.8154 H   0  0  0  0  0  0  0  0  0  0  0  0
   -9.3827   23.0494  -30.9111 H   0  0  0  0  0  0  0  0  0  0  0  0
   -7.1404   24.0910  -29.3327 H   0  0  0  0  0  0  0  0  0  0  0  0
   -6.6568   25.1772  -30.6792 H   0  0  0  0  0  0  0  0  0  0  0  0
   -8.2840   24.4163  -30.6792 H   0  0  0  0  0  0  0  0  0  0  0  0
  1  2  1  0
  2  3  1  0
  3  4  1  0
  4  5  2  0
  5  6  1  0
  6  7  2  0
  7  8  1  0
  8  9  1  0
  9 10  2  0
 10 11  1  0
 11 12  1  0
 11 13  2  0
 13 14  1  0
 14 15  2  0
 15 16  1  0
  8 17  2  0
  3 18  2  0
 18 19  1  0
 19 20  1  0
 20 21  2  0
 21 22  1  0
 22 23  2  0
 23 24  1  0
 24 25  2  0
 25 26  1  0
 26 27  1  0
 26 28  1  0
 28 29  2  0
 28 30  1  0
 30  2  1  0
 17  4  1  0
 30 19  2  0
 15  9  1  0
 25 20  1  0
  1 31  1  0
  1 32  1  0
  1 33  1  0
  5 34  1  0
  6 35  1  0
  7 36  1  0
 10 37  1  0
 13 38  1  0
 14 39  1  0
 17 40  1  0
 21 41  1  0
 22 42  1  0
 23 43  1  0
 24 44  1  0
 27 45  1  0
 27 46  1  0
 27 47  1  0
M  END
>  <UniqueID>  (13) 
11

>  <SMILES>  (13) 
Cn1c(-c2cccc(-c3cc(F)ccc3F)c2)nc2c3ccccc3n(C)c(=O)c21

>  <Energy>  (13) 
113.64590566491421

>  <Genealogy>  (13) 
Cn1c(-c2cccc(-c3cc(F)ccc3F)c2)nc2c3ccccc3n(C)c(=O)c21 (3D coordinates assigned)
Cn1c(-c2cccc(-c3cc(F)ccc3F)c2)nc2c3ccccc3n(C)c(=O)c21 (optimized conformer: 113.64590566491421 kcal/mol)

>  <smiles>  (13) 
Cn1c(-c2cccc(-c3cc(F)ccc3F)c2)nc2c3ccccc3n(C)c(=O)c21

>  <score_type>  (13) 
oracle

>  <origin>  (13) 
adg

>  <m_score__min__energy>  (13) 
-8.8699999999999992

>  <m_primary>  (13) 
energy

$$$$
13:0
     RDKit          3D

 45 48  0  0  0  0  0  0  0  0999 V2000
   -8.5424   20.6466  -30.6492 H   0  0  0  0  0  0  0  0  0  0  0  0
   -7.8000   21.3650  -31.0270 C   0  0  0  0  0  0  0  0  0  0  0  0
   -7.5780   22.9380  -30.4690 S   0  0  0  0  0  0  0  0  0  0  0  0
   -6.3470   23.2610  -31.5600 C   0  0  0  0  0  0  0  0  0  0  0  0
   -5.6930   24.3820  -31.5900 N   0  0  0  0  0  0  0  0  0  0  0  0
   -4.7850   24.7990  -30.5670 C   0  0  0  0  0  0  0  0  0  0  0  0
   -3.8730   25.6260  -30.8280 O   0  0  0  0  0  0  0  0  0  0  0  0
   -4.8600   24.1740  -29.2120 C   0  0  0  0  0  0  0  0  0  0  0  0
   -4.5172   24.8940  -28.4543 H   0  0  0  0  0  0  0  0  0  0  0  0
   -5.8987   23.8860  -28.9927 H   0  0  0  0  0  0  0  0  0  0  0  0
   -3.9780   22.9550  -29.1850 C   0  0  0  0  0  0  0  0  0  0  0  0
   -3.2430   22.5850  -30.3270 C   0  0  0  0  0  0  0  0  0  0  0  0
   -3.3745   23.1430  -31.2658 H   0  0  0  0  0  0  0  0  0  0  0  0
   -2.3460   21.5120  -30.2760 C   0  0  0  0  0  0  0  0  0  0  0  0
   -1.7815   21.2217  -31.1744 H   0  0  0  0  0  0  0  0  0  0  0  0
   -2.1700   20.8120  -29.0830 C   0  0  0  0  0  0  0  0  0  0  0  0
   -2.9140   21.1620  -27.9480 C   0  0  0  0  0  0  0  0  0  0  0  0
   -3.8000   22.2420  -27.9910 C   0  0  0  0  0  0  0  0  0  0  0  0
   -4.3575   22.5325  -27.0884 H   0  0  0  0  0  0  0  0  0  0  0  0
   -2.7520   20.4220  -26.7760 O   0  0  0  0  0  0  0  0  0  0  0  0
   -2.0700   19.1640  -26.7860 C   0  0  0  0  0  0  0  0  0  0  0  0
   -1.7201   18.9331  -25.7690 H   0  0  0  0  0  0  0  0  0  0  0  0
   -2.7641   18.3842  -27.1326 H   0  0  0  0  0  0  0  0  0  0  0  0
   -0.8650   19.2170  -27.7360 C   0  0  0  0  0  0  0  0  0  0  0  0
   -0.0817   19.8500  -27.2936 H   0  0  0  0  0  0  0  0  0  0  0  0
   -0.4838   18.1964  -27.8876 H   0  0  0  0  0  0  0  0  0  0  0  0
   -1.2530   19.7610  -29.0000 O   0  0  0  0  0  0  0  0  0  0  0  0
   -6.0810   22.1910  -32.3440 N   0  0  0  0  0  0  0  0  0  0  0  0
   -5.3540   22.1780  -33.0910 H   0  0  0  0  0  0  0  0  0  0  0  0
   -6.8810   21.1280  -32.0510 C   0  0  0  0  0  0  0  0  0  0  0  0
   -6.7470   19.8200  -32.7320 C   0  0  0  0  0  0  0  0  0  0  0  0
   -7.4120   18.6850  -32.2410 C   0  0  0  0  0  0  0  0  0  0  0  0
   -8.0700   18.7753  -31.3642 H   0  0  0  0  0  0  0  0  0  0  0  0
   -7.2450   17.4410  -32.8570 C   0  0  0  0  0  0  0  0  0  0  0  0
   -7.7829   16.5637  -32.4683 H   0  0  0  0  0  0  0  0  0  0  0  0
   -6.4010   17.3020  -33.9620 C   0  0  0  0  0  0  0  0  0  0  0  0
   -6.2370   16.0270  -34.5210 O   0  0  0  0  0  0  0  0  0  0  0  0
   -5.6560   14.9220  -33.8370 C   0  0  0  0  0  0  0  0  0  0  0  0
   -5.7383   15.0784  -32.7513 H   0  0  0  0  0  0  0  0  0  0  0  0
   -6.1854   13.9989  -34.1156 H   0  0  0  0  0  0  0  0  0  0  0  0
   -4.5954   14.8348  -34.1156 H   0  0  0  0  0  0  0  0  0  0  0  0
   -5.7430   18.4380  -34.4660 C   0  0  0  0  0  0  0  0  0  0  0  0
   -5.0848   18.3443  -35.3424 H   0  0  0  0  0  0  0  0  0  0  0  0
   -5.9200   19.6870  -33.8600 C   0  0  0  0  0  0  0  0  0  0  0  0
   -5.4083   20.5704  -34.2695 H   0  0  0  0  0  0  0  0  0  0  0  0
  1  2  1  0
  2  3  1  0
  3  4  1  0
  4  5  2  0
  5  6  1  0
  6  7  2  0
  6  8  1  0
  8  9  1  0
  8 10  1  0
  8 11  1  0
 11 12  2  0
 12 13  1  0
 12 14  1  0
 14 15  1  0
 14 16  2  0
 16 17  1  0
 17 18  2  0
 18 19  1  0
 17 20  1  0
 20 21  1  0
 21 22  1  0
 21 23  1  0
 21 24  1  0
 24 25  1  0
 24 26  1  0
 24 27  1  0
  4 28  1  0
 28 29  1  0
 28 30  1  0
 30 31  1  0
 31 32  2  0
 32 33  1  0
 32 34  1  0
 34 35  1  0
 34 36  2  0
 36 37  1  0
 37 38  1  0
 38 39  1  0
 38 40  1  0
 38 41  1  0
 36 42  1  0
 42 43  1  0
 42 44  2  0
 44 45  1  0
 30  2  2  0
 44 31  1  0
 18 11  1  0
 27 16  1  0
M  END
>  <UniqueID>  (14) 
12

>  <SMILES>  (14) 
COc1ccc(-c2cs/c(=N/C(=O)Cc3ccc4c(c3)OCCO4)[nH]2)cc1

>  <Energy>  (14) 
85.29615557172781

>  <Genealogy>  (14) 
COc1ccc(-c2cs/c(=N/C(=O)Cc3ccc4c(c3)OCCO4)[nH]2)cc1 (cis-trans isomerization)
COc1ccc(-c2cs/c(=N/C(=O)Cc3ccc4c(c3)OCCO4)[nH]2)cc1 (3D coordinates assigned)
COc1ccc(-c2cs/c(=N/C(=O)Cc3ccc4c(c3)OCCO4)[nH]2)cc1 (nonaromatic ring conformer: 85.29615557172781 kcal/mol)

>  <smiles>  (14) 
COc1ccc(-c2csc(=NC(=O)Cc3ccc4c(c3)OCCO4)[nH]2)cc1

>  <score_type>  (14) 
oracle

>  <origin>  (14) 
adg

>  <m_score__min__energy>  (14) 
-9.3000000000000007

>  <m_primary>  (14) 
energy

$$$$
14:0
     RDKit          3D

 56 60  0  0  0  0  0  0  0  0999 V2000
   -4.9530   25.0820  -30.8410 C   0  0  0  0  0  0  0  0  0  0  0  0
   -4.9600   23.8270  -31.5130 O   0  0  0  0  0  0  0  0  0  0  0  0
   -5.9800   22.8690  -31.4040 C   0  0  0  0  0  0  0  0  0  0  0  0
   -7.1490   23.1160  -30.6580 C   0  0  0  0  0  0  0  0  0  0  0  0
   -8.1620   22.1560  -30.5900 C   0  0  0  0  0  0  0  0  0  0  0  0
   -8.0190   20.9420  -31.2570 C   0  0  0  0  0  0  0  0  0  0  0  0
   -6.8650   20.6820  -31.9970 C   0  0  0  0  0  0  0  0  0  0  0  0
   -5.8350   21.6360  -32.0760 C   0  0  0  0  0  0  0  0  0  0  0  0
   -4.6330   21.3350  -32.8180 N   0  0  0  0  0  0  0  0  0  0  0  0
   -3.4980   22.2610  -32.7730 C   0  0  0  0  0  0  0  0  0  0  0  0
   -2.1710   21.5620  -33.1480 C   0  0  0  0  0  0  0  0  0  0  0  0
   -2.0370   20.1780  -32.6110 N   0  0  0  0  0  0  0  0  0  0  0  0
   -1.4000   20.1170  -31.2650 C   0  0  0  0  0  0  0  0  0  0  0  0
   -1.6650   21.3240  -30.3970 C   0  0  0  0  0  0  0  0  0  0  0  0
   -0.6530   22.2560  -30.1080 C   0  0  0  0  0  0  0  0  0  0  0  0
   -0.9280   23.3120  -29.2320 C   0  0  0  0  0  0  0  0  0  0  0  0
   -0.0310   24.1620  -28.9870 O   0  0  0  0  0  0  0  0  0  0  0  0
   -2.1780   23.4130  -28.6810 N   0  0  0  0  0  0  0  0  0  0  0  0
   -2.6430   24.3450  -27.7870 C   0  0  0  0  0  0  0  0  0  0  0  0
   -1.7960   25.3340  -27.0940 C   0  0  0  0  0  0  0  0  0  0  0  0
   -1.1870   26.3710  -27.8190 C   0  0  0  0  0  0  0  0  0  0  0  0
   -0.3600   27.2920  -27.1680 C   0  0  0  0  0  0  0  0  0  0  0  0
   -0.1240   27.1730  -25.7960 C   0  0  0  0  0  0  0  0  0  0  0  0
   -0.7100   26.1290  -25.0730 C   0  0  0  0  0  0  0  0  0  0  0  0
   -1.5390   25.2060  -25.7200 C   0  0  0  0  0  0  0  0  0  0  0  0
   -4.0010   24.2180  -27.4860 C   0  0  0  0  0  0  0  0  0  0  0  0
   -4.6220   22.8880  -28.3220 S   0  0  0  0  0  0  0  0  0  0  0  0
   -3.1510   22.5450  -29.0430 C   0  0  0  0  0  0  0  0  0  0  0  0
   -2.9120   21.5060  -29.8780 N   0  0  0  0  0  0  0  0  0  0  0  0
   -3.2600   19.3270  -32.7160 C   0  0  0  0  0  0  0  0  0  0  0  0
   -4.4300   20.0180  -33.4170 C   0  0  0  0  0  0  0  0  0  0  0  0
   -4.9539   24.9157  -29.7536 H   0  0  0  0  0  0  0  0  0  0  0  0
   -4.0517   25.6450  -31.1251 H   0  0  0  0  0  0  0  0  0  0  0  0
   -5.8480   25.6550  -31.1251 H   0  0  0  0  0  0  0  0  0  0  0  0
   -7.2652   24.0713  -30.1252 H   0  0  0  0  0  0  0  0  0  0  0  0
   -9.0735   22.3595  -30.0089 H   0  0  0  0  0  0  0  0  0  0  0  0
   -8.8169   20.1869  -31.2004 H   0  0  0  0  0  0  0  0  0  0  0  0
   -6.7600   19.7219  -32.5234 H   0  0  0  0  0  0  0  0  0  0  0  0
   -3.6804   23.0823  -33.4816 H   0  0  0  0  0  0  0  0  0  0  0  0
   -3.4062   22.6393  -31.7442 H   0  0  0  0  0  0  0  0  0  0  0  0
   -2.1040   21.5145  -34.2449 H   0  0  0  0  0  0  0  0  0  0  0  0
   -1.3623   22.1559  -32.6972 H   0  0  0  0  0  0  0  0  0  0  0  0
   -1.3330   19.7240  -33.2430 H   0  0  0  0  0  0  0  0  0  0  0  0
   -1.7816   19.2270  -30.7433 H   0  0  0  0  0  0  0  0  0  0  0  0
   -0.3133   20.0815  -31.4320 H   0  0  0  0  0  0  0  0  0  0  0  0
    0.3427   22.1564  -30.5648 H   0  0  0  0  0  0  0  0  0  0  0  0
   -1.3608   26.4592  -28.9016 H   0  0  0  0  0  0  0  0  0  0  0  0
    0.1051   28.1108  -27.7366 H   0  0  0  0  0  0  0  0  0  0  0  0
    0.5230   27.9007  -25.2843 H   0  0  0  0  0  0  0  0  0  0  0  0
   -0.5189   26.0334  -23.9940 H   0  0  0  0  0  0  0  0  0  0  0  0
   -1.9898   24.3793  -25.1514 H   0  0  0  0  0  0  0  0  0  0  0  0
   -4.5723   24.8760  -26.8147 H   0  0  0  0  0  0  0  0  0  0  0  0
   -3.0038   18.4187  -33.2811 H   0  0  0  0  0  0  0  0  0  0  0  0
   -3.5861   19.1040  -31.6894 H   0  0  0  0  0  0  0  0  0  0  0  0
   -4.2039   20.1307  -34.4876 H   0  0  0  0  0  0  0  0  0  0  0  0
   -5.3416   19.4131  -33.3022 H   0  0  0  0  0  0  0  0  0  0  0  0
  1  2  1  0
  2  3  1  0
  3  4  2  0
  4  5  1  0
  5  6  2  0
  6  7  1  0
  7  8  2  0
  8  9  1  0
  9 10  1  0
 10 11  1  0
 11 12  1  0
 12 13  1  0
 13 14  1  0
 14 15  2  0
 15 16  1  0
 16 17  2  0
 16 18  1  0
 18 19  1  0
 19 20  1  0
 20 21  2  0
 21 22  1  0
 22 23  2  0
 23 24  1  0
 24 25  2  0
 19 26  2  0
 26 27  1  0
 27 28  1  0
 28 29  2  0
 12 30  1  0
 30 31  1  0
  8  3  1  0
 31  9  1  0
 29 14  1  0
 28 18  1  0
 25 20  1  0
  1 32  1  0
  1 33  1  0
  1 34  1  0
  4 35  1  0
  5 36  1  0
  6 37  1  0
  7 38  1  0
 10 39  1  0
 10 40  1  0
 11 41  1  0
 11 42  1  0
 12 43  1  0
 13 44  1  0
 13 45  1  0
 15 46  1  0
 21 47  1  0
 22 48  1  0
 23 49  1  0
 24 50  1  0
 25 51  1  0
 26 52  1  0
 30 53  1  0
 30 54  1  0
 31 55  1  0
 31 56  1  0
M  CHG  1  12   1
M  END
>  <UniqueID>  (15) 
13

>  <SMILES>  (15) 
COc1ccccc1N1CC[NH+](Cc2cc(=O)n3c(-c4ccccc4)csc3n2)CC1

>  <Energy>  (15) 
118.48424274770356

>  <Genealogy>  (15) 
COc1ccccc1N1CC[NH+](Cc2cc(=O)n3c(-c4ccccc4)csc3n2)CC1 (protonated)
COc1ccccc1N1CC[NH+](Cc2cc(=O)n3c(-c4ccccc4)csc3n2)CC1 (3D coordinates assigned)
COc1ccccc1N1CC[NH+](Cc2cc(=O)n3c(-c4ccccc4)csc3n2)CC1 (nonaromatic ring conformer: 118.48424274770356 kcal/mol)

>  <smiles>  (15) 
COc1ccccc1N1CCN(Cc2cc(=O)n3c(-c4ccccc4)csc3n2)CC1

>  <score_type>  (15) 
oracle

>  <origin>  (15) 
adg

>  <m_score__min__energy>  (15) 
-8.3399999999999999

>  <m_primary>  (15) 
energy

$$$$
15:0
     RDKit          3D

 39 42  0  0  0  0  0  0  0  0999 V2000
    0.1960   23.2820  -24.6070 C   0  0  0  0  0  0  0  0  0  0  0  0
    0.3910   23.3690  -25.9830 O   0  0  0  0  0  0  0  0  0  0  0  0
   -0.5790   23.6810  -26.9240 C   0  0  0  0  0  0  0  0  0  0  0  0
   -1.5270   22.7780  -27.3620 C   0  0  0  0  0  0  0  0  0  0  0  0
   -2.4930   23.1170  -28.3100 C   0  0  0  0  0  0  0  0  0  0  0  0
   -2.4640   24.4060  -28.8000 C   0  0  0  0  0  0  0  0  0  0  0  0
   -1.5280   25.3310  -28.3810 C   0  0  0  0  0  0  0  0  0  0  0  0
   -0.5880   24.9600  -27.4410 C   0  0  0  0  0  0  0  0  0  0  0  0
    0.3800   25.8800  -26.9930 O   0  0  0  0  0  0  0  0  0  0  0  0
    0.0500   26.9130  -26.1100 C   0  0  0  0  0  0  0  0  0  0  0  0
   -3.5460   24.5450  -29.7660 C   0  0  0  0  0  0  0  0  0  0  0  0
   -4.1450   25.4200  -30.6200 N   0  0  0  0  0  0  0  0  0  0  0  0
   -5.1580   24.7730  -31.2140 N   0  0  0  0  0  0  0  0  0  0  0  0
   -5.2120   23.5110  -30.7570 C   0  0  0  0  0  0  0  0  0  0  0  0
   -6.2140   22.5500  -31.2160 C   0  0  0  0  0  0  0  0  0  0  0  0
   -5.8480   21.2980  -31.6600 C   0  0  0  0  0  0  0  0  0  0  0  0
   -6.7550   20.3800  -32.0940 C   0  0  0  0  0  0  0  0  0  0  0  0
   -8.0820   20.7100  -32.0920 C   0  0  0  0  0  0  0  0  0  0  0  0
   -9.0290   19.7260  -32.5550 C   0  0  0  0  0  0  0  0  0  0  0  0
   -9.7850   18.9350  -32.9390 N   0  0  0  0  0  0  0  0  0  0  0  0
   -8.5090   21.9490  -31.6580 C   0  0  0  0  0  0  0  0  0  0  0  0
   -7.5750   22.8740  -31.2190 C   0  0  0  0  0  0  0  0  0  0  0  0
   -4.2060   23.3370  -29.8400 C   0  0  0  0  0  0  0  0  0  0  0  0
   -3.5960   22.3390  -28.9290 C   0  0  0  0  0  0  0  0  0  0  0  0
    1.0806   23.6766  -24.0856 H   0  0  0  0  0  0  0  0  0  0  0  0
   -0.6892   23.8705  -24.3242 H   0  0  0  0  0  0  0  0  0  0  0  0
    0.0426   22.2301  -24.3242 H   0  0  0  0  0  0  0  0  0  0  0  0
   -1.5206   21.7580  -26.9502 H   0  0  0  0  0  0  0  0  0  0  0  0
   -1.5316   26.3515  -28.7916 H   0  0  0  0  0  0  0  0  0  0  0  0
    0.1627   26.5601  -25.0743 H   0  0  0  0  0  0  0  0  0  0  0  0
    0.7194   27.7690  -26.2806 H   0  0  0  0  0  0  0  0  0  0  0  0
   -0.9917   27.2224  -26.2806 H   0  0  0  0  0  0  0  0  0  0  0  0
   -3.8610   26.4270  -30.7810 H   0  0  0  0  0  0  0  0  0  0  0  0
   -4.7812   21.0297  -31.6640 H   0  0  0  0  0  0  0  0  0  0  0  0
   -6.4258   19.3893  -32.4405 H   0  0  0  0  0  0  0  0  0  0  0  0
   -9.5801   22.1996  -31.6606 H   0  0  0  0  0  0  0  0  0  0  0  0
   -7.9043   23.8646  -30.8723 H   0  0  0  0  0  0  0  0  0  0  0  0
   -4.3167   21.9962  -28.1720 H   0  0  0  0  0  0  0  0  0  0  0  0
   -3.2608   21.4226  -29.4367 H   0  0  0  0  0  0  0  0  0  0  0  0
  1  2  1  0
  2  3  1  0
  3  4  2  0
  4  5  1  0
  5  6  2  0
  6  7  1  0
  7  8  2  0
  8  9  1  0
  9 10  1  0
  6 11  1  0
 11 12  1  0
 12 13  1  0
 13 14  2  0
 14 15  1  0
 15 16  2  0
 16 17  1  0
 17 18  2  0
 18 19  1  0
 19 20  3  0
 18 21  1  0
 21 22  2  0
 14 23  1  0
 23 24  1  0
  8  3  1  0
 23 11  2  0
 24  5  1  0
 22 15  1  0
  1 25  1  0
  1 26  1  0
  1 27  1  0
  4 28  1  0
  7 29  1  0
 10 30  1  0
 10 31  1  0
 10 32  1  0
 12 33  1  0
 16 34  1  0
 17 35  1  0
 21 36  1  0
 22 37  1  0
 24 38  1  0
 24 39  1  0
M  END
>  <smiles>  (16) 
COc1cc2c(cc1OC)-c1[nH]nc(-c3ccc(C#N)cc3)c1C2

>  <score_type>  (16) 
oracle

>  <origin>  (16) 
adg

>  <m_score__min__energy>  (16) 
-8.5700000000000003

>  <m_primary>  (16) 
energy

$$$$
16:0
     RDKit          3D

 46 47  0  0  0  0  0  0  0  0999 V2000
   -5.8670   25.6250  -29.7410 C   0  0  0  0  0  0  0  0  0  0  0  0
   -5.3520   24.3820  -30.4110 C   0  0  0  0  0  0  0  0  0  0  0  0
   -6.2420   23.5280  -31.0830 C   0  0  0  0  0  0  0  0  0  0  0  0
   -5.7710   22.3770  -31.7200 C   0  0  0  0  0  0  0  0  0  0  0  0
   -6.8920   21.3130  -32.5520 Cl  0  0  0  0  0  0  0  0  0  0  0  0
   -4.4090   22.0740  -31.6960 C   0  0  0  0  0  0  0  0  0  0  0  0
   -3.5130   22.9200  -31.0400 C   0  0  0  0  0  0  0  0  0  0  0  0
   -3.9740   24.0840  -30.3890 C   0  0  0  0  0  0  0  0  0  0  0  0
   -3.1040   24.9670  -29.7230 O   0  0  0  0  0  0  0  0  0  0  0  0
   -2.3120   24.6550  -28.5770 C   0  0  0  0  0  0  0  0  0  0  0  0
   -0.8540   24.4080  -28.9780 C   0  0  0  0  0  0  0  0  0  0  0  0
    0.0600   24.9170  -27.9330 N   0  0  0  0  0  0  0  0  0  0  0  0
    0.5310   23.8210  -27.0550 C   0  0  0  0  0  0  0  0  0  0  0  0
    1.0350   24.3530  -25.7110 C   0  0  0  0  0  0  0  0  0  0  0  0
   -0.1350   24.9680  -24.8910 C   0  0  0  0  0  0  0  0  0  0  0  0
    0.3300   25.8770  -23.7940 N   0  0  0  0  0  0  0  0  0  0  0  0
   -0.7290   26.8020  -23.3290 C   0  0  0  0  0  0  0  0  0  0  0  0
    1.4790   26.6980  -24.2380 C   0  0  0  0  0  0  0  0  0  0  0  0
   -1.1440   25.6790  -25.8520 C   0  0  0  0  0  0  0  0  0  0  0  0
   -0.5100   26.0760  -27.1960 C   0  0  0  0  0  0  0  0  0  0  0  0
   -5.8157   25.5011  -28.6492 H   0  0  0  0  0  0  0  0  0  0  0  0
   -5.2514   26.4856  -30.0417 H   0  0  0  0  0  0  0  0  0  0  0  0
   -6.9109   25.7980  -30.0417 H   0  0  0  0  0  0  0  0  0  0  0  0
   -7.3155   23.7666  -31.1079 H   0  0  0  0  0  0  0  0  0  0  0  0
   -4.0403   21.1659  -32.1954 H   0  0  0  0  0  0  0  0  0  0  0  0
   -2.4401   22.6775  -31.0305 H   0  0  0  0  0  0  0  0  0  0  0  0
   -2.3544   25.4957  -27.8689 H   0  0  0  0  0  0  0  0  0  0  0  0
   -2.7100   23.7422  -28.1096 H   0  0  0  0  0  0  0  0  0  0  0  0
   -0.6914   23.3278  -29.1073 H   0  0  0  0  0  0  0  0  0  0  0  0
   -0.6483   24.9360  -29.9208 H   0  0  0  0  0  0  0  0  0  0  0  0
   -0.3018   23.1256  -26.8740 H   0  0  0  0  0  0  0  0  0  0  0  0
    1.3659   23.3114  -27.5584 H   0  0  0  0  0  0  0  0  0  0  0  0
    1.4812   23.5259  -25.1394 H   0  0  0  0  0  0  0  0  0  0  0  0
    1.7855   25.1350  -25.8985 H   0  0  0  0  0  0  0  0  0  0  0  0
   -0.6533   24.1416  -24.3826 H   0  0  0  0  0  0  0  0  0  0  0  0
    0.6330   25.2990  -22.9740 H   0  0  0  0  0  0  0  0  0  0  0  0
   -0.7459   26.8168  -22.2292 H   0  0  0  0  0  0  0  0  0  0  0  0
   -0.5230   27.8146  -23.7062 H   0  0  0  0  0  0  0  0  0  0  0  0
   -1.7047   26.4617  -23.7062 H   0  0  0  0  0  0  0  0  0  0  0  0
    2.0167   27.0822  -23.3586 H   0  0  0  0  0  0  0  0  0  0  0  0
    2.1592   26.0802  -24.8426 H   0  0  0  0  0  0  0  0  0  0  0  0
    1.1149   27.5417  -24.8426 H   0  0  0  0  0  0  0  0  0  0  0  0
   -1.9835   24.9957  -26.0479 H   0  0  0  0  0  0  0  0  0  0  0  0
   -1.4765   26.6035  -25.3573 H   0  0  0  0  0  0  0  0  0  0  0  0
   -1.2824   26.5451  -27.8232 H   0  0  0  0  0  0  0  0  0  0  0  0
    0.3173   26.7676  -26.9787 H   0  0  0  0  0  0  0  0  0  0  0  0
  1  2  1  0
  2  3  2  0
  3  4  1  0
  4  5  1  0
  4  6  2  0
  6  7  1  0
  7  8  2  0
  8  9  1  0
  9 10  1  0
 10 11  1  0
 11 12  1  0
 12 13  1  0
 13 14  1  0
 14 15  1  0
 15 16  1  0
 16 17  1  0
 16 18  1  0
 15 19  1  0
 19 20  1  0
  8  2  1  0
 20 12  1  0
  1 21  1  0
  1 22  1  0
  1 23  1  0
  3 24  1  0
  6 25  1  0
  7 26  1  0
 10 27  1  0
 10 28  1  0
 11 29  1  0
 11 30  1  0
 13 31  1  0
 13 32  1  0
 14 33  1  0
 14 34  1  0
 15 35  1  0
 16 36  1  0
 17 37  1  0
 17 38  1  0
 17 39  1  0
 18 40  1  0
 18 41  1  0
 18 42  1  0
 19 43  1  0
 19 44  1  0
 20 45  1  0
 20 46  1  0
M  CHG  1  16   1
M  END
>  <UniqueID>  (17) 
14

>  <SMILES>  (17) 
Cc1cc(Cl)ccc1OCCN1CCC([NH+](C)C)CC1

>  <Energy>  (17) 
59.73773530881588

>  <Genealogy>  (17) 
Cc1cc(Cl)ccc1OCCN1CCC([NH+](C)C)CC1 (protonated)
Cc1cc(Cl)ccc1OCCN1CCC([NH+](C)C)CC1 (3D coordinates assigned)
Cc1cc(Cl)ccc1OCCN1CCC([NH+](C)C)CC1 (nonaromatic ring conformer: 59.73773530881588 kcal/mol)

>  <smiles>  (17) 
Cc1cc(Cl)ccc1OCCN1CCC(N(C)C)CC1

>  <score_type>  (17) 
oracle

>  <origin>  (17) 
adg

>  <m_score__min__energy>  (17) 
-8.2599999999999998

>  <m_primary>  (17) 
energy

$$$$
17:0
     RDKit          3D

 66 70  0  0  0  0  0  0  0  0999 V2000
   -2.7540   14.4190  -37.7340 C   0  0  0  0  0  0  0  0  0  0  0  0
   -1.8990   14.4310  -36.4700 C   0  0  0  0  0  0  0  0  0  0  0  0
   -1.5120   15.8550  -36.0460 C   0  0  0  0  0  0  0  0  0  0  0  0
   -2.6240   16.5330  -35.3030 C   0  0  0  0  0  0  0  0  0  0  0  0
   -3.7750   15.9310  -34.9640 N   0  0  0  0  0  0  0  0  0  0  0  0
   -4.4290   16.8800  -34.2470 C   0  0  0  0  0  0  0  0  0  0  0  0
   -5.6040   16.5940  -33.5920 N   0  0  0  0  0  0  0  0  0  0  0  0
   -5.9800   15.1590  -33.5300 C   0  0  0  0  0  0  0  0  0  0  0  0
   -6.5310   17.4920  -33.1090 C   0  0  0  0  0  0  0  0  0  0  0  0
   -7.6400   17.0360  -32.7170 O   0  0  0  0  0  0  0  0  0  0  0  0
   -6.3530   18.8900  -33.0010 C   0  0  0  0  0  0  0  0  0  0  0  0
   -5.1710   19.6170  -33.1250 C   0  0  0  0  0  0  0  0  0  0  0  0
   -5.4470   20.9240  -32.7460 C   0  0  0  0  0  0  0  0  0  0  0  0
   -6.7790   20.9570  -32.4240 C   0  0  0  0  0  0  0  0  0  0  0  0
   -7.3420   19.7490  -32.6020 N   0  0  0  0  0  0  0  0  0  0  0  0
   -8.7690   19.4880  -32.3500 C   0  0  0  0  0  0  0  0  0  0  0  0
   -9.5820   20.7920  -32.3460 C   0  0  0  0  0  0  0  0  0  0  0  0
   -8.9000   21.8640  -31.4890 C   0  0  0  0  0  0  0  0  0  0  0  0
   -7.5290   22.0970  -31.9610 N   0  0  0  0  0  0  0  0  0  0  0  0
   -6.9400   23.4390  -31.8740 C   0  0  0  0  0  0  0  0  0  0  0  0
   -6.6060   23.7930  -30.4190 C   0  0  0  0  0  0  0  0  0  0  0  0
   -5.1590   23.5050  -30.1070 C   0  0  0  0  0  0  0  0  0  0  0  0
   -4.6900   22.1820  -30.0890 C   0  0  0  0  0  0  0  0  0  0  0  0
   -3.3460   21.9110  -29.8260 C   0  0  0  0  0  0  0  0  0  0  0  0
   -2.4480   22.9620  -29.5590 C   0  0  0  0  0  0  0  0  0  0  0  0
   -1.0910   22.7290  -29.2810 O   0  0  0  0  0  0  0  0  0  0  0  0
   -0.6140   21.8910  -28.2330 C   0  0  0  0  0  0  0  0  0  0  0  0
   -2.9090   24.2900  -29.5670 C   0  0  0  0  0  0  0  0  0  0  0  0
   -1.9890   25.3180  -29.3000 O   0  0  0  0  0  0  0  0  0  0  0  0
   -1.2900   25.4770  -28.0700 C   0  0  0  0  0  0  0  0  0  0  0  0
   -4.2640   24.5560  -29.8470 C   0  0  0  0  0  0  0  0  0  0  0  0
   -3.9220   19.2190  -33.5790 C   0  0  0  0  0  0  0  0  0  0  0  0
   -2.9780   20.0580  -33.5230 O   0  0  0  0  0  0  0  0  0  0  0  0
   -3.6810   18.0130  -34.1560 N   0  0  0  0  0  0  0  0  0  0  0  0
   -2.5510   17.7710  -34.8030 N   0  0  0  0  0  0  0  0  0  0  0  0
   -3.8183   14.4041  -37.4566 H   0  0  0  0  0  0  0  0  0  0  0  0
   -2.5426   15.3202  -38.3283 H   0  0  0  0  0  0  0  0  0  0  0  0
   -2.5174   13.5241  -38.3283 H   0  0  0  0  0  0  0  0  0  0  0  0
   -2.4665   13.9601  -35.6538 H   0  0  0  0  0  0  0  0  0  0  0  0
   -0.9722   13.8783  -36.6835 H   0  0  0  0  0  0  0  0  0  0  0  0
   -0.6266   15.8051  -35.3951 H   0  0  0  0  0  0  0  0  0  0  0  0
   -1.3005   16.4381  -36.9544 H   0  0  0  0  0  0  0  0  0  0  0  0
   -6.0619   14.8465  -32.4785 H   0  0  0  0  0  0  0  0  0  0  0  0
   -6.9472   15.0113  -34.0328 H   0  0  0  0  0  0  0  0  0  0  0  0
   -5.2095   14.5560  -34.0328 H   0  0  0  0  0  0  0  0  0  0  0  0
   -4.7385   21.7647  -32.7111 H   0  0  0  0  0  0  0  0  0  0  0  0
   -9.1570   18.8261  -33.1382 H   0  0  0  0  0  0  0  0  0  0  0  0
   -8.8665   19.0146  -31.3619 H   0  0  0  0  0  0  0  0  0  0  0  0
   -9.6736   21.1615  -33.3780 H   0  0  0  0  0  0  0  0  0  0  0  0
  -10.5748   20.5837  -31.9207 H   0  0  0  0  0  0  0  0  0  0  0  0
   -9.4717   22.8013  -31.5574 H   0  0  0  0  0  0  0  0  0  0  0  0
   -8.8655   21.5193  -30.4450 H   0  0  0  0  0  0  0  0  0  0  0  0
   -6.0179   23.4679  -32.4732 H   0  0  0  0  0  0  0  0  0  0  0  0
   -7.6679   24.1695  -32.2569 H   0  0  0  0  0  0  0  0  0  0  0  0
   -6.8024   24.8629  -30.2557 H   0  0  0  0  0  0  0  0  0  0  0  0
   -7.2343   23.1785  -29.7575 H   0  0  0  0  0  0  0  0  0  0  0  0
   -5.3864   21.3530  -30.2835 H   0  0  0  0  0  0  0  0  0  0  0  0
   -2.9869   20.8713  -29.8274 H   0  0  0  0  0  0  0  0  0  0  0  0
   -0.8687   22.3385  -27.2610 H   0  0  0  0  0  0  0  0  0  0  0  0
   -1.0830   20.8993  -28.3143 H   0  0  0  0  0  0  0  0  0  0  0  0
    0.4781   21.7879  -28.3143 H   0  0  0  0  0  0  0  0  0  0  0  0
   -1.9837   25.3192  -27.2310 H   0  0  0  0  0  0  0  0  0  0  0  0
   -0.4739   24.7415  -28.0143 H   0  0  0  0  0  0  0  0  0  0  0  0
   -0.8723   26.4931  -28.0143 H   0  0  0  0  0  0  0  0  0  0  0  0
   -4.6240   25.5953  -29.8621 H   0  0  0  0  0  0  0  0  0  0  0  0
   -1.7460   18.4330  -34.9130 H   0  0  0  0  0  0  0  0  0  0  0  0
  1  2  1  0
  2  3  1  0
  3  4  1  0
  4  5  1  0
  5  6  2  0
  6  7  1  0
  7  8  1  0
  7  9  1  0
  9 10  2  0
  9 11  1  0
 11 12  2  0
 12 13  1  0
 13 14  2  0
 14 15  1  0
 15 16  1  0
 16 17  1  0
 17 18  1  0
 18 19  1  0
 19 20  1  0
 20 21  1  0
 21 22  1  0
 22 23  2  0
 23 24  1  0
 24 25  2  0
 25 26  1  0
 26 27  1  0
 25 28  1  0
 28 29  1  0
 29 30  1  0
 28 31  2  0
 12 32  1  0
 32 33  2  0
 32 34  1  0
 34 35  1  0
 35  4  2  0
 34  6  1  0
 15 11  1  0
 31 22  1  0
 19 14  1  0
  1 36  1  0
  1 37  1  0
  1 38  1  0
  2 39  1  0
  2 40  1  0
  3 41  1  0
  3 42  1  0
  8 43  1  0
  8 44  1  0
  8 45  1  0
 13 46  1  0
 16 47  1  0
 16 48  1  0
 17 49  1  0
 17 50  1  0
 18 51  1  0
 18 52  1  0
 20 53  1  0
 20 54  1  0
 21 55  1  0
 21 56  1  0
 23 57  1  0
 24 58  1  0
 27 59  1  0
 27 60  1  0
 27 61  1  0
 30 62  1  0
 30 63  1  0
 30 64  1  0
 31 65  1  0
 35 66  1  0
M  CHG  1  35   1
M  END
>  <UniqueID>  (18) 
15

>  <SMILES>  (18) 
CCCc1nc2n(C)c(=O)c3c(cc4n3CCCN4CCc3ccc(OC)c(OC)c3)c(=O)n2[nH+]1

>  <Energy>  (18) 
156.7165633862373

>  <Genealogy>  (18) 
CCCc1nc2n(C)c(=O)c3c(cc4n3CCCN4CCc3ccc(OC)c(OC)c3)c(=O)n2[nH+]1 (protonated)
CCCc1nc2n(C)c(=O)c3c(cc4n3CCCN4CCc3ccc(OC)c(OC)c3)c(=O)n2[nH+]1 (3D coordinates assigned)
CCCc1nc2n(C)c(=O)c3c(cc4n3CCCN4CCc3ccc(OC)c(OC)c3)c(=O)n2[nH+]1 (nonaromatic ring conformer: 156.7165633862373 kcal/mol)

>  <smiles>  (18) 
CCCc1nc2n(C)c(=O)c3c(cc4n3CCCN4CCc3ccc(OC)c(OC)c3)c(=O)n2n1

>  <score_type>  (18) 
oracle

>  <origin>  (18) 
adg

>  <m_score__min__energy>  (18) 
-9.2599999999999998

>  <m_primary>  (18) 
energy

$$$$
18:0
     RDKit          3D

 39 41  0  0  1  0  0  0  0  0999 V2000
   -5.2650   25.6220  -30.4740 C   0  0  0  0  0  0  0  0  0  0  0  0
   -3.9250   25.2550  -30.4680 O   0  0  0  0  0  0  0  0  0  0  0  0
   -3.7220   24.0880  -29.7780 C   0  0  0  0  0  0  0  0  0  0  0  0
   -3.2760   22.9540  -30.6620 C   0  0  0  0  0  0  0  0  0  0  0  0
   -4.0710   23.0770  -31.8980 N   0  0  0  0  0  0  0  0  0  0  0  0
   -5.0570   22.2760  -32.0960 C   0  0  0  0  0  0  0  0  0  0  0  0
   -4.8650   20.9990  -32.6340 C   0  0  0  0  0  0  0  0  0  0  0  0
   -5.9140   20.1300  -32.8510 C   0  0  0  0  0  0  0  0  0  0  0  0
   -5.6860   18.8080  -33.4130 C   0  0  0  0  0  0  0  0  0  0  0  0
   -4.5920   18.5040  -34.2010 C   0  0  0  0  0  0  0  0  0  0  0  0
   -4.3810   17.2410  -34.7340 C   0  0  0  0  0  0  0  0  0  0  0  0
   -5.2700   16.2160  -34.4950 C   0  0  0  0  0  0  0  0  0  0  0  0
   -6.3670   16.4950  -33.7130 C   0  0  0  0  0  0  0  0  0  0  0  0
   -6.5720   17.7730  -33.1790 C   0  0  0  0  0  0  0  0  0  0  0  0
   -7.1390   20.5710  -32.5180 N   0  0  0  0  0  0  0  0  0  0  0  0
   -7.3440   21.8150  -31.9900 C   0  0  0  0  0  0  0  0  0  0  0  0
   -8.7150   22.2620  -31.6340 C   0  0  0  0  0  0  0  0  0  0  0  0
   -9.4350   21.5490  -30.5440 C   0  0  0  0  0  0  0  0  0  0  0  0
   -9.8180   21.2740  -31.9410 C   0  0  0  0  0  0  0  0  0  0  0  0
   -6.3120   22.6640  -31.7790 N   0  0  0  0  0  0  0  0  0  0  0  0
   -5.6230   25.7200  -29.4385 H   0  0  0  0  0  0  0  0  0  0  0  0
   -5.3792   26.5845  -30.9941 H   0  0  0  0  0  0  0  0  0  0  0  0
   -5.8537   24.8520  -30.9941 H   0  0  0  0  0  0  0  0  0  0  0  0
   -2.9499   24.2619  -29.0140 H   0  0  0  0  0  0  0  0  0  0  0  0
   -4.6839   23.7982  -29.3299 H   0  0  0  0  0  0  0  0  0  0  0  0
   -2.2026   23.0412  -30.8858 H   0  0  0  0  0  0  0  0  0  0  0  0
   -3.4258   21.9778  -30.1777 H   0  0  0  0  0  0  0  0  0  0  0  0
   -3.8451   20.6777  -32.8922 H   0  0  0  0  0  0  0  0  0  0  0  0
   -3.8588   19.2959  -34.4141 H   0  0  0  0  0  0  0  0  0  0  0  0
   -3.4925   17.0554  -35.3554 H   0  0  0  0  0  0  0  0  0  0  0  0
   -5.1087   15.2118  -34.9139 H   0  0  0  0  0  0  0  0  0  0  0  0
   -7.0968   15.6991  -33.5033 H   0  0  0  0  0  0  0  0  0  0  0  0
   -7.4606   17.9581  -32.5576 H   0  0  0  0  0  0  0  0  0  0  0  0
   -7.9790   19.9990  -32.6410 H   0  0  0  0  0  0  0  0  0  0  0  0
   -8.5009   23.3196  -31.8478 H   0  0  0  0  0  0  0  0  0  0  0  0
   -8.9135   20.7773  -29.9587 H   0  0  0  0  0  0  0  0  0  0  0  0
   -9.9818   21.8693  -29.6449 H   0  0  0  0  0  0  0  0  0  0  0  0
   -9.5761   20.3028  -32.3973 H   0  0  0  0  0  0  0  0  0  0  0  0
  -10.7573   21.3075  -32.5125 H   0  0  0  0  0  0  0  0  0  0  0  0
  1  2  1  0
  2  3  1  0
  3  4  1  0
  4  5  1  0
  5  6  2  0
  6  7  1  0
  7  8  2  0
  8  9  1  0
  9 10  2  0
 10 11  1  0
 11 12  2  0
 12 13  1  0
 13 14  2  0
  8 15  1  0
 15 16  1  0
 16 17  1  0
 17 18  1  0
 18 19  1  0
 16 20  2  0
 20  6  1  0
 14  9  1  0
 19 17  1  0
  1 21  1  0
  1 22  1  0
  1 23  1  0
  3 24  1  0
  3 25  1  0
  4 26  1  0
  4 27  1  0
  7 28  1  0
 10 29  1  0
 11 30  1  0
 12 31  1  0
 13 32  1  0
 14 33  1  0
 15 34  1  0
 17 35  1  0
 18 36  1  0
 18 37  1  0
 19 38  1  0
 19 39  1  0
M  END
>  <smiles>  (19) 
COCCN=c1cc(-c2ccccc2)[nH]c(C2CC2)n1

>  <score_type>  (19) 
oracle

>  <origin>  (19) 
adg

>  <m_score__min__energy>  (19) 
-7.5599999999999996

>  <m_primary>  (19) 
energy

$$$$
19:0
     RDKit          3D

 38 40  0  0  1  0  0  0  0  0999 V2000
   -2.7530   25.1350  -26.7870 C   0  0  0  0  0  0  0  0  0  0  0  0
   -1.9350   25.2920  -27.9280 O   0  0  0  0  0  0  0  0  0  0  0  0
   -0.9340   24.3560  -27.9440 C   0  0  0  0  0  0  0  0  0  0  0  0
   -1.2240   23.1330  -28.7830 C   0  0  0  0  0  0  0  0  0  0  0  0
   -1.7370   23.5300  -30.0520 N   0  0  0  0  0  0  0  0  0  0  0  0
   -3.0040   23.6760  -30.2480 C   0  0  0  0  0  0  0  0  0  0  0  0
   -3.6380   24.8260  -30.0660 N   0  0  0  0  0  0  0  0  0  0  0  0
   -4.9630   24.8710  -30.2990 C   0  0  0  0  0  0  0  0  0  0  0  0
   -5.7290   26.1260  -30.1130 C   0  0  0  0  0  0  0  0  0  0  0  0
   -5.6680   23.7880  -30.7120 N   0  0  0  0  0  0  0  0  0  0  0  0
   -5.0520   22.6180  -30.9030 C   0  0  0  0  0  0  0  0  0  0  0  0
   -3.6990   22.5570  -30.6690 C   0  0  0  0  0  0  0  0  0  0  0  0
   -3.3330   21.2590  -30.9400 C   0  0  0  0  0  0  0  0  0  0  0  0
   -4.4380   20.5750  -31.3230 N   0  0  0  0  0  0  0  0  0  0  0  0
   -5.4910   21.3900  -31.3060 N   0  0  0  0  0  0  0  0  0  0  0  0
   -6.8340   21.0550  -31.6420 C   0  0  0  0  0  0  0  0  0  0  0  0
   -7.1540   20.0380  -32.5180 C   0  0  0  0  0  0  0  0  0  0  0  0
   -8.5000   19.7950  -32.7760 C   0  0  0  0  0  0  0  0  0  0  0  0
   -9.4680   20.5570  -32.1670 C   0  0  0  0  0  0  0  0  0  0  0  0
   -9.1570   21.5690  -31.2950 C   0  0  0  0  0  0  0  0  0  0  0  0
   -7.8200   21.8310  -31.0210 C   0  0  0  0  0  0  0  0  0  0  0  0
   -2.1427   25.2521  -25.8794 H   0  0  0  0  0  0  0  0  0  0  0  0
   -3.5459   25.8974  -26.7966 H   0  0  0  0  0  0  0  0  0  0  0  0
   -3.2073   24.1333  -26.7966 H   0  0  0  0  0  0  0  0  0  0  0  0
   -0.0249   24.8338  -28.3381 H   0  0  0  0  0  0  0  0  0  0  0  0
   -0.8239   24.0023  -26.9083 H   0  0  0  0  0  0  0  0  0  0  0  0
   -0.2960   22.5602  -28.9270 H   0  0  0  0  0  0  0  0  0  0  0  0
   -1.9689   22.5077  -28.2691 H   0  0  0  0  0  0  0  0  0  0  0  0
   -3.1040   25.6450  -29.7530 H   0  0  0  0  0  0  0  0  0  0  0  0
   -5.8507   26.3254  -29.0381 H   0  0  0  0  0  0  0  0  0  0  0  0
   -5.1858   26.9600  -30.5814 H   0  0  0  0  0  0  0  0  0  0  0  0
   -6.7191   26.0241  -30.5814 H   0  0  0  0  0  0  0  0  0  0  0  0
   -2.3164   20.8466  -30.8595 H   0  0  0  0  0  0  0  0  0  0  0  0
   -6.3681   19.4367  -32.9985 H   0  0  0  0  0  0  0  0  0  0  0  0
   -8.7896   18.9912  -33.4689 H   0  0  0  0  0  0  0  0  0  0  0  0
  -10.5257   20.3487  -32.3858 H   0  0  0  0  0  0  0  0  0  0  0  0
   -9.9521   22.1630  -30.8207 H   0  0  0  0  0  0  0  0  0  0  0  0
   -7.5404   22.6366  -30.3261 H   0  0  0  0  0  0  0  0  0  0  0  0
  1  2  1  0
  2  3  1  0
  3  4  1  0
  4  5  1  0
  5  6  2  0
  6  7  1  0
  7  8  1  0
  8  9  1  0
  8 10  2  0
 10 11  1  0
 11 12  2  0
 12 13  1  0
 13 14  2  0
 14 15  1  0
 15 16  1  0
 16 17  2  0
 17 18  1  0
 18 19  2  0
 19 20  1  0
 20 21  2  0
 12  6  1  0
 21 16  1  0
 15 11  1  0
  1 22  1  0
  1 23  1  0
  1 24  1  0
  3 25  1  0
  3 26  1  0
  4 27  1  0
  4 28  1  0
  7 29  1  0
  9 30  1  0
  9 31  1  0
  9 32  1  0
 13 33  1  0
 17 34  1  0
 18 35  1  0
 19 36  1  0
 20 37  1  0
 21 38  1  0
M  END
>  <smiles>  (20) 
COCCN=c1[nH]c(C)nc2c1cnn2-c1ccccc1

>  <score_type>  (20) 
oracle

>  <origin>  (20) 
adg

>  <m_score__min__energy>  (20) 
-7.5999999999999996

>  <m_primary>  (20) 
energy

$$$$
20:0
     RDKit          3D

 46 48  0  0  0  0  0  0  0  0999 V2000
   -3.1689   18.4277  -26.6735 H   0  0  0  0  0  0  0  0  0  0  0  0
   -2.6070   19.2650  -27.1130 C   0  0  0  0  0  0  0  0  0  0  0  0
   -1.3880   19.1860  -27.5970 O   0  0  0  0  0  0  0  0  0  0  0  0
   -1.0250   20.3690  -28.0390 C   0  0  0  0  0  0  0  0  0  0  0  0
   -0.0591   20.6040  -28.5099 H   0  0  0  0  0  0  0  0  0  0  0  0
   -2.0480   21.2710  -27.8190 C   0  0  0  0  0  0  0  0  0  0  0  0
   -2.0920   22.6910  -28.2370 C   0  0  0  0  0  0  0  0  0  0  0  0
   -2.9980   23.0540  -29.2450 C   0  0  0  0  0  0  0  0  0  0  0  0
   -3.6816   22.3008  -29.6638 H   0  0  0  0  0  0  0  0  0  0  0  0
   -3.0360   24.3670  -29.7190 C   0  0  0  0  0  0  0  0  0  0  0  0
   -3.8810   24.6830  -30.6580 N   0  0  0  0  0  0  0  0  0  0  0  0
   -5.1990   25.2740  -30.4370 C   0  0  0  0  0  0  0  0  0  0  0  0
   -5.4368   25.9378  -31.2813 H   0  0  0  0  0  0  0  0  0  0  0  0
   -5.1671   25.8319  -29.4895 H   0  0  0  0  0  0  0  0  0  0  0  0
   -6.2970   24.2040  -30.3220 C   0  0  0  0  0  0  0  0  0  0  0  0
   -7.2521   24.6930  -30.0798 H   0  0  0  0  0  0  0  0  0  0  0  0
   -6.0151   23.4959  -29.5288 H   0  0  0  0  0  0  0  0  0  0  0  0
   -6.4440   23.4550  -31.5950 N   0  0  0  0  0  0  0  0  0  0  0  0
   -7.8710   23.3540  -31.9830 C   0  0  0  0  0  0  0  0  0  0  0  0
   -7.9524   23.4558  -33.0753 H   0  0  0  0  0  0  0  0  0  0  0  0
   -8.4247   24.1556  -31.4723 H   0  0  0  0  0  0  0  0  0  0  0  0
   -8.4730   22.0130  -31.5630 C   0  0  0  0  0  0  0  0  0  0  0  0
   -8.5007   21.9513  -30.4651 H   0  0  0  0  0  0  0  0  0  0  0  0
   -9.4951   21.9292  -31.9609 H   0  0  0  0  0  0  0  0  0  0  0  0
   -7.8564   21.1936  -31.9609 H   0  0  0  0  0  0  0  0  0  0  0  0
   -5.7950   22.1180  -31.5320 C   0  0  0  0  0  0  0  0  0  0  0  0
   -5.4747   21.9159  -30.4992 H   0  0  0  0  0  0  0  0  0  0  0  0
   -6.5136   21.3501  -31.8544 H   0  0  0  0  0  0  0  0  0  0  0  0
   -4.5810   22.0890  -32.4530 C   0  0  0  0  0  0  0  0  0  0  0  0
   -3.6624   22.0671  -31.8483 H   0  0  0  0  0  0  0  0  0  0  0  0
   -4.6236   21.1916  -33.0877 H   0  0  0  0  0  0  0  0  0  0  0  0
   -4.5807   22.9874  -33.0877 H   0  0  0  0  0  0  0  0  0  0  0  0
   -2.1930   25.2970  -29.1960 N   0  0  0  0  0  0  0  0  0  0  0  0
   -1.3130   25.0000  -28.2070 C   0  0  0  0  0  0  0  0  0  0  0  0
   -0.4870   26.0080  -27.6970 C   0  0  0  0  0  0  0  0  0  0  0  0
   -0.5350   27.0223  -28.1200 H   0  0  0  0  0  0  0  0  0  0  0  0
    0.3970   25.7310  -26.6540 C   0  0  0  0  0  0  0  0  0  0  0  0
    1.0516   26.5245  -26.2643 H   0  0  0  0  0  0  0  0  0  0  0  0
    0.4530   24.4480  -26.1030 C   0  0  0  0  0  0  0  0  0  0  0  0
    1.3490   24.1750  -25.0090 C   0  0  0  0  0  0  0  0  0  0  0  0
    2.0700   23.9560  -24.1300 N   0  0  0  0  0  0  0  0  0  0  0  0
   -0.3680   23.4300  -26.6070 C   0  0  0  0  0  0  0  0  0  0  0  0
   -0.3286   22.4253  -26.1608 H   0  0  0  0  0  0  0  0  0  0  0  0
   -1.2450   23.6850  -27.6830 C   0  0  0  0  0  0  0  0  0  0  0  0
   -3.0760   20.5560  -27.2390 C   0  0  0  0  0  0  0  0  0  0  0  0
   -4.0637   20.9364  -26.9395 H   0  0  0  0  0  0  0  0  0  0  0  0
  1  2  1  0
  2  3  1  0
  3  4  1  0
  4  5  1  0
  4  6  2  0
  6  7  1  0
  7  8  2  0
  8  9  1  0
  8 10  1  0
 10 11  2  0
 11 12  1  0
 12 13  1  0
 12 14  1  0
 12 15  1  0
 15 16  1  0
 15 17  1  0
 15 18  1  0
 18 19  1  0
 19 20  1  0
 19 21  1  0
 19 22  1  0
 22 23  1  0
 22 24  1  0
 22 25  1  0
 18 26  1  0
 26 27  1  0
 26 28  1  0
 26 29  1  0
 29 30  1  0
 29 31  1  0
 29 32  1  0
 10 33  1  0
 33 34  1  0
 34 35  2  0
 35 36  1  0
 35 37  1  0
 37 38  1  0
 37 39  2  0
 39 40  1  0
 40 41  3  0
 39 42  1  0
 42 43  1  0
 42 44  2  0
  6 45  1  0
 45 46  1  0
 45  2  2  0
 44  7  1  0
 44 34  1  0
M  CHG  1  33  -1
M  END
>  <UniqueID>  (21) 
16

>  <SMILES>  (21) 
CCN(CC)CC/N=c1/cc(-c2ccoc2)c2cc(C#N)ccc2[n-]1

>  <Energy>  (21) 
82.94387871675892

>  <Genealogy>  (21) 
CCN(CC)CCN=c1cc(-c2ccoc2)c2cc(C#N)ccc2[n-]1 (protonated)
CCN(CC)CC/N=c1/cc(-c2ccoc2)c2cc(C#N)ccc2[n-]1 (cis-trans isomerization)
CCN(CC)CC/N=c1/cc(-c2ccoc2)c2cc(C#N)ccc2[n-]1 (3D coordinates assigned)
CCN(CC)CC/N=c1/cc(-c2ccoc2)c2cc(C#N)ccc2[n-]1 (optimized conformer: 82.94387871675892 kcal/mol)

>  <smiles>  (21) 
CCN(CC)CCN=c1cc(-c2ccoc2)c2cc(C#N)ccc2[nH]1

>  <score_type>  (21) 
oracle

>  <origin>  (21) 
adg

>  <m_score__min__energy>  (21) 
-8.5800000000000001

>  <m_primary>  (21) 
energy

$$$$
21:0
     RDKit          3D

 76 78  0  0  0  0  0  0  0  0999 V2000
   -3.7510   18.6460  -32.8270 H   0  0  0  0  0  0  0  0  0  0  0  0
   -4.1200   19.1670  -33.5870 O   0  0  0  0  0  0  0  0  0  0  0  0
   -4.5870   18.2330  -34.5290 C   0  0  1  0  0  0  0  0  0  0  0  0
   -4.2486   18.5368  -35.5306 H   0  0  0  0  0  0  0  0  0  0  0  0
   -4.0190   16.8400  -34.2330 C   0  0  0  0  0  0  0  0  0  0  0  0
   -2.9264   16.9179  -34.1318 H   0  0  0  0  0  0  0  0  0  0  0  0
   -4.2997   16.1786  -35.0659 H   0  0  0  0  0  0  0  0  0  0  0  0
   -4.5810   16.2500  -32.9680 C   0  0  0  0  0  0  0  0  0  0  0  0
   -3.9730   15.3380  -32.4290 O   0  0  0  0  0  0  0  0  0  0  0  0
   -5.8840   16.7100  -32.3540 C   0  0  0  0  0  0  0  0  0  0  0  0
   -5.6638   17.1306  -31.3617 H   0  0  0  0  0  0  0  0  0  0  0  0
   -6.5363   15.8250  -32.3186 H   0  0  0  0  0  0  0  0  0  0  0  0
   -7.7890   18.2910  -32.7030 C   0  0  0  0  0  0  0  0  0  0  0  0
   -8.2550   19.6580  -33.0460 C   0  0  0  0  0  0  0  0  0  0  0  0
   -8.8608   19.7821  -33.9557 H   0  0  0  0  0  0  0  0  0  0  0  0
   -7.9830   20.7590  -32.3130 C   0  0  0  0  0  0  0  0  0  0  0  0
   -8.4212   17.6777  -32.0441 H   0  0  0  0  0  0  0  0  0  0  0  0
   -6.6350   17.7580  -33.1530 C   0  0  0  0  0  0  0  0  0  0  0  0
   -9.1050   21.4230  -31.5580 C   0  0  0  0  0  0  0  0  0  0  0  0
   -9.4671   22.2911  -32.1284 H   0  0  0  0  0  0  0  0  0  0  0  0
   -9.9273   20.7057  -31.4190 H   0  0  0  0  0  0  0  0  0  0  0  0
   -8.6010   21.8840  -30.2000 C   0  0  0  0  0  0  0  0  0  0  0  0
   -9.4351   22.3510  -29.6559 H   0  0  0  0  0  0  0  0  0  0  0  0
   -8.2137   20.9993  -29.6734 H   0  0  0  0  0  0  0  0  0  0  0  0
   -7.4510   22.9010  -30.3030 C   0  0  0  0  0  0  0  0  0  0  0  0
   -7.8947   23.9072  -30.3297 H   0  0  0  0  0  0  0  0  0  0  0  0
   -6.8112   22.7101  -29.4288 H   0  0  0  0  0  0  0  0  0  0  0  0
   -6.5050   22.7600  -31.5550 C   0  0  2  0  0  0  0  0  0  0  0  0
   -6.8800   23.8080  -32.6410 C   0  0  0  0  0  0  0  0  0  0  0  0
   -7.2124   24.7370  -32.1548 H   0  0  0  0  0  0  0  0  0  0  0  0
   -6.0008   24.0167  -33.2682 H   0  0  0  0  0  0  0  0  0  0  0  0
   -7.6921   23.4116  -33.2682 H   0  0  0  0  0  0  0  0  0  0  0  0
   -6.5830   21.3480  -32.2010 C   0  0  2  0  0  0  0  0  0  0  0  0
   -6.2743   21.4107  -33.2549 H   0  0  0  0  0  0  0  0  0  0  0  0
   -5.6550   20.4720  -31.3660 C   0  0  0  0  0  0  0  0  0  0  0  0
   -5.1697   19.7167  -32.0017 H   0  0  0  0  0  0  0  0  0  0  0  0
   -6.2093   19.9352  -30.5820 H   0  0  0  0  0  0  0  0  0  0  0  0
   -4.6110   21.4070  -30.7660 C   0  0  0  0  0  0  0  0  0  0  0  0
   -3.6139   21.1549  -31.1561 H   0  0  0  0  0  0  0  0  0  0  0  0
   -4.5888   21.3077  -29.6707 H   0  0  0  0  0  0  0  0  0  0  0  0
   -4.9840   22.8460  -31.1700 C   0  0  2  0  0  0  0  0  0  0  0  0
   -4.4538   23.2482  -32.0458 H   0  0  0  0  0  0  0  0  0  0  0  0
   -4.5000   23.9050  -30.1040 C   0  0  2  0  0  0  0  0  0  0  0  0
   -5.1002   23.7106  -29.2029 H   0  0  0  0  0  0  0  0  0  0  0  0
   -4.7400   25.3510  -30.5760 C   0  0  0  0  0  0  0  0  0  0  0  0
   -4.8492   26.0089  -29.7012 H   0  0  0  0  0  0  0  0  0  0  0  0
   -3.8851   25.6856  -31.1820 H   0  0  0  0  0  0  0  0  0  0  0  0
   -5.6571   25.3915  -31.1820 H   0  0  0  0  0  0  0  0  0  0  0  0
   -2.9850   23.7430  -29.7610 C   0  0  0  0  0  0  0  0  0  0  0  0
   -2.5236   23.1017  -30.5264 H   0  0  0  0  0  0  0  0  0  0  0  0
   -2.5533   24.7545  -29.7400 H   0  0  0  0  0  0  0  0  0  0  0  0
   -2.7190   23.1150  -28.3770 C   0  0  0  0  0  0  0  0  0  0  0  0
   -2.1046   23.8145  -27.7912 H   0  0  0  0  0  0  0  0  0  0  0  0
   -3.7003   22.9284  -27.9164 H   0  0  0  0  0  0  0  0  0  0  0  0
   -1.9870   21.7590  -28.4380 C   0  0  0  0  0  0  0  0  0  0  0  0
   -1.6359   21.6250  -29.4718 H   0  0  0  0  0  0  0  0  0  0  0  0
   -1.2044   21.8390  -27.6692 H   0  0  0  0  0  0  0  0  0  0  0  0
   -2.7770   20.4730  -28.0490 C   0  0  0  0  0  0  0  0  0  0  0  0
   -3.7825   20.7894  -27.7344 H   0  0  0  0  0  0  0  0  0  0  0  0
   -2.7348   19.8418  -28.9489 H   0  0  0  0  0  0  0  0  0  0  0  0
   -2.2190   19.6060  -26.9560 N   0  0  0  0  0  0  0  0  0  0  0  0
   -1.5680   20.4900  -25.9540 C   0  0  0  0  0  0  0  0  0  0  0  0
   -1.8220   20.1451  -24.9408 H   0  0  0  0  0  0  0  0  0  0  0  0
   -0.4769   20.4570  -26.0898 H   0  0  0  0  0  0  0  0  0  0  0  0
   -1.9233   21.5221  -26.0898 H   0  0  0  0  0  0  0  0  0  0  0  0
   -1.1970   18.6530  -27.4540 C   0  0  0  0  0  0  0  0  0  0  0  0
   -0.6898   18.1800  -26.6002 H   0  0  0  0  0  0  0  0  0  0  0  0
   -1.6842   17.8793  -28.0655 H   0  0  0  0  0  0  0  0  0  0  0  0
   -0.4592   19.1930  -28.0655 H   0  0  0  0  0  0  0  0  0  0  0  0
   -3.2960   18.8670  -26.2530 C   0  0  0  0  0  0  0  0  0  0  0  0
   -3.1569   18.9624  -25.1660 H   0  0  0  0  0  0  0  0  0  0  0  0
   -4.2730   19.2859  -26.5358 H   0  0  0  0  0  0  0  0  0  0  0  0
   -3.2567   17.8047  -26.5358 H   0  0  0  0  0  0  0  0  0  0  0  0
   -6.1160   18.1990  -34.5040 C   0  0  0  0  0  0  0  0  0  0  0  0
   -6.5003   19.2059  -34.7240 H   0  0  0  0  0  0  0  0  0  0  0  0
   -6.4592   17.4772  -35.2598 H   0  0  0  0  0  0  0  0  0  0  0  0
  1  2  1  0
  2  3  1  0
  3  4  1  6
  3  5  1  0
  5  6  1  0
  5  7  1  0
  5  8  1  0
  8  9  2  0
  8 10  1  0
 10 11  1  0
 10 12  1  0
 10 13  1  0
 13 14  2  0
 14 15  1  0
 14 16  1  0
 16 17  1  0
 16 18  2  0
 18 19  1  0
 19 20  1  0
 19 21  1  0
 19 22  1  0
 22 23  1  0
 22 24  1  0
 22 25  1  0
 25 26  1  0
 25 27  1  0
 25 28  1  0
 28 29  1  6
 29 30  1  0
 29 31  1  0
 29 32  1  0
 28 33  1  0
 33 34  1  6
 33 35  1  0
 35 36  1  0
 35 37  1  0
 35 38  1  0
 38 39  1  0
 38 40  1  0
 38 41  1  0
 41 42  1  6
 41 43  1  0
 43 44  1  1
 43 45  1  0
 45 46  1  0
 45 47  1  0
 45 48  1  0
 43 49  1  0
 49 50  1  0
 49 51  1  0
 49 52  1  0
 52 53  1  0
 52 54  1  0
 52 55  1  0
 55 56  1  0
 55 57  1  0
 55 58  1  0
 58 59  1  0
 58 60  1  0
 58 61  1  0
 61 62  1  0
 62 63  1  0
 62 64  1  0
 62 65  1  0
 61 66  1  0
 66 67  1  0
 66 68  1  0
 66 69  1  0
 61 70  1  0
 70 71  1  0
 70 72  1  0
 70 73  1  0
 13 74  1  0
 74 75  1  0
 74 76  1  0
 74  3  1  0
 33 18  1  0
 41 28  1  0
M  CHG  1  61   1
M  END
>  <UniqueID>  (22) 
17

>  <SMILES>  (22) 
C[C@H](CCCC[N+](C)(C)C)[C@H]1CCC2/C(=C\C=C3/CC(=O)CC(O)C3)CCCC21C

>  <Energy>  (22) 
99.8293180391999

>  <Genealogy>  (22) 
C[C@H](CCCC[N+](C)(C)C)[C@H]1CCC2C(=CC=C3CC(=O)CC(O)C3)CCCC21C (chirality)
C[C@H](CCCC[N+](C)(C)C)[C@H]1CCC2/C(=C\C=C3/CC(=O)CC(O)C3)CCCC21C (cis-trans isomerization)
C[C@H](CCCC[N+](C)(C)C)[C@H]1CCC2/C(=C\C=C3/CC(=O)CC(O)C3)CCCC21C (3D coordinates assigned)
C[C@H](CCCC[N+](C)(C)C)[C@H]1CCC2/C(=C\C=C3/CC(=O)CC(O)C3)CCCC21C (nonaromatic ring conformer: 99.8293180391999 kcal/mol)

>  <smiles>  (22) 
CC(CCCC[N+](C)(C)C)C1CCC2C(=CC=C3CC(=O)CC(O)C3)CCCC21C

>  <score_type>  (22) 
oracle

>  <origin>  (22) 
adg

>  <m_score__min__energy>  (22) 
-9.0600000000000005

>  <m_primary>  (22) 
energy

$$$$
22:0
     RDKit          3D

 32 33  0  0  0  0  0  0  0  0999 V2000
   -6.8490   15.1390  -34.2360 C   0  0  0  0  0  0  0  0  0  0  0  0
   -5.7280   15.9100  -33.5460 C   0  0  0  0  0  0  0  0  0  0  0  0
   -6.1810   17.2990  -33.1820 C   0  0  0  0  0  0  0  0  0  0  0  0
   -7.5060   17.5130  -32.7240 C   0  0  0  0  0  0  0  0  0  0  0  0
   -7.9550   18.8070  -32.4120 C   0  0  0  0  0  0  0  0  0  0  0  0
   -7.0630   19.8660  -32.5700 C   0  0  0  0  0  0  0  0  0  0  0  0
   -5.7900   19.6720  -33.0220 C   0  0  0  0  0  0  0  0  0  0  0  0
   -5.3110   18.4020  -33.3460 C   0  0  0  0  0  0  0  0  0  0  0  0
   -4.0460   18.2420  -33.8100 F   0  0  0  0  0  0  0  0  0  0  0  0
   -5.1570   20.9820  -33.0900 C   0  0  0  0  0  0  0  0  0  0  0  0
   -3.9880   21.1840  -33.5180 O   0  0  0  0  0  0  0  0  0  0  0  0
   -6.0330   22.0420  -32.6510 N   0  0  2  0  0  0  0  0  0  0  0  0
   -5.4940   22.6910  -31.4430 C   0  0  0  0  0  0  0  0  0  0  0  0
   -5.4400   24.1080  -31.6130 O   0  0  0  0  0  0  0  0  0  0  0  0
   -5.0660   24.9910  -30.5950 C   0  0  0  0  0  0  0  0  0  0  0  0
   -6.1080   25.5410  -29.6820 C   0  0  0  0  0  0  0  0  0  0  0  0
   -3.8670   25.3560  -30.4640 O   0  0  0  0  0  0  0  0  0  0  0  0
   -7.2320   21.2940  -32.3540 C   0  0  0  0  0  0  0  0  0  0  0  0
   -8.3130   21.8330  -31.9920 O   0  0  0  0  0  0  0  0  0  0  0  0
   -7.5049   14.6879  -33.4769 H   0  0  0  0  0  0  0  0  0  0  0  0
   -7.4342   15.8266  -34.8643 H   0  0  0  0  0  0  0  0  0  0  0  0
   -6.4162   14.3466  -34.8643 H   0  0  0  0  0  0  0  0  0  0  0  0
   -5.4325   15.3755  -32.6311 H   0  0  0  0  0  0  0  0  0  0  0  0
   -4.8752   15.9865  -34.2366 H   0  0  0  0  0  0  0  0  0  0  0  0
   -8.1886   16.6577  -32.6120 H   0  0  0  0  0  0  0  0  0  0  0  0
   -8.9806   18.9793  -32.0535 H   0  0  0  0  0  0  0  0  0  0  0  0
   -6.2020   22.7180  -33.4310 H   0  0  0  0  0  0  0  0  0  0  0  0
   -6.1421   22.4545  -30.5863 H   0  0  0  0  0  0  0  0  0  0  0  0
   -4.4750   22.3169  -31.2652 H   0  0  0  0  0  0  0  0  0  0  0  0
   -5.8025   25.3798  -28.6376 H   0  0  0  0  0  0  0  0  0  0  0  0
   -6.2260   26.6188  -29.8673 H   0  0  0  0  0  0  0  0  0  0  0  0
   -7.0645   25.0303  -29.8673 H   0  0  0  0  0  0  0  0  0  0  0  0
  1  2  1  0
  2  3  1  0
  3  4  2  0
  4  5  1  0
  5  6  2  0
  6  7  1  0
  7  8  2  0
  8  9  1  0
  7 10  1  0
 10 11  2  0
 10 12  1  0
 12 13  1  0
 13 14  1  0
 14 15  1  0
 15 16  1  0
 15 17  2  0
 12 18  1  0
 18 19  2  0
  8  3  1  0
 18  6  1  0
  1 20  1  0
  1 21  1  0
  1 22  1  0
  2 23  1  0
  2 24  1  0
  4 25  1  0
  5 26  1  0
 12 27  1  6
 13 28  1  0
 13 29  1  0
 16 30  1  0
 16 31  1  0
 16 32  1  0
M  CHG  1  12   1
M  END
>  <UniqueID>  (23) 
18

>  <SMILES>  (23) 
CCc1ccc2c(c1F)C(=O)[N@H+](COC(C)=O)C2=O

>  <Energy>  (23) 
51.285427277974016

>  <Genealogy>  (23) 
CCc1ccc2c(c1F)C(=O)[NH+](COC(C)=O)C2=O (protonated)
CCc1ccc2c(c1F)C(=O)[N@H+](COC(C)=O)C2=O (chirality)
CCc1ccc2c(c1F)C(=O)[N@H+](COC(C)=O)C2=O (3D coordinates assigned)
CCc1ccc2c(c1F)C(=O)[N@H+](COC(C)=O)C2=O (nonaromatic ring conformer: 51.285427277974016 kcal/mol)

>  <smiles>  (23) 
CCc1ccc2c(c1F)C(=O)N(COC(C)=O)C2=O

>  <score_type>  (23) 
oracle

>  <origin>  (23) 
adg

>  <m_score__min__energy>  (23) 
-7.4400000000000004

>  <m_primary>  (23) 
energy

$$$$
23:0
     RDKit          3D

 39 40  0  0  0  0  0  0  0  0999 V2000
   -7.7570   18.2940  -32.3770 C   0  0  0  0  0  0  0  0  0  0  0  0
   -8.8360   19.0060  -31.5680 C   0  0  0  0  0  0  0  0  0  0  0  0
   -9.2840   20.2180  -32.2700 N   0  0  0  0  0  0  0  0  0  0  0  0
   -9.3000   21.4070  -31.4000 C   0  0  0  0  0  0  0  0  0  0  0  0
   -8.4530   22.5590  -31.9670 C   0  0  0  0  0  0  0  0  0  0  0  0
   -7.0570   22.1430  -32.0880 N   0  0  0  0  0  0  0  0  0  0  0  0
   -6.6640   21.1850  -32.9130 N   0  0  0  0  0  0  0  0  0  0  0  0
   -5.3400   21.0130  -32.7320 C   0  0  0  0  0  0  0  0  0  0  0  0
   -4.5340   19.9690  -33.4290 C   0  0  0  0  0  0  0  0  0  0  0  0
   -4.8810   21.8610  -31.7430 C   0  0  0  0  0  0  0  0  0  0  0  0
   -6.0010   22.5710  -31.3590 C   0  0  0  0  0  0  0  0  0  0  0  0
   -6.0340   23.6140  -30.2710 C   0  0  0  0  0  0  0  0  0  0  0  0
   -4.7640   23.6430  -29.5210 N   0  0  0  0  0  0  0  0  0  0  0  0
   -4.5930   22.7570  -28.4900 C   0  0  0  0  0  0  0  0  0  0  0  0
   -3.4170   22.7490  -27.7410 C   0  0  0  0  0  0  0  0  0  0  0  0
   -2.3980   23.6440  -28.0560 C   0  0  0  0  0  0  0  0  0  0  0  0
   -2.5620   24.5260  -29.1210 C   0  0  0  0  0  0  0  0  0  0  0  0
   -3.7510   24.5120  -29.8560 C   0  0  0  0  0  0  0  0  0  0  0  0
   -3.8740   25.3080  -30.8270 O   0  0  0  0  0  0  0  0  0  0  0  0
   -7.0384   17.8198  -31.6924 H   0  0  0  0  0  0  0  0  0  0  0  0
   -8.2218   17.5247  -33.0111 H   0  0  0  0  0  0  0  0  0  0  0  0
   -7.2325   19.0240  -33.0111 H   0  0  0  0  0  0  0  0  0  0  0  0
   -9.6921   18.3292  -31.4301 H   0  0  0  0  0  0  0  0  0  0  0  0
   -8.4202   19.2918  -30.5905 H   0  0  0  0  0  0  0  0  0  0  0  0
   -8.6610   20.3910  -33.0940 H   0  0  0  0  0  0  0  0  0  0  0  0
  -10.3389   21.7521  -31.2922 H   0  0  0  0  0  0  0  0  0  0  0  0
   -8.8686   21.1190  -30.4300 H   0  0  0  0  0  0  0  0  0  0  0  0
   -8.8367   22.8387  -32.9592 H   0  0  0  0  0  0  0  0  0  0  0  0
   -8.5144   23.4205  -31.2858 H   0  0  0  0  0  0  0  0  0  0  0  0
   -4.0398   19.3288  -32.6834 H   0  0  0  0  0  0  0  0  0  0  0  0
   -5.1949   19.3553  -34.0588 H   0  0  0  0  0  0  0  0  0  0  0  0
   -3.7730   20.4530  -34.0588 H   0  0  0  0  0  0  0  0  0  0  0  0
   -3.8571   21.9502  -31.3510 H   0  0  0  0  0  0  0  0  0  0  0  0
   -6.2050   24.6011  -30.7253 H   0  0  0  0  0  0  0  0  0  0  0  0
   -6.8455   23.3628  -29.5722 H   0  0  0  0  0  0  0  0  0  0  0  0
   -5.3942   22.0425  -28.2500 H   0  0  0  0  0  0  0  0  0  0  0  0
   -3.2952   22.0412  -26.9078 H   0  0  0  0  0  0  0  0  0  0  0  0
   -1.4690   23.6543  -27.4671 H   0  0  0  0  0  0  0  0  0  0  0  0
   -1.7592   25.2309  -29.3829 H   0  0  0  0  0  0  0  0  0  0  0  0
  1  2  1  0
  2  3  1  0
  3  4  1  0
  4  5  1  0
  5  6  1  0
  6  7  1  0
  7  8  2  0
  8  9  1  0
  8 10  1  0
 10 11  2  0
 11 12  1  0
 12 13  1  0
 13 14  1  0
 14 15  2  0
 15 16  1  0
 16 17  2  0
 17 18  1  0
 18 19  2  0
 11  6  1  0
 18 13  1  0
  1 20  1  0
  1 21  1  0
  1 22  1  0
  2 23  1  0
  2 24  1  0
  3 25  1  0
  4 26  1  0
  4 27  1  0
  5 28  1  0
  5 29  1  0
  9 30  1  0
  9 31  1  0
  9 32  1  0
 10 33  1  0
 12 34  1  0
 12 35  1  0
 14 36  1  0
 15 37  1  0
 16 38  1  0
 17 39  1  0
M  END
>  <UniqueID>  (24) 
19

>  <SMILES>  (24) 
CCNCCn1nc(C)cc1Cn1ccccc1=O

>  <Energy>  (24) 
64.27632054131787

>  <Genealogy>  (24) 
CCNCCn1nc(C)cc1Cn1ccccc1=O (3D coordinates assigned)
CCNCCn1nc(C)cc1Cn1ccccc1=O (optimized conformer: 64.27632054131787 kcal/mol)

>  <smiles>  (24) 
CCNCCn1nc(C)cc1Cn1ccccc1=O

>  <score_type>  (24) 
oracle

>  <origin>  (24) 
adg

>  <m_score__min__energy>  (24) 
-7.2199999999999998

>  <m_primary>  (24) 
energy

$$$$
24:0
     RDKit          3D

 70 70  0  0  0  0  0  0  0  0999 V2000
   -0.9420   27.7340  -25.6070 C   0  0  0  0  0  0  0  0  0  0  0  0
   -1.5020   26.6020  -24.7460 C   0  0  0  0  0  0  0  0  0  0  0  0
   -1.2800   25.2200  -25.3750 C   0  0  0  0  0  0  0  0  0  0  0  0
   -2.1000   24.9680  -26.6530 C   0  0  0  0  0  0  0  0  0  0  0  0
   -1.2250   24.8720  -27.9230 C   0  0  0  0  0  0  0  0  0  0  0  0
   -1.9580   25.2640  -29.1270 N   0  0  0  0  0  0  0  0  0  0  0  0
   -3.2070   24.6620  -29.4760 C   0  0  0  0  0  0  0  0  0  0  0  0
   -3.6580   23.6870  -28.8050 O   0  0  0  0  0  0  0  0  0  0  0  0
   -3.9350   25.1620  -30.6050 N   0  0  0  0  0  0  0  0  0  0  0  0
   -5.3400   25.5620  -30.5500 C   0  0  0  0  0  0  0  0  0  0  0  0
   -6.2420   24.3720  -30.1940 C   0  0  0  0  0  0  0  0  0  0  0  0
   -7.1320   23.9640  -31.3790 C   0  0  0  0  0  0  0  0  0  0  0  0
   -7.2990   22.4410  -31.5140 C   0  0  0  0  0  0  0  0  0  0  0  0
   -8.3650   21.8730  -30.5570 C   0  0  0  0  0  0  0  0  0  0  0  0
   -9.3140   20.8750  -31.2380 C   0  0  0  0  0  0  0  0  0  0  0  0
   -8.6470   20.1110  -32.3960 C   0  0  0  0  0  0  0  0  0  0  0  0
   -7.8550   18.8880  -31.8990 C   0  0  0  0  0  0  0  0  0  0  0  0
   -7.4550   18.0260  -33.0240 N   0  0  0  0  0  0  0  0  0  0  0  0
   -6.0040   17.7670  -33.0230 C   0  0  0  0  0  0  0  0  0  0  0  0
   -5.3110   18.4870  -34.1880 C   0  0  0  0  0  0  0  0  0  0  0  0
   -3.8170   18.7550  -33.8950 C   0  0  0  0  0  0  0  0  0  0  0  0
   -3.5240   20.1520  -33.5090 N   0  0  0  0  0  0  0  0  0  0  0  0
   -4.7080   20.9010  -33.0520 C   0  0  0  0  0  0  0  0  0  0  0  0
   -4.3000   22.3230  -32.6300 C   0  0  0  0  0  0  0  0  0  0  0  0
   -3.1880   22.4110  -31.7390 O   0  0  0  0  0  0  0  0  0  0  0  0
   -2.6410   21.1530  -31.3870 C   0  0  0  0  0  0  0  0  0  0  0  0
   -2.3430   20.2930  -32.6270 C   0  0  0  0  0  0  0  0  0  0  0  0
   -0.5486   28.5292  -24.9566 H   0  0  0  0  0  0  0  0  0  0  0  0
   -0.1322   27.3455  -26.2420 H   0  0  0  0  0  0  0  0  0  0  0  0
   -1.7422   28.1420  -26.2420 H   0  0  0  0  0  0  0  0  0  0  0  0
   -1.0058   26.6267  -23.7646 H   0  0  0  0  0  0  0  0  0  0  0  0
   -2.5872   26.7571  -24.6546 H   0  0  0  0  0  0  0  0  0  0  0  0
   -0.2132   25.1224  -25.6250 H   0  0  0  0  0  0  0  0  0  0  0  0
   -1.6144   24.4787  -24.6342 H   0  0  0  0  0  0  0  0  0  0  0  0
   -2.6514   24.0235  -26.5351 H   0  0  0  0  0  0  0  0  0  0  0  0
   -2.7768   25.8252  -26.7839 H   0  0  0  0  0  0  0  0  0  0  0  0
   -0.3553   25.5351  -27.8055 H   0  0  0  0  0  0  0  0  0  0  0  0
   -0.9142   23.8235  -28.0419 H   0  0  0  0  0  0  0  0  0  0  0  0
   -1.6150   26.0520  -29.7290 H   0  0  0  0  0  0  0  0  0  0  0  0
   -5.4607   26.3448  -29.7867 H   0  0  0  0  0  0  0  0  0  0  0  0
   -5.6343   25.9382  -31.5409 H   0  0  0  0  0  0  0  0  0  0  0  0
   -5.6104   23.5172  -29.9107 H   0  0  0  0  0  0  0  0  0  0  0  0
   -6.8941   24.6711  -29.3602 H   0  0  0  0  0  0  0  0  0  0  0  0
   -8.1262   24.4140  -31.2410 H   0  0  0  0  0  0  0  0  0  0  0  0
   -6.6406   24.3219  -32.2958 H   0  0  0  0  0  0  0  0  0  0  0  0
   -7.5950   22.2096  -32.5479 H   0  0  0  0  0  0  0  0  0  0  0  0
   -6.3366   21.9766  -31.2530 H   0  0  0  0  0  0  0  0  0  0  0  0
   -7.8544   21.3611  -29.7280 H   0  0  0  0  0  0  0  0  0  0  0  0
   -8.9746   22.7184  -30.2052 H   0  0  0  0  0  0  0  0  0  0  0  0
   -9.6556   20.1470  -30.4875 H   0  0  0  0  0  0  0  0  0  0  0  0
  -10.1513   21.4501  -31.6601 H   0  0  0  0  0  0  0  0  0  0  0  0
   -9.4271   19.7699  -33.0925 H   0  0  0  0  0  0  0  0  0  0  0  0
   -7.9418   20.7939  -32.8923 H   0  0  0  0  0  0  0  0  0  0  0  0
   -6.9533   19.2332  -31.3719 H   0  0  0  0  0  0  0  0  0  0  0  0
   -8.4975   18.3056  -31.2222 H   0  0  0  0  0  0  0  0  0  0  0  0
   -7.9320   17.1020  -32.9120 H   0  0  0  0  0  0  0  0  0  0  0  0
   -5.5763   18.1247  -32.0748 H   0  0  0  0  0  0  0  0  0  0  0  0
   -5.8432   16.6848  -33.1372 H   0  0  0  0  0  0  0  0  0  0  0  0
   -5.3897   17.8616  -35.0895 H   0  0  0  0  0  0  0  0  0  0  0  0
   -5.8087   19.4572  -34.3328 H   0  0  0  0  0  0  0  0  0  0  0  0
   -3.5012   18.0951  -33.0735 H   0  0  0  0  0  0  0  0  0  0  0  0
   -3.2683   18.5595  -34.8281 H   0  0  0  0  0  0  0  0  0  0  0  0
   -5.4402   20.9599  -33.8708 H   0  0  0  0  0  0  0  0  0  0  0  0
   -5.1532   20.3822  -32.1902 H   0  0  0  0  0  0  0  0  0  0  0  0
   -4.0483   22.8863  -33.5407 H   0  0  0  0  0  0  0  0  0  0  0  0
   -5.1596   22.7289  -32.0765 H   0  0  0  0  0  0  0  0  0  0  0  0
   -1.7050   21.3143  -30.8322 H   0  0  0  0  0  0  0  0  0  0  0  0
   -3.3791   20.6196  -30.7701 H   0  0  0  0  0  0  0  0  0  0  0  0
   -1.5294   20.7647  -33.1976 H   0  0  0  0  0  0  0  0  0  0  0  0
   -2.0597   19.2883  -32.2801 H   0  0  0  0  0  0  0  0  0  0  0  0
  1  2  1  0
  2  3  1  0
  3  4  1  0
  4  5  1  0
  5  6  1  0
  6  7  1  0
  7  8  2  0
  7  9  1  0
  9 10  1  0
 10 11  1  0
 11 12  1  0
 12 13  1  0
 13 14  1  0
 14 15  1  0
 15 16  1  0
 16 17  1  0
 17 18  1  0
 18 19  1  0
 19 20  1  0
 20 21  1  0
 21 22  1  0
 22 23  1  0
 23 24  1  0
 24 25  1  0
 25 26  1  0
 26 27  1  0
 27 22  1  0
  1 28  1  0
  1 29  1  0
  1 30  1  0
  2 31  1  0
  2 32  1  0
  3 33  1  0
  3 34  1  0
  4 35  1  0
  4 36  1  0
  5 37  1  0
  5 38  1  0
  6 39  1  0
 10 40  1  0
 10 41  1  0
 11 42  1  0
 11 43  1  0
 12 44  1  0
 12 45  1  0
 13 46  1  0
 13 47  1  0
 14 48  1  0
 14 49  1  0
 15 50  1  0
 15 51  1  0
 16 52  1  0
 16 53  1  0
 17 54  1  0
 17 55  1  0
 18 56  1  0
 19 57  1  0
 19 58  1  0
 20 59  1  0
 20 60  1  0
 21 61  1  0
 21 62  1  0
 23 63  1  0
 23 64  1  0
 24 65  1  0
 24 66  1  0
 26 67  1  0
 26 68  1  0
 27 69  1  0
 27 70  1  0
M  CHG  1   9  -1
M  END
>  <UniqueID>  (25) 
20

>  <SMILES>  (25) 
CCCCCNC(=O)[N-]CCCCCCCCNCCCN1CCOCC1

>  <Energy>  (25) 
60.17078592899946

>  <Genealogy>  (25) 
CCCCCNC(=O)[N-]CCCCCCCCNCCCN1CCOCC1 (protonated)
CCCCCNC(=O)[N-]CCCCCCCCNCCCN1CCOCC1 (3D coordinates assigned)
CCCCCNC(=O)[N-]CCCCCCCCNCCCN1CCOCC1 (nonaromatic ring conformer: 60.17078592899946 kcal/mol)

>  <smiles>  (25) 
CCCCCNC(=O)NCCCCCCCCNCCCN1CCOCC1

>  <score_type>  (25) 
oracle

>  <origin>  (25) 
adg

>  <m_score__min__energy>  (25) 
-9.5299999999999994

>  <m_primary>  (25) 
energy

$$$$
25:0
     RDKit          3D

 35 38  0  0  0  0  0  0  0  0999 V2000
   -5.0170   15.1880  -31.8700 F   0  0  0  0  0  0  0  0  0  0  0  0
   -5.3740   16.4590  -32.1790 C   0  0  0  0  0  0  0  0  0  0  0  0
   -4.9850   17.0160  -33.4000 C   0  0  0  0  0  0  0  0  0  0  0  0
   -5.3520   18.3260  -33.7230 C   0  0  0  0  0  0  0  0  0  0  0  0
   -6.1100   19.0960  -32.8200 C   0  0  0  0  0  0  0  0  0  0  0  0
   -6.5350   20.5110  -33.1620 C   0  0  2  0  0  0  0  0  0  0  0  0
   -5.4680   21.5470  -32.7070 C   0  0  0  0  0  0  0  0  0  0  0  0
   -5.6710   22.0690  -31.2810 C   0  0  0  0  0  0  0  0  0  0  0  0
   -4.5360   22.6660  -30.5270 C   0  0  0  0  0  0  0  0  0  0  0  0
   -4.7790   23.6390  -29.5380 C   0  0  0  0  0  0  0  0  0  0  0  0
   -3.7210   24.2060  -28.8220 C   0  0  0  0  0  0  0  0  0  0  0  0
   -2.4060   23.8140  -29.0860 C   0  0  0  0  0  0  0  0  0  0  0  0
   -0.9620   24.5900  -28.1070 Br  0  0  0  0  0  0  0  0  0  0  0  0
   -2.1500   22.8540  -30.0690 C   0  0  0  0  0  0  0  0  0  0  0  0
   -3.2050   22.2830  -30.7870 C   0  0  0  0  0  0  0  0  0  0  0  0
   -6.8620   22.0900  -30.7470 N   0  0  0  0  0  0  0  0  0  0  0  0
   -7.9740   21.5200  -31.4310 C   0  0  0  0  0  0  0  0  0  0  0  0
   -9.2480   21.5530  -31.0080 N   0  0  0  0  0  0  0  0  0  0  0  0
   -9.8610   20.8140  -31.9660 C   0  0  0  0  0  0  0  0  0  0  0  0
   -9.0040   20.3480  -32.9040 N   0  0  0  0  0  0  0  0  0  0  0  0
   -7.8240   20.8170  -32.5490 N   0  0  0  0  0  0  0  0  0  0  0  0
   -6.5030   18.5210  -31.5970 C   0  0  0  0  0  0  0  0  0  0  0  0
   -6.1330   17.2100  -31.2810 C   0  0  0  0  0  0  0  0  0  0  0  0
   -4.3887   16.4226  -34.1087 H   0  0  0  0  0  0  0  0  0  0  0  0
   -5.0469   18.7574  -34.6878 H   0  0  0  0  0  0  0  0  0  0  0  0
   -6.6321   20.5778  -34.2557 H   0  0  0  0  0  0  0  0  0  0  0  0
   -4.4781   21.0705  -32.7628 H   0  0  0  0  0  0  0  0  0  0  0  0
   -5.5609   22.4136  -33.3782 H   0  0  0  0  0  0  0  0  0  0  0  0
   -5.8111   23.9556  -29.3271 H   0  0  0  0  0  0  0  0  0  0  0  0
   -3.9239   24.9622  -28.0493 H   0  0  0  0  0  0  0  0  0  0  0  0
   -1.1148   22.5466  -30.2785 H   0  0  0  0  0  0  0  0  0  0  0  0
   -2.9946   21.5295  -31.5603 H   0  0  0  0  0  0  0  0  0  0  0  0
  -10.9426   20.6142  -31.9792 H   0  0  0  0  0  0  0  0  0  0  0  0
   -7.1045   19.1061  -30.8858 H   0  0  0  0  0  0  0  0  0  0  0  0
   -6.4413   16.7695  -30.3214 H   0  0  0  0  0  0  0  0  0  0  0  0
  1  2  1  0
  2  3  2  0
  3  4  1  0
  4  5  2  0
  5  6  1  0
  6  7  1  0
  7  8  1  0
  8  9  1  0
  9 10  2  0
 10 11  1  0
 11 12  2  0
 12 13  1  0
 12 14  1  0
 14 15  2  0
  8 16  2  0
 16 17  1  0
 17 18  2  0
 18 19  1  0
 19 20  2  0
 20 21  1  0
  5 22  1  0
 22 23  2  0
 23  2  1  0
 21  6  1  0
 15  9  1  0
 21 17  1  0
  3 24  1  0
  4 25  1  0
  6 26  1  6
  7 27  1  0
  7 28  1  0
 10 29  1  0
 11 30  1  0
 14 31  1  0
 15 32  1  0
 19 33  1  0
 22 34  1  0
 23 35  1  0
M  END
>  <UniqueID>  (26) 
21

>  <SMILES>  (26) 
Fc1ccc([C@@H]2CC(c3ccc(Br)cc3)=Nc3ncnn32)cc1

>  <Energy>  (26) 
79.95420054236799

>  <Genealogy>  (26) 
Fc1ccc([C@@H]2CC(c3ccc(Br)cc3)=Nc3ncnn32)cc1 (chirality)
Fc1ccc([C@@H]2CC(c3ccc(Br)cc3)=Nc3ncnn32)cc1 (3D coordinates assigned)
Fc1ccc([C@@H]2CC(c3ccc(Br)cc3)=Nc3ncnn32)cc1 (nonaromatic ring conformer: 79.95420054236799 kcal/mol)

>  <smiles>  (26) 
Fc1ccc(C2CC(c3ccc(Br)cc3)=Nc3ncnn32)cc1

>  <score_type>  (26) 
oracle

>  <origin>  (26) 
adg

>  <m_score__min__energy>  (26) 
-7.8600000000000003

>  <m_primary>  (26) 
energy

$$$$
26:0
     RDKit          3D

 35 37  0  0  0  0  0  0  0  0999 V2000
   -4.5830   24.1700  -28.3560 C   0  0  0  0  0  0  0  0  0  0  0  0
   -3.6060   24.5160  -29.8010 S   0  0  0  0  0  0  0  0  0  0  0  0
   -2.2260   24.9420  -29.3840 O   0  0  0  0  0  0  0  0  0  0  0  0
   -4.2400   25.6310  -30.5840 O   0  0  0  0  0  0  0  0  0  0  0  0
   -3.5080   23.0690  -30.7980 C   0  0  0  0  0  0  0  0  0  0  0  0
   -4.5510   22.7420  -31.6730 C   0  0  0  0  0  0  0  0  0  0  0  0
   -4.4640   21.6030  -32.4790 C   0  0  0  0  0  0  0  0  0  0  0  0
   -3.3250   20.7850  -32.4300 C   0  0  0  0  0  0  0  0  0  0  0  0
   -3.2450   19.5790  -33.2830 C   0  0  0  0  0  0  0  0  0  0  0  0
   -1.8800   19.0570  -34.0950 S   0  0  0  0  0  0  0  0  0  0  0  0
   -2.5170   17.7650  -34.9120 N   0  0  0  0  0  0  0  0  0  0  0  0
   -3.8260   17.6990  -34.5700 C   0  0  0  0  0  0  0  0  0  0  0  0
   -4.2670   18.6880  -33.6580 C   0  0  0  0  0  0  0  0  0  0  0  0
   -5.6450   18.6990  -33.1170 C   0  0  0  0  0  0  0  0  0  0  0  0
   -6.5880   19.6370  -33.5750 C   0  0  0  0  0  0  0  0  0  0  0  0
   -7.8850   19.6460  -33.0550 C   0  0  0  0  0  0  0  0  0  0  0  0
   -8.2510   18.7270  -32.0670 C   0  0  0  0  0  0  0  0  0  0  0  0
   -9.5100   18.7380  -31.5640 F   0  0  0  0  0  0  0  0  0  0  0  0
   -7.3160   17.8020  -31.5950 C   0  0  0  0  0  0  0  0  0  0  0  0
   -6.0170   17.7880  -32.1130 C   0  0  0  0  0  0  0  0  0  0  0  0
   -2.2860   21.1090  -31.5420 C   0  0  0  0  0  0  0  0  0  0  0  0
   -2.3740   22.2480  -30.7380 C   0  0  0  0  0  0  0  0  0  0  0  0
   -3.9901   24.3800  -27.4536 H   0  0  0  0  0  0  0  0  0  0  0  0
   -5.4815   24.8046  -28.3603 H   0  0  0  0  0  0  0  0  0  0  0  0
   -4.8818   23.1114  -28.3603 H   0  0  0  0  0  0  0  0  0  0  0  0
   -5.4426   23.3840  -31.7265 H   0  0  0  0  0  0  0  0  0  0  0  0
   -5.2929   21.3467  -33.1552 H   0  0  0  0  0  0  0  0  0  0  0  0
   -2.0110   17.1200  -35.5590 H   0  0  0  0  0  0  0  0  0  0  0  0
   -4.5005   16.9294  -34.9734 H   0  0  0  0  0  0  0  0  0  0  0  0
   -6.3029   20.3673  -34.3466 H   0  0  0  0  0  0  0  0  0  0  0  0
   -8.6193   20.3774  -33.4236 H   0  0  0  0  0  0  0  0  0  0  0  0
   -7.6025   17.0827  -30.8137 H   0  0  0  0  0  0  0  0  0  0  0  0
   -5.2836   17.0614  -31.7334 H   0  0  0  0  0  0  0  0  0  0  0  0
   -1.3983   20.4624  -31.4794 H   0  0  0  0  0  0  0  0  0  0  0  0
   -1.5498   22.5014  -30.0550 H   0  0  0  0  0  0  0  0  0  0  0  0
  1  2  1  0
  2  3  2  0
  2  4  2  0
  2  5  1  0
  5  6  2  0
  6  7  1  0
  7  8  2  0
  8  9  1  0
  9 10  1  0
 10 11  1  0
 11 12  2  0
 12 13  1  0
 13 14  1  0
 14 15  2  0
 15 16  1  0
 16 17  2  0
 17 18  1  0
 17 19  1  0
 19 20  2  0
  8 21  1  0
 21 22  2  0
 22  5  1  0
 13  9  2  0
 20 14  1  0
  1 23  1  0
  1 24  1  0
  1 25  1  0
  6 26  1  0
  7 27  1  0
 11 28  1  0
 12 29  1  0
 15 30  1  0
 16 31  1  0
 19 32  1  0
 20 33  1  0
 21 34  1  0
 22 35  1  0
M  CHG  1  11   1
M  END
>  <UniqueID>  (27) 
22

>  <SMILES>  (27) 
CS(=O)(=O)c1ccc(-c2s[nH+]cc2-c2ccc(F)cc2)cc1

>  <Energy>  (27) 
76.15137362751193

>  <Genealogy>  (27) 
CS(=O)(=O)c1ccc(-c2s[nH+]cc2-c2ccc(F)cc2)cc1 (protonated)
CS(=O)(=O)c1ccc(-c2s[nH+]cc2-c2ccc(F)cc2)cc1 (3D coordinates assigned)
CS(=O)(=O)c1ccc(-c2s[nH+]cc2-c2ccc(F)cc2)cc1 (optimized conformer: 76.15137362751193 kcal/mol)

>  <smiles>  (27) 
CS(=O)(=O)c1ccc(-c2sncc2-c2ccc(F)cc2)cc1

>  <score_type>  (27) 
oracle

>  <origin>  (27) 
adg

>  <m_score__min__energy>  (27) 
-8.1799999999999997

>  <m_primary>  (27) 
energy

$$$$
27:0
     RDKit          3D

 34 36  0  0  0  0  0  0  0  0999 V2000
   -0.1090   26.4000  -27.4580 C   0  0  0  0  0  0  0  0  0  0  0  0
   -0.9970   25.3000  -27.9440 C   0  0  0  0  0  0  0  0  0  0  0  0
   -0.9490   24.0360  -27.3480 C   0  0  0  0  0  0  0  0  0  0  0  0
   -1.7870   23.0270  -27.8200 C   0  0  0  0  0  0  0  0  0  0  0  0
   -2.6630   23.2820  -28.8770 C   0  0  0  0  0  0  0  0  0  0  0  0
   -2.6910   24.5660  -29.4580 C   0  0  0  0  0  0  0  0  0  0  0  0
   -3.4820   24.8720  -30.4450 N   0  0  0  0  0  0  0  0  0  0  0  0
   -5.2190   24.8800  -30.4140 S   0  0  0  0  0  0  0  0  0  0  0  0
   -5.7440   26.0360  -31.2190 O   0  0  0  0  0  0  0  0  0  0  0  0
   -5.7080   24.9970  -28.9970 O   0  0  0  0  0  0  0  0  0  0  0  0
   -5.8020   23.3720  -31.1110 C   0  0  0  0  0  0  0  0  0  0  0  0
   -4.9230   22.5320  -31.8080 C   0  0  0  0  0  0  0  0  0  0  0  0
   -5.3840   21.3410  -32.3750 C   0  0  0  0  0  0  0  0  0  0  0  0
   -6.7330   20.9800  -32.2560 C   0  0  0  0  0  0  0  0  0  0  0  0
   -7.2080   19.7850  -32.8230 C   0  0  0  0  0  0  0  0  0  0  0  0
   -8.5560   19.4380  -32.7000 C   0  0  0  0  0  0  0  0  0  0  0  0
   -9.4390   20.2770  -32.0140 C   0  0  0  0  0  0  0  0  0  0  0  0
   -8.9800   21.4680  -31.4470 C   0  0  0  0  0  0  0  0  0  0  0  0
   -7.6280   21.8290  -31.5610 C   0  0  0  0  0  0  0  0  0  0  0  0
   -7.1550   23.0220  -30.9950 C   0  0  0  0  0  0  0  0  0  0  0  0
   -1.8590   25.5280  -28.9740 N   0  0  0  0  0  0  0  0  0  0  0  0
   -0.1030   26.4075  -26.3580 H   0  0  0  0  0  0  0  0  0  0  0  0
    0.9135   26.2368  -27.8292 H   0  0  0  0  0  0  0  0  0  0  0  0
   -0.4841   27.3651  -27.8292 H   0  0  0  0  0  0  0  0  0  0  0  0
   -0.2573   23.8399  -26.5155 H   0  0  0  0  0  0  0  0  0  0  0  0
   -1.7581   22.0286  -27.3592 H   0  0  0  0  0  0  0  0  0  0  0  0
   -3.3252   22.4882  -29.2529 H   0  0  0  0  0  0  0  0  0  0  0  0
   -3.8640   22.8119  -31.9093 H   0  0  0  0  0  0  0  0  0  0  0  0
   -4.6863   20.6850  -32.9162 H   0  0  0  0  0  0  0  0  0  0  0  0
   -6.5175   19.1217  -33.3645 H   0  0  0  0  0  0  0  0  0  0  0  0
   -8.9236   18.5014  -33.1445 H   0  0  0  0  0  0  0  0  0  0  0  0
  -10.4990   19.9982  -31.9204 H   0  0  0  0  0  0  0  0  0  0  0  0
   -9.6797   22.1250  -30.9096 H   0  0  0  0  0  0  0  0  0  0  0  0
   -7.8483   23.6859  -30.4578 H   0  0  0  0  0  0  0  0  0  0  0  0
  1  2  1  0
  2  3  2  0
  3  4  1  0
  4  5  2  0
  5  6  1  0
  6  7  2  3
  7  8  1  0
  8  9  2  0
  8 10  2  0
  8 11  1  0
 11 12  2  0
 12 13  1  0
 13 14  2  0
 14 15  1  0
 15 16  2  0
 16 17  1  0
 17 18  2  0
 18 19  1  0
 19 20  2  0
  6 21  1  0
 21  2  1  0
 20 11  1  0
 19 14  1  0
  1 22  1  0
  1 23  1  0
  1 24  1  0
  3 25  1  0
  4 26  1  0
  5 27  1  0
 12 28  1  0
 13 29  1  0
 15 30  1  0
 16 31  1  0
 17 32  1  0
 18 33  1  0
 20 34  1  0
M  CHG  1  21  -1
M  END
>  <UniqueID>  (28) 
23

>  <SMILES>  (28) 
Cc1cccc(=NS(=O)(=O)c2ccc3ccccc3c2)[n-]1

>  <Energy>  (28) 
45.28124227721212

>  <Genealogy>  (28) 
Cc1cccc(=NS(=O)(=O)c2ccc3ccccc3c2)[n-]1 (protonated)
Cc1cccc(=NS(=O)(=O)c2ccc3ccccc3c2)[n-]1 (3D coordinates assigned)
Cc1cccc(=NS(=O)(=O)c2ccc3ccccc3c2)[n-]1 (optimized conformer: 45.28124227721212 kcal/mol)

>  <smiles>  (28) 
Cc1cccc(=NS(=O)(=O)c2ccc3ccccc3c2)[nH]1

>  <score_type>  (28) 
oracle

>  <origin>  (28) 
adg

>  <m_score__min__energy>  (28) 
-10.66

>  <m_primary>  (28) 
energy

$$$$
28:0
     RDKit          3D

 57 60  0  0  0  0  0  0  0  0999 V2000
   -0.0780   22.6920  -23.8530 C   0  0  0  0  0  0  0  0  0  0  0  0
    0.3520   22.6530  -25.2160 O   0  0  0  0  0  0  0  0  0  0  0  0
   -0.3170   23.2910  -26.2710 C   0  0  0  0  0  0  0  0  0  0  0  0
   -1.2410   24.2970  -25.9620 C   0  0  0  0  0  0  0  0  0  0  0  0
   -1.9420   24.9550  -26.9780 C   0  0  0  0  0  0  0  0  0  0  0  0
   -1.7130   24.6330  -28.3210 C   0  0  0  0  0  0  0  0  0  0  0  0
   -2.4880   25.2820  -29.3390 N   0  0  0  0  0  0  0  0  0  0  0  0
   -3.5340   24.6810  -30.1020 C   0  0  0  0  0  0  0  0  0  0  0  0
   -4.2310   25.4100  -30.8530 O   0  0  0  0  0  0  0  0  0  0  0  0
   -3.7730   23.1980  -30.0480 C   0  0  0  0  0  0  0  0  0  0  0  0
   -3.0940   22.3510  -31.5280 S   0  0  0  0  0  0  0  0  0  0  0  0
   -4.6730   21.6500  -32.0450 C   0  0  0  0  0  0  0  0  0  0  0  0
   -5.7990   22.1930  -31.5090 N   0  0  0  0  0  0  0  0  0  0  0  0
   -7.0250   21.6870  -31.7720 C   0  0  0  0  0  0  0  0  0  0  0  0
   -8.1590   22.2670  -31.1900 C   0  0  0  0  0  0  0  0  0  0  0  0
   -9.4260   21.7320  -31.4420 C   0  0  0  0  0  0  0  0  0  0  0  0
   -9.5620   20.6220  -32.2760 C   0  0  0  0  0  0  0  0  0  0  0  0
   -8.4340   20.0440  -32.8670 C   0  0  0  0  0  0  0  0  0  0  0  0
   -7.1550   20.5770  -32.6190 C   0  0  0  0  0  0  0  0  0  0  0  0
   -5.9900   20.0350  -33.1870 C   0  0  0  0  0  0  0  0  0  0  0  0
   -6.0830   19.0380  -33.9570 O   0  0  0  0  0  0  0  0  0  0  0  0
   -4.7580   20.5740  -32.9060 N   0  0  0  0  0  0  0  0  0  0  0  0
   -3.5460   20.0110  -33.5380 C   0  0  0  0  0  0  0  0  0  0  0  0
   -2.6310   19.3430  -32.5060 C   0  0  0  0  0  0  0  0  0  0  0  0
   -1.3320   18.9860  -33.1260 N   0  0  0  0  0  0  0  0  0  0  0  0
   -0.2050   19.0130  -32.1730 C   0  0  0  0  0  0  0  0  0  0  0  0
    0.2750   20.4530  -31.8800 C   0  0  0  0  0  0  0  0  0  0  0  0
   -0.5190   21.4220  -32.5350 O   0  0  0  0  0  0  0  0  0  0  0  0
   -0.4780   21.2030  -33.9320 C   0  0  0  0  0  0  0  0  0  0  0  0
   -1.0330   19.8100  -34.3130 C   0  0  0  0  0  0  0  0  0  0  0  0
   -0.8090   23.6050  -28.6380 C   0  0  0  0  0  0  0  0  0  0  0  0
   -0.1070   22.9460  -27.6210 C   0  0  0  0  0  0  0  0  0  0  0  0
    0.7964   22.6127  -23.1903 H   0  0  0  0  0  0  0  0  0  0  0  0
   -0.5995   23.6411  -23.6600 H   0  0  0  0  0  0  0  0  0  0  0  0
   -0.7617   21.8522  -23.6600 H   0  0  0  0  0  0  0  0  0  0  0  0
   -1.4170   24.5720  -24.9116 H   0  0  0  0  0  0  0  0  0  0  0  0
   -2.6781   25.7306  -26.7200 H   0  0  0  0  0  0  0  0  0  0  0  0
   -3.2874   22.7905  -29.1491 H   0  0  0  0  0  0  0  0  0  0  0  0
   -4.8589   23.0249  -30.0200 H   0  0  0  0  0  0  0  0  0  0  0  0
   -8.0529   23.1438  -30.5343 H   0  0  0  0  0  0  0  0  0  0  0  0
  -10.3160   22.1866  -30.9824 H   0  0  0  0  0  0  0  0  0  0  0  0
  -10.5593   20.2002  -32.4693 H   0  0  0  0  0  0  0  0  0  0  0  0
   -8.5464   19.1712  -33.5269 H   0  0  0  0  0  0  0  0  0  0  0  0
   -3.8479   19.2623  -34.2853 H   0  0  0  0  0  0  0  0  0  0  0  0
   -2.9896   20.8343  -34.0098 H   0  0  0  0  0  0  0  0  0  0  0  0
   -2.4562   20.0383  -31.6718 H   0  0  0  0  0  0  0  0  0  0  0  0
   -3.1157   18.4270  -32.1372 H   0  0  0  0  0  0  0  0  0  0  0  0
   -0.5270   18.5477  -31.2297 H   0  0  0  0  0  0  0  0  0  0  0  0
    0.6333   18.4620  -32.6243 H   0  0  0  0  0  0  0  0  0  0  0  0
    0.2266   20.6292  -30.7953 H   0  0  0  0  0  0  0  0  0  0  0  0
    1.3048   20.5495  -32.2546 H   0  0  0  0  0  0  0  0  0  0  0  0
   -1.0818   21.9753  -34.4311 H   0  0  0  0  0  0  0  0  0  0  0  0
    0.5725   21.2518  -34.2545 H   0  0  0  0  0  0  0  0  0  0  0  0
   -1.9577   19.9437  -34.8936 H   0  0  0  0  0  0  0  0  0  0  0  0
   -0.2632   19.2888  -34.9010 H   0  0  0  0  0  0  0  0  0  0  0  0
   -0.6522   23.3170  -29.6880 H   0  0  0  0  0  0  0  0  0  0  0  0
    0.6125   22.1545  -27.8775 H   0  0  0  0  0  0  0  0  0  0  0  0
  1  2  1  0
  2  3  1  0
  3  4  2  0
  4  5  1  0
  5  6  2  0
  6  7  1  0
  7  8  1  0
  8  9  2  0
  8 10  1  0
 10 11  1  0
 11 12  1  0
 12 13  2  0
 13 14  1  0
 14 15  2  0
 15 16  1  0
 16 17  2  0
 17 18  1  0
 18 19  2  0
 19 20  1  0
 20 21  2  0
 20 22  1  0
 22 23  1  0
 23 24  1  0
 24 25  1  0
 25 26  1  0
 26 27  1  0
 27 28  1  0
 28 29  1  0
 29 30  1  0
  6 31  1  0
 31 32  2  0
 32  3  1  0
 22 12  1  0
 30 25  1  0
 19 14  1  0
  1 33  1  0
  1 34  1  0
  1 35  1  0
  4 36  1  0
  5 37  1  0
 10 38  1  0
 10 39  1  0
 15 40  1  0
 16 41  1  0
 17 42  1  0
 18 43  1  0
 23 44  1  0
 23 45  1  0
 24 46  1  0
 24 47  1  0
 26 48  1  0
 26 49  1  0
 27 50  1  0
 27 51  1  0
 29 52  1  0
 29 53  1  0
 30 54  1  0
 30 55  1  0
 31 56  1  0
 32 57  1  0
M  CHG  1   7  -1
M  END
>  <UniqueID>  (29) 
24

>  <SMILES>  (29) 
COc1ccc([N-]C(=O)CSc2nc3ccccc3c(=O)n2CCN2CCOCC2)cc1

>  <Energy>  (29) 
81.01602159915936

>  <Genealogy>  (29) 
COc1ccc([N-]C(=O)CSc2nc3ccccc3c(=O)n2CCN2CCOCC2)cc1 (protonated)
COc1ccc([N-]C(=O)CSc2nc3ccccc3c(=O)n2CCN2CCOCC2)cc1 (3D coordinates assigned)
COc1ccc([N-]C(=O)CSc2nc3ccccc3c(=O)n2CCN2CCOCC2)cc1 (nonaromatic ring conformer: 81.01602159915936 kcal/mol)

>  <smiles>  (29) 
COc1ccc(NC(=O)CSc2nc3ccccc3c(=O)n2CCN2CCOCC2)cc1

>  <score_type>  (29) 
oracle

>  <origin>  (29) 
adg

>  <m_score__min__energy>  (29) 
-10.800000000000001

>  <m_primary>  (29) 
energy

$$$$
29:0
     RDKit          3D

 48 49  0  0  0  0  0  0  0  0999 V2000
   -2.7170   24.5280  -27.9250 C   0  0  0  0  0  0  0  0  0  0  0  0
   -3.7890   23.7560  -28.5740 N   0  0  0  0  0  0  0  0  0  0  0  0
   -4.0870   22.5250  -27.8270 C   0  0  0  0  0  0  0  0  0  0  0  0
   -4.9970   24.5590  -28.8810 C   0  0  0  0  0  0  0  0  0  0  0  0
   -5.2680   24.7790  -30.3830 C   0  0  0  0  0  0  0  0  0  0  0  0
   -4.2610   24.0790  -31.1920 N   0  0  0  0  0  0  0  0  0  0  0  0
   -4.8370   22.9640  -31.9670 C   0  0  1  0  0  0  0  0  0  0  0  0
   -4.1270   21.6800  -31.6160 C   0  0  0  0  0  0  0  0  0  0  0  0
   -3.5420   21.5810  -30.5020 O   0  0  0  0  0  0  0  0  0  0  0  0
   -4.0920   20.5720  -32.5350 N   0  0  0  0  0  0  0  0  0  0  0  0
   -2.9660   19.6330  -32.5200 C   0  0  0  0  0  0  0  0  0  0  0  0
   -5.1920   20.4030  -33.4930 C   0  0  0  0  0  0  0  0  0  0  0  0
   -6.3370   19.6830  -32.8310 C   0  0  0  0  0  0  0  0  0  0  0  0
   -6.0970   18.5750  -32.0010 C   0  0  0  0  0  0  0  0  0  0  0  0
   -7.1660   17.8730  -31.4380 C   0  0  0  0  0  0  0  0  0  0  0  0
   -8.4810   18.2640  -31.7110 C   0  0  0  0  0  0  0  0  0  0  0  0
   -8.7260   19.3580  -32.5450 C   0  0  0  0  0  0  0  0  0  0  0  0
   -7.6590   20.0660  -33.1060 C   0  0  0  0  0  0  0  0  0  0  0  0
   -6.3260   22.8320  -31.7360 C   0  0  0  0  0  0  0  0  0  0  0  0
   -6.8940   22.1540  -30.6430 C   0  0  0  0  0  0  0  0  0  0  0  0
   -8.2810   22.1890  -30.6270 C   0  0  0  0  0  0  0  0  0  0  0  0
   -8.7960   23.0640  -31.9670 S   0  0  0  0  0  0  0  0  0  0  0  0
   -7.2700   23.4070  -32.5800 C   0  0  0  0  0  0  0  0  0  0  0  0
   -2.8210   24.4531  -26.8325 H   0  0  0  0  0  0  0  0  0  0  0  0
   -1.7395   24.1251  -28.2287 H   0  0  0  0  0  0  0  0  0  0  0  0
   -2.7893   25.5828  -28.2287 H   0  0  0  0  0  0  0  0  0  0  0  0
   -4.0373   22.7301  -26.7474 H   0  0  0  0  0  0  0  0  0  0  0  0
   -5.0962   22.1733  -28.0874 H   0  0  0  0  0  0  0  0  0  0  0  0
   -3.3504   21.7507  -28.0874 H   0  0  0  0  0  0  0  0  0  0  0  0
   -5.8679   24.0445  -28.4488 H   0  0  0  0  0  0  0  0  0  0  0  0
   -4.8213   25.5560  -28.4507 H   0  0  0  0  0  0  0  0  0  0  0  0
   -6.2668   24.3910  -30.6319 H   0  0  0  0  0  0  0  0  0  0  0  0
   -5.2161   25.8559  -30.6014 H   0  0  0  0  0  0  0  0  0  0  0  0
   -3.5040   23.7280  -30.5600 H   0  0  0  0  0  0  0  0  0  0  0  0
   -4.6923   23.1782  -33.0362 H   0  0  0  0  0  0  0  0  0  0  0  0
   -2.6926   19.4050  -31.4792 H   0  0  0  0  0  0  0  0  0  0  0  0
   -3.2556   18.7050  -33.0348 H   0  0  0  0  0  0  0  0  0  0  0  0
   -2.1051   20.0846  -33.0348 H   0  0  0  0  0  0  0  0  0  0  0  0
   -5.5317   21.3909  -33.8374 H   0  0  0  0  0  0  0  0  0  0  0  0
   -4.8391   19.8131  -34.3518 H   0  0  0  0  0  0  0  0  0  0  0  0
   -5.0639   18.2591  -31.7937 H   0  0  0  0  0  0  0  0  0  0  0  0
   -6.9734   17.0128  -30.7800 H   0  0  0  0  0  0  0  0  0  0  0  0
   -9.3224   17.7101  -31.2691 H   0  0  0  0  0  0  0  0  0  0  0  0
   -9.7607   19.6628  -32.7606 H   0  0  0  0  0  0  0  0  0  0  0  0
   -7.8559   20.9250  -33.7643 H   0  0  0  0  0  0  0  0  0  0  0  0
   -6.2956   21.6442  -29.8736 H   0  0  0  0  0  0  0  0  0  0  0  0
   -8.9303   21.7252  -29.8698 H   0  0  0  0  0  0  0  0  0  0  0  0
   -7.0549   23.9856  -33.4904 H   0  0  0  0  0  0  0  0  0  0  0  0
  1  2  1  0
  2  3  1  0
  2  4  1  0
  4  5  1  0
  5  6  1  0
  6  7  1  0
  7  8  1  0
  8  9  2  0
  8 10  1  0
 10 11  1  0
 10 12  1  0
 12 13  1  0
 13 14  2  0
 14 15  1  0
 15 16  2  0
 16 17  1  0
 17 18  2  0
  7 19  1  0
 19 20  1  0
 20 21  2  0
 21 22  1  0
 22 23  1  0
 18 13  1  0
 23 19  2  0
  1 24  1  0
  1 25  1  0
  1 26  1  0
  3 27  1  0
  3 28  1  0
  3 29  1  0
  4 30  1  0
  4 31  1  0
  5 32  1  0
  5 33  1  0
  6 34  1  0
  7 35  1  6
 11 36  1  0
 11 37  1  0
 11 38  1  0
 12 39  1  0
 12 40  1  0
 14 41  1  0
 15 42  1  0
 16 43  1  0
 17 44  1  0
 18 45  1  0
 20 46  1  0
 21 47  1  0
 23 48  1  0
M  END
>  <UniqueID>  (30) 
25

>  <SMILES>  (30) 
CN(C)CCN[C@@H](C(=O)N(C)Cc1ccccc1)c1ccsc1

>  <Energy>  (30) 
71.82374827820753

>  <Genealogy>  (30) 
CN(C)CCN[C@@H](C(=O)N(C)Cc1ccccc1)c1ccsc1 (chirality)
CN(C)CCN[C@@H](C(=O)N(C)Cc1ccccc1)c1ccsc1 (3D coordinates assigned)
CN(C)CCN[C@@H](C(=O)N(C)Cc1ccccc1)c1ccsc1 (optimized conformer: 71.82374827820753 kcal/mol)

>  <smiles>  (30) 
CN(C)CCNC(C(=O)N(C)Cc1ccccc1)c1ccsc1

>  <score_type>  (30) 
oracle

>  <origin>  (30) 
adg

>  <m_score__min__energy>  (30) 
-7.21

>  <m_primary>  (30) 
energy

$$$$
30:0
     RDKit          3D

 43 46  0  0  0  0  0  0  0  0999 V2000
   -0.8704   25.0873  -28.4535 H   0  0  0  0  0  0  0  0  0  0  0  0
   -1.6890   24.5820  -28.9870 C   0  0  0  0  0  0  0  0  0  0  0  0
   -2.7950   25.2810  -29.3430 N   0  0  0  0  0  0  0  0  0  0  0  0
   -3.8270   24.7000  -30.0080 C   0  0  0  0  0  0  0  0  0  0  0  0
   -4.9430   25.4680  -30.3610 C   0  0  0  0  0  0  0  0  0  0  0  0
   -4.9804   26.5351  -30.0966 H   0  0  0  0  0  0  0  0  0  0  0  0
   -6.0090   24.8830  -31.0480 C   0  0  0  0  0  0  0  0  0  0  0  0
   -6.8831   25.4908  -31.3244 H   0  0  0  0  0  0  0  0  0  0  0  0
   -5.9680   23.5280  -31.3850 C   0  0  0  0  0  0  0  0  0  0  0  0
   -6.8094   23.0718  -31.9271 H   0  0  0  0  0  0  0  0  0  0  0  0
   -4.8600   22.7500  -31.0350 C   0  0  0  0  0  0  0  0  0  0  0  0
   -4.8359   21.6830  -31.3012 H   0  0  0  0  0  0  0  0  0  0  0  0
   -3.7730   23.3240  -30.3430 C   0  0  0  0  0  0  0  0  0  0  0  0
   -2.6390   22.5690  -29.9650 C   0  0  0  0  0  0  0  0  0  0  0  0
   -2.5760   21.3010  -30.2760 N   0  0  0  0  0  0  0  0  0  0  0  0
   -2.5300   20.7160  -31.5870 C   0  0  0  0  0  0  0  0  0  0  0  0
   -1.5410   21.1340  -32.4860 C   0  0  0  0  0  0  0  0  0  0  0  0
   -0.7866   21.8687  -32.1681 H   0  0  0  0  0  0  0  0  0  0  0  0
   -1.5090   20.6210  -33.7860 C   0  0  0  0  0  0  0  0  0  0  0  0
   -0.7155   20.9343  -34.4804 H   0  0  0  0  0  0  0  0  0  0  0  0
   -2.4830   19.7110  -34.2050 C   0  0  0  0  0  0  0  0  0  0  0  0
   -2.4504   19.3032  -35.2261 H   0  0  0  0  0  0  0  0  0  0  0  0
   -3.5010   19.3170  -33.3270 C   0  0  0  0  0  0  0  0  0  0  0  0
   -4.7500   18.1960  -33.8610 S   0  0  0  0  0  0  0  0  0  0  0  0
   -4.3210   17.4830  -35.1140 O   0  0  0  0  0  0  0  0  0  0  0  0
   -4.9840   17.1840  -32.7770 O   0  0  0  0  0  0  0  0  0  0  0  0
   -6.2290   19.0510  -34.1740 N   0  0  0  0  0  0  0  0  0  0  0  0
   -6.4860   19.1980  -35.1750 H   0  0  0  0  0  0  0  0  0  0  0  0
   -7.1630   19.4370  -33.1490 C   0  0  0  0  0  0  0  0  0  0  0  0
   -7.8290   18.4870  -32.3510 C   0  0  0  0  0  0  0  0  0  0  0  0
   -7.6289   17.4150  -32.4949 H   0  0  0  0  0  0  0  0  0  0  0  0
   -8.7430   18.8990  -31.3770 C   0  0  0  0  0  0  0  0  0  0  0  0
   -9.2611   18.1506  -30.7594 H   0  0  0  0  0  0  0  0  0  0  0  0
   -9.0000   20.2580  -31.1860 C   0  0  0  0  0  0  0  0  0  0  0  0
   -9.7227   20.5793  -30.4215 H   0  0  0  0  0  0  0  0  0  0  0  0
   -8.3390   21.2090  -31.9660 C   0  0  0  0  0  0  0  0  0  0  0  0
   -8.5880   22.5290  -31.7800 F   0  0  0  0  0  0  0  0  0  0  0  0
   -7.4240   20.8010  -32.9410 C   0  0  0  0  0  0  0  0  0  0  0  0
   -6.9041   21.5548  -33.5504 H   0  0  0  0  0  0  0  0  0  0  0  0
   -3.5260   19.8260  -32.0220 C   0  0  0  0  0  0  0  0  0  0  0  0
   -4.3304   19.5269  -31.3339 H   0  0  0  0  0  0  0  0  0  0  0  0
   -1.5840   23.2250  -29.2940 C   0  0  0  0  0  0  0  0  0  0  0  0
   -0.6791   22.6661  -29.0132 H   0  0  0  0  0  0  0  0  0  0  0  0
  1  2  1  0
  2  3  1  0
  3  4  1  0
  4  5  2  0
  5  6  1  0
  5  7  1  0
  7  8  1  0
  7  9  2  0
  9 10  1  0
  9 11  1  0
 11 12  1  0
 11 13  2  0
 13 14  1  0
 14 15  2  0
 15 16  1  0
 16 17  2  0
 17 18  1  0
 17 19  1  0
 19 20  1  0
 19 21  2  0
 21 22  1  0
 21 23  1  0
 23 24  1  0
 24 25  2  0
 24 26  2  0
 24 27  1  0
 27 28  1  0
 27 29  1  0
 29 30  2  0
 30 31  1  0
 30 32  1  0
 32 33  1  0
 32 34  2  0
 34 35  1  0
 34 36  1  0
 36 37  1  0
 36 38  2  0
 38 39  1  0
 23 40  2  0
 40 41  1  0
 14 42  1  0
 42 43  1  0
 42  2  2  0
 13  4  1  0
 40 16  1  0
 38 29  1  0
M  CHG  1   3  -1
M  END
>  <UniqueID>  (31) 
26

>  <SMILES>  (31) 
O=S(=O)(Nc1cccc(F)c1)c1cccc(/N=c2\cc[n-]c3ccccc23)c1

>  <Energy>  (31) 
64.82982632204617

>  <Genealogy>  (31) 
O=S(=O)(Nc1cccc(F)c1)c1cccc(N=c2cc[n-]c3ccccc23)c1 (protonated)
O=S(=O)(Nc1cccc(F)c1)c1cccc(/N=c2\cc[n-]c3ccccc23)c1 (cis-trans isomerization)
O=S(=O)(Nc1cccc(F)c1)c1cccc(/N=c2\cc[n-]c3ccccc23)c1 (3D coordinates assigned)
O=S(=O)(Nc1cccc(F)c1)c1cccc(/N=c2\cc[n-]c3ccccc23)c1 (optimized conformer: 64.82982632204617 kcal/mol)

>  <smiles>  (31) 
O=S(=O)(Nc1cccc(F)c1)c1cccc(N=c2cc[nH]c3ccccc23)c1

>  <score_type>  (31) 
oracle

>  <origin>  (31) 
adg

>  <m_score__min__energy>  (31) 
-11.02

>  <m_primary>  (31) 
energy

$$$$
31:0
     RDKit          3D

 19 19  0  0  0  0  0  0  0  0999 V2000
   -6.2521   24.1633  -32.7954 H   0  0  0  0  0  0  0  0  0  0  0  0
   -5.7060   23.4120  -32.2060 C   0  0  0  0  0  0  0  0  0  0  0  0
   -4.7740   23.7980  -31.3860 N   0  0  0  0  0  0  0  0  0  0  0  0
   -4.6750   25.0680  -30.8410 O   0  0  0  0  0  0  0  0  0  0  0  0
   -5.6940   25.6730  -30.0500 C   0  0  0  0  0  0  0  0  0  0  0  0
   -5.4612   25.5348  -28.9839 H   0  0  0  0  0  0  0  0  0  0  0  0
   -5.7453   26.7479  -30.2777 H   0  0  0  0  0  0  0  0  0  0  0  0
   -6.6623   25.2034  -30.2777 H   0  0  0  0  0  0  0  0  0  0  0  0
   -6.0460   21.9770  -32.3610 C   0  0  0  0  0  0  0  0  0  0  0  0
   -5.0810   21.0150  -32.7570 C   0  0  0  0  0  0  0  0  0  0  0  0
   -3.3850   21.4140  -33.0220 Cl  0  0  0  0  0  0  0  0  0  0  0  0
   -5.4480   19.6710  -32.8970 C   0  0  0  0  0  0  0  0  0  0  0  0
   -4.6979   18.9301  -33.2105 H   0  0  0  0  0  0  0  0  0  0  0  0
   -6.7570   19.2650  -32.6420 C   0  0  0  0  0  0  0  0  0  0  0  0
   -7.0372   18.2079  -32.7601 H   0  0  0  0  0  0  0  0  0  0  0  0
   -7.7100   20.1960  -32.2380 C   0  0  0  0  0  0  0  0  0  0  0  0
   -8.7401   19.8695  -32.0323 H   0  0  0  0  0  0  0  0  0  0  0  0
   -7.3660   21.5440  -32.0920 C   0  0  0  0  0  0  0  0  0  0  0  0
   -8.6390   22.6650  -31.6080 Cl  0  0  0  0  0  0  0  0  0  0  0  0
  1  2  1  0
  2  3  2  0
  3  4  1  0
  4  5  1  0
  5  6  1  0
  5  7  1  0
  5  8  1  0
  2  9  1  0
  9 10  2  0
 10 11  1  0
 10 12  1  0
 12 13  1  0
 12 14  2  0
 14 15  1  0
 14 16  1  0
 16 17  1  0
 16 18  2  0
 18 19  1  0
 18  9  1  0
M  END
>  <UniqueID>  (32) 
27

>  <SMILES>  (32) 
CO/N=C/c1c(Cl)cccc1Cl

>  <Energy>  (32) 
23.615262650942945

>  <Genealogy>  (32) 
CO/N=C/c1c(Cl)cccc1Cl (cis-trans isomerization)
CO/N=C/c1c(Cl)cccc1Cl (3D coordinates assigned)
CO/N=C/c1c(Cl)cccc1Cl (optimized conformer: 23.615262650942945 kcal/mol)

>  <smiles>  (32) 
CON=Cc1c(Cl)cccc1Cl

>  <score_type>  (32) 
oracle

>  <origin>  (32) 
adg

>  <m_score__min__energy>  (32) 
-6.1299999999999999

>  <m_primary>  (32) 
energy

$$$$
32:0
     RDKit          3D

 46 48  0  0  0  0  0  0  0  0999 V2000
   -1.2394   20.0645  -29.7408 H   0  0  0  0  0  0  0  0  0  0  0  0
   -1.4550   20.9970  -30.2830 C   0  0  0  0  0  0  0  0  0  0  0  0
   -0.9000   21.1680  -31.4900 C   0  0  0  0  0  0  0  0  0  0  0  0
   -0.0774   21.8891  -31.6056 H   0  0  0  0  0  0  0  0  0  0  0  0
   -1.3770   20.3940  -32.6960 C   0  0  0  0  0  0  0  0  0  0  0  0
   -1.0391   20.9174  -33.6026 H   0  0  0  0  0  0  0  0  0  0  0  0
   -0.9552   19.3809  -32.6201 H   0  0  0  0  0  0  0  0  0  0  0  0
   -2.8480   20.2520  -32.7570 N   0  0  0  0  0  0  0  0  0  0  0  0
   -3.2750   18.9910  -33.4100 C   0  0  0  0  0  0  0  0  0  0  0  0
   -2.6478   18.8241  -34.2981 H   0  0  0  0  0  0  0  0  0  0  0  0
   -3.1616   18.1800  -32.6755 H   0  0  0  0  0  0  0  0  0  0  0  0
   -4.7540   19.0220  -33.8480 C   0  0  0  0  0  0  0  0  0  0  0  0
   -4.8113   19.3115  -34.9077 H   0  0  0  0  0  0  0  0  0  0  0  0
   -5.1881   18.0217  -33.7031 H   0  0  0  0  0  0  0  0  0  0  0  0
   -5.5100   19.9870  -33.0430 N   0  0  0  0  0  0  0  0  0  0  0  0
   -6.5550   19.5330  -32.1630 C   0  0  0  0  0  0  0  0  0  0  0  0
   -6.4520   18.4090  -31.6000 O   0  0  0  0  0  0  0  0  0  0  0  0
   -7.7470   20.3520  -31.8810 C   0  0  0  0  0  0  0  0  0  0  0  0
   -8.9180   20.1380  -32.4350 O   0  0  0  0  0  0  0  0  0  0  0  0
   -9.7640   21.0440  -32.0000 C   0  0  0  0  0  0  0  0  0  0  0  0
  -10.8232   21.1128  -32.2886 H   0  0  0  0  0  0  0  0  0  0  0  0
   -9.1210   21.8960  -31.1260 C   0  0  0  0  0  0  0  0  0  0  0  0
   -9.5602   22.7546  -30.5970 H   0  0  0  0  0  0  0  0  0  0  0  0
   -7.8180   21.4550  -31.0490 C   0  0  0  0  0  0  0  0  0  0  0  0
   -7.0037   21.8895  -30.4506 H   0  0  0  0  0  0  0  0  0  0  0  0
   -5.0180   21.3710  -32.9630 C   0  0  0  0  0  0  0  0  0  0  0  0
   -5.5814   21.9956  -33.6718 H   0  0  0  0  0  0  0  0  0  0  0  0
   -5.1587   21.7365  -31.9351 H   0  0  0  0  0  0  0  0  0  0  0  0
   -3.5260   21.4390  -33.3090 C   0  0  0  0  0  0  0  0  0  0  0  0
   -3.4019   21.4591  -34.4018 H   0  0  0  0  0  0  0  0  0  0  0  0
   -3.0868   22.3506  -32.8776 H   0  0  0  0  0  0  0  0  0  0  0  0
   -2.3440   21.9930  -29.6350 C   0  0  0  0  0  0  0  0  0  0  0  0
   -2.8650   21.8100  -28.3390 C   0  0  0  0  0  0  0  0  0  0  0  0
   -2.6087   20.9051  -27.7685 H   0  0  0  0  0  0  0  0  0  0  0  0
   -3.7060   22.7730  -27.7750 C   0  0  0  0  0  0  0  0  0  0  0  0
   -4.1052   22.6260  -26.7606 H   0  0  0  0  0  0  0  0  0  0  0  0
   -4.0410   23.9210  -28.4950 C   0  0  0  0  0  0  0  0  0  0  0  0
   -4.6980   24.6775  -28.0410 H   0  0  0  0  0  0  0  0  0  0  0  0
   -3.5480   24.1170  -29.7890 C   0  0  0  0  0  0  0  0  0  0  0  0
   -3.9200   25.2840  -30.4720 O   0  0  0  0  0  0  0  0  0  0  0  0
   -5.2660   25.6710  -30.7300 C   0  0  0  0  0  0  0  0  0  0  0  0
   -5.7931   25.8226  -29.7765 H   0  0  0  0  0  0  0  0  0  0  0  0
   -5.2741   26.6079  -31.3064 H   0  0  0  0  0  0  0  0  0  0  0  0
   -5.7705   24.8815  -31.3064 H   0  0  0  0  0  0  0  0  0  0  0  0
   -2.7020   23.1450  -30.3570 C   0  0  0  0  0  0  0  0  0  0  0  0
   -2.3169   23.2887  -31.3773 H   0  0  0  0  0  0  0  0  0  0  0  0
  1  2  1  0
  2  3  2  0
  3  4  1  0
  3  5  1  0
  5  6  1  0
  5  7  1  0
  5  8  1  0
  8  9  1  0
  9 10  1  0
  9 11  1  0
  9 12  1  0
 12 13  1  0
 12 14  1  0
 12 15  1  0
 15 16  1  0
 16 17  2  0
 16 18  1  0
 18 19  1  0
 19 20  1  0
 20 21  1  0
 20 22  2  0
 22 23  1  0
 22 24  1  0
 24 25  1  0
 15 26  1  0
 26 27  1  0
 26 28  1  0
 26 29  1  0
 29 30  1  0
 29 31  1  0
  2 32  1  0
 32 33  2  0
 33 34  1  0
 33 35  1  0
 35 36  1  0
 35 37  2  0
 37 38  1  0
 37 39  1  0
 39 40  1  0
 40 41  1  0
 41 42  1  0
 41 43  1  0
 41 44  1  0
 39 45  2  0
 45 46  1  0
 29  8  1  0
 45 32  1  0
 24 18  2  0
M  END
>  <UniqueID>  (33) 
28

>  <SMILES>  (33) 
COc1cccc(/C=C/CN2CCN(C(=O)c3ccco3)CC2)c1

>  <Energy>  (33) 
85.127504080721

>  <Genealogy>  (33) 
COc1cccc(/C=C/CN2CCN(C(=O)c3ccco3)CC2)c1 (cis-trans isomerization)
COc1cccc(/C=C/CN2CCN(C(=O)c3ccco3)CC2)c1 (3D coordinates assigned)
COc1cccc(/C=C/CN2CCN(C(=O)c3ccco3)CC2)c1 (nonaromatic ring conformer: 85.127504080721 kcal/mol)

>  <smiles>  (33) 
COc1cccc(C=CCN2CCN(C(=O)c3ccco3)CC2)c1

>  <score_type>  (33) 
oracle

>  <origin>  (33) 
adg

>  <m_score__min__energy>  (33) 
-8.3800000000000008

>  <m_primary>  (33) 
energy

$$$$
33:0
     RDKit          3D

 83 89  0  0  0  0  0  0  0  0999 V2000
   -0.4120   16.9310  -31.9770 C   0  0  0  0  0  0  0  0  0  0  0  0
    0.2040   18.1960  -32.5880 C   0  0  0  0  0  0  0  0  0  0  0  0
   -0.6040   18.8700  -33.6470 N   0  0  2  0  0  0  0  0  0  0  0  0
   -0.0140   18.7230  -35.0110 C   0  0  0  0  0  0  0  0  0  0  0  0
    0.5720   20.0320  -35.5740 C   0  0  0  0  0  0  0  0  0  0  0  0
    1.1340   20.8350  -34.4780 N   0  0  0  0  0  0  0  0  0  0  0  0
    2.1000   21.8690  -34.9390 C   0  0  1  0  0  0  0  0  0  0  0  0
    3.4910   21.3060  -35.3010 C   0  0  0  0  0  0  0  0  0  0  0  0
    1.5080   22.6830  -36.1080 C   0  0  0  0  0  0  0  0  0  0  0  0
    0.4210   23.4760  -35.6640 O   0  0  0  0  0  0  0  0  0  0  0  0
    0.5760   24.8120  -36.0920 C   0  0  0  0  0  0  0  0  0  0  0  0
    0.0790   21.3190  -33.5610 C   0  0  0  0  0  0  0  0  0  0  0  0
   -1.0490   20.2680  -33.3620 C   0  0  2  0  0  0  0  0  0  0  0  0
   -1.7630   20.4180  -32.0320 C   0  0  0  0  0  0  0  0  0  0  0  0
   -2.2700   19.4040  -31.4800 O   0  0  0  0  0  0  0  0  0  0  0  0
   -2.0420   21.7280  -31.4940 N   0  0  0  0  0  0  0  0  0  0  0  0
   -3.3190   22.3280  -31.8490 C   0  0  0  0  0  0  0  0  0  0  0  0
   -4.3460   21.9440  -30.7790 C   0  0  2  0  0  0  0  0  0  0  0  0
   -5.6790   22.6060  -31.0480 C   0  0  0  0  0  0  0  0  0  0  0  0
   -5.9600   23.9700  -30.8910 C   0  0  0  0  0  0  0  0  0  0  0  0
   -4.9960   25.0280  -30.4570 C   0  0  0  0  0  0  0  0  0  0  0  0
   -7.2660   24.2270  -31.1490 N   0  0  0  0  0  0  0  0  0  0  0  0
   -7.7360   23.0090  -31.4620 C   0  0  0  0  0  0  0  0  0  0  0  0
   -9.2920   22.5170  -31.8760 S   0  0  0  0  0  0  0  0  0  0  0  0
   -8.7560   20.9080  -32.0110 C   0  0  0  0  0  0  0  0  0  0  0  0
   -9.5200   19.7930  -32.3470 C   0  0  0  0  0  0  0  0  0  0  0  0
   -8.8850   18.5440  -32.4080 C   0  0  0  0  0  0  0  0  0  0  0  0
   -7.5100   18.4310  -32.1350 C   0  0  0  0  0  0  0  0  0  0  0  0
   -6.7500   19.5630  -31.7970 C   0  0  0  0  0  0  0  0  0  0  0  0
   -7.3880   20.8110  -31.7280 C   0  0  0  0  0  0  0  0  0  0  0  0
   -6.8430   22.0230  -31.4180 N   0  0  0  0  0  0  0  0  0  0  0  0
   -3.8850   22.1540  -29.3160 C   0  0  0  0  0  0  0  0  0  0  0  0
   -2.3530   22.0610  -29.0410 C   0  0  1  0  0  0  0  0  0  0  0  0
   -1.8590   20.7780  -28.4560 C   0  0  0  0  0  0  0  0  0  0  0  0
   -2.4430   20.0000  -27.4460 C   0  0  0  0  0  0  0  0  0  0  0  0
   -1.7460   18.8800  -26.9660 C   0  0  0  0  0  0  0  0  0  0  0  0
   -0.4670   18.5730  -27.4650 C   0  0  0  0  0  0  0  0  0  0  0  0
    0.1240   19.3900  -28.4390 C   0  0  0  0  0  0  0  0  0  0  0  0
   -0.5920   20.4900  -28.9170 C   0  0  0  0  0  0  0  0  0  0  0  0
   -0.1140   21.5010  -29.8920 C   0  0  0  0  0  0  0  0  0  0  0  0
   -1.4140   22.2510  -30.2650 C   0  0  1  0  0  0  0  0  0  0  0  0
   -0.3784   17.0000  -30.8797 H   0  0  0  0  0  0  0  0  0  0  0  0
   -1.4572   16.8361  -32.3066 H   0  0  0  0  0  0  0  0  0  0  0  0
    0.1578   16.0497  -32.3066 H   0  0  0  0  0  0  0  0  0  0  0  0
    0.3639   18.9193  -31.7748 H   0  0  0  0  0  0  0  0  0  0  0  0
    1.1286   17.8663  -33.0844 H   0  0  0  0  0  0  0  0  0  0  0  0
   -1.4890   18.3070  -33.6790 H   0  0  0  0  0  0  0  0  0  0  0  0
    0.7904   17.9742  -34.9631 H   0  0  0  0  0  0  0  0  0  0  0  0
   -0.8292   18.4189  -35.6840 H   0  0  0  0  0  0  0  0  0  0  0  0
    1.3655   19.7957  -36.2983 H   0  0  0  0  0  0  0  0  0  0  0  0
   -0.2250   20.6032  -36.0725 H   0  0  0  0  0  0  0  0  0  0  0  0
    2.2656   22.5374  -34.0812 H   0  0  0  0  0  0  0  0  0  0  0  0
    4.0468   21.0810  -34.3788 H   0  0  0  0  0  0  0  0  0  0  0  0
    3.3717   20.3854  -35.8911 H   0  0  0  0  0  0  0  0  0  0  0  0
    4.0457   22.0504  -35.8911 H   0  0  0  0  0  0  0  0  0  0  0  0
    2.2876   23.3385  -36.5233 H   0  0  0  0  0  0  0  0  0  0  0  0
    1.1467   21.9857  -36.8782 H   0  0  0  0  0  0  0  0  0  0  0  0
    0.6525   25.4715  -35.2149 H   0  0  0  0  0  0  0  0  0  0  0  0
    1.4903   24.8994  -36.6973 H   0  0  0  0  0  0  0  0  0  0  0  0
   -0.2940   25.1064  -36.6973 H   0  0  0  0  0  0  0  0  0  0  0  0
    0.5328   21.5418  -32.5841 H   0  0  0  0  0  0  0  0  0  0  0  0
   -0.3706   22.2188  -34.0062 H   0  0  0  0  0  0  0  0  0  0  0  0
   -1.8074   20.4882  -34.1277 H   0  0  0  0  0  0  0  0  0  0  0  0
   -3.2168   23.4225  -31.8905 H   0  0  0  0  0  0  0  0  0  0  0  0
   -3.6462   21.9663  -32.8350 H   0  0  0  0  0  0  0  0  0  0  0  0
   -4.4608   20.8538  -30.8699 H   0  0  0  0  0  0  0  0  0  0  0  0
   -4.9624   25.0649  -29.3581 H   0  0  0  0  0  0  0  0  0  0  0  0
   -3.9944   24.7937  -30.8468 H   0  0  0  0  0  0  0  0  0  0  0  0
   -5.3222   26.0035  -30.8468 H   0  0  0  0  0  0  0  0  0  0  0  0
  -10.5950   19.8896  -32.5593 H   0  0  0  0  0  0  0  0  0  0  0  0
   -9.4658   17.6476  -32.6709 H   0  0  0  0  0  0  0  0  0  0  0  0
   -7.0244   17.4454  -32.1867 H   0  0  0  0  0  0  0  0  0  0  0  0
   -5.6734   19.4727  -31.5900 H   0  0  0  0  0  0  0  0  0  0  0  0
   -4.2193   23.1539  -29.0021 H   0  0  0  0  0  0  0  0  0  0  0  0
   -4.3296   21.3209  -28.7519 H   0  0  0  0  0  0  0  0  0  0  0  0
   -2.2938   22.8998  -28.3318 H   0  0  0  0  0  0  0  0  0  0  0  0
   -3.4298   20.2627  -27.0371 H   0  0  0  0  0  0  0  0  0  0  0  0
   -2.2018   18.2397  -26.1964 H   0  0  0  0  0  0  0  0  0  0  0  0
    0.0707   17.6897  -27.0900 H   0  0  0  0  0  0  0  0  0  0  0  0
    1.1322   19.1690  -28.8195 H   0  0  0  0  0  0  0  0  0  0  0  0
    0.6186   22.1807  -29.4323 H   0  0  0  0  0  0  0  0  0  0  0  0
    0.4024   21.0629  -30.7588 H   0  0  0  0  0  0  0  0  0  0  0  0
   -1.2060   23.3094  -30.4807 H   0  0  0  0  0  0  0  0  0  0  0  0
  1  2  1  0
  2  3  1  0
  3  4  1  0
  4  5  1  0
  5  6  1  0
  6  7  1  0
  7  8  1  0
  7  9  1  0
  9 10  1  0
 10 11  1  0
  6 12  1  0
 12 13  1  0
 13 14  1  0
 14 15  2  0
 14 16  1  0
 16 17  1  0
 17 18  1  0
 18 19  1  0
 19 20  2  0
 20 21  1  0
 20 22  1  0
 22 23  2  0
 23 24  1  0
 24 25  1  0
 25 26  2  0
 26 27  1  0
 27 28  2  0
 28 29  1  0
 29 30  2  0
 30 31  1  0
 18 32  1  0
 32 33  1  0
 33 34  1  0
 34 35  2  0
 35 36  1  0
 36 37  2  0
 37 38  1  0
 38 39  2  0
 39 40  1  0
 40 41  1  0
 13  3  1  0
 41 16  1  0
 31 19  1  0
 41 33  1  0
 31 23  1  0
 39 34  1  0
 30 25  1  0
  1 42  1  0
  1 43  1  0
  1 44  1  0
  2 45  1  0
  2 46  1  0
  3 47  1  6
  4 48  1  0
  4 49  1  0
  5 50  1  0
  5 51  1  0
  7 52  1  1
  8 53  1  0
  8 54  1  0
  8 55  1  0
  9 56  1  0
  9 57  1  0
 11 58  1  0
 11 59  1  0
 11 60  1  0
 12 61  1  0
 12 62  1  0
 13 63  1  6
 17 64  1  0
 17 65  1  0
 18 66  1  1
 21 67  1  0
 21 68  1  0
 21 69  1  0
 26 70  1  0
 27 71  1  0
 28 72  1  0
 29 73  1  0
 32 74  1  0
 32 75  1  0
 33 76  1  1
 35 77  1  0
 36 78  1  0
 37 79  1  0
 38 80  1  0
 40 81  1  0
 40 82  1  0
 41 83  1  6
M  CHG  1   3   1
M  END
>  <UniqueID>  (34) 
29

>  <SMILES>  (34) 
CC[N@@H+]1CCN([C@@H](C)COC)CC1C(=O)N1CC(c2c(C)nc3sc4ccccc4n23)CC2c3ccccc3CC21

>  <Energy>  (34) 
224.7978533144622

>  <Genealogy>  (34) 
CC[NH+]1CCN(C(C)COC)CC1C(=O)N1CC(c2c(C)nc3sc4ccccc4n23)CC2c3ccccc3CC21 (protonated)
CC[N@@H+]1CCN([C@@H](C)COC)CC1C(=O)N1CC(c2c(C)nc3sc4ccccc4n23)CC2c3ccccc3CC21 (chirality)
CC[N@@H+]1CCN([C@@H](C)COC)CC1C(=O)N1CC(c2c(C)nc3sc4ccccc4n23)CC2c3ccccc3CC21 (3D coordinates assigned)
CC[N@@H+]1CCN([C@@H](C)COC)CC1C(=O)N1CC(c2c(C)nc3sc4ccccc4n23)CC2c3ccccc3CC21 (nonaromatic ring conformer: 224.7978533144622 kcal/mol)

>  <smiles>  (34) 
CCN1CCN(C(C)COC)CC1C(=O)N1CC(c2c(C)nc3sc4ccccc4n23)CC2c3ccccc3CC21

>  <score_type>  (34) 
oracle

>  <origin>  (34) 
adg

>  <m_score__min__energy>  (34) 
-10.91

>  <m_primary>  (34) 
energy

$$$$
34:0
     RDKit          3D

 53 57  0  0  0  0  0  0  0  0999 V2000
   -6.1500   24.5220  -30.2230 C   0  0  0  0  0  0  0  0  0  0  0  0
   -5.2520   25.7190  -30.5070 C   0  0  0  0  0  0  0  0  0  0  0  0
   -3.8640   25.2970  -30.6560 N   0  0  0  0  0  0  0  0  0  0  0  0
   -3.1810   24.5010  -29.6860 C   0  0  0  0  0  0  0  0  0  0  0  0
   -3.5470   24.5520  -28.4810 O   0  0  0  0  0  0  0  0  0  0  0  0
   -2.1250   23.6690  -30.0760 O   0  0  0  0  0  0  0  0  0  0  0  0
   -2.0220   22.3010  -29.6860 C   0  0  0  0  0  0  0  0  0  0  0  0
   -2.4420   21.3970  -30.8100 C   0  0  0  0  0  0  0  0  0  0  0  0
   -1.4990   20.8690  -31.7330 C   0  0  0  0  0  0  0  0  0  0  0  0
   -1.9210   20.0950  -32.8490 C   0  0  0  0  0  0  0  0  0  0  0  0
   -3.2860   19.8000  -33.0250 C   0  0  0  0  0  0  0  0  0  0  0  0
   -4.1490   20.2940  -32.0720 C   0  0  0  0  0  0  0  0  0  0  0  0
   -3.7920   21.1170  -31.0440 C   0  0  0  0  0  0  0  0  0  0  0  0
   -4.9430   21.6500  -30.4410 O   0  0  0  0  0  0  0  0  0  0  0  0
   -5.9880   21.4130  -31.3950 C   0  0  2  0  0  0  0  0  0  0  0  0
   -7.4650   21.3790  -31.0280 C   0  0  0  0  0  0  0  0  0  0  0  0
   -8.2660   21.1520  -32.3590 C   0  0  0  0  0  0  0  0  0  0  0  0
   -7.7200   20.0340  -33.3270 C   0  0  0  0  0  0  0  0  0  0  0  0
   -6.1620   20.0220  -33.4510 C   0  0  2  0  0  0  0  0  0  0  0  0
   -5.4370   18.8210  -34.1410 C   0  0  1  0  0  0  0  0  0  0  0  0
   -3.8840   19.1130  -34.2540 C   0  0  0  0  0  0  0  0  0  0  0  0
   -5.6370   17.5310  -33.4230 N   0  0  0  0  0  0  0  0  0  0  0  0
   -6.8920   16.8230  -33.7380 C   0  0  0  0  0  0  0  0  0  0  0  0
   -5.3270   17.5540  -31.9730 C   0  0  0  0  0  0  0  0  0  0  0  0
   -5.8890   18.7970  -31.2540 C   0  0  0  0  0  0  0  0  0  0  0  0
   -5.5880   20.1010  -32.0590 C   0  0  1  0  0  0  0  0  0  0  0  0
   -6.2501   24.3885  -29.1357 H   0  0  0  0  0  0  0  0  0  0  0  0
   -7.1426   24.6955  -30.6641 H   0  0  0  0  0  0  0  0  0  0  0  0
   -5.7058   23.6175  -30.6641 H   0  0  0  0  0  0  0  0  0  0  0  0
   -5.5830   26.2067  -31.4358 H   0  0  0  0  0  0  0  0  0  0  0  0
   -5.3200   26.4209  -29.6628 H   0  0  0  0  0  0  0  0  0  0  0  0
   -0.9791   22.0800  -29.4150 H   0  0  0  0  0  0  0  0  0  0  0  0
   -2.6843   22.1271  -28.8251 H   0  0  0  0  0  0  0  0  0  0  0  0
   -0.4266   21.0619  -31.5819 H   0  0  0  0  0  0  0  0  0  0  0  0
   -1.1807   19.7269  -33.5746 H   0  0  0  0  0  0  0  0  0  0  0  0
   -6.0144   22.3329  -31.9975 H   0  0  0  0  0  0  0  0  0  0  0  0
   -7.6603   20.5558  -30.3250 H   0  0  0  0  0  0  0  0  0  0  0  0
   -7.7697   22.3180  -30.5429 H   0  0  0  0  0  0  0  0  0  0  0  0
   -9.2974   20.8836  -32.0866 H   0  0  0  0  0  0  0  0  0  0  0  0
   -8.1716   22.0937  -32.9196 H   0  0  0  0  0  0  0  0  0  0  0  0
   -8.0464   19.0547  -32.9469 H   0  0  0  0  0  0  0  0  0  0  0  0
   -8.1222   20.2486  -34.3281 H   0  0  0  0  0  0  0  0  0  0  0  0
   -5.9791   20.8721  -34.1247 H   0  0  0  0  0  0  0  0  0  0  0  0
   -5.8854   18.7193  -35.1403 H   0  0  0  0  0  0  0  0  0  0  0  0
   -3.3626   18.1559  -34.4025 H   0  0  0  0  0  0  0  0  0  0  0  0
   -3.7522   19.8046  -35.0992 H   0  0  0  0  0  0  0  0  0  0  0  0
   -7.3969   16.5382  -32.8031 H   0  0  0  0  0  0  0  0  0  0  0  0
   -7.5488   17.4837  -34.3229 H   0  0  0  0  0  0  0  0  0  0  0  0
   -6.6662   15.9192  -34.3229 H   0  0  0  0  0  0  0  0  0  0  0  0
   -5.7591   16.6555  -31.5083 H   0  0  0  0  0  0  0  0  0  0  0  0
   -4.2320   17.5837  -31.8721 H   0  0  0  0  0  0  0  0  0  0  0  0
   -6.9780   18.6863  -31.1448 H   0  0  0  0  0  0  0  0  0  0  0  0
   -5.4059   18.8771  -30.2690 H   0  0  0  0  0  0  0  0  0  0  0  0
  1  2  1  0
  2  3  1  0
  3  4  1  0
  4  5  2  0
  4  6  1  0
  6  7  1  0
  7  8  1  0
  8  9  2  0
  9 10  1  0
 10 11  2  0
 11 12  1  0
 12 13  2  0
 13 14  1  0
 14 15  1  0
 15 16  1  0
 16 17  1  0
 17 18  1  0
 18 19  1  0
 19 20  1  0
 20 21  1  0
 20 22  1  0
 22 23  1  0
 22 24  1  0
 24 25  1  0
 26 25  1  1
 13  8  1  0
 26 15  1  0
 21 11  1  0
 26 12  1  0
 26 19  1  0
  1 27  1  0
  1 28  1  0
  1 29  1  0
  2 30  1  0
  2 31  1  0
  7 32  1  0
  7 33  1  0
  9 34  1  0
 10 35  1  0
 15 36  1  6
 16 37  1  0
 16 38  1  0
 17 39  1  0
 17 40  1  0
 18 41  1  0
 18 42  1  0
 19 43  1  6
 20 44  1  6
 21 45  1  0
 21 46  1  0
 23 47  1  0
 23 48  1  0
 23 49  1  0
 24 50  1  0
 24 51  1  0
 25 52  1  0
 25 53  1  0
M  CHG  1   3  -1
M  END
>  <UniqueID>  (35) 
30

>  <SMILES>  (35) 
CC[N-]C(=O)OCc1ccc2c3c1O[C@@H]1CCC[C@@H]4C(C2)N(C)CCC341

>  <Energy>  (35) 
115.98602410657826

>  <Genealogy>  (35) 
CC[N-]C(=O)OCc1ccc2c3c1OC1CCCC4C(C2)N(C)CCC314 (protonated)
CC[N-]C(=O)OCc1ccc2c3c1O[C@@H]1CCC[C@@H]4C(C2)N(C)CCC341 (chirality)
CC[N-]C(=O)OCc1ccc2c3c1O[C@@H]1CCC[C@@H]4C(C2)N(C)CCC341 (3D coordinates assigned)
CC[N-]C(=O)OCc1ccc2c3c1O[C@@H]1CCC[C@@H]4C(C2)N(C)CCC341 (nonaromatic ring conformer: 115.98602410657826 kcal/mol)

>  <smiles>  (35) 
CCNC(=O)OCc1ccc2c3c1OC1CCCC4C(C2)N(C)CCC314

>  <score_type>  (35) 
oracle

>  <origin>  (35) 
adg

>  <m_score__min__energy>  (35) 
-10.27

>  <m_primary>  (35) 
energy

$$$$
35:0
     RDKit          3D

 37 40  0  0  0  0  0  0  0  0999 V2000
   -8.9400   19.0320  -32.3260 C   0  0  0  0  0  0  0  0  0  0  0  0
   -8.7990   20.5440  -32.1860 C   0  0  0  0  0  0  0  0  0  0  0  0
   -7.3490   20.9550  -32.2060 C   0  0  0  0  0  0  0  0  0  0  0  0
   -6.4660   20.1290  -32.8270 N   0  0  0  0  0  0  0  0  0  0  0  0
   -5.1400   20.4140  -32.9150 C   0  0  0  0  0  0  0  0  0  0  0  0
   -4.2340   19.4770  -33.6560 C   0  0  0  0  0  0  0  0  0  0  0  0
   -4.8410   18.1030  -33.6960 C   0  0  0  0  0  0  0  0  0  0  0  0
   -5.8930   17.8160  -34.5830 C   0  0  0  0  0  0  0  0  0  0  0  0
   -6.4800   16.5470  -34.5900 C   0  0  0  0  0  0  0  0  0  0  0  0
   -6.0310   15.5610  -33.7080 C   0  0  0  0  0  0  0  0  0  0  0  0
   -4.9950   15.8420  -32.8140 C   0  0  0  0  0  0  0  0  0  0  0  0
   -4.4030   17.1100  -32.8030 C   0  0  0  0  0  0  0  0  0  0  0  0
   -4.6570   21.5730  -32.3930 N   0  0  0  0  0  0  0  0  0  0  0  0
   -5.4920   22.4480  -31.7680 C   0  0  0  0  0  0  0  0  0  0  0  0
   -6.8820   22.1690  -31.6540 C   0  0  0  0  0  0  0  0  0  0  0  0
   -7.7340   23.1130  -31.0040 C   0  0  0  0  0  0  0  0  0  0  0  0
   -7.2100   24.3090  -30.4750 C   0  0  0  0  0  0  0  0  0  0  0  0
   -5.8460   24.5300  -30.6110 C   0  0  0  0  0  0  0  0  0  0  0  0
   -5.1170   25.5780  -30.2020 N   0  0  0  0  0  0  0  0  0  0  0  0
   -3.8950   25.2910  -30.5810 O   0  0  0  0  0  0  0  0  0  0  0  0
   -3.7780   24.1440  -31.2040 N   0  0  0  0  0  0  0  0  0  0  0  0
   -5.0240   23.6480  -31.2270 C   0  0  0  0  0  0  0  0  0  0  0  0
   -8.9827   18.5737  -31.3269 H   0  0  0  0  0  0  0  0  0  0  0  0
   -9.8637   18.7992  -32.8760 H   0  0  0  0  0  0  0  0  0  0  0  0
   -8.0752   18.6325  -32.8760 H   0  0  0  0  0  0  0  0  0  0  0  0
   -9.3231   21.0330  -33.0204 H   0  0  0  0  0  0  0  0  0  0  0  0
   -9.2368   20.8494  -31.2242 H   0  0  0  0  0  0  0  0  0  0  0  0
   -4.0923   19.8431  -34.6835 H   0  0  0  0  0  0  0  0  0  0  0  0
   -3.2632   19.4291  -33.1410 H   0  0  0  0  0  0  0  0  0  0  0  0
   -6.2554   18.5918  -35.2735 H   0  0  0  0  0  0  0  0  0  0  0  0
   -7.2974   16.3245  -35.2917 H   0  0  0  0  0  0  0  0  0  0  0  0
   -6.4934   14.5630  -33.7175 H   0  0  0  0  0  0  0  0  0  0  0  0
   -4.6442   15.0658  -32.1180 H   0  0  0  0  0  0  0  0  0  0  0  0
   -3.5921   17.3302  -32.0931 H   0  0  0  0  0  0  0  0  0  0  0  0
   -3.6390   21.7930  -32.4820 H   0  0  0  0  0  0  0  0  0  0  0  0
   -8.8104   22.9042  -30.9155 H   0  0  0  0  0  0  0  0  0  0  0  0
   -7.8584   25.0416  -29.9721 H   0  0  0  0  0  0  0  0  0  0  0  0
  1  2  1  0
  2  3  1  0
  3  4  2  0
  4  5  1  0
  5  6  1  0
  6  7  1  0
  7  8  2  0
  8  9  1  0
  9 10  2  0
 10 11  1  0
 11 12  2  0
  5 13  2  0
 13 14  1  0
 14 15  2  0
 15 16  1  0
 16 17  2  0
 17 18  1  0
 18 19  2  0
 19 20  1  0
 20 21  1  0
 21 22  2  0
 15  3  1  0
 22 18  1  0
 12  7  1  0
 22 14  1  0
  1 23  1  0
  1 24  1  0
  1 25  1  0
  2 26  1  0
  2 27  1  0
  6 28  1  0
  6 29  1  0
  8 30  1  0
  9 31  1  0
 10 32  1  0
 11 33  1  0
 12 34  1  0
 13 35  1  0
 16 36  1  0
 17 37  1  0
M  CHG  1  13   1
M  END
>  <UniqueID>  (36) 
31

>  <SMILES>  (36) 
CCc1nc(Cc2ccccc2)[nH+]c2c1ccc1nonc12

>  <Energy>  (36) 
84.40319297974469

>  <Genealogy>  (36) 
CCc1nc(Cc2ccccc2)[nH+]c2c1ccc1nonc12 (protonated)
CCc1nc(Cc2ccccc2)[nH+]c2c1ccc1nonc12 (3D coordinates assigned)
CCc1nc(Cc2ccccc2)[nH+]c2c1ccc1nonc12 (optimized conformer: 84.40319297974469 kcal/mol)

>  <smiles>  (36) 
CCc1nc(Cc2ccccc2)nc2c1ccc1nonc12

>  <score_type>  (36) 
oracle

>  <origin>  (36) 
adg

>  <m_score__min__energy>  (36) 
-9.3000000000000007

>  <m_primary>  (36) 
energy

$$$$
36:0
     RDKit          3D

 49 51  0  0  0  0  0  0  0  0999 V2000
   -3.0520   16.6350  -33.0970 C   0  0  0  0  0  0  0  0  0  0  0  0
   -3.0010   17.5630  -34.3060 C   0  0  0  0  0  0  0  0  0  0  0  0
   -1.6640   18.3150  -34.3710 C   0  0  0  0  0  0  0  0  0  0  0  0
   -1.4000   19.1300  -33.1000 C   0  0  0  0  0  0  0  0  0  0  0  0
   -2.4010   20.1790  -32.9380 N   0  0  0  0  0  0  0  0  0  0  0  0
   -3.2930   20.2160  -31.9640 N   0  0  0  0  0  0  0  0  0  0  0  0
   -4.0430   21.2990  -32.2580 C   0  0  0  0  0  0  0  0  0  0  0  0
   -5.1810   21.7960  -31.4070 C   0  0  2  0  0  0  0  0  0  0  0  0
   -6.5550   21.2470  -31.9060 C   0  0  2  0  0  0  0  0  0  0  0  0
   -6.4800   19.8200  -32.4150 C   0  0  0  0  0  0  0  0  0  0  0  0
   -6.8300   18.7320  -31.5930 C   0  0  0  0  0  0  0  0  0  0  0  0
   -6.8130   17.4280  -32.0990 C   0  0  0  0  0  0  0  0  0  0  0  0
   -6.4550   17.1980  -33.4310 C   0  0  0  0  0  0  0  0  0  0  0  0
   -6.4400   15.5620  -34.0650 Cl  0  0  0  0  0  0  0  0  0  0  0  0
   -6.1190   18.2730  -34.2580 C   0  0  0  0  0  0  0  0  0  0  0  0
   -6.1370   19.5770  -33.7560 C   0  0  0  0  0  0  0  0  0  0  0  0
   -7.0700   22.1090  -32.9040 O   0  0  0  0  0  0  0  0  0  0  0  0
   -7.4520   23.3570  -32.3430 C   0  0  0  0  0  0  0  0  0  0  0  0
   -6.4990   23.8560  -31.2350 C   0  0  0  0  0  0  0  0  0  0  0  0
   -5.1620   23.2780  -31.4270 N   0  0  0  0  0  0  0  0  0  0  0  0
   -4.0470   23.9270  -30.2430 S   0  0  0  0  0  0  0  0  0  0  0  0
   -4.6010   23.6370  -28.5720 C   0  0  0  0  0  0  0  0  0  0  0  0
   -3.9140   25.4090  -30.4550 O   0  0  0  0  0  0  0  0  0  0  0  0
   -2.6940   23.2960  -30.4200 O   0  0  0  0  0  0  0  0  0  0  0  0
   -3.6150   21.9140  -33.3820 N   0  0  0  0  0  0  0  0  0  0  0  0
   -2.5920   21.1790  -33.7800 N   0  0  0  0  0  0  0  0  0  0  0  0
   -3.0191   17.2329  -32.1742 H   0  0  0  0  0  0  0  0  0  0  0  0
   -3.9836   16.0507  -33.1223 H   0  0  0  0  0  0  0  0  0  0  0  0
   -2.1900   15.9521  -33.1223 H   0  0  0  0  0  0  0  0  0  0  0  0
   -3.1222   16.9662  -35.2221 H   0  0  0  0  0  0  0  0  0  0  0  0
   -3.8120   18.3005  -34.2142 H   0  0  0  0  0  0  0  0  0  0  0  0
   -0.8517   17.5844  -34.4993 H   0  0  0  0  0  0  0  0  0  0  0  0
   -1.7088   19.0141  -35.2191 H   0  0  0  0  0  0  0  0  0  0  0  0
   -1.4359   18.4600  -32.2284 H   0  0  0  0  0  0  0  0  0  0  0  0
   -0.4086   19.5994  -33.1826 H   0  0  0  0  0  0  0  0  0  0  0  0
   -5.0536   21.4313  -30.3771 H   0  0  0  0  0  0  0  0  0  0  0  0
   -7.2338   21.2233  -31.0408 H   0  0  0  0  0  0  0  0  0  0  0  0
   -7.1186   18.9084  -30.5463 H   0  0  0  0  0  0  0  0  0  0  0  0
   -7.0815   16.5826  -31.4484 H   0  0  0  0  0  0  0  0  0  0  0  0
   -5.8397   18.0924  -35.3065 H   0  0  0  0  0  0  0  0  0  0  0  0
   -5.8808   20.4194  -34.4153 H   0  0  0  0  0  0  0  0  0  0  0  0
   -7.4733   24.1074  -33.1470 H   0  0  0  0  0  0  0  0  0  0  0  0
   -8.4385   23.2126  -31.8782 H   0  0  0  0  0  0  0  0  0  0  0  0
   -6.4317   24.9531  -31.2787 H   0  0  0  0  0  0  0  0  0  0  0  0
   -6.8900   23.5460  -30.2547 H   0  0  0  0  0  0  0  0  0  0  0  0
   -3.8543   24.0279  -27.8651 H   0  0  0  0  0  0  0  0  0  0  0  0
   -5.5617   24.1479  -28.4103 H   0  0  0  0  0  0  0  0  0  0  0  0
   -4.7286   22.5565  -28.4103 H   0  0  0  0  0  0  0  0  0  0  0  0
   -2.0260   21.3610  -34.6390 H   0  0  0  0  0  0  0  0  0  0  0  0
  1  2  1  0
  2  3  1  0
  3  4  1  0
  4  5  1  0
  5  6  1  0
  6  7  2  0
  7  8  1  0
  8  9  1  0
  9 10  1  0
 10 11  2  0
 11 12  1  0
 12 13  2  0
 13 14  1  0
 13 15  1  0
 15 16  2  0
  9 17  1  0
 17 18  1  0
 18 19  1  0
 19 20  1  0
 20 21  1  0
 21 22  1  0
 21 23  2  0
 21 24  2  0
  7 25  1  0
 25 26  2  0
 26  5  1  0
 20  8  1  0
 16 10  1  0
  1 27  1  0
  1 28  1  0
  1 29  1  0
  2 30  1  0
  2 31  1  0
  3 32  1  0
  3 33  1  0
  4 34  1  0
  4 35  1  0
  8 36  1  1
  9 37  1  1
 11 38  1  0
 12 39  1  0
 15 40  1  0
 16 41  1  0
 18 42  1  0
 18 43  1  0
 19 44  1  0
 19 45  1  0
 22 46  1  0
 22 47  1  0
 22 48  1  0
 26 49  1  0
M  CHG  1  26   1
M  END
>  <UniqueID>  (37) 
32

>  <SMILES>  (37) 
CCCCn1nc([C@@H]2[C@H](c3ccc(Cl)cc3)OCCN2S(C)(=O)=O)n[nH+]1

>  <Energy>  (37) 
85.78876206547395

>  <Genealogy>  (37) 
CCCCn1nc(C2C(c3ccc(Cl)cc3)OCCN2S(C)(=O)=O)n[nH+]1 (protonated)
CCCCn1nc([C@@H]2[C@H](c3ccc(Cl)cc3)OCCN2S(C)(=O)=O)n[nH+]1 (chirality)
CCCCn1nc([C@@H]2[C@H](c3ccc(Cl)cc3)OCCN2S(C)(=O)=O)n[nH+]1 (3D coordinates assigned)
CCCCn1nc([C@@H]2[C@H](c3ccc(Cl)cc3)OCCN2S(C)(=O)=O)n[nH+]1 (nonaromatic ring conformer: 85.78876206547395 kcal/mol)

>  <smiles>  (37) 
CCCCn1nnc(C2C(c3ccc(Cl)cc3)OCCN2S(C)(=O)=O)n1

>  <score_type>  (37) 
oracle

>  <origin>  (37) 
adg

>  <m_score__min__energy>  (37) 
-9.2400000000000002

>  <m_primary>  (37) 
energy

$$$$
37:0
     RDKit          3D

 49 52  0  0  0  0  0  0  0  0999 V2000
   -0.8740   27.2880  -24.9870 C   0  0  0  0  0  0  0  0  0  0  0  0
   -1.7910   26.0560  -25.0540 C   0  0  0  0  0  0  0  0  0  0  0  0
   -2.3410   25.7710  -26.4040 N   0  0  0  0  0  0  0  0  0  0  0  0
   -3.5660   24.9220  -26.3460 C   0  0  0  0  0  0  0  0  0  0  0  0
   -3.7510   24.0040  -27.5720 C   0  0  0  0  0  0  0  0  0  0  0  0
   -3.2100   24.6230  -28.7900 N   0  0  0  0  0  0  0  0  0  0  0  0
   -3.9520   24.6170  -30.0240 C   0  0  0  0  0  0  0  0  0  0  0  0
   -3.8650   25.6070  -30.8030 O   0  0  0  0  0  0  0  0  0  0  0  0
   -4.8120   23.4750  -30.4110 C   0  0  0  0  0  0  0  0  0  0  0  0
   -6.1510   23.4300  -29.9890 C   0  0  0  0  0  0  0  0  0  0  0  0
   -6.9730   22.3610  -30.3570 C   0  0  0  0  0  0  0  0  0  0  0  0
   -6.4700   21.3320  -31.1580 C   0  0  0  0  0  0  0  0  0  0  0  0
   -7.2710   20.3000  -31.5110 N   0  0  0  0  0  0  0  0  0  0  0  0
   -6.8240   19.2820  -32.2930 C   0  0  0  0  0  0  0  0  0  0  0  0
   -7.7000   18.2300  -32.6280 C   0  0  0  0  0  0  0  0  0  0  0  0
   -9.1210   18.2210  -32.1350 C   0  0  0  0  0  0  0  0  0  0  0  0
   -7.2310   17.1890  -33.4350 C   0  0  0  0  0  0  0  0  0  0  0  0
   -5.9180   17.2000  -33.8910 C   0  0  0  0  0  0  0  0  0  0  0  0
   -5.0740   18.2520  -33.5420 C   0  0  0  0  0  0  0  0  0  0  0  0
   -5.5210   19.2820  -32.7520 N   0  0  0  0  0  0  0  0  0  0  0  0
   -4.6780   20.3160  -32.4150 C   0  0  0  0  0  0  0  0  0  0  0  0
   -3.4830   20.3280  -32.8290 O   0  0  0  0  0  0  0  0  0  0  0  0
   -5.1390   21.3690  -31.6040 C   0  0  0  0  0  0  0  0  0  0  0  0
   -4.3150   22.4490  -31.2330 C   0  0  0  0  0  0  0  0  0  0  0  0
   -1.8740   25.2300  -28.7640 C   0  0  0  0  0  0  0  0  0  0  0  0
   -1.3150   25.2550  -27.3360 C   0  0  0  0  0  0  0  0  0  0  0  0
   -0.6823   27.5456  -23.9349 H   0  0  0  0  0  0  0  0  0  0  0  0
    0.0787   27.0637  -25.4891 H   0  0  0  0  0  0  0  0  0  0  0  0
   -1.3623   28.1362  -25.4891 H   0  0  0  0  0  0  0  0  0  0  0  0
   -1.2132   25.1793  -24.7262 H   0  0  0  0  0  0  0  0  0  0  0  0
   -2.6520   26.2708  -24.4040 H   0  0  0  0  0  0  0  0  0  0  0  0
   -2.6410   26.7030  -26.7800 H   0  0  0  0  0  0  0  0  0  0  0  0
   -3.5074   24.2910  -25.4469 H   0  0  0  0  0  0  0  0  0  0  0  0
   -4.4272   25.6062  -26.3275 H   0  0  0  0  0  0  0  0  0  0  0  0
   -3.2274   23.0538  -27.3902 H   0  0  0  0  0  0  0  0  0  0  0  0
   -4.8278   23.8337  -27.7184 H   0  0  0  0  0  0  0  0  0  0  0  0
   -6.5551   24.2409  -29.3652 H   0  0  0  0  0  0  0  0  0  0  0  0
   -8.0181   22.3295  -30.0154 H   0  0  0  0  0  0  0  0  0  0  0  0
   -9.1275   18.2210  -31.0350 H   0  0  0  0  0  0  0  0  0  0  0  0
   -9.6431   19.1159  -32.5047 H   0  0  0  0  0  0  0  0  0  0  0  0
   -9.6317   17.3196  -32.5047 H   0  0  0  0  0  0  0  0  0  0  0  0
   -7.9013   16.3610  -33.7091 H   0  0  0  0  0  0  0  0  0  0  0  0
   -5.5468   16.3813  -34.5249 H   0  0  0  0  0  0  0  0  0  0  0  0
   -4.0354   18.2574  -33.9043 H   0  0  0  0  0  0  0  0  0  0  0  0
   -3.2750   22.4899  -31.5890 H   0  0  0  0  0  0  0  0  0  0  0  0
   -1.1991   24.6441  -29.4053 H   0  0  0  0  0  0  0  0  0  0  0  0
   -1.9493   26.2641  -29.1314 H   0  0  0  0  0  0  0  0  0  0  0  0
   -1.0306   24.2352  -27.0375 H   0  0  0  0  0  0  0  0  0  0  0  0
   -0.4326   25.9110  -27.3034 H   0  0  0  0  0  0  0  0  0  0  0  0
  1  2  1  0
  2  3  1  0
  3  4  1  0
  4  5  1  0
  5  6  1  0
  6  7  1  0
  7  8  2  0
  7  9  1  0
  9 10  2  0
 10 11  1  0
 11 12  2  0
 12 13  1  0
 13 14  2  0
 14 15  1  0
 15 16  1  0
 15 17  2  0
 17 18  1  0
 18 19  2  0
 19 20  1  0
 20 21  1  0
 21 22  2  0
 21 23  1  0
 23 24  2  0
  6 25  1  0
 25 26  1  0
 26  3  1  0
 24  9  1  0
 23 12  1  0
 20 14  1  0
  1 27  1  0
  1 28  1  0
  1 29  1  0
  2 30  1  0
  2 31  1  0
  3 32  1  0
  4 33  1  0
  4 34  1  0
  5 35  1  0
  5 36  1  0
 10 37  1  0
 11 38  1  0
 16 39  1  0
 16 40  1  0
 16 41  1  0
 17 42  1  0
 18 43  1  0
 19 44  1  0
 24 45  1  0
 25 46  1  0
 25 47  1  0
 26 48  1  0
 26 49  1  0
M  CHG  1   3   1
M  END
>  <UniqueID>  (38) 
33

>  <SMILES>  (38) 
CC[NH+]1CCN(C(=O)c2ccc3nc4c(C)cccn4c(=O)c3c2)CC1

>  <Energy>  (38) 
74.43986195574305

>  <Genealogy>  (38) 
CC[NH+]1CCN(C(=O)c2ccc3nc4c(C)cccn4c(=O)c3c2)CC1 (protonated)
CC[NH+]1CCN(C(=O)c2ccc3nc4c(C)cccn4c(=O)c3c2)CC1 (3D coordinates assigned)
CC[NH+]1CCN(C(=O)c2ccc3nc4c(C)cccn4c(=O)c3c2)CC1 (nonaromatic ring conformer: 74.43986195574305 kcal/mol)

>  <smiles>  (38) 
CCN1CCN(C(=O)c2ccc3nc4c(C)cccn4c(=O)c3c2)CC1

>  <score_type>  (38) 
oracle

>  <origin>  (38) 
adg

>  <m_score__min__energy>  (38) 
-8.2799999999999994

>  <m_primary>  (38) 
energy

$$$$
38:0
     RDKit          3D

 36 38  0  0  0  0  0  0  0  0999 V2000
   -6.0480   25.2140  -29.3330 C   0  0  0  0  0  0  0  0  0  0  0  0
   -5.8390   25.1840  -31.1400 S   0  0  0  0  0  0  0  0  0  0  0  0
   -4.9800   23.6070  -31.1320 C   0  0  0  0  0  0  0  0  0  0  0  0
   -3.6920   23.5670  -31.2200 N   0  0  0  0  0  0  0  0  0  0  0  0
   -2.9700   22.2970  -31.1980 C   0  0  0  0  0  0  0  0  0  0  0  0
   -3.6880   21.1770  -32.0420 C   0  0  2  0  0  0  0  0  0  0  0  0
   -2.9330   21.0100  -33.3750 C   0  0  0  0  0  0  0  0  0  0  0  0
   -5.1200   21.5130  -32.2850 N   0  0  1  0  0  0  0  0  0  0  0  0
   -6.0820   20.4530  -32.3960 C   0  0  0  0  0  0  0  0  0  0  0  0
   -5.9150   19.2070  -33.0150 C   0  0  0  0  0  0  0  0  0  0  0  0
   -7.0310   18.3680  -33.1540 C   0  0  0  0  0  0  0  0  0  0  0  0
   -8.2970   18.7850  -32.7040 C   0  0  0  0  0  0  0  0  0  0  0  0
   -8.4540   20.0410  -32.1000 C   0  0  0  0  0  0  0  0  0  0  0  0
   -7.3270   20.8520  -31.9450 C   0  0  0  0  0  0  0  0  0  0  0  0
   -7.2280   22.2160  -31.3410 C   0  0  1  0  0  0  0  0  0  0  0  0
   -7.9890   22.3300  -30.0150 C   0  0  0  0  0  0  0  0  0  0  0  0
   -5.6920   22.2870  -31.1660 C   0  0  2  0  0  0  0  0  0  0  0  0
   -5.0705   25.0737  -28.8485 H   0  0  0  0  0  0  0  0  0  0  0  0
   -6.4723   26.1823  -29.0290 H   0  0  0  0  0  0  0  0  0  0  0  0
   -6.7276   24.4042  -29.0290 H   0  0  0  0  0  0  0  0  0  0  0  0
   -1.9627   22.4572  -31.6100 H   0  0  0  0  0  0  0  0  0  0  0  0
   -2.9314   21.9538  -30.1536 H   0  0  0  0  0  0  0  0  0  0  0  0
   -3.6710   20.2316  -31.4798 H   0  0  0  0  0  0  0  0  0  0  0  0
   -1.8774   20.7765  -33.1718 H   0  0  0  0  0  0  0  0  0  0  0  0
   -3.3853   20.1902  -33.9524 H   0  0  0  0  0  0  0  0  0  0  0  0
   -2.9973   21.9441  -33.9524 H   0  0  0  0  0  0  0  0  0  0  0  0
   -5.2030   22.0860  -33.1620 H   0  0  0  0  0  0  0  0  0  0  0  0
   -4.9279   18.8927  -33.3849 H   0  0  0  0  0  0  0  0  0  0  0  0
   -6.9152   17.3774  -33.6180 H   0  0  0  0  0  0  0  0  0  0  0  0
   -9.1672   18.1233  -32.8264 H   0  0  0  0  0  0  0  0  0  0  0  0
   -9.4423   20.3800  -31.7560 H   0  0  0  0  0  0  0  0  0  0  0  0
   -7.6706   23.0314  -31.9319 H   0  0  0  0  0  0  0  0  0  0  0  0
   -7.2839   22.2244  -29.1773 H   0  0  0  0  0  0  0  0  0  0  0  0
   -8.4815   23.3119  -29.9581 H   0  0  0  0  0  0  0  0  0  0  0  0
   -8.7476   21.5355  -29.9581 H   0  0  0  0  0  0  0  0  0  0  0  0
   -5.5349   21.9138  -30.1432 H   0  0  0  0  0  0  0  0  0  0  0  0
  1  2  1  0
  2  3  1  0
  3  4  2  0
  4  5  1  0
  5  6  1  0
  6  7  1  0
  6  8  1  0
  8  9  1  0
  9 10  2  0
 10 11  1  0
 11 12  2  0
 12 13  1  0
 13 14  2  0
 14 15  1  0
 15 16  1  0
 15 17  1  0
 17  3  1  0
 17  8  1  0
 14  9  1  0
  1 18  1  0
  1 19  1  0
  1 20  1  0
  5 21  1  0
  5 22  1  0
  6 23  1  1
  7 24  1  0
  7 25  1  0
  7 26  1  0
  8 27  1  6
 10 28  1  0
 11 29  1  0
 12 30  1  0
 13 31  1  0
 15 32  1  6
 16 33  1  0
 16 34  1  0
 16 35  1  0
 17 36  1  1
M  CHG  1   8   1
M  END
>  <UniqueID>  (39) 
34

>  <SMILES>  (39) 
CSC1=NC[C@H](C)[N@H+]2c3ccccc3C(C)C12

>  <Energy>  (39) 
65.89648249769581

>  <Genealogy>  (39) 
CSC1=NCC(C)[NH+]2c3ccccc3C(C)C12 (protonated)
CSC1=NC[C@H](C)[N@H+]2c3ccccc3C(C)C12 (chirality)
CSC1=NC[C@H](C)[N@H+]2c3ccccc3C(C)C12 (3D coordinates assigned)
CSC1=NC[C@H](C)[N@H+]2c3ccccc3C(C)C12 (nonaromatic ring conformer: 65.89648249769581 kcal/mol)

>  <smiles>  (39) 
CSC1=NCC(C)N2c3ccccc3C(C)C12

>  <score_type>  (39) 
oracle

>  <origin>  (39) 
adg

>  <m_score__min__energy>  (39) 
-7.1399999999999997

>  <m_primary>  (39) 
energy

$$$$
39:0
     RDKit          3D

 31 33  0  0  0  0  0  0  0  0999 V2000
   -9.4850   18.4720  -31.9640 O   0  0  0  0  0  0  0  0  0  0  0  0
   -8.2980   18.7350  -32.2940 C   0  0  0  0  0  0  0  0  0  0  0  0
   -7.1880   17.8080  -32.1130 C   0  0  0  0  0  0  0  0  0  0  0  0
   -6.1190   18.3700  -32.6400 C   0  0  0  0  0  0  0  0  0  0  0  0
   -6.5240   19.6660  -33.1680 C   0  0  0  0  0  0  0  0  0  0  0  0
   -5.7470   20.4330  -33.7950 O   0  0  0  0  0  0  0  0  0  0  0  0
   -7.9140   19.9600  -32.9400 N   0  0  0  0  0  0  0  0  0  0  0  0
   -8.0980   21.1250  -32.0370 C   0  0  0  0  0  0  0  0  0  0  0  0
   -7.2790   22.3470  -32.4850 C   0  0  0  0  0  0  0  0  0  0  0  0
   -6.4920   22.9510  -31.3590 C   0  0  0  0  0  0  0  0  0  0  0  0
   -7.0090   23.6890  -30.2980 C   0  0  0  0  0  0  0  0  0  0  0  0
   -6.0210   24.0430  -29.4440 N   0  0  0  0  0  0  0  0  0  0  0  0
   -4.8870   23.5300  -29.9540 C   0  0  0  0  0  0  0  0  0  0  0  0
   -3.6040   23.6190  -29.4160 C   0  0  0  0  0  0  0  0  0  0  0  0
   -2.5550   22.9900  -30.1100 C   0  0  0  0  0  0  0  0  0  0  0  0
   -2.8080   22.2950  -31.3130 C   0  0  0  0  0  0  0  0  0  0  0  0
   -4.1130   22.2210  -31.8320 C   0  0  0  0  0  0  0  0  0  0  0  0
   -5.1340   22.8550  -31.1230 C   0  0  0  0  0  0  0  0  0  0  0  0
   -7.2341   16.8224  -31.6268 H   0  0  0  0  0  0  0  0  0  0  0  0
   -5.1072   17.9398  -32.6748 H   0  0  0  0  0  0  0  0  0  0  0  0
   -8.4240   20.0470  -33.8500 H   0  0  0  0  0  0  0  0  0  0  0  0
   -9.1634   21.3984  -32.0253 H   0  0  0  0  0  0  0  0  0  0  0  0
   -7.7465   20.8334  -31.0363 H   0  0  0  0  0  0  0  0  0  0  0  0
   -6.5814   22.0343  -33.2759 H   0  0  0  0  0  0  0  0  0  0  0  0
   -7.9842   23.1090  -32.8484 H   0  0  0  0  0  0  0  0  0  0  0  0
   -8.0706   23.9478  -30.1717 H   0  0  0  0  0  0  0  0  0  0  0  0
   -6.1240   24.5930  -28.5630 H   0  0  0  0  0  0  0  0  0  0  0  0
   -3.4181   24.1638  -28.4786 H   0  0  0  0  0  0  0  0  0  0  0  0
   -1.5303   23.0397  -29.7130 H   0  0  0  0  0  0  0  0  0  0  0  0
   -1.9789   21.8083  -31.8476 H   0  0  0  0  0  0  0  0  0  0  0  0
   -4.3222   21.6806  -32.7670 H   0  0  0  0  0  0  0  0  0  0  0  0
  1  2  2  0
  2  3  1  0
  3  4  2  0
  4  5  1  0
  5  6  2  0
  5  7  1  0
  7  8  1  0
  8  9  1  0
  9 10  1  0
 10 11  2  0
 11 12  1  0
 12 13  1  0
 13 14  2  0
 14 15  1  0
 15 16  2  0
 16 17  1  0
 17 18  2  0
  7  2  1  0
 18 10  1  0
 18 13  1  0
  3 19  1  0
  4 20  1  0
  7 21  1  0
  8 22  1  0
  8 23  1  0
  9 24  1  0
  9 25  1  0
 11 26  1  0
 12 27  1  0
 14 28  1  0
 15 29  1  0
 16 30  1  0
 17 31  1  0
M  CHG  1   7   1
M  END
>  <UniqueID>  (40) 
35

>  <SMILES>  (40) 
O=C1C=CC(=O)[NH+]1CCc1c[nH]c2ccccc12

>  <Energy>  (40) 
83.77137469732362

>  <Genealogy>  (40) 
O=C1C=CC(=O)[NH+]1CCc1c[nH]c2ccccc12 (protonated)
O=C1C=CC(=O)[NH+]1CCc1c[nH]c2ccccc12 (3D coordinates assigned)
O=C1C=CC(=O)[NH+]1CCc1c[nH]c2ccccc12 (nonaromatic ring conformer: 83.77137469732362 kcal/mol)

>  <smiles>  (40) 
O=C1C=CC(=O)N1CCc1c[nH]c2ccccc12

>  <score_type>  (40) 
oracle

>  <origin>  (40) 
adg

>  <m_score__min__energy>  (40) 
-7.1200000000000001

>  <m_primary>  (40) 
energy

$$$$
40:0
     RDKit          3D

 69 73  0  0  0  0  0  0  0  0999 V2000
   -6.8900   24.5610  -30.5240 C   0  0  0  0  0  0  0  0  0  0  0  0
   -6.8100   23.3500  -29.8350 C   0  0  0  0  0  0  0  0  0  0  0  0
   -5.5680   22.8660  -29.4130 C   0  0  0  0  0  0  0  0  0  0  0  0
   -4.3900   23.5810  -29.6920 C   0  0  0  0  0  0  0  0  0  0  0  0
   -3.0590   23.0550  -29.2010 C   0  0  0  0  0  0  0  0  0  0  0  0
   -2.2230   22.7490  -30.3050 O   0  0  0  0  0  0  0  0  0  0  0  0
   -1.5720   21.4990  -30.1490 C   0  0  0  0  0  0  0  0  0  0  0  0
   -0.2870   21.4810  -30.9930 C   0  0  0  0  0  0  0  0  0  0  0  0
   -0.3330   20.4880  -32.0980 N   0  0  0  0  0  0  0  0  0  0  0  0
   -1.2540   19.3640  -31.7730 C   0  0  0  0  0  0  0  0  0  0  0  0
   -1.8260   18.7040  -33.0370 C   0  0  0  0  0  0  0  0  0  0  0  0
   -2.6170   19.6590  -33.8550 N   0  0  0  0  0  0  0  0  0  0  0  0
   -4.0730   19.5250  -33.6140 C   0  0  0  0  0  0  0  0  0  0  0  0
   -4.5410   20.4710  -32.4890 C   0  0  2  0  0  0  0  0  0  0  0  0
   -5.3090   19.6670  -31.4060 C   0  0  0  0  0  0  0  0  0  0  0  0
   -6.7390   19.4630  -31.8080 C   0  0  0  0  0  0  0  0  0  0  0  0
   -7.4110   18.2520  -31.5850 C   0  0  0  0  0  0  0  0  0  0  0  0
   -8.7590   18.1270  -31.9430 C   0  0  0  0  0  0  0  0  0  0  0  0
   -9.4380   19.2140  -32.5060 C   0  0  0  0  0  0  0  0  0  0  0  0
   -8.7720   20.4260  -32.7160 C   0  0  0  0  0  0  0  0  0  0  0  0
   -7.4170   20.5460  -32.3720 C   0  0  0  0  0  0  0  0  0  0  0  0
   -6.6580   21.8300  -32.5360 C   0  0  0  0  0  0  0  0  0  0  0  0
   -5.3220   21.5780  -33.1020 N   0  0  0  0  0  0  0  0  0  0  0  0
   -2.1680   21.0670  -33.7090 C   0  0  0  0  0  0  0  0  0  0  0  0
   -0.6690   21.1520  -33.3890 C   0  0  0  0  0  0  0  0  0  0  0  0
   -2.4160   24.0890  -28.3000 C   0  0  0  0  0  0  0  0  0  0  0  0
   -1.2310   24.7450  -28.6850 C   0  0  0  0  0  0  0  0  0  0  0  0
   -0.6550   25.7080  -27.8490 C   0  0  0  0  0  0  0  0  0  0  0  0
   -1.2600   26.0330  -26.6320 C   0  0  0  0  0  0  0  0  0  0  0  0
   -2.4430   25.3950  -26.2470 C   0  0  0  0  0  0  0  0  0  0  0  0
   -3.0210   24.4310  -27.0770 C   0  0  0  0  0  0  0  0  0  0  0  0
   -4.4840   24.8120  -30.3710 C   0  0  0  0  0  0  0  0  0  0  0  0
   -5.7290   25.2910  -30.7910 C   0  0  0  0  0  0  0  0  0  0  0  0
   -7.8672   24.9408  -30.8569 H   0  0  0  0  0  0  0  0  0  0  0  0
   -7.7244   22.7761  -29.6239 H   0  0  0  0  0  0  0  0  0  0  0  0
   -5.5120   21.9179  -28.8581 H   0  0  0  0  0  0  0  0  0  0  0  0
   -3.2114   22.1307  -28.6244 H   0  0  0  0  0  0  0  0  0  0  0  0
   -1.3169   21.3482  -29.0897 H   0  0  0  0  0  0  0  0  0  0  0  0
   -2.2415   20.6929  -30.4835 H   0  0  0  0  0  0  0  0  0  0  0  0
   -0.1379   22.4811  -31.4262 H   0  0  0  0  0  0  0  0  0  0  0  0
    0.5405   21.1949  -30.3272 H   0  0  0  0  0  0  0  0  0  0  0  0
    0.6300   20.0900  -32.2110 H   0  0  0  0  0  0  0  0  0  0  0  0
   -0.7014   18.6075  -31.1965 H   0  0  0  0  0  0  0  0  0  0  0  0
   -2.0949   19.7711  -31.1924 H   0  0  0  0  0  0  0  0  0  0  0  0
   -0.9934   18.3206  -33.6451 H   0  0  0  0  0  0  0  0  0  0  0  0
   -2.4963   17.8909  -32.7217 H   0  0  0  0  0  0  0  0  0  0  0  0
   -4.6142   19.7723  -34.5392 H   0  0  0  0  0  0  0  0  0  0  0  0
   -4.2818   18.4893  -33.3079 H   0  0  0  0  0  0  0  0  0  0  0  0
   -3.6910   20.9298  -31.9626 H   0  0  0  0  0  0  0  0  0  0  0  0
   -4.8277   18.6865  -31.2758 H   0  0  0  0  0  0  0  0  0  0  0  0
   -5.2853   20.2336  -30.4634 H   0  0  0  0  0  0  0  0  0  0  0  0
   -6.8803   17.4027  -31.1300 H   0  0  0  0  0  0  0  0  0  0  0  0
   -9.2846   17.1742  -31.7817 H   0  0  0  0  0  0  0  0  0  0  0  0
  -10.4977   19.1148  -32.7839 H   0  0  0  0  0  0  0  0  0  0  0  0
   -9.3090   21.2826  -33.1496 H   0  0  0  0  0  0  0  0  0  0  0  0
   -7.2162   22.4954  -33.2110 H   0  0  0  0  0  0  0  0  0  0  0  0
   -6.5401   22.2990  -31.5480 H   0  0  0  0  0  0  0  0  0  0  0  0
   -4.7690   22.4640  -33.0350 H   0  0  0  0  0  0  0  0  0  0  0  0
   -2.3632   21.6032  -34.6494 H   0  0  0  0  0  0  0  0  0  0  0  0
   -2.7240   21.5207  -32.8753 H   0  0  0  0  0  0  0  0  0  0  0  0
   -0.1055   20.6624  -34.1969 H   0  0  0  0  0  0  0  0  0  0  0  0
   -0.4007   22.2153  -33.3030 H   0  0  0  0  0  0  0  0  0  0  0  0
   -0.7563   24.4995  -29.6465 H   0  0  0  0  0  0  0  0  0  0  0  0
    0.2760   26.2103  -28.1505 H   0  0  0  0  0  0  0  0  0  0  0  0
   -0.8055   26.7908  -25.9769 H   0  0  0  0  0  0  0  0  0  0  0  0
   -2.9193   25.6523  -25.2894 H   0  0  0  0  0  0  0  0  0  0  0  0
   -3.9550   23.9364  -26.7721 H   0  0  0  0  0  0  0  0  0  0  0  0
   -3.5751   25.3983  -30.5714 H   0  0  0  0  0  0  0  0  0  0  0  0
   -5.7944   26.2457  -31.3334 H   0  0  0  0  0  0  0  0  0  0  0  0
  1  2  2  0
  2  3  1  0
  3  4  2  0
  4  5  1  0
  5  6  1  0
  6  7  1  0
  7  8  1  0
  8  9  1  0
  9 10  1  0
 10 11  1  0
 11 12  1  0
 12 13  1  0
 13 14  1  0
 14 15  1  0
 15 16  1  0
 16 17  2  0
 17 18  1  0
 18 19  2  0
 19 20  1  0
 20 21  2  0
 21 22  1  0
 22 23  1  0
 12 24  1  0
 24 25  1  0
  5 26  1  0
 26 27  2  0
 27 28  1  0
 28 29  2  0
 29 30  1  0
 30 31  2  0
  4 32  1  0
 32 33  2  0
 33  1  1  0
 25  9  1  0
 31 26  1  0
 23 14  1  0
 21 16  1  0
  1 34  1  0
  2 35  1  0
  3 36  1  0
  5 37  1  0
  7 38  1  0
  7 39  1  0
  8 40  1  0
  8 41  1  0
  9 42  1  0
 10 43  1  0
 10 44  1  0
 11 45  1  0
 11 46  1  0
 13 47  1  0
 13 48  1  0
 14 49  1  1
 15 50  1  0
 15 51  1  0
 17 52  1  0
 18 53  1  0
 19 54  1  0
 20 55  1  0
 22 56  1  0
 22 57  1  0
 23 58  1  0
 24 59  1  0
 24 60  1  0
 25 61  1  0
 25 62  1  0
 27 63  1  0
 28 64  1  0
 29 65  1  0
 30 66  1  0
 31 67  1  0
 32 68  1  0
 33 69  1  0
M  CHG  1   9   1
M  END
>  <UniqueID>  (41) 
36

>  <SMILES>  (41) 
c1ccc(C(OCC[NH+]2CCN(C[C@@H]3Cc4ccccc4CN3)CC2)c2ccccc2)cc1

>  <Energy>  (41) 
99.5206768735074

>  <Genealogy>  (41) 
c1ccc(C(OCC[NH+]2CCN(CC3Cc4ccccc4CN3)CC2)c2ccccc2)cc1 (protonated)
c1ccc(C(OCC[NH+]2CCN(C[C@@H]3Cc4ccccc4CN3)CC2)c2ccccc2)cc1 (chirality)
c1ccc(C(OCC[NH+]2CCN(C[C@@H]3Cc4ccccc4CN3)CC2)c2ccccc2)cc1 (3D coordinates assigned)
c1ccc(C(OCC[NH+]2CCN(C[C@@H]3Cc4ccccc4CN3)CC2)c2ccccc2)cc1 (nonaromatic ring conformer: 99.5206768735074 kcal/mol)

>  <smiles>  (41) 
c1ccc(C(OCCN2CCN(CC3Cc4ccccc4CN3)CC2)c2ccccc2)cc1

>  <score_type>  (41) 
oracle

>  <origin>  (41) 
adg

>  <m_score__min__energy>  (41) 
-9.8000000000000007

>  <m_primary>  (41) 
energy

$$$$
41:0
     RDKit          3D

 40 41  0  0  0  0  0  0  0  0999 V2000
   -2.3050   20.5020  -33.8110 C   0  0  0  0  0  0  0  0  0  0  0  0
   -2.7520   19.0440  -33.8910 C   0  0  0  0  0  0  0  0  0  0  0  0
   -4.0070   18.9340  -34.5640 O   0  0  0  0  0  0  0  0  0  0  0  0
   -5.2070   18.4620  -34.0030 C   0  0  0  0  0  0  0  0  0  0  0  0
   -5.7070   17.1740  -34.2800 C   0  0  0  0  0  0  0  0  0  0  0  0
   -6.9020   16.7390  -33.7020 C   0  0  0  0  0  0  0  0  0  0  0  0
   -7.6090   17.5750  -32.8360 C   0  0  0  0  0  0  0  0  0  0  0  0
   -7.1240   18.8520  -32.5490 C   0  0  0  0  0  0  0  0  0  0  0  0
   -5.9280   19.3110  -33.1340 C   0  0  0  0  0  0  0  0  0  0  0  0
   -5.4070   20.6150  -32.8110 N   0  0  0  0  0  0  0  0  0  0  0  0
   -5.8410   21.3800  -31.6750 C   0  0  0  0  0  0  0  0  0  0  0  0
   -7.0090   21.2110  -31.2230 O   0  0  0  0  0  0  0  0  0  0  0  0
   -4.9570   22.4030  -31.0630 C   0  0  0  0  0  0  0  0  0  0  0  0
   -3.6270   22.0860  -30.7340 C   0  0  0  0  0  0  0  0  0  0  0  0
   -2.7860   23.0480  -30.1670 C   0  0  0  0  0  0  0  0  0  0  0  0
   -3.2510   24.3450  -29.9220 C   0  0  0  0  0  0  0  0  0  0  0  0
   -2.3490   25.2980  -29.3410 N   0  0  0  0  0  0  0  0  0  0  0  0
   -1.0190   24.9250  -28.2910 S   0  0  0  0  0  0  0  0  0  0  0  0
   -1.6000   24.0690  -26.8410 C   0  0  0  0  0  0  0  0  0  0  0  0
   -0.3690   26.2100  -27.8600 O   0  0  0  0  0  0  0  0  0  0  0  0
   -0.0080   24.0940  -29.0290 O   0  0  0  0  0  0  0  0  0  0  0  0
   -4.5770   24.6710  -30.2560 C   0  0  0  0  0  0  0  0  0  0  0  0
   -5.4180   23.7120  -30.8270 C   0  0  0  0  0  0  0  0  0  0  0  0
   -2.2136   20.8001  -32.7561 H   0  0  0  0  0  0  0  0  0  0  0  0
   -1.3310   20.6148  -34.3096 H   0  0  0  0  0  0  0  0  0  0  0  0
   -3.0484   21.1413  -34.3096 H   0  0  0  0  0  0  0  0  0  0  0  0
   -1.9959   18.4647  -34.4412 H   0  0  0  0  0  0  0  0  0  0  0  0
   -2.8648   18.6534  -32.8689 H   0  0  0  0  0  0  0  0  0  0  0  0
   -5.1525   16.5065  -34.9560 H   0  0  0  0  0  0  0  0  0  0  0  0
   -7.2872   15.7342  -33.9300 H   0  0  0  0  0  0  0  0  0  0  0  0
   -8.5478   17.2276  -32.3800 H   0  0  0  0  0  0  0  0  0  0  0  0
   -7.6803   19.5050  -31.8605 H   0  0  0  0  0  0  0  0  0  0  0  0
   -4.7760   21.0870  -33.4990 H   0  0  0  0  0  0  0  0  0  0  0  0
   -3.2451   21.0722  -30.9245 H   0  0  0  0  0  0  0  0  0  0  0  0
   -1.7495   22.7831  -29.9111 H   0  0  0  0  0  0  0  0  0  0  0  0
   -1.2455   24.5913  -25.9402 H   0  0  0  0  0  0  0  0  0  0  0  0
   -2.6998   24.0479  -26.8437 H   0  0  0  0  0  0  0  0  0  0  0  0
   -1.2135   23.0391  -26.8437 H   0  0  0  0  0  0  0  0  0  0  0  0
   -4.9548   25.6866  -30.0669 H   0  0  0  0  0  0  0  0  0  0  0  0
   -6.4501   23.9826  -31.0946 H   0  0  0  0  0  0  0  0  0  0  0  0
  1  2  1  0
  2  3  1  0
  3  4  1  0
  4  5  2  0
  5  6  1  0
  6  7  2  0
  7  8  1  0
  8  9  2  0
  9 10  1  0
 10 11  1  0
 11 12  2  0
 11 13  1  0
 13 14  2  0
 14 15  1  0
 15 16  2  0
 16 17  1  0
 17 18  1  0
 18 19  1  0
 18 20  2  0
 18 21  2  0
 16 22  1  0
 22 23  2  0
  9  4  1  0
 23 13  1  0
  1 24  1  0
  1 25  1  0
  1 26  1  0
  2 27  1  0
  2 28  1  0
  5 29  1  0
  6 30  1  0
  7 31  1  0
  8 32  1  0
 10 33  1  0
 14 34  1  0
 15 35  1  0
 19 36  1  0
 19 37  1  0
 19 38  1  0
 22 39  1  0
 23 40  1  0
M  CHG  1  17  -1
M  END
>  <UniqueID>  (42) 
37

>  <SMILES>  (42) 
CCOc1ccccc1NC(=O)c1ccc([N-]S(C)(=O)=O)cc1

>  <Energy>  (42) 
43.581777379433944

>  <Genealogy>  (42) 
CCOc1ccccc1NC(=O)c1ccc([N-]S(C)(=O)=O)cc1 (protonated)
CCOc1ccccc1NC(=O)c1ccc([N-]S(C)(=O)=O)cc1 (3D coordinates assigned)
CCOc1ccccc1NC(=O)c1ccc([N-]S(C)(=O)=O)cc1 (optimized conformer: 43.581777379433944 kcal/mol)

>  <smiles>  (42) 
CCOc1ccccc1NC(=O)c1ccc(NS(C)(=O)=O)cc1

>  <score_type>  (42) 
oracle

>  <origin>  (42) 
adg

>  <m_score__min__energy>  (42) 
-8.9199999999999999

>  <m_primary>  (42) 
energy

$$$$
42:0
     RDKit          3D

 46 48  0  0  0  0  0  0  0  0999 V2000
   -0.4670   22.5870  -26.2410 C   0  0  0  0  0  0  0  0  0  0  0  0
   -1.2790   23.2480  -27.3230 C   0  0  0  0  0  0  0  0  0  0  0  0
   -1.0500   24.6030  -27.6270 C   0  0  0  0  0  0  0  0  0  0  0  0
   -1.7850   25.2410  -28.6260 C   0  0  0  0  0  0  0  0  0  0  0  0
   -2.7520   24.5390  -29.3500 C   0  0  0  0  0  0  0  0  0  0  0  0
   -3.4940   25.2330  -30.3630 N   0  0  0  0  0  0  0  0  0  0  0  0
   -4.9220   25.2480  -30.4980 C   0  0  0  0  0  0  0  0  0  0  0  0
   -5.5540   26.3430  -30.4760 O   0  0  0  0  0  0  0  0  0  0  0  0
   -5.6600   23.9360  -30.6360 C   0  0  1  0  0  0  0  0  0  0  0  0
   -7.1740   24.1810  -30.8530 C   0  0  0  0  0  0  0  0  0  0  0  0
   -7.8680   23.0280  -31.6060 C   0  0  0  0  0  0  0  0  0  0  0  0
   -7.2050   21.7310  -31.3360 N   0  0  1  0  0  0  0  0  0  0  0  0
   -7.9730   20.6150  -31.8590 C   0  0  0  0  0  0  0  0  0  0  0  0
   -9.2340   20.6730  -31.8130 O   0  0  0  0  0  0  0  0  0  0  0  0
   -7.3590   19.3970  -32.4560 C   0  0  0  0  0  0  0  0  0  0  0  0
   -7.4570   18.0710  -32.0310 C   0  0  0  0  0  0  0  0  0  0  0  0
   -6.7570   17.1690  -32.8450 C   0  0  0  0  0  0  0  0  0  0  0  0
   -6.1070   17.7650  -33.9140 C   0  0  0  0  0  0  0  0  0  0  0  0
   -6.4110   19.4140  -33.8470 S   0  0  0  0  0  0  0  0  0  0  0  0
   -5.7910   21.6750  -31.7910 C   0  0  0  0  0  0  0  0  0  0  0  0
   -5.0890   23.0480  -31.7610 C   0  0  0  0  0  0  0  0  0  0  0  0
   -3.0150   23.1940  -29.0310 C   0  0  0  0  0  0  0  0  0  0  0  0
   -2.2850   22.5390  -28.0240 C   0  0  0  0  0  0  0  0  0  0  0  0
   -2.5940   21.0980  -27.7040 C   0  0  0  0  0  0  0  0  0  0  0  0
   -0.8472   22.8965  -25.2563 H   0  0  0  0  0  0  0  0  0  0  0  0
   -0.5473   21.4942  -26.3381 H   0  0  0  0  0  0  0  0  0  0  0  0
    0.5867   22.8873  -26.3381 H   0  0  0  0  0  0  0  0  0  0  0  0
   -0.2841   25.1641  -27.0715 H   0  0  0  0  0  0  0  0  0  0  0  0
   -1.6022   26.3033  -28.8452 H   0  0  0  0  0  0  0  0  0  0  0  0
   -5.5155   23.3895  -29.6923 H   0  0  0  0  0  0  0  0  0  0  0  0
   -7.2997   25.1059  -31.4350 H   0  0  0  0  0  0  0  0  0  0  0  0
   -7.6415   24.2546  -29.8600 H   0  0  0  0  0  0  0  0  0  0  0  0
   -7.8298   23.2316  -32.6863 H   0  0  0  0  0  0  0  0  0  0  0  0
   -8.9095   22.9640  -31.2579 H   0  0  0  0  0  0  0  0  0  0  0  0
   -7.1940   21.6230  -30.2920 H   0  0  0  0  0  0  0  0  0  0  0  0
   -8.0284   17.7632  -31.1429 H   0  0  0  0  0  0  0  0  0  0  0  0
   -6.7266   16.0864  -32.6525 H   0  0  0  0  0  0  0  0  0  0  0  0
   -5.4996   17.2488  -34.6720 H   0  0  0  0  0  0  0  0  0  0  0  0
   -5.7704   21.2941  -32.8228 H   0  0  0  0  0  0  0  0  0  0  0  0
   -5.2497   21.0155  -31.0966 H   0  0  0  0  0  0  0  0  0  0  0  0
   -5.2401   23.5505  -32.7278 H   0  0  0  0  0  0  0  0  0  0  0  0
   -4.0169   22.8896  -31.5726 H   0  0  0  0  0  0  0  0  0  0  0  0
   -3.8003   22.6492  -29.5755 H   0  0  0  0  0  0  0  0  0  0  0  0
   -2.6230   20.9628  -26.6127 H   0  0  0  0  0  0  0  0  0  0  0  0
   -3.5704   20.8284  -28.1329 H   0  0  0  0  0  0  0  0  0  0  0  0
   -1.8140   20.4517  -28.1329 H   0  0  0  0  0  0  0  0  0  0  0  0
  1  2  1  0
  2  3  2  0
  3  4  1  0
  4  5  2  0
  5  6  1  0
  6  7  1  0
  7  8  2  0
  7  9  1  0
  9 10  1  0
 10 11  1  0
 11 12  1  0
 12 13  1  0
 13 14  2  0
 13 15  1  0
 15 16  2  0
 16 17  1  0
 17 18  2  0
 18 19  1  0
 12 20  1  0
 20 21  1  0
  5 22  1  0
 22 23  2  0
 23 24  1  0
 23  2  1  0
 21  9  1  0
 19 15  1  0
  1 25  1  0
  1 26  1  0
  1 27  1  0
  3 28  1  0
  4 29  1  0
  9 30  1  1
 10 31  1  0
 10 32  1  0
 11 33  1  0
 11 34  1  0
 12 35  1  1
 16 36  1  0
 17 37  1  0
 18 38  1  0
 20 39  1  0
 20 40  1  0
 21 41  1  0
 21 42  1  0
 22 43  1  0
 24 44  1  0
 24 45  1  0
 24 46  1  0
M  CHG  2   6  -1  12   1
M  END
>  <UniqueID>  (43) 
38

>  <SMILES>  (43) 
Cc1ccc([N-]C(=O)C2CC[NH+](C(=O)c3cccs3)CC2)cc1C

>  <Energy>  (43) 
88.87543268841408

>  <Genealogy>  (43) 
Cc1ccc([N-]C(=O)C2CC[NH+](C(=O)c3cccs3)CC2)cc1C (protonated)
Cc1ccc([N-]C(=O)C2CC[NH+](C(=O)c3cccs3)CC2)cc1C (3D coordinates assigned)
Cc1ccc([N-]C(=O)C2CC[NH+](C(=O)c3cccs3)CC2)cc1C (nonaromatic ring conformer: 88.87543268841408 kcal/mol)

>  <smiles>  (43) 
Cc1ccc(NC(=O)C2CCN(C(=O)c3cccs3)CC2)cc1C

>  <score_type>  (43) 
oracle

>  <origin>  (43) 
adg

>  <m_score__min__energy>  (43) 
-10.42

>  <m_primary>  (43) 
energy

$$$$
43:0
     RDKit          3D

 71 75  0  0  0  0  0  0  0  0999 V2000
   -0.9620   17.6650  -33.6870 C   0  0  0  0  0  0  0  0  0  0  0  0
   -0.6530   17.1200  -32.2980 C   0  0  0  0  0  0  0  0  0  0  0  0
   -0.4050   18.1850  -31.3820 O   0  0  0  0  0  0  0  0  0  0  0  0
    0.1380   18.0500  -30.0910 C   0  0  0  0  0  0  0  0  0  0  0  0
    0.8230   16.8890  -29.6790 C   0  0  0  0  0  0  0  0  0  0  0  0
    1.3600   16.8040  -28.3920 C   0  0  0  0  0  0  0  0  0  0  0  0
    1.2180   17.8670  -27.5020 C   0  0  0  0  0  0  0  0  0  0  0  0
    0.5330   19.0170  -27.8940 C   0  0  0  0  0  0  0  0  0  0  0  0
   -0.0060   19.1190  -29.1860 C   0  0  0  0  0  0  0  0  0  0  0  0
   -0.7310   20.3030  -29.5630 N   0  0  0  0  0  0  0  0  0  0  0  0
   -0.1640   21.2250  -30.5540 C   0  0  0  0  0  0  0  0  0  0  0  0
   -1.2570   21.7030  -31.5270 C   0  0  0  0  0  0  0  0  0  0  0  0
   -2.2970   20.6620  -31.6830 N   0  0  0  0  0  0  0  0  0  0  0  0
   -3.2230   20.9660  -32.7620 C   0  0  0  0  0  0  0  0  0  0  0  0
   -3.4150   20.1620  -33.6640 O   0  0  0  0  0  0  0  0  0  0  0  0
   -3.8640   22.3300  -32.8620 C   0  0  0  0  0  0  0  0  0  0  0  0
   -4.8080   22.5510  -31.7530 N   0  0  0  0  0  0  0  0  0  0  0  0
   -4.5970   23.6750  -30.8680 C   0  0  0  0  0  0  0  0  0  0  0  0
   -3.4860   24.2720  -30.8500 O   0  0  0  0  0  0  0  0  0  0  0  0
   -5.6960   24.1510  -29.9660 C   0  0  0  0  0  0  0  0  0  0  0  0
   -7.2380   24.2000  -30.9230 S   0  0  0  0  0  0  0  0  0  0  0  0
   -7.2170   22.4290  -31.2060 C   0  0  0  0  0  0  0  0  0  0  0  0
   -8.3830   21.6870  -30.9900 C   0  0  0  0  0  0  0  0  0  0  0  0
   -8.4060   20.3210  -31.2700 C   0  0  0  0  0  0  0  0  0  0  0  0
   -7.2540   19.6790  -31.7360 C   0  0  0  0  0  0  0  0  0  0  0  0
   -7.3190   17.9630  -32.1380 S   0  0  0  0  0  0  0  0  0  0  0  0
   -8.7430   17.5020  -32.0120 O   0  0  0  0  0  0  0  0  0  0  0  0
   -6.4760   17.1770  -31.1710 O   0  0  0  0  0  0  0  0  0  0  0  0
   -6.7700   17.7000  -33.7820 N   0  0  0  0  0  0  0  0  0  0  0  0
   -5.4390   18.2880  -34.0210 C   0  0  0  0  0  0  0  0  0  0  0  0
   -4.3060   17.4700  -33.3540 C   0  0  0  0  0  0  0  0  0  0  0  0
   -4.6850   16.1480  -33.0150 O   0  0  0  0  0  0  0  0  0  0  0  0
   -5.4480   15.5770  -34.0540 C   0  0  0  0  0  0  0  0  0  0  0  0
   -6.8210   16.2690  -34.1530 C   0  0  0  0  0  0  0  0  0  0  0  0
   -6.0700   20.4090  -31.9020 C   0  0  0  0  0  0  0  0  0  0  0  0
   -6.0400   21.7940  -31.6540 C   0  0  0  0  0  0  0  0  0  0  0  0
   -3.0470   20.4560  -30.4190 C   0  0  0  0  0  0  0  0  0  0  0  0
   -2.1340   20.4770  -29.1750 C   0  0  0  0  0  0  0  0  0  0  0  0
   -1.5026   18.6185  -33.5948 H   0  0  0  0  0  0  0  0  0  0  0  0
   -0.0219   17.8279  -34.2344 H   0  0  0  0  0  0  0  0  0  0  0  0
   -1.5845   16.9420  -34.2344 H   0  0  0  0  0  0  0  0  0  0  0  0
   -1.5108   16.5303  -31.9424 H   0  0  0  0  0  0  0  0  0  0  0  0
    0.2457   16.4886  -32.3578 H   0  0  0  0  0  0  0  0  0  0  0  0
    0.9355   16.0447  -30.3751 H   0  0  0  0  0  0  0  0  0  0  0  0
    1.8963   15.8956  -28.0803 H   0  0  0  0  0  0  0  0  0  0  0  0
    1.6459   17.7991  -26.4909 H   0  0  0  0  0  0  0  0  0  0  0  0
    0.4143   19.8500  -27.1855 H   0  0  0  0  0  0  0  0  0  0  0  0
    0.2660   22.0948  -30.0359 H   0  0  0  0  0  0  0  0  0  0  0  0
    0.6175   20.7010  -31.1238 H   0  0  0  0  0  0  0  0  0  0  0  0
   -1.7182   22.6204  -31.1323 H   0  0  0  0  0  0  0  0  0  0  0  0
   -0.8005   21.9024  -32.5078 H   0  0  0  0  0  0  0  0  0  0  0  0
   -1.8070   19.7710  -31.9260 H   0  0  0  0  0  0  0  0  0  0  0  0
   -3.0793   23.1000  -32.8256 H   0  0  0  0  0  0  0  0  0  0  0  0
   -4.4173   22.3890  -33.8109 H   0  0  0  0  0  0  0  0  0  0  0  0
   -5.8066   23.4596  -29.1176 H   0  0  0  0  0  0  0  0  0  0  0  0
   -5.4597   25.1522  -29.5765 H   0  0  0  0  0  0  0  0  0  0  0  0
   -9.2838   22.1821  -30.5984 H   0  0  0  0  0  0  0  0  0  0  0  0
   -9.3328   19.7468  -31.1240 H   0  0  0  0  0  0  0  0  0  0  0  0
   -5.2579   18.3240  -35.1054 H   0  0  0  0  0  0  0  0  0  0  0  0
   -5.4319   19.2950  -33.5785 H   0  0  0  0  0  0  0  0  0  0  0  0
   -3.4564   17.4203  -34.0509 H   0  0  0  0  0  0  0  0  0  0  0  0
   -4.0479   17.9823  -32.4154 H   0  0  0  0  0  0  0  0  0  0  0  0
   -4.9114   15.6978  -35.0066 H   0  0  0  0  0  0  0  0  0  0  0  0
   -5.6007   14.5089  -33.8398 H   0  0  0  0  0  0  0  0  0  0  0  0
   -7.1819   16.1872  -35.1889 H   0  0  0  0  0  0  0  0  0  0  0  0
   -7.4965   15.7672  -33.4446 H   0  0  0  0  0  0  0  0  0  0  0  0
   -5.1545   19.8945  -32.2295 H   0  0  0  0  0  0  0  0  0  0  0  0
   -3.7957   21.2557  -30.3196 H   0  0  0  0  0  0  0  0  0  0  0  0
   -3.5172   19.4628  -30.4695 H   0  0  0  0  0  0  0  0  0  0  0  0
   -2.2494   21.4410  -28.6579 H   0  0  0  0  0  0  0  0  0  0  0  0
   -2.4231   19.6512  -28.5083 H   0  0  0  0  0  0  0  0  0  0  0  0
  1  2  1  0
  2  3  1  0
  3  4  1  0
  4  5  2  0
  5  6  1  0
  6  7  2  0
  7  8  1  0
  8  9  2  0
  9 10  1  0
 10 11  1  0
 11 12  1  0
 12 13  1  0
 13 14  1  0
 14 15  2  0
 14 16  1  0
 16 17  1  0
 17 18  1  0
 18 19  2  0
 18 20  1  0
 20 21  1  0
 21 22  1  0
 22 23  2  0
 23 24  1  0
 24 25  2  0
 25 26  1  0
 26 27  2  0
 26 28  2  0
 26 29  1  0
 29 30  1  0
 30 31  1  0
 31 32  1  0
 32 33  1  0
 33 34  1  0
 25 35  1  0
 35 36  2  0
 13 37  1  0
 37 38  1  0
  9  4  1  0
 38 10  1  0
 36 17  1  0
 36 22  1  0
 34 29  1  0
  1 39  1  0
  1 40  1  0
  1 41  1  0
  2 42  1  0
  2 43  1  0
  5 44  1  0
  6 45  1  0
  7 46  1  0
  8 47  1  0
 11 48  1  0
 11 49  1  0
 12 50  1  0
 12 51  1  0
 13 52  1  0
 16 53  1  0
 16 54  1  0
 20 55  1  0
 20 56  1  0
 23 57  1  0
 24 58  1  0
 30 59  1  0
 30 60  1  0
 31 61  1  0
 31 62  1  0
 33 63  1  0
 33 64  1  0
 34 65  1  0
 34 66  1  0
 35 67  1  0
 37 68  1  0
 37 69  1  0
 38 70  1  0
 38 71  1  0
M  CHG  1  13   1
M  END
>  <UniqueID>  (44) 
39

>  <SMILES>  (44) 
CCOc1ccccc1N1CC[NH+](C(=O)CN2C(=O)CSc3ccc(S(=O)(=O)N4CCOCC4)cc32)CC1

>  <Energy>  (44) 
96.6386288143825

>  <Genealogy>  (44) 
CCOc1ccccc1N1CC[NH+](C(=O)CN2C(=O)CSc3ccc(S(=O)(=O)N4CCOCC4)cc32)CC1 (protonated)
CCOc1ccccc1N1CC[NH+](C(=O)CN2C(=O)CSc3ccc(S(=O)(=O)N4CCOCC4)cc32)CC1 (3D coordinates assigned)
CCOc1ccccc1N1CC[NH+](C(=O)CN2C(=O)CSc3ccc(S(=O)(=O)N4CCOCC4)cc32)CC1 (nonaromatic ring conformer: 96.6386288143825 kcal/mol)

>  <smiles>  (44) 
CCOc1ccccc1N1CCN(C(=O)CN2C(=O)CSc3ccc(S(=O)(=O)N4CCOCC4)cc32)CC1

>  <score_type>  (44) 
oracle

>  <origin>  (44) 
adg

>  <m_score__min__energy>  (44) 
-9.7899999999999991

>  <m_primary>  (44) 
energy

$$$$
44:0
     RDKit          3D

 48 50  0  0  0  0  0  0  0  0999 V2000
   -9.1130   19.0390  -32.2260 C   0  0  0  0  0  0  0  0  0  0  0  0
   -8.6220   20.4200  -32.6470 C   0  0  0  0  0  0  0  0  0  0  0  0
   -7.7240   21.0690  -31.5830 C   0  0  0  0  0  0  0  0  0  0  0  0
   -6.4060   21.4400  -32.1190 N   0  0  0  0  0  0  0  0  0  0  0  0
   -5.8330   22.6620  -32.1390 C   0  0  0  0  0  0  0  0  0  0  0  0
   -6.5850   24.1650  -31.4960 S   0  0  0  0  0  0  0  0  0  0  0  0
   -5.8250   24.0230  -29.8410 C   0  0  0  0  0  0  0  0  0  0  0  0
   -4.3320   24.1640  -29.9550 C   0  0  0  0  0  0  0  0  0  0  0  0
   -3.8690   25.2150  -30.4820 O   0  0  0  0  0  0  0  0  0  0  0  0
   -3.4320   23.1220  -29.5240 N   0  0  0  0  0  0  0  0  0  0  0  0
   -2.0780   23.0500  -30.1030 C   0  0  0  0  0  0  0  0  0  0  0  0
   -1.6380   21.5880  -30.2340 C   0  0  0  0  0  0  0  0  0  0  0  0
   -1.7490   20.8040  -28.9070 C   0  0  0  0  0  0  0  0  0  0  0  0
   -2.5750   21.5260  -27.8300 C   0  0  0  0  0  0  0  0  0  0  0  0
   -3.8080   22.2110  -28.4320 C   0  0  0  0  0  0  0  0  0  0  0  0
   -4.6490   22.6460  -32.7760 N   0  0  0  0  0  0  0  0  0  0  0  0
   -4.4450   21.4030  -33.1850 N   0  0  0  0  0  0  0  0  0  0  0  0
   -5.5180   20.6820  -32.8090 C   0  0  0  0  0  0  0  0  0  0  0  0
   -5.6840   19.2560  -33.1420 C   0  0  0  0  0  0  0  0  0  0  0  0
   -5.7330   18.8360  -34.4840 C   0  0  0  0  0  0  0  0  0  0  0  0
   -5.9420   17.4870  -34.7890 C   0  0  0  0  0  0  0  0  0  0  0  0
   -6.1000   16.5490  -33.7640 C   0  0  0  0  0  0  0  0  0  0  0  0
   -6.0140   16.9550  -32.4290 C   0  0  0  0  0  0  0  0  0  0  0  0
   -5.8070   18.3020  -32.1130 C   0  0  0  0  0  0  0  0  0  0  0  0
   -5.7630   18.6810  -30.8100 F   0  0  0  0  0  0  0  0  0  0  0  0
   -9.1351   18.9767  -31.1280 H   0  0  0  0  0  0  0  0  0  0  0  0
  -10.1253   18.8729  -32.6232 H   0  0  0  0  0  0  0  0  0  0  0  0
   -8.4328   18.2712  -32.6232 H   0  0  0  0  0  0  0  0  0  0  0  0
   -8.0495   20.3223  -33.5812 H   0  0  0  0  0  0  0  0  0  0  0  0
   -9.5036   21.0640  -32.7815 H   0  0  0  0  0  0  0  0  0  0  0  0
   -8.2205   21.9750  -31.2053 H   0  0  0  0  0  0  0  0  0  0  0  0
   -7.5669   20.3339  -30.7800 H   0  0  0  0  0  0  0  0  0  0  0  0
   -6.2185   24.8165  -29.1887 H   0  0  0  0  0  0  0  0  0  0  0  0
   -6.0663   23.0390  -29.4125 H   0  0  0  0  0  0  0  0  0  0  0  0
   -2.0824   23.5191  -31.0980 H   0  0  0  0  0  0  0  0  0  0  0  0
   -1.3755   23.5794  -29.4425 H   0  0  0  0  0  0  0  0  0  0  0  0
   -2.2730   21.0966  -30.9859 H   0  0  0  0  0  0  0  0  0  0  0  0
   -0.5783   21.5880  -30.5291 H   0  0  0  0  0  0  0  0  0  0  0  0
   -2.2229   19.8335  -29.1156 H   0  0  0  0  0  0  0  0  0  0  0  0
   -0.7285   20.6962  -28.5109 H   0  0  0  0  0  0  0  0  0  0  0  0
   -2.9046   20.7916  -27.0803 H   0  0  0  0  0  0  0  0  0  0  0  0
   -1.9415   22.2985  -27.3696 H   0  0  0  0  0  0  0  0  0  0  0  0
   -4.4892   21.4420  -28.8251 H   0  0  0  0  0  0  0  0  0  0  0  0
   -4.2995   22.7986  -27.6426 H   0  0  0  0  0  0  0  0  0  0  0  0
   -5.6068   19.5693  -35.2942 H   0  0  0  0  0  0  0  0  0  0  0  0
   -5.9822   17.1627  -35.8393 H   0  0  0  0  0  0  0  0  0  0  0  0
   -6.2916   15.4936  -34.0077 H   0  0  0  0  0  0  0  0  0  0  0  0
   -6.1095   16.2120  -31.6235 H   0  0  0  0  0  0  0  0  0  0  0  0
  1  2  1  0
  2  3  1  0
  3  4  1  0
  4  5  1  0
  5  6  1  0
  6  7  1  0
  7  8  1  0
  8  9  2  0
  8 10  1  0
 10 11  1  0
 11 12  1  0
 12 13  1  0
 13 14  1  0
 14 15  1  0
  5 16  2  0
 16 17  1  0
 17 18  2  0
 18 19  1  0
 19 20  2  0
 20 21  1  0
 21 22  2  0
 22 23  1  0
 23 24  2  0
 24 25  1  0
 18  4  1  0
 24 19  1  0
 15 10  1  0
  1 26  1  0
  1 27  1  0
  1 28  1  0
  2 29  1  0
  2 30  1  0
  3 31  1  0
  3 32  1  0
  7 33  1  0
  7 34  1  0
 11 35  1  0
 11 36  1  0
 12 37  1  0
 12 38  1  0
 13 39  1  0
 13 40  1  0
 14 41  1  0
 14 42  1  0
 15 43  1  0
 15 44  1  0
 20 45  1  0
 21 46  1  0
 22 47  1  0
 23 48  1  0
M  END
>  <UniqueID>  (45) 
40

>  <SMILES>  (45) 
CCCn1c(SCC(=O)N2CCCCC2)nnc1-c1ccccc1F

>  <Energy>  (45) 
82.63865240594097

>  <Genealogy>  (45) 
CCCn1c(SCC(=O)N2CCCCC2)nnc1-c1ccccc1F (3D coordinates assigned)
CCCn1c(SCC(=O)N2CCCCC2)nnc1-c1ccccc1F (nonaromatic ring conformer: 82.63865240594097 kcal/mol)

>  <smiles>  (45) 
CCCn1c(SCC(=O)N2CCCCC2)nnc1-c1ccccc1F

>  <score_type>  (45) 
oracle

>  <origin>  (45) 
adg

>  <m_score__min__energy>  (45) 
-9.4600000000000009

>  <m_primary>  (45) 
energy

$$$$
45:0
     RDKit          3D

 41 44  0  0  0  0  0  0  0  0999 V2000
   -1.2040   26.2650  -28.0650 C   0  0  0  0  0  0  0  0  0  0  0  0
   -1.8720   25.3980  -28.9760 O   0  0  0  0  0  0  0  0  0  0  0  0
   -1.6520   24.0140  -29.0700 C   0  0  0  0  0  0  0  0  0  0  0  0
   -0.3770   23.4540  -28.8490 C   0  0  0  0  0  0  0  0  0  0  0  0
   -0.1900   22.0710  -28.9100 C   0  0  0  0  0  0  0  0  0  0  0  0
   -1.2670   21.2320  -29.1940 C   0  0  0  0  0  0  0  0  0  0  0  0
   -2.5330   21.7720  -29.4220 C   0  0  0  0  0  0  0  0  0  0  0  0
   -2.7380   23.1610  -29.3680 C   0  0  0  0  0  0  0  0  0  0  0  0
   -4.0920   23.7000  -29.6240 C   0  0  0  0  0  0  0  0  0  0  0  0
   -4.5550   24.9240  -29.2490 N   0  0  0  0  0  0  0  0  0  0  0  0
   -5.8260   25.0520  -29.6440 N   0  0  0  0  0  0  0  0  0  0  0  0
   -6.0890   23.8920  -30.2710 C   0  0  0  0  0  0  0  0  0  0  0  0
   -7.4660   23.2020  -30.9240 S   0  0  0  0  0  0  0  0  0  0  0  0
   -6.5600   21.7530  -31.2030 C   0  0  0  0  0  0  0  0  0  0  0  0
   -7.1310   20.5100  -31.7700 C   0  0  0  0  0  0  0  0  0  0  0  0
   -8.4980   20.2530  -31.5590 C   0  0  0  0  0  0  0  0  0  0  0  0
   -9.0850   19.0760  -32.0250 C   0  0  0  0  0  0  0  0  0  0  0  0
   -8.3160   18.1370  -32.7070 C   0  0  0  0  0  0  0  0  0  0  0  0
   -6.9620   18.3780  -32.9410 C   0  0  0  0  0  0  0  0  0  0  0  0
   -6.3540   19.5650  -32.4960 C   0  0  0  0  0  0  0  0  0  0  0  0
   -4.6490   19.8490  -32.9030 S   0  0  0  0  0  0  0  0  0  0  0  0
   -4.0480   18.6980  -34.1240 C   0  0  0  0  0  0  0  0  0  0  0  0
   -3.8090   19.7140  -31.6640 O   0  0  0  0  0  0  0  0  0  0  0  0
   -4.4870   21.2300  -33.4760 O   0  0  0  0  0  0  0  0  0  0  0  0
   -5.2750   21.8540  -30.7550 N   0  0  0  0  0  0  0  0  0  0  0  0
   -5.0730   23.0710  -30.2770 N   0  0  0  0  0  0  0  0  0  0  0  0
   -1.4369   25.9627  -27.0333 H   0  0  0  0  0  0  0  0  0  0  0  0
   -0.1181   26.2029  -28.2290 H   0  0  0  0  0  0  0  0  0  0  0  0
   -1.5410   27.2992  -28.2290 H   0  0  0  0  0  0  0  0  0  0  0  0
    0.4768   24.1110  -28.6269 H   0  0  0  0  0  0  0  0  0  0  0  0
    0.8080   21.6433  -28.7338 H   0  0  0  0  0  0  0  0  0  0  0  0
   -1.1182   20.1430  -29.2383 H   0  0  0  0  0  0  0  0  0  0  0  0
   -3.3781   21.1045  -29.6460 H   0  0  0  0  0  0  0  0  0  0  0  0
   -4.0240   25.6700  -28.7460 H   0  0  0  0  0  0  0  0  0  0  0  0
   -9.1120   20.9894  -31.0197 H   0  0  0  0  0  0  0  0  0  0  0  0
  -10.1555   18.8900  -31.8535 H   0  0  0  0  0  0  0  0  0  0  0  0
   -8.7768   17.2034  -33.0620 H   0  0  0  0  0  0  0  0  0  0  0  0
   -6.3625   17.6299  -33.4805 H   0  0  0  0  0  0  0  0  0  0  0  0
   -3.5955   17.8315  -33.6197 H   0  0  0  0  0  0  0  0  0  0  0  0
   -4.8849   18.3604  -34.7529 H   0  0  0  0  0  0  0  0  0  0  0  0
   -3.2926   19.1918  -34.7529 H   0  0  0  0  0  0  0  0  0  0  0  0
  1  2  1  0
  2  3  1  0
  3  4  2  0
  4  5  1  0
  5  6  2  0
  6  7  1  0
  7  8  2  0
  8  9  1  0
  9 10  2  0
 10 11  1  0
 11 12  2  0
 12 13  1  0
 13 14  1  0
 14 15  1  0
 15 16  2  0
 16 17  1  0
 17 18  2  0
 18 19  1  0
 19 20  2  0
 20 21  1  0
 21 22  1  0
 21 23  2  0
 21 24  2  0
 14 25  2  0
 25 26  1  0
  8  3  1  0
 26  9  1  0
 26 12  1  0
 20 15  1  0
  1 27  1  0
  1 28  1  0
  1 29  1  0
  4 30  1  0
  5 31  1  0
  6 32  1  0
  7 33  1  0
 10 34  1  0
 16 35  1  0
 17 36  1  0
 18 37  1  0
 19 38  1  0
 22 39  1  0
 22 40  1  0
 22 41  1  0
M  CHG  1  10   1
M  END
>  <UniqueID>  (46) 
41

>  <SMILES>  (46) 
COc1ccccc1-c1[nH+]nc2sc(-c3ccccc3S(C)(=O)=O)nn12

>  <Energy>  (46) 
146.28984718388043

>  <Genealogy>  (46) 
COc1ccccc1-c1[nH+]nc2sc(-c3ccccc3S(C)(=O)=O)nn12 (protonated)
COc1ccccc1-c1[nH+]nc2sc(-c3ccccc3S(C)(=O)=O)nn12 (3D coordinates assigned)
COc1ccccc1-c1[nH+]nc2sc(-c3ccccc3S(C)(=O)=O)nn12 (optimized conformer: 146.28984718388043 kcal/mol)

>  <smiles>  (46) 
COc1ccccc1-c1nnc2sc(-c3ccccc3S(C)(=O)=O)nn12

>  <score_type>  (46) 
oracle

>  <origin>  (46) 
adg

>  <m_score__min__energy>  (46) 
-9.3399999999999999

>  <m_primary>  (46) 
energy

$$$$
46:0
     RDKit          3D

 51 53  0  0  0  0  0  0  0  0999 V2000
   -3.4420   18.4410  -33.9380 C   0  0  0  0  0  0  0  0  0  0  0  0
   -4.9470   18.6860  -34.1230 C   0  0  0  0  0  0  0  0  0  0  0  0
   -5.4010   20.0270  -33.6720 N   0  0  0  0  0  0  0  0  0  0  0  0
   -6.8480   20.0980  -33.3470 C   0  0  0  0  0  0  0  0  0  0  0  0
   -7.3790   18.8150  -32.7020 C   0  0  0  0  0  0  0  0  0  0  0  0
   -4.5740   20.5370  -32.5510 C   0  0  0  0  0  0  0  0  0  0  0  0
   -4.5150   22.0720  -32.5480 C   0  0  0  0  0  0  0  0  0  0  0  0
   -4.4430   22.6140  -31.1670 N   0  0  0  0  0  0  0  0  0  0  0  0
   -5.5760   22.9890  -30.4770 C   0  0  0  0  0  0  0  0  0  0  0  0
   -6.9430   22.7260  -30.9870 C   0  0  0  0  0  0  0  0  0  0  0  0
   -7.6870   21.6330  -30.5120 C   0  0  0  0  0  0  0  0  0  0  0  0
   -8.9870   21.4100  -30.9780 C   0  0  0  0  0  0  0  0  0  0  0  0
   -9.5600   22.2900  -31.9000 C   0  0  0  0  0  0  0  0  0  0  0  0
   -8.8410   23.4040  -32.3420 C   0  0  0  0  0  0  0  0  0  0  0  0
   -7.5410   23.6300  -31.8790 C   0  0  0  0  0  0  0  0  0  0  0  0
   -5.4660   23.5920  -29.2640 N   0  0  0  0  0  0  0  0  0  0  0  0
   -4.2620   23.8170  -28.6800 C   0  0  0  0  0  0  0  0  0  0  0  0
   -4.2110   24.4430  -27.4250 C   0  0  0  0  0  0  0  0  0  0  0  0
   -2.9910   24.6740  -26.8010 C   0  0  0  0  0  0  0  0  0  0  0  0
   -1.8060   24.2850  -27.4170 C   0  0  0  0  0  0  0  0  0  0  0  0
   -1.8180   23.6530  -28.6740 C   0  0  0  0  0  0  0  0  0  0  0  0
   -0.4850   23.2690  -29.2730 C   0  0  0  0  0  0  0  0  0  0  0  0
   -3.0710   23.4100  -29.3250 C   0  0  0  0  0  0  0  0  0  0  0  0
   -3.2050   22.7870  -30.5920 C   0  0  0  0  0  0  0  0  0  0  0  0
   -2.1790   22.3810  -31.2060 O   0  0  0  0  0  0  0  0  0  0  0  0
   -3.2060   18.4026  -32.8643 H   0  0  0  0  0  0  0  0  0  0  0  0
   -3.1654   17.4860  -34.4086 H   0  0  0  0  0  0  0  0  0  0  0  0
   -2.8768   19.2590  -34.4086 H   0  0  0  0  0  0  0  0  0  0  0  0
   -5.1857   18.5814  -35.1917 H   0  0  0  0  0  0  0  0  0  0  0  0
   -5.4690   17.9465  -33.4980 H   0  0  0  0  0  0  0  0  0  0  0  0
   -7.0104   20.9338  -32.6506 H   0  0  0  0  0  0  0  0  0  0  0  0
   -7.3914   20.2406  -34.2927 H   0  0  0  0  0  0  0  0  0  0  0  0
   -7.3391   18.9114  -31.6070 H   0  0  0  0  0  0  0  0  0  0  0  0
   -8.4196   18.6493  -33.0178 H   0  0  0  0  0  0  0  0  0  0  0  0
   -6.7598   17.9624  -33.0178 H   0  0  0  0  0  0  0  0  0  0  0  0
   -5.0094   20.1942  -31.6008 H   0  0  0  0  0  0  0  0  0  0  0  0
   -3.5508   20.1525  -32.6742 H   0  0  0  0  0  0  0  0  0  0  0  0
   -3.6238   22.3960  -33.1055 H   0  0  0  0  0  0  0  0  0  0  0  0
   -5.4332   22.4524  -33.0193 H   0  0  0  0  0  0  0  0  0  0  0  0
   -7.2457   20.9502  -29.7710 H   0  0  0  0  0  0  0  0  0  0  0  0
   -9.5585   20.5416  -30.6185 H   0  0  0  0  0  0  0  0  0  0  0  0
  -10.5766   22.1060  -32.2777 H   0  0  0  0  0  0  0  0  0  0  0  0
   -9.2988   24.1047  -33.0558 H   0  0  0  0  0  0  0  0  0  0  0  0
   -6.9857   24.5183  -32.2146 H   0  0  0  0  0  0  0  0  0  0  0  0
   -6.3380   23.8740  -28.7600 H   0  0  0  0  0  0  0  0  0  0  0  0
   -5.1439   24.7532  -26.9315 H   0  0  0  0  0  0  0  0  0  0  0  0
   -2.9623   25.1657  -25.8174 H   0  0  0  0  0  0  0  0  0  0  0  0
   -0.8460   24.4742  -26.9143 H   0  0  0  0  0  0  0  0  0  0  0  0
    0.2335   23.0620  -28.4662 H   0  0  0  0  0  0  0  0  0  0  0  0
   -0.6077   22.3697  -29.8944 H   0  0  0  0  0  0  0  0  0  0  0  0
   -0.1104   24.0958  -29.8944 H   0  0  0  0  0  0  0  0  0  0  0  0
  1  2  1  0
  2  3  1  0
  3  4  1  0
  4  5  1  0
  3  6  1  0
  6  7  1  0
  7  8  1  0
  8  9  1  0
  9 10  1  0
 10 11  2  0
 11 12  1  0
 12 13  2  0
 13 14  1  0
 14 15  2  0
  9 16  2  0
 16 17  1  0
 17 18  2  0
 18 19  1  0
 19 20  2  0
 20 21  1  0
 21 22  1  0
 21 23  2  0
 23 24  1  0
 24 25  2  0
 24  8  1  0
 15 10  1  0
 23 17  1  0
  1 26  1  0
  1 27  1  0
  1 28  1  0
  2 29  1  0
  2 30  1  0
  4 31  1  0
  4 32  1  0
  5 33  1  0
  5 34  1  0
  5 35  1  0
  6 36  1  0
  6 37  1  0
  7 38  1  0
  7 39  1  0
 11 40  1  0
 12 41  1  0
 13 42  1  0
 14 43  1  0
 15 44  1  0
 16 45  1  0
 18 46  1  0
 19 47  1  0
 20 48  1  0
 22 49  1  0
 22 50  1  0
 22 51  1  0
M  CHG  1  16   1
M  END
>  <UniqueID>  (47) 
42

>  <SMILES>  (47) 
CCN(CC)CCn1c(-c2ccccc2)[nH+]c2cccc(C)c2c1=O

>  <Energy>  (47) 
72.48977919227825

>  <Genealogy>  (47) 
CCN(CC)CCn1c(-c2ccccc2)[nH+]c2cccc(C)c2c1=O (protonated)
CCN(CC)CCn1c(-c2ccccc2)[nH+]c2cccc(C)c2c1=O (3D coordinates assigned)
CCN(CC)CCn1c(-c2ccccc2)[nH+]c2cccc(C)c2c1=O (optimized conformer: 72.48977919227825 kcal/mol)

>  <smiles>  (47) 
CCN(CC)CCn1c(-c2ccccc2)nc2cccc(C)c2c1=O

>  <score_type>  (47) 
oracle

>  <origin>  (47) 
adg

>  <m_score__min__energy>  (47) 
-7.6200000000000001

>  <m_primary>  (47) 
energy

$$$$
