0:0
     RDKit          3D

 50 51  0  0  0  0  0  0  0  0999 V2000
   -6.8236   25.0507  -29.7060 H   0  0  0  0  0  0  0  0  0  0  0  0
   -6.0790   24.6370  -30.4020 C   0  0  0  0  0  0  0  0  0  0  0  0
   -4.6550   24.7530  -30.0210 C   0  0  0  0  0  0  0  0  0  0  0  0
   -3.8470   25.2840  -30.8310 O   0  0  0  0  0  0  0  0  0  0  0  0
   -4.2030   24.2830  -28.7840 O   0  0  0  0  0  0  0  0  0  0  0  0
   -4.3330   22.9350  -28.3380 C   0  0  0  0  0  0  0  0  0  0  0  0
   -5.2832   22.5259  -28.7119 H   0  0  0  0  0  0  0  0  0  0  0  0
   -4.3087   22.9340  -27.2383 H   0  0  0  0  0  0  0  0  0  0  0  0
   -3.1750   22.0520  -28.8450 C   0  0  0  0  0  0  0  0  0  0  0  0
   -3.5971   21.2290  -29.4404 H   0  0  0  0  0  0  0  0  0  0  0  0
   -2.6315   21.6850  -27.9618 H   0  0  0  0  0  0  0  0  0  0  0  0
   -2.1950   22.7990  -29.6930 N   0  0  0  0  0  0  0  0  0  0  0  0
   -2.6210   23.6720  -30.0830 H   0  0  0  0  0  0  0  0  0  0  0  0
   -1.7360   21.9880  -30.8520 C   0  0  0  0  0  0  0  0  0  0  0  0
   -0.6735   22.2075  -31.0335 H   0  0  0  0  0  0  0  0  0  0  0  0
   -2.3665   22.2596  -31.7114 H   0  0  0  0  0  0  0  0  0  0  0  0
   -1.8910   20.4800  -30.6320 C   0  0  0  0  0  0  0  0  0  0  0  0
   -1.9129   20.2672  -29.5530 H   0  0  0  0  0  0  0  0  0  0  0  0
   -2.8292   20.1368  -31.0925 H   0  0  0  0  0  0  0  0  0  0  0  0
   -1.0423   19.9531  -31.0925 H   0  0  0  0  0  0  0  0  0  0  0  0
   -1.0030   23.2070  -28.9020 C   0  0  0  0  0  0  0  0  0  0  0  0
   -0.9586   22.5906  -27.9920 H   0  0  0  0  0  0  0  0  0  0  0  0
   -0.1192   23.0615  -29.5405 H   0  0  0  0  0  0  0  0  0  0  0  0
   -1.0330   24.6860  -28.4900 C   0  0  0  0  0  0  0  0  0  0  0  0
   -1.0345   24.7610  -27.3926 H   0  0  0  0  0  0  0  0  0  0  0  0
   -0.1450   25.1965  -28.8912 H   0  0  0  0  0  0  0  0  0  0  0  0
   -1.9409   25.1600  -28.8912 H   0  0  0  0  0  0  0  0  0  0  0  0
   -6.5370   24.0680  -31.5280 C   0  0  0  0  0  0  0  0  0  0  0  0
   -7.1941   24.6650  -32.1775 H   0  0  0  0  0  0  0  0  0  0  0  0
   -6.2130   22.6890  -31.9490 C   0  0  0  0  0  0  0  0  0  0  0  0
   -4.8990   22.4020  -32.3370 C   0  0  0  0  0  0  0  0  0  0  0  0
   -4.1243   23.1782  -32.2511 H   0  0  0  0  0  0  0  0  0  0  0  0
   -4.5620   21.1430  -32.8310 C   0  0  0  0  0  0  0  0  0  0  0  0
   -3.5246   20.9370  -33.1333 H   0  0  0  0  0  0  0  0  0  0  0  0
   -5.5330   20.1340  -32.9470 C   0  0  0  0  0  0  0  0  0  0  0  0
   -5.2180   18.8670  -33.4670 O   0  0  0  0  0  0  0  0  0  0  0  0
   -5.6740   18.3690  -34.7210 C   0  0  0  0  0  0  0  0  0  0  0  0
   -6.4080   17.5673  -34.5522 H   0  0  0  0  0  0  0  0  0  0  0  0
   -6.1455   19.1841  -35.2897 H   0  0  0  0  0  0  0  0  0  0  0  0
   -4.8207   17.9710  -35.2897 H   0  0  0  0  0  0  0  0  0  0  0  0
   -6.8570   20.4000  -32.5390 C   0  0  0  0  0  0  0  0  0  0  0  0
   -7.8560   19.4150  -32.6610 C   0  0  0  0  0  0  0  0  0  0  0  0
   -7.5997   18.4266  -33.0701 H   0  0  0  0  0  0  0  0  0  0  0  0
   -9.1670   19.6810  -32.2680 C   0  0  0  0  0  0  0  0  0  0  0  0
   -9.9405   18.9067  -32.3785 H   0  0  0  0  0  0  0  0  0  0  0  0
   -9.5000   20.9240  -31.7360 C   0  0  0  0  0  0  0  0  0  0  0  0
  -10.5340   21.1253  -31.4194 H   0  0  0  0  0  0  0  0  0  0  0  0
   -8.5270   21.9150  -31.6030 C   0  0  0  0  0  0  0  0  0  0  0  0
   -8.7974   22.8900  -31.1713 H   0  0  0  0  0  0  0  0  0  0  0  0
   -7.2000   21.6780  -32.0170 C   0  0  0  0  0  0  0  0  0  0  0  0
  1  2  1  0
  2  3  1  0
  3  4  2  0
  3  5  1  0
  5  6  1  0
  6  7  1  0
  6  8  1  0
  6  9  1  0
  9 10  1  0
  9 11  1  0
  9 12  1  0
 12 13  1  0
 12 14  1  0
 14 15  1  0
 14 16  1  0
 14 17  1  0
 17 18  1  0
 17 19  1  0
 17 20  1  0
 12 21  1  0
 21 22  1  0
 21 23  1  0
 21 24  1  0
 24 25  1  0
 24 26  1  0
 24 27  1  0
  2 28  2  0
 28 29  1  0
 28 30  1  0
 30 31  2  0
 31 32  1  0
 31 33  1  0
 33 34  1  0
 33 35  2  0
 35 36  1  0
 36 37  1  0
 37 38  1  0
 37 39  1  0
 37 40  1  0
 35 41  1  0
 41 42  2  0
 42 43  1  0
 42 44  1  0
 44 45  1  0
 44 46  2  0
 46 47  1  0
 46 48  1  0
 48 49  1  0
 48 50  2  0
 50 30  1  0
 50 41  1  0
M  CHG  1  12   1
M  END
>  <UniqueID>  (1) 
1

>  <SMILES>  (1) 
CC[NH+](CC)CCOC(=O)/C=C\c1ccc(OC)c2ccccc12

>  <Energy>  (1) 
57.76376291924193

>  <Genealogy>  (1) 
CC[NH+](CC)CCOC(=O)C=Cc1ccc(OC)c2ccccc12 (protonated)
CC[NH+](CC)CCOC(=O)/C=C\c1ccc(OC)c2ccccc12 (cis-trans isomerization)
CC[NH+](CC)CCOC(=O)/C=C\c1ccc(OC)c2ccccc12 (3D coordinates assigned)
CC[NH+](CC)CCOC(=O)/C=C\c1ccc(OC)c2ccccc12 (optimized conformer: 57.76376291924193 kcal/mol)

>  <smiles>  (1) 
CCN(CC)CCOC(=O)C=Cc1ccc(OC)c2ccccc12

>  <score_type>  (1) 
oracle

>  <origin>  (1) 
adg

>  <m_score__min__energy>  (1) 
-7.21

>  <m_primary>  (1) 
energy

$$$$
1:0
     RDKit          3D

 24 25  0  0  0  0  0  0  0  0999 V2000
   -5.3160   17.4500  -34.9950 C   0  0  0  0  0  0  0  0  0  0  0  0
   -6.0450   18.2860  -33.9990 C   0  0  0  0  0  0  0  0  0  0  0  0
   -7.2380   17.9430  -33.4690 N   0  0  0  0  0  0  0  0  0  0  0  0
   -7.5240   19.0120  -32.6990 C   0  0  0  0  0  0  0  0  0  0  0  0
   -8.7980   19.1340  -31.9220 C   0  0  0  0  0  0  0  0  0  0  0  0
   -6.5480   19.9440  -32.7660 N   0  0  0  0  0  0  0  0  0  0  0  0
   -6.4790   21.2290  -32.1250 C   0  0  0  0  0  0  0  0  0  0  0  0
   -7.2260   21.4980  -30.9660 C   0  0  0  0  0  0  0  0  0  0  0  0
   -7.1200   22.7470  -30.3530 C   0  0  0  0  0  0  0  0  0  0  0  0
   -6.2650   23.7120  -30.8860 C   0  0  0  0  0  0  0  0  0  0  0  0
   -6.1080   25.4260  -30.0570 Br  0  0  0  0  0  0  0  0  0  0  0  0
   -5.5200   23.4080  -32.0270 C   0  0  0  0  0  0  0  0  0  0  0  0
   -5.6340   22.1840  -32.6130 N   0  0  0  0  0  0  0  0  0  0  0  0
   -5.6250   19.5020  -33.6000 N   0  0  0  0  0  0  0  0  0  0  0  0
   -4.6813   16.7221  -34.4683 H   0  0  0  0  0  0  0  0  0  0  0  0
   -6.0413   16.9152  -35.6258 H   0  0  0  0  0  0  0  0  0  0  0  0
   -4.6875   18.0958  -35.6258 H   0  0  0  0  0  0  0  0  0  0  0  0
   -8.5742   19.1126  -30.8452 H   0  0  0  0  0  0  0  0  0  0  0  0
   -9.2923   20.0836  -32.1750 H   0  0  0  0  0  0  0  0  0  0  0  0
   -9.4635   18.2955  -32.1750 H   0  0  0  0  0  0  0  0  0  0  0  0
   -7.8901   20.7290  -30.5445 H   0  0  0  0  0  0  0  0  0  0  0  0
   -7.7093   22.9703  -29.4514 H   0  0  0  0  0  0  0  0  0  0  0  0
   -4.8391   24.1592  -32.4538 H   0  0  0  0  0  0  0  0  0  0  0  0
   -5.0650   21.9840  -33.4660 H   0  0  0  0  0  0  0  0  0  0  0  0
  1  2  1  0
  2  3  1  0
  3  4  2  0
  4  5  1  0
  4  6  1  0
  6  7  1  0
  7  8  2  0
  8  9  1  0
  9 10  2  0
 10 11  1  0
 10 12  1  0
 12 13  2  0
  6 14  1  0
 14  2  2  0
 13  7  1  0
  1 15  1  0
  1 16  1  0
  1 17  1  0
  5 18  1  0
  5 19  1  0
  5 20  1  0
  8 21  1  0
  9 22  1  0
 12 23  1  0
 13 24  1  0
M  CHG  1  13   1
M  END
>  <UniqueID>  (2) 
2

>  <SMILES>  (2) 
Cc1nc(C)n(-c2ccc(Br)c[nH+]2)n1

>  <Energy>  (2) 
59.4391189060054

>  <Genealogy>  (2) 
Cc1nc(C)n(-c2ccc(Br)c[nH+]2)n1 (protonated)
Cc1nc(C)n(-c2ccc(Br)c[nH+]2)n1 (3D coordinates assigned)
Cc1nc(C)n(-c2ccc(Br)c[nH+]2)n1 (optimized conformer: 59.4391189060054 kcal/mol)

>  <smiles>  (2) 
Cc1nc(C)n(-c2ccc(Br)cn2)n1

>  <score_type>  (2) 
oracle

>  <origin>  (2) 
adg

>  <m_score__min__energy>  (2) 
-5.9900000000000002

>  <m_primary>  (2) 
energy

$$$$
2:0
     RDKit          3D

 63 66  0  0  0  0  0  0  0  0999 V2000
   -3.9730   24.0620  -27.6060 C   0  0  0  0  0  0  0  0  0  0  0  0
   -3.7060   23.7890  -29.0850 C   0  0  0  0  0  0  0  0  0  0  0  0
   -4.2280   22.4630  -29.4800 N   0  0  0  0  0  0  0  0  0  0  0  0
   -3.1880   21.5180  -29.9500 C   0  0  0  0  0  0  0  0  0  0  0  0
   -1.8720   22.1930  -30.3460 C   0  0  0  0  0  0  0  0  0  0  0  0
   -5.4860   22.4440  -30.2700 C   0  0  0  0  0  0  0  0  0  0  0  0
   -5.4750   23.3410  -31.5260 C   0  0  0  0  0  0  0  0  0  0  0  0
   -5.9210   22.6010  -32.7100 N   0  0  0  0  0  0  0  0  0  0  0  0
   -5.8070   21.1700  -32.8060 C   0  0  0  0  0  0  0  0  0  0  0  0
   -6.9250   20.3620  -32.5320 C   0  0  0  0  0  0  0  0  0  0  0  0
   -8.1720   20.9420  -32.2140 C   0  0  0  0  0  0  0  0  0  0  0  0
   -9.2620   20.1460  -31.8720 C   0  0  0  0  0  0  0  0  0  0  0  0
   -9.1250   18.7630  -31.8240 C   0  0  0  0  0  0  0  0  0  0  0  0
   -7.9050   18.1670  -32.1460 C   0  0  0  0  0  0  0  0  0  0  0  0
   -6.7880   18.9480  -32.5410 C   0  0  0  0  0  0  0  0  0  0  0  0
   -5.5850   18.3680  -32.9020 N   0  0  0  0  0  0  0  0  0  0  0  0
   -5.5200   16.9150  -33.1760 C   0  0  0  0  0  0  0  0  0  0  0  0
   -4.4550   19.1520  -33.0510 C   0  0  0  0  0  0  0  0  0  0  0  0
   -3.1630   18.5780  -33.1670 C   0  0  0  0  0  0  0  0  0  0  0  0
   -2.0350   19.3710  -33.4150 C   0  0  0  0  0  0  0  0  0  0  0  0
   -0.7660   18.7860  -33.5380 C   0  0  0  0  0  0  0  0  0  0  0  0
    0.3650   19.5810  -33.8060 C   0  0  0  0  0  0  0  0  0  0  0  0
    1.6500   19.0290  -33.9360 O   0  0  0  0  0  0  0  0  0  0  0  0
    2.6790   19.1390  -32.9570 C   0  0  0  0  0  0  0  0  0  0  0  0
    0.2220   20.9690  -33.9520 C   0  0  0  0  0  0  0  0  0  0  0  0
    1.3700   21.7310  -34.2190 O   0  0  0  0  0  0  0  0  0  0  0  0
    1.6990   22.2760  -35.4940 C   0  0  0  0  0  0  0  0  0  0  0  0
   -1.0510   21.5550  -33.8240 C   0  0  0  0  0  0  0  0  0  0  0  0
   -2.1770   20.7630  -33.5520 C   0  0  0  0  0  0  0  0  0  0  0  0
   -3.4360   21.3480  -33.3940 C   0  0  0  0  0  0  0  0  0  0  0  0
   -4.5660   20.5660  -33.0810 C   0  0  0  0  0  0  0  0  0  0  0  0
   -3.3350   23.4096  -26.9917 H   0  0  0  0  0  0  0  0  0  0  0  0
   -3.7460   25.1145  -27.3806 H   0  0  0  0  0  0  0  0  0  0  0  0
   -5.0303   23.8585  -27.3806 H   0  0  0  0  0  0  0  0  0  0  0  0
   -4.1993   24.5647  -29.6891 H   0  0  0  0  0  0  0  0  0  0  0  0
   -2.6192   23.8032  -29.2542 H   0  0  0  0  0  0  0  0  0  0  0  0
   -2.9804   20.8010  -29.1420 H   0  0  0  0  0  0  0  0  0  0  0  0
   -3.5828   21.0314  -30.8541 H   0  0  0  0  0  0  0  0  0  0  0  0
   -1.3182   22.4771  -29.4390 H   0  0  0  0  0  0  0  0  0  0  0  0
   -1.2663   21.4943  -30.9417 H   0  0  0  0  0  0  0  0  0  0  0  0
   -2.0861   23.0926  -30.9417 H   0  0  0  0  0  0  0  0  0  0  0  0
   -5.6732   21.4085  -30.5906 H   0  0  0  0  0  0  0  0  0  0  0  0
   -6.2714   22.8430  -29.6113 H   0  0  0  0  0  0  0  0  0  0  0  0
   -6.1480   24.1956  -31.3625 H   0  0  0  0  0  0  0  0  0  0  0  0
   -4.4448   23.6859  -31.6986 H   0  0  0  0  0  0  0  0  0  0  0  0
   -6.4300   23.1160  -33.4640 H   0  0  0  0  0  0  0  0  0  0  0  0
   -8.2840   22.0361  -32.2367 H   0  0  0  0  0  0  0  0  0  0  0  0
  -10.2314   20.6111  -31.6398 H   0  0  0  0  0  0  0  0  0  0  0  0
   -9.9808   18.1370  -31.5313 H   0  0  0  0  0  0  0  0  0  0  0  0
   -7.8075   17.0726  -32.0927 H   0  0  0  0  0  0  0  0  0  0  0  0
   -5.4953   16.3632  -32.2247 H   0  0  0  0  0  0  0  0  0  0  0  0
   -6.4054   16.6108  -33.7535 H   0  0  0  0  0  0  0  0  0  0  0  0
   -4.6109   16.6911  -33.7535 H   0  0  0  0  0  0  0  0  0  0  0  0
   -3.0445   17.4896  -33.0602 H   0  0  0  0  0  0  0  0  0  0  0  0
   -0.6535   17.6977  -33.4242 H   0  0  0  0  0  0  0  0  0  0  0  0
    2.2352   19.0916  -31.9516 H   0  0  0  0  0  0  0  0  0  0  0  0
    3.3937   18.3121  -33.0817 H   0  0  0  0  0  0  0  0  0  0  0  0
    3.2027   20.0982  -33.0817 H   0  0  0  0  0  0  0  0  0  0  0  0
    2.2632   23.2106  -35.3588 H   0  0  0  0  0  0  0  0  0  0  0  0
    2.3128   21.5549  -36.0537 H   0  0  0  0  0  0  0  0  0  0  0  0
    0.7750   22.4832  -36.0537 H   0  0  0  0  0  0  0  0  0  0  0  0
   -1.1644   22.6432  -33.9381 H   0  0  0  0  0  0  0  0  0  0  0  0
   -3.5469   22.4356  -33.5158 H   0  0  0  0  0  0  0  0  0  0  0  0
  1  2  1  0
  2  3  1  0
  3  4  1  0
  4  5  1  0
  3  6  1  0
  6  7  1  0
  7  8  1  0
  8  9  1  0
  9 10  2  0
 10 11  1  0
 11 12  2  0
 12 13  1  0
 13 14  2  0
 14 15  1  0
 15 16  2  0
 16 17  1  0
 16 18  1  0
 18 19  2  0
 19 20  1  0
 20 21  2  0
 21 22  1  0
 22 23  1  0
 23 24  1  0
 22 25  2  0
 25 26  1  0
 26 27  1  0
 25 28  1  0
 28 29  2  0
 29 30  1  0
 30 31  2  0
 31  9  1  0
 15 10  1  0
 31 18  1  0
 29 20  1  0
  1 32  1  0
  1 33  1  0
  1 34  1  0
  2 35  1  0
  2 36  1  0
  4 37  1  0
  4 38  1  0
  5 39  1  0
  5 40  1  0
  5 41  1  0
  6 42  1  0
  6 43  1  0
  7 44  1  0
  7 45  1  0
  8 46  1  0
 11 47  1  0
 12 48  1  0
 13 49  1  0
 14 50  1  0
 17 51  1  0
 17 52  1  0
 17 53  1  0
 19 54  1  0
 21 55  1  0
 24 56  1  0
 24 57  1  0
 24 58  1  0
 27 59  1  0
 27 60  1  0
 27 61  1  0
 28 62  1  0
 30 63  1  0
M  CHG  1  16   1
M  END
>  <UniqueID>  (3) 
3

>  <SMILES>  (3) 
CCN(CC)CCNc1c2ccccc2[n+](C)c2cc3cc(OC)c(OC)cc3cc12

>  <Energy>  (3) 
98.13982188358773

>  <Genealogy>  (3) 
CCN(CC)CCNc1c2ccccc2[n+](C)c2cc3cc(OC)c(OC)cc3cc12 (3D coordinates assigned)
CCN(CC)CCNc1c2ccccc2[n+](C)c2cc3cc(OC)c(OC)cc3cc12 (optimized conformer: 98.13982188358773 kcal/mol)

>  <smiles>  (3) 
CCN(CC)CCNc1c2ccccc2[n+](C)c2cc3cc(OC)c(OC)cc3cc12

>  <score_type>  (3) 
oracle

>  <origin>  (3) 
adg

>  <m_score__min__energy>  (3) 
-8.7200000000000006

>  <m_primary>  (3) 
energy

$$$$
3:0
     RDKit          3D

 61 63  0  0  0  0  0  0  0  0999 V2000
   -4.5420   14.9530  -32.5410 C   0  0  0  0  0  0  0  0  0  0  0  0
   -3.4230   15.8030  -33.1520 C   0  0  0  0  0  0  0  0  0  0  0  0
   -3.8020   17.2070  -33.4590 N   0  0  0  0  0  0  0  0  0  0  0  0
   -5.2780   17.3990  -33.5910 C   0  0  0  0  0  0  0  0  0  0  0  0
   -5.7720   17.8930  -34.9630 C   0  0  0  0  0  0  0  0  0  0  0  0
   -2.9750   17.7870  -34.5520 C   0  0  0  0  0  0  0  0  0  0  0  0
   -2.0200   18.8990  -34.0710 C   0  0  0  0  0  0  0  0  0  0  0  0
   -2.6310   20.2250  -34.2170 N   0  0  0  0  0  0  0  0  0  0  0  0
   -3.4870   20.8490  -33.2380 C   0  0  0  0  0  0  0  0  0  0  0  0
   -2.9060   21.6130  -32.2160 C   0  0  0  0  0  0  0  0  0  0  0  0
   -3.6900   22.2260  -31.2110 C   0  0  0  0  0  0  0  0  0  0  0  0
   -3.0760   23.0210  -30.1470 N   0  0  0  0  0  0  0  0  0  0  0  0
   -3.9390   23.8150  -29.2450 C   0  0  0  0  0  0  0  0  0  0  0  0
   -3.1700   24.5490  -28.1420 C   0  0  0  0  0  0  0  0  0  0  0  0
   -1.9310   25.0260  -28.6140 O   0  0  0  0  0  0  0  0  0  0  0  0
   -1.1010   23.9190  -28.8710 C   0  0  0  0  0  0  0  0  0  0  0  0
   -1.6040   23.1350  -30.0860 C   0  0  0  0  0  0  0  0  0  0  0  0
   -5.0900   22.0300  -31.2630 C   0  0  0  0  0  0  0  0  0  0  0  0
   -5.6840   21.2760  -32.2850 C   0  0  0  0  0  0  0  0  0  0  0  0
   -7.1110   21.0820  -32.2990 N   0  0  0  0  0  0  0  0  0  0  0  0
   -7.6800   19.9310  -33.0100 C   0  0  0  0  0  0  0  0  0  0  0  0
   -9.0200   19.5450  -32.3780 C   0  0  0  0  0  0  0  0  0  0  0  0
   -9.8780   20.6650  -32.2940 O   0  0  0  0  0  0  0  0  0  0  0  0
   -9.3270   21.6280  -31.4140 C   0  0  0  0  0  0  0  0  0  0  0  0
   -8.0140   22.1870  -31.9690 C   0  0  0  0  0  0  0  0  0  0  0  0
   -4.8820   20.7110  -33.2820 C   0  0  0  0  0  0  0  0  0  0  0  0
   -4.4805   14.9997  -31.4437 H   0  0  0  0  0  0  0  0  0  0  0  0
   -5.5177   15.3397  -32.8703 H   0  0  0  0  0  0  0  0  0  0  0  0
   -4.4311   13.9093  -32.8703 H   0  0  0  0  0  0  0  0  0  0  0  0
   -2.5826   15.8230  -32.4426 H   0  0  0  0  0  0  0  0  0  0  0  0
   -3.1688   15.3340  -34.1140 H   0  0  0  0  0  0  0  0  0  0  0  0
   -3.5340   17.7210  -32.5870 H   0  0  0  0  0  0  0  0  0  0  0  0
   -5.7631   16.4333  -33.3859 H   0  0  0  0  0  0  0  0  0  0  0  0
   -5.5398   18.1935  -32.8767 H   0  0  0  0  0  0  0  0  0  0  0  0
   -6.5431   18.6641  -34.8192 H   0  0  0  0  0  0  0  0  0  0  0  0
   -4.9278   18.3190  -35.5250 H   0  0  0  0  0  0  0  0  0  0  0  0
   -6.1980   17.0488  -35.5250 H   0  0  0  0  0  0  0  0  0  0  0  0
   -2.3750   16.9816  -35.0007 H   0  0  0  0  0  0  0  0  0  0  0  0
   -3.6661   18.2423  -35.2766 H   0  0  0  0  0  0  0  0  0  0  0  0
   -1.7782   18.7304  -33.0112 H   0  0  0  0  0  0  0  0  0  0  0  0
   -1.1095   18.8660  -34.6873 H   0  0  0  0  0  0  0  0  0  0  0  0
   -2.2330   20.8300  -34.9720 H   0  0  0  0  0  0  0  0  0  0  0  0
   -1.8134   21.7388  -32.1953 H   0  0  0  0  0  0  0  0  0  0  0  0
   -4.4774   24.5611  -29.8479 H   0  0  0  0  0  0  0  0  0  0  0  0
   -4.6179   23.1077  -28.7462 H   0  0  0  0  0  0  0  0  0  0  0  0
   -3.7718   25.4002  -27.7909 H   0  0  0  0  0  0  0  0  0  0  0  0
   -2.9805   23.8422  -27.3207 H   0  0  0  0  0  0  0  0  0  0  0  0
   -0.0782   24.2727  -29.0679 H   0  0  0  0  0  0  0  0  0  0  0  0
   -1.1138   23.2565  -27.9930 H   0  0  0  0  0  0  0  0  0  0  0  0
   -1.2564   23.6442  -30.9970 H   0  0  0  0  0  0  0  0  0  0  0  0
   -1.2041   22.1139  -29.9998 H   0  0  0  0  0  0  0  0  0  0  0  0
   -5.7258   22.4785  -30.4855 H   0  0  0  0  0  0  0  0  0  0  0  0
   -7.8364   20.1947  -34.0664 H   0  0  0  0  0  0  0  0  0  0  0  0
   -6.9860   19.0804  -32.9404 H   0  0  0  0  0  0  0  0  0  0  0  0
   -9.4989   18.7696  -32.9940 H   0  0  0  0  0  0  0  0  0  0  0  0
   -8.8340   19.1671  -31.3618 H   0  0  0  0  0  0  0  0  0  0  0  0
  -10.0443   22.4522  -31.2872 H   0  0  0  0  0  0  0  0  0  0  0  0
   -9.1225   21.1446  -30.4473 H   0  0  0  0  0  0  0  0  0  0  0  0
   -8.2203   22.7746  -32.8757 H   0  0  0  0  0  0  0  0  0  0  0  0
   -7.5422   22.8314  -31.2126 H   0  0  0  0  0  0  0  0  0  0  0  0
   -5.3493   20.1538  -34.1074 H   0  0  0  0  0  0  0  0  0  0  0  0
  1  2  1  0
  2  3  1  0
  3  4  1  0
  4  5  1  0
  3  6  1  0
  6  7  1  0
  7  8  1  0
  8  9  1  0
  9 10  2  0
 10 11  1  0
 11 12  1  0
 12 13  1  0
 13 14  1  0
 14 15  1  0
 15 16  1  0
 16 17  1  0
 11 18  2  0
 18 19  1  0
 19 20  1  0
 20 21  1  0
 21 22  1  0
 22 23  1  0
 23 24  1  0
 24 25  1  0
 19 26  2  0
 26  9  1  0
 17 12  1  0
 25 20  1  0
  1 27  1  0
  1 28  1  0
  1 29  1  0
  2 30  1  0
  2 31  1  0
  3 32  1  0
  4 33  1  0
  4 34  1  0
  5 35  1  0
  5 36  1  0
  5 37  1  0
  6 38  1  0
  6 39  1  0
  7 40  1  0
  7 41  1  0
  8 42  1  0
 10 43  1  0
 13 44  1  0
 13 45  1  0
 14 46  1  0
 14 47  1  0
 16 48  1  0
 16 49  1  0
 17 50  1  0
 17 51  1  0
 18 52  1  0
 21 53  1  0
 21 54  1  0
 22 55  1  0
 22 56  1  0
 24 57  1  0
 24 58  1  0
 25 59  1  0
 25 60  1  0
 26 61  1  0
M  CHG  1   3   1
M  END
>  <UniqueID>  (4) 
4

>  <SMILES>  (4) 
CC[NH+](CC)CCNc1cc(N2CCOCC2)cc(N2CCOCC2)c1

>  <Energy>  (4) 
81.00719944334445

>  <Genealogy>  (4) 
CC[NH+](CC)CCNc1cc(N2CCOCC2)cc(N2CCOCC2)c1 (protonated)
CC[NH+](CC)CCNc1cc(N2CCOCC2)cc(N2CCOCC2)c1 (3D coordinates assigned)
CC[NH+](CC)CCNc1cc(N2CCOCC2)cc(N2CCOCC2)c1 (nonaromatic ring conformer: 81.00719944334445 kcal/mol)

>  <smiles>  (4) 
CCN(CC)CCNc1cc(N2CCOCC2)cc(N2CCOCC2)c1

>  <score_type>  (4) 
oracle

>  <origin>  (4) 
adg

>  <m_score__min__energy>  (4) 
-6.7300000000000004

>  <m_primary>  (4) 
energy

$$$$
4:0
     RDKit          3D

 42 43  0  0  0  0  0  0  0  0999 V2000
   -3.8310   25.2810  -26.0960 C   0  0  0  0  0  0  0  0  0  0  0  0
   -2.4170   25.6970  -25.8450 C   0  0  0  0  0  0  0  0  0  0  0  0
   -2.0270   26.4320  -24.7860 N   0  0  0  0  0  0  0  0  0  0  0  0
   -0.7190   26.6220  -24.8570 N   0  0  0  0  0  0  0  0  0  0  0  0
    0.0400   27.4330  -23.9090 C   0  0  0  0  0  0  0  0  0  0  0  0
   -0.2460   26.0310  -25.9770 C   0  0  0  0  0  0  0  0  0  0  0  0
    1.1900   26.0330  -26.4100 C   0  0  0  0  0  0  0  0  0  0  0  0
   -1.3050   25.4110  -26.6260 C   0  0  0  0  0  0  0  0  0  0  0  0
   -1.2440   24.5390  -28.1600 S   0  0  0  0  0  0  0  0  0  0  0  0
    0.1700   24.5540  -28.6700 O   0  0  0  0  0  0  0  0  0  0  0  0
   -1.6600   23.1080  -27.9630 O   0  0  0  0  0  0  0  0  0  0  0  0
   -2.2850   25.2830  -29.3420 N   0  0  0  0  0  0  0  0  0  0  0  0
   -3.5500   24.5550  -29.4670 C   0  0  0  0  0  0  0  0  0  0  0  0
   -4.4640   25.2620  -30.4730 C   0  0  0  0  0  0  0  0  0  0  0  0
   -5.9390   24.9230  -30.2310 C   0  0  0  0  0  0  0  0  0  0  0  0
   -6.3180   23.6830  -30.9950 C   0  0  0  0  0  0  0  0  0  0  0  0
   -7.6230   23.1690  -30.9170 C   0  0  0  0  0  0  0  0  0  0  0  0
   -7.9550   21.9880  -31.5880 C   0  0  0  0  0  0  0  0  0  0  0  0
   -6.9850   21.3070  -32.3310 C   0  0  0  0  0  0  0  0  0  0  0  0
   -5.6800   21.8030  -32.3980 C   0  0  0  0  0  0  0  0  0  0  0  0
   -5.3460   22.9860  -31.7310 C   0  0  0  0  0  0  0  0  0  0  0  0
   -4.3448   25.1298  -25.1352 H   0  0  0  0  0  0  0  0  0  0  0  0
   -4.3477   26.0652  -26.6687 H   0  0  0  0  0  0  0  0  0  0  0  0
   -3.8408   24.3419  -26.6687 H   0  0  0  0  0  0  0  0  0  0  0  0
   -2.6440   26.8080  -24.0300 H   0  0  0  0  0  0  0  0  0  0  0  0
   -0.2295   27.1451  -22.8821 H   0  0  0  0  0  0  0  0  0  0  0  0
    1.1164   27.2687  -24.0654 H   0  0  0  0  0  0  0  0  0  0  0  0
   -0.1952   28.4961  -24.0654 H   0  0  0  0  0  0  0  0  0  0  0  0
    1.8405   26.0339  -25.5229 H   0  0  0  0  0  0  0  0  0  0  0  0
    1.3926   25.1351  -27.0123 H   0  0  0  0  0  0  0  0  0  0  0  0
    1.3901   26.9314  -27.0123 H   0  0  0  0  0  0  0  0  0  0  0  0
   -3.3483   23.5312  -29.8150 H   0  0  0  0  0  0  0  0  0  0  0  0
   -4.0475   24.5244  -28.4864 H   0  0  0  0  0  0  0  0  0  0  0  0
   -4.3272   26.3492  -30.3767 H   0  0  0  0  0  0  0  0  0  0  0  0
   -4.1937   24.9197  -31.4828 H   0  0  0  0  0  0  0  0  0  0  0  0
   -6.1012   24.7519  -29.1566 H   0  0  0  0  0  0  0  0  0  0  0  0
   -6.5618   25.7618  -30.5752 H   0  0  0  0  0  0  0  0  0  0  0  0
   -8.3860   23.6971  -30.3263 H   0  0  0  0  0  0  0  0  0  0  0  0
   -8.9804   21.5939  -31.5315 H   0  0  0  0  0  0  0  0  0  0  0  0
   -7.2493   20.3810  -32.8626 H   0  0  0  0  0  0  0  0  0  0  0  0
   -4.9154   21.2627  -32.9755 H   0  0  0  0  0  0  0  0  0  0  0  0
   -4.3174   23.3723  -31.7831 H   0  0  0  0  0  0  0  0  0  0  0  0
  1  2  1  0
  2  3  2  0
  3  4  1  0
  4  5  1  0
  4  6  1  0
  6  7  1  0
  6  8  2  0
  8  9  1  0
  9 10  2  0
  9 11  2  0
  9 12  1  0
 12 13  1  0
 13 14  1  0
 14 15  1  0
 15 16  1  0
 16 17  2  0
 17 18  1  0
 18 19  2  0
 19 20  1  0
 20 21  2  0
  8  2  1  0
 21 16  1  0
  1 22  1  0
  1 23  1  0
  1 24  1  0
  3 25  1  0
  5 26  1  0
  5 27  1  0
  5 28  1  0
  7 29  1  0
  7 30  1  0
  7 31  1  0
 13 32  1  0
 13 33  1  0
 14 34  1  0
 14 35  1  0
 15 36  1  0
 15 37  1  0
 17 38  1  0
 18 39  1  0
 19 40  1  0
 20 41  1  0
 21 42  1  0
M  CHG  2   3   1  12  -1
M  END
>  <UniqueID>  (5) 
5

>  <SMILES>  (5) 
Cc1[nH+]n(C)c(C)c1S(=O)(=O)[N-]CCCc1ccccc1

>  <Energy>  (5) 
63.21503203366956

>  <Genealogy>  (5) 
Cc1[nH+]n(C)c(C)c1S(=O)(=O)[N-]CCCc1ccccc1 (protonated)
Cc1[nH+]n(C)c(C)c1S(=O)(=O)[N-]CCCc1ccccc1 (3D coordinates assigned)
Cc1[nH+]n(C)c(C)c1S(=O)(=O)[N-]CCCc1ccccc1 (optimized conformer: 63.21503203366956 kcal/mol)

>  <smiles>  (5) 
Cc1nn(C)c(C)c1S(=O)(=O)NCCCc1ccccc1

>  <score_type>  (5) 
oracle

>  <origin>  (5) 
adg

>  <m_score__min__energy>  (5) 
-9.1099999999999994

>  <m_primary>  (5) 
energy

$$$$
5:0
     RDKit          3D

 53 55  0  0  0  0  0  0  0  0999 V2000
   -1.2850   24.3970  -28.9160 C   0  0  0  0  0  0  0  0  0  0  0  0
   -1.6490   23.1530  -29.7300 C   0  0  0  0  0  0  0  0  0  0  0  0
   -3.0830   22.7680  -29.6750 N   0  0  0  0  0  0  0  0  0  0  0  0
   -3.2680   21.3340  -29.3260 C   0  0  0  0  0  0  0  0  0  0  0  0
   -2.7270   21.0030  -27.9290 C   0  0  0  0  0  0  0  0  0  0  0  0
   -3.9390   23.7540  -28.9370 C   0  0  0  0  0  0  0  0  0  0  0  0
   -4.8600   24.6760  -29.7750 C   0  0  0  0  0  0  0  0  0  0  0  0
   -4.6180   24.5430  -31.2190 N   0  0  0  0  0  0  0  0  0  0  0  0
   -5.8270   24.1720  -31.9790 C   0  0  0  0  0  0  0  0  0  0  0  0
   -5.9860   22.6700  -32.1280 C   0  0  0  0  0  0  0  0  0  0  0  0
   -7.2440   22.0480  -31.9810 C   0  0  0  0  0  0  0  0  0  0  0  0
   -7.3850   20.6900  -32.1280 C   0  0  0  0  0  0  0  0  0  0  0  0
   -6.2970   19.8730  -32.4290 C   0  0  0  0  0  0  0  0  0  0  0  0
   -5.0290   20.4560  -32.5840 C   0  0  0  0  0  0  0  0  0  0  0  0
   -4.8680   21.8520  -32.4060 C   0  0  0  0  0  0  0  0  0  0  0  0
   -3.5920   22.4240  -32.5250 O   0  0  0  0  0  0  0  0  0  0  0  0
   -2.4070   21.6370  -32.6280 C   0  0  0  0  0  0  0  0  0  0  0  0
   -2.6730   20.3880  -33.4690 C   0  0  0  0  0  0  0  0  0  0  0  0
   -3.8310   19.5830  -32.8640 C   0  0  0  0  0  0  0  0  0  0  0  0
   -8.7760   20.2360  -31.9030 C   0  0  0  0  0  0  0  0  0  0  0  0
   -9.5590   21.5360  -31.6550 C   0  0  0  0  0  0  0  0  0  0  0  0
   -8.5360   22.6850  -31.6110 C   0  0  0  0  0  0  0  0  0  0  0  0
   -1.3527   24.1657  -27.8427 H   0  0  0  0  0  0  0  0  0  0  0  0
   -0.2584   24.7075  -29.1601 H   0  0  0  0  0  0  0  0  0  0  0  0
   -1.9824   25.2119  -29.1601 H   0  0  0  0  0  0  0  0  0  0  0  0
   -1.3862   23.3432  -30.7811 H   0  0  0  0  0  0  0  0  0  0  0  0
   -1.0877   22.3179  -29.2856 H   0  0  0  0  0  0  0  0  0  0  0  0
   -3.3800   22.8500  -30.6780 H   0  0  0  0  0  0  0  0  0  0  0  0
   -4.3420   21.0981  -29.3550 H   0  0  0  0  0  0  0  0  0  0  0  0
   -2.7063   20.7335  -30.0566 H   0  0  0  0  0  0  0  0  0  0  0  0
   -3.4032   21.4167  -27.1664 H   0  0  0  0  0  0  0  0  0  0  0  0
   -2.6637   19.9113  -27.8095 H   0  0  0  0  0  0  0  0  0  0  0  0
   -1.7262   21.4436  -27.8095 H   0  0  0  0  0  0  0  0  0  0  0  0
   -4.5820   23.1826  -28.2514 H   0  0  0  0  0  0  0  0  0  0  0  0
   -3.2242   24.4377  -28.4557 H   0  0  0  0  0  0  0  0  0  0  0  0
   -5.9077   24.4136  -29.5663 H   0  0  0  0  0  0  0  0  0  0  0  0
   -4.6423   25.7164  -29.4918 H   0  0  0  0  0  0  0  0  0  0  0  0
   -4.2390   25.4460  -31.5830 H   0  0  0  0  0  0  0  0  0  0  0  0
   -6.7084   24.5690  -31.4542 H   0  0  0  0  0  0  0  0  0  0  0  0
   -5.7292   24.5980  -32.9885 H   0  0  0  0  0  0  0  0  0  0  0  0
   -6.4296   18.7870  -32.5435 H   0  0  0  0  0  0  0  0  0  0  0  0
   -1.6150   22.2336  -33.1042 H   0  0  0  0  0  0  0  0  0  0  0  0
   -2.0917   21.3300  -31.6199 H   0  0  0  0  0  0  0  0  0  0  0  0
   -2.9351   20.6885  -34.4942 H   0  0  0  0  0  0  0  0  0  0  0  0
   -1.7679   19.7630  -33.4825 H   0  0  0  0  0  0  0  0  0  0  0  0
   -4.1232   18.7922  -33.5706 H   0  0  0  0  0  0  0  0  0  0  0  0
   -3.4893   19.1526  -31.9111 H   0  0  0  0  0  0  0  0  0  0  0  0
   -9.1630   19.7098  -32.7880 H   0  0  0  0  0  0  0  0  0  0  0  0
   -8.8587   19.5270  -31.0660 H   0  0  0  0  0  0  0  0  0  0  0  0
  -10.2784   21.7035  -32.4701 H   0  0  0  0  0  0  0  0  0  0  0  0
  -10.1207   21.4783  -30.7110 H   0  0  0  0  0  0  0  0  0  0  0  0
   -8.8028   23.4709  -32.3329 H   0  0  0  0  0  0  0  0  0  0  0  0
   -8.4953   23.1712  -30.6251 H   0  0  0  0  0  0  0  0  0  0  0  0
  1  2  1  0
  2  3  1  0
  3  4  1  0
  4  5  1  0
  3  6  1  0
  6  7  1  0
  7  8  1  0
  8  9  1  0
  9 10  1  0
 10 11  2  0
 11 12  1  0
 12 13  2  0
 13 14  1  0
 14 15  2  0
 15 16  1  0
 16 17  1  0
 17 18  1  0
 18 19  1  0
 12 20  1  0
 20 21  1  0
 21 22  1  0
 15 10  1  0
 22 11  1  0
 19 14  1  0
  1 23  1  0
  1 24  1  0
  1 25  1  0
  2 26  1  0
  2 27  1  0
  3 28  1  0
  4 29  1  0
  4 30  1  0
  5 31  1  0
  5 32  1  0
  5 33  1  0
  6 34  1  0
  6 35  1  0
  7 36  1  0
  7 37  1  0
  8 38  1  0
  9 39  1  0
  9 40  1  0
 13 41  1  0
 17 42  1  0
 17 43  1  0
 18 44  1  0
 18 45  1  0
 19 46  1  0
 19 47  1  0
 20 48  1  0
 20 49  1  0
 21 50  1  0
 21 51  1  0
 22 52  1  0
 22 53  1  0
M  CHG  1   3   1
M  END
>  <UniqueID>  (6) 
6

>  <SMILES>  (6) 
CC[NH+](CC)CCNCc1c2c(cc3c1OCCC3)CCC2

>  <Energy>  (6) 
70.76762489535491

>  <Genealogy>  (6) 
CC[NH+](CC)CCNCc1c2c(cc3c1OCCC3)CCC2 (protonated)
CC[NH+](CC)CCNCc1c2c(cc3c1OCCC3)CCC2 (3D coordinates assigned)
CC[NH+](CC)CCNCc1c2c(cc3c1OCCC3)CCC2 (nonaromatic ring conformer: 70.76762489535491 kcal/mol)

>  <smiles>  (6) 
CCN(CC)CCNCc1c2c(cc3c1OCCC3)CCC2

>  <score_type>  (6) 
oracle

>  <origin>  (6) 
adg

>  <m_score__min__energy>  (6) 
-6.6100000000000003

>  <m_primary>  (6) 
energy

$$$$
6:0
     RDKit          3D

 53 56  0  0  0  0  0  0  0  0999 V2000
   -6.1610   25.2740  -29.7080 C   0  0  0  0  0  0  0  0  0  0  0  0
   -4.9540   25.0220  -30.6090 C   0  0  0  0  0  0  0  0  0  0  0  0
   -3.7990   24.5640  -29.8090 N   0  0  0  0  0  0  0  0  0  0  0  0
   -4.2380   24.1820  -28.4540 C   0  0  0  0  0  0  0  0  0  0  0  0
   -3.0900   23.4400  -30.4640 C   0  0  0  0  0  0  0  0  0  0  0  0
   -4.0890   22.4130  -31.0120 C   0  0  0  0  0  0  0  0  0  0  0  0
   -3.5190   21.6530  -32.2170 C   0  0  0  0  0  0  0  0  0  0  0  0
   -4.5480   21.4430  -33.2350 N   0  0  0  0  0  0  0  0  0  0  0  0
   -5.7410   20.6970  -32.9600 C   0  0  0  0  0  0  0  0  0  0  0  0
   -6.9200   21.3200  -32.4880 C   0  0  0  0  0  0  0  0  0  0  0  0
   -7.0030   22.7240  -32.3970 C   0  0  0  0  0  0  0  0  0  0  0  0
   -8.1720   23.3400  -31.9570 C   0  0  0  0  0  0  0  0  0  0  0  0
   -9.2830   22.5740  -31.6180 C   0  0  0  0  0  0  0  0  0  0  0  0
   -9.2360   21.1830  -31.7150 C   0  0  0  0  0  0  0  0  0  0  0  0
   -8.0590   20.5180  -32.1390 C   0  0  0  0  0  0  0  0  0  0  0  0
   -8.0000   19.1360  -32.2390 N   0  0  0  0  0  0  0  0  0  0  0  0
   -9.1160   18.2840  -31.7830 C   0  0  0  0  0  0  0  0  0  0  0  0
   -6.8820   18.5710  -32.7970 C   0  0  0  0  0  0  0  0  0  0  0  0
   -6.6960   17.2580  -33.0810 N   0  0  0  0  0  0  0  0  0  0  0  0
   -5.4570   17.1850  -33.6090 C   0  0  0  0  0  0  0  0  0  0  0  0
   -4.8140   16.0370  -34.0710 C   0  0  0  0  0  0  0  0  0  0  0  0
   -3.5230   16.1740  -34.6070 C   0  0  0  0  0  0  0  0  0  0  0  0
   -2.9090   17.4440  -34.6790 C   0  0  0  0  0  0  0  0  0  0  0  0
   -3.5780   18.5880  -34.2130 C   0  0  0  0  0  0  0  0  0  0  0  0
   -4.8560   18.4240  -33.6700 C   0  0  0  0  0  0  0  0  0  0  0  0
   -5.7770   19.3200  -33.1520 C   0  0  0  0  0  0  0  0  0  0  0  0
   -5.8518   25.2095  -28.6543 H   0  0  0  0  0  0  0  0  0  0  0  0
   -6.5667   26.2762  -29.9103 H   0  0  0  0  0  0  0  0  0  0  0  0
   -6.9338   24.5178  -29.9103 H   0  0  0  0  0  0  0  0  0  0  0  0
   -5.2100   24.2505  -31.3501 H   0  0  0  0  0  0  0  0  0  0  0  0
   -4.6862   25.9605  -31.1165 H   0  0  0  0  0  0  0  0  0  0  0  0
   -3.6283   24.7126  -27.7078 H   0  0  0  0  0  0  0  0  0  0  0  0
   -5.2962   24.4518  -28.3217 H   0  0  0  0  0  0  0  0  0  0  0  0
   -4.1170   23.0967  -28.3217 H   0  0  0  0  0  0  0  0  0  0  0  0
   -2.4826   23.8309  -31.2936 H   0  0  0  0  0  0  0  0  0  0  0  0
   -2.4479   22.9459  -29.7200 H   0  0  0  0  0  0  0  0  0  0  0  0
   -4.3305   21.6916  -30.2174 H   0  0  0  0  0  0  0  0  0  0  0  0
   -4.9890   22.9526  -31.3417 H   0  0  0  0  0  0  0  0  0  0  0  0
   -2.6943   22.2357  -32.6532 H   0  0  0  0  0  0  0  0  0  0  0  0
   -3.1571   20.6721  -31.8751 H   0  0  0  0  0  0  0  0  0  0  0  0
   -4.4170   21.8480  -34.1890 H   0  0  0  0  0  0  0  0  0  0  0  0
   -6.1354   23.3397  -32.6764 H   0  0  0  0  0  0  0  0  0  0  0  0
   -8.2172   24.4362  -31.8772 H   0  0  0  0  0  0  0  0  0  0  0  0
  -10.2030   23.0676  -31.2718 H   0  0  0  0  0  0  0  0  0  0  0  0
  -10.1278   20.5926  -31.4579 H   0  0  0  0  0  0  0  0  0  0  0  0
   -9.1386   18.2668  -30.6834 H   0  0  0  0  0  0  0  0  0  0  0  0
  -10.0655   18.6891  -32.1629 H   0  0  0  0  0  0  0  0  0  0  0  0
   -8.9755   17.2613  -32.1629 H   0  0  0  0  0  0  0  0  0  0  0  0
   -7.3550   16.4570  -32.9680 H   0  0  0  0  0  0  0  0  0  0  0  0
   -5.3034   15.0533  -34.0172 H   0  0  0  0  0  0  0  0  0  0  0  0
   -2.9865   15.2863  -34.9732 H   0  0  0  0  0  0  0  0  0  0  0  0
   -1.8986   17.5380  -35.1035 H   0  0  0  0  0  0  0  0  0  0  0  0
   -3.1109   19.5821  -34.2734 H   0  0  0  0  0  0  0  0  0  0  0  0
  1  2  1  0
  2  3  1  0
  3  4  1  0
  3  5  1  0
  5  6  1  0
  6  7  1  0
  7  8  1  0
  8  9  1  0
  9 10  2  0
 10 11  1  0
 11 12  2  0
 12 13  1  0
 13 14  2  0
 14 15  1  0
 15 16  2  0
 16 17  1  0
 16 18  1  0
 18 19  1  0
 19 20  1  0
 20 21  2  0
 21 22  1  0
 22 23  2  0
 23 24  1  0
 24 25  2  0
 25 26  1  0
 26  9  1  0
 15 10  1  0
 26 18  2  0
 25 20  1  0
  1 27  1  0
  1 28  1  0
  1 29  1  0
  2 30  1  0
  2 31  1  0
  4 32  1  0
  4 33  1  0
  4 34  1  0
  5 35  1  0
  5 36  1  0
  6 37  1  0
  6 38  1  0
  7 39  1  0
  7 40  1  0
  8 41  1  0
 11 42  1  0
 12 43  1  0
 13 44  1  0
 14 45  1  0
 17 46  1  0
 17 47  1  0
 17 48  1  0
 19 49  1  0
 21 50  1  0
 22 51  1  0
 23 52  1  0
 24 53  1  0
M  CHG  1  16   1
M  END
>  <UniqueID>  (7) 
7

>  <SMILES>  (7) 
CCN(C)CCCNc1c2ccccc2[n+](C)c2[nH]c3ccccc3c12

>  <Energy>  (7) 
109.10796855562018

>  <Genealogy>  (7) 
CCN(C)CCCNc1c2ccccc2[n+](C)c2[nH]c3ccccc3c12 (3D coordinates assigned)
CCN(C)CCCNc1c2ccccc2[n+](C)c2[nH]c3ccccc3c12 (optimized conformer: 109.10796855562018 kcal/mol)

>  <smiles>  (7) 
CCN(C)CCCNc1c2ccccc2[n+](C)c2[nH]c3ccccc3c12

>  <score_type>  (7) 
oracle

>  <origin>  (7) 
adg

>  <m_score__min__energy>  (7) 
-9.1400000000000006

>  <m_primary>  (7) 
energy

$$$$
7:0
     RDKit          3D

 59 62  0  0  0  0  0  0  0  0999 V2000
   -6.1800   25.2880  -29.6410 C   0  0  0  0  0  0  0  0  0  0  0  0
   -5.1290   25.3620  -30.7600 C   0  0  0  0  0  0  0  0  0  0  0  0
   -3.8820   24.6040  -30.4750 N   0  0  0  0  0  0  0  0  0  0  0  0
   -3.5360   24.4870  -29.0370 C   0  0  0  0  0  0  0  0  0  0  0  0
   -2.0820   24.8850  -28.7710 C   0  0  0  0  0  0  0  0  0  0  0  0
   -3.8360   23.2980  -31.1780 C   0  0  0  0  0  0  0  0  0  0  0  0
   -3.4480   22.1960  -30.1910 C   0  0  0  0  0  0  0  0  0  0  0  0
   -2.1550   21.6990  -30.4900 O   0  0  0  0  0  0  0  0  0  0  0  0
   -2.2420   20.5700  -31.3340 C   0  0  0  0  0  0  0  0  0  0  0  0
   -1.7840   20.9580  -32.7390 C   0  0  0  0  0  0  0  0  0  0  0  0
   -2.9060   20.8890  -33.6730 N   0  0  0  0  0  0  0  0  0  0  0  0
   -4.0410   20.0270  -33.4690 C   0  0  0  0  0  0  0  0  0  0  0  0
   -4.0060   18.6540  -33.8080 C   0  0  0  0  0  0  0  0  0  0  0  0
   -2.8300   18.0650  -34.3160 C   0  0  0  0  0  0  0  0  0  0  0  0
   -2.8130   16.7250  -34.7000 C   0  0  0  0  0  0  0  0  0  0  0  0
   -3.9620   15.9510  -34.5880 C   0  0  0  0  0  0  0  0  0  0  0  0
   -5.1320   16.4960  -34.0600 C   0  0  0  0  0  0  0  0  0  0  0  0
   -5.1800   17.8420  -33.6240 C   0  0  0  0  0  0  0  0  0  0  0  0
   -6.3230   18.3820  -33.0500 N   0  0  0  0  0  0  0  0  0  0  0  0
   -7.4510   17.5410  -32.6130 C   0  0  0  0  0  0  0  0  0  0  0  0
   -6.3570   19.7370  -32.8400 C   0  0  0  0  0  0  0  0  0  0  0  0
   -5.2520   20.5390  -33.0150 C   0  0  0  0  0  0  0  0  0  0  0  0
   -5.5270   21.7960  -32.7340 O   0  0  0  0  0  0  0  0  0  0  0  0
   -6.7970   21.8460  -32.3960 C   0  0  0  0  0  0  0  0  0  0  0  0
   -7.5210   22.9840  -32.0490 C   0  0  0  0  0  0  0  0  0  0  0  0
   -8.8940   22.8380  -31.7840 C   0  0  0  0  0  0  0  0  0  0  0  0
   -9.5100   21.5740  -31.8870 C   0  0  0  0  0  0  0  0  0  0  0  0
   -8.7590   20.4380  -32.2360 C   0  0  0  0  0  0  0  0  0  0  0  0
   -7.3830   20.5970  -32.4540 C   0  0  0  0  0  0  0  0  0  0  0  0
   -5.6775   25.3234  -28.6631 H   0  0  0  0  0  0  0  0  0  0  0  0
   -6.8704   26.1398  -29.7295 H   0  0  0  0  0  0  0  0  0  0  0  0
   -6.7443   24.3479  -29.7295 H   0  0  0  0  0  0  0  0  0  0  0  0
   -5.5758   24.9579  -31.6804 H   0  0  0  0  0  0  0  0  0  0  0  0
   -4.8418   26.4196  -30.8549 H   0  0  0  0  0  0  0  0  0  0  0  0
   -4.1981   25.1460  -28.4562 H   0  0  0  0  0  0  0  0  0  0  0  0
   -3.6645   23.4364  -28.7375 H   0  0  0  0  0  0  0  0  0  0  0  0
   -1.9075   24.9328  -27.6860 H   0  0  0  0  0  0  0  0  0  0  0  0
   -1.4097   24.1378  -29.2179 H   0  0  0  0  0  0  0  0  0  0  0  0
   -1.8839   25.8704  -29.2179 H   0  0  0  0  0  0  0  0  0  0  0  0
   -4.8260   23.0763  -31.6032 H   0  0  0  0  0  0  0  0  0  0  0  0
   -3.0899   23.3442  -31.9850 H   0  0  0  0  0  0  0  0  0  0  0  0
   -3.4519   22.6057  -29.1702 H   0  0  0  0  0  0  0  0  0  0  0  0
   -4.1740   21.3735  -30.2705 H   0  0  0  0  0  0  0  0  0  0  0  0
   -1.5967   19.7687  -30.9446 H   0  0  0  0  0  0  0  0  0  0  0  0
   -3.2820   20.2135  -31.3691 H   0  0  0  0  0  0  0  0  0  0  0  0
   -1.3883   21.9842  -32.7217 H   0  0  0  0  0  0  0  0  0  0  0  0
   -1.0007   20.2588  -33.0669 H   0  0  0  0  0  0  0  0  0  0  0  0
   -2.9440   21.5890  -34.4500 H   0  0  0  0  0  0  0  0  0  0  0  0
   -1.9159   18.6695  -34.4104 H   0  0  0  0  0  0  0  0  0  0  0  0
   -1.8874   16.2789  -35.0928 H   0  0  0  0  0  0  0  0  0  0  0  0
   -3.9484   14.9018  -34.9180 H   0  0  0  0  0  0  0  0  0  0  0  0
   -6.0327   15.8695  -33.9810 H   0  0  0  0  0  0  0  0  0  0  0  0
   -7.4851   17.5156  -31.5138 H   0  0  0  0  0  0  0  0  0  0  0  0
   -8.3919   17.9598  -32.9995 H   0  0  0  0  0  0  0  0  0  0  0  0
   -7.3182   16.5197  -32.9995 H   0  0  0  0  0  0  0  0  0  0  0  0
   -7.0331   23.9678  -31.9842 H   0  0  0  0  0  0  0  0  0  0  0  0
   -9.4912   23.7152  -31.4946 H   0  0  0  0  0  0  0  0  0  0  0  0
  -10.5882   21.4758  -31.6925 H   0  0  0  0  0  0  0  0  0  0  0  0
   -9.2372   19.4524  -32.3352 H   0  0  0  0  0  0  0  0  0  0  0  0
  1  2  1  0
  2  3  1  0
  3  4  1  0
  4  5  1  0
  3  6  1  0
  6  7  1  0
  7  8  1  0
  8  9  1  0
  9 10  1  0
 10 11  1  0
 11 12  1  0
 12 13  2  0
 13 14  1  0
 14 15  2  0
 15 16  1  0
 16 17  2  0
 17 18  1  0
 18 19  2  0
 19 20  1  0
 19 21  1  0
 21 22  2  0
 22 23  1  0
 23 24  1  0
 24 25  2  0
 25 26  1  0
 26 27  2  0
 27 28  1  0
 28 29  2  0
 22 12  1  0
 29 24  1  0
 18 13  1  0
 29 21  1  0
  1 30  1  0
  1 31  1  0
  1 32  1  0
  2 33  1  0
  2 34  1  0
  4 35  1  0
  4 36  1  0
  5 37  1  0
  5 38  1  0
  5 39  1  0
  6 40  1  0
  6 41  1  0
  7 42  1  0
  7 43  1  0
  9 44  1  0
  9 45  1  0
 10 46  1  0
 10 47  1  0
 11 48  1  0
 14 49  1  0
 15 50  1  0
 16 51  1  0
 17 52  1  0
 20 53  1  0
 20 54  1  0
 20 55  1  0
 25 56  1  0
 26 57  1  0
 27 58  1  0
 28 59  1  0
M  CHG  1  19   1
M  END
>  <UniqueID>  (8) 
8

>  <SMILES>  (8) 
CCN(CC)CCOCCNc1c2ccccc2[n+](C)c2c1oc1ccccc12

>  <Energy>  (8) 
124.08325942866985

>  <Genealogy>  (8) 
CCN(CC)CCOCCNc1c2ccccc2[n+](C)c2c1oc1ccccc12 (3D coordinates assigned)
CCN(CC)CCOCCNc1c2ccccc2[n+](C)c2c1oc1ccccc12 (optimized conformer: 124.08325942866985 kcal/mol)

>  <smiles>  (8) 
CCN(CC)CCOCCNc1c2ccccc2[n+](C)c2c1oc1ccccc12

>  <score_type>  (8) 
oracle

>  <origin>  (8) 
adg

>  <m_score__min__energy>  (8) 
-9.1400000000000006

>  <m_primary>  (8) 
energy

$$$$
8:0
     RDKit          3D

 59 62  0  0  0  0  0  0  0  0999 V2000
   -4.0970   24.8250  -26.6630 C   0  0  0  0  0  0  0  0  0  0  0  0
   -3.7470   24.2030  -28.0210 C   0  0  0  0  0  0  0  0  0  0  0  0
   -4.9300   24.0250  -28.9000 N   0  0  0  0  0  0  0  0  0  0  0  0
   -4.8950   24.9590  -30.0580 C   0  0  0  0  0  0  0  0  0  0  0  0
   -6.1710   24.9240  -30.9050 C   0  0  0  0  0  0  0  0  0  0  0  0
   -5.1140   22.5920  -29.2740 C   0  0  0  0  0  0  0  0  0  0  0  0
   -4.0620   21.9940  -30.2410 C   0  0  0  0  0  0  0  0  0  0  0  0
   -4.4690   22.0740  -31.6460 N   0  0  0  0  0  0  0  0  0  0  0  0
   -4.3670   20.9040  -32.4790 C   0  0  0  0  0  0  0  0  0  0  0  0
   -3.1270   20.5820  -33.0610 C   0  0  0  0  0  0  0  0  0  0  0  0
   -2.0980   21.5420  -33.1730 C   0  0  0  0  0  0  0  0  0  0  0  0
   -0.9020   21.2290  -33.8140 C   0  0  0  0  0  0  0  0  0  0  0  0
   -0.7110   19.9630  -34.3540 C   0  0  0  0  0  0  0  0  0  0  0  0
   -1.6980   18.9870  -34.2160 C   0  0  0  0  0  0  0  0  0  0  0  0
   -2.9050   19.2610  -33.5240 C   0  0  0  0  0  0  0  0  0  0  0  0
   -3.8370   18.2760  -33.2640 N   0  0  0  0  0  0  0  0  0  0  0  0
   -3.4490   16.8500  -33.3720 C   0  0  0  0  0  0  0  0  0  0  0  0
   -5.1190   18.6240  -32.8800 C   0  0  0  0  0  0  0  0  0  0  0  0
   -6.1460   17.6530  -32.7850 C   0  0  0  0  0  0  0  0  0  0  0  0
   -7.4240   17.9900  -32.3600 C   0  0  0  0  0  0  0  0  0  0  0  0
   -7.7680   19.3220  -32.1400 C   0  0  0  0  0  0  0  0  0  0  0  0
   -9.0890   19.6510  -31.8070 C   0  0  0  0  0  0  0  0  0  0  0  0
   -9.4850   20.9850  -31.7270 C   0  0  0  0  0  0  0  0  0  0  0  0
   -8.5820   22.0040  -32.0400 C   0  0  0  0  0  0  0  0  0  0  0  0
   -9.0290   23.4360  -32.0140 C   0  0  0  0  0  0  0  0  0  0  0  0
   -7.2500   21.6790  -32.3410 C   0  0  0  0  0  0  0  0  0  0  0  0
   -6.7970   20.3400  -32.3160 C   0  0  0  0  0  0  0  0  0  0  0  0
   -5.4350   19.9760  -32.5620 C   0  0  0  0  0  0  0  0  0  0  0  0
   -3.7305   24.1736  -25.8560 H   0  0  0  0  0  0  0  0  0  0  0  0
   -3.6230   25.8141  -26.5797 H   0  0  0  0  0  0  0  0  0  0  0  0
   -5.1885   24.9333  -26.5797 H   0  0  0  0  0  0  0  0  0  0  0  0
   -3.0265   24.8588  -28.5316 H   0  0  0  0  0  0  0  0  0  0  0  0
   -3.3280   23.2045  -27.8272 H   0  0  0  0  0  0  0  0  0  0  0  0
   -5.7750   24.2770  -28.3310 H   0  0  0  0  0  0  0  0  0  0  0  0
   -4.7568   25.9817  -29.6773 H   0  0  0  0  0  0  0  0  0  0  0  0
   -4.0652   24.6419  -30.7067 H   0  0  0  0  0  0  0  0  0  0  0  0
   -7.0496   24.8999  -30.2436 H   0  0  0  0  0  0  0  0  0  0  0  0
   -6.2144   25.8213  -31.5398 H   0  0  0  0  0  0  0  0  0  0  0  0
   -6.1652   24.0257  -31.5398 H   0  0  0  0  0  0  0  0  0  0  0  0
   -5.0933   21.9987  -28.3479 H   0  0  0  0  0  0  0  0  0  0  0  0
   -6.0690   22.5515  -29.8184 H   0  0  0  0  0  0  0  0  0  0  0  0
   -3.1180   22.5449  -30.1171 H   0  0  0  0  0  0  0  0  0  0  0  0
   -3.9502   20.9289  -29.9897 H   0  0  0  0  0  0  0  0  0  0  0  0
   -4.6290   23.0010  -32.0960 H   0  0  0  0  0  0  0  0  0  0  0  0
   -2.2423   22.5470  -32.7498 H   0  0  0  0  0  0  0  0  0  0  0  0
   -0.1071   21.9853  -33.8930 H   0  0  0  0  0  0  0  0  0  0  0  0
    0.2202   19.7300  -34.8913 H   0  0  0  0  0  0  0  0  0  0  0  0
   -1.5375   17.9894  -34.6507 H   0  0  0  0  0  0  0  0  0  0  0  0
   -3.3331   16.4242  -32.3644 H   0  0  0  0  0  0  0  0  0  0  0  0
   -4.2295   16.2978  -33.9159 H   0  0  0  0  0  0  0  0  0  0  0  0
   -2.4963   16.7694  -33.9159 H   0  0  0  0  0  0  0  0  0  0  0  0
   -5.9261   16.6093  -33.0538 H   0  0  0  0  0  0  0  0  0  0  0  0
   -8.1708   17.1992  -32.1957 H   0  0  0  0  0  0  0  0  0  0  0  0
   -9.8178   18.8516  -31.6075 H   0  0  0  0  0  0  0  0  0  0  0  0
  -10.5101   21.2358  -31.4169 H   0  0  0  0  0  0  0  0  0  0  0  0
   -9.1329   23.7688  -30.9707 H   0  0  0  0  0  0  0  0  0  0  0  0
   -8.2836   24.0622  -32.5261 H   0  0  0  0  0  0  0  0  0  0  0  0
   -9.9983   23.5269  -32.5261 H   0  0  0  0  0  0  0  0  0  0  0  0
   -6.5448   22.4820  -32.6015 H   0  0  0  0  0  0  0  0  0  0  0  0
  1  2  1  0
  2  3  1  0
  3  4  1  0
  4  5  1  0
  3  6  1  0
  6  7  1  0
  7  8  1  0
  8  9  1  0
  9 10  2  0
 10 11  1  0
 11 12  2  0
 12 13  1  0
 13 14  2  0
 14 15  1  0
 15 16  2  0
 16 17  1  0
 16 18  1  0
 18 19  2  0
 19 20  1  0
 20 21  2  0
 21 22  1  0
 22 23  2  0
 23 24  1  0
 24 25  1  0
 24 26  2  0
 26 27  1  0
 27 28  2  0
 28  9  1  0
 15 10  1  0
 28 18  1  0
 27 21  1  0
  1 29  1  0
  1 30  1  0
  1 31  1  0
  2 32  1  0
  2 33  1  0
  3 34  1  0
  4 35  1  0
  4 36  1  0
  5 37  1  0
  5 38  1  0
  5 39  1  0
  6 40  1  0
  6 41  1  0
  7 42  1  0
  7 43  1  0
  8 44  1  0
 11 45  1  0
 12 46  1  0
 13 47  1  0
 14 48  1  0
 17 49  1  0
 17 50  1  0
 17 51  1  0
 19 52  1  0
 20 53  1  0
 22 54  1  0
 23 55  1  0
 25 56  1  0
 25 57  1  0
 25 58  1  0
 26 59  1  0
M  CHG  2   3   1  16   1
M  END
>  <UniqueID>  (9) 
9

>  <SMILES>  (9) 
CC[NH+](CC)CCNc1c2ccccc2[n+](C)c2ccc3ccc(C)cc3c12

>  <Energy>  (9) 
105.7586584207185

>  <Genealogy>  (9) 
CC[NH+](CC)CCNc1c2ccccc2[n+](C)c2ccc3ccc(C)cc3c12 (protonated)
CC[NH+](CC)CCNc1c2ccccc2[n+](C)c2ccc3ccc(C)cc3c12 (3D coordinates assigned)
CC[NH+](CC)CCNc1c2ccccc2[n+](C)c2ccc3ccc(C)cc3c12 (optimized conformer: 105.7586584207185 kcal/mol)

>  <smiles>  (9) 
CCN(CC)CCNc1c2ccccc2[n+](C)c2ccc3ccc(C)cc3c12

>  <score_type>  (9) 
oracle

>  <origin>  (9) 
adg

>  <m_score__min__energy>  (9) 
-8.1999999999999993

>  <m_primary>  (9) 
energy

$$$$
9:0
     RDKit          3D

 41 44  0  0  1  0  0  0  0  0999 V2000
   -9.4800   20.6390  -31.9840 C   0  0  0  0  0  0  0  0  0  0  0  0
   -8.6390   20.0520  -33.0080 N   0  0  0  0  0  0  0  0  0  0  0  0
   -7.9590   18.8610  -32.5500 C   0  0  0  0  0  0  0  0  0  0  0  0
   -6.6210   18.6310  -33.1610 C   0  0  0  0  0  0  0  0  0  0  0  0
   -5.9600   19.7820  -33.6690 N   0  0  0  0  0  0  0  0  0  0  0  0
   -5.5910   20.9440  -32.9670 C   0  0  0  0  0  0  0  0  0  0  0  0
   -4.2570   21.1490  -32.6160 C   0  0  0  0  0  0  0  0  0  0  0  0
   -3.8610   22.2820  -31.9050 C   0  0  0  0  0  0  0  0  0  0  0  0
   -2.6060   22.3670  -31.6340 N   0  0  0  0  0  0  0  0  0  0  0  0
   -1.9990   21.5040  -30.7030 C   0  0  0  0  0  0  0  0  0  0  0  0
   -0.7380   20.9710  -30.8010 C   0  0  0  0  0  0  0  0  0  0  0  0
   -0.1680   20.1360  -29.8780 C   0  0  0  0  0  0  0  0  0  0  0  0
   -0.8780   19.7590  -28.7180 C   0  0  0  0  0  0  0  0  0  0  0  0
   -0.4630   18.9830  -27.7630 N   0  0  0  0  0  0  0  0  0  0  0  0
   -1.2460   18.7100  -26.7110 C   0  0  0  0  0  0  0  0  0  0  0  0
   -2.8060   19.6840  -27.1080 S   0  0  0  0  0  0  0  0  0  0  0  0
   -2.1470   20.3010  -28.6270 C   0  0  0  0  0  0  0  0  0  0  0  0
   -2.7090   21.1310  -29.5510 C   0  0  0  0  0  0  0  0  0  0  0  0
   -4.7560   23.2110  -31.5380 N   0  0  0  0  0  0  0  0  0  0  0  0
   -4.6040   24.3390  -30.8700 N   0  0  0  0  0  0  0  0  0  0  0  0
   -5.8140   24.9040  -30.7610 C   0  0  0  0  0  0  0  0  0  0  0  0
   -6.7370   24.0990  -31.3810 C   0  0  0  0  0  0  0  0  0  0  0  0
   -6.0330   23.0020  -31.8810 C   0  0  0  0  0  0  0  0  0  0  0  0
   -6.4410   21.9060  -32.5720 N   0  0  0  0  0  0  0  0  0  0  0  0
   -9.0919   20.3681  -30.9910 H   0  0  0  0  0  0  0  0  0  0  0  0
   -9.4792   21.7337  -32.0919 H   0  0  0  0  0  0  0  0  0  0  0  0
  -10.5073   20.2607  -32.0919 H   0  0  0  0  0  0  0  0  0  0  0  0
   -9.1220   19.9260  -33.9050 H   0  0  0  0  0  0  0  0  0  0  0  0
   -7.8286   18.9391  -31.4605 H   0  0  0  0  0  0  0  0  0  0  0  0
   -8.5875   18.0104  -32.8525 H   0  0  0  0  0  0  0  0  0  0  0  0
   -5.9733   18.1829  -32.3931 H   0  0  0  0  0  0  0  0  0  0  0  0
   -6.8011   17.9846  -34.0326 H   0  0  0  0  0  0  0  0  0  0  0  0
   -5.7140   19.7770  -34.7100 H   0  0  0  0  0  0  0  0  0  0  0  0
   -3.5024   20.4028  -32.9054 H   0  0  0  0  0  0  0  0  0  0  0  0
   -0.1412   21.2343  -31.6868 H   0  0  0  0  0  0  0  0  0  0  0  0
    0.8512   19.7560  -30.0417 H   0  0  0  0  0  0  0  0  0  0  0  0
   -1.0315   18.0772  -25.8372 H   0  0  0  0  0  0  0  0  0  0  0  0
   -3.7286   21.5121  -29.3923 H   0  0  0  0  0  0  0  0  0  0  0  0
   -6.0321   25.8571  -30.2571 H   0  0  0  0  0  0  0  0  0  0  0  0
   -7.8182   24.2822  -31.4669 H   0  0  0  0  0  0  0  0  0  0  0  0
   -7.4440   21.8400  -32.7780 H   0  0  0  0  0  0  0  0  0  0  0  0
  1  2  1  0
  2  3  1  0
  3  4  1  0
  4  5  1  0
  5  6  1  0
  6  7  2  0
  7  8  1  0
  8  9  2  0
  9 10  1  0
 10 11  2  0
 11 12  1  0
 12 13  2  0
 13 14  1  0
 14 15  2  0
 15 16  1  0
 16 17  1  0
 17 18  2  0
  8 19  1  0
 19 20  1  0
 20 21  2  0
 21 22  1  0
 22 23  2  0
 23 24  1  0
 24  6  1  0
 18 10  1  0
 23 19  1  0
 17 13  1  0
  1 25  1  0
  1 26  1  0
  1 27  1  0
  2 28  1  0
  3 29  1  0
  3 30  1  0
  4 31  1  0
  4 32  1  0
  5 33  1  0
  7 34  1  0
 11 35  1  0
 12 36  1  0
 15 37  1  0
 18 38  1  0
 21 39  1  0
 22 40  1  0
 24 41  1  0
M  END
>  <smiles>  (10) 
CNCCNc1cc(=Nc2ccc3ncsc3c2)n2nccc2[nH]1

>  <score_type>  (10) 
oracle

>  <origin>  (10) 
adg

>  <m_score__min__energy>  (10) 
-7.6399999999999997

>  <m_primary>  (10) 
energy

$$$$
10:0
     RDKit          3D

 50 52  0  0  0  0  0  0  0  0999 V2000
   -2.6400   25.3090  -26.1910 C   0  0  0  0  0  0  0  0  0  0  0  0
   -3.2210   24.2320  -27.1090 C   0  0  0  0  0  0  0  0  0  0  0  0
   -4.5920   24.5660  -27.5590 N   0  0  0  0  0  0  0  0  0  0  0  0
   -4.9420   23.9780  -28.8670 C   0  0  0  0  0  0  0  0  0  0  0  0
   -4.6430   24.9000  -30.0690 C   0  0  0  0  0  0  0  0  0  0  0  0
   -5.6160   24.7720  -31.2580 C   0  0  0  0  0  0  0  0  0  0  0  0
   -6.4400   23.4730  -31.2510 C   0  0  0  0  0  0  0  0  0  0  0  0
   -6.4570   22.8250  -32.5620 N   0  0  0  0  0  0  0  0  0  0  0  0
   -6.1560   21.4260  -32.6780 C   0  0  0  0  0  0  0  0  0  0  0  0
   -4.8360   20.9980  -32.8960 C   0  0  0  0  0  0  0  0  0  0  0  0
   -3.7720   21.9250  -32.9380 C   0  0  0  0  0  0  0  0  0  0  0  0
   -2.4590   21.4960  -33.1050 C   0  0  0  0  0  0  0  0  0  0  0  0
   -2.1790   20.1400  -33.2140 C   0  0  0  0  0  0  0  0  0  0  0  0
   -3.2130   19.2040  -33.1780 C   0  0  0  0  0  0  0  0  0  0  0  0
   -4.5660   19.6110  -33.0480 C   0  0  0  0  0  0  0  0  0  0  0  0
   -5.6040   18.6980  -33.0450 N   0  0  0  0  0  0  0  0  0  0  0  0
   -5.3650   17.3040  -33.4830 C   0  0  0  0  0  0  0  0  0  0  0  0
   -6.8710   19.0930  -32.6570 C   0  0  0  0  0  0  0  0  0  0  0  0
   -7.8970   18.1510  -32.3850 C   0  0  0  0  0  0  0  0  0  0  0  0
   -9.1850   18.5670  -32.0510 C   0  0  0  0  0  0  0  0  0  0  0  0
   -9.4850   19.9220  -31.9690 C   0  0  0  0  0  0  0  0  0  0  0  0
   -8.4900   20.8700  -32.1880 C   0  0  0  0  0  0  0  0  0  0  0  0
   -7.1730   20.4720  -32.5050 C   0  0  0  0  0  0  0  0  0  0  0  0
   -2.7962   25.0194  -25.1414 H   0  0  0  0  0  0  0  0  0  0  0  0
   -1.5625   25.4146  -26.3858 H   0  0  0  0  0  0  0  0  0  0  0  0
   -3.1435   26.2674  -26.3858 H   0  0  0  0  0  0  0  0  0  0  0  0
   -2.5725   24.1303  -27.9917 H   0  0  0  0  0  0  0  0  0  0  0  0
   -3.2700   23.2916  -26.5404 H   0  0  0  0  0  0  0  0  0  0  0  0
   -4.7610   25.5970  -27.5620 H   0  0  0  0  0  0  0  0  0  0  0  0
   -5.2640   24.1690  -26.8610 H   0  0  0  0  0  0  0  0  0  0  0  0
   -4.3683   23.0480  -28.9930 H   0  0  0  0  0  0  0  0  0  0  0  0
   -6.0286   23.8069  -28.8591 H   0  0  0  0  0  0  0  0  0  0  0  0
   -4.6751   25.9409  -29.7147 H   0  0  0  0  0  0  0  0  0  0  0  0
   -3.6575   24.5929  -30.4491 H   0  0  0  0  0  0  0  0  0  0  0  0
   -6.3116   25.6237  -31.2298 H   0  0  0  0  0  0  0  0  0  0  0  0
   -5.0039   24.7573  -32.1718 H   0  0  0  0  0  0  0  0  0  0  0  0
   -6.0022   22.7793  -30.5181 H   0  0  0  0  0  0  0  0  0  0  0  0
   -7.4763   23.7308  -30.9872 H   0  0  0  0  0  0  0  0  0  0  0  0
   -6.4570   23.3970  -33.4350 H   0  0  0  0  0  0  0  0  0  0  0  0
   -3.9837   22.9998  -32.8374 H   0  0  0  0  0  0  0  0  0  0  0  0
   -1.6421   22.2313  -33.1507 H   0  0  0  0  0  0  0  0  0  0  0  0
   -1.1383   19.8028  -33.3291 H   0  0  0  0  0  0  0  0  0  0  0  0
   -2.9753   18.1325  -33.2516 H   0  0  0  0  0  0  0  0  0  0  0  0
   -5.2540   16.6564  -32.6008 H   0  0  0  0  0  0  0  0  0  0  0  0
   -6.2170   16.9582  -34.0868 H   0  0  0  0  0  0  0  0  0  0  0  0
   -4.4465   17.2617  -34.0868 H   0  0  0  0  0  0  0  0  0  0  0  0
   -7.6724   17.0755  -32.4386 H   0  0  0  0  0  0  0  0  0  0  0  0
   -9.9673   17.8199  -31.8515 H   0  0  0  0  0  0  0  0  0  0  0  0
  -10.5092   20.2449  -31.7309 H   0  0  0  0  0  0  0  0  0  0  0  0
   -8.7321   21.9404  -32.1134 H   0  0  0  0  0  0  0  0  0  0  0  0
  1  2  1  0
  2  3  1  0
  3  4  1  0
  4  5  1  0
  5  6  1  0
  6  7  1  0
  7  8  1  0
  8  9  1  0
  9 10  2  0
 10 11  1  0
 11 12  2  0
 12 13  1  0
 13 14  2  0
 14 15  1  0
 15 16  2  0
 16 17  1  0
 16 18  1  0
 18 19  2  0
 19 20  1  0
 20 21  2  0
 21 22  1  0
 22 23  2  0
 23  9  1  0
 15 10  1  0
 23 18  1  0
  1 24  1  0
  1 25  1  0
  1 26  1  0
  2 27  1  0
  2 28  1  0
  3 29  1  0
  3 30  1  0
  4 31  1  0
  4 32  1  0
  5 33  1  0
  5 34  1  0
  6 35  1  0
  6 36  1  0
  7 37  1  0
  7 38  1  0
  8 39  1  0
 11 40  1  0
 12 41  1  0
 13 42  1  0
 14 43  1  0
 17 44  1  0
 17 45  1  0
 17 46  1  0
 19 47  1  0
 20 48  1  0
 21 49  1  0
 22 50  1  0
M  CHG  2   3   1  16   1
M  END
>  <UniqueID>  (11) 
10

>  <SMILES>  (11) 
CC[NH2+]CCCCNc1c2ccccc2[n+](C)c2ccccc12

>  <Energy>  (11) 
75.63407737485242

>  <Genealogy>  (11) 
CC[NH2+]CCCCNc1c2ccccc2[n+](C)c2ccccc12 (protonated)
CC[NH2+]CCCCNc1c2ccccc2[n+](C)c2ccccc12 (3D coordinates assigned)
CC[NH2+]CCCCNc1c2ccccc2[n+](C)c2ccccc12 (optimized conformer: 75.63407737485242 kcal/mol)

>  <smiles>  (11) 
CCNCCCCNc1c2ccccc2[n+](C)c2ccccc12

>  <score_type>  (11) 
oracle

>  <origin>  (11) 
adg

>  <m_score__min__energy>  (11) 
-7.71

>  <m_primary>  (11) 
energy

$$$$
11:0
     RDKit          3D

 43 45  0  0  0  0  0  0  0  0999 V2000
   -9.8720   21.5270  -31.9560 C   0  0  0  0  0  0  0  0  0  0  0  0
   -8.6360   21.8040  -31.1110 C   0  0  0  0  0  0  0  0  0  0  0  0
   -7.4370   21.3000  -31.7830 N   0  0  0  0  0  0  0  0  0  0  0  0
   -6.4320   22.0190  -32.3510 C   0  0  0  0  0  0  0  0  0  0  0  0
   -6.3320   23.8100  -32.3190 S   0  0  0  0  0  0  0  0  0  0  0  0
   -6.0710   23.9190  -30.5150 C   0  0  0  0  0  0  0  0  0  0  0  0
   -5.3420   25.2210  -30.1850 C   0  0  0  0  0  0  0  0  0  0  0  0
   -3.9470   25.1090  -30.4700 O   0  0  0  0  0  0  0  0  0  0  0  0
   -3.1110   24.0440  -30.0900 C   0  0  0  0  0  0  0  0  0  0  0  0
   -3.3640   22.7090  -30.4650 C   0  0  0  0  0  0  0  0  0  0  0  0
   -2.5030   21.6860  -30.0580 C   0  0  0  0  0  0  0  0  0  0  0  0
   -1.3820   21.9810  -29.2840 C   0  0  0  0  0  0  0  0  0  0  0  0
   -1.1170   23.3000  -28.9120 C   0  0  0  0  0  0  0  0  0  0  0  0
   -1.9810   24.3400  -29.3110 C   0  0  0  0  0  0  0  0  0  0  0  0
   -1.7510   25.6780  -28.9540 O   0  0  0  0  0  0  0  0  0  0  0  0
   -1.2030   26.0970  -27.7080 C   0  0  0  0  0  0  0  0  0  0  0  0
   -5.4930   21.2530  -32.9630 N   0  0  0  0  0  0  0  0  0  0  0  0
   -5.9510   20.0040  -32.7680 C   0  0  0  0  0  0  0  0  0  0  0  0
   -5.3730   18.8130  -33.2020 C   0  0  0  0  0  0  0  0  0  0  0  0
   -6.0430   17.6130  -32.9000 C   0  0  0  0  0  0  0  0  0  0  0  0
   -7.2620   17.6340  -32.1850 C   0  0  0  0  0  0  0  0  0  0  0  0
   -7.8200   18.8540  -31.7600 C   0  0  0  0  0  0  0  0  0  0  0  0
   -7.1230   20.0250  -32.0690 C   0  0  0  0  0  0  0  0  0  0  0  0
  -10.7312   21.3344  -31.2967 H   0  0  0  0  0  0  0  0  0  0  0  0
  -10.0852   22.3996  -32.5909 H   0  0  0  0  0  0  0  0  0  0  0  0
   -9.6924   20.6468  -32.5909 H   0  0  0  0  0  0  0  0  0  0  0  0
   -8.5370   22.8888  -30.9577 H   0  0  0  0  0  0  0  0  0  0  0  0
   -8.7437   21.2945  -30.1421 H   0  0  0  0  0  0  0  0  0  0  0  0
   -7.0438   23.9030  -30.0019 H   0  0  0  0  0  0  0  0  0  0  0  0
   -5.4659   23.0640  -30.1791 H   0  0  0  0  0  0  0  0  0  0  0  0
   -5.7688   26.0358  -30.7882 H   0  0  0  0  0  0  0  0  0  0  0  0
   -5.4663   25.4320  -29.1126 H   0  0  0  0  0  0  0  0  0  0  0  0
   -4.2436   22.4711  -31.0812 H   0  0  0  0  0  0  0  0  0  0  0  0
   -2.7105   20.6457  -30.3492 H   0  0  0  0  0  0  0  0  0  0  0  0
   -0.7057   21.1738  -28.9661 H   0  0  0  0  0  0  0  0  0  0  0  0
   -0.2292   23.5292  -28.3043 H   0  0  0  0  0  0  0  0  0  0  0  0
   -1.7827   25.6538  -26.8849 H   0  0  0  0  0  0  0  0  0  0  0  0
   -0.1560   25.7669  -27.6384 H   0  0  0  0  0  0  0  0  0  0  0  0
   -1.2471   27.1939  -27.6384 H   0  0  0  0  0  0  0  0  0  0  0  0
   -4.4258   18.8108  -33.7613 H   0  0  0  0  0  0  0  0  0  0  0  0
   -5.6152   16.6523  -33.2225 H   0  0  0  0  0  0  0  0  0  0  0  0
   -7.7785   16.6895  -31.9590 H   0  0  0  0  0  0  0  0  0  0  0  0
   -8.7694   18.8846  -31.2053 H   0  0  0  0  0  0  0  0  0  0  0  0
  1  2  1  0
  2  3  1  0
  3  4  1  0
  4  5  1  0
  5  6  1  0
  6  7  1  0
  7  8  1  0
  8  9  1  0
  9 10  2  0
 10 11  1  0
 11 12  2  0
 12 13  1  0
 13 14  2  0
 14 15  1  0
 15 16  1  0
  4 17  2  0
 17 18  1  0
 18 19  2  0
 19 20  1  0
 20 21  2  0
 21 22  1  0
 22 23  2  0
 23  3  1  0
 14  9  1  0
 23 18  1  0
  1 24  1  0
  1 25  1  0
  1 26  1  0
  2 27  1  0
  2 28  1  0
  6 29  1  0
  6 30  1  0
  7 31  1  0
  7 32  1  0
 10 33  1  0
 11 34  1  0
 12 35  1  0
 13 36  1  0
 16 37  1  0
 16 38  1  0
 16 39  1  0
 19 40  1  0
 20 41  1  0
 21 42  1  0
 22 43  1  0
M  END
>  <UniqueID>  (12) 
11

>  <SMILES>  (12) 
CCn1c(SCCOc2ccccc2OC)nc2ccccc21

>  <Energy>  (12) 
74.45628867878682

>  <Genealogy>  (12) 
CCn1c(SCCOc2ccccc2OC)nc2ccccc21 (3D coordinates assigned)
CCn1c(SCCOc2ccccc2OC)nc2ccccc21 (optimized conformer: 74.45628867878682 kcal/mol)

>  <smiles>  (12) 
CCn1c(SCCOc2ccccc2OC)nc2ccccc21

>  <score_type>  (12) 
oracle

>  <origin>  (12) 
adg

>  <m_score__min__energy>  (12) 
-9.0500000000000007

>  <m_primary>  (12) 
energy

$$$$
12:0
     RDKit          3D

 41 42  0  0  0  0  0  0  0  0999 V2000
   -2.7080   18.9670  -33.0280 C   0  0  0  0  0  0  0  0  0  0  0  0
   -2.3760   19.9040  -34.1880 C   0  0  0  0  0  0  0  0  0  0  0  0
   -2.6970   21.2990  -33.8410 N   0  0  0  0  0  0  0  0  0  0  0  0
   -2.6420   21.5520  -32.3880 C   0  0  0  0  0  0  0  0  0  0  0  0
   -4.0100   21.8900  -31.7680 C   0  0  0  0  0  0  0  0  0  0  0  0
   -5.0640   21.7420  -32.7190 O   0  0  0  0  0  0  0  0  0  0  0  0
   -6.4350   21.8430  -32.4370 C   0  0  0  0  0  0  0  0  0  0  0  0
   -7.0300   23.0720  -32.0950 C   0  0  0  0  0  0  0  0  0  0  0  0
   -8.4000   23.1440  -31.8340 C   0  0  0  0  0  0  0  0  0  0  0  0
   -9.1900   21.9980  -31.9150 C   0  0  0  0  0  0  0  0  0  0  0  0
   -8.6130   20.7730  -32.2570 C   0  0  0  0  0  0  0  0  0  0  0  0
   -7.2340   20.6820  -32.5130 C   0  0  0  0  0  0  0  0  0  0  0  0
   -6.6490   19.3890  -32.9380 C   0  0  0  0  0  0  0  0  0  0  0  0
   -6.1130   19.2330  -34.2280 C   0  0  0  0  0  0  0  0  0  0  0  0
   -5.6070   17.9970  -34.6380 C   0  0  0  0  0  0  0  0  0  0  0  0
   -5.6370   16.8960  -33.7700 C   0  0  0  0  0  0  0  0  0  0  0  0
   -5.0680   15.5770  -34.2020 C   0  0  0  0  0  0  0  0  0  0  0  0
   -6.1430   17.0560  -32.4730 C   0  0  0  0  0  0  0  0  0  0  0  0
   -6.6490   18.2910  -32.0610 C   0  0  0  0  0  0  0  0  0  0  0  0
   -2.5247   19.4844  -32.0747 H   0  0  0  0  0  0  0  0  0  0  0  0
   -3.7658   18.6709  -33.0870 H   0  0  0  0  0  0  0  0  0  0  0  0
   -2.0726   18.0710  -33.0870 H   0  0  0  0  0  0  0  0  0  0  0  0
   -1.3031   19.8272  -34.4181 H   0  0  0  0  0  0  0  0  0  0  0  0
   -2.9765   19.6105  -35.0616 H   0  0  0  0  0  0  0  0  0  0  0  0
   -1.9970   21.9290  -34.2970 H   0  0  0  0  0  0  0  0  0  0  0  0
   -3.6420   21.5500  -34.2130 H   0  0  0  0  0  0  0  0  0  0  0  0
   -2.2490   20.6517  -31.8931 H   0  0  0  0  0  0  0  0  0  0  0  0
   -1.9949   22.4288  -32.2380 H   0  0  0  0  0  0  0  0  0  0  0  0
   -4.1955   21.2141  -30.9202 H   0  0  0  0  0  0  0  0  0  0  0  0
   -3.9894   22.9381  -31.4346 H   0  0  0  0  0  0  0  0  0  0  0  0
   -6.4127   23.9803  -32.0330 H   0  0  0  0  0  0  0  0  0  0  0  0
   -8.8571   24.1074  -31.5638 H   0  0  0  0  0  0  0  0  0  0  0  0
  -10.2689   22.0588  -31.7093 H   0  0  0  0  0  0  0  0  0  0  0  0
   -9.2421   19.8733  -32.3265 H   0  0  0  0  0  0  0  0  0  0  0  0
   -6.0918   20.0889  -34.9186 H   0  0  0  0  0  0  0  0  0  0  0  0
   -5.1829   17.8869  -35.6469 H   0  0  0  0  0  0  0  0  0  0  0  0
   -4.8106   14.9803  -33.3144 H   0  0  0  0  0  0  0  0  0  0  0  0
   -5.8127   15.0359  -34.8042 H   0  0  0  0  0  0  0  0  0  0  0  0
   -4.1634   15.7475  -34.8042 H   0  0  0  0  0  0  0  0  0  0  0  0
   -6.1417   16.2049  -31.7761 H   0  0  0  0  0  0  0  0  0  0  0  0
   -7.0502   18.4049  -31.0431 H   0  0  0  0  0  0  0  0  0  0  0  0
  1  2  1  0
  2  3  1  0
  3  4  1  0
  4  5  1  0
  5  6  1  0
  6  7  1  0
  7  8  2  0
  8  9  1  0
  9 10  2  0
 10 11  1  0
 11 12  2  0
 12 13  1  0
 13 14  2  0
 14 15  1  0
 15 16  2  0
 16 17  1  0
 16 18  1  0
 18 19  2  0
 12  7  1  0
 19 13  1  0
  1 20  1  0
  1 21  1  0
  1 22  1  0
  2 23  1  0
  2 24  1  0
  3 25  1  0
  3 26  1  0
  4 27  1  0
  4 28  1  0
  5 29  1  0
  5 30  1  0
  8 31  1  0
  9 32  1  0
 10 33  1  0
 11 34  1  0
 14 35  1  0
 15 36  1  0
 17 37  1  0
 17 38  1  0
 17 39  1  0
 18 40  1  0
 19 41  1  0
M  CHG  1   3   1
M  END
>  <UniqueID>  (13) 
12

>  <SMILES>  (13) 
CC[NH2+]CCOc1ccccc1-c1ccc(C)cc1

>  <Energy>  (13) 
42.4739720446819

>  <Genealogy>  (13) 
CC[NH2+]CCOc1ccccc1-c1ccc(C)cc1 (protonated)
CC[NH2+]CCOc1ccccc1-c1ccc(C)cc1 (3D coordinates assigned)
CC[NH2+]CCOc1ccccc1-c1ccc(C)cc1 (optimized conformer: 42.4739720446819 kcal/mol)

>  <smiles>  (13) 
CCNCCOc1ccccc1-c1ccc(C)cc1

>  <score_type>  (13) 
oracle

>  <origin>  (13) 
adg

>  <m_score__min__energy>  (13) 
-6

>  <m_primary>  (13) 
energy

$$$$
13:0
     RDKit          3D

 43 44  0  0  0  0  0  0  0  0999 V2000
   -9.0310   18.9120  -31.6680 C   0  0  0  0  0  0  0  0  0  0  0  0
   -8.7560   20.1570  -32.5050 C   0  0  0  0  0  0  0  0  0  0  0  0
   -7.3100   20.3610  -32.6720 N   0  0  0  0  0  0  0  0  0  0  0  0
   -6.6360   21.4530  -32.2150 C   0  0  0  0  0  0  0  0  0  0  0  0
   -7.2610   22.5630  -31.5640 N   0  0  0  0  0  0  0  0  0  0  0  0
   -8.1490   23.4260  -32.3410 C   0  0  0  0  0  0  0  0  0  0  0  0
   -6.8590   22.9270  -30.2020 C   0  0  0  0  0  0  0  0  0  0  0  0
   -5.3310   22.9640  -30.0850 C   0  0  0  0  0  0  0  0  0  0  0  0
   -4.7880   24.1960  -30.6970 N   0  0  0  0  0  0  0  0  0  0  0  0
   -3.4890   24.5340  -30.0920 C   0  0  0  0  0  0  0  0  0  0  0  0
   -5.7170   25.3270  -30.5260 C   0  0  0  0  0  0  0  0  0  0  0  0
   -4.9800   21.3760  -32.5440 S   0  0  0  0  0  0  0  0  0  0  0  0
   -5.1220   19.8750  -33.2910 C   0  0  0  0  0  0  0  0  0  0  0  0
   -4.1310   19.0800  -33.8690 C   0  0  0  0  0  0  0  0  0  0  0  0
   -2.6930   19.5080  -33.8790 C   0  0  0  0  0  0  0  0  0  0  0  0
   -4.5290   17.8480  -34.4180 C   0  0  0  0  0  0  0  0  0  0  0  0
   -5.8840   17.4680  -34.3810 C   0  0  0  0  0  0  0  0  0  0  0  0
   -6.8210   18.2810  -33.8120 N   0  0  0  0  0  0  0  0  0  0  0  0
   -6.4520   19.4770  -33.2680 C   0  0  0  0  0  0  0  0  0  0  0  0
   -8.9744   19.1684  -30.5998 H   0  0  0  0  0  0  0  0  0  0  0  0
  -10.0355   18.5285  -31.9003 H   0  0  0  0  0  0  0  0  0  0  0  0
   -8.2815   18.1411  -31.9003 H   0  0  0  0  0  0  0  0  0  0  0  0
   -9.2205   20.0367  -33.4948 H   0  0  0  0  0  0  0  0  0  0  0  0
   -9.1795   21.0312  -31.9888 H   0  0  0  0  0  0  0  0  0  0  0  0
   -8.7670   24.0266  -31.6574 H   0  0  0  0  0  0  0  0  0  0  0  0
   -7.5481   24.0945  -32.9751 H   0  0  0  0  0  0  0  0  0  0  0  0
   -8.8000   22.8063  -32.9751 H   0  0  0  0  0  0  0  0  0  0  0  0
   -7.2649   23.9198  -29.9579 H   0  0  0  0  0  0  0  0  0  0  0  0
   -7.2513   22.1744  -29.5022 H   0  0  0  0  0  0  0  0  0  0  0  0
   -5.0497   22.9350  -29.0220 H   0  0  0  0  0  0  0  0  0  0  0  0
   -4.9153   22.0940  -30.6145 H   0  0  0  0  0  0  0  0  0  0  0  0
   -3.5779   24.5109  -28.9958 H   0  0  0  0  0  0  0  0  0  0  0  0
   -2.7331   23.8026  -30.4141 H   0  0  0  0  0  0  0  0  0  0  0  0
   -3.1854   25.5410  -30.4141 H   0  0  0  0  0  0  0  0  0  0  0  0
   -5.8718   25.5154  -29.4534 H   0  0  0  0  0  0  0  0  0  0  0  0
   -5.2923   26.2250  -30.9985 H   0  0  0  0  0  0  0  0  0  0  0  0
   -6.6804   25.0848  -30.9985 H   0  0  0  0  0  0  0  0  0  0  0  0
   -2.3350   19.6146  -32.8444 H   0  0  0  0  0  0  0  0  0  0  0  0
   -2.0887   18.7508  -34.4000 H   0  0  0  0  0  0  0  0  0  0  0  0
   -2.6011   20.4724  -34.4000 H   0  0  0  0  0  0  0  0  0  0  0  0
   -3.7826   17.1822  -34.8757 H   0  0  0  0  0  0  0  0  0  0  0  0
   -6.1910   16.5052  -34.8155 H   0  0  0  0  0  0  0  0  0  0  0  0
   -7.8140   17.9630  -33.8040 H   0  0  0  0  0  0  0  0  0  0  0  0
  1  2  1  0
  2  3  1  0
  3  4  2  0
  4  5  1  0
  5  6  1  0
  5  7  1  0
  7  8  1  0
  8  9  1  0
  9 10  1  0
  9 11  1  0
  4 12  1  0
 12 13  1  0
 13 14  2  0
 14 15  1  0
 14 16  1  0
 16 17  2  0
 17 18  1  0
 18 19  2  0
 19  3  1  0
 19 13  1  0
  1 20  1  0
  1 21  1  0
  1 22  1  0
  2 23  1  0
  2 24  1  0
  6 25  1  0
  6 26  1  0
  6 27  1  0
  7 28  1  0
  7 29  1  0
  8 30  1  0
  8 31  1  0
 10 32  1  0
 10 33  1  0
 10 34  1  0
 11 35  1  0
 11 36  1  0
 11 37  1  0
 15 38  1  0
 15 39  1  0
 15 40  1  0
 16 41  1  0
 17 42  1  0
 18 43  1  0
M  CHG  2   3   1  18   1
M  END
>  <UniqueID>  (14) 
13

>  <SMILES>  (14) 
CC[n+]1c(N(C)CCN(C)C)sc2c(C)cc[nH+]c21

>  <Energy>  (14) 
77.25037843136376

>  <Genealogy>  (14) 
CC[n+]1c(N(C)CCN(C)C)sc2c(C)cc[nH+]c21 (protonated)
CC[n+]1c(N(C)CCN(C)C)sc2c(C)cc[nH+]c21 (3D coordinates assigned)
CC[n+]1c(N(C)CCN(C)C)sc2c(C)cc[nH+]c21 (optimized conformer: 77.25037843136376 kcal/mol)

>  <smiles>  (14) 
CC[n+]1c(N(C)CCN(C)C)sc2c(C)ccnc21

>  <score_type>  (14) 
oracle

>  <origin>  (14) 
adg

>  <m_score__min__energy>  (14) 
-6.0899999999999999

>  <m_primary>  (14) 
energy

$$$$
14:0
     RDKit          3D

 40 41  0  0  0  0  0  0  0  0999 V2000
   -5.0600   17.7280  -34.1700 C   0  0  0  0  0  0  0  0  0  0  0  0
   -6.4980   18.1180  -33.8290 C   0  0  0  0  0  0  0  0  0  0  0  0
   -6.8750   17.7920  -32.3750 C   0  0  0  0  0  0  0  0  0  0  0  0
   -8.1300   18.5490  -31.9090 C   0  0  0  0  0  0  0  0  0  0  0  0
   -8.3600   19.8320  -32.7180 C   0  0  0  0  0  0  0  0  0  0  0  0
   -7.7450   20.9860  -32.0650 N   0  0  0  0  0  0  0  0  0  0  0  0
   -8.3520   21.9230  -31.2920 C   0  0  0  0  0  0  0  0  0  0  0  0
   -7.4820   22.8590  -30.8330 N   0  0  0  0  0  0  0  0  0  0  0  0
   -6.2920   22.4760  -31.3320 C   0  0  0  0  0  0  0  0  0  0  0  0
   -5.0370   23.0710  -31.2310 C   0  0  0  0  0  0  0  0  0  0  0  0
   -4.8120   24.2570  -30.4520 N   0  0  0  0  0  0  0  0  0  0  0  0
   -3.8760   24.1950  -29.3300 C   0  0  0  0  0  0  0  0  0  0  0  0
   -5.6790   25.4290  -30.6230 C   0  0  0  0  0  0  0  0  0  0  0  0
   -6.5140   25.6610  -29.3690 C   0  0  0  0  0  0  0  0  0  0  0  0
   -4.0100   22.4870  -31.9190 N   0  0  0  0  0  0  0  0  0  0  0  0
   -4.1990   21.3530  -32.6680 C   0  0  0  0  0  0  0  0  0  0  0  0
   -2.8490   20.6440  -33.5250 Cl  0  0  0  0  0  0  0  0  0  0  0  0
   -5.4350   20.7760  -32.7540 N   0  0  0  0  0  0  0  0  0  0  0  0
   -6.4550   21.3570  -32.0760 C   0  0  0  0  0  0  0  0  0  0  0  0
   -4.4917   17.5739  -33.2408 H   0  0  0  0  0  0  0  0  0  0  0  0
   -5.0618   16.7979  -34.7573 H   0  0  0  0  0  0  0  0  0  0  0  0
   -4.5916   18.5316  -34.7573 H   0  0  0  0  0  0  0  0  0  0  0  0
   -6.6159   19.2000  -33.9884 H   0  0  0  0  0  0  0  0  0  0  0  0
   -7.1631   17.5343  -34.4823 H   0  0  0  0  0  0  0  0  0  0  0  0
   -7.0639   16.7114  -32.2932 H   0  0  0  0  0  0  0  0  0  0  0  0
   -6.0379   18.1055  -31.7339 H   0  0  0  0  0  0  0  0  0  0  0  0
   -9.0050   17.8929  -32.0271 H   0  0  0  0  0  0  0  0  0  0  0  0
   -7.9848   18.8324  -30.8561 H   0  0  0  0  0  0  0  0  0  0  0  0
   -7.9197   19.7091  -33.7185 H   0  0  0  0  0  0  0  0  0  0  0  0
   -9.4433   20.0089  -32.7900 H   0  0  0  0  0  0  0  0  0  0  0  0
   -9.4280   21.9237  -31.0633 H   0  0  0  0  0  0  0  0  0  0  0  0
   -7.7020   23.6960  -30.2490 H   0  0  0  0  0  0  0  0  0  0  0  0
   -4.4352   24.2320  -28.3835 H   0  0  0  0  0  0  0  0  0  0  0  0
   -3.3037   23.2570  -29.3813 H   0  0  0  0  0  0  0  0  0  0  0  0
   -3.1850   25.0493  -29.3813 H   0  0  0  0  0  0  0  0  0  0  0  0
   -5.0563   26.3157  -30.8127 H   0  0  0  0  0  0  0  0  0  0  0  0
   -6.3543   25.2518  -31.4731 H   0  0  0  0  0  0  0  0  0  0  0  0
   -5.8928   25.4884  -28.4777 H   0  0  0  0  0  0  0  0  0  0  0  0
   -6.8854   26.6964  -29.3622 H   0  0  0  0  0  0  0  0  0  0  0  0
   -7.3663   24.9656  -29.3622 H   0  0  0  0  0  0  0  0  0  0  0  0
  1  2  1  0
  2  3  1  0
  3  4  1  0
  4  5  1  0
  5  6  1  0
  6  7  1  0
  7  8  2  0
  8  9  1  0
  9 10  2  0
 10 11  1  0
 11 12  1  0
 11 13  1  0
 13 14  1  0
 10 15  1  0
 15 16  2  0
 16 17  1  0
 16 18  1  0
 18 19  2  0
 19  6  1  0
 19  9  1  0
  1 20  1  0
  1 21  1  0
  1 22  1  0
  2 23  1  0
  2 24  1  0
  3 25  1  0
  3 26  1  0
  4 27  1  0
  4 28  1  0
  5 29  1  0
  5 30  1  0
  7 31  1  0
  8 32  1  0
 12 33  1  0
 12 34  1  0
 12 35  1  0
 13 36  1  0
 13 37  1  0
 14 38  1  0
 14 39  1  0
 14 40  1  0
M  CHG  1   8   1
M  END
>  <UniqueID>  (15) 
14

>  <SMILES>  (15) 
CCCCCn1c[nH+]c2c(N(C)CC)nc(Cl)nc21

>  <Energy>  (15) 
72.41927489252897

>  <Genealogy>  (15) 
CCCCCn1c[nH+]c2c(N(C)CC)nc(Cl)nc21 (protonated)
CCCCCn1c[nH+]c2c(N(C)CC)nc(Cl)nc21 (3D coordinates assigned)
CCCCCn1c[nH+]c2c(N(C)CC)nc(Cl)nc21 (optimized conformer: 72.41927489252897 kcal/mol)

>  <smiles>  (15) 
CCCCCn1cnc2c(N(C)CC)nc(Cl)nc21

>  <score_type>  (15) 
oracle

>  <origin>  (15) 
adg

>  <m_score__min__energy>  (15) 
-5.8200000000000003

>  <m_primary>  (15) 
energy

$$$$
15:0
     RDKit          3D

 57 60  0  0  0  0  0  0  0  0999 V2000
   -3.4780   23.7800  -31.4370 O   0  0  0  0  0  0  0  0  0  0  0  0
   -3.5610   23.6510  -30.1840 C   0  0  0  0  0  0  0  0  0  0  0  0
   -2.7980   22.5910  -29.4910 C   0  0  0  0  0  0  0  0  0  0  0  0
   -1.8090   21.8470  -30.1550 C   0  0  0  0  0  0  0  0  0  0  0  0
   -1.0990   20.8550  -29.4720 C   0  0  0  0  0  0  0  0  0  0  0  0
   -1.3740   20.5950  -28.1290 C   0  0  0  0  0  0  0  0  0  0  0  0
   -2.3620   21.3240  -27.4610 C   0  0  0  0  0  0  0  0  0  0  0  0
   -3.0710   22.3330  -28.1300 C   0  0  0  0  0  0  0  0  0  0  0  0
   -4.1830   23.0740  -27.4280 C   0  0  0  0  0  0  0  0  0  0  0  0
   -4.2930   24.5100  -27.9520 C   0  0  0  0  0  0  0  0  0  0  0  0
   -4.4210   24.5160  -29.4160 N   0  0  0  0  0  0  0  0  0  0  0  0
   -5.4380   25.3480  -30.0750 C   0  0  0  0  0  0  0  0  0  0  0  0
   -6.8610   24.8390  -29.7880 C   0  0  0  0  0  0  0  0  0  0  0  0
   -6.9730   23.3040  -29.8030 C   0  0  0  0  0  0  0  0  0  0  0  0
   -6.8710   22.7640  -31.1760 N   0  0  0  0  0  0  0  0  0  0  0  0
   -5.6830   21.8950  -31.3050 C   0  0  0  0  0  0  0  0  0  0  0  0
   -5.5870   21.3200  -32.7210 C   0  0  0  0  0  0  0  0  0  0  0  0
   -6.8620   20.5300  -33.1230 C   0  0  0  0  0  0  0  0  0  0  0  0
   -6.5680   19.0620  -33.3780 C   0  0  0  0  0  0  0  0  0  0  0  0
   -5.7290   18.6660  -34.4360 C   0  0  0  0  0  0  0  0  0  0  0  0
   -5.4450   17.3150  -34.6520 C   0  0  0  0  0  0  0  0  0  0  0  0
   -5.9730   16.3300  -33.7980 C   0  0  0  0  0  0  0  0  0  0  0  0
   -5.7110   14.8670  -34.0510 C   0  0  0  0  0  0  0  0  0  0  0  0
   -5.3460   14.2320  -32.8750 F   0  0  0  0  0  0  0  0  0  0  0  0
   -4.6880   14.6970  -34.9700 F   0  0  0  0  0  0  0  0  0  0  0  0
   -6.8600   14.2770  -34.5420 F   0  0  0  0  0  0  0  0  0  0  0  0
   -6.8240   16.7230  -32.7510 C   0  0  0  0  0  0  0  0  0  0  0  0
   -7.1110   18.0750  -32.5360 C   0  0  0  0  0  0  0  0  0  0  0  0
   -7.9940   20.6740  -32.0870 C   0  0  0  0  0  0  0  0  0  0  0  0
   -8.1430   22.1340  -31.6330 C   0  0  0  0  0  0  0  0  0  0  0  0
   -1.5925   22.0453  -31.2151 H   0  0  0  0  0  0  0  0  0  0  0  0
   -0.3218   20.2781  -29.9946 H   0  0  0  0  0  0  0  0  0  0  0  0
   -0.8121   19.8147  -27.5948 H   0  0  0  0  0  0  0  0  0  0  0  0
   -2.5846   21.1056  -26.4061 H   0  0  0  0  0  0  0  0  0  0  0  0
   -5.1341   22.5509  -27.6062 H   0  0  0  0  0  0  0  0  0  0  0  0
   -3.9610   23.1068  -26.3511 H   0  0  0  0  0  0  0  0  0  0  0  0
   -5.1783   24.9899  -27.5094 H   0  0  0  0  0  0  0  0  0  0  0  0
   -3.3829   25.0611  -27.6725 H   0  0  0  0  0  0  0  0  0  0  0  0
   -5.3475   26.3806  -29.7067 H   0  0  0  0  0  0  0  0  0  0  0  0
   -5.2690   25.3012  -31.1609 H   0  0  0  0  0  0  0  0  0  0  0  0
   -7.1682   25.2018  -28.7960 H   0  0  0  0  0  0  0  0  0  0  0  0
   -7.5114   25.2210  -30.5887 H   0  0  0  0  0  0  0  0  0  0  0  0
   -6.1621   22.8809  -29.1919 H   0  0  0  0  0  0  0  0  0  0  0  0
   -7.9569   23.0269  -29.3966 H   0  0  0  0  0  0  0  0  0  0  0  0
   -4.7790   22.4845  -31.0922 H   0  0  0  0  0  0  0  0  0  0  0  0
   -5.7723   21.0638  -30.5900 H   0  0  0  0  0  0  0  0  0  0  0  0
   -5.4456   22.1486  -33.4306 H   0  0  0  0  0  0  0  0  0  0  0  0
   -4.7370   20.6222  -32.7443 H   0  0  0  0  0  0  0  0  0  0  0  0
   -7.2079   20.9800  -34.0653 H   0  0  0  0  0  0  0  0  0  0  0  0
   -5.2925   19.4272  -35.0993 H   0  0  0  0  0  0  0  0  0  0  0  0
   -4.8040   17.0197  -35.4958 H   0  0  0  0  0  0  0  0  0  0  0  0
   -7.2685   15.9604  -32.0945 H   0  0  0  0  0  0  0  0  0  0  0  0
   -7.7661   18.3684  -31.7024 H   0  0  0  0  0  0  0  0  0  0  0  0
   -8.9396   20.3396  -32.5387 H   0  0  0  0  0  0  0  0  0  0  0  0
   -7.7465   20.0580  -31.2099 H   0  0  0  0  0  0  0  0  0  0  0  0
   -8.5343   22.7199  -32.4778 H   0  0  0  0  0  0  0  0  0  0  0  0
   -8.8222   22.1286  -30.7678 H   0  0  0  0  0  0  0  0  0  0  0  0
  1  2  2  0
  2  3  1  0
  3  4  2  0
  4  5  1  0
  5  6  2  0
  6  7  1  0
  7  8  2  0
  8  9  1  0
  9 10  1  0
 10 11  1  0
 11 12  1  0
 12 13  1  0
 13 14  1  0
 14 15  1  0
 15 16  1  0
 16 17  1  0
 17 18  1  0
 18 19  1  0
 19 20  2  0
 20 21  1  0
 21 22  2  0
 22 23  1  0
 23 24  1  0
 23 25  1  0
 23 26  1  0
 22 27  1  0
 27 28  2  0
 18 29  1  0
 29 30  1  0
 11  2  1  0
 30 15  1  0
  8  3  1  0
 28 19  1  0
  4 31  1  0
  5 32  1  0
  6 33  1  0
  7 34  1  0
  9 35  1  0
  9 36  1  0
 10 37  1  0
 10 38  1  0
 12 39  1  0
 12 40  1  0
 13 41  1  0
 13 42  1  0
 14 43  1  0
 14 44  1  0
 16 45  1  0
 16 46  1  0
 17 47  1  0
 17 48  1  0
 18 49  1  0
 20 50  1  0
 21 51  1  0
 27 52  1  0
 28 53  1  0
 29 54  1  0
 29 55  1  0
 30 56  1  0
 30 57  1  0
M  END
>  <UniqueID>  (16) 
15

>  <SMILES>  (16) 
O=C1c2ccccc2CCN1CCCN1CCC(c2ccc(C(F)(F)F)cc2)CC1

>  <Energy>  (16) 
66.0977122353977

>  <Genealogy>  (16) 
O=C1c2ccccc2CCN1CCCN1CCC(c2ccc(C(F)(F)F)cc2)CC1 (3D coordinates assigned)
O=C1c2ccccc2CCN1CCCN1CCC(c2ccc(C(F)(F)F)cc2)CC1 (nonaromatic ring conformer: 66.0977122353977 kcal/mol)

>  <smiles>  (16) 
O=C1c2ccccc2CCN1CCCN1CCC(c2ccc(C(F)(F)F)cc2)CC1

>  <score_type>  (16) 
oracle

>  <origin>  (16) 
adg

>  <m_score__min__energy>  (16) 
-9.4299999999999997

>  <m_primary>  (16) 
energy

$$$$
16:0
     RDKit          3D

 40 42  0  0  0  0  0  0  0  0999 V2000
   -5.2000   25.0830  -30.5710 C   0  0  0  0  0  0  0  0  0  0  0  0
   -3.9480   24.3070  -30.6360 N   0  0  0  0  0  0  0  0  0  0  0  0
   -3.1630   24.5490  -29.4150 C   0  0  0  0  0  0  0  0  0  0  0  0
   -4.2260   22.8620  -30.7860 C   0  0  0  0  0  0  0  0  0  0  0  0
   -3.5490   22.3070  -32.0440 C   0  0  0  0  0  0  0  0  0  0  0  0
   -4.5460   22.0640  -33.0850 N   0  0  0  0  0  0  0  0  0  0  0  0
   -5.6190   21.1370  -32.8690 C   0  0  0  0  0  0  0  0  0  0  0  0
   -6.9010   21.5530  -32.4580 C   0  0  0  0  0  0  0  0  0  0  0  0
   -7.2070   22.9230  -32.3270 C   0  0  0  0  0  0  0  0  0  0  0  0
   -8.4850   23.3330  -31.9560 C   0  0  0  0  0  0  0  0  0  0  0  0
   -9.4830   22.3930  -31.7300 C   0  0  0  0  0  0  0  0  0  0  0  0
   -9.2130   21.0310  -31.8650 C   0  0  0  0  0  0  0  0  0  0  0  0
   -7.9190   20.5720  -32.2140 C   0  0  0  0  0  0  0  0  0  0  0  0
   -7.6350   19.2200  -32.3460 N   0  0  0  0  0  0  0  0  0  0  0  0
   -8.6270   18.1960  -31.9650 C   0  0  0  0  0  0  0  0  0  0  0  0
   -6.4120   18.8440  -32.8540 C   0  0  0  0  0  0  0  0  0  0  0  0
   -6.0010   17.5340  -33.1820 C   0  0  0  0  0  0  0  0  0  0  0  0
   -4.6910   17.4690  -33.6500 C   0  0  0  0  0  0  0  0  0  0  0  0
   -4.0410   19.0210  -33.6750 S   0  0  0  0  0  0  0  0  0  0  0  0
   -5.4230   19.7830  -33.0980 C   0  0  0  0  0  0  0  0  0  0  0  0
   -5.4725   25.2519  -29.5188 H   0  0  0  0  0  0  0  0  0  0  0  0
   -5.0576   26.0514  -31.0729 H   0  0  0  0  0  0  0  0  0  0  0  0
   -6.0039   24.5246  -31.0729 H   0  0  0  0  0  0  0  0  0  0  0  0
   -3.7897   24.3558  -28.5319 H   0  0  0  0  0  0  0  0  0  0  0  0
   -2.2917   23.8778  -29.4002 H   0  0  0  0  0  0  0  0  0  0  0  0
   -2.8209   25.5943  -29.4002 H   0  0  0  0  0  0  0  0  0  0  0  0
   -3.8430   22.3273  -29.9043 H   0  0  0  0  0  0  0  0  0  0  0  0
   -5.3128   22.7189  -30.8773 H   0  0  0  0  0  0  0  0  0  0  0  0
   -2.8100   23.0347  -32.4106 H   0  0  0  0  0  0  0  0  0  0  0  0
   -3.0493   21.3591  -31.7956 H   0  0  0  0  0  0  0  0  0  0  0  0
   -4.2570   22.2560  -34.0720 H   0  0  0  0  0  0  0  0  0  0  0  0
   -6.4283   23.6756  -32.5198 H   0  0  0  0  0  0  0  0  0  0  0  0
   -8.7052   24.4046  -31.8415 H   0  0  0  0  0  0  0  0  0  0  0  0
  -10.4918   22.7247  -31.4430 H   0  0  0  0  0  0  0  0  0  0  0  0
  -10.0186   20.3010  -31.6976 H   0  0  0  0  0  0  0  0  0  0  0  0
   -8.6872   18.1339  -30.8684 H   0  0  0  0  0  0  0  0  0  0  0  0
   -9.6117   18.4703  -32.3713 H   0  0  0  0  0  0  0  0  0  0  0  0
   -8.3215   17.2205  -32.3713 H   0  0  0  0  0  0  0  0  0  0  0  0
   -6.6507   16.6524  -33.0783 H   0  0  0  0  0  0  0  0  0  0  0  0
   -4.1660   16.5515  -33.9542 H   0  0  0  0  0  0  0  0  0  0  0  0
  1  2  1  0
  2  3  1  0
  2  4  1  0
  4  5  1  0
  5  6  1  0
  6  7  1  0
  7  8  2  0
  8  9  1  0
  9 10  2  0
 10 11  1  0
 11 12  2  0
 12 13  1  0
 13 14  2  0
 14 15  1  0
 14 16  1  0
 16 17  1  0
 17 18  2  0
 18 19  1  0
 19 20  1  0
 20  7  1  0
 13  8  1  0
 20 16  2  0
  1 21  1  0
  1 22  1  0
  1 23  1  0
  3 24  1  0
  3 25  1  0
  3 26  1  0
  4 27  1  0
  4 28  1  0
  5 29  1  0
  5 30  1  0
  6 31  1  0
  9 32  1  0
 10 33  1  0
 11 34  1  0
 12 35  1  0
 15 36  1  0
 15 37  1  0
 15 38  1  0
 17 39  1  0
 18 40  1  0
M  CHG  1  14   1
M  END
>  <UniqueID>  (17) 
16

>  <SMILES>  (17) 
CN(C)CCNc1c2ccccc2[n+](C)c2ccsc12

>  <Energy>  (17) 
87.81628217872169

>  <Genealogy>  (17) 
CN(C)CCNc1c2ccccc2[n+](C)c2ccsc12 (3D coordinates assigned)
CN(C)CCNc1c2ccccc2[n+](C)c2ccsc12 (optimized conformer: 87.81628217872169 kcal/mol)

>  <smiles>  (17) 
CN(C)CCNc1c2ccccc2[n+](C)c2ccsc12

>  <score_type>  (17) 
oracle

>  <origin>  (17) 
adg

>  <m_score__min__energy>  (17) 
-7.54

>  <m_primary>  (17) 
energy

$$$$
17:0
     RDKit          3D

 50 51  0  0  0  0  0  0  0  0999 V2000
   -4.6100   24.1500  -28.7900 C   0  0  0  0  0  0  0  0  0  0  0  0
   -4.5740   24.9190  -30.1100 C   0  0  0  0  0  0  0  0  0  0  0  0
   -5.0140   24.0810  -31.2520 N   0  0  0  0  0  0  0  0  0  0  0  0
   -4.5110   22.6980  -31.0740 C   0  0  0  0  0  0  0  0  0  0  0  0
   -3.8590   22.1750  -32.3520 C   0  0  0  0  0  0  0  0  0  0  0  0
   -6.4930   24.1080  -31.4180 C   0  0  0  0  0  0  0  0  0  0  0  0
   -6.9270   23.1250  -32.5130 C   0  0  0  0  0  0  0  0  0  0  0  0
   -8.0740   22.3750  -32.1130 O   0  0  0  0  0  0  0  0  0  0  0  0
   -8.1450   20.9760  -32.0230 C   0  0  0  0  0  0  0  0  0  0  0  0
   -9.1000   20.3040  -31.2370 C   0  0  0  0  0  0  0  0  0  0  0  0
   -9.1020   18.9460  -31.1760 N   0  0  0  0  0  0  0  0  0  0  0  0
   -8.1970   18.1980  -31.8600 C   0  0  0  0  0  0  0  0  0  0  0  0
   -7.2220   18.8160  -32.6630 C   0  0  0  0  0  0  0  0  0  0  0  0
   -6.2560   18.0310  -33.3960 N   0  0  0  0  0  0  0  0  0  0  0  0
   -6.5050   16.6130  -33.6790 C   0  0  0  0  0  0  0  0  0  0  0  0
   -5.1870   15.8200  -33.6800 C   0  0  0  0  0  0  0  0  0  0  0  0
   -4.0690   16.4860  -34.4050 N   0  0  0  0  0  0  0  0  0  0  0  0
   -3.4600   15.5840  -35.3950 C   0  0  0  0  0  0  0  0  0  0  0  0
   -4.4320   17.7690  -35.0370 C   0  0  0  0  0  0  0  0  0  0  0  0
   -5.1010   18.6930  -34.0160 C   0  0  0  0  0  0  0  0  0  0  0  0
   -7.2160   20.2180  -32.7390 C   0  0  0  0  0  0  0  0  0  0  0  0
   -4.5767   24.8604  -27.9508 H   0  0  0  0  0  0  0  0  0  0  0  0
   -5.5367   23.5600  -28.7345 H   0  0  0  0  0  0  0  0  0  0  0  0
   -3.7424   23.4760  -28.7345 H   0  0  0  0  0  0  0  0  0  0  0  0
   -5.2401   25.7909  -30.0316 H   0  0  0  0  0  0  0  0  0  0  0  0
   -3.5348   25.2284  -30.2954 H   0  0  0  0  0  0  0  0  0  0  0  0
   -3.7678   22.6888  -30.2631 H   0  0  0  0  0  0  0  0  0  0  0  0
   -5.3636   22.0478  -30.8285 H   0  0  0  0  0  0  0  0  0  0  0  0
   -3.0254   21.5063  -32.0912 H   0  0  0  0  0  0  0  0  0  0  0  0
   -4.6029   21.6204  -32.9427 H   0  0  0  0  0  0  0  0  0  0  0  0
   -3.4790   23.0216  -32.9427 H   0  0  0  0  0  0  0  0  0  0  0  0
   -6.9695   23.8253  -30.4677 H   0  0  0  0  0  0  0  0  0  0  0  0
   -6.8007   25.1235  -31.7081 H   0  0  0  0  0  0  0  0  0  0  0  0
   -7.1686   23.6894  -33.4257 H   0  0  0  0  0  0  0  0  0  0  0  0
   -6.1002   22.4230  -32.6964 H   0  0  0  0  0  0  0  0  0  0  0  0
   -9.8469   20.8795  -30.6704 H   0  0  0  0  0  0  0  0  0  0  0  0
   -9.8180   18.4640  -30.5870 H   0  0  0  0  0  0  0  0  0  0  0  0
   -8.2273   17.1010  -31.7850 H   0  0  0  0  0  0  0  0  0  0  0  0
   -7.1730   16.2025  -32.9074 H   0  0  0  0  0  0  0  0  0  0  0  0
   -6.9708   16.5267  -34.6718 H   0  0  0  0  0  0  0  0  0  0  0  0
   -4.8769   15.6666  -32.6358 H   0  0  0  0  0  0  0  0  0  0  0  0
   -5.3880   14.8775  -34.2104 H   0  0  0  0  0  0  0  0  0  0  0  0
   -2.9177   14.7808  -34.8746 H   0  0  0  0  0  0  0  0  0  0  0  0
   -4.2478   15.1458  -36.0253 H   0  0  0  0  0  0  0  0  0  0  0  0
   -2.7591   16.1510  -36.0253 H   0  0  0  0  0  0  0  0  0  0  0  0
   -3.5231   18.2531  -35.4238 H   0  0  0  0  0  0  0  0  0  0  0  0
   -5.1355   17.5762  -35.8604 H   0  0  0  0  0  0  0  0  0  0  0  0
   -4.3726   18.9553  -33.2345 H   0  0  0  0  0  0  0  0  0  0  0  0
   -5.4484   19.5995  -34.5334 H   0  0  0  0  0  0  0  0  0  0  0  0
   -6.4710   20.7251  -33.3697 H   0  0  0  0  0  0  0  0  0  0  0  0
  1  2  1  0
  2  3  1  0
  3  4  1  0
  4  5  1  0
  3  6  1  0
  6  7  1  0
  7  8  1  0
  8  9  1  0
  9 10  2  0
 10 11  1  0
 11 12  2  0
 12 13  1  0
 13 14  1  0
 14 15  1  0
 15 16  1  0
 16 17  1  0
 17 18  1  0
 17 19  1  0
 19 20  1  0
 13 21  2  0
 21  9  1  0
 20 14  1  0
  1 22  1  0
  1 23  1  0
  1 24  1  0
  2 25  1  0
  2 26  1  0
  4 27  1  0
  4 28  1  0
  5 29  1  0
  5 30  1  0
  5 31  1  0
  6 32  1  0
  6 33  1  0
  7 34  1  0
  7 35  1  0
 10 36  1  0
 11 37  1  0
 12 38  1  0
 15 39  1  0
 15 40  1  0
 16 41  1  0
 16 42  1  0
 18 43  1  0
 18 44  1  0
 18 45  1  0
 19 46  1  0
 19 47  1  0
 20 48  1  0
 20 49  1  0
 21 50  1  0
M  CHG  1  11   1
M  END
>  <UniqueID>  (18) 
17

>  <SMILES>  (18) 
CCN(CC)CCOc1c[nH+]cc(N2CCN(C)CC2)c1

>  <Energy>  (18) 
55.90276691246203

>  <Genealogy>  (18) 
CCN(CC)CCOc1c[nH+]cc(N2CCN(C)CC2)c1 (protonated)
CCN(CC)CCOc1c[nH+]cc(N2CCN(C)CC2)c1 (3D coordinates assigned)
CCN(CC)CCOc1c[nH+]cc(N2CCN(C)CC2)c1 (nonaromatic ring conformer: 55.90276691246203 kcal/mol)

>  <smiles>  (18) 
CCN(CC)CCOc1cncc(N2CCN(C)CC2)c1

>  <score_type>  (18) 
oracle

>  <origin>  (18) 
adg

>  <m_score__min__energy>  (18) 
-6.0300000000000002

>  <m_primary>  (18) 
energy

$$$$
19:0
     RDKit          3D

 27 29  0  0  0  0  0  0  0  0999 V2000
   -4.4290   25.9480  -29.3730 H   0  0  0  0  0  0  0  0  0  0  0  0
   -4.2440   25.6910  -30.3680 N   0  0  0  0  0  0  0  0  0  0  0  0
   -4.5490   24.5200  -30.8220 C   0  0  0  0  0  0  0  0  0  0  0  0
   -3.6280   23.6450  -31.2920 N   0  0  0  0  0  0  0  0  0  0  0  0
   -4.2300   22.5010  -31.7020 C   0  0  0  0  0  0  0  0  0  0  0  0
   -3.5550   21.4030  -32.2210 C   0  0  0  0  0  0  0  0  0  0  0  0
   -2.4609   21.4252  -32.3325 H   0  0  0  0  0  0  0  0  0  0  0  0
   -4.2900   20.2550  -32.6050 C   0  0  0  0  0  0  0  0  0  0  0  0
   -3.6310   19.1250  -33.0980 C   0  0  0  0  0  0  0  0  0  0  0  0
   -2.3770   19.1130  -33.2420 O   0  0  0  0  0  0  0  0  0  0  0  0
   -4.3580   17.9880  -33.4170 C   0  0  0  0  0  0  0  0  0  0  0  0
   -3.8338   17.0937  -33.7851 H   0  0  0  0  0  0  0  0  0  0  0  0
   -5.7550   17.9640  -33.2760 C   0  0  0  0  0  0  0  0  0  0  0  0
   -6.4790   16.6580  -33.5780 C   0  0  0  0  0  0  0  0  0  0  0  0
   -5.6790   15.5560  -33.3180 F   0  0  0  0  0  0  0  0  0  0  0  0
   -7.6080   16.5380  -32.7870 F   0  0  0  0  0  0  0  0  0  0  0  0
   -6.8370   16.6220  -34.9130 F   0  0  0  0  0  0  0  0  0  0  0  0
   -6.4270   19.1170  -32.9020 N   0  0  0  0  0  0  0  0  0  0  0  0
   -7.9060   19.1680  -32.9330 C   0  0  0  0  0  0  0  0  0  0  0  0
   -8.2941   19.1814  -31.9038 H   0  0  0  0  0  0  0  0  0  0  0  0
   -8.2306   20.0779  -33.4591 H   0  0  0  0  0  0  0  0  0  0  0  0
   -8.2925   18.2826  -33.4591 H   0  0  0  0  0  0  0  0  0  0  0  0
   -5.7160   20.2320  -32.4870 C   0  0  0  0  0  0  0  0  0  0  0  0
   -6.3650   21.3710  -31.9290 C   0  0  0  0  0  0  0  0  0  0  0  0
   -7.4565   21.3784  -31.7930 H   0  0  0  0  0  0  0  0  0  0  0  0
   -5.6040   22.4710  -31.5590 C   0  0  0  0  0  0  0  0  0  0  0  0
   -6.1280   23.9220  -30.8910 S   0  0  0  0  0  0  0  0  0  0  0  0
  1  2  1  0
  2  3  2  0
  3  4  1  0
  4  5  1  0
  5  6  2  0
  6  7  1  0
  6  8  1  0
  8  9  1  0
  9 10  2  0
  9 11  1  0
 11 12  1  0
 11 13  2  0
 13 14  1  0
 14 15  1  0
 14 16  1  0
 14 17  1  0
 13 18  1  0
 18 19  1  0
 19 20  1  0
 19 21  1  0
 19 22  1  0
 18 23  1  0
 23 24  1  0
 24 25  1  0
 24 26  2  0
 26 27  1  0
 27  3  1  0
 26  5  1  0
 23  8  2  0
M  CHG  1   4  -1
M  END
>  <UniqueID>  (19) 
18

>  <SMILES>  (19) 
[H]/N=c1\[n-]c2cc3c(=O)cc(C(F)(F)F)n(C)c3cc2s1

>  <Energy>  (19) 
80.22214378649737

>  <Genealogy>  (19) 
Cn1c(C(F)(F)F)cc(=O)c2cc3[n-]c(=N)sc3cc21 (protonated)
[H]/N=c1\[n-]c2cc3c(=O)cc(C(F)(F)F)n(C)c3cc2s1 (cis-trans isomerization)
[H]/N=c1\[n-]c2cc3c(=O)cc(C(F)(F)F)n(C)c3cc2s1 (3D coordinates assigned)
[H]/N=c1\[n-]c2cc3c(=O)cc(C(F)(F)F)n(C)c3cc2s1 (optimized conformer: 80.22214378649737 kcal/mol)

>  <smiles>  (19) 
Cn1c(C(F)(F)F)cc(=O)c2cc3[nH]c(=N)sc3cc21

>  <score_type>  (19) 
oracle

>  <origin>  (19) 
adg

>  <m_score__min__energy>  (19) 
-8.25

>  <m_primary>  (19) 
energy

$$$$
20:0
     RDKit          3D

 52 54  0  0  0  0  0  0  0  0999 V2000
   -1.0350   18.2580  -32.8030 C   0  0  0  0  0  0  0  0  0  0  0  0
   -1.4080   18.7060  -34.2160 C   0  0  0  0  0  0  0  0  0  0  0  0
   -1.2000   20.1600  -34.3830 N   0  0  0  0  0  0  0  0  0  0  0  0
   -0.0180   20.4190  -35.2390 C   0  0  0  0  0  0  0  0  0  0  0  0
    0.2750   21.9170  -35.3470 C   0  0  0  0  0  0  0  0  0  0  0  0
   -1.0960   20.8590  -33.0750 C   0  0  0  0  0  0  0  0  0  0  0  0
   -2.4990   21.2720  -32.6120 C   0  0  0  0  0  0  0  0  0  0  0  0
   -3.5060   21.1670  -33.6850 N   0  0  0  0  0  0  0  0  0  0  0  0
   -4.8240   20.8150  -33.1660 C   0  0  0  0  0  0  0  0  0  0  0  0
   -5.3840   19.5370  -33.4520 C   0  0  0  0  0  0  0  0  0  0  0  0
   -4.6940   18.5770  -34.2390 C   0  0  0  0  0  0  0  0  0  0  0  0
   -5.2210   17.3080  -34.4560 C   0  0  0  0  0  0  0  0  0  0  0  0
   -6.4380   16.9540  -33.8940 C   0  0  0  0  0  0  0  0  0  0  0  0
   -7.1540   17.8810  -33.1430 C   0  0  0  0  0  0  0  0  0  0  0  0
   -6.6680   19.1990  -32.9420 C   0  0  0  0  0  0  0  0  0  0  0  0
   -7.4140   20.1360  -32.2580 N   0  0  0  0  0  0  0  0  0  0  0  0
   -8.8580   19.8970  -32.0240 C   0  0  0  0  0  0  0  0  0  0  0  0
   -6.8310   21.3100  -31.8310 C   0  0  0  0  0  0  0  0  0  0  0  0
   -7.4790   22.1410  -30.8830 C   0  0  0  0  0  0  0  0  0  0  0  0
   -6.9480   23.3710  -30.5150 C   0  0  0  0  0  0  0  0  0  0  0  0
   -5.7510   23.8210  -31.0710 C   0  0  0  0  0  0  0  0  0  0  0  0
   -5.2210   25.1120  -30.7140 N   0  0  0  0  0  0  0  0  0  0  0  0
   -5.9720   26.0120  -30.2800 O   0  0  0  0  0  0  0  0  0  0  0  0
   -3.8760   25.3810  -30.8400 O   0  0  0  0  0  0  0  0  0  0  0  0
   -5.0640   22.9900  -31.9660 C   0  0  0  0  0  0  0  0  0  0  0  0
   -5.5570   21.7070  -32.3270 C   0  0  0  0  0  0  0  0  0  0  0  0
   -1.5589   18.8873  -32.0685 H   0  0  0  0  0  0  0  0  0  0  0  0
   -1.3290   17.2075  -32.6618 H   0  0  0  0  0  0  0  0  0  0  0  0
    0.0514   18.3568  -32.6618 H   0  0  0  0  0  0  0  0  0  0  0  0
   -0.7808   18.1672  -34.9415 H   0  0  0  0  0  0  0  0  0  0  0  0
   -2.4717   18.4824  -34.3852 H   0  0  0  0  0  0  0  0  0  0  0  0
    0.8568   19.9136  -34.8039 H   0  0  0  0  0  0  0  0  0  0  0  0
   -0.2295   20.0338  -36.2474 H   0  0  0  0  0  0  0  0  0  0  0  0
    0.3593   22.3478  -34.3384 H   0  0  0  0  0  0  0  0  0  0  0  0
    1.2196   22.0676  -35.8901 H   0  0  0  0  0  0  0  0  0  0  0  0
   -0.5433   22.4124  -35.8901 H   0  0  0  0  0  0  0  0  0  0  0  0
   -0.6469   20.1840  -32.3316 H   0  0  0  0  0  0  0  0  0  0  0  0
   -0.4638   21.7527  -33.1823 H   0  0  0  0  0  0  0  0  0  0  0  0
   -2.8016   20.6190  -31.7801 H   0  0  0  0  0  0  0  0  0  0  0  0
   -2.4503   22.3268  -32.3038 H   0  0  0  0  0  0  0  0  0  0  0  0
   -3.1660   20.5340  -34.4360 H   0  0  0  0  0  0  0  0  0  0  0  0
   -3.5610   22.0780  -34.1930 H   0  0  0  0  0  0  0  0  0  0  0  0
   -3.7243   18.8420  -34.6855 H   0  0  0  0  0  0  0  0  0  0  0  0
   -4.6709   16.5838  -35.0749 H   0  0  0  0  0  0  0  0  0  0  0  0
   -6.8377   15.9399  -34.0419 H   0  0  0  0  0  0  0  0  0  0  0  0
   -8.1152   17.5865  -32.6965 H   0  0  0  0  0  0  0  0  0  0  0  0
   -9.0537   19.8646  -30.9420 H   0  0  0  0  0  0  0  0  0  0  0  0
   -9.4426   20.7106  -32.4782 H   0  0  0  0  0  0  0  0  0  0  0  0
   -9.1493   18.9384  -32.4782 H   0  0  0  0  0  0  0  0  0  0  0  0
   -8.4228   21.8048  -30.4288 H   0  0  0  0  0  0  0  0  0  0  0  0
   -7.4762   23.9950  -29.7790 H   0  0  0  0  0  0  0  0  0  0  0  0
   -4.1166   23.3406  -32.4013 H   0  0  0  0  0  0  0  0  0  0  0  0
  1  2  1  0
  2  3  1  0
  3  4  1  0
  4  5  1  0
  3  6  1  0
  6  7  1  0
  7  8  1  0
  8  9  1  0
  9 10  2  0
 10 11  1  0
 11 12  2  0
 12 13  1  0
 13 14  2  0
 14 15  1  0
 15 16  2  0
 16 17  1  0
 16 18  1  0
 18 19  2  0
 19 20  1  0
 20 21  2  0
 21 22  1  0
 22 23  2  0
 22 24  1  0
 21 25  1  0
 25 26  2  0
 26  9  1  0
 15 10  1  0
 26 18  1  0
  1 27  1  0
  1 28  1  0
  1 29  1  0
  2 30  1  0
  2 31  1  0
  4 32  1  0
  4 33  1  0
  5 34  1  0
  5 35  1  0
  5 36  1  0
  6 37  1  0
  6 38  1  0
  7 39  1  0
  7 40  1  0
  8 41  1  0
  8 42  1  0
 11 43  1  0
 12 44  1  0
 13 45  1  0
 14 46  1  0
 17 47  1  0
 17 48  1  0
 17 49  1  0
 19 50  1  0
 20 51  1  0
 25 52  1  0
M  CHG  4   8   1  16   1  22   1  24  -1
M  END
>  <UniqueID>  (20) 
19

>  <SMILES>  (20) 
CCN(CC)CC[NH2+]c1c2ccccc2[n+](C)c2ccc([N+](=O)[O-])cc12

>  <Energy>  (20) 
83.14514315620019

>  <Genealogy>  (20) 
CCN(CC)CC[NH2+]c1c2ccccc2[n+](C)c2ccc([N+](=O)[O-])cc12 (protonated)
CCN(CC)CC[NH2+]c1c2ccccc2[n+](C)c2ccc([N+](=O)[O-])cc12 (3D coordinates assigned)
CCN(CC)CC[NH2+]c1c2ccccc2[n+](C)c2ccc([N+](=O)[O-])cc12 (optimized conformer: 83.14514315620019 kcal/mol)

>  <smiles>  (20) 
CCN(CC)CCNc1c2ccccc2[n+](C)c2ccc([N+](=O)[O-])cc12

>  <score_type>  (20) 
oracle

>  <origin>  (20) 
adg

>  <m_score__min__energy>  (20) 
-8.4600000000000009

>  <m_primary>  (20) 
energy

$$$$
21:0
     RDKit          3D

 16 16  0  0  0  0  0  0  0  0999 V2000
   -6.2870   23.4500  -32.1250 S   0  0  0  0  0  0  0  0  0  0  0  0
   -7.9760   22.8040  -31.9390 C   0  0  0  0  0  0  0  0  0  0  0  0
   -7.9700   21.3130  -32.1200 C   0  0  0  0  0  0  0  0  0  0  0  0
   -6.8610   20.6730  -32.6980 C   0  0  0  0  0  0  0  0  0  0  0  0
   -6.8710   19.2890  -32.8950 C   0  0  0  0  0  0  0  0  0  0  0  0
   -7.9900   18.5360  -32.5250 C   0  0  0  0  0  0  0  0  0  0  0  0
   -9.1020   19.1680  -31.9610 C   0  0  0  0  0  0  0  0  0  0  0  0
   -9.0970   20.5520  -31.7630 C   0  0  0  0  0  0  0  0  0  0  0  0
   -6.5010   23.7990  -33.4710 H   0  0  0  0  0  0  0  0  0  0  0  0
   -8.3528   23.0490  -30.9350 H   0  0  0  0  0  0  0  0  0  0  0  0
   -8.6267   23.2608  -32.6992 H   0  0  0  0  0  0  0  0  0  0  0  0
   -5.9818   21.2628  -32.9966 H   0  0  0  0  0  0  0  0  0  0  0  0
   -5.9975   18.7915  -33.3417 H   0  0  0  0  0  0  0  0  0  0  0  0
   -7.9951   17.4467  -32.6778 H   0  0  0  0  0  0  0  0  0  0  0  0
   -9.9826   18.5753  -31.6724 H   0  0  0  0  0  0  0  0  0  0  0  0
   -9.9772   21.0469  -31.3267 H   0  0  0  0  0  0  0  0  0  0  0  0
  1  2  1  0
  2  3  1  0
  3  4  2  0
  4  5  1  0
  5  6  2  0
  6  7  1  0
  7  8  2  0
  8  3  1  0
  1  9  1  0
  2 10  1  0
  2 11  1  0
  4 12  1  0
  5 13  1  0
  6 14  1  0
  7 15  1  0
  8 16  1  0
M  END
>  <UniqueID>  (21) 
20

>  <SMILES>  (21) 
SCc1ccccc1

>  <Energy>  (21) 
12.200774728109522

>  <Genealogy>  (21) 
SCc1ccccc1 (3D coordinates assigned)
SCc1ccccc1 (optimized conformer: 12.200774728109522 kcal/mol)

>  <smiles>  (21) 
SCc1ccccc1

>  <score_type>  (21) 
oracle

>  <origin>  (21) 
adg

>  <m_score__min__energy>  (21) 
-4.46

>  <m_primary>  (21) 
energy

$$$$
22:0
     RDKit          3D

 31 32  0  0  0  0  0  0  0  0999 V2000
   -9.4660   21.5530  -30.5600 C   0  0  0  0  0  0  0  0  0  0  0  0
   -8.9200   21.7900  -31.9670 C   0  0  0  0  0  0  0  0  0  0  0  0
   -7.4720   21.5210  -32.0200 N   0  0  0  0  0  0  0  0  0  0  0  0
   -7.0450   20.2390  -32.6060 C   0  0  0  0  0  0  0  0  0  0  0  0
   -8.1220   19.1710  -32.4200 C   0  0  0  0  0  0  0  0  0  0  0  0
   -6.5030   22.4850  -31.5150 C   0  0  0  0  0  0  0  0  0  0  0  0
   -6.6940   23.8750  -31.6980 C   0  0  0  0  0  0  0  0  0  0  0  0
   -5.7610   24.7980  -31.2180 C   0  0  0  0  0  0  0  0  0  0  0  0
   -4.6260   24.3580  -30.5390 C   0  0  0  0  0  0  0  0  0  0  0  0
   -4.4180   22.9890  -30.3380 C   0  0  0  0  0  0  0  0  0  0  0  0
   -5.3420   22.0620  -30.8280 C   0  0  0  0  0  0  0  0  0  0  0  0
   -3.2690   22.5500  -29.6700 O   0  0  0  0  0  0  0  0  0  0  0  0
   -2.4520   23.4120  -28.8680 C   0  0  0  0  0  0  0  0  0  0  0  0
   -2.5130   24.8360  -29.3420 C   0  0  0  0  0  0  0  0  0  0  0  0
   -1.6040   25.6470  -29.0270 O   0  0  0  0  0  0  0  0  0  0  0  0
   -3.6440   25.2910  -30.0870 N   0  0  0  0  0  0  0  0  0  0  0  0
   -8.7209   21.8764  -29.8182 H   0  0  0  0  0  0  0  0  0  0  0  0
  -10.3927   22.1298  -30.4243 H   0  0  0  0  0  0  0  0  0  0  0  0
   -9.6775   20.4821  -30.4243 H   0  0  0  0  0  0  0  0  0  0  0  0
   -9.4367   21.1216  -32.6714 H   0  0  0  0  0  0  0  0  0  0  0  0
   -9.0929   22.8417  -32.2392 H   0  0  0  0  0  0  0  0  0  0  0  0
   -6.8576   20.3786  -33.6809 H   0  0  0  0  0  0  0  0  0  0  0  0
   -6.1281   19.9070  -32.0970 H   0  0  0  0  0  0  0  0  0  0  0  0
   -8.2908   19.0036  -31.3460 H   0  0  0  0  0  0  0  0  0  0  0  0
   -9.0577   19.5080  -32.8901 H   0  0  0  0  0  0  0  0  0  0  0  0
   -7.7928   18.2325  -32.8901 H   0  0  0  0  0  0  0  0  0  0  0  0
   -7.5898   24.2342  -32.2257 H   0  0  0  0  0  0  0  0  0  0  0  0
   -5.9227   25.8745  -31.3764 H   0  0  0  0  0  0  0  0  0  0  0  0
   -5.1633   20.9872  -30.6769 H   0  0  0  0  0  0  0  0  0  0  0  0
   -2.8029   23.3678  -27.8264 H   0  0  0  0  0  0  0  0  0  0  0  0
   -1.4101   23.0686  -28.9484 H   0  0  0  0  0  0  0  0  0  0  0  0
  1  2  1  0
  2  3  1  0
  3  4  1  0
  4  5  1  0
  3  6  1  0
  6  7  2  0
  7  8  1  0
  8  9  2  0
  9 10  1  0
 10 11  2  0
 10 12  1  0
 12 13  1  0
 13 14  1  0
 14 15  2  0
 14 16  1  0
 11  6  1  0
 16  9  1  0
  1 17  1  0
  1 18  1  0
  1 19  1  0
  2 20  1  0
  2 21  1  0
  4 22  1  0
  4 23  1  0
  5 24  1  0
  5 25  1  0
  5 26  1  0
  7 27  1  0
  8 28  1  0
 11 29  1  0
 13 30  1  0
 13 31  1  0
M  CHG  1  16  -1
M  END
>  <UniqueID>  (22) 
21

>  <SMILES>  (22) 
CCN(CC)c1ccc2c(c1)OCC(=O)[N-]2

>  <Energy>  (22) 
31.313727364704228

>  <Genealogy>  (22) 
CCN(CC)c1ccc2c(c1)OCC(=O)[N-]2 (protonated)
CCN(CC)c1ccc2c(c1)OCC(=O)[N-]2 (3D coordinates assigned)
CCN(CC)c1ccc2c(c1)OCC(=O)[N-]2 (nonaromatic ring conformer: 31.313727364704228 kcal/mol)

>  <smiles>  (22) 
CCN(CC)c1ccc2c(c1)OCC(=O)N2

>  <score_type>  (22) 
oracle

>  <origin>  (22) 
adg

>  <m_score__min__energy>  (22) 
-7.79

>  <m_primary>  (22) 
energy

$$$$
23:0
     RDKit          3D

 51 53  0  0  0  0  0  0  0  0999 V2000
   -6.4670   25.7000  -29.2630 C   0  0  0  0  0  0  0  0  0  0  0  0
   -5.8220   24.7760  -30.2500 C   0  0  0  0  0  0  0  0  0  0  0  0
   -6.4270   24.3060  -31.4000 C   0  0  0  0  0  0  0  0  0  0  0  0
   -5.5240   23.4530  -31.9960 C   0  0  0  0  0  0  0  0  0  0  0  0
   -4.3950   23.4420  -31.1930 C   0  0  0  0  0  0  0  0  0  0  0  0
   -3.1700   22.5930  -31.4520 C   0  0  0  0  0  0  0  0  0  0  0  0
   -3.4660   21.2920  -32.0940 N   0  0  0  0  0  0  0  0  0  0  0  0
   -4.3990   20.4550  -31.3130 C   0  0  0  0  0  0  0  0  0  0  0  0
   -4.6080   19.0720  -31.9720 C   0  0  0  0  0  0  0  0  0  0  0  0
   -4.0890   19.0620  -33.3580 N   0  0  0  0  0  0  0  0  0  0  0  0
   -4.4700   17.8390  -34.1110 C   0  0  0  0  0  0  0  0  0  0  0  0
   -5.8270   17.8990  -34.8370 C   0  0  0  0  0  0  0  0  0  0  0  0
   -6.4580   19.1550  -34.5960 O   0  0  0  0  0  0  0  0  0  0  0  0
   -7.2320   19.4510  -33.4650 C   0  0  0  0  0  0  0  0  0  0  0  0
   -7.2970   20.7830  -33.0340 C   0  0  0  0  0  0  0  0  0  0  0  0
   -8.0580   21.1290  -31.9130 C   0  0  0  0  0  0  0  0  0  0  0  0
   -8.7590   20.1450  -31.2130 C   0  0  0  0  0  0  0  0  0  0  0  0
   -8.7020   18.8140  -31.6320 C   0  0  0  0  0  0  0  0  0  0  0  0
   -7.9420   18.4630  -32.7540 C   0  0  0  0  0  0  0  0  0  0  0  0
   -2.6310   19.3360  -33.3760 C   0  0  0  0  0  0  0  0  0  0  0  0
   -2.2590   20.5390  -32.4800 C   0  0  0  0  0  0  0  0  0  0  0  0
   -4.5770   24.2610  -30.1290 N   0  0  0  0  0  0  0  0  0  0  0  0
   -3.6880   24.4180  -28.9750 C   0  0  0  0  0  0  0  0  0  0  0  0
   -6.2338   25.3659  -28.2413 H   0  0  0  0  0  0  0  0  0  0  0  0
   -6.0840   26.7204  -29.4115 H   0  0  0  0  0  0  0  0  0  0  0  0
   -7.5569   25.6922  -29.4115 H   0  0  0  0  0  0  0  0  0  0  0  0
   -7.4317   24.5624  -31.7673 H   0  0  0  0  0  0  0  0  0  0  0  0
   -5.6710   22.8895  -32.9292 H   0  0  0  0  0  0  0  0  0  0  0  0
   -2.4907   23.1565  -32.1085 H   0  0  0  0  0  0  0  0  0  0  0  0
   -2.7227   22.3708  -30.4719 H   0  0  0  0  0  0  0  0  0  0  0  0
   -3.9894   20.3110  -30.3023 H   0  0  0  0  0  0  0  0  0  0  0  0
   -5.3712   20.9681  -31.2724 H   0  0  0  0  0  0  0  0  0  0  0  0
   -4.0774   18.3090  -31.3835 H   0  0  0  0  0  0  0  0  0  0  0  0
   -5.6862   18.8558  -31.9995 H   0  0  0  0  0  0  0  0  0  0  0  0
   -4.5580   19.8500  -33.8680 H   0  0  0  0  0  0  0  0  0  0  0  0
   -3.6914   17.6494  -34.8645 H   0  0  0  0  0  0  0  0  0  0  0  0
   -4.5662   17.0413  -33.3597 H   0  0  0  0  0  0  0  0  0  0  0  0
   -5.6668   17.7741  -35.9181 H   0  0  0  0  0  0  0  0  0  0  0  0
   -6.4733   17.0935  -34.4582 H   0  0  0  0  0  0  0  0  0  0  0  0
   -6.7456   21.5617  -33.5813 H   0  0  0  0  0  0  0  0  0  0  0  0
   -8.1044   22.1771  -31.5824 H   0  0  0  0  0  0  0  0  0  0  0  0
   -9.3566   20.4184  -30.3309 H   0  0  0  0  0  0  0  0  0  0  0  0
   -9.2552   18.0402  -31.0795 H   0  0  0  0  0  0  0  0  0  0  0  0
   -7.8989   17.4137  -33.0813 H   0  0  0  0  0  0  0  0  0  0  0  0
   -2.0973   18.4448  -33.0142 H   0  0  0  0  0  0  0  0  0  0  0  0
   -2.3428   19.5789  -34.4094 H   0  0  0  0  0  0  0  0  0  0  0  0
   -1.7564   20.1722  -31.5729 H   0  0  0  0  0  0  0  0  0  0  0  0
   -1.5898   21.2064  -33.0427 H   0  0  0  0  0  0  0  0  0  0  0  0
   -4.2699   24.3152  -28.0472 H   0  0  0  0  0  0  0  0  0  0  0  0
   -2.9071   23.6439  -29.0057 H   0  0  0  0  0  0  0  0  0  0  0  0
   -3.2195   25.4128  -29.0057 H   0  0  0  0  0  0  0  0  0  0  0  0
  1  2  1  0
  2  3  2  0
  3  4  1  0
  4  5  2  0
  5  6  1  0
  6  7  1  0
  7  8  1  0
  8  9  1  0
  9 10  1  0
 10 11  1  0
 11 12  1  0
 12 13  1  0
 13 14  1  0
 14 15  2  0
 15 16  1  0
 16 17  2  0
 17 18  1  0
 18 19  2  0
 10 20  1  0
 20 21  1  0
  5 22  1  0
 22 23  1  0
 22  2  1  0
 21  7  1  0
 19 14  1  0
  1 24  1  0
  1 25  1  0
  1 26  1  0
  3 27  1  0
  4 28  1  0
  6 29  1  0
  6 30  1  0
  8 31  1  0
  8 32  1  0
  9 33  1  0
  9 34  1  0
 10 35  1  0
 11 36  1  0
 11 37  1  0
 12 38  1  0
 12 39  1  0
 15 40  1  0
 16 41  1  0
 17 42  1  0
 18 43  1  0
 19 44  1  0
 20 45  1  0
 20 46  1  0
 21 47  1  0
 21 48  1  0
 23 49  1  0
 23 50  1  0
 23 51  1  0
M  CHG  1  10   1
M  END
>  <UniqueID>  (23) 
22

>  <SMILES>  (23) 
Cc1ccc(CN2CC[NH+](CCOc3ccccc3)CC2)n1C

>  <Energy>  (23) 
91.05826142647788

>  <Genealogy>  (23) 
Cc1ccc(CN2CC[NH+](CCOc3ccccc3)CC2)n1C (protonated)
Cc1ccc(CN2CC[NH+](CCOc3ccccc3)CC2)n1C (3D coordinates assigned)
Cc1ccc(CN2CC[NH+](CCOc3ccccc3)CC2)n1C (nonaromatic ring conformer: 91.05826142647788 kcal/mol)

>  <smiles>  (23) 
Cc1ccc(CN2CCN(CCOc3ccccc3)CC2)n1C

>  <score_type>  (23) 
oracle

>  <origin>  (23) 
adg

>  <m_score__min__energy>  (23) 
-7.2800000000000002

>  <m_primary>  (23) 
energy

$$$$
24:0
     RDKit          3D

 37 39  0  0  0  0  0  0  0  0999 V2000
   -9.4810   21.6080  -31.9250 C   0  0  0  0  0  0  0  0  0  0  0  0
   -8.4260   21.8300  -30.8410 C   0  0  0  0  0  0  0  0  0  0  0  0
   -7.0600   21.8150  -31.4060 N   0  0  0  0  0  0  0  0  0  0  0  0
   -6.2880   22.9680  -31.4810 C   0  0  0  0  0  0  0  0  0  0  0  0
   -6.8570   24.5630  -30.8470 S   0  0  0  0  0  0  0  0  0  0  0  0
   -5.7340   24.6270  -29.4050 C   0  0  0  0  0  0  0  0  0  0  0  0
   -4.2920   24.5000  -29.8190 C   0  0  0  0  0  0  0  0  0  0  0  0
   -3.8690   25.2990  -30.6980 O   0  0  0  0  0  0  0  0  0  0  0  0
   -3.3730   23.4470  -29.2970 C   0  0  0  0  0  0  0  0  0  0  0  0
   -3.8090   22.4290  -28.4220 C   0  0  0  0  0  0  0  0  0  0  0  0
   -2.9270   21.4300  -27.9950 C   0  0  0  0  0  0  0  0  0  0  0  0
   -1.6020   21.4330  -28.4290 C   0  0  0  0  0  0  0  0  0  0  0  0
   -1.1510   22.4360  -29.2860 C   0  0  0  0  0  0  0  0  0  0  0  0
   -2.0260   23.4380  -29.7160 C   0  0  0  0  0  0  0  0  0  0  0  0
   -5.0580   22.9390  -32.0800 N   0  0  0  0  0  0  0  0  0  0  0  0
   -4.5530   21.7720  -32.5390 C   0  0  0  0  0  0  0  0  0  0  0  0
   -3.2900   21.6050  -33.1170 C   0  0  0  0  0  0  0  0  0  0  0  0
   -3.0440   20.2830  -33.4810 C   0  0  0  0  0  0  0  0  0  0  0  0
   -4.3930   19.3390  -33.0820 S   0  0  0  0  0  0  0  0  0  0  0  0
   -5.2810   20.6150  -32.4460 C   0  0  0  0  0  0  0  0  0  0  0  0
   -6.5530   20.6280  -31.8900 C   0  0  0  0  0  0  0  0  0  0  0  0
   -7.2240   19.5600  -31.8430 O   0  0  0  0  0  0  0  0  0  0  0  0
  -10.4536   21.4033  -31.4536 H   0  0  0  0  0  0  0  0  0  0  0  0
   -9.5592   22.5094  -32.5506 H   0  0  0  0  0  0  0  0  0  0  0  0
   -9.1893   20.7516  -32.5506 H   0  0  0  0  0  0  0  0  0  0  0  0
   -8.6045   22.8041  -30.3622 H   0  0  0  0  0  0  0  0  0  0  0  0
   -8.5062   21.0139  -30.1079 H   0  0  0  0  0  0  0  0  0  0  0  0
   -5.8732   25.5871  -28.8865 H   0  0  0  0  0  0  0  0  0  0  0  0
   -5.9771   23.7835  -28.7421 H   0  0  0  0  0  0  0  0  0  0  0  0
   -4.8519   22.4208  -28.0724 H   0  0  0  0  0  0  0  0  0  0  0  0
   -3.2799   20.6404  -27.3153 H   0  0  0  0  0  0  0  0  0  0  0  0
   -0.9123   20.6438  -28.0952 H   0  0  0  0  0  0  0  0  0  0  0  0
   -0.1044   22.4390  -29.6246 H   0  0  0  0  0  0  0  0  0  0  0  0
   -1.6601   24.2280  -30.3884 H   0  0  0  0  0  0  0  0  0  0  0  0
   -4.4950   23.8170  -32.1620 H   0  0  0  0  0  0  0  0  0  0  0  0
   -2.5722   22.4249  -33.2671 H   0  0  0  0  0  0  0  0  0  0  0  0
   -2.1219   19.9117  -33.9519 H   0  0  0  0  0  0  0  0  0  0  0  0
  1  2  1  0
  2  3  1  0
  3  4  1  0
  4  5  1  0
  5  6  1  0
  6  7  1  0
  7  8  2  0
  7  9  1  0
  9 10  2  0
 10 11  1  0
 11 12  2  0
 12 13  1  0
 13 14  2  0
  4 15  2  0
 15 16  1  0
 16 17  1  0
 17 18  2  0
 18 19  1  0
 19 20  1  0
 20 21  1  0
 21 22  2  0
 21  3  1  0
 14  9  1  0
 20 16  2  0
  1 23  1  0
  1 24  1  0
  1 25  1  0
  2 26  1  0
  2 27  1  0
  6 28  1  0
  6 29  1  0
 10 30  1  0
 11 31  1  0
 12 32  1  0
 13 33  1  0
 14 34  1  0
 15 35  1  0
 17 36  1  0
 18 37  1  0
M  CHG  1  15   1
M  END
>  <UniqueID>  (24) 
23

>  <SMILES>  (24) 
CCn1c(SCC(=O)c2ccccc2)[nH+]c2ccsc2c1=O

>  <Energy>  (24) 
69.49910004614057

>  <Genealogy>  (24) 
CCn1c(SCC(=O)c2ccccc2)[nH+]c2ccsc2c1=O (protonated)
CCn1c(SCC(=O)c2ccccc2)[nH+]c2ccsc2c1=O (3D coordinates assigned)
CCn1c(SCC(=O)c2ccccc2)[nH+]c2ccsc2c1=O (optimized conformer: 69.49910004614057 kcal/mol)

>  <smiles>  (24) 
CCn1c(SCC(=O)c2ccccc2)nc2ccsc2c1=O

>  <score_type>  (24) 
oracle

>  <origin>  (24) 
adg

>  <m_score__min__energy>  (24) 
-7.5099999999999998

>  <m_primary>  (24) 
energy

$$$$
25:0
     RDKit          3D

 49 51  0  0  0  0  0  0  0  0999 V2000
   -3.8890   24.4730  -26.8230 C   0  0  0  0  0  0  0  0  0  0  0  0
   -3.5590   23.2270  -27.5330 N   0  0  0  0  0  0  0  0  0  0  0  0
   -2.2670   22.6840  -27.0870 C   0  0  0  0  0  0  0  0  0  0  0  0
   -3.6690   23.3480  -29.0060 C   0  0  0  0  0  0  0  0  0  0  0  0
   -2.9850   24.5890  -29.6120 C   0  0  0  0  0  0  0  0  0  0  0  0
   -3.8350   25.1950  -30.6320 N   0  0  0  0  0  0  0  0  0  0  0  0
   -5.2520   25.0080  -30.7240 C   0  0  0  0  0  0  0  0  0  0  0  0
   -6.0110   25.9760  -30.4570 O   0  0  0  0  0  0  0  0  0  0  0  0
   -5.8460   23.7230  -31.1410 C   0  0  0  0  0  0  0  0  0  0  0  0
   -7.2050   23.4730  -30.9150 C   0  0  0  0  0  0  0  0  0  0  0  0
   -7.7650   22.2490  -31.2830 C   0  0  0  0  0  0  0  0  0  0  0  0
   -9.4580   21.9290  -30.9520 Cl  0  0  0  0  0  0  0  0  0  0  0  0
   -6.9850   21.2830  -31.9250 C   0  0  0  0  0  0  0  0  0  0  0  0
   -5.6280   21.5360  -32.2240 C   0  0  0  0  0  0  0  0  0  0  0  0
   -5.0590   22.7460  -31.7740 C   0  0  0  0  0  0  0  0  0  0  0  0
   -3.6900   22.9510  -31.9370 O   0  0  0  0  0  0  0  0  0  0  0  0
   -2.8170   21.8470  -32.1110 C   0  0  0  0  0  0  0  0  0  0  0  0
   -3.3670   20.8980  -33.1760 C   0  0  0  0  0  0  0  0  0  0  0  0
   -4.8040   20.6030  -32.9830 N   0  0  0  0  0  0  0  0  0  0  0  0
   -5.4250   19.4610  -33.7000 C   0  0  0  0  0  0  0  0  0  0  0  0
   -6.1650   18.5340  -32.7410 C   0  0  0  0  0  0  0  0  0  0  0  0
   -6.1470   17.1520  -33.3940 C   0  0  0  0  0  0  0  0  0  0  0  0
   -5.2270   17.2430  -34.6100 C   0  0  0  0  0  0  0  0  0  0  0  0
   -4.4610   18.5460  -34.4600 C   0  0  0  0  0  0  0  0  0  0  0  0
   -3.8431   24.2998  -25.7377 H   0  0  0  0  0  0  0  0  0  0  0  0
   -3.1671   25.2553  -27.1003 H   0  0  0  0  0  0  0  0  0  0  0  0
   -4.9035   24.7954  -27.1003 H   0  0  0  0  0  0  0  0  0  0  0  0
   -2.2348   22.6705  -25.9876 H   0  0  0  0  0  0  0  0  0  0  0  0
   -2.1479   21.6597  -27.4699 H   0  0  0  0  0  0  0  0  0  0  0  0
   -1.4519   23.3157  -27.4699 H   0  0  0  0  0  0  0  0  0  0  0  0
   -3.2137   22.4537  -29.4565 H   0  0  0  0  0  0  0  0  0  0  0  0
   -4.7418   23.4509  -29.2260 H   0  0  0  0  0  0  0  0  0  0  0  0
   -2.7962   25.3235  -28.8152 H   0  0  0  0  0  0  0  0  0  0  0  0
   -2.0367   24.2809  -30.0766 H   0  0  0  0  0  0  0  0  0  0  0  0
   -7.8335   24.2442  -30.4457 H   0  0  0  0  0  0  0  0  0  0  0  0
   -7.4323   20.3164  -32.2000 H   0  0  0  0  0  0  0  0  0  0  0  0
   -1.8285   22.2123  -32.4262 H   0  0  0  0  0  0  0  0  0  0  0  0
   -2.7321   21.3044  -31.1579 H   0  0  0  0  0  0  0  0  0  0  0  0
   -3.2313   21.3604  -34.1648 H   0  0  0  0  0  0  0  0  0  0  0  0
   -2.8167   19.9490  -33.0950 H   0  0  0  0  0  0  0  0  0  0  0  0
   -6.0829   19.9708  -34.4192 H   0  0  0  0  0  0  0  0  0  0  0  0
   -5.6536   18.5036  -31.7676 H   0  0  0  0  0  0  0  0  0  0  0  0
   -7.1930   18.8802  -32.5583 H   0  0  0  0  0  0  0  0  0  0  0  0
   -5.7624   16.4043  -32.6847 H   0  0  0  0  0  0  0  0  0  0  0  0
   -7.1608   16.8458  -33.6915 H   0  0  0  0  0  0  0  0  0  0  0  0
   -4.5316   16.3909  -34.6276 H   0  0  0  0  0  0  0  0  0  0  0  0
   -5.7982   17.2177  -35.5497 H   0  0  0  0  0  0  0  0  0  0  0  0
   -3.5355   18.3910  -33.8860 H   0  0  0  0  0  0  0  0  0  0  0  0
   -4.1530   18.9683  -35.4279 H   0  0  0  0  0  0  0  0  0  0  0  0
  1  2  1  0
  2  3  1  0
  2  4  1  0
  4  5  1  0
  5  6  1  0
  6  7  1  0
  7  8  2  0
  7  9  1  0
  9 10  2  0
 10 11  1  0
 11 12  1  0
 11 13  2  0
 13 14  1  0
 14 15  2  0
 15 16  1  0
 16 17  1  0
 17 18  1  0
 18 19  1  0
 19 20  1  0
 20 21  1  0
 21 22  1  0
 22 23  1  0
 23 24  1  0
 15  9  1  0
 24 20  1  0
 19 14  1  0
  1 25  1  0
  1 26  1  0
  1 27  1  0
  3 28  1  0
  3 29  1  0
  3 30  1  0
  4 31  1  0
  4 32  1  0
  5 33  1  0
  5 34  1  0
 10 35  1  0
 13 36  1  0
 17 37  1  0
 17 38  1  0
 18 39  1  0
 18 40  1  0
 20 41  1  0
 21 42  1  0
 21 43  1  0
 22 44  1  0
 22 45  1  0
 23 46  1  0
 23 47  1  0
 24 48  1  0
 24 49  1  0
M  CHG  1   6  -1
M  END
>  <UniqueID>  (25) 
24

>  <SMILES>  (25) 
CN(C)CC[N-]C(=O)c1cc(Cl)cc2c1OCCN2C1CCCC1

>  <Energy>  (25) 
64.07692471580451

>  <Genealogy>  (25) 
CN(C)CC[N-]C(=O)c1cc(Cl)cc2c1OCCN2C1CCCC1 (protonated)
CN(C)CC[N-]C(=O)c1cc(Cl)cc2c1OCCN2C1CCCC1 (3D coordinates assigned)
CN(C)CC[N-]C(=O)c1cc(Cl)cc2c1OCCN2C1CCCC1 (nonaromatic ring conformer: 64.07692471580451 kcal/mol)

>  <smiles>  (25) 
CN(C)CCNC(=O)c1cc(Cl)cc2c1OCCN2C1CCCC1

>  <score_type>  (25) 
oracle

>  <origin>  (25) 
adg

>  <m_score__min__energy>  (25) 
-10.52

>  <m_primary>  (25) 
energy

$$$$
27:0
     RDKit          3D

 43 44  0  0  0  0  0  0  0  0999 V2000
   -3.1160   21.3160  -27.9000 C   0  0  0  0  0  0  0  0  0  0  0  0
   -3.7760   22.2930  -28.8820 C   0  0  0  0  0  0  0  0  0  0  0  0
   -3.0190   22.4890  -30.1440 N   0  0  0  0  0  0  0  0  0  0  0  0
   -1.6530   23.0060  -29.9000 C   0  0  0  0  0  0  0  0  0  0  0  0
   -1.7000   24.2320  -28.9940 C   0  0  0  0  0  0  0  0  0  0  0  0
   -2.9970   21.2980  -31.0250 C   0  0  0  0  0  0  0  0  0  0  0  0
   -2.9880   21.6570  -32.5210 C   0  0  0  0  0  0  0  0  0  0  0  0
   -4.2580   22.2440  -32.9690 N   0  0  0  0  0  0  0  0  0  0  0  0
   -5.5230   21.9630  -32.3370 C   0  0  0  0  0  0  0  0  0  0  0  0
   -6.1180   22.9400  -31.5210 C   0  0  0  0  0  0  0  0  0  0  0  0
   -5.4450   24.1780  -31.2220 C   0  0  0  0  0  0  0  0  0  0  0  0
   -4.9050   25.1720  -30.9820 N   0  0  0  0  0  0  0  0  0  0  0  0
   -7.3690   22.7510  -31.0310 N   0  0  0  0  0  0  0  0  0  0  0  0
   -8.0940   21.6300  -31.2750 C   0  0  0  0  0  0  0  0  0  0  0  0
   -9.4780   21.5450  -30.6960 C   0  0  0  0  0  0  0  0  0  0  0  0
   -7.5230   20.5810  -32.0320 C   0  0  0  0  0  0  0  0  0  0  0  0
   -8.2170   19.3770  -32.2750 C   0  0  0  0  0  0  0  0  0  0  0  0
   -7.6050   18.3360  -32.9740 C   0  0  0  0  0  0  0  0  0  0  0  0
   -6.2940   18.4700  -33.4220 C   0  0  0  0  0  0  0  0  0  0  0  0
   -5.5930   19.6550  -33.2000 C   0  0  0  0  0  0  0  0  0  0  0  0
   -6.2050   20.7410  -32.5420 C   0  0  0  0  0  0  0  0  0  0  0  0
   -3.3298   21.6325  -26.8685 H   0  0  0  0  0  0  0  0  0  0  0  0
   -3.5168   20.3048  -28.0638 H   0  0  0  0  0  0  0  0  0  0  0  0
   -2.0283   21.3103  -28.0638 H   0  0  0  0  0  0  0  0  0  0  0  0
   -4.7745   21.9068  -29.1347 H   0  0  0  0  0  0  0  0  0  0  0  0
   -3.8129   23.2708  -28.3795 H   0  0  0  0  0  0  0  0  0  0  0  0
   -1.0501   22.2224  -29.4178 H   0  0  0  0  0  0  0  0  0  0  0  0
   -1.2035   23.2918  -30.8624 H   0  0  0  0  0  0  0  0  0  0  0  0
   -1.6877   23.9111  -27.9419 H   0  0  0  0  0  0  0  0  0  0  0  0
   -0.8256   24.8690  -29.1933 H   0  0  0  0  0  0  0  0  0  0  0  0
   -2.6206   24.8001  -29.1933 H   0  0  0  0  0  0  0  0  0  0  0  0
   -2.0938   20.7120  -30.7997 H   0  0  0  0  0  0  0  0  0  0  0  0
   -3.9165   20.7269  -30.8292 H   0  0  0  0  0  0  0  0  0  0  0  0
   -2.1809   22.3815  -32.7045 H   0  0  0  0  0  0  0  0  0  0  0  0
   -2.8338   20.7259  -33.0860 H   0  0  0  0  0  0  0  0  0  0  0  0
   -4.2740   22.6660  -33.9250 H   0  0  0  0  0  0  0  0  0  0  0  0
   -9.4168   21.5488  -29.5977 H   0  0  0  0  0  0  0  0  0  0  0  0
  -10.0702   22.4085  -31.0332 H   0  0  0  0  0  0  0  0  0  0  0  0
   -9.9601   20.6156  -31.0332 H   0  0  0  0  0  0  0  0  0  0  0  0
   -9.2481   19.2581  -31.9108 H   0  0  0  0  0  0  0  0  0  0  0  0
   -8.1600   17.4070  -33.1715 H   0  0  0  0  0  0  0  0  0  0  0  0
   -5.8089   17.6379  -33.9533 H   0  0  0  0  0  0  0  0  0  0  0  0
   -4.5513   19.7431  -33.5421 H   0  0  0  0  0  0  0  0  0  0  0  0
  1  2  1  0
  2  3  1  0
  3  4  1  0
  4  5  1  0
  3  6  1  0
  6  7  1  0
  7  8  1  0
  8  9  1  0
  9 10  2  0
 10 11  1  0
 11 12  3  0
 10 13  1  0
 13 14  2  0
 14 15  1  0
 14 16  1  0
 16 17  2  0
 17 18  1  0
 18 19  2  0
 19 20  1  0
 20 21  2  0
 21  9  1  0
 21 16  1  0
  1 22  1  0
  1 23  1  0
  1 24  1  0
  2 25  1  0
  2 26  1  0
  4 27  1  0
  4 28  1  0
  5 29  1  0
  5 30  1  0
  5 31  1  0
  6 32  1  0
  6 33  1  0
  7 34  1  0
  7 35  1  0
  8 36  1  0
 15 37  1  0
 15 38  1  0
 15 39  1  0
 17 40  1  0
 18 41  1  0
 19 42  1  0
 20 43  1  0
M  END
>  <UniqueID>  (26) 
25

>  <SMILES>  (26) 
CCN(CC)CCNc1c(C#N)nc(C)c2ccccc12

>  <Energy>  (26) 
51.37422835098119

>  <Genealogy>  (26) 
CCN(CC)CCNc1c(C#N)nc(C)c2ccccc12 (3D coordinates assigned)
CCN(CC)CCNc1c(C#N)nc(C)c2ccccc12 (optimized conformer: 51.37422835098119 kcal/mol)

>  <smiles>  (26) 
CCN(CC)CCNc1c(C#N)nc(C)c2ccccc12

>  <score_type>  (26) 
oracle

>  <origin>  (26) 
adg

>  <m_score__min__energy>  (26) 
-7.9000000000000004

>  <m_primary>  (26) 
energy

$$$$
28:0
     RDKit          3D

 41 42  0  0  0  0  0  0  0  0999 V2000
   -2.6890   18.9210  -32.9210 C   0  0  0  0  0  0  0  0  0  0  0  0
   -2.6850   19.8450  -34.1420 C   0  0  0  0  0  0  0  0  0  0  0  0
   -3.0740   21.2260  -33.8050 N   0  0  0  0  0  0  0  0  0  0  0  0
   -3.0130   21.4840  -32.3560 C   0  0  0  0  0  0  0  0  0  0  0  0
   -4.4160   21.6070  -31.7420 C   0  0  0  0  0  0  0  0  0  0  0  0
   -5.4280   21.4950  -32.7420 O   0  0  0  0  0  0  0  0  0  0  0  0
   -6.7940   21.3820  -32.4500 C   0  0  0  0  0  0  0  0  0  0  0  0
   -7.5190   22.4850  -31.9440 C   0  0  0  0  0  0  0  0  0  0  0  0
   -6.8530   23.8000  -31.6490 C   0  0  0  0  0  0  0  0  0  0  0  0
   -8.9000   22.3630  -31.7270 C   0  0  0  0  0  0  0  0  0  0  0  0
   -9.5490   21.1510  -31.9650 C   0  0  0  0  0  0  0  0  0  0  0  0
   -8.8280   20.0470  -32.4180 C   0  0  0  0  0  0  0  0  0  0  0  0
   -7.4470   20.1450  -32.6530 C   0  0  0  0  0  0  0  0  0  0  0  0
   -6.7060   18.9630  -33.1540 C   0  0  0  0  0  0  0  0  0  0  0  0
   -6.0980   18.9820  -34.4220 C   0  0  0  0  0  0  0  0  0  0  0  0
   -5.4190   17.8560  -34.8970 C   0  0  0  0  0  0  0  0  0  0  0  0
   -5.3380   16.7030  -34.1100 C   0  0  0  0  0  0  0  0  0  0  0  0
   -5.9300   16.6780  -32.8460 C   0  0  0  0  0  0  0  0  0  0  0  0
   -6.6090   17.8020  -32.3660 C   0  0  0  0  0  0  0  0  0  0  0  0
   -2.6864   19.5267  -32.0028 H   0  0  0  0  0  0  0  0  0  0  0  0
   -3.5899   18.2901  -32.9415 H   0  0  0  0  0  0  0  0  0  0  0  0
   -1.7936   18.2824  -32.9415 H   0  0  0  0  0  0  0  0  0  0  0  0
   -1.6723   19.8584  -34.5711 H   0  0  0  0  0  0  0  0  0  0  0  0
   -3.4225   19.4552  -34.8590 H   0  0  0  0  0  0  0  0  0  0  0  0
   -4.0520   21.3680  -34.1430 H   0  0  0  0  0  0  0  0  0  0  0  0
   -2.4580   21.9040  -34.3130 H   0  0  0  0  0  0  0  0  0  0  0  0
   -2.4817   20.6536  -31.8680 H   0  0  0  0  0  0  0  0  0  0  0  0
   -2.4848   22.4360  -32.1988 H   0  0  0  0  0  0  0  0  0  0  0  0
   -4.5545   20.8068  -31.0000 H   0  0  0  0  0  0  0  0  0  0  0  0
   -4.5032   22.5953  -31.2670 H   0  0  0  0  0  0  0  0  0  0  0  0
   -6.7825   23.9392  -30.5601 H   0  0  0  0  0  0  0  0  0  0  0  0
   -5.8433   23.8057  -32.0855 H   0  0  0  0  0  0  0  0  0  0  0  0
   -7.4458   24.6173  -32.0855 H   0  0  0  0  0  0  0  0  0  0  0  0
   -9.4749   23.2289  -31.3668 H   0  0  0  0  0  0  0  0  0  0  0  0
  -10.6324   21.0663  -31.7948 H   0  0  0  0  0  0  0  0  0  0  0  0
   -9.3449   19.0919  -32.5927 H   0  0  0  0  0  0  0  0  0  0  0  0
   -6.1570   19.8877  -35.0434 H   0  0  0  0  0  0  0  0  0  0  0  0
   -4.9480   17.8771  -35.8908 H   0  0  0  0  0  0  0  0  0  0  0  0
   -4.8079   15.8159  -34.4868 H   0  0  0  0  0  0  0  0  0  0  0  0
   -5.8621   15.7718  -32.2262 H   0  0  0  0  0  0  0  0  0  0  0  0
   -7.0695   17.7782  -31.3673 H   0  0  0  0  0  0  0  0  0  0  0  0
  1  2  1  0
  2  3  1  0
  3  4  1  0
  4  5  1  0
  5  6  1  0
  6  7  1  0
  7  8  2  0
  8  9  1  0
  8 10  1  0
 10 11  2  0
 11 12  1  0
 12 13  2  0
 13 14  1  0
 14 15  2  0
 15 16  1  0
 16 17  2  0
 17 18  1  0
 18 19  2  0
 13  7  1  0
 19 14  1  0
  1 20  1  0
  1 21  1  0
  1 22  1  0
  2 23  1  0
  2 24  1  0
  3 25  1  0
  3 26  1  0
  4 27  1  0
  4 28  1  0
  5 29  1  0
  5 30  1  0
  9 31  1  0
  9 32  1  0
  9 33  1  0
 10 34  1  0
 11 35  1  0
 12 36  1  0
 15 37  1  0
 16 38  1  0
 17 39  1  0
 18 40  1  0
 19 41  1  0
M  CHG  1   3   1
M  END
>  <UniqueID>  (27) 
26

>  <SMILES>  (27) 
CC[NH2+]CCOc1c(C)cccc1-c1ccccc1

>  <Energy>  (27) 
48.05375617379427

>  <Genealogy>  (27) 
CC[NH2+]CCOc1c(C)cccc1-c1ccccc1 (protonated)
CC[NH2+]CCOc1c(C)cccc1-c1ccccc1 (3D coordinates assigned)
CC[NH2+]CCOc1c(C)cccc1-c1ccccc1 (optimized conformer: 48.05375617379427 kcal/mol)

>  <smiles>  (27) 
CCNCCOc1c(C)cccc1-c1ccccc1

>  <score_type>  (27) 
oracle

>  <origin>  (27) 
adg

>  <m_score__min__energy>  (27) 
-6.3899999999999997

>  <m_primary>  (27) 
energy

$$$$
29:0
     RDKit          3D

 52 53  0  0  0  0  0  0  0  0999 V2000
   -6.7480   20.0960  -33.4090 C   0  0  0  0  0  0  0  0  0  0  0  0
   -6.4220   20.4160  -31.9380 C   0  0  0  0  0  0  0  0  0  0  0  0
   -7.0610   21.6490  -31.3910 N   0  0  0  0  0  0  0  0  0  0  0  0
   -8.4320   21.4050  -30.8620 C   0  0  0  0  0  0  0  0  0  0  0  0
   -9.5350   21.3240  -31.9220 C   0  0  0  0  0  0  0  0  0  0  0  0
   -6.9420   22.8250  -32.2920 C   0  0  0  0  0  0  0  0  0  0  0  0
   -6.3690   24.0720  -31.5940 C   0  0  0  0  0  0  0  0  0  0  0  0
   -5.5090   23.6830  -30.5270 O   0  0  0  0  0  0  0  0  0  0  0  0
   -4.1790   24.1070  -30.4140 C   0  0  0  0  0  0  0  0  0  0  0  0
   -3.8720   25.2990  -30.6960 O   0  0  0  0  0  0  0  0  0  0  0  0
   -3.1070   23.1640  -29.8780 C   0  0  0  0  0  0  0  0  0  0  0  0
   -2.6490   22.2910  -31.0610 C   0  0  0  0  0  0  0  0  0  0  0  0
   -1.3590   21.7150  -31.1460 C   0  0  0  0  0  0  0  0  0  0  0  0
   -0.9960   20.9340  -32.2470 C   0  0  0  0  0  0  0  0  0  0  0  0
   -1.9020   20.7140  -33.2840 C   0  0  0  0  0  0  0  0  0  0  0  0
   -3.1750   21.2790  -33.2260 C   0  0  0  0  0  0  0  0  0  0  0  0
   -3.5460   22.0620  -32.1310 C   0  0  0  0  0  0  0  0  0  0  0  0
   -1.8600   23.9410  -29.3310 C   0  0  0  0  0  0  0  0  0  0  0  0
   -1.9520   24.3590  -27.8460 C   0  0  0  0  0  0  0  0  0  0  0  0
   -3.3960   24.5240  -27.3670 C   0  0  0  0  0  0  0  0  0  0  0  0
   -4.2090   23.2270  -27.5390 C   0  0  0  0  0  0  0  0  0  0  0  0
   -3.7170   22.3410  -28.7050 C   0  0  0  0  0  0  0  0  0  0  0  0
   -7.5324   19.3260  -33.4516 H   0  0  0  0  0  0  0  0  0  0  0  0
   -7.1014   21.0077  -33.9130 H   0  0  0  0  0  0  0  0  0  0  0  0
   -5.8430   19.7258  -33.9130 H   0  0  0  0  0  0  0  0  0  0  0  0
   -6.7506   19.5637  -31.3251 H   0  0  0  0  0  0  0  0  0  0  0  0
   -5.3376   20.5968  -31.9018 H   0  0  0  0  0  0  0  0  0  0  0  0
   -6.4930   21.8870  -30.5420 H   0  0  0  0  0  0  0  0  0  0  0  0
   -8.4196   20.4534  -30.3103 H   0  0  0  0  0  0  0  0  0  0  0  0
   -8.6759   22.2741  -30.2333 H   0  0  0  0  0  0  0  0  0  0  0  0
  -10.5147   21.2521  -31.4270 H   0  0  0  0  0  0  0  0  0  0  0  0
   -9.5069   22.2266  -32.5501 H   0  0  0  0  0  0  0  0  0  0  0  0
   -9.3754   20.4352  -32.5501 H   0  0  0  0  0  0  0  0  0  0  0  0
   -6.2797   22.5581  -33.1287 H   0  0  0  0  0  0  0  0  0  0  0  0
   -7.9570   23.0793  -32.6313 H   0  0  0  0  0  0  0  0  0  0  0  0
   -5.7989   24.6672  -32.3225 H   0  0  0  0  0  0  0  0  0  0  0  0
   -7.1978   24.6710  -31.1888 H   0  0  0  0  0  0  0  0  0  0  0  0
   -0.6337   21.8839  -30.3364 H   0  0  0  0  0  0  0  0  0  0  0  0
    0.0095   20.4907  -32.2957 H   0  0  0  0  0  0  0  0  0  0  0  0
   -1.6126   20.0956  -34.1464 H   0  0  0  0  0  0  0  0  0  0  0  0
   -3.8891   21.1076  -34.0449 H   0  0  0  0  0  0  0  0  0  0  0  0
   -4.5512   22.5077  -32.0998 H   0  0  0  0  0  0  0  0  0  0  0  0
   -0.9768   23.2963  -29.4501 H   0  0  0  0  0  0  0  0  0  0  0  0
   -1.8002   24.8741  -29.9104 H   0  0  0  0  0  0  0  0  0  0  0  0
   -1.4637   23.5876  -27.2324 H   0  0  0  0  0  0  0  0  0  0  0  0
   -1.4548   25.3349  -27.7442 H   0  0  0  0  0  0  0  0  0  0  0  0
   -3.3883   24.8005  -26.3024 H   0  0  0  0  0  0  0  0  0  0  0  0
   -3.8703   25.3074  -27.9763 H   0  0  0  0  0  0  0  0  0  0  0  0
   -4.1395   22.6464  -26.6073 H   0  0  0  0  0  0  0  0  0  0  0  0
   -5.2431   23.5218  -27.7709 H   0  0  0  0  0  0  0  0  0  0  0  0
   -2.9487   21.6529  -28.3226 H   0  0  0  0  0  0  0  0  0  0  0  0
   -4.5905   21.8017  -29.1002 H   0  0  0  0  0  0  0  0  0  0  0  0
  1  2  1  0
  2  3  1  0
  3  4  1  0
  4  5  1  0
  3  6  1  0
  6  7  1  0
  7  8  1  0
  8  9  1  0
  9 10  2  0
  9 11  1  0
 11 12  1  0
 12 13  2  0
 13 14  1  0
 14 15  2  0
 15 16  1  0
 16 17  2  0
 11 18  1  0
 18 19  1  0
 19 20  1  0
 20 21  1  0
 21 22  1  0
 22 11  1  0
 17 12  1  0
  1 23  1  0
  1 24  1  0
  1 25  1  0
  2 26  1  0
  2 27  1  0
  3 28  1  0
  4 29  1  0
  4 30  1  0
  5 31  1  0
  5 32  1  0
  5 33  1  0
  6 34  1  0
  6 35  1  0
  7 36  1  0
  7 37  1  0
 13 38  1  0
 14 39  1  0
 15 40  1  0
 16 41  1  0
 17 42  1  0
 18 43  1  0
 18 44  1  0
 19 45  1  0
 19 46  1  0
 20 47  1  0
 20 48  1  0
 21 49  1  0
 21 50  1  0
 22 51  1  0
 22 52  1  0
M  CHG  1   3   1
M  END
>  <UniqueID>  (28) 
27

>  <SMILES>  (28) 
CC[NH+](CC)CCOC(=O)C1(c2ccccc2)CCCCC1

>  <Energy>  (28) 
66.44697933355366

>  <Genealogy>  (28) 
CC[NH+](CC)CCOC(=O)C1(c2ccccc2)CCCCC1 (protonated)
CC[NH+](CC)CCOC(=O)C1(c2ccccc2)CCCCC1 (3D coordinates assigned)
CC[NH+](CC)CCOC(=O)C1(c2ccccc2)CCCCC1 (nonaromatic ring conformer: 66.44697933355366 kcal/mol)

>  <smiles>  (28) 
CCN(CC)CCOC(=O)C1(c2ccccc2)CCCCC1

>  <score_type>  (28) 
oracle

>  <origin>  (28) 
adg

>  <m_score__min__energy>  (28) 
-6.25

>  <m_primary>  (28) 
energy

$$$$
30:0
     RDKit          3D

 39 40  0  0  0  0  0  0  0  0999 V2000
   -3.8560   22.8640  -29.2490 C   0  0  0  0  0  0  0  0  0  0  0  0
   -3.6190   24.1500  -30.0460 C   0  0  0  0  0  0  0  0  0  0  0  0
   -4.8040   24.5150  -30.8600 N   0  0  0  0  0  0  0  0  0  0  0  0
   -5.3480   25.8360  -30.4630 C   0  0  0  0  0  0  0  0  0  0  0  0
   -6.4490   25.6770  -29.4150 C   0  0  0  0  0  0  0  0  0  0  0  0
   -5.8460   23.4530  -30.7920 C   0  0  0  0  0  0  0  0  0  0  0  0
   -6.5210   23.2720  -32.1540 C   0  0  0  0  0  0  0  0  0  0  0  0
   -6.2160   21.9590  -32.7260 N   0  0  0  0  0  0  0  0  0  0  0  0
   -6.9760   20.7570  -32.4790 C   0  0  0  0  0  0  0  0  0  0  0  0
   -8.1180   20.7710  -31.6540 C   0  0  0  0  0  0  0  0  0  0  0  0
   -8.8360   19.5980  -31.4090 C   0  0  0  0  0  0  0  0  0  0  0  0
   -8.4260   18.3890  -31.9750 C   0  0  0  0  0  0  0  0  0  0  0  0
   -7.2910   18.3490  -32.7930 C   0  0  0  0  0  0  0  0  0  0  0  0
   -6.8630   17.1460  -33.3750 C   0  0  0  0  0  0  0  0  0  0  0  0
   -5.7350   17.1350  -34.1970 C   0  0  0  0  0  0  0  0  0  0  0  0
   -5.0430   18.3230  -34.4300 C   0  0  0  0  0  0  0  0  0  0  0  0
   -5.4650   19.4830  -33.8580 N   0  0  0  0  0  0  0  0  0  0  0  0
   -6.5610   19.5330  -33.0480 C   0  0  0  0  0  0  0  0  0  0  0  0
   -3.8149   23.0869  -28.1726 H   0  0  0  0  0  0  0  0  0  0  0  0
   -4.8449   22.4535  -29.5010 H   0  0  0  0  0  0  0  0  0  0  0  0
   -3.0784   22.1279  -29.5010 H   0  0  0  0  0  0  0  0  0  0  0  0
   -3.4015   24.9693  -29.3450 H   0  0  0  0  0  0  0  0  0  0  0  0
   -2.7725   23.9808  -30.7278 H   0  0  0  0  0  0  0  0  0  0  0  0
   -4.5366   26.4488  -30.0434 H   0  0  0  0  0  0  0  0  0  0  0  0
   -5.7752   26.3229  -31.3520 H   0  0  0  0  0  0  0  0  0  0  0  0
   -6.0093   25.7405  -28.4087 H   0  0  0  0  0  0  0  0  0  0  0  0
   -7.1934   26.4770  -29.5410 H   0  0  0  0  0  0  0  0  0  0  0  0
   -6.9367   24.6991  -29.5410 H   0  0  0  0  0  0  0  0  0  0  0  0
   -5.3764   22.5045  -30.4925 H   0  0  0  0  0  0  0  0  0  0  0  0
   -6.6074   23.7500  -30.0557 H   0  0  0  0  0  0  0  0  0  0  0  0
   -7.6100   23.3651  -32.0299 H   0  0  0  0  0  0  0  0  0  0  0  0
   -6.1408   24.0461  -32.8367 H   0  0  0  0  0  0  0  0  0  0  0  0
   -5.4350   21.9250  -33.4190 H   0  0  0  0  0  0  0  0  0  0  0  0
   -8.4479   21.7160  -31.1978 H   0  0  0  0  0  0  0  0  0  0  0  0
   -9.7288   19.6268  -30.7670 H   0  0  0  0  0  0  0  0  0  0  0  0
   -8.9949   17.4684  -31.7780 H   0  0  0  0  0  0  0  0  0  0  0  0
   -7.4151   16.2140  -33.1839 H   0  0  0  0  0  0  0  0  0  0  0  0
   -5.3944   16.1960  -34.6577 H   0  0  0  0  0  0  0  0  0  0  0  0
   -4.1539   18.3222  -35.0777 H   0  0  0  0  0  0  0  0  0  0  0  0
  1  2  1  0
  2  3  1  0
  3  4  1  0
  4  5  1  0
  3  6  1  0
  6  7  1  0
  7  8  1  0
  8  9  1  0
  9 10  2  0
 10 11  1  0
 11 12  2  0
 12 13  1  0
 13 14  2  0
 14 15  1  0
 15 16  2  0
 16 17  1  0
 17 18  2  0
 18  9  1  0
 18 13  1  0
  1 19  1  0
  1 20  1  0
  1 21  1  0
  2 22  1  0
  2 23  1  0
  4 24  1  0
  4 25  1  0
  5 26  1  0
  5 27  1  0
  5 28  1  0
  6 29  1  0
  6 30  1  0
  7 31  1  0
  7 32  1  0
  8 33  1  0
 10 34  1  0
 11 35  1  0
 12 36  1  0
 14 37  1  0
 15 38  1  0
 16 39  1  0
M  END
>  <UniqueID>  (29) 
28

>  <SMILES>  (29) 
CCN(CC)CCNc1cccc2cccnc12

>  <Energy>  (29) 
40.39822358715345

>  <Genealogy>  (29) 
CCN(CC)CCNc1cccc2cccnc12 (3D coordinates assigned)
CCN(CC)CCNc1cccc2cccnc12 (optimized conformer: 40.39822358715345 kcal/mol)

>  <smiles>  (29) 
CCN(CC)CCNc1cccc2cccnc12

>  <score_type>  (29) 
oracle

>  <origin>  (29) 
adg

>  <m_score__min__energy>  (29) 
-7.5300000000000002

>  <m_primary>  (29) 
energy

$$$$
31:0
     RDKit          3D

 43 44  0  0  0  0  0  0  0  0999 V2000
   -8.8120   22.7780  -31.9630 C   0  0  0  0  0  0  0  0  0  0  0  0
   -8.7020   21.4930  -31.1280 C   0  0  0  0  0  0  0  0  0  0  0  0
   -8.2880   20.2940  -31.8960 N   0  0  0  0  0  0  0  0  0  0  0  0
   -9.4080   19.6440  -32.5960 C   0  0  0  0  0  0  0  0  0  0  0  0
   -7.1370   20.5380  -32.7930 C   0  0  0  0  0  0  0  0  0  0  0  0
   -5.8820   20.8250  -31.9680 C   0  0  0  0  0  0  0  0  0  0  0  0
   -5.3790   22.1720  -32.2910 N   0  0  0  0  0  0  0  0  0  0  0  0
   -5.3280   23.1040  -31.1440 C   0  0  2  0  0  0  0  0  0  0  0  0
   -5.7960   24.5070  -31.5950 C   0  0  0  0  0  0  0  0  0  0  0  0
   -5.5340   25.5440  -30.5070 C   0  0  0  0  0  0  0  0  0  0  0  0
   -4.1520   25.5460  -30.1660 O   0  0  0  0  0  0  0  0  0  0  0  0
   -3.4370   24.3570  -29.9840 C   0  0  0  0  0  0  0  0  0  0  0  0
   -2.1870   24.3970  -29.3510 C   0  0  0  0  0  0  0  0  0  0  0  0
   -1.6710   25.6460  -28.9680 O   0  0  0  0  0  0  0  0  0  0  0  0
   -1.1540   25.9410  -27.6740 C   0  0  0  0  0  0  0  0  0  0  0  0
   -1.5000   23.1950  -29.1050 C   0  0  0  0  0  0  0  0  0  0  0  0
   -2.0650   21.9730  -29.4730 C   0  0  0  0  0  0  0  0  0  0  0  0
   -3.3020   21.9370  -30.1180 C   0  0  0  0  0  0  0  0  0  0  0  0
   -3.9760   23.1300  -30.4310 C   0  0  0  0  0  0  0  0  0  0  0  0
   -8.8863   23.6462  -31.2917 H   0  0  0  0  0  0  0  0  0  0  0  0
   -7.9193   22.8805  -32.5976 H   0  0  0  0  0  0  0  0  0  0  0  0
   -9.7091   22.7273  -32.5976 H   0  0  0  0  0  0  0  0  0  0  0  0
   -7.9625   21.6631  -30.3316 H   0  0  0  0  0  0  0  0  0  0  0  0
   -9.7104   21.2840  -30.7413 H   0  0  0  0  0  0  0  0  0  0  0  0
  -10.1135   19.2345  -31.8580 H   0  0  0  0  0  0  0  0  0  0  0  0
   -9.9245   20.3827  -33.2265 H   0  0  0  0  0  0  0  0  0  0  0  0
   -9.0229   18.8291  -33.2265 H   0  0  0  0  0  0  0  0  0  0  0  0
   -6.9669   19.6485  -33.4173 H   0  0  0  0  0  0  0  0  0  0  0  0
   -7.3552   21.4064  -33.4320 H   0  0  0  0  0  0  0  0  0  0  0  0
   -6.1273   20.7723  -30.8970 H   0  0  0  0  0  0  0  0  0  0  0  0
   -5.1093   20.0787  -32.2044 H   0  0  0  0  0  0  0  0  0  0  0  0
   -5.9710   22.5830  -33.0490 H   0  0  0  0  0  0  0  0  0  0  0  0
   -6.0245   22.7297  -30.3793 H   0  0  0  0  0  0  0  0  0  0  0  0
   -5.2489   24.7938  -32.5052 H   0  0  0  0  0  0  0  0  0  0  0  0
   -6.8775   24.4702  -31.7924 H   0  0  0  0  0  0  0  0  0  0  0  0
   -5.8208   26.5401  -30.8752 H   0  0  0  0  0  0  0  0  0  0  0  0
   -6.1278   25.2934  -29.6156 H   0  0  0  0  0  0  0  0  0  0  0  0
   -1.8393   25.5500  -26.9075 H   0  0  0  0  0  0  0  0  0  0  0  0
   -0.1666   25.4703  -27.5576 H   0  0  0  0  0  0  0  0  0  0  0  0
   -1.0569   27.0305  -27.5576 H   0  0  0  0  0  0  0  0  0  0  0  0
   -0.5128   23.2179  -28.6203 H   0  0  0  0  0  0  0  0  0  0  0  0
   -1.5335   21.0352  -29.2539 H   0  0  0  0  0  0  0  0  0  0  0  0
   -3.7523   20.9690  -30.3831 H   0  0  0  0  0  0  0  0  0  0  0  0
  1  2  1  0
  2  3  1  0
  3  4  1  0
  3  5  1  0
  5  6  1  0
  6  7  1  0
  7  8  1  0
  8  9  1  0
  9 10  1  0
 10 11  1  0
 11 12  1  0
 12 13  2  0
 13 14  1  0
 14 15  1  0
 13 16  1  0
 16 17  2  0
 17 18  1  0
 18 19  2  0
 19  8  1  0
 19 12  1  0
  1 20  1  0
  1 21  1  0
  1 22  1  0
  2 23  1  0
  2 24  1  0
  4 25  1  0
  4 26  1  0
  4 27  1  0
  5 28  1  0
  5 29  1  0
  6 30  1  0
  6 31  1  0
  7 32  1  0
  8 33  1  1
  9 34  1  0
  9 35  1  0
 10 36  1  0
 10 37  1  0
 15 38  1  0
 15 39  1  0
 15 40  1  0
 16 41  1  0
 17 42  1  0
 18 43  1  0
M  END
>  <UniqueID>  (30) 
29

>  <SMILES>  (30) 
CCN(C)CCN[C@@H]1CCOc2c(OC)cccc21

>  <Energy>  (30) 
47.23627864688213

>  <Genealogy>  (30) 
CCN(C)CCN[C@@H]1CCOc2c(OC)cccc21 (chirality)
CCN(C)CCN[C@@H]1CCOc2c(OC)cccc21 (3D coordinates assigned)
CCN(C)CCN[C@@H]1CCOc2c(OC)cccc21 (nonaromatic ring conformer: 47.23627864688213 kcal/mol)

>  <smiles>  (30) 
CCN(C)CCNC1CCOc2c(OC)cccc21

>  <score_type>  (30) 
oracle

>  <origin>  (30) 
adg

>  <m_score__min__energy>  (30) 
-7.71

>  <m_primary>  (30) 
energy

$$$$
32:0
     RDKit          3D

 47 49  0  0  0  0  0  0  0  0999 V2000
   -2.2670   20.7640  -27.6910 C   0  0  0  0  0  0  0  0  0  0  0  0
   -2.7460   20.8730  -29.1340 C   0  0  0  0  0  0  0  0  0  0  0  0
   -1.9420   21.8450  -29.8840 N   0  0  0  0  0  0  0  0  0  0  0  0
   -1.5880   21.6090  -31.2900 C   0  0  0  0  0  0  0  0  0  0  0  0
   -2.8420   21.5560  -32.1550 C   0  0  0  0  0  0  0  0  0  0  0  0
   -1.4570   23.0320  -29.2340 C   0  0  0  0  0  0  0  0  0  0  0  0
   -0.1580   23.0720  -28.8280 N   0  0  0  0  0  0  0  0  0  0  0  0
    0.3500   24.1190  -28.1300 C   0  0  0  0  0  0  0  0  0  0  0  0
   -0.4750   25.1800  -27.7670 C   0  0  0  0  0  0  0  0  0  0  0  0
   -1.8140   25.1680  -28.1560 C   0  0  0  0  0  0  0  0  0  0  0  0
   -2.3180   24.1170  -28.9400 C   0  0  0  0  0  0  0  0  0  0  0  0
   -3.7610   24.1460  -29.4120 C   0  0  0  0  0  0  0  0  0  0  0  0
   -4.0080   25.1410  -30.4710 N   0  0  0  0  0  0  0  0  0  0  0  0
   -5.4320   25.3400  -30.7880 C   0  0  0  0  0  0  0  0  0  0  0  0
   -6.1950   24.0460  -30.8110 C   0  0  0  0  0  0  0  0  0  0  0  0
   -7.1010   23.6100  -29.8500 C   0  0  0  0  0  0  0  0  0  0  0  0
   -7.6190   22.3750  -30.0810 N   0  0  0  0  0  0  0  0  0  0  0  0
   -7.1490   21.8170  -31.2210 C   0  0  0  0  0  0  0  0  0  0  0  0
   -7.5180   20.4760  -31.7060 C   0  0  0  0  0  0  0  0  0  0  0  0
   -8.7590   19.8620  -31.5750 C   0  0  0  0  0  0  0  0  0  0  0  0
   -8.8020   18.5780  -32.1310 C   0  0  0  0  0  0  0  0  0  0  0  0
   -7.6010   18.1730  -32.7000 C   0  0  0  0  0  0  0  0  0  0  0  0
   -6.4860   19.4160  -32.5080 S   0  0  0  0  0  0  0  0  0  0  0  0
   -6.0650   22.8510  -31.9910 S   0  0  0  0  0  0  0  0  0  0  0  0
   -3.1091   20.9556  -27.0097 H   0  0  0  0  0  0  0  0  0  0  0  0
   -1.8724   19.7531  -27.5110 H   0  0  0  0  0  0  0  0  0  0  0  0
   -1.4739   21.5046  -27.5110 H   0  0  0  0  0  0  0  0  0  0  0  0
   -2.6614   19.8880  -29.6163 H   0  0  0  0  0  0  0  0  0  0  0  0
   -3.7923   21.2124  -29.1308 H   0  0  0  0  0  0  0  0  0  0  0  0
   -0.9398   22.4251  -31.6419 H   0  0  0  0  0  0  0  0  0  0  0  0
   -1.0617   20.6462  -31.3674 H   0  0  0  0  0  0  0  0  0  0  0  0
   -3.7316   21.5184  -31.5091 H   0  0  0  0  0  0  0  0  0  0  0  0
   -2.8876   22.4530  -32.7900 H   0  0  0  0  0  0  0  0  0  0  0  0
   -2.8117   20.6583  -32.7900 H   0  0  0  0  0  0  0  0  0  0  0  0
    1.4140   24.1294  -27.8509 H   0  0  0  0  0  0  0  0  0  0  0  0
   -0.0747   26.0192  -27.1793 H   0  0  0  0  0  0  0  0  0  0  0  0
   -2.4801   25.9870  -27.8469 H   0  0  0  0  0  0  0  0  0  0  0  0
   -4.0213   23.1504  -29.8007 H   0  0  0  0  0  0  0  0  0  0  0  0
   -4.3807   24.4287  -28.5483 H   0  0  0  0  0  0  0  0  0  0  0  0
   -3.4480   24.9360  -31.3300 H   0  0  0  0  0  0  0  0  0  0  0  0
   -5.8754   25.9991  -30.0271 H   0  0  0  0  0  0  0  0  0  0  0  0
   -5.4952   25.7869  -31.7911 H   0  0  0  0  0  0  0  0  0  0  0  0
   -7.3760   24.2157  -28.9739 H   0  0  0  0  0  0  0  0  0  0  0  0
   -8.2990   21.9180  -29.4360 H   0  0  0  0  0  0  0  0  0  0  0  0
   -9.6206   20.3377  -31.0837 H   0  0  0  0  0  0  0  0  0  0  0  0
   -9.7035   17.9478  -32.1185 H   0  0  0  0  0  0  0  0  0  0  0  0
   -7.4126   17.2068  -33.1909 H   0  0  0  0  0  0  0  0  0  0  0  0
  1  2  1  0
  2  3  1  0
  3  4  1  0
  4  5  1  0
  3  6  1  0
  6  7  2  0
  7  8  1  0
  8  9  2  0
  9 10  1  0
 10 11  2  0
 11 12  1  0
 12 13  1  0
 13 14  1  0
 14 15  1  0
 15 16  2  0
 16 17  1  0
 17 18  2  0
 18 19  1  0
 19 20  2  0
 20 21  1  0
 21 22  2  0
 22 23  1  0
 18 24  1  0
 11  6  1  0
 24 15  1  0
 23 19  1  0
  1 25  1  0
  1 26  1  0
  1 27  1  0
  2 28  1  0
  2 29  1  0
  4 30  1  0
  4 31  1  0
  5 32  1  0
  5 33  1  0
  5 34  1  0
  8 35  1  0
  9 36  1  0
 10 37  1  0
 12 38  1  0
 12 39  1  0
 13 40  1  0
 14 41  1  0
 14 42  1  0
 16 43  1  0
 17 44  1  0
 20 45  1  0
 21 46  1  0
 22 47  1  0
M  CHG  1  17   1
M  END
>  <UniqueID>  (31) 
30

>  <SMILES>  (31) 
CCN(CC)c1ncccc1CNCc1c[nH+]c(-c2cccs2)s1

>  <Energy>  (31) 
102.48706786881637

>  <Genealogy>  (31) 
CCN(CC)c1ncccc1CNCc1c[nH+]c(-c2cccs2)s1 (protonated)
CCN(CC)c1ncccc1CNCc1c[nH+]c(-c2cccs2)s1 (3D coordinates assigned)
CCN(CC)c1ncccc1CNCc1c[nH+]c(-c2cccs2)s1 (optimized conformer: 102.48706786881637 kcal/mol)

>  <smiles>  (31) 
CCN(CC)c1ncccc1CNCc1cnc(-c2cccs2)s1

>  <score_type>  (31) 
oracle

>  <origin>  (31) 
adg

>  <m_score__min__energy>  (31) 
-7.4800000000000004

>  <m_primary>  (31) 
energy

$$$$
33:0
     RDKit          3D

 42 44  0  0  0  0  0  0  0  0999 V2000
   -5.1250   16.0040  -33.4730 C   0  0  0  0  0  0  0  0  0  0  0  0
   -6.5040   16.3490  -33.4080 O   0  0  0  0  0  0  0  0  0  0  0  0
   -6.9910   17.6200  -33.0560 C   0  0  0  0  0  0  0  0  0  0  0  0
   -6.4540   18.7390  -33.7040 C   0  0  0  0  0  0  0  0  0  0  0  0
   -6.8840   20.0260  -33.3710 C   0  0  0  0  0  0  0  0  0  0  0  0
   -7.8700   20.2100  -32.3910 C   0  0  0  0  0  0  0  0  0  0  0  0
   -8.2920   21.6040  -31.9950 C   0  0  0  0  0  0  0  0  0  0  0  0
   -7.3720   22.5830  -32.4480 O   0  0  0  0  0  0  0  0  0  0  0  0
   -6.3510   22.7960  -31.4900 C   0  0  0  0  0  0  0  0  0  0  0  0
   -6.1160   24.3110  -31.3450 C   0  0  1  0  0  0  0  0  0  0  0  0
   -6.8450   24.9260  -30.1530 C   0  0  0  0  0  0  0  0  0  0  0  0
   -5.4620   25.3450  -29.6750 C   0  0  0  0  0  0  0  0  0  0  0  0
   -4.8000   24.7690  -30.8510 N   0  0  0  0  0  0  0  0  0  0  0  0
   -3.6920   23.8090  -30.6140 C   0  0  0  0  0  0  0  0  0  0  0  0
   -2.7150   24.1190  -29.5050 C   0  0  0  0  0  0  0  0  0  0  0  0
   -2.3550   23.2740  -28.4700 C   0  0  0  0  0  0  0  0  0  0  0  0
   -1.5120   24.0080  -27.6630 C   0  0  0  0  0  0  0  0  0  0  0  0
   -1.4180   25.2550  -28.2430 C   0  0  0  0  0  0  0  0  0  0  0  0
   -2.1520   25.2930  -29.3300 O   0  0  0  0  0  0  0  0  0  0  0  0
   -8.4140   19.0910  -31.7420 C   0  0  0  0  0  0  0  0  0  0  0  0
   -7.9820   17.8040  -32.0730 C   0  0  0  0  0  0  0  0  0  0  0  0
   -4.7237   15.9036  -32.4537 H   0  0  0  0  0  0  0  0  0  0  0  0
   -5.0106   15.0496  -34.0078 H   0  0  0  0  0  0  0  0  0  0  0  0
   -4.5747   16.7921  -34.0078 H   0  0  0  0  0  0  0  0  0  0  0  0
   -5.6876   18.6038  -34.4814 H   0  0  0  0  0  0  0  0  0  0  0  0
   -6.4474   20.8982  -33.8795 H   0  0  0  0  0  0  0  0  0  0  0  0
   -9.2793   21.8144  -32.4320 H   0  0  0  0  0  0  0  0  0  0  0  0
   -8.3267   21.6508  -30.8965 H   0  0  0  0  0  0  0  0  0  0  0  0
   -6.6589   22.3751  -30.5215 H   0  0  0  0  0  0  0  0  0  0  0  0
   -5.4233   22.3030  -31.8161 H   0  0  0  0  0  0  0  0  0  0  0  0
   -6.3790   24.5852  -32.3773 H   0  0  0  0  0  0  0  0  0  0  0  0
   -7.5243   25.7554  -30.3993 H   0  0  0  0  0  0  0  0  0  0  0  0
   -7.5447   24.3558  -29.5243 H   0  0  0  0  0  0  0  0  0  0  0  0
   -5.3388   26.4350  -29.5934 H   0  0  0  0  0  0  0  0  0  0  0  0
   -5.1298   25.0343  -28.6735 H   0  0  0  0  0  0  0  0  0  0  0  0
   -4.1465   22.8333  -30.3872 H   0  0  0  0  0  0  0  0  0  0  0  0
   -3.0890   23.8505  -31.5331 H   0  0  0  0  0  0  0  0  0  0  0  0
   -2.6752   22.2321  -28.3218 H   0  0  0  0  0  0  0  0  0  0  0  0
   -1.0150   23.6675  -26.7426 H   0  0  0  0  0  0  0  0  0  0  0  0
   -0.8187   26.0912  -27.8537 H   0  0  0  0  0  0  0  0  0  0  0  0
   -9.1844   19.2277  -30.9688 H   0  0  0  0  0  0  0  0  0  0  0  0
   -8.4177   16.9317  -31.5638 H   0  0  0  0  0  0  0  0  0  0  0  0
  1  2  1  0
  2  3  1  0
  3  4  2  0
  4  5  1  0
  5  6  2  0
  6  7  1  0
  7  8  1  0
  8  9  1  0
  9 10  1  0
 10 11  1  0
 11 12  1  0
 12 13  1  0
 13 14  1  0
 14 15  1  0
 15 16  2  0
 16 17  1  0
 17 18  2  0
 18 19  1  0
  6 20  1  0
 20 21  2  0
 21  3  1  0
 13 10  1  0
 19 15  1  0
  1 22  1  0
  1 23  1  0
  1 24  1  0
  4 25  1  0
  5 26  1  0
  7 27  1  0
  7 28  1  0
  9 29  1  0
  9 30  1  0
 10 31  1  6
 11 32  1  0
 11 33  1  0
 12 34  1  0
 12 35  1  0
 14 36  1  0
 14 37  1  0
 16 38  1  0
 17 39  1  0
 18 40  1  0
 20 41  1  0
 21 42  1  0
M  END
>  <UniqueID>  (32) 
31

>  <SMILES>  (32) 
COc1ccc(COC[C@H]2CCN2Cc2ccco2)cc1

>  <Energy>  (32) 
153.74098389765587

>  <Genealogy>  (32) 
COc1ccc(COC[C@H]2CCN2Cc2ccco2)cc1 (chirality)
COc1ccc(COC[C@H]2CCN2Cc2ccco2)cc1 (3D coordinates assigned)
COc1ccc(COC[C@H]2CCN2Cc2ccco2)cc1 (nonaromatic ring conformer: 153.74098389765587 kcal/mol)

>  <smiles>  (32) 
COc1ccc(COCC2CCN2Cc2ccco2)cc1

>  <score_type>  (32) 
oracle

>  <origin>  (32) 
adg

>  <m_score__min__energy>  (32) 
-8.1300000000000008

>  <m_primary>  (32) 
energy

$$$$
34:0
     RDKit          3D

 54 58  0  0  0  0  0  0  0  0999 V2000
   -6.7130   23.7790  -30.1860 C   0  0  0  0  0  0  0  0  0  0  0  0
   -5.5550   24.2320  -30.9780 N   0  0  0  0  0  0  0  0  0  0  0  0
   -5.3710   25.6810  -30.7760 C   0  0  0  0  0  0  0  0  0  0  0  0
   -4.3220   23.5020  -30.5960 C   0  0  0  0  0  0  0  0  0  0  0  0
   -3.8280   22.5960  -31.7340 C   0  0  0  0  0  0  0  0  0  0  0  0
   -4.8970   22.2910  -32.6830 N   0  0  0  0  0  0  0  0  0  0  0  0
   -5.3450   20.9360  -32.8380 C   0  0  0  0  0  0  0  0  0  0  0  0
   -6.6830   20.5730  -32.6060 C   0  0  0  0  0  0  0  0  0  0  0  0
   -7.6300   21.5250  -32.1770 C   0  0  0  0  0  0  0  0  0  0  0  0
   -8.9680   21.1740  -32.0130 C   0  0  0  0  0  0  0  0  0  0  0  0
   -9.3840   19.8750  -32.2800 C   0  0  0  0  0  0  0  0  0  0  0  0
   -8.4590   18.9070  -32.6740 C   0  0  0  0  0  0  0  0  0  0  0  0
   -7.0820   19.2200  -32.8050 C   0  0  0  0  0  0  0  0  0  0  0  0
   -6.1400   18.2570  -33.1260 N   0  0  0  0  0  0  0  0  0  0  0  0
   -6.4860   16.8210  -33.0600 C   0  0  0  0  0  0  0  0  0  0  0  0
   -4.8580   18.6360  -33.4780 C   0  0  0  0  0  0  0  0  0  0  0  0
   -3.9610   17.7490  -34.0240 N   0  0  0  0  0  0  0  0  0  0  0  0
   -2.6840   18.1190  -34.3320 C   0  0  0  0  0  0  0  0  0  0  0  0
   -1.7810   17.1930  -34.8760 C   0  0  0  0  0  0  0  0  0  0  0  0
   -0.4780   17.5800  -35.1950 C   0  0  0  0  0  0  0  0  0  0  0  0
   -0.0550   18.8980  -34.9730 C   0  0  0  0  0  0  0  0  0  0  0  0
    1.2550   19.2850  -35.2980 C   0  0  0  0  0  0  0  0  0  0  0  0
    1.6750   20.5990  -35.0790 C   0  0  0  0  0  0  0  0  0  0  0  0
    0.7930   21.5360  -34.5350 C   0  0  0  0  0  0  0  0  0  0  0  0
   -0.5130   21.1680  -34.2090 C   0  0  0  0  0  0  0  0  0  0  0  0
   -0.9550   19.8470  -34.4240 C   0  0  0  0  0  0  0  0  0  0  0  0
   -2.2720   19.4480  -34.1080 C   0  0  0  0  0  0  0  0  0  0  0  0
   -3.1710   20.3320  -33.6060 N   0  0  0  0  0  0  0  0  0  0  0  0
   -4.4440   19.9720  -33.2970 C   0  0  0  0  0  0  0  0  0  0  0  0
   -6.4821   23.8693  -29.1143 H   0  0  0  0  0  0  0  0  0  0  0  0
   -7.5876   24.4013  -30.4264 H   0  0  0  0  0  0  0  0  0  0  0  0
   -6.9332   22.7284  -30.4264 H   0  0  0  0  0  0  0  0  0  0  0  0
   -5.3431   25.9004  -29.6985 H   0  0  0  0  0  0  0  0  0  0  0  0
   -4.4253   25.9986  -31.2394 H   0  0  0  0  0  0  0  0  0  0  0  0
   -6.2073   26.2249  -31.2394 H   0  0  0  0  0  0  0  0  0  0  0  0
   -3.5355   24.2317  -30.3531 H   0  0  0  0  0  0  0  0  0  0  0  0
   -4.5515   22.8690  -29.7261 H   0  0  0  0  0  0  0  0  0  0  0  0
   -3.0122   23.1058  -32.2674 H   0  0  0  0  0  0  0  0  0  0  0  0
   -3.4794   21.6502  -31.2935 H   0  0  0  0  0  0  0  0  0  0  0  0
   -5.6120   23.0340  -32.8390 H   0  0  0  0  0  0  0  0  0  0  0  0
   -7.3088   22.5564  -31.9695 H   0  0  0  0  0  0  0  0  0  0  0  0
   -9.6956   21.9252  -31.6720 H   0  0  0  0  0  0  0  0  0  0  0  0
  -10.4466   19.6088  -32.1804 H   0  0  0  0  0  0  0  0  0  0  0  0
   -8.8038   17.8843  -32.8865 H   0  0  0  0  0  0  0  0  0  0  0  0
   -6.5610   16.5099  -32.0076 H   0  0  0  0  0  0  0  0  0  0  0  0
   -7.4504   16.6528  -33.5617 H   0  0  0  0  0  0  0  0  0  0  0  0
   -5.7041   16.2320  -33.5617 H   0  0  0  0  0  0  0  0  0  0  0  0
   -4.2490   16.7770  -34.2670 H   0  0  0  0  0  0  0  0  0  0  0  0
   -2.1017   16.1556  -35.0522 H   0  0  0  0  0  0  0  0  0  0  0  0
    0.2209   16.8463  -35.6231 H   0  0  0  0  0  0  0  0  0  0  0  0
    1.9530   18.5508  -35.7266 H   0  0  0  0  0  0  0  0  0  0  0  0
    2.7024   20.8967  -35.3354 H   0  0  0  0  0  0  0  0  0  0  0  0
    1.1297   22.5689  -34.3628 H   0  0  0  0  0  0  0  0  0  0  0  0
   -1.2010   21.9126  -33.7821 H   0  0  0  0  0  0  0  0  0  0  0  0
  1  2  1  0
  2  3  1  0
  2  4  1  0
  4  5  1  0
  5  6  1  0
  6  7  1  0
  7  8  2  0
  8  9  1  0
  9 10  2  0
 10 11  1  0
 11 12  2  0
 12 13  1  0
 13 14  2  0
 14 15  1  0
 14 16  1  0
 16 17  2  0
 17 18  1  0
 18 19  2  0
 19 20  1  0
 20 21  2  0
 21 22  1  0
 22 23  2  0
 23 24  1  0
 24 25  2  0
 25 26  1  0
 26 27  2  0
 27 28  1  0
 28 29  2  0
 29  7  1  0
 13  8  1  0
 29 16  1  0
 27 18  1  0
 26 21  1  0
  1 30  1  0
  1 31  1  0
  1 32  1  0
  3 33  1  0
  3 34  1  0
  3 35  1  0
  4 36  1  0
  4 37  1  0
  5 38  1  0
  5 39  1  0
  6 40  1  0
  9 41  1  0
 10 42  1  0
 11 43  1  0
 12 44  1  0
 15 45  1  0
 15 46  1  0
 15 47  1  0
 17 48  1  0
 19 49  1  0
 20 50  1  0
 22 51  1  0
 23 52  1  0
 24 53  1  0
 25 54  1  0
M  CHG  2  14   1  17   1
M  END
>  <UniqueID>  (33) 
32

>  <SMILES>  (33) 
CN(C)CCNc1c2ccccc2[n+](C)c2[nH+]c3ccc4ccccc4c3nc12

>  <Energy>  (33) 
91.1968176517423

>  <Genealogy>  (33) 
CN(C)CCNc1c2ccccc2[n+](C)c2[nH+]c3ccc4ccccc4c3nc12 (protonated)
CN(C)CCNc1c2ccccc2[n+](C)c2[nH+]c3ccc4ccccc4c3nc12 (3D coordinates assigned)
CN(C)CCNc1c2ccccc2[n+](C)c2[nH+]c3ccc4ccccc4c3nc12 (optimized conformer: 91.1968176517423 kcal/mol)

>  <smiles>  (33) 
CN(C)CCNc1c2ccccc2[n+](C)c2nc3ccc4ccccc4c3nc12

>  <score_type>  (33) 
oracle

>  <origin>  (33) 
adg

>  <m_score__min__energy>  (33) 
-8.6999999999999993

>  <m_primary>  (33) 
energy

$$$$
35:0
     RDKit          3D

 45 47  0  0  0  0  0  0  0  0999 V2000
   -8.8960   18.6090  -31.5930 C   0  0  0  0  0  0  0  0  0  0  0  0
   -9.1210   20.0420  -32.0630 C   0  0  0  0  0  0  0  0  0  0  0  0
   -8.1220   20.4120  -33.0640 N   0  0  0  0  0  0  0  0  0  0  0  0
   -6.8220   20.8640  -32.6590 C   0  0  0  0  0  0  0  0  0  0  0  0
   -6.7600   22.0500  -31.9140 C   0  0  0  0  0  0  0  0  0  0  0  0
   -5.5340   22.6340  -31.5840 C   0  0  0  0  0  0  0  0  0  0  0  0
   -5.4920   23.8690  -30.8460 N   0  0  0  0  0  0  0  0  0  0  0  0
   -6.7460   24.5470  -30.4890 C   0  0  0  0  0  0  0  0  0  0  0  0
   -6.4850   25.6500  -29.4700 C   0  0  0  0  0  0  0  0  0  0  0  0
   -4.1970   24.4510  -30.4690 C   0  0  0  0  0  0  0  0  0  0  0  0
   -3.6710   23.7980  -29.1930 C   0  0  0  0  0  0  0  0  0  0  0  0
   -4.3540   22.0200  -32.0050 C   0  0  0  0  0  0  0  0  0  0  0  0
   -4.3960   20.8190  -32.7170 C   0  0  0  0  0  0  0  0  0  0  0  0
   -2.9500   20.1060  -33.1960 S   0  0  0  0  0  0  0  0  0  0  0  0
   -3.1900   18.6600  -34.0110 C   0  0  0  0  0  0  0  0  0  0  0  0
   -2.0920   17.9380  -34.4940 C   0  0  0  0  0  0  0  0  0  0  0  0
   -2.2900   16.7280  -35.1550 C   0  0  0  0  0  0  0  0  0  0  0  0
   -3.5820   16.2370  -35.3320 C   0  0  0  0  0  0  0  0  0  0  0  0
   -4.6820   16.9540  -34.8500 C   0  0  0  0  0  0  0  0  0  0  0  0
   -4.5120   18.1890  -34.1780 C   0  0  0  0  0  0  0  0  0  0  0  0
   -5.6580   18.8990  -33.6930 C   0  0  0  0  0  0  0  0  0  0  0  0
   -6.7780   18.3340  -33.8330 O   0  0  0  0  0  0  0  0  0  0  0  0
   -5.6220   20.1840  -33.0410 C   0  0  0  0  0  0  0  0  0  0  0  0
   -8.8915   18.5802  -30.4934 H   0  0  0  0  0  0  0  0  0  0  0  0
   -9.7044   17.9672  -31.9733 H   0  0  0  0  0  0  0  0  0  0  0  0
   -7.9298   18.2458  -31.9733 H   0  0  0  0  0  0  0  0  0  0  0  0
  -10.1250   20.1253  -32.5047 H   0  0  0  0  0  0  0  0  0  0  0  0
   -9.0304   20.7190  -31.2008 H   0  0  0  0  0  0  0  0  0  0  0  0
   -8.2060   19.9640  -34.0050 H   0  0  0  0  0  0  0  0  0  0  0  0
   -7.6931   22.5295  -31.5833 H   0  0  0  0  0  0  0  0  0  0  0  0
   -7.1896   24.9878  -31.3940 H   0  0  0  0  0  0  0  0  0  0  0  0
   -7.4352   23.8115  -30.0485 H   0  0  0  0  0  0  0  0  0  0  0  0
   -6.5819   25.2406  -28.4536 H   0  0  0  0  0  0  0  0  0  0  0  0
   -5.4684   26.0459  -29.6105 H   0  0  0  0  0  0  0  0  0  0  0  0
   -7.2164   26.4595  -29.6105 H   0  0  0  0  0  0  0  0  0  0  0  0
   -3.4757   24.2882  -31.2833 H   0  0  0  0  0  0  0  0  0  0  0  0
   -4.3286   25.5284  -30.2903 H   0  0  0  0  0  0  0  0  0  0  0  0
   -4.0884   24.3162  -28.3170 H   0  0  0  0  0  0  0  0  0  0  0  0
   -3.9723   22.7403  -29.1713 H   0  0  0  0  0  0  0  0  0  0  0  0
   -2.5734   23.8671  -29.1713 H   0  0  0  0  0  0  0  0  0  0  0  0
   -3.3840   22.4849  -31.7747 H   0  0  0  0  0  0  0  0  0  0  0  0
   -1.0728   18.3264  -34.3515 H   0  0  0  0  0  0  0  0  0  0  0  0
   -1.4280   16.1611  -35.5366 H   0  0  0  0  0  0  0  0  0  0  0  0
   -3.7376   15.2809  -35.8533 H   0  0  0  0  0  0  0  0  0  0  0  0
   -5.6956   16.5521  -34.9952 H   0  0  0  0  0  0  0  0  0  0  0  0
  1  2  1  0
  2  3  1  0
  3  4  1  0
  4  5  2  0
  5  6  1  0
  6  7  1  0
  7  8  1  0
  8  9  1  0
  7 10  1  0
 10 11  1  0
  6 12  2  0
 12 13  1  0
 13 14  1  0
 14 15  1  0
 15 16  2  0
 16 17  1  0
 17 18  2  0
 18 19  1  0
 19 20  2  0
 20 21  1  0
 21 22  2  0
 21 23  1  0
 23  4  1  0
 23 13  2  0
 20 15  1  0
  1 24  1  0
  1 25  1  0
  1 26  1  0
  2 27  1  0
  2 28  1  0
  3 29  1  0
  5 30  1  0
  8 31  1  0
  8 32  1  0
  9 33  1  0
  9 34  1  0
  9 35  1  0
 10 36  1  0
 10 37  1  0
 11 38  1  0
 11 39  1  0
 11 40  1  0
 12 41  1  0
 16 42  1  0
 17 43  1  0
 18 44  1  0
 19 45  1  0
M  END
>  <UniqueID>  (34) 
33

>  <SMILES>  (34) 
CCNc1cc(N(CC)CC)cc2sc3ccccc3c(=O)c12

>  <Energy>  (34) 
61.814477813685535

>  <Genealogy>  (34) 
CCNc1cc(N(CC)CC)cc2sc3ccccc3c(=O)c12 (3D coordinates assigned)
CCNc1cc(N(CC)CC)cc2sc3ccccc3c(=O)c12 (optimized conformer: 61.814477813685535 kcal/mol)

>  <smiles>  (34) 
CCNc1cc(N(CC)CC)cc2sc3ccccc3c(=O)c12

>  <score_type>  (34) 
oracle

>  <origin>  (34) 
adg

>  <m_score__min__energy>  (34) 
-7.8200000000000003

>  <m_primary>  (34) 
energy

$$$$
36:0
     RDKit          3D

 45 47  0  0  0  0  0  0  0  0999 V2000
   -6.1380   17.1510  -31.7320 C   0  0  0  0  0  0  0  0  0  0  0  0
   -7.3160   17.1080  -32.7010 C   0  0  0  0  0  0  0  0  0  0  0  0
   -6.8280   17.0000  -34.0870 N   0  0  0  0  0  0  0  0  0  0  0  0
   -5.6170   16.1640  -34.1970 C   0  0  0  0  0  0  0  0  0  0  0  0
   -4.4100   16.9320  -34.7780 C   0  0  0  0  0  0  0  0  0  0  0  0
   -4.1070   18.2390  -34.0270 C   0  0  0  0  0  0  0  0  0  0  0  0
   -4.9630   19.2980  -34.4590 O   0  0  0  0  0  0  0  0  0  0  0  0
   -5.7620   20.0920  -33.6240 C   0  0  0  0  0  0  0  0  0  0  0  0
   -5.1760   21.1520  -32.9870 N   0  0  0  0  0  0  0  0  0  0  0  0
   -5.8850   21.9740  -32.1630 C   0  0  0  0  0  0  0  0  0  0  0  0
   -5.2420   23.0620  -31.4950 N   0  0  0  0  0  0  0  0  0  0  0  0
   -5.8410   24.3930  -31.5930 C   0  0  0  0  0  0  0  0  0  0  0  0
   -5.2950   25.2930  -30.4800 C   0  0  0  0  0  0  0  0  0  0  0  0
   -3.8790   25.2700  -30.4670 O   0  0  0  0  0  0  0  0  0  0  0  0
   -3.4230   23.9710  -30.1300 C   0  0  0  0  0  0  0  0  0  0  0  0
   -3.8070   22.9630  -31.2190 C   0  0  0  0  0  0  0  0  0  0  0  0
   -7.2340   21.7110  -31.9800 C   0  0  0  0  0  0  0  0  0  0  0  0
   -8.3750   22.5050  -31.0370 S   0  0  0  0  0  0  0  0  0  0  0  0
   -9.6510   21.4730  -31.4530 C   0  0  0  0  0  0  0  0  0  0  0  0
   -9.1860   20.4970  -32.3360 C   0  0  0  0  0  0  0  0  0  0  0  0
   -7.8250   20.6430  -32.6200 C   0  0  0  0  0  0  0  0  0  0  0  0
   -7.0980   19.8370  -33.4390 N   0  0  0  0  0  0  0  0  0  0  0  0
   -6.5131   17.1373  -30.6980 H   0  0  0  0  0  0  0  0  0  0  0  0
   -5.4931   16.2758  -31.8997 H   0  0  0  0  0  0  0  0  0  0  0  0
   -5.5586   18.0709  -31.8997 H   0  0  0  0  0  0  0  0  0  0  0  0
   -7.9467   16.2373  -32.4685 H   0  0  0  0  0  0  0  0  0  0  0  0
   -7.9018   18.0332  -32.5967 H   0  0  0  0  0  0  0  0  0  0  0  0
   -6.6440   17.9610  -34.4580 H   0  0  0  0  0  0  0  0  0  0  0  0
   -5.3508   15.7975  -33.1946 H   0  0  0  0  0  0  0  0  0  0  0  0
   -5.8465   15.3379  -34.8861 H   0  0  0  0  0  0  0  0  0  0  0  0
   -3.5233   16.2833  -34.7231 H   0  0  0  0  0  0  0  0  0  0  0  0
   -4.6611   17.2007  -35.8147 H   0  0  0  0  0  0  0  0  0  0  0  0
   -4.2556   18.0755  -32.9494 H   0  0  0  0  0  0  0  0  0  0  0  0
   -3.0664   18.5266  -34.2379 H   0  0  0  0  0  0  0  0  0  0  0  0
   -5.5954   24.8325  -32.5710 H   0  0  0  0  0  0  0  0  0  0  0  0
   -6.9326   24.3078  -31.4875 H   0  0  0  0  0  0  0  0  0  0  0  0
   -5.6378   26.3245  -30.6489 H   0  0  0  0  0  0  0  0  0  0  0  0
   -5.6636   24.9219  -29.5123 H   0  0  0  0  0  0  0  0  0  0  0  0
   -2.3283   23.9887  -30.0241 H   0  0  0  0  0  0  0  0  0  0  0  0
   -3.8929   23.6655  -29.1835 H   0  0  0  0  0  0  0  0  0  0  0  0
   -3.2416   23.1822  -32.1367 H   0  0  0  0  0  0  0  0  0  0  0  0
   -3.5701   21.9453  -30.8752 H   0  0  0  0  0  0  0  0  0  0  0  0
  -10.6842   21.5582  -31.0852 H   0  0  0  0  0  0  0  0  0  0  0  0
   -9.8185   19.7033  -32.7601 H   0  0  0  0  0  0  0  0  0  0  0  0
   -7.5750   19.0410  -33.9170 H   0  0  0  0  0  0  0  0  0  0  0  0
  1  2  1  0
  2  3  1  0
  3  4  1  0
  4  5  1  0
  5  6  1  0
  6  7  1  0
  7  8  1  0
  8  9  2  0
  9 10  1  0
 10 11  1  0
 11 12  1  0
 12 13  1  0
 13 14  1  0
 14 15  1  0
 15 16  1  0
 10 17  2  0
 17 18  1  0
 18 19  1  0
 19 20  2  0
 20 21  1  0
 21 22  2  0
 22  8  1  0
 16 11  1  0
 21 17  1  0
  1 23  1  0
  1 24  1  0
  1 25  1  0
  2 26  1  0
  2 27  1  0
  3 28  1  0
  4 29  1  0
  4 30  1  0
  5 31  1  0
  5 32  1  0
  6 33  1  0
  6 34  1  0
 12 35  1  0
 12 36  1  0
 13 37  1  0
 13 38  1  0
 15 39  1  0
 15 40  1  0
 16 41  1  0
 16 42  1  0
 19 43  1  0
 20 44  1  0
 22 45  1  0
M  CHG  1  22   1
M  END
>  <UniqueID>  (35) 
34

>  <SMILES>  (35) 
CCNCCCOc1nc(N2CCOCC2)c2sccc2[nH+]1

>  <Energy>  (35) 
81.19278201393247

>  <Genealogy>  (35) 
CCNCCCOc1nc(N2CCOCC2)c2sccc2[nH+]1 (protonated)
CCNCCCOc1nc(N2CCOCC2)c2sccc2[nH+]1 (3D coordinates assigned)
CCNCCCOc1nc(N2CCOCC2)c2sccc2[nH+]1 (nonaromatic ring conformer: 81.19278201393247 kcal/mol)

>  <smiles>  (35) 
CCNCCCOc1nc(N2CCOCC2)c2sccc2n1

>  <score_type>  (35) 
oracle

>  <origin>  (35) 
adg

>  <m_score__min__energy>  (35) 
-7.4400000000000004

>  <m_primary>  (35) 
energy

$$$$
37:0
     RDKit          3D

 49 51  0  0  0  0  0  0  0  0999 V2000
   -2.4550   25.3300  -26.1380 C   0  0  0  0  0  0  0  0  0  0  0  0
   -1.3580   25.1370  -27.1970 C   0  0  0  0  0  0  0  0  0  0  0  0
   -1.8660   24.6520  -28.5020 N   0  0  0  0  0  0  0  0  0  0  0  0
   -3.1740   23.9660  -28.3970 C   0  0  0  0  0  0  0  0  0  0  0  0
   -4.1810   24.5520  -29.3880 C   0  0  0  0  0  0  0  0  0  0  0  0
   -3.5170   25.1460  -30.4680 O   0  0  0  0  0  0  0  0  0  0  0  0
   -0.8470   23.9000  -29.2740 C   0  0  0  0  0  0  0  0  0  0  0  0
   -1.4140   22.5340  -29.6650 C   0  0  0  0  0  0  0  0  0  0  0  0
   -2.0220   22.5900  -30.9570 O   0  0  0  0  0  0  0  0  0  0  0  0
   -3.2830   22.0730  -31.2940 C   0  0  0  0  0  0  0  0  0  0  0  0
   -4.2500   22.8170  -31.9960 C   0  0  0  0  0  0  0  0  0  0  0  0
   -5.4890   22.2500  -32.3060 C   0  0  0  0  0  0  0  0  0  0  0  0
   -5.7790   20.9290  -31.9320 C   0  0  0  0  0  0  0  0  0  0  0  0
   -7.0960   20.3320  -32.2600 C   0  0  0  0  0  0  0  0  0  0  0  0
   -8.2630   21.0520  -31.9670 C   0  0  0  0  0  0  0  0  0  0  0  0
   -9.4830   20.4910  -32.1620 N   0  0  0  0  0  0  0  0  0  0  0  0
   -9.6010   19.2300  -32.6460 C   0  0  0  0  0  0  0  0  0  0  0  0
   -8.4920   18.5160  -32.9600 N   0  0  0  0  0  0  0  0  0  0  0  0
   -7.2420   19.0290  -32.7960 C   0  0  0  0  0  0  0  0  0  0  0  0
   -6.0920   18.2000  -33.2220 C   0  0  0  0  0  0  0  0  0  0  0  0
   -5.3510   18.4200  -34.3980 C   0  0  0  0  0  0  0  0  0  0  0  0
   -4.3430   17.4900  -34.6030 C   0  0  0  0  0  0  0  0  0  0  0  0
   -4.3870   16.3850  -33.3390 S   0  0  0  0  0  0  0  0  0  0  0  0
   -5.6810   17.0730  -32.5170 C   0  0  0  0  0  0  0  0  0  0  0  0
   -4.8170   20.1900  -31.2250 C   0  0  0  0  0  0  0  0  0  0  0  0
   -3.5780   20.7580  -30.9170 C   0  0  0  0  0  0  0  0  0  0  0  0
   -2.0129   25.2522  -25.1337 H   0  0  0  0  0  0  0  0  0  0  0  0
   -2.9130   26.3225  -26.2612 H   0  0  0  0  0  0  0  0  0  0  0  0
   -3.2242   24.5534  -26.2612 H   0  0  0  0  0  0  0  0  0  0  0  0
   -0.8566   26.1029  -27.3572 H   0  0  0  0  0  0  0  0  0  0  0  0
   -0.6735   24.3663  -26.8129 H   0  0  0  0  0  0  0  0  0  0  0  0
   -3.0375   22.8961  -28.6131 H   0  0  0  0  0  0  0  0  0  0  0  0
   -3.5628   24.1066  -27.3777 H   0  0  0  0  0  0  0  0  0  0  0  0
   -4.8317   23.7475  -29.7612 H   0  0  0  0  0  0  0  0  0  0  0  0
   -4.7812   25.3176  -28.8746 H   0  0  0  0  0  0  0  0  0  0  0  0
   -2.6690   24.6420  -30.5810 H   0  0  0  0  0  0  0  0  0  0  0  0
   -0.5853   24.4627  -30.1822 H   0  0  0  0  0  0  0  0  0  0  0  0
    0.0537   23.7620  -28.6578 H   0  0  0  0  0  0  0  0  0  0  0  0
   -0.5985   21.7959  -29.6815 H   0  0  0  0  0  0  0  0  0  0  0  0
   -2.1769   22.2438  -28.9276 H   0  0  0  0  0  0  0  0  0  0  0  0
   -4.0292   23.8502  -32.3022 H   0  0  0  0  0  0  0  0  0  0  0  0
   -6.2416   22.8428  -32.8465 H   0  0  0  0  0  0  0  0  0  0  0  0
   -8.1890   22.0778  -31.5767 H   0  0  0  0  0  0  0  0  0  0  0  0
  -10.5977   18.7857  -32.7841 H   0  0  0  0  0  0  0  0  0  0  0  0
   -5.5524   19.2514  -35.0895 H   0  0  0  0  0  0  0  0  0  0  0  0
   -3.6373   17.4781  -35.4467 H   0  0  0  0  0  0  0  0  0  0  0  0
   -6.1259   16.6976  -31.5836 H   0  0  0  0  0  0  0  0  0  0  0  0
   -5.0397   19.1592  -30.9121 H   0  0  0  0  0  0  0  0  0  0  0  0
   -2.8274   20.1658  -30.3730 H   0  0  0  0  0  0  0  0  0  0  0  0
  1  2  1  0
  2  3  1  0
  3  4  1  0
  4  5  1  0
  5  6  1  0
  3  7  1  0
  7  8  1  0
  8  9  1  0
  9 10  1  0
 10 11  2  0
 11 12  1  0
 12 13  2  0
 13 14  1  0
 14 15  2  0
 15 16  1  0
 16 17  2  0
 17 18  1  0
 18 19  2  0
 19 20  1  0
 20 21  1  0
 21 22  2  0
 22 23  1  0
 23 24  1  0
 13 25  1  0
 25 26  2  0
 26 10  1  0
 19 14  1  0
 24 20  2  0
  1 27  1  0
  1 28  1  0
  1 29  1  0
  2 30  1  0
  2 31  1  0
  4 32  1  0
  4 33  1  0
  5 34  1  0
  5 35  1  0
  6 36  1  0
  7 37  1  0
  7 38  1  0
  8 39  1  0
  8 40  1  0
 11 41  1  0
 12 42  1  0
 15 43  1  0
 17 44  1  0
 21 45  1  0
 22 46  1  0
 24 47  1  0
 25 48  1  0
 26 49  1  0
M  END
>  <UniqueID>  (36) 
35

>  <SMILES>  (36) 
CCN(CCO)CCOc1ccc(-c2cncnc2-c2ccsc2)cc1

>  <Energy>  (36) 
90.06299621143636

>  <Genealogy>  (36) 
CCN(CCO)CCOc1ccc(-c2cncnc2-c2ccsc2)cc1 (3D coordinates assigned)
CCN(CCO)CCOc1ccc(-c2cncnc2-c2ccsc2)cc1 (optimized conformer: 90.06299621143636 kcal/mol)

>  <smiles>  (36) 
CCN(CCO)CCOc1ccc(-c2cncnc2-c2ccsc2)cc1

>  <score_type>  (36) 
oracle

>  <origin>  (36) 
adg

>  <m_score__min__energy>  (36) 
-8.0500000000000007

>  <m_primary>  (36) 
energy

$$$$
