1:0
     RDKit          3D

 39 42  0  0  0  0  0  0  0  0999 V2000
   -7.7720   21.8270  -31.7580 C   0  0  0  0  0  0  0  0  0  0  0  0
   -6.8330   20.9370  -32.4720 C   0  0  0  0  0  0  0  0  0  0  0  0
   -7.1820   19.8610  -33.2210 N   0  0  0  0  0  0  0  0  0  0  0  0
   -6.1190   19.2840  -33.7300 N   0  0  0  0  0  0  0  0  0  0  0  0
   -6.1130   18.1050  -34.5820 C   0  0  0  0  0  0  0  0  0  0  0  0
   -5.0450   19.9820  -33.3180 C   0  0  0  0  0  0  0  0  0  0  0  0
   -3.7090   19.8420  -33.5400 N   0  0  0  0  0  0  0  0  0  0  0  0
   -2.8310   20.7260  -32.9840 C   0  0  0  0  0  0  0  0  0  0  0  0
   -1.3930   20.4830  -33.2910 C   0  0  0  0  0  0  0  0  0  0  0  0
   -0.4580   21.2870  -32.4170 C   0  0  0  0  0  0  0  0  0  0  0  0
   -0.5280   21.5380  -33.8650 C   0  0  0  0  0  0  0  0  0  0  0  0
   -3.2670   21.7300  -32.2180 N   0  0  0  0  0  0  0  0  0  0  0  0
   -4.5920   21.9210  -31.9600 C   0  0  0  0  0  0  0  0  0  0  0  0
   -4.9450   23.0000  -31.1260 N   0  0  0  0  0  0  0  0  0  0  0  0
   -4.5500   23.0890  -29.7110 C   0  0  0  0  0  0  0  0  0  0  0  0
   -3.5890   24.2610  -29.5740 C   0  0  0  0  0  0  0  0  0  0  0  0
   -3.8960   25.2700  -30.4820 O   0  0  0  0  0  0  0  0  0  0  0  0
   -5.2500   25.3160  -30.7840 C   0  0  0  0  0  0  0  0  0  0  0  0
   -5.7380   24.1450  -31.6010 C   0  0  0  0  0  0  0  0  0  0  0  0
   -5.4690   21.0290  -32.5240 C   0  0  0  0  0  0  0  0  0  0  0  0
   -7.6413   21.7031  -30.6728 H   0  0  0  0  0  0  0  0  0  0  0  0
   -7.5690   22.8721  -32.0348 H   0  0  0  0  0  0  0  0  0  0  0  0
   -8.8047   21.5683  -32.0348 H   0  0  0  0  0  0  0  0  0  0  0  0
   -6.1084   17.2004  -33.9562 H   0  0  0  0  0  0  0  0  0  0  0  0
   -7.0112   18.1070  -35.2171 H   0  0  0  0  0  0  0  0  0  0  0  0
   -5.2149   18.1161  -35.2171 H   0  0  0  0  0  0  0  0  0  0  0  0
   -1.5698   19.4379  -33.5853 H   0  0  0  0  0  0  0  0  0  0  0  0
   -0.8630   22.0252  -31.7092 H   0  0  0  0  0  0  0  0  0  0  0  0
    0.3445   21.0467  -31.7041 H   0  0  0  0  0  0  0  0  0  0  0  0
   -0.9782   22.4706  -34.2358 H   0  0  0  0  0  0  0  0  0  0  0  0
    0.2140   21.5659  -34.6766 H   0  0  0  0  0  0  0  0  0  0  0  0
   -5.4378   23.2567  -29.0836 H   0  0  0  0  0  0  0  0  0  0  0  0
   -4.0690   22.1550  -29.3849 H   0  0  0  0  0  0  0  0  0  0  0  0
   -3.6572   24.6639  -28.5527 H   0  0  0  0  0  0  0  0  0  0  0  0
   -2.5698   23.9029  -29.7813 H   0  0  0  0  0  0  0  0  0  0  0  0
   -5.8142   25.3378  -29.8399 H   0  0  0  0  0  0  0  0  0  0  0  0
   -5.4090   26.2173  -31.3942 H   0  0  0  0  0  0  0  0  0  0  0  0
   -6.8105   23.9720  -31.4284 H   0  0  0  0  0  0  0  0  0  0  0  0
   -5.6187   24.3136  -32.6814 H   0  0  0  0  0  0  0  0  0  0  0  0
  1  2  1  0
  2  3  2  0
  3  4  1  0
  4  5  1  0
  4  6  1  0
  6  7  2  0
  7  8  1  0
  8  9  1  0
  9 10  1  0
 10 11  1  0
  8 12  2  0
 12 13  1  0
 13 14  1  0
 14 15  1  0
 15 16  1  0
 16 17  1  0
 17 18  1  0
 18 19  1  0
 13 20  2  0
 20  2  1  0
 20  6  1  0
 11  9  1  0
 19 14  1  0
  1 21  1  0
  1 22  1  0
  1 23  1  0
  5 24  1  0
  5 25  1  0
  5 26  1  0
  9 27  1  0
 10 28  1  0
 10 29  1  0
 11 30  1  0
 11 31  1  0
 15 32  1  0
 15 33  1  0
 16 34  1  0
 16 35  1  0
 18 36  1  0
 18 37  1  0
 19 38  1  0
 19 39  1  0
M  END
>  <smiles>  (1) 
Cc1nn(C)c2nc(C3CC3)nc(N3CCOCC3)c12

>  <score_type>  (1) 
oracle

>  <origin>  (1) 
adg

>  <m_score__min__energy>  (1) 
-7.6500000000000004

>  <m_primary>  (1) 
energy

$$$$
2:0
     RDKit          3D

 60 62  0  0  0  0  0  0  0  0999 V2000
   -0.8820   26.8300  -23.8870 C   0  0  0  0  0  0  0  0  0  0  0  0
   -1.5470   26.5530  -25.1900 C   0  0  0  0  0  0  0  0  0  0  0  0
   -1.7700   25.2980  -25.5770 O   0  0  0  0  0  0  0  0  0  0  0  0
   -2.2830   24.9100  -26.7490 C   0  0  0  0  0  0  0  0  0  0  0  0
   -1.5970   25.4110  -27.9620 C   0  0  0  0  0  0  0  0  0  0  0  0
   -2.3750   25.2910  -29.0940 O   0  0  0  0  0  0  0  0  0  0  0  0
   -3.4180   24.4320  -29.0510 C   0  0  0  0  0  0  0  0  0  0  0  0
   -4.4440   24.5930  -30.1540 C   0  0  0  0  0  0  0  0  0  0  0  0
   -4.2620   23.8040  -31.2370 O   0  0  0  0  0  0  0  0  0  0  0  0
   -4.0220   22.4710  -31.0370 C   0  0  0  0  0  0  0  0  0  0  0  0
   -3.5050   21.9330  -32.3710 C   0  0  0  0  0  0  0  0  0  0  0  0
   -4.5900   21.6200  -33.2760 N   0  0  0  0  0  0  0  0  0  0  0  0
   -5.6690   20.7720  -32.9750 C   0  0  0  0  0  0  0  0  0  0  0  0
   -6.8390   21.3700  -32.4950 C   0  0  0  0  0  0  0  0  0  0  0  0
   -6.8840   22.7410  -32.3490 C   0  0  0  0  0  0  0  0  0  0  0  0
   -8.0240   23.3730  -31.8780 C   0  0  0  0  0  0  0  0  0  0  0  0
   -9.0920   22.5590  -31.5700 C   0  0  0  0  0  0  0  0  0  0  0  0
   -9.0700   21.1860  -31.7080 C   0  0  0  0  0  0  0  0  0  0  0  0
   -7.9350   20.5640  -32.1750 C   0  0  0  0  0  0  0  0  0  0  0  0
   -7.9150   19.2330  -32.3110 N   0  0  0  0  0  0  0  0  0  0  0  0
   -9.0020   18.3450  -32.0010 C   0  0  0  0  0  0  0  0  0  0  0  0
   -6.7740   18.6460  -32.7800 C   0  0  0  0  0  0  0  0  0  0  0  0
   -6.7130   17.2610  -32.9410 C   0  0  0  0  0  0  0  0  0  0  0  0
   -5.5830   16.6260  -33.4190 C   0  0  0  0  0  0  0  0  0  0  0  0
   -4.5070   17.4240  -33.7330 C   0  0  0  0  0  0  0  0  0  0  0  0
   -4.4950   18.7910  -33.5990 C   0  0  0  0  0  0  0  0  0  0  0  0
   -3.3790   19.5440  -33.9340 O   0  0  0  0  0  0  0  0  0  0  0  0
   -2.1140   18.9170  -33.8630 C   0  0  0  0  0  0  0  0  0  0  0  0
   -5.6570   19.4000  -33.1110 C   0  0  0  0  0  0  0  0  0  0  0  0
   -1.5561   26.5492  -23.0643 H   0  0  0  0  0  0  0  0  0  0  0  0
    0.0460   26.2436  -23.8170 H   0  0  0  0  0  0  0  0  0  0  0  0
   -0.6447   27.9018  -23.8170 H   0  0  0  0  0  0  0  0  0  0  0  0
   -2.5264   27.0527  -25.1576 H   0  0  0  0  0  0  0  0  0  0  0  0
   -0.8142   26.9149  -25.9263 H   0  0  0  0  0  0  0  0  0  0  0  0
   -2.2572   23.8107  -26.7790 H   0  0  0  0  0  0  0  0  0  0  0  0
   -3.2945   25.3409  -26.7842 H   0  0  0  0  0  0  0  0  0  0  0  0
   -1.3494   26.4726  -27.8146 H   0  0  0  0  0  0  0  0  0  0  0  0
   -0.6927   24.8027  -28.1109 H   0  0  0  0  0  0  0  0  0  0  0  0
   -3.0169   23.4094  -29.1084 H   0  0  0  0  0  0  0  0  0  0  0  0
   -3.9485   24.6493  -28.1122 H   0  0  0  0  0  0  0  0  0  0  0  0
   -5.4341   24.3662  -29.7318 H   0  0  0  0  0  0  0  0  0  0  0  0
   -4.3420   25.6277  -30.5131 H   0  0  0  0  0  0  0  0  0  0  0  0
   -3.2662   22.3323  -30.2499 H   0  0  0  0  0  0  0  0  0  0  0  0
   -4.9301   21.9416  -30.7130 H   0  0  0  0  0  0  0  0  0  0  0  0
   -2.8600   22.6928  -32.8364 H   0  0  0  0  0  0  0  0  0  0  0  0
   -2.9435   21.0078  -32.1743 H   0  0  0  0  0  0  0  0  0  0  0  0
   -4.5680   22.0590  -34.2240 H   0  0  0  0  0  0  0  0  0  0  0  0
   -6.0008   23.3423  -32.6106 H   0  0  0  0  0  0  0  0  0  0  0  0
   -8.0734   24.4652  -31.7567 H   0  0  0  0  0  0  0  0  0  0  0  0
  -10.0125   23.0291  -31.1935 H   0  0  0  0  0  0  0  0  0  0  0  0
   -9.9570   20.5908  -31.4455 H   0  0  0  0  0  0  0  0  0  0  0  0
   -9.1061   18.2600  -30.9092 H   0  0  0  0  0  0  0  0  0  0  0  0
   -9.9341   18.7433  -32.4283 H   0  0  0  0  0  0  0  0  0  0  0  0
   -8.7977   17.3522  -32.4283 H   0  0  0  0  0  0  0  0  0  0  0  0
   -7.5931   16.6554  -32.6788 H   0  0  0  0  0  0  0  0  0  0  0  0
   -5.5453   15.5336  -33.5428 H   0  0  0  0  0  0  0  0  0  0  0  0
   -3.5984   16.9361  -34.1158 H   0  0  0  0  0  0  0  0  0  0  0  0
   -1.8326   18.7775  -32.8088 H   0  0  0  0  0  0  0  0  0  0  0  0
   -2.1614   17.9381  -34.3625 H   0  0  0  0  0  0  0  0  0  0  0  0
   -1.3637   19.5475  -34.3625 H   0  0  0  0  0  0  0  0  0  0  0  0
  1  2  1  0
  2  3  1  0
  3  4  1  0
  4  5  1  0
  5  6  1  0
  6  7  1  0
  7  8  1  0
  8  9  1  0
  9 10  1  0
 10 11  1  0
 11 12  1  0
 12 13  1  0
 13 14  2  0
 14 15  1  0
 15 16  2  0
 16 17  1  0
 17 18  2  0
 18 19  1  0
 19 20  2  0
 20 21  1  0
 20 22  1  0
 22 23  2  0
 23 24  1  0
 24 25  2  0
 25 26  1  0
 26 27  1  0
 27 28  1  0
 26 29  2  0
 29 13  1  0
 19 14  1  0
 29 22  1  0
  1 30  1  0
  1 31  1  0
  1 32  1  0
  2 33  1  0
  2 34  1  0
  4 35  1  0
  4 36  1  0
  5 37  1  0
  5 38  1  0
  7 39  1  0
  7 40  1  0
  8 41  1  0
  8 42  1  0
 10 43  1  0
 10 44  1  0
 11 45  1  0
 11 46  1  0
 12 47  1  0
 15 48  1  0
 16 49  1  0
 17 50  1  0
 18 51  1  0
 21 52  1  0
 21 53  1  0
 21 54  1  0
 23 55  1  0
 24 56  1  0
 25 57  1  0
 28 58  1  0
 28 59  1  0
 28 60  1  0
M  CHG  1  20   1
M  END
>  <smiles>  (2) 
CCOCCOCCOCCNc1c2ccccc2[n+](C)c2cccc(OC)c12

>  <score_type>  (2) 
oracle

>  <origin>  (2) 
adg

>  <m_score__min__energy>  (2) 
-8.4000000000000004

>  <m_primary>  (2) 
energy

$$$$
3:0
     RDKit          3D

 64 66  0  0  0  0  0  0  0  0999 V2000
   -6.2750   25.5930  -29.6100 C   0  0  0  0  0  0  0  0  0  0  0  0
   -5.4310   25.6440  -30.8660 C   0  0  0  0  0  0  0  0  0  0  0  0
   -4.3880   24.7360  -30.7370 O   0  0  0  0  0  0  0  0  0  0  0  0
   -4.5270   23.9650  -29.5740 C   0  0  0  0  0  0  0  0  0  0  0  0
   -3.4760   24.4450  -28.6230 C   0  0  0  0  0  0  0  0  0  0  0  0
   -2.3590   24.9970  -29.2860 O   0  0  0  0  0  0  0  0  0  0  0  0
   -1.2450   24.5650  -28.5920 C   0  0  0  0  0  0  0  0  0  0  0  0
   -0.4430   23.5090  -29.3190 C   0  0  0  0  0  0  0  0  0  0  0  0
   -1.2710   22.3810  -29.8080 C   0  0  0  0  0  0  0  0  0  0  0  0
   -2.1550   22.6320  -30.8690 N   0  0  0  0  0  0  0  0  0  0  0  0
   -2.9290   21.5820  -31.4030 C   0  0  0  0  0  0  0  0  0  0  0  0
   -2.9700   21.5790  -32.9580 C   0  0  0  0  0  0  0  0  0  0  0  0
   -4.3170   21.4390  -33.4120 N   0  0  0  0  0  0  0  0  0  0  0  0
   -5.3870   20.6170  -33.0870 C   0  0  0  0  0  0  0  0  0  0  0  0
   -6.4810   21.2240  -32.4050 C   0  0  0  0  0  0  0  0  0  0  0  0
   -7.5880   20.5060  -32.0310 C   0  0  0  0  0  0  0  0  0  0  0  0
   -7.6540   19.1690  -32.3180 N   0  0  0  0  0  0  0  0  0  0  0  0
   -8.8220   18.3790  -31.9710 C   0  0  0  0  0  0  0  0  0  0  0  0
   -6.6610   18.5440  -32.9550 C   0  0  0  0  0  0  0  0  0  0  0  0
   -6.7680   17.1970  -33.2190 C   0  0  0  0  0  0  0  0  0  0  0  0
   -5.7540   16.4940  -33.8820 C   0  0  0  0  0  0  0  0  0  0  0  0
   -4.6580   17.2380  -34.2440 C   0  0  0  0  0  0  0  0  0  0  0  0
   -4.5570   18.5930  -33.9740 C   0  0  0  0  0  0  0  0  0  0  0  0
   -5.5410   19.2910  -33.3280 C   0  0  0  0  0  0  0  0  0  0  0  0
   -8.7500   21.0430  -31.2990 C   0  0  0  0  0  0  0  0  0  0  0  0
   -8.3500   22.3130  -30.5970 C   0  0  0  0  0  0  0  0  0  0  0  0
   -7.6450   23.2550  -31.5120 C   0  0  0  0  0  0  0  0  0  0  0  0
   -6.4120   22.6840  -32.1180 C   0  0  0  0  0  0  0  0  0  0  0  0
   -5.6206   25.6325  -28.7267 H   0  0  0  0  0  0  0  0  0  0  0  0
   -6.9629   26.4512  -29.5954 H   0  0  0  0  0  0  0  0  0  0  0  0
   -6.8546   24.6582  -29.5954 H   0  0  0  0  0  0  0  0  0  0  0  0
   -6.0474   25.3787  -31.7376 H   0  0  0  0  0  0  0  0  0  0  0  0
   -5.0302   26.6585  -31.0081 H   0  0  0  0  0  0  0  0  0  0  0  0
   -5.5275   24.1080  -29.1397 H   0  0  0  0  0  0  0  0  0  0  0  0
   -4.4112   22.8925  -29.7894 H   0  0  0  0  0  0  0  0  0  0  0  0
   -3.9151   25.2145  -27.9710 H   0  0  0  0  0  0  0  0  0  0  0  0
   -3.1264   23.5768  -28.0450 H   0  0  0  0  0  0  0  0  0  0  0  0
   -0.5924   25.4316  -28.4100 H   0  0  0  0  0  0  0  0  0  0  0  0
   -1.6068   24.1065  -27.6599 H   0  0  0  0  0  0  0  0  0  0  0  0
    0.0527   23.9785  -30.1815 H   0  0  0  0  0  0  0  0  0  0  0  0
    0.2808   23.0961  -28.6010 H   0  0  0  0  0  0  0  0  0  0  0  0
   -0.5838   21.5863  -30.1340 H   0  0  0  0  0  0  0  0  0  0  0  0
   -1.9217   22.1254  -28.9587 H   0  0  0  0  0  0  0  0  0  0  0  0
   -2.5810   23.5610  -30.8960 H   0  0  0  0  0  0  0  0  0  0  0  0
   -2.5035   20.6263  -31.0628 H   0  0  0  0  0  0  0  0  0  0  0  0
   -3.9608   21.7247  -31.0495 H   0  0  0  0  0  0  0  0  0  0  0  0
   -2.5553   22.5255  -33.3349 H   0  0  0  0  0  0  0  0  0  0  0  0
   -2.3735   20.7342  -33.3328 H   0  0  0  0  0  0  0  0  0  0  0  0
   -4.5280   22.1640  -34.1940 H   0  0  0  0  0  0  0  0  0  0  0  0
   -8.9116   18.3184  -30.8763 H   0  0  0  0  0  0  0  0  0  0  0  0
   -9.7227   18.8541  -32.3869 H   0  0  0  0  0  0  0  0  0  0  0  0
   -8.7164   17.3661  -32.3869 H   0  0  0  0  0  0  0  0  0  0  0  0
   -7.6732   16.6590  -32.9010 H   0  0  0  0  0  0  0  0  0  0  0  0
   -5.8305   15.4182  -34.0982 H   0  0  0  0  0  0  0  0  0  0  0  0
   -3.8293   16.7394  -34.7680 H   0  0  0  0  0  0  0  0  0  0  0  0
   -3.6503   19.1289  -34.2913 H   0  0  0  0  0  0  0  0  0  0  0  0
   -9.5647   21.2551  -32.0070 H   0  0  0  0  0  0  0  0  0  0  0  0
   -9.0938   20.3049  -30.5594 H   0  0  0  0  0  0  0  0  0  0  0  0
   -9.2541   22.8044  -30.2082 H   0  0  0  0  0  0  0  0  0  0  0  0
   -7.6604   22.0493  -29.7815 H   0  0  0  0  0  0  0  0  0  0  0  0
   -8.3342   23.5340  -32.3227 H   0  0  0  0  0  0  0  0  0  0  0  0
   -7.3371   24.1218  -30.9088 H   0  0  0  0  0  0  0  0  0  0  0  0
   -6.2190   23.2109  -33.0641 H   0  0  0  0  0  0  0  0  0  0  0  0
   -5.6096   22.8186  -31.3777 H   0  0  0  0  0  0  0  0  0  0  0  0
  1  2  1  0
  2  3  1  0
  3  4  1  0
  4  5  1  0
  5  6  1  0
  6  7  1  0
  7  8  1  0
  8  9  1  0
  9 10  1  0
 10 11  1  0
 11 12  1  0
 12 13  1  0
 13 14  1  0
 14 15  2  0
 15 16  1  0
 16 17  2  0
 17 18  1  0
 17 19  1  0
 19 20  2  0
 20 21  1  0
 21 22  2  0
 22 23  1  0
 23 24  2  0
 16 25  1  0
 25 26  1  0
 26 27  1  0
 27 28  1  0
 24 14  1  0
 28 15  1  0
 24 19  1  0
  1 29  1  0
  1 30  1  0
  1 31  1  0
  2 32  1  0
  2 33  1  0
  4 34  1  0
  4 35  1  0
  5 36  1  0
  5 37  1  0
  7 38  1  0
  7 39  1  0
  8 40  1  0
  8 41  1  0
  9 42  1  0
  9 43  1  0
 10 44  1  0
 11 45  1  0
 11 46  1  0
 12 47  1  0
 12 48  1  0
 13 49  1  0
 18 50  1  0
 18 51  1  0
 18 52  1  0
 20 53  1  0
 21 54  1  0
 22 55  1  0
 23 56  1  0
 25 57  1  0
 25 58  1  0
 26 59  1  0
 26 60  1  0
 27 61  1  0
 27 62  1  0
 28 63  1  0
 28 64  1  0
M  CHG  1  17   1
M  END
>  <smiles>  (3) 
CCOCCOCCCNCCNc1c2c([n+](C)c3ccccc13)CCCC2

>  <score_type>  (3) 
oracle

>  <origin>  (3) 
adg

>  <m_score__min__energy>  (3) 
-9.4700000000000006

>  <m_primary>  (3) 
energy

$$$$
4:0
     RDKit          3D

 58 60  0  0  0  0  0  0  0  0999 V2000
   -3.2840   18.9230  -26.2830 C   0  0  0  0  0  0  0  0  0  0  0  0
   -1.9810   19.0430  -27.0020 C   0  0  0  0  0  0  0  0  0  0  0  0
   -1.8890   20.1070  -27.8640 O   0  0  0  0  0  0  0  0  0  0  0  0
   -2.7130   21.1680  -27.5820 C   0  0  0  0  0  0  0  0  0  0  0  0
   -3.4610   21.6920  -28.7890 C   0  0  0  0  0  0  0  0  0  0  0  0
   -4.0340   22.9360  -28.4630 O   0  0  0  0  0  0  0  0  0  0  0  0
   -3.0800   23.9030  -28.2540 C   0  0  0  0  0  0  0  0  0  0  0  0
   -2.4920   24.4420  -29.5470 C   0  0  0  0  0  0  0  0  0  0  0  0
   -3.4750   24.7420  -30.4720 O   0  0  0  0  0  0  0  0  0  0  0  0
   -4.5430   25.2880  -29.9020 N   0  0  0  0  0  0  0  0  0  0  0  0
   -5.6250   25.6320  -30.7650 C   0  0  0  0  0  0  0  0  0  0  0  0
   -6.1070   24.4340  -31.5940 C   0  0  0  0  0  0  0  0  0  0  0  0
   -5.5270   23.2390  -31.0620 N   0  0  0  0  0  0  0  0  0  0  0  0
   -5.6460   22.0220  -31.7580 C   0  0  0  0  0  0  0  0  0  0  0  0
   -4.5720   21.3560  -32.3380 C   0  0  0  0  0  0  0  0  0  0  0  0
   -3.3400   21.9700  -32.1940 C   0  0  0  0  0  0  0  0  0  0  0  0
   -2.2220   21.3780  -32.7430 C   0  0  0  0  0  0  0  0  0  0  0  0
   -2.3500   20.1890  -33.4230 C   0  0  0  0  0  0  0  0  0  0  0  0
   -3.6000   19.5970  -33.5490 C   0  0  0  0  0  0  0  0  0  0  0  0
   -4.7440   20.1640  -33.0090 C   0  0  0  0  0  0  0  0  0  0  0  0
   -5.9660   19.5730  -33.1450 N   0  0  0  0  0  0  0  0  0  0  0  0
   -6.1020   18.3270  -33.8360 C   0  0  0  0  0  0  0  0  0  0  0  0
   -7.0150   20.2260  -32.5810 C   0  0  0  0  0  0  0  0  0  0  0  0
   -8.2910   19.7100  -32.6730 C   0  0  0  0  0  0  0  0  0  0  0  0
   -9.3720   20.3660  -32.1070 C   0  0  0  0  0  0  0  0  0  0  0  0
   -9.2290   21.5490  -31.4340 C   0  0  0  0  0  0  0  0  0  0  0  0
   -7.9600   22.0760  -31.3340 C   0  0  0  0  0  0  0  0  0  0  0  0
   -6.8770   21.4180  -31.9020 C   0  0  0  0  0  0  0  0  0  0  0  0
   -3.1067   18.9393  -25.1975 H   0  0  0  0  0  0  0  0  0  0  0  0
   -3.9350   19.7650  -26.5609 H   0  0  0  0  0  0  0  0  0  0  0  0
   -3.7703   17.9763  -26.5609 H   0  0  0  0  0  0  0  0  0  0  0  0
   -1.1845   19.1435  -26.2500 H   0  0  0  0  0  0  0  0  0  0  0  0
   -1.8871   18.1380  -27.6203 H   0  0  0  0  0  0  0  0  0  0  0  0
   -3.4484   20.8468  -26.8297 H   0  0  0  0  0  0  0  0  0  0  0  0
   -2.0731   21.9858  -27.2191 H   0  0  0  0  0  0  0  0  0  0  0  0
   -2.7640   21.8153  -29.6310 H   0  0  0  0  0  0  0  0  0  0  0  0
   -4.2496   20.9814  -29.0773 H   0  0  0  0  0  0  0  0  0  0  0  0
   -3.5399   24.7367  -27.7031 H   0  0  0  0  0  0  0  0  0  0  0  0
   -2.2596   23.4403  -27.6857 H   0  0  0  0  0  0  0  0  0  0  0  0
   -1.9212   25.3557  -29.3250 H   0  0  0  0  0  0  0  0  0  0  0  0
   -1.8429   23.6653  -29.9775 H   0  0  0  0  0  0  0  0  0  0  0  0
   -4.7930   24.9330  -28.9710 H   0  0  0  0  0  0  0  0  0  0  0  0
   -6.4624   26.0002  -30.1541 H   0  0  0  0  0  0  0  0  0  0  0  0
   -5.2690   26.4046  -31.4624 H   0  0  0  0  0  0  0  0  0  0  0  0
   -7.2037   24.3667  -31.5427 H   0  0  0  0  0  0  0  0  0  0  0  0
   -5.8031   24.5606  -32.6436 H   0  0  0  0  0  0  0  0  0  0  0  0
   -4.9970   23.2150  -30.1500 H   0  0  0  0  0  0  0  0  0  0  0  0
   -3.2535   22.9205  -31.6472 H   0  0  0  0  0  0  0  0  0  0  0  0
   -1.2354   21.8529  -32.6380 H   0  0  0  0  0  0  0  0  0  0  0  0
   -1.4650   19.7086  -33.8656 H   0  0  0  0  0  0  0  0  0  0  0  0
   -3.6852   18.6463  -34.0957 H   0  0  0  0  0  0  0  0  0  0  0  0
   -6.1912   17.5101  -33.1048 H   0  0  0  0  0  0  0  0  0  0  0  0
   -7.0025   18.3541  -34.4671 H   0  0  0  0  0  0  0  0  0  0  0  0
   -5.2168   18.1592  -34.4671 H   0  0  0  0  0  0  0  0  0  0  0  0
   -8.4530   18.7610  -33.2051 H   0  0  0  0  0  0  0  0  0  0  0  0
  -10.3745   19.9231  -32.2013 H   0  0  0  0  0  0  0  0  0  0  0  0
  -10.0954   22.0603  -30.9892 H   0  0  0  0  0  0  0  0  0  0  0  0
   -7.8035   23.0250  -30.8003 H   0  0  0  0  0  0  0  0  0  0  0  0
  1  2  1  0
  2  3  1  0
  3  4  1  0
  4  5  1  0
  5  6  1  0
  6  7  1  0
  7  8  1  0
  8  9  1  0
  9 10  1  0
 10 11  1  0
 11 12  1  0
 12 13  1  0
 13 14  1  0
 14 15  2  0
 15 16  1  0
 16 17  2  0
 17 18  1  0
 18 19  2  0
 19 20  1  0
 20 21  2  0
 21 22  1  0
 21 23  1  0
 23 24  2  0
 24 25  1  0
 25 26  2  0
 26 27  1  0
 27 28  2  0
 28 14  1  0
 20 15  1  0
 28 23  1  0
  1 29  1  0
  1 30  1  0
  1 31  1  0
  2 32  1  0
  2 33  1  0
  4 34  1  0
  4 35  1  0
  5 36  1  0
  5 37  1  0
  7 38  1  0
  7 39  1  0
  8 40  1  0
  8 41  1  0
 10 42  1  0
 11 43  1  0
 11 44  1  0
 12 45  1  0
 12 46  1  0
 13 47  1  0
 16 48  1  0
 17 49  1  0
 18 50  1  0
 19 51  1  0
 22 52  1  0
 22 53  1  0
 22 54  1  0
 24 55  1  0
 25 56  1  0
 26 57  1  0
 27 58  1  0
M  CHG  1  21   1
M  END
>  <smiles>  (4) 
CCOCCOCCONCCNc1c2ccccc2[n+](C)c2ccccc12

>  <score_type>  (4) 
oracle

>  <origin>  (4) 
adg

>  <m_score__min__energy>  (4) 
-9.7400000000000002

>  <m_primary>  (4) 
energy

$$$$
5:0
     RDKit          3D

 49 51  0  0  0  0  0  0  0  0999 V2000
   -6.0940   25.3540  -29.5330 C   0  0  0  0  0  0  0  0  0  0  0  0
   -5.2700   25.4110  -30.8010 C   0  0  0  0  0  0  0  0  0  0  0  0
   -3.9330   25.2730  -30.5100 O   0  0  0  0  0  0  0  0  0  0  0  0
   -3.6300   24.2420  -29.6600 C   0  0  0  0  0  0  0  0  0  0  0  0
   -4.0250   22.8750  -30.1980 C   0  0  0  0  0  0  0  0  0  0  0  0
   -3.7990   22.8320  -31.5600 O   0  0  0  0  0  0  0  0  0  0  0  0
   -2.8110   21.9660  -31.9590 C   0  0  0  0  0  0  0  0  0  0  0  0
   -3.2330   20.9070  -32.9270 C   0  0  0  0  0  0  0  0  0  0  0  0
   -4.5340   21.2850  -33.4890 N   0  0  0  0  0  0  0  0  0  0  0  0
   -5.6490   20.5220  -33.1110 C   0  0  0  0  0  0  0  0  0  0  0  0
   -6.7210   21.0970  -32.4590 C   0  0  0  0  0  0  0  0  0  0  0  0
   -6.6290   22.4560  -32.2090 C   0  0  0  0  0  0  0  0  0  0  0  0
   -7.6590   23.1090  -31.5640 C   0  0  0  0  0  0  0  0  0  0  0  0
   -8.7470   22.3420  -31.2010 C   0  0  0  0  0  0  0  0  0  0  0  0
   -8.8380   20.9890  -31.4510 C   0  0  0  0  0  0  0  0  0  0  0  0
   -7.8090   20.3360  -32.0940 C   0  0  0  0  0  0  0  0  0  0  0  0
   -7.9170   19.0180  -32.3320 N   0  0  0  0  0  0  0  0  0  0  0  0
   -9.0270   18.1980  -31.9580 C   0  0  0  0  0  0  0  0  0  0  0  0
   -6.8760   18.4290  -32.9730 C   0  0  0  0  0  0  0  0  0  0  0  0
   -6.8580   17.0860  -33.2840 C   0  0  0  0  0  0  0  0  0  0  0  0
   -5.7840   16.4900  -33.9460 C   0  0  0  0  0  0  0  0  0  0  0  0
   -4.6870   17.2370  -34.3170 C   0  0  0  0  0  0  0  0  0  0  0  0
   -3.6310   16.7000  -34.9570 F   0  0  0  0  0  0  0  0  0  0  0  0
   -4.6870   18.5820  -34.0160 C   0  0  0  0  0  0  0  0  0  0  0  0
   -5.7540   19.1570  -33.3620 C   0  0  0  0  0  0  0  0  0  0  0  0
   -5.4267   25.4002  -28.6597 H   0  0  0  0  0  0  0  0  0  0  0  0
   -6.7891   26.2062  -29.5088 H   0  0  0  0  0  0  0  0  0  0  0  0
   -6.6651   24.4142  -29.5088 H   0  0  0  0  0  0  0  0  0  0  0  0
   -5.5808   24.5969  -31.4723 H   0  0  0  0  0  0  0  0  0  0  0  0
   -5.4308   26.3842  -31.2878 H   0  0  0  0  0  0  0  0  0  0  0  0
   -2.5446   24.2455  -29.4817 H   0  0  0  0  0  0  0  0  0  0  0  0
   -4.2054   24.4046  -28.7367 H   0  0  0  0  0  0  0  0  0  0  0  0
   -3.4241   22.0984  -29.7022 H   0  0  0  0  0  0  0  0  0  0  0  0
   -5.0920   22.6972  -29.9981 H   0  0  0  0  0  0  0  0  0  0  0  0
   -2.0127   22.5575  -32.4311 H   0  0  0  0  0  0  0  0  0  0  0  0
   -2.4920   21.4339  -31.0506 H   0  0  0  0  0  0  0  0  0  0  0  0
   -2.4899   20.8238  -33.7338 H   0  0  0  0  0  0  0  0  0  0  0  0
   -3.3101   19.9364  -32.4152 H   0  0  0  0  0  0  0  0  0  0  0  0
   -4.6180   22.1060  -34.1560 H   0  0  0  0  0  0  0  0  0  0  0  0
   -5.7353   23.0144  -32.5245 H   0  0  0  0  0  0  0  0  0  0  0  0
   -7.6151   24.1871  -31.3499 H   0  0  0  0  0  0  0  0  0  0  0  0
   -9.5846   22.8350  -30.6859 H   0  0  0  0  0  0  0  0  0  0  0  0
   -9.7323   20.4308  -31.1370 H   0  0  0  0  0  0  0  0  0  0  0  0
   -9.0935   18.1489  -30.8611 H   0  0  0  0  0  0  0  0  0  0  0  0
   -9.9544   18.6295  -32.3626 H   0  0  0  0  0  0  0  0  0  0  0  0
   -8.8871   17.1847  -32.3626 H   0  0  0  0  0  0  0  0  0  0  0  0
   -7.7194   16.4633  -33.0007 H   0  0  0  0  0  0  0  0  0  0  0  0
   -5.8132   15.4142  -34.1738 H   0  0  0  0  0  0  0  0  0  0  0  0
   -3.8252   19.2032  -34.3013 H   0  0  0  0  0  0  0  0  0  0  0  0
  1  2  1  0
  2  3  1  0
  3  4  1  0
  4  5  1  0
  5  6  1  0
  6  7  1  0
  7  8  1  0
  8  9  1  0
  9 10  1  0
 10 11  2  0
 11 12  1  0
 12 13  2  0
 13 14  1  0
 14 15  2  0
 15 16  1  0
 16 17  2  0
 17 18  1  0
 17 19  1  0
 19 20  2  0
 20 21  1  0
 21 22  2  0
 22 23  1  0
 22 24  1  0
 24 25  2  0
 25 10  1  0
 16 11  1  0
 25 19  1  0
  1 26  1  0
  1 27  1  0
  1 28  1  0
  2 29  1  0
  2 30  1  0
  4 31  1  0
  4 32  1  0
  5 33  1  0
  5 34  1  0
  7 35  1  0
  7 36  1  0
  8 37  1  0
  8 38  1  0
  9 39  1  0
 12 40  1  0
 13 41  1  0
 14 42  1  0
 15 43  1  0
 18 44  1  0
 18 45  1  0
 18 46  1  0
 20 47  1  0
 21 48  1  0
 24 49  1  0
M  CHG  1  17   1
M  END
>  <smiles>  (5) 
CCOCCOCCNc1c2ccccc2[n+](C)c2ccc(F)cc12

>  <score_type>  (5) 
oracle

>  <origin>  (5) 
adg

>  <m_score__min__energy>  (5) 
-9.0199999999999996

>  <m_primary>  (5) 
energy

$$$$
6:0
     RDKit          3D

 68 71  0  0  0  0  0  0  0  0999 V2000
   -6.3070   25.6290  -29.6810 C   0  0  0  0  0  0  0  0  0  0  0  0
   -5.3790   25.5310  -30.8370 C   0  0  0  0  0  0  0  0  0  0  0  0
   -4.1720   24.9120  -30.6090 O   0  0  0  0  0  0  0  0  0  0  0  0
   -4.1750   24.0320  -29.5440 C   0  0  0  0  0  0  0  0  0  0  0  0
   -4.7610   22.7180  -29.9840 C   0  0  0  0  0  0  0  0  0  0  0  0
   -4.7290   22.5510  -31.4510 N   0  0  0  0  0  0  0  0  0  0  0  0
   -5.2320   21.2990  -31.9080 C   0  0  0  0  0  0  0  0  0  0  0  0
   -6.6400   21.2270  -31.9390 C   0  0  0  0  0  0  0  0  0  0  0  0
   -7.4020   22.3200  -31.5080 C   0  0  0  0  0  0  0  0  0  0  0  0
   -8.7710   22.3140  -31.5030 C   0  0  0  0  0  0  0  0  0  0  0  0
   -9.4010   21.1730  -31.9430 C   0  0  0  0  0  0  0  0  0  0  0  0
   -8.6440   20.0800  -32.3750 C   0  0  0  0  0  0  0  0  0  0  0  0
   -7.2700   20.0840  -32.3830 C   0  0  0  0  0  0  0  0  0  0  0  0
   -6.5180   19.0370  -32.7860 N   0  0  0  0  0  0  0  0  0  0  0  0
   -7.2180   17.8750  -33.2770 C   0  0  0  0  0  0  0  0  0  0  0  0
   -5.1570   19.1130  -32.7490 C   0  0  0  0  0  0  0  0  0  0  0  0
   -4.4160   18.0210  -33.1420 C   0  0  0  0  0  0  0  0  0  0  0  0
   -3.0410   18.0220  -33.1090 C   0  0  0  0  0  0  0  0  0  0  0  0
   -2.4240   19.1610  -32.6660 C   0  0  0  0  0  0  0  0  0  0  0  0
   -3.0890   20.3020  -32.2520 C   0  0  0  0  0  0  0  0  0  0  0  0
   -2.4780   21.3560  -31.8370 O   0  0  0  0  0  0  0  0  0  0  0  0
   -1.7020   22.1710  -31.1470 C   0  0  0  0  0  0  0  0  0  0  0  0
   -0.5330   21.7260  -30.3610 C   0  0  0  0  0  0  0  0  0  0  0  0
   -0.6240   21.3230  -29.0120 N   0  0  0  0  0  0  0  0  0  0  0  0
    0.1580   22.0460  -28.0590 C   0  0  0  0  0  0  0  0  0  0  0  0
   -2.0260   21.6250  -28.6240 C   0  0  0  0  0  0  0  0  0  0  0  0
   -2.3840   21.0800  -27.2900 C   0  0  0  0  0  0  0  0  0  0  0  0
   -2.3390   19.5520  -27.4380 C   0  0  0  0  0  0  0  0  0  0  0  0
   -0.8720   19.2590  -27.6490 C   0  0  0  0  0  0  0  0  0  0  0  0
   -0.3700   19.9240  -28.8960 C   0  0  0  0  0  0  0  0  0  0  0  0
   -4.4830   20.2330  -32.3130 C   0  0  0  0  0  0  0  0  0  0  0  0
   -5.7335   25.5684  -28.7443 H   0  0  0  0  0  0  0  0  0  0  0  0
   -6.8430   26.5887  -29.7214 H   0  0  0  0  0  0  0  0  0  0  0  0
   -7.0316   24.8024  -29.7214 H   0  0  0  0  0  0  0  0  0  0  0  0
   -5.8949   24.9730  -31.6323 H   0  0  0  0  0  0  0  0  0  0  0  0
   -5.1270   26.5703  -31.0946 H   0  0  0  0  0  0  0  0  0  0  0  0
   -3.1439   23.8754  -29.1943 H   0  0  0  0  0  0  0  0  0  0  0  0
   -4.7796   24.4483  -28.7247 H   0  0  0  0  0  0  0  0  0  0  0  0
   -4.1851   21.9021  -29.5228 H   0  0  0  0  0  0  0  0  0  0  0  0
   -5.8140   22.6971  -29.6667 H   0  0  0  0  0  0  0  0  0  0  0  0
   -4.3660   23.2980  -32.0800 H   0  0  0  0  0  0  0  0  0  0  0  0
   -6.8782   23.2219  -31.1585 H   0  0  0  0  0  0  0  0  0  0  0  0
   -9.3449   23.1876  -31.1604 H   0  0  0  0  0  0  0  0  0  0  0  0
  -10.4997   21.1207  -31.9549 H   0  0  0  0  0  0  0  0  0  0  0  0
   -9.1704   19.1790  -32.7231 H   0  0  0  0  0  0  0  0  0  0  0  0
   -7.5780   17.2773  -32.4266 H   0  0  0  0  0  0  0  0  0  0  0  0
   -8.0742   18.1943  -33.8894 H   0  0  0  0  0  0  0  0  0  0  0  0
   -6.5355   17.2674  -33.8894 H   0  0  0  0  0  0  0  0  0  0  0  0
   -4.9400   17.1199  -33.4932 H   0  0  0  0  0  0  0  0  0  0  0  0
   -2.4604   17.1430  -33.4258 H   0  0  0  0  0  0  0  0  0  0  0  0
   -1.3244   19.1699  -32.6371 H   0  0  0  0  0  0  0  0  0  0  0  0
   -1.3137   22.9001  -31.8733 H   0  0  0  0  0  0  0  0  0  0  0  0
   -2.3869   22.4858  -30.3458 H   0  0  0  0  0  0  0  0  0  0  0  0
   -0.1096   20.8692  -30.9056 H   0  0  0  0  0  0  0  0  0  0  0  0
    0.0428   22.6593  -30.2742 H   0  0  0  0  0  0  0  0  0  0  0  0
   -0.1492   21.7620  -27.0416 H   0  0  0  0  0  0  0  0  0  0  0  0
    1.2222   21.8068  -28.2009 H   0  0  0  0  0  0  0  0  0  0  0  0
    0.0028   23.1257  -28.2009 H   0  0  0  0  0  0  0  0  0  0  0  0
   -2.1578   22.7169  -28.6045 H   0  0  0  0  0  0  0  0  0  0  0  0
   -2.6847   21.1476  -29.3644 H   0  0  0  0  0  0  0  0  0  0  0  0
   -1.6591   21.4132  -26.5327 H   0  0  0  0  0  0  0  0  0  0  0  0
   -3.3755   21.4266  -26.9632 H   0  0  0  0  0  0  0  0  0  0  0  0
   -2.7113   19.0581  -26.5284 H   0  0  0  0  0  0  0  0  0  0  0  0
   -2.9711   19.1831  -28.2592 H   0  0  0  0  0  0  0  0  0  0  0  0
   -0.3017   19.6334  -26.7861 H   0  0  0  0  0  0  0  0  0  0  0  0
   -0.7409   18.1717  -27.7521 H   0  0  0  0  0  0  0  0  0  0  0  0
    0.7192   19.7763  -28.9394 H   0  0  0  0  0  0  0  0  0  0  0  0
   -0.9250   19.4555  -29.7222 H   0  0  0  0  0  0  0  0  0  0  0  0
  1  2  1  0
  2  3  1  0
  3  4  1  0
  4  5  1  0
  5  6  1  0
  6  7  1  0
  7  8  2  0
  8  9  1  0
  9 10  2  0
 10 11  1  0
 11 12  2  0
 12 13  1  0
 13 14  2  0
 14 15  1  0
 14 16  1  0
 16 17  2  0
 17 18  1  0
 18 19  2  0
 19 20  1  0
 20 21  1  0
 21 22  1  0
 22 23  1  0
 23 24  1  0
 24 25  1  0
 24 26  1  0
 26 27  1  0
 27 28  1  0
 28 29  1  0
 29 30  1  0
 20 31  2  0
 31  7  1  0
 13  8  1  0
 31 16  1  0
 30 24  1  0
  1 32  1  0
  1 33  1  0
  1 34  1  0
  2 35  1  0
  2 36  1  0
  4 37  1  0
  4 38  1  0
  5 39  1  0
  5 40  1  0
  6 41  1  0
  9 42  1  0
 10 43  1  0
 11 44  1  0
 12 45  1  0
 15 46  1  0
 15 47  1  0
 15 48  1  0
 17 49  1  0
 18 50  1  0
 19 51  1  0
 22 52  1  0
 22 53  1  0
 23 54  1  0
 23 55  1  0
 25 56  1  0
 25 57  1  0
 25 58  1  0
 26 59  1  0
 26 60  1  0
 27 61  1  0
 27 62  1  0
 28 63  1  0
 28 64  1  0
 29 65  1  0
 29 66  1  0
 30 67  1  0
 30 68  1  0
M  CHG  2  14   1  24   1
M  END
>  <smiles>  (6) 
CCOCCNc1c2ccccc2[n+](C)c2cccc(OCC[N+]3(C)CCCCC3)c12

>  <score_type>  (6) 
oracle

>  <origin>  (6) 
adg

>  <m_score__min__energy>  (6) 
-8.2599999999999998

>  <m_primary>  (6) 
energy

$$$$
7:0
     RDKit          3D

 41 42  0  0  0  0  0  0  0  0999 V2000
   -8.7730   18.5390  -31.5840 C   0  0  0  0  0  0  0  0  0  0  0  0
   -8.5640   19.5360  -32.7230 C   0  0  0  0  0  0  0  0  0  0  0  0
   -7.2050   19.9550  -32.7960 N   0  0  0  0  0  0  0  0  0  0  0  0
   -6.2190   19.2500  -33.4050 C   0  0  0  0  0  0  0  0  0  0  0  0
   -6.4250   17.9080  -33.9930 C   0  0  0  0  0  0  0  0  0  0  0  0
   -5.2930   17.0870  -33.6590 N   0  0  0  0  0  0  0  0  0  0  0  0
   -5.4530   16.1460  -32.6250 C   0  0  0  0  0  0  0  0  0  0  0  0
   -5.0490   14.7480  -33.1200 C   0  0  0  0  0  0  0  0  0  0  0  0
   -4.6010   13.6320  -31.5920 Br  0  0  0  0  0  0  0  0  0  0  0  0
   -4.4960   16.7010  -34.7750 C   0  0  0  0  0  0  0  0  0  0  0  0
   -3.2120   17.4110  -34.9680 C   0  0  0  0  0  0  0  0  0  0  0  0
   -2.0030   16.8730  -33.5440 Br  0  0  0  0  0  0  0  0  0  0  0  0
   -4.9120   19.7470  -33.4680 C   0  0  0  0  0  0  0  0  0  0  0  0
   -4.5800   20.9640  -32.9140 C   0  0  0  0  0  0  0  0  0  0  0  0
   -5.5920   21.6650  -32.2990 C   0  0  0  0  0  0  0  0  0  0  0  0
   -5.2420   22.8910  -31.7470 C   0  0  0  0  0  0  0  0  0  0  0  0
   -6.1910   23.6590  -31.1140 C   0  0  0  0  0  0  0  0  0  0  0  0
   -5.7400   25.3350  -30.3510 Br  0  0  0  0  0  0  0  0  0  0  0  0
   -7.4740   23.1750  -31.0520 C   0  0  0  0  0  0  0  0  0  0  0  0
   -7.8170   21.9500  -31.6060 C   0  0  0  0  0  0  0  0  0  0  0  0
   -6.8730   21.1610  -32.2480 C   0  0  0  0  0  0  0  0  0  0  0  0
   -8.6645   19.0564  -30.6193 H   0  0  0  0  0  0  0  0  0  0  0  0
   -9.7815   18.1057  -31.6564 H   0  0  0  0  0  0  0  0  0  0  0  0
   -8.0234   17.7372  -31.6564 H   0  0  0  0  0  0  0  0  0  0  0  0
   -8.8442   19.0589  -33.6737 H   0  0  0  0  0  0  0  0  0  0  0  0
   -9.1917   20.4192  -32.5332 H   0  0  0  0  0  0  0  0  0  0  0  0
   -7.3424   17.4600  -33.5836 H   0  0  0  0  0  0  0  0  0  0  0  0
   -6.5259   17.9858  -35.0856 H   0  0  0  0  0  0  0  0  0  0  0  0
   -4.8169   16.4289  -31.7733 H   0  0  0  0  0  0  0  0  0  0  0  0
   -6.5076   16.1280  -32.3129 H   0  0  0  0  0  0  0  0  0  0  0  0
   -5.8869   14.2969  -33.6717 H   0  0  0  0  0  0  0  0  0  0  0  0
   -4.1771   14.8298  -33.7856 H   0  0  0  0  0  0  0  0  0  0  0  0
   -4.2686   15.6304  -34.6646 H   0  0  0  0  0  0  0  0  0  0  0  0
   -5.0991   16.9616  -35.6573 H   0  0  0  0  0  0  0  0  0  0  0  0
   -2.7810   17.1430  -35.9439 H   0  0  0  0  0  0  0  0  0  0  0  0
   -3.3710   18.4991  -34.9416 H   0  0  0  0  0  0  0  0  0  0  0  0
   -4.1338   19.1536  -33.9702 H   0  0  0  0  0  0  0  0  0  0  0  0
   -3.5537   21.3571  -32.9611 H   0  0  0  0  0  0  0  0  0  0  0  0
   -4.2039   23.2480  -31.8164 H   0  0  0  0  0  0  0  0  0  0  0  0
   -8.2493   23.7730  -30.5508 H   0  0  0  0  0  0  0  0  0  0  0  0
   -8.8566   21.5977  -31.5350 H   0  0  0  0  0  0  0  0  0  0  0  0
  1  2  1  0
  2  3  1  0
  3  4  2  0
  4  5  1  0
  5  6  1  0
  6  7  1  0
  7  8  1  0
  8  9  1  0
  6 10  1  0
 10 11  1  0
 11 12  1  0
  4 13  1  0
 13 14  2  0
 14 15  1  0
 15 16  2  0
 16 17  1  0
 17 18  1  0
 17 19  2  0
 19 20  1  0
 20 21  2  0
 21  3  1  0
 21 15  1  0
  1 22  1  0
  1 23  1  0
  1 24  1  0
  2 25  1  0
  2 26  1  0
  5 27  1  0
  5 28  1  0
  7 29  1  0
  7 30  1  0
  8 31  1  0
  8 32  1  0
 10 33  1  0
 10 34  1  0
 11 35  1  0
 11 36  1  0
 13 37  1  0
 14 38  1  0
 16 39  1  0
 19 40  1  0
 20 41  1  0
M  CHG  1   3   1
M  END
>  <smiles>  (7) 
CC[n+]1c(CN(CCBr)CCBr)ccc2cc(Br)ccc21

>  <score_type>  (7) 
oracle

>  <origin>  (7) 
adg

>  <m_score__min__energy>  (7) 
-6.9100000000000001

>  <m_primary>  (7) 
energy

$$$$
8:0
     RDKit          3D

 54 58  0  0  0  0  0  0  0  0999 V2000
   -5.5880   25.2260  -30.1770 C   0  0  0  0  0  0  0  0  0  0  0  0
   -4.4390   24.2970  -30.5430 C   0  0  0  0  0  0  0  0  0  0  0  0
   -4.7980   22.9940  -30.0780 N   0  0  0  0  0  0  0  0  0  0  0  0
   -4.6160   22.9930  -28.6310 C   0  0  0  0  0  0  0  0  0  0  0  0
   -4.0240   21.9120  -30.6840 C   0  0  0  0  0  0  0  0  0  0  0  0
   -3.5990   22.2420  -32.0750 C   0  0  0  0  0  0  0  0  0  0  0  0
   -4.5400   21.8930  -33.1080 N   0  0  0  0  0  0  0  0  0  0  0  0
   -5.6100   20.9770  -32.9640 C   0  0  0  0  0  0  0  0  0  0  0  0
   -5.5560   19.6360  -33.2060 C   0  0  0  0  0  0  0  0  0  0  0  0
   -6.6660   18.8210  -32.9960 C   0  0  0  0  0  0  0  0  0  0  0  0
   -7.8350   19.3230  -32.5460 N   0  0  0  0  0  0  0  0  0  0  0  0
   -9.0180   18.5320  -32.3260 C   0  0  0  0  0  0  0  0  0  0  0  0
   -7.9230   20.6460  -32.2970 C   0  0  0  0  0  0  0  0  0  0  0  0
   -9.0780   21.2480  -31.8330 C   0  0  0  0  0  0  0  0  0  0  0  0
   -9.1650   22.6070  -31.5770 C   0  0  0  0  0  0  0  0  0  0  0  0
   -8.0790   23.4260  -31.7790 C   0  0  0  0  0  0  0  0  0  0  0  0
   -6.9220   22.8400  -32.2410 C   0  0  0  0  0  0  0  0  0  0  0  0
   -6.8280   21.4880  -32.4980 C   0  0  0  0  0  0  0  0  0  0  0  0
   -6.2860   17.4420  -33.3500 C   0  0  0  0  0  0  0  0  0  0  0  0
   -6.6930   16.1770  -33.4320 N   0  0  0  0  0  0  0  0  0  0  0  0
   -5.6800   15.3790  -33.8860 C   0  0  0  0  0  0  0  0  0  0  0  0
   -5.5790   14.0290  -34.1390 C   0  0  0  0  0  0  0  0  0  0  0  0
   -4.4010   13.4610  -34.6050 C   0  0  0  0  0  0  0  0  0  0  0  0
   -3.3040   14.2760  -34.8180 C   0  0  0  0  0  0  0  0  0  0  0  0
   -3.3900   15.6410  -34.5650 C   0  0  0  0  0  0  0  0  0  0  0  0
   -4.5840   16.1750  -34.1010 C   0  0  0  0  0  0  0  0  0  0  0  0
   -4.9760   17.4510  -33.7630 C   0  0  0  0  0  0  0  0  0  0  0  0
   -4.4800   18.8070  -33.6900 C   0  0  0  0  0  0  0  0  0  0  0  0
   -3.3380   19.1610  -33.9940 O   0  0  0  0  0  0  0  0  0  0  0  0
   -5.6709   25.2930  -29.0822 H   0  0  0  0  0  0  0  0  0  0  0  0
   -5.3970   26.2266  -30.5922 H   0  0  0  0  0  0  0  0  0  0  0  0
   -6.5264   24.8297  -30.5922 H   0  0  0  0  0  0  0  0  0  0  0  0
   -4.2953   24.2837  -31.6335 H   0  0  0  0  0  0  0  0  0  0  0  0
   -3.4973   24.6342  -30.0852 H   0  0  0  0  0  0  0  0  0  0  0  0
   -5.5992   22.9984  -28.1378 H   0  0  0  0  0  0  0  0  0  0  0  0
   -4.0607   22.0918  -28.3319 H   0  0  0  0  0  0  0  0  0  0  0  0
   -4.0508   23.8881  -28.3319 H   0  0  0  0  0  0  0  0  0  0  0  0
   -3.1280   21.7302  -30.0723 H   0  0  0  0  0  0  0  0  0  0  0  0
   -4.6639   21.0183  -30.7266 H   0  0  0  0  0  0  0  0  0  0  0  0
   -3.4238   23.3267  -32.1280 H   0  0  0  0  0  0  0  0  0  0  0  0
   -2.6996   21.6388  -32.2681 H   0  0  0  0  0  0  0  0  0  0  0  0
   -4.4620   22.3360  -34.0780 H   0  0  0  0  0  0  0  0  0  0  0  0
   -9.1875   18.4187  -31.2451 H   0  0  0  0  0  0  0  0  0  0  0  0
   -9.8843   19.0332  -32.7824 H   0  0  0  0  0  0  0  0  0  0  0  0
   -8.8859   17.5399  -32.7824 H   0  0  0  0  0  0  0  0  0  0  0  0
   -9.9654   20.6215  -31.6597 H   0  0  0  0  0  0  0  0  0  0  0  0
  -10.1098   23.0339  -31.2095 H   0  0  0  0  0  0  0  0  0  0  0  0
   -8.1326   24.5064  -31.5794 H   0  0  0  0  0  0  0  0  0  0  0  0
   -6.0393   23.4738  -32.4116 H   0  0  0  0  0  0  0  0  0  0  0  0
   -7.6180   15.7530  -33.2080 H   0  0  0  0  0  0  0  0  0  0  0  0
   -6.4538   13.3845  -33.9675 H   0  0  0  0  0  0  0  0  0  0  0  0
   -4.3411   12.3804  -34.8016 H   0  0  0  0  0  0  0  0  0  0  0  0
   -2.3624   13.8441  -35.1879 H   0  0  0  0  0  0  0  0  0  0  0  0
   -2.5189   16.2918  -34.7313 H   0  0  0  0  0  0  0  0  0  0  0  0
  1  2  1  0
  2  3  1  0
  3  4  1  0
  3  5  1  0
  5  6  1  0
  6  7  1  0
  7  8  1  0
  8  9  2  0
  9 10  1  0
 10 11  2  0
 11 12  1  0
 11 13  1  0
 13 14  2  0
 14 15  1  0
 15 16  2  0
 16 17  1  0
 17 18  2  0
 10 19  1  0
 19 20  1  0
 20 21  1  0
 21 22  2  0
 22 23  1  0
 23 24  2  0
 24 25  1  0
 25 26  2  0
 26 27  1  0
 27 28  1  0
 28 29  2  0
 18  8  1  0
 27 19  2  0
 28  9  1  0
 18 13  1  0
 26 21  1  0
  1 30  1  0
  1 31  1  0
  1 32  1  0
  2 33  1  0
  2 34  1  0
  4 35  1  0
  4 36  1  0
  4 37  1  0
  5 38  1  0
  5 39  1  0
  6 40  1  0
  6 41  1  0
  7 42  1  0
 12 43  1  0
 12 44  1  0
 12 45  1  0
 14 46  1  0
 15 47  1  0
 16 48  1  0
 17 49  1  0
 20 50  1  0
 22 51  1  0
 23 52  1  0
 24 53  1  0
 25 54  1  0
M  CHG  1  11   1
M  END
>  <smiles>  (8) 
CCN(C)CCNc1c2c([n+](C)c3ccccc13)-c1[nH]c3ccccc3c1C2=O

>  <score_type>  (8) 
oracle

>  <origin>  (8) 
adg

>  <m_score__min__energy>  (8) 
-9.2599999999999998

>  <m_primary>  (8) 
energy

$$$$
9:0
     RDKit          3D

 42 44  0  0  0  0  0  0  0  0999 V2000
   -6.0030   17.6500  -34.2370 C   0  0  0  0  0  0  0  0  0  0  0  0
   -4.8580   18.3610  -33.5460 C   0  0  0  0  0  0  0  0  0  0  0  0
   -4.8650   19.6970  -33.9500 O   0  0  0  0  0  0  0  0  0  0  0  0
   -4.4300   20.7780  -33.2280 C   0  0  0  0  0  0  0  0  0  0  0  0
   -3.2210   21.0740  -33.2150 O   0  0  0  0  0  0  0  0  0  0  0  0
   -5.3940   21.5790  -32.4780 C   0  0  0  0  0  0  0  0  0  0  0  0
   -5.1280   22.7620  -31.8140 C   0  0  0  0  0  0  0  0  0  0  0  0
   -6.2710   23.2100  -31.2350 N   0  0  0  0  0  0  0  0  0  0  0  0
   -6.3880   24.4310  -30.4470 C   0  0  0  0  0  0  0  0  0  0  0  0
   -5.3660   25.4540  -30.8530 C   0  0  0  0  0  0  0  0  0  0  0  0
   -4.0640   25.2220  -30.4700 O   0  0  0  0  0  0  0  0  0  0  0  0
   -3.5090   24.2880  -29.6720 C   0  0  0  0  0  0  0  0  0  0  0  0
   -4.0300   24.1700  -28.3740 C   0  0  0  0  0  0  0  0  0  0  0  0
   -3.5410   23.2540  -27.4710 C   0  0  0  0  0  0  0  0  0  0  0  0
   -2.5160   22.4070  -27.7900 C   0  0  0  0  0  0  0  0  0  0  0  0
   -1.9830   22.4990  -29.0590 C   0  0  0  0  0  0  0  0  0  0  0  0
   -2.4810   23.4260  -29.9670 C   0  0  0  0  0  0  0  0  0  0  0  0
   -7.2700   22.3360  -31.5150 C   0  0  0  0  0  0  0  0  0  0  0  0
   -8.6070   22.3340  -31.1640 C   0  0  0  0  0  0  0  0  0  0  0  0
   -9.4450   21.3000  -31.5850 C   0  0  0  0  0  0  0  0  0  0  0  0
   -8.8930   20.2940  -32.3550 C   0  0  0  0  0  0  0  0  0  0  0  0
   -7.5610   20.2870  -32.7100 C   0  0  0  0  0  0  0  0  0  0  0  0
   -6.7480   21.3190  -32.2830 C   0  0  0  0  0  0  0  0  0  0  0  0
   -6.6821   17.2283  -33.4814 H   0  0  0  0  0  0  0  0  0  0  0  0
   -6.5530   18.3657  -34.8657 H   0  0  0  0  0  0  0  0  0  0  0  0
   -5.6054   16.8397  -34.8657 H   0  0  0  0  0  0  0  0  0  0  0  0
   -4.9871   18.3014  -32.4552 H   0  0  0  0  0  0  0  0  0  0  0  0
   -3.9013   17.8887  -33.8139 H   0  0  0  0  0  0  0  0  0  0  0  0
   -4.1484   23.2598  -31.7631 H   0  0  0  0  0  0  0  0  0  0  0  0
   -7.3930   24.8540  -30.5921 H   0  0  0  0  0  0  0  0  0  0  0  0
   -6.2167   24.1754  -29.3909 H   0  0  0  0  0  0  0  0  0  0  0  0
   -5.3821   25.5218  -31.9508 H   0  0  0  0  0  0  0  0  0  0  0  0
   -5.6589   26.3750  -30.3276 H   0  0  0  0  0  0  0  0  0  0  0  0
   -4.8551   24.8305  -28.0690 H   0  0  0  0  0  0  0  0  0  0  0  0
   -3.9862   23.2018  -26.4665 H   0  0  0  0  0  0  0  0  0  0  0  0
   -2.1305   21.6788  -27.0612 H   0  0  0  0  0  0  0  0  0  0  0  0
   -1.1580   21.8340  -29.3544 H   0  0  0  0  0  0  0  0  0  0  0  0
   -2.0305   23.4715  -30.9695 H   0  0  0  0  0  0  0  0  0  0  0  0
   -9.0127   23.1514  -30.5498 H   0  0  0  0  0  0  0  0  0  0  0  0
  -10.5106   21.2864  -31.3125 H   0  0  0  0  0  0  0  0  0  0  0  0
   -9.5383   19.4710  -32.6962 H   0  0  0  0  0  0  0  0  0  0  0  0
   -7.1515   19.4716  -33.3243 H   0  0  0  0  0  0  0  0  0  0  0  0
  1  2  1  0
  2  3  1  0
  3  4  1  0
  4  5  2  0
  4  6  1  0
  6  7  2  0
  7  8  1  0
  8  9  1  0
  9 10  1  0
 10 11  1  0
 11 12  1  0
 12 13  2  0
 13 14  1  0
 14 15  2  0
 15 16  1  0
 16 17  2  0
  8 18  1  0
 18 19  2  0
 19 20  1  0
 20 21  2  0
 21 22  1  0
 22 23  2  0
 23  6  1  0
 17 12  1  0
 23 18  1  0
  1 24  1  0
  1 25  1  0
  1 26  1  0
  2 27  1  0
  2 28  1  0
  7 29  1  0
  9 30  1  0
  9 31  1  0
 10 32  1  0
 10 33  1  0
 13 34  1  0
 14 35  1  0
 15 36  1  0
 16 37  1  0
 17 38  1  0
 19 39  1  0
 20 40  1  0
 21 41  1  0
 22 42  1  0
M  END
>  <smiles>  (9) 
CCOC(=O)c1cn(CCOc2ccccc2)c2ccccc12

>  <score_type>  (9) 
oracle

>  <origin>  (9) 
adg

>  <m_score__min__energy>  (9) 
-7.9500000000000002

>  <m_primary>  (9) 
energy

$$$$
10:0
     RDKit          3D

 39 40  0  0  0  0  0  0  0  0999 V2000
   -3.4320   20.1140  -32.1570 C   0  0  0  0  0  0  0  0  0  0  0  0
   -4.2650   20.7870  -33.2030 C   0  0  0  0  0  0  0  0  0  0  0  0
   -5.3770   21.4860  -32.7010 O   0  0  0  0  0  0  0  0  0  0  0  0
   -6.6160   20.9230  -32.4400 C   0  0  0  0  0  0  0  0  0  0  0  0
   -6.7420   19.5450  -32.3700 C   0  0  0  0  0  0  0  0  0  0  0  0
   -7.9510   18.9250  -32.1130 C   0  0  0  0  0  0  0  0  0  0  0  0
   -9.0650   19.7070  -31.9210 C   0  0  0  0  0  0  0  0  0  0  0  0
   -8.9210   21.0600  -31.9930 C   0  0  0  0  0  0  0  0  0  0  0  0
   -7.7260   21.7100  -32.2490 C   0  0  0  0  0  0  0  0  0  0  0  0
   -7.6760   23.2150  -32.3410 C   0  0  0  0  0  0  0  0  0  0  0  0
   -6.6050   23.6340  -31.5040 N   0  0  0  0  0  0  0  0  0  0  0  0
   -6.9200   24.5350  -30.4530 C   0  0  0  0  0  0  0  0  0  0  0  0
   -5.7080   25.3210  -29.9730 C   0  0  0  0  0  0  0  0  0  0  0  0
   -4.5480   24.3800  -29.7740 C   0  0  0  0  0  0  0  0  0  0  0  0
   -4.1390   23.9680  -28.5310 C   0  0  0  0  0  0  0  0  0  0  0  0
   -3.0610   23.0860  -28.3940 C   0  0  0  0  0  0  0  0  0  0  0  0
   -2.3870   22.6170  -29.5280 C   0  0  0  0  0  0  0  0  0  0  0  0
   -2.8410   23.0630  -30.7460 C   0  0  0  0  0  0  0  0  0  0  0  0
   -3.8880   23.9160  -30.8490 N   0  0  0  0  0  0  0  0  0  0  0  0
   -3.7916   20.4046  -31.1589 H   0  0  0  0  0  0  0  0  0  0  0  0
   -3.5106   19.0228  -32.2717 H   0  0  0  0  0  0  0  0  0  0  0  0
   -2.3817   20.4201  -32.2717 H   0  0  0  0  0  0  0  0  0  0  0  0
   -3.6264   21.5004  -33.7445 H   0  0  0  0  0  0  0  0  0  0  0  0
   -4.6616   19.9895  -33.8485 H   0  0  0  0  0  0  0  0  0  0  0  0
   -5.8486   18.9221  -32.5243 H   0  0  0  0  0  0  0  0  0  0  0  0
   -8.0199   17.8283  -32.0632 H   0  0  0  0  0  0  0  0  0  0  0  0
  -10.0456   19.2531  -31.7149 H   0  0  0  0  0  0  0  0  0  0  0  0
   -9.8168   21.6789  -31.8368 H   0  0  0  0  0  0  0  0  0  0  0  0
   -7.4912   23.5266  -33.3796 H   0  0  0  0  0  0  0  0  0  0  0  0
   -8.6285   23.6653  -32.0247 H   0  0  0  0  0  0  0  0  0  0  0  0
   -5.7880   23.0480  -31.4290 H   0  0  0  0  0  0  0  0  0  0  0  0
   -7.6799   25.2442  -30.8128 H   0  0  0  0  0  0  0  0  0  0  0  0
   -7.2893   23.9408  -29.6042 H   0  0  0  0  0  0  0  0  0  0  0  0
   -5.4411   26.0789  -30.7242 H   0  0  0  0  0  0  0  0  0  0  0  0
   -5.9458   25.8177  -29.0208 H   0  0  0  0  0  0  0  0  0  0  0  0
   -4.6623   24.3337  -27.6352 H   0  0  0  0  0  0  0  0  0  0  0  0
   -2.7424   22.7604  -27.3927 H   0  0  0  0  0  0  0  0  0  0  0  0
   -1.5355   21.9252  -29.4479 H   0  0  0  0  0  0  0  0  0  0  0  0
   -2.3403   22.7177  -31.6625 H   0  0  0  0  0  0  0  0  0  0  0  0
  1  2  1  0
  2  3  1  0
  3  4  1  0
  4  5  2  0
  5  6  1  0
  6  7  2  0
  7  8  1  0
  8  9  2  0
  9 10  1  0
 10 11  1  0
 11 12  1  0
 12 13  1  0
 13 14  1  0
 14 15  2  0
 15 16  1  0
 16 17  2  0
 17 18  1  0
 18 19  2  0
  9  4  1  0
 19 14  1  0
  1 20  1  0
  1 21  1  0
  1 22  1  0
  2 23  1  0
  2 24  1  0
  5 25  1  0
  6 26  1  0
  7 27  1  0
  8 28  1  0
 10 29  1  0
 10 30  1  0
 11 31  1  0
 12 32  1  0
 12 33  1  0
 13 34  1  0
 13 35  1  0
 15 36  1  0
 16 37  1  0
 17 38  1  0
 18 39  1  0
M  END
>  <smiles>  (10) 
CCOc1ccccc1CNCCc1ccccn1

>  <score_type>  (10) 
oracle

>  <origin>  (10) 
adg

>  <m_score__min__energy>  (10) 
-7.3899999999999997

>  <m_primary>  (10) 
energy

$$$$
11:0
     RDKit          3D

 61 62  0  0  1  0  0  0  0  0999 V2000
   -6.4830   16.3760  -33.8550 C   0  0  0  0  0  0  0  0  0  0  0  0
   -5.1680   16.6330  -34.5940 C   0  0  0  0  0  0  0  0  0  0  0  0
   -4.0960   16.4590  -33.7420 O   0  0  0  0  0  0  0  0  0  0  0  0
   -3.0140   17.2930  -34.0710 C   0  0  0  0  0  0  0  0  0  0  0  0
   -3.1070   18.6050  -33.3350 C   0  0  0  0  0  0  0  0  0  0  0  0
   -4.3100   18.6950  -32.5360 N   0  0  0  0  0  0  0  0  0  0  0  0
   -5.0580   19.8820  -32.3400 C   0  0  0  0  0  0  0  0  0  0  0  0
   -4.4900   21.1190  -32.5540 C   0  0  0  0  0  0  0  0  0  0  0  0
   -5.1920   22.3040  -32.3290 C   0  0  0  0  0  0  0  0  0  0  0  0
   -6.5120   22.2810  -31.8730 C   0  0  0  0  0  0  0  0  0  0  0  0
   -7.1770   23.5710  -31.6830 C   0  0  1  0  0  0  0  0  0  0  0  0
   -8.6360   23.4330  -31.9640 C   0  0  0  0  0  0  0  0  0  0  0  0
   -6.8220   24.3240  -30.4500 C   0  0  0  0  0  0  0  0  0  0  0  0
   -5.4200   24.5200  -30.1420 C   0  0  0  0  0  0  0  0  0  0  0  0
   -4.5180   24.9390  -30.9030 O   0  0  0  0  0  0  0  0  0  0  0  0
   -4.9860   24.2000  -28.7980 N   0  0  0  0  0  0  0  0  0  0  0  0
   -3.5790   24.3960  -28.4850 C   0  0  0  0  0  0  0  0  0  0  0  0
   -3.0490   23.1930  -27.7390 C   0  0  0  0  0  0  0  0  0  0  0  0
   -3.1750   21.9880  -28.6460 C   0  0  0  0  0  0  0  0  0  0  0  0
   -2.5250   20.7900  -28.0780 C   0  0  0  0  0  0  0  0  0  0  0  0
   -3.0600   20.0080  -27.0830 C   0  0  0  0  0  0  0  0  0  0  0  0
   -2.4160   18.8900  -26.5720 C   0  0  0  0  0  0  0  0  0  0  0  0
   -1.1820   18.5620  -27.1030 C   0  0  0  0  0  0  0  0  0  0  0  0
   -0.6100   19.3220  -28.1020 C   0  0  0  0  0  0  0  0  0  0  0  0
   -1.2770   20.4460  -28.6030 C   0  0  0  0  0  0  0  0  0  0  0  0
   -7.0580   21.0450  -31.6670 C   0  0  0  0  0  0  0  0  0  0  0  0
   -6.3810   19.8530  -31.8830 C   0  0  0  0  0  0  0  0  0  0  0  0
   -7.0800   18.6640  -31.6240 N   0  0  0  0  0  0  0  0  0  0  0  0
   -8.2400   18.3940  -31.9540 O   0  0  0  0  0  0  0  0  0  0  0  0
   -6.4080   17.6830  -30.9050 O   0  0  0  0  0  0  0  0  0  0  0  0
   -6.3065   16.4105  -32.7698 H   0  0  0  0  0  0  0  0  0  0  0  0
   -7.2162   17.1478  -34.1320 H   0  0  0  0  0  0  0  0  0  0  0  0
   -6.8716   15.3849  -34.1320 H   0  0  0  0  0  0  0  0  0  0  0  0
   -5.0810   15.9290  -35.4347 H   0  0  0  0  0  0  0  0  0  0  0  0
   -5.1640   17.6681  -34.9663 H   0  0  0  0  0  0  0  0  0  0  0  0
   -2.0748   16.7908  -33.7958 H   0  0  0  0  0  0  0  0  0  0  0  0
   -3.0386   17.4927  -35.1524 H   0  0  0  0  0  0  0  0  0  0  0  0
   -2.2335   18.7038  -32.6738 H   0  0  0  0  0  0  0  0  0  0  0  0
   -3.1344   19.4120  -34.0820 H   0  0  0  0  0  0  0  0  0  0  0  0
   -4.6070   17.7860  -32.0820 H   0  0  0  0  0  0  0  0  0  0  0  0
   -3.4517   21.1742  -32.9131 H   0  0  0  0  0  0  0  0  0  0  0  0
   -4.6988   23.2698  -32.5134 H   0  0  0  0  0  0  0  0  0  0  0  0
   -6.7586   24.2581  -32.4332 H   0  0  0  0  0  0  0  0  0  0  0  0
   -9.1889   23.3807  -31.0145 H   0  0  0  0  0  0  0  0  0  0  0  0
   -8.9819   24.3024  -32.5423 H   0  0  0  0  0  0  0  0  0  0  0  0
   -8.8127   22.5141  -32.5423 H   0  0  0  0  0  0  0  0  0  0  0  0
   -7.2788   25.3211  -30.5350 H   0  0  0  0  0  0  0  0  0  0  0  0
   -7.1930   23.6910  -29.6304 H   0  0  0  0  0  0  0  0  0  0  0  0
   -5.6850   23.8440  -28.1110 H   0  0  0  0  0  0  0  0  0  0  0  0
   -3.0117   24.5261  -29.4184 H   0  0  0  0  0  0  0  0  0  0  0  0
   -3.4677   25.2917  -27.8563 H   0  0  0  0  0  0  0  0  0  0  0  0
   -1.9932   23.3528  -27.4749 H   0  0  0  0  0  0  0  0  0  0  0  0
   -3.6205   23.0355  -26.8124 H   0  0  0  0  0  0  0  0  0  0  0  0
   -4.2423   21.7717  -28.8009 H   0  0  0  0  0  0  0  0  0  0  0  0
   -2.6721   22.2263  -29.5948 H   0  0  0  0  0  0  0  0  0  0  0  0
   -4.0436   20.2805  -26.6728 H   0  0  0  0  0  0  0  0  0  0  0  0
   -2.8709   18.2862  -25.7730 H   0  0  0  0  0  0  0  0  0  0  0  0
   -0.6471   17.6795  -26.7220 H   0  0  0  0  0  0  0  0  0  0  0  0
    0.3743   19.0436  -28.5066 H   0  0  0  0  0  0  0  0  0  0  0  0
   -0.8234   21.0518  -29.4013 H   0  0  0  0  0  0  0  0  0  0  0  0
   -8.0966   20.9919  -31.3084 H   0  0  0  0  0  0  0  0  0  0  0  0
  1  2  1  0
  2  3  1  0
  3  4  1  0
  4  5  1  0
  5  6  1  0
  6  7  1  0
  7  8  2  0
  8  9  1  0
  9 10  2  0
 10 11  1  0
 11 12  1  0
 11 13  1  0
 13 14  1  0
 14 15  2  0
 14 16  1  0
 16 17  1  0
 17 18  1  0
 18 19  1  0
 19 20  1  0
 20 21  2  0
 21 22  1  0
 22 23  2  0
 23 24  1  0
 24 25  2  0
 10 26  1  0
 26 27  2  0
 27 28  1  0
 28 29  2  0
 28 30  1  0
 27  7  1  0
 25 20  1  0
  1 31  1  0
  1 32  1  0
  1 33  1  0
  2 34  1  0
  2 35  1  0
  4 36  1  0
  4 37  1  0
  5 38  1  0
  5 39  1  0
  6 40  1  0
  8 41  1  0
  9 42  1  0
 11 43  1  6
 12 44  1  0
 12 45  1  0
 12 46  1  0
 13 47  1  0
 13 48  1  0
 16 49  1  0
 17 50  1  0
 17 51  1  0
 18 52  1  0
 18 53  1  0
 19 54  1  0
 19 55  1  0
 21 56  1  0
 22 57  1  0
 23 58  1  0
 24 59  1  0
 25 60  1  0
 26 61  1  0
M  CHG  2  28   1  30  -1
M  END
>  <smiles>  (11) 
CCOCCNc1ccc(C(C)CC(=O)NCCCc2ccccc2)cc1[N+](=O)[O-]

>  <score_type>  (11) 
oracle

>  <origin>  (11) 
adg

>  <m_score__min__energy>  (11) 
-9.1400000000000006

>  <m_primary>  (11) 
energy

$$$$
12:0
     RDKit          3D

 63 65  0  0  0  0  0  0  0  0999 V2000
   -6.9410   23.2840  -32.3470 C   0  0  0  0  0  0  0  0  0  0  0  0
   -7.4650   22.0300  -31.7000 C   0  0  0  0  0  0  0  0  0  0  0  0
   -7.6240   22.2780  -30.2220 C   0  0  0  0  0  0  0  0  0  0  0  0
   -8.7580   21.5250  -32.3080 C   0  0  0  0  0  0  0  0  0  0  0  0
   -8.6140   20.2510  -32.9310 N   0  0  0  0  0  0  0  0  0  0  0  0
   -9.4260   19.2100  -32.3500 C   0  0  0  0  0  0  0  0  0  0  0  0
   -8.6220   18.2110  -31.5510 C   0  0  0  0  0  0  0  0  0  0  0  0
   -7.7520   17.4980  -32.4720 N   0  0  0  0  0  0  0  0  0  0  0  0
   -6.5090   18.1310  -32.8030 C   0  0  0  0  0  0  0  0  0  0  0  0
   -5.8970   17.8880  -34.0170 C   0  0  0  0  0  0  0  0  0  0  0  0
   -4.6950   18.5020  -34.3550 C   0  0  0  0  0  0  0  0  0  0  0  0
   -4.0850   19.3660  -33.4840 C   0  0  0  0  0  0  0  0  0  0  0  0
   -2.8860   19.9220  -33.8870 C   0  0  0  0  0  0  0  0  0  0  0  0
   -2.2330   20.7820  -33.0350 C   0  0  0  0  0  0  0  0  0  0  0  0
   -2.8120   21.0590  -31.7910 C   0  0  0  0  0  0  0  0  0  0  0  0
   -2.0570   21.9300  -30.9410 C   0  0  0  0  0  0  0  0  0  0  0  0
   -1.4150   22.6560  -30.2020 C   0  0  0  0  0  0  0  0  0  0  0  0
   -0.6160   23.5240  -29.2870 C   0  0  0  0  0  0  0  0  0  0  0  0
   -1.6170   24.5370  -28.7190 C   0  0  0  0  0  0  0  0  0  0  0  0
   -1.7550   24.2430  -27.3030 N   0  0  0  0  0  0  0  0  0  0  0  0
   -1.8570   22.8010  -27.0900 C   0  0  0  0  0  0  0  0  0  0  0  0
   -3.1050   22.1730  -27.5750 C   0  0  0  0  0  0  0  0  0  0  0  0
   -4.2500   23.0660  -27.8770 C   0  0  0  0  0  0  0  0  0  0  0  0
   -4.2220   24.4340  -27.3000 C   0  0  0  0  0  0  0  0  0  0  0  0
   -2.9270   24.8880  -26.7170 C   0  0  0  0  0  0  0  0  0  0  0  0
   -4.0170   20.4880  -31.4130 C   0  0  0  0  0  0  0  0  0  0  0  0
   -4.6830   19.6120  -32.2780 C   0  0  0  0  0  0  0  0  0  0  0  0
   -5.8800   19.0120  -31.9250 C   0  0  0  0  0  0  0  0  0  0  0  0
   -6.6415   24.0008  -31.5682 H   0  0  0  0  0  0  0  0  0  0  0  0
   -6.0706   23.0375  -32.9728 H   0  0  0  0  0  0  0  0  0  0  0  0
   -7.7280   23.7301  -32.9728 H   0  0  0  0  0  0  0  0  0  0  0  0
   -6.7307   21.2310  -31.8800 H   0  0  0  0  0  0  0  0  0  0  0  0
   -7.1137   21.4821  -29.6597 H   0  0  0  0  0  0  0  0  0  0  0  0
   -7.1811   23.2512  -29.9638 H   0  0  0  0  0  0  0  0  0  0  0  0
   -8.6933   22.2817  -29.9638 H   0  0  0  0  0  0  0  0  0  0  0  0
   -9.5127   21.4438  -31.5119 H   0  0  0  0  0  0  0  0  0  0  0  0
   -9.0610   22.2418  -33.0854 H   0  0  0  0  0  0  0  0  0  0  0  0
   -8.6570   20.2290  -33.9570 H   0  0  0  0  0  0  0  0  0  0  0  0
  -10.1685   19.6748  -31.6846 H   0  0  0  0  0  0  0  0  0  0  0  0
   -9.9016   18.6631  -33.1775 H   0  0  0  0  0  0  0  0  0  0  0  0
   -8.0176   18.7358  -30.7965 H   0  0  0  0  0  0  0  0  0  0  0  0
   -9.2908   17.5074  -31.0336 H   0  0  0  0  0  0  0  0  0  0  0  0
   -7.9780   16.5730  -32.8940 H   0  0  0  0  0  0  0  0  0  0  0  0
   -6.3687   17.1960  -34.7302 H   0  0  0  0  0  0  0  0  0  0  0  0
   -4.2305   18.2920  -35.3298 H   0  0  0  0  0  0  0  0  0  0  0  0
   -2.4609   19.6810  -34.8725 H   0  0  0  0  0  0  0  0  0  0  0  0
   -1.2768   21.2420  -33.3248 H   0  0  0  0  0  0  0  0  0  0  0  0
   -0.1714   22.9257  -28.4780 H   0  0  0  0  0  0  0  0  0  0  0  0
    0.2163   24.0173  -29.8104 H   0  0  0  0  0  0  0  0  0  0  0  0
   -1.2396   25.5608  -28.8580 H   0  0  0  0  0  0  0  0  0  0  0  0
   -2.5866   24.4641  -29.2333 H   0  0  0  0  0  0  0  0  0  0  0  0
   -1.0129   22.3214  -27.6072 H   0  0  0  0  0  0  0  0  0  0  0  0
   -1.8492   22.6552  -25.9997 H   0  0  0  0  0  0  0  0  0  0  0  0
   -2.8614   21.6264  -28.4980 H   0  0  0  0  0  0  0  0  0  0  0  0
   -3.4494   21.5508  -26.7358 H   0  0  0  0  0  0  0  0  0  0  0  0
   -4.3071   23.1705  -28.9705 H   0  0  0  0  0  0  0  0  0  0  0  0
   -5.1169   22.5801  -27.4054 H   0  0  0  0  0  0  0  0  0  0  0  0
   -4.4928   25.1388  -28.0999 H   0  0  0  0  0  0  0  0  0  0  0  0
   -4.9257   24.4060  -26.4550 H   0  0  0  0  0  0  0  0  0  0  0  0
   -2.8389   25.9734  -26.8725 H   0  0  0  0  0  0  0  0  0  0  0  0
   -2.9430   24.6136  -25.6519 H   0  0  0  0  0  0  0  0  0  0  0  0
   -4.4513   20.7240  -30.4303 H   0  0  0  0  0  0  0  0  0  0  0  0
   -6.3360   19.2314  -30.9483 H   0  0  0  0  0  0  0  0  0  0  0  0
  1  2  1  0
  2  3  1  0
  2  4  1  0
  4  5  1  0
  5  6  1  0
  6  7  1  0
  7  8  1  0
  8  9  1  0
  9 10  2  0
 10 11  1  0
 11 12  2  0
 12 13  1  0
 13 14  2  0
 14 15  1  0
 15 16  1  0
 16 17  3  0
 17 18  1  0
 18 19  1  0
 19 20  1  0
 20 21  1  0
 21 22  1  0
 22 23  1  0
 23 24  1  0
 24 25  1  0
 15 26  2  0
 26 27  1  0
 27 28  2  0
 28  9  1  0
 27 12  1  0
 25 20  1  0
  1 29  1  0
  1 30  1  0
  1 31  1  0
  2 32  1  0
  3 33  1  0
  3 34  1  0
  3 35  1  0
  4 36  1  0
  4 37  1  0
  5 38  1  0
  6 39  1  0
  6 40  1  0
  7 41  1  0
  7 42  1  0
  8 43  1  0
 10 44  1  0
 11 45  1  0
 13 46  1  0
 14 47  1  0
 18 48  1  0
 18 49  1  0
 19 50  1  0
 19 51  1  0
 21 52  1  0
 21 53  1  0
 22 54  1  0
 22 55  1  0
 23 56  1  0
 23 57  1  0
 24 58  1  0
 24 59  1  0
 25 60  1  0
 25 61  1  0
 26 62  1  0
 28 63  1  0
M  END
>  <smiles>  (12) 
CC(C)CNCCNc1ccc2ccc(C#CCCN3CCCCC3)cc2c1

>  <score_type>  (12) 
oracle

>  <origin>  (12) 
adg

>  <m_score__min__energy>  (12) 
-8.7400000000000002

>  <m_primary>  (12) 
energy

$$$$
13:0
     RDKit          3D

 35 36  0  0  1  0  0  0  0  0999 V2000
   -7.7710   22.6350  -30.8700 C   0  0  0  0  0  0  0  0  0  0  0  0
   -6.9620   23.2690  -31.9870 C   0  0  0  0  0  0  0  0  0  0  0  0
   -5.7390   23.8620  -31.5020 N   0  0  0  0  0  0  0  0  0  0  0  0
   -5.5130   25.1290  -31.2160 N   0  0  0  0  0  0  0  0  0  0  0  0
   -4.2540   25.3050  -30.8060 N   0  0  0  0  0  0  0  0  0  0  0  0
   -3.6950   24.0980  -30.8420 N   0  0  0  0  0  0  0  0  0  0  0  0
   -4.5800   23.1860  -31.2660 C   0  0  0  0  0  0  0  0  0  0  0  0
   -4.4280   21.4320  -31.5030 S   0  0  0  0  0  0  0  0  0  0  0  0
   -3.7570   20.9930  -33.0940 C   0  0  0  0  0  0  0  0  0  0  0  0
   -4.0660   19.5790  -33.5470 C   0  0  0  0  0  0  0  0  0  0  0  0
   -5.0320   19.0270  -32.5430 C   0  0  0  0  0  0  0  0  0  0  0  0
   -6.3520   18.7980  -32.9710 N   0  0  0  0  0  0  0  0  0  0  0  0
   -7.0810   19.9320  -33.4510 C   0  0  0  0  0  0  0  0  0  0  0  0
   -8.3400   20.0340  -32.6410 C   0  0  0  0  0  0  0  0  0  0  0  0
   -8.6060   18.5560  -32.3400 C   0  0  2  0  0  0  0  0  0  0  0  0
   -9.4540   18.4120  -31.2780 F   0  0  0  0  0  0  0  0  0  0  0  0
   -7.1890   18.0850  -32.0470 C   0  0  0  0  0  0  0  0  0  0  0  0
   -7.3657   22.9526  -29.8979 H   0  0  0  0  0  0  0  0  0  0  0  0
   -8.8208   22.9534  -30.9513 H   0  0  0  0  0  0  0  0  0  0  0  0
   -7.7128   21.5396  -30.9513 H   0  0  0  0  0  0  0  0  0  0  0  0
   -6.7117   22.4948  -32.7272 H   0  0  0  0  0  0  0  0  0  0  0  0
   -7.5712   24.0676  -32.4354 H   0  0  0  0  0  0  0  0  0  0  0  0
   -4.1659   21.6887  -33.8415 H   0  0  0  0  0  0  0  0  0  0  0  0
   -2.6631   21.0544  -32.9961 H   0  0  0  0  0  0  0  0  0  0  0  0
   -4.5198   19.5889  -34.5490 H   0  0  0  0  0  0  0  0  0  0  0  0
   -3.1542   18.9667  -33.6087 H   0  0  0  0  0  0  0  0  0  0  0  0
   -4.6283   18.0663  -32.1907 H   0  0  0  0  0  0  0  0  0  0  0  0
   -5.1177   19.8105  -31.7757 H   0  0  0  0  0  0  0  0  0  0  0  0
   -6.4798   20.8448  -33.3274 H   0  0  0  0  0  0  0  0  0  0  0  0
   -7.3157   19.8180  -34.5196 H   0  0  0  0  0  0  0  0  0  0  0  0
   -8.1828   20.6133  -31.7192 H   0  0  0  0  0  0  0  0  0  0  0  0
   -9.1675   20.5524  -33.1475 H   0  0  0  0  0  0  0  0  0  0  0  0
   -9.1061   17.9880  -33.1383 H   0  0  0  0  0  0  0  0  0  0  0  0
   -6.9100   18.3254  -31.0105 H   0  0  0  0  0  0  0  0  0  0  0  0
   -7.0882   16.9955  -32.1602 H   0  0  0  0  0  0  0  0  0  0  0  0
  1  2  1  0
  2  3  1  0
  3  4  1  0
  4  5  2  0
  5  6  1  0
  6  7  2  0
  7  8  1  0
  8  9  1  0
  9 10  1  0
 10 11  1  0
 11 12  1  0
 12 13  1  0
 13 14  1  0
 14 15  1  0
 15 16  1  0
 15 17  1  0
  7  3  1  0
 17 12  1  0
  1 18  1  0
  1 19  1  0
  1 20  1  0
  2 21  1  0
  2 22  1  0
  9 23  1  0
  9 24  1  0
 10 25  1  0
 10 26  1  0
 11 27  1  0
 11 28  1  0
 13 29  1  0
 13 30  1  0
 14 31  1  0
 14 32  1  0
 15 33  1  6
 17 34  1  0
 17 35  1  0
M  END
>  <smiles>  (13) 
CCn1nnnc1SCCCN1CCC(F)C1

>  <score_type>  (13) 
oracle

>  <origin>  (13) 
adg

>  <m_score__min__energy>  (13) 
-7.4699999999999998

>  <m_primary>  (13) 
energy

$$$$
14:0
     RDKit          3D

 48 50  0  0  0  0  0  0  0  0999 V2000
   -6.3430   25.3720  -29.6500 C   0  0  0  0  0  0  0  0  0  0  0  0
   -5.5990   24.9640  -30.9280 C   0  0  0  0  0  0  0  0  0  0  0  0
   -4.2020   25.2610  -30.7430 N   0  0  0  0  0  0  0  0  0  0  0  0
   -3.4830   24.1830  -30.1400 C   0  0  0  0  0  0  0  0  0  0  0  0
   -4.0830   22.8460  -30.4640 C   0  0  0  0  0  0  0  0  0  0  0  0
   -3.0440   21.7780  -30.4900 C   0  0  0  0  0  0  0  0  0  0  0  0
   -3.0430   21.0160  -31.7560 C   0  0  0  0  0  0  0  0  0  0  0  0
   -3.6180   21.8510  -32.9020 C   0  0  0  0  0  0  0  0  0  0  0  0
   -4.9030   21.4400  -33.1490 N   0  0  0  0  0  0  0  0  0  0  0  0
   -5.7800   20.6000  -33.0380 C   0  0  0  0  0  0  0  0  0  0  0  0
   -7.0210   21.0310  -32.5150 C   0  0  0  0  0  0  0  0  0  0  0  0
   -7.1910   22.3620  -32.1640 C   0  0  0  0  0  0  0  0  0  0  0  0
   -8.3990   22.7950  -31.6540 C   0  0  0  0  0  0  0  0  0  0  0  0
   -9.4630   21.9150  -31.4840 C   0  0  0  0  0  0  0  0  0  0  0  0
   -9.2900   20.6120  -31.8310 C   0  0  0  0  0  0  0  0  0  0  0  0
   -8.0750   20.1800  -32.3430 C   0  0  0  0  0  0  0  0  0  0  0  0
   -7.9400   18.8920  -32.6760 N   0  0  0  0  0  0  0  0  0  0  0  0
   -6.8150   18.4030  -33.1720 C   0  0  0  0  0  0  0  0  0  0  0  0
   -6.7670   17.0590  -33.4900 C   0  0  0  0  0  0  0  0  0  0  0  0
   -5.6180   16.5310  -34.0060 C   0  0  0  0  0  0  0  0  0  0  0  0
   -4.5420   17.3760  -34.1870 C   0  0  0  0  0  0  0  0  0  0  0  0
   -4.5960   18.7140  -33.8680 C   0  0  0  0  0  0  0  0  0  0  0  0
   -5.7440   19.2520  -33.3510 C   0  0  0  0  0  0  0  0  0  0  0  0
   -5.7633   25.0541  -28.7709 H   0  0  0  0  0  0  0  0  0  0  0  0
   -6.4678   26.4647  -29.6314 H   0  0  0  0  0  0  0  0  0  0  0  0
   -7.3315   24.8897  -29.6314 H   0  0  0  0  0  0  0  0  0  0  0  0
   -5.7310   23.8871  -31.1093 H   0  0  0  0  0  0  0  0  0  0  0  0
   -5.9956   25.5147  -31.7937 H   0  0  0  0  0  0  0  0  0  0  0  0
   -3.7530   25.6530  -31.5860 H   0  0  0  0  0  0  0  0  0  0  0  0
   -2.4452   24.2026  -30.5042 H   0  0  0  0  0  0  0  0  0  0  0  0
   -3.5287   24.3168  -29.0491 H   0  0  0  0  0  0  0  0  0  0  0  0
   -4.8346   22.5961  -29.7007 H   0  0  0  0  0  0  0  0  0  0  0  0
   -4.5450   22.9052  -31.4605 H   0  0  0  0  0  0  0  0  0  0  0  0
   -2.0564   22.2442  -30.3588 H   0  0  0  0  0  0  0  0  0  0  0  0
   -3.2713   21.0726  -29.6771 H   0  0  0  0  0  0  0  0  0  0  0  0
   -2.0097   20.7306  -32.0027 H   0  0  0  0  0  0  0  0  0  0  0  0
   -3.6705   20.1219  -31.6261 H   0  0  0  0  0  0  0  0  0  0  0  0
   -3.6180   22.9143  -32.6204 H   0  0  0  0  0  0  0  0  0  0  0  0
   -3.0039   21.7182  -33.8049 H   0  0  0  0  0  0  0  0  0  0  0  0
   -6.3622   23.0738  -32.2921 H   0  0  0  0  0  0  0  0  0  0  0  0
   -8.5219   23.8526  -31.3777 H   0  0  0  0  0  0  0  0  0  0  0  0
  -10.4232   22.2658  -31.0777 H   0  0  0  0  0  0  0  0  0  0  0  0
  -10.1167   19.8973  -31.7053 H   0  0  0  0  0  0  0  0  0  0  0  0
   -8.7430   18.2690  -32.5380 H   0  0  0  0  0  0  0  0  0  0  0  0
   -7.6473   16.4195  -33.3288 H   0  0  0  0  0  0  0  0  0  0  0  0
   -5.5522   15.4650  -34.2692 H   0  0  0  0  0  0  0  0  0  0  0  0
   -3.6088   16.9661  -34.6006 H   0  0  0  0  0  0  0  0  0  0  0  0
   -3.7148   19.3524  -34.0288 H   0  0  0  0  0  0  0  0  0  0  0  0
  1  2  1  0
  2  3  1  0
  3  4  1  0
  4  5  1  0
  5  6  1  0
  6  7  1  0
  7  8  1  0
  8  9  1  0
  9 10  2  3
 10 11  1  0
 11 12  2  0
 12 13  1  0
 13 14  2  0
 14 15  1  0
 15 16  2  0
 16 17  1  0
 17 18  1  0
 18 19  2  0
 19 20  1  0
 20 21  2  0
 21 22  1  0
 22 23  2  0
 23 10  1  0
 16 11  1  0
 23 18  1  0
  1 24  1  0
  1 25  1  0
  1 26  1  0
  2 27  1  0
  2 28  1  0
  3 29  1  0
  4 30  1  0
  4 31  1  0
  5 32  1  0
  5 33  1  0
  6 34  1  0
  6 35  1  0
  7 36  1  0
  7 37  1  0
  8 38  1  0
  8 39  1  0
 12 40  1  0
 13 41  1  0
 14 42  1  0
 15 43  1  0
 17 44  1  0
 19 45  1  0
 20 46  1  0
 21 47  1  0
 22 48  1  0
M  END
>  <smiles>  (14) 
CCNCCCCCN=c1c2ccccc2[nH]c2ccccc12

>  <score_type>  (14) 
oracle

>  <origin>  (14) 
adg

>  <m_score__min__energy>  (14) 
-9.1400000000000006

>  <m_primary>  (14) 
energy

$$$$
16:0
     RDKit          3D

 38 39  0  0  1  0  0  0  0  0999 V2000
   -1.6500   25.8620  -26.6000 C   0  0  0  0  0  0  0  0  0  0  0  0
   -1.0820   26.1470  -27.9760 C   0  0  0  0  0  0  0  0  0  0  0  0
   -1.9170   25.6540  -28.9640 O   0  0  0  0  0  0  0  0  0  0  0  0
   -2.1770   24.2830  -28.7730 C   0  0  0  0  0  0  0  0  0  0  0  0
   -2.7630   23.7980  -30.0840 C   0  0  0  0  0  0  0  0  0  0  0  0
   -3.7520   24.7270  -30.4530 O   0  0  0  0  0  0  0  0  0  0  0  0
   -4.8920   24.5670  -29.6750 C   0  0  0  0  0  0  0  0  0  0  0  0
   -6.1160   25.1580  -30.3520 C   0  0  0  0  0  0  0  0  0  0  0  0
   -6.3060   24.6080  -31.6740 N   0  0  0  0  0  0  0  0  0  0  0  0
   -6.1530   23.3190  -31.8790 C   0  0  0  0  0  0  0  0  0  0  0  0
   -4.8660   22.7540  -32.0330 N   0  0  0  0  0  0  0  0  0  0  0  0
   -5.0880   21.0510  -32.2780 S   0  0  0  0  0  0  0  0  0  0  0  0
   -4.6170   20.6150  -33.6180 O   0  0  0  0  0  0  0  0  0  0  0  0
   -4.5280   20.2400  -31.1550 O   0  0  0  0  0  0  0  0  0  0  0  0
   -6.8580   21.0880  -32.1810 C   0  0  0  0  0  0  0  0  0  0  0  0
   -7.7170   20.0290  -32.2980 C   0  0  0  0  0  0  0  0  0  0  0  0
   -9.0690   20.2530  -32.1920 C   0  0  0  0  0  0  0  0  0  0  0  0
   -9.4780   21.5470  -31.9740 C   0  0  0  0  0  0  0  0  0  0  0  0
   -8.6120   22.6120  -31.8580 C   0  0  0  0  0  0  0  0  0  0  0  0
   -7.2310   22.3870  -31.9650 C   0  0  0  0  0  0  0  0  0  0  0  0
   -0.9459   26.2153  -25.8323 H   0  0  0  0  0  0  0  0  0  0  0  0
   -2.6110   26.3847  -26.4845 H   0  0  0  0  0  0  0  0  0  0  0  0
   -1.8054   24.7792  -26.4845 H   0  0  0  0  0  0  0  0  0  0  0  0
   -0.9747   27.2343  -28.1038 H   0  0  0  0  0  0  0  0  0  0  0  0
   -0.1030   25.6530  -28.0627 H   0  0  0  0  0  0  0  0  0  0  0  0
   -1.2464   23.7430  -28.5443 H   0  0  0  0  0  0  0  0  0  0  0  0
   -2.8620   24.1101  -27.9299 H   0  0  0  0  0  0  0  0  0  0  0  0
   -1.9799   23.7516  -30.8551 H   0  0  0  0  0  0  0  0  0  0  0  0
   -3.1879   22.7889  -29.9781 H   0  0  0  0  0  0  0  0  0  0  0  0
   -5.0610   23.4934  -29.5053 H   0  0  0  0  0  0  0  0  0  0  0  0
   -4.7363   25.0946  -28.7224 H   0  0  0  0  0  0  0  0  0  0  0  0
   -7.0040   24.9368  -29.7417 H   0  0  0  0  0  0  0  0  0  0  0  0
   -5.9676   26.2437  -30.4475 H   0  0  0  0  0  0  0  0  0  0  0  0
   -3.9170   23.1830  -32.0190 H   0  0  0  0  0  0  0  0  0  0  0  0
   -7.3313   19.0140  -32.4742 H   0  0  0  0  0  0  0  0  0  0  0  0
   -9.7941   19.4303  -32.2781 H   0  0  0  0  0  0  0  0  0  0  0  0
  -10.5569   21.7431  -31.8873 H   0  0  0  0  0  0  0  0  0  0  0  0
   -8.9985   23.6270  -31.6835 H   0  0  0  0  0  0  0  0  0  0  0  0
  1  2  1  0
  2  3  1  0
  3  4  1  0
  4  5  1  0
  5  6  1  0
  6  7  1  0
  7  8  1  0
  8  9  1  0
  9 10  2  0
 10 11  1  0
 11 12  1  0
 12 13  2  0
 12 14  2  0
 12 15  1  0
 15 16  2  0
 16 17  1  0
 17 18  2  0
 18 19  1  0
 19 20  2  0
 20 10  1  0
 20 15  1  0
  1 21  1  0
  1 22  1  0
  1 23  1  0
  2 24  1  0
  2 25  1  0
  4 26  1  0
  4 27  1  0
  5 28  1  0
  5 29  1  0
  7 30  1  0
  7 31  1  0
  8 32  1  0
  8 33  1  0
 11 34  1  0
 16 35  1  0
 17 36  1  0
 18 37  1  0
 19 38  1  0
M  END
>  <smiles>  (15) 
CCOCCOCCN=C1NS(=O)(=O)c2ccccc21

>  <score_type>  (15) 
oracle

>  <origin>  (15) 
adg

>  <m_score__min__energy>  (15) 
-7.5999999999999996

>  <m_primary>  (15) 
energy

$$$$
17:0
     RDKit          3D

 37 40  0  0  0  0  0  0  0  0999 V2000
   -4.9800   24.4910  -29.0650 C   0  0  0  0  0  0  0  0  0  0  0  0
   -6.2720   24.9680  -29.7390 C   0  0  0  0  0  0  0  0  0  0  0  0
   -6.1120   24.7240  -31.1990 C   0  0  0  0  0  0  0  0  0  0  0  0
   -6.5000   23.3870  -31.5960 N   0  0  0  0  0  0  0  0  0  0  0  0
   -8.1410   22.9290  -31.6120 S   0  0  0  0  0  0  0  0  0  0  0  0
   -8.2930   21.2930  -32.1290 C   0  0  0  0  0  0  0  0  0  0  0  0
   -9.3380   20.4660  -32.3130 N   0  0  0  0  0  0  0  0  0  0  0  0
   -8.9010   19.2950  -32.7270 N   0  0  0  0  0  0  0  0  0  0  0  0
   -7.5710   19.4020  -32.8000 C   0  0  0  0  0  0  0  0  0  0  0  0
   -6.7280   18.2770  -33.2320 C   0  0  0  0  0  0  0  0  0  0  0  0
   -6.5600   17.1410  -32.4730 C   0  0  0  0  0  0  0  0  0  0  0  0
   -5.7440   16.1560  -32.9870 C   0  0  0  0  0  0  0  0  0  0  0  0
   -5.1080   16.2780  -34.2110 C   0  0  0  0  0  0  0  0  0  0  0  0
   -5.2830   17.4330  -34.9730 C   0  0  0  0  0  0  0  0  0  0  0  0
   -6.1040   18.4300  -34.4630 C   0  0  0  0  0  0  0  0  0  0  0  0
   -7.1590   20.6530  -32.4280 N   0  0  0  0  0  0  0  0  0  0  0  0
   -5.9260   21.2100  -32.3470 C   0  0  0  0  0  0  0  0  0  0  0  0
   -5.6380   22.4470  -31.9700 N   0  0  0  0  0  0  0  0  0  0  0  0
   -4.1720   22.6730  -32.0180 C   0  0  0  0  0  0  0  0  0  0  0  0
   -3.6670   21.3620  -32.4800 C   0  0  0  0  0  0  0  0  0  0  0  0
   -4.8180   20.5540  -32.6500 N   0  0  0  0  0  0  0  0  0  0  0  0
   -5.0987   24.5348  -27.9723 H   0  0  0  0  0  0  0  0  0  0  0  0
   -4.7683   23.4554  -29.3696 H   0  0  0  0  0  0  0  0  0  0  0  0
   -4.1461   25.1405  -29.3696 H   0  0  0  0  0  0  0  0  0  0  0  0
   -7.1320   24.4014  -29.3525 H   0  0  0  0  0  0  0  0  0  0  0  0
   -6.4531   26.0336  -29.5348 H   0  0  0  0  0  0  0  0  0  0  0  0
   -6.7359   25.4466  -31.7454 H   0  0  0  0  0  0  0  0  0  0  0  0
   -5.0443   24.8404  -31.4365 H   0  0  0  0  0  0  0  0  0  0  0  0
   -7.0557   17.0242  -31.4980 H   0  0  0  0  0  0  0  0  0  0  0  0
   -5.5921   15.2370  -32.4019 H   0  0  0  0  0  0  0  0  0  0  0  0
   -4.4659   15.4654  -34.5817 H   0  0  0  0  0  0  0  0  0  0  0  0
   -4.7862   17.5504  -35.9474 H   0  0  0  0  0  0  0  0  0  0  0  0
   -6.2620   19.3523  -35.0413 H   0  0  0  0  0  0  0  0  0  0  0  0
   -3.9150   23.4721  -32.7289 H   0  0  0  0  0  0  0  0  0  0  0  0
   -3.7442   22.9967  -31.0577 H   0  0  0  0  0  0  0  0  0  0  0  0
   -3.1291   21.4710  -33.4333 H   0  0  0  0  0  0  0  0  0  0  0  0
   -2.9596   20.9204  -31.7627 H   0  0  0  0  0  0  0  0  0  0  0  0
  1  2  1  0
  2  3  1  0
  3  4  1  0
  4  5  1  0
  5  6  1  0
  6  7  2  0
  7  8  1  0
  8  9  2  0
  9 10  1  0
 10 11  2  0
 11 12  1  0
 12 13  2  0
 13 14  1  0
 14 15  2  0
  9 16  1  0
 16 17  1  0
 17 18  1  0
 18 19  1  0
 19 20  1  0
 20 21  1  0
 18  4  1  0
 16  6  1  0
 21 17  2  0
 15 10  1  0
  1 22  1  0
  1 23  1  0
  1 24  1  0
  2 25  1  0
  2 26  1  0
  3 27  1  0
  3 28  1  0
 11 29  1  0
 12 30  1  0
 13 31  1  0
 14 32  1  0
 15 33  1  0
 19 34  1  0
 19 35  1  0
 20 36  1  0
 20 37  1  0
M  END
>  <smiles>  (16) 
CCCn1sc2nnc(-c3ccccc3)n2c2n1CCN=2

>  <score_type>  (16) 
oracle

>  <origin>  (16) 
adg

>  <m_score__min__energy>  (16) 
-7.8099999999999996

>  <m_primary>  (16) 
energy

$$$$
18:0
     RDKit          3D

 64 63  0  0  0  0  0  0  0  0999 V2000
   -0.8500   21.5210  -31.6420 C   0  0  0  0  0  0  0  0  0  0  0  0
   -1.6720   21.3500  -30.4010 C   0  0  0  0  0  0  0  0  0  0  0  0
   -2.7200   22.3160  -30.2380 N   0  0  0  0  0  0  0  0  0  0  0  0
   -3.9030   21.8290  -29.6110 C   0  0  0  0  0  0  0  0  0  0  0  0
   -2.2620   23.6000  -29.7660 C   0  0  0  0  0  0  0  0  0  0  0  0
   -3.3510   24.5700  -29.4520 C   0  0  0  0  0  0  0  0  0  0  0  0
   -3.8690   25.2780  -30.4900 O   0  0  0  0  0  0  0  0  0  0  0  0
   -5.1760   25.6490  -30.4390 C   0  0  0  0  0  0  0  0  0  0  0  0
   -6.1800   24.5560  -30.7150 C   0  0  0  0  0  0  0  0  0  0  0  0
   -6.0630   24.0360  -31.9950 O   0  0  0  0  0  0  0  0  0  0  0  0
   -5.0220   23.1900  -32.1400 N   0  0  0  0  0  0  0  0  0  0  0  0
   -5.1750   21.8990  -32.7080 C   0  0  0  0  0  0  0  0  0  0  0  0
   -6.2740   21.4530  -33.1090 O   0  0  0  0  0  0  0  0  0  0  0  0
   -3.9030   21.0710  -32.8020 C   0  0  0  0  0  0  0  0  0  0  0  0
   -4.2210   19.6520  -33.0660 C   0  0  0  0  0  0  0  0  0  0  0  0
   -5.0390   18.9260  -32.0560 C   0  0  0  0  0  0  0  0  0  0  0  0
   -6.4180   18.9640  -32.0550 N   0  0  0  0  0  0  0  0  0  0  0  0
   -7.2660   17.8610  -32.0400 C   0  0  0  0  0  0  0  0  0  0  0  0
   -8.6690   18.3410  -31.6000 C   0  0  0  0  0  0  0  0  0  0  0  0
   -9.3990   19.0080  -32.7190 C   0  0  0  0  0  0  0  0  0  0  0  0
   -8.9000   20.3570  -32.8820 N   0  0  0  0  0  0  0  0  0  0  0  0
   -9.8110   21.3120  -32.3220 C   0  0  0  0  0  0  0  0  0  0  0  0
   -9.0600   22.4850  -31.7010 C   0  0  0  0  0  0  0  0  0  0  0  0
   -8.4630   22.0080  -30.3890 C   0  0  0  0  0  0  0  0  0  0  0  0
   -7.1720   21.3910  -30.6780 N   0  0  0  0  0  0  0  0  0  0  0  0
    0.1921   21.7378  -31.3646 H   0  0  0  0  0  0  0  0  0  0  0  0
   -0.8864   20.5961  -32.2363 H   0  0  0  0  0  0  0  0  0  0  0  0
   -1.2523   22.3547  -32.2363 H   0  0  0  0  0  0  0  0  0  0  0  0
   -2.1291   20.3498  -30.4280 H   0  0  0  0  0  0  0  0  0  0  0  0
   -0.9861   21.4897  -29.5525 H   0  0  0  0  0  0  0  0  0  0  0  0
   -3.7854   21.8774  -28.5184 H   0  0  0  0  0  0  0  0  0  0  0  0
   -4.7604   22.4473  -29.9153 H   0  0  0  0  0  0  0  0  0  0  0  0
   -4.0766   20.7863  -29.9153 H   0  0  0  0  0  0  0  0  0  0  0  0
   -1.6716   23.4390  -28.8519 H   0  0  0  0  0  0  0  0  0  0  0  0
   -1.6763   24.0428  -30.5851 H   0  0  0  0  0  0  0  0  0  0  0  0
   -4.1754   24.0050  -28.9924 H   0  0  0  0  0  0  0  0  0  0  0  0
   -2.8822   25.3224  -28.8008 H   0  0  0  0  0  0  0  0  0  0  0  0
   -5.3756   26.0444  -29.4321 H   0  0  0  0  0  0  0  0  0  0  0  0
   -5.3089   26.3871  -31.2437 H   0  0  0  0  0  0  0  0  0  0  0  0
   -6.0254   23.7440  -29.9893 H   0  0  0  0  0  0  0  0  0  0  0  0
   -7.1844   24.9952  -30.6241 H   0  0  0  0  0  0  0  0  0  0  0  0
   -4.0920   23.5430  -31.8100 H   0  0  0  0  0  0  0  0  0  0  0  0
   -3.2791   21.4594  -33.6204 H   0  0  0  0  0  0  0  0  0  0  0  0
   -3.3646   21.1404  -31.8453 H   0  0  0  0  0  0  0  0  0  0  0  0
   -4.7650   19.6096  -34.0211 H   0  0  0  0  0  0  0  0  0  0  0  0
   -3.2465   19.1419  -33.0528 H   0  0  0  0  0  0  0  0  0  0  0  0
   -4.7624   17.8650  -32.1439 H   0  0  0  0  0  0  0  0  0  0  0  0
   -4.7970   19.4734  -31.1331 H   0  0  0  0  0  0  0  0  0  0  0  0
   -6.8240   19.8780  -32.3090 H   0  0  0  0  0  0  0  0  0  0  0  0
   -7.3213   17.4192  -33.0459 H   0  0  0  0  0  0  0  0  0  0  0  0
   -6.8878   17.0983  -31.3434 H   0  0  0  0  0  0  0  0  0  0  0  0
   -9.2529   17.4728  -31.2605 H   0  0  0  0  0  0  0  0  0  0  0  0
   -8.5429   19.0722  -30.7879 H   0  0  0  0  0  0  0  0  0  0  0  0
   -9.2400   18.4430  -33.6493 H   0  0  0  0  0  0  0  0  0  0  0  0
  -10.4743   19.0392  -32.4893 H   0  0  0  0  0  0  0  0  0  0  0  0
   -7.9380   20.4750  -32.4920 H   0  0  0  0  0  0  0  0  0  0  0  0
  -10.4715   21.6882  -33.1171 H   0  0  0  0  0  0  0  0  0  0  0  0
  -10.3986   20.8162  -31.5353 H   0  0  0  0  0  0  0  0  0  0  0  0
   -8.2594   22.8179  -32.3779 H   0  0  0  0  0  0  0  0  0  0  0  0
   -9.7414   23.3313  -31.5292 H   0  0  0  0  0  0  0  0  0  0  0  0
   -8.3247   22.8620  -29.7096 H   0  0  0  0  0  0  0  0  0  0  0  0
   -9.1336   21.2821  -29.9059 H   0  0  0  0  0  0  0  0  0  0  0  0
   -7.3350   20.6400  -31.3990 H   0  0  0  0  0  0  0  0  0  0  0  0
   -6.5700   22.1410  -31.0920 H   0  0  0  0  0  0  0  0  0  0  0  0
  1  2  1  0
  2  3  1  0
  3  4  1  0
  3  5  1  0
  5  6  1  0
  6  7  1  0
  7  8  1  0
  8  9  1  0
  9 10  1  0
 10 11  1  0
 11 12  1  0
 12 13  2  0
 12 14  1  0
 14 15  1  0
 15 16  1  0
 16 17  1  0
 17 18  1  0
 18 19  1  0
 19 20  1  0
 20 21  1  0
 21 22  1  0
 22 23  1  0
 23 24  1  0
 24 25  1  0
  1 26  1  0
  1 27  1  0
  1 28  1  0
  2 29  1  0
  2 30  1  0
  4 31  1  0
  4 32  1  0
  4 33  1  0
  5 34  1  0
  5 35  1  0
  6 36  1  0
  6 37  1  0
  8 38  1  0
  8 39  1  0
  9 40  1  0
  9 41  1  0
 11 42  1  0
 14 43  1  0
 14 44  1  0
 15 45  1  0
 15 46  1  0
 16 47  1  0
 16 48  1  0
 17 49  1  0
 18 50  1  0
 18 51  1  0
 19 52  1  0
 19 53  1  0
 20 54  1  0
 20 55  1  0
 21 56  1  0
 22 57  1  0
 22 58  1  0
 23 59  1  0
 23 60  1  0
 24 61  1  0
 24 62  1  0
 25 63  1  0
 25 64  1  0
M  END
>  <smiles>  (17) 
CCN(C)CCOCCONC(=O)CCCNCCCNCCCN

>  <score_type>  (17) 
oracle

>  <origin>  (17) 
adg

>  <m_score__min__energy>  (17) 
-4.8899999999999997

>  <m_primary>  (17) 
energy

$$$$
19:0
     RDKit          3D

 60 62  0  0  0  0  0  0  0  0999 V2000
   -0.3520   22.2870  -29.2940 C   0  0  0  0  0  0  0  0  0  0  0  0
   -1.2890   21.8540  -30.4470 C   0  0  0  0  0  0  0  0  0  0  0  0
   -1.2810   20.3520  -30.4050 C   0  0  0  0  0  0  0  0  0  0  0  0
   -2.5230   22.4930  -30.2840 N   0  0  0  0  0  0  0  0  0  0  0  0
   -3.4710   22.0230  -29.3680 C   0  0  0  0  0  0  0  0  0  0  0  0
   -4.3720   23.0310  -28.7000 C   0  0  0  0  0  0  0  0  0  0  0  0
   -4.0000   24.4360  -29.0500 C   0  0  0  0  0  0  0  0  0  0  0  0
   -4.0970   24.7660  -30.4190 N   0  0  0  0  0  0  0  0  0  0  0  0
   -5.2810   25.4690  -30.8400 C   0  0  0  0  0  0  0  0  0  0  0  0
   -6.4840   24.5970  -30.9760 C   0  0  0  0  0  0  0  0  0  0  0  0
   -6.3320   23.5370  -31.9870 C   0  0  0  0  0  0  0  0  0  0  0  0
   -5.3150   22.5530  -31.8150 N   0  0  0  0  0  0  0  0  0  0  0  0
   -5.5320   21.2530  -32.2950 C   0  0  0  0  0  0  0  0  0  0  0  0
   -6.6710   20.5080  -32.2470 C   0  0  0  0  0  0  0  0  0  0  0  0
   -7.7680   21.0080  -31.6190 C   0  0  0  0  0  0  0  0  0  0  0  0
   -8.9490   20.3200  -31.5190 C   0  0  0  0  0  0  0  0  0  0  0  0
   -9.0720   19.0670  -32.0620 C   0  0  0  0  0  0  0  0  0  0  0  0
   -7.9660   18.5400  -32.7050 C   0  0  0  0  0  0  0  0  0  0  0  0
   -6.7670   19.2390  -32.8070 C   0  0  0  0  0  0  0  0  0  0  0  0
   -5.7040   18.6760  -33.4390 N   0  0  0  0  0  0  0  0  0  0  0  0
   -5.9090   17.3640  -33.9930 C   0  0  0  0  0  0  0  0  0  0  0  0
   -4.5880   19.3850  -33.4930 C   0  0  0  0  0  0  0  0  0  0  0  0
   -3.4860   18.8510  -34.1240 C   0  0  0  0  0  0  0  0  0  0  0  0
   -2.2820   19.5520  -34.2130 C   0  0  0  0  0  0  0  0  0  0  0  0
   -2.1330   20.7990  -33.6820 C   0  0  0  0  0  0  0  0  0  0  0  0
   -3.2510   21.3410  -33.0430 C   0  0  0  0  0  0  0  0  0  0  0  0
   -4.4430   20.6520  -32.9520 C   0  0  0  0  0  0  0  0  0  0  0  0
   -0.8314   22.0655  -28.3291 H   0  0  0  0  0  0  0  0  0  0  0  0
    0.5975   21.7364  -29.3667 H   0  0  0  0  0  0  0  0  0  0  0  0
   -0.1560   23.3670  -29.3667 H   0  0  0  0  0  0  0  0  0  0  0  0
   -0.9804   22.1535  -31.4595 H   0  0  0  0  0  0  0  0  0  0  0  0
   -1.2792   20.0145  -29.3581 H   0  0  0  0  0  0  0  0  0  0  0  0
   -2.1771   19.9662  -30.9131 H   0  0  0  0  0  0  0  0  0  0  0  0
   -0.3808   19.9758  -30.9131 H   0  0  0  0  0  0  0  0  0  0  0  0
   -2.8050   23.0500  -31.0870 H   0  0  0  0  0  0  0  0  0  0  0  0
   -4.1169   21.3108  -29.9024 H   0  0  0  0  0  0  0  0  0  0  0  0
   -2.8731   21.6024  -28.5460 H   0  0  0  0  0  0  0  0  0  0  0  0
   -5.4082   22.8480  -29.0206 H   0  0  0  0  0  0  0  0  0  0  0  0
   -4.2645   22.9130  -27.6117 H   0  0  0  0  0  0  0  0  0  0  0  0
   -4.6633   25.1119  -28.4904 H   0  0  0  0  0  0  0  0  0  0  0  0
   -2.9369   24.5418  -28.7879 H   0  0  0  0  0  0  0  0  0  0  0  0
   -3.7700   24.0410  -31.0850 H   0  0  0  0  0  0  0  0  0  0  0  0
   -5.5018   26.2510  -30.0986 H   0  0  0  0  0  0  0  0  0  0  0  0
   -5.0704   25.8814  -31.8378 H   0  0  0  0  0  0  0  0  0  0  0  0
   -6.6824   24.1238  -30.0030 H   0  0  0  0  0  0  0  0  0  0  0  0
   -7.3134   25.2403  -31.3050 H   0  0  0  0  0  0  0  0  0  0  0  0
   -7.2917   23.0018  -32.0384 H   0  0  0  0  0  0  0  0  0  0  0  0
   -6.0202   24.0804  -32.8912 H   0  0  0  0  0  0  0  0  0  0  0  0
   -4.3970   22.7470  -31.3430 H   0  0  0  0  0  0  0  0  0  0  0  0
   -7.7049   22.0105  -31.1707 H   0  0  0  0  0  0  0  0  0  0  0  0
   -9.8044   20.7763  -30.9994 H   0  0  0  0  0  0  0  0  0  0  0  0
  -10.0134   18.5027  -31.9893 H   0  0  0  0  0  0  0  0  0  0  0  0
   -8.0367   17.5364  -33.1498 H   0  0  0  0  0  0  0  0  0  0  0  0
   -6.0229   16.6351  -33.1770 H   0  0  0  0  0  0  0  0  0  0  0  0
   -6.8178   17.3656  -34.6127 H   0  0  0  0  0  0  0  0  0  0  0  0
   -5.0430   17.0883  -34.6127 H   0  0  0  0  0  0  0  0  0  0  0  0
   -3.5565   17.8474  -34.5687 H   0  0  0  0  0  0  0  0  0  0  0  0
   -1.4287   19.0848  -34.7264 H   0  0  0  0  0  0  0  0  0  0  0  0
   -1.1830   21.3490  -33.7529 H   0  0  0  0  0  0  0  0  0  0  0  0
   -3.1789   22.3453  -32.6000 H   0  0  0  0  0  0  0  0  0  0  0  0
  1  2  1  0
  2  3  1  0
  2  4  1  0
  4  5  1  0
  5  6  1  0
  6  7  1  0
  7  8  1  0
  8  9  1  0
  9 10  1  0
 10 11  1  0
 11 12  1  0
 12 13  1  0
 13 14  2  0
 14 15  1  0
 15 16  2  0
 16 17  1  0
 17 18  2  0
 18 19  1  0
 19 20  2  0
 20 21  1  0
 20 22  1  0
 22 23  2  0
 23 24  1  0
 24 25  2  0
 25 26  1  0
 26 27  2  0
 27 13  1  0
 19 14  1  0
 27 22  1  0
  1 28  1  0
  1 29  1  0
  1 30  1  0
  2 31  1  0
  3 32  1  0
  3 33  1  0
  3 34  1  0
  4 35  1  0
  5 36  1  0
  5 37  1  0
  6 38  1  0
  6 39  1  0
  7 40  1  0
  7 41  1  0
  8 42  1  0
  9 43  1  0
  9 44  1  0
 10 45  1  0
 10 46  1  0
 11 47  1  0
 11 48  1  0
 12 49  1  0
 15 50  1  0
 16 51  1  0
 17 52  1  0
 18 53  1  0
 21 54  1  0
 21 55  1  0
 21 56  1  0
 23 57  1  0
 24 58  1  0
 25 59  1  0
 26 60  1  0
M  CHG  1  20   1
M  END
>  <smiles>  (18) 
CC(C)NCCCNCCCNc1c2ccccc2[n+](C)c2ccccc12

>  <score_type>  (18) 
oracle

>  <origin>  (18) 
adg

>  <m_score__min__energy>  (18) 
-9.5

>  <m_primary>  (18) 
energy

$$$$
20:0
     RDKit          3D

 53 56  0  0  0  0  0  0  0  0999 V2000
   -6.8970   23.5250  -32.3360 C   0  0  0  0  0  0  0  0  0  0  0  0
   -6.2470   23.5030  -30.9970 C   0  0  0  0  0  0  0  0  0  0  0  0
   -5.8120   24.8280  -30.4780 C   0  0  0  0  0  0  0  0  0  0  0  0
   -5.1600   22.5030  -30.8210 C   0  0  0  0  0  0  0  0  0  0  0  0
   -3.8370   22.9480  -31.4940 C   0  0  0  0  0  0  0  0  0  0  0  0
   -3.2320   22.0870  -32.2990 N   0  0  0  0  0  0  0  0  0  0  0  0
   -2.5860   21.1670  -33.1600 C   0  0  0  0  0  0  0  0  0  0  0  0
   -1.3330   21.3180  -33.6600 N   0  0  0  0  0  0  0  0  0  0  0  0
   -0.6560   20.4370  -34.3870 C   0  0  0  0  0  0  0  0  0  0  0  0
    0.6480   20.6790  -34.8800 N   0  0  0  0  0  0  0  0  0  0  0  0
    1.3420   19.6740  -35.6980 C   0  0  0  0  0  0  0  0  0  0  0  0
    2.6200   20.3890  -36.1440 C   0  0  0  0  0  0  0  0  0  0  0  0
    2.3220   21.6060  -36.7430 O   0  0  0  0  0  0  0  0  0  0  0  0
    1.9360   22.5570  -35.7890 C   0  0  0  0  0  0  0  0  0  0  0  0
    1.3010   21.9240  -34.5870 C   0  0  0  0  0  0  0  0  0  0  0  0
   -1.2620   19.2830  -34.6560 N   0  0  0  0  0  0  0  0  0  0  0  0
   -2.4880   19.0430  -34.2180 C   0  0  0  0  0  0  0  0  0  0  0  0
   -3.0030   17.9110  -34.5230 O   0  0  0  0  0  0  0  0  0  0  0  0
   -3.1920   19.9770  -33.4590 C   0  0  0  0  0  0  0  0  0  0  0  0
   -4.5590   19.6150  -33.1870 C   0  0  0  0  0  0  0  0  0  0  0  0
   -5.6000   20.2450  -33.1610 N   0  0  0  0  0  0  0  0  0  0  0  0
   -6.7650   19.7780  -32.7880 C   0  0  0  0  0  0  0  0  0  0  0  0
   -7.9670   20.4910  -32.7240 C   0  0  0  0  0  0  0  0  0  0  0  0
   -9.1110   19.8980  -32.2990 C   0  0  0  0  0  0  0  0  0  0  0  0
   -9.1860   18.5580  -31.8990 C   0  0  0  0  0  0  0  0  0  0  0  0
   -7.9990   17.8750  -31.9690 C   0  0  0  0  0  0  0  0  0  0  0  0
   -6.8200   18.4830  -32.4040 C   0  0  0  0  0  0  0  0  0  0  0  0
   -5.1640   17.9760  -32.5930 S   0  0  0  0  0  0  0  0  0  0  0  0
   -7.9894   23.5620  -32.2127 H   0  0  0  0  0  0  0  0  0  0  0  0
   -6.5606   24.4123  -32.8924 H   0  0  0  0  0  0  0  0  0  0  0  0
   -6.6213   22.6170  -32.8924 H   0  0  0  0  0  0  0  0  0  0  0  0
   -7.0903   23.1680  -30.3752 H   0  0  0  0  0  0  0  0  0  0  0  0
   -5.8176   24.8108  -29.3781 H   0  0  0  0  0  0  0  0  0  0  0  0
   -4.7951   25.0462  -30.8361 H   0  0  0  0  0  0  0  0  0  0  0  0
   -6.5017   25.6065  -30.8361 H   0  0  0  0  0  0  0  0  0  0  0  0
   -4.9797   22.3622  -29.7451 H   0  0  0  0  0  0  0  0  0  0  0  0
   -5.4830   21.5670  -31.3000 H   0  0  0  0  0  0  0  0  0  0  0  0
   -4.0566   23.8499  -32.0842 H   0  0  0  0  0  0  0  0  0  0  0  0
   -3.1347   23.0858  -30.6587 H   0  0  0  0  0  0  0  0  0  0  0  0
   -4.3220   21.9980  -33.0470 H   0  0  0  0  0  0  0  0  0  0  0  0
    1.5800   18.7801  -35.1028 H   0  0  0  0  0  0  0  0  0  0  0  0
    0.7346   19.3193  -36.5437 H   0  0  0  0  0  0  0  0  0  0  0  0
    3.2589   20.5662  -35.2663 H   0  0  0  0  0  0  0  0  0  0  0  0
    3.1413   19.7546  -36.8760 H   0  0  0  0  0  0  0  0  0  0  0  0
    2.8259   23.1173  -35.4664 H   0  0  0  0  0  0  0  0  0  0  0  0
    1.1932   23.2216  -36.2543 H   0  0  0  0  0  0  0  0  0  0  0  0
    2.0826   21.7400  -33.8352 H   0  0  0  0  0  0  0  0  0  0  0  0
    0.5302   22.6185  -34.2215 H   0  0  0  0  0  0  0  0  0  0  0  0
   -0.7840   18.5770  -35.2120 H   0  0  0  0  0  0  0  0  0  0  0  0
   -7.9849   21.5494  -33.0231 H   0  0  0  0  0  0  0  0  0  0  0  0
  -10.0294   20.5026  -32.2669 H   0  0  0  0  0  0  0  0  0  0  0  0
  -10.1213   18.0912  -31.5564 H   0  0  0  0  0  0  0  0  0  0  0  0
   -7.9751   16.8157  -31.6734 H   0  0  0  0  0  0  0  0  0  0  0  0
  1  2  1  0
  2  3  1  0
  2  4  1  0
  4  5  1  0
  5  6  1  0
  6  7  1  0
  7  8  1  0
  8  9  2  0
  9 10  1  0
 10 11  1  0
 11 12  1  0
 12 13  1  0
 13 14  1  0
 14 15  1  0
  9 16  1  0
 16 17  1  0
 17 18  2  0
 17 19  1  0
 19 20  1  0
 20 21  2  0
 21 22  1  0
 22 23  2  0
 23 24  1  0
 24 25  2  0
 25 26  1  0
 26 27  2  0
 27 28  1  0
 19  7  2  0
 28 20  1  0
 15 10  1  0
 27 22  1  0
  1 29  1  0
  1 30  1  0
  1 31  1  0
  2 32  1  0
  3 33  1  0
  3 34  1  0
  3 35  1  0
  4 36  1  0
  4 37  1  0
  5 38  1  0
  5 39  1  0
  6 40  1  0
 11 41  1  0
 11 42  1  0
 12 43  1  0
 12 44  1  0
 14 45  1  0
 14 46  1  0
 15 47  1  0
 15 48  1  0
 16 49  1  0
 23 50  1  0
 24 51  1  0
 25 52  1  0
 26 53  1  0
M  END
>  <smiles>  (19) 
CC(C)CCNc1nc(N2CCOCC2)[nH]c(=O)c1-c1nc2ccccc2s1

>  <score_type>  (19) 
oracle

>  <origin>  (19) 
adg

>  <m_score__min__energy>  (19) 
-7.7800000000000002

>  <m_primary>  (19) 
energy

$$$$
21:0
     RDKit          3D

 60 62  0  0  0  0  0  0  0  0999 V2000
   -0.8510   27.4290  -36.0050 C   0  0  0  0  0  0  0  0  0  0  0  0
   -0.8480   26.1210  -36.8060 C   0  0  0  0  0  0  0  0  0  0  0  0
    0.0350   25.2510  -36.1920 O   0  0  0  0  0  0  0  0  0  0  0  0
    1.2770   25.7990  -36.0810 C   0  0  0  0  0  0  0  0  0  0  0  0
    2.3870   24.8810  -35.7690 C   0  0  0  0  0  0  0  0  0  0  0  0
    2.2050   23.4290  -35.6370 C   0  0  0  0  0  0  0  0  0  0  0  0
    1.0360   22.8190  -35.2370 N   0  0  0  0  0  0  0  0  0  0  0  0
    0.9000   21.5290  -34.7470 C   0  0  0  0  0  0  0  0  0  0  0  0
   -0.4990   21.0200  -35.1580 C   0  0  0  0  0  0  0  0  0  0  0  0
   -1.1270   20.2820  -34.2050 O   0  0  0  0  0  0  0  0  0  0  0  0
   -1.0590   20.7240  -32.9120 C   0  0  0  0  0  0  0  0  0  0  0  0
   -2.4280   21.2040  -32.4920 C   0  0  0  0  0  0  0  0  0  0  0  0
   -3.3620   21.0890  -33.5800 N   0  0  0  0  0  0  0  0  0  0  0  0
   -4.7120   20.7210  -33.2190 C   0  0  0  0  0  0  0  0  0  0  0  0
   -5.1800   19.4560  -33.4930 C   0  0  0  0  0  0  0  0  0  0  0  0
   -4.3060   18.5900  -34.1170 C   0  0  0  0  0  0  0  0  0  0  0  0
   -4.6920   17.3030  -34.4360 C   0  0  0  0  0  0  0  0  0  0  0  0
   -5.9800   16.9340  -34.1020 C   0  0  0  0  0  0  0  0  0  0  0  0
   -6.8480   17.8050  -33.4790 C   0  0  0  0  0  0  0  0  0  0  0  0
   -6.4720   19.1050  -33.1500 C   0  0  0  0  0  0  0  0  0  0  0  0
   -7.3270   19.9640  -32.5420 N   0  0  0  0  0  0  0  0  0  0  0  0
   -8.6560   19.5390  -32.1910 C   0  0  0  0  0  0  0  0  0  0  0  0
   -6.8520   21.1980  -32.2820 C   0  0  0  0  0  0  0  0  0  0  0  0
   -7.6640   22.1480  -31.6670 C   0  0  0  0  0  0  0  0  0  0  0  0
   -7.1940   23.4200  -31.3990 C   0  0  0  0  0  0  0  0  0  0  0  0
   -5.9050   23.8060  -31.7280 C   0  0  0  0  0  0  0  0  0  0  0  0
   -5.0910   22.8680  -32.3400 C   0  0  0  0  0  0  0  0  0  0  0  0
   -5.5700   21.6000  -32.6030 C   0  0  0  0  0  0  0  0  0  0  0  0
   -0.8505   27.2001  -34.9291 H   0  0  0  0  0  0  0  0  0  0  0  0
    0.0458   28.0146  -36.2557 H   0  0  0  0  0  0  0  0  0  0  0  0
   -1.7505   28.0104  -36.2557 H   0  0  0  0  0  0  0  0  0  0  0  0
   -1.8579   25.6851  -36.8144 H   0  0  0  0  0  0  0  0  0  0  0  0
   -0.5423   26.3081  -37.8460 H   0  0  0  0  0  0  0  0  0  0  0  0
    1.5104   26.2891  -37.0378 H   0  0  0  0  0  0  0  0  0  0  0  0
    1.2145   26.4765  -35.2167 H   0  0  0  0  0  0  0  0  0  0  0  0
    3.1322   25.0230  -36.5656 H   0  0  0  0  0  0  0  0  0  0  0  0
    2.6307   25.1696  -34.7359 H   0  0  0  0  0  0  0  0  0  0  0  0
    2.4306   23.0120  -36.6296 H   0  0  0  0  0  0  0  0  0  0  0  0
    2.8478   23.2230  -34.7684 H   0  0  0  0  0  0  0  0  0  0  0  0
    0.2090   23.4200  -35.0420 H   0  0  0  0  0  0  0  0  0  0  0  0
    1.6769   20.8801  -35.1775 H   0  0  0  0  0  0  0  0  0  0  0  0
    1.0099   21.5173  -33.6526 H   0  0  0  0  0  0  0  0  0  0  0  0
   -1.1287   21.8918  -35.3894 H   0  0  0  0  0  0  0  0  0  0  0  0
   -0.3518   20.3576  -36.0238 H   0  0  0  0  0  0  0  0  0  0  0  0
   -0.7377   19.9015  -32.2560 H   0  0  0  0  0  0  0  0  0  0  0  0
   -0.3332   21.5469  -32.8348 H   0  0  0  0  0  0  0  0  0  0  0  0
   -2.7809   20.5947  -31.6469 H   0  0  0  0  0  0  0  0  0  0  0  0
   -2.3573   22.2612  -32.1963 H   0  0  0  0  0  0  0  0  0  0  0  0
   -3.1190   21.2520  -34.5830 H   0  0  0  0  0  0  0  0  0  0  0  0
   -3.2889   18.9289  -34.3635 H   0  0  0  0  0  0  0  0  0  0  0  0
   -4.0044   16.6034  -34.9337 H   0  0  0  0  0  0  0  0  0  0  0  0
   -6.3231   15.9163  -34.3398 H   0  0  0  0  0  0  0  0  0  0  0  0
   -7.8650   17.4641  -33.2351 H   0  0  0  0  0  0  0  0  0  0  0  0
   -8.7537   19.5078  -31.0958 H   0  0  0  0  0  0  0  0  0  0  0  0
   -9.3888   20.2476  -32.6044 H   0  0  0  0  0  0  0  0  0  0  0  0
   -8.8416   18.5367  -32.6044 H   0  0  0  0  0  0  0  0  0  0  0  0
   -8.6949   21.8820  -31.3904 H   0  0  0  0  0  0  0  0  0  0  0  0
   -7.8617   24.1454  -30.9112 H   0  0  0  0  0  0  0  0  0  0  0  0
   -5.5412   24.8211  -31.5109 H   0  0  0  0  0  0  0  0  0  0  0  0
   -4.0602   23.1336  -32.6174 H   0  0  0  0  0  0  0  0  0  0  0  0
  1  2  1  0
  2  3  1  0
  3  4  1  0
  4  5  1  0
  5  6  1  0
  6  7  1  0
  7  8  1  0
  8  9  1  0
  9 10  1  0
 10 11  1  0
 11 12  1  0
 12 13  1  0
 13 14  1  0
 14 15  2  0
 15 16  1  0
 16 17  2  0
 17 18  1  0
 18 19  2  0
 19 20  1  0
 20 21  2  0
 21 22  1  0
 21 23  1  0
 23 24  2  0
 24 25  1  0
 25 26  2  0
 26 27  1  0
 27 28  2  0
 28 14  1  0
 20 15  1  0
 28 23  1  0
  1 29  1  0
  1 30  1  0
  1 31  1  0
  2 32  1  0
  2 33  1  0
  4 34  1  0
  4 35  1  0
  5 36  1  0
  5 37  1  0
  6 38  1  0
  6 39  1  0
  7 40  1  0
  8 41  1  0
  8 42  1  0
  9 43  1  0
  9 44  1  0
 11 45  1  0
 11 46  1  0
 12 47  1  0
 12 48  1  0
 13 49  1  0
 16 50  1  0
 17 51  1  0
 18 52  1  0
 19 53  1  0
 22 54  1  0
 22 55  1  0
 22 56  1  0
 24 57  1  0
 25 58  1  0
 26 59  1  0
 27 60  1  0
M  CHG  1  21   1
M  END
>  <smiles>  (20) 
CCOCCCNCCOCCNc1c2ccccc2[n+](C)c2ccccc12

>  <score_type>  (20) 
oracle

>  <origin>  (20) 
adg

>  <m_score__min__energy>  (20) 
-8.7899999999999991

>  <m_primary>  (20) 
energy

$$$$
