0:0
     RDKit          3D

 20 20  0  0  0  0  0  0  0  0999 V2000
   -6.8980   23.8490  -30.9780 C   0  0  0  0  0  0  0  0  0  0  0  0
   -6.2920   24.9290  -30.4860 C   0  0  0  0  0  0  0  0  0  0  0  0
   -4.9010   24.9070  -30.0000 C   0  0  0  0  0  0  0  0  0  0  0  0
   -3.9620   25.2960  -30.7490 O   0  0  0  0  0  0  0  0  0  0  0  0
   -4.6190   24.4010  -28.6860 N   0  0  0  0  0  0  0  0  0  0  0  0
   -3.3460   24.5260  -28.0290 C   0  0  0  0  0  0  0  0  0  0  0  0
   -3.3020   24.9230  -26.6830 C   0  0  0  0  0  0  0  0  0  0  0  0
   -2.0740   25.0730  -26.0290 C   0  0  0  0  0  0  0  0  0  0  0  0
   -0.8810   24.8440  -26.7170 C   0  0  0  0  0  0  0  0  0  0  0  0
   -0.9130   24.4730  -28.0640 C   0  0  0  0  0  0  0  0  0  0  0  0
   -2.1370   24.3200  -28.7210 C   0  0  0  0  0  0  0  0  0  0  0  0
   -7.9385   23.9141  -31.3290 H   0  0  0  0  0  0  0  0  0  0  0  0
   -6.3578   22.8924  -31.0331 H   0  0  0  0  0  0  0  0  0  0  0  0
   -6.8523   25.8745  -30.4408 H   0  0  0  0  0  0  0  0  0  0  0  0
   -5.3590   23.8350  -28.2130 H   0  0  0  0  0  0  0  0  0  0  0  0
   -4.2383   25.1173  -26.1394 H   0  0  0  0  0  0  0  0  0  0  0  0
   -2.0486   25.3719  -24.9707 H   0  0  0  0  0  0  0  0  0  0  0  0
    0.0832   24.9555  -26.1994 H   0  0  0  0  0  0  0  0  0  0  0  0
    0.0273   24.3010  -28.6083 H   0  0  0  0  0  0  0  0  0  0  0  0
   -2.1561   24.0373  -29.7839 H   0  0  0  0  0  0  0  0  0  0  0  0
  1  2  2  0
  2  3  1  0
  3  4  2  0
  3  5  1  0
  5  6  1  0
  6  7  2  0
  7  8  1  0
  8  9  2  0
  9 10  1  0
 10 11  2  0
 11  6  1  0
  1 12  1  0
  1 13  1  0
  2 14  1  0
  5 15  1  0
  7 16  1  0
  8 17  1  0
  9 18  1  0
 10 19  1  0
 11 20  1  0
M  END
>  <UniqueID>  (1) 
1

>  <SMILES>  (1) 
C=CC(=O)Nc1ccccc1

>  <Energy>  (1) 
19.880116865980767

>  <Genealogy>  (1) 
C=CC(=O)Nc1ccccc1 (3D coordinates assigned)
C=CC(=O)Nc1ccccc1 (optimized conformer: 19.880116865980767 kcal/mol)

>  <smiles>  (1) 
C=CC(=O)Nc1ccccc1

>  <score_type>  (1) 
oracle

>  <origin>  (1) 
adg

>  <m_score__min__energy>  (1) 
-5.1600000000000001

>  <m_primary>  (1) 
energy

$$$$
1:0
     RDKit          3D

 39 42  0  0  0  0  0  0  0  0999 V2000
   -0.7120   16.3620  -35.4480 C   0  0  0  0  0  0  0  0  0  0  0  0
   -1.1360   17.7150  -35.3140 O   0  0  0  0  0  0  0  0  0  0  0  0
   -2.1730   18.1400  -34.4710 C   0  0  0  0  0  0  0  0  0  0  0  0
   -1.9410   18.9210  -33.3240 C   0  0  0  0  0  0  0  0  0  0  0  0
   -3.0080   19.3200  -32.5140 C   0  0  0  0  0  0  0  0  0  0  0  0
   -4.3280   18.9470  -32.8290 C   0  0  0  0  0  0  0  0  0  0  0  0
   -5.4250   19.3650  -31.9840 N   0  0  0  0  0  0  0  0  0  0  0  0
   -6.2070   18.3900  -31.2190 C   0  0  0  0  0  0  0  0  0  0  0  0
   -5.6310   20.7620  -31.7160 C   0  0  0  0  0  0  0  0  0  0  0  0
   -4.5430   21.5780  -31.3530 C   0  0  0  0  0  0  0  0  0  0  0  0
   -4.7250   22.9550  -31.0860 C   0  0  0  0  0  0  0  0  0  0  0  0
   -3.6490   23.7860  -30.7170 C   0  0  0  0  0  0  0  0  0  0  0  0
   -2.4810   23.3230  -30.6110 O   0  0  0  0  0  0  0  0  0  0  0  0
   -3.8640   25.1050  -30.4700 N   0  0  0  0  0  0  0  0  0  0  0  0
   -5.0970   25.6690  -30.5680 C   0  0  0  0  0  0  0  0  0  0  0  0
   -6.1980   24.8930  -30.9300 C   0  0  0  0  0  0  0  0  0  0  0  0
   -6.0200   23.5280  -31.1920 C   0  0  0  0  0  0  0  0  0  0  0  0
   -7.0830   22.6950  -31.5650 C   0  0  0  0  0  0  0  0  0  0  0  0
   -8.7030   23.0850  -31.7980 S   0  0  0  0  0  0  0  0  0  0  0  0
   -9.1900   21.5320  -32.2410 C   0  0  0  0  0  0  0  0  0  0  0  0
   -8.0830   20.6880  -32.2120 C   0  0  0  0  0  0  0  0  0  0  0  0
   -6.9040   21.3430  -31.8260 C   0  0  0  0  0  0  0  0  0  0  0  0
   -4.5520   18.1670  -33.9800 C   0  0  0  0  0  0  0  0  0  0  0  0
   -3.4830   17.7690  -34.7880 C   0  0  0  0  0  0  0  0  0  0  0  0
   -0.5737   15.9206  -34.4500 H   0  0  0  0  0  0  0  0  0  0  0  0
   -1.4745   15.7916  -35.9987 H   0  0  0  0  0  0  0  0  0  0  0  0
    0.2396   16.3288  -35.9987 H   0  0  0  0  0  0  0  0  0  0  0  0
   -0.9148   19.2191  -33.0633 H   0  0  0  0  0  0  0  0  0  0  0  0
   -2.8139   19.9321  -31.6208 H   0  0  0  0  0  0  0  0  0  0  0  0
   -6.0639   18.5684  -30.1430 H   0  0  0  0  0  0  0  0  0  0  0  0
   -7.2727   18.4968  -31.4699 H   0  0  0  0  0  0  0  0  0  0  0  0
   -5.8714   17.3729  -31.4699 H   0  0  0  0  0  0  0  0  0  0  0  0
   -3.5375   21.1388  -31.2759 H   0  0  0  0  0  0  0  0  0  0  0  0
   -5.2269   26.7415  -30.3610 H   0  0  0  0  0  0  0  0  0  0  0  0
   -7.1963   25.3481  -31.0091 H   0  0  0  0  0  0  0  0  0  0  0  0
  -10.2146   21.2347  -32.5090 H   0  0  0  0  0  0  0  0  0  0  0  0
   -8.1282   19.6186  -32.4655 H   0  0  0  0  0  0  0  0  0  0  0  0
   -5.5769   17.8684  -34.2454 H   0  0  0  0  0  0  0  0  0  0  0  0
   -3.6745   17.1577  -35.6822 H   0  0  0  0  0  0  0  0  0  0  0  0
  1  2  1  0
  2  3  1  0
  3  4  2  0
  4  5  1  0
  5  6  2  0
  6  7  1  0
  7  8  1  0
  7  9  1  0
  9 10  2  0
 10 11  1  0
 11 12  1  0
 12 13  2  0
 12 14  1  0
 14 15  1  0
 15 16  2  0
 16 17  1  0
 17 18  1  0
 18 19  1  0
 19 20  1  0
 20 21  2  0
 21 22  1  0
  6 23  1  0
 23 24  2  0
 24  3  1  0
 22  9  1  0
 17 11  2  0
 22 18  2  0
  1 25  1  0
  1 26  1  0
  1 27  1  0
  4 28  1  0
  5 29  1  0
  8 30  1  0
  8 31  1  0
  8 32  1  0
 10 33  1  0
 15 34  1  0
 16 35  1  0
 20 36  1  0
 21 37  1  0
 23 38  1  0
 24 39  1  0
M  CHG  1  14  -1
M  END
>  <UniqueID>  (2) 
2

>  <SMILES>  (2) 
COc1ccc(N(C)c2cc3c(=O)[n-]ccc3c3sccc23)cc1

>  <Energy>  (2) 
87.9026898881187

>  <Genealogy>  (2) 
COc1ccc(N(C)c2cc3c(=O)[n-]ccc3c3sccc23)cc1 (protonated)
COc1ccc(N(C)c2cc3c(=O)[n-]ccc3c3sccc23)cc1 (3D coordinates assigned)
COc1ccc(N(C)c2cc3c(=O)[n-]ccc3c3sccc23)cc1 (optimized conformer: 87.9026898881187 kcal/mol)

>  <smiles>  (2) 
COc1ccc(N(C)c2cc3c(=O)[nH]ccc3c3sccc23)cc1

>  <score_type>  (2) 
oracle

>  <origin>  (2) 
adg

>  <m_score__min__energy>  (2) 
-9.2300000000000004

>  <m_primary>  (2) 
energy

$$$$
2:0
     RDKit          3D

 50 52  0  0  0  0  0  0  0  0999 V2000
   -6.4760   21.2410  -32.7280 C   0  0  0  0  0  0  0  0  0  0  0  0
   -5.6900   22.2770  -31.9780 C   0  0  0  0  0  0  0  0  0  0  0  0
   -4.2910   22.1890  -31.9140 C   0  0  0  0  0  0  0  0  0  0  0  0
   -3.5570   23.1310  -31.1840 C   0  0  0  0  0  0  0  0  0  0  0  0
   -4.2140   24.1760  -30.5070 C   0  0  0  0  0  0  0  0  0  0  0  0
   -3.4930   25.1340  -29.7170 N   0  0  0  0  0  0  0  0  0  0  0  0
   -2.2510   24.9230  -29.0300 C   0  0  0  0  0  0  0  0  0  0  0  0
   -1.2550   25.6460  -29.3080 O   0  0  0  0  0  0  0  0  0  0  0  0
   -2.1880   23.9610  -27.8450 C   0  0  0  0  0  0  0  0  0  0  0  0
   -2.9290   24.6480  -26.6700 C   0  0  0  0  0  0  0  0  0  0  0  0
   -4.2970   24.7890  -26.9530 O   0  0  0  0  0  0  0  0  0  0  0  0
   -2.9180   22.6170  -28.1940 C   0  0  0  0  0  0  0  0  0  0  0  0
   -1.9940   21.6250  -28.9100 C   0  0  0  0  0  0  0  0  0  0  0  0
   -0.8170   21.3300  -28.0810 N   0  0  0  0  0  0  0  0  0  0  0  0
   -0.2950   19.9910  -28.0600 C   0  0  0  0  0  0  0  0  0  0  0  0
    0.8150   19.7020  -28.8010 N   0  0  0  0  0  0  0  0  0  0  0  0
    1.3490   18.4530  -28.8400 C   0  0  0  0  0  0  0  0  0  0  0  0
    0.7630   17.4190  -28.1110 C   0  0  0  0  0  0  0  0  0  0  0  0
   -0.3690   17.6800  -27.3350 C   0  0  0  0  0  0  0  0  0  0  0  0
   -0.9180   18.9760  -27.2920 C   0  0  0  0  0  0  0  0  0  0  0  0
   -2.1410   19.2710  -26.4480 C   0  0  0  0  0  0  0  0  0  0  0  0
   -3.1900   19.6450  -27.2710 F   0  0  0  0  0  0  0  0  0  0  0  0
   -2.5070   18.1390  -25.7310 F   0  0  0  0  0  0  0  0  0  0  0  0
   -1.9030   20.2990  -25.5460 F   0  0  0  0  0  0  0  0  0  0  0  0
   -0.4270   22.2540  -27.0090 C   0  0  0  0  0  0  0  0  0  0  0  0
   -0.6860   23.6970  -27.4540 C   0  0  0  0  0  0  0  0  0  0  0  0
   -5.6190   24.2380  -30.5390 C   0  0  0  0  0  0  0  0  0  0  0  0
   -6.4820   25.5020  -29.6680 Cl  0  0  0  0  0  0  0  0  0  0  0  0
   -6.3510   23.2950  -31.2720 C   0  0  0  0  0  0  0  0  0  0  0  0
   -6.9811   20.5752  -32.0128 H   0  0  0  0  0  0  0  0  0  0  0  0
   -7.2269   21.7372  -33.3604 H   0  0  0  0  0  0  0  0  0  0  0  0
   -5.7959   20.6515  -33.3604 H   0  0  0  0  0  0  0  0  0  0  0  0
   -3.7689   21.3761  -32.4399 H   0  0  0  0  0  0  0  0  0  0  0  0
   -2.4606   23.0544  -31.1390 H   0  0  0  0  0  0  0  0  0  0  0  0
   -2.8102   24.0370  -25.7631 H   0  0  0  0  0  0  0  0  0  0  0  0
   -2.4968   25.6483  -26.5194 H   0  0  0  0  0  0  0  0  0  0  0  0
   -4.3550   25.3610  -27.7650 H   0  0  0  0  0  0  0  0  0  0  0  0
   -3.2776   22.1568  -27.2619 H   0  0  0  0  0  0  0  0  0  0  0  0
   -3.7517   22.8518  -28.8721 H   0  0  0  0  0  0  0  0  0  0  0  0
   -2.5440   20.6922  -29.1032 H   0  0  0  0  0  0  0  0  0  0  0  0
   -1.6594   22.0704  -29.8585 H   0  0  0  0  0  0  0  0  0  0  0  0
    1.2700   20.4610  -29.3590 H   0  0  0  0  0  0  0  0  0  0  0  0
    2.2449   18.2575  -29.4476 H   0  0  0  0  0  0  0  0  0  0  0  0
    1.1888   16.4054  -28.1466 H   0  0  0  0  0  0  0  0  0  0  0  0
   -0.8337   16.8692  -26.7548 H   0  0  0  0  0  0  0  0  0  0  0  0
   -1.0176   22.0377  -26.1065 H   0  0  0  0  0  0  0  0  0  0  0  0
    0.6431   22.1265  -26.7884 H   0  0  0  0  0  0  0  0  0  0  0  0
   -0.4149   24.3721  -26.6289 H   0  0  0  0  0  0  0  0  0  0  0  0
   -0.0761   23.8787  -28.3512 H   0  0  0  0  0  0  0  0  0  0  0  0
   -7.4493   23.3523  -31.2946 H   0  0  0  0  0  0  0  0  0  0  0  0
  1  2  1  0
  2  3  2  0
  3  4  1  0
  4  5  2  0
  5  6  1  0
  6  7  1  0
  7  8  2  0
  7  9  1  0
  9 10  1  0
 10 11  1  0
  9 12  1  0
 12 13  1  0
 13 14  1  0
 14 15  1  0
 15 16  2  0
 16 17  1  0
 17 18  2  0
 18 19  1  0
 19 20  2  0
 20 21  1  0
 21 22  1  0
 21 23  1  0
 21 24  1  0
 14 25  1  0
 25 26  1  0
  5 27  1  0
 27 28  1  0
 27 29  2  0
 29  2  1  0
 26  9  1  0
 20 15  1  0
  1 30  1  0
  1 31  1  0
  1 32  1  0
  3 33  1  0
  4 34  1  0
 10 35  1  0
 10 36  1  0
 11 37  1  0
 12 38  1  0
 12 39  1  0
 13 40  1  0
 13 41  1  0
 16 42  1  0
 17 43  1  0
 18 44  1  0
 19 45  1  0
 25 46  1  0
 25 47  1  0
 26 48  1  0
 26 49  1  0
 29 50  1  0
M  CHG  2   6  -1  16   1
M  END
>  <UniqueID>  (3) 
3

>  <SMILES>  (3) 
Cc1ccc([N-]C(=O)C2(CO)CCN(c3[nH+]cccc3C(F)(F)F)CC2)c(Cl)c1

>  <Energy>  (3) 
67.63316520493952

>  <Genealogy>  (3) 
Cc1ccc([N-]C(=O)C2(CO)CCN(c3[nH+]cccc3C(F)(F)F)CC2)c(Cl)c1 (protonated)
Cc1ccc([N-]C(=O)C2(CO)CCN(c3[nH+]cccc3C(F)(F)F)CC2)c(Cl)c1 (3D coordinates assigned)
Cc1ccc([N-]C(=O)C2(CO)CCN(c3[nH+]cccc3C(F)(F)F)CC2)c(Cl)c1 (nonaromatic ring conformer: 67.63316520493952 kcal/mol)

>  <smiles>  (3) 
Cc1ccc(NC(=O)C2(CO)CCN(c3ncccc3C(F)(F)F)CC2)c(Cl)c1

>  <score_type>  (3) 
oracle

>  <origin>  (3) 
adg

>  <m_score__min__energy>  (3) 
-9.9399999999999995

>  <m_primary>  (3) 
energy

$$$$
3:0
     RDKit          3D

 35 36  0  0  0  0  0  0  0  0999 V2000
   -9.4430   21.5530  -31.6690 C   0  0  0  0  0  0  0  0  0  0  0  0
   -8.2800   22.0570  -30.8240 C   0  0  0  0  0  0  0  0  0  0  0  0
   -7.0370   22.0300  -31.5960 N   0  0  0  0  0  0  0  0  0  0  0  0
   -6.6190   21.0480  -32.4140 C   0  0  0  0  0  0  0  0  0  0  0  0
   -5.4710   21.3870  -33.0320 N   0  0  0  0  0  0  0  0  0  0  0  0
   -5.1470   22.6030  -32.6170 N   0  0  0  0  0  0  0  0  0  0  0  0
   -6.0970   22.9880  -31.7420 C   0  0  0  0  0  0  0  0  0  0  0  0
   -6.1270   24.3470  -31.1050 C   0  0  0  0  0  0  0  0  0  0  0  0
   -4.7890   24.9270  -31.0780 N   0  0  0  0  0  0  0  0  0  0  0  0
   -3.6440   24.3170  -30.4690 C   0  0  0  0  0  0  0  0  0  0  0  0
   -3.2300   23.2180  -30.9250 O   0  0  0  0  0  0  0  0  0  0  0  0
   -2.9860   24.9260  -29.3450 N   0  0  0  0  0  0  0  0  0  0  0  0
   -1.7340   24.4560  -28.8200 C   0  0  0  0  0  0  0  0  0  0  0  0
   -1.5160   23.0780  -28.6930 C   0  0  0  0  0  0  0  0  0  0  0  0
   -0.3090   22.6040  -28.1780 C   0  0  0  0  0  0  0  0  0  0  0  0
    0.6680   23.5160  -27.7800 C   0  0  0  0  0  0  0  0  0  0  0  0
    0.4320   24.8510  -27.8770 N   0  0  0  0  0  0  0  0  0  0  0  0
   -0.7370   25.3450  -28.3740 C   0  0  0  0  0  0  0  0  0  0  0  0
   -0.9580   26.7260  -28.4140 O   0  0  0  0  0  0  0  0  0  0  0  0
   -0.4920   27.6120  -27.4050 C   0  0  0  0  0  0  0  0  0  0  0  0
  -10.2508   21.2029  -31.0095 H   0  0  0  0  0  0  0  0  0  0  0  0
   -9.8161   22.3701  -32.3038 H   0  0  0  0  0  0  0  0  0  0  0  0
   -9.1019   20.7220  -32.3038 H   0  0  0  0  0  0  0  0  0  0  0  0
   -8.4853   23.0893  -30.5042 H   0  0  0  0  0  0  0  0  0  0  0  0
   -8.1682   21.4036  -29.9462 H   0  0  0  0  0  0  0  0  0  0  0  0
   -7.1454   20.0931  -32.5594 H   0  0  0  0  0  0  0  0  0  0  0  0
   -6.7946   25.0032  -31.6827 H   0  0  0  0  0  0  0  0  0  0  0  0
   -6.4934   24.2484  -30.0725 H   0  0  0  0  0  0  0  0  0  0  0  0
   -3.5020   25.6370  -28.7830 H   0  0  0  0  0  0  0  0  0  0  0  0
   -2.2982   22.3681  -29.0000 H   0  0  0  0  0  0  0  0  0  0  0  0
   -0.1300   21.5225  -28.0869 H   0  0  0  0  0  0  0  0  0  0  0  0
    1.6300   23.1548  -27.3874 H   0  0  0  0  0  0  0  0  0  0  0  0
   -0.7145   27.1890  -26.4143 H   0  0  0  0  0  0  0  0  0  0  0  0
    0.5945   27.7483  -27.5099 H   0  0  0  0  0  0  0  0  0  0  0  0
   -0.9953   28.5844  -27.5099 H   0  0  0  0  0  0  0  0  0  0  0  0
  1  2  1  0
  2  3  1  0
  3  4  1  0
  4  5  2  0
  5  6  1  0
  6  7  2  0
  7  8  1  0
  8  9  1  0
  9 10  1  0
 10 11  2  0
 10 12  1  0
 12 13  1  0
 13 14  2  0
 14 15  1  0
 15 16  2  0
 16 17  1  0
 17 18  2  0
 18 19  1  0
 19 20  1  0
  7  3  1  0
 18 13  1  0
  1 21  1  0
  1 22  1  0
  1 23  1  0
  2 24  1  0
  2 25  1  0
  4 26  1  0
  8 27  1  0
  8 28  1  0
 12 29  1  0
 14 30  1  0
 15 31  1  0
 16 32  1  0
 20 33  1  0
 20 34  1  0
 20 35  1  0
M  CHG  1   9  -1
M  END
>  <UniqueID>  (4) 
4

>  <SMILES>  (4) 
CCn1cnnc1C[N-]C(=O)Nc1cccnc1OC

>  <Energy>  (4) 
66.8332406133715

>  <Genealogy>  (4) 
CCn1cnnc1C[N-]C(=O)Nc1cccnc1OC (protonated)
CCn1cnnc1C[N-]C(=O)Nc1cccnc1OC (3D coordinates assigned)
CCn1cnnc1C[N-]C(=O)Nc1cccnc1OC (optimized conformer: 66.8332406133715 kcal/mol)

>  <smiles>  (4) 
CCn1cnnc1CNC(=O)Nc1cccnc1OC

>  <score_type>  (4) 
oracle

>  <origin>  (4) 
adg

>  <m_score__min__energy>  (4) 
-8.0700000000000003

>  <m_primary>  (4) 
energy

$$$$
4:0
     RDKit          3D

 32 33  0  0  0  0  0  0  0  0999 V2000
   -3.7510   21.8060  -32.7480 C   0  0  0  0  0  0  0  0  0  0  0  0
   -3.7380   22.9110  -31.8510 O   0  0  0  0  0  0  0  0  0  0  0  0
   -4.8790   23.4620  -31.2460 C   0  0  0  0  0  0  0  0  0  0  0  0
   -6.1520   22.8750  -31.3970 C   0  0  0  0  0  0  0  0  0  0  0  0
   -7.2810   23.4810  -30.8400 C   0  0  0  0  0  0  0  0  0  0  0  0
   -7.1580   24.6780  -30.1360 C   0  0  0  0  0  0  0  0  0  0  0  0
   -5.9010   25.2640  -29.9710 C   0  0  0  0  0  0  0  0  0  0  0  0
   -4.7560   24.6510  -30.4930 C   0  0  0  0  0  0  0  0  0  0  0  0
   -3.4900   25.2950  -30.2980 N   0  0  0  0  0  0  0  0  0  0  0  0
   -2.5040   24.9130  -29.3320 C   0  0  0  0  0  0  0  0  0  0  0  0
   -1.5140   25.6620  -29.1210 O   0  0  0  0  0  0  0  0  0  0  0  0
   -2.6230   23.6170  -28.6210 C   0  0  0  0  0  0  0  0  0  0  0  0
   -2.0020   22.4260  -28.9690 C   0  0  0  0  0  0  0  0  0  0  0  0
   -0.9040   22.1020  -30.3050 Cl  0  0  0  0  0  0  0  0  0  0  0  0
   -2.4210   21.5170  -28.0170 C   0  0  0  0  0  0  0  0  0  0  0  0
   -2.0140   20.0830  -27.9250 C   0  0  0  0  0  0  0  0  0  0  0  0
   -3.2420   22.1230  -27.1400 N   0  0  0  0  0  0  0  0  0  0  0  0
   -3.3650   23.3880  -27.5100 N   0  0  0  0  0  0  0  0  0  0  0  0
   -4.1970   24.3440  -26.7840 C   0  0  0  0  0  0  0  0  0  0  0  0
   -3.7620   20.8678  -32.1739 H   0  0  0  0  0  0  0  0  0  0  0  0
   -4.6486   21.8587  -33.3817 H   0  0  0  0  0  0  0  0  0  0  0  0
   -2.8524   21.8375  -33.3817 H   0  0  0  0  0  0  0  0  0  0  0  0
   -6.2570   21.9340  -31.9569 H   0  0  0  0  0  0  0  0  0  0  0  0
   -8.2693   23.0125  -30.9572 H   0  0  0  0  0  0  0  0  0  0  0  0
   -8.0503   25.1606  -29.7108 H   0  0  0  0  0  0  0  0  0  0  0  0
   -5.8100   26.2153  -29.4262 H   0  0  0  0  0  0  0  0  0  0  0  0
   -1.9315   19.7924  -26.8673 H   0  0  0  0  0  0  0  0  0  0  0  0
   -2.7694   19.4550  -28.4200 H   0  0  0  0  0  0  0  0  0  0  0  0
   -1.0413   19.9454  -28.4200 H   0  0  0  0  0  0  0  0  0  0  0  0
   -4.0674   24.1951  -25.7018 H   0  0  0  0  0  0  0  0  0  0  0  0
   -3.8976   25.3681  -27.0517 H   0  0  0  0  0  0  0  0  0  0  0  0
   -5.2526   24.1888  -27.0517 H   0  0  0  0  0  0  0  0  0  0  0  0
  1  2  1  0
  2  3  1  0
  3  4  2  0
  4  5  1  0
  5  6  2  0
  6  7  1  0
  7  8  2  0
  8  9  1  0
  9 10  1  0
 10 11  2  0
 10 12  1  0
 12 13  2  0
 13 14  1  0
 13 15  1  0
 15 16  1  0
 15 17  2  0
 17 18  1  0
 18 19  1  0
  8  3  1  0
 18 12  1  0
  1 20  1  0
  1 21  1  0
  1 22  1  0
  4 23  1  0
  5 24  1  0
  6 25  1  0
  7 26  1  0
 16 27  1  0
 16 28  1  0
 16 29  1  0
 19 30  1  0
 19 31  1  0
 19 32  1  0
M  CHG  1   9  -1
M  END
>  <UniqueID>  (5) 
5

>  <SMILES>  (5) 
COc1ccccc1[N-]C(=O)c1c(Cl)c(C)nn1C

>  <Energy>  (5) 
67.34773843505556

>  <Genealogy>  (5) 
COc1ccccc1[N-]C(=O)c1c(Cl)c(C)nn1C (protonated)
COc1ccccc1[N-]C(=O)c1c(Cl)c(C)nn1C (3D coordinates assigned)
COc1ccccc1[N-]C(=O)c1c(Cl)c(C)nn1C (optimized conformer: 67.34773843505556 kcal/mol)

>  <smiles>  (5) 
COc1ccccc1NC(=O)c1c(Cl)c(C)nn1C

>  <score_type>  (5) 
oracle

>  <origin>  (5) 
adg

>  <m_score__min__energy>  (5) 
-8.5600000000000005

>  <m_primary>  (5) 
energy

$$$$
5:0
     RDKit          3D

 45 48  0  0  0  0  0  0  0  0999 V2000
   -3.2490   20.3170  -32.3470 C   0  0  0  0  0  0  0  0  0  0  0  0
   -4.1690   20.9760  -33.1670 C   0  0  0  0  0  0  0  0  0  0  0  0
   -4.7980   22.1410  -32.7200 C   0  0  0  0  0  0  0  0  0  0  0  0
   -4.5200   22.6520  -31.4390 C   0  0  0  0  0  0  0  0  0  0  0  0
   -5.1510   23.8520  -30.9670 N   0  0  0  0  0  0  0  0  0  0  0  0
   -4.5950   25.0520  -31.0000 N   0  0  0  0  0  0  0  0  0  0  0  0
   -5.4250   25.9230  -30.4450 N   0  0  0  0  0  0  0  0  0  0  0  0
   -6.5220   25.3060  -30.0290 N   0  0  0  0  0  0  0  0  0  0  0  0
   -6.3430   24.0140  -30.3590 C   0  0  0  0  0  0  0  0  0  0  0  0
   -7.4860   22.7050  -29.9000 S   0  0  0  0  0  0  0  0  0  0  0  0
   -8.1440   22.4730  -31.5890 C   0  0  0  0  0  0  0  0  0  0  0  0
   -8.2850   21.0220  -31.9130 C   0  0  0  0  0  0  0  0  0  0  0  0
   -7.3460   20.0360  -31.7060 C   0  0  0  0  0  0  0  0  0  0  0  0
   -7.8740   18.9130  -32.2180 N   0  0  0  0  0  0  0  0  0  0  0  0
   -7.2320   17.6040  -32.2970 C   0  0  0  0  0  0  0  0  0  0  0  0
   -6.8940   17.2720  -33.6980 N   0  0  0  0  0  0  0  0  0  0  0  0
   -6.1060   18.3470  -34.3590 C   0  0  0  0  0  0  0  0  0  0  0  0
   -4.6250   17.9890  -34.6040 C   0  0  0  0  0  0  0  0  0  0  0  0
   -4.0650   17.1570  -33.4520 C   0  0  0  0  0  0  0  0  0  0  0  0
   -4.8630   15.8570  -33.2530 C   0  0  0  0  0  0  0  0  0  0  0  0
   -6.2850   15.9320  -33.8450 C   0  0  0  0  0  0  0  0  0  0  0  0
   -9.0680   19.1950  -32.7160 N   0  0  0  0  0  0  0  0  0  0  0  0
   -9.3450   20.4790  -32.5450 N   0  0  0  0  0  0  0  0  0  0  0  0
   -3.5790   21.9930  -30.6310 C   0  0  0  0  0  0  0  0  0  0  0  0
   -2.9520   20.8270  -31.0800 C   0  0  0  0  0  0  0  0  0  0  0  0
   -2.7587   19.3972  -32.6986 H   0  0  0  0  0  0  0  0  0  0  0  0
   -4.3984   20.5769  -34.1661 H   0  0  0  0  0  0  0  0  0  0  0  0
   -5.5142   22.6612  -33.3730 H   0  0  0  0  0  0  0  0  0  0  0  0
   -9.1301   22.9551  -31.6604 H   0  0  0  0  0  0  0  0  0  0  0  0
   -7.4415   22.9255  -32.3044 H   0  0  0  0  0  0  0  0  0  0  0  0
   -6.3649   20.1461  -31.2208 H   0  0  0  0  0  0  0  0  0  0  0  0
   -6.3105   17.6168  -31.6964 H   0  0  0  0  0  0  0  0  0  0  0  0
   -7.9280   16.8445  -31.9113 H   0  0  0  0  0  0  0  0  0  0  0  0
   -6.5722   18.5684  -35.3304 H   0  0  0  0  0  0  0  0  0  0  0  0
   -6.1131   19.2088  -33.6754 H   0  0  0  0  0  0  0  0  0  0  0  0
   -4.5440   17.4120  -35.5370 H   0  0  0  0  0  0  0  0  0  0  0  0
   -4.0464   18.9217  -34.6762 H   0  0  0  0  0  0  0  0  0  0  0  0
   -3.0174   16.9029  -33.6713 H   0  0  0  0  0  0  0  0  0  0  0  0
   -4.1399   17.7516  -32.5296 H   0  0  0  0  0  0  0  0  0  0  0  0
   -4.3216   15.0339  -33.7423 H   0  0  0  0  0  0  0  0  0  0  0  0
   -4.9634   15.6926  -32.1700 H   0  0  0  0  0  0  0  0  0  0  0  0
   -6.2342   15.6839  -34.9155 H   0  0  0  0  0  0  0  0  0  0  0  0
   -6.9135   15.2186  -33.2918 H   0  0  0  0  0  0  0  0  0  0  0  0
   -3.3336   22.3972  -29.6378 H   0  0  0  0  0  0  0  0  0  0  0  0
   -2.2248   20.3108  -30.4361 H   0  0  0  0  0  0  0  0  0  0  0  0
  1  2  2  0
  2  3  1  0
  3  4  2  0
  4  5  1  0
  5  6  1  0
  6  7  2  0
  7  8  1  0
  8  9  2  0
  9 10  1  0
 10 11  1  0
 11 12  1  0
 12 13  2  0
 13 14  1  0
 14 15  1  0
 15 16  1  0
 16 17  1  0
 17 18  1  0
 18 19  1  0
 19 20  1  0
 20 21  1  0
 14 22  1  0
 22 23  2  0
  4 24  1  0
 24 25  2  0
 25  1  1  0
  9  5  1  0
 23 12  1  0
 21 16  1  0
  1 26  1  0
  2 27  1  0
  3 28  1  0
 11 29  1  0
 11 30  1  0
 13 31  1  0
 15 32  1  0
 15 33  1  0
 17 34  1  0
 17 35  1  0
 18 36  1  0
 18 37  1  0
 19 38  1  0
 19 39  1  0
 20 40  1  0
 20 41  1  0
 21 42  1  0
 21 43  1  0
 24 44  1  0
 25 45  1  0
M  END
>  <UniqueID>  (6) 
6

>  <SMILES>  (6) 
c1ccc(-n2nnnc2SCc2cn(CN3CCCCC3)nn2)cc1

>  <Energy>  (6) 
130.2198129494357

>  <Genealogy>  (6) 
c1ccc(-n2nnnc2SCc2cn(CN3CCCCC3)nn2)cc1 (3D coordinates assigned)
c1ccc(-n2nnnc2SCc2cn(CN3CCCCC3)nn2)cc1 (nonaromatic ring conformer: 130.2198129494357 kcal/mol)

>  <smiles>  (6) 
c1ccc(-n2nnnc2SCc2cn(CN3CCCCC3)nn2)cc1

>  <score_type>  (6) 
oracle

>  <origin>  (6) 
adg

>  <m_score__min__energy>  (6) 
-10

>  <m_primary>  (6) 
energy

$$$$
6:0
     RDKit          3D

 48 51  0  0  0  0  0  0  0  0999 V2000
   -5.4090   26.4500  -30.4800 O   0  0  0  0  0  0  0  0  0  0  0  0
   -5.0040   25.2940  -30.7750 C   0  0  0  0  0  0  0  0  0  0  0  0
   -3.6600   24.9200  -30.4550 N   0  0  0  0  0  0  0  0  0  0  0  0
   -3.1180   23.5620  -30.5270 C   0  0  1  0  0  0  0  0  0  0  0  0
   -1.7930   23.4400  -29.7360 C   0  0  0  0  0  0  0  0  0  0  0  0
   -1.5950   22.0400  -29.1390 C   0  0  0  0  0  0  0  0  0  0  0  0
   -2.1910   20.9430  -30.0500 C   0  0  2  0  0  0  0  0  0  0  0  0
   -1.5020   20.8680  -31.4170 C   0  0  0  0  0  0  0  0  0  0  0  0
   -0.0960   20.8090  -31.4980 C   0  0  0  0  0  0  0  0  0  0  0  0
    0.5450   20.7230  -32.7360 C   0  0  0  0  0  0  0  0  0  0  0  0
   -0.2050   20.6690  -33.9100 C   0  0  0  0  0  0  0  0  0  0  0  0
   -1.5980   20.6750  -33.8480 C   0  0  0  0  0  0  0  0  0  0  0  0
   -2.2560   20.7430  -32.6100 C   0  0  0  0  0  0  0  0  0  0  0  0
   -3.7570   20.7190  -32.5850 C   0  0  0  0  0  0  0  0  0  0  0  0
   -4.2750   20.3050  -31.2090 C   0  0  0  0  0  0  0  0  0  0  0  0
   -3.6650   21.1180  -30.1440 N   0  0  0  0  0  0  0  0  0  0  0  0
   -4.1700   22.5180  -30.0900 C   0  0  0  0  0  0  0  0  0  0  0  0
   -5.8590   24.3820  -31.3990 O   0  0  0  0  0  0  0  0  0  0  0  0
   -7.1180   24.0000  -30.8610 C   0  0  0  0  0  0  0  0  0  0  0  0
   -7.4880   22.6530  -31.4090 C   0  0  0  0  0  0  0  0  0  0  0  0
   -8.5480   21.9310  -30.8370 C   0  0  0  0  0  0  0  0  0  0  0  0
   -8.8620   20.6520  -31.3050 C   0  0  0  0  0  0  0  0  0  0  0  0
   -8.1160   20.0820  -32.3410 C   0  0  0  0  0  0  0  0  0  0  0  0
   -7.0530   20.7920  -32.9080 C   0  0  0  0  0  0  0  0  0  0  0  0
   -6.7330   22.0700  -32.4410 C   0  0  0  0  0  0  0  0  0  0  0  0
   -2.8748   23.3461  -31.5778 H   0  0  0  0  0  0  0  0  0  0  0  0
   -0.9550   23.6563  -30.4150 H   0  0  0  0  0  0  0  0  0  0  0  0
   -1.8323   24.1574  -28.9031 H   0  0  0  0  0  0  0  0  0  0  0  0
   -0.5180   21.8542  -29.0144 H   0  0  0  0  0  0  0  0  0  0  0  0
   -2.1150   22.0026  -28.1704 H   0  0  0  0  0  0  0  0  0  0  0  0
   -1.9949   19.9633  -29.5899 H   0  0  0  0  0  0  0  0  0  0  0  0
    0.5032   20.8309  -30.5758 H   0  0  0  0  0  0  0  0  0  0  0  0
    1.6436   20.6978  -32.7848 H   0  0  0  0  0  0  0  0  0  0  0  0
    0.3021   20.6217  -34.8850 H   0  0  0  0  0  0  0  0  0  0  0  0
   -2.1858   20.6261  -34.7765 H   0  0  0  0  0  0  0  0  0  0  0  0
   -4.1369   21.7230  -32.8252 H   0  0  0  0  0  0  0  0  0  0  0  0
   -4.1082   19.9864  -33.3266 H   0  0  0  0  0  0  0  0  0  0  0  0
   -5.3666   20.4382  -31.1815 H   0  0  0  0  0  0  0  0  0  0  0  0
   -4.0085   19.2514  -31.0389 H   0  0  0  0  0  0  0  0  0  0  0  0
   -5.0421   22.6009  -30.7552 H   0  0  0  0  0  0  0  0  0  0  0  0
   -4.4275   22.7324  -29.0423 H   0  0  0  0  0  0  0  0  0  0  0  0
   -7.0511   23.9475  -29.7643 H   0  0  0  0  0  0  0  0  0  0  0  0
   -7.8834   24.7399  -31.1380 H   0  0  0  0  0  0  0  0  0  0  0  0
   -9.1333   22.3737  -30.0176 H   0  0  0  0  0  0  0  0  0  0  0  0
   -9.6972   20.0931  -30.8576 H   0  0  0  0  0  0  0  0  0  0  0  0
   -8.3650   19.0760  -32.7097 H   0  0  0  0  0  0  0  0  0  0  0  0
   -6.4670   20.3435  -33.7238 H   0  0  0  0  0  0  0  0  0  0  0  0
   -5.8888   22.6203  -32.8820 H   0  0  0  0  0  0  0  0  0  0  0  0
  1  2  2  0
  2  3  1  0
  3  4  1  0
  4  5  1  0
  5  6  1  0
  6  7  1  0
  7  8  1  0
  8  9  2  0
  9 10  1  0
 10 11  2  0
 11 12  1  0
 12 13  2  0
 13 14  1  0
 14 15  1  0
 15 16  1  0
 16 17  1  0
  2 18  1  0
 18 19  1  0
 19 20  1  0
 20 21  2  0
 21 22  1  0
 22 23  2  0
 23 24  1  0
 24 25  2  0
 17  4  1  0
 25 20  1  0
 16  7  1  0
 13  8  1  0
  4 26  1  6
  5 27  1  0
  5 28  1  0
  6 29  1  0
  6 30  1  0
  7 31  1  1
  9 32  1  0
 10 33  1  0
 11 34  1  0
 12 35  1  0
 14 36  1  0
 14 37  1  0
 15 38  1  0
 15 39  1  0
 17 40  1  0
 17 41  1  0
 19 42  1  0
 19 43  1  0
 21 44  1  0
 22 45  1  0
 23 46  1  0
 24 47  1  0
 25 48  1  0
M  CHG  1   3  -1
M  END
>  <UniqueID>  (7) 
7

>  <SMILES>  (7) 
O=C([N-][C@H]1CC[C@@H]2c3ccccc3CCN2C1)OCc1ccccc1

>  <Energy>  (7) 
61.802738545488474

>  <Genealogy>  (7) 
O=C([N-]C1CCC2c3ccccc3CCN2C1)OCc1ccccc1 (protonated)
O=C([N-][C@H]1CC[C@@H]2c3ccccc3CCN2C1)OCc1ccccc1 (chirality)
O=C([N-][C@H]1CC[C@@H]2c3ccccc3CCN2C1)OCc1ccccc1 (3D coordinates assigned)
O=C([N-][C@H]1CC[C@@H]2c3ccccc3CCN2C1)OCc1ccccc1 (nonaromatic ring conformer: 61.802738545488474 kcal/mol)

>  <smiles>  (7) 
O=C(NC1CCC2c3ccccc3CCN2C1)OCc1ccccc1

>  <score_type>  (7) 
oracle

>  <origin>  (7) 
adg

>  <m_score__min__energy>  (7) 
-9.8800000000000008

>  <m_primary>  (7) 
energy

$$$$
7:0
     RDKit          3D

 47 51  0  0  1  0  0  0  0  0999 V2000
    0.0600   23.2570  -28.5020 C   0  0  0  0  0  0  0  0  0  0  0  0
   -0.5050   24.4650  -28.1700 C   0  0  0  0  0  0  0  0  0  0  0  0
   -1.7310   24.8930  -28.6270 C   0  0  0  0  0  0  0  0  0  0  0  0
   -2.4370   24.0700  -29.4660 C   0  0  0  0  0  0  0  0  0  0  0  0
   -3.7410   24.4800  -29.9780 C   0  0  0  0  0  0  0  0  0  0  0  0
   -4.8500   23.7190  -30.0320 N   0  0  0  0  0  0  0  0  0  0  0  0
   -5.8780   24.4400  -30.5710 C   0  0  0  0  0  0  0  0  0  0  0  0
   -7.2740   23.9620  -30.8020 C   0  0  0  0  0  0  0  0  0  0  0  0
   -7.3950   23.1880  -32.0010 N   0  0  0  0  0  0  0  0  0  0  0  0
   -6.5930   22.2150  -32.2510 C   0  0  0  0  0  0  0  0  0  0  0  0
   -5.2610   22.3510  -32.3540 N   0  0  0  0  0  0  0  0  0  0  0  0
   -4.5390   21.2540  -32.6190 C   0  0  0  0  0  0  0  0  0  0  0  0
   -5.0720   20.0320  -32.7860 N   0  0  0  0  0  0  0  0  0  0  0  0
   -6.3980   19.8410  -32.6930 C   0  0  0  0  0  0  0  0  0  0  0  0
   -7.1790   20.9640  -32.4180 C   0  0  0  0  0  0  0  0  0  0  0  0
   -8.4690   20.5550  -32.3670 N   0  0  0  0  0  0  0  0  0  0  0  0
   -8.4950   19.2350  -32.6000 C   0  0  0  0  0  0  0  0  0  0  0  0
   -7.2270   18.7900  -32.8010 N   0  0  0  0  0  0  0  0  0  0  0  0
   -6.8460   17.4380  -33.0790 C   0  0  0  0  0  0  0  0  0  0  0  0
   -6.1090   17.2640  -34.3930 C   0  0  0  0  0  0  0  0  0  0  0  0
   -5.5930   15.8310  -34.2190 C   0  0  0  0  0  0  0  0  0  0  0  0
   -5.3620   15.6590  -32.7290 C   0  0  0  0  0  0  0  0  0  0  0  0
   -5.7900   16.9790  -32.0960 C   0  0  0  0  0  0  0  0  0  0  0  0
   -5.3240   25.6710  -30.8360 C   0  0  0  0  0  0  0  0  0  0  0  0
   -4.0470   25.6570  -30.4690 O   0  0  0  0  0  0  0  0  0  0  0  0
   -1.9150   22.8460  -29.8310 C   0  0  0  0  0  0  0  0  0  0  0  0
   -0.6840   22.4450  -29.3560 C   0  0  0  0  0  0  0  0  0  0  0  0
    1.0428   22.9488  -28.1159 H   0  0  0  0  0  0  0  0  0  0  0  0
    0.0567   25.1305  -27.4981 H   0  0  0  0  0  0  0  0  0  0  0  0
   -2.1343   25.8713  -28.3264 H   0  0  0  0  0  0  0  0  0  0  0  0
   -7.5803   23.3403  -29.9478 H   0  0  0  0  0  0  0  0  0  0  0  0
   -7.9183   24.8473  -30.9080 H   0  0  0  0  0  0  0  0  0  0  0  0
   -4.8620   23.3050  -32.2220 H   0  0  0  0  0  0  0  0  0  0  0  0
   -3.4475   21.3598  -32.7048 H   0  0  0  0  0  0  0  0  0  0  0  0
   -9.4003   18.6106  -32.6246 H   0  0  0  0  0  0  0  0  0  0  0  0
   -7.7999   16.8908  -33.0551 H   0  0  0  0  0  0  0  0  0  0  0  0
   -6.7856   17.3526  -35.2557 H   0  0  0  0  0  0  0  0  0  0  0  0
   -5.3314   18.0162  -34.5920 H   0  0  0  0  0  0  0  0  0  0  0  0
   -6.3399   15.1076  -34.5779 H   0  0  0  0  0  0  0  0  0  0  0  0
   -4.6732   15.6565  -34.7965 H   0  0  0  0  0  0  0  0  0  0  0  0
   -5.9707   14.8301  -32.3386 H   0  0  0  0  0  0  0  0  0  0  0  0
   -4.3124   15.4193  -32.5034 H   0  0  0  0  0  0  0  0  0  0  0  0
   -6.2112   16.8279  -31.0911 H   0  0  0  0  0  0  0  0  0  0  0  0
   -4.9703   17.6961  -31.9415 H   0  0  0  0  0  0  0  0  0  0  0  0
   -5.8524   26.5277  -31.2797 H   0  0  0  0  0  0  0  0  0  0  0  0
   -2.4833   22.1871  -30.5039 H   0  0  0  0  0  0  0  0  0  0  0  0
   -0.2820   21.4663  -29.6567 H   0  0  0  0  0  0  0  0  0  0  0  0
  1  2  2  0
  2  3  1  0
  3  4  2  0
  4  5  1  0
  5  6  2  0
  6  7  1  0
  7  8  1  0
  8  9  1  0
  9 10  2  0
 10 11  1  0
 11 12  1  0
 12 13  2  0
 13 14  1  0
 14 15  2  0
 15 16  1  0
 16 17  2  0
 17 18  1  0
 18 19  1  0
 19 20  1  0
 20 21  1  0
 21 22  1  0
 22 23  1  0
  7 24  2  0
 24 25  1  0
  4 26  1  0
 26 27  2  0
 27  1  1  0
 25  5  1  0
 15 10  1  0
 23 19  1  0
 18 14  1  0
  1 28  1  0
  2 29  1  0
  3 30  1  0
  8 31  1  0
  8 32  1  0
 11 33  1  0
 12 34  1  0
 17 35  1  0
 19 36  1  0
 20 37  1  0
 20 38  1  0
 21 39  1  0
 21 40  1  0
 22 41  1  0
 22 42  1  0
 23 43  1  0
 23 44  1  0
 24 45  1  0
 26 46  1  0
 27 47  1  0
M  END
>  <smiles>  (8) 
c1ccc(-c2nc(CN=c3[nH]cnc4c3ncn4C3CCCC3)co2)cc1

>  <score_type>  (8) 
oracle

>  <origin>  (8) 
adg

>  <m_score__min__energy>  (8) 
-9.2300000000000004

>  <m_primary>  (8) 
energy

$$$$
8:0
     RDKit          3D

 34 36  0  0  1  0  0  0  0  0999 V2000
    1.7060   24.6240  -26.8610 C   0  0  0  0  0  0  0  0  0  0  0  0
    1.2760   24.1660  -28.1050 O   0  0  0  0  0  0  0  0  0  0  0  0
   -0.0370   24.1540  -28.5580 C   0  0  0  0  0  0  0  0  0  0  0  0
   -0.8330   25.2260  -28.1560 C   0  0  0  0  0  0  0  0  0  0  0  0
   -2.1570   25.2890  -28.5650 C   0  0  0  0  0  0  0  0  0  0  0  0
   -2.6720   24.2860  -29.3670 C   0  0  0  0  0  0  0  0  0  0  0  0
   -4.0690   24.3750  -29.7840 C   0  0  0  0  0  0  0  0  0  0  0  0
   -4.5970   23.9730  -30.9520 N   0  0  0  0  0  0  0  0  0  0  0  0
   -5.9110   24.2630  -30.8660 C   0  0  0  0  0  0  0  0  0  0  0  0
   -6.7900   24.0380  -31.7800 N   0  0  0  0  0  0  0  0  0  0  0  0
   -7.5010   22.8100  -31.8920 C   0  0  0  0  0  0  0  0  0  0  0  0
   -8.8210   22.6520  -31.5920 C   0  0  0  0  0  0  0  0  0  0  0  0
   -9.3900   21.4010  -31.7470 C   0  0  0  0  0  0  0  0  0  0  0  0
   -8.6580   20.3110  -32.1970 C   0  0  0  0  0  0  0  0  0  0  0  0
   -7.3230   20.4660  -32.5010 C   0  0  0  0  0  0  0  0  0  0  0  0
   -6.2490   19.0120  -33.1270 Br  0  0  0  0  0  0  0  0  0  0  0  0
   -6.7590   21.7150  -32.3460 C   0  0  0  0  0  0  0  0  0  0  0  0
   -6.1780   24.8310  -29.6710 N   0  0  0  0  0  0  0  0  0  0  0  0
   -5.0350   24.9020  -28.9960 N   0  0  0  0  0  0  0  0  0  0  0  0
   -1.8730   23.2300  -29.7570 C   0  0  0  0  0  0  0  0  0  0  0  0
   -0.5540   23.1560  -29.3560 C   0  0  0  0  0  0  0  0  0  0  0  0
    1.1855   24.0696  -26.0662 H   0  0  0  0  0  0  0  0  0  0  0  0
    2.7907   24.4672  -26.7675 H   0  0  0  0  0  0  0  0  0  0  0  0
    1.4812   25.6967  -26.7675 H   0  0  0  0  0  0  0  0  0  0  0  0
   -0.4132   26.0176  -27.5179 H   0  0  0  0  0  0  0  0  0  0  0  0
   -2.7932   26.1307  -28.2538 H   0  0  0  0  0  0  0  0  0  0  0  0
   -9.4212   23.5015  -31.2341 H   0  0  0  0  0  0  0  0  0  0  0  0
  -10.4548   21.2658  -31.5064 H   0  0  0  0  0  0  0  0  0  0  0  0
   -9.1408   19.3291  -32.3103 H   0  0  0  0  0  0  0  0  0  0  0  0
   -5.6946   21.8539  -32.5865 H   0  0  0  0  0  0  0  0  0  0  0  0
   -7.1160   25.1700  -29.3060 H   0  0  0  0  0  0  0  0  0  0  0  0
   -4.9740   25.3030  -28.0410 H   0  0  0  0  0  0  0  0  0  0  0  0
   -2.2923   22.4380  -30.3949 H   0  0  0  0  0  0  0  0  0  0  0  0
    0.0766   22.3110  -29.6695 H   0  0  0  0  0  0  0  0  0  0  0  0
  1  2  1  0
  2  3  1  0
  3  4  2  0
  4  5  1  0
  5  6  2  0
  6  7  1  0
  7  8  2  0
  8  9  1  0
  9 10  2  0
 10 11  1  0
 11 12  2  0
 12 13  1  0
 13 14  2  0
 14 15  1  0
 15 16  1  0
 15 17  2  0
  9 18  1  0
 18 19  1  0
  6 20  1  0
 20 21  2  0
 21  3  1  0
 19  7  1  0
 17 11  1  0
  1 22  1  0
  1 23  1  0
  1 24  1  0
  4 25  1  0
  5 26  1  0
 12 27  1  0
 13 28  1  0
 14 29  1  0
 17 30  1  0
 18 31  1  0
 19 32  1  0
 20 33  1  0
 21 34  1  0
M  END
>  <smiles>  (9) 
COc1ccc(-c2nc(=Nc3cccc(Br)c3)[nH][nH]2)cc1

>  <score_type>  (9) 
oracle

>  <origin>  (9) 
adg

>  <m_score__min__energy>  (9) 
-8.1899999999999995

>  <m_primary>  (9) 
energy

$$$$
9:0
     RDKit          3D

 47 50  0  0  0  0  0  0  0  0999 V2000
   -8.6540   22.8240  -32.0150 C   0  0  0  0  0  0  0  0  0  0  0  0
   -7.3010   22.3790  -32.4160 N   0  0  1  0  0  0  0  0  0  0  0  0
   -6.2460   23.1230  -31.7360 C   0  0  0  0  0  0  0  0  0  0  0  0
   -6.3130   24.5380  -31.5440 C   0  0  0  0  0  0  0  0  0  0  0  0
   -5.3000   25.2220  -30.8460 C   0  0  0  0  0  0  0  0  0  0  0  0
   -4.2410   24.4770  -30.3430 C   0  0  0  0  0  0  0  0  0  0  0  0
   -3.1840   24.9190  -29.6490 N   0  0  0  0  0  0  0  0  0  0  0  0
   -2.4850   23.7760  -29.4090 C   0  0  0  0  0  0  0  0  0  0  0  0
   -1.2110   23.7550  -28.6560 C   0  0  0  0  0  0  0  0  0  0  0  0
   -0.6540   24.9500  -28.1630 C   0  0  0  0  0  0  0  0  0  0  0  0
    0.5500   24.9290  -27.4530 C   0  0  0  0  0  0  0  0  0  0  0  0
    1.2100   23.7190  -27.2260 C   0  0  0  0  0  0  0  0  0  0  0  0
    2.3760   23.7010  -26.5360 F   0  0  0  0  0  0  0  0  0  0  0  0
    0.6650   22.5260  -27.7100 C   0  0  0  0  0  0  0  0  0  0  0  0
   -0.5390   22.5420  -28.4210 C   0  0  0  0  0  0  0  0  0  0  0  0
   -3.0610   22.6540  -29.9190 N   0  0  0  0  0  0  0  0  0  0  0  0
   -4.1680   23.1310  -30.5040 C   0  0  0  0  0  0  0  0  0  0  0  0
   -5.1460   22.4150  -31.1860 C   0  0  0  0  0  0  0  0  0  0  0  0
   -7.0680   20.9040  -32.3260 C   0  0  2  0  0  0  0  0  0  0  0  0
   -6.1230   20.3980  -33.4560 C   0  0  0  0  0  0  0  0  0  0  0  0
   -6.2620   18.8880  -33.7440 C   0  0  0  0  0  0  0  0  0  0  0  0
   -6.6760   18.1030  -32.4940 C   0  0  2  0  0  0  0  0  0  0  0  0
   -6.7190   16.7350  -32.8010 O   0  0  0  0  0  0  0  0  0  0  0  0
   -8.0550   18.5740  -31.9680 C   0  0  0  0  0  0  0  0  0  0  0  0
   -8.3620   20.0540  -32.2790 C   0  0  0  0  0  0  0  0  0  0  0  0
   -8.7223   22.8465  -30.9174 H   0  0  0  0  0  0  0  0  0  0  0  0
   -8.8422   23.8314  -32.4148 H   0  0  0  0  0  0  0  0  0  0  0  0
   -9.4034   22.1250  -32.4148 H   0  0  0  0  0  0  0  0  0  0  0  0
   -7.2330   22.6350  -33.4310 H   0  0  0  0  0  0  0  0  0  0  0  0
   -7.1682   25.1001  -31.9474 H   0  0  0  0  0  0  0  0  0  0  0  0
   -5.3455   26.3118  -30.7034 H   0  0  0  0  0  0  0  0  0  0  0  0
   -1.1692   25.9061  -28.3375 H   0  0  0  0  0  0  0  0  0  0  0  0
    0.9787   25.8677  -27.0721 H   0  0  0  0  0  0  0  0  0  0  0  0
    1.1843   21.5729  -27.5312 H   0  0  0  0  0  0  0  0  0  0  0  0
   -0.9632   21.6000  -28.7989 H   0  0  0  0  0  0  0  0  0  0  0  0
   -5.0685   21.3233  -31.2967 H   0  0  0  0  0  0  0  0  0  0  0  0
   -6.5734   20.7595  -31.3542 H   0  0  0  0  0  0  0  0  0  0  0  0
   -6.3552   20.9512  -34.3780 H   0  0  0  0  0  0  0  0  0  0  0  0
   -5.0910   20.5691  -33.1159 H   0  0  0  0  0  0  0  0  0  0  0  0
   -7.0246   18.7434  -34.5234 H   0  0  0  0  0  0  0  0  0  0  0  0
   -5.2820   18.5123  -34.0733 H   0  0  0  0  0  0  0  0  0  0  0  0
   -5.9343   18.2844  -31.7022 H   0  0  0  0  0  0  0  0  0  0  0  0
   -6.2570   16.2620  -32.0590 H   0  0  0  0  0  0  0  0  0  0  0  0
   -8.8350   17.9522  -32.4316 H   0  0  0  0  0  0  0  0  0  0  0  0
   -8.0347   18.4719  -30.8729 H   0  0  0  0  0  0  0  0  0  0  0  0
   -8.8668   20.1171  -33.2543 H   0  0  0  0  0  0  0  0  0  0  0  0
   -9.0055   20.4487  -31.4789 H   0  0  0  0  0  0  0  0  0  0  0  0
  1  2  1  0
  2  3  1  0
  3  4  2  0
  4  5  1  0
  5  6  2  0
  6  7  1  0
  7  8  1  0
  8  9  1  0
  9 10  2  0
 10 11  1  0
 11 12  2  0
 12 13  1  0
 12 14  1  0
 14 15  2  0
  8 16  2  0
 16 17  1  0
 17 18  2  0
  2 19  1  0
 19 20  1  0
 20 21  1  0
 21 22  1  0
 22 23  1  0
 22 24  1  0
 24 25  1  0
 18  3  1  0
 25 19  1  0
 17  6  1  0
 15  9  1  0
  1 26  1  0
  1 27  1  0
  1 28  1  0
  2 29  1  6
  4 30  1  0
  5 31  1  0
 10 32  1  0
 11 33  1  0
 14 34  1  0
 15 35  1  0
 18 36  1  0
 19 37  1  1
 20 38  1  0
 20 39  1  0
 21 40  1  0
 21 41  1  0
 22 42  1  1
 23 43  1  0
 24 44  1  0
 24 45  1  0
 25 46  1  0
 25 47  1  0
M  CHG  2   2   1   7  -1
M  END
>  <UniqueID>  (10) 
8

>  <SMILES>  (10) 
C[N@@H+](c1ccc2[n-]c(-c3ccc(F)cc3)nc2c1)C1CCC(O)CC1

>  <Energy>  (10) 
99.52744290923621

>  <Genealogy>  (10) 
C[NH+](c1ccc2[n-]c(-c3ccc(F)cc3)nc2c1)C1CCC(O)CC1 (protonated)
C[N@@H+](c1ccc2[n-]c(-c3ccc(F)cc3)nc2c1)C1CCC(O)CC1 (chirality)
C[N@@H+](c1ccc2[n-]c(-c3ccc(F)cc3)nc2c1)C1CCC(O)CC1 (3D coordinates assigned)
C[N@@H+](c1ccc2[n-]c(-c3ccc(F)cc3)nc2c1)C1CCC(O)CC1 (nonaromatic ring conformer: 99.52744290923621 kcal/mol)

>  <smiles>  (10) 
CN(c1ccc2[nH]c(-c3ccc(F)cc3)nc2c1)C1CCC(O)CC1

>  <score_type>  (10) 
oracle

>  <origin>  (10) 
adg

>  <m_score__min__energy>  (10) 
-8.8100000000000005

>  <m_primary>  (10) 
energy

$$$$
10:0
     RDKit          3D

 60 63  0  0  0  0  0  0  0  0999 V2000
   -2.7630   25.2980  -29.3180 O   0  0  0  0  0  0  0  0  0  0  0  0
   -3.2990   24.5050  -30.1360 C   0  0  0  0  0  0  0  0  0  0  0  0
   -4.4900   24.9130  -30.8250 N   0  0  0  0  0  0  0  0  0  0  0  0
   -5.6370   24.0710  -31.0050 C   0  0  0  0  0  0  0  0  0  0  0  0
   -6.0930   23.7950  -32.2980 C   0  0  0  0  0  0  0  0  0  0  0  0
   -7.2730   23.0680  -32.4890 C   0  0  0  0  0  0  0  0  0  0  0  0
   -7.9920   22.5850  -31.3840 C   0  0  0  0  0  0  0  0  0  0  0  0
   -9.3290   21.9120  -31.5810 C   0  0  0  0  0  0  0  0  0  0  0  0
   -9.1940   20.6330  -32.3010 N   0  0  0  0  0  0  0  0  0  0  0  0
   -8.3160   19.6850  -31.5950 C   0  0  0  0  0  0  0  0  0  0  0  0
   -7.2160   19.2030  -32.5050 C   0  0  0  0  0  0  0  0  0  0  0  0
   -6.1190   20.0340  -32.7860 C   0  0  0  0  0  0  0  0  0  0  0  0
   -5.0820   19.5800  -33.6050 C   0  0  0  0  0  0  0  0  0  0  0  0
   -5.1310   18.2910  -34.1450 C   0  0  0  0  0  0  0  0  0  0  0  0
   -4.1260   17.8510  -34.9410 F   0  0  0  0  0  0  0  0  0  0  0  0
   -6.2150   17.4550  -33.8620 C   0  0  0  0  0  0  0  0  0  0  0  0
   -7.2520   17.9050  -33.0400 C   0  0  0  0  0  0  0  0  0  0  0  0
   -7.4980   22.8090  -30.0900 C   0  0  0  0  0  0  0  0  0  0  0  0
   -6.3280   23.5440  -29.9010 C   0  0  0  0  0  0  0  0  0  0  0  0
   -2.7070   23.1670  -30.3550 C   0  0  0  0  0  0  0  0  0  0  0  0
   -3.3610   22.2240  -31.1660 C   0  0  0  0  0  0  0  0  0  0  0  0
   -2.7640   20.9910  -31.4400 C   0  0  0  0  0  0  0  0  0  0  0  0
   -1.5060   20.6800  -30.9050 C   0  0  0  0  0  0  0  0  0  0  0  0
   -0.8170   19.3920  -31.2650 C   0  0  0  0  0  0  0  0  0  0  0  0
    0.1420   19.6320  -32.3670 N   0  0  0  0  0  0  0  0  0  0  0  0
   -0.0890   20.9290  -33.0480 C   0  0  0  0  0  0  0  0  0  0  0  0
   -1.0300   20.7970  -34.2640 C   0  0  0  0  0  0  0  0  0  0  0  0
   -1.8770   19.6780  -34.1200 O   0  0  0  0  0  0  0  0  0  0  0  0
   -1.1200   18.4830  -34.1970 C   0  0  0  0  0  0  0  0  0  0  0  0
    0.1680   18.5240  -33.3400 C   0  0  0  0  0  0  0  0  0  0  0  0
   -0.8600   21.6130  -30.0760 C   0  0  0  0  0  0  0  0  0  0  0  0
   -1.4630   22.8420  -29.7920 C   0  0  0  0  0  0  0  0  0  0  0  0
   -5.5217   24.1509  -33.1681 H   0  0  0  0  0  0  0  0  0  0  0  0
   -7.6386   22.8742  -33.5082 H   0  0  0  0  0  0  0  0  0  0  0  0
   -9.7806   21.7210  -30.5963 H   0  0  0  0  0  0  0  0  0  0  0  0
   -9.9637   22.5792  -32.1827 H   0  0  0  0  0  0  0  0  0  0  0  0
  -10.1420   20.2060  -32.4380 H   0  0  0  0  0  0  0  0  0  0  0  0
   -8.7870   20.8340  -33.2450 H   0  0  0  0  0  0  0  0  0  0  0  0
   -7.8704   20.1857  -30.7228 H   0  0  0  0  0  0  0  0  0  0  0  0
   -8.9142   18.8201  -31.2725 H   0  0  0  0  0  0  0  0  0  0  0  0
   -6.0761   21.0470  -32.3593 H   0  0  0  0  0  0  0  0  0  0  0  0
   -4.2272   20.2364  -33.8250 H   0  0  0  0  0  0  0  0  0  0  0  0
   -6.2520   16.4411  -34.2870 H   0  0  0  0  0  0  0  0  0  0  0  0
   -8.0985   17.2408  -32.8115 H   0  0  0  0  0  0  0  0  0  0  0  0
   -8.0360   22.4030  -29.2207 H   0  0  0  0  0  0  0  0  0  0  0  0
   -5.9447   23.7118  -28.8837 H   0  0  0  0  0  0  0  0  0  0  0  0
   -4.3495   22.4582  -31.5879 H   0  0  0  0  0  0  0  0  0  0  0  0
   -3.2833   20.2610  -32.0783 H   0  0  0  0  0  0  0  0  0  0  0  0
   -0.2769   19.0081  -30.3870 H   0  0  0  0  0  0  0  0  0  0  0  0
   -1.5669   18.6548  -31.5879 H   0  0  0  0  0  0  0  0  0  0  0  0
   -0.5376   21.6303  -32.3290 H   0  0  0  0  0  0  0  0  0  0  0  0
    0.8824   21.2926  -33.4142 H   0  0  0  0  0  0  0  0  0  0  0  0
   -1.6437   21.7062  -34.3460 H   0  0  0  0  0  0  0  0  0  0  0  0
   -0.4205   20.6649  -35.1701 H   0  0  0  0  0  0  0  0  0  0  0  0
   -1.7463   17.6487  -33.8480 H   0  0  0  0  0  0  0  0  0  0  0  0
   -0.8124   18.3565  -35.2455 H   0  0  0  0  0  0  0  0  0  0  0  0
    0.2637   17.5734  -32.7949 H   0  0  0  0  0  0  0  0  0  0  0  0
    1.0230   18.6803  -34.0142 H   0  0  0  0  0  0  0  0  0  0  0  0
    0.1252   21.3751  -29.6484 H   0  0  0  0  0  0  0  0  0  0  0  0
   -0.9603   23.5573  -29.1245 H   0  0  0  0  0  0  0  0  0  0  0  0
  1  2  2  0
  2  3  1  0
  3  4  1  0
  4  5  2  0
  5  6  1  0
  6  7  2  0
  7  8  1  0
  8  9  1  0
  9 10  1  0
 10 11  1  0
 11 12  2  0
 12 13  1  0
 13 14  2  0
 14 15  1  0
 14 16  1  0
 16 17  2  0
  7 18  1  0
 18 19  2  0
  2 20  1  0
 20 21  2  0
 21 22  1  0
 22 23  2  0
 23 24  1  0
 24 25  1  0
 25 26  1  0
 26 27  1  0
 27 28  1  0
 28 29  1  0
 29 30  1  0
 23 31  1  0
 31 32  2  0
 19  4  1  0
 32 20  1  0
 17 11  1  0
 30 25  1  0
  5 33  1  0
  6 34  1  0
  8 35  1  0
  8 36  1  0
  9 37  1  0
  9 38  1  0
 10 39  1  0
 10 40  1  0
 12 41  1  0
 13 42  1  0
 16 43  1  0
 17 44  1  0
 18 45  1  0
 19 46  1  0
 21 47  1  0
 22 48  1  0
 24 49  1  0
 24 50  1  0
 26 51  1  0
 26 52  1  0
 27 53  1  0
 27 54  1  0
 29 55  1  0
 29 56  1  0
 30 57  1  0
 30 58  1  0
 31 59  1  0
 32 60  1  0
M  CHG  2   3  -1   9   1
M  END
>  <UniqueID>  (11) 
9

>  <SMILES>  (11) 
O=C([N-]c1ccc(C[NH2+]Cc2ccc(F)cc2)cc1)c1ccc(CN2CCOCC2)cc1

>  <Energy>  (11) 
77.24075016614574

>  <Genealogy>  (11) 
O=C([N-]c1ccc(C[NH2+]Cc2ccc(F)cc2)cc1)c1ccc(CN2CCOCC2)cc1 (protonated)
O=C([N-]c1ccc(C[NH2+]Cc2ccc(F)cc2)cc1)c1ccc(CN2CCOCC2)cc1 (3D coordinates assigned)
O=C([N-]c1ccc(C[NH2+]Cc2ccc(F)cc2)cc1)c1ccc(CN2CCOCC2)cc1 (nonaromatic ring conformer: 77.24075016614574 kcal/mol)

>  <smiles>  (11) 
O=C(Nc1ccc(CNCc2ccc(F)cc2)cc1)c1ccc(CN2CCOCC2)cc1

>  <score_type>  (11) 
oracle

>  <origin>  (11) 
adg

>  <m_score__min__energy>  (11) 
-10.6

>  <m_primary>  (11) 
energy

$$$$
11:0
     RDKit          3D

 39 41  0  0  0  0  0  0  0  0999 V2000
   -5.6920   26.1310  -30.6310 O   0  0  0  0  0  0  0  0  0  0  0  0
   -4.9940   25.0900  -30.7620 C   0  0  0  0  0  0  0  0  0  0  0  0
   -3.5920   25.1590  -30.4660 N   0  0  0  0  0  0  0  0  0  0  0  0
   -2.9240   24.5310  -29.3600 C   0  0  0  0  0  0  0  0  0  0  0  0
   -3.5650   23.4950  -28.6730 C   0  0  0  0  0  0  0  0  0  0  0  0
   -2.9310   22.8680  -27.5990 C   0  0  0  0  0  0  0  0  0  0  0  0
   -1.6490   23.2750  -27.2310 C   0  0  0  0  0  0  0  0  0  0  0  0
   -1.0260   24.2680  -27.9200 N   0  0  0  0  0  0  0  0  0  0  0  0
   -1.6230   24.8960  -28.9690 C   0  0  0  0  0  0  0  0  0  0  0  0
   -5.6290   23.8500  -31.2580 C   0  0  0  0  0  0  0  0  0  0  0  0
   -7.0170   23.6690  -31.1290 C   0  0  0  0  0  0  0  0  0  0  0  0
   -7.6150   22.4800  -31.5530 C   0  0  0  0  0  0  0  0  0  0  0  0
   -6.8390   21.4640  -32.1260 C   0  0  0  0  0  0  0  0  0  0  0  0
   -7.5990   19.9370  -32.5590 S   0  0  0  0  0  0  0  0  0  0  0  0
   -7.4820   18.9920  -31.3970 O   0  0  0  0  0  0  0  0  0  0  0  0
   -9.0510   20.1320  -32.8870 O   0  0  0  0  0  0  0  0  0  0  0  0
   -6.7810   19.2660  -33.9330 N   0  0  0  0  0  0  0  0  0  0  0  0
   -6.1150   17.9930  -33.8800 C   0  0  0  0  0  0  0  0  0  0  0  0
   -6.8580   16.7980  -33.8960 C   0  0  0  0  0  0  0  0  0  0  0  0
   -6.2120   15.5600  -33.8530 C   0  0  0  0  0  0  0  0  0  0  0  0
   -4.8210   15.4990  -33.7900 C   0  0  0  0  0  0  0  0  0  0  0  0
   -4.0710   16.6770  -33.7700 C   0  0  0  0  0  0  0  0  0  0  0  0
   -4.7080   17.9240  -33.8120 C   0  0  0  0  0  0  0  0  0  0  0  0
   -3.7130   19.3760  -33.8390 Cl  0  0  0  0  0  0  0  0  0  0  0  0
   -5.4610   21.6530  -32.2880 C   0  0  0  0  0  0  0  0  0  0  0  0
   -4.8580   22.8400  -31.8620 C   0  0  0  0  0  0  0  0  0  0  0  0
   -4.5712   23.1735  -28.9798 H   0  0  0  0  0  0  0  0  0  0  0  0
   -3.4374   22.0613  -27.0487 H   0  0  0  0  0  0  0  0  0  0  0  0
   -1.1414   22.7924  -26.3828 H   0  0  0  0  0  0  0  0  0  0  0  0
   -1.0881   25.6894  -29.5115 H   0  0  0  0  0  0  0  0  0  0  0  0
   -7.6350   24.4673  -30.6922 H   0  0  0  0  0  0  0  0  0  0  0  0
   -8.6999   22.3408  -31.4365 H   0  0  0  0  0  0  0  0  0  0  0  0
   -6.9340   19.7330  -34.8530 H   0  0  0  0  0  0  0  0  0  0  0  0
   -7.9562   16.8390  -33.9427 H   0  0  0  0  0  0  0  0  0  0  0  0
   -6.8022   14.6319  -33.8689 H   0  0  0  0  0  0  0  0  0  0  0  0
   -4.3141   14.5234  -33.7560 H   0  0  0  0  0  0  0  0  0  0  0  0
   -2.9733   16.6253  -33.7210 H   0  0  0  0  0  0  0  0  0  0  0  0
   -4.8507   20.8644  -32.7523 H   0  0  0  0  0  0  0  0  0  0  0  0
   -3.7763   22.9850  -31.9996 H   0  0  0  0  0  0  0  0  0  0  0  0
  1  2  2  0
  2  3  1  0
  3  4  1  0
  4  5  2  0
  5  6  1  0
  6  7  2  0
  7  8  1  0
  8  9  2  0
  2 10  1  0
 10 11  2  0
 11 12  1  0
 12 13  2  0
 13 14  1  0
 14 15  2  0
 14 16  2  0
 14 17  1  0
 17 18  1  0
 18 19  2  0
 19 20  1  0
 20 21  2  0
 21 22  1  0
 22 23  2  0
 23 24  1  0
 13 25  1  0
 25 26  2  0
  9  4  1  0
 26 10  1  0
 23 18  1  0
  5 27  1  0
  6 28  1  0
  7 29  1  0
  9 30  1  0
 11 31  1  0
 12 32  1  0
 17 33  1  0
 19 34  1  0
 20 35  1  0
 21 36  1  0
 22 37  1  0
 25 38  1  0
 26 39  1  0
M  CHG  1   3  -1
M  END
>  <UniqueID>  (12) 
10

>  <SMILES>  (12) 
O=C([N-]c1cccnc1)c1ccc(S(=O)(=O)Nc2ccccc2Cl)cc1

>  <Energy>  (12) 
53.04295896457861

>  <Genealogy>  (12) 
O=C([N-]c1cccnc1)c1ccc(S(=O)(=O)Nc2ccccc2Cl)cc1 (protonated)
O=C([N-]c1cccnc1)c1ccc(S(=O)(=O)Nc2ccccc2Cl)cc1 (3D coordinates assigned)
O=C([N-]c1cccnc1)c1ccc(S(=O)(=O)Nc2ccccc2Cl)cc1 (optimized conformer: 53.04295896457861 kcal/mol)

>  <smiles>  (12) 
O=C(Nc1cccnc1)c1ccc(S(=O)(=O)Nc2ccccc2Cl)cc1

>  <score_type>  (12) 
oracle

>  <origin>  (12) 
adg

>  <m_score__min__energy>  (12) 
-11.15

>  <m_primary>  (12) 
energy

$$$$
12:0
     RDKit          3D

 26 28  0  0  0  0  0  0  0  0999 V2000
   -3.5230   25.2970  -30.4700 O   0  0  0  0  0  0  0  0  0  0  0  0
   -4.8550   24.9530  -30.4690 N   0  0  0  0  0  0  0  0  0  0  0  0
   -5.8210   25.6660  -29.9580 O   0  0  0  0  0  0  0  0  0  0  0  0
   -6.9980   25.1040  -30.1010 N   0  0  0  0  0  0  0  0  0  0  0  0
   -6.7460   23.9500  -30.7510 C   0  0  0  0  0  0  0  0  0  0  0  0
   -7.6380   22.9660  -31.1650 C   0  0  0  0  0  0  0  0  0  0  0  0
   -7.1040   21.8400  -31.8380 C   0  0  0  0  0  0  0  0  0  0  0  0
   -8.0230   20.7620  -32.3440 C   0  0  0  0  0  0  0  0  0  0  0  0
   -7.2450   19.5040  -32.6180 C   0  0  0  0  0  0  0  0  0  0  0  0
   -6.5080   19.3630  -33.8020 C   0  0  0  0  0  0  0  0  0  0  0  0
   -5.8200   18.1750  -34.0580 C   0  0  0  0  0  0  0  0  0  0  0  0
   -5.8830   17.1340  -33.1310 C   0  0  0  0  0  0  0  0  0  0  0  0
   -6.6110   17.2800  -31.9920 N   0  0  0  0  0  0  0  0  0  0  0  0
   -7.2900   18.4260  -31.7190 C   0  0  0  0  0  0  0  0  0  0  0  0
   -5.7050   21.7570  -32.0820 C   0  0  0  0  0  0  0  0  0  0  0  0
   -4.8370   22.7770  -31.6460 C   0  0  0  0  0  0  0  0  0  0  0  0
   -5.4110   23.8540  -30.9820 C   0  0  0  0  0  0  0  0  0  0  0  0
   -8.7178   23.0590  -30.9767 H   0  0  0  0  0  0  0  0  0  0  0  0
   -8.7930   20.5554  -31.5861 H   0  0  0  0  0  0  0  0  0  0  0  0
   -8.4966   21.1021  -33.2768 H   0  0  0  0  0  0  0  0  0  0  0  0
   -6.4716   20.1877  -34.5291 H   0  0  0  0  0  0  0  0  0  0  0  0
   -5.2339   18.0610  -34.9818 H   0  0  0  0  0  0  0  0  0  0  0  0
   -5.3434   16.1947  -33.3218 H   0  0  0  0  0  0  0  0  0  0  0  0
   -7.8760   18.5089  -30.7918 H   0  0  0  0  0  0  0  0  0  0  0  0
   -5.2967   20.8869  -32.6169 H   0  0  0  0  0  0  0  0  0  0  0  0
   -3.7527   22.7233  -31.8234 H   0  0  0  0  0  0  0  0  0  0  0  0
  1  2  1  0
  2  3  1  0
  3  4  1  0
  4  5  2  0
  5  6  1  0
  6  7  2  0
  7  8  1  0
  8  9  1  0
  9 10  2  0
 10 11  1  0
 11 12  2  0
 12 13  1  0
 13 14  2  0
  7 15  1  0
 15 16  2  0
 16 17  1  0
 17  2  2  0
 17  5  1  0
 14  9  1  0
  6 18  1  0
  8 19  1  0
  8 20  1  0
 10 21  1  0
 11 22  1  0
 12 23  1  0
 14 24  1  0
 15 25  1  0
 16 26  1  0
M  CHG  2   1  -1   2   1
M  END
>  <UniqueID>  (13) 
11

>  <SMILES>  (13) 
[O-][n+]1onc2cc(Cc3cccnc3)ccc21

>  <Energy>  (13) 
74.89958188300618

>  <Genealogy>  (13) 
[O-][n+]1onc2cc(Cc3cccnc3)ccc21 (3D coordinates assigned)
[O-][n+]1onc2cc(Cc3cccnc3)ccc21 (optimized conformer: 74.89958188300618 kcal/mol)

>  <smiles>  (13) 
[O-][n+]1onc2cc(Cc3cccnc3)ccc21

>  <score_type>  (13) 
oracle

>  <origin>  (13) 
adg

>  <m_score__min__energy>  (13) 
-8.6999999999999993

>  <m_primary>  (13) 
energy

$$$$
13:0
     RDKit          3D

 70 69  0  0  0  0  0  0  0  0999 V2000
   -3.3294   22.9923  -32.1633 H   0  0  0  0  0  0  0  0  0  0  0  0
   -2.9300   21.9810  -31.9970 C   0  0  0  0  0  0  0  0  0  0  0  0
   -3.7490   20.9420  -32.2580 C   0  0  0  0  0  0  0  0  0  0  0  0
   -3.7319   20.0961  -31.5550 H   0  0  0  0  0  0  0  0  0  0  0  0
   -4.6910   20.8450  -33.4410 C   0  0  0  0  0  0  0  0  0  0  0  0
   -4.8975   21.8579  -33.8171 H   0  0  0  0  0  0  0  0  0  0  0  0
   -4.2095   20.2295  -34.2152 H   0  0  0  0  0  0  0  0  0  0  0  0
   -5.9650   20.2040  -33.0680 N   0  0  0  0  0  0  0  0  0  0  0  0
   -5.9710   20.0220  -32.0400 H   0  0  0  0  0  0  0  0  0  0  0  0
   -6.7410   20.8710  -33.2890 H   0  0  0  0  0  0  0  0  0  0  0  0
   -6.1920   18.9510  -33.8130 C   0  0  0  0  0  0  0  0  0  0  0  0
   -6.7782   19.1756  -34.7163 H   0  0  0  0  0  0  0  0  0  0  0  0
   -5.2110   18.5261  -34.0721 H   0  0  0  0  0  0  0  0  0  0  0  0
   -6.9550   17.9110  -32.9700 C   0  0  0  0  0  0  0  0  0  0  0  0
   -7.1561   17.0327  -33.6010 H   0  0  0  0  0  0  0  0  0  0  0  0
   -6.3196   17.6701  -32.1050 H   0  0  0  0  0  0  0  0  0  0  0  0
   -8.2900   18.4250  -32.4160 C   0  0  0  0  0  0  0  0  0  0  0  0
   -9.0603   18.3499  -33.1977 H   0  0  0  0  0  0  0  0  0  0  0  0
   -8.5752   17.8150  -31.5462 H   0  0  0  0  0  0  0  0  0  0  0  0
   -8.1610   19.8310  -31.9940 N   0  0  0  0  0  0  0  0  0  0  0  0
   -7.6530   19.8840  -31.0810 H   0  0  0  0  0  0  0  0  0  0  0  0
   -9.4570   20.5230  -31.8950 C   0  0  0  0  0  0  0  0  0  0  0  0
   -9.9460   20.4940  -32.8799 H   0  0  0  0  0  0  0  0  0  0  0  0
  -10.0493   20.0039  -31.1270 H   0  0  0  0  0  0  0  0  0  0  0  0
   -9.3220   21.9970  -31.4560 C   0  0  0  0  0  0  0  0  0  0  0  0
  -10.1452   22.5692  -31.9087 H   0  0  0  0  0  0  0  0  0  0  0  0
   -9.3540   22.0052  -30.3565 H   0  0  0  0  0  0  0  0  0  0  0  0
   -7.9920   22.6550  -31.8670 C   0  0  0  0  0  0  0  0  0  0  0  0
   -7.9301   22.6713  -32.9651 H   0  0  0  0  0  0  0  0  0  0  0  0
   -7.9765   23.6721  -31.4482 H   0  0  0  0  0  0  0  0  0  0  0  0
   -6.8240   21.9330  -31.3380 N   0  0  0  0  0  0  0  0  0  0  0  0
   -7.1700   21.0140  -30.9710 H   0  0  0  0  0  0  0  0  0  0  0  0
   -6.2010   22.6520  -30.2170 C   0  0  0  0  0  0  0  0  0  0  0  0
   -6.3231   22.0650  -29.2948 H   0  0  0  0  0  0  0  0  0  0  0  0
   -5.1312   22.7947  -30.4293 H   0  0  0  0  0  0  0  0  0  0  0  0
   -6.8650   24.0200  -30.0390 C   0  0  0  0  0  0  0  0  0  0  0  0
   -7.6687   24.1284  -30.7822 H   0  0  0  0  0  0  0  0  0  0  0  0
   -7.2705   24.0806  -29.0183 H   0  0  0  0  0  0  0  0  0  0  0  0
   -5.8520   25.1560  -30.2280 C   0  0  0  0  0  0  0  0  0  0  0  0
   -6.2836   25.9141  -30.8980 H   0  0  0  0  0  0  0  0  0  0  0  0
   -5.6287   25.5918  -29.2430 H   0  0  0  0  0  0  0  0  0  0  0  0
   -4.5450   24.6360  -30.8370 C   0  0  0  0  0  0  0  0  0  0  0  0
   -4.6240   23.5497  -30.9913 H   0  0  0  0  0  0  0  0  0  0  0  0
   -4.3727   25.1428  -31.7980 H   0  0  0  0  0  0  0  0  0  0  0  0
   -3.4140   24.9170  -29.9400 N   0  0  0  0  0  0  0  0  0  0  0  0
   -2.5430   24.6190  -30.4400 H   0  0  0  0  0  0  0  0  0  0  0  0
   -3.5010   24.1350  -28.6980 C   0  0  0  0  0  0  0  0  0  0  0  0
   -4.5598   23.9815  -28.4421 H   0  0  0  0  0  0  0  0  0  0  0  0
   -3.0004   23.1682  -28.8549 H   0  0  0  0  0  0  0  0  0  0  0  0
   -2.8040   24.8680  -27.5400 C   0  0  0  0  0  0  0  0  0  0  0  0
   -3.3914   25.7660  -27.2979 H   0  0  0  0  0  0  0  0  0  0  0  0
   -2.7482   24.1545  -26.7047 H   0  0  0  0  0  0  0  0  0  0  0  0
   -1.3580   25.3050  -27.8430 C   0  0  0  0  0  0  0  0  0  0  0  0
   -1.2116   26.3264  -27.4618 H   0  0  0  0  0  0  0  0  0  0  0  0
   -0.6839   24.5876  -27.3521 H   0  0  0  0  0  0  0  0  0  0  0  0
   -1.0530   25.2910  -29.2740 N   0  0  0  0  0  0  0  0  0  0  0  0
   -1.3280   24.3660  -29.6790 H   0  0  0  0  0  0  0  0  0  0  0  0
   -1.6090   26.0360  -29.7510 H   0  0  0  0  0  0  0  0  0  0  0  0
   -1.5090   21.8710  -31.4950 C   0  0  0  0  0  0  0  0  0  0  0  0
   -0.8247   22.1353  -32.3147 H   0  0  0  0  0  0  0  0  0  0  0  0
   -1.3558   20.8361  -31.1550 H   0  0  0  0  0  0  0  0  0  0  0  0
   -1.2400   22.7590  -30.3520 N   0  0  0  0  0  0  0  0  0  0  0  0
   -1.9930   23.4750  -30.2420 H   0  0  0  0  0  0  0  0  0  0  0  0
   -0.9940   22.0400  -29.0880 C   0  0  0  0  0  0  0  0  0  0  0  0
   -0.8847   22.7771  -28.2788 H   0  0  0  0  0  0  0  0  0  0  0  0
   -0.0803   21.4414  -29.2174 H   0  0  0  0  0  0  0  0  0  0  0  0
   -2.1290   21.0810  -28.7270 C   0  0  0  0  0  0  0  0  0  0  0  0
   -2.2141   21.0091  -27.6327 H   0  0  0  0  0  0  0  0  0  0  0  0
   -3.0743   21.4581  -29.1443 H   0  0  0  0  0  0  0  0  0  0  0  0
   -1.9150   20.0860  -29.1443 H   0  0  0  0  0  0  0  0  0  0  0  0
  1  2  1  0
  2  3  2  0
  3  4  1  0
  3  5  1  0
  5  6  1  0
  5  7  1  0
  5  8  1  0
  8  9  1  0
  8 10  1  0
  8 11  1  0
 11 12  1  0
 11 13  1  0
 11 14  1  0
 14 15  1  0
 14 16  1  0
 14 17  1  0
 17 18  1  0
 17 19  1  0
 17 20  1  0
 20 21  1  0
 20 22  1  0
 22 23  1  0
 22 24  1  0
 22 25  1  0
 25 26  1  0
 25 27  1  0
 25 28  1  0
 28 29  1  0
 28 30  1  0
 28 31  1  0
 31 32  1  0
 31 33  1  0
 33 34  1  0
 33 35  1  0
 33 36  1  0
 36 37  1  0
 36 38  1  0
 36 39  1  0
 39 40  1  0
 39 41  1  0
 39 42  1  0
 42 43  1  0
 42 44  1  0
 42 45  1  0
 45 46  1  0
 45 47  1  0
 47 48  1  0
 47 49  1  0
 47 50  1  0
 50 51  1  0
 50 52  1  0
 50 53  1  0
 53 54  1  0
 53 55  1  0
 53 56  1  0
 56 57  1  0
 56 58  1  0
  2 59  1  0
 59 60  1  0
 59 61  1  0
 59 62  1  0
 62 63  1  0
 62 64  1  0
 64 65  1  0
 64 66  1  0
 64 67  1  0
 67 68  1  0
 67 69  1  0
 67 70  1  0
M  CHG  1   8   1
M  END
>  <UniqueID>  (14) 
12

>  <SMILES>  (14) 
CCNC/C=C\C[NH2+]CCCNCCCNCCCCNCCCN

>  <Energy>  (14) 
47.929493920635046

>  <Genealogy>  (14) 
CCNCC=CC[NH2+]CCCNCCCNCCCCNCCCN (protonated)
CCNC/C=C\C[NH2+]CCCNCCCNCCCCNCCCN (cis-trans isomerization)
CCNC/C=C\C[NH2+]CCCNCCCNCCCCNCCCN (3D coordinates assigned)
CCNC/C=C\C[NH2+]CCCNCCCNCCCCNCCCN (optimized conformer: 47.929493920635046 kcal/mol)

>  <smiles>  (14) 
CCNCC=CCNCCCNCCCNCCCCNCCCN

>  <score_type>  (14) 
oracle

>  <origin>  (14) 
adg

>  <m_score__min__energy>  (14) 
-4.0599999999999996

>  <m_primary>  (14) 
energy

$$$$
14:0
     RDKit          3D

 39 40  0  0  0  0  0  0  0  0999 V2000
   -3.9230   25.6390  -31.0850 O   0  0  0  0  0  0  0  0  0  0  0  0
   -3.7960   24.9290  -30.0530 C   0  0  0  0  0  0  0  0  0  0  0  0
   -2.6030   24.9640  -29.3400 O   0  0  0  0  0  0  0  0  0  0  0  0
   -4.9360   24.0590  -29.5880 C   0  0  1  0  0  0  0  0  0  0  0  0
   -6.1510   24.1960  -30.5300 C   0  0  0  0  0  0  0  0  0  0  0  0
   -7.1530   23.0410  -30.3580 C   0  0  0  0  0  0  0  0  0  0  0  0
   -7.8890   22.7090  -31.6650 C   0  0  0  0  0  0  0  0  0  0  0  0
   -7.8560   21.2340  -31.9740 C   0  0  0  0  0  0  0  0  0  0  0  0
   -6.9170   20.7180  -32.8840 C   0  0  0  0  0  0  0  0  0  0  0  0
   -6.8750   19.3450  -33.1500 C   0  0  0  0  0  0  0  0  0  0  0  0
   -7.7650   18.4790  -32.5070 C   0  0  0  0  0  0  0  0  0  0  0  0
   -8.6980   18.9850  -31.5970 C   0  0  0  0  0  0  0  0  0  0  0  0
   -8.7440   20.3560  -31.3290 C   0  0  0  0  0  0  0  0  0  0  0  0
   -4.4890   22.5840  -29.4990 C   0  0  0  0  0  0  0  0  0  0  0  0
   -3.6700   22.1740  -30.6970 C   0  0  0  0  0  0  0  0  0  0  0  0
   -2.3020   21.8920  -30.5550 C   0  0  0  0  0  0  0  0  0  0  0  0
   -1.5340   21.5380  -31.6700 C   0  0  0  0  0  0  0  0  0  0  0  0
   -2.1270   21.4710  -32.9340 C   0  0  0  0  0  0  0  0  0  0  0  0
   -3.4860   21.7590  -33.0860 C   0  0  0  0  0  0  0  0  0  0  0  0
   -4.2570   22.1120  -31.9730 C   0  0  0  0  0  0  0  0  0  0  0  0
   -5.2371   24.3962  -28.5852 H   0  0  0  0  0  0  0  0  0  0  0  0
   -6.6632   25.1447  -30.3119 H   0  0  0  0  0  0  0  0  0  0  0  0
   -5.7802   24.1700  -31.5653 H   0  0  0  0  0  0  0  0  0  0  0  0
   -6.6078   22.1467  -30.0219 H   0  0  0  0  0  0  0  0  0  0  0  0
   -7.9046   23.3545  -29.6185 H   0  0  0  0  0  0  0  0  0  0  0  0
   -8.9374   23.0290  -31.5731 H   0  0  0  0  0  0  0  0  0  0  0  0
   -7.3810   23.2387  -32.4844 H   0  0  0  0  0  0  0  0  0  0  0  0
   -6.2129   21.3959  -33.3886 H   0  0  0  0  0  0  0  0  0  0  0  0
   -6.1410   18.9463  -33.8658 H   0  0  0  0  0  0  0  0  0  0  0  0
   -7.7310   17.3998  -32.7172 H   0  0  0  0  0  0  0  0  0  0  0  0
   -9.3971   18.3029  -31.0910 H   0  0  0  0  0  0  0  0  0  0  0  0
   -9.4781   20.7494  -30.6104 H   0  0  0  0  0  0  0  0  0  0  0  0
   -3.8833   22.4497  -28.5907 H   0  0  0  0  0  0  0  0  0  0  0  0
   -5.3906   21.9546  -29.4695 H   0  0  0  0  0  0  0  0  0  0  0  0
   -1.8315   21.9496  -29.5624 H   0  0  0  0  0  0  0  0  0  0  0  0
   -0.4639   21.3125  -31.5518 H   0  0  0  0  0  0  0  0  0  0  0  0
   -1.5233   21.1913  -33.8100 H   0  0  0  0  0  0  0  0  0  0  0  0
   -3.9502   21.7081  -34.0820 H   0  0  0  0  0  0  0  0  0  0  0  0
   -5.3256   22.3417  -32.0967 H   0  0  0  0  0  0  0  0  0  0  0  0
  1  2  2  0
  2  3  1  0
  2  4  1  0
  4  5  1  0
  5  6  1  0
  6  7  1  0
  7  8  1  0
  8  9  2  0
  9 10  1  0
 10 11  2  0
 11 12  1  0
 12 13  2  0
  4 14  1  0
 14 15  1  0
 15 16  2  0
 16 17  1  0
 17 18  2  0
 18 19  1  0
 19 20  2  0
 13  8  1  0
 20 15  1  0
  4 21  1  1
  5 22  1  0
  5 23  1  0
  6 24  1  0
  6 25  1  0
  7 26  1  0
  7 27  1  0
  9 28  1  0
 10 29  1  0
 11 30  1  0
 12 31  1  0
 13 32  1  0
 14 33  1  0
 14 34  1  0
 16 35  1  0
 17 36  1  0
 18 37  1  0
 19 38  1  0
 20 39  1  0
M  CHG  1   3  -1
M  END
>  <UniqueID>  (15) 
13

>  <SMILES>  (15) 
O=C([O-])[C@@H](CCCc1ccccc1)Cc1ccccc1

>  <Energy>  (15) 
31.606430131000543

>  <Genealogy>  (15) 
O=C([O-])C(CCCc1ccccc1)Cc1ccccc1 (protonated)
O=C([O-])[C@@H](CCCc1ccccc1)Cc1ccccc1 (chirality)
O=C([O-])[C@@H](CCCc1ccccc1)Cc1ccccc1 (3D coordinates assigned)
O=C([O-])[C@@H](CCCc1ccccc1)Cc1ccccc1 (optimized conformer: 31.606430131000543 kcal/mol)

>  <smiles>  (15) 
O=C(O)C(CCCc1ccccc1)Cc1ccccc1

>  <score_type>  (15) 
oracle

>  <origin>  (15) 
adg

>  <m_score__min__energy>  (15) 
-10.5

>  <m_primary>  (15) 
energy

$$$$
15:0
     RDKit          3D

 57 60  0  0  0  0  0  0  0  0999 V2000
   -5.9010   20.0570  -31.2890 O   0  0  0  0  0  0  0  0  0  0  0  0
   -5.4950   21.0020  -32.0210 C   0  0  0  0  0  0  0  0  0  0  0  0
   -6.4280   21.9880  -32.4850 N   0  0  0  0  0  0  0  0  0  0  0  0
   -7.7810   22.0740  -31.9340 C   0  0  0  0  0  0  0  0  0  0  0  0
   -7.8360   23.0010  -30.7130 C   0  0  0  0  0  0  0  0  0  0  0  0
   -6.4920   23.6230  -30.4290 C   0  0  0  0  0  0  0  0  0  0  0  0
   -5.6090   23.0140  -29.5230 C   0  0  0  0  0  0  0  0  0  0  0  0
   -4.3510   23.5730  -29.2790 C   0  0  0  0  0  0  0  0  0  0  0  0
   -3.9630   24.7420  -29.9400 C   0  0  0  0  0  0  0  0  0  0  0  0
   -2.7120   25.2960  -29.6980 O   0  0  0  0  0  0  0  0  0  0  0  0
   -4.8350   25.3530  -30.8470 C   0  0  0  0  0  0  0  0  0  0  0  0
   -6.0940   24.7970  -31.0920 C   0  0  0  0  0  0  0  0  0  0  0  0
   -4.0620   21.0670  -32.3980 C   0  0  0  0  0  0  0  0  0  0  0  0
   -3.5840   20.3110  -33.4810 C   0  0  0  0  0  0  0  0  0  0  0  0
   -2.2350   20.3590  -33.8430 C   0  0  0  0  0  0  0  0  0  0  0  0
   -1.3320   21.1630  -33.1220 C   0  0  0  0  0  0  0  0  0  0  0  0
    0.0630   21.2390  -33.4720 N   0  0  0  0  0  0  0  0  0  0  0  0
    1.0990   20.4360  -32.8200 C   0  0  0  0  0  0  0  0  0  0  0  0
    0.6740   18.9900  -32.7260 C   0  0  0  0  0  0  0  0  0  0  0  0
    0.6460   18.2170  -33.9000 C   0  0  0  0  0  0  0  0  0  0  0  0
    0.2730   16.8710  -33.8570 C   0  0  0  0  0  0  0  0  0  0  0  0
   -0.0800   16.2820  -32.6440 C   0  0  0  0  0  0  0  0  0  0  0  0
   -0.0740   17.0380  -31.4700 C   0  0  0  0  0  0  0  0  0  0  0  0
    0.2830   18.3970  -31.4980 C   0  0  0  0  0  0  0  0  0  0  0  0
    0.2510   19.1610  -30.2330 C   0  0  0  0  0  0  0  0  0  0  0  0
    1.4020   19.2670  -29.4340 C   0  0  0  0  0  0  0  0  0  0  0  0
    1.3640   19.9850  -28.2350 C   0  0  0  0  0  0  0  0  0  0  0  0
    0.1810   20.6110  -27.8320 C   0  0  0  0  0  0  0  0  0  0  0  0
   -0.9640   20.5220  -28.6290 C   0  0  0  0  0  0  0  0  0  0  0  0
   -0.9300   19.8030  -29.8280 C   0  0  0  0  0  0  0  0  0  0  0  0
   -1.8070   21.9050  -32.0320 C   0  0  0  0  0  0  0  0  0  0  0  0
   -3.1570   21.8570  -31.6700 C   0  0  0  0  0  0  0  0  0  0  0  0
   -6.1450   22.6300  -33.2590 H   0  0  0  0  0  0  0  0  0  0  0  0
   -8.4578   22.4636  -32.7087 H   0  0  0  0  0  0  0  0  0  0  0  0
   -8.0871   21.0667  -31.6151 H   0  0  0  0  0  0  0  0  0  0  0  0
   -8.5665   23.8008  -30.9043 H   0  0  0  0  0  0  0  0  0  0  0  0
   -8.1303   22.4021  -29.8385 H   0  0  0  0  0  0  0  0  0  0  0  0
   -5.9085   22.0924  -29.0025 H   0  0  0  0  0  0  0  0  0  0  0  0
   -3.6654   23.0921  -28.5657 H   0  0  0  0  0  0  0  0  0  0  0  0
   -4.5297   26.2723  -31.3682 H   0  0  0  0  0  0  0  0  0  0  0  0
   -6.7763   25.2803  -31.8068 H   0  0  0  0  0  0  0  0  0  0  0  0
   -4.2782   19.6750  -34.0498 H   0  0  0  0  0  0  0  0  0  0  0  0
   -1.8766   19.7649  -34.6966 H   0  0  0  0  0  0  0  0  0  0  0  0
    0.3400   21.8810  -34.2500 H   0  0  0  0  0  0  0  0  0  0  0  0
    2.0283   20.5019  -33.4049 H   0  0  0  0  0  0  0  0  0  0  0  0
    1.2594   20.8241  -31.8033 H   0  0  0  0  0  0  0  0  0  0  0  0
    0.9203   18.6760  -34.8613 H   0  0  0  0  0  0  0  0  0  0  0  0
    0.2579   16.2754  -34.7817 H   0  0  0  0  0  0  0  0  0  0  0  0
   -0.3638   15.2197  -32.6115 H   0  0  0  0  0  0  0  0  0  0  0  0
   -0.3509   16.5661  -30.5157 H   0  0  0  0  0  0  0  0  0  0  0  0
    2.3368   18.7830  -29.7532 H   0  0  0  0  0  0  0  0  0  0  0  0
    2.2653   20.0573  -27.6086 H   0  0  0  0  0  0  0  0  0  0  0  0
    0.1510   21.1739  -26.8874 H   0  0  0  0  0  0  0  0  0  0  0  0
   -1.8933   21.0183  -28.3125 H   0  0  0  0  0  0  0  0  0  0  0  0
   -1.8312   19.7403  -30.4556 H   0  0  0  0  0  0  0  0  0  0  0  0
   -1.1108   22.5316  -31.4553 H   0  0  0  0  0  0  0  0  0  0  0  0
   -3.5127   22.4421  -30.8091 H   0  0  0  0  0  0  0  0  0  0  0  0
  1  2  2  0
  2  3  1  0
  3  4  1  0
  4  5  1  0
  5  6  1  0
  6  7  2  0
  7  8  1  0
  8  9  2  0
  9 10  1  0
  9 11  1  0
 11 12  2  0
  2 13  1  0
 13 14  2  0
 14 15  1  0
 15 16  2  0
 16 17  1  0
 17 18  1  0
 18 19  1  0
 19 20  2  0
 20 21  1  0
 21 22  2  0
 22 23  1  0
 23 24  2  0
 24 25  1  0
 25 26  2  0
 26 27  1  0
 27 28  2  0
 28 29  1  0
 29 30  2  0
 16 31  1  0
 31 32  2  0
 12  6  1  0
 32 13  1  0
 24 19  1  0
 30 25  1  0
  3 33  1  0
  4 34  1  0
  4 35  1  0
  5 36  1  0
  5 37  1  0
  7 38  1  0
  8 39  1  0
 11 40  1  0
 12 41  1  0
 14 42  1  0
 15 43  1  0
 17 44  1  0
 18 45  1  0
 18 46  1  0
 20 47  1  0
 21 48  1  0
 22 49  1  0
 23 50  1  0
 26 51  1  0
 27 52  1  0
 28 53  1  0
 29 54  1  0
 30 55  1  0
 31 56  1  0
 32 57  1  0
M  CHG  1  10  -1
M  END
>  <UniqueID>  (16) 
14

>  <SMILES>  (16) 
O=C(NCCc1ccc([O-])cc1)c1ccc(NCc2ccccc2-c2ccccc2)cc1

>  <Energy>  (16) 
66.50482416226895

>  <Genealogy>  (16) 
O=C(NCCc1ccc([O-])cc1)c1ccc(NCc2ccccc2-c2ccccc2)cc1 (protonated)
O=C(NCCc1ccc([O-])cc1)c1ccc(NCc2ccccc2-c2ccccc2)cc1 (3D coordinates assigned)
O=C(NCCc1ccc([O-])cc1)c1ccc(NCc2ccccc2-c2ccccc2)cc1 (optimized conformer: 66.50482416226895 kcal/mol)

>  <smiles>  (16) 
O=C(NCCc1ccc(O)cc1)c1ccc(NCc2ccccc2-c2ccccc2)cc1

>  <score_type>  (16) 
oracle

>  <origin>  (16) 
adg

>  <m_score__min__energy>  (16) 
-12.210000000000001

>  <m_primary>  (16) 
energy

$$$$
16:0
     RDKit          3D

 57 62  0  0  0  0  0  0  0  0999 V2000
   -1.2230   26.3690  -25.7060 C   0  0  0  0  0  0  0  0  0  0  0  0
   -0.4090   26.4310  -26.8400 C   0  0  0  0  0  0  0  0  0  0  0  0
   -0.7550   25.7170  -27.9910 C   0  0  0  0  0  0  0  0  0  0  0  0
   -1.9180   24.9280  -28.0120 C   0  0  0  0  0  0  0  0  0  0  0  0
   -2.2810   24.1500  -29.2500 C   0  0  0  0  0  0  0  0  0  0  0  0
   -3.1270   24.9250  -30.1000 O   0  0  0  0  0  0  0  0  0  0  0  0
   -4.4780   24.6430  -30.3540 C   0  0  0  0  0  0  0  0  0  0  0  0
   -5.5450   25.3490  -29.7470 C   0  0  0  0  0  0  0  0  0  0  0  0
   -6.8850   24.9790  -30.0000 C   0  0  0  0  0  0  0  0  0  0  0  0
   -7.1780   23.9040  -30.8570 C   0  0  0  0  0  0  0  0  0  0  0  0
   -6.1060   23.2390  -31.4520 C   0  0  0  0  0  0  0  0  0  0  0  0
   -4.8110   23.6050  -31.2220 C   0  0  0  0  0  0  0  0  0  0  0  0
   -3.9680   22.7730  -31.8600 N   0  0  0  0  0  0  0  0  0  0  0  0
   -4.8030   21.8990  -32.4780 C   0  0  0  0  0  0  0  0  0  0  0  0
   -6.1150   22.1590  -32.2510 N   0  0  0  0  0  0  0  0  0  0  0  0
   -7.2370   21.2710  -32.5560 C   0  0  0  0  0  0  0  0  0  0  0  0
   -6.7090   19.9040  -32.9010 C   0  0  0  0  0  0  0  0  0  0  0  0
   -6.8670   18.8440  -31.9960 C   0  0  0  0  0  0  0  0  0  0  0  0
   -6.5280   17.5410  -32.3690 C   0  0  0  0  0  0  0  0  0  0  0  0
   -6.0490   17.2790  -33.6610 C   0  0  0  0  0  0  0  0  0  0  0  0
   -5.7770   15.8890  -34.0880 C   0  0  0  0  0  0  0  0  0  0  0  0
   -6.8630   15.0090  -34.2260 C   0  0  0  0  0  0  0  0  0  0  0  0
   -6.6530   13.6640  -34.5360 C   0  0  0  0  0  0  0  0  0  0  0  0
   -5.3560   13.1830  -34.7120 C   0  0  0  0  0  0  0  0  0  0  0  0
   -4.2650   14.0460  -34.5940 C   0  0  0  0  0  0  0  0  0  0  0  0
   -4.4570   15.4090  -34.3030 C   0  0  0  0  0  0  0  0  0  0  0  0
   -3.2660   16.2910  -34.2600 C   0  0  0  0  0  0  0  0  0  0  0  0
   -2.7680   16.8400  -33.1340 N   0  0  0  0  0  0  0  0  0  0  0  0
   -1.6870   17.5020  -33.5210 N   0  0  0  0  0  0  0  0  0  0  0  0
   -1.5130   17.3620  -34.8270 N   0  0  0  0  0  0  0  0  0  0  0  0
   -2.4840   16.6070  -35.3080 N   0  0  0  0  0  0  0  0  0  0  0  0
   -5.8560   18.3440  -34.5540 C   0  0  0  0  0  0  0  0  0  0  0  0
   -6.1850   19.6470  -34.1770 C   0  0  0  0  0  0  0  0  0  0  0  0
   -2.7360   24.8780  -26.8710 C   0  0  0  0  0  0  0  0  0  0  0  0
   -2.3860   25.5940  -25.7210 C   0  0  0  0  0  0  0  0  0  0  0  0
   -0.9483   26.9305  -24.8009 H   0  0  0  0  0  0  0  0  0  0  0  0
    0.5053   27.0425  -26.8270 H   0  0  0  0  0  0  0  0  0  0  0  0
   -0.1146   25.7729  -28.8836 H   0  0  0  0  0  0  0  0  0  0  0  0
   -1.3621   23.8888  -29.7953 H   0  0  0  0  0  0  0  0  0  0  0  0
   -2.8181   23.2378  -28.9511 H   0  0  0  0  0  0  0  0  0  0  0  0
   -5.3291   26.1916  -29.0736 H   0  0  0  0  0  0  0  0  0  0  0  0
   -7.7047   25.5362  -29.5229 H   0  0  0  0  0  0  0  0  0  0  0  0
   -8.2165   23.5979  -31.0516 H   0  0  0  0  0  0  0  0  0  0  0  0
   -4.4509   21.0634  -33.1007 H   0  0  0  0  0  0  0  0  0  0  0  0
   -7.8979   21.1994  -31.6796 H   0  0  0  0  0  0  0  0  0  0  0  0
   -7.8045   21.6731  -33.4082 H   0  0  0  0  0  0  0  0  0  0  0  0
   -7.2599   19.0397  -30.9874 H   0  0  0  0  0  0  0  0  0  0  0  0
   -6.6371   16.7181  -31.6473 H   0  0  0  0  0  0  0  0  0  0  0  0
   -7.8883   15.3829  -34.0886 H   0  0  0  0  0  0  0  0  0  0  0  0
   -7.5108   12.9836  -34.6414 H   0  0  0  0  0  0  0  0  0  0  0  0
   -5.1920   12.1204  -34.9445 H   0  0  0  0  0  0  0  0  0  0  0  0
   -3.2453   13.6565  -34.7299 H   0  0  0  0  0  0  0  0  0  0  0  0
   -2.5650   16.3020  -36.3040 H   0  0  0  0  0  0  0  0  0  0  0  0
   -5.4437   18.1512  -35.5554 H   0  0  0  0  0  0  0  0  0  0  0  0
   -6.0328   20.4763  -34.8835 H   0  0  0  0  0  0  0  0  0  0  0  0
   -3.6551   24.2737  -26.8817 H   0  0  0  0  0  0  0  0  0  0  0  0
   -3.0266   25.5469  -24.8280 H   0  0  0  0  0  0  0  0  0  0  0  0
  1  2  2  0
  2  3  1  0
  3  4  2  0
  4  5  1  0
  5  6  1  0
  6  7  1  0
  7  8  2  0
  8  9  1  0
  9 10  2  0
 10 11  1  0
 11 12  2  0
 12 13  1  0
 13 14  2  0
 14 15  1  0
 15 16  1  0
 16 17  1  0
 17 18  2  0
 18 19  1  0
 19 20  2  0
 20 21  1  0
 21 22  2  0
 22 23  1  0
 23 24  2  0
 24 25  1  0
 25 26  2  0
 26 27  1  0
 27 28  2  0
 28 29  1  0
 29 30  1  0
 30 31  2  0
 20 32  1  0
 32 33  2  0
  4 34  1  0
 34 35  2  0
 35  1  1  0
 12  7  1  0
 33 17  1  0
 15 11  1  0
 26 21  1  0
 31 27  1  0
  1 36  1  0
  2 37  1  0
  3 38  1  0
  5 39  1  0
  5 40  1  0
  8 41  1  0
  9 42  1  0
 10 43  1  0
 14 44  1  0
 16 45  1  0
 16 46  1  0
 18 47  1  0
 19 48  1  0
 22 49  1  0
 23 50  1  0
 24 51  1  0
 25 52  1  0
 31 53  1  0
 32 54  1  0
 33 55  1  0
 34 56  1  0
 35 57  1  0
M  CHG  2  29  -1  31   1
M  END
>  <UniqueID>  (17) 
15

>  <SMILES>  (17) 
c1ccc(COc2cccc3c2ncn3Cc2ccc(-c3ccccc3-c3n[n-]n[nH+]3)cc2)cc1

>  <Energy>  (17) 
149.92414998395793

>  <Genealogy>  (17) 
c1ccc(COc2cccc3c2ncn3Cc2ccc(-c3ccccc3-c3n[n-]n[nH+]3)cc2)cc1 (protonated)
c1ccc(COc2cccc3c2ncn3Cc2ccc(-c3ccccc3-c3n[n-]n[nH+]3)cc2)cc1 (3D coordinates assigned)
c1ccc(COc2cccc3c2ncn3Cc2ccc(-c3ccccc3-c3n[n-]n[nH+]3)cc2)cc1 (optimized conformer: 149.92414998395793 kcal/mol)

>  <smiles>  (17) 
c1ccc(COc2cccc3c2ncn3Cc2ccc(-c3ccccc3-c3nn[nH]n3)cc2)cc1

>  <score_type>  (17) 
oracle

>  <origin>  (17) 
adg

>  <m_score__min__energy>  (17) 
-11.18

>  <m_primary>  (17) 
energy

$$$$
17:0
     RDKit          3D

 38 40  0  0  1  0  0  0  0  0999 V2000
   -3.1430   21.1090  -33.2960 C   0  0  0  0  0  0  0  0  0  0  0  0
   -4.4390   20.3910  -33.1330 C   0  0  0  0  0  0  0  0  0  0  0  0
   -4.5780   19.0370  -33.3430 C   0  0  0  0  0  0  0  0  0  0  0  0
   -5.7410   18.3760  -33.1980 N   0  0  0  0  0  0  0  0  0  0  0  0
   -6.8190   19.0810  -32.8300 C   0  0  0  0  0  0  0  0  0  0  0  0
   -7.9900   18.4400  -32.6770 N   0  0  0  0  0  0  0  0  0  0  0  0
   -9.1040   19.1340  -32.3010 C   0  0  0  0  0  0  0  0  0  0  0  0
   -9.0210   20.4710  -32.0830 N   0  0  0  0  0  0  0  0  0  0  0  0
   -7.8320   21.1120  -32.2400 C   0  0  0  0  0  0  0  0  0  0  0  0
   -7.7650   22.3470  -32.0380 N   0  0  0  0  0  0  0  0  0  0  0  0
   -7.6150   23.0810  -30.8370 C   0  0  0  0  0  0  0  0  0  0  0  0
   -6.3110   22.6660  -30.1910 C   0  0  0  0  0  0  0  0  0  0  0  0
   -5.7380   23.5860  -29.2910 N   0  0  0  0  0  0  0  0  0  0  0  0
   -6.0800   24.9370  -29.7160 C   0  0  0  0  0  0  0  0  0  0  0  0
   -5.2110   25.3540  -30.8640 C   0  0  0  0  0  0  0  0  0  0  0  0
   -3.8670   25.3140  -30.5070 O   0  0  0  0  0  0  0  0  0  0  0  0
   -3.5030   24.0060  -30.1800 C   0  0  0  0  0  0  0  0  0  0  0  0
   -4.3580   23.5470  -29.0050 C   0  0  0  0  0  0  0  0  0  0  0  0
   -6.7000   20.4320  -32.6180 C   0  0  0  0  0  0  0  0  0  0  0  0
   -5.5380   21.0620  -32.7670 N   0  0  0  0  0  0  0  0  0  0  0  0
   -2.7250   21.3406  -32.3052 H   0  0  0  0  0  0  0  0  0  0  0  0
   -2.4385   20.4725  -33.8515 H   0  0  0  0  0  0  0  0  0  0  0  0
   -3.3090   22.0438  -33.8515 H   0  0  0  0  0  0  0  0  0  0  0  0
   -3.6891   18.4642  -33.6460 H   0  0  0  0  0  0  0  0  0  0  0  0
  -10.0641   18.6121  -32.1754 H   0  0  0  0  0  0  0  0  0  0  0  0
   -9.8790   21.0150  -31.7920 H   0  0  0  0  0  0  0  0  0  0  0  0
   -7.5948   24.1582  -31.0586 H   0  0  0  0  0  0  0  0  0  0  0  0
   -8.4572   22.8781  -30.1591 H   0  0  0  0  0  0  0  0  0  0  0  0
   -6.4920   21.7297  -29.6428 H   0  0  0  0  0  0  0  0  0  0  0  0
   -5.5903   22.5775  -31.0173 H   0  0  0  0  0  0  0  0  0  0  0  0
   -7.1340   24.9634  -30.0298 H   0  0  0  0  0  0  0  0  0  0  0  0
   -5.9210   25.6287  -28.8756 H   0  0  0  0  0  0  0  0  0  0  0  0
   -5.3797   24.6718  -31.7102 H   0  0  0  0  0  0  0  0  0  0  0  0
   -5.4702   26.3853  -31.1456 H   0  0  0  0  0  0  0  0  0  0  0  0
   -3.6737   23.3462  -31.0435 H   0  0  0  0  0  0  0  0  0  0  0  0
   -2.4375   23.9672  -29.9094 H   0  0  0  0  0  0  0  0  0  0  0  0
   -4.0802   22.5138  -28.7495 H   0  0  0  0  0  0  0  0  0  0  0  0
   -4.1715   24.2359  -28.1680 H   0  0  0  0  0  0  0  0  0  0  0  0
  1  2  1  0
  2  3  2  0
  3  4  1  0
  4  5  2  0
  5  6  1  0
  6  7  2  0
  7  8  1  0
  8  9  1  0
  9 10  2  0
 10 11  1  0
 11 12  1  0
 12 13  1  0
 13 14  1  0
 14 15  1  0
 15 16  1  0
 16 17  1  0
 17 18  1  0
  9 19  1  0
 19 20  2  0
 20  2  1  0
 19  5  1  0
 18 13  1  0
  1 21  1  0
  1 22  1  0
  1 23  1  0
  3 24  1  0
  7 25  1  0
  8 26  1  0
 11 27  1  0
 11 28  1  0
 12 29  1  0
 12 30  1  0
 14 31  1  0
 14 32  1  0
 15 33  1  0
 15 34  1  0
 17 35  1  0
 17 36  1  0
 18 37  1  0
 18 38  1  0
M  END
>  <smiles>  (18) 
Cc1cnc2nc[nH]c(=NCCN3CCOCC3)c2n1

>  <score_type>  (18) 
oracle

>  <origin>  (18) 
adg

>  <m_score__min__energy>  (18) 
-7.1900000000000004

>  <m_primary>  (18) 
energy

$$$$
18:0
     RDKit          3D

 37 39  0  0  0  0  0  0  0  0999 V2000
    0.2330   24.5390  -28.9660 O   0  0  0  0  0  0  0  0  0  0  0  0
   -1.0080   24.6800  -28.7970 C   0  0  0  0  0  0  0  0  0  0  0  0
   -1.5680   25.9410  -28.9590 O   0  0  0  0  0  0  0  0  0  0  0  0
   -1.8570   23.5080  -28.4710 C   0  0  0  0  0  0  0  0  0  0  0  0
   -1.4790   22.6810  -27.3960 C   0  0  0  0  0  0  0  0  0  0  0  0
   -2.1770   21.5030  -27.1220 C   0  0  0  0  0  0  0  0  0  0  0  0
   -3.2520   21.1250  -27.9220 C   0  0  0  0  0  0  0  0  0  0  0  0
   -3.6570   21.9410  -28.9790 C   0  0  0  0  0  0  0  0  0  0  0  0
   -2.9950   23.1520  -29.2450 C   0  0  0  0  0  0  0  0  0  0  0  0
   -3.5550   24.0300  -30.2960 C   0  0  0  0  0  0  0  0  0  0  0  0
   -3.5480   25.2770  -30.1240 O   0  0  0  0  0  0  0  0  0  0  0  0
   -4.0760   23.5040  -31.5260 N   0  0  0  0  0  0  0  0  0  0  0  0
   -5.4170   23.0290  -31.7090 C   0  0  0  0  0  0  0  0  0  0  0  0
   -6.4730   23.8470  -31.2860 C   0  0  0  0  0  0  0  0  0  0  0  0
   -7.7940   23.4100  -31.3850 C   0  0  0  0  0  0  0  0  0  0  0  0
   -8.0770   22.1540  -31.9210 C   0  0  0  0  0  0  0  0  0  0  0  0
   -7.0380   21.3350  -32.3810 C   0  0  0  0  0  0  0  0  0  0  0  0
   -5.6990   21.7750  -32.3050 C   0  0  0  0  0  0  0  0  0  0  0  0
   -4.6510   20.9700  -33.0470 C   0  0  0  0  0  0  0  0  0  0  0  0
   -4.8370   19.4410  -32.9130 C   0  0  0  0  0  0  0  0  0  0  0  0
   -6.2670   18.9890  -32.5430 C   0  0  0  0  0  0  0  0  0  0  0  0
   -7.3330   19.9930  -32.9910 C   0  0  0  0  0  0  0  0  0  0  0  0
   -0.6243   22.9660  -26.7649 H   0  0  0  0  0  0  0  0  0  0  0  0
   -1.8769   20.8723  -26.2722 H   0  0  0  0  0  0  0  0  0  0  0  0
   -3.7824   20.1826  -27.7207 H   0  0  0  0  0  0  0  0  0  0  0  0
   -4.5033   21.6333  -29.6107 H   0  0  0  0  0  0  0  0  0  0  0  0
   -6.2583   24.8432  -30.8719 H   0  0  0  0  0  0  0  0  0  0  0  0
   -8.6138   24.0571  -31.0397 H   0  0  0  0  0  0  0  0  0  0  0  0
   -9.1186   21.8057  -31.9827 H   0  0  0  0  0  0  0  0  0  0  0  0
   -4.7000   21.2343  -34.1136 H   0  0  0  0  0  0  0  0  0  0  0  0
   -3.6770   21.2174  -32.5995 H   0  0  0  0  0  0  0  0  0  0  0  0
   -4.5709   18.9789  -33.8751 H   0  0  0  0  0  0  0  0  0  0  0  0
   -4.1889   19.1233  -32.0829 H   0  0  0  0  0  0  0  0  0  0  0  0
   -6.4677   18.0218  -33.0269 H   0  0  0  0  0  0  0  0  0  0  0  0
   -6.3202   18.9113  -31.4470 H   0  0  0  0  0  0  0  0  0  0  0  0
   -7.3210   20.0771  -34.0877 H   0  0  0  0  0  0  0  0  0  0  0  0
   -8.3249   19.6488  -32.6630 H   0  0  0  0  0  0  0  0  0  0  0  0
  1  2  2  0
  2  3  1  0
  2  4  1  0
  4  5  2  0
  5  6  1  0
  6  7  2  0
  7  8  1  0
  8  9  2  0
  9 10  1  0
 10 11  2  0
 10 12  1  0
 12 13  1  0
 13 14  2  0
 14 15  1  0
 15 16  2  0
 16 17  1  0
 17 18  2  0
 18 19  1  0
 19 20  1  0
 20 21  1  0
 21 22  1  0
  9  4  1  0
 18 13  1  0
 22 17  1  0
  5 23  1  0
  6 24  1  0
  7 25  1  0
  8 26  1  0
 14 27  1  0
 15 28  1  0
 16 29  1  0
 19 30  1  0
 19 31  1  0
 20 32  1  0
 20 33  1  0
 21 34  1  0
 21 35  1  0
 22 36  1  0
 22 37  1  0
M  CHG  2   3  -1  12  -1
M  END
>  <UniqueID>  (19) 
16

>  <SMILES>  (19) 
O=C([O-])c1ccccc1C(=O)[N-]c1cccc2c1CCCC2

>  <Energy>  (19) 
59.013260748405365

>  <Genealogy>  (19) 
O=C([O-])c1ccccc1C(=O)[N-]c1cccc2c1CCCC2 (protonated)
O=C([O-])c1ccccc1C(=O)[N-]c1cccc2c1CCCC2 (3D coordinates assigned)
O=C([O-])c1ccccc1C(=O)[N-]c1cccc2c1CCCC2 (nonaromatic ring conformer: 59.013260748405365 kcal/mol)

>  <smiles>  (19) 
O=C(O)c1ccccc1C(=O)Nc1cccc2c1CCCC2

>  <score_type>  (19) 
oracle

>  <origin>  (19) 
adg

>  <m_score__min__energy>  (19) 
-11.630000000000001

>  <m_primary>  (19) 
energy

$$$$
19:0
     RDKit          3D

 20 21  0  0  0  0  0  0  0  0999 V2000
   -5.5622   25.3805  -28.5931 H   0  0  0  0  0  0  0  0  0  0  0  0
   -5.7080   24.8710  -29.5570 C   0  0  0  0  0  0  0  0  0  0  0  0
   -7.1110   24.0890  -30.0650 S   0  0  0  0  0  0  0  0  0  0  0  0
   -6.4490   23.6520  -31.5450 C   0  0  0  0  0  0  0  0  0  0  0  0
   -7.1460   22.9130  -32.5460 N   0  0  0  0  0  0  0  0  0  0  0  0
   -8.0770   22.1060  -32.2330 N   0  0  0  0  0  0  0  0  0  0  0  0
   -7.9060   20.6840  -32.2940 C   0  0  0  0  0  0  0  0  0  0  0  0
   -6.8830   20.0950  -33.0610 C   0  0  0  0  0  0  0  0  0  0  0  0
   -6.1901   20.7302  -33.6323 H   0  0  0  0  0  0  0  0  0  0  0  0
   -6.7460   18.7030  -33.0980 C   0  0  0  0  0  0  0  0  0  0  0  0
   -5.9463   18.2458  -33.6992 H   0  0  0  0  0  0  0  0  0  0  0  0
   -7.6240   17.8920  -32.3720 C   0  0  0  0  0  0  0  0  0  0  0  0
   -7.5145   16.7979  -32.4018 H   0  0  0  0  0  0  0  0  0  0  0  0
   -8.6400   18.4720  -31.6090 C   0  0  0  0  0  0  0  0  0  0  0  0
   -9.3306   17.8336  -31.0384 H   0  0  0  0  0  0  0  0  0  0  0  0
   -8.7810   19.8630  -31.5690 C   0  0  0  0  0  0  0  0  0  0  0  0
   -9.5822   20.3149  -30.9658 H   0  0  0  0  0  0  0  0  0  0  0  0
   -5.1750   24.0810  -31.6820 N   0  0  0  0  0  0  0  0  0  0  0  0
   -4.7680   24.7570  -30.5740 C   0  0  0  0  0  0  0  0  0  0  0  0
   -3.4930   25.2970  -30.4760 O   0  0  0  0  0  0  0  0  0  0  0  0
  1  2  1  0
  2  3  1  0
  3  4  1  0
  4  5  1  0
  5  6  2  0
  6  7  1  0
  7  8  2  0
  8  9  1  0
  8 10  1  0
 10 11  1  0
 10 12  2  0
 12 13  1  0
 12 14  1  0
 14 15  1  0
 14 16  2  0
 16 17  1  0
  4 18  2  0
 18 19  1  0
 19 20  1  0
 19  2  2  0
 16  7  1  0
M  CHG  1  20  -1
M  END
>  <UniqueID>  (20) 
17

>  <SMILES>  (20) 
[O-]c1csc(/N=N/c2ccccc2)n1

>  <Energy>  (20) 
49.90439259603088

>  <Genealogy>  (20) 
[O-]c1csc(N=Nc2ccccc2)n1 (protonated)
[O-]c1csc(/N=N/c2ccccc2)n1 (cis-trans isomerization)
[O-]c1csc(/N=N/c2ccccc2)n1 (3D coordinates assigned)
[O-]c1csc(/N=N/c2ccccc2)n1 (optimized conformer: 49.90439259603088 kcal/mol)

>  <smiles>  (20) 
Oc1csc(N=Nc2ccccc2)n1

>  <score_type>  (20) 
oracle

>  <origin>  (20) 
adg

>  <m_score__min__energy>  (20) 
-9.9199999999999999

>  <m_primary>  (20) 
energy

$$$$
20:0
     RDKit          3D

 53 55  0  0  0  0  0  0  0  0999 V2000
    0.5100   21.8000  -33.6620 O   0  0  0  0  0  0  0  0  0  0  0  0
   -0.5500   21.1590  -33.4330 C   0  0  0  0  0  0  0  0  0  0  0  0
   -1.2880   20.6370  -34.4890 C   0  0  0  0  0  0  0  0  0  0  0  0
   -2.4530   19.9300  -34.2030 C   0  0  0  0  0  0  0  0  0  0  0  0
   -2.8690   19.7600  -32.9110 N   0  0  0  0  0  0  0  0  0  0  0  0
   -4.1000   18.9790  -32.6580 C   0  0  2  0  0  0  0  0  0  0  0  0
   -4.4280   18.1920  -33.7890 O   0  0  0  0  0  0  0  0  0  0  0  0
   -5.8290   18.2440  -33.9460 C   0  0  1  0  0  0  0  0  0  0  0  0
   -6.4620   17.0050  -33.2790 C   0  0  0  0  0  0  0  0  0  0  0  0
   -5.4630   16.1330  -32.8240 O   0  0  0  0  0  0  0  0  0  0  0  0
   -6.2900   19.5940  -33.3870 C   0  0  1  0  0  0  0  0  0  0  0  0
   -7.7760   19.7230  -32.9870 C   0  0  0  0  0  0  0  0  0  0  0  0
   -7.9440   19.9140  -31.6050 O   0  0  0  0  0  0  0  0  0  0  0  0
   -5.3010   19.8700  -32.2770 C   0  0  2  0  0  0  0  0  0  0  0  0
   -4.9600   21.2500  -32.2700 O   0  0  0  0  0  0  0  0  0  0  0  0
   -4.8250   21.7510  -30.9530 C   0  0  1  0  0  0  0  0  0  0  0  0
   -3.5910   22.4630  -30.8600 O   0  0  0  0  0  0  0  0  0  0  0  0
   -3.5870   23.3560  -29.7630 C   0  0  1  0  0  0  0  0  0  0  0  0
   -2.1450   23.7680  -29.4270 C   0  0  0  0  0  0  0  0  0  0  0  0
   -1.2230   22.9390  -30.0770 O   0  0  0  0  0  0  0  0  0  0  0  0
   -4.5330   24.5590  -30.0570 C   0  0  1  0  0  0  0  0  0  0  0  0
   -3.8690   25.6350  -30.6790 O   0  0  0  0  0  0  0  0  0  0  0  0
   -5.7770   24.1120  -30.8780 C   0  0  1  0  0  0  0  0  0  0  0  0
   -5.5810   24.3000  -32.2580 O   0  0  0  0  0  0  0  0  0  0  0  0
   -6.0720   22.6250  -30.6160 C   0  0  1  0  0  0  0  0  0  0  0  0
   -7.1880   22.2040  -31.3610 O   0  0  0  0  0  0  0  0  0  0  0  0
   -2.1140   20.2800  -31.8860 C   0  0  0  0  0  0  0  0  0  0  0  0
   -2.4630   20.1210  -30.6840 O   0  0  0  0  0  0  0  0  0  0  0  0
   -0.9730   20.9730  -32.1560 N   0  0  0  0  0  0  0  0  0  0  0  0
   -0.9586   20.7795  -35.5288 H   0  0  0  0  0  0  0  0  0  0  0  0
   -3.0457   19.5032  -35.0256 H   0  0  0  0  0  0  0  0  0  0  0  0
   -3.8885   18.3255  -31.7988 H   0  0  0  0  0  0  0  0  0  0  0  0
   -6.1548   18.1963  -34.9956 H   0  0  0  0  0  0  0  0  0  0  0  0
   -7.0783   17.3270  -32.4266 H   0  0  0  0  0  0  0  0  0  0  0  0
   -7.0852   16.4802  -34.0181 H   0  0  0  0  0  0  0  0  0  0  0  0
   -4.5960   16.5110  -33.1250 H   0  0  0  0  0  0  0  0  0  0  0  0
   -6.2809   20.3635  -34.1730 H   0  0  0  0  0  0  0  0  0  0  0  0
   -8.2114   20.5824  -33.5179 H   0  0  0  0  0  0  0  0  0  0  0  0
   -8.2795   18.7837  -33.2595 H   0  0  0  0  0  0  0  0  0  0  0  0
   -7.2490   20.5590  -31.3110 H   0  0  0  0  0  0  0  0  0  0  0  0
   -5.6778   19.6518  -31.2669 H   0  0  0  0  0  0  0  0  0  0  0  0
   -4.7899   20.9421  -30.2083 H   0  0  0  0  0  0  0  0  0  0  0  0
   -3.9833   22.8627  -28.8632 H   0  0  0  0  0  0  0  0  0  0  0  0
   -1.9835   24.8075  -29.7485 H   0  0  0  0  0  0  0  0  0  0  0  0
   -1.9971   23.6736  -28.3411 H   0  0  0  0  0  0  0  0  0  0  0  0
   -1.7220   22.1200  -30.3340 H   0  0  0  0  0  0  0  0  0  0  0  0
   -4.8816   24.9286  -29.0813 H   0  0  0  0  0  0  0  0  0  0  0  0
   -4.1740   25.6750  -31.6220 H   0  0  0  0  0  0  0  0  0  0  0  0
   -6.6264   24.7324  -30.5559 H   0  0  0  0  0  0  0  0  0  0  0  0
   -5.6460   23.4070  -32.6860 H   0  0  0  0  0  0  0  0  0  0  0  0
   -6.3026   22.5005  -29.5477 H   0  0  0  0  0  0  0  0  0  0  0  0
   -6.8380   21.7250  -32.1580 H   0  0  0  0  0  0  0  0  0  0  0  0
   -0.4090   21.3650  -31.3670 H   0  0  0  0  0  0  0  0  0  0  0  0
  1  2  2  0
  2  3  1  0
  3  4  2  0
  4  5  1  0
  5  6  1  0
  6  7  1  0
  7  8  1  0
  8  9  1  0
  9 10  1  0
  8 11  1  0
 11 12  1  0
 12 13  1  0
 11 14  1  0
 14 15  1  0
 15 16  1  0
 16 17  1  0
 17 18  1  0
 18 19  1  0
 19 20  1  0
 18 21  1  0
 21 22  1  0
 21 23  1  0
 23 24  1  0
 23 25  1  0
 25 26  1  0
  5 27  1  0
 27 28  2  0
 27 29  1  0
 29  2  1  0
 14  6  1  0
 25 16  1  0
  3 30  1  0
  4 31  1  0
  6 32  1  1
  8 33  1  6
  9 34  1  0
  9 35  1  0
 10 36  1  0
 11 37  1  6
 12 38  1  0
 12 39  1  0
 13 40  1  0
 14 41  1  1
 16 42  1  1
 18 43  1  1
 19 44  1  0
 19 45  1  0
 20 46  1  0
 21 47  1  1
 22 48  1  0
 23 49  1  1
 24 50  1  0
 25 51  1  1
 26 52  1  0
 29 53  1  0
M  END
>  <UniqueID>  (21) 
18

>  <SMILES>  (21) 
O=c1ccn([C@@H]2O[C@@H](CO)C(CO)C2OC2OC(CO)C(O)C(O)C2O)c(=O)[nH]1

>  <Energy>  (21) 
74.07921915745493

>  <Genealogy>  (21) 
O=c1ccn([C@@H]2O[C@@H](CO)C(CO)C2OC2OC(CO)C(O)C(O)C2O)c(=O)[nH]1 (chirality)
O=c1ccn([C@@H]2O[C@@H](CO)C(CO)C2OC2OC(CO)C(O)C(O)C2O)c(=O)[nH]1 (3D coordinates assigned)
O=c1ccn([C@@H]2O[C@@H](CO)C(CO)C2OC2OC(CO)C(O)C(O)C2O)c(=O)[nH]1 (nonaromatic ring conformer: 74.07921915745493 kcal/mol)

>  <smiles>  (21) 
O=c1ccn(C2OC(CO)C(CO)C2OC2OC(CO)C(O)C(O)C2O)c(=O)[nH]1

>  <score_type>  (21) 
oracle

>  <origin>  (21) 
adg

>  <m_score__min__energy>  (21) 
-6.6100000000000003

>  <m_primary>  (21) 
energy

$$$$
21:0
     RDKit          3D

 41 44  0  0  0  0  0  0  0  0999 V2000
   -0.7830   25.2380  -24.7590 Br  0  0  0  0  0  0  0  0  0  0  0  0
   -1.1730   24.8170  -26.5780 C   0  0  0  0  0  0  0  0  0  0  0  0
   -0.2050   24.3940  -27.4810 C   0  0  0  0  0  0  0  0  0  0  0  0
   -0.9540   24.1300  -28.9650 S   0  0  0  0  0  0  0  0  0  0  0  0
   -2.5040   24.5520  -28.4660 C   0  0  0  0  0  0  0  0  0  0  0  0
   -3.6980   24.5400  -29.3160 C   0  0  0  0  0  0  0  0  0  0  0  0
   -4.7310   23.6890  -29.1410 N   0  0  0  0  0  0  0  0  0  0  0  0
   -5.5770   24.0330  -30.1310 C   0  0  0  0  0  0  0  0  0  0  0  0
   -6.8980   23.3570  -30.3890 C   0  0  0  0  0  0  0  0  0  0  0  0
   -6.7670   22.0490  -31.0660 N   0  0  0  0  0  0  0  0  0  0  0  0
   -5.4490   21.8580  -31.7160 C   0  0  0  0  0  0  0  0  0  0  0  0
   -5.4810   20.8930  -32.9200 C   0  0  0  0  0  0  0  0  0  0  0  0
   -6.5150   19.8550  -32.7660 N   0  0  0  0  0  0  0  0  0  0  0  0
   -6.2910   18.5340  -33.3130 C   0  0  0  0  0  0  0  0  0  0  0  0
   -7.0740   17.4300  -32.9210 C   0  0  0  0  0  0  0  0  0  0  0  0
   -6.8260   16.1730  -33.4760 C   0  0  0  0  0  0  0  0  0  0  0  0
   -5.8060   16.0160  -34.4140 C   0  0  0  0  0  0  0  0  0  0  0  0
   -5.0440   17.1240  -34.7850 C   0  0  0  0  0  0  0  0  0  0  0  0
   -5.3000   18.3400  -34.2330 N   0  0  0  0  0  0  0  0  0  0  0  0
   -7.8510   20.2410  -32.2840 C   0  0  0  0  0  0  0  0  0  0  0  0
   -7.9090   21.7270  -31.9350 C   0  0  0  0  0  0  0  0  0  0  0  0
   -5.0360   25.0660  -30.8630 C   0  0  0  0  0  0  0  0  0  0  0  0
   -3.8740   25.3550  -30.3320 O   0  0  0  0  0  0  0  0  0  0  0  0
   -2.4590   24.9080  -27.1240 C   0  0  0  0  0  0  0  0  0  0  0  0
    0.8644   24.2558  -27.2637 H   0  0  0  0  0  0  0  0  0  0  0  0
   -7.4040   23.2012  -29.4248 H   0  0  0  0  0  0  0  0  0  0  0  0
   -7.4726   24.0131  -31.0594 H   0  0  0  0  0  0  0  0  0  0  0  0
   -5.0900   22.8371  -32.0660 H   0  0  0  0  0  0  0  0  0  0  0  0
   -4.7835   21.4092  -30.9639 H   0  0  0  0  0  0  0  0  0  0  0  0
   -5.6900   21.4703  -33.8327 H   0  0  0  0  0  0  0  0  0  0  0  0
   -4.5032   20.3930  -32.9816 H   0  0  0  0  0  0  0  0  0  0  0  0
   -7.8775   17.5580  -32.1807 H   0  0  0  0  0  0  0  0  0  0  0  0
   -7.4343   15.3078  -33.1738 H   0  0  0  0  0  0  0  0  0  0  0  0
   -5.6045   15.0293  -34.8565 H   0  0  0  0  0  0  0  0  0  0  0  0
   -4.2364   17.0140  -35.5237 H   0  0  0  0  0  0  0  0  0  0  0  0
   -8.5904   20.0288  -33.0703 H   0  0  0  0  0  0  0  0  0  0  0  0
   -8.0718   19.6627  -31.3747 H   0  0  0  0  0  0  0  0  0  0  0  0
   -7.8548   22.3264  -32.8557 H   0  0  0  0  0  0  0  0  0  0  0  0
   -8.8521   21.9551  -31.4168 H   0  0  0  0  0  0  0  0  0  0  0  0
   -5.4950   25.5579  -31.7333 H   0  0  0  0  0  0  0  0  0  0  0  0
   -3.3414   25.2279  -26.5504 H   0  0  0  0  0  0  0  0  0  0  0  0
  1  2  1  0
  2  3  2  0
  3  4  1  0
  4  5  1  0
  5  6  1  0
  6  7  2  0
  7  8  1  0
  8  9  1  0
  9 10  1  0
 10 11  1  0
 11 12  1  0
 12 13  1  0
 13 14  1  0
 14 15  2  0
 15 16  1  0
 16 17  2  0
 17 18  1  0
 18 19  2  0
 13 20  1  0
 20 21  1  0
  8 22  2  0
 22 23  1  0
  5 24  2  0
 24  2  1  0
 23  6  1  0
 21 10  1  0
 19 14  1  0
  3 25  1  0
  9 26  1  0
  9 27  1  0
 11 28  1  0
 11 29  1  0
 12 30  1  0
 12 31  1  0
 15 32  1  0
 16 33  1  0
 17 34  1  0
 18 35  1  0
 20 36  1  0
 20 37  1  0
 21 38  1  0
 21 39  1  0
 22 40  1  0
 24 41  1  0
M  END
>  <UniqueID>  (22) 
19

>  <SMILES>  (22) 
Brc1csc(-c2nc(CN3CCN(c4ccccn4)CC3)co2)c1

>  <Energy>  (22) 
108.77144365746989

>  <Genealogy>  (22) 
Brc1csc(-c2nc(CN3CCN(c4ccccn4)CC3)co2)c1 (3D coordinates assigned)
Brc1csc(-c2nc(CN3CCN(c4ccccn4)CC3)co2)c1 (nonaromatic ring conformer: 108.77144365746989 kcal/mol)

>  <smiles>  (22) 
Brc1csc(-c2nc(CN3CCN(c4ccccn4)CC3)co2)c1

>  <score_type>  (22) 
oracle

>  <origin>  (22) 
adg

>  <m_score__min__energy>  (22) 
-8.6400000000000006

>  <m_primary>  (22) 
energy

$$$$
22:0
     RDKit          3D

 30 32  0  0  0  0  0  0  0  0999 V2000
   -9.8600   20.4300  -32.3320 O   0  0  0  0  0  0  0  0  0  0  0  0
   -8.8810   19.7110  -32.0430 N   0  0  0  0  0  0  0  0  0  0  0  0
   -9.1130   18.4680  -31.5020 O   0  0  0  0  0  0  0  0  0  0  0  0
   -7.5540   20.1060  -32.4330 C   0  0  0  0  0  0  0  0  0  0  0  0
   -6.8290   19.3130  -33.3390 C   0  0  0  0  0  0  0  0  0  0  0  0
   -5.5330   19.6690  -33.7100 C   0  0  0  0  0  0  0  0  0  0  0  0
   -4.9650   20.8250  -33.1780 C   0  0  0  0  0  0  0  0  0  0  0  0
   -5.6770   21.5990  -32.3190 N   0  0  0  0  0  0  0  0  0  0  0  0
   -6.9440   21.2810  -31.9360 C   0  0  0  0  0  0  0  0  0  0  0  0
   -7.8070   22.4330  -30.8610 S   0  0  0  0  0  0  0  0  0  0  0  0
   -6.2970   23.2910  -30.4170 C   0  0  0  0  0  0  0  0  0  0  0  0
   -6.0340   24.5660  -30.9380 C   0  0  0  0  0  0  0  0  0  0  0  0
   -4.8550   25.2370  -30.5930 C   0  0  0  0  0  0  0  0  0  0  0  0
   -3.9430   24.6360  -29.7210 C   0  0  0  0  0  0  0  0  0  0  0  0
   -4.1940   23.3530  -29.2160 C   0  0  0  0  0  0  0  0  0  0  0  0
   -5.3780   22.6870  -29.5480 C   0  0  0  0  0  0  0  0  0  0  0  0
   -3.2460   22.7530  -28.3800 O   0  0  0  0  0  0  0  0  0  0  0  0
   -1.9270   23.2910  -28.2560 C   0  0  0  0  0  0  0  0  0  0  0  0
   -1.9780   24.8250  -28.2490 C   0  0  0  0  0  0  0  0  0  0  0  0
   -2.7730   25.2990  -29.3390 O   0  0  0  0  0  0  0  0  0  0  0  0
   -7.2872   18.4052  -33.7583 H   0  0  0  0  0  0  0  0  0  0  0  0
   -4.9650   19.0442  -34.4150 H   0  0  0  0  0  0  0  0  0  0  0  0
   -3.9392   21.1107  -33.4541 H   0  0  0  0  0  0  0  0  0  0  0  0
   -6.7559   25.0400  -31.6194 H   0  0  0  0  0  0  0  0  0  0  0  0
   -4.6468   26.2346  -31.0071 H   0  0  0  0  0  0  0  0  0  0  0  0
   -5.5875   21.6920  -29.1284 H   0  0  0  0  0  0  0  0  0  0  0  0
   -1.4777   22.9382  -27.3160 H   0  0  0  0  0  0  0  0  0  0  0  0
   -1.3213   22.9562  -29.1110 H   0  0  0  0  0  0  0  0  0  0  0  0
   -2.4185   25.1693  -27.3017 H   0  0  0  0  0  0  0  0  0  0  0  0
   -0.9559   25.2180  -28.3535 H   0  0  0  0  0  0  0  0  0  0  0  0
  1  2  2  0
  2  3  1  0
  2  4  1  0
  4  5  2  0
  5  6  1  0
  6  7  2  0
  7  8  1  0
  8  9  2  0
  9 10  1  0
 10 11  1  0
 11 12  2  0
 12 13  1  0
 13 14  2  0
 14 15  1  0
 15 16  2  0
 15 17  1  0
 17 18  1  0
 18 19  1  0
 19 20  1  0
  9  4  1  0
 16 11  1  0
 20 14  1  0
  5 21  1  0
  6 22  1  0
  7 23  1  0
 12 24  1  0
 13 25  1  0
 16 26  1  0
 18 27  1  0
 18 28  1  0
 19 29  1  0
 19 30  1  0
M  CHG  2   2   1   3  -1
M  END
>  <UniqueID>  (23) 
20

>  <SMILES>  (23) 
O=[N+]([O-])c1cccnc1Sc1ccc2c(c1)OCCO2

>  <Energy>  (23) 
34.066109185818625

>  <Genealogy>  (23) 
O=[N+]([O-])c1cccnc1Sc1ccc2c(c1)OCCO2 (3D coordinates assigned)
O=[N+]([O-])c1cccnc1Sc1ccc2c(c1)OCCO2 (nonaromatic ring conformer: 34.066109185818625 kcal/mol)

>  <smiles>  (23) 
O=[N+]([O-])c1cccnc1Sc1ccc2c(c1)OCCO2

>  <score_type>  (23) 
oracle

>  <origin>  (23) 
adg

>  <m_score__min__energy>  (23) 
-7.5

>  <m_primary>  (23) 
energy

$$$$
23:0
     RDKit          3D

 43 44  0  0  0  0  0  0  0  0999 V2000
   -3.7320   21.0580  -33.3650 C   0  0  0  0  0  0  0  0  0  0  0  0
   -4.7030   20.5090  -32.4790 O   0  0  0  0  0  0  0  0  0  0  0  0
   -5.9420   21.1030  -32.1910 C   0  0  0  0  0  0  0  0  0  0  0  0
   -7.1560   20.4070  -32.3300 C   0  0  0  0  0  0  0  0  0  0  0  0
   -8.3640   21.0310  -32.0220 C   0  0  0  0  0  0  0  0  0  0  0  0
   -8.3790   22.3580  -31.5880 C   0  0  0  0  0  0  0  0  0  0  0  0
   -7.1760   23.0740  -31.4500 C   0  0  0  0  0  0  0  0  0  0  0  0
   -7.1600   24.4230  -31.0600 O   0  0  0  0  0  0  0  0  0  0  0  0
   -6.8300   24.8840  -29.7550 C   0  0  0  0  0  0  0  0  0  0  0  0
   -5.9550   22.4310  -31.7310 C   0  0  0  0  0  0  0  0  0  0  0  0
   -4.7330   23.0970  -31.5680 O   0  0  0  0  0  0  0  0  0  0  0  0
   -4.1200   23.3100  -30.2950 C   0  0  0  0  0  0  0  0  0  0  0  0
   -3.5280   24.6840  -30.2150 C   0  0  0  0  0  0  0  0  0  0  0  0
   -4.0790   25.6390  -30.8260 O   0  0  0  0  0  0  0  0  0  0  0  0
   -2.3950   24.9220  -29.3730 N   0  0  0  0  0  0  0  0  0  0  0  0
   -1.7690   23.9460  -28.5260 C   0  0  0  0  0  0  0  0  0  0  0  0
   -1.1340   22.7940  -29.0580 C   0  0  0  0  0  0  0  0  0  0  0  0
   -1.1130   22.4930  -30.5330 C   0  0  0  0  0  0  0  0  0  0  0  0
   -0.5080   21.8900  -28.1840 C   0  0  0  0  0  0  0  0  0  0  0  0
   -0.5550   22.0880  -26.8050 C   0  0  0  0  0  0  0  0  0  0  0  0
   -1.2330   23.1860  -26.2770 C   0  0  0  0  0  0  0  0  0  0  0  0
   -1.8540   24.1120  -27.1280 C   0  0  0  0  0  0  0  0  0  0  0  0
   -2.5740   25.2980  -26.5440 C   0  0  0  0  0  0  0  0  0  0  0  0
   -2.9206   21.5168  -32.7810 H   0  0  0  0  0  0  0  0  0  0  0  0
   -3.3208   20.2587  -33.9991 H   0  0  0  0  0  0  0  0  0  0  0  0
   -4.2049   21.8224  -33.9991 H   0  0  0  0  0  0  0  0  0  0  0  0
   -7.1524   19.3653  -32.6834 H   0  0  0  0  0  0  0  0  0  0  0  0
   -9.3085   20.4760  -32.1212 H   0  0  0  0  0  0  0  0  0  0  0  0
   -9.3363   22.8460  -31.3528 H   0  0  0  0  0  0  0  0  0  0  0  0
   -7.2986   24.2293  -29.0055 H   0  0  0  0  0  0  0  0  0  0  0  0
   -5.7378   24.8667  -29.6253 H   0  0  0  0  0  0  0  0  0  0  0  0
   -7.1984   25.9123  -29.6253 H   0  0  0  0  0  0  0  0  0  0  0  0
   -4.8780   23.1970  -29.5059 H   0  0  0  0  0  0  0  0  0  0  0  0
   -3.3165   22.5707  -30.1615 H   0  0  0  0  0  0  0  0  0  0  0  0
   -1.0372   21.4061  -30.6844 H   0  0  0  0  0  0  0  0  0  0  0  0
   -2.0392   22.8640  -30.9962 H   0  0  0  0  0  0  0  0  0  0  0  0
   -0.2473   22.9890  -30.9962 H   0  0  0  0  0  0  0  0  0  0  0  0
    0.0242   21.0178  -28.5915 H   0  0  0  0  0  0  0  0  0  0  0  0
   -0.0558   21.3760  -26.1314 H   0  0  0  0  0  0  0  0  0  0  0  0
   -1.2811   23.3268  -25.1871 H   0  0  0  0  0  0  0  0  0  0  0  0
   -2.5406   25.2430  -25.4459 H   0  0  0  0  0  0  0  0  0  0  0  0
   -2.0860   26.2249  -26.8797 H   0  0  0  0  0  0  0  0  0  0  0  0
   -3.6215   25.2928  -26.8797 H   0  0  0  0  0  0  0  0  0  0  0  0
  1  2  1  0
  2  3  1  0
  3  4  2  0
  4  5  1  0
  5  6  2  0
  6  7  1  0
  7  8  1  0
  8  9  1  0
  7 10  2  0
 10 11  1  0
 11 12  1  0
 12 13  1  0
 13 14  2  0
 13 15  1  0
 15 16  1  0
 16 17  2  0
 17 18  1  0
 17 19  1  0
 19 20  2  0
 20 21  1  0
 21 22  2  0
 22 23  1  0
 10  3  1  0
 22 16  1  0
  1 24  1  0
  1 25  1  0
  1 26  1  0
  4 27  1  0
  5 28  1  0
  6 29  1  0
  9 30  1  0
  9 31  1  0
  9 32  1  0
 12 33  1  0
 12 34  1  0
 18 35  1  0
 18 36  1  0
 18 37  1  0
 19 38  1  0
 20 39  1  0
 21 40  1  0
 23 41  1  0
 23 42  1  0
 23 43  1  0
M  CHG  1  15  -1
M  END
>  <UniqueID>  (24) 
21

>  <SMILES>  (24) 
COc1cccc(OC)c1OCC(=O)[N-]c1c(C)cccc1C

>  <Energy>  (24) 
51.564162622086

>  <Genealogy>  (24) 
COc1cccc(OC)c1OCC(=O)[N-]c1c(C)cccc1C (protonated)
COc1cccc(OC)c1OCC(=O)[N-]c1c(C)cccc1C (3D coordinates assigned)
COc1cccc(OC)c1OCC(=O)[N-]c1c(C)cccc1C (optimized conformer: 51.564162622086 kcal/mol)

>  <smiles>  (24) 
COc1cccc(OC)c1OCC(=O)Nc1c(C)cccc1C

>  <score_type>  (24) 
oracle

>  <origin>  (24) 
adg

>  <m_score__min__energy>  (24) 
-7.9199999999999999

>  <m_primary>  (24) 
energy

$$$$
24:0
     RDKit          3D

 27 28  0  0  0  0  0  0  0  0999 V2000
   -1.2310   25.6390  -27.6570 C   0  0  0  0  0  0  0  0  0  0  0  0
   -1.7740   25.6450  -28.9710 O   0  0  0  0  0  0  0  0  0  0  0  0
   -2.5950   24.6220  -29.4550 C   0  0  0  0  0  0  0  0  0  0  0  0
   -2.3950   23.3110  -29.0110 C   0  0  0  0  0  0  0  0  0  0  0  0
   -3.2150   22.2890  -29.4940 C   0  0  0  0  0  0  0  0  0  0  0  0
   -4.2250   22.5850  -30.4150 C   0  0  0  0  0  0  0  0  0  0  0  0
   -5.0770   21.5420  -30.9210 C   0  0  0  0  0  0  0  0  0  0  0  0
   -5.7910   20.6680  -31.3460 C   0  0  0  0  0  0  0  0  0  0  0  0
   -6.6390   19.6240  -31.8520 C   0  0  0  0  0  0  0  0  0  0  0  0
   -8.0070   19.5780  -31.6000 C   0  0  0  0  0  0  0  0  0  0  0  0
   -8.6170   18.1990  -32.3510 S   0  0  0  0  0  0  0  0  0  0  0  0
   -7.1280   17.7350  -32.9770 C   0  0  0  0  0  0  0  0  0  0  0  0
   -6.8770   16.4800  -33.7450 C   0  0  0  0  0  0  0  0  0  0  0  0
   -6.1580   18.5990  -32.6060 N   0  0  0  0  0  0  0  0  0  0  0  0
   -4.3960   23.9080  -30.8370 C   0  0  0  0  0  0  0  0  0  0  0  0
   -3.5860   24.8860  -30.3530 N   0  0  0  0  0  0  0  0  0  0  0  0
   -2.0494   25.6480  -26.9220 H   0  0  0  0  0  0  0  0  0  0  0  0
   -0.6217   24.7341  -27.5162 H   0  0  0  0  0  0  0  0  0  0  0  0
   -0.6018   26.5302  -27.5162 H   0  0  0  0  0  0  0  0  0  0  0  0
   -1.5979   23.0866  -28.2869 H   0  0  0  0  0  0  0  0  0  0  0  0
   -3.0670   21.2543  -29.1511 H   0  0  0  0  0  0  0  0  0  0  0  0
   -8.5851   20.3095  -31.0163 H   0  0  0  0  0  0  0  0  0  0  0  0
   -6.7107   15.6484  -33.0444 H   0  0  0  0  0  0  0  0  0  0  0  0
   -7.7484   16.2572  -34.3783 H   0  0  0  0  0  0  0  0  0  0  0  0
   -5.9870   16.6095  -34.3783 H   0  0  0  0  0  0  0  0  0  0  0  0
   -5.1510   18.4890  -32.8650 H   0  0  0  0  0  0  0  0  0  0  0  0
   -5.1862   24.1566  -31.5607 H   0  0  0  0  0  0  0  0  0  0  0  0
  1  2  1  0
  2  3  1  0
  3  4  2  0
  4  5  1  0
  5  6  2  0
  6  7  1  0
  7  8  3  0
  8  9  1  0
  9 10  2  0
 10 11  1  0
 11 12  1  0
 12 13  1  0
 12 14  2  0
  6 15  1  0
 15 16  2  0
 16  3  1  0
 14  9  1  0
  1 17  1  0
  1 18  1  0
  1 19  1  0
  4 20  1  0
  5 21  1  0
 10 22  1  0
 13 23  1  0
 13 24  1  0
 13 25  1  0
 14 26  1  0
 15 27  1  0
M  CHG  1  14   1
M  END
>  <UniqueID>  (25) 
22

>  <SMILES>  (25) 
COc1ccc(C#Cc2csc(C)[nH+]2)cn1

>  <Energy>  (25) 
49.40496674798155

>  <Genealogy>  (25) 
COc1ccc(C#Cc2csc(C)[nH+]2)cn1 (protonated)
COc1ccc(C#Cc2csc(C)[nH+]2)cn1 (3D coordinates assigned)
COc1ccc(C#Cc2csc(C)[nH+]2)cn1 (optimized conformer: 49.40496674798155 kcal/mol)

>  <smiles>  (25) 
COc1ccc(C#Cc2csc(C)n2)cn1

>  <score_type>  (25) 
oracle

>  <origin>  (25) 
adg

>  <m_score__min__energy>  (25) 
-5.1500000000000004

>  <m_primary>  (25) 
energy

$$$$
25:0
     RDKit          3D

 28 30  0  0  0  0  0  0  0  0999 V2000
   -4.2830   17.4090  -33.0050 O   0  0  0  0  0  0  0  0  0  0  0  0
   -5.4100   17.2990  -33.5580 C   0  0  0  0  0  0  0  0  0  0  0  0
   -6.1730   18.4730  -33.8840 N   0  0  0  0  0  0  0  0  0  0  0  0
   -5.9260   19.7720  -33.3170 C   0  0  0  0  0  0  0  0  0  0  0  0
   -6.9920   20.4990  -32.7740 C   0  0  0  0  0  0  0  0  0  0  0  0
   -6.7750   21.7550  -32.1970 C   0  0  0  0  0  0  0  0  0  0  0  0
   -5.4820   22.3030  -32.1400 C   0  0  0  0  0  0  0  0  0  0  0  0
   -5.2740   23.5980  -31.5440 N   0  0  0  0  0  0  0  0  0  0  0  0
   -6.1780   24.5480  -31.2380 C   0  0  0  0  0  0  0  0  0  0  0  0
   -5.5580   25.6090  -30.6900 N   0  0  0  0  0  0  0  0  0  0  0  0
   -4.2720   25.2900  -30.6680 N   0  0  0  0  0  0  0  0  0  0  0  0
   -4.0980   24.0820  -31.1810 N   0  0  0  0  0  0  0  0  0  0  0  0
   -4.4090   21.5580  -32.6660 C   0  0  0  0  0  0  0  0  0  0  0  0
   -4.6280   20.3040  -33.2430 C   0  0  0  0  0  0  0  0  0  0  0  0
   -5.9040   15.9560  -33.9010 C   0  0  0  0  0  0  0  0  0  0  0  0
   -5.2140   14.7640  -33.7780 C   0  0  0  0  0  0  0  0  0  0  0  0
   -6.0770   13.7860  -34.2270 C   0  0  0  0  0  0  0  0  0  0  0  0
   -7.2360   14.4390  -34.5960 C   0  0  0  0  0  0  0  0  0  0  0  0
   -7.1020   15.7280  -34.3920 O   0  0  0  0  0  0  0  0  0  0  0  0
   -6.8820   18.4040  -34.6490 H   0  0  0  0  0  0  0  0  0  0  0  0
   -8.0085   20.0794  -32.8012 H   0  0  0  0  0  0  0  0  0  0  0  0
   -7.6244   22.3189  -31.7841 H   0  0  0  0  0  0  0  0  0  0  0  0
   -7.2615   24.4685  -31.4103 H   0  0  0  0  0  0  0  0  0  0  0  0
   -3.3888   21.9669  -32.6223 H   0  0  0  0  0  0  0  0  0  0  0  0
   -3.7786   19.7300  -33.6417 H   0  0  0  0  0  0  0  0  0  0  0  0
   -4.1902   14.6247  -33.4007 H   0  0  0  0  0  0  0  0  0  0  0  0
   -5.8813   12.7049  -34.2802 H   0  0  0  0  0  0  0  0  0  0  0  0
   -8.1358   13.9521  -35.0000 H   0  0  0  0  0  0  0  0  0  0  0  0
  1  2  2  0
  2  3  1  0
  3  4  1  0
  4  5  2  0
  5  6  1  0
  6  7  2  0
  7  8  1  0
  8  9  1  0
  9 10  2  0
 10 11  1  0
 11 12  2  0
  7 13  1  0
 13 14  2  0
  2 15  1  0
 15 16  2  0
 16 17  1  0
 17 18  2  0
 18 19  1  0
 14  4  1  0
 19 15  1  0
 12  8  1  0
  3 20  1  0
  5 21  1  0
  6 22  1  0
  9 23  1  0
 13 24  1  0
 14 25  1  0
 16 26  1  0
 17 27  1  0
 18 28  1  0
M  END
>  <UniqueID>  (26) 
23

>  <SMILES>  (26) 
O=C(Nc1ccc(-n2cnnn2)cc1)c1ccco1

>  <Energy>  (26) 
101.2653358081154

>  <Genealogy>  (26) 
O=C(Nc1ccc(-n2cnnn2)cc1)c1ccco1 (3D coordinates assigned)
O=C(Nc1ccc(-n2cnnn2)cc1)c1ccco1 (optimized conformer: 101.2653358081154 kcal/mol)

>  <smiles>  (26) 
O=C(Nc1ccc(-n2cnnn2)cc1)c1ccco1

>  <score_type>  (26) 
oracle

>  <origin>  (26) 
adg

>  <m_score__min__energy>  (26) 
-7.1500000000000004

>  <m_primary>  (26) 
energy

$$$$
26:0
     RDKit          3D

 48 49  0  0  0  0  0  0  0  0999 V2000
   -3.2340   18.9210  -26.3400 C   0  0  0  0  0  0  0  0  0  0  0  0
   -2.7460   19.9710  -27.3390 C   0  0  0  0  0  0  0  0  0  0  0  0
   -1.6110   19.5320  -28.1750 N   0  0  0  0  0  0  0  0  0  0  0  0
   -0.4440   18.9630  -27.4670 C   0  0  0  0  0  0  0  0  0  0  0  0
    0.2370   17.7930  -28.1890 C   0  0  0  0  0  0  0  0  0  0  0  0
   -1.2550   20.5750  -29.5350 S   0  0  0  0  0  0  0  0  0  0  0  0
   -2.1400   20.2200  -30.6970 O   0  0  0  0  0  0  0  0  0  0  0  0
    0.1780   20.3970  -29.9570 O   0  0  0  0  0  0  0  0  0  0  0  0
   -1.5490   22.2670  -29.0980 C   0  0  0  0  0  0  0  0  0  0  0  0
   -2.4040   23.0380  -29.9020 C   0  0  0  0  0  0  0  0  0  0  0  0
   -2.6650   24.3760  -29.5960 C   0  0  0  0  0  0  0  0  0  0  0  0
   -3.5160   25.1380  -30.4630 N   0  0  0  0  0  0  0  0  0  0  0  0
   -4.9490   25.1600  -30.4390 C   0  0  0  0  0  0  0  0  0  0  0  0
   -5.5360   26.2740  -30.4880 O   0  0  0  0  0  0  0  0  0  0  0  0
   -5.7610   23.8960  -30.5510 C   0  0  0  0  0  0  0  0  0  0  0  0
   -5.2560   22.8880  -31.9930 S   0  0  0  0  0  0  0  0  0  0  0  0
   -6.7760   21.9420  -32.0580 C   0  0  0  0  0  0  0  0  0  0  0  0
   -7.9560   22.4640  -31.5190 C   0  0  0  0  0  0  0  0  0  0  0  0
   -9.1320   21.7130  -31.5960 C   0  0  0  0  0  0  0  0  0  0  0  0
   -9.1130   20.4530  -32.1980 C   0  0  0  0  0  0  0  0  0  0  0  0
   -7.9130   19.9620  -32.7170 C   0  0  0  0  0  0  0  0  0  0  0  0
   -6.7790   20.7100  -32.6370 N   0  0  0  0  0  0  0  0  0  0  0  0
   -2.0200   24.9710  -28.5080 C   0  0  0  0  0  0  0  0  0  0  0  0
   -1.1680   24.2220  -27.6970 C   0  0  0  0  0  0  0  0  0  0  0  0
   -0.9350   22.8630  -27.9680 C   0  0  0  0  0  0  0  0  0  0  0  0
    0.0140   22.0990  -27.0810 C   0  0  0  0  0  0  0  0  0  0  0  0
   -3.0655   19.2836  -25.3153 H   0  0  0  0  0  0  0  0  0  0  0  0
   -4.3083   18.7406  -26.4931 H   0  0  0  0  0  0  0  0  0  0  0  0
   -2.6793   17.9835  -26.4931 H   0  0  0  0  0  0  0  0  0  0  0  0
   -3.5835   20.2300  -28.0034 H   0  0  0  0  0  0  0  0  0  0  0  0
   -2.3894   20.8272  -26.7476 H   0  0  0  0  0  0  0  0  0  0  0  0
    0.2994   19.7628  -27.3342 H   0  0  0  0  0  0  0  0  0  0  0  0
   -0.8235   18.5619  -26.5156 H   0  0  0  0  0  0  0  0  0  0  0  0
    0.6453   17.0916  -27.4465 H   0  0  0  0  0  0  0  0  0  0  0  0
   -0.4992   17.2725  -28.8191 H   0  0  0  0  0  0  0  0  0  0  0  0
    1.0532   18.1761  -28.8191 H   0  0  0  0  0  0  0  0  0  0  0  0
   -2.8750   22.5820  -30.7853 H   0  0  0  0  0  0  0  0  0  0  0  0
   -5.6228   23.3019  -29.6356 H   0  0  0  0  0  0  0  0  0  0  0  0
   -6.8158   24.1783  -30.6842 H   0  0  0  0  0  0  0  0  0  0  0  0
   -7.9585   23.4542  -31.0400 H   0  0  0  0  0  0  0  0  0  0  0  0
  -10.0700   22.1132  -31.1836 H   0  0  0  0  0  0  0  0  0  0  0  0
  -10.0332   19.8538  -32.2627 H   0  0  0  0  0  0  0  0  0  0  0  0
   -7.8845   18.9697  -33.1909 H   0  0  0  0  0  0  0  0  0  0  0  0
   -2.1855   26.0365  -28.2902 H   0  0  0  0  0  0  0  0  0  0  0  0
   -0.6741   24.6991  -26.8377 H   0  0  0  0  0  0  0  0  0  0  0  0
   -0.2306   22.2959  -26.0268 H   0  0  0  0  0  0  0  0  0  0  0  0
   -0.0806   21.0221  -27.2844 H   0  0  0  0  0  0  0  0  0  0  0  0
    1.0459   22.4213  -27.2844 H   0  0  0  0  0  0  0  0  0  0  0  0
  1  2  1  0
  2  3  1  0
  3  4  1  0
  4  5  1  0
  3  6  1  0
  6  7  2  0
  6  8  2  0
  6  9  1  0
  9 10  2  0
 10 11  1  0
 11 12  1  0
 12 13  1  0
 13 14  2  0
 13 15  1  0
 15 16  1  0
 16 17  1  0
 17 18  2  0
 18 19  1  0
 19 20  2  0
 20 21  1  0
 21 22  2  0
 11 23  2  0
 23 24  1  0
 24 25  2  0
 25 26  1  0
 25  9  1  0
 22 17  1  0
  1 27  1  0
  1 28  1  0
  1 29  1  0
  2 30  1  0
  2 31  1  0
  4 32  1  0
  4 33  1  0
  5 34  1  0
  5 35  1  0
  5 36  1  0
 10 37  1  0
 15 38  1  0
 15 39  1  0
 18 40  1  0
 19 41  1  0
 20 42  1  0
 21 43  1  0
 23 44  1  0
 24 45  1  0
 26 46  1  0
 26 47  1  0
 26 48  1  0
M  CHG  1  12  -1
M  END
>  <UniqueID>  (27) 
24

>  <SMILES>  (27) 
CCN(CC)S(=O)(=O)c1cc([N-]C(=O)CSc2ccccn2)ccc1C

>  <Energy>  (27) 
55.290942728603184

>  <Genealogy>  (27) 
CCN(CC)S(=O)(=O)c1cc([N-]C(=O)CSc2ccccn2)ccc1C (protonated)
CCN(CC)S(=O)(=O)c1cc([N-]C(=O)CSc2ccccn2)ccc1C (3D coordinates assigned)
CCN(CC)S(=O)(=O)c1cc([N-]C(=O)CSc2ccccn2)ccc1C (optimized conformer: 55.290942728603184 kcal/mol)

>  <smiles>  (27) 
CCN(CC)S(=O)(=O)c1cc(NC(=O)CSc2ccccn2)ccc1C

>  <score_type>  (27) 
oracle

>  <origin>  (27) 
adg

>  <m_score__min__energy>  (27) 
-10.380000000000001

>  <m_primary>  (27) 
energy

$$$$
27:0
     RDKit          3D

 23 24  0  0  0  0  0  0  0  0999 V2000
   -1.7340   25.5560  -28.9000 N   0  0  0  0  0  0  0  0  0  0  0  0
   -2.6300   24.5710  -28.3010 C   0  0  0  0  0  0  0  0  0  0  0  0
   -3.6770   24.1340  -29.2790 C   0  0  0  0  0  0  0  0  0  0  0  0
   -3.8560   24.7050  -30.4900 N   0  0  0  0  0  0  0  0  0  0  0  0
   -4.8030   24.1140  -31.2160 N   0  0  0  0  0  0  0  0  0  0  0  0
   -5.3830   23.0570  -30.6000 C   0  0  0  0  0  0  0  0  0  0  0  0
   -6.4560   22.2400  -31.2120 C   0  0  0  0  0  0  0  0  0  0  0  0
   -7.7900   22.4010  -30.7960 C   0  0  0  0  0  0  0  0  0  0  0  0
   -8.8090   21.6340  -31.3690 C   0  0  0  0  0  0  0  0  0  0  0  0
   -8.5110   20.6960  -32.3640 C   0  0  0  0  0  0  0  0  0  0  0  0
   -9.5190   19.9270  -32.9400 O   0  0  0  0  0  0  0  0  0  0  0  0
   -7.1870   20.5290  -32.7840 C   0  0  0  0  0  0  0  0  0  0  0  0
   -6.8880   19.6220  -33.7480 F   0  0  0  0  0  0  0  0  0  0  0  0
   -6.1650   21.2950  -32.2130 C   0  0  0  0  0  0  0  0  0  0  0  0
   -4.7020   22.8160  -29.0730 S   0  0  0  0  0  0  0  0  0  0  0  0
   -1.9850   25.6720  -29.9090 H   0  0  0  0  0  0  0  0  0  0  0  0
   -0.7540   25.1910  -28.8570 H   0  0  0  0  0  0  0  0  0  0  0  0
   -2.0434   23.6952  -27.9865 H   0  0  0  0  0  0  0  0  0  0  0  0
   -3.1289   25.0313  -27.4354 H   0  0  0  0  0  0  0  0  0  0  0  0
   -8.0333   23.1356  -30.0142 H   0  0  0  0  0  0  0  0  0  0  0  0
   -9.8489   21.7684  -31.0365 H   0  0  0  0  0  0  0  0  0  0  0  0
   -9.4530   19.5960  -33.8950 H   0  0  0  0  0  0  0  0  0  0  0  0
   -5.1266   21.1575  -32.5490 H   0  0  0  0  0  0  0  0  0  0  0  0
  1  2  1  0
  2  3  1  0
  3  4  2  0
  4  5  1  0
  5  6  2  0
  6  7  1  0
  7  8  2  0
  8  9  1  0
  9 10  2  0
 10 11  1  0
 10 12  1  0
 12 13  1  0
 12 14  2  0
  6 15  1  0
 15  3  1  0
 14  7  1  0
  1 16  1  0
  1 17  1  0
  2 18  1  0
  2 19  1  0
  8 20  1  0
  9 21  1  0
 11 22  1  0
 14 23  1  0
M  END
>  <UniqueID>  (28) 
25

>  <SMILES>  (28) 
NCc1nnc(-c2ccc(O)c(F)c2)s1

>  <Energy>  (28) 
55.937308380233844

>  <Genealogy>  (28) 
NCc1nnc(-c2ccc(O)c(F)c2)s1 (3D coordinates assigned)
NCc1nnc(-c2ccc(O)c(F)c2)s1 (optimized conformer: 55.937308380233844 kcal/mol)

>  <smiles>  (28) 
NCc1nnc(-c2ccc(O)c(F)c2)s1

>  <score_type>  (28) 
oracle

>  <origin>  (28) 
adg

>  <m_score__min__energy>  (28) 
-7.04

>  <m_primary>  (28) 
energy

$$$$
28:0
     RDKit          3D

 44 47  0  0  0  0  0  0  0  0999 V2000
   -7.6260   23.1550  -32.2560 C   0  0  0  0  0  0  0  0  0  0  0  0
   -6.2010   23.0380  -31.7730 C   0  0  0  0  0  0  0  0  0  0  0  0
   -5.5120   21.8110  -31.8590 C   0  0  0  0  0  0  0  0  0  0  0  0
   -6.1640   20.6430  -32.3890 N   0  0  0  0  0  0  0  0  0  0  0  0
   -7.1110   19.8850  -31.5910 C   0  0  0  0  0  0  0  0  0  0  0  0
   -6.8500   18.3760  -31.7110 C   0  0  0  0  0  0  0  0  0  0  0  0
   -6.1740   17.9280  -32.9570 N   0  0  0  0  0  0  0  0  0  0  0  0
   -5.9010   16.5000  -33.1270 C   0  0  0  0  0  0  0  0  0  0  0  0
   -6.6230   15.7160  -34.0620 C   0  0  0  0  0  0  0  0  0  0  0  0
   -6.3590   14.3520  -34.2180 C   0  0  0  0  0  0  0  0  0  0  0  0
   -5.3740   13.7340  -33.4500 C   0  0  0  0  0  0  0  0  0  0  0  0
   -4.6550   14.4780  -32.5160 C   0  0  0  0  0  0  0  0  0  0  0  0
   -4.9130   15.8410  -32.3510 C   0  0  0  0  0  0  0  0  0  0  0  0
   -5.6080   18.8750  -33.9470 C   0  0  0  0  0  0  0  0  0  0  0  0
   -6.0920   20.3110  -33.7980 C   0  0  0  0  0  0  0  0  0  0  0  0
   -4.1780   21.7380  -31.4150 C   0  0  0  0  0  0  0  0  0  0  0  0
   -3.4280   20.5470  -31.4770 C   0  0  0  0  0  0  0  0  0  0  0  0
   -2.1050   20.5260  -31.0250 C   0  0  0  0  0  0  0  0  0  0  0  0
   -1.5190   21.6830  -30.5090 C   0  0  0  0  0  0  0  0  0  0  0  0
   -2.2510   22.8730  -30.4480 C   0  0  0  0  0  0  0  0  0  0  0  0
   -3.5750   22.9070  -30.9010 C   0  0  0  0  0  0  0  0  0  0  0  0
   -4.2550   24.0460  -30.8460 O   0  0  0  0  0  0  0  0  0  0  0  0
   -5.5130   24.1570  -31.2580 C   0  0  0  0  0  0  0  0  0  0  0  0
   -6.0810   25.2780  -31.1780 O   0  0  0  0  0  0  0  0  0  0  0  0
   -8.3030   23.2106  -31.3908 H   0  0  0  0  0  0  0  0  0  0  0  0
   -7.7333   24.0650  -32.8646 H   0  0  0  0  0  0  0  0  0  0  0  0
   -7.8803   22.2747  -32.8646 H   0  0  0  0  0  0  0  0  0  0  0  0
   -7.0134   20.1840  -30.5369 H   0  0  0  0  0  0  0  0  0  0  0  0
   -8.1260   20.0950  -31.9593 H   0  0  0  0  0  0  0  0  0  0  0  0
   -6.2213   18.0746  -30.8602 H   0  0  0  0  0  0  0  0  0  0  0  0
   -7.8434   17.9038  -31.7267 H   0  0  0  0  0  0  0  0  0  0  0  0
   -7.4042   16.1890  -34.6751 H   0  0  0  0  0  0  0  0  0  0  0  0
   -6.9315   13.7639  -34.9504 H   0  0  0  0  0  0  0  0  0  0  0  0
   -5.1645   12.6621  -33.5805 H   0  0  0  0  0  0  0  0  0  0  0  0
   -3.8808   13.9896  -31.9060 H   0  0  0  0  0  0  0  0  0  0  0  0
   -4.3401   16.4132  -31.6064 H   0  0  0  0  0  0  0  0  0  0  0  0
   -4.5132   18.8690  -33.8407 H   0  0  0  0  0  0  0  0  0  0  0  0
   -5.9470   18.5324  -34.9358 H   0  0  0  0  0  0  0  0  0  0  0  0
   -5.3888   20.9909  -34.3012 H   0  0  0  0  0  0  0  0  0  0  0  0
   -7.0870   20.4162  -34.2550 H   0  0  0  0  0  0  0  0  0  0  0  0
   -3.8842   19.6316  -31.8819 H   0  0  0  0  0  0  0  0  0  0  0  0
   -1.5235   19.5937  -31.0763 H   0  0  0  0  0  0  0  0  0  0  0  0
   -0.4796   21.6587  -30.1497 H   0  0  0  0  0  0  0  0  0  0  0  0
   -1.7855   23.7838  -30.0434 H   0  0  0  0  0  0  0  0  0  0  0  0
  1  2  1  0
  2  3  2  0
  3  4  1  0
  4  5  1  0
  5  6  1  0
  6  7  1  0
  7  8  1  0
  8  9  2  0
  9 10  1  0
 10 11  2  0
 11 12  1  0
 12 13  2  0
  7 14  1  0
 14 15  1  0
  3 16  1  0
 16 17  2  0
 17 18  1  0
 18 19  2  0
 19 20  1  0
 20 21  2  0
 21 22  1  0
 22 23  1  0
 23 24  2  0
 23  2  1  0
 15  4  1  0
 21 16  1  0
 13  8  1  0
  1 25  1  0
  1 26  1  0
  1 27  1  0
  5 28  1  0
  5 29  1  0
  6 30  1  0
  6 31  1  0
  9 32  1  0
 10 33  1  0
 11 34  1  0
 12 35  1  0
 13 36  1  0
 14 37  1  0
 14 38  1  0
 15 39  1  0
 15 40  1  0
 17 41  1  0
 18 42  1  0
 19 43  1  0
 20 44  1  0
M  END
>  <UniqueID>  (29) 
26

>  <SMILES>  (29) 
Cc1c(N2CCN(c3ccccc3)CC2)c2ccccc2oc1=O

>  <Energy>  (29) 
67.80277429565217

>  <Genealogy>  (29) 
Cc1c(N2CCN(c3ccccc3)CC2)c2ccccc2oc1=O (3D coordinates assigned)
Cc1c(N2CCN(c3ccccc3)CC2)c2ccccc2oc1=O (nonaromatic ring conformer: 67.80277429565217 kcal/mol)

>  <smiles>  (29) 
Cc1c(N2CCN(c3ccccc3)CC2)c2ccccc2oc1=O

>  <score_type>  (29) 
oracle

>  <origin>  (29) 
adg

>  <m_score__min__energy>  (29) 
-7.8099999999999996

>  <m_primary>  (29) 
energy

$$$$
29:0
     RDKit          3D

 27 29  0  0  0  0  0  0  0  0999 V2000
   -6.7400   15.6920  -33.8820 C   0  0  0  0  0  0  0  0  0  0  0  0
   -6.4440   17.1060  -33.5190 C   0  0  0  0  0  0  0  0  0  0  0  0
   -5.2090   17.6540  -33.6020 N   0  0  0  0  0  0  0  0  0  0  0  0
   -5.2370   18.9730  -33.2800 C   0  0  0  0  0  0  0  0  0  0  0  0
   -6.4770   19.4710  -32.9430 C   0  0  0  0  0  0  0  0  0  0  0  0
   -7.6130   18.2420  -33.0700 S   0  0  0  0  0  0  0  0  0  0  0  0
   -6.8050   21.2070  -32.7060 S   0  0  0  0  0  0  0  0  0  0  0  0
   -5.2330   21.5340  -31.8770 C   0  0  0  0  0  0  0  0  0  0  0  0
   -5.1980   22.5120  -30.8770 C   0  0  0  0  0  0  0  0  0  0  0  0
   -3.9830   22.9070  -30.2990 C   0  0  0  0  0  0  0  0  0  0  0  0
   -3.9890   24.1660  -29.0550 S   0  0  0  0  0  0  0  0  0  0  0  0
   -5.5330   24.9450  -29.0150 N   0  0  0  0  0  0  0  0  0  0  0  0
   -3.7180   23.5570  -27.7070 O   0  0  0  0  0  0  0  0  0  0  0  0
   -2.9170   25.1780  -29.3420 O   0  0  0  0  0  0  0  0  0  0  0  0
   -2.7830   22.3170  -30.7460 C   0  0  0  0  0  0  0  0  0  0  0  0
   -1.2120   22.7780  -30.0960 Cl  0  0  0  0  0  0  0  0  0  0  0  0
   -2.8170   21.3200  -31.7280 C   0  0  0  0  0  0  0  0  0  0  0  0
   -4.0330   20.9070  -32.2870 C   0  0  0  0  0  0  0  0  0  0  0  0
   -4.0540   19.7670  -33.1660 N   0  0  0  0  0  0  0  0  0  0  0  0
   -6.8646   15.0966  -32.9655 H   0  0  0  0  0  0  0  0  0  0  0  0
   -7.6661   15.6516  -34.4743 H   0  0  0  0  0  0  0  0  0  0  0  0
   -5.9079   15.2836  -34.4743 H   0  0  0  0  0  0  0  0  0  0  0  0
   -6.1360   22.9772  -30.5398 H   0  0  0  0  0  0  0  0  0  0  0  0
   -5.3780   25.9090  -28.6430 H   0  0  0  0  0  0  0  0  0  0  0  0
   -6.1170   24.4410  -28.3120 H   0  0  0  0  0  0  0  0  0  0  0  0
   -1.8782   20.8557  -32.0644 H   0  0  0  0  0  0  0  0  0  0  0  0
   -3.1530   19.3720  -33.5210 H   0  0  0  0  0  0  0  0  0  0  0  0
  1  2  1  0
  2  3  2  0
  3  4  1  0
  4  5  2  0
  5  6  1  0
  5  7  1  0
  7  8  1  0
  8  9  2  0
  9 10  1  0
 10 11  1  0
 11 12  1  0
 11 13  2  0
 11 14  2  0
 10 15  2  0
 15 16  1  0
 15 17  1  0
 17 18  2  0
 18 19  1  0
  6  2  1  0
 18  8  1  0
 19  4  1  0
  1 20  1  0
  1 21  1  0
  1 22  1  0
  9 23  1  0
 12 24  1  0
 12 25  1  0
 17 26  1  0
 19 27  1  0
M  END
>  <UniqueID>  (30) 
27

>  <SMILES>  (30) 
Cc1nc2c(s1)Sc1cc(S(N)(=O)=O)c(Cl)cc1N2

>  <Energy>  (30) 
73.61825161889921

>  <Genealogy>  (30) 
Cc1nc2c(s1)Sc1cc(S(N)(=O)=O)c(Cl)cc1N2 (3D coordinates assigned)
Cc1nc2c(s1)Sc1cc(S(N)(=O)=O)c(Cl)cc1N2 (nonaromatic ring conformer: 73.61825161889921 kcal/mol)

>  <smiles>  (30) 
Cc1nc2c(s1)Sc1cc(S(N)(=O)=O)c(Cl)cc1N2

>  <score_type>  (30) 
oracle

>  <origin>  (30) 
adg

>  <m_score__min__energy>  (30) 
-7.8499999999999996

>  <m_primary>  (30) 
energy

$$$$
30:0
     RDKit          3D

 37 38  0  0  0  0  0  0  0  0999 V2000
   -4.3870   15.8080  -32.9670 C   0  0  0  0  0  0  0  0  0  0  0  0
   -4.5580   16.8870  -34.0330 C   0  0  0  0  0  0  0  0  0  0  0  0
   -5.4760   17.9820  -33.5420 C   0  0  0  0  0  0  0  0  0  0  0  0
   -5.0590   19.3290  -33.5740 C   0  0  0  0  0  0  0  0  0  0  0  0
   -3.7900   19.6680  -34.0300 O   0  0  0  0  0  0  0  0  0  0  0  0
   -5.9250   20.3430  -33.1530 C   0  0  0  0  0  0  0  0  0  0  0  0
   -7.2160   20.0360  -32.7020 C   0  0  0  0  0  0  0  0  0  0  0  0
   -8.1670   21.1390  -32.3130 C   0  0  0  0  0  0  0  0  0  0  0  0
   -7.9050   21.6370  -30.8850 C   0  0  0  0  0  0  0  0  0  0  0  0
   -6.8340   22.6990  -30.8500 C   0  0  0  0  0  0  0  0  0  0  0  0
   -7.1840   24.0570  -30.8130 C   0  0  0  0  0  0  0  0  0  0  0  0
   -6.1950   25.0380  -30.7200 C   0  0  0  0  0  0  0  0  0  0  0  0
   -4.8470   24.6740  -30.6600 C   0  0  0  0  0  0  0  0  0  0  0  0
   -3.8770   25.6660  -30.5570 O   0  0  0  0  0  0  0  0  0  0  0  0
   -4.4790   23.3170  -30.7010 C   0  0  0  0  0  0  0  0  0  0  0  0
   -3.0340   22.9190  -30.6080 C   0  0  0  0  0  0  0  0  0  0  0  0
   -5.4800   22.3340  -30.7830 C   0  0  0  0  0  0  0  0  0  0  0  0
   -7.6390   18.6990  -32.6890 C   0  0  0  0  0  0  0  0  0  0  0  0
   -6.7810   17.6780  -33.1100 C   0  0  0  0  0  0  0  0  0  0  0  0
   -7.2390   16.3640  -33.1030 O   0  0  0  0  0  0  0  0  0  0  0  0
   -4.4593   16.2642  -31.9687 H   0  0  0  0  0  0  0  0  0  0  0  0
   -5.1763   15.0505  -33.0821 H   0  0  0  0  0  0  0  0  0  0  0  0
   -3.4022   15.3317  -33.0821 H   0  0  0  0  0  0  0  0  0  0  0  0
   -3.5747   17.3194  -34.2701 H   0  0  0  0  0  0  0  0  0  0  0  0
   -5.0006   16.4304  -34.9306 H   0  0  0  0  0  0  0  0  0  0  0  0
   -5.5901   21.3905  -33.1760 H   0  0  0  0  0  0  0  0  0  0  0  0
   -8.0433   21.9794  -33.0119 H   0  0  0  0  0  0  0  0  0  0  0  0
   -9.1910   20.7394  -32.3544 H   0  0  0  0  0  0  0  0  0  0  0  0
   -8.8365   22.0571  -30.4778 H   0  0  0  0  0  0  0  0  0  0  0  0
   -7.5601   20.7834  -30.2830 H   0  0  0  0  0  0  0  0  0  0  0  0
   -8.2432   24.3504  -30.8575 H   0  0  0  0  0  0  0  0  0  0  0  0
   -6.4776   26.1007  -30.6939 H   0  0  0  0  0  0  0  0  0  0  0  0
   -2.7431   22.8389  -29.5502 H   0  0  0  0  0  0  0  0  0  0  0  0
   -2.8887   21.9474  -31.1028 H   0  0  0  0  0  0  0  0  0  0  0  0
   -2.4117   23.6792  -31.1028 H   0  0  0  0  0  0  0  0  0  0  0  0
   -5.2004   21.2702  -30.7948 H   0  0  0  0  0  0  0  0  0  0  0  0
   -8.6540   18.4513  -32.3448 H   0  0  0  0  0  0  0  0  0  0  0  0
  1  2  1  0
  2  3  1  0
  3  4  2  0
  4  5  1  0
  4  6  1  0
  6  7  2  0
  7  8  1  0
  8  9  1  0
  9 10  1  0
 10 11  2  0
 11 12  1  0
 12 13  2  0
 13 14  1  0
 13 15  1  0
 15 16  1  0
 15 17  2  0
  7 18  1  0
 18 19  2  0
 19 20  1  0
 19  3  1  0
 17 10  1  0
  1 21  1  0
  1 22  1  0
  1 23  1  0
  2 24  1  0
  2 25  1  0
  6 26  1  0
  8 27  1  0
  8 28  1  0
  9 29  1  0
  9 30  1  0
 11 31  1  0
 12 32  1  0
 16 33  1  0
 16 34  1  0
 16 35  1  0
 17 36  1  0
 18 37  1  0
M  CHG  3   5  -1  14  -1  20  -1
M  END
>  <UniqueID>  (31) 
28

>  <SMILES>  (31) 
CCc1c([O-])cc(CCc2ccc([O-])c(C)c2)cc1[O-]

>  <Energy>  (31) 
31.096089632972525

>  <Genealogy>  (31) 
CCc1c([O-])cc(CCc2ccc([O-])c(C)c2)cc1[O-] (protonated)
CCc1c([O-])cc(CCc2ccc([O-])c(C)c2)cc1[O-] (3D coordinates assigned)
CCc1c([O-])cc(CCc2ccc([O-])c(C)c2)cc1[O-] (optimized conformer: 31.096089632972525 kcal/mol)

>  <smiles>  (31) 
CCc1c(O)cc(CCc2ccc(O)c(C)c2)cc1O

>  <score_type>  (31) 
oracle

>  <origin>  (31) 
adg

>  <m_score__min__energy>  (31) 
-10.289999999999999

>  <m_primary>  (31) 
energy

$$$$
31:0
     RDKit          3D

 28 30  0  0  0  0  0  0  0  0999 V2000
   -3.4990   21.0870  -28.0590 O   0  0  0  0  0  0  0  0  0  0  0  0
   -2.9760   22.2330  -28.1360 C   0  0  0  0  0  0  0  0  0  0  0  0
   -1.9450   22.5650  -27.2560 C   0  0  0  0  0  0  0  0  0  0  0  0
   -1.3630   23.8330  -27.3130 C   0  0  0  0  0  0  0  0  0  0  0  0
   -0.3280   24.1850  -26.4330 C   0  0  0  0  0  0  0  0  0  0  0  0
    0.2470   25.4580  -26.4990 C   0  0  0  0  0  0  0  0  0  0  0  0
   -0.2070   26.3830  -27.4420 C   0  0  0  0  0  0  0  0  0  0  0  0
   -1.2360   26.0440  -28.3230 C   0  0  0  0  0  0  0  0  0  0  0  0
   -1.8260   24.7660  -28.2660 C   0  0  0  0  0  0  0  0  0  0  0  0
   -2.8630   24.3940  -29.1410 C   0  0  0  0  0  0  0  0  0  0  0  0
   -3.3150   25.2990  -30.1010 O   0  0  0  0  0  0  0  0  0  0  0  0
   -3.4210   23.1430  -29.0630 N   0  0  0  0  0  0  0  0  0  0  0  0
   -4.4840   22.7840  -29.9660 C   0  0  0  0  0  0  0  0  0  0  0  0
   -5.7220   23.4430  -29.8990 C   0  0  0  0  0  0  0  0  0  0  0  0
   -6.7540   23.0930  -30.7760 C   0  0  0  0  0  0  0  0  0  0  0  0
   -6.5580   22.0850  -31.7250 C   0  0  0  0  0  0  0  0  0  0  0  0
   -7.5650   21.7550  -32.5700 F   0  0  0  0  0  0  0  0  0  0  0  0
   -5.3250   21.4230  -31.7990 C   0  0  0  0  0  0  0  0  0  0  0  0
   -5.0430   20.0450  -33.0920 Br  0  0  0  0  0  0  0  0  0  0  0  0
   -4.2920   21.7720  -30.9220 C   0  0  0  0  0  0  0  0  0  0  0  0
   -1.5915   21.8291  -26.5188 H   0  0  0  0  0  0  0  0  0  0  0  0
    0.0317   23.4581  -25.6899 H   0  0  0  0  0  0  0  0  0  0  0  0
    1.0577   25.7312  -25.8075 H   0  0  0  0  0  0  0  0  0  0  0  0
    0.2482   27.3832  -27.4909 H   0  0  0  0  0  0  0  0  0  0  0  0
   -1.5871   26.7773  -29.0640 H   0  0  0  0  0  0  0  0  0  0  0  0
   -5.8808   24.2370  -29.1545 H   0  0  0  0  0  0  0  0  0  0  0  0
   -7.7222   23.6121  -30.7189 H   0  0  0  0  0  0  0  0  0  0  0  0
   -3.3247   21.2516  -30.9812 H   0  0  0  0  0  0  0  0  0  0  0  0
  1  2  2  0
  2  3  1  0
  3  4  2  0
  4  5  1  0
  5  6  2  0
  6  7  1  0
  7  8  2  0
  8  9  1  0
  9 10  2  0
 10 11  1  0
 10 12  1  0
 12 13  1  0
 13 14  2  0
 14 15  1  0
 15 16  2  0
 16 17  1  0
 16 18  1  0
 18 19  1  0
 18 20  2  0
 12  2  1  0
 20 13  1  0
  9  4  1  0
  3 21  1  0
  5 22  1  0
  6 23  1  0
  7 24  1  0
  8 25  1  0
 14 26  1  0
 15 27  1  0
 20 28  1  0
M  CHG  1  11  -1
M  END
>  <UniqueID>  (32) 
29

>  <SMILES>  (32) 
O=c1cc2ccccc2c([O-])n1-c1ccc(F)c(Br)c1

>  <Energy>  (32) 
45.35029913437579

>  <Genealogy>  (32) 
O=c1cc2ccccc2c([O-])n1-c1ccc(F)c(Br)c1 (protonated)
O=c1cc2ccccc2c([O-])n1-c1ccc(F)c(Br)c1 (3D coordinates assigned)
O=c1cc2ccccc2c([O-])n1-c1ccc(F)c(Br)c1 (optimized conformer: 45.35029913437579 kcal/mol)

>  <smiles>  (32) 
O=c1cc2ccccc2c(O)n1-c1ccc(F)c(Br)c1

>  <score_type>  (32) 
oracle

>  <origin>  (32) 
adg

>  <m_score__min__energy>  (32) 
-9.3399999999999999

>  <m_primary>  (32) 
energy

$$$$
32:0
     RDKit          3D

 48 50  0  0  0  0  0  0  0  0999 V2000
   -3.9430   15.9330  -34.6310 C   0  0  0  0  0  0  0  0  0  0  0  0
   -4.2780   17.2770  -34.0740 C   0  0  0  0  0  0  0  0  0  0  0  0
   -5.4640   17.6990  -34.1470 O   0  0  0  0  0  0  0  0  0  0  0  0
   -3.2620   18.0470  -33.4130 N   0  0  0  0  0  0  0  0  0  0  0  0
   -3.4700   19.3670  -32.8760 C   0  0  0  0  0  0  0  0  0  0  0  0
   -2.8010   19.8000  -31.7160 C   0  0  0  0  0  0  0  0  0  0  0  0
   -3.0430   21.0810  -31.2020 C   0  0  0  0  0  0  0  0  0  0  0  0
   -3.9720   21.9390  -31.8260 C   0  0  0  0  0  0  0  0  0  0  0  0
   -4.2000   23.3000  -31.3000 C   0  0  0  0  0  0  0  0  0  0  0  0
   -3.3410   24.0090  -30.4870 C   0  0  0  0  0  0  0  0  0  0  0  0
   -3.8640   25.2280  -30.2510 N   0  0  0  0  0  0  0  0  0  0  0  0
   -5.0320   25.3200  -30.8720 N   0  0  0  0  0  0  0  0  0  0  0  0
   -5.2680   24.1620  -31.5200 C   0  0  0  0  0  0  0  0  0  0  0  0
   -6.5650   23.8570  -32.2380 C   0  0  0  0  0  0  0  0  0  0  0  0
   -7.5510   23.1060  -31.4250 N   0  0  0  0  0  0  0  0  0  0  0  0
   -8.9120   23.0340  -31.9760 C   0  0  0  0  0  0  0  0  0  0  0  0
   -9.5850   21.8440  -31.3060 C   0  0  0  0  0  0  0  0  0  0  0  0
   -8.4380   20.9270  -30.8580 C   0  0  1  0  0  0  0  0  0  0  0  0
   -8.4680   19.6020  -31.5420 N   0  0  0  0  0  0  0  0  0  0  0  0
   -9.3810   19.5120  -32.7010 C   0  0  0  0  0  0  0  0  0  0  0  0
   -7.1090   19.1570  -31.9160 C   0  0  0  0  0  0  0  0  0  0  0  0
   -7.1430   21.7400  -31.0700 C   0  0  0  0  0  0  0  0  0  0  0  0
   -4.6330   21.5090  -32.9890 C   0  0  0  0  0  0  0  0  0  0  0  0
   -4.3980   20.2270  -33.4970 C   0  0  0  0  0  0  0  0  0  0  0  0
   -3.7671   15.2275  -33.8056 H   0  0  0  0  0  0  0  0  0  0  0  0
   -4.7790   15.5734  -35.2489 H   0  0  0  0  0  0  0  0  0  0  0  0
   -3.0360   16.0079  -35.2489 H   0  0  0  0  0  0  0  0  0  0  0  0
   -2.3780   17.5530  -33.1630 H   0  0  0  0  0  0  0  0  0  0  0  0
   -2.0871   19.1319  -31.2121 H   0  0  0  0  0  0  0  0  0  0  0  0
   -2.5042   21.4199  -30.3049 H   0  0  0  0  0  0  0  0  0  0  0  0
   -2.3826   23.6387  -30.0942 H   0  0  0  0  0  0  0  0  0  0  0  0
   -7.0231   24.8100  -32.5412 H   0  0  0  0  0  0  0  0  0  0  0  0
   -6.3078   23.2147  -33.0932 H   0  0  0  0  0  0  0  0  0  0  0  0
   -9.4630   23.9590  -31.7508 H   0  0  0  0  0  0  0  0  0  0  0  0
   -8.8936   22.9178  -33.0697 H   0  0  0  0  0  0  0  0  0  0  0  0
  -10.1755   22.1738  -30.4385 H   0  0  0  0  0  0  0  0  0  0  0  0
  -10.2787   21.3291  -31.9870 H   0  0  0  0  0  0  0  0  0  0  0  0
   -8.5236   20.6458  -29.7980 H   0  0  0  0  0  0  0  0  0  0  0  0
  -10.4167   19.4099  -32.3448 H   0  0  0  0  0  0  0  0  0  0  0  0
   -9.2910   20.4234  -33.3103 H   0  0  0  0  0  0  0  0  0  0  0  0
   -9.1147   18.6357  -33.3103 H   0  0  0  0  0  0  0  0  0  0  0  0
   -6.5225   18.9650  -31.0054 H   0  0  0  0  0  0  0  0  0  0  0  0
   -7.1761   18.2339  -32.5104 H   0  0  0  0  0  0  0  0  0  0  0  0
   -6.6171   19.9410  -32.5104 H   0  0  0  0  0  0  0  0  0  0  0  0
   -6.5475   21.7512  -30.1452 H   0  0  0  0  0  0  0  0  0  0  0  0
   -6.5237   21.2951  -31.8628 H   0  0  0  0  0  0  0  0  0  0  0  0
   -5.3367   22.1818  -33.5010 H   0  0  0  0  0  0  0  0  0  0  0  0
   -4.9429   19.8867  -34.3900 H   0  0  0  0  0  0  0  0  0  0  0  0
  1  2  1  0
  2  3  2  0
  2  4  1  0
  4  5  1  0
  5  6  2  0
  6  7  1  0
  7  8  2  0
  8  9  1  0
  9 10  2  0
 10 11  1  0
 11 12  1  0
 12 13  2  0
 13 14  1  0
 14 15  1  0
 15 16  1  0
 16 17  1  0
 17 18  1  0
 18 19  1  0
 19 20  1  0
 19 21  1  0
 18 22  1  0
  8 23  1  0
 23 24  2  0
 24  5  1  0
 13  9  1  0
 22 15  1  0
  1 25  1  0
  1 26  1  0
  1 27  1  0
  4 28  1  0
  6 29  1  0
  7 30  1  0
 10 31  1  0
 14 32  1  0
 14 33  1  0
 16 34  1  0
 16 35  1  0
 17 36  1  0
 17 37  1  0
 18 38  1  1
 20 39  1  0
 20 40  1  0
 20 41  1  0
 21 42  1  0
 21 43  1  0
 21 44  1  0
 22 45  1  0
 22 46  1  0
 23 47  1  0
 24 48  1  0
M  CHG  1  11  -1
M  END
>  <UniqueID>  (33) 
30

>  <SMILES>  (33) 
CC(=O)Nc1ccc(-c2c[n-]nc2CN2CC[C@@H](N(C)C)C2)cc1

>  <Energy>  (33) 
98.34237360955427

>  <Genealogy>  (33) 
CC(=O)Nc1ccc(-c2c[n-]nc2CN2CCC(N(C)C)C2)cc1 (protonated)
CC(=O)Nc1ccc(-c2c[n-]nc2CN2CC[C@@H](N(C)C)C2)cc1 (chirality)
CC(=O)Nc1ccc(-c2c[n-]nc2CN2CC[C@@H](N(C)C)C2)cc1 (3D coordinates assigned)
CC(=O)Nc1ccc(-c2c[n-]nc2CN2CC[C@@H](N(C)C)C2)cc1 (nonaromatic ring conformer: 98.34237360955427 kcal/mol)

>  <smiles>  (33) 
CC(=O)Nc1ccc(-c2c[nH]nc2CN2CCC(N(C)C)C2)cc1

>  <score_type>  (33) 
oracle

>  <origin>  (33) 
adg

>  <m_score__min__energy>  (33) 
-9.75

>  <m_primary>  (33) 
energy

$$$$
33:0
     RDKit          3D

 42 44  0  0  0  0  0  0  0  0999 V2000
   -2.2910   24.8160  -28.4820 C   0  0  0  0  0  0  0  0  0  0  0  0
   -3.0830   25.2980  -29.5630 O   0  0  0  0  0  0  0  0  0  0  0  0
   -4.1750   24.6100  -30.1110 C   0  0  0  0  0  0  0  0  0  0  0  0
   -5.5140   25.0580  -29.9470 C   0  0  0  0  0  0  0  0  0  0  0  0
   -6.5840   24.3420  -30.5120 C   0  0  0  0  0  0  0  0  0  0  0  0
   -6.2920   23.1800  -31.2320 C   0  0  0  0  0  0  0  0  0  0  0  0
   -5.0000   22.7510  -31.3940 C   0  0  0  0  0  0  0  0  0  0  0  0
   -3.9190   23.4380  -30.8490 C   0  0  0  0  0  0  0  0  0  0  0  0
   -5.0310   21.6100  -32.1640 C   0  0  0  0  0  0  0  0  0  0  0  0
   -6.3770   21.3980  -32.4520 C   0  0  0  0  0  0  0  0  0  0  0  0
   -6.8880   20.2650  -33.3090 C   0  0  0  0  0  0  0  0  0  0  0  0
   -6.2120   18.9700  -33.0280 N   0  0  2  0  0  0  0  0  0  0  0  0
   -5.7660   18.2080  -34.2310 C   0  0  0  0  0  0  0  0  0  0  0  0
   -4.9180   16.9850  -33.8970 C   0  0  0  0  0  0  0  0  0  0  0  0
   -4.2880   18.1580  -34.6320 C   0  0  0  0  0  0  0  0  0  0  0  0
   -7.2490   17.9120  -32.0880 S   0  0  0  0  0  0  0  0  0  0  0  0
   -8.7530   18.7420  -31.6130 C   0  0  0  0  0  0  0  0  0  0  0  0
   -7.6090   16.7010  -32.9050 O   0  0  0  0  0  0  0  0  0  0  0  0
   -6.5340   17.4390  -30.8530 O   0  0  0  0  0  0  0  0  0  0  0  0
   -7.1510   22.3490  -31.8590 N   0  0  0  0  0  0  0  0  0  0  0  0
   -8.6040   22.5030  -31.9410 C   0  0  0  0  0  0  0  0  0  0  0  0
   -2.7596   25.1012  -27.5285 H   0  0  0  0  0  0  0  0  0  0  0  0
   -2.2178   23.7200  -28.5413 H   0  0  0  0  0  0  0  0  0  0  0  0
   -1.2839   25.2545  -28.5413 H   0  0  0  0  0  0  0  0  0  0  0  0
   -5.7151   25.9741  -29.3723 H   0  0  0  0  0  0  0  0  0  0  0  0
   -7.6216   24.6865  -30.3909 H   0  0  0  0  0  0  0  0  0  0  0  0
   -2.8905   23.0747  -30.9911 H   0  0  0  0  0  0  0  0  0  0  0  0
   -4.1754   20.9969  -32.4835 H   0  0  0  0  0  0  0  0  0  0  0  0
   -7.9657   20.1447  -33.1241 H   0  0  0  0  0  0  0  0  0  0  0  0
   -6.6763   20.5249  -34.3567 H   0  0  0  0  0  0  0  0  0  0  0  0
   -5.3650   19.1470  -32.4410 H   0  0  0  0  0  0  0  0  0  0  0  0
   -6.6761   18.4492  -34.7997 H   0  0  0  0  0  0  0  0  0  0  0  0
   -4.6401   16.7783  -32.8530 H   0  0  0  0  0  0  0  0  0  0  0  0
   -5.0044   15.9054  -34.0894 H   0  0  0  0  0  0  0  0  0  0  0  0
   -3.5568   18.8000  -34.1190 H   0  0  0  0  0  0  0  0  0  0  0  0
   -3.7328   18.2785  -35.5739 H   0  0  0  0  0  0  0  0  0  0  0  0
   -8.8204   18.7792  -30.5157 H   0  0  0  0  0  0  0  0  0  0  0  0
   -8.7495   19.7659  -32.0151 H   0  0  0  0  0  0  0  0  0  0  0  0
   -9.6174   18.1932  -32.0151 H   0  0  0  0  0  0  0  0  0  0  0  0
   -9.0258   22.5477  -30.9261 H   0  0  0  0  0  0  0  0  0  0  0  0
   -8.8445   23.4317  -32.4793 H   0  0  0  0  0  0  0  0  0  0  0  0
   -9.0338   21.6454  -32.4793 H   0  0  0  0  0  0  0  0  0  0  0  0
  1  2  1  0
  2  3  1  0
  3  4  2  0
  4  5  1  0
  5  6  2  0
  6  7  1  0
  7  8  2  0
  7  9  1  0
  9 10  2  0
 10 11  1  0
 11 12  1  0
 12 13  1  0
 13 14  1  0
 14 15  1  0
 12 16  1  0
 16 17  1  0
 16 18  2  0
 16 19  2  0
 10 20  1  0
 20 21  1  0
  8  3  1  0
 15 13  1  0
 20  6  1  0
  1 22  1  0
  1 23  1  0
  1 24  1  0
  4 25  1  0
  5 26  1  0
  8 27  1  0
  9 28  1  0
 11 29  1  0
 11 30  1  0
 12 31  1  1
 13 32  1  0
 14 33  1  0
 14 34  1  0
 15 35  1  0
 15 36  1  0
 17 37  1  0
 17 38  1  0
 17 39  1  0
 21 40  1  0
 21 41  1  0
 21 42  1  0
M  CHG  1  12   1
M  END
>  <UniqueID>  (34) 
31

>  <SMILES>  (34) 
COc1ccc2c(c1)cc(C[N@H+](C1CC1)S(C)(=O)=O)n2C

>  <Energy>  (34) 
344.4360071913922

>  <Genealogy>  (34) 
COc1ccc2c(c1)cc(C[NH+](C1CC1)S(C)(=O)=O)n2C (protonated)
COc1ccc2c(c1)cc(C[N@H+](C1CC1)S(C)(=O)=O)n2C (chirality)
COc1ccc2c(c1)cc(C[N@H+](C1CC1)S(C)(=O)=O)n2C (3D coordinates assigned)
COc1ccc2c(c1)cc(C[N@H+](C1CC1)S(C)(=O)=O)n2C (nonaromatic ring conformer: 344.4360071913922 kcal/mol)

>  <smiles>  (34) 
COc1ccc2c(c1)cc(CN(C1CC1)S(C)(=O)=O)n2C

>  <score_type>  (34) 
oracle

>  <origin>  (34) 
adg

>  <m_score__min__energy>  (34) 
-7.7000000000000002

>  <m_primary>  (34) 
energy

$$$$
34:0
     RDKit          3D

 35 36  0  0  0  0  0  0  0  0999 V2000
   -9.0050   21.5200  -31.5740 C   0  0  0  0  0  0  0  0  0  0  0  0
   -8.3410   20.2300  -31.3460 N   0  0  0  0  0  0  0  0  0  0  0  0
   -9.1000   19.1500  -31.9910 C   0  0  0  0  0  0  0  0  0  0  0  0
   -6.7220   20.2790  -31.9970 S   0  0  0  0  0  0  0  0  0  0  0  0
   -6.7600   19.9880  -33.4720 O   0  0  0  0  0  0  0  0  0  0  0  0
   -5.8780   19.2300  -31.3300 O   0  0  0  0  0  0  0  0  0  0  0  0
   -5.9830   21.8500  -31.7410 C   0  0  0  0  0  0  0  0  0  0  0  0
   -5.4250   22.5990  -32.7060 N   0  0  0  0  0  0  0  0  0  0  0  0
   -5.0080   23.7210  -32.1440 N   0  0  0  0  0  0  0  0  0  0  0  0
   -5.3270   23.6050  -30.8380 C   0  0  0  0  0  0  0  0  0  0  0  0
   -5.0880   24.6700  -29.8200 C   0  0  0  0  0  0  0  0  0  0  0  0
   -3.7670   25.2560  -30.0140 N   0  0  0  0  0  0  0  0  0  0  0  0
   -2.5860   24.7920  -29.3450 C   0  0  0  0  0  0  0  0  0  0  0  0
   -1.7100   25.6220  -28.9760 O   0  0  0  0  0  0  0  0  0  0  0  0
   -2.3930   23.3460  -29.0900 C   0  0  0  0  0  0  0  0  0  0  0  0
   -2.8880   22.7530  -27.9130 C   0  0  0  0  0  0  0  0  0  0  0  0
   -2.7040   21.3870  -27.6770 C   0  0  0  0  0  0  0  0  0  0  0  0
   -2.0280   20.5990  -28.6120 C   0  0  0  0  0  0  0  0  0  0  0  0
   -1.5350   21.1740  -29.7830 C   0  0  0  0  0  0  0  0  0  0  0  0
   -1.7130   22.5410  -30.0240 C   0  0  0  0  0  0  0  0  0  0  0  0
   -5.9250   22.4620  -30.5840 O   0  0  0  0  0  0  0  0  0  0  0  0
   -9.2445   21.9852  -30.6064 H   0  0  0  0  0  0  0  0  0  0  0  0
   -8.3354   22.1815  -32.1432 H   0  0  0  0  0  0  0  0  0  0  0  0
   -9.9325   21.3594  -32.1432 H   0  0  0  0  0  0  0  0  0  0  0  0
   -9.5512   18.5080  -31.2202 H   0  0  0  0  0  0  0  0  0  0  0  0
   -9.8934   19.5831  -32.6179 H   0  0  0  0  0  0  0  0  0  0  0  0
   -8.4237   18.5503  -32.6179 H   0  0  0  0  0  0  0  0  0  0  0  0
   -5.3380   22.3680  -33.7200 H   0  0  0  0  0  0  0  0  0  0  0  0
   -5.8532   25.4532  -29.9252 H   0  0  0  0  0  0  0  0  0  0  0  0
   -5.1434   24.2279  -28.8143 H   0  0  0  0  0  0  0  0  0  0  0  0
   -3.4229   23.3681  -27.1743 H   0  0  0  0  0  0  0  0  0  0  0  0
   -3.0921   20.9321  -26.7537 H   0  0  0  0  0  0  0  0  0  0  0  0
   -1.8846   19.5246  -28.4244 H   0  0  0  0  0  0  0  0  0  0  0  0
   -1.0050   20.5516  -30.5190 H   0  0  0  0  0  0  0  0  0  0  0  0
   -1.3195   22.9892  -30.9483 H   0  0  0  0  0  0  0  0  0  0  0  0
  1  2  1  0
  2  3  1  0
  2  4  1  0
  4  5  2  0
  4  6  2  0
  4  7  1  0
  7  8  2  0
  8  9  1  0
  9 10  2  0
 10 11  1  0
 11 12  1  0
 12 13  1  0
 13 14  2  0
 13 15  1  0
 15 16  2  0
 16 17  1  0
 17 18  2  0
 18 19  1  0
 19 20  2  0
 10 21  1  0
 21  7  1  0
 20 15  1  0
  1 22  1  0
  1 23  1  0
  1 24  1  0
  3 25  1  0
  3 26  1  0
  3 27  1  0
  8 28  1  0
 11 29  1  0
 11 30  1  0
 16 31  1  0
 17 32  1  0
 18 33  1  0
 19 34  1  0
 20 35  1  0
M  CHG  2   8   1  12  -1
M  END
>  <UniqueID>  (35) 
32

>  <SMILES>  (35) 
CN(C)S(=O)(=O)c1[nH+]nc(C[N-]C(=O)c2ccccc2)o1

>  <Energy>  (35) 
64.96706387847358

>  <Genealogy>  (35) 
CN(C)S(=O)(=O)c1[nH+]nc(C[N-]C(=O)c2ccccc2)o1 (protonated)
CN(C)S(=O)(=O)c1[nH+]nc(C[N-]C(=O)c2ccccc2)o1 (3D coordinates assigned)
CN(C)S(=O)(=O)c1[nH+]nc(C[N-]C(=O)c2ccccc2)o1 (optimized conformer: 64.96706387847358 kcal/mol)

>  <smiles>  (35) 
CN(C)S(=O)(=O)c1nnc(CNC(=O)c2ccccc2)o1

>  <score_type>  (35) 
oracle

>  <origin>  (35) 
adg

>  <m_score__min__energy>  (35) 
-8.9499999999999993

>  <m_primary>  (35) 
energy

$$$$
35:0
     RDKit          3D

 65 66  0  0  0  0  0  0  0  0999 V2000
   -9.4340   22.0230  -31.5950 C   0  0  0  0  0  0  0  0  0  0  0  0
   -8.4440   23.0950  -32.0740 C   0  0  0  0  0  0  0  0  0  0  0  0
   -7.0700   22.5580  -32.3070 N   0  0  1  0  0  0  0  0  0  0  0  0
   -6.0660   23.5720  -31.8620 C   0  0  0  0  0  0  0  0  0  0  0  0
   -5.5630   23.3890  -30.4100 C   0  0  0  0  0  0  0  0  0  0  0  0
   -4.1160   23.1120  -30.3290 N   0  0  0  0  0  0  0  0  0  0  0  0
   -3.4300   22.4900  -31.4780 C   0  0  0  0  0  0  0  0  0  0  0  0
   -2.7140   21.1750  -31.0650 C   0  0  0  0  0  0  0  0  0  0  0  0
   -1.6130   20.7160  -31.9670 N   0  0  0  0  0  0  0  0  0  0  0  0
   -1.8240   21.1790  -33.3640 C   0  0  0  0  0  0  0  0  0  0  0  0
   -0.2900   21.1780  -31.4790 C   0  0  0  0  0  0  0  0  0  0  0  0
   -1.6190   19.2320  -31.9720 C   0  0  0  0  0  0  0  0  0  0  0  0
   -3.3350   23.8460  -29.3700 C   0  0  0  0  0  0  0  0  0  0  0  0
   -2.7690   24.9170  -29.7170 O   0  0  0  0  0  0  0  0  0  0  0  0
   -3.2660   23.3850  -27.9420 C   0  0  0  0  0  0  0  0  0  0  0  0
   -2.4650   22.1150  -27.7900 C   0  0  0  0  0  0  0  0  0  0  0  0
   -1.0700   22.1350  -27.9650 C   0  0  0  0  0  0  0  0  0  0  0  0
   -0.3300   20.9510  -27.8570 C   0  0  0  0  0  0  0  0  0  0  0  0
   -0.9760   19.7430  -27.5750 C   0  0  0  0  0  0  0  0  0  0  0  0
   -2.3620   19.7180  -27.3890 C   0  0  0  0  0  0  0  0  0  0  0  0
   -3.1040   20.8980  -27.4950 C   0  0  0  0  0  0  0  0  0  0  0  0
   -6.8240   21.2600  -31.5990 C   0  0  0  0  0  0  0  0  0  0  0  0
   -6.4160   20.0920  -32.4870 C   0  0  0  0  0  0  0  0  0  0  0  0
   -5.2300   20.2040  -33.2450 C   0  0  0  0  0  0  0  0  0  0  0  0
   -4.8140   19.1640  -34.0780 C   0  0  0  0  0  0  0  0  0  0  0  0
   -5.5660   17.9890  -34.1590 C   0  0  0  0  0  0  0  0  0  0  0  0
   -6.7370   17.8570  -33.4090 C   0  0  0  0  0  0  0  0  0  0  0  0
   -7.1710   18.8940  -32.5720 C   0  0  0  0  0  0  0  0  0  0  0  0
   -8.7880   18.6080  -31.5940 Br  0  0  0  0  0  0  0  0  0  0  0  0
   -9.4509   22.0047  -30.4953 H   0  0  0  0  0  0  0  0  0  0  0  0
  -10.4399   22.2576  -31.9733 H   0  0  0  0  0  0  0  0  0  0  0  0
   -9.1203   21.0389  -31.9733 H   0  0  0  0  0  0  0  0  0  0  0  0
   -8.8181   23.5216  -33.0164 H   0  0  0  0  0  0  0  0  0  0  0  0
   -8.3707   23.8533  -31.2805 H   0  0  0  0  0  0  0  0  0  0  0  0
   -6.9500   22.3920  -33.3350 H   0  0  0  0  0  0  0  0  0  0  0  0
   -5.1981   23.5134  -32.5353 H   0  0  0  0  0  0  0  0  0  0  0  0
   -6.5736   24.5473  -31.8946 H   0  0  0  0  0  0  0  0  0  0  0  0
   -5.7751   24.3101  -29.8474 H   0  0  0  0  0  0  0  0  0  0  0  0
   -6.0875   22.5188  -29.9885 H   0  0  0  0  0  0  0  0  0  0  0  0
   -4.1716   22.2641  -32.2584 H   0  0  0  0  0  0  0  0  0  0  0  0
   -2.6725   23.1944  -31.8523 H   0  0  0  0  0  0  0  0  0  0  0  0
   -2.2870   21.3250  -30.0624 H   0  0  0  0  0  0  0  0  0  0  0  0
   -3.4836   20.3906  -31.1142 H   0  0  0  0  0  0  0  0  0  0  0  0
   -2.2801   22.1799  -33.3536 H   0  0  0  0  0  0  0  0  0  0  0  0
   -0.8567   21.2223  -33.8860 H   0  0  0  0  0  0  0  0  0  0  0  0
   -2.4913   20.4774  -33.8860 H   0  0  0  0  0  0  0  0  0  0  0  0
   -0.2851   21.1797  -30.3790 H   0  0  0  0  0  0  0  0  0  0  0  0
    0.4940   20.5004  -31.8481 H   0  0  0  0  0  0  0  0  0  0  0  0
   -0.0982   22.1963  -31.8481 H   0  0  0  0  0  0  0  0  0  0  0  0
   -1.6205   18.8618  -30.9362 H   0  0  0  0  0  0  0  0  0  0  0  0
   -2.5186   18.8707  -32.4918 H   0  0  0  0  0  0  0  0  0  0  0  0
   -0.7223   18.8635  -32.4918 H   0  0  0  0  0  0  0  0  0  0  0  0
   -2.7959   24.1746  -27.3374 H   0  0  0  0  0  0  0  0  0  0  0  0
   -4.2923   23.1789  -27.6042 H   0  0  0  0  0  0  0  0  0  0  0  0
   -0.5586   23.0832  -28.1873 H   0  0  0  0  0  0  0  0  0  0  0  0
    0.7612   20.9711  -27.9942 H   0  0  0  0  0  0  0  0  0  0  0  0
   -0.3940   18.8126  -27.4995 H   0  0  0  0  0  0  0  0  0  0  0  0
   -2.8686   18.7690  -27.1591 H   0  0  0  0  0  0  0  0  0  0  0  0
   -4.1937   20.8742  -27.3468 H   0  0  0  0  0  0  0  0  0  0  0  0
   -6.0219   21.4224  -30.8640 H   0  0  0  0  0  0  0  0  0  0  0  0
   -7.7874   20.9748  -31.1511 H   0  0  0  0  0  0  0  0  0  0  0  0
   -4.6268   21.1215  -33.1783 H   0  0  0  0  0  0  0  0  0  0  0  0
   -3.8936   19.2695  -34.6711 H   0  0  0  0  0  0  0  0  0  0  0  0
   -5.2360   17.1684  -34.8130 H   0  0  0  0  0  0  0  0  0  0  0  0
   -7.3246   16.9295  -33.4760 H   0  0  0  0  0  0  0  0  0  0  0  0
  1  2  1  0
  2  3  1  0
  3  4  1  0
  4  5  1  0
  5  6  1  0
  6  7  1  0
  7  8  1  0
  8  9  1  0
  9 10  1  0
  9 11  1  0
  9 12  1  0
  6 13  1  0
 13 14  2  0
 13 15  1  0
 15 16  1  0
 16 17  2  0
 17 18  1  0
 18 19  2  0
 19 20  1  0
 20 21  2  0
  3 22  1  0
 22 23  1  0
 23 24  2  0
 24 25  1  0
 25 26  2  0
 26 27  1  0
 27 28  2  0
 28 29  1  0
 21 16  1  0
 28 23  1  0
  1 30  1  0
  1 31  1  0
  1 32  1  0
  2 33  1  0
  2 34  1  0
  3 35  1  6
  4 36  1  0
  4 37  1  0
  5 38  1  0
  5 39  1  0
  7 40  1  0
  7 41  1  0
  8 42  1  0
  8 43  1  0
 10 44  1  0
 10 45  1  0
 10 46  1  0
 11 47  1  0
 11 48  1  0
 11 49  1  0
 12 50  1  0
 12 51  1  0
 12 52  1  0
 15 53  1  0
 15 54  1  0
 17 55  1  0
 18 56  1  0
 19 57  1  0
 20 58  1  0
 21 59  1  0
 22 60  1  0
 22 61  1  0
 24 62  1  0
 25 63  1  0
 26 64  1  0
 27 65  1  0
M  CHG  2   3   1   9   1
M  END
>  <UniqueID>  (36) 
33

>  <SMILES>  (36) 
CC[N@@H+](CCN(CC[N+](C)(C)C)C(=O)Cc1ccccc1)Cc1ccccc1Br

>  <Energy>  (36) 
82.21947831886185

>  <Genealogy>  (36) 
CC[NH+](CCN(CC[N+](C)(C)C)C(=O)Cc1ccccc1)Cc1ccccc1Br (protonated)
CC[N@@H+](CCN(CC[N+](C)(C)C)C(=O)Cc1ccccc1)Cc1ccccc1Br (chirality)
CC[N@@H+](CCN(CC[N+](C)(C)C)C(=O)Cc1ccccc1)Cc1ccccc1Br (3D coordinates assigned)
CC[N@@H+](CCN(CC[N+](C)(C)C)C(=O)Cc1ccccc1)Cc1ccccc1Br (optimized conformer: 82.21947831886185 kcal/mol)

>  <smiles>  (36) 
CCN(CCN(CC[N+](C)(C)C)C(=O)Cc1ccccc1)Cc1ccccc1Br

>  <score_type>  (36) 
oracle

>  <origin>  (36) 
adg

>  <m_score__min__energy>  (36) 
-8.0299999999999994

>  <m_primary>  (36) 
energy

$$$$
36:0
     RDKit          3D

 38 40  0  0  0  0  0  0  0  0999 V2000
   -6.8870   19.1940  -35.0010 H   0  0  0  0  0  0  0  0  0  0  0  0
   -6.1830   18.6690  -34.4370 N   0  0  0  0  0  0  0  0  0  0  0  0
   -5.1760   19.2390  -33.8530 C   0  0  0  0  0  0  0  0  0  0  0  0
   -3.5800   18.8700  -34.2090 S   0  0  0  0  0  0  0  0  0  0  0  0
   -2.9650   19.9130  -33.0420 C   0  0  0  0  0  0  0  0  0  0  0  0
   -1.8995   20.0742  -32.8215 H   0  0  0  0  0  0  0  0  0  0  0  0
   -4.0350   20.5400  -32.4000 C   0  0  0  0  0  0  0  0  0  0  0  0
   -3.8210   21.5490  -31.3340 C   0  0  0  0  0  0  0  0  0  0  0  0
   -3.3780   21.1490  -30.0670 C   0  0  0  0  0  0  0  0  0  0  0  0
   -3.1776   20.0857  -29.8690 H   0  0  0  0  0  0  0  0  0  0  0  0
   -3.1890   22.0900  -29.0540 C   0  0  0  0  0  0  0  0  0  0  0  0
   -2.8410   21.7638  -28.0628 H   0  0  0  0  0  0  0  0  0  0  0  0
   -3.4410   23.4540  -29.2930 C   0  0  0  0  0  0  0  0  0  0  0  0
   -3.2750   24.4280  -28.2960 O   0  0  0  0  0  0  0  0  0  0  0  0
   -4.0080   24.4690  -27.0760 C   0  0  0  0  0  0  0  0  0  0  0  0
   -3.3095   24.4299  -26.2271 H   0  0  0  0  0  0  0  0  0  0  0  0
   -4.5902   25.4011  -27.0292 H   0  0  0  0  0  0  0  0  0  0  0  0
   -4.6905   23.6076  -27.0292 H   0  0  0  0  0  0  0  0  0  0  0  0
   -3.8750   23.8660  -30.5620 C   0  0  0  0  0  0  0  0  0  0  0  0
   -4.1280   25.2310  -30.7710 O   0  0  0  0  0  0  0  0  0  0  0  0
   -5.3650   25.8750  -30.4810 C   0  0  0  0  0  0  0  0  0  0  0  0
   -5.4961   25.9433  -29.3910 H   0  0  0  0  0  0  0  0  0  0  0  0
   -5.3623   26.8862  -30.9140 H   0  0  0  0  0  0  0  0  0  0  0  0
   -6.1918   25.2929  -30.9140 H   0  0  0  0  0  0  0  0  0  0  0  0
   -4.0470   22.9120  -31.5830 C   0  0  0  0  0  0  0  0  0  0  0  0
   -4.3615   23.2377  -32.5855 H   0  0  0  0  0  0  0  0  0  0  0  0
   -5.2740   20.1580  -32.8550 N   0  0  0  0  0  0  0  0  0  0  0  0
   -6.5190   20.6220  -32.3010 C   0  0  0  0  0  0  0  0  0  0  0  0
   -7.4280   19.7100  -31.7410 C   0  0  0  0  0  0  0  0  0  0  0  0
   -7.1718   18.6415  -31.6893 H   0  0  0  0  0  0  0  0  0  0  0  0
   -8.6580   20.1570  -31.2490 C   0  0  0  0  0  0  0  0  0  0  0  0
   -9.3674   19.4396  -30.8107 H   0  0  0  0  0  0  0  0  0  0  0  0
   -8.9880   21.5140  -31.3130 C   0  0  0  0  0  0  0  0  0  0  0  0
  -10.1820   21.9450  -30.8390 F   0  0  0  0  0  0  0  0  0  0  0  0
   -8.0860   22.4270  -31.8680 C   0  0  0  0  0  0  0  0  0  0  0  0
   -8.3450   23.4950  -31.9161 H   0  0  0  0  0  0  0  0  0  0  0  0
   -6.8550   21.9840  -32.3620 C   0  0  0  0  0  0  0  0  0  0  0  0
   -6.1481   22.7044  -32.7995 H   0  0  0  0  0  0  0  0  0  0  0  0
  1  2  1  0
  2  3  2  0
  3  4  1  0
  4  5  1  0
  5  6  1  0
  5  7  2  0
  7  8  1  0
  8  9  2  0
  9 10  1  0
  9 11  1  0
 11 12  1  0
 11 13  2  0
 13 14  1  0
 14 15  1  0
 15 16  1  0
 15 17  1  0
 15 18  1  0
 13 19  1  0
 19 20  1  0
 20 21  1  0
 21 22  1  0
 21 23  1  0
 21 24  1  0
 19 25  2  0
 25 26  1  0
  7 27  1  0
 27 28  1  0
 28 29  2  0
 29 30  1  0
 29 31  1  0
 31 32  1  0
 31 33  2  0
 33 34  1  0
 33 35  1  0
 35 36  1  0
 35 37  2  0
 37 38  1  0
 27  3  1  0
 37 28  1  0
 25  8  1  0
M  END
>  <UniqueID>  (37) 
34

>  <SMILES>  (37) 
[H]/N=c1/scc(-c2ccc(OC)c(OC)c2)n1-c1ccc(F)cc1

>  <Energy>  (37) 
81.79223239387072

>  <Genealogy>  (37) 
[H]/N=c1/scc(-c2ccc(OC)c(OC)c2)n1-c1ccc(F)cc1 (cis-trans isomerization)
[H]/N=c1/scc(-c2ccc(OC)c(OC)c2)n1-c1ccc(F)cc1 (3D coordinates assigned)
[H]/N=c1/scc(-c2ccc(OC)c(OC)c2)n1-c1ccc(F)cc1 (optimized conformer: 81.79223239387072 kcal/mol)

>  <smiles>  (37) 
COc1ccc(-c2csc(=N)n2-c2ccc(F)cc2)cc1OC

>  <score_type>  (37) 
oracle

>  <origin>  (37) 
adg

>  <m_score__min__energy>  (37) 
-7.8300000000000001

>  <m_primary>  (37) 
energy

$$$$
37:0
     RDKit          3D

 28 30  0  0  0  0  0  0  0  0999 V2000
   -3.7590   25.2630  -30.7530 N   0  0  0  0  0  0  0  0  0  0  0  0
   -4.9840   24.8630  -30.6220 C   0  0  0  0  0  0  0  0  0  0  0  0
   -5.8690   25.5370  -29.8620 N   0  0  0  0  0  0  0  0  0  0  0  0
   -7.1340   25.1050  -29.7390 C   0  0  0  0  0  0  0  0  0  0  0  0
   -7.5650   23.9920  -30.3660 N   0  0  0  0  0  0  0  0  0  0  0  0
   -6.7510   23.2780  -31.1290 C   0  0  0  0  0  0  0  0  0  0  0  0
   -5.4390   23.7240  -31.2580 C   0  0  0  0  0  0  0  0  0  0  0  0
   -4.8240   22.8380  -32.0770 N   0  0  0  0  0  0  0  0  0  0  0  0
   -5.7060   21.8870  -32.4400 C   0  0  0  0  0  0  0  0  0  0  0  0
   -6.9120   22.1440  -31.8610 N   0  0  0  0  0  0  0  0  0  0  0  0
   -8.1340   21.3860  -31.9790 C   0  0  0  0  0  0  0  0  0  0  0  0
   -7.9620   20.0940  -32.7160 C   0  0  0  0  0  0  0  0  0  0  0  0
   -7.3360   18.9570  -31.9410 C   0  0  0  0  0  0  0  0  0  0  0  0
   -8.7250   18.5630  -31.4980 C   0  0  0  0  0  0  0  0  0  0  0  0
   -9.2620   19.3160  -32.6990 C   0  0  0  0  0  0  0  0  0  0  0  0
   -3.1700   25.0370  -31.5900 H   0  0  0  0  0  0  0  0  0  0  0  0
   -5.5390   26.4070  -29.3690 H   0  0  0  0  0  0  0  0  0  0  0  0
   -7.8362   25.6731  -29.1112 H   0  0  0  0  0  0  0  0  0  0  0  0
   -5.4867   21.0355  -33.1010 H   0  0  0  0  0  0  0  0  0  0  0  0
   -8.5060   21.1641  -30.9679 H   0  0  0  0  0  0  0  0  0  0  0  0
   -8.8421   21.9983  -32.5567 H   0  0  0  0  0  0  0  0  0  0  0  0
   -7.4613   20.4549  -33.6265 H   0  0  0  0  0  0  0  0  0  0  0  0
   -6.8251   18.2072  -32.5629 H   0  0  0  0  0  0  0  0  0  0  0  0
   -6.5300   19.1335  -31.2135 H   0  0  0  0  0  0  0  0  0  0  0  0
   -8.9197   17.4805  -31.5127 H   0  0  0  0  0  0  0  0  0  0  0  0
   -9.0849   18.7728  -30.4799 H   0  0  0  0  0  0  0  0  0  0  0  0
   -9.4351   18.6940  -33.5896 H   0  0  0  0  0  0  0  0  0  0  0  0
  -10.2376   19.8235  -32.6726 H   0  0  0  0  0  0  0  0  0  0  0  0
  1  2  2  3
  2  3  1  0
  3  4  1  0
  4  5  2  0
  5  6  1  0
  6  7  2  0
  7  8  1  0
  8  9  2  0
  9 10  1  0
 10 11  1  0
 11 12  1  0
 12 13  1  0
 13 14  1  0
 14 15  1  0
  7  2  1  0
 15 12  1  0
 10  6  1  0
  1 16  1  0
  3 17  1  0
  4 18  1  0
  9 19  1  0
 11 20  1  0
 11 21  1  0
 12 22  1  0
 13 23  1  0
 13 24  1  0
 14 25  1  0
 14 26  1  0
 15 27  1  0
 15 28  1  0
M  END
>  <smiles>  (38) 
N=c1[nH]cnc2c1ncn2CC1CCC1

>  <score_type>  (38) 
oracle

>  <origin>  (38) 
adg

>  <m_score__min__energy>  (38) 
-6.9400000000000004

>  <m_primary>  (38) 
energy

$$$$
38:0
     RDKit          3D

 36 37  0  0  0  0  0  0  0  0999 V2000
   -0.3036   24.7347  -25.9904 H   0  0  0  0  0  0  0  0  0  0  0  0
   -0.9990   24.7890  -26.8410 C   0  0  0  0  0  0  0  0  0  0  0  0
   -2.1190   24.0220  -26.8610 N   0  0  0  0  0  0  0  0  0  0  0  0
   -2.9850   24.0580  -27.9070 C   0  0  0  0  0  0  0  0  0  0  0  0
   -3.8880   23.4298  -27.9009 H   0  0  0  0  0  0  0  0  0  0  0  0
   -2.7170   24.9080  -29.0020 C   0  0  0  0  0  0  0  0  0  0  0  0
   -3.5030   25.0110  -30.0380 N   0  0  0  0  0  0  0  0  0  0  0  0
   -4.5960   24.1630  -30.4260 C   0  0  0  0  0  0  0  0  0  0  0  0
   -4.6410   23.6360  -31.6150 N   0  0  0  0  0  0  0  0  0  0  0  0
   -5.7550   22.7940  -32.0450 C   0  0  0  0  0  0  0  0  0  0  0  0
   -5.5703   21.7560  -31.7314 H   0  0  0  0  0  0  0  0  0  0  0  0
   -5.8433   22.8404  -33.1405 H   0  0  0  0  0  0  0  0  0  0  0  0
   -7.0070   23.2730  -31.4360 N   0  0  0  0  0  0  0  0  0  0  0  0
   -8.2380   22.6300  -31.9550 C   0  0  0  0  0  0  0  0  0  0  0  0
   -8.0896   22.4347  -33.0273 H   0  0  0  0  0  0  0  0  0  0  0  0
   -9.0556   23.3324  -31.7353 H   0  0  0  0  0  0  0  0  0  0  0  0
   -8.6400   21.2970  -31.2820 C   0  0  0  0  0  0  0  0  0  0  0  0
   -9.6488   21.4061  -30.8572 H   0  0  0  0  0  0  0  0  0  0  0  0
   -7.8955   21.0774  -30.5026 H   0  0  0  0  0  0  0  0  0  0  0  0
   -8.6450   20.1640  -32.2320 N   0  0  0  0  0  0  0  0  0  0  0  0
   -7.4320   20.1650  -33.0700 C   0  0  0  0  0  0  0  0  0  0  0  0
   -6.5408   20.1657  -32.4251 H   0  0  0  0  0  0  0  0  0  0  0  0
   -7.4243   19.2669  -33.7050 H   0  0  0  0  0  0  0  0  0  0  0  0
   -7.4258   21.0632  -33.7050 H   0  0  0  0  0  0  0  0  0  0  0  0
   -8.7360   18.8890  -31.5040 C   0  0  0  0  0  0  0  0  0  0  0  0
   -8.7221   19.0831  -30.4214 H   0  0  0  0  0  0  0  0  0  0  0  0
   -9.6728   18.3792  -31.7731 H   0  0  0  0  0  0  0  0  0  0  0  0
   -7.8811   18.2513  -31.7731 H   0  0  0  0  0  0  0  0  0  0  0  0
   -6.9010   23.2740  -29.9660 C   0  0  0  0  0  0  0  0  0  0  0  0
   -6.7937   22.2403  -29.6055 H   0  0  0  0  0  0  0  0  0  0  0  0
   -7.8082   23.7211  -29.5335 H   0  0  0  0  0  0  0  0  0  0  0  0
   -5.7340   24.0540  -29.5620 N   0  0  0  0  0  0  0  0  0  0  0  0
   -5.7000   24.4730  -28.6050 H   0  0  0  0  0  0  0  0  0  0  0  0
   -1.6030   25.6870  -28.9570 N   0  0  0  0  0  0  0  0  0  0  0  0
   -0.7390   25.6460  -27.9090 C   0  0  0  0  0  0  0  0  0  0  0  0
    0.1575   26.2834  -27.9036 H   0  0  0  0  0  0  0  0  0  0  0  0
  1  2  1  0
  2  3  1  0
  3  4  2  0
  4  5  1  0
  4  6  1  0
  6  7  2  0
  7  8  1  0
  8  9  2  0
  9 10  1  0
 10 11  1  0
 10 12  1  0
 10 13  1  0
 13 14  1  0
 14 15  1  0
 14 16  1  0
 14 17  1  0
 17 18  1  0
 17 19  1  0
 17 20  1  0
 20 21  1  0
 21 22  1  0
 21 23  1  0
 21 24  1  0
 20 25  1  0
 25 26  1  0
 25 27  1  0
 25 28  1  0
 13 29  1  0
 29 30  1  0
 29 31  1  0
 29 32  1  0
 32 33  1  0
  6 34  1  0
 34 35  1  0
 35 36  1  0
 35  2  2  0
 32  8  1  0
M  CHG  1  34  -1
M  END
>  <UniqueID>  (39) 
35

>  <SMILES>  (39) 
CN(C)CCN1CN=C(/N=c2\cncc[n-]2)NC1

>  <Energy>  (39) 
50.93549152665848

>  <Genealogy>  (39) 
CN(C)CCN1CN=C(N=c2cncc[n-]2)NC1 (protonated)
CN(C)CCN1CN=C(/N=c2\cncc[n-]2)NC1 (cis-trans isomerization)
CN(C)CCN1CN=C(/N=c2\cncc[n-]2)NC1 (3D coordinates assigned)
CN(C)CCN1CN=C(/N=c2\cncc[n-]2)NC1 (nonaromatic ring conformer: 50.93549152665848 kcal/mol)

>  <smiles>  (39) 
CN(C)CCN1CN=C(N=c2cncc[nH]2)NC1

>  <score_type>  (39) 
oracle

>  <origin>  (39) 
adg

>  <m_score__min__energy>  (39) 
-8.2799999999999994

>  <m_primary>  (39) 
energy

$$$$
39:0
     RDKit          3D

 50 53  0  0  0  0  0  0  0  0999 V2000
   -2.1120   24.3300  -28.4760 C   0  0  0  0  0  0  0  0  0  0  0  0
   -1.8490   22.8380  -28.6600 C   0  0  0  0  0  0  0  0  0  0  0  0
   -2.0980   22.4420  -30.0090 O   0  0  0  0  0  0  0  0  0  0  0  0
   -3.3550   22.1200  -30.5500 C   0  0  0  0  0  0  0  0  0  0  0  0
   -3.4250   21.0570  -31.4500 C   0  0  0  0  0  0  0  0  0  0  0  0
   -4.6430   20.6720  -32.0100 C   0  0  0  0  0  0  0  0  0  0  0  0
   -5.8430   21.3200  -31.6540 C   0  0  0  0  0  0  0  0  0  0  0  0
   -5.7610   22.4710  -30.8080 C   0  0  0  0  0  0  0  0  0  0  0  0
   -4.5270   22.8240  -30.2280 C   0  0  0  0  0  0  0  0  0  0  0  0
   -7.0450   23.2570  -30.5390 C   0  0  2  0  0  0  0  0  0  0  0  0
   -6.8650   24.6770  -29.9710 C   0  0  0  0  0  0  0  0  0  0  0  0
   -7.8940   22.4020  -29.6480 C   0  0  0  0  0  0  0  0  0  0  0  0
   -8.5960   21.5530  -30.3900 C   0  0  0  0  0  0  0  0  0  0  0  0
   -8.2800   21.7640  -31.8510 C   0  0  1  0  0  0  0  0  0  0  0  0
   -7.8980   23.2510  -31.8210 C   0  0  2  0  0  0  0  0  0  0  0  0
   -7.2320   23.8030  -33.0950 C   0  0  0  0  0  0  0  0  0  0  0  0
   -7.1170   20.9170  -32.2790 N   0  0  2  0  0  0  0  0  0  0  0  0
   -7.3860   19.4680  -32.0590 C   0  0  0  0  0  0  0  0  0  0  0  0
   -6.5870   18.5830  -32.9900 C   0  0  0  0  0  0  0  0  0  0  0  0
   -6.2910   17.2580  -32.6240 C   0  0  0  0  0  0  0  0  0  0  0  0
   -5.5390   16.4430  -33.4760 C   0  0  0  0  0  0  0  0  0  0  0  0
   -5.0810   16.9400  -34.6980 C   0  0  0  0  0  0  0  0  0  0  0  0
   -5.3770   18.2540  -35.0730 C   0  0  0  0  0  0  0  0  0  0  0  0
   -6.1280   19.0720  -34.2250 C   0  0  0  0  0  0  0  0  0  0  0  0
   -2.1535   24.5653  -27.4023 H   0  0  0  0  0  0  0  0  0  0  0  0
   -1.3015   24.9060  -28.9466 H   0  0  0  0  0  0  0  0  0  0  0  0
   -3.0705   24.5941  -28.9466 H   0  0  0  0  0  0  0  0  0  0  0  0
   -0.7999   22.6230  -28.4088 H   0  0  0  0  0  0  0  0  0  0  0  0
   -2.5240   22.2766  -27.9973 H   0  0  0  0  0  0  0  0  0  0  0  0
   -2.5073   20.5149  -31.7219 H   0  0  0  0  0  0  0  0  0  0  0  0
   -4.6675   19.8501  -32.7407 H   0  0  0  0  0  0  0  0  0  0  0  0
   -4.4806   23.6603  -29.5149 H   0  0  0  0  0  0  0  0  0  0  0  0
   -6.8702   24.6356  -28.8718 H   0  0  0  0  0  0  0  0  0  0  0  0
   -5.9071   25.0919  -30.3177 H   0  0  0  0  0  0  0  0  0  0  0  0
   -7.6891   25.3178  -30.3177 H   0  0  0  0  0  0  0  0  0  0  0  0
   -7.9302   22.4673  -28.5505 H   0  0  0  0  0  0  0  0  0  0  0  0
   -9.3028   20.8068  -29.9981 H   0  0  0  0  0  0  0  0  0  0  0  0
   -9.0889   21.5014  -32.5486 H   0  0  0  0  0  0  0  0  0  0  0  0
   -8.7479   23.9492  -31.8045 H   0  0  0  0  0  0  0  0  0  0  0  0
   -6.4128   24.4820  -32.8158 H   0  0  0  0  0  0  0  0  0  0  0  0
   -6.8306   22.9692  -33.6896 H   0  0  0  0  0  0  0  0  0  0  0  0
   -7.9769   24.3522  -33.6896 H   0  0  0  0  0  0  0  0  0  0  0  0
   -6.9970   21.0570  -33.3110 H   0  0  0  0  0  0  0  0  0  0  0  0
   -7.1253   19.2144  -31.0209 H   0  0  0  0  0  0  0  0  0  0  0  0
   -8.4524   19.2912  -32.2627 H   0  0  0  0  0  0  0  0  0  0  0  0
   -6.6523   16.8610  -31.6639 H   0  0  0  0  0  0  0  0  0  0  0  0
   -5.3078   15.4083  -33.1830 H   0  0  0  0  0  0  0  0  0  0  0  0
   -4.4875   16.2979  -35.3654 H   0  0  0  0  0  0  0  0  0  0  0  0
   -5.0182   18.6443  -36.0368 H   0  0  0  0  0  0  0  0  0  0  0  0
   -6.3612   20.1041  -34.5256 H   0  0  0  0  0  0  0  0  0  0  0  0
  1  2  1  0
  2  3  1  0
  3  4  1  0
  4  5  2  0
  5  6  1  0
  6  7  2  0
  7  8  1  0
  8  9  2  0
  8 10  1  0
 10 11  1  1
 10 12  1  0
 12 13  2  0
 13 14  1  0
 14 15  1  0
 15 16  1  0
 14 17  1  0
 17 18  1  0
 18 19  1  0
 19 20  2  0
 20 21  1  0
 21 22  2  0
 22 23  1  0
 23 24  2  0
  9  4  1  0
 15 10  1  0
 24 19  1  0
 17  7  1  0
  1 25  1  0
  1 26  1  0
  1 27  1  0
  2 28  1  0
  2 29  1  0
  5 30  1  0
  6 31  1  0
  9 32  1  0
 11 33  1  0
 11 34  1  0
 11 35  1  0
 12 36  1  0
 13 37  1  0
 14 38  1  6
 15 39  1  1
 16 40  1  0
 16 41  1  0
 16 42  1  0
 17 43  1  6
 18 44  1  0
 18 45  1  0
 20 46  1  0
 21 47  1  0
 22 48  1  0
 23 49  1  0
 24 50  1  0
M  CHG  1  17   1
M  END
>  <UniqueID>  (40) 
36

>  <SMILES>  (40) 
CCOc1ccc2c(c1)[C@]1(C)C=C[C@@H](C1C)[NH+]2Cc1ccccc1

>  <Energy>  (40) 
85.92389394991211

>  <Genealogy>  (40) 
CCOc1ccc2c(c1)C1(C)C=CC(C1C)[NH+]2Cc1ccccc1 (protonated)
CCOc1ccc2c(c1)[C@]1(C)C=C[C@@H](C1C)[NH+]2Cc1ccccc1 (chirality)
CCOc1ccc2c(c1)[C@]1(C)C=C[C@@H](C1C)[NH+]2Cc1ccccc1 (3D coordinates assigned)
CCOc1ccc2c(c1)[C@]1(C)C=C[C@@H](C1C)[NH+]2Cc1ccccc1 (nonaromatic ring conformer: 85.92389394991211 kcal/mol)

>  <smiles>  (40) 
CCOc1ccc2c(c1)C1(C)C=CC(C1C)N2Cc1ccccc1

>  <score_type>  (40) 
oracle

>  <origin>  (40) 
adg

>  <m_score__min__energy>  (40) 
-6.8799999999999999

>  <m_primary>  (40) 
energy

$$$$
40:0
     RDKit          3D

 39 41  0  0  0  0  0  0  0  0999 V2000
   -4.6650   19.6910  -33.5530 C   0  0  0  0  0  0  0  0  0  0  0  0
   -5.0260   18.2480  -33.7940 C   0  0  0  0  0  0  0  0  0  0  0  0
   -4.1200   17.4430  -34.5070 C   0  0  0  0  0  0  0  0  0  0  0  0
   -4.3840   16.0880  -34.7160 C   0  0  0  0  0  0  0  0  0  0  0  0
   -5.5550   15.5200  -34.2190 C   0  0  0  0  0  0  0  0  0  0  0  0
   -6.4750   16.3070  -33.5260 C   0  0  0  0  0  0  0  0  0  0  0  0
   -6.2390   17.6790  -33.3270 C   0  0  0  0  0  0  0  0  0  0  0  0
   -7.2830   18.4630  -32.6330 C   0  0  0  0  0  0  0  0  0  0  0  0
   -7.8310   19.6000  -33.1060 N   0  0  0  0  0  0  0  0  0  0  0  0
   -8.7840   19.9100  -32.2090 C   0  0  0  0  0  0  0  0  0  0  0  0
   -9.7440   21.0520  -32.3450 C   0  0  0  0  0  0  0  0  0  0  0  0
   -9.1950   22.2800  -31.7480 N   0  0  0  0  0  0  0  0  0  0  0  0
   -8.2500   22.0050  -30.6510 C   0  0  0  0  0  0  0  0  0  0  0  0
   -6.9870   22.8080  -30.8210 C   0  0  0  0  0  0  0  0  0  0  0  0
   -6.8980   24.1180  -30.3220 C   0  0  0  0  0  0  0  0  0  0  0  0
   -5.7330   24.8570  -30.5370 C   0  0  0  0  0  0  0  0  0  0  0  0
   -4.6910   24.3090  -31.2180 N   0  0  0  0  0  0  0  0  0  0  0  0
   -4.7460   23.0400  -31.7030 C   0  0  0  0  0  0  0  0  0  0  0  0
   -5.8920   22.2650  -31.5100 C   0  0  0  0  0  0  0  0  0  0  0  0
   -8.7730   18.9630  -31.2080 C   0  0  0  0  0  0  0  0  0  0  0  0
   -7.8420   18.0840  -31.5030 O   0  0  0  0  0  0  0  0  0  0  0  0
   -4.6174   19.8812  -32.4706 H   0  0  0  0  0  0  0  0  0  0  0  0
   -3.6857   19.9046  -34.0062 H   0  0  0  0  0  0  0  0  0  0  0  0
   -5.4283   20.3406  -34.0062 H   0  0  0  0  0  0  0  0  0  0  0  0
   -3.1943   17.8851  -34.9040 H   0  0  0  0  0  0  0  0  0  0  0  0
   -3.6665   15.4682  -35.2737 H   0  0  0  0  0  0  0  0  0  0  0  0
   -5.7545   14.4493  -34.3733 H   0  0  0  0  0  0  0  0  0  0  0  0
   -7.3943   15.8498  -33.1312 H   0  0  0  0  0  0  0  0  0  0  0  0
   -7.6350   20.0860  -34.0080 H   0  0  0  0  0  0  0  0  0  0  0  0
   -9.9426   21.2292  -33.4123 H   0  0  0  0  0  0  0  0  0  0  0  0
  -10.6731   20.7920  -31.8167 H   0  0  0  0  0  0  0  0  0  0  0  0
   -8.6610   22.7740  -32.5020 H   0  0  0  0  0  0  0  0  0  0  0  0
   -8.7211   22.2717  -29.6934 H   0  0  0  0  0  0  0  0  0  0  0  0
   -7.9932   20.9355  -30.6658 H   0  0  0  0  0  0  0  0  0  0  0  0
   -7.7392   24.5581  -29.7664 H   0  0  0  0  0  0  0  0  0  0  0  0
   -5.6577   25.8856  -30.1544 H   0  0  0  0  0  0  0  0  0  0  0  0
   -3.8865   22.6229  -32.2483 H   0  0  0  0  0  0  0  0  0  0  0  0
   -5.9357   21.2357  -31.8957 H   0  0  0  0  0  0  0  0  0  0  0  0
   -9.4254   18.9460  -30.3225 H   0  0  0  0  0  0  0  0  0  0  0  0
  1  2  1  0
  2  3  2  0
  3  4  1  0
  4  5  2  0
  5  6  1  0
  6  7  2  0
  7  8  1  0
  8  9  2  0
  9 10  1  0
 10 11  1  0
 11 12  1  0
 12 13  1  0
 13 14  1  0
 14 15  2  0
 15 16  1  0
 16 17  2  0
 17 18  1  0
 18 19  2  0
 10 20  2  0
 20 21  1  0
  7  2  1  0
 21  8  1  0
 19 14  1  0
  1 22  1  0
  1 23  1  0
  1 24  1  0
  3 25  1  0
  4 26  1  0
  5 27  1  0
  6 28  1  0
  9 29  1  0
 11 30  1  0
 11 31  1  0
 12 32  1  0
 13 33  1  0
 13 34  1  0
 15 35  1  0
 16 36  1  0
 18 37  1  0
 19 38  1  0
 20 39  1  0
M  CHG  1   9   1
M  END
>  <UniqueID>  (41) 
37

>  <SMILES>  (41) 
Cc1ccccc1-c1[nH+]c(CNCc2ccncc2)co1

>  <Energy>  (41) 
73.89256555070388

>  <Genealogy>  (41) 
Cc1ccccc1-c1[nH+]c(CNCc2ccncc2)co1 (protonated)
Cc1ccccc1-c1[nH+]c(CNCc2ccncc2)co1 (3D coordinates assigned)
Cc1ccccc1-c1[nH+]c(CNCc2ccncc2)co1 (optimized conformer: 73.89256555070388 kcal/mol)

>  <smiles>  (41) 
Cc1ccccc1-c1nc(CNCc2ccncc2)co1

>  <score_type>  (41) 
oracle

>  <origin>  (41) 
adg

>  <m_score__min__energy>  (41) 
-7.2800000000000002

>  <m_primary>  (41) 
energy

$$$$
41:0
     RDKit          3D

 36 38  0  0  0  0  0  0  0  0999 V2000
   -6.4410   25.5910  -29.3110 C   0  0  0  0  0  0  0  0  0  0  0  0
   -5.5320   26.0060  -30.4630 C   0  0  0  0  0  0  0  0  0  0  0  0
   -4.4720   25.0670  -30.6330 O   0  0  0  0  0  0  0  0  0  0  0  0
   -4.6490   23.7900  -31.1770 C   0  0  0  0  0  0  0  0  0  0  0  0
   -5.9370   23.2680  -31.2960 C   0  0  0  0  0  0  0  0  0  0  0  0
   -6.1010   21.9840  -31.8450 C   0  0  0  0  0  0  0  0  0  0  0  0
   -7.4370   21.3570  -32.0070 C   0  0  0  0  0  0  0  0  0  0  0  0
   -8.6670   21.9850  -31.7210 C   0  0  0  0  0  0  0  0  0  0  0  0
   -9.7740   21.1810  -31.9520 C   0  0  0  0  0  0  0  0  0  0  0  0
   -9.2350   19.6910  -32.5040 S   0  0  0  0  0  0  0  0  0  0  0  0
   -7.5950   20.0470  -32.4600 C   0  0  0  0  0  0  0  0  0  0  0  0
   -4.9970   21.2970  -32.2470 N   0  0  0  0  0  0  0  0  0  0  0  0
   -3.7460   21.8170  -32.1270 C   0  0  0  0  0  0  0  0  0  0  0  0
   -2.6060   21.0620  -32.5590 N   0  0  0  0  0  0  0  0  0  0  0  0
   -2.6630   20.0500  -33.5980 C   0  0  0  0  0  0  0  0  0  0  0  0
   -1.2180   19.6330  -33.8410 C   0  0  0  0  0  0  0  0  0  0  0  0
   -0.4250   20.1380  -32.6370 C   0  0  0  0  0  0  0  0  0  0  0  0
   -1.2740   21.2340  -32.0060 C   0  0  0  0  0  0  0  0  0  0  0  0
   -3.5830   23.0570  -31.5960 N   0  0  0  0  0  0  0  0  0  0  0  0
   -5.9469   25.8166  -28.3545 H   0  0  0  0  0  0  0  0  0  0  0  0
   -7.3889   26.1456  -29.3738 H   0  0  0  0  0  0  0  0  0  0  0  0
   -6.6429   24.5115  -29.3738 H   0  0  0  0  0  0  0  0  0  0  0  0
   -6.1229   26.0549  -31.3895 H   0  0  0  0  0  0  0  0  0  0  0  0
   -5.0985   26.9907  -30.2340 H   0  0  0  0  0  0  0  0  0  0  0  0
   -6.8095   23.8509  -30.9660 H   0  0  0  0  0  0  0  0  0  0  0  0
   -8.7419   23.0175  -31.3489 H   0  0  0  0  0  0  0  0  0  0  0  0
  -10.8242   21.4706  -31.7995 H   0  0  0  0  0  0  0  0  0  0  0  0
   -6.7814   19.3622  -32.7412 H   0  0  0  0  0  0  0  0  0  0  0  0
   -3.2604   19.1890  -33.2635 H   0  0  0  0  0  0  0  0  0  0  0  0
   -3.1366   20.4325  -34.5142 H   0  0  0  0  0  0  0  0  0  0  0  0
   -1.1437   18.5380  -33.9154 H   0  0  0  0  0  0  0  0  0  0  0  0
   -0.8311   20.0512  -34.7820 H   0  0  0  0  0  0  0  0  0  0  0  0
   -0.2591   19.3216  -31.9187 H   0  0  0  0  0  0  0  0  0  0  0  0
    0.5642   20.5155  -32.9352 H   0  0  0  0  0  0  0  0  0  0  0  0
   -1.2948   21.1219  -30.9119 H   0  0  0  0  0  0  0  0  0  0  0  0
   -0.8707   22.2351  -32.2186 H   0  0  0  0  0  0  0  0  0  0  0  0
  1  2  1  0
  2  3  1  0
  3  4  1  0
  4  5  2  0
  5  6  1  0
  6  7  1  0
  7  8  1  0
  8  9  2  0
  9 10  1  0
 10 11  1  0
  6 12  2  0
 12 13  1  0
 13 14  1  0
 14 15  1  0
 15 16  1  0
 16 17  1  0
 17 18  1  0
 13 19  2  0
 19  4  1  0
 11  7  2  0
 18 14  1  0
  1 20  1  0
  1 21  1  0
  1 22  1  0
  2 23  1  0
  2 24  1  0
  5 25  1  0
  8 26  1  0
  9 27  1  0
 11 28  1  0
 15 29  1  0
 15 30  1  0
 16 31  1  0
 16 32  1  0
 17 33  1  0
 17 34  1  0
 18 35  1  0
 18 36  1  0
M  END
>  <UniqueID>  (42) 
38

>  <SMILES>  (42) 
CCOc1cc(-c2ccsc2)nc(N2CCCC2)n1

>  <Energy>  (42) 
59.32563150554991

>  <Genealogy>  (42) 
CCOc1cc(-c2ccsc2)nc(N2CCCC2)n1 (3D coordinates assigned)
CCOc1cc(-c2ccsc2)nc(N2CCCC2)n1 (nonaromatic ring conformer: 59.32563150554991 kcal/mol)

>  <smiles>  (42) 
CCOc1cc(-c2ccsc2)nc(N2CCCC2)n1

>  <score_type>  (42) 
oracle

>  <origin>  (42) 
adg

>  <m_score__min__energy>  (42) 
-7

>  <m_primary>  (42) 
energy

$$$$
42:0
     RDKit          3D

 49 51  0  0  0  0  0  0  0  0999 V2000
   -1.6570   25.6700  -29.0960 N   0  0  0  0  0  0  0  0  0  0  0  0
   -2.2720   24.3900  -28.9670 C   0  0  0  0  0  0  0  0  0  0  0  0
   -1.6420   23.4610  -28.3930 O   0  0  0  0  0  0  0  0  0  0  0  0
   -3.6330   24.1510  -29.5010 C   0  0  0  0  0  0  0  0  0  0  0  0
   -4.1860   25.0180  -30.4620 C   0  0  0  0  0  0  0  0  0  0  0  0
   -5.4700   24.7920  -30.9670 C   0  0  0  0  0  0  0  0  0  0  0  0
   -6.2260   23.6980  -30.5200 C   0  0  0  0  0  0  0  0  0  0  0  0
   -7.5940   23.4280  -31.0940 C   0  0  0  0  0  0  0  0  0  0  0  0
   -7.5340   22.4780  -32.2970 C   0  0  0  0  0  0  0  0  0  0  0  0
   -7.3480   21.0080  -31.8710 C   0  0  0  0  0  0  0  0  0  0  0  0
   -6.5500   20.1880  -32.9220 C   0  0  1  0  0  0  0  0  0  0  0  0
   -5.0410   20.3760  -32.9180 C   0  0  0  0  0  0  0  0  0  0  0  0
   -4.3470   21.2920  -32.1020 C   0  0  0  0  0  0  0  0  0  0  0  0
   -2.9560   21.3930  -32.1830 C   0  0  0  0  0  0  0  0  0  0  0  0
   -2.2420   20.5840  -33.0710 C   0  0  0  0  0  0  0  0  0  0  0  0
   -2.9150   19.6630  -33.8740 C   0  0  0  0  0  0  0  0  0  0  0  0
   -4.3100   19.5440  -33.7910 C   0  0  0  0  0  0  0  0  0  0  0  0
   -5.0580   18.5500  -34.6460 C   0  0  0  0  0  0  0  0  0  0  0  0
   -6.1520   17.8350  -33.8260 C   0  0  0  0  0  0  0  0  0  0  0  0
   -6.8160   18.7330  -32.8600 N   0  0  0  0  0  0  0  0  0  0  0  0
   -7.4760   18.1130  -31.7410 C   0  0  0  0  0  0  0  0  0  0  0  0
   -8.8970   18.2080  -31.6100 N   0  0  0  0  0  0  0  0  0  0  0  0
   -6.7770   17.5090  -30.8300 N   0  0  0  0  0  0  0  0  0  0  0  0
   -5.6760   22.8260  -29.5680 C   0  0  0  0  0  0  0  0  0  0  0  0
   -4.3930   23.0520  -29.0600 C   0  0  0  0  0  0  0  0  0  0  0  0
   -1.2350   25.9750  -30.0020 H   0  0  0  0  0  0  0  0  0  0  0  0
   -3.6034   25.8802  -30.8186 H   0  0  0  0  0  0  0  0  0  0  0  0
   -5.8899   25.4760  -31.7192 H   0  0  0  0  0  0  0  0  0  0  0  0
   -8.2234   22.9745  -30.3141 H   0  0  0  0  0  0  0  0  0  0  0  0
   -8.0140   24.3851  -31.4369 H   0  0  0  0  0  0  0  0  0  0  0  0
   -8.4720   22.5661  -32.8648 H   0  0  0  0  0  0  0  0  0  0  0  0
   -6.6662   22.7639  -32.9095 H   0  0  0  0  0  0  0  0  0  0  0  0
   -6.8045   20.9824  -30.9150 H   0  0  0  0  0  0  0  0  0  0  0  0
   -8.3461   20.5552  -31.7769 H   0  0  0  0  0  0  0  0  0  0  0  0
   -6.9379   20.6179  -33.8573 H   0  0  0  0  0  0  0  0  0  0  0  0
   -4.9027   21.9297  -31.3988 H   0  0  0  0  0  0  0  0  0  0  0  0
   -2.4208   22.1120  -31.5454 H   0  0  0  0  0  0  0  0  0  0  0  0
   -1.1476   20.6736  -33.1369 H   0  0  0  0  0  0  0  0  0  0  0  0
   -2.3506   19.0289  -34.5736 H   0  0  0  0  0  0  0  0  0  0  0  0
   -5.5271   19.0799  -35.4881 H   0  0  0  0  0  0  0  0  0  0  0  0
   -4.3462   17.7972  -35.0156 H   0  0  0  0  0  0  0  0  0  0  0  0
   -6.9100   17.4403  -34.5186 H   0  0  0  0  0  0  0  0  0  0  0  0
   -5.6670   17.0304  -33.2538 H   0  0  0  0  0  0  0  0  0  0  0  0
   -9.3960   17.7420  -30.8200 H   0  0  0  0  0  0  0  0  0  0  0  0
   -9.4510   18.7790  -32.2860 H   0  0  0  0  0  0  0  0  0  0  0  0
   -6.7920   16.4690  -30.7440 H   0  0  0  0  0  0  0  0  0  0  0  0
   -6.1810   18.0540  -30.1680 H   0  0  0  0  0  0  0  0  0  0  0  0
   -6.2575   21.9598  -29.2194 H   0  0  0  0  0  0  0  0  0  0  0  0
   -3.9745   22.3651  -28.3096 H   0  0  0  0  0  0  0  0  0  0  0  0
  1  2  1  0
  2  3  2  0
  2  4  1  0
  4  5  2  0
  5  6  1  0
  6  7  2  0
  7  8  1  0
  8  9  1  0
  9 10  1  0
 10 11  1  0
 11 12  1  0
 12 13  2  0
 13 14  1  0
 14 15  2  0
 15 16  1  0
 16 17  2  0
 17 18  1  0
 18 19  1  0
 19 20  1  0
 20 21  1  0
 21 22  1  0
 21 23  2  0
  7 24  1  0
 24 25  2  0
 25  4  1  0
 20 11  1  0
 17 12  1  0
  1 26  1  0
  5 27  1  0
  6 28  1  0
  8 29  1  0
  8 30  1  0
  9 31  1  0
  9 32  1  0
 10 33  1  0
 10 34  1  0
 11 35  1  6
 13 36  1  0
 14 37  1  0
 15 38  1  0
 16 39  1  0
 18 40  1  0
 18 41  1  0
 19 42  1  0
 19 43  1  0
 22 44  1  0
 22 45  1  0
 23 46  1  0
 23 47  1  0
 24 48  1  0
 25 49  1  0
M  CHG  2   1  -1  23   1
M  END
>  <UniqueID>  (43) 
39

>  <SMILES>  (43) 
[NH-]C(=O)c1ccc(CCC[C@H]2c3ccccc3CCN2C(N)=[NH2+])cc1

>  <Energy>  (43) 
59.92906966434694

>  <Genealogy>  (43) 
[NH-]C(=O)c1ccc(CCCC2c3ccccc3CCN2C(N)=[NH2+])cc1 (protonated)
[NH-]C(=O)c1ccc(CCC[C@H]2c3ccccc3CCN2C(N)=[NH2+])cc1 (chirality)
[NH-]C(=O)c1ccc(CCC[C@H]2c3ccccc3CCN2C(N)=[NH2+])cc1 (3D coordinates assigned)
[NH-]C(=O)c1ccc(CCC[C@H]2c3ccccc3CCN2C(N)=[NH2+])cc1 (nonaromatic ring conformer: 59.92906966434694 kcal/mol)

>  <smiles>  (43) 
N=C(N)N1CCc2ccccc2C1CCCc1ccc(C(N)=O)cc1

>  <score_type>  (43) 
oracle

>  <origin>  (43) 
adg

>  <m_score__min__energy>  (43) 
-10.75

>  <m_primary>  (43) 
energy

$$$$
43:0
     RDKit          3D

 30 31  0  0  0  0  0  0  0  0999 V2000
   -1.6470   23.7370  -30.6080 H   0  0  0  0  0  0  0  0  0  0  0  0
   -1.4800   22.7140  -30.4850 N   0  0  0  0  0  0  0  0  0  0  0  0
   -1.3980   22.1820  -29.3090 C   0  0  0  0  0  0  0  0  0  0  0  0
   -0.3790   20.9050  -28.9140 S   0  0  0  0  0  0  0  0  0  0  0  0
   -0.8940   20.8590  -27.3100 C   0  0  0  0  0  0  0  0  0  0  0  0
   -0.5325   20.1646  -26.5373 H   0  0  0  0  0  0  0  0  0  0  0  0
   -1.8550   21.8500  -27.1300 C   0  0  0  0  0  0  0  0  0  0  0  0
   -2.3539   22.0233  -26.1651 H   0  0  0  0  0  0  0  0  0  0  0  0
   -2.1300   22.5890  -28.2420 N   0  0  0  0  0  0  0  0  0  0  0  0
   -3.1380   23.6550  -28.2700 C   0  0  0  0  0  0  0  0  0  0  0  0
   -4.1076   23.2255  -28.5622 H   0  0  0  0  0  0  0  0  0  0  0  0
   -3.2013   24.1036  -27.2676 H   0  0  0  0  0  0  0  0  0  0  0  0
   -2.7590   24.7320  -29.2550 C   0  0  0  0  0  0  0  0  0  0  0  0
   -1.6720   25.3530  -29.1020 O   0  0  0  0  0  0  0  0  0  0  0  0
   -3.5080   24.9470  -30.4570 N   0  0  0  0  0  0  0  0  0  0  0  0
   -4.7190   24.2770  -30.8270 C   0  0  0  0  0  0  0  0  0  0  0  0
   -5.9480   24.8080  -30.4130 C   0  0  0  0  0  0  0  0  0  0  0  0
   -5.9731   25.7435  -29.8348 H   0  0  0  0  0  0  0  0  0  0  0  0
   -7.1420   24.1550  -30.7310 C   0  0  0  0  0  0  0  0  0  0  0  0
   -8.1042   24.5857  -30.4168 H   0  0  0  0  0  0  0  0  0  0  0  0
   -7.1150   22.9550  -31.4480 C   0  0  0  0  0  0  0  0  0  0  0  0
   -8.0561   22.4487  -31.7087 H   0  0  0  0  0  0  0  0  0  0  0  0
   -5.8900   22.3980  -31.8340 C   0  0  0  0  0  0  0  0  0  0  0  0
   -5.8510   20.8470  -32.7340 S   0  0  0  0  0  0  0  0  0  0  0  0
   -7.5990   20.4680  -32.3980 C   0  0  0  0  0  0  0  0  0  0  0  0
   -7.7640   20.4322  -31.3110 H   0  0  0  0  0  0  0  0  0  0  0  0
   -8.2351   21.2491  -32.8399 H   0  0  0  0  0  0  0  0  0  0  0  0
   -7.8544   19.4936  -32.8399 H   0  0  0  0  0  0  0  0  0  0  0  0
   -4.6950   23.0540  -31.5160 C   0  0  0  0  0  0  0  0  0  0  0  0
   -3.7322   22.6090  -31.8075 H   0  0  0  0  0  0  0  0  0  0  0  0
  1  2  1  0
  2  3  2  0
  3  4  1  0
  4  5  1  0
  5  6  1  0
  5  7  2  0
  7  8  1  0
  7  9  1  0
  9 10  1  0
 10 11  1  0
 10 12  1  0
 10 13  1  0
 13 14  2  0
 13 15  1  0
 15 16  1  0
 16 17  2  0
 17 18  1  0
 17 19  1  0
 19 20  1  0
 19 21  2  0
 21 22  1  0
 21 23  1  0
 23 24  1  0
 24 25  1  0
 25 26  1  0
 25 27  1  0
 25 28  1  0
 23 29  2  0
 29 30  1  0
  9  3  1  0
 29 16  1  0
M  CHG  1  15  -1
M  END
>  <UniqueID>  (44) 
40

>  <SMILES>  (44) 
[H]/N=c1\sccn1CC(=O)[N-]c1cccc(SC)c1

>  <Energy>  (44) 
61.3521579178649

>  <Genealogy>  (44) 
CSc1cccc([N-]C(=O)Cn2ccsc2=N)c1 (protonated)
[H]/N=c1\sccn1CC(=O)[N-]c1cccc(SC)c1 (cis-trans isomerization)
[H]/N=c1\sccn1CC(=O)[N-]c1cccc(SC)c1 (3D coordinates assigned)
[H]/N=c1\sccn1CC(=O)[N-]c1cccc(SC)c1 (optimized conformer: 61.3521579178649 kcal/mol)

>  <smiles>  (44) 
CSc1cccc(NC(=O)Cn2ccsc2=N)c1

>  <score_type>  (44) 
oracle

>  <origin>  (44) 
adg

>  <m_score__min__energy>  (44) 
-8.1799999999999997

>  <m_primary>  (44) 
energy

$$$$
44:0
     RDKit          3D

 81 84  0  0  0  0  0  0  0  0999 V2000
    0.9090   17.4280  -32.6230 C   0  0  0  0  0  0  0  0  0  0  0  0
    1.3210   18.4510  -31.6430 N   0  0  0  0  0  0  0  0  0  0  0  0
    0.1630   18.8220  -30.8090 C   0  0  0  0  0  0  0  0  0  0  0  0
    1.8560   19.6520  -32.3180 C   0  0  0  0  0  0  0  0  0  0  0  0
    2.2960   19.3480  -33.7690 C   0  0  0  0  0  0  0  0  0  0  0  0
    2.7930   20.5960  -34.5060 C   0  0  0  0  0  0  0  0  0  0  0  0
    1.7750   21.0580  -35.4480 N   0  0  0  0  0  0  0  0  0  0  0  0
    0.5140   21.6280  -35.0740 C   0  0  0  0  0  0  0  0  0  0  0  0
    0.2890   22.8330  -35.3620 O   0  0  0  0  0  0  0  0  0  0  0  0
   -0.5100   20.8630  -34.3290 C   0  0  0  0  0  0  0  0  0  0  0  0
   -1.2260   21.4570  -33.2750 C   0  0  0  0  0  0  0  0  0  0  0  0
   -2.2270   20.7450  -32.6100 C   0  0  0  0  0  0  0  0  0  0  0  0
   -2.5490   19.4470  -33.0120 C   0  0  0  0  0  0  0  0  0  0  0  0
   -1.8660   18.8490  -34.0820 C   0  0  0  0  0  0  0  0  0  0  0  0
   -2.2960   17.4990  -34.5910 C   0  0  0  0  0  0  0  0  0  0  0  0
   -3.6830   17.1460  -34.0320 C   0  0  0  0  0  0  0  0  0  0  0  0
   -4.7150   18.0810  -34.4990 N   0  0  0  0  0  0  0  0  0  0  0  0
   -5.7880   18.5790  -33.6780 C   0  0  0  0  0  0  0  0  0  0  0  0
   -5.7500   19.9230  -33.2780 C   0  0  0  0  0  0  0  0  0  0  0  0
   -6.7920   20.4890  -32.5240 C   0  0  0  0  0  0  0  0  0  0  0  0
   -6.7090   21.8550  -32.0570 N   0  0  0  0  0  0  0  0  0  0  0  0
   -7.8160   22.4570  -31.3020 C   0  0  0  0  0  0  0  0  0  0  0  0
   -7.2380   23.2940  -30.1560 C   0  0  0  0  0  0  0  0  0  0  0  0
   -6.3220   24.3610  -30.6280 N   0  0  0  0  0  0  0  0  0  0  0  0
   -5.2740   24.6740  -29.6310 C   0  0  0  0  0  0  0  0  0  0  0  0
   -4.7730   23.3860  -28.9670 C   0  0  0  0  0  0  0  0  0  0  0  0
   -3.2990   23.2050  -29.1990 C   0  0  0  0  0  0  0  0  0  0  0  0
   -2.7600   21.9250  -29.4010 C   0  0  0  0  0  0  0  0  0  0  0  0
   -1.3790   21.7770  -29.5510 C   0  0  0  0  0  0  0  0  0  0  0  0
   -0.5520   22.8990  -29.4940 C   0  0  0  0  0  0  0  0  0  0  0  0
   -1.1200   24.1590  -29.2860 C   0  0  0  0  0  0  0  0  0  0  0  0
   -2.4680   24.2820  -29.1380 N   0  0  0  0  0  0  0  0  0  0  0  0
   -5.7600   24.1410  -31.9860 C   0  0  0  0  0  0  0  0  0  0  0  0
   -5.4980   22.6560  -32.2850 C   0  0  0  0  0  0  0  0  0  0  0  0
   -7.9070   19.6940  -32.2120 C   0  0  0  0  0  0  0  0  0  0  0  0
   -7.9460   18.3480  -32.5820 C   0  0  0  0  0  0  0  0  0  0  0  0
   -6.8730   17.7680  -33.2740 C   0  0  0  0  0  0  0  0  0  0  0  0
   -6.8700   16.3520  -33.4730 N   0  0  0  0  0  0  0  0  0  0  0  0
   -0.8500   19.5630  -34.7390 C   0  0  0  0  0  0  0  0  0  0  0  0
    0.5493   16.5347  -32.0913 H   0  0  0  0  0  0  0  0  0  0  0  0
    0.1022   17.8288  -33.2542 H   0  0  0  0  0  0  0  0  0  0  0  0
    1.7684   17.1577  -33.2542 H   0  0  0  0  0  0  0  0  0  0  0  0
    0.4337   18.7353  -29.7464 H   0  0  0  0  0  0  0  0  0  0  0  0
   -0.1302   19.8591  -31.0292 H   0  0  0  0  0  0  0  0  0  0  0  0
   -0.6783   18.1484  -31.0292 H   0  0  0  0  0  0  0  0  0  0  0  0
    1.0753   20.4267  -32.3377 H   0  0  0  0  0  0  0  0  0  0  0  0
    2.7388   19.9940  -31.7579 H   0  0  0  0  0  0  0  0  0  0  0  0
    3.1084   18.6068  -33.7432 H   0  0  0  0  0  0  0  0  0  0  0  0
    1.4179   18.9675  -34.3114 H   0  0  0  0  0  0  0  0  0  0  0  0
    3.0016   21.3917  -33.7756 H   0  0  0  0  0  0  0  0  0  0  0  0
    3.7109   20.3477  -35.0589 H   0  0  0  0  0  0  0  0  0  0  0  0
   -0.9965   22.4892  -32.9720 H   0  0  0  0  0  0  0  0  0  0  0  0
   -2.7627   21.2077  -31.7680 H   0  0  0  0  0  0  0  0  0  0  0  0
   -3.3408   18.8914  -32.4881 H   0  0  0  0  0  0  0  0  0  0  0  0
   -2.3406   17.5209  -35.6899 H   0  0  0  0  0  0  0  0  0  0  0  0
   -1.5699   16.7406  -34.2630 H   0  0  0  0  0  0  0  0  0  0  0  0
   -3.9498   16.1298  -34.3579 H   0  0  0  0  0  0  0  0  0  0  0  0
   -3.6353   17.2105  -32.9349 H   0  0  0  0  0  0  0  0  0  0  0  0
   -4.8060   18.1970  -35.5340 H   0  0  0  0  0  0  0  0  0  0  0  0
   -4.8881   20.5457  -33.5599 H   0  0  0  0  0  0  0  0  0  0  0  0
   -8.4092   23.1016  -31.9673 H   0  0  0  0  0  0  0  0  0  0  0  0
   -8.4637   21.6660  -30.8959 H   0  0  0  0  0  0  0  0  0  0  0  0
   -8.0695   23.7616  -29.6084 H   0  0  0  0  0  0  0  0  0  0  0  0
   -6.6551   22.6177  -29.5135 H   0  0  0  0  0  0  0  0  0  0  0  0
   -4.4330   25.1749  -30.1329 H   0  0  0  0  0  0  0  0  0  0  0  0
   -5.6980   25.3338  -28.8598 H   0  0  0  0  0  0  0  0  0  0  0  0
   -4.9639   23.4401  -27.8850 H   0  0  0  0  0  0  0  0  0  0  0  0
   -5.3071   22.5312  -29.4075 H   0  0  0  0  0  0  0  0  0  0  0  0
   -3.4195   21.0455  -29.4409 H   0  0  0  0  0  0  0  0  0  0  0  0
   -0.9452   20.7793  -29.7135 H   0  0  0  0  0  0  0  0  0  0  0  0
    0.5366   22.7931  -29.6116 H   0  0  0  0  0  0  0  0  0  0  0  0
   -0.4781   25.0512  -29.2419 H   0  0  0  0  0  0  0  0  0  0  0  0
   -6.4721   24.5295  -32.7290 H   0  0  0  0  0  0  0  0  0  0  0  0
   -4.7945   24.6658  -32.0356 H   0  0  0  0  0  0  0  0  0  0  0  0
   -5.1875   22.5491  -33.3348 H   0  0  0  0  0  0  0  0  0  0  0  0
   -4.7058   22.2958  -31.6122 H   0  0  0  0  0  0  0  0  0  0  0  0
   -8.7571   20.1355  -31.6714 H   0  0  0  0  0  0  0  0  0  0  0  0
   -8.8255   17.7378  -32.3286 H   0  0  0  0  0  0  0  0  0  0  0  0
   -6.3400   15.7240  -32.8280 H   0  0  0  0  0  0  0  0  0  0  0  0
   -7.5570   15.9070  -34.1240 H   0  0  0  0  0  0  0  0  0  0  0  0
   -0.3160   19.1001  -35.5819 H   0  0  0  0  0  0  0  0  0  0  0  0
  1  2  1  0
  2  3  1  0
  2  4  1  0
  4  5  1  0
  5  6  1  0
  6  7  1  0
  7  8  1  0
  8  9  2  0
  8 10  1  0
 10 11  2  0
 11 12  1  0
 12 13  2  0
 13 14  1  0
 14 15  1  0
 15 16  1  0
 16 17  1  0
 17 18  1  0
 18 19  2  0
 19 20  1  0
 20 21  1  0
 21 22  1  0
 22 23  1  0
 23 24  1  0
 24 25  1  0
 25 26  1  0
 26 27  1  0
 27 28  2  0
 28 29  1  0
 29 30  2  0
 30 31  1  0
 31 32  2  0
 24 33  1  0
 33 34  1  0
 20 35  2  0
 35 36  1  0
 36 37  2  0
 37 38  1  0
 14 39  2  0
 39 10  1  0
 37 18  1  0
 34 21  1  0
 32 27  1  0
  1 40  1  0
  1 41  1  0
  1 42  1  0
  3 43  1  0
  3 44  1  0
  3 45  1  0
  4 46  1  0
  4 47  1  0
  5 48  1  0
  5 49  1  0
  6 50  1  0
  6 51  1  0
 11 52  1  0
 12 53  1  0
 13 54  1  0
 15 55  1  0
 15 56  1  0
 16 57  1  0
 16 58  1  0
 17 59  1  0
 19 60  1  0
 22 61  1  0
 22 62  1  0
 23 63  1  0
 23 64  1  0
 25 65  1  0
 25 66  1  0
 26 67  1  0
 26 68  1  0
 28 69  1  0
 29 70  1  0
 30 71  1  0
 31 72  1  0
 33 73  1  0
 33 74  1  0
 34 75  1  0
 34 76  1  0
 35 77  1  0
 36 78  1  0
 38 79  1  0
 38 80  1  0
 39 81  1  0
M  CHG  1   7  -1
M  END
>  <UniqueID>  (45) 
41

>  <SMILES>  (45) 
CN(C)CCC[N-]C(=O)c1cccc(CCNc2cc(N3CCN(CCc4ccccn4)CC3)ccc2N)c1

>  <Energy>  (45) 
100.98665965560643

>  <Genealogy>  (45) 
CN(C)CCC[N-]C(=O)c1cccc(CCNc2cc(N3CCN(CCc4ccccn4)CC3)ccc2N)c1 (protonated)
CN(C)CCC[N-]C(=O)c1cccc(CCNc2cc(N3CCN(CCc4ccccn4)CC3)ccc2N)c1 (3D coordinates assigned)
CN(C)CCC[N-]C(=O)c1cccc(CCNc2cc(N3CCN(CCc4ccccn4)CC3)ccc2N)c1 (nonaromatic ring conformer: 100.98665965560643 kcal/mol)

>  <smiles>  (45) 
CN(C)CCCNC(=O)c1cccc(CCNc2cc(N3CCN(CCc4ccccn4)CC3)ccc2N)c1

>  <score_type>  (45) 
oracle

>  <origin>  (45) 
adg

>  <m_score__min__energy>  (45) 
-10.630000000000001

>  <m_primary>  (45) 
energy

$$$$
45:0
     RDKit          3D

 40 41  0  0  0  0  0  0  0  0999 V2000
   -2.6050   24.5230  -29.3810 C   0  0  0  0  0  0  0  0  0  0  0  0
   -3.5140   24.9390  -30.3950 O   0  0  0  0  0  0  0  0  0  0  0  0
   -4.7500   24.3250  -30.6530 C   0  0  0  0  0  0  0  0  0  0  0  0
   -5.9600   24.8440  -30.1550 C   0  0  0  0  0  0  0  0  0  0  0  0
   -7.1720   24.2190  -30.4530 C   0  0  0  0  0  0  0  0  0  0  0  0
   -7.1940   23.0610  -31.2350 C   0  0  0  0  0  0  0  0  0  0  0  0
   -8.7330   22.3060  -31.6420 S   0  0  0  0  0  0  0  0  0  0  0  0
   -9.4420   21.8590  -30.3930 O   0  0  0  0  0  0  0  0  0  0  0  0
   -9.6030   23.3060  -32.3510 O   0  0  0  0  0  0  0  0  0  0  0  0
   -8.4500   20.9510  -32.6930 N   0  0  0  0  0  0  0  0  0  0  0  0
   -9.0640   19.7310  -32.1630 C   0  0  0  0  0  0  0  0  0  0  0  0
   -7.9860   18.8120  -31.5870 C   0  0  0  0  0  0  0  0  0  0  0  0
   -7.0120   18.3810  -32.6530 C   0  0  0  0  0  0  0  0  0  0  0  0
   -7.0400   17.0690  -33.1550 C   0  0  0  0  0  0  0  0  0  0  0  0
   -6.1530   16.6820  -34.1650 C   0  0  0  0  0  0  0  0  0  0  0  0
   -5.2380   17.6020  -34.6840 C   0  0  0  0  0  0  0  0  0  0  0  0
   -5.2150   18.9130  -34.2010 C   0  0  0  0  0  0  0  0  0  0  0  0
   -6.1010   19.3040  -33.1930 C   0  0  0  0  0  0  0  0  0  0  0  0
   -5.9940   22.5350  -31.7280 C   0  0  0  0  0  0  0  0  0  0  0  0
   -4.7670   23.1670  -31.4460 C   0  0  0  0  0  0  0  0  0  0  0  0
   -3.5470   22.6850  -31.9480 O   0  0  0  0  0  0  0  0  0  0  0  0
   -3.4210   21.5620  -32.8140 C   0  0  0  0  0  0  0  0  0  0  0  0
   -3.0425   24.7232  -28.3918 H   0  0  0  0  0  0  0  0  0  0  0  0
   -2.4089   23.4455  -29.4839 H   0  0  0  0  0  0  0  0  0  0  0  0
   -1.6614   25.0789  -29.4839 H   0  0  0  0  0  0  0  0  0  0  0  0
   -5.9504   25.7473  -29.5274 H   0  0  0  0  0  0  0  0  0  0  0  0
   -8.1137   24.6397  -30.0707 H   0  0  0  0  0  0  0  0  0  0  0  0
   -9.7779   19.9973  -31.3696 H   0  0  0  0  0  0  0  0  0  0  0  0
   -9.5886   19.2077  -32.9760 H   0  0  0  0  0  0  0  0  0  0  0  0
   -7.4399   19.3498  -30.7980 H   0  0  0  0  0  0  0  0  0  0  0  0
   -8.4744   17.9153  -31.1778 H   0  0  0  0  0  0  0  0  0  0  0  0
   -7.7621   16.3435  -32.7523 H   0  0  0  0  0  0  0  0  0  0  0  0
   -6.1757   15.6523  -34.5512 H   0  0  0  0  0  0  0  0  0  0  0  0
   -4.5358   17.2941  -35.4728 H   0  0  0  0  0  0  0  0  0  0  0  0
   -4.4988   19.6383  -34.6145 H   0  0  0  0  0  0  0  0  0  0  0  0
   -6.0848   20.3390  -32.8210 H   0  0  0  0  0  0  0  0  0  0  0  0
   -6.0093   21.6213  -32.3402 H   0  0  0  0  0  0  0  0  0  0  0  0
   -3.3182   20.6459  -32.2139 H   0  0  0  0  0  0  0  0  0  0  0  0
   -4.3163   21.4861  -33.4486 H   0  0  0  0  0  0  0  0  0  0  0  0
   -2.5312   21.6864  -33.4486 H   0  0  0  0  0  0  0  0  0  0  0  0
  1  2  1  0
  2  3  1  0
  3  4  2  0
  4  5  1  0
  5  6  2  0
  6  7  1  0
  7  8  2  0
  7  9  2  0
  7 10  1  0
 10 11  1  0
 11 12  1  0
 12 13  1  0
 13 14  2  0
 14 15  1  0
 15 16  2  0
 16 17  1  0
 17 18  2  0
  6 19  1  0
 19 20  2  0
 20 21  1  0
 21 22  1  0
 20  3  1  0
 18 13  1  0
  1 23  1  0
  1 24  1  0
  1 25  1  0
  4 26  1  0
  5 27  1  0
 11 28  1  0
 11 29  1  0
 12 30  1  0
 12 31  1  0
 14 32  1  0
 15 33  1  0
 16 34  1  0
 17 35  1  0
 18 36  1  0
 19 37  1  0
 22 38  1  0
 22 39  1  0
 22 40  1  0
M  CHG  1  10  -1
M  END
>  <UniqueID>  (46) 
42

>  <SMILES>  (46) 
COc1ccc(S(=O)(=O)[N-]CCc2ccccc2)cc1OC

>  <Energy>  (46) 
30.787144310103706

>  <Genealogy>  (46) 
COc1ccc(S(=O)(=O)[N-]CCc2ccccc2)cc1OC (protonated)
COc1ccc(S(=O)(=O)[N-]CCc2ccccc2)cc1OC (3D coordinates assigned)
COc1ccc(S(=O)(=O)[N-]CCc2ccccc2)cc1OC (optimized conformer: 30.787144310103706 kcal/mol)

>  <smiles>  (46) 
COc1ccc(S(=O)(=O)NCCc2ccccc2)cc1OC

>  <score_type>  (46) 
oracle

>  <origin>  (46) 
adg

>  <m_score__min__energy>  (46) 
-8.2100000000000009

>  <m_primary>  (46) 
energy

$$$$
46:0
     RDKit          3D

 28 30  0  0  0  0  0  0  0  0999 V2000
   -2.6440   24.5310  -29.3610 C   0  0  0  0  0  0  0  0  0  0  0  0
   -3.4900   24.9150  -30.4390 O   0  0  0  0  0  0  0  0  0  0  0  0
   -4.7700   24.3880  -30.6700 C   0  0  0  0  0  0  0  0  0  0  0  0
   -5.8700   25.0500  -30.1150 C   0  0  0  0  0  0  0  0  0  0  0  0
   -7.1640   24.5720  -30.3250 C   0  0  0  0  0  0  0  0  0  0  0  0
   -7.3720   23.4200  -31.0850 C   0  0  0  0  0  0  0  0  0  0  0  0
   -6.2830   22.7270  -31.6390 C   0  0  0  0  0  0  0  0  0  0  0  0
   -6.5150   21.5430  -32.4240 N   0  0  0  0  0  0  0  0  0  0  0  0
   -7.7220   21.0550  -32.7120 N   0  0  0  0  0  0  0  0  0  0  0  0
   -7.6160   19.9360  -33.4280 N   0  0  0  0  0  0  0  0  0  0  0  0
   -6.3050   19.7000  -33.5900 C   0  0  0  0  0  0  0  0  0  0  0  0
   -5.6520   18.6360  -34.2000 C   0  0  0  0  0  0  0  0  0  0  0  0
   -4.2450   18.6400  -34.1420 C   0  0  0  0  0  0  0  0  0  0  0  0
   -3.5690   19.6890  -33.4680 C   0  0  0  0  0  0  0  0  0  0  0  0
   -4.2700   20.7050  -32.8770 N   0  0  0  0  0  0  0  0  0  0  0  0
   -5.6230   20.6940  -32.9700 C   0  0  0  0  0  0  0  0  0  0  0  0
   -4.9820   23.2240  -31.4370 C   0  0  0  0  0  0  0  0  0  0  0  0
   -3.1414   24.7568  -28.4062 H   0  0  0  0  0  0  0  0  0  0  0  0
   -2.4396   23.4519  -29.4218 H   0  0  0  0  0  0  0  0  0  0  0  0
   -1.6971   25.0876  -29.4218 H   0  0  0  0  0  0  0  0  0  0  0  0
   -5.7138   25.9542  -29.5084 H   0  0  0  0  0  0  0  0  0  0  0  0
   -8.0227   25.1047  -29.8903 H   0  0  0  0  0  0  0  0  0  0  0  0
   -8.3953   23.0524  -31.2512 H   0  0  0  0  0  0  0  0  0  0  0  0
   -8.4170   19.3570  -33.7640 H   0  0  0  0  0  0  0  0  0  0  0  0
   -6.2067   17.8304  -34.7033 H   0  0  0  0  0  0  0  0  0  0  0  0
   -3.6714   17.8313  -34.6184 H   0  0  0  0  0  0  0  0  0  0  0  0
   -2.4701   19.6859  -33.4198 H   0  0  0  0  0  0  0  0  0  0  0  0
   -4.1230   22.6999  -31.8813 H   0  0  0  0  0  0  0  0  0  0  0  0
  1  2  1  0
  2  3  1  0
  3  4  2  0
  4  5  1  0
  5  6  2  0
  6  7  1  0
  7  8  1  0
  8  9  1  0
  9 10  2  0
 10 11  1  0
 11 12  2  0
 12 13  1  0
 13 14  2  0
 14 15  1  0
 15 16  2  0
  7 17  2  0
 17  3  1  0
 16  8  1  0
 16 11  1  0
  1 18  1  0
  1 19  1  0
  1 20  1  0
  4 21  1  0
  5 22  1  0
  6 23  1  0
 10 24  1  0
 12 25  1  0
 13 26  1  0
 14 27  1  0
 17 28  1  0
M  CHG  1  10   1
M  END
>  <UniqueID>  (47) 
43

>  <SMILES>  (47) 
COc1cccc(-n2n[nH+]c3cccnc32)c1

>  <Energy>  (47) 
82.07730370779392

>  <Genealogy>  (47) 
COc1cccc(-n2n[nH+]c3cccnc32)c1 (protonated)
COc1cccc(-n2n[nH+]c3cccnc32)c1 (3D coordinates assigned)
COc1cccc(-n2n[nH+]c3cccnc32)c1 (optimized conformer: 82.07730370779392 kcal/mol)

>  <smiles>  (47) 
COc1cccc(-n2nnc3cccnc32)c1

>  <score_type>  (47) 
oracle

>  <origin>  (47) 
adg

>  <m_score__min__energy>  (47) 
-7.04

>  <m_primary>  (47) 
energy

$$$$
