0:0
     RDKit          3D

 33 34  0  0  0  0  0  0  0  0999 V2000
   -7.8465   17.4491  -31.1026 H   0  0  0  0  0  0  0  0  0  0  0  0
   -7.9440   17.9070  -32.0980 C   0  0  0  0  0  0  0  0  0  0  0  0
   -7.1080   17.5270  -33.0800 C   0  0  0  0  0  0  0  0  0  0  0  0
   -7.1715   16.5034  -33.4777 H   0  0  0  0  0  0  0  0  0  0  0  0
   -6.1260   18.4410  -33.6230 N   0  0  0  0  0  0  0  0  0  0  0  0
   -6.5390   19.4030  -33.6830 H   0  0  0  0  0  0  0  0  0  0  0  0
   -4.9510   18.5070  -32.7390 C   0  0  0  0  0  0  0  0  0  0  0  0
   -5.2802   18.4885  -31.6896 H   0  0  0  0  0  0  0  0  0  0  0  0
   -4.2970   17.6442  -32.9334 H   0  0  0  0  0  0  0  0  0  0  0  0
   -4.3977   19.4376  -32.9334 H   0  0  0  0  0  0  0  0  0  0  0  0
   -5.7240   18.0050  -34.9700 C   0  0  0  0  0  0  0  0  0  0  0  0
   -4.9804   17.1986  -34.8877 H   0  0  0  0  0  0  0  0  0  0  0  0
   -6.6059   17.6365  -35.5145 H   0  0  0  0  0  0  0  0  0  0  0  0
   -5.2852   18.8541  -35.5145 H   0  0  0  0  0  0  0  0  0  0  0  0
   -9.0080   18.9420  -32.3280 C   0  0  0  0  0  0  0  0  0  0  0  0
   -9.3548   18.8789  -33.3700 H   0  0  0  0  0  0  0  0  0  0  0  0
   -9.8430   18.7524  -31.6375 H   0  0  0  0  0  0  0  0  0  0  0  0
   -8.4690   20.3180  -32.0700 C   0  0  0  0  0  0  0  0  0  0  0  0
   -7.1260   20.5010  -31.9350 N   0  0  0  0  0  0  0  0  0  0  0  0
   -6.5890   21.7200  -31.6630 C   0  0  0  0  0  0  0  0  0  0  0  0
   -5.2040   21.8660  -31.5370 C   0  0  0  0  0  0  0  0  0  0  0  0
   -4.5459   20.9932  -31.6598 H   0  0  0  0  0  0  0  0  0  0  0  0
   -4.6550   23.1210  -31.2550 C   0  0  0  0  0  0  0  0  0  0  0  0
   -3.5652   23.2336  -31.1565 H   0  0  0  0  0  0  0  0  0  0  0  0
   -5.4880   24.2330  -31.0980 C   0  0  0  0  0  0  0  0  0  0  0  0
   -5.0507   25.2182  -30.8784 H   0  0  0  0  0  0  0  0  0  0  0  0
   -6.8750   24.0980  -31.2190 C   0  0  0  0  0  0  0  0  0  0  0  0
   -7.5272   24.9747  -31.0927 H   0  0  0  0  0  0  0  0  0  0  0  0
   -7.4330   22.8410  -31.5020 C   0  0  0  0  0  0  0  0  0  0  0  0
   -8.8180   22.6710  -31.6270 C   0  0  0  0  0  0  0  0  0  0  0  0
   -9.4924   23.5314  -31.5048 H   0  0  0  0  0  0  0  0  0  0  0  0
   -9.3400   21.4070  -31.9070 C   0  0  0  0  0  0  0  0  0  0  0  0
  -10.4269   21.2651  -31.9993 H   0  0  0  0  0  0  0  0  0  0  0  0
  1  2  1  0
  2  3  2  0
  3  4  1  0
  3  5  1  0
  5  6  1  0
  5  7  1  0
  7  8  1  0
  7  9  1  0
  7 10  1  0
  5 11  1  0
 11 12  1  0
 11 13  1  0
 11 14  1  0
  2 15  1  0
 15 16  1  0
 15 17  1  0
 15 18  1  0
 18 19  2  0
 19 20  1  0
 20 21  2  0
 21 22  1  0
 21 23  1  0
 23 24  1  0
 23 25  2  0
 25 26  1  0
 25 27  1  0
 27 28  1  0
 27 29  2  0
 29 30  1  0
 30 31  1  0
 30 32  2  0
 32 33  1  0
 32 18  1  0
 29 20  1  0
M  CHG  1   5   1
M  END
>  <UniqueID>  (1) 
1

>  <SMILES>  (1) 
C[NH+](C)/C=C/Cc1ccc2ccccc2n1

>  <Energy>  (1) 
31.907629179973593

>  <Genealogy>  (1) 
C[NH+](C)C=CCc1ccc2ccccc2n1 (protonated)
C[NH+](C)/C=C/Cc1ccc2ccccc2n1 (cis-trans isomerization)
C[NH+](C)/C=C/Cc1ccc2ccccc2n1 (3D coordinates assigned)
C[NH+](C)/C=C/Cc1ccc2ccccc2n1 (optimized conformer: 31.907629179973593 kcal/mol)

>  <smiles>  (1) 
CN(C)C=CCc1ccc2ccccc2n1

>  <score_type>  (1) 
oracle

>  <origin>  (1) 
adg

>  <m_score__min__energy>  (1) 
-5.5800000000000001

>  <m_primary>  (1) 
energy

$$$$
1:0
     RDKit          3D

 53 56  0  0  0  0  0  0  0  0999 V2000
    0.6220   17.6340  -35.1220 C   0  0  0  0  0  0  0  0  0  0  0  0
    0.6580   18.8770  -34.4280 O   0  0  0  0  0  0  0  0  0  0  0  0
   -0.4730   19.5350  -33.9260 C   0  0  0  0  0  0  0  0  0  0  0  0
   -0.4070   20.8110  -33.3370 C   0  0  0  0  0  0  0  0  0  0  0  0
   -1.5670   21.4320  -32.8630 C   0  0  0  0  0  0  0  0  0  0  0  0
   -2.8170   20.7950  -32.9760 C   0  0  0  0  0  0  0  0  0  0  0  0
   -4.0640   21.4400  -32.4880 C   0  0  0  0  0  0  0  0  0  0  0  0
   -4.0580   22.7330  -31.9440 C   0  0  0  0  0  0  0  0  0  0  0  0
   -5.2470   23.3190  -31.4800 C   0  0  0  0  0  0  0  0  0  0  0  0
   -5.1510   24.6520  -30.8350 C   0  0  0  0  0  0  0  0  0  0  0  0
   -6.1910   25.2900  -30.5220 O   0  0  0  0  0  0  0  0  0  0  0  0
   -3.8650   25.1730  -30.4860 N   0  0  0  0  0  0  0  0  0  0  0  0
   -2.9890   24.5540  -29.5030 C   0  0  0  0  0  0  0  0  0  0  0  0
   -3.7790   24.1550  -28.2540 C   0  0  0  0  0  0  0  0  0  0  0  0
   -3.3970   22.7950  -27.8070 N   0  0  0  0  0  0  0  0  0  0  0  0
   -3.5250   21.7730  -28.8770 C   0  0  0  0  0  0  0  0  0  0  0  0
   -2.1710   21.1680  -29.2840 C   0  0  0  0  0  0  0  0  0  0  0  0
   -1.4690   20.5970  -28.1910 O   0  0  0  0  0  0  0  0  0  0  0  0
   -1.5570   21.3570  -26.9920 C   0  0  0  0  0  0  0  0  0  0  0  0
   -2.0620   22.7960  -27.1780 C   0  0  0  0  0  0  0  0  0  0  0  0
   -6.4650   22.6050  -31.6210 C   0  0  0  0  0  0  0  0  0  0  0  0
   -7.7220   23.1490  -31.2780 C   0  0  0  0  0  0  0  0  0  0  0  0
   -8.8880   22.3950  -31.4360 C   0  0  0  0  0  0  0  0  0  0  0  0
   -8.8250   21.1000  -31.9500 C   0  0  0  0  0  0  0  0  0  0  0  0
   -7.5950   20.5560  -32.3260 C   0  0  0  0  0  0  0  0  0  0  0  0
   -6.4210   21.3010  -32.1760 C   0  0  0  0  0  0  0  0  0  0  0  0
   -5.2410   20.7690  -32.5840 N   0  0  0  0  0  0  0  0  0  0  0  0
   -2.8720   19.5110  -33.5490 C   0  0  0  0  0  0  0  0  0  0  0  0
   -1.7110   18.8930  -34.0210 C   0  0  0  0  0  0  0  0  0  0  0  0
    0.5981   16.8088  -34.3951 H   0  0  0  0  0  0  0  0  0  0  0  0
   -0.2777   17.5926  -35.7535 H   0  0  0  0  0  0  0  0  0  0  0  0
    1.5178   17.5406  -35.7535 H   0  0  0  0  0  0  0  0  0  0  0  0
    0.5625   21.3231  -33.2488 H   0  0  0  0  0  0  0  0  0  0  0  0
   -1.5019   22.4267  -32.3979 H   0  0  0  0  0  0  0  0  0  0  0  0
   -3.1134   23.2930  -31.8803 H   0  0  0  0  0  0  0  0  0  0  0  0
   -2.5296   23.6563  -29.9424 H   0  0  0  0  0  0  0  0  0  0  0  0
   -2.2114   25.2769  -29.2153 H   0  0  0  0  0  0  0  0  0  0  0  0
   -3.5676   24.8730  -27.4480 H   0  0  0  0  0  0  0  0  0  0  0  0
   -4.8519   24.1600  -28.4967 H   0  0  0  0  0  0  0  0  0  0  0  0
   -4.1774   20.9645  -28.5154 H   0  0  0  0  0  0  0  0  0  0  0  0
   -3.9468   22.2702  -29.7629 H   0  0  0  0  0  0  0  0  0  0  0  0
   -2.3487   20.3840  -30.0348 H   0  0  0  0  0  0  0  0  0  0  0  0
   -1.5516   21.9849  -29.6828 H   0  0  0  0  0  0  0  0  0  0  0  0
   -2.2447   20.8386  -26.3077 H   0  0  0  0  0  0  0  0  0  0  0  0
   -0.5326   21.4363  -26.5992 H   0  0  0  0  0  0  0  0  0  0  0  0
   -2.1242   23.2881  -26.1962 H   0  0  0  0  0  0  0  0  0  0  0  0
   -1.3610   23.3390  -27.8290 H   0  0  0  0  0  0  0  0  0  0  0  0
   -7.7840   24.1739  -30.8835 H   0  0  0  0  0  0  0  0  0  0  0  0
   -9.8603   22.8250  -31.1536 H   0  0  0  0  0  0  0  0  0  0  0  0
   -9.7448   20.5067  -32.0593 H   0  0  0  0  0  0  0  0  0  0  0  0
   -7.5494   19.5385  -32.7414 H   0  0  0  0  0  0  0  0  0  0  0  0
   -3.8373   18.9892  -33.6260 H   0  0  0  0  0  0  0  0  0  0  0  0
   -1.7719   17.8914  -34.4717 H   0  0  0  0  0  0  0  0  0  0  0  0
  1  2  1  0
  2  3  1  0
  3  4  2  0
  4  5  1  0
  5  6  2  0
  6  7  1  0
  7  8  2  0
  8  9  1  0
  9 10  1  0
 10 11  2  0
 10 12  1  0
 12 13  1  0
 13 14  1  0
 14 15  1  0
 15 16  1  0
 16 17  1  0
 17 18  1  0
 18 19  1  0
 19 20  1  0
  9 21  2  0
 21 22  1  0
 22 23  2  0
 23 24  1  0
 24 25  2  0
 25 26  1  0
 26 27  2  0
  6 28  1  0
 28 29  2  0
 29  3  1  0
 27  7  1  0
 20 15  1  0
 26 21  1  0
  1 30  1  0
  1 31  1  0
  1 32  1  0
  4 33  1  0
  5 34  1  0
  8 35  1  0
 13 36  1  0
 13 37  1  0
 14 38  1  0
 14 39  1  0
 16 40  1  0
 16 41  1  0
 17 42  1  0
 17 43  1  0
 19 44  1  0
 19 45  1  0
 20 46  1  0
 20 47  1  0
 22 48  1  0
 23 49  1  0
 24 50  1  0
 25 51  1  0
 28 52  1  0
 29 53  1  0
M  CHG  1  12  -1
M  END
>  <UniqueID>  (2) 
2

>  <SMILES>  (2) 
COc1ccc(-c2cc(C(=O)[N-]CCN3CCOCC3)c3ccccc3n2)cc1

>  <Energy>  (2) 
80.1925870465482

>  <Genealogy>  (2) 
COc1ccc(-c2cc(C(=O)[N-]CCN3CCOCC3)c3ccccc3n2)cc1 (protonated)
COc1ccc(-c2cc(C(=O)[N-]CCN3CCOCC3)c3ccccc3n2)cc1 (3D coordinates assigned)
COc1ccc(-c2cc(C(=O)[N-]CCN3CCOCC3)c3ccccc3n2)cc1 (nonaromatic ring conformer: 80.1925870465482 kcal/mol)

>  <smiles>  (2) 
COc1ccc(-c2cc(C(=O)NCCN3CCOCC3)c3ccccc3n2)cc1

>  <score_type>  (2) 
oracle

>  <origin>  (2) 
adg

>  <m_score__min__energy>  (2) 
-9.6199999999999992

>  <m_primary>  (2) 
energy

$$$$
2:0
     RDKit          3D

 41 43  0  0  0  0  0  0  0  0999 V2000
   -8.6510   19.8940  -33.1520 O   0  0  0  0  0  0  0  0  0  0  0  0
   -7.4810   19.8870  -32.6820 C   0  0  0  0  0  0  0  0  0  0  0  0
   -6.9380   21.1340  -32.0980 C   0  0  0  0  0  0  0  0  0  0  0  0
   -5.7890   21.7260  -32.6490 C   0  0  0  0  0  0  0  0  0  0  0  0
   -5.2670   22.9000  -32.1000 C   0  0  0  0  0  0  0  0  0  0  0  0
   -5.8750   23.4890  -30.9840 C   0  0  0  0  0  0  0  0  0  0  0  0
   -5.2250   24.9670  -30.2810 S   0  0  0  0  0  0  0  0  0  0  0  0
   -5.6830   25.0690  -28.8550 O   0  0  0  0  0  0  0  0  0  0  0  0
   -5.7070   26.1750  -31.0340 O   0  0  0  0  0  0  0  0  0  0  0  0
   -3.4920   24.9260  -30.3210 N   0  0  0  0  0  0  0  0  0  0  0  0
   -2.6620   24.1760  -29.4230 C   0  0  0  0  0  0  0  0  0  0  0  0
   -1.8490   23.1130  -29.8640 C   0  0  0  0  0  0  0  0  0  0  0  0
   -1.0570   22.4090  -28.9510 C   0  0  0  0  0  0  0  0  0  0  0  0
   -1.0660   22.7590  -27.5980 C   0  0  0  0  0  0  0  0  0  0  0  0
   -1.8700   23.8130  -27.1550 C   0  0  0  0  0  0  0  0  0  0  0  0
   -2.6640   24.5180  -28.0650 C   0  0  0  0  0  0  0  0  0  0  0  0
   -7.0070   22.8900  -30.4170 C   0  0  0  0  0  0  0  0  0  0  0  0
   -7.5330   21.7170  -30.9670 C   0  0  0  0  0  0  0  0  0  0  0  0
   -6.7140   18.6650  -32.7120 N   0  0  0  0  0  0  0  0  0  0  0  0
   -6.8250   17.7440  -33.8470 C   0  0  0  0  0  0  0  0  0  0  0  0
   -6.8080   16.2980  -33.3380 C   0  0  0  0  0  0  0  0  0  0  0  0
   -5.6890   16.0730  -32.5010 O   0  0  0  0  0  0  0  0  0  0  0  0
   -5.7980   16.8620  -31.3310 C   0  0  0  0  0  0  0  0  0  0  0  0
   -5.7250   18.3530  -31.6730 C   0  0  0  0  0  0  0  0  0  0  0  0
   -5.2978   21.2626  -33.5173 H   0  0  0  0  0  0  0  0  0  0  0  0
   -4.3748   23.3637  -32.5461 H   0  0  0  0  0  0  0  0  0  0  0  0
   -1.8371   22.8362  -30.9285 H   0  0  0  0  0  0  0  0  0  0  0  0
   -0.4257   21.5780  -29.2987 H   0  0  0  0  0  0  0  0  0  0  0  0
   -0.4407   22.2053  -26.8822 H   0  0  0  0  0  0  0  0  0  0  0  0
   -1.8782   24.0881  -26.0900 H   0  0  0  0  0  0  0  0  0  0  0  0
   -3.2946   25.3471  -27.7116 H   0  0  0  0  0  0  0  0  0  0  0  0
   -7.4839   23.3440  -29.5359 H   0  0  0  0  0  0  0  0  0  0  0  0
   -8.4177   21.2481  -30.5115 H   0  0  0  0  0  0  0  0  0  0  0  0
   -7.7677   17.9332  -34.3814 H   0  0  0  0  0  0  0  0  0  0  0  0
   -5.9772   17.9014  -34.5300 H   0  0  0  0  0  0  0  0  0  0  0  0
   -7.7290   16.1053  -32.7683 H   0  0  0  0  0  0  0  0  0  0  0  0
   -6.7437   15.6207  -34.2023 H   0  0  0  0  0  0  0  0  0  0  0  0
   -6.7603   16.6507  -30.8417 H   0  0  0  0  0  0  0  0  0  0  0  0
   -4.9641   16.6129  -30.6583 H   0  0  0  0  0  0  0  0  0  0  0  0
   -5.9395   18.9469  -30.7723 H   0  0  0  0  0  0  0  0  0  0  0  0
   -4.7172   18.5962  -32.0407 H   0  0  0  0  0  0  0  0  0  0  0  0
  1  2  2  0
  2  3  1  0
  3  4  2  0
  4  5  1  0
  5  6  2  0
  6  7  1  0
  7  8  2  0
  7  9  2  0
  7 10  1  0
 10 11  1  0
 11 12  2  0
 12 13  1  0
 13 14  2  0
 14 15  1  0
 15 16  2  0
  6 17  1  0
 17 18  2  0
  2 19  1  0
 19 20  1  0
 20 21  1  0
 21 22  1  0
 22 23  1  0
 23 24  1  0
 18  3  1  0
 24 19  1  0
 16 11  1  0
  4 25  1  0
  5 26  1  0
 12 27  1  0
 13 28  1  0
 14 29  1  0
 15 30  1  0
 16 31  1  0
 17 32  1  0
 18 33  1  0
 20 34  1  0
 20 35  1  0
 21 36  1  0
 21 37  1  0
 23 38  1  0
 23 39  1  0
 24 40  1  0
 24 41  1  0
M  CHG  1  10  -1
M  END
>  <UniqueID>  (3) 
3

>  <SMILES>  (3) 
O=C(c1ccc(S(=O)(=O)[N-]c2ccccc2)cc1)N1CCOCC1

>  <Energy>  (3) 
52.36978885925775

>  <Genealogy>  (3) 
O=C(c1ccc(S(=O)(=O)[N-]c2ccccc2)cc1)N1CCOCC1 (protonated)
O=C(c1ccc(S(=O)(=O)[N-]c2ccccc2)cc1)N1CCOCC1 (3D coordinates assigned)
O=C(c1ccc(S(=O)(=O)[N-]c2ccccc2)cc1)N1CCOCC1 (nonaromatic ring conformer: 52.36978885925775 kcal/mol)

>  <smiles>  (3) 
O=C(c1ccc(S(=O)(=O)Nc2ccccc2)cc1)N1CCOCC1

>  <score_type>  (3) 
oracle

>  <origin>  (3) 
adg

>  <m_score__min__energy>  (3) 
-9.6099999999999994

>  <m_primary>  (3) 
energy

$$$$
3:0
     RDKit          3D

 72 73  0  0  0  0  0  0  0  0999 V2000
   -1.4280   20.4440  -30.4370 C   0  0  0  0  0  0  0  0  0  0  0  0
   -1.1390   20.8310  -28.9850 C   0  0  0  0  0  0  0  0  0  0  0  0
   -2.3000   20.6720  -28.0820 N   0  0  0  0  0  0  0  0  0  0  0  0
   -2.0290   19.9030  -26.8420 C   0  0  0  0  0  0  0  0  0  0  0  0
   -3.1390   18.9260  -26.4270 C   0  0  0  0  0  0  0  0  0  0  0  0
   -3.1390   21.8840  -27.9510 C   0  0  0  0  0  0  0  0  0  0  0  0
   -2.3840   23.1270  -28.4210 C   0  0  0  0  0  0  0  0  0  0  0  0
   -2.8730   23.5270  -29.6980 O   0  0  0  0  0  0  0  0  0  0  0  0
   -3.8790   24.4830  -29.8610 C   0  0  0  0  0  0  0  0  0  0  0  0
   -3.8390   25.3060  -30.8170 O   0  0  0  0  0  0  0  0  0  0  0  0
   -5.0190   24.5140  -28.8910 C   0  0  0  0  0  0  0  0  0  0  0  0
   -6.1440   25.4360  -29.3840 C   0  0  0  0  0  0  0  0  0  0  0  0
   -7.0540   24.7360  -30.4070 C   0  0  0  0  0  0  0  0  0  0  0  0
   -6.7770   23.2240  -30.4860 C   0  0  0  0  0  0  0  0  0  0  0  0
   -6.7450   22.7260  -31.9370 C   0  0  0  0  0  0  0  0  0  0  0  0
   -6.9440   21.2620  -32.0080 N   0  0  0  0  0  0  0  0  0  0  0  0
   -8.1170   20.7870  -31.2330 C   0  0  0  0  0  0  0  0  0  0  0  0
   -9.3470   20.7350  -32.1350 C   0  0  0  0  0  0  0  0  0  0  0  0
   -9.8340   22.0110  -32.3530 F   0  0  0  0  0  0  0  0  0  0  0  0
   -5.7140   20.4650  -31.7540 C   0  0  2  0  0  0  0  0  0  0  0  0
   -4.4090   21.3130  -31.7810 C   0  0  0  0  0  0  0  0  0  0  0  0
   -3.6710   21.2680  -33.1180 C   0  0  0  0  0  0  0  0  0  0  0  0
   -3.3690   19.8290  -33.5240 C   0  0  0  0  0  0  0  0  0  0  0  0
   -4.6070   18.9650  -33.5310 C   0  0  0  0  0  0  0  0  0  0  0  0
   -4.6460   17.8150  -34.3520 C   0  0  0  0  0  0  0  0  0  0  0  0
   -3.5500   17.5340  -35.1860 O   0  0  0  0  0  0  0  0  0  0  0  0
   -2.5410   16.5710  -34.9010 C   0  0  0  0  0  0  0  0  0  0  0  0
   -5.7740   16.9740  -34.3150 C   0  0  0  0  0  0  0  0  0  0  0  0
   -6.8330   17.2520  -33.4540 C   0  0  0  0  0  0  0  0  0  0  0  0
   -6.7870   18.3670  -32.6250 C   0  0  0  0  0  0  0  0  0  0  0  0
   -5.6860   19.2400  -32.6550 C   0  0  0  0  0  0  0  0  0  0  0  0
   -2.0861   19.5628  -30.4576 H   0  0  0  0  0  0  0  0  0  0  0  0
   -1.9225   21.2829  -30.9486 H   0  0  0  0  0  0  0  0  0  0  0  0
   -0.4832   20.2081  -30.9486 H   0  0  0  0  0  0  0  0  0  0  0  0
   -0.3211   20.1964  -28.6132 H   0  0  0  0  0  0  0  0  0  0  0  0
   -0.8768   21.8993  -28.9844 H   0  0  0  0  0  0  0  0  0  0  0  0
   -1.1054   19.3252  -26.9941 H   0  0  0  0  0  0  0  0  0  0  0  0
   -1.9533   20.6435  -26.0321 H   0  0  0  0  0  0  0  0  0  0  0  0
   -3.1936   18.8779  -25.3294 H   0  0  0  0  0  0  0  0  0  0  0  0
   -4.1026   19.2744  -26.8272 H   0  0  0  0  0  0  0  0  0  0  0  0
   -2.9158   17.9260  -26.8272 H   0  0  0  0  0  0  0  0  0  0  0  0
   -4.0456   21.7615  -28.5618 H   0  0  0  0  0  0  0  0  0  0  0  0
   -3.4028   22.0144  -26.8911 H   0  0  0  0  0  0  0  0  0  0  0  0
   -2.5356   23.9427  -27.6987 H   0  0  0  0  0  0  0  0  0  0  0  0
   -1.3109   22.8970  -28.4957 H   0  0  0  0  0  0  0  0  0  0  0  0
   -5.4165   23.4952  -28.7720 H   0  0  0  0  0  0  0  0  0  0  0  0
   -4.6480   24.9007  -27.9304 H   0  0  0  0  0  0  0  0  0  0  0  0
   -6.7521   25.7471  -28.5217 H   0  0  0  0  0  0  0  0  0  0  0  0
   -5.6814   26.3035  -29.8775 H   0  0  0  0  0  0  0  0  0  0  0  0
   -8.1028   24.8900  -30.1132 H   0  0  0  0  0  0  0  0  0  0  0  0
   -6.8499   25.1708  -31.3966 H   0  0  0  0  0  0  0  0  0  0  0  0
   -5.8045   23.0151  -30.0162 H   0  0  0  0  0  0  0  0  0  0  0  0
   -7.5897   22.6995  -29.9622 H   0  0  0  0  0  0  0  0  0  0  0  0
   -7.5449   23.2242  -32.5044 H   0  0  0  0  0  0  0  0  0  0  0  0
   -5.7592   22.9632  -32.3635 H   0  0  0  0  0  0  0  0  0  0  0  0
   -7.9108   19.7811  -30.8385 H   0  0  0  0  0  0  0  0  0  0  0  0
   -8.3067   21.4804  -30.4004 H   0  0  0  0  0  0  0  0  0  0  0  0
   -9.0719   20.2816  -33.0987 H   0  0  0  0  0  0  0  0  0  0  0  0
  -10.1260   20.1325  -31.6451 H   0  0  0  0  0  0  0  0  0  0  0  0
   -5.7537   20.0995  -30.7173 H   0  0  0  0  0  0  0  0  0  0  0  0
   -4.6709   22.3592  -31.5646 H   0  0  0  0  0  0  0  0  0  0  0  0
   -3.7325   20.8834  -31.0274 H   0  0  0  0  0  0  0  0  0  0  0  0
   -4.2975   21.7366  -33.8913 H   0  0  0  0  0  0  0  0  0  0  0  0
   -2.7201   21.8109  -33.0134 H   0  0  0  0  0  0  0  0  0  0  0  0
   -2.9326   19.8303  -34.5337 H   0  0  0  0  0  0  0  0  0  0  0  0
   -2.6698   19.4101  -32.7853 H   0  0  0  0  0  0  0  0  0  0  0  0
   -2.4313   16.4663  -33.8115 H   0  0  0  0  0  0  0  0  0  0  0  0
   -2.8261   15.6016  -35.3356 H   0  0  0  0  0  0  0  0  0  0  0  0
   -1.5859   16.9010  -35.3356 H   0  0  0  0  0  0  0  0  0  0  0  0
   -5.8195   16.0916  -34.9702 H   0  0  0  0  0  0  0  0  0  0  0  0
   -7.7088   16.5869  -33.4299 H   0  0  0  0  0  0  0  0  0  0  0  0
   -7.6219   18.5683  -31.9377 H   0  0  0  0  0  0  0  0  0  0  0  0
  1  2  1  0
  2  3  1  0
  3  4  1  0
  4  5  1  0
  3  6  1  0
  6  7  1  0
  7  8  1  0
  8  9  1  0
  9 10  2  0
  9 11  1  0
 11 12  1  0
 12 13  1  0
 13 14  1  0
 14 15  1  0
 15 16  1  0
 16 17  1  0
 17 18  1  0
 18 19  1  0
 16 20  1  0
 20 21  1  0
 21 22  1  0
 22 23  1  0
 23 24  1  0
 24 25  2  0
 25 26  1  0
 26 27  1  0
 25 28  1  0
 28 29  2  0
 29 30  1  0
 30 31  2  0
 31 20  1  0
 31 24  1  0
  1 32  1  0
  1 33  1  0
  1 34  1  0
  2 35  1  0
  2 36  1  0
  4 37  1  0
  4 38  1  0
  5 39  1  0
  5 40  1  0
  5 41  1  0
  6 42  1  0
  6 43  1  0
  7 44  1  0
  7 45  1  0
 11 46  1  0
 11 47  1  0
 12 48  1  0
 12 49  1  0
 13 50  1  0
 13 51  1  0
 14 52  1  0
 14 53  1  0
 15 54  1  0
 15 55  1  0
 17 56  1  0
 17 57  1  0
 18 58  1  0
 18 59  1  0
 20 60  1  1
 21 61  1  0
 21 62  1  0
 22 63  1  0
 22 64  1  0
 23 65  1  0
 23 66  1  0
 27 67  1  0
 27 68  1  0
 27 69  1  0
 28 70  1  0
 29 71  1  0
 30 72  1  0
M  END
>  <UniqueID>  (4) 
4

>  <SMILES>  (4) 
CCN(CC)CCOC(=O)CCCCCN(CCF)[C@@H]1CCCc2c(OC)cccc21

>  <Energy>  (4) 
70.5652370049877

>  <Genealogy>  (4) 
CCN(CC)CCOC(=O)CCCCCN(CCF)[C@@H]1CCCc2c(OC)cccc21 (chirality)
CCN(CC)CCOC(=O)CCCCCN(CCF)[C@@H]1CCCc2c(OC)cccc21 (3D coordinates assigned)
CCN(CC)CCOC(=O)CCCCCN(CCF)[C@@H]1CCCc2c(OC)cccc21 (nonaromatic ring conformer: 70.5652370049877 kcal/mol)

>  <smiles>  (4) 
CCN(CC)CCOC(=O)CCCCCN(CCF)C1CCCc2c(OC)cccc21

>  <score_type>  (4) 
oracle

>  <origin>  (4) 
adg

>  <m_score__min__energy>  (4) 
-8.2599999999999998

>  <m_primary>  (4) 
energy

$$$$
4:0
     RDKit          3D

 44 46  0  0  0  0  0  0  0  0999 V2000
   -5.7400   26.1010  -30.1720 C   0  0  0  0  0  0  0  0  0  0  0  0
   -5.0890   24.7860  -30.4510 C   0  0  0  0  0  0  0  0  0  0  0  0
   -3.7500   24.5900  -30.4180 N   0  0  0  0  0  0  0  0  0  0  0  0
   -3.5450   23.3240  -30.7400 N   0  0  0  0  0  0  0  0  0  0  0  0
   -2.3400   22.7080  -30.8440 C   0  0  0  0  0  0  0  0  0  0  0  0
   -2.3130   21.3580  -31.2260 C   0  0  0  0  0  0  0  0  0  0  0  0
   -3.5240   20.6880  -31.4890 C   0  0  0  0  0  0  0  0  0  0  0  0
   -4.7490   21.3630  -31.3700 C   0  0  0  0  0  0  0  0  0  0  0  0
   -4.7100   22.7030  -30.9810 C   0  0  0  0  0  0  0  0  0  0  0  0
   -5.7400   23.6010  -30.7920 C   0  0  0  0  0  0  0  0  0  0  0  0
   -7.2050   23.3850  -31.0300 C   0  0  0  0  0  0  0  0  0  0  0  0
   -7.3980   22.6940  -32.3090 N   0  0  0  0  0  0  0  0  0  0  0  0
   -8.6430   21.9200  -32.2870 C   0  0  0  0  0  0  0  0  0  0  0  0
   -8.3250   20.4500  -32.3380 C   0  0  0  0  0  0  0  0  0  0  0  0
   -9.0700   19.5410  -31.5820 C   0  0  0  0  0  0  0  0  0  0  0  0
   -8.7390   18.1880  -31.6130 C   0  0  0  0  0  0  0  0  0  0  0  0
   -7.6900   17.7530  -32.3620 N   0  0  0  0  0  0  0  0  0  0  0  0
   -6.9220   18.6120  -33.1030 C   0  0  0  0  0  0  0  0  0  0  0  0
   -5.8060   18.1140  -33.8850 N   0  0  0  0  0  0  0  0  0  0  0  0
   -5.8770   16.8040  -34.5430 C   0  0  0  0  0  0  0  0  0  0  0  0
   -4.5870   18.9180  -34.0310 C   0  0  0  0  0  0  0  0  0  0  0  0
   -7.2370   19.9860  -33.0900 C   0  0  0  0  0  0  0  0  0  0  0  0
   -5.8139   26.2502  -29.0847 H   0  0  0  0  0  0  0  0  0  0  0  0
   -5.1379   26.9091  -30.6129 H   0  0  0  0  0  0  0  0  0  0  0  0
   -6.7477   26.1122  -30.6129 H   0  0  0  0  0  0  0  0  0  0  0  0
   -1.4080   23.2533  -30.6341 H   0  0  0  0  0  0  0  0  0  0  0  0
   -1.3541   20.8272  -31.3193 H   0  0  0  0  0  0  0  0  0  0  0  0
   -3.5096   19.6299  -31.7893 H   0  0  0  0  0  0  0  0  0  0  0  0
   -5.7031   20.8555  -31.5754 H   0  0  0  0  0  0  0  0  0  0  0  0
   -7.6219   22.7731  -30.2165 H   0  0  0  0  0  0  0  0  0  0  0  0
   -7.7182   24.3575  -31.0587 H   0  0  0  0  0  0  0  0  0  0  0  0
   -7.4890   23.4240  -33.0560 H   0  0  0  0  0  0  0  0  0  0  0  0
   -9.1963   22.1429  -31.3628 H   0  0  0  0  0  0  0  0  0  0  0  0
   -9.2570   22.1912  -33.1585 H   0  0  0  0  0  0  0  0  0  0  0  0
   -9.9119   19.8913  -30.9667 H   0  0  0  0  0  0  0  0  0  0  0  0
   -9.3294   17.4672  -31.0283 H   0  0  0  0  0  0  0  0  0  0  0  0
   -7.4770   16.7320  -32.3370 H   0  0  0  0  0  0  0  0  0  0  0  0
   -5.9199   16.0125  -33.7804 H   0  0  0  0  0  0  0  0  0  0  0  0
   -6.7790   16.7575  -35.1709 H   0  0  0  0  0  0  0  0  0  0  0  0
   -4.9853   16.6603  -35.1709 H   0  0  0  0  0  0  0  0  0  0  0  0
   -4.1963   19.1757  -33.0355 H   0  0  0  0  0  0  0  0  0  0  0  0
   -3.8310   18.3407  -34.5834 H   0  0  0  0  0  0  0  0  0  0  0  0
   -4.8200   19.8402  -34.5834 H   0  0  0  0  0  0  0  0  0  0  0  0
   -6.6283   20.6947  -33.6706 H   0  0  0  0  0  0  0  0  0  0  0  0
  1  2  1  0
  2  3  2  0
  3  4  1  0
  4  5  1  0
  5  6  2  0
  6  7  1  0
  7  8  2  0
  8  9  1  0
  9 10  2  0
 10 11  1  0
 11 12  1  0
 12 13  1  0
 13 14  1  0
 14 15  2  0
 15 16  1  0
 16 17  2  0
 17 18  1  0
 18 19  1  0
 19 20  1  0
 19 21  1  0
 18 22  2  0
 10  2  1  0
 22 14  1  0
  9  4  1  0
  1 23  1  0
  1 24  1  0
  1 25  1  0
  5 26  1  0
  6 27  1  0
  7 28  1  0
  8 29  1  0
 11 30  1  0
 11 31  1  0
 12 32  1  0
 13 33  1  0
 13 34  1  0
 15 35  1  0
 16 36  1  0
 17 37  1  0
 20 38  1  0
 20 39  1  0
 20 40  1  0
 21 41  1  0
 21 42  1  0
 21 43  1  0
 22 44  1  0
M  CHG  1  17   1
M  END
>  <UniqueID>  (5) 
5

>  <SMILES>  (5) 
Cc1nn2ccccc2c1CNCc1cc[nH+]c(N(C)C)c1

>  <Energy>  (5) 
78.07091846993384

>  <Genealogy>  (5) 
Cc1nn2ccccc2c1CNCc1cc[nH+]c(N(C)C)c1 (protonated)
Cc1nn2ccccc2c1CNCc1cc[nH+]c(N(C)C)c1 (3D coordinates assigned)
Cc1nn2ccccc2c1CNCc1cc[nH+]c(N(C)C)c1 (optimized conformer: 78.07091846993384 kcal/mol)

>  <smiles>  (5) 
Cc1nn2ccccc2c1CNCc1ccnc(N(C)C)c1

>  <score_type>  (5) 
oracle

>  <origin>  (5) 
adg

>  <m_score__min__energy>  (5) 
-7.4400000000000004

>  <m_primary>  (5) 
energy

$$$$
5:0
     RDKit          3D

 41 42  0  0  0  0  0  0  0  0999 V2000
   -9.3990   22.2030  -31.8480 C   0  0  0  0  0  0  0  0  0  0  0  0
   -8.1520   22.2800  -30.9710 C   0  0  0  0  0  0  0  0  0  0  0  0
   -6.9390   22.0120  -31.7610 N   0  0  0  0  0  0  0  0  0  0  0  0
   -5.9110   23.0170  -31.8870 C   0  0  0  0  0  0  0  0  0  0  0  0
   -4.9910   22.8670  -32.7360 O   0  0  0  0  0  0  0  0  0  0  0  0
   -5.9110   24.2550  -31.0330 C   0  0  0  0  0  0  0  0  0  0  0  0
   -4.5810   24.7460  -30.8570 O   0  0  0  0  0  0  0  0  0  0  0  0
   -3.5780   24.1230  -30.0970 C   0  0  0  0  0  0  0  0  0  0  0  0
   -2.9060   23.0330  -30.6600 C   0  0  0  0  0  0  0  0  0  0  0  0
   -1.9200   22.3480  -29.9360 C   0  0  0  0  0  0  0  0  0  0  0  0
   -1.1910   21.1930  -30.5590 C   0  0  0  0  0  0  0  0  0  0  0  0
   -1.5760   22.7870  -28.6500 C   0  0  0  0  0  0  0  0  0  0  0  0
   -2.2220   23.8960  -28.0820 C   0  0  0  0  0  0  0  0  0  0  0  0
   -1.8880   24.3320  -26.6870 C   0  0  0  0  0  0  0  0  0  0  0  0
   -3.2300   24.5530  -28.8020 C   0  0  0  0  0  0  0  0  0  0  0  0
   -6.7460   20.7250  -32.3910 C   0  0  0  0  0  0  0  0  0  0  0  0
   -7.4250   19.5840  -31.9350 C   0  0  0  0  0  0  0  0  0  0  0  0
   -7.2120   18.3620  -32.5670 C   0  0  0  0  0  0  0  0  0  0  0  0
   -6.3290   18.2970  -33.6410 C   0  0  0  0  0  0  0  0  0  0  0  0
   -5.6960   19.4240  -34.0530 N   0  0  0  0  0  0  0  0  0  0  0  0
   -5.8940   20.6000  -33.4510 N   0  0  0  0  0  0  0  0  0  0  0  0
  -10.2932   22.1478  -31.2098 H   0  0  0  0  0  0  0  0  0  0  0  0
   -9.4565   23.0993  -32.4831 H   0  0  0  0  0  0  0  0  0  0  0  0
   -9.3458   21.3064  -32.4831 H   0  0  0  0  0  0  0  0  0  0  0  0
   -8.0814   23.2862  -30.5322 H   0  0  0  0  0  0  0  0  0  0  0  0
   -8.2312   21.5211  -30.1787 H   0  0  0  0  0  0  0  0  0  0  0  0
   -6.5207   25.0301  -31.5204 H   0  0  0  0  0  0  0  0  0  0  0  0
   -6.3295   24.0049  -30.0469 H   0  0  0  0  0  0  0  0  0  0  0  0
   -3.1538   22.7098  -31.6818 H   0  0  0  0  0  0  0  0  0  0  0  0
   -0.7832   20.5469  -29.7676 H   0  0  0  0  0  0  0  0  0  0  0  0
   -1.8873   20.6135  -31.1830 H   0  0  0  0  0  0  0  0  0  0  0  0
   -0.3683   21.5723  -31.1830 H   0  0  0  0  0  0  0  0  0  0  0  0
   -0.7952   22.2593  -28.0827 H   0  0  0  0  0  0  0  0  0  0  0  0
   -2.3932   23.6726  -25.9659 H   0  0  0  0  0  0  0  0  0  0  0  0
   -0.7999   24.2755  -26.5358 H   0  0  0  0  0  0  0  0  0  0  0  0
   -2.2259   25.3678  -26.5358 H   0  0  0  0  0  0  0  0  0  0  0  0
   -3.7525   25.4101  -28.3522 H   0  0  0  0  0  0  0  0  0  0  0  0
   -8.1198   19.6550  -31.0851 H   0  0  0  0  0  0  0  0  0  0  0  0
   -7.7355   17.4583  -32.2216 H   0  0  0  0  0  0  0  0  0  0  0  0
   -6.1460   17.3399  -34.1514 H   0  0  0  0  0  0  0  0  0  0  0  0
   -5.3930   21.4370  -33.8220 H   0  0  0  0  0  0  0  0  0  0  0  0
  1  2  1  0
  2  3  1  0
  3  4  1  0
  4  5  2  0
  4  6  1  0
  6  7  1  0
  7  8  1  0
  8  9  2  0
  9 10  1  0
 10 11  1  0
 10 12  2  0
 12 13  1  0
 13 14  1  0
 13 15  2  0
  3 16  1  0
 16 17  2  0
 17 18  1  0
 18 19  2  0
 19 20  1  0
 20 21  2  0
 15  8  1  0
 21 16  1  0
  1 22  1  0
  1 23  1  0
  1 24  1  0
  2 25  1  0
  2 26  1  0
  6 27  1  0
  6 28  1  0
  9 29  1  0
 11 30  1  0
 11 31  1  0
 11 32  1  0
 12 33  1  0
 14 34  1  0
 14 35  1  0
 14 36  1  0
 15 37  1  0
 17 38  1  0
 18 39  1  0
 19 40  1  0
 21 41  1  0
M  CHG  1  21   1
M  END
>  <UniqueID>  (6) 
6

>  <SMILES>  (6) 
CCN(C(=O)COc1cc(C)cc(C)c1)c1cccn[nH+]1

>  <Energy>  (6) 
41.721425332923445

>  <Genealogy>  (6) 
CCN(C(=O)COc1cc(C)cc(C)c1)c1cccn[nH+]1 (protonated)
CCN(C(=O)COc1cc(C)cc(C)c1)c1cccn[nH+]1 (3D coordinates assigned)
CCN(C(=O)COc1cc(C)cc(C)c1)c1cccn[nH+]1 (optimized conformer: 41.721425332923445 kcal/mol)

>  <smiles>  (6) 
CCN(C(=O)COc1cc(C)cc(C)c1)c1cccnn1

>  <score_type>  (6) 
oracle

>  <origin>  (6) 
adg

>  <m_score__min__energy>  (6) 
-6.9699999999999998

>  <m_primary>  (6) 
energy

$$$$
6:0
     RDKit          3D

 45 48  0  0  0  0  0  0  0  0999 V2000
    0.9800   24.7540  -26.8040 C   0  0  0  0  0  0  0  0  0  0  0  0
    0.6860   24.5550  -28.1820 O   0  0  0  0  0  0  0  0  0  0  0  0
   -0.5270   24.0450  -28.6690 C   0  0  0  0  0  0  0  0  0  0  0  0
   -0.7010   22.6620  -28.6930 C   0  0  0  0  0  0  0  0  0  0  0  0
   -1.8900   22.1080  -29.1650 C   0  0  0  0  0  0  0  0  0  0  0  0
   -2.9340   22.9280  -29.6350 C   0  0  0  0  0  0  0  0  0  0  0  0
   -2.7670   24.3330  -29.6110 C   0  0  0  0  0  0  0  0  0  0  0  0
   -1.5670   24.8720  -29.1250 C   0  0  0  0  0  0  0  0  0  0  0  0
   -3.7680   25.2740  -30.0310 N   0  0  0  0  0  0  0  0  0  0  0  0
   -5.0320   25.1590  -30.6980 C   0  0  0  0  0  0  0  0  0  0  0  0
   -5.7280   26.2020  -30.8060 O   0  0  0  0  0  0  0  0  0  0  0  0
   -5.6050   23.8920  -31.2760 C   0  0  0  0  0  0  0  0  0  0  0  0
   -4.6280   22.7960  -31.4330 N   0  0  2  0  0  0  0  0  0  0  0  0
   -5.1640   21.7210  -32.3140 C   0  0  0  0  0  0  0  0  0  0  0  0
   -4.1000   20.8100  -32.9040 C   0  0  0  0  0  0  0  0  0  0  0  0
   -4.4150   19.4840  -33.2460 C   0  0  0  0  0  0  0  0  0  0  0  0
   -3.4450   18.6360  -33.7850 C   0  0  0  0  0  0  0  0  0  0  0  0
   -2.1430   19.1050  -34.0060 C   0  0  0  0  0  0  0  0  0  0  0  0
   -1.1600   18.2620  -34.5460 C   0  0  0  0  0  0  0  0  0  0  0  0
    0.1330   18.7450  -34.7680 C   0  0  0  0  0  0  0  0  0  0  0  0
    0.4530   20.0680  -34.4560 C   0  0  0  0  0  0  0  0  0  0  0  0
   -0.5170   20.9180  -33.9170 C   0  0  0  0  0  0  0  0  0  0  0  0
   -1.8190   20.4460  -33.6870 C   0  0  0  0  0  0  0  0  0  0  0  0
   -2.8020   21.2890  -33.1470 C   0  0  0  0  0  0  0  0  0  0  0  0
   -4.2040   22.2730  -30.1110 C   0  0  0  0  0  0  0  0  0  0  0  0
    0.2241   24.2423  -26.1902 H   0  0  0  0  0  0  0  0  0  0  0  0
    1.9750   24.3430  -26.5783 H   0  0  0  0  0  0  0  0  0  0  0  0
    0.9682   25.8305  -26.5783 H   0  0  0  0  0  0  0  0  0  0  0  0
    0.1052   22.0036  -28.3372 H   0  0  0  0  0  0  0  0  0  0  0  0
   -2.0145   21.0151  -29.1704 H   0  0  0  0  0  0  0  0  0  0  0  0
   -1.4375   25.9641  -29.1004 H   0  0  0  0  0  0  0  0  0  0  0  0
   -6.4089   23.5434  -30.6110 H   0  0  0  0  0  0  0  0  0  0  0  0
   -5.9616   24.1414  -32.2863 H   0  0  0  0  0  0  0  0  0  0  0  0
   -3.7970   23.1790  -31.9460 H   0  0  0  0  0  0  0  0  0  0  0  0
   -5.8570   21.1042  -31.7229 H   0  0  0  0  0  0  0  0  0  0  0  0
   -5.6555   22.2223  -33.1608 H   0  0  0  0  0  0  0  0  0  0  0  0
   -5.4371   19.1096  -33.0874 H   0  0  0  0  0  0  0  0  0  0  0  0
   -3.7037   17.5969  -34.0368 H   0  0  0  0  0  0  0  0  0  0  0  0
   -1.4071   17.2194  -34.7951 H   0  0  0  0  0  0  0  0  0  0  0  0
    0.9012   18.0804  -35.1900 H   0  0  0  0  0  0  0  0  0  0  0  0
    1.4717   20.4425  -34.6350 H   0  0  0  0  0  0  0  0  0  0  0  0
   -0.2596   21.9591  -33.6725 H   0  0  0  0  0  0  0  0  0  0  0  0
   -2.5540   22.3345  -32.9118 H   0  0  0  0  0  0  0  0  0  0  0  0
   -5.0014   22.4666  -29.3784 H   0  0  0  0  0  0  0  0  0  0  0  0
   -4.0164   21.1939  -30.2128 H   0  0  0  0  0  0  0  0  0  0  0  0
  1  2  1  0
  2  3  1  0
  3  4  2  0
  4  5  1  0
  5  6  2  0
  6  7  1  0
  7  8  2  0
  7  9  1  0
  9 10  1  0
 10 11  2  0
 10 12  1  0
 12 13  1  0
 13 14  1  0
 14 15  1  0
 15 16  2  0
 16 17  1  0
 17 18  2  0
 18 19  1  0
 19 20  2  0
 20 21  1  0
 21 22  2  0
 22 23  1  0
 23 24  2  0
 13 25  1  0
  8  3  1  0
 24 15  1  0
 25  6  1  0
 23 18  1  0
  1 26  1  0
  1 27  1  0
  1 28  1  0
  4 29  1  0
  5 30  1  0
  8 31  1  0
 12 32  1  0
 12 33  1  0
 13 34  1  6
 14 35  1  0
 14 36  1  0
 16 37  1  0
 17 38  1  0
 19 39  1  0
 20 40  1  0
 21 41  1  0
 22 42  1  0
 24 43  1  0
 25 44  1  0
 25 45  1  0
M  CHG  2   9  -1  13   1
M  END
>  <UniqueID>  (7) 
7

>  <SMILES>  (7) 
COc1ccc2c(c1)[N-]C(=O)C[N@H+](Cc1ccc3ccccc3c1)C2

>  <Energy>  (7) 
70.37315582984975

>  <Genealogy>  (7) 
COc1ccc2c(c1)[N-]C(=O)C[NH+](Cc1ccc3ccccc3c1)C2 (protonated)
COc1ccc2c(c1)[N-]C(=O)C[N@H+](Cc1ccc3ccccc3c1)C2 (chirality)
COc1ccc2c(c1)[N-]C(=O)C[N@H+](Cc1ccc3ccccc3c1)C2 (3D coordinates assigned)
COc1ccc2c(c1)[N-]C(=O)C[N@H+](Cc1ccc3ccccc3c1)C2 (nonaromatic ring conformer: 70.37315582984975 kcal/mol)

>  <smiles>  (7) 
COc1ccc2c(c1)NC(=O)CN(Cc1ccc3ccccc3c1)C2

>  <score_type>  (7) 
oracle

>  <origin>  (7) 
adg

>  <m_score__min__energy>  (7) 
-7.2999999999999998

>  <m_primary>  (7) 
energy

$$$$
7:0
     RDKit          3D

 63 65  0  0  0  0  0  0  0  0999 V2000
   -7.4077   22.2543  -33.0814 H   0  0  0  0  0  0  0  0  0  0  0  0
   -6.6440   21.5860  -32.6570 C   0  0  0  0  0  0  0  0  0  0  0  0
   -5.5960   22.1460  -32.0400 C   0  0  0  0  0  0  0  0  0  0  0  0
   -5.7099   22.5112  -31.0087 H   0  0  0  0  0  0  0  0  0  0  0  0
   -4.2650   22.2860  -32.7290 C   0  0  0  0  0  0  0  0  0  0  0  0
   -3.6349   22.9701  -32.1416 H   0  0  0  0  0  0  0  0  0  0  0  0
   -4.4538   22.6744  -33.7407 H   0  0  0  0  0  0  0  0  0  0  0  0
   -3.5570   20.9950  -32.8710 N   0  0  0  0  0  0  0  0  0  0  0  0
   -2.2580   21.0580  -33.5780 C   0  0  0  0  0  0  0  0  0  0  0  0
   -2.0281   22.1119  -33.7938 H   0  0  0  0  0  0  0  0  0  0  0  0
   -2.3562   20.4602  -34.4961 H   0  0  0  0  0  0  0  0  0  0  0  0
   -1.0970   20.4610  -32.7660 C   0  0  0  0  0  0  0  0  0  0  0  0
   -0.1424   20.8020  -33.1931 H   0  0  0  0  0  0  0  0  0  0  0  0
   -1.1580   19.3635  -32.8081 H   0  0  0  0  0  0  0  0  0  0  0  0
   -1.1820   20.8930  -31.3570 N   0  0  0  0  0  0  0  0  0  0  0  0
   -1.2470   21.9340  -31.3290 H   0  0  0  0  0  0  0  0  0  0  0  0
    0.0110   20.4780  -30.5750 C   0  0  0  0  0  0  0  0  0  0  0  0
    0.5225   21.3860  -30.2230 H   0  0  0  0  0  0  0  0  0  0  0  0
    0.6279   19.8675  -31.2508 H   0  0  0  0  0  0  0  0  0  0  0  0
   -0.2970   19.5920  -29.3460 C   0  0  0  0  0  0  0  0  0  0  0  0
    0.0844   18.5795  -29.5442 H   0  0  0  0  0  0  0  0  0  0  0  0
   -1.3875   19.6109  -29.2029 H   0  0  0  0  0  0  0  0  0  0  0  0
    0.3350   20.1010  -28.0390 C   0  0  0  0  0  0  0  0  0  0  0  0
    1.2896   20.5957  -28.2712 H   0  0  0  0  0  0  0  0  0  0  0  0
    0.4952   19.2409  -27.3722 H   0  0  0  0  0  0  0  0  0  0  0  0
   -0.5230   21.0320  -27.3770 O   0  0  0  0  0  0  0  0  0  0  0  0
   -1.5100   21.8550  -27.9520 C   0  0  0  0  0  0  0  0  0  0  0  0
   -1.0520   22.9450  -28.6960 C   0  0  0  0  0  0  0  0  0  0  0  0
    0.0303   23.1233  -28.7788 H   0  0  0  0  0  0  0  0  0  0  0  0
   -1.9370   23.8120  -29.3360 C   0  0  0  0  0  0  0  0  0  0  0  0
   -1.5463   24.6593  -29.9186 H   0  0  0  0  0  0  0  0  0  0  0  0
   -3.3220   23.6110  -29.2420 C   0  0  0  0  0  0  0  0  0  0  0  0
   -4.2810   24.5170  -29.9310 C   0  0  0  0  0  0  0  0  0  0  0  0
   -3.8670   25.3020  -30.8270 O   0  0  0  0  0  0  0  0  0  0  0  0
   -5.7420   24.5280  -29.5960 C   0  0  0  0  0  0  0  0  0  0  0  0
   -5.8676   24.5289  -28.5032 H   0  0  0  0  0  0  0  0  0  0  0  0
   -6.2085   25.4297  -30.0195 H   0  0  0  0  0  0  0  0  0  0  0  0
   -6.2220   23.6334  -30.0195 H   0  0  0  0  0  0  0  0  0  0  0  0
   -3.7960   22.5260  -28.4820 C   0  0  0  0  0  0  0  0  0  0  0  0
   -4.8803   22.3657  -28.3893 H   0  0  0  0  0  0  0  0  0  0  0  0
   -2.9080   21.6390  -27.8360 C   0  0  0  0  0  0  0  0  0  0  0  0
   -3.3940   20.5530  -27.0920 O   0  0  0  0  0  0  0  0  0  0  0  0
   -2.7310   19.3040  -26.9360 C   0  0  0  0  0  0  0  0  0  0  0  0
   -2.6134   19.0825  -25.8650 H   0  0  0  0  0  0  0  0  0  0  0  0
   -3.3268   18.5108  -27.4112 H   0  0  0  0  0  0  0  0  0  0  0  0
   -1.7402   19.3530  -27.4112 H   0  0  0  0  0  0  0  0  0  0  0  0
   -2.4070   20.3520  -30.7110 C   0  0  0  0  0  0  0  0  0  0  0  0
   -2.7274   21.0606  -29.9331 H   0  0  0  0  0  0  0  0  0  0  0  0
   -2.1392   19.3645  -30.3071 H   0  0  0  0  0  0  0  0  0  0  0  0
   -3.5920   20.1270  -31.6780 C   0  0  0  0  0  0  0  0  0  0  0  0
   -4.5271   20.3233  -31.1330 H   0  0  0  0  0  0  0  0  0  0  0  0
   -3.5238   19.0884  -32.0339 H   0  0  0  0  0  0  0  0  0  0  0  0
   -6.8430   20.1230  -32.8060 C   0  0  0  0  0  0  0  0  0  0  0  0
   -7.7270   19.4760  -31.9240 C   0  0  0  0  0  0  0  0  0  0  0  0
   -8.2736   20.0635  -31.1716 H   0  0  0  0  0  0  0  0  0  0  0  0
   -7.9170   18.0940  -31.9950 C   0  0  0  0  0  0  0  0  0  0  0  0
   -8.6145   17.5994  -31.3030 H   0  0  0  0  0  0  0  0  0  0  0  0
   -7.2230   17.3390  -32.9430 C   0  0  0  0  0  0  0  0  0  0  0  0
   -7.3762   16.2512  -32.9992 H   0  0  0  0  0  0  0  0  0  0  0  0
   -6.3350   17.9650  -33.8190 C   0  0  0  0  0  0  0  0  0  0  0  0
   -5.7872   17.3691  -34.5638 H   0  0  0  0  0  0  0  0  0  0  0  0
   -6.1400   19.3490  -33.7520 C   0  0  0  0  0  0  0  0  0  0  0  0
   -5.4343   19.8359  -34.4412 H   0  0  0  0  0  0  0  0  0  0  0  0
  1  2  1  0
  2  3  2  0
  3  4  1  0
  3  5  1  0
  5  6  1  0
  5  7  1  0
  5  8  1  0
  8  9  1  0
  9 10  1  0
  9 11  1  0
  9 12  1  0
 12 13  1  0
 12 14  1  0
 12 15  1  0
 15 16  1  0
 15 17  1  0
 17 18  1  0
 17 19  1  0
 17 20  1  0
 20 21  1  0
 20 22  1  0
 20 23  1  0
 23 24  1  0
 23 25  1  0
 23 26  1  0
 26 27  1  0
 27 28  2  0
 28 29  1  0
 28 30  1  0
 30 31  1  0
 30 32  2  0
 32 33  1  0
 33 34  2  0
 33 35  1  0
 35 36  1  0
 35 37  1  0
 35 38  1  0
 32 39  1  0
 39 40  1  0
 39 41  2  0
 41 42  1  0
 42 43  1  0
 43 44  1  0
 43 45  1  0
 43 46  1  0
 15 47  1  0
 47 48  1  0
 47 49  1  0
 47 50  1  0
 50 51  1  0
 50 52  1  0
  2 53  1  0
 53 54  2  0
 54 55  1  0
 54 56  1  0
 56 57  1  0
 56 58  2  0
 58 59  1  0
 58 60  1  0
 60 61  1  0
 60 62  2  0
 62 63  1  0
 50  8  1  0
 62 53  1  0
 41 27  1  0
M  CHG  1  15   1
M  END
>  <UniqueID>  (8) 
8

>  <SMILES>  (8) 
COc1cc(C(C)=O)ccc1OCCC[NH+]1CCN(C/C=C/c2ccccc2)CC1

>  <Energy>  (8) 
79.06774890393224

>  <Genealogy>  (8) 
COc1cc(C(C)=O)ccc1OCCC[NH+]1CCN(CC=Cc2ccccc2)CC1 (protonated)
COc1cc(C(C)=O)ccc1OCCC[NH+]1CCN(C/C=C/c2ccccc2)CC1 (cis-trans isomerization)
COc1cc(C(C)=O)ccc1OCCC[NH+]1CCN(C/C=C/c2ccccc2)CC1 (3D coordinates assigned)
COc1cc(C(C)=O)ccc1OCCC[NH+]1CCN(C/C=C/c2ccccc2)CC1 (nonaromatic ring conformer: 79.06774890393224 kcal/mol)

>  <smiles>  (8) 
COc1cc(C(C)=O)ccc1OCCCN1CCN(CC=Cc2ccccc2)CC1

>  <score_type>  (8) 
oracle

>  <origin>  (8) 
adg

>  <m_score__min__energy>  (8) 
-8.7300000000000004

>  <m_primary>  (8) 
energy

$$$$
8:0
     RDKit          3D

 30 32  0  0  0  0  0  0  0  0999 V2000
   -5.4250   25.6730  -30.2050 C   0  0  0  0  0  0  0  0  0  0  0  0
   -4.8930   24.7940  -31.1910 O   0  0  0  0  0  0  0  0  0  0  0  0
   -5.4960   23.5920  -31.5910 C   0  0  0  0  0  0  0  0  0  0  0  0
   -4.7670   22.5420  -32.1760 C   0  0  0  0  0  0  0  0  0  0  0  0
   -5.4070   21.3590  -32.5570 C   0  0  0  0  0  0  0  0  0  0  0  0
   -6.7920   21.1980  -32.3520 C   0  0  0  0  0  0  0  0  0  0  0  0
   -7.4880   20.0180  -32.7180 C   0  0  0  0  0  0  0  0  0  0  0  0
   -6.8020   18.8280  -33.2720 C   0  0  0  0  0  0  0  0  0  0  0  0
   -6.0990   18.9100  -34.4830 C   0  0  0  0  0  0  0  0  0  0  0  0
   -5.4410   17.7790  -34.9740 C   0  0  0  0  0  0  0  0  0  0  0  0
   -5.4740   16.6130  -34.2750 N   0  0  0  0  0  0  0  0  0  0  0  0
   -6.1390   16.5100  -33.0930 C   0  0  0  0  0  0  0  0  0  0  0  0
   -6.8100   17.6160  -32.5670 C   0  0  0  0  0  0  0  0  0  0  0  0
   -8.8770   19.9610  -32.5340 C   0  0  0  0  0  0  0  0  0  0  0  0
   -9.5520   21.0460  -31.9750 C   0  0  0  0  0  0  0  0  0  0  0  0
   -8.8690   22.1600  -31.6120 N   0  0  0  0  0  0  0  0  0  0  0  0
   -7.5250   22.2680  -31.7820 C   0  0  0  0  0  0  0  0  0  0  0  0
   -6.8740   23.4460  -31.4030 C   0  0  0  0  0  0  0  0  0  0  0  0
   -5.1902   25.2850  -29.2028 H   0  0  0  0  0  0  0  0  0  0  0  0
   -4.9795   26.6715  -30.3253 H   0  0  0  0  0  0  0  0  0  0  0  0
   -6.5163   25.7415  -30.3253 H   0  0  0  0  0  0  0  0  0  0  0  0
   -3.6842   22.6521  -32.3353 H   0  0  0  0  0  0  0  0  0  0  0  0
   -4.8255   20.5481  -33.0200 H   0  0  0  0  0  0  0  0  0  0  0  0
   -6.0659   19.8569  -35.0418 H   0  0  0  0  0  0  0  0  0  0  0  0
   -4.8954   17.8321  -35.9277 H   0  0  0  0  0  0  0  0  0  0  0  0
   -6.1483   15.5533  -32.5501 H   0  0  0  0  0  0  0  0  0  0  0  0
   -7.3408   17.5370  -31.6068 H   0  0  0  0  0  0  0  0  0  0  0  0
   -9.4344   19.0603  -32.8306 H   0  0  0  0  0  0  0  0  0  0  0  0
  -10.6411   20.9980  -31.8282 H   0  0  0  0  0  0  0  0  0  0  0  0
   -7.4518   24.2664  -30.9523 H   0  0  0  0  0  0  0  0  0  0  0  0
  1  2  1  0
  2  3  1  0
  3  4  2  0
  4  5  1  0
  5  6  2  0
  6  7  1  0
  7  8  1  0
  8  9  2  0
  9 10  1  0
 10 11  2  0
 11 12  1  0
 12 13  2  0
  7 14  2  0
 14 15  1  0
 15 16  2  0
 16 17  1  0
 17 18  2  0
 18  3  1  0
 17  6  1  0
 13  8  1  0
  1 19  1  0
  1 20  1  0
  1 21  1  0
  4 22  1  0
  5 23  1  0
  9 24  1  0
 10 25  1  0
 12 26  1  0
 13 27  1  0
 14 28  1  0
 15 29  1  0
 18 30  1  0
M  END
>  <UniqueID>  (9) 
9

>  <SMILES>  (9) 
COc1ccc2c(-c3ccncc3)ccnc2c1

>  <Energy>  (9) 
45.01378937755233

>  <Genealogy>  (9) 
COc1ccc2c(-c3ccncc3)ccnc2c1 (3D coordinates assigned)
COc1ccc2c(-c3ccncc3)ccnc2c1 (optimized conformer: 45.01378937755233 kcal/mol)

>  <smiles>  (9) 
COc1ccc2c(-c3ccncc3)ccnc2c1

>  <score_type>  (9) 
oracle

>  <origin>  (9) 
adg

>  <m_score__min__energy>  (9) 
-7.9199999999999999

>  <m_primary>  (9) 
energy

$$$$
9:0
     RDKit          3D

 60 63  0  0  0  0  0  0  0  0999 V2000
   -5.2250   25.4440  -30.7880 C   0  0  0  0  0  0  0  0  0  0  0  0
   -3.8980   25.0220  -30.4900 O   0  0  0  0  0  0  0  0  0  0  0  0
   -3.5650   24.0920  -29.4940 C   0  0  0  0  0  0  0  0  0  0  0  0
   -3.6570   24.4020  -28.1200 C   0  0  0  0  0  0  0  0  0  0  0  0
   -3.3350   23.4460  -27.1580 C   0  0  0  0  0  0  0  0  0  0  0  0
   -2.9180   22.1730  -27.5500 C   0  0  0  0  0  0  0  0  0  0  0  0
   -2.8210   21.8530  -28.9060 C   0  0  0  0  0  0  0  0  0  0  0  0
   -3.1380   22.8080  -29.8810 C   0  0  0  0  0  0  0  0  0  0  0  0
   -2.9940   22.4730  -31.2700 N   0  0  0  0  0  0  0  0  0  0  0  0
   -1.7210   21.9280  -31.7590 C   0  0  0  0  0  0  0  0  0  0  0  0
   -1.9540   20.9920  -32.9510 C   0  0  0  0  0  0  0  0  0  0  0  0
   -3.3010   20.3980  -32.8410 N   0  0  0  0  0  0  0  0  0  0  0  0
   -3.4740   19.2410  -33.7450 C   0  0  0  0  0  0  0  0  0  0  0  0
   -3.9710   18.0040  -32.9640 C   0  0  0  0  0  0  0  0  0  0  0  0
   -5.3070   17.5200  -33.3970 N   0  0  0  0  0  0  0  0  0  0  0  0
   -6.1240   17.2150  -32.2370 C   0  0  0  0  0  0  0  0  0  0  0  0
   -5.7820   16.3180  -31.4790 O   0  0  0  0  0  0  0  0  0  0  0  0
   -7.4450   17.9010  -31.9910 C   0  0  0  0  0  0  0  0  0  0  0  0
   -7.3810   19.4050  -32.3460 C   0  0  0  0  0  0  0  0  0  0  0  0
   -8.7850   20.0250  -32.2280 C   0  0  0  0  0  0  0  0  0  0  0  0
   -8.5560   21.5040  -31.9730 C   0  0  0  0  0  0  0  0  0  0  0  0
   -7.2380   21.5930  -31.2100 C   0  0  0  0  0  0  0  0  0  0  0  0
   -6.5690   20.2200  -31.3150 C   0  0  0  0  0  0  0  0  0  0  0  0
   -6.8150   19.6050  -33.7860 C   0  0  0  0  0  0  0  0  0  0  0  0
   -5.9770   18.4500  -34.2880 C   0  0  0  0  0  0  0  0  0  0  0  0
   -5.8660   18.3040  -35.4970 O   0  0  0  0  0  0  0  0  0  0  0  0
   -4.3220   21.4350  -33.0980 C   0  0  0  0  0  0  0  0  0  0  0  0
   -4.1140   22.6750  -32.2000 C   0  0  0  0  0  0  0  0  0  0  0  0
   -5.7735   25.6184  -29.8506 H   0  0  0  0  0  0  0  0  0  0  0  0
   -5.1911   26.3757  -31.3718 H   0  0  0  0  0  0  0  0  0  0  0  0
   -5.7355   24.6639  -31.3718 H   0  0  0  0  0  0  0  0  0  0  0  0
   -3.9848   25.4041  -27.8065 H   0  0  0  0  0  0  0  0  0  0  0  0
   -3.4096   23.6950  -26.0892 H   0  0  0  0  0  0  0  0  0  0  0  0
   -2.6651   21.4199  -26.7891 H   0  0  0  0  0  0  0  0  0  0  0  0
   -2.4945   20.8474  -29.2097 H   0  0  0  0  0  0  0  0  0  0  0  0
   -1.0701   22.7573  -32.0730 H   0  0  0  0  0  0  0  0  0  0  0  0
   -1.2464   21.3562  -30.9480 H   0  0  0  0  0  0  0  0  0  0  0  0
   -1.8783   21.5629  -33.8882 H   0  0  0  0  0  0  0  0  0  0  0  0
   -1.1958   20.1951  -32.9509 H   0  0  0  0  0  0  0  0  0  0  0  0
   -4.2100   19.4969  -34.5215 H   0  0  0  0  0  0  0  0  0  0  0  0
   -2.5024   19.0024  -34.2021 H   0  0  0  0  0  0  0  0  0  0  0  0
   -3.2447   17.1900  -33.1046 H   0  0  0  0  0  0  0  0  0  0  0  0
   -4.0651   18.3061  -31.9105 H   0  0  0  0  0  0  0  0  0  0  0  0
   -5.1760   16.6180  -33.9130 H   0  0  0  0  0  0  0  0  0  0  0  0
   -8.2172   17.4208  -32.6099 H   0  0  0  0  0  0  0  0  0  0  0  0
   -7.6857   17.8101  -30.9215 H   0  0  0  0  0  0  0  0  0  0  0  0
   -9.3493   19.8787  -33.1608 H   0  0  0  0  0  0  0  0  0  0  0  0
   -9.3705   19.5582  -31.4223 H   0  0  0  0  0  0  0  0  0  0  0  0
   -8.4856   22.0508  -32.9249 H   0  0  0  0  0  0  0  0  0  0  0  0
   -9.3849   21.9507  -31.4043 H   0  0  0  0  0  0  0  0  0  0  0  0
   -6.5930   22.3632  -31.6580 H   0  0  0  0  0  0  0  0  0  0  0  0
   -7.4097   21.8677  -30.1588 H   0  0  0  0  0  0  0  0  0  0  0  0
   -5.5286   20.3308  -31.6546 H   0  0  0  0  0  0  0  0  0  0  0  0
   -6.5509   19.7142  -30.3383 H   0  0  0  0  0  0  0  0  0  0  0  0
   -7.6624   19.7412  -34.4740 H   0  0  0  0  0  0  0  0  0  0  0  0
   -6.1530   20.4827  -33.7467 H   0  0  0  0  0  0  0  0  0  0  0  0
   -4.2597   21.7434  -34.1520 H   0  0  0  0  0  0  0  0  0  0  0  0
   -5.3099   21.0081  -32.8705 H   0  0  0  0  0  0  0  0  0  0  0  0
   -3.9004   23.5471  -32.8355 H   0  0  0  0  0  0  0  0  0  0  0  0
   -5.0299   22.8391  -31.6134 H   0  0  0  0  0  0  0  0  0  0  0  0
  1  2  1  0
  2  3  1  0
  3  4  2  0
  4  5  1  0
  5  6  2  0
  6  7  1  0
  7  8  2  0
  8  9  1  0
  9 10  1  0
 10 11  1  0
 11 12  1  0
 12 13  1  0
 13 14  1  0
 14 15  1  0
 15 16  1  0
 16 17  2  0
 16 18  1  0
 18 19  1  0
 19 20  1  0
 20 21  1  0
 21 22  1  0
 22 23  1  0
 19 24  1  0
 24 25  1  0
 25 26  2  0
 12 27  1  0
 27 28  1  0
  8  3  1  0
 28  9  1  0
 25 15  1  0
 23 19  1  0
  1 29  1  0
  1 30  1  0
  1 31  1  0
  4 32  1  0
  5 33  1  0
  6 34  1  0
  7 35  1  0
 10 36  1  0
 10 37  1  0
 11 38  1  0
 11 39  1  0
 13 40  1  0
 13 41  1  0
 14 42  1  0
 14 43  1  0
 15 44  1  0
 18 45  1  0
 18 46  1  0
 20 47  1  0
 20 48  1  0
 21 49  1  0
 21 50  1  0
 22 51  1  0
 22 52  1  0
 23 53  1  0
 23 54  1  0
 24 55  1  0
 24 56  1  0
 27 57  1  0
 27 58  1  0
 28 59  1  0
 28 60  1  0
M  CHG  1  15   1
M  END
>  <UniqueID>  (10) 
10

>  <SMILES>  (10) 
COc1ccccc1N1CCN(CC[NH+]2C(=O)CC3(CCCC3)CC2=O)CC1

>  <Energy>  (10) 
80.57232102746289

>  <Genealogy>  (10) 
COc1ccccc1N1CCN(CC[NH+]2C(=O)CC3(CCCC3)CC2=O)CC1 (protonated)
COc1ccccc1N1CCN(CC[NH+]2C(=O)CC3(CCCC3)CC2=O)CC1 (3D coordinates assigned)
COc1ccccc1N1CCN(CC[NH+]2C(=O)CC3(CCCC3)CC2=O)CC1 (nonaromatic ring conformer: 80.57232102746289 kcal/mol)

>  <smiles>  (10) 
COc1ccccc1N1CCN(CCN2C(=O)CC3(CCCC3)CC2=O)CC1

>  <score_type>  (10) 
oracle

>  <origin>  (10) 
adg

>  <m_score__min__energy>  (10) 
-9.2599999999999998

>  <m_primary>  (10) 
energy

$$$$
10:0
     RDKit          3D

 54 57  0  0  0  0  0  0  0  0999 V2000
   -6.5330   18.0820  -31.6300 C   0  0  0  0  0  0  0  0  0  0  0  0
   -7.5100   18.5920  -32.6060 N   0  0  0  0  0  0  0  0  0  0  0  0
   -8.8000   18.9720  -31.9760 C   0  0  0  0  0  0  0  0  0  0  0  0
   -9.0650   20.4910  -31.9850 C   0  0  0  0  0  0  0  0  0  0  0  0
   -7.8220   21.2290  -31.6850 N   0  0  0  0  0  0  0  0  0  0  0  0
   -8.0500   22.6740  -31.4300 C   0  0  0  0  0  0  0  0  0  0  0  0
   -6.8250   23.5850  -31.6950 C   0  0  0  0  0  0  0  0  0  0  0  0
   -6.2170   24.1390  -30.3910 C   0  0  0  0  0  0  0  0  0  0  0  0
   -5.6210   23.0730  -29.4420 C   0  0  0  0  0  0  0  0  0  0  0  0
   -4.1360   23.1390  -29.3550 N   0  0  0  0  0  0  0  0  0  0  0  0
   -3.3700   22.4900  -30.3200 C   0  0  0  0  0  0  0  0  0  0  0  0
   -3.9530   21.7260  -31.3730 C   0  0  0  0  0  0  0  0  0  0  0  0
   -3.1650   21.0910  -32.3340 C   0  0  0  0  0  0  0  0  0  0  0  0
   -1.7830   21.1890  -32.2840 C   0  0  0  0  0  0  0  0  0  0  0  0
   -1.1760   21.9240  -31.2720 C   0  0  0  0  0  0  0  0  0  0  0  0
   -1.9510   22.5770  -30.2900 C   0  0  0  0  0  0  0  0  0  0  0  0
   -1.3230   23.3170  -29.2860 C   0  0  0  0  0  0  0  0  0  0  0  0
   -0.0630   23.4040  -29.2600 O   0  0  0  0  0  0  0  0  0  0  0  0
   -2.0880   23.9600  -28.3090 C   0  0  0  0  0  0  0  0  0  0  0  0
   -1.4460   24.7120  -27.3010 C   0  0  0  0  0  0  0  0  0  0  0  0
   -2.1830   25.3640  -26.3190 C   0  0  0  0  0  0  0  0  0  0  0  0
   -1.2980   26.3920  -24.9730 Br  0  0  0  0  0  0  0  0  0  0  0  0
   -3.5680   25.2750  -26.3240 C   0  0  0  0  0  0  0  0  0  0  0  0
   -4.2260   24.5420  -27.3130 C   0  0  0  0  0  0  0  0  0  0  0  0
   -3.5080   23.8630  -28.3410 C   0  0  0  0  0  0  0  0  0  0  0  0
   -6.7700   20.9940  -32.7070 C   0  0  0  0  0  0  0  0  0  0  0  0
   -6.9340   19.6530  -33.4570 C   0  0  0  0  0  0  0  0  0  0  0  0
   -6.8992   18.2732  -30.6105 H   0  0  0  0  0  0  0  0  0  0  0  0
   -6.4005   16.9997  -31.7751 H   0  0  0  0  0  0  0  0  0  0  0  0
   -5.5693   18.5921  -31.7751 H   0  0  0  0  0  0  0  0  0  0  0  0
   -9.6144   18.4733  -32.5219 H   0  0  0  0  0  0  0  0  0  0  0  0
   -8.7505   18.6584  -30.9228 H   0  0  0  0  0  0  0  0  0  0  0  0
   -9.4337   20.7893  -32.9775 H   0  0  0  0  0  0  0  0  0  0  0  0
   -9.8164   20.7280  -31.2174 H   0  0  0  0  0  0  0  0  0  0  0  0
   -7.4590   20.8470  -30.7790 H   0  0  0  0  0  0  0  0  0  0  0  0
   -8.8722   23.0098  -32.0790 H   0  0  0  0  0  0  0  0  0  0  0  0
   -8.2762   22.7658  -30.3574 H   0  0  0  0  0  0  0  0  0  0  0  0
   -6.0572   23.0010  -32.2235 H   0  0  0  0  0  0  0  0  0  0  0  0
   -7.1646   24.4397  -32.2985 H   0  0  0  0  0  0  0  0  0  0  0  0
   -5.4152   24.8423  -30.6604 H   0  0  0  0  0  0  0  0  0  0  0  0
   -7.0456   24.6100  -29.8418 H   0  0  0  0  0  0  0  0  0  0  0  0
   -6.0385   23.2262  -28.4359 H   0  0  0  0  0  0  0  0  0  0  0  0
   -5.8839   22.0854  -29.8488 H   0  0  0  0  0  0  0  0  0  0  0  0
   -5.0478   21.6350  -31.4293 H   0  0  0  0  0  0  0  0  0  0  0  0
   -3.6432   20.5093  -33.1358 H   0  0  0  0  0  0  0  0  0  0  0  0
   -1.1674   20.6858  -33.0442 H   0  0  0  0  0  0  0  0  0  0  0  0
   -0.0790   21.9974  -31.2363 H   0  0  0  0  0  0  0  0  0  0  0  0
   -0.3483   24.7829  -27.2926 H   0  0  0  0  0  0  0  0  0  0  0  0
   -4.1511   25.7855  -25.5434 H   0  0  0  0  0  0  0  0  0  0  0  0
   -5.3245   24.4868  -27.2990 H   0  0  0  0  0  0  0  0  0  0  0  0
   -6.8083   21.8117  -33.4417 H   0  0  0  0  0  0  0  0  0  0  0  0
   -5.8059   20.9557  -32.1788 H   0  0  0  0  0  0  0  0  0  0  0  0
   -7.5974   19.8111  -34.3201 H   0  0  0  0  0  0  0  0  0  0  0  0
   -5.9327   19.3219  -33.7696 H   0  0  0  0  0  0  0  0  0  0  0  0
  1  2  1  0
  2  3  1  0
  3  4  1  0
  4  5  1  0
  5  6  1  0
  6  7  1  0
  7  8  1  0
  8  9  1  0
  9 10  1  0
 10 11  1  0
 11 12  2  0
 12 13  1  0
 13 14  2  0
 14 15  1  0
 15 16  2  0
 16 17  1  0
 17 18  2  0
 17 19  1  0
 19 20  2  0
 20 21  1  0
 21 22  1  0
 21 23  2  0
 23 24  1  0
 24 25  2  0
  5 26  1  0
 26 27  1  0
 27  2  1  0
 25 10  1  0
 16 11  1  0
 25 19  1  0
  1 28  1  0
  1 29  1  0
  1 30  1  0
  3 31  1  0
  3 32  1  0
  4 33  1  0
  4 34  1  0
  5 35  1  0
  6 36  1  0
  6 37  1  0
  7 38  1  0
  7 39  1  0
  8 40  1  0
  8 41  1  0
  9 42  1  0
  9 43  1  0
 12 44  1  0
 13 45  1  0
 14 46  1  0
 15 47  1  0
 20 48  1  0
 23 49  1  0
 24 50  1  0
 26 51  1  0
 26 52  1  0
 27 53  1  0
 27 54  1  0
M  CHG  1   5   1
M  END
>  <UniqueID>  (11) 
11

>  <SMILES>  (11) 
CN1CC[NH+](CCCCn2c3ccccc3c(=O)c3cc(Br)ccc32)CC1

>  <Energy>  (11) 
91.45190974747327

>  <Genealogy>  (11) 
CN1CC[NH+](CCCCn2c3ccccc3c(=O)c3cc(Br)ccc32)CC1 (protonated)
CN1CC[NH+](CCCCn2c3ccccc3c(=O)c3cc(Br)ccc32)CC1 (3D coordinates assigned)
CN1CC[NH+](CCCCn2c3ccccc3c(=O)c3cc(Br)ccc32)CC1 (nonaromatic ring conformer: 91.45190974747327 kcal/mol)

>  <smiles>  (11) 
CN1CCN(CCCCn2c3ccccc3c(=O)c3cc(Br)ccc32)CC1

>  <score_type>  (11) 
oracle

>  <origin>  (11) 
adg

>  <m_score__min__energy>  (11) 
-8.5999999999999996

>  <m_primary>  (11) 
energy

$$$$
11:0
     RDKit          3D

 49 50  0  0  0  0  0  0  0  0999 V2000
   -3.9250   20.2370  -31.1540 C   0  0  0  0  0  0  0  0  0  0  0  0
   -2.7170   20.9760  -31.7410 C   0  0  0  0  0  0  0  0  0  0  0  0
   -2.8700   21.1510  -33.2590 C   0  0  0  0  0  0  0  0  0  0  0  0
   -2.4080   22.3100  -31.0120 C   0  0  0  0  0  0  0  0  0  0  0  0
   -3.5260   22.8520  -30.0900 C   0  0  0  0  0  0  0  0  0  0  0  0
   -3.6090   24.3830  -30.0920 C   0  0  0  0  0  0  0  0  0  0  0  0
   -4.6380   24.8160  -31.0530 N   0  0  0  0  0  0  0  0  0  0  0  0
   -5.8870   25.2350  -30.3930 C   0  0  0  0  0  0  0  0  0  0  0  0
   -6.8480   24.0450  -30.2460 C   0  0  0  0  0  0  0  0  0  0  0  0
   -7.4240   23.6080  -31.5990 C   0  0  0  0  0  0  0  0  0  0  0  0
   -6.4120   22.9590  -32.4410 N   0  0  0  0  0  0  0  0  0  0  0  0
   -6.7610   21.5690  -32.5860 C   0  0  0  0  0  0  0  0  0  0  0  0
   -7.8040   21.0090  -31.8340 C   0  0  0  0  0  0  0  0  0  0  0  0
   -8.0400   19.6330  -31.8880 C   0  0  0  0  0  0  0  0  0  0  0  0
   -8.9810   19.1400  -31.2080 O   0  0  0  0  0  0  0  0  0  0  0  0
   -7.2200   18.8150  -32.6870 C   0  0  0  0  0  0  0  0  0  0  0  0
   -7.3980   17.4210  -32.7590 C   0  0  0  0  0  0  0  0  0  0  0  0
   -6.5480   16.6440  -33.5520 C   0  0  0  0  0  0  0  0  0  0  0  0
   -5.5170   17.2480  -34.2780 C   0  0  0  0  0  0  0  0  0  0  0  0
   -5.3320   18.6310  -34.2160 C   0  0  0  0  0  0  0  0  0  0  0  0
   -6.1760   19.4180  -33.4270 C   0  0  0  0  0  0  0  0  0  0  0  0
   -5.9780   20.7600  -33.3530 N   0  0  0  0  0  0  0  0  0  0  0  0
   -3.8752   20.2675  -30.0556 H   0  0  0  0  0  0  0  0  0  0  0  0
   -4.8520   20.7228  -31.4926 H   0  0  0  0  0  0  0  0  0  0  0  0
   -3.9146   19.1905  -31.4926 H   0  0  0  0  0  0  0  0  0  0  0  0
   -1.8332   20.3446  -31.5669 H   0  0  0  0  0  0  0  0  0  0  0  0
   -3.5813   21.9646  -33.4645 H   0  0  0  0  0  0  0  0  0  0  0  0
   -1.8930   21.3981  -33.6999 H   0  0  0  0  0  0  0  0  0  0  0  0
   -3.2453   20.2157  -33.6999 H   0  0  0  0  0  0  0  0  0  0  0  0
   -1.5087   22.1574  -30.3971 H   0  0  0  0  0  0  0  0  0  0  0  0
   -2.2871   23.0616  -31.8060 H   0  0  0  0  0  0  0  0  0  0  0  0
   -4.4901   22.4475  -30.4318 H   0  0  0  0  0  0  0  0  0  0  0  0
   -3.2908   22.5348  -29.0633 H   0  0  0  0  0  0  0  0  0  0  0  0
   -3.8748   24.7374  -29.0852 H   0  0  0  0  0  0  0  0  0  0  0  0
   -2.6349   24.8034  -30.3825 H   0  0  0  0  0  0  0  0  0  0  0  0
   -4.2530   25.6250  -31.5950 H   0  0  0  0  0  0  0  0  0  0  0  0
   -5.6520   25.6350  -29.3956 H   0  0  0  0  0  0  0  0  0  0  0  0
   -6.3712   26.0072  -31.0089 H   0  0  0  0  0  0  0  0  0  0  0  0
   -6.3026   23.1996  -29.8013 H   0  0  0  0  0  0  0  0  0  0  0  0
   -7.6840   24.3578  -29.6032 H   0  0  0  0  0  0  0  0  0  0  0  0
   -8.2473   22.9001  -31.4230 H   0  0  0  0  0  0  0  0  0  0  0  0
   -7.7792   24.5067  -32.1245 H   0  0  0  0  0  0  0  0  0  0  0  0
   -5.4720   23.0270  -31.9850 H   0  0  0  0  0  0  0  0  0  0  0  0
   -6.3680   23.4260  -33.3770 H   0  0  0  0  0  0  0  0  0  0  0  0
   -8.4351   21.6519  -31.2028 H   0  0  0  0  0  0  0  0  0  0  0  0
   -8.2080   16.9413  -32.1899 H   0  0  0  0  0  0  0  0  0  0  0  0
   -6.6908   15.5546  -33.6048 H   0  0  0  0  0  0  0  0  0  0  0  0
   -4.8500   16.6325  -34.8995 H   0  0  0  0  0  0  0  0  0  0  0  0
   -4.5201   19.1021  -34.7895 H   0  0  0  0  0  0  0  0  0  0  0  0
  1  2  1  0
  2  3  1  0
  2  4  1  0
  4  5  1  0
  5  6  1  0
  6  7  1  0
  7  8  1  0
  8  9  1  0
  9 10  1  0
 10 11  1  0
 11 12  1  0
 12 13  2  0
 13 14  1  0
 14 15  2  0
 14 16  1  0
 16 17  2  0
 17 18  1  0
 18 19  2  0
 19 20  1  0
 20 21  2  0
 21 22  1  0
 22 12  1  0
 21 16  1  0
  1 23  1  0
  1 24  1  0
  1 25  1  0
  2 26  1  0
  3 27  1  0
  3 28  1  0
  3 29  1  0
  4 30  1  0
  4 31  1  0
  5 32  1  0
  5 33  1  0
  6 34  1  0
  6 35  1  0
  7 36  1  0
  8 37  1  0
  8 38  1  0
  9 39  1  0
  9 40  1  0
 10 41  1  0
 10 42  1  0
 11 43  1  0
 11 44  1  0
 13 45  1  0
 17 46  1  0
 18 47  1  0
 19 48  1  0
 20 49  1  0
M  CHG  2  11   1  22  -1
M  END
>  <UniqueID>  (12) 
12

>  <SMILES>  (12) 
CC(C)CCCNCCC[NH2+]c1cc(=O)c2ccccc2[n-]1

>  <Energy>  (12) 
41.7038779560011

>  <Genealogy>  (12) 
CC(C)CCCNCCC[NH2+]c1cc(=O)c2ccccc2[n-]1 (protonated)
CC(C)CCCNCCC[NH2+]c1cc(=O)c2ccccc2[n-]1 (3D coordinates assigned)
CC(C)CCCNCCC[NH2+]c1cc(=O)c2ccccc2[n-]1 (optimized conformer: 41.7038779560011 kcal/mol)

>  <smiles>  (12) 
CC(C)CCCNCCCNc1cc(=O)c2ccccc2[nH]1

>  <score_type>  (12) 
oracle

>  <origin>  (12) 
adg

>  <m_score__min__energy>  (12) 
-7.2300000000000004

>  <m_primary>  (12) 
energy

$$$$
12:0
     RDKit          3D

 47 48  0  0  0  0  0  0  0  0999 V2000
    1.5080   24.7960  -26.8420 C   0  0  0  0  0  0  0  0  0  0  0  0
    0.6010   24.8680  -27.9370 O   0  0  0  0  0  0  0  0  0  0  0  0
   -0.7820   24.6440  -27.8550 C   0  0  0  0  0  0  0  0  0  0  0  0
   -1.5290   25.1410  -26.7690 C   0  0  0  0  0  0  0  0  0  0  0  0
   -2.9010   24.9140  -26.6820 C   0  0  0  0  0  0  0  0  0  0  0  0
   -3.5530   24.1880  -27.6740 C   0  0  0  0  0  0  0  0  0  0  0  0
   -2.8380   23.6870  -28.7720 C   0  0  0  0  0  0  0  0  0  0  0  0
   -3.5610   22.8820  -29.8220 C   0  0  0  0  0  0  0  0  0  0  0  0
   -4.0530   23.7630  -30.8720 N   0  0  0  0  0  0  0  0  0  0  0  0
   -5.0070   24.8060  -30.6510 C   0  0  0  0  0  0  0  0  0  0  0  0
   -4.6240   25.9920  -30.4640 O   0  0  0  0  0  0  0  0  0  0  0  0
   -6.4790   24.4850  -30.6380 C   0  0  0  0  0  0  0  0  0  0  0  0
   -6.7660   23.0300  -30.6070 N   0  0  1  0  0  0  0  0  0  0  0  0
   -7.5920   22.6760  -29.4330 C   0  0  0  0  0  0  0  0  0  0  0  0
   -7.3530   22.5630  -31.8590 C   0  0  0  0  0  0  0  0  0  0  0  0
   -7.7480   23.3960  -32.7230 O   0  0  0  0  0  0  0  0  0  0  0  0
   -7.4580   21.1110  -32.1910 C   0  0  0  0  0  0  0  0  0  0  0  0
   -6.3250   20.4540  -32.7090 C   0  0  0  0  0  0  0  0  0  0  0  0
   -6.3650   19.0910  -33.0110 C   0  0  0  0  0  0  0  0  0  0  0  0
   -7.5380   18.3630  -32.8050 C   0  0  0  0  0  0  0  0  0  0  0  0
   -7.5760   17.0390  -33.0950 F   0  0  0  0  0  0  0  0  0  0  0  0
   -8.6770   19.0010  -32.3090 C   0  0  0  0  0  0  0  0  0  0  0  0
   -8.6460   20.3670  -32.0070 C   0  0  0  0  0  0  0  0  0  0  0  0
   -9.7910   20.9490  -31.5730 F   0  0  0  0  0  0  0  0  0  0  0  0
   -1.4460   23.9060  -28.8720 C   0  0  0  0  0  0  0  0  0  0  0  0
   -0.7890   23.3700  -29.9970 O   0  0  0  0  0  0  0  0  0  0  0  0
   -0.5400   21.9940  -30.2650 C   0  0  0  0  0  0  0  0  0  0  0  0
    0.9464   24.8406  -25.8972 H   0  0  0  0  0  0  0  0  0  0  0  0
    2.0681   23.8506  -26.8914 H   0  0  0  0  0  0  0  0  0  0  0  0
    2.2103   25.6412  -26.8914 H   0  0  0  0  0  0  0  0  0  0  0  0
   -1.0227   25.7157  -25.9795 H   0  0  0  0  0  0  0  0  0  0  0  0
   -3.4698   25.3094  -25.8275 H   0  0  0  0  0  0  0  0  0  0  0  0
   -4.6351   24.0059  -27.5968 H   0  0  0  0  0  0  0  0  0  0  0  0
   -2.8690   22.1464  -30.2579 H   0  0  0  0  0  0  0  0  0  0  0  0
   -4.4121   22.3628  -29.3572 H   0  0  0  0  0  0  0  0  0  0  0  0
   -6.9286   24.9478  -29.7472 H   0  0  0  0  0  0  0  0  0  0  0  0
   -6.9049   24.8794  -31.5724 H   0  0  0  0  0  0  0  0  0  0  0  0
   -5.8610   22.5300  -30.4690 H   0  0  0  0  0  0  0  0  0  0  0  0
   -7.0399   22.9126  -28.5115 H   0  0  0  0  0  0  0  0  0  0  0  0
   -8.5291   23.2515  -29.4570 H   0  0  0  0  0  0  0  0  0  0  0  0
   -7.8215   21.6005  -29.4570 H   0  0  0  0  0  0  0  0  0  0  0  0
   -5.3977   21.0211  -32.8777 H   0  0  0  0  0  0  0  0  0  0  0  0
   -5.4711   18.5906  -33.4117 H   0  0  0  0  0  0  0  0  0  0  0  0
   -9.6027   18.4271  -32.1550 H   0  0  0  0  0  0  0  0  0  0  0  0
   -0.4411   21.4476  -29.3155 H   0  0  0  0  0  0  0  0  0  0  0  0
   -1.3770   21.5758  -30.8433 H   0  0  0  0  0  0  0  0  0  0  0  0
    0.3905   21.8956  -30.8433 H   0  0  0  0  0  0  0  0  0  0  0  0
  1  2  1  0
  2  3  1  0
  3  4  2  0
  4  5  1  0
  5  6  2  0
  6  7  1  0
  7  8  1  0
  8  9  1  0
  9 10  1  0
 10 11  2  0
 10 12  1  0
 12 13  1  0
 13 14  1  0
 13 15  1  0
 15 16  2  0
 15 17  1  0
 17 18  2  0
 18 19  1  0
 19 20  2  0
 20 21  1  0
 20 22  1  0
 22 23  2  0
 23 24  1  0
  7 25  2  0
 25 26  1  0
 26 27  1  0
 25  3  1  0
 23 17  1  0
  1 28  1  0
  1 29  1  0
  1 30  1  0
  4 31  1  0
  5 32  1  0
  6 33  1  0
  8 34  1  0
  8 35  1  0
 12 36  1  0
 12 37  1  0
 13 38  1  1
 14 39  1  0
 14 40  1  0
 14 41  1  0
 18 42  1  0
 19 43  1  0
 22 44  1  0
 27 45  1  0
 27 46  1  0
 27 47  1  0
M  CHG  2   9  -1  13   1
M  END
>  <UniqueID>  (13) 
13

>  <SMILES>  (13) 
COc1cccc(C[N-]C(=O)C[N@@H+](C)C(=O)c2ccc(F)cc2F)c1OC

>  <Energy>  (13) 
55.71862268950828

>  <Genealogy>  (13) 
COc1cccc(C[N-]C(=O)C[NH+](C)C(=O)c2ccc(F)cc2F)c1OC (protonated)
COc1cccc(C[N-]C(=O)C[N@@H+](C)C(=O)c2ccc(F)cc2F)c1OC (chirality)
COc1cccc(C[N-]C(=O)C[N@@H+](C)C(=O)c2ccc(F)cc2F)c1OC (3D coordinates assigned)
COc1cccc(C[N-]C(=O)C[N@@H+](C)C(=O)c2ccc(F)cc2F)c1OC (optimized conformer: 55.71862268950828 kcal/mol)

>  <smiles>  (13) 
COc1cccc(CNC(=O)CN(C)C(=O)c2ccc(F)cc2F)c1OC

>  <score_type>  (13) 
oracle

>  <origin>  (13) 
adg

>  <m_score__min__energy>  (13) 
-9.2100000000000009

>  <m_primary>  (13) 
energy

$$$$
13:0
     RDKit          3D

 35 38  0  0  0  0  0  0  0  0999 V2000
   -4.2550   16.0190  -34.9540 C   0  0  0  0  0  0  0  0  0  0  0  0
   -5.0750   17.0300  -34.2100 C   0  0  0  0  0  0  0  0  0  0  0  0
   -4.6780   18.3850  -34.1850 C   0  0  0  0  0  0  0  0  0  0  0  0
   -5.4710   19.3310  -33.5210 C   0  0  0  0  0  0  0  0  0  0  0  0
   -6.6110   18.9060  -32.9120 N   0  0  0  0  0  0  0  0  0  0  0  0
   -7.5650   19.5800  -32.2420 C   0  0  0  0  0  0  0  0  0  0  0  0
   -7.5590   21.0190  -31.9080 C   0  0  0  0  0  0  0  0  0  0  0  0
   -8.7240   21.7840  -32.0600 C   0  0  0  0  0  0  0  0  0  0  0  0
   -8.7240   23.1040  -31.7390 N   0  0  0  0  0  0  0  0  0  0  0  0
   -7.6170   23.7230  -31.2530 C   0  0  0  0  0  0  0  0  0  0  0  0
   -6.4300   23.0010  -31.0610 C   0  0  0  0  0  0  0  0  0  0  0  0
   -5.2230   23.6550  -30.5190 C   0  0  0  0  0  0  0  0  0  0  0  0
   -4.7320   23.4400  -29.2820 N   0  0  0  0  0  0  0  0  0  0  0  0
   -3.6510   24.2460  -29.2830 C   0  0  0  0  0  0  0  0  0  0  0  0
   -2.7600   24.4320  -28.1020 C   0  0  0  0  0  0  0  0  0  0  0  0
   -3.5070   24.9220  -30.4390 N   0  0  0  0  0  0  0  0  0  0  0  0
   -4.4950   24.5240  -31.1800 O   0  0  0  0  0  0  0  0  0  0  0  0
   -6.4130   21.6370  -31.3870 C   0  0  0  0  0  0  0  0  0  0  0  0
   -8.5600   18.6710  -31.9090 C   0  0  0  0  0  0  0  0  0  0  0  0
   -8.2240   17.4370  -32.3550 N   0  0  0  0  0  0  0  0  0  0  0  0
   -7.0330   17.6300  -32.9570 C   0  0  0  0  0  0  0  0  0  0  0  0
   -6.2870   16.6470  -33.6030 C   0  0  0  0  0  0  0  0  0  0  0  0
   -3.7303   15.3721  -34.2355 H   0  0  0  0  0  0  0  0  0  0  0  0
   -4.9141   15.4058  -35.5861 H   0  0  0  0  0  0  0  0  0  0  0  0
   -3.5190   16.5374  -35.5861 H   0  0  0  0  0  0  0  0  0  0  0  0
   -3.7493   18.6971  -34.6851 H   0  0  0  0  0  0  0  0  0  0  0  0
   -5.1788   20.3911  -33.4930 H   0  0  0  0  0  0  0  0  0  0  0  0
   -9.6423   21.3132  -32.4409 H   0  0  0  0  0  0  0  0  0  0  0  0
   -7.6516   24.7950  -31.0090 H   0  0  0  0  0  0  0  0  0  0  0  0
   -3.3450   24.3099  -27.1785 H   0  0  0  0  0  0  0  0  0  0  0  0
   -1.9553   23.6825  -28.1281 H   0  0  0  0  0  0  0  0  0  0  0  0
   -2.3224   25.4409  -28.1281 H   0  0  0  0  0  0  0  0  0  0  0  0
   -5.4962   21.0490  -31.2332 H   0  0  0  0  0  0  0  0  0  0  0  0
   -9.4836   18.9163  -31.3642 H   0  0  0  0  0  0  0  0  0  0  0  0
   -6.6337   15.6037  -33.6381 H   0  0  0  0  0  0  0  0  0  0  0  0
  1  2  1  0
  2  3  1  0
  3  4  2  0
  4  5  1  0
  5  6  1  0
  6  7  1  0
  7  8  2  0
  8  9  1  0
  9 10  2  0
 10 11  1  0
 11 12  1  0
 12 13  2  0
 13 14  1  0
 14 15  1  0
 14 16  2  0
 16 17  1  0
 11 18  2  0
  6 19  2  0
 19 20  1  0
 20 21  2  0
 21 22  1  0
 22  2  2  0
 21  5  1  0
 18  7  1  0
 17 12  1  0
  1 23  1  0
  1 24  1  0
  1 25  1  0
  3 26  1  0
  4 27  1  0
  8 28  1  0
 10 29  1  0
 15 30  1  0
 15 31  1  0
 15 32  1  0
 18 33  1  0
 19 34  1  0
 22 35  1  0
M  END
>  <UniqueID>  (14) 
14

>  <SMILES>  (14) 
Cc1ccn2c(-c3cncc(-c4nc(C)no4)c3)cnc2c1

>  <Energy>  (14) 
110.88199860644694

>  <Genealogy>  (14) 
Cc1ccn2c(-c3cncc(-c4nc(C)no4)c3)cnc2c1 (3D coordinates assigned)
Cc1ccn2c(-c3cncc(-c4nc(C)no4)c3)cnc2c1 (optimized conformer: 110.88199860644694 kcal/mol)

>  <smiles>  (14) 
Cc1ccn2c(-c3cncc(-c4nc(C)no4)c3)cnc2c1

>  <score_type>  (14) 
oracle

>  <origin>  (14) 
adg

>  <m_score__min__energy>  (14) 
-8.5899999999999999

>  <m_primary>  (14) 
energy

$$$$
14:0
     RDKit          3D

 32 34  0  0  0  0  0  0  0  0999 V2000
   -5.7510   26.0580  -30.0940 C   0  0  0  0  0  0  0  0  0  0  0  0
   -5.6800   24.6420  -30.5610 C   0  0  0  0  0  0  0  0  0  0  0  0
   -6.7470   23.7720  -30.6650 C   0  0  0  0  0  0  0  0  0  0  0  0
   -6.2020   22.6310  -31.2240 C   0  0  0  0  0  0  0  0  0  0  0  0
   -6.9810   21.4420  -31.6370 C   0  0  0  0  0  0  0  0  0  0  0  0
   -6.3680   20.1780  -31.6730 C   0  0  0  0  0  0  0  0  0  0  0  0
   -7.1020   19.0490  -32.0500 C   0  0  0  0  0  0  0  0  0  0  0  0
   -8.4530   19.1710  -32.3830 C   0  0  0  0  0  0  0  0  0  0  0  0
   -9.0750   20.4210  -32.3330 C   0  0  0  0  0  0  0  0  0  0  0  0
   -8.3460   21.5520  -31.9560 C   0  0  0  0  0  0  0  0  0  0  0  0
   -4.8770   22.8390  -31.4270 N   0  0  0  0  0  0  0  0  0  0  0  0
   -3.8980   21.9050  -31.9130 C   0  0  0  0  0  0  0  0  0  0  0  0
   -3.8150   21.6320  -33.2890 C   0  0  0  0  0  0  0  0  0  0  0  0
   -2.8560   20.7370  -33.7740 C   0  0  0  0  0  0  0  0  0  0  0  0
   -1.9620   20.1210  -32.8930 C   0  0  0  0  0  0  0  0  0  0  0  0
   -1.0330   19.2550  -33.3650 F   0  0  0  0  0  0  0  0  0  0  0  0
   -2.0240   20.4040  -31.5260 C   0  0  0  0  0  0  0  0  0  0  0  0
   -2.9820   21.2970  -31.0360 C   0  0  0  0  0  0  0  0  0  0  0  0
   -4.5610   24.0640  -31.0370 N   0  0  0  0  0  0  0  0  0  0  0  0
   -5.7522   26.0818  -28.9943 H   0  0  0  0  0  0  0  0  0  0  0  0
   -4.8795   26.6128  -30.4718 H   0  0  0  0  0  0  0  0  0  0  0  0
   -6.6736   26.5229  -30.4718 H   0  0  0  0  0  0  0  0  0  0  0  0
   -7.7923   23.9468  -30.3703 H   0  0  0  0  0  0  0  0  0  0  0  0
   -5.3064   20.0762  -31.4035 H   0  0  0  0  0  0  0  0  0  0  0  0
   -6.6147   18.0634  -32.0844 H   0  0  0  0  0  0  0  0  0  0  0  0
   -9.0274   18.2827  -32.6847 H   0  0  0  0  0  0  0  0  0  0  0  0
  -10.1402   20.5150  -32.5908 H   0  0  0  0  0  0  0  0  0  0  0  0
   -8.8422   22.5326  -31.9086 H   0  0  0  0  0  0  0  0  0  0  0  0
   -4.5074   22.1244  -33.9877 H   0  0  0  0  0  0  0  0  0  0  0  0
   -2.8050   20.5173  -34.8506 H   0  0  0  0  0  0  0  0  0  0  0  0
   -1.3174   19.9231  -30.8336 H   0  0  0  0  0  0  0  0  0  0  0  0
   -3.0193   21.5248  -29.9605 H   0  0  0  0  0  0  0  0  0  0  0  0
  1  2  1  0
  2  3  1  0
  3  4  2  0
  4  5  1  0
  5  6  2  0
  6  7  1  0
  7  8  2  0
  8  9  1  0
  9 10  2  0
  4 11  1  0
 11 12  1  0
 12 13  2  0
 13 14  1  0
 14 15  2  0
 15 16  1  0
 15 17  1  0
 17 18  2  0
 11 19  1  0
 19  2  2  0
 10  5  1  0
 18 12  1  0
  1 20  1  0
  1 21  1  0
  1 22  1  0
  3 23  1  0
  6 24  1  0
  7 25  1  0
  8 26  1  0
  9 27  1  0
 10 28  1  0
 13 29  1  0
 14 30  1  0
 17 31  1  0
 18 32  1  0
M  END
>  <UniqueID>  (15) 
15

>  <SMILES>  (15) 
Cc1cc(-c2ccccc2)n(-c2ccc(F)cc2)n1

>  <Energy>  (15) 
72.20939547486789

>  <Genealogy>  (15) 
Cc1cc(-c2ccccc2)n(-c2ccc(F)cc2)n1 (3D coordinates assigned)
Cc1cc(-c2ccccc2)n(-c2ccc(F)cc2)n1 (optimized conformer: 72.20939547486789 kcal/mol)

>  <smiles>  (15) 
Cc1cc(-c2ccccc2)n(-c2ccc(F)cc2)n1

>  <score_type>  (15) 
oracle

>  <origin>  (15) 
adg

>  <m_score__min__energy>  (15) 
-7.4500000000000002

>  <m_primary>  (15) 
energy

$$$$
15:0
     RDKit          3D

 33 35  0  0  0  0  0  0  0  0999 V2000
   -5.1353   21.0851  -32.9443 H   0  0  0  0  0  0  0  0  0  0  0  0
   -6.1210   21.3000  -32.5060 C   0  0  0  0  0  0  0  0  0  0  0  0
   -7.0750   20.2830  -32.4040 C   0  0  0  0  0  0  0  0  0  0  0  0
   -6.8447   19.2756  -32.7811 H   0  0  0  0  0  0  0  0  0  0  0  0
   -8.3300   20.5440  -31.8200 C   0  0  0  0  0  0  0  0  0  0  0  0
   -9.3220   19.5590  -31.6970 O   0  0  0  0  0  0  0  0  0  0  0  0
   -9.0610   18.1620  -31.6160 C   0  0  0  0  0  0  0  0  0  0  0  0
   -9.0046   17.8602  -30.5597 H   0  0  0  0  0  0  0  0  0  0  0  0
   -9.8712   17.6082  -32.1128 H   0  0  0  0  0  0  0  0  0  0  0  0
   -8.1055   17.9381  -32.1128 H   0  0  0  0  0  0  0  0  0  0  0  0
   -8.6040   21.8290  -31.3370 C   0  0  0  0  0  0  0  0  0  0  0  0
   -9.5787   22.0405  -30.8730 H   0  0  0  0  0  0  0  0  0  0  0  0
   -7.6500   22.8460  -31.4390 C   0  0  0  0  0  0  0  0  0  0  0  0
   -7.8691   23.8463  -31.0373 H   0  0  0  0  0  0  0  0  0  0  0  0
   -6.4170   22.5940  -32.0510 C   0  0  0  0  0  0  0  0  0  0  0  0
   -5.4270   23.6270  -32.0960 N   0  0  0  0  0  0  0  0  0  0  0  0
   -4.4860   23.8450  -31.2190 C   0  0  0  0  0  0  0  0  0  0  0  0
   -3.4010   23.0430  -30.8840 C   0  0  0  0  0  0  0  0  0  0  0  0
   -2.8740   21.8460  -31.3790 C   0  0  0  0  0  0  0  0  0  0  0  0
   -3.3643   21.3083  -32.2039 H   0  0  0  0  0  0  0  0  0  0  0  0
   -1.6960   21.3510  -30.7880 C   0  0  0  0  0  0  0  0  0  0  0  0
   -1.2647   20.4031  -31.1421 H   0  0  0  0  0  0  0  0  0  0  0  0
   -1.0640   22.0610  -29.7450 C   0  0  0  0  0  0  0  0  0  0  0  0
   -0.1510   21.6563  -29.2839 H   0  0  0  0  0  0  0  0  0  0  0  0
   -1.5930   23.2820  -29.2910 C   0  0  0  0  0  0  0  0  0  0  0  0
   -1.1004   23.8513  -28.4890 H   0  0  0  0  0  0  0  0  0  0  0  0
   -2.7610   23.7470  -29.8900 C   0  0  0  0  0  0  0  0  0  0  0  0
   -3.3900   24.9110  -29.6380 N   0  0  0  0  0  0  0  0  0  0  0  0
   -4.4290   24.9670  -30.4630 N   0  0  0  0  0  0  0  0  0  0  0  0
   -5.3930   26.0630  -30.4690 C   0  0  0  0  0  0  0  0  0  0  0  0
   -5.6380   26.3415  -29.4334 H   0  0  0  0  0  0  0  0  0  0  0  0
   -4.9594   26.9299  -30.9890 H   0  0  0  0  0  0  0  0  0  0  0  0
   -6.3081   25.7435  -30.9890 H   0  0  0  0  0  0  0  0  0  0  0  0
  1  2  1  0
  2  3  2  0
  3  4  1  0
  3  5  1  0
  5  6  1  0
  6  7  1  0
  7  8  1  0
  7  9  1  0
  7 10  1  0
  5 11  2  0
 11 12  1  0
 11 13  1  0
 13 14  1  0
 13 15  2  0
 15 16  1  0
 16 17  2  0
 17 18  1  0
 18 19  2  0
 19 20  1  0
 19 21  1  0
 21 22  1  0
 21 23  2  0
 23 24  1  0
 23 25  1  0
 25 26  1  0
 25 27  2  0
 27 28  1  0
 28 29  1  0
 29 30  1  0
 30 31  1  0
 30 32  1  0
 30 33  1  0
 15  2  1  0
 29 17  1  0
 27 18  1  0
M  CHG  1  28  -1
M  END
>  <UniqueID>  (16) 
16

>  <SMILES>  (16) 
COc1ccc(/N=c2\c3ccccc3[n-]n2C)cc1

>  <Energy>  (16) 
84.75264024792082

>  <Genealogy>  (16) 
COc1ccc(N=c2c3ccccc3[n-]n2C)cc1 (protonated)
COc1ccc(/N=c2\c3ccccc3[n-]n2C)cc1 (cis-trans isomerization)
COc1ccc(/N=c2\c3ccccc3[n-]n2C)cc1 (3D coordinates assigned)
COc1ccc(/N=c2\c3ccccc3[n-]n2C)cc1 (optimized conformer: 84.75264024792082 kcal/mol)

>  <smiles>  (16) 
COc1ccc(N=c2c3ccccc3[nH]n2C)cc1

>  <score_type>  (16) 
oracle

>  <origin>  (16) 
adg

>  <m_score__min__energy>  (16) 
-8

>  <m_primary>  (16) 
energy

$$$$
16:0
     RDKit          3D

 49 51  0  0  0  0  0  0  0  0999 V2000
   -4.8610   17.3760  -35.3120 C   0  0  0  0  0  0  0  0  0  0  0  0
   -5.3620   16.8650  -33.9680 C   0  0  0  0  0  0  0  0  0  0  0  0
   -6.0800   17.9230  -33.2590 N   0  0  0  0  0  0  0  0  0  0  0  0
   -7.3500   17.8070  -32.8990 N   0  0  0  0  0  0  0  0  0  0  0  0
   -7.7380   18.9760  -32.3560 C   0  0  0  0  0  0  0  0  0  0  0  0
   -6.6850   19.8750  -32.3960 C   0  0  0  0  0  0  0  0  0  0  0  0
   -6.7150   21.2820  -31.9210 C   0  0  0  0  0  0  0  0  0  0  0  0
   -7.9070   22.0290  -31.9280 C   0  0  0  0  0  0  0  0  0  0  0  0
   -7.9150   23.3490  -31.4740 C   0  0  0  0  0  0  0  0  0  0  0  0
   -6.7320   23.9540  -31.0000 C   0  0  0  0  0  0  0  0  0  0  0  0
   -6.7170   25.2880  -30.5620 O   0  0  0  0  0  0  0  0  0  0  0  0
   -6.4840   25.6940  -29.2130 C   0  0  0  0  0  0  0  0  0  0  0  0
   -5.5410   23.1950  -30.9630 C   0  0  0  0  0  0  0  0  0  0  0  0
   -4.0250   23.8340  -30.3030 S   0  0  0  0  0  0  0  0  0  0  0  0
   -3.9810   23.7820  -28.7990 O   0  0  0  0  0  0  0  0  0  0  0  0
   -3.8850   25.2680  -30.7310 O   0  0  0  0  0  0  0  0  0  0  0  0
   -2.6980   22.9190  -30.9540 N   0  0  0  0  0  0  0  0  0  0  0  0
   -2.0890   21.7820  -30.3290 C   0  0  0  0  0  0  0  0  0  0  0  0
   -1.1510   21.0410  -31.0550 C   0  0  0  0  0  0  0  0  0  0  0  0
   -0.5350   19.9290  -30.4770 C   0  0  0  0  0  0  0  0  0  0  0  0
    0.6280   18.9970  -31.4070 Cl  0  0  0  0  0  0  0  0  0  0  0  0
   -0.8470   19.5500  -29.1680 C   0  0  0  0  0  0  0  0  0  0  0  0
   -1.7840   20.2780  -28.4230 C   0  0  0  0  0  0  0  0  0  0  0  0
   -2.1110   19.8380  -27.0180 C   0  0  0  0  0  0  0  0  0  0  0  0
   -1.4980   18.6130  -26.7590 F   0  0  0  0  0  0  0  0  0  0  0  0
   -1.6710   20.7640  -26.0860 F   0  0  0  0  0  0  0  0  0  0  0  0
   -3.4850   19.6880  -26.8890 F   0  0  0  0  0  0  0  0  0  0  0  0
   -2.4100   21.3930  -29.0120 C   0  0  0  0  0  0  0  0  0  0  0  0
   -5.5430   21.8670  -31.4180 C   0  0  0  0  0  0  0  0  0  0  0  0
   -5.6360   19.1670  -32.9660 C   0  0  0  0  0  0  0  0  0  0  0  0
   -4.2520   19.6790  -33.2470 C   0  0  0  0  0  0  0  0  0  0  0  0
   -4.0995   18.1527  -35.1482 H   0  0  0  0  0  0  0  0  0  0  0  0
   -4.4195   16.5434  -35.8794 H   0  0  0  0  0  0  0  0  0  0  0  0
   -5.7021   17.8010  -35.8794 H   0  0  0  0  0  0  0  0  0  0  0  0
   -6.0394   16.0142  -34.1328 H   0  0  0  0  0  0  0  0  0  0  0  0
   -4.5005   16.5485  -33.3616 H   0  0  0  0  0  0  0  0  0  0  0  0
   -8.7364   19.1849  -31.9443 H   0  0  0  0  0  0  0  0  0  0  0  0
   -8.8378   21.5705  -32.2932 H   0  0  0  0  0  0  0  0  0  0  0  0
   -8.8532   23.9232  -31.4860 H   0  0  0  0  0  0  0  0  0  0  0  0
   -6.9119   24.9485  -28.5266 H   0  0  0  0  0  0  0  0  0  0  0  0
   -5.4013   25.7761  -29.0366 H   0  0  0  0  0  0  0  0  0  0  0  0
   -6.9593   26.6702  -29.0366 H   0  0  0  0  0  0  0  0  0  0  0  0
   -0.8977   21.3350  -32.0843 H   0  0  0  0  0  0  0  0  0  0  0  0
   -0.3537   18.6747  -28.7201 H   0  0  0  0  0  0  0  0  0  0  0  0
   -3.1554   21.9653  -28.4404 H   0  0  0  0  0  0  0  0  0  0  0  0
   -4.6148   21.2780  -31.3798 H   0  0  0  0  0  0  0  0  0  0  0  0
   -3.7322   19.8713  -32.2968 H   0  0  0  0  0  0  0  0  0  0  0  0
   -3.6935   18.9280  -33.8250 H   0  0  0  0  0  0  0  0  0  0  0  0
   -4.3168   20.6127  -33.8250 H   0  0  0  0  0  0  0  0  0  0  0  0
  1  2  1  0
  2  3  1  0
  3  4  1  0
  4  5  2  0
  5  6  1  0
  6  7  1  0
  7  8  2  0
  8  9  1  0
  9 10  2  0
 10 11  1  0
 11 12  1  0
 10 13  1  0
 13 14  1  0
 14 15  2  0
 14 16  2  0
 14 17  1  0
 17 18  1  0
 18 19  2  0
 19 20  1  0
 20 21  1  0
 20 22  2  0
 22 23  1  0
 23 24  1  0
 24 25  1  0
 24 26  1  0
 24 27  1  0
 23 28  2  0
 13 29  2  0
  6 30  2  0
 30 31  1  0
 30  3  1  0
 29  7  1  0
 28 18  1  0
  1 32  1  0
  1 33  1  0
  1 34  1  0
  2 35  1  0
  2 36  1  0
  5 37  1  0
  8 38  1  0
  9 39  1  0
 12 40  1  0
 12 41  1  0
 12 42  1  0
 19 43  1  0
 22 44  1  0
 28 45  1  0
 29 46  1  0
 31 47  1  0
 31 48  1  0
 31 49  1  0
M  CHG  1  17  -1
M  END
>  <UniqueID>  (17) 
17

>  <SMILES>  (17) 
CCn1ncc(-c2ccc(OC)c(S(=O)(=O)[N-]c3cc(Cl)cc(C(F)(F)F)c3)c2)c1C

>  <Energy>  (17) 
86.14333563036688

>  <Genealogy>  (17) 
CCn1ncc(-c2ccc(OC)c(S(=O)(=O)[N-]c3cc(Cl)cc(C(F)(F)F)c3)c2)c1C (protonated)
CCn1ncc(-c2ccc(OC)c(S(=O)(=O)[N-]c3cc(Cl)cc(C(F)(F)F)c3)c2)c1C (3D coordinates assigned)
CCn1ncc(-c2ccc(OC)c(S(=O)(=O)[N-]c3cc(Cl)cc(C(F)(F)F)c3)c2)c1C (optimized conformer: 86.14333563036688 kcal/mol)

>  <smiles>  (17) 
CCn1ncc(-c2ccc(OC)c(S(=O)(=O)Nc3cc(Cl)cc(C(F)(F)F)c3)c2)c1C

>  <score_type>  (17) 
oracle

>  <origin>  (17) 
adg

>  <m_score__min__energy>  (17) 
-9.9800000000000004

>  <m_primary>  (17) 
energy

$$$$
17:0
     RDKit          3D

 45 48  0  0  0  0  0  0  0  0999 V2000
   -3.6420   24.7780  -26.3440 C   0  0  0  0  0  0  0  0  0  0  0  0
   -3.9860   24.0850  -27.5790 N   0  0  0  0  0  0  0  0  0  0  0  0
   -3.7040   22.8000  -27.8700 C   0  0  0  0  0  0  0  0  0  0  0  0
   -4.0990   22.5480  -29.1700 C   0  0  0  0  0  0  0  0  0  0  0  0
   -4.6190   23.7520  -29.6210 C   0  0  0  0  0  0  0  0  0  0  0  0
   -5.1270   24.0420  -30.9740 C   0  0  0  0  0  0  0  0  0  0  0  0
   -5.3730   25.2390  -31.2850 O   0  0  0  0  0  0  0  0  0  0  0  0
   -5.3470   22.9970  -31.9400 N   0  0  0  0  0  0  0  0  0  0  0  0
   -4.1860   22.2850  -32.4850 C   0  0  0  0  0  0  0  0  0  0  0  0
   -4.6140   21.1480  -33.4090 C   0  0  0  0  0  0  0  0  0  0  0  0
   -5.3560   20.1330  -32.6520 N   0  0  0  0  0  0  0  0  0  0  0  0
   -4.7190   18.8330  -32.4040 C   0  0  0  0  0  0  0  0  0  0  0  0
   -5.2920   17.7730  -33.3540 C   0  0  0  0  0  0  0  0  0  0  0  0
   -4.4380   17.5010  -34.5820 C   0  0  0  0  0  0  0  0  0  0  0  0
   -5.7430   18.2690  -34.7190 C   0  0  0  0  0  0  0  0  0  0  0  0
   -6.7460   20.3320  -32.2990 C   0  0  0  0  0  0  0  0  0  0  0  0
   -7.4870   19.2460  -31.9370 N   0  0  0  0  0  0  0  0  0  0  0  0
   -8.7990   19.3280  -31.5990 C   0  0  0  0  0  0  0  0  0  0  0  0
   -9.4440   20.5590  -31.6160 C   0  0  0  0  0  0  0  0  0  0  0  0
   -8.7260   21.6990  -31.9670 C   0  0  0  0  0  0  0  0  0  0  0  0
   -7.3620   21.6160  -32.2930 C   0  0  0  0  0  0  0  0  0  0  0  0
   -6.6370   22.8990  -32.6340 C   0  0  0  0  0  0  0  0  0  0  0  0
   -4.5190   24.6670  -28.6390 N   0  0  0  0  0  0  0  0  0  0  0  0
   -3.9462   24.1651  -25.4827 H   0  0  0  0  0  0  0  0  0  0  0  0
   -2.5556   24.9466  -26.3086 H   0  0  0  0  0  0  0  0  0  0  0  0
   -4.1645   25.7453  -26.3086 H   0  0  0  0  0  0  0  0  0  0  0  0
   -3.2379   22.0739  -27.1877 H   0  0  0  0  0  0  0  0  0  0  0  0
   -4.0187   21.6015  -29.7246 H   0  0  0  0  0  0  0  0  0  0  0  0
   -3.5657   22.9938  -33.0532 H   0  0  0  0  0  0  0  0  0  0  0  0
   -3.6184   21.8550  -31.6466 H   0  0  0  0  0  0  0  0  0  0  0  0
   -5.2573   21.5497  -34.2058 H   0  0  0  0  0  0  0  0  0  0  0  0
   -3.7179   20.6851  -33.8480 H   0  0  0  0  0  0  0  0  0  0  0  0
   -3.6352   18.9218  -32.5697 H   0  0  0  0  0  0  0  0  0  0  0  0
   -4.9161   18.5287  -31.3655 H   0  0  0  0  0  0  0  0  0  0  0  0
   -5.7562   17.1638  -32.5644 H   0  0  0  0  0  0  0  0  0  0  0  0
   -3.4775   18.0215  -34.7102 H   0  0  0  0  0  0  0  0  0  0  0  0
   -4.0126   16.6008  -35.0496 H   0  0  0  0  0  0  0  0  0  0  0  0
   -5.7266   19.3452  -34.9462 H   0  0  0  0  0  0  0  0  0  0  0  0
   -6.6528   18.1546  -35.3266 H   0  0  0  0  0  0  0  0  0  0  0  0
   -9.3513   18.4210  -31.3119 H   0  0  0  0  0  0  0  0  0  0  0  0
  -10.5101   20.6318  -31.3550 H   0  0  0  0  0  0  0  0  0  0  0  0
   -9.2322   22.6753  -31.9893 H   0  0  0  0  0  0  0  0  0  0  0  0
   -6.4608   22.9308  -33.7193 H   0  0  0  0  0  0  0  0  0  0  0  0
   -7.2643   23.7427  -32.3105 H   0  0  0  0  0  0  0  0  0  0  0  0
   -4.7980   25.6730  -28.6920 H   0  0  0  0  0  0  0  0  0  0  0  0
  1  2  1  0
  2  3  1  0
  3  4  2  0
  4  5  1  0
  5  6  1  0
  6  7  2  0
  6  8  1  0
  8  9  1  0
  9 10  1  0
 10 11  1  0
 11 12  1  0
 12 13  1  0
 13 14  1  0
 14 15  1  0
 11 16  1  0
 16 17  2  0
 17 18  1  0
 18 19  2  0
 19 20  1  0
 20 21  2  0
 21 22  1  0
  5 23  2  0
 23  2  1  0
 22  8  1  0
 15 13  1  0
 21 16  1  0
  1 24  1  0
  1 25  1  0
  1 26  1  0
  3 27  1  0
  4 28  1  0
  9 29  1  0
  9 30  1  0
 10 31  1  0
 10 32  1  0
 12 33  1  0
 12 34  1  0
 13 35  1  0
 14 36  1  0
 14 37  1  0
 15 38  1  0
 15 39  1  0
 18 40  1  0
 19 41  1  0
 20 42  1  0
 22 43  1  0
 22 44  1  0
 23 45  1  0
M  CHG  1  23   1
M  END
>  <UniqueID>  (18) 
18

>  <SMILES>  (18) 
Cn1ccc(C(=O)N2CCN(CC3CC3)c3ncccc3C2)[nH+]1

>  <Energy>  (18) 
347.3447062405834

>  <Genealogy>  (18) 
Cn1ccc(C(=O)N2CCN(CC3CC3)c3ncccc3C2)[nH+]1 (protonated)
Cn1ccc(C(=O)N2CCN(CC3CC3)c3ncccc3C2)[nH+]1 (3D coordinates assigned)
Cn1ccc(C(=O)N2CCN(CC3CC3)c3ncccc3C2)[nH+]1 (nonaromatic ring conformer: 347.3447062405834 kcal/mol)

>  <smiles>  (18) 
Cn1ccc(C(=O)N2CCN(CC3CC3)c3ncccc3C2)n1

>  <score_type>  (18) 
oracle

>  <origin>  (18) 
adg

>  <m_score__min__energy>  (18) 
-6.1799999999999997

>  <m_primary>  (18) 
energy

$$$$
18:0
     RDKit          3D

 53 56  0  0  1  0  0  0  0  0999 V2000
   -9.1260   20.8260  -32.3530 C   0  0  0  0  0  0  0  0  0  0  0  0
   -8.0930   21.7490  -31.8190 C   0  0  0  0  0  0  0  0  0  0  0  0
   -8.3810   22.7080  -30.9130 N   0  0  0  0  0  0  0  0  0  0  0  0
   -7.2480   23.3630  -30.6380 C   0  0  0  0  0  0  0  0  0  0  0  0
   -6.8770   24.4120  -29.8240 C   0  0  0  0  0  0  0  0  0  0  0  0
   -5.6230   24.8830  -29.7400 N   0  0  0  0  0  0  0  0  0  0  0  0
   -4.6940   24.2810  -30.5020 C   0  0  0  0  0  0  0  0  0  0  0  0
   -3.4830   24.6910  -30.4590 N   0  0  0  0  0  0  0  0  0  0  0  0
   -2.4100   24.0820  -29.7030 C   0  0  0  0  0  0  0  0  0  0  0  0
   -2.2760   24.6430  -28.3270 C   0  0  0  0  0  0  0  0  0  0  0  0
   -1.1040   25.2850  -27.9120 C   0  0  0  0  0  0  0  0  0  0  0  0
   -0.9680   25.8050  -26.6430 C   0  0  0  0  0  0  0  0  0  0  0  0
   -1.9960   25.7110  -25.7270 C   0  0  0  0  0  0  0  0  0  0  0  0
   -3.1570   25.0860  -26.1080 C   0  0  0  0  0  0  0  0  0  0  0  0
   -3.2780   24.5680  -27.3840 C   0  0  0  0  0  0  0  0  0  0  0  0
   -5.0130   23.2540  -31.3100 N   0  0  0  0  0  0  0  0  0  0  0  0
   -6.2680   22.7760  -31.3990 C   0  0  0  0  0  0  0  0  0  0  0  0
   -6.7840   21.7760  -32.1330 N   0  0  0  0  0  0  0  0  0  0  0  0
   -6.1670   20.8850  -33.0650 C   0  0  0  0  0  0  0  0  0  0  0  0
   -5.6210   19.6380  -32.4050 C   0  0  2  0  0  0  0  0  0  0  0  0
   -4.9290   18.7260  -33.3890 C   0  0  0  0  0  0  0  0  0  0  0  0
   -4.9020   17.2920  -32.9000 C   0  0  0  0  0  0  0  0  0  0  0  0
   -6.2920   16.6960  -32.8760 C   0  0  2  0  0  0  0  0  0  0  0  0
   -6.6470   16.0560  -34.2010 C   0  0  0  0  0  0  0  0  0  0  0  0
   -7.3070   17.7780  -32.6220 C   0  0  0  0  0  0  0  0  0  0  0  0
   -6.6770   18.8350  -31.7220 C   0  0  0  0  0  0  0  0  0  0  0  0
   -9.6593   20.3495  -31.5172 H   0  0  0  0  0  0  0  0  0  0  0  0
   -9.8405   21.3921  -32.9687 H   0  0  0  0  0  0  0  0  0  0  0  0
   -8.6436   20.0526  -32.9687 H   0  0  0  0  0  0  0  0  0  0  0  0
   -7.6530   24.8902  -29.2082 H   0  0  0  0  0  0  0  0  0  0  0  0
   -5.3650   25.6750  -29.1190 H   0  0  0  0  0  0  0  0  0  0  0  0
   -2.6055   23.0024  -29.6240 H   0  0  0  0  0  0  0  0  0  0  0  0
   -1.4711   24.2909  -30.2368 H   0  0  0  0  0  0  0  0  0  0  0  0
   -0.2667   25.3773  -28.6194 H   0  0  0  0  0  0  0  0  0  0  0  0
   -0.0288   26.3009  -26.3568 H   0  0  0  0  0  0  0  0  0  0  0  0
   -1.8873   26.1275  -24.7147 H   0  0  0  0  0  0  0  0  0  0  0  0
   -3.9920   24.9972  -25.3974 H   0  0  0  0  0  0  0  0  0  0  0  0
   -4.2201   24.0718  -27.6600 H   0  0  0  0  0  0  0  0  0  0  0  0
   -6.9142   20.5878  -33.8156 H   0  0  0  0  0  0  0  0  0  0  0  0
   -5.3202   21.4169  -33.5233 H   0  0  0  0  0  0  0  0  0  0  0  0
   -4.9017   20.0129  -31.6620 H   0  0  0  0  0  0  0  0  0  0  0  0
   -5.4645   18.7653  -34.3491 H   0  0  0  0  0  0  0  0  0  0  0  0
   -3.8902   19.0693  -33.5030 H   0  0  0  0  0  0  0  0  0  0  0  0
   -4.2674   16.6956  -33.5721 H   0  0  0  0  0  0  0  0  0  0  0  0
   -4.5004   17.2807  -31.8760 H   0  0  0  0  0  0  0  0  0  0  0  0
   -6.3031   15.9362  -32.0806 H   0  0  0  0  0  0  0  0  0  0  0  0
   -7.1733   15.1071  -34.0205 H   0  0  0  0  0  0  0  0  0  0  0  0
   -7.2982   16.7336  -34.7727 H   0  0  0  0  0  0  0  0  0  0  0  0
   -5.7274   15.8622  -34.7727 H   0  0  0  0  0  0  0  0  0  0  0  0
   -7.6077   18.2353  -33.5762 H   0  0  0  0  0  0  0  0  0  0  0  0
   -8.1965   17.3518  -32.1350 H   0  0  0  0  0  0  0  0  0  0  0  0
   -7.4680   19.5181  -31.3790 H   0  0  0  0  0  0  0  0  0  0  0  0
   -6.1951   18.3063  -30.8864 H   0  0  0  0  0  0  0  0  0  0  0  0
  1  2  1  0
  2  3  2  0
  3  4  1  0
  4  5  2  0
  5  6  1  0
  6  7  1  0
  7  8  2  0
  8  9  1  0
  9 10  1  0
 10 11  2  0
 11 12  1  0
 12 13  2  0
 13 14  1  0
 14 15  2  0
  7 16  1  0
 16 17  2  0
 17 18  1  0
 18 19  1  0
 19 20  1  0
 20 21  1  0
 21 22  1  0
 22 23  1  0
 23 24  1  0
 23 25  1  0
 25 26  1  0
 18  2  1  0
 26 20  1  0
 17  4  1  0
 15 10  1  0
  1 27  1  0
  1 28  1  0
  1 29  1  0
  5 30  1  0
  6 31  1  0
  9 32  1  0
  9 33  1  0
 11 34  1  0
 12 35  1  0
 13 36  1  0
 14 37  1  0
 15 38  1  0
 19 39  1  0
 19 40  1  0
 20 41  1  1
 21 42  1  0
 21 43  1  0
 22 44  1  0
 22 45  1  0
 23 46  1  1
 24 47  1  0
 24 48  1  0
 24 49  1  0
 25 50  1  0
 25 51  1  0
 26 52  1  0
 26 53  1  0
M  END
>  <smiles>  (19) 
Cc1nc2c[nH]c(=NCc3ccccc3)nc2n1CC1CCC(C)CC1

>  <score_type>  (19) 
oracle

>  <origin>  (19) 
adg

>  <m_score__min__energy>  (19) 
-9.6799999999999997

>  <m_primary>  (19) 
energy

$$$$
19:0
     RDKit          3D

 40 42  0  0  0  0  0  0  0  0999 V2000
   -0.9290   22.5890  -28.9210 H   0  0  0  0  0  0  0  0  0  0  0  0
   -1.7750   22.3480  -29.4600 N   0  0  0  0  0  0  0  0  0  0  0  0
   -2.7370   23.1180  -29.8660 C   0  0  0  0  0  0  0  0  0  0  0  0
   -3.7750   22.5070  -30.5010 N   0  0  0  0  0  0  0  0  0  0  0  0
   -4.8370   23.1820  -31.0080 C   0  0  0  0  0  0  0  0  0  0  0  0
   -5.9080   22.4640  -31.6510 N   0  0  0  0  0  0  0  0  0  0  0  0
   -5.7370   21.0380  -31.9530 C   0  0  0  0  0  0  0  0  0  0  0  0
   -5.1603   20.5702  -31.1415 H   0  0  0  0  0  0  0  0  0  0  0  0
   -5.2103   20.9562  -32.9152 H   0  0  0  0  0  0  0  0  0  0  0  0
   -7.0620   20.3220  -32.0850 C   0  0  0  0  0  0  0  0  0  0  0  0
   -7.0650   18.9280  -32.2500 C   0  0  0  0  0  0  0  0  0  0  0  0
   -6.1127   18.3776  -32.2644 H   0  0  0  0  0  0  0  0  0  0  0  0
   -8.2690   18.2350  -32.3960 C   0  0  0  0  0  0  0  0  0  0  0  0
   -8.2616   17.1425  -32.5238 H   0  0  0  0  0  0  0  0  0  0  0  0
   -9.4810   18.9260  -32.3800 C   0  0  0  0  0  0  0  0  0  0  0  0
  -10.4277   18.3770  -32.4912 H   0  0  0  0  0  0  0  0  0  0  0  0
   -9.4940   20.3140  -32.2230 C   0  0  0  0  0  0  0  0  0  0  0  0
  -10.4526   20.8531  -32.2019 H   0  0  0  0  0  0  0  0  0  0  0  0
   -8.2900   21.0250  -32.0920 C   0  0  0  0  0  0  0  0  0  0  0  0
   -8.3360   22.5160  -31.8740 C   0  0  0  0  0  0  0  0  0  0  0  0
   -8.5206   22.7171  -30.8084 H   0  0  0  0  0  0  0  0  0  0  0  0
   -9.1434   22.9334  -32.4936 H   0  0  0  0  0  0  0  0  0  0  0  0
   -7.0240   23.1750  -32.2840 C   0  0  0  0  0  0  0  0  0  0  0  0
   -7.0227   24.2257  -31.9584 H   0  0  0  0  0  0  0  0  0  0  0  0
   -6.9157   23.1331  -33.3779 H   0  0  0  0  0  0  0  0  0  0  0  0
   -4.8790   24.5680  -30.8560 C   0  0  0  0  0  0  0  0  0  0  0  0
   -5.7302   25.1445  -31.2471 H   0  0  0  0  0  0  0  0  0  0  0  0
   -3.8610   25.1960  -30.2220 N   0  0  0  0  0  0  0  0  0  0  0  0
   -2.7810   24.5450  -29.7110 C   0  0  0  0  0  0  0  0  0  0  0  0
   -1.8900   25.3000  -29.1210 N   0  0  0  0  0  0  0  0  0  0  0  0
   -0.9560   25.1060  -28.0140 C   0  0  0  0  0  0  0  0  0  0  0  0
   -0.8158   24.0275  -27.8491 H   0  0  0  0  0  0  0  0  0  0  0  0
   -0.0030   25.5883  -28.2771 H   0  0  0  0  0  0  0  0  0  0  0  0
   -1.4800   25.7460  -26.7180 C   0  0  0  0  0  0  0  0  0  0  0  0
   -0.7783   25.5218  -25.9011 H   0  0  0  0  0  0  0  0  0  0  0  0
   -1.5628   26.8306  -26.8813 H   0  0  0  0  0  0  0  0  0  0  0  0
   -2.8630   25.2150  -26.3420 C   0  0  0  0  0  0  0  0  0  0  0  0
   -2.9566   25.1791  -25.2466 H   0  0  0  0  0  0  0  0  0  0  0  0
   -3.6358   25.8804  -26.7544 H   0  0  0  0  0  0  0  0  0  0  0  0
   -2.9919   24.2034  -26.7544 H   0  0  0  0  0  0  0  0  0  0  0  0
  1  2  1  0
  2  3  2  0
  3  4  1  0
  4  5  1  0
  5  6  1  0
  6  7  1  0
  7  8  1  0
  7  9  1  0
  7 10  1  0
 10 11  2  0
 11 12  1  0
 11 13  1  0
 13 14  1  0
 13 15  2  0
 15 16  1  0
 15 17  1  0
 17 18  1  0
 17 19  2  0
 19 20  1  0
 20 21  1  0
 20 22  1  0
 20 23  1  0
 23 24  1  0
 23 25  1  0
  5 26  2  0
 26 27  1  0
 26 28  1  0
 28 29  1  0
 29 30  2  0
 30 31  1  0
 31 32  1  0
 31 33  1  0
 31 34  1  0
 34 35  1  0
 34 36  1  0
 34 37  1  0
 37 38  1  0
 37 39  1  0
 37 40  1  0
 29  3  1  0
 23  6  1  0
 19 10  1  0
M  CHG  2   4  -1  28  -1
M  END
>  <UniqueID>  (20) 
19

>  <SMILES>  (20) 
[H]/N=c1/[n-]c(N2CCc3ccccc3C2)c[n-]/c1=N/CCC

>  <Energy>  (20) 
60.96237282135503

>  <Genealogy>  (20) 
CCCN=c1[n-]cc(N2CCc3ccccc3C2)[n-]c1=N (protonated)
[H]/N=c1/[n-]c(N2CCc3ccccc3C2)c[n-]/c1=N/CCC (cis-trans isomerization)
[H]/N=c1/[n-]c(N2CCc3ccccc3C2)c[n-]/c1=N/CCC (3D coordinates assigned)
[H]/N=c1/[n-]c(N2CCc3ccccc3C2)c[n-]/c1=N/CCC (nonaromatic ring conformer: 60.96237282135503 kcal/mol)

>  <smiles>  (20) 
CCCN=c1[nH]cc(N2CCc3ccccc3C2)[nH]c1=N

>  <score_type>  (20) 
oracle

>  <origin>  (20) 
adg

>  <m_score__min__energy>  (20) 
-10.02

>  <m_primary>  (20) 
energy

$$$$
20:0
     RDKit          3D

 38 38  0  0  0  0  0  0  0  0999 V2000
   -0.9980   25.4660  -27.0980 C   0  0  0  0  0  0  0  0  0  0  0  0
   -1.2930   25.4300  -28.5970 C   0  0  0  0  0  0  0  0  0  0  0  0
   -1.8110   24.0600  -29.0450 C   0  0  0  0  0  0  0  0  0  0  0  0
   -3.2760   24.0720  -29.1920 N   0  0  0  0  0  0  0  0  0  0  0  0
   -4.1140   23.5420  -28.1050 C   0  0  0  0  0  0  0  0  0  0  0  0
   -4.2280   24.5520  -26.9680 C   0  0  0  0  0  0  0  0  0  0  0  0
   -3.8620   24.4430  -30.4610 C   0  0  0  0  0  0  0  0  0  0  0  0
   -3.8790   25.6510  -30.8160 O   0  0  0  0  0  0  0  0  0  0  0  0
   -4.3760   23.4580  -31.3630 N   0  0  0  0  0  0  0  0  0  0  0  0
   -5.7530   23.0760  -31.4280 C   0  0  0  0  0  0  0  0  0  0  0  0
   -6.2790   21.9320  -31.9860 C   0  0  0  0  0  0  0  0  0  0  0  0
   -7.6050   21.9400  -31.7430 N   0  0  0  0  0  0  0  0  0  0  0  0
   -8.5410   20.8780  -32.0970 C   0  0  0  0  0  0  0  0  0  0  0  0
   -7.7870   19.5960  -32.4240 C   0  0  0  0  0  0  0  0  0  0  0  0
   -7.9380   23.0100  -31.0330 N   0  0  0  0  0  0  0  0  0  0  0  0
   -6.8140   23.7300  -30.8400 C   0  0  0  0  0  0  0  0  0  0  0  0
   -6.7470   24.9770  -30.0220 C   0  0  0  0  0  0  0  0  0  0  0  0
   -1.9370   25.3514  -26.5367 H   0  0  0  0  0  0  0  0  0  0  0  0
   -0.3135   24.6447  -26.8392 H   0  0  0  0  0  0  0  0  0  0  0  0
   -0.5311   26.4278  -26.8392 H   0  0  0  0  0  0  0  0  0  0  0  0
   -2.0534   26.1905  -28.8281 H   0  0  0  0  0  0  0  0  0  0  0  0
   -0.3543   25.6315  -29.1339 H   0  0  0  0  0  0  0  0  0  0  0  0
   -1.3546   23.8015  -30.0119 H   0  0  0  0  0  0  0  0  0  0  0  0
   -1.5416   23.3164  -28.2805 H   0  0  0  0  0  0  0  0  0  0  0  0
   -5.1187   23.3252  -28.4970 H   0  0  0  0  0  0  0  0  0  0  0  0
   -3.6486   22.6242  -27.7163 H   0  0  0  0  0  0  0  0  0  0  0  0
   -4.1687   24.0265  -26.0035 H   0  0  0  0  0  0  0  0  0  0  0  0
   -3.4063   25.2797  -27.0402 H   0  0  0  0  0  0  0  0  0  0  0  0
   -5.1912   25.0782  -27.0402 H   0  0  0  0  0  0  0  0  0  0  0  0
   -5.7206   21.1555  -32.5293 H   0  0  0  0  0  0  0  0  0  0  0  0
   -9.2187   20.6944  -31.2502 H   0  0  0  0  0  0  0  0  0  0  0  0
   -9.1176   21.1892  -32.9806 H   0  0  0  0  0  0  0  0  0  0  0  0
   -7.4926   19.0954  -31.4898 H   0  0  0  0  0  0  0  0  0  0  0  0
   -8.4361   18.9280  -33.0092 H   0  0  0  0  0  0  0  0  0  0  0  0
   -6.8877   19.8386  -33.0092 H   0  0  0  0  0  0  0  0  0  0  0  0
   -6.7610   24.7158  -28.9535 H   0  0  0  0  0  0  0  0  0  0  0  0
   -5.8184   25.5188  -30.2549 H   0  0  0  0  0  0  0  0  0  0  0  0
   -7.6122   25.6152  -30.2549 H   0  0  0  0  0  0  0  0  0  0  0  0
  1  2  1  0
  2  3  1  0
  3  4  1  0
  4  5  1  0
  5  6  1  0
  4  7  1  0
  7  8  2  0
  7  9  1  0
  9 10  1  0
 10 11  2  0
 11 12  1  0
 12 13  1  0
 13 14  1  0
 12 15  1  0
 15 16  2  0
 16 17  1  0
 16 10  1  0
  1 18  1  0
  1 19  1  0
  1 20  1  0
  2 21  1  0
  2 22  1  0
  3 23  1  0
  3 24  1  0
  5 25  1  0
  5 26  1  0
  6 27  1  0
  6 28  1  0
  6 29  1  0
 11 30  1  0
 13 31  1  0
 13 32  1  0
 14 33  1  0
 14 34  1  0
 14 35  1  0
 17 36  1  0
 17 37  1  0
 17 38  1  0
M  CHG  1   9  -1
M  END
>  <UniqueID>  (21) 
20

>  <SMILES>  (21) 
CCCN(CC)C(=O)[N-]c1cn(CC)nc1C

>  <Energy>  (21) 
57.28499517133067

>  <Genealogy>  (21) 
CCCN(CC)C(=O)[N-]c1cn(CC)nc1C (protonated)
CCCN(CC)C(=O)[N-]c1cn(CC)nc1C (3D coordinates assigned)
CCCN(CC)C(=O)[N-]c1cn(CC)nc1C (optimized conformer: 57.28499517133067 kcal/mol)

>  <smiles>  (21) 
CCCN(CC)C(=O)Nc1cn(CC)nc1C

>  <score_type>  (21) 
oracle

>  <origin>  (21) 
adg

>  <m_score__min__energy>  (21) 
-7.0300000000000002

>  <m_primary>  (21) 
energy

$$$$
21:0
     RDKit          3D

 36 39  0  0  0  0  0  0  0  0999 V2000
   -8.5080   18.8180  -32.6560 C   0  0  0  0  0  0  0  0  0  0  0  0
   -8.1320   20.0730  -31.9230 C   0  0  0  0  0  0  0  0  0  0  0  0
   -9.0900   20.8030  -31.1850 C   0  0  0  0  0  0  0  0  0  0  0  0
   -8.7180   21.9650  -30.4770 C   0  0  0  0  0  0  0  0  0  0  0  0
   -7.3890   22.4200  -30.5000 C   0  0  0  0  0  0  0  0  0  0  0  0
   -6.4630   21.6970  -31.2530 C   0  0  0  0  0  0  0  0  0  0  0  0
   -5.1040   21.8760  -31.4360 C   0  0  0  0  0  0  0  0  0  0  0  0
   -4.2600   22.9060  -30.8040 C   0  0  0  0  0  0  0  0  0  0  0  0
   -3.1960   22.6910  -30.0370 C   0  0  0  0  0  0  0  0  0  0  0  0
   -2.5050   20.9960  -29.4800 Br  0  0  0  0  0  0  0  0  0  0  0  0
   -2.7210   23.9920  -29.5800 C   0  0  0  0  0  0  0  0  0  0  0  0
   -1.7320   24.1690  -28.8210 O   0  0  0  0  0  0  0  0  0  0  0  0
   -3.5180   25.0580  -30.0820 N   0  0  0  0  0  0  0  0  0  0  0  0
   -4.4840   24.3490  -30.8490 C   0  0  0  0  0  0  0  0  0  0  0  0
   -5.4070   24.9170  -31.4890 O   0  0  0  0  0  0  0  0  0  0  0  0
   -4.6880   20.7950  -32.2210 C   0  0  0  0  0  0  0  0  0  0  0  0
   -3.3140   20.5290  -32.7020 C   0  0  0  0  0  0  0  0  0  0  0  0
   -2.4790   21.5820  -33.1190 C   0  0  0  0  0  0  0  0  0  0  0  0
   -1.1840   21.3160  -33.5760 C   0  0  0  0  0  0  0  0  0  0  0  0
   -0.7150   20.0020  -33.6280 C   0  0  0  0  0  0  0  0  0  0  0  0
   -1.5410   18.9490  -33.2280 C   0  0  0  0  0  0  0  0  0  0  0  0
   -2.8360   19.2090  -32.7720 C   0  0  0  0  0  0  0  0  0  0  0  0
   -5.7410   19.9950  -32.5150 N   0  0  0  0  0  0  0  0  0  0  0  0
   -6.8150   20.5520  -31.9260 C   0  0  0  0  0  0  0  0  0  0  0  0
   -8.7452   18.0264  -31.9300 H   0  0  0  0  0  0  0  0  0  0  0  0
   -9.3875   19.0118  -33.2876 H   0  0  0  0  0  0  0  0  0  0  0  0
   -7.6668   18.4962  -33.2876 H   0  0  0  0  0  0  0  0  0  0  0  0
  -10.1356   20.4622  -31.1622 H   0  0  0  0  0  0  0  0  0  0  0  0
   -9.4746   22.5193  -29.9023 H   0  0  0  0  0  0  0  0  0  0  0  0
   -7.0877   23.3185  -29.9416 H   0  0  0  0  0  0  0  0  0  0  0  0
   -2.8460   22.6184  -33.0855 H   0  0  0  0  0  0  0  0  0  0  0  0
   -0.5337   22.1439  -33.8951 H   0  0  0  0  0  0  0  0  0  0  0  0
    0.3052   19.7959  -33.9840 H   0  0  0  0  0  0  0  0  0  0  0  0
   -1.1716   17.9138  -33.2720 H   0  0  0  0  0  0  0  0  0  0  0  0
   -3.4854   18.3755  -32.4659 H   0  0  0  0  0  0  0  0  0  0  0  0
   -5.7230   19.1240  -33.0920 H   0  0  0  0  0  0  0  0  0  0  0  0
  1  2  1  0
  2  3  2  0
  3  4  1  0
  4  5  2  0
  5  6  1  0
  6  7  1  0
  7  8  1  0
  8  9  2  0
  9 10  1  0
  9 11  1  0
 11 12  2  0
 11 13  1  0
 13 14  1  0
 14 15  2  0
  7 16  2  0
 16 17  1  0
 17 18  2  0
 18 19  1  0
 19 20  2  0
 20 21  1  0
 21 22  2  0
 16 23  1  0
 23 24  1  0
 24  2  1  0
 24  6  2  0
 14  8  1  0
 22 17  1  0
  1 25  1  0
  1 26  1  0
  1 27  1  0
  3 28  1  0
  4 29  1  0
  5 30  1  0
 18 31  1  0
 19 32  1  0
 20 33  1  0
 21 34  1  0
 22 35  1  0
 23 36  1  0
M  CHG  1  13  -1
M  END
>  <UniqueID>  (22) 
21

>  <SMILES>  (22) 
Cc1cccc2c(C3=C(Br)C(=O)[N-]C3=O)c(-c3ccccc3)[nH]c12

>  <Energy>  (22) 
106.11988812388933

>  <Genealogy>  (22) 
Cc1cccc2c(C3=C(Br)C(=O)[N-]C3=O)c(-c3ccccc3)[nH]c12 (protonated)
Cc1cccc2c(C3=C(Br)C(=O)[N-]C3=O)c(-c3ccccc3)[nH]c12 (3D coordinates assigned)
Cc1cccc2c(C3=C(Br)C(=O)[N-]C3=O)c(-c3ccccc3)[nH]c12 (nonaromatic ring conformer: 106.11988812388933 kcal/mol)

>  <smiles>  (22) 
Cc1cccc2c(C3=C(Br)C(=O)NC3=O)c(-c3ccccc3)[nH]c12

>  <score_type>  (22) 
oracle

>  <origin>  (22) 
adg

>  <m_score__min__energy>  (22) 
-10.49

>  <m_primary>  (22) 
energy

$$$$
22:0
     RDKit          3D

 33 34  0  0  0  0  0  0  0  0999 V2000
   -0.4590   24.5040  -28.0270 C   0  0  0  0  0  0  0  0  0  0  0  0
   -1.9340   24.8740  -28.0050 C   0  0  0  0  0  0  0  0  0  0  0  0
   -2.3560   25.2990  -29.3310 N   0  0  0  0  0  0  0  0  0  0  0  0
   -3.4970   24.7470  -29.9950 C   0  0  0  0  0  0  0  0  0  0  0  0
   -4.1150   25.4300  -30.8580 O   0  0  0  0  0  0  0  0  0  0  0  0
   -3.9770   23.3690  -29.6090 C   0  0  1  0  0  0  0  0  0  0  0  0
   -5.1500   22.9020  -30.4530 C   0  0  0  0  0  0  0  0  0  0  0  0
   -4.9790   22.0500  -31.5650 C   0  0  0  0  0  0  0  0  0  0  0  0
   -6.0860   21.6100  -32.2970 C   0  0  0  0  0  0  0  0  0  0  0  0
   -7.3730   22.0010  -31.9250 C   0  0  0  0  0  0  0  0  0  0  0  0
   -7.5580   22.8300  -30.8170 C   0  0  0  0  0  0  0  0  0  0  0  0
   -6.4560   23.2720  -30.0810 C   0  0  0  0  0  0  0  0  0  0  0  0
   -2.8530   22.3490  -29.6100 C   0  0  0  0  0  0  0  0  0  0  0  0
   -2.7480   21.3650  -28.6080 C   0  0  0  0  0  0  0  0  0  0  0  0
   -1.7080   20.4360  -28.6420 C   0  0  0  0  0  0  0  0  0  0  0  0
   -0.7780   20.4880  -29.6800 C   0  0  0  0  0  0  0  0  0  0  0  0
   -0.8920   21.4350  -30.6480 N   0  0  0  0  0  0  0  0  0  0  0  0
   -1.8940   22.3520  -30.6390 C   0  0  0  0  0  0  0  0  0  0  0  0
   -0.0888   24.4111  -26.9953 H   0  0  0  0  0  0  0  0  0  0  0  0
   -0.3292   23.5455  -28.5508 H   0  0  0  0  0  0  0  0  0  0  0  0
    0.1079   25.2878  -28.5508 H   0  0  0  0  0  0  0  0  0  0  0  0
   -2.5253   23.9992  -27.6967 H   0  0  0  0  0  0  0  0  0  0  0  0
   -2.0910   25.6975  -27.2929 H   0  0  0  0  0  0  0  0  0  0  0  0
   -4.3415   23.4538  -28.5746 H   0  0  0  0  0  0  0  0  0  0  0  0
   -3.9681   21.7300  -31.8578 H   0  0  0  0  0  0  0  0  0  0  0  0
   -5.9422   20.9541  -33.1682 H   0  0  0  0  0  0  0  0  0  0  0  0
   -8.2418   21.6560  -32.5048 H   0  0  0  0  0  0  0  0  0  0  0  0
   -8.5730   23.1356  -30.5231 H   0  0  0  0  0  0  0  0  0  0  0  0
   -6.6104   23.9154  -29.2023 H   0  0  0  0  0  0  0  0  0  0  0  0
   -3.4888   21.3289  -27.7956 H   0  0  0  0  0  0  0  0  0  0  0  0
   -1.6222   19.6697  -27.8575 H   0  0  0  0  0  0  0  0  0  0  0  0
    0.0479   19.7623  -29.7152 H   0  0  0  0  0  0  0  0  0  0  0  0
   -1.9559   23.1017  -31.4415 H   0  0  0  0  0  0  0  0  0  0  0  0
  1  2  1  0
  2  3  1  0
  3  4  1  0
  4  5  2  0
  4  6  1  0
  6  7  1  0
  7  8  2  0
  8  9  1  0
  9 10  2  0
 10 11  1  0
 11 12  2  0
  6 13  1  0
 13 14  2  0
 14 15  1  0
 15 16  2  0
 16 17  1  0
 17 18  2  0
 12  7  1  0
 18 13  1  0
  1 19  1  0
  1 20  1  0
  1 21  1  0
  2 22  1  0
  2 23  1  0
  6 24  1  1
  8 25  1  0
  9 26  1  0
 10 27  1  0
 11 28  1  0
 12 29  1  0
 14 30  1  0
 15 31  1  0
 16 32  1  0
 18 33  1  0
M  CHG  1   3  -1
M  END
>  <UniqueID>  (23) 
22

>  <SMILES>  (23) 
CC[N-]C(=O)[C@@H](c1ccccc1)c1cccnc1

>  <Energy>  (23) 
31.530565158972678

>  <Genealogy>  (23) 
CC[N-]C(=O)C(c1ccccc1)c1cccnc1 (protonated)
CC[N-]C(=O)[C@@H](c1ccccc1)c1cccnc1 (chirality)
CC[N-]C(=O)[C@@H](c1ccccc1)c1cccnc1 (3D coordinates assigned)
CC[N-]C(=O)[C@@H](c1ccccc1)c1cccnc1 (optimized conformer: 31.530565158972678 kcal/mol)

>  <smiles>  (23) 
CCNC(=O)C(c1ccccc1)c1cccnc1

>  <score_type>  (23) 
oracle

>  <origin>  (23) 
adg

>  <m_score__min__energy>  (23) 
-8.1699999999999999

>  <m_primary>  (23) 
energy

$$$$
23:0
     RDKit          3D

 49 52  0  0  0  0  0  0  0  0999 V2000
   -2.1170   16.2600  -35.3130 C   0  0  0  0  0  0  0  0  0  0  0  0
   -1.9800   17.6500  -35.0370 O   0  0  0  0  0  0  0  0  0  0  0  0
   -2.7780   18.3660  -34.1310 C   0  0  0  0  0  0  0  0  0  0  0  0
   -4.1360   18.6310  -34.3850 C   0  0  0  0  0  0  0  0  0  0  0  0
   -4.9160   19.3460  -33.4650 C   0  0  0  0  0  0  0  0  0  0  0  0
   -4.3090   19.8620  -32.2770 C   0  0  0  0  0  0  0  0  0  0  0  0
   -2.9620   19.5530  -32.0190 C   0  0  0  0  0  0  0  0  0  0  0  0
   -2.2010   18.8250  -32.9360 C   0  0  0  0  0  0  0  0  0  0  0  0
   -0.8620   18.5670  -32.6400 O   0  0  0  0  0  0  0  0  0  0  0  0
   -5.1140   20.6520  -31.2310 C   0  0  1  0  0  0  0  0  0  0  0  0
   -4.3440   21.8540  -30.7080 C   0  0  0  0  0  0  0  0  0  0  0  0
   -3.1820   21.6830  -29.9400 C   0  0  0  0  0  0  0  0  0  0  0  0
   -2.4720   22.7900  -29.4730 C   0  0  0  0  0  0  0  0  0  0  0  0
   -2.9090   24.0940  -29.7710 C   0  0  0  0  0  0  0  0  0  0  0  0
   -2.2220   25.2310  -29.3200 O   0  0  0  0  0  0  0  0  0  0  0  0
   -1.5600   25.3270  -28.0620 C   0  0  0  0  0  0  0  0  0  0  0  0
   -4.0650   24.2770  -30.5450 C   0  0  0  0  0  0  0  0  0  0  0  0
   -4.4740   25.5890  -30.8300 O   0  0  0  0  0  0  0  0  0  0  0  0
   -5.7300   26.1450  -30.4520 C   0  0  0  0  0  0  0  0  0  0  0  0
   -4.7770   23.1550  -31.0110 C   0  0  0  0  0  0  0  0  0  0  0  0
   -6.4490   21.1090  -31.8430 C   0  0  2  0  0  0  0  0  0  0  0  0
   -7.5400   21.5750  -30.9570 C   0  0  0  0  0  0  0  0  0  0  0  0
   -7.3990   22.3320  -29.9620 O   0  0  0  0  0  0  0  0  0  0  0  0
   -8.7730   21.1490  -31.4260 O   0  0  0  0  0  0  0  0  0  0  0  0
   -8.6050   20.3320  -32.5800 C   0  0  0  0  0  0  0  0  0  0  0  0
   -7.1310   19.9170  -32.4990 C   0  0  1  0  0  0  0  0  0  0  0  0
   -6.3890   19.5720  -33.7830 C   0  0  0  0  0  0  0  0  0  0  0  0
   -2.1720   15.7020  -34.3667 H   0  0  0  0  0  0  0  0  0  0  0  0
   -3.0362   16.0902  -35.8928 H   0  0  0  0  0  0  0  0  0  0  0  0
   -1.2486   15.9140  -35.8928 H   0  0  0  0  0  0  0  0  0  0  0  0
   -4.5927   18.2720  -35.3191 H   0  0  0  0  0  0  0  0  0  0  0  0
   -2.5000   19.8902  -31.0794 H   0  0  0  0  0  0  0  0  0  0  0  0
   -0.2560   18.0610  -33.2740 H   0  0  0  0  0  0  0  0  0  0  0  0
   -5.3022   19.9842  -30.3774 H   0  0  0  0  0  0  0  0  0  0  0  0
   -2.8280   20.6685  -29.7043 H   0  0  0  0  0  0  0  0  0  0  0  0
   -1.5651   22.6423  -28.8682 H   0  0  0  0  0  0  0  0  0  0  0  0
   -2.2958   25.2203  -27.2514 H   0  0  0  0  0  0  0  0  0  0  0  0
   -0.8076   24.5286  -27.9817 H   0  0  0  0  0  0  0  0  0  0  0  0
   -1.0654   26.3063  -27.9817 H   0  0  0  0  0  0  0  0  0  0  0  0
   -5.8016   26.1767  -29.3548 H   0  0  0  0  0  0  0  0  0  0  0  0
   -5.8155   27.1651  -30.8547 H   0  0  0  0  0  0  0  0  0  0  0  0
   -6.5426   25.5225  -30.8547 H   0  0  0  0  0  0  0  0  0  0  0  0
   -5.6823   23.2993  -31.6190 H   0  0  0  0  0  0  0  0  0  0  0  0
   -6.1014   21.9486  -32.4629 H   0  0  0  0  0  0  0  0  0  0  0  0
   -9.2656   19.4533  -32.5416 H   0  0  0  0  0  0  0  0  0  0  0  0
   -8.8583   20.8492  -33.5172 H   0  0  0  0  0  0  0  0  0  0  0  0
   -7.1011   18.9585  -31.9601 H   0  0  0  0  0  0  0  0  0  0  0  0
   -6.8156   18.6571  -34.2200 H   0  0  0  0  0  0  0  0  0  0  0  0
   -6.4894   20.3988  -34.5015 H   0  0  0  0  0  0  0  0  0  0  0  0
  1  2  1  0
  2  3  1  0
  3  4  2  0
  4  5  1  0
  5  6  2  0
  6  7  1  0
  7  8  2  0
  8  9  1  0
  6 10  1  0
 10 11  1  0
 11 12  2  0
 12 13  1  0
 13 14  2  0
 14 15  1  0
 15 16  1  0
 14 17  1  0
 17 18  1  0
 18 19  1  0
 17 20  2  0
 10 21  1  0
 21 22  1  0
 22 23  2  0
 22 24  1  0
 24 25  1  0
 25 26  1  0
 26 27  1  0
  8  3  1  0
 20 11  1  0
 26 21  1  0
 27  5  1  0
  1 28  1  0
  1 29  1  0
  1 30  1  0
  4 31  1  0
  7 32  1  0
  9 33  1  0
 10 34  1  1
 12 35  1  0
 13 36  1  0
 16 37  1  0
 16 38  1  0
 16 39  1  0
 19 40  1  0
 19 41  1  0
 19 42  1  0
 20 43  1  0
 21 44  1  6
 25 45  1  0
 25 46  1  0
 26 47  1  1
 27 48  1  0
 27 49  1  0
M  END
>  <UniqueID>  (24) 
23

>  <SMILES>  (24) 
COc1cc2c(cc1O)[C@@H](c1ccc(OC)c(OC)c1)[C@@H]1C(=O)OCC1C2

>  <Energy>  (24) 
72.22592139052857

>  <Genealogy>  (24) 
COc1cc2c(cc1O)[C@@H](c1ccc(OC)c(OC)c1)[C@@H]1C(=O)OCC1C2 (chirality)
COc1cc2c(cc1O)[C@@H](c1ccc(OC)c(OC)c1)[C@@H]1C(=O)OCC1C2 (3D coordinates assigned)
COc1cc2c(cc1O)[C@@H](c1ccc(OC)c(OC)c1)[C@@H]1C(=O)OCC1C2 (nonaromatic ring conformer: 72.22592139052857 kcal/mol)

>  <smiles>  (24) 
COc1cc2c(cc1O)C(c1ccc(OC)c(OC)c1)C1C(=O)OCC1C2

>  <score_type>  (24) 
oracle

>  <origin>  (24) 
adg

>  <m_score__min__energy>  (24) 
-8.0500000000000007

>  <m_primary>  (24) 
energy

$$$$
24:0
     RDKit          3D

 44 47  0  0  1  0  0  0  0  0999 V2000
   -4.1190   24.9360  -26.7170 C   0  0  0  0  0  0  0  0  0  0  0  0
   -4.1280   21.4720  -32.6950 N   0  0  0  0  0  0  0  0  0  0  0  0
   -3.5930   21.6820  -31.5520 C   0  0  0  0  0  0  0  0  0  0  0  0
   -2.6660   20.8310  -31.0370 N   0  0  0  0  0  0  0  0  0  0  0  0
   -2.0910   21.0330  -29.8380 C   0  0  0  0  0  0  0  0  0  0  0  0
   -2.4580   22.1330  -29.1170 N   0  0  0  0  0  0  0  0  0  0  0  0
   -3.3840   22.9940  -29.6160 C   0  0  0  0  0  0  0  0  0  0  0  0
   -3.7750   24.1140  -28.9140 C   0  0  0  0  0  0  0  0  0  0  0  0
   -3.2840   24.3960  -27.7580 N   0  0  0  0  0  0  0  0  0  0  0  0
   -5.2960   20.6680  -32.8360 C   0  0  0  0  0  0  0  0  0  0  0  0
   -5.2680   19.3930  -33.3690 C   0  0  0  0  0  0  0  0  0  0  0  0
   -6.3940   18.6100  -33.5090 C   0  0  0  0  0  0  0  0  0  0  0  0
   -6.3570   16.9990  -34.1830 Cl  0  0  0  0  0  0  0  0  0  0  0  0
   -7.5920   19.1480  -33.0900 C   0  0  0  0  0  0  0  0  0  0  0  0
   -7.6930   20.4050  -32.5520 C   0  0  0  0  0  0  0  0  0  0  0  0
   -9.2010   21.1100  -32.0120 Cl  0  0  0  0  0  0  0  0  0  0  0  0
   -6.5450   21.1490  -32.4320 C   0  0  0  0  0  0  0  0  0  0  0  0
   -4.6940   24.9360  -29.4540 N   0  0  0  0  0  0  0  0  0  0  0  0
   -5.2630   24.7250  -30.6550 C   0  0  0  0  0  0  0  0  0  0  0  0
   -1.1220   20.1070  -29.3550 N   0  0  0  0  0  0  0  0  0  0  0  0
   -1.1980   19.6740  -27.9990 C   0  0  0  0  0  0  0  0  0  0  0  0
   -0.2450   18.5080  -27.8440 C   0  0  0  0  0  0  0  0  0  0  0  0
    1.0260   18.9880  -28.1310 O   0  0  0  0  0  0  0  0  0  0  0  0
    1.2000   19.2930  -29.4670 C   0  0  0  0  0  0  0  0  0  0  0  0
   -0.0670   19.5980  -30.1950 C   0  0  0  0  0  0  0  0  0  0  0  0
   -4.8920   23.6360  -31.3510 N   0  0  0  0  0  0  0  0  0  0  0  0
   -3.9820   22.7980  -30.8480 C   0  0  0  0  0  0  0  0  0  0  0  0
   -3.7020   24.6663  -25.7355 H   0  0  0  0  0  0  0  0  0  0  0  0
   -4.1588   26.0313  -26.8100 H   0  0  0  0  0  0  0  0  0  0  0  0
   -5.1343   24.5230  -26.8100 H   0  0  0  0  0  0  0  0  0  0  0  0
   -2.4420   20.0100  -31.6550 H   0  0  0  0  0  0  0  0  0  0  0  0
   -6.0112   25.4243  -31.0564 H   0  0  0  0  0  0  0  0  0  0  0  0
   -4.3012   18.9836  -33.6971 H   0  0  0  0  0  0  0  0  0  0  0  0
   -8.5053   18.5434  -33.1916 H   0  0  0  0  0  0  0  0  0  0  0  0
   -6.6105   22.1596  -32.0026 H   0  0  0  0  0  0  0  0  0  0  0  0
   -5.0270   25.8110  -28.9510 H   0  0  0  0  0  0  0  0  0  0  0  0
   -0.9039   20.4925  -27.3256 H   0  0  0  0  0  0  0  0  0  0  0  0
   -2.2249   19.3739  -27.7433 H   0  0  0  0  0  0  0  0  0  0  0  0
   -0.2811   18.1238  -26.8139 H   0  0  0  0  0  0  0  0  0  0  0  0
   -0.5172   17.6832  -28.5190 H   0  0  0  0  0  0  0  0  0  0  0  0
    1.8584   20.1714  -29.5374 H   0  0  0  0  0  0  0  0  0  0  0  0
    1.6301   18.3989  -29.9420 H   0  0  0  0  0  0  0  0  0  0  0  0
    0.1514   20.3493  -30.9682 H   0  0  0  0  0  0  0  0  0  0  0  0
   -0.4275   18.6474  -30.6150 H   0  0  0  0  0  0  0  0  0  0  0  0
  1  2  1  0
  2  3  2  0
  3  4  1  0
  4  5  1  0
  5  6  2  0
  6  7  1  0
  7  8  1  0
  8  9  2  0
  9 10  1  0
 10 11  2  0
 11 12  1  0
 12 13  1  0
 12 14  2  0
 14 15  1  0
 15 16  1  0
 15 17  2  0
  8 18  1  0
 18 19  1  0
 19 20  1  0
 20 21  1  0
 21 22  1  0
 22 23  1  0
 23 24  1  0
 24 25  1  0
 19 26  2  0
 26 27  1  0
 27  3  1  0
 27  7  2  0
 17 10  1  0
 25 20  1  0
  1 28  1  0
  1 29  1  0
  1 30  1  0
  4 31  1  0
  5 32  1  0
 11 33  1  0
 14 34  1  0
 17 35  1  0
 18 36  1  0
 21 37  1  0
 21 38  1  0
 22 39  1  0
 22 40  1  0
 24 41  1  0
 24 42  1  0
 25 43  1  0
 25 44  1  0
M  END
>  <smiles>  (25) 
CN=c1[nH]cnc2c(=Nc3cc(Cl)cc(Cl)c3)[nH]c(N3CCOCC3)nc12

>  <score_type>  (25) 
oracle

>  <origin>  (25) 
adg

>  <m_score__min__energy>  (25) 
-8.4499999999999993

>  <m_primary>  (25) 
energy

$$$$
25:0
     RDKit          3D

 33 34  0  0  0  0  0  0  0  0999 V2000
   -8.0715   20.8332  -30.3380 H   0  0  0  0  0  0  0  0  0  0  0  0
   -8.5490   21.3460  -31.1860 C   0  0  0  0  0  0  0  0  0  0  0  0
   -9.4080   20.5640  -32.1010 C   0  0  0  0  0  0  0  0  0  0  0  0
  -10.5910   20.9310  -32.3270 O   0  0  0  0  0  0  0  0  0  0  0  0
   -8.9410   19.3420  -32.6910 N   0  0  0  0  0  0  0  0  0  0  0  0
   -7.5790   18.8990  -32.7610 C   0  0  0  0  0  0  0  0  0  0  0  0
   -7.1250   17.7840  -32.0300 C   0  0  0  0  0  0  0  0  0  0  0  0
   -7.8267   17.2181  -31.3997 H   0  0  0  0  0  0  0  0  0  0  0  0
   -5.7840   17.3950  -32.1040 C   0  0  0  0  0  0  0  0  0  0  0  0
   -5.4361   16.5152  -31.5428 H   0  0  0  0  0  0  0  0  0  0  0  0
   -4.8850   18.1210  -32.8890 C   0  0  0  0  0  0  0  0  0  0  0  0
   -3.8324   17.8078  -32.9521 H   0  0  0  0  0  0  0  0  0  0  0  0
   -5.3230   19.2450  -33.5940 C   0  0  0  0  0  0  0  0  0  0  0  0
   -4.6130   19.8214  -34.2053 H   0  0  0  0  0  0  0  0  0  0  0  0
   -6.6640   19.6380  -33.5230 C   0  0  0  0  0  0  0  0  0  0  0  0
   -7.0018   20.5317  -34.0681 H   0  0  0  0  0  0  0  0  0  0  0  0
   -8.3320   22.6580  -31.3540 C   0  0  0  0  0  0  0  0  0  0  0  0
   -9.1652   23.2829  -31.7078 H   0  0  0  0  0  0  0  0  0  0  0  0
   -7.0280   23.3110  -31.0880 C   0  0  0  0  0  0  0  0  0  0  0  0
   -7.0160   24.5460  -30.4240 C   0  0  0  0  0  0  0  0  0  0  0  0
   -7.9642   25.0041  -30.1062 H   0  0  0  0  0  0  0  0  0  0  0  0
   -5.8090   25.1990  -30.1630 C   0  0  0  0  0  0  0  0  0  0  0  0
   -5.8109   26.1629  -29.6331 H   0  0  0  0  0  0  0  0  0  0  0  0
   -4.6010   24.6330  -30.5720 C   0  0  0  0  0  0  0  0  0  0  0  0
   -3.4070   25.2940  -30.3030 O   0  0  0  0  0  0  0  0  0  0  0  0
   -4.5870   23.4100  -31.2550 C   0  0  0  0  0  0  0  0  0  0  0  0
   -3.3500   22.8830  -31.6580 O   0  0  0  0  0  0  0  0  0  0  0  0
   -3.1930   21.7830  -32.5490 C   0  0  0  0  0  0  0  0  0  0  0  0
   -3.0609   20.8575  -31.9693 H   0  0  0  0  0  0  0  0  0  0  0  0
   -4.0876   21.6940  -33.1829 H   0  0  0  0  0  0  0  0  0  0  0  0
   -2.3093   21.9479  -33.1829 H   0  0  0  0  0  0  0  0  0  0  0  0
   -5.8060   22.7520  -31.5160 C   0  0  0  0  0  0  0  0  0  0  0  0
   -5.8041   21.7947  -32.0579 H   0  0  0  0  0  0  0  0  0  0  0  0
  1  2  1  0
  2  3  1  0
  3  4  2  0
  3  5  1  0
  5  6  1  0
  6  7  2  0
  7  8  1  0
  7  9  1  0
  9 10  1  0
  9 11  2  0
 11 12  1  0
 11 13  1  0
 13 14  1  0
 13 15  2  0
 15 16  1  0
  2 17  2  0
 17 18  1  0
 17 19  1  0
 19 20  2  0
 20 21  1  0
 20 22  1  0
 22 23  1  0
 22 24  2  0
 24 25  1  0
 24 26  1  0
 26 27  1  0
 27 28  1  0
 28 29  1  0
 28 30  1  0
 28 31  1  0
 26 32  2  0
 32 33  1  0
 15  6  1  0
 32 19  1  0
M  CHG  2   5  -1  25  -1
M  END
>  <UniqueID>  (26) 
24

>  <SMILES>  (26) 
COc1cc(/C=C/C(=O)[N-]c2ccccc2)ccc1[O-]

>  <Energy>  (26) 
39.297958829343564

>  <Genealogy>  (26) 
COc1cc(C=CC(=O)[N-]c2ccccc2)ccc1[O-] (protonated)
COc1cc(/C=C/C(=O)[N-]c2ccccc2)ccc1[O-] (cis-trans isomerization)
COc1cc(/C=C/C(=O)[N-]c2ccccc2)ccc1[O-] (3D coordinates assigned)
COc1cc(/C=C/C(=O)[N-]c2ccccc2)ccc1[O-] (optimized conformer: 39.297958829343564 kcal/mol)

>  <smiles>  (26) 
COc1cc(C=CC(=O)Nc2ccccc2)ccc1O

>  <score_type>  (26) 
oracle

>  <origin>  (26) 
adg

>  <m_score__min__energy>  (26) 
-10.57

>  <m_primary>  (26) 
energy

$$$$
26:0
     RDKit          3D

 32 34  0  0  0  0  0  0  0  0999 V2000
   -2.7120   22.8824  -30.6464 H   0  0  0  0  0  0  0  0  0  0  0  0
   -3.6920   23.3520  -30.8170 C   0  0  0  0  0  0  0  0  0  0  0  0
   -4.6350   22.7230  -31.6370 C   0  0  0  0  0  0  0  0  0  0  0  0
   -4.4008   21.7505  -32.0945 H   0  0  0  0  0  0  0  0  0  0  0  0
   -5.8760   23.3260  -31.8780 C   0  0  0  0  0  0  0  0  0  0  0  0
   -6.8380   22.6380  -32.6940 N   0  0  0  0  0  0  0  0  0  0  0  0
   -7.9280   22.0420  -32.2980 C   0  0  0  0  0  0  0  0  0  0  0  0
   -8.0090   20.5740  -32.1070 C   0  0  0  0  0  0  0  0  0  0  0  0
   -8.8740   19.8950  -31.2510 C   0  0  0  0  0  0  0  0  0  0  0  0
   -9.5927   20.3791  -30.5735 H   0  0  0  0  0  0  0  0  0  0  0  0
   -8.7070   18.5580  -31.3690 N   0  0  0  0  0  0  0  0  0  0  0  0
   -9.2230   17.8150  -30.8480 H   0  0  0  0  0  0  0  0  0  0  0  0
   -7.7500   18.3850  -32.2960 C   0  0  0  0  0  0  0  0  0  0  0  0
   -7.2290   17.1740  -32.7530 C   0  0  0  0  0  0  0  0  0  0  0  0
   -7.5995   16.2142  -32.3639 H   0  0  0  0  0  0  0  0  0  0  0  0
   -6.2160   17.2190  -33.7260 C   0  0  0  0  0  0  0  0  0  0  0  0
   -5.7867   16.2823  -34.1112 H   0  0  0  0  0  0  0  0  0  0  0  0
   -5.7450   18.4590  -34.2130 C   0  0  0  0  0  0  0  0  0  0  0  0
   -4.9494   18.4813  -34.9723 H   0  0  0  0  0  0  0  0  0  0  0  0
   -6.2870   19.6650  -33.7330 C   0  0  0  0  0  0  0  0  0  0  0  0
   -5.9240   20.6362  -34.1003 H   0  0  0  0  0  0  0  0  0  0  0  0
   -7.3010   19.5900  -32.7750 C   0  0  0  0  0  0  0  0  0  0  0  0
   -9.1140   22.8930  -31.9650 C   0  0  0  0  0  0  0  0  0  0  0  0
   -9.2170   22.9669  -30.8723 H   0  0  0  0  0  0  0  0  0  0  0  0
   -8.9745   23.8984  -32.3890 H   0  0  0  0  0  0  0  0  0  0  0  0
  -10.0218   22.4389  -32.3890 H   0  0  0  0  0  0  0  0  0  0  0  0
   -6.1880   24.5410  -31.2410 C   0  0  0  0  0  0  0  0  0  0  0  0
   -7.1773   24.9990  -31.3877 H   0  0  0  0  0  0  0  0  0  0  0  0
   -5.2440   25.1680  -30.4220 C   0  0  0  0  0  0  0  0  0  0  0  0
   -5.4850   26.1273  -29.9408 H   0  0  0  0  0  0  0  0  0  0  0  0
   -3.9940   24.5770  -30.2140 C   0  0  0  0  0  0  0  0  0  0  0  0
   -3.0800   25.1840  -29.4180 F   0  0  0  0  0  0  0  0  0  0  0  0
  1  2  1  0
  2  3  2  0
  3  4  1  0
  3  5  1  0
  5  6  1  0
  6  7  2  0
  7  8  1  0
  8  9  2  0
  9 10  1  0
  9 11  1  0
 11 12  1  0
 11 13  1  0
 13 14  2  0
 14 15  1  0
 14 16  1  0
 16 17  1  0
 16 18  2  0
 18 19  1  0
 18 20  1  0
 20 21  1  0
 20 22  2  0
  7 23  1  0
 23 24  1  0
 23 25  1  0
 23 26  1  0
  5 27  2  0
 27 28  1  0
 27 29  1  0
 29 30  1  0
 29 31  2  0
 31 32  1  0
 31  2  1  0
 22  8  1  0
 22 13  1  0
M  END
>  <UniqueID>  (27) 
25

>  <SMILES>  (27) 
C/C(=N/c1ccc(F)cc1)c1c[nH]c2ccccc12

>  <Energy>  (27) 
77.20347874120725

>  <Genealogy>  (27) 
C/C(=N/c1ccc(F)cc1)c1c[nH]c2ccccc12 (cis-trans isomerization)
C/C(=N/c1ccc(F)cc1)c1c[nH]c2ccccc12 (3D coordinates assigned)
C/C(=N/c1ccc(F)cc1)c1c[nH]c2ccccc12 (optimized conformer: 77.20347874120725 kcal/mol)

>  <smiles>  (27) 
CC(=Nc1ccc(F)cc1)c1c[nH]c2ccccc12

>  <score_type>  (27) 
oracle

>  <origin>  (27) 
adg

>  <m_score__min__energy>  (27) 
-7.9299999999999997

>  <m_primary>  (27) 
energy

$$$$
27:0
     RDKit          3D

 23 24  0  0  0  0  0  0  0  0999 V2000
   -9.8380   20.9970  -31.9590 C   0  0  0  0  0  0  0  0  0  0  0  0
   -8.3650   21.0840  -32.2230 C   0  0  0  0  0  0  0  0  0  0  0  0
   -7.7040   20.0390  -32.8840 C   0  0  0  0  0  0  0  0  0  0  0  0
   -6.3200   20.0950  -33.0940 C   0  0  0  0  0  0  0  0  0  0  0  0
   -5.6270   18.9970  -33.8460 C   0  0  0  0  0  0  0  0  0  0  0  0
   -5.5970   21.2140  -32.6560 C   0  0  0  0  0  0  0  0  0  0  0  0
   -6.2410   22.2630  -31.9720 C   0  0  0  0  0  0  0  0  0  0  0  0
   -5.5060   23.4110  -31.4980 N   0  0  0  0  0  0  0  0  0  0  0  0
   -5.9530   24.6510  -31.2230 C   0  0  0  0  0  0  0  0  0  0  0  0
   -4.9310   25.4220  -30.8070 N   0  0  0  0  0  0  0  0  0  0  0  0
   -3.8640   24.6360  -30.8350 N   0  0  0  0  0  0  0  0  0  0  0  0
   -4.2070   23.4260  -31.2500 N   0  0  0  0  0  0  0  0  0  0  0  0
   -7.6280   22.1820  -31.7550 C   0  0  0  0  0  0  0  0  0  0  0  0
  -10.0160   20.9865  -30.8735 H   0  0  0  0  0  0  0  0  0  0  0  0
  -10.3424   21.8669  -32.4049 H   0  0  0  0  0  0  0  0  0  0  0  0
  -10.2365   20.0738  -32.4049 H   0  0  0  0  0  0  0  0  0  0  0  0
   -8.2759   19.1694  -33.2401 H   0  0  0  0  0  0  0  0  0  0  0  0
   -5.1802   18.2891  -33.1323 H   0  0  0  0  0  0  0  0  0  0  0  0
   -6.3559   18.4691  -34.4785 H   0  0  0  0  0  0  0  0  0  0  0  0
   -4.8368   19.4278  -34.4785 H   0  0  0  0  0  0  0  0  0  0  0  0
   -4.5156   21.2729  -32.8487 H   0  0  0  0  0  0  0  0  0  0  0  0
   -6.9966   24.9840  -31.3232 H   0  0  0  0  0  0  0  0  0  0  0  0
   -8.1411   22.9892  -31.2118 H   0  0  0  0  0  0  0  0  0  0  0  0
  1  2  1  0
  2  3  2  0
  3  4  1  0
  4  5  1  0
  4  6  2  0
  6  7  1  0
  7  8  1  0
  8  9  1  0
  9 10  2  0
 10 11  1  0
 11 12  2  0
  7 13  2  0
 13  2  1  0
 12  8  1  0
  1 14  1  0
  1 15  1  0
  1 16  1  0
  3 17  1  0
  5 18  1  0
  5 19  1  0
  5 20  1  0
  6 21  1  0
  9 22  1  0
 13 23  1  0
M  END
>  <UniqueID>  (28) 
26

>  <SMILES>  (28) 
Cc1cc(C)cc(-n2cnnn2)c1

>  <Energy>  (28) 
63.525942882615844

>  <Genealogy>  (28) 
Cc1cc(C)cc(-n2cnnn2)c1 (3D coordinates assigned)
Cc1cc(C)cc(-n2cnnn2)c1 (optimized conformer: 63.525942882615844 kcal/mol)

>  <smiles>  (28) 
Cc1cc(C)cc(-n2cnnn2)c1

>  <score_type>  (28) 
oracle

>  <origin>  (28) 
adg

>  <m_score__min__energy>  (28) 
-7.1100000000000003

>  <m_primary>  (28) 
energy

$$$$
28:0
     RDKit          3D

 48 50  0  0  0  0  0  0  0  0999 V2000
   -4.9820   24.4580  -29.2390 C   0  0  0  0  0  0  0  0  0  0  0  0
   -4.5280   23.0070  -29.2680 C   0  0  0  0  0  0  0  0  0  0  0  0
   -4.9270   22.4070  -30.4960 O   0  0  0  0  0  0  0  0  0  0  0  0
   -5.7720   23.0470  -31.4080 C   0  0  0  0  0  0  0  0  0  0  0  0
   -5.2800   23.7580  -32.3280 O   0  0  0  0  0  0  0  0  0  0  0  0
   -7.2000   22.8770  -31.3140 N   0  0  0  0  0  0  0  0  0  0  0  0
   -7.8050   22.3210  -30.0980 C   0  0  0  0  0  0  0  0  0  0  0  0
   -8.9810   21.3740  -30.4170 C   0  0  0  0  0  0  0  0  0  0  0  0
   -9.5060   21.5130  -31.7920 N   0  0  0  0  0  0  0  0  0  0  0  0
   -9.1250   20.4430  -32.7430 C   0  0  0  0  0  0  0  0  0  0  0  0
   -7.6370   20.2170  -32.8540 C   0  0  0  0  0  0  0  0  0  0  0  0
   -6.7630   21.1840  -33.2310 N   0  0  0  0  0  0  0  0  0  0  0  0
   -5.5480   20.6160  -33.1760 C   0  0  0  0  0  0  0  0  0  0  0  0
   -4.3700   21.2210  -33.4750 N   0  0  0  0  0  0  0  0  0  0  0  0
   -3.2040   20.5100  -33.3600 C   0  0  0  0  0  0  0  0  0  0  0  0
   -1.9000   21.1410  -33.7420 C   0  0  0  0  0  0  0  0  0  0  0  0
   -3.2390   19.1540  -32.9440 C   0  0  0  0  0  0  0  0  0  0  0  0
   -4.4650   18.5470  -32.6290 C   0  0  0  0  0  0  0  0  0  0  0  0
   -5.6170   19.3160  -32.7630 C   0  0  0  0  0  0  0  0  0  0  0  0
   -6.9520   19.0320  -32.5500 C   0  0  0  0  0  0  0  0  0  0  0  0
   -7.5140   17.7680  -31.9720 C   0  0  0  0  0  0  0  0  0  0  0  0
   -9.4780   22.8910  -32.3140 C   0  0  0  0  0  0  0  0  0  0  0  0
   -8.0640   23.4890  -32.3300 C   0  0  0  0  0  0  0  0  0  0  0  0
   -5.0856   24.7890  -28.1951 H   0  0  0  0  0  0  0  0  0  0  0  0
   -4.2373   25.0855  -29.7505 H   0  0  0  0  0  0  0  0  0  0  0  0
   -5.9516   24.5491  -29.7505 H   0  0  0  0  0  0  0  0  0  0  0  0
   -3.4325   22.9642  -29.1784 H   0  0  0  0  0  0  0  0  0  0  0  0
   -4.9872   22.4633  -28.4292 H   0  0  0  0  0  0  0  0  0  0  0  0
   -7.0377   21.7600  -29.5444 H   0  0  0  0  0  0  0  0  0  0  0  0
   -8.1957   23.1577  -29.5003 H   0  0  0  0  0  0  0  0  0  0  0  0
   -8.6381   20.3378  -30.2803 H   0  0  0  0  0  0  0  0  0  0  0  0
   -9.8006   21.6413  -29.7337 H   0  0  0  0  0  0  0  0  0  0  0  0
   -9.5930   19.5042  -32.4120 H   0  0  0  0  0  0  0  0  0  0  0  0
   -9.4716   20.7640  -33.7364 H   0  0  0  0  0  0  0  0  0  0  0  0
   -6.9740   22.1730  -33.4860 H   0  0  0  0  0  0  0  0  0  0  0  0
   -4.3630   22.2150  -33.7950 H   0  0  0  0  0  0  0  0  0  0  0  0
   -1.3428   21.4106  -32.8327 H   0  0  0  0  0  0  0  0  0  0  0  0
   -1.3087   20.4294  -34.3369 H   0  0  0  0  0  0  0  0  0  0  0  0
   -2.0911   22.0463  -34.3369 H   0  0  0  0  0  0  0  0  0  0  0  0
   -2.3049   18.5780  -32.8683 H   0  0  0  0  0  0  0  0  0  0  0  0
   -4.5132   17.5020  -32.2888 H   0  0  0  0  0  0  0  0  0  0  0  0
   -7.4890   17.8242  -30.8737 H   0  0  0  0  0  0  0  0  0  0  0  0
   -8.5534   17.6411  -32.3091 H   0  0  0  0  0  0  0  0  0  0  0  0
   -6.9120   16.9113  -32.3091 H   0  0  0  0  0  0  0  0  0  0  0  0
   -9.8699   22.8862  -33.3418 H   0  0  0  0  0  0  0  0  0  0  0  0
  -10.0942   23.5119  -31.6471 H   0  0  0  0  0  0  0  0  0  0  0  0
   -7.6189   23.3232  -33.3222 H   0  0  0  0  0  0  0  0  0  0  0  0
   -8.1453   24.5630  -32.1066 H   0  0  0  0  0  0  0  0  0  0  0  0
  1  2  1  0
  2  3  1  0
  3  4  1  0
  4  5  2  0
  4  6  1  0
  6  7  1  0
  7  8  1  0
  8  9  1  0
  9 10  1  0
 10 11  1  0
 11 12  1  0
 12 13  1  0
 13 14  2  0
 14 15  1  0
 15 16  1  0
 15 17  2  0
 17 18  1  0
 18 19  2  0
 19 20  1  0
 20 21  1  0
  9 22  1  0
 22 23  1  0
 23  6  1  0
 20 11  2  0
 19 13  1  0
  1 24  1  0
  1 25  1  0
  1 26  1  0
  2 27  1  0
  2 28  1  0
  7 29  1  0
  7 30  1  0
  8 31  1  0
  8 32  1  0
 10 33  1  0
 10 34  1  0
 12 35  1  0
 14 36  1  0
 16 37  1  0
 16 38  1  0
 16 39  1  0
 17 40  1  0
 18 41  1  0
 21 42  1  0
 21 43  1  0
 21 44  1  0
 22 45  1  0
 22 46  1  0
 23 47  1  0
 23 48  1  0
M  CHG  1  14   1
M  END
>  <UniqueID>  (29) 
27

>  <SMILES>  (29) 
CCOC(=O)N1CCN(Cc2[nH]c3[nH+]c(C)ccc3c2C)CC1

>  <Energy>  (29) 
82.99943295036229

>  <Genealogy>  (29) 
CCOC(=O)N1CCN(Cc2[nH]c3[nH+]c(C)ccc3c2C)CC1 (protonated)
CCOC(=O)N1CCN(Cc2[nH]c3[nH+]c(C)ccc3c2C)CC1 (3D coordinates assigned)
CCOC(=O)N1CCN(Cc2[nH]c3[nH+]c(C)ccc3c2C)CC1 (nonaromatic ring conformer: 82.99943295036229 kcal/mol)

>  <smiles>  (29) 
CCOC(=O)N1CCN(Cc2[nH]c3nc(C)ccc3c2C)CC1

>  <score_type>  (29) 
oracle

>  <origin>  (29) 
adg

>  <m_score__min__energy>  (29) 
-6.6500000000000004

>  <m_primary>  (29) 
energy

$$$$
29:0
     RDKit          3D

 33 35  0  0  0  0  0  0  0  0999 V2000
   -6.3710   17.6800  -31.9190 C   0  0  0  0  0  0  0  0  0  0  0  0
   -6.0960   19.0670  -31.7500 O   0  0  0  0  0  0  0  0  0  0  0  0
   -7.0470   20.0980  -31.8420 C   0  0  0  0  0  0  0  0  0  0  0  0
   -8.4130   19.7890  -32.0000 C   0  0  0  0  0  0  0  0  0  0  0  0
   -9.3800   20.7890  -31.9770 C   0  0  0  0  0  0  0  0  0  0  0  0
   -9.0120   22.1110  -31.7680 C   0  0  0  0  0  0  0  0  0  0  0  0
   -7.6620   22.4540  -31.6210 C   0  0  0  0  0  0  0  0  0  0  0  0
   -7.3160   23.7770  -31.3500 C   0  0  0  0  0  0  0  0  0  0  0  0
   -5.9860   24.1240  -31.1320 C   0  0  0  0  0  0  0  0  0  0  0  0
   -5.6310   25.5500  -30.7910 C   0  0  0  0  0  0  0  0  0  0  0  0
   -4.2420   25.6850  -30.6690 O   0  0  0  0  0  0  0  0  0  0  0  0
   -4.9900   23.1490  -31.3050 C   0  0  0  0  0  0  0  0  0  0  0  0
   -3.7830   23.4670  -31.1110 O   0  0  0  0  0  0  0  0  0  0  0  0
   -5.3150   21.8650  -31.6890 N   0  0  0  0  0  0  0  0  0  0  0  0
   -4.2100   20.9460  -32.0340 C   0  0  0  0  0  0  0  0  0  0  0  0
   -4.2460   20.4240  -33.4710 C   0  0  0  0  0  0  0  0  0  0  0  0
   -3.2350   21.4800  -33.0880 C   0  0  0  0  0  0  0  0  0  0  0  0
   -6.6440   21.4660  -31.7250 C   0  0  0  0  0  0  0  0  0  0  0  0
   -6.4657   17.2022  -30.9328 H   0  0  0  0  0  0  0  0  0  0  0  0
   -7.3108   17.5579  -32.4774 H   0  0  0  0  0  0  0  0  0  0  0  0
   -5.5488   17.2086  -32.4774 H   0  0  0  0  0  0  0  0  0  0  0  0
   -8.7190   18.7422  -32.1436 H   0  0  0  0  0  0  0  0  0  0  0  0
  -10.4391   20.5313  -32.1248 H   0  0  0  0  0  0  0  0  0  0  0  0
   -9.7841   22.8928  -31.7176 H   0  0  0  0  0  0  0  0  0  0  0  0
   -8.0976   24.5499  -31.3083 H   0  0  0  0  0  0  0  0  0  0  0  0
   -5.9924   26.2155  -31.5888 H   0  0  0  0  0  0  0  0  0  0  0  0
   -6.1040   25.8197  -29.8352 H   0  0  0  0  0  0  0  0  0  0  0  0
   -3.8720   25.6440  -31.5890 H   0  0  0  0  0  0  0  0  0  0  0  0
   -4.1135   20.4954  -31.0352 H   0  0  0  0  0  0  0  0  0  0  0  0
   -3.9123   19.3992  -33.6909 H   0  0  0  0  0  0  0  0  0  0  0  0
   -5.0226   20.3395  -34.2455 H   0  0  0  0  0  0  0  0  0  0  0  0
   -2.1673   21.2222  -33.0290 H   0  0  0  0  0  0  0  0  0  0  0  0
   -2.9742   22.4786  -33.4684 H   0  0  0  0  0  0  0  0  0  0  0  0
  1  2  1  0
  2  3  1  0
  3  4  2  0
  4  5  1  0
  5  6  2  0
  6  7  1  0
  7  8  1  0
  8  9  2  0
  9 10  1  0
 10 11  1  0
  9 12  1  0
 12 13  2  0
 12 14  1  0
 14 15  1  0
 15 16  1  0
 16 17  1  0
 14 18  1  0
 18  3  1  0
 18  7  2  0
 17 15  1  0
  1 19  1  0
  1 20  1  0
  1 21  1  0
  4 22  1  0
  5 23  1  0
  6 24  1  0
  8 25  1  0
 10 26  1  0
 10 27  1  0
 11 28  1  0
 15 29  1  0
 16 30  1  0
 16 31  1  0
 17 32  1  0
 17 33  1  0
M  END
>  <UniqueID>  (30) 
28

>  <SMILES>  (30) 
COc1cccc2cc(CO)c(=O)n(C3CC3)c12

>  <Energy>  (30) 
314.12028800775386

>  <Genealogy>  (30) 
COc1cccc2cc(CO)c(=O)n(C3CC3)c12 (3D coordinates assigned)
COc1cccc2cc(CO)c(=O)n(C3CC3)c12 (nonaromatic ring conformer: 314.12028800775386 kcal/mol)

>  <smiles>  (30) 
COc1cccc2cc(CO)c(=O)n(C3CC3)c12

>  <score_type>  (30) 
oracle

>  <origin>  (30) 
adg

>  <m_score__min__energy>  (30) 
-8.1600000000000001

>  <m_primary>  (30) 
energy

$$$$
30:0
     RDKit          3D

 37 39  0  0  0  0  0  0  0  0999 V2000
   -4.1490   21.8100  -32.1230 C   0  0  0  0  0  0  0  0  0  0  0  0
   -4.6080   23.0460  -31.4200 C   0  0  0  0  0  0  0  0  0  0  0  0
   -3.8230   24.1190  -31.1950 N   0  0  0  0  0  0  0  0  0  0  0  0
   -4.5520   25.0020  -30.5750 O   0  0  0  0  0  0  0  0  0  0  0  0
   -5.7750   24.5600  -30.3820 C   0  0  0  0  0  0  0  0  0  0  0  0
   -6.8590   25.3420  -29.7190 C   0  0  0  0  0  0  0  0  0  0  0  0
   -5.8740   23.2920  -30.9190 C   0  0  0  0  0  0  0  0  0  0  0  0
   -7.0770   22.3940  -30.9440 C   0  0  0  0  0  0  0  0  0  0  0  0
   -7.2550   21.8310  -32.2430 O   0  0  0  0  0  0  0  0  0  0  0  0
   -7.0080   20.4860  -32.5400 C   0  0  0  0  0  0  0  0  0  0  0  0
   -7.6490   19.4920  -31.7990 C   0  0  0  0  0  0  0  0  0  0  0  0
   -7.4080   18.1500  -32.0970 C   0  0  0  0  0  0  0  0  0  0  0  0
   -6.5250   17.8010  -33.1340 C   0  0  0  0  0  0  0  0  0  0  0  0
   -6.2590   16.3780  -33.4640 C   0  0  0  0  0  0  0  0  0  0  0  0
   -7.1900   15.6300  -34.2100 C   0  0  0  0  0  0  0  0  0  0  0  0
   -6.9360   14.2900  -34.5200 C   0  0  0  0  0  0  0  0  0  0  0  0
   -5.7560   13.6820  -34.0880 C   0  0  0  0  0  0  0  0  0  0  0  0
   -4.8250   14.4130  -33.3470 C   0  0  0  0  0  0  0  0  0  0  0  0
   -5.0720   15.7540  -33.0350 C   0  0  0  0  0  0  0  0  0  0  0  0
   -5.9010   18.8370  -33.8510 C   0  0  0  0  0  0  0  0  0  0  0  0
   -6.1550   20.1360  -33.5410 N   0  0  0  0  0  0  0  0  0  0  0  0
   -3.8665   21.0493  -31.3804 H   0  0  0  0  0  0  0  0  0  0  0  0
   -4.9633   21.4227  -32.7531 H   0  0  0  0  0  0  0  0  0  0  0  0
   -3.2793   22.0481  -32.7531 H   0  0  0  0  0  0  0  0  0  0  0  0
   -6.7516   25.2646  -28.6270 H   0  0  0  0  0  0  0  0  0  0  0  0
   -6.7868   26.3974  -30.0206 H   0  0  0  0  0  0  0  0  0  0  0  0
   -7.8377   24.9406  -30.0206 H   0  0  0  0  0  0  0  0  0  0  0  0
   -6.9382   21.5828  -30.2141 H   0  0  0  0  0  0  0  0  0  0  0  0
   -7.9679   22.9865  -30.6886 H   0  0  0  0  0  0  0  0  0  0  0  0
   -8.3387   19.7642  -30.9865 H   0  0  0  0  0  0  0  0  0  0  0  0
   -7.9112   17.3617  -31.5179 H   0  0  0  0  0  0  0  0  0  0  0  0
   -8.1229   16.1025  -34.5511 H   0  0  0  0  0  0  0  0  0  0  0  0
   -7.6677   13.7140  -35.1055 H   0  0  0  0  0  0  0  0  0  0  0  0
   -5.5596   12.6274  -34.3312 H   0  0  0  0  0  0  0  0  0  0  0  0
   -3.8951   13.9331  -33.0078 H   0  0  0  0  0  0  0  0  0  0  0  0
   -4.3346   16.3243  -32.4511 H   0  0  0  0  0  0  0  0  0  0  0  0
   -5.2039   18.5952  -34.6668 H   0  0  0  0  0  0  0  0  0  0  0  0
  1  2  1  0
  2  3  2  0
  3  4  1  0
  4  5  1  0
  5  6  1  0
  5  7  2  0
  7  8  1  0
  8  9  1  0
  9 10  1  0
 10 11  2  0
 11 12  1  0
 12 13  2  0
 13 14  1  0
 14 15  2  0
 15 16  1  0
 16 17  2  0
 17 18  1  0
 18 19  2  0
 13 20  1  0
 20 21  2  0
  7  2  1  0
 21 10  1  0
 19 14  1  0
  1 22  1  0
  1 23  1  0
  1 24  1  0
  6 25  1  0
  6 26  1  0
  6 27  1  0
  8 28  1  0
  8 29  1  0
 11 30  1  0
 12 31  1  0
 15 32  1  0
 16 33  1  0
 17 34  1  0
 18 35  1  0
 19 36  1  0
 20 37  1  0
M  END
>  <UniqueID>  (31) 
29

>  <SMILES>  (31) 
Cc1noc(C)c1COc1ccc(-c2ccccc2)cn1

>  <Energy>  (31) 
70.8656348685545

>  <Genealogy>  (31) 
Cc1noc(C)c1COc1ccc(-c2ccccc2)cn1 (3D coordinates assigned)
Cc1noc(C)c1COc1ccc(-c2ccccc2)cn1 (optimized conformer: 70.8656348685545 kcal/mol)

>  <smiles>  (31) 
Cc1noc(C)c1COc1ccc(-c2ccccc2)cn1

>  <score_type>  (31) 
oracle

>  <origin>  (31) 
adg

>  <m_score__min__energy>  (31) 
-8.8599999999999994

>  <m_primary>  (31) 
energy

$$$$
31:0
     RDKit          3D

 65 69  0  0  0  0  0  0  0  0999 V2000
   -1.8510   13.2050  -31.8120 C   0  0  0  0  0  0  0  0  0  0  0  0
   -1.3150   14.0050  -32.8620 O   0  0  0  0  0  0  0  0  0  0  0  0
   -1.4660   15.3960  -32.9560 C   0  0  0  0  0  0  0  0  0  0  0  0
   -0.6010   16.2960  -32.3040 C   0  0  0  0  0  0  0  0  0  0  0  0
   -0.7850   17.6740  -32.4410 C   0  0  0  0  0  0  0  0  0  0  0  0
   -1.8300   18.1800  -33.2330 C   0  0  0  0  0  0  0  0  0  0  0  0
   -2.0230   19.6030  -33.3700 N   0  0  0  0  0  0  0  0  0  0  0  0
   -3.3740   20.1590  -33.5020 C   0  0  0  0  0  0  0  0  0  0  0  0
   -3.4200   21.6010  -32.9620 C   0  0  0  0  0  0  0  0  0  0  0  0
   -2.5240   21.7780  -31.7970 N   0  0  0  0  0  0  0  0  0  0  0  0
   -2.9550   20.9520  -30.6450 C   0  0  0  0  0  0  0  0  0  0  0  0
   -3.3880   21.8300  -29.4500 C   0  0  0  0  0  0  0  0  0  0  0  0
   -4.3260   22.9290  -29.8880 C   0  0  0  0  0  0  0  0  0  0  0  0
   -3.8740   24.2540  -29.9950 C   0  0  0  0  0  0  0  0  0  0  0  0
   -4.7570   25.2720  -30.3610 C   0  0  0  0  0  0  0  0  0  0  0  0
   -6.0990   24.9800  -30.6170 C   0  0  0  0  0  0  0  0  0  0  0  0
   -6.5700   23.6560  -30.5120 C   0  0  0  0  0  0  0  0  0  0  0  0
   -7.9090   23.3080  -30.7510 O   0  0  0  0  0  0  0  0  0  0  0  0
   -8.4210   22.7910  -31.9790 C   0  0  0  0  0  0  0  0  0  0  0  0
   -8.1210   21.3240  -32.0990 C   0  0  0  0  0  0  0  0  0  0  0  0
   -8.6590   20.4010  -31.1900 C   0  0  0  0  0  0  0  0  0  0  0  0
   -8.3520   19.0450  -31.3200 C   0  0  0  0  0  0  0  0  0  0  0  0
   -7.5010   18.6190  -32.3470 C   0  0  0  0  0  0  0  0  0  0  0  0
   -7.1660   17.2650  -32.5030 C   0  0  0  0  0  0  0  0  0  0  0  0
   -6.3080   16.8720  -33.5360 C   0  0  0  0  0  0  0  0  0  0  0  0
   -5.7840   17.8250  -34.4160 C   0  0  0  0  0  0  0  0  0  0  0  0
   -6.1130   19.1760  -34.2680 C   0  0  0  0  0  0  0  0  0  0  0  0
   -6.9710   19.5800  -33.2370 C   0  0  0  0  0  0  0  0  0  0  0  0
   -7.2910   20.8920  -33.0880 N   0  0  0  0  0  0  0  0  0  0  0  0
   -5.6760   22.6400  -30.1480 C   0  0  0  0  0  0  0  0  0  0  0  0
   -1.0970   21.5470  -32.1550 C   0  0  0  0  0  0  0  0  0  0  0  0
   -0.8940   20.5350  -33.3020 C   0  0  0  0  0  0  0  0  0  0  0  0
   -2.7020   17.2800  -33.8650 C   0  0  0  0  0  0  0  0  0  0  0  0
   -2.5180   15.9020  -33.7280 C   0  0  0  0  0  0  0  0  0  0  0  0
   -1.5635   13.6341  -30.8408 H   0  0  0  0  0  0  0  0  0  0  0  0
   -2.9478   13.1815  -31.8923 H   0  0  0  0  0  0  0  0  0  0  0  0
   -1.4555   12.1817  -31.8923 H   0  0  0  0  0  0  0  0  0  0  0  0
    0.2229   15.9123  -31.6843 H   0  0  0  0  0  0  0  0  0  0  0  0
   -0.1063   18.3689  -31.9247 H   0  0  0  0  0  0  0  0  0  0  0  0
   -3.6624   20.1608  -34.5635 H   0  0  0  0  0  0  0  0  0  0  0  0
   -4.0719   19.5391  -32.9200 H   0  0  0  0  0  0  0  0  0  0  0  0
   -3.1077   22.2907  -33.7600 H   0  0  0  0  0  0  0  0  0  0  0  0
   -4.4496   21.8133  -32.6382 H   0  0  0  0  0  0  0  0  0  0  0  0
   -3.8038   20.3238  -30.9532 H   0  0  0  0  0  0  0  0  0  0  0  0
   -2.1040   20.3316  -30.3273 H   0  0  0  0  0  0  0  0  0  0  0  0
   -3.8979   21.1985  -28.7076 H   0  0  0  0  0  0  0  0  0  0  0  0
   -2.4896   22.2930  -29.0159 H   0  0  0  0  0  0  0  0  0  0  0  0
   -2.8197   24.4912  -29.7896 H   0  0  0  0  0  0  0  0  0  0  0  0
   -4.3948   26.3070  -30.4480 H   0  0  0  0  0  0  0  0  0  0  0  0
   -6.7906   25.7866  -30.9016 H   0  0  0  0  0  0  0  0  0  0  0  0
   -9.5103   22.9412  -32.0086 H   0  0  0  0  0  0  0  0  0  0  0  0
   -7.9418   23.3213  -32.8151 H   0  0  0  0  0  0  0  0  0  0  0  0
   -9.3190   20.7434  -30.3794 H   0  0  0  0  0  0  0  0  0  0  0  0
   -8.7776   18.3134  -30.6174 H   0  0  0  0  0  0  0  0  0  0  0  0
   -7.5777   16.5132  -31.8136 H   0  0  0  0  0  0  0  0  0  0  0  0
   -6.0447   15.8108  -33.6565 H   0  0  0  0  0  0  0  0  0  0  0  0
   -5.1109   17.5105  -35.2271 H   0  0  0  0  0  0  0  0  0  0  0  0
   -5.6978   19.9220  -34.9616 H   0  0  0  0  0  0  0  0  0  0  0  0
   -6.0357   21.6038  -30.0649 H   0  0  0  0  0  0  0  0  0  0  0  0
   -0.6568   22.5080  -32.4595 H   0  0  0  0  0  0  0  0  0  0  0  0
   -0.6103   21.1215  -31.2650 H   0  0  0  0  0  0  0  0  0  0  0  0
   -0.8156   21.0788  -34.2549 H   0  0  0  0  0  0  0  0  0  0  0  0
    0.0275   19.9644  -33.1141 H   0  0  0  0  0  0  0  0  0  0  0  0
   -3.5358   17.6622  -34.4722 H   0  0  0  0  0  0  0  0  0  0  0  0
   -3.2067   15.2078  -34.2318 H   0  0  0  0  0  0  0  0  0  0  0  0
  1  2  1  0
  2  3  1  0
  3  4  2  0
  4  5  1  0
  5  6  2  0
  6  7  1  0
  7  8  1  0
  8  9  1  0
  9 10  1  0
 10 11  1  0
 11 12  1  0
 12 13  1  0
 13 14  2  0
 14 15  1  0
 15 16  2  0
 16 17  1  0
 17 18  1  0
 18 19  1  0
 19 20  1  0
 20 21  2  0
 21 22  1  0
 22 23  2  0
 23 24  1  0
 24 25  2  0
 25 26  1  0
 26 27  2  0
 27 28  1  0
 28 29  2  0
 17 30  2  0
 10 31  1  0
 31 32  1  0
  6 33  1  0
 33 34  2  0
 34  3  1  0
 32  7  1  0
 30 13  1  0
 29 20  1  0
 28 23  1  0
  1 35  1  0
  1 36  1  0
  1 37  1  0
  4 38  1  0
  5 39  1  0
  8 40  1  0
  8 41  1  0
  9 42  1  0
  9 43  1  0
 11 44  1  0
 11 45  1  0
 12 46  1  0
 12 47  1  0
 14 48  1  0
 15 49  1  0
 16 50  1  0
 19 51  1  0
 19 52  1  0
 21 53  1  0
 22 54  1  0
 24 55  1  0
 25 56  1  0
 26 57  1  0
 27 58  1  0
 30 59  1  0
 31 60  1  0
 31 61  1  0
 32 62  1  0
 32 63  1  0
 33 64  1  0
 34 65  1  0
M  END
>  <UniqueID>  (32) 
30

>  <SMILES>  (32) 
COc1ccc(N2CCN(CCc3cccc(OCc4ccc5ccccc5n4)c3)CC2)cc1

>  <Energy>  (32) 
84.4802092542284

>  <Genealogy>  (32) 
COc1ccc(N2CCN(CCc3cccc(OCc4ccc5ccccc5n4)c3)CC2)cc1 (3D coordinates assigned)
COc1ccc(N2CCN(CCc3cccc(OCc4ccc5ccccc5n4)c3)CC2)cc1 (nonaromatic ring conformer: 84.4802092542284 kcal/mol)

>  <smiles>  (32) 
COc1ccc(N2CCN(CCc3cccc(OCc4ccc5ccccc5n4)c3)CC2)cc1

>  <score_type>  (32) 
oracle

>  <origin>  (32) 
adg

>  <m_score__min__energy>  (32) 
-10.24

>  <m_primary>  (32) 
energy

$$$$
32:0
     RDKit          3D

 39 40  0  0  0  0  0  0  0  0999 V2000
   -0.6900   24.3720  -29.2320 C   0  0  0  0  0  0  0  0  0  0  0  0
   -1.3760   25.5920  -29.0680 O   0  0  0  0  0  0  0  0  0  0  0  0
   -1.2800   26.0420  -27.7280 C   0  0  0  0  0  0  0  0  0  0  0  0
   -2.2850   25.2890  -26.8560 C   0  0  0  0  0  0  0  0  0  0  0  0
   -3.1210   24.4070  -27.6680 N   0  0  0  0  0  0  0  0  0  0  0  0
   -3.0470   22.9780  -27.5840 C   0  0  0  0  0  0  0  0  0  0  0  0
   -2.2700   22.4260  -26.7590 O   0  0  0  0  0  0  0  0  0  0  0  0
   -3.9160   22.1300  -28.4590 C   0  0  0  0  0  0  0  0  0  0  0  0
   -3.2850   22.1140  -30.1710 S   0  0  0  0  0  0  0  0  0  0  0  0
   -4.1460   23.6140  -30.6590 C   0  0  0  0  0  0  0  0  0  0  0  0
   -3.6550   24.8510  -30.4610 N   0  0  0  0  0  0  0  0  0  0  0  0
   -4.6200   25.6710  -30.8540 N   0  0  0  0  0  0  0  0  0  0  0  0
   -5.6680   24.9750  -31.2700 N   0  0  0  0  0  0  0  0  0  0  0  0
   -5.3910   23.6860  -31.1670 N   0  0  0  0  0  0  0  0  0  0  0  0
   -6.3120   22.6300  -31.4870 C   0  0  0  0  0  0  0  0  0  0  0  0
   -5.9120   21.5900  -32.3380 C   0  0  0  0  0  0  0  0  0  0  0  0
   -6.7950   20.5530  -32.6520 C   0  0  0  0  0  0  0  0  0  0  0  0
   -8.0860   20.5300  -32.1120 C   0  0  0  0  0  0  0  0  0  0  0  0
   -8.9350   19.4690  -32.4590 O   0  0  0  0  0  0  0  0  0  0  0  0
   -9.0530   18.2580  -31.7200 C   0  0  0  0  0  0  0  0  0  0  0  0
   -8.4830   21.5620  -31.2410 C   0  0  0  0  0  0  0  0  0  0  0  0
   -7.5990   22.5990  -30.9270 C   0  0  0  0  0  0  0  0  0  0  0  0
   -0.4524   23.9494  -28.2446 H   0  0  0  0  0  0  0  0  0  0  0  0
   -1.3240   23.6670  -29.7897 H   0  0  0  0  0  0  0  0  0  0  0  0
    0.2418   24.5474  -29.7897 H   0  0  0  0  0  0  0  0  0  0  0  0
   -0.2621   25.8590  -27.3533 H   0  0  0  0  0  0  0  0  0  0  0  0
   -1.5008   27.1189  -27.6896 H   0  0  0  0  0  0  0  0  0  0  0  0
   -1.7389   24.6864  -26.1153 H   0  0  0  0  0  0  0  0  0  0  0  0
   -2.9324   26.0220  -26.3525 H   0  0  0  0  0  0  0  0  0  0  0  0
   -3.8300   24.8410  -28.3020 H   0  0  0  0  0  0  0  0  0  0  0  0
   -3.9278   21.1017  -28.0687 H   0  0  0  0  0  0  0  0  0  0  0  0
   -4.9332   22.5488  -28.4604 H   0  0  0  0  0  0  0  0  0  0  0  0
   -4.8967   21.5902  -32.7613 H   0  0  0  0  0  0  0  0  0  0  0  0
   -6.4726   19.7483  -33.3291 H   0  0  0  0  0  0  0  0  0  0  0  0
   -9.0312   18.4819  -30.6433 H   0  0  0  0  0  0  0  0  0  0  0  0
  -10.0034   17.7653  -31.9729 H   0  0  0  0  0  0  0  0  0  0  0  0
   -8.2156   17.5911  -31.9729 H   0  0  0  0  0  0  0  0  0  0  0  0
   -9.4930   21.5527  -30.8054 H   0  0  0  0  0  0  0  0  0  0  0  0
   -7.9140   23.3955  -30.2368 H   0  0  0  0  0  0  0  0  0  0  0  0
  1  2  1  0
  2  3  1  0
  3  4  1  0
  4  5  1  0
  5  6  1  0
  6  7  2  0
  6  8  1  0
  8  9  1  0
  9 10  1  0
 10 11  2  0
 11 12  1  0
 12 13  2  0
 13 14  1  0
 14 15  1  0
 15 16  2  0
 16 17  1  0
 17 18  2  0
 18 19  1  0
 19 20  1  0
 18 21  1  0
 21 22  2  0
 14 10  1  0
 22 15  1  0
  1 23  1  0
  1 24  1  0
  1 25  1  0
  3 26  1  0
  3 27  1  0
  4 28  1  0
  4 29  1  0
  5 30  1  0
  8 31  1  0
  8 32  1  0
 16 33  1  0
 17 34  1  0
 20 35  1  0
 20 36  1  0
 20 37  1  0
 21 38  1  0
 22 39  1  0
M  END
>  <UniqueID>  (33) 
31

>  <SMILES>  (33) 
COCCNC(=O)CSc1nnnn1-c1ccc(OC)cc1

>  <Energy>  (33) 
75.70077322078083

>  <Genealogy>  (33) 
COCCNC(=O)CSc1nnnn1-c1ccc(OC)cc1 (3D coordinates assigned)
COCCNC(=O)CSc1nnnn1-c1ccc(OC)cc1 (optimized conformer: 75.70077322078083 kcal/mol)

>  <smiles>  (33) 
COCCNC(=O)CSc1nnnn1-c1ccc(OC)cc1

>  <score_type>  (33) 
oracle

>  <origin>  (33) 
adg

>  <m_score__min__energy>  (33) 
-8.7799999999999994

>  <m_primary>  (33) 
energy

$$$$
33:0
     RDKit          3D

 42 43  0  0  0  0  0  0  0  0999 V2000
   -4.1560   18.1780  -34.5940 C   0  0  0  0  0  0  0  0  0  0  0  0
   -5.6580   18.2960  -34.8790 C   0  0  0  0  0  0  0  0  0  0  0  0
   -6.4410   17.2580  -34.1650 N   0  0  0  0  0  0  0  0  0  0  0  0
   -5.6240   16.0660  -33.8290 C   0  0  0  0  0  0  0  0  0  0  0  0
   -5.1610   15.9990  -32.3660 C   0  0  0  0  0  0  0  0  0  0  0  0
   -7.1130   17.7840  -32.9890 C   0  0  0  0  0  0  0  0  0  0  0  0
   -7.9740   17.0850  -32.3890 O   0  0  0  0  0  0  0  0  0  0  0  0
   -6.8450   19.1640  -32.5180 C   0  0  0  0  0  0  0  0  0  0  0  0
   -5.3980   19.6720  -31.8220 S   0  0  0  0  0  0  0  0  0  0  0  0
   -5.8050   21.2950  -31.6230 C   0  0  0  0  0  0  0  0  0  0  0  0
   -4.9290   22.3390  -31.0320 C   0  0  0  0  0  0  0  0  0  0  0  0
   -5.4470   23.6110  -30.7230 C   0  0  0  0  0  0  0  0  0  0  0  0
   -4.6310   24.6000  -30.1660 C   0  0  0  0  0  0  0  0  0  0  0  0
   -3.2750   24.3340  -29.9010 C   0  0  0  0  0  0  0  0  0  0  0  0
   -2.4160   25.2920  -29.3420 O   0  0  0  0  0  0  0  0  0  0  0  0
   -1.6410   25.0890  -28.1660 C   0  0  0  0  0  0  0  0  0  0  0  0
   -2.7580   23.0700  -30.2020 C   0  0  0  0  0  0  0  0  0  0  0  0
   -3.5720   22.0810  -30.7600 C   0  0  0  0  0  0  0  0  0  0  0  0
   -7.1050   21.4640  -32.1020 C   0  0  0  0  0  0  0  0  0  0  0  0
   -7.6840   20.2830  -32.5940 C   0  0  0  0  0  0  0  0  0  0  0  0
   -9.0350   20.2540  -33.0680 N   0  0  0  0  0  0  0  0  0  0  0  0
   -3.9890   18.1649  -33.5068 H   0  0  0  0  0  0  0  0  0  0  0  0
   -3.7711   17.2468  -35.0354 H   0  0  0  0  0  0  0  0  0  0  0  0
   -3.6304   19.0376  -35.0354 H   0  0  0  0  0  0  0  0  0  0  0  0
   -6.0044   19.2883  -34.5545 H   0  0  0  0  0  0  0  0  0  0  0  0
   -5.8116   18.1552  -35.9591 H   0  0  0  0  0  0  0  0  0  0  0  0
   -7.1730   16.9240  -34.8370 H   0  0  0  0  0  0  0  0  0  0  0  0
   -6.2238   15.1685  -34.0404 H   0  0  0  0  0  0  0  0  0  0  0  0
   -4.7126   16.1304  -34.4415 H   0  0  0  0  0  0  0  0  0  0  0  0
   -6.0281   16.1245  -31.7009 H   0  0  0  0  0  0  0  0  0  0  0  0
   -4.6903   15.0234  -32.1747 H   0  0  0  0  0  0  0  0  0  0  0  0
   -4.4330   16.8012  -32.1747 H   0  0  0  0  0  0  0  0  0  0  0  0
   -6.5065   23.8293  -30.9222 H   0  0  0  0  0  0  0  0  0  0  0  0
   -5.0506   25.5900  -29.9340 H   0  0  0  0  0  0  0  0  0  0  0  0
   -2.2704   25.2539  -27.2791 H   0  0  0  0  0  0  0  0  0  0  0  0
   -1.2543   24.0593  -28.1549 H   0  0  0  0  0  0  0  0  0  0  0  0
   -0.7992   25.7969  -28.1549 H   0  0  0  0  0  0  0  0  0  0  0  0
   -1.6994   22.8521  -29.9973 H   0  0  0  0  0  0  0  0  0  0  0  0
   -3.1488   21.0918  -30.9889 H   0  0  0  0  0  0  0  0  0  0  0  0
   -7.6273   22.4320  -32.0948 H   0  0  0  0  0  0  0  0  0  0  0  0
   -9.2400   19.9280  -34.0390 H   0  0  0  0  0  0  0  0  0  0  0  0
   -9.8280   20.6340  -32.5090 H   0  0  0  0  0  0  0  0  0  0  0  0
  1  2  1  0
  2  3  1  0
  3  4  1  0
  4  5  1  0
  3  6  1  0
  6  7  2  0
  6  8  1  0
  8  9  1  0
  9 10  1  0
 10 11  1  0
 11 12  2  0
 12 13  1  0
 13 14  2  0
 14 15  1  0
 15 16  1  0
 14 17  1  0
 17 18  2  0
 10 19  2  0
 19 20  1  0
 20 21  1  0
 20  8  2  0
 18 11  1  0
  1 22  1  0
  1 23  1  0
  1 24  1  0
  2 25  1  0
  2 26  1  0
  3 27  1  0
  4 28  1  0
  4 29  1  0
  5 30  1  0
  5 31  1  0
  5 32  1  0
 12 33  1  0
 13 34  1  0
 16 35  1  0
 16 36  1  0
 16 37  1  0
 17 38  1  0
 18 39  1  0
 19 40  1  0
 21 41  1  0
 21 42  1  0
M  CHG  1   3   1
M  END
>  <UniqueID>  (34) 
32

>  <SMILES>  (34) 
CC[NH+](CC)C(=O)c1sc(-c2ccc(OC)cc2)cc1N

>  <Energy>  (34) 
72.99003105375496

>  <Genealogy>  (34) 
CC[NH+](CC)C(=O)c1sc(-c2ccc(OC)cc2)cc1N (protonated)
CC[NH+](CC)C(=O)c1sc(-c2ccc(OC)cc2)cc1N (3D coordinates assigned)
CC[NH+](CC)C(=O)c1sc(-c2ccc(OC)cc2)cc1N (optimized conformer: 72.99003105375496 kcal/mol)

>  <smiles>  (34) 
CCN(CC)C(=O)c1sc(-c2ccc(OC)cc2)cc1N

>  <score_type>  (34) 
oracle

>  <origin>  (34) 
adg

>  <m_score__min__energy>  (34) 
-6.4199999999999999

>  <m_primary>  (34) 
energy

$$$$
34:0
     RDKit          3D

 41 44  0  0  1  0  0  0  0  0999 V2000
   -2.7310   20.9310  -28.3410 C   0  0  0  0  0  0  0  0  0  0  0  0
   -2.6040   21.9690  -29.2890 O   0  0  0  0  0  0  0  0  0  0  0  0
   -2.0070   21.7120  -30.5190 C   0  0  0  0  0  0  0  0  0  0  0  0
   -0.6990   21.3780  -30.5800 N   0  0  0  0  0  0  0  0  0  0  0  0
   -0.0630   21.1170  -31.7430 C   0  0  0  0  0  0  0  0  0  0  0  0
   -0.7890   21.1990  -32.9080 C   0  0  0  0  0  0  0  0  0  0  0  0
   -2.1200   21.5370  -32.8840 C   0  0  0  0  0  0  0  0  0  0  0  0
   -2.7840   21.8080  -31.6800 C   0  0  0  0  0  0  0  0  0  0  0  0
   -4.1950   22.1550  -31.6390 C   0  0  0  0  0  0  0  0  0  0  0  0
   -5.1960   21.3930  -32.2250 C   0  0  0  0  0  0  0  0  0  0  0  0
   -6.3910   21.9740  -32.0140 N   0  0  0  0  0  0  0  0  0  0  0  0
   -7.6320   21.4320  -32.4950 C   0  0  2  0  0  0  0  0  0  0  0  0
   -8.7350   21.5400  -31.4760 C   0  0  0  0  0  0  0  0  0  0  0  0
   -9.7610   20.5890  -32.0930 C   0  0  0  0  0  0  0  0  0  0  0  0
   -9.0100   19.6210  -32.8370 N   0  0  0  0  0  0  0  0  0  0  0  0
   -7.5970   19.9260  -32.6940 C   0  0  0  0  0  0  0  0  0  0  0  0
   -6.1910   23.0990  -31.3030 C   0  0  0  0  0  0  0  0  0  0  0  0
   -7.0180   24.0470  -30.8250 N   0  0  0  0  0  0  0  0  0  0  0  0
   -6.5600   25.1050  -30.1230 C   0  0  0  0  0  0  0  0  0  0  0  0
   -5.2420   25.2200  -29.8940 N   0  0  0  0  0  0  0  0  0  0  0  0
   -4.3520   24.2930  -30.3530 C   0  0  0  0  0  0  0  0  0  0  0  0
   -3.1230   24.5040  -30.0770 N   0  0  0  0  0  0  0  0  0  0  0  0
   -4.8380   23.2250  -31.0640 C   0  0  0  0  0  0  0  0  0  0  0  0
   -2.6794   21.3527  -27.3264 H   0  0  0  0  0  0  0  0  0  0  0  0
   -3.6978   20.4247  -28.4789 H   0  0  0  0  0  0  0  0  0  0  0  0
   -1.9148   20.2066  -28.4789 H   0  0  0  0  0  0  0  0  0  0  0  0
    1.0033   20.8471  -31.7576 H   0  0  0  0  0  0  0  0  0  0  0  0
   -0.2981   20.9915  -33.8702 H   0  0  0  0  0  0  0  0  0  0  0  0
   -2.6771   21.5963  -33.8307 H   0  0  0  0  0  0  0  0  0  0  0  0
   -5.0365   20.4558  -32.7783 H   0  0  0  0  0  0  0  0  0  0  0  0
   -7.7940   22.0025  -33.4215 H   0  0  0  0  0  0  0  0  0  0  0  0
   -8.4079   21.1989  -30.4827 H   0  0  0  0  0  0  0  0  0  0  0  0
   -9.1004   22.5617  -31.2955 H   0  0  0  0  0  0  0  0  0  0  0  0
  -10.3455   20.0939  -31.3036 H   0  0  0  0  0  0  0  0  0  0  0  0
  -10.4712   21.1278  -32.7374 H   0  0  0  0  0  0  0  0  0  0  0  0
   -9.2380   19.7210  -33.8520 H   0  0  0  0  0  0  0  0  0  0  0  0
   -7.1617   19.4153  -31.8224 H   0  0  0  0  0  0  0  0  0  0  0  0
   -6.9791   19.5997  -33.5435 H   0  0  0  0  0  0  0  0  0  0  0  0
   -7.2588   25.8646  -29.7427 H   0  0  0  0  0  0  0  0  0  0  0  0
   -4.9100   26.0430  -29.3520 H   0  0  0  0  0  0  0  0  0  0  0  0
   -2.5540   23.7710  -29.6360 H   0  0  0  0  0  0  0  0  0  0  0  0
  1  2  1  0
  2  3  1  0
  3  4  2  0
  4  5  1  0
  5  6  2  0
  6  7  1  0
  7  8  2  0
  8  9  1  0
  9 10  2  0
 10 11  1  0
 11 12  1  0
 12 13  1  0
 13 14  1  0
 14 15  1  0
 15 16  1  0
 11 17  1  0
 17 18  1  0
 18 19  2  0
 19 20  1  0
 20 21  1  0
 21 22  2  3
 21 23  1  0
  8  3  1  0
 23  9  1  0
 16 12  1  0
 23 17  2  0
  1 24  1  0
  1 25  1  0
  1 26  1  0
  5 27  1  0
  6 28  1  0
  7 29  1  0
 10 30  1  0
 12 31  1  6
 13 32  1  0
 13 33  1  0
 14 34  1  0
 14 35  1  0
 15 36  1  0
 16 37  1  0
 16 38  1  0
 19 39  1  0
 20 40  1  0
 22 41  1  0
M  END
>  <smiles>  (35) 
COc1ncccc1-c1cn(C2CCNC2)c2nc[nH]c(=N)c12

>  <score_type>  (35) 
oracle

>  <origin>  (35) 
adg

>  <m_score__min__energy>  (35) 
-7.3499999999999996

>  <m_primary>  (35) 
energy

$$$$
35:0
     RDKit          3D

 20 20  0  0  0  0  0  0  0  0999 V2000
   -3.1420   23.8100  -30.0810 C   0  0  0  0  0  0  0  0  0  0  0  0
   -3.9490   24.7130  -30.8250 O   0  0  0  0  0  0  0  0  0  0  0  0
   -5.3470   24.7000  -30.7690 C   0  0  0  0  0  0  0  0  0  0  0  0
   -5.9660   25.6670  -30.2520 O   0  0  0  0  0  0  0  0  0  0  0  0
   -6.0700   23.5480  -31.3430 C   0  0  0  0  0  0  0  0  0  0  0  0
   -7.3410   23.2750  -30.9380 N   0  0  0  0  0  0  0  0  0  0  0  0
   -7.8500   22.1830  -31.5460 C   0  0  0  0  0  0  0  0  0  0  0  0
   -9.4950   21.5550  -31.2320 S   0  0  0  0  0  0  0  0  0  0  0  0
   -9.1400   19.9320  -31.9730 C   0  0  0  0  0  0  0  0  0  0  0  0
   -6.7580   21.4920  -32.6190 S   0  0  0  0  0  0  0  0  0  0  0  0
   -5.5760   22.6450  -32.2960 C   0  0  0  0  0  0  0  0  0  0  0  0
   -4.3030   22.6690  -32.9460 N   0  0  0  0  0  0  0  0  0  0  0  0
   -3.2956   23.9818  -29.0054 H   0  0  0  0  0  0  0  0  0  0  0  0
   -3.4226   22.7762  -30.3309 H   0  0  0  0  0  0  0  0  0  0  0  0
   -2.0833   23.9731  -30.3309 H   0  0  0  0  0  0  0  0  0  0  0  0
   -8.9782   19.1922  -31.1752 H   0  0  0  0  0  0  0  0  0  0  0  0
   -9.9910   19.6193  -32.5959 H   0  0  0  0  0  0  0  0  0  0  0  0
   -8.2362   20.0031  -32.5959 H   0  0  0  0  0  0  0  0  0  0  0  0
   -4.2300   22.3660  -33.9420 H   0  0  0  0  0  0  0  0  0  0  0  0
   -3.4410   23.0260  -32.4860 H   0  0  0  0  0  0  0  0  0  0  0  0
  1  2  1  0
  2  3  1  0
  3  4  2  0
  3  5  1  0
  5  6  1  0
  6  7  2  0
  7  8  1  0
  8  9  1  0
  7 10  1  0
 10 11  1  0
 11 12  1  0
 11  5  2  0
  1 13  1  0
  1 14  1  0
  1 15  1  0
  9 16  1  0
  9 17  1  0
  9 18  1  0
 12 19  1  0
 12 20  1  0
M  END
>  <UniqueID>  (36) 
33

>  <SMILES>  (36) 
COC(=O)c1nc(SC)sc1N

>  <Energy>  (36) 
43.11421708183432

>  <Genealogy>  (36) 
COC(=O)c1nc(SC)sc1N (3D coordinates assigned)
COC(=O)c1nc(SC)sc1N (optimized conformer: 43.11421708183432 kcal/mol)

>  <smiles>  (36) 
COC(=O)c1nc(SC)sc1N

>  <score_type>  (36) 
oracle

>  <origin>  (36) 
adg

>  <m_score__min__energy>  (36) 
-4.8899999999999997

>  <m_primary>  (36) 
energy

$$$$
36:0
     RDKit          3D

 36 37  0  0  0  0  0  0  0  0999 V2000
   -2.2890   22.3890  -30.2390 C   0  0  0  0  0  0  0  0  0  0  0  0
   -3.3270   21.9670  -29.2000 C   0  0  0  0  0  0  0  0  0  0  0  0
   -3.1700   22.6920  -27.8530 C   0  0  0  0  0  0  0  0  0  0  0  0
   -3.5650   24.1790  -27.9060 C   0  0  0  0  0  0  0  0  0  0  0  0
   -4.8430   24.3750  -28.5920 N   0  0  0  0  0  0  0  0  0  0  0  0
   -4.9070   24.8860  -29.9300 C   0  0  0  0  0  0  0  0  0  0  0  0
   -3.8610   25.2980  -30.5030 O   0  0  0  0  0  0  0  0  0  0  0  0
   -6.2210   24.9650  -30.6480 C   0  0  0  0  0  0  0  0  0  0  0  0
   -6.1050   24.4410  -31.9710 O   0  0  0  0  0  0  0  0  0  0  0  0
   -5.9040   23.0830  -32.2490 C   0  0  0  0  0  0  0  0  0  0  0  0
   -4.6580   22.6170  -32.5440 N   0  0  0  0  0  0  0  0  0  0  0  0
   -4.4360   21.3020  -32.7980 C   0  0  0  0  0  0  0  0  0  0  0  0
   -5.4630   20.4150  -32.7570 N   0  0  0  0  0  0  0  0  0  0  0  0
   -6.7260   20.8220  -32.4660 C   0  0  0  0  0  0  0  0  0  0  0  0
   -7.7690   19.8920  -32.4160 C   0  0  0  0  0  0  0  0  0  0  0  0
   -9.0660   20.3120  -32.1040 C   0  0  0  0  0  0  0  0  0  0  0  0
   -9.3240   21.6610  -31.8420 C   0  0  0  0  0  0  0  0  0  0  0  0
   -8.2880   22.5990  -31.8910 C   0  0  0  0  0  0  0  0  0  0  0  0
   -6.9820   22.1860  -32.2050 C   0  0  0  0  0  0  0  0  0  0  0  0
   -1.3867   22.7558  -29.7278 H   0  0  0  0  0  0  0  0  0  0  0  0
   -2.0283   21.5255  -30.8685 H   0  0  0  0  0  0  0  0  0  0  0  0
   -2.7048   23.1895  -30.8685 H   0  0  0  0  0  0  0  0  0  0  0  0
   -4.3287   22.1849  -29.5989 H   0  0  0  0  0  0  0  0  0  0  0  0
   -3.1803   20.8934  -29.0108 H   0  0  0  0  0  0  0  0  0  0  0  0
   -3.8069   22.1889  -27.1105 H   0  0  0  0  0  0  0  0  0  0  0  0
   -2.1039   22.6499  -27.5853 H   0  0  0  0  0  0  0  0  0  0  0  0
   -3.6494   24.5624  -26.8784 H   0  0  0  0  0  0  0  0  0  0  0  0
   -2.7884   24.7206  -28.4660 H   0  0  0  0  0  0  0  0  0  0  0  0
   -5.7370   24.1220  -28.1110 H   0  0  0  0  0  0  0  0  0  0  0  0
   -6.9713   24.3824  -30.0933 H   0  0  0  0  0  0  0  0  0  0  0  0
   -6.5271   26.0197  -30.7107 H   0  0  0  0  0  0  0  0  0  0  0  0
   -3.4205   20.9540  -33.0379 H   0  0  0  0  0  0  0  0  0  0  0  0
   -7.5694   18.8301  -32.6221 H   0  0  0  0  0  0  0  0  0  0  0  0
   -9.8853   19.5791  -32.0646 H   0  0  0  0  0  0  0  0  0  0  0  0
  -10.3459   21.9857  -31.5964 H   0  0  0  0  0  0  0  0  0  0  0  0
   -8.4952   23.6593  -31.6839 H   0  0  0  0  0  0  0  0  0  0  0  0
  1  2  1  0
  2  3  1  0
  3  4  1  0
  4  5  1  0
  5  6  1  0
  6  7  2  0
  6  8  1  0
  8  9  1  0
  9 10  1  0
 10 11  2  0
 11 12  1  0
 12 13  2  0
 13 14  1  0
 14 15  2  0
 15 16  1  0
 16 17  2  0
 17 18  1  0
 18 19  2  0
 19 10  1  0
 19 14  1  0
  1 20  1  0
  1 21  1  0
  1 22  1  0
  2 23  1  0
  2 24  1  0
  3 25  1  0
  3 26  1  0
  4 27  1  0
  4 28  1  0
  5 29  1  0
  8 30  1  0
  8 31  1  0
 12 32  1  0
 15 33  1  0
 16 34  1  0
 17 35  1  0
 18 36  1  0
M  END
>  <UniqueID>  (37) 
34

>  <SMILES>  (37) 
CCCCNC(=O)COc1ncnc2ccccc12

>  <Energy>  (37) 
28.682410535252444

>  <Genealogy>  (37) 
CCCCNC(=O)COc1ncnc2ccccc12 (3D coordinates assigned)
CCCCNC(=O)COc1ncnc2ccccc12 (optimized conformer: 28.682410535252444 kcal/mol)

>  <smiles>  (37) 
CCCCNC(=O)COc1ncnc2ccccc12

>  <score_type>  (37) 
oracle

>  <origin>  (37) 
adg

>  <m_score__min__energy>  (37) 
-7.5899999999999999

>  <m_primary>  (37) 
energy

$$$$
37:0
     RDKit          3D

 30 32  0  0  0  0  0  0  0  0999 V2000
   -4.4770   24.3320  -29.3730 C   0  0  0  0  0  0  0  0  0  0  0  0
   -4.1130   23.3880  -30.3380 C   0  0  0  0  0  0  0  0  0  0  0  0
   -5.0100   23.0420  -31.3530 C   0  0  0  0  0  0  0  0  0  0  0  0
   -6.2800   23.6400  -31.4080 C   0  0  0  0  0  0  0  0  0  0  0  0
   -7.2440   23.2950  -32.5100 C   0  0  0  0  0  0  0  0  0  0  0  0
   -7.9070   22.0260  -32.2180 N   0  0  0  0  0  0  0  0  0  0  0  0
   -8.8770   21.8140  -31.2980 C   0  0  0  0  0  0  0  0  0  0  0  0
   -9.1110   20.4420  -31.1910 C   0  0  0  0  0  0  0  0  0  0  0  0
   -8.2460   19.8940  -32.1200 C   0  0  0  0  0  0  0  0  0  0  0  0
   -7.5700   20.8490  -32.7160 N   0  0  0  0  0  0  0  0  0  0  0  0
   -6.3510   20.3920  -33.3430 C   0  0  0  0  0  0  0  0  0  0  0  0
   -6.4190   18.8530  -33.1650 C   0  0  0  0  0  0  0  0  0  0  0  0
   -7.6480   18.5550  -32.2660 C   0  0  0  0  0  0  0  0  0  0  0  0
   -6.6370   24.5910  -30.4380 C   0  0  0  0  0  0  0  0  0  0  0  0
   -5.7370   24.9330  -29.4230 C   0  0  0  0  0  0  0  0  0  0  0  0
   -3.7707   24.6016  -28.5739 H   0  0  0  0  0  0  0  0  0  0  0  0
   -3.1197   22.9170  -30.2986 H   0  0  0  0  0  0  0  0  0  0  0  0
   -4.7204   22.2992  -32.1109 H   0  0  0  0  0  0  0  0  0  0  0  0
   -8.0000   24.0896  -32.5941 H   0  0  0  0  0  0  0  0  0  0  0  0
   -6.6910   23.2029  -33.4564 H   0  0  0  0  0  0  0  0  0  0  0  0
   -9.3972   22.5969  -30.7266 H   0  0  0  0  0  0  0  0  0  0  0  0
   -9.8156   19.9210  -30.5261 H   0  0  0  0  0  0  0  0  0  0  0  0
   -6.3283   20.6656  -34.4082 H   0  0  0  0  0  0  0  0  0  0  0  0
   -5.4460   20.8382  -32.9049 H   0  0  0  0  0  0  0  0  0  0  0  0
   -6.5390   18.3644  -34.1432 H   0  0  0  0  0  0  0  0  0  0  0  0
   -5.4952   18.4692  -32.7074 H   0  0  0  0  0  0  0  0  0  0  0  0
   -8.3429   17.8572  -32.7560 H   0  0  0  0  0  0  0  0  0  0  0  0
   -7.3945   18.0735  -31.3100 H   0  0  0  0  0  0  0  0  0  0  0  0
   -7.6273   25.0684  -30.4765 H   0  0  0  0  0  0  0  0  0  0  0  0
   -6.0219   25.6760  -28.6635 H   0  0  0  0  0  0  0  0  0  0  0  0
  1  2  2  0
  2  3  1  0
  3  4  2  0
  4  5  1  0
  5  6  1  0
  6  7  1  0
  7  8  2  0
  8  9  1  0
  9 10  2  0
 10 11  1  0
 11 12  1  0
 12 13  1  0
  4 14  1  0
 14 15  2  0
 15  1  1  0
 10  6  1  0
 13  9  1  0
  1 16  1  0
  2 17  1  0
  3 18  1  0
  5 19  1  0
  5 20  1  0
  7 21  1  0
  8 22  1  0
 11 23  1  0
 11 24  1  0
 12 25  1  0
 12 26  1  0
 13 27  1  0
 13 28  1  0
 14 29  1  0
 15 30  1  0
M  CHG  1  10   1
M  END
>  <UniqueID>  (38) 
35

>  <SMILES>  (38) 
c1ccc(Cn2ccc3[n+]2CCC3)cc1

>  <Energy>  (38) 
80.9531923193231

>  <Genealogy>  (38) 
c1ccc(Cn2ccc3[n+]2CCC3)cc1 (3D coordinates assigned)
c1ccc(Cn2ccc3[n+]2CCC3)cc1 (nonaromatic ring conformer: 80.9531923193231 kcal/mol)

>  <smiles>  (38) 
c1ccc(Cn2ccc3[n+]2CCC3)cc1

>  <score_type>  (38) 
oracle

>  <origin>  (38) 
adg

>  <m_score__min__energy>  (38) 
-6.04

>  <m_primary>  (38) 
energy

$$$$
38:0
     RDKit          3D

 50 51  0  0  0  0  0  0  0  0999 V2000
   -0.4550   26.9590  -23.1630 C   0  0  0  0  0  0  0  0  0  0  0  0
    0.1440   25.7280  -23.6870 N   0  0  0  0  0  0  0  0  0  0  0  0
    0.0030   25.6590  -25.1510 C   0  0  0  0  0  0  0  0  0  0  0  0
   -1.0720   24.6410  -25.5740 C   0  0  0  0  0  0  0  0  0  0  0  0
   -2.2270   25.2950  -26.3510 C   0  0  0  0  0  0  0  0  0  0  0  0
   -1.9990   25.2780  -27.8750 C   0  0  0  0  0  0  0  0  0  0  0  0
   -2.7130   24.1580  -28.5150 N   0  0  0  0  0  0  0  0  0  0  0  0
   -3.7830   24.4440  -29.4390 C   0  0  0  0  0  0  0  0  0  0  0  0
   -3.5210   24.9710  -30.5580 O   0  0  0  0  0  0  0  0  0  0  0  0
   -5.2170   24.1600  -29.0840 C   0  0  0  0  0  0  0  0  0  0  0  0
   -5.8060   23.1540  -30.0400 C   0  0  0  0  0  0  0  0  0  0  0  0
   -7.1980   23.0280  -30.1650 C   0  0  0  0  0  0  0  0  0  0  0  0
   -7.7490   22.0570  -31.0110 C   0  0  0  0  0  0  0  0  0  0  0  0
   -6.9150   21.1910  -31.7380 C   0  0  0  0  0  0  0  0  0  0  0  0
   -7.4770   20.1370  -32.6600 C   0  0  0  0  0  0  0  0  0  0  0  0
   -8.8120   20.3640  -32.9430 F   0  0  0  0  0  0  0  0  0  0  0  0
   -6.7670   20.1430  -33.8480 F   0  0  0  0  0  0  0  0  0  0  0  0
   -7.3590   18.8940  -32.0680 F   0  0  0  0  0  0  0  0  0  0  0  0
   -5.5230   21.3120  -31.6000 C   0  0  0  0  0  0  0  0  0  0  0  0
   -4.9720   22.2830  -30.7570 C   0  0  0  0  0  0  0  0  0  0  0  0
   -2.2810   22.7960  -28.2850 C   0  0  0  0  0  0  0  0  0  0  0  0
   -0.9430   22.4270  -28.5270 C   0  0  0  0  0  0  0  0  0  0  0  0
   -0.5110   21.1190  -28.2870 C   0  0  0  0  0  0  0  0  0  0  0  0
   -1.4090   20.1650  -27.7960 C   0  0  0  0  0  0  0  0  0  0  0  0
   -0.8650   18.5280  -27.4860 Cl  0  0  0  0  0  0  0  0  0  0  0  0
   -2.7380   20.5210  -27.5440 C   0  0  0  0  0  0  0  0  0  0  0  0
   -3.1710   21.8280  -27.7830 C   0  0  0  0  0  0  0  0  0  0  0  0
   -0.4426   26.9336  -22.0634 H   0  0  0  0  0  0  0  0  0  0  0  0
    0.1217   27.8266  -23.5162 H   0  0  0  0  0  0  0  0  0  0  0  0
   -1.4935   27.0406  -23.5162 H   0  0  0  0  0  0  0  0  0  0  0  0
   -0.3360   24.9130  -23.2390 H   0  0  0  0  0  0  0  0  0  0  0  0
    1.1590   25.7150  -23.4280 H   0  0  0  0  0  0  0  0  0  0  0  0
   -0.2792   26.6528  -25.5289 H   0  0  0  0  0  0  0  0  0  0  0  0
    0.9659   25.3349  -25.5726 H   0  0  0  0  0  0  0  0  0  0  0  0
   -0.6037   23.8782  -26.2134 H   0  0  0  0  0  0  0  0  0  0  0  0
   -1.4923   24.1981  -24.6590 H   0  0  0  0  0  0  0  0  0  0  0  0
   -3.1557   24.7495  -26.1274 H   0  0  0  0  0  0  0  0  0  0  0  0
   -2.2887   26.3467  -26.0346 H   0  0  0  0  0  0  0  0  0  0  0  0
   -2.3628   26.2244  -28.3016 H   0  0  0  0  0  0  0  0  0  0  0  0
   -0.9222   25.1530  -28.0618 H   0  0  0  0  0  0  0  0  0  0  0  0
   -5.2644   23.7586  -28.0609 H   0  0  0  0  0  0  0  0  0  0  0  0
   -5.7928   25.0949  -29.1505 H   0  0  0  0  0  0  0  0  0  0  0  0
   -7.8606   23.6959  -29.5951 H   0  0  0  0  0  0  0  0  0  0  0  0
   -8.8415   21.9720  -31.1068 H   0  0  0  0  0  0  0  0  0  0  0  0
   -4.8593   20.6368  -32.1601 H   0  0  0  0  0  0  0  0  0  0  0  0
   -3.8797   22.3640  -30.6558 H   0  0  0  0  0  0  0  0  0  0  0  0
   -0.2318   23.1746  -28.9082 H   0  0  0  0  0  0  0  0  0  0  0  0
    0.5346   20.8401  -28.4842 H   0  0  0  0  0  0  0  0  0  0  0  0
   -3.4435   19.7709  -27.1571 H   0  0  0  0  0  0  0  0  0  0  0  0
   -4.2161   22.1026  -27.5771 H   0  0  0  0  0  0  0  0  0  0  0  0
  1  2  1  0
  2  3  1  0
  3  4  1  0
  4  5  1  0
  5  6  1  0
  6  7  1  0
  7  8  1  0
  8  9  2  0
  8 10  1  0
 10 11  1  0
 11 12  2  0
 12 13  1  0
 13 14  2  0
 14 15  1  0
 15 16  1  0
 15 17  1  0
 15 18  1  0
 14 19  1  0
 19 20  2  0
  7 21  1  0
 21 22  2  0
 22 23  1  0
 23 24  2  0
 24 25  1  0
 24 26  1  0
 26 27  2  0
 20 11  1  0
 27 21  1  0
  1 28  1  0
  1 29  1  0
  1 30  1  0
  2 31  1  0
  2 32  1  0
  3 33  1  0
  3 34  1  0
  4 35  1  0
  4 36  1  0
  5 37  1  0
  5 38  1  0
  6 39  1  0
  6 40  1  0
 10 41  1  0
 10 42  1  0
 12 43  1  0
 13 44  1  0
 19 45  1  0
 20 46  1  0
 22 47  1  0
 23 48  1  0
 26 49  1  0
 27 50  1  0
M  CHG  1   2   1
M  END
>  <UniqueID>  (39) 
36

>  <SMILES>  (39) 
C[NH2+]CCCCN(C(=O)Cc1ccc(C(F)(F)F)cc1)c1ccc(Cl)cc1

>  <Energy>  (39) 
48.356611633267796

>  <Genealogy>  (39) 
C[NH2+]CCCCN(C(=O)Cc1ccc(C(F)(F)F)cc1)c1ccc(Cl)cc1 (protonated)
C[NH2+]CCCCN(C(=O)Cc1ccc(C(F)(F)F)cc1)c1ccc(Cl)cc1 (3D coordinates assigned)
C[NH2+]CCCCN(C(=O)Cc1ccc(C(F)(F)F)cc1)c1ccc(Cl)cc1 (optimized conformer: 48.356611633267796 kcal/mol)

>  <smiles>  (39) 
CNCCCCN(C(=O)Cc1ccc(C(F)(F)F)cc1)c1ccc(Cl)cc1

>  <score_type>  (39) 
oracle

>  <origin>  (39) 
adg

>  <m_score__min__energy>  (39) 
-8.4199999999999999

>  <m_primary>  (39) 
energy

$$$$
39:0
     RDKit          3D

 60 64  0  0  0  0  0  0  0  0999 V2000
   -2.8060   18.0730  -33.0730 C   0  0  0  0  0  0  0  0  0  0  0  0
   -1.8040   19.1850  -33.2210 C   0  0  0  0  0  0  0  0  0  0  0  0
   -0.8390   19.0880  -34.2390 C   0  0  0  0  0  0  0  0  0  0  0  0
    0.1120   20.0910  -34.4150 C   0  0  0  0  0  0  0  0  0  0  0  0
    0.1130   21.2040  -33.5790 C   0  0  0  0  0  0  0  0  0  0  0  0
   -0.8240   21.3090  -32.5510 C   0  0  0  0  0  0  0  0  0  0  0  0
   -1.7740   20.2950  -32.3370 C   0  0  0  0  0  0  0  0  0  0  0  0
   -2.7550   20.4520  -31.1860 C   0  0  0  0  0  0  0  0  0  0  0  0
   -3.8850   21.3440  -31.5120 N   0  0  0  0  0  0  0  0  0  0  0  0
   -4.5060   21.1280  -32.7840 C   0  0  0  0  0  0  0  0  0  0  0  0
   -3.9090   21.4570  -33.8430 O   0  0  0  0  0  0  0  0  0  0  0  0
   -5.7550   20.3630  -32.8470 C   0  0  0  0  0  0  0  0  0  0  0  0
   -5.7920   19.1290  -33.5140 C   0  0  0  0  0  0  0  0  0  0  0  0
   -6.9380   18.3310  -33.4480 C   0  0  0  0  0  0  0  0  0  0  0  0
   -8.0490   18.7620  -32.7160 C   0  0  0  0  0  0  0  0  0  0  0  0
   -8.0230   20.0000  -32.0670 C   0  0  0  0  0  0  0  0  0  0  0  0
   -6.8780   20.8040  -32.1370 C   0  0  0  0  0  0  0  0  0  0  0  0
   -6.9190   22.4300  -31.4880 S   0  0  0  0  0  0  0  0  0  0  0  0
   -7.1820   23.5330  -32.7250 O   0  0  0  0  0  0  0  0  0  0  0  0
   -5.5520   22.9390  -30.4970 C   0  0  0  0  0  0  0  0  0  0  0  0
   -5.8220   23.9300  -29.5470 C   0  0  0  0  0  0  0  0  0  0  0  0
   -4.7900   24.5390  -28.8360 C   0  0  0  0  0  0  0  0  0  0  0  0
   -3.4600   24.1790  -29.0720 C   0  0  0  0  0  0  0  0  0  0  0  0
   -2.3600   24.8850  -28.3800 C   0  0  0  0  0  0  0  0  0  0  0  0
   -1.6100   25.6590  -29.0330 O   0  0  0  0  0  0  0  0  0  0  0  0
   -2.1290   24.6890  -26.9770 N   0  0  0  0  0  0  0  0  0  0  0  0
   -0.8010   24.8340  -26.3870 C   0  0  0  0  0  0  0  0  0  0  0  0
   -0.6210   26.2420  -25.8850 C   0  0  0  0  0  0  0  0  0  0  0  0
   -0.4700   26.4790  -24.5080 C   0  0  0  0  0  0  0  0  0  0  0  0
   -0.2500   27.7780  -24.0390 C   0  0  0  0  0  0  0  0  0  0  0  0
   -0.1720   28.8450  -24.9390 C   0  0  0  0  0  0  0  0  0  0  0  0
    0.0490   30.1040  -24.4840 F   0  0  0  0  0  0  0  0  0  0  0  0
   -0.3160   28.6140  -26.3100 C   0  0  0  0  0  0  0  0  0  0  0  0
   -0.5350   27.3160  -26.7830 C   0  0  0  0  0  0  0  0  0  0  0  0
   -3.1840   23.1680  -30.0060 C   0  0  0  0  0  0  0  0  0  0  0  0
   -4.2140   22.5000  -30.6970 C   0  0  0  0  0  0  0  0  0  0  0  0
   -2.9819   17.8777  -32.0049 H   0  0  0  0  0  0  0  0  0  0  0  0
   -3.7516   18.3652  -33.5530 H   0  0  0  0  0  0  0  0  0  0  0  0
   -2.4172   17.1628  -33.5530 H   0  0  0  0  0  0  0  0  0  0  0  0
   -0.8348   18.2113  -34.9033 H   0  0  0  0  0  0  0  0  0  0  0  0
    0.8621   20.0033  -35.2147 H   0  0  0  0  0  0  0  0  0  0  0  0
    0.8544   22.0026  -33.7294 H   0  0  0  0  0  0  0  0  0  0  0  0
   -0.8195   22.1957  -31.9001 H   0  0  0  0  0  0  0  0  0  0  0  0
   -3.1541   19.4602  -30.9272 H   0  0  0  0  0  0  0  0  0  0  0  0
   -2.2084   20.9052  -30.3459 H   0  0  0  0  0  0  0  0  0  0  0  0
   -4.9183   18.7891  -34.0895 H   0  0  0  0  0  0  0  0  0  0  0  0
   -6.9659   17.3641  -33.9718 H   0  0  0  0  0  0  0  0  0  0  0  0
   -8.9443   18.1262  -32.6508 H   0  0  0  0  0  0  0  0  0  0  0  0
   -8.9019   20.3428  -31.5013 H   0  0  0  0  0  0  0  0  0  0  0  0
   -6.5040   23.3050  -33.4110 H   0  0  0  0  0  0  0  0  0  0  0  0
   -6.8628   24.2324  -29.3589 H   0  0  0  0  0  0  0  0  0  0  0  0
   -5.0232   25.3077  -28.0845 H   0  0  0  0  0  0  0  0  0  0  0  0
   -2.9090   24.3620  -26.3650 H   0  0  0  0  0  0  0  0  0  0  0  0
   -0.6944   24.1302  -25.5484 H   0  0  0  0  0  0  0  0  0  0  0  0
   -0.0377   24.6181  -27.1491 H   0  0  0  0  0  0  0  0  0  0  0  0
   -0.5250   25.6410  -23.7976 H   0  0  0  0  0  0  0  0  0  0  0  0
   -0.1381   27.9606  -22.9600 H   0  0  0  0  0  0  0  0  0  0  0  0
   -0.2570   29.4540  -27.0178 H   0  0  0  0  0  0  0  0  0  0  0  0
   -0.6402   27.1369  -27.8632 H   0  0  0  0  0  0  0  0  0  0  0  0
   -2.1380   22.8906  -30.2031 H   0  0  0  0  0  0  0  0  0  0  0  0
  1  2  1  0
  2  3  2  0
  3  4  1  0
  4  5  2  0
  5  6  1  0
  6  7  2  0
  7  8  1  0
  8  9  1  0
  9 10  1  0
 10 11  2  0
 10 12  1  0
 12 13  2  0
 13 14  1  0
 14 15  2  0
 15 16  1  0
 16 17  2  0
 17 18  1  0
 18 19  1  6
 18 20  1  0
 20 21  2  0
 21 22  1  0
 22 23  2  0
 23 24  1  0
 24 25  2  0
 24 26  1  0
 26 27  1  0
 27 28  1  0
 28 29  2  0
 29 30  1  0
 30 31  2  0
 31 32  1  0
 31 33  1  0
 33 34  2  0
 23 35  1  0
 35 36  2  0
  7  2  1  0
 36  9  1  0
 17 12  1  0
 36 20  1  0
 34 28  1  0
  1 37  1  0
  1 38  1  0
  1 39  1  0
  3 40  1  0
  4 41  1  0
  5 42  1  0
  6 43  1  0
  8 44  1  0
  8 45  1  0
 13 46  1  0
 14 47  1  0
 15 48  1  0
 16 49  1  0
 19 50  1  0
 21 51  1  0
 22 52  1  0
 26 53  1  0
 27 54  1  0
 27 55  1  0
 29 56  1  0
 30 57  1  0
 33 58  1  0
 34 59  1  0
 35 60  1  0
M  CHG  1  18   1
M  END
>  <UniqueID>  (40) 
37

>  <SMILES>  (40) 
Cc1ccccc1CN1C(=O)c2ccccc2[S@+](O)c2ccc(C(=O)NCc3ccc(F)cc3)cc21

>  <Energy>  (40) 
90.8613788151809

>  <Genealogy>  (40) 
Cc1ccccc1CN1C(=O)c2ccccc2[S+](O)c2ccc(C(=O)NCc3ccc(F)cc3)cc21 (protonated)
Cc1ccccc1CN1C(=O)c2ccccc2[S@+](O)c2ccc(C(=O)NCc3ccc(F)cc3)cc21 (chirality)
Cc1ccccc1CN1C(=O)c2ccccc2[S@+](O)c2ccc(C(=O)NCc3ccc(F)cc3)cc21 (3D coordinates assigned)
Cc1ccccc1CN1C(=O)c2ccccc2[S@+](O)c2ccc(C(=O)NCc3ccc(F)cc3)cc21 (nonaromatic ring conformer: 90.8613788151809 kcal/mol)

>  <smiles>  (40) 
Cc1ccccc1CN1C(=O)c2ccccc2[S+]([O-])c2ccc(C(=O)NCc3ccc(F)cc3)cc21

>  <score_type>  (40) 
oracle

>  <origin>  (40) 
adg

>  <m_score__min__energy>  (40) 
-10.09

>  <m_primary>  (40) 
energy

$$$$
40:0
     RDKit          3D

 41 42  0  0  0  0  0  0  0  0999 V2000
   -4.6200   25.7540  -31.7720 H   0  0  0  0  0  0  0  0  0  0  0  0
   -4.2010   25.6790  -30.8210 N   0  0  0  0  0  0  0  0  0  0  0  0
   -3.7230   24.5910  -30.2990 C   0  0  0  0  0  0  0  0  0  0  0  0
   -2.6970   24.6990  -29.4140 N   0  0  0  0  0  0  0  0  0  0  0  0
   -2.0940   23.6110  -28.8710 C   0  0  0  0  0  0  0  0  0  0  0  0
   -1.2722   23.7352  -28.1504 H   0  0  0  0  0  0  0  0  0  0  0  0
   -2.5260   22.3270  -29.2350 C   0  0  0  0  0  0  0  0  0  0  0  0
   -1.8920   21.0940  -28.6990 C   0  0  0  0  0  0  0  0  0  0  0  0
   -0.6990   20.5830  -29.2360 C   0  0  0  0  0  0  0  0  0  0  0  0
   -0.2154   21.0951  -30.0809 H   0  0  0  0  0  0  0  0  0  0  0  0
   -0.1400   19.4600  -28.7170 N   0  0  0  0  0  0  0  0  0  0  0  0
   -0.6960   18.7890  -27.6710 C   0  0  0  0  0  0  0  0  0  0  0  0
   -0.0920   17.6320  -27.1660 O   0  0  0  0  0  0  0  0  0  0  0  0
    0.9660   16.9590  -27.8380 C   0  0  0  0  0  0  0  0  0  0  0  0
    1.6520   16.5226  -27.0971 H   0  0  0  0  0  0  0  0  0  0  0  0
    0.5500   16.1592  -28.4682 H   0  0  0  0  0  0  0  0  0  0  0  0
    1.5141   17.6748  -28.4682 H   0  0  0  0  0  0  0  0  0  0  0  0
   -1.8790   19.2590  -27.0890 C   0  0  0  0  0  0  0  0  0  0  0  0
   -2.4270   18.5520  -26.0080 O   0  0  0  0  0  0  0  0  0  0  0  0
   -3.8110   18.5380  -25.6740 C   0  0  0  0  0  0  0  0  0  0  0  0
   -3.9241   18.5369  -24.5798 H   0  0  0  0  0  0  0  0  0  0  0  0
   -4.2981   19.4313  -26.0921 H   0  0  0  0  0  0  0  0  0  0  0  0
   -4.2800   17.6351  -26.0921 H   0  0  0  0  0  0  0  0  0  0  0  0
   -2.4720   20.4210  -27.6100 C   0  0  0  0  0  0  0  0  0  0  0  0
   -3.3989   20.8078  -27.1615 H   0  0  0  0  0  0  0  0  0  0  0  0
   -3.5570   22.2190  -30.1160 N   0  0  0  0  0  0  0  0  0  0  0  0
   -4.1860   23.2980  -30.6530 C   0  0  0  0  0  0  0  0  0  0  0  0
   -5.3310   23.0450  -31.5540 C   0  0  0  0  0  0  0  0  0  0  0  0
   -5.8070   23.9770  -32.2570 O   0  0  0  0  0  0  0  0  0  0  0  0
   -5.9490   21.7480  -31.5730 N   0  0  0  0  0  0  0  0  0  0  0  0
   -5.4960   20.9740  -31.0360 H   0  0  0  0  0  0  0  0  0  0  0  0
   -7.1600   21.4660  -32.3500 C   0  0  0  0  0  0  0  0  0  0  0  0
   -7.1237   22.0436  -33.2855 H   0  0  0  0  0  0  0  0  0  0  0  0
   -8.4020   21.8890  -31.5610 C   0  0  0  0  0  0  0  0  0  0  0  0
   -8.1935   21.8180  -30.4833 H   0  0  0  0  0  0  0  0  0  0  0  0
   -8.6629   22.9266  -31.8164 H   0  0  0  0  0  0  0  0  0  0  0  0
   -9.2420   21.2263  -31.8164 H   0  0  0  0  0  0  0  0  0  0  0  0
   -7.2310   19.9760  -32.7020 C   0  0  0  0  0  0  0  0  0  0  0  0
   -7.2593   19.3816  -31.7768 H   0  0  0  0  0  0  0  0  0  0  0  0
   -8.1394   19.7812  -33.2909 H   0  0  0  0  0  0  0  0  0  0  0  0
   -6.3452   19.6957  -33.2909 H   0  0  0  0  0  0  0  0  0  0  0  0
  1  2  1  0
  2  3  2  0
  3  4  1  0
  4  5  1  0
  5  6  1  0
  5  7  2  0
  7  8  1  0
  8  9  2  0
  9 10  1  0
  9 11  1  0
 11 12  2  0
 12 13  1  0
 13 14  1  0
 14 15  1  0
 14 16  1  0
 14 17  1  0
 12 18  1  0
 18 19  1  0
 19 20  1  0
 20 21  1  0
 20 22  1  0
 20 23  1  0
 18 24  2  0
 24 25  1  0
  7 26  1  0
 26 27  2  0
 27 28  1  0
 28 29  2  0
 28 30  1  0
 30 31  1  0
 30 32  1  0
 32 33  1  0
 32 34  1  0
 34 35  1  0
 34 36  1  0
 34 37  1  0
 32 38  1  0
 38 39  1  0
 38 40  1  0
 38 41  1  0
 27  3  1  0
 24  8  1  0
M  CHG  1   4  -1
M  END
>  <UniqueID>  (41) 
38

>  <SMILES>  (41) 
[H]/N=c1/[n-]cc(-c2cnc(OC)c(OC)c2)nc1C(=O)NC(C)C

>  <Energy>  (41) 
44.49397251911872

>  <Genealogy>  (41) 
COc1cc(-c2c[n-]c(=N)c(C(=O)NC(C)C)n2)cnc1OC (protonated)
[H]/N=c1/[n-]cc(-c2cnc(OC)c(OC)c2)nc1C(=O)NC(C)C (cis-trans isomerization)
[H]/N=c1/[n-]cc(-c2cnc(OC)c(OC)c2)nc1C(=O)NC(C)C (3D coordinates assigned)
[H]/N=c1/[n-]cc(-c2cnc(OC)c(OC)c2)nc1C(=O)NC(C)C (optimized conformer: 44.49397251911872 kcal/mol)

>  <smiles>  (41) 
COc1cc(-c2c[nH]c(=N)c(C(=O)NC(C)C)n2)cnc1OC

>  <score_type>  (41) 
oracle

>  <origin>  (41) 
adg

>  <m_score__min__energy>  (41) 
-8.4900000000000002

>  <m_primary>  (41) 
energy

$$$$
41:0
     RDKit          3D

 55 59  0  0  0  0  0  0  0  0999 V2000
   -9.3710   21.1950  -31.6760 C   0  0  0  0  0  0  0  0  0  0  0  0
   -9.0830   19.9320  -32.1990 C   0  0  0  0  0  0  0  0  0  0  0  0
   -7.8070   19.6530  -32.6980 C   0  0  0  0  0  0  0  0  0  0  0  0
   -6.8110   20.6450  -32.6920 C   0  0  0  0  0  0  0  0  0  0  0  0
   -5.4560   20.3630  -33.2910 C   0  0  0  0  0  0  0  0  0  0  0  0
   -4.5990   21.5610  -33.2520 N   0  0  0  0  0  0  0  0  0  0  0  0
   -3.1990   21.2510  -32.9180 C   0  0  0  0  0  0  0  0  0  0  0  0
   -2.7850   21.9360  -31.6420 C   0  0  0  0  0  0  0  0  0  0  0  0
   -3.7560   22.5200  -30.8140 C   0  0  0  0  0  0  0  0  0  0  0  0
   -3.3980   23.0380  -29.5670 C   0  0  0  0  0  0  0  0  0  0  0  0
   -2.0610   23.0000  -29.1400 C   0  0  0  0  0  0  0  0  0  0  0  0
   -1.6830   23.4600  -27.7870 C   0  0  0  0  0  0  0  0  0  0  0  0
   -1.8280   24.7820  -27.5010 N   0  0  0  0  0  0  0  0  0  0  0  0
   -1.4420   25.3040  -26.3110 C   0  0  0  0  0  0  0  0  0  0  0  0
   -1.6000   26.6700  -26.0520 C   0  0  0  0  0  0  0  0  0  0  0  0
   -1.1900   27.1970  -24.8240 C   0  0  0  0  0  0  0  0  0  0  0  0
   -0.6230   26.3630  -23.8540 C   0  0  0  0  0  0  0  0  0  0  0  0
   -0.4620   24.9970  -24.1100 C   0  0  0  0  0  0  0  0  0  0  0  0
   -0.8700   24.4600  -25.3400 C   0  0  0  0  0  0  0  0  0  0  0  0
   -0.7310   23.1320  -25.6090 N   0  0  0  0  0  0  0  0  0  0  0  0
   -1.1360   22.6000  -26.8010 C   0  0  0  0  0  0  0  0  0  0  0  0
   -1.0260   21.1360  -27.0070 C   0  0  0  0  0  0  0  0  0  0  0  0
    0.1010   20.5820  -27.6380 C   0  0  0  0  0  0  0  0  0  0  0  0
    0.1950   19.2000  -27.8290 C   0  0  0  0  0  0  0  0  0  0  0  0
   -0.8400   18.3620  -27.4030 C   0  0  0  0  0  0  0  0  0  0  0  0
   -1.9720   18.9060  -26.7900 C   0  0  0  0  0  0  0  0  0  0  0  0
   -2.0680   20.2880  -26.5960 C   0  0  0  0  0  0  0  0  0  0  0  0
   -1.0860   22.4410  -29.9820 C   0  0  0  0  0  0  0  0  0  0  0  0
   -1.4440   21.9230  -31.2290 C   0  0  0  0  0  0  0  0  0  0  0  0
   -7.1010   21.9040  -32.1380 C   0  0  0  0  0  0  0  0  0  0  0  0
   -8.3780   22.1780  -31.6390 C   0  0  0  0  0  0  0  0  0  0  0  0
  -10.3785   21.4157  -31.2936 H   0  0  0  0  0  0  0  0  0  0  0  0
   -9.8617   19.1553  -32.2183 H   0  0  0  0  0  0  0  0  0  0  0  0
   -7.5816   18.6530  -33.0970 H   0  0  0  0  0  0  0  0  0  0  0  0
   -4.9720   19.5563  -32.7209 H   0  0  0  0  0  0  0  0  0  0  0  0
   -5.5933   20.0657  -34.3411 H   0  0  0  0  0  0  0  0  0  0  0  0
   -4.6000   21.9750  -34.2140 H   0  0  0  0  0  0  0  0  0  0  0  0
   -3.0910   20.1634  -32.7940 H   0  0  0  0  0  0  0  0  0  0  0  0
   -2.5556   21.6112  -33.7343 H   0  0  0  0  0  0  0  0  0  0  0  0
   -4.8028   22.5700  -31.1481 H   0  0  0  0  0  0  0  0  0  0  0  0
   -4.1678   23.4781  -28.9160 H   0  0  0  0  0  0  0  0  0  0  0  0
   -2.0458   27.3275  -26.8129 H   0  0  0  0  0  0  0  0  0  0  0  0
   -1.3135   28.2708  -24.6195 H   0  0  0  0  0  0  0  0  0  0  0  0
   -0.3033   26.7821  -22.8885 H   0  0  0  0  0  0  0  0  0  0  0  0
   -0.0151   24.3436  -23.3462 H   0  0  0  0  0  0  0  0  0  0  0  0
   -0.3300   22.5020  -24.8770 H   0  0  0  0  0  0  0  0  0  0  0  0
    0.9131   21.2388  -27.9833 H   0  0  0  0  0  0  0  0  0  0  0  0
    1.0841   18.7717  -28.3149 H   0  0  0  0  0  0  0  0  0  0  0  0
   -0.7633   17.2746  -27.5503 H   0  0  0  0  0  0  0  0  0  0  0  0
   -2.7883   18.2468  -26.4597 H   0  0  0  0  0  0  0  0  0  0  0  0
   -2.9637   20.7129  -26.1193 H   0  0  0  0  0  0  0  0  0  0  0  0
   -0.0352   22.4109  -29.6580 H   0  0  0  0  0  0  0  0  0  0  0  0
   -0.6714   21.5032  -31.8899 H   0  0  0  0  0  0  0  0  0  0  0  0
   -6.3196   22.6772  -32.0969 H   0  0  0  0  0  0  0  0  0  0  0  0
   -8.6016   23.1688  -31.2166 H   0  0  0  0  0  0  0  0  0  0  0  0
  1  2  2  0
  2  3  1  0
  3  4  2  0
  4  5  1  0
  5  6  1  0
  6  7  1  0
  7  8  1  0
  8  9  2  0
  9 10  1  0
 10 11  2  0
 11 12  1  0
 12 13  2  0
 13 14  1  0
 14 15  2  0
 15 16  1  0
 16 17  2  0
 17 18  1  0
 18 19  2  0
 19 20  1  0
 20 21  2  0
 21 22  1  0
 22 23  2  0
 23 24  1  0
 24 25  2  0
 25 26  1  0
 26 27  2  0
 11 28  1  0
 28 29  2  0
  4 30  1  0
 30 31  2  0
 31  1  1  0
 29  8  1  0
 21 12  1  0
 27 22  1  0
 19 14  1  0
  1 32  1  0
  2 33  1  0
  3 34  1  0
  5 35  1  0
  5 36  1  0
  6 37  1  0
  7 38  1  0
  7 39  1  0
  9 40  1  0
 10 41  1  0
 15 42  1  0
 16 43  1  0
 17 44  1  0
 18 45  1  0
 20 46  1  0
 23 47  1  0
 24 48  1  0
 25 49  1  0
 26 50  1  0
 27 51  1  0
 28 52  1  0
 29 53  1  0
 30 54  1  0
 31 55  1  0
M  CHG  1  20   1
M  END
>  <UniqueID>  (42) 
39

>  <SMILES>  (42) 
c1ccc(CNCc2ccc(-c3nc4ccccc4[nH+]c3-c3ccccc3)cc2)cc1

>  <Energy>  (42) 
73.04453690132584

>  <Genealogy>  (42) 
c1ccc(CNCc2ccc(-c3nc4ccccc4[nH+]c3-c3ccccc3)cc2)cc1 (protonated)
c1ccc(CNCc2ccc(-c3nc4ccccc4[nH+]c3-c3ccccc3)cc2)cc1 (3D coordinates assigned)
c1ccc(CNCc2ccc(-c3nc4ccccc4[nH+]c3-c3ccccc3)cc2)cc1 (optimized conformer: 73.04453690132584 kcal/mol)

>  <smiles>  (42) 
c1ccc(CNCc2ccc(-c3nc4ccccc4nc3-c3ccccc3)cc2)cc1

>  <score_type>  (42) 
oracle

>  <origin>  (42) 
adg

>  <m_score__min__energy>  (42) 
-9.5099999999999998

>  <m_primary>  (42) 
energy

$$$$
42:0
     RDKit          3D

 43 45  0  0  0  0  0  0  0  0999 V2000
   -5.6100   16.8390  -33.0040 C   0  0  0  0  0  0  0  0  0  0  0  0
   -6.5760   17.9640  -32.7810 C   0  0  0  0  0  0  0  0  0  0  0  0
   -6.5110   19.1200  -33.5720 C   0  0  0  0  0  0  0  0  0  0  0  0
   -7.4360   20.1520  -33.3900 C   0  0  0  0  0  0  0  0  0  0  0  0
   -8.4430   20.0390  -32.4200 C   0  0  0  0  0  0  0  0  0  0  0  0
   -9.4580   21.1430  -32.2450 C   0  0  0  0  0  0  0  0  0  0  0  0
   -8.9920   22.1810  -31.3120 N   0  0  0  0  0  0  0  0  0  0  0  0
   -7.9950   23.0680  -31.9290 C   0  0  0  0  0  0  0  0  0  0  0  0
   -6.6920   23.0770  -31.1010 C   0  0  2  0  0  0  0  0  0  0  0  0
   -5.5840   23.9220  -31.8000 C   0  0  0  0  0  0  0  0  0  0  0  0
   -4.5940   24.4540  -30.9280 O   0  0  0  0  0  0  0  0  0  0  0  0
   -3.7570   23.4880  -30.3070 C   0  0  0  0  0  0  0  0  0  0  0  0
   -3.7430   22.1510  -30.9960 C   0  0  0  0  0  0  0  0  0  0  0  0
   -2.6540   21.4600  -31.4890 C   0  0  0  0  0  0  0  0  0  0  0  0
   -1.2220   21.8860  -31.4740 C   0  0  0  0  0  0  0  0  0  0  0  0
   -3.0920   20.2820  -31.9730 N   0  0  0  0  0  0  0  0  0  0  0  0
   -4.4050   20.2550  -31.7890 N   0  0  0  0  0  0  0  0  0  0  0  0
   -4.8200   21.3700  -31.2070 N   0  0  0  0  0  0  0  0  0  0  0  0
   -6.2240   21.6170  -30.8590 C   0  0  0  0  0  0  0  0  0  0  0  0
   -8.5220   18.8720  -31.6430 C   0  0  0  0  0  0  0  0  0  0  0  0
   -7.5970   17.8400  -31.8260 C   0  0  0  0  0  0  0  0  0  0  0  0
   -5.2733   16.4469  -32.0330 H   0  0  0  0  0  0  0  0  0  0  0  0
   -6.1054   16.0373  -33.5713 H   0  0  0  0  0  0  0  0  0  0  0  0
   -4.7426   17.2075  -33.5713 H   0  0  0  0  0  0  0  0  0  0  0  0
   -5.7285   19.2151  -34.3392 H   0  0  0  0  0  0  0  0  0  0  0  0
   -7.3739   21.0579  -34.0109 H   0  0  0  0  0  0  0  0  0  0  0  0
   -9.6502   21.6065  -33.2239 H   0  0  0  0  0  0  0  0  0  0  0  0
  -10.3732   20.6983  -31.8271 H   0  0  0  0  0  0  0  0  0  0  0  0
   -8.5670   21.7220  -30.4720 H   0  0  0  0  0  0  0  0  0  0  0  0
   -7.7748   22.7125  -32.9464 H   0  0  0  0  0  0  0  0  0  0  0  0
   -8.4012   24.0897  -31.9635 H   0  0  0  0  0  0  0  0  0  0  0  0
   -6.8894   23.5516  -30.1285 H   0  0  0  0  0  0  0  0  0  0  0  0
   -5.0798   23.2803  -32.5376 H   0  0  0  0  0  0  0  0  0  0  0  0
   -6.0943   24.7865  -32.2497 H   0  0  0  0  0  0  0  0  0  0  0  0
   -2.7292   23.8798  -30.2931 H   0  0  0  0  0  0  0  0  0  0  0  0
   -4.1624   23.3198  -29.2983 H   0  0  0  0  0  0  0  0  0  0  0  0
   -0.8806   21.9876  -30.4333 H   0  0  0  0  0  0  0  0  0  0  0  0
   -0.6095   21.1312  -31.9888 H   0  0  0  0  0  0  0  0  0  0  0  0
   -1.1217   22.8529  -31.9888 H   0  0  0  0  0  0  0  0  0  0  0  0
   -6.8525   20.9482  -31.4654 H   0  0  0  0  0  0  0  0  0  0  0  0
   -6.3199   21.4291  -29.7794 H   0  0  0  0  0  0  0  0  0  0  0  0
   -9.3148   18.7695  -30.8874 H   0  0  0  0  0  0  0  0  0  0  0  0
   -7.6697   16.9260  -31.2183 H   0  0  0  0  0  0  0  0  0  0  0  0
  1  2  1  0
  2  3  2  0
  3  4  1  0
  4  5  2  0
  5  6  1  0
  6  7  1  0
  7  8  1  0
  8  9  1  0
  9 10  1  0
 10 11  1  0
 11 12  1  0
 12 13  1  0
 13 14  2  0
 14 15  1  0
 14 16  1  0
 16 17  2  0
 17 18  1  0
 18 19  1  0
  5 20  1  0
 20 21  2  0
 21  2  1  0
 19  9  1  0
 18 13  1  0
  1 22  1  0
  1 23  1  0
  1 24  1  0
  3 25  1  0
  4 26  1  0
  6 27  1  0
  6 28  1  0
  7 29  1  0
  8 30  1  0
  8 31  1  0
  9 32  1  1
 10 33  1  0
 10 34  1  0
 12 35  1  0
 12 36  1  0
 15 37  1  0
 15 38  1  0
 15 39  1  0
 19 40  1  0
 19 41  1  0
 20 42  1  0
 21 43  1  0
M  END
>  <UniqueID>  (43) 
40

>  <SMILES>  (43) 
Cc1ccc(CNC[C@@H]2COCc3c(C)nnn3C2)cc1

>  <Energy>  (43) 
92.03939204380629

>  <Genealogy>  (43) 
Cc1ccc(CNC[C@@H]2COCc3c(C)nnn3C2)cc1 (chirality)
Cc1ccc(CNC[C@@H]2COCc3c(C)nnn3C2)cc1 (3D coordinates assigned)
Cc1ccc(CNC[C@@H]2COCc3c(C)nnn3C2)cc1 (nonaromatic ring conformer: 92.03939204380629 kcal/mol)

>  <smiles>  (43) 
Cc1ccc(CNCC2COCc3c(C)nnn3C2)cc1

>  <score_type>  (43) 
oracle

>  <origin>  (43) 
adg

>  <m_score__min__energy>  (43) 
-6.0099999999999998

>  <m_primary>  (43) 
energy

$$$$
43:0
     RDKit          3D

 67 68  0  0  0  0  0  0  0  0999 V2000
   -3.9910   24.0520  -27.5650 C   0  0  0  0  0  0  0  0  0  0  0  0
   -4.4280   23.1540  -28.7180 C   0  0  0  0  0  0  0  0  0  0  0  0
   -4.0640   23.7820  -30.0690 C   0  0  0  0  0  0  0  0  0  0  0  0
   -4.9820   24.9480  -30.4690 C   0  0  0  0  0  0  0  0  0  0  0  0
   -6.4850   24.6890  -30.2250 C   0  0  0  0  0  0  0  0  0  0  0  0
   -7.0460   23.5440  -31.0930 C   0  0  0  0  0  0  0  0  0  0  0  0
   -7.5720   22.3640  -30.2540 C   0  0  0  0  0  0  0  0  0  0  0  0
   -8.7710   21.6150  -30.8700 C   0  0  0  0  0  0  0  0  0  0  0  0
   -8.4900   21.0560  -32.2790 C   0  0  0  0  0  0  0  0  0  0  0  0
   -9.4100   19.8810  -32.6340 C   0  0  0  0  0  0  0  0  0  0  0  0
   -8.9430   18.5910  -31.9560 C   0  0  0  0  0  0  0  0  0  0  0  0
   -7.5200   18.3090  -32.3160 C   0  0  0  0  0  0  0  0  0  0  0  0
   -7.2580   17.5640  -33.2980 O   0  0  0  0  0  0  0  0  0  0  0  0
   -6.5000   18.9030  -31.5590 O   0  0  0  0  0  0  0  0  0  0  0  0
   -5.2920   19.3990  -32.0670 C   0  0  0  0  0  0  0  0  0  0  0  0
   -4.3600   18.5810  -32.7330 C   0  0  0  0  0  0  0  0  0  0  0  0
   -3.1930   19.1350  -33.2680 C   0  0  0  0  0  0  0  0  0  0  0  0
   -2.9480   20.5120  -33.1580 C   0  0  0  0  0  0  0  0  0  0  0  0
   -1.7290   21.1300  -33.7880 C   0  0  0  0  0  0  0  0  0  0  0  0
   -0.6410   21.1170  -32.8660 O   0  0  0  0  0  0  0  0  0  0  0  0
   -0.8050   21.1530  -31.4760 C   0  0  0  0  0  0  0  0  0  0  0  0
   -0.9070   22.2990  -30.7680 N   0  0  0  0  0  0  0  0  0  0  0  0
   -1.0680   22.0470  -29.4320 C   0  0  0  0  0  0  0  0  0  0  0  0
   -1.1840   22.9880  -28.6030 O   0  0  0  0  0  0  0  0  0  0  0  0
   -1.0970   20.7380  -29.0490 N   0  0  0  0  0  0  0  0  0  0  0  0
   -1.2750   20.2080  -27.6940 C   0  0  0  0  0  0  0  0  0  0  0  0
   -2.7650   20.0630  -27.3740 C   0  0  0  0  0  0  0  0  0  0  0  0
   -0.5490   18.8700  -27.5450 C   0  0  0  0  0  0  0  0  0  0  0  0
   -0.9150   19.8460  -30.4410 S   0  0  0  0  0  0  0  0  0  0  0  0
   -3.8820   21.3280  -32.5020 C   0  0  0  0  0  0  0  0  0  0  0  0
   -5.0430   20.7720  -31.9580 C   0  0  0  0  0  0  0  0  0  0  0  0
   -4.2290   23.5630  -26.6089 H   0  0  0  0  0  0  0  0  0  0  0  0
   -2.9068   24.2273  -27.6273 H   0  0  0  0  0  0  0  0  0  0  0  0
   -4.5220   25.0133  -27.6273 H   0  0  0  0  0  0  0  0  0  0  0  0
   -3.9251   22.1800  -28.6264 H   0  0  0  0  0  0  0  0  0  0  0  0
   -5.5198   23.0286  -28.6715 H   0  0  0  0  0  0  0  0  0  0  0  0
   -3.0309   24.1555  -30.0125 H   0  0  0  0  0  0  0  0  0  0  0  0
   -4.1828   22.9993  -30.8327 H   0  0  0  0  0  0  0  0  0  0  0  0
   -4.6866   25.8337  -29.8874 H   0  0  0  0  0  0  0  0  0  0  0  0
   -4.8592   25.0867  -31.5533 H   0  0  0  0  0  0  0  0  0  0  0  0
   -6.6289   24.4292  -29.1658 H   0  0  0  0  0  0  0  0  0  0  0  0
   -7.0265   25.6064  -30.4990 H   0  0  0  0  0  0  0  0  0  0  0  0
   -7.8722   23.9376  -31.7033 H   0  0  0  0  0  0  0  0  0  0  0  0
   -6.2226   23.1666  -31.7172 H   0  0  0  0  0  0  0  0  0  0  0  0
   -6.7503   21.6446  -30.1226 H   0  0  0  0  0  0  0  0  0  0  0  0
   -7.9294   22.7934  -29.3064 H   0  0  0  0  0  0  0  0  0  0  0  0
   -9.0342   20.7761  -30.2089 H   0  0  0  0  0  0  0  0  0  0  0  0
   -9.5904   22.3423  -30.9684 H   0  0  0  0  0  0  0  0  0  0  0  0
   -8.6423   21.8592  -33.0150 H   0  0  0  0  0  0  0  0  0  0  0  0
   -7.4535   20.6880  -32.2942 H   0  0  0  0  0  0  0  0  0  0  0  0
  -10.4326   20.1120  -32.3009 H   0  0  0  0  0  0  0  0  0  0  0  0
   -9.3825   19.7326  -33.7236 H   0  0  0  0  0  0  0  0  0  0  0  0
   -9.0273   18.7021  -30.8649 H   0  0  0  0  0  0  0  0  0  0  0  0
   -9.5733   17.7562  -32.2965 H   0  0  0  0  0  0  0  0  0  0  0  0
   -4.5504   17.5022  -32.8329 H   0  0  0  0  0  0  0  0  0  0  0  0
   -2.4636   18.4882  -33.7775 H   0  0  0  0  0  0  0  0  0  0  0  0
   -1.4526   20.5564  -34.6850 H   0  0  0  0  0  0  0  0  0  0  0  0
   -1.9547   22.1706  -34.0640 H   0  0  0  0  0  0  0  0  0  0  0  0
   -0.8361   20.9153  -26.9750 H   0  0  0  0  0  0  0  0  0  0  0  0
   -2.9061   20.0493  -26.2832 H   0  0  0  0  0  0  0  0  0  0  0  0
   -3.3168   20.9117  -27.8044 H   0  0  0  0  0  0  0  0  0  0  0  0
   -3.1428   19.1238  -27.8044 H   0  0  0  0  0  0  0  0  0  0  0  0
   -0.4231   18.6381  -26.4771 H   0  0  0  0  0  0  0  0  0  0  0  0
   -1.1403   18.0765  -28.0254 H   0  0  0  0  0  0  0  0  0  0  0  0
    0.4386   18.9332  -28.0254 H   0  0  0  0  0  0  0  0  0  0  0  0
   -3.6997   22.4093  -32.4156 H   0  0  0  0  0  0  0  0  0  0  0  0
   -5.7668   21.4185  -31.4401 H   0  0  0  0  0  0  0  0  0  0  0  0
  1  2  1  0
  2  3  1  0
  3  4  1  0
  4  5  1  0
  5  6  1  0
  6  7  1  0
  7  8  1  0
  8  9  1  0
  9 10  1  0
 10 11  1  0
 11 12  1  0
 12 13  2  0
 12 14  1  0
 14 15  1  0
 15 16  2  0
 16 17  1  0
 17 18  2  0
 18 19  1  0
 19 20  1  0
 20 21  1  0
 21 22  2  0
 22 23  1  0
 23 24  2  0
 23 25  1  0
 25 26  1  0
 26 27  1  0
 26 28  1  0
 25 29  1  0
 18 30  1  0
 30 31  2  0
 31 15  1  0
 29 21  1  0
  1 32  1  0
  1 33  1  0
  1 34  1  0
  2 35  1  0
  2 36  1  0
  3 37  1  0
  3 38  1  0
  4 39  1  0
  4 40  1  0
  5 41  1  0
  5 42  1  0
  6 43  1  0
  6 44  1  0
  7 45  1  0
  7 46  1  0
  8 47  1  0
  8 48  1  0
  9 49  1  0
  9 50  1  0
 10 51  1  0
 10 52  1  0
 11 53  1  0
 11 54  1  0
 16 55  1  0
 17 56  1  0
 19 57  1  0
 19 58  1  0
 26 59  1  0
 27 60  1  0
 27 61  1  0
 27 62  1  0
 28 63  1  0
 28 64  1  0
 28 65  1  0
 30 66  1  0
 31 67  1  0
M  END
>  <UniqueID>  (44) 
41

>  <SMILES>  (44) 
CCCCCCCCCCCC(=O)Oc1ccc(COc2nc(=O)n(C(C)C)s2)cc1

>  <Energy>  (44) 
82.89735055986066

>  <Genealogy>  (44) 
CCCCCCCCCCCC(=O)Oc1ccc(COc2nc(=O)n(C(C)C)s2)cc1 (3D coordinates assigned)
CCCCCCCCCCCC(=O)Oc1ccc(COc2nc(=O)n(C(C)C)s2)cc1 (optimized conformer: 82.89735055986066 kcal/mol)

>  <smiles>  (44) 
CCCCCCCCCCCC(=O)Oc1ccc(COc2nc(=O)n(C(C)C)s2)cc1

>  <score_type>  (44) 
oracle

>  <origin>  (44) 
adg

>  <m_score__min__energy>  (44) 
-9.1500000000000004

>  <m_primary>  (44) 
energy

$$$$
44:0
     RDKit          3D

 54 56  0  0  0  0  0  0  0  0999 V2000
   -7.5550   13.7050  -34.8910 C   0  0  0  0  0  0  0  0  0  0  0  0
   -6.9450   14.8760  -34.3950 O   0  0  0  0  0  0  0  0  0  0  0  0
   -5.5780   14.6230  -34.1480 C   0  0  0  0  0  0  0  0  0  0  0  0
   -4.9240   15.8540  -33.4980 C   0  0  0  0  0  0  0  0  0  0  0  0
   -5.8530   17.0010  -33.3320 N   0  0  1  0  0  0  0  0  0  0  0  0
   -5.8660   17.4850  -31.9300 C   0  0  0  0  0  0  0  0  0  0  0  0
   -6.8000   18.6970  -31.7610 C   0  0  0  0  0  0  0  0  0  0  0  0
   -6.4070   19.8530  -32.7030 C   0  0  1  0  0  0  0  0  0  0  0  0
   -5.1000   20.5730  -32.3640 C   0  0  0  0  0  0  0  0  0  0  0  0
   -4.8620   21.2030  -31.1250 C   0  0  0  0  0  0  0  0  0  0  0  0
   -3.6490   21.8660  -30.9020 C   0  0  0  0  0  0  0  0  0  0  0  0
   -3.3740   22.4950  -29.5910 C   0  0  0  0  0  0  0  0  0  0  0  0
   -2.6060   21.8030  -28.6220 C   0  0  0  0  0  0  0  0  0  0  0  0
   -2.0700   20.4180  -28.8870 C   0  0  0  0  0  0  0  0  0  0  0  0
   -2.3590   22.4040  -27.3780 C   0  0  0  0  0  0  0  0  0  0  0  0
   -2.8420   23.6810  -27.1000 C   0  0  0  0  0  0  0  0  0  0  0  0
   -3.5910   24.3710  -28.0520 C   0  0  0  0  0  0  0  0  0  0  0  0
   -3.8800   23.7850  -29.2950 C   0  0  0  0  0  0  0  0  0  0  0  0
   -4.6980   24.5710  -30.2930 C   0  0  0  0  0  0  0  0  0  0  0  0
   -3.9330   25.6180  -30.8280 O   0  0  0  0  0  0  0  0  0  0  0  0
   -2.6930   21.9210  -31.9210 C   0  0  0  0  0  0  0  0  0  0  0  0
   -2.9700   21.3220  -33.1470 C   0  0  0  0  0  0  0  0  0  0  0  0
   -4.1510   20.6770  -33.3390 N   0  0  0  0  0  0  0  0  0  0  0  0
   -6.3850   19.3020  -34.1430 C   0  0  0  0  0  0  0  0  0  0  0  0
   -5.4470   18.0900  -34.2530 C   0  0  0  0  0  0  0  0  0  0  0  0
   -7.8821   13.0771  -34.0491 H   0  0  0  0  0  0  0  0  0  0  0  0
   -8.4259   13.9772  -35.5054 H   0  0  0  0  0  0  0  0  0  0  0  0
   -6.8328   13.1474  -35.5054 H   0  0  0  0  0  0  0  0  0  0  0  0
   -5.4836   13.7606  -33.4717 H   0  0  0  0  0  0  0  0  0  0  0  0
   -5.0730   14.4069  -35.1010 H   0  0  0  0  0  0  0  0  0  0  0  0
   -4.5473   15.5648  -32.5058 H   0  0  0  0  0  0  0  0  0  0  0  0
   -4.1187   16.1850  -34.1702 H   0  0  0  0  0  0  0  0  0  0  0  0
   -6.8200   16.6980  -33.5980 H   0  0  0  0  0  0  0  0  0  0  0  0
   -4.8451   17.7775  -31.6432 H   0  0  0  0  0  0  0  0  0  0  0  0
   -6.2351   16.6721  -31.2873 H   0  0  0  0  0  0  0  0  0  0  0  0
   -6.7427   19.0493  -30.7205 H   0  0  0  0  0  0  0  0  0  0  0  0
   -7.8229   18.3806  -32.0132 H   0  0  0  0  0  0  0  0  0  0  0  0
   -7.1655   20.6398  -32.5775 H   0  0  0  0  0  0  0  0  0  0  0  0
   -5.6275   21.1736  -30.3356 H   0  0  0  0  0  0  0  0  0  0  0  0
   -1.8740   19.9115  -27.9304 H   0  0  0  0  0  0  0  0  0  0  0  0
   -2.8102   19.8422  -29.4619 H   0  0  0  0  0  0  0  0  0  0  0  0
   -1.1350   20.4905  -29.4619 H   0  0  0  0  0  0  0  0  0  0  0  0
   -1.7792   21.8623  -26.6161 H   0  0  0  0  0  0  0  0  0  0  0  0
   -2.6315   24.1464  -26.1258 H   0  0  0  0  0  0  0  0  0  0  0  0
   -3.9588   25.3831  -27.8276 H   0  0  0  0  0  0  0  0  0  0  0  0
   -5.0191   23.9032  -31.1060 H   0  0  0  0  0  0  0  0  0  0  0  0
   -5.5774   24.9924  -29.7841 H   0  0  0  0  0  0  0  0  0  0  0  0
   -4.2570   25.7610  -31.7560 H   0  0  0  0  0  0  0  0  0  0  0  0
   -1.7329   22.4318  -31.7559 H   0  0  0  0  0  0  0  0  0  0  0  0
   -2.2321   21.3708  -33.9613 H   0  0  0  0  0  0  0  0  0  0  0  0
   -6.0352   20.0910  -34.8250 H   0  0  0  0  0  0  0  0  0  0  0  0
   -7.4028   18.9838  -34.4127 H   0  0  0  0  0  0  0  0  0  0  0  0
   -4.4237   18.4065  -34.0026 H   0  0  0  0  0  0  0  0  0  0  0  0
   -5.4985   17.7071  -35.2829 H   0  0  0  0  0  0  0  0  0  0  0  0
  1  2  1  0
  2  3  1  0
  3  4  1  0
  4  5  1  0
  5  6  1  0
  6  7  1  0
  7  8  1  0
  8  9  1  0
  9 10  2  0
 10 11  1  0
 11 12  1  0
 12 13  2  0
 13 14  1  0
 13 15  1  0
 15 16  2  0
 16 17  1  0
 17 18  2  0
 18 19  1  0
 19 20  1  0
 11 21  2  0
 21 22  1  0
 22 23  2  0
  8 24  1  0
 24 25  1  0
 25  5  1  0
 23  9  1  0
 18 12  1  0
  1 26  1  0
  1 27  1  0
  1 28  1  0
  3 29  1  0
  3 30  1  0
  4 31  1  0
  4 32  1  0
  5 33  1  6
  6 34  1  0
  6 35  1  0
  7 36  1  0
  7 37  1  0
  8 38  1  6
 10 39  1  0
 14 40  1  0
 14 41  1  0
 14 42  1  0
 15 43  1  0
 16 44  1  0
 17 45  1  0
 19 46  1  0
 19 47  1  0
 20 48  1  0
 21 49  1  0
 22 50  1  0
 24 51  1  0
 24 52  1  0
 25 53  1  0
 25 54  1  0
M  CHG  1   5   1
M  END
>  <UniqueID>  (45) 
42

>  <SMILES>  (45) 
COCC[NH+]1CCC(c2cc(-c3c(C)cccc3CO)ccn2)CC1

>  <Energy>  (45) 
67.14936489531988

>  <Genealogy>  (45) 
COCC[NH+]1CCC(c2cc(-c3c(C)cccc3CO)ccn2)CC1 (protonated)
COCC[NH+]1CCC(c2cc(-c3c(C)cccc3CO)ccn2)CC1 (3D coordinates assigned)
COCC[NH+]1CCC(c2cc(-c3c(C)cccc3CO)ccn2)CC1 (nonaromatic ring conformer: 67.14936489531988 kcal/mol)

>  <smiles>  (45) 
COCCN1CCC(c2cc(-c3c(C)cccc3CO)ccn2)CC1

>  <score_type>  (45) 
oracle

>  <origin>  (45) 
adg

>  <m_score__min__energy>  (45) 
-7.8300000000000001

>  <m_primary>  (45) 
energy

$$$$
45:0
     RDKit          3D

 32 34  0  0  0  0  0  0  0  0999 V2000
   -5.7540   25.3420  -30.6970 C   0  0  0  0  0  0  0  0  0  0  0  0
   -5.0290   24.3040  -29.8480 C   0  0  0  0  0  0  0  0  0  0  0  0
   -4.6660   23.1340  -30.6640 N   0  0  0  0  0  0  0  0  0  0  0  0
   -3.3850   23.0120  -31.1370 C   0  0  0  0  0  0  0  0  0  0  0  0
   -3.0130   21.9230  -31.9390 C   0  0  0  0  0  0  0  0  0  0  0  0
   -3.9710   20.9630  -32.2700 C   0  0  0  0  0  0  0  0  0  0  0  0
   -3.6430   19.9520  -32.9430 O   0  0  0  0  0  0  0  0  0  0  0  0
   -5.2410   21.1330  -31.8100 N   0  0  0  0  0  0  0  0  0  0  0  0
   -5.5820   22.1770  -31.0080 C   0  0  0  0  0  0  0  0  0  0  0  0
   -6.9530   22.1770  -30.7150 C   0  0  0  0  0  0  0  0  0  0  0  0
   -7.4070   21.0450  -31.3590 C   0  0  0  0  0  0  0  0  0  0  0  0
   -8.5530   20.7360  -32.0570 C   0  0  0  0  0  0  0  0  0  0  0  0
   -9.8620   21.4480  -31.9660 C   0  0  0  0  0  0  0  0  0  0  0  0
   -8.1770   19.9710  -33.1110 N   0  0  0  0  0  0  0  0  0  0  0  0
   -6.8540   19.8060  -33.0950 N   0  0  0  0  0  0  0  0  0  0  0  0
   -6.1030   19.2570  -34.2180 C   0  0  0  0  0  0  0  0  0  0  0  0
   -6.3850   20.4400  -31.9940 C   0  0  0  0  0  0  0  0  0  0  0  0
   -6.2591   26.0652  -30.0398 H   0  0  0  0  0  0  0  0  0  0  0  0
   -5.0267   25.8692  -31.3319 H   0  0  0  0  0  0  0  0  0  0  0  0
   -6.4993   24.8406  -31.3319 H   0  0  0  0  0  0  0  0  0  0  0  0
   -4.1152   24.7519  -29.4305 H   0  0  0  0  0  0  0  0  0  0  0  0
   -5.6964   23.9788  -29.0364 H   0  0  0  0  0  0  0  0  0  0  0  0
   -2.6383   23.7791  -30.8840 H   0  0  0  0  0  0  0  0  0  0  0  0
   -1.9793   21.8266  -32.3026 H   0  0  0  0  0  0  0  0  0  0  0  0
   -7.5259   22.9018  -30.1181 H   0  0  0  0  0  0  0  0  0  0  0  0
  -10.1280   21.5927  -30.9085 H   0  0  0  0  0  0  0  0  0  0  0  0
   -9.7821   22.4270  -32.4612 H   0  0  0  0  0  0  0  0  0  0  0  0
  -10.6404   20.8490  -32.4612 H   0  0  0  0  0  0  0  0  0  0  0  0
   -8.7980   19.6800  -33.9000 H   0  0  0  0  0  0  0  0  0  0  0  0
   -5.2694   18.6476  -33.8388 H   0  0  0  0  0  0  0  0  0  0  0  0
   -6.7666   18.6296  -34.8312 H   0  0  0  0  0  0  0  0  0  0  0  0
   -5.7065   20.0797  -34.8312 H   0  0  0  0  0  0  0  0  0  0  0  0
  1  2  1  0
  2  3  1  0
  3  4  1  0
  4  5  2  0
  5  6  1  0
  6  7  2  0
  6  8  1  0
  8  9  1  0
  9 10  2  0
 10 11  1  0
 11 12  1  0
 12 13  1  0
 12 14  2  0
 14 15  1  0
 15 16  1  0
 15 17  1  0
  9  3  1  0
 17 11  2  0
 17  8  1  0
  1 18  1  0
  1 19  1  0
  1 20  1  0
  2 21  1  0
  2 22  1  0
  4 23  1  0
  5 24  1  0
 10 25  1  0
 13 26  1  0
 13 27  1  0
 13 28  1  0
 14 29  1  0
 16 30  1  0
 16 31  1  0
 16 32  1  0
M  CHG  1  14   1
M  END
>  <UniqueID>  (46) 
43

>  <SMILES>  (46) 
CCn1ccc(=O)n2c1cc1c(C)[nH+]n(C)c12

>  <Energy>  (46) 
130.447722451849

>  <Genealogy>  (46) 
CCn1ccc(=O)n2c1cc1c(C)[nH+]n(C)c12 (protonated)
CCn1ccc(=O)n2c1cc1c(C)[nH+]n(C)c12 (3D coordinates assigned)
CCn1ccc(=O)n2c1cc1c(C)[nH+]n(C)c12 (optimized conformer: 130.447722451849 kcal/mol)

>  <smiles>  (46) 
CCn1ccc(=O)n2c1cc1c(C)nn(C)c12

>  <score_type>  (46) 
oracle

>  <origin>  (46) 
adg

>  <m_score__min__energy>  (46) 
-5.8399999999999999

>  <m_primary>  (46) 
energy

$$$$
46:0
     RDKit          3D

 16 17  0  0  0  0  0  0  0  0999 V2000
   -8.0030   18.4060  -32.3140 C   0  0  0  0  0  0  0  0  0  0  0  0
   -6.8830   18.7100  -33.1110 C   0  0  0  0  0  0  0  0  0  0  0  0
   -6.5010   20.0500  -33.2870 C   0  0  0  0  0  0  0  0  0  0  0  0
   -7.2390   21.0110  -32.6720 N   0  0  0  0  0  0  0  0  0  0  0  0
   -7.0400   22.3150  -32.7160 N   0  0  0  0  0  0  0  0  0  0  0  0
   -8.0000   22.9040  -31.9680 C   0  0  0  0  0  0  0  0  0  0  0  0
   -8.8350   21.9270  -31.4320 C   0  0  0  0  0  0  0  0  0  0  0  0
   -8.3090   20.7430  -31.9090 C   0  0  0  0  0  0  0  0  0  0  0  0
   -8.7370   19.4340  -31.6980 C   0  0  0  0  0  0  0  0  0  0  0  0
   -8.3053   17.3578  -32.1726 H   0  0  0  0  0  0  0  0  0  0  0  0
   -6.3109   17.9034  -33.5927 H   0  0  0  0  0  0  0  0  0  0  0  0
   -5.6299   20.3138  -33.9046 H   0  0  0  0  0  0  0  0  0  0  0  0
   -6.2750   22.7950  -33.2400 H   0  0  0  0  0  0  0  0  0  0  0  0
   -8.1051   23.9872  -31.8077 H   0  0  0  0  0  0  0  0  0  0  0  0
   -9.7101   22.0662  -30.7802 H   0  0  0  0  0  0  0  0  0  0  0  0
   -9.6153   19.2137  -31.0735 H   0  0  0  0  0  0  0  0  0  0  0  0
  1  2  1  0
  2  3  2  0
  3  4  1  0
  4  5  1  0
  5  6  2  0
  6  7  1  0
  7  8  2  0
  8  9  1  0
  9  1  2  0
  8  4  1  0
  1 10  1  0
  2 11  1  0
  3 12  1  0
  5 13  1  0
  6 14  1  0
  7 15  1  0
  9 16  1  0
M  CHG  1   5   1
M  END
>  <UniqueID>  (47) 
44

>  <SMILES>  (47) 
c1ccn2[nH+]ccc2c1

>  <Energy>  (47) 
52.23694300604293

>  <Genealogy>  (47) 
c1ccn2[nH+]ccc2c1 (protonated)
c1ccn2[nH+]ccc2c1 (3D coordinates assigned)
c1ccn2[nH+]ccc2c1 (optimized conformer: 52.23694300604293 kcal/mol)

>  <smiles>  (47) 
c1ccn2nccc2c1

>  <score_type>  (47) 
oracle

>  <origin>  (47) 
adg

>  <m_score__min__energy>  (47) 
-4.3700000000000001

>  <m_primary>  (47) 
energy

$$$$
47:0
     RDKit          3D

 32 34  0  0  0  0  0  0  0  0999 V2000
   -3.8810   24.1340  -27.2900 C   0  0  0  0  0  0  0  0  0  0  0  0
   -3.4590   22.9280  -28.0880 C   0  0  0  0  0  0  0  0  0  0  0  0
   -2.7070   21.9130  -27.4710 C   0  0  0  0  0  0  0  0  0  0  0  0
   -2.3250   20.7770  -28.1900 C   0  0  0  0  0  0  0  0  0  0  0  0
   -2.6950   20.6400  -29.5290 C   0  0  0  0  0  0  0  0  0  0  0  0
   -3.4370   21.6410  -30.1570 C   0  0  0  0  0  0  0  0  0  0  0  0
   -3.8110   22.7940  -29.4510 C   0  0  0  0  0  0  0  0  0  0  0  0
   -4.5510   23.8500  -30.1610 C   0  0  0  0  0  0  0  0  0  0  0  0
   -3.9770   24.9260  -30.7280 N   0  0  0  0  0  0  0  0  0  0  0  0
   -4.9880   25.6360  -31.2130 N   0  0  0  0  0  0  0  0  0  0  0  0
   -6.1380   25.0320  -30.9500 N   0  0  0  0  0  0  0  0  0  0  0  0
   -5.8880   23.9150  -30.2910 N   0  0  0  0  0  0  0  0  0  0  0  0
   -6.9080   22.9910  -29.7970 C   0  0  0  0  0  0  0  0  0  0  0  0
   -7.2730   21.9920  -30.8560 C   0  0  0  0  0  0  0  0  0  0  0  0
   -8.5910   21.5280  -30.9750 C   0  0  0  0  0  0  0  0  0  0  0  0
   -8.8910   20.5670  -31.9430 C   0  0  0  0  0  0  0  0  0  0  0  0
   -7.8820   20.0820  -32.7780 C   0  0  0  0  0  0  0  0  0  0  0  0
   -6.5820   20.5700  -32.6330 C   0  0  0  0  0  0  0  0  0  0  0  0
   -6.3080   21.5040  -31.6840 N   0  0  0  0  0  0  0  0  0  0  0  0
   -3.8023   23.9090  -26.2161 H   0  0  0  0  0  0  0  0  0  0  0  0
   -3.2267   24.9835  -27.5356 H   0  0  0  0  0  0  0  0  0  0  0  0
   -4.9222   24.3902  -27.5356 H   0  0  0  0  0  0  0  0  0  0  0  0
   -2.4171   22.0136  -26.4147 H   0  0  0  0  0  0  0  0  0  0  0  0
   -1.7323   19.9903  -27.7004 H   0  0  0  0  0  0  0  0  0  0  0  0
   -2.4009   19.7409  -30.0903 H   0  0  0  0  0  0  0  0  0  0  0  0
   -3.7301   21.5254  -31.2109 H   0  0  0  0  0  0  0  0  0  0  0  0
   -6.5179   22.4587  -28.9169 H   0  0  0  0  0  0  0  0  0  0  0  0
   -7.8062   23.5657  -29.5268 H   0  0  0  0  0  0  0  0  0  0  0  0
   -9.3794   21.9164  -30.3136 H   0  0  0  0  0  0  0  0  0  0  0  0
   -9.9201   20.1928  -32.0476 H   0  0  0  0  0  0  0  0  0  0  0  0
   -8.1091   19.3236  -33.5417 H   0  0  0  0  0  0  0  0  0  0  0  0
   -5.7792   20.1986  -33.2869 H   0  0  0  0  0  0  0  0  0  0  0  0
  1  2  1  0
  2  3  2  0
  3  4  1  0
  4  5  2  0
  5  6  1  0
  6  7  2  0
  7  8  1  0
  8  9  2  0
  9 10  1  0
 10 11  2  0
 11 12  1  0
 12 13  1  0
 13 14  1  0
 14 15  2  0
 15 16  1  0
 16 17  2  0
 17 18  1  0
 18 19  2  0
  7  2  1  0
 12  8  1  0
 19 14  1  0
  1 20  1  0
  1 21  1  0
  1 22  1  0
  3 23  1  0
  4 24  1  0
  5 25  1  0
  6 26  1  0
 13 27  1  0
 13 28  1  0
 15 29  1  0
 16 30  1  0
 17 31  1  0
 18 32  1  0
M  END
>  <UniqueID>  (48) 
45

>  <SMILES>  (48) 
Cc1ccccc1-c1nnnn1Cc1ccccn1

>  <Energy>  (48) 
79.9895720521619

>  <Genealogy>  (48) 
Cc1ccccc1-c1nnnn1Cc1ccccn1 (3D coordinates assigned)
Cc1ccccc1-c1nnnn1Cc1ccccn1 (optimized conformer: 79.9895720521619 kcal/mol)

>  <smiles>  (48) 
Cc1ccccc1-c1nnnn1Cc1ccccn1

>  <score_type>  (48) 
oracle

>  <origin>  (48) 
adg

>  <m_score__min__energy>  (48) 
-7.9900000000000002

>  <m_primary>  (48) 
energy

$$$$
