0:0
     RDKit          3D

 59 63  0  0  0  0  0  0  0  0999 V2000
   -6.1100   26.0120  -29.7630 C   0  0  0  0  0  0  0  0  0  0  0  0
   -4.8540   25.6030  -30.5460 C   0  0  0  0  0  0  0  0  0  0  0  0
   -4.7580   24.1490  -30.8380 N   0  0  0  0  0  0  0  0  0  0  0  0
   -3.4190   23.6010  -30.5200 C   0  0  0  0  0  0  0  0  0  0  0  0
   -3.5440   22.1350  -30.1200 C   0  0  0  0  0  0  0  0  0  0  0  0
   -5.8490   23.3210  -30.2720 C   0  0  0  0  0  0  0  0  0  0  0  0
   -6.9160   22.9740  -31.3260 C   0  0  0  0  0  0  0  0  0  0  0  0
   -6.3320   22.6200  -32.6360 N   0  0  0  0  0  0  0  0  0  0  0  0
   -6.1340   21.1880  -32.7880 C   0  0  0  0  0  0  0  0  0  0  0  0
   -4.8760   20.7040  -33.1700 C   0  0  0  0  0  0  0  0  0  0  0  0
   -4.6480   19.3470  -33.3100 C   0  0  0  0  0  0  0  0  0  0  0  0
   -5.6280   18.4100  -33.1490 N   0  0  0  0  0  0  0  0  0  0  0  0
   -5.3530   17.0010  -33.4840 C   0  0  0  0  0  0  0  0  0  0  0  0
   -6.8710   18.8230  -32.7020 C   0  0  0  0  0  0  0  0  0  0  0  0
   -7.8810   17.8820  -32.3860 C   0  0  0  0  0  0  0  0  0  0  0  0
   -9.1460   18.2950  -31.9770 C   0  0  0  0  0  0  0  0  0  0  0  0
   -9.4400   19.6460  -31.8680 C   0  0  0  0  0  0  0  0  0  0  0  0
   -8.4650   20.6030  -32.1430 C   0  0  0  0  0  0  0  0  0  0  0  0
   -7.1610   20.2240  -32.5430 C   0  0  0  0  0  0  0  0  0  0  0  0
   -3.2550   19.1700  -33.6880 C   0  0  0  0  0  0  0  0  0  0  0  0
   -2.3730   18.2310  -33.2720 N   0  0  0  0  0  0  0  0  0  0  0  0
   -1.1990   18.8900  -33.1740 C   0  0  0  0  0  0  0  0  0  0  0  0
   -0.0020   18.3950  -32.6550 C   0  0  0  0  0  0  0  0  0  0  0  0
    1.0550   19.3010  -32.4550 C   0  0  0  0  0  0  0  0  0  0  0  0
    0.8850   20.6760  -32.7330 C   0  0  0  0  0  0  0  0  0  0  0  0
   -0.3430   21.1580  -33.2230 C   0  0  0  0  0  0  0  0  0  0  0  0
   -1.3520   20.2300  -33.4660 C   0  0  0  0  0  0  0  0  0  0  0  0
   -2.6740   20.4010  -33.8070 C   0  0  0  0  0  0  0  0  0  0  0  0
   -3.6290   21.5060  -33.4920 C   0  0  0  0  0  0  0  0  0  0  0  0
   -5.9071   25.9459  -28.6839 H   0  0  0  0  0  0  0  0  0  0  0  0
   -6.3832   27.0455  -30.0221 H   0  0  0  0  0  0  0  0  0  0  0  0
   -6.9394   25.3375  -30.0221 H   0  0  0  0  0  0  0  0  0  0  0  0
   -4.8527   26.1466  -31.5023 H   0  0  0  0  0  0  0  0  0  0  0  0
   -3.9924   25.8525  -29.9092 H   0  0  0  0  0  0  0  0  0  0  0  0
   -2.7705   23.6844  -31.4046 H   0  0  0  0  0  0  0  0  0  0  0  0
   -2.9820   24.1696  -29.6859 H   0  0  0  0  0  0  0  0  0  0  0  0
   -3.5509   22.0535  -29.0230 H   0  0  0  0  0  0  0  0  0  0  0  0
   -4.4805   21.7232  -30.5242 H   0  0  0  0  0  0  0  0  0  0  0  0
   -2.6907   21.5706  -30.5242 H   0  0  0  0  0  0  0  0  0  0  0  0
   -5.4195   22.3870  -29.8807 H   0  0  0  0  0  0  0  0  0  0  0  0
   -6.3359   23.9003  -29.4737 H   0  0  0  0  0  0  0  0  0  0  0  0
   -7.5055   22.1198  -30.9615 H   0  0  0  0  0  0  0  0  0  0  0  0
   -7.5405   23.8677  -31.4721 H   0  0  0  0  0  0  0  0  0  0  0  0
   -6.8860   23.0370  -33.4140 H   0  0  0  0  0  0  0  0  0  0  0  0
   -5.4010   23.0920  -32.7050 H   0  0  0  0  0  0  0  0  0  0  0  0
   -5.2395   16.4192  -32.5574 H   0  0  0  0  0  0  0  0  0  0  0  0
   -6.1887   16.5941  -34.0723 H   0  0  0  0  0  0  0  0  0  0  0  0
   -4.4257   16.9382  -34.0723 H   0  0  0  0  0  0  0  0  0  0  0  0
   -7.6624   16.8068  -32.4650 H   0  0  0  0  0  0  0  0  0  0  0  0
   -9.9160   17.5463  -31.7392 H   0  0  0  0  0  0  0  0  0  0  0  0
  -10.4479   19.9638  -31.5629 H   0  0  0  0  0  0  0  0  0  0  0  0
   -8.7127   21.6705  -32.0477 H   0  0  0  0  0  0  0  0  0  0  0  0
   -2.5780   17.2780  -32.9010 H   0  0  0  0  0  0  0  0  0  0  0  0
    0.1114   17.3287  -32.4098 H   0  0  0  0  0  0  0  0  0  0  0  0
    2.0222   18.9362  -32.0790 H   0  0  0  0  0  0  0  0  0  0  0  0
    1.7182   21.3743  -32.5653 H   0  0  0  0  0  0  0  0  0  0  0  0
   -0.5002   22.2309  -33.4076 H   0  0  0  0  0  0  0  0  0  0  0  0
   -3.2934   22.1002  -32.6293 H   0  0  0  0  0  0  0  0  0  0  0  0
   -3.7539   22.2488  -34.2937 H   0  0  0  0  0  0  0  0  0  0  0  0
  1  2  1  0
  2  3  1  0
  3  4  1  0
  4  5  1  0
  3  6  1  0
  6  7  1  0
  7  8  1  0
  8  9  1  0
  9 10  2  0
 10 11  1  0
 11 12  2  0
 12 13  1  0
 12 14  1  0
 14 15  2  0
 15 16  1  0
 16 17  2  0
 17 18  1  0
 18 19  2  0
 11 20  1  0
 20 21  1  0
 21 22  1  0
 22 23  2  0
 23 24  1  0
 24 25  2  0
 25 26  1  0
 26 27  2  0
 27 28  1  0
 28 29  1  0
 19  9  1  0
 28 20  2  0
 29 10  1  0
 19 14  1  0
 27 22  1  0
  1 30  1  0
  1 31  1  0
  1 32  1  0
  2 33  1  0
  2 34  1  0
  4 35  1  0
  4 36  1  0
  5 37  1  0
  5 38  1  0
  5 39  1  0
  6 40  1  0
  6 41  1  0
  7 42  1  0
  7 43  1  0
  8 44  1  0
  8 45  1  0
 13 46  1  0
 13 47  1  0
 13 48  1  0
 15 49  1  0
 16 50  1  0
 17 51  1  0
 18 52  1  0
 21 53  1  0
 23 54  1  0
 24 55  1  0
 25 56  1  0
 26 57  1  0
 29 58  1  0
 29 59  1  0
M  CHG  2   8   1  12   1
M  END
>  <UniqueID>  (1) 
1

>  <SMILES>  (1) 
CCN(CC)CC[NH2+]c1c2c([n+](C)c3ccccc13)-c1[nH]c3ccccc3c1C2

>  <Energy>  (1) 
154.45668380650787

>  <Genealogy>  (1) 
CCN(CC)CC[NH2+]c1c2c([n+](C)c3ccccc13)-c1[nH]c3ccccc3c1C2 (protonated)
CCN(CC)CC[NH2+]c1c2c([n+](C)c3ccccc13)-c1[nH]c3ccccc3c1C2 (3D coordinates assigned)
CCN(CC)CC[NH2+]c1c2c([n+](C)c3ccccc13)-c1[nH]c3ccccc3c1C2 (nonaromatic ring conformer: 154.45668380650787 kcal/mol)

>  <smiles>  (1) 
CCN(CC)CCNc1c2c([n+](C)c3ccccc13)-c1[nH]c3ccccc3c1C2

>  <score_type>  (1) 
oracle

>  <origin>  (1) 
adg

>  <m_score__min__energy>  (1) 
-8.7200000000000006

>  <m_primary>  (1) 
energy

$$$$
1:0
     RDKit          3D

 48 50  0  0  0  0  0  0  0  0999 V2000
   -5.4800   19.1140  -33.7920 C   0  0  0  0  0  0  0  0  0  0  0  0
   -5.7540   20.3530  -33.1450 O   0  0  0  0  0  0  0  0  0  0  0  0
   -6.9730   20.6780  -32.5280 C   0  0  0  0  0  0  0  0  0  0  0  0
   -7.8750   19.6820  -32.1030 C   0  0  0  0  0  0  0  0  0  0  0  0
   -9.0840   20.0310  -31.4980 C   0  0  0  0  0  0  0  0  0  0  0  0
   -9.4110   21.3730  -31.3110 C   0  0  0  0  0  0  0  0  0  0  0  0
   -8.5290   22.3720  -31.7230 C   0  0  0  0  0  0  0  0  0  0  0  0
   -7.3040   22.0400  -32.3310 C   0  0  0  0  0  0  0  0  0  0  0  0
   -6.3890   23.0940  -32.7150 N   0  0  0  0  0  0  0  0  0  0  0  0
   -6.4000   24.2010  -31.7450 C   0  0  0  0  0  0  0  0  0  0  0  0
   -5.4310   23.9740  -30.6160 C   0  0  0  0  0  0  0  0  0  0  0  0
   -4.4490   23.0520  -30.6590 N   0  0  0  0  0  0  0  0  0  0  0  0
   -3.7930   23.1270  -29.5100 N   0  0  0  0  0  0  0  0  0  0  0  0
   -4.3820   24.0970  -28.7880 C   0  0  0  0  0  0  0  0  0  0  0  0
   -3.8720   24.5430  -27.1290 S   0  0  0  0  0  0  0  0  0  0  0  0
   -2.1030   24.2320  -27.4620 C   0  0  0  0  0  0  0  0  0  0  0  0
   -1.3340   25.5460  -27.6050 C   0  0  0  0  0  0  0  0  0  0  0  0
   -1.0240   26.1470  -26.2580 C   0  0  0  0  0  0  0  0  0  0  0  0
   -0.9440   25.3340  -25.1140 C   0  0  0  0  0  0  0  0  0  0  0  0
   -0.7020   25.9040  -23.8600 C   0  0  0  0  0  0  0  0  0  0  0  0
   -0.5410   27.2870  -23.7380 C   0  0  0  0  0  0  0  0  0  0  0  0
   -0.6250   28.1030  -24.8700 C   0  0  0  0  0  0  0  0  0  0  0  0
   -0.8670   27.5380  -26.1250 C   0  0  0  0  0  0  0  0  0  0  0  0
   -5.4010   24.6690  -29.4590 N   0  0  0  0  0  0  0  0  0  0  0  0
   -6.3360   25.6840  -28.9790 C   0  0  0  0  0  0  0  0  0  0  0  0
   -5.3077   18.3351  -33.0346 H   0  0  0  0  0  0  0  0  0  0  0  0
   -6.3373   18.8311  -34.4205 H   0  0  0  0  0  0  0  0  0  0  0  0
   -4.5834   19.2190  -34.4205 H   0  0  0  0  0  0  0  0  0  0  0  0
   -7.6245   18.6209  -32.2491 H   0  0  0  0  0  0  0  0  0  0  0  0
   -9.7798   19.2454  -31.1683 H   0  0  0  0  0  0  0  0  0  0  0  0
  -10.3661   21.6447  -30.8378 H   0  0  0  0  0  0  0  0  0  0  0  0
   -8.7934   23.4289  -31.5713 H   0  0  0  0  0  0  0  0  0  0  0  0
   -5.4140   22.7310  -32.8290 H   0  0  0  0  0  0  0  0  0  0  0  0
   -6.6790   23.4680  -33.6480 H   0  0  0  0  0  0  0  0  0  0  0  0
   -6.1271   25.1311  -32.2651 H   0  0  0  0  0  0  0  0  0  0  0  0
   -7.4109   24.2655  -31.3160 H   0  0  0  0  0  0  0  0  0  0  0  0
   -1.6762   23.6540  -26.6291 H   0  0  0  0  0  0  0  0  0  0  0  0
   -2.0167   23.6707  -28.4040 H   0  0  0  0  0  0  0  0  0  0  0  0
   -0.3909   25.3534  -28.1373 H   0  0  0  0  0  0  0  0  0  0  0  0
   -1.9593   26.2555  -28.1668 H   0  0  0  0  0  0  0  0  0  0  0  0
   -1.0722   24.2453  -25.2055 H   0  0  0  0  0  0  0  0  0  0  0  0
   -0.6383   25.2629  -22.9684 H   0  0  0  0  0  0  0  0  0  0  0  0
   -0.3482   27.7334  -22.7513 H   0  0  0  0  0  0  0  0  0  0  0  0
   -0.5004   29.1916  -24.7727 H   0  0  0  0  0  0  0  0  0  0  0  0
   -0.9350   28.1842  -27.0126 H   0  0  0  0  0  0  0  0  0  0  0  0
   -6.3398   25.6881  -27.8790 H   0  0  0  0  0  0  0  0  0  0  0  0
   -6.0255   26.6725  -29.3483 H   0  0  0  0  0  0  0  0  0  0  0  0
   -7.3466   25.4555  -29.3483 H   0  0  0  0  0  0  0  0  0  0  0  0
  1  2  1  0
  2  3  1  0
  3  4  2  0
  4  5  1  0
  5  6  2  0
  6  7  1  0
  7  8  2  0
  8  9  1  0
  9 10  1  0
 10 11  1  0
 11 12  2  0
 12 13  1  0
 13 14  2  0
 14 15  1  0
 15 16  1  0
 16 17  1  0
 17 18  1  0
 18 19  2  0
 19 20  1  0
 20 21  2  0
 21 22  1  0
 22 23  2  0
 14 24  1  0
 24 25  1  0
  8  3  1  0
 24 11  1  0
 23 18  1  0
  1 26  1  0
  1 27  1  0
  1 28  1  0
  4 29  1  0
  5 30  1  0
  6 31  1  0
  7 32  1  0
  9 33  1  0
  9 34  1  0
 10 35  1  0
 10 36  1  0
 16 37  1  0
 16 38  1  0
 17 39  1  0
 17 40  1  0
 19 41  1  0
 20 42  1  0
 21 43  1  0
 22 44  1  0
 23 45  1  0
 25 46  1  0
 25 47  1  0
 25 48  1  0
M  CHG  1   9   1
M  END
>  <UniqueID>  (2) 
2

>  <SMILES>  (2) 
COc1ccccc1[NH2+]Cc1nnc(SCCc2ccccc2)n1C

>  <Energy>  (2) 
75.8345815027381

>  <Genealogy>  (2) 
COc1ccccc1[NH2+]Cc1nnc(SCCc2ccccc2)n1C (protonated)
COc1ccccc1[NH2+]Cc1nnc(SCCc2ccccc2)n1C (3D coordinates assigned)
COc1ccccc1[NH2+]Cc1nnc(SCCc2ccccc2)n1C (optimized conformer: 75.8345815027381 kcal/mol)

>  <smiles>  (2) 
COc1ccccc1NCc1nnc(SCCc2ccccc2)n1C

>  <score_type>  (2) 
oracle

>  <origin>  (2) 
adg

>  <m_score__min__energy>  (2) 
-7.96

>  <m_primary>  (2) 
energy

$$$$
2:0
     RDKit          3D

 55 57  0  0  0  0  0  0  0  0999 V2000
   -2.9960   21.8310  -29.4380 C   0  0  0  0  0  0  0  0  0  0  0  0
   -2.3340   23.0640  -30.0410 C   0  0  0  0  0  0  0  0  0  0  0  0
   -2.7990   24.2790  -29.3230 N   0  0  0  0  0  0  0  0  0  0  0  0
   -1.7100   24.9040  -28.5360 C   0  0  0  0  0  0  0  0  0  0  0  0
   -2.0630   24.9480  -27.0500 C   0  0  0  0  0  0  0  0  0  0  0  0
   -3.9680   23.9940  -28.4590 C   0  0  0  0  0  0  0  0  0  0  0  0
   -5.2800   24.3410  -29.1800 C   0  0  0  0  0  0  0  0  0  0  0  0
   -5.0530   25.3170  -30.3410 C   0  0  0  0  0  0  0  0  0  0  0  0
   -5.4250   24.7340  -31.5910 O   0  0  0  0  0  0  0  0  0  0  0  0
   -6.1230   23.5260  -31.7490 C   0  0  0  0  0  0  0  0  0  0  0  0
   -7.4920   23.3770  -31.4450 C   0  0  0  0  0  0  0  0  0  0  0  0
   -8.1040   22.1170  -31.6270 C   0  0  0  0  0  0  0  0  0  0  0  0
   -9.5430   21.9260  -31.2540 C   0  0  0  0  0  0  0  0  0  0  0  0
   -7.3670   21.0560  -32.0790 N   0  0  0  0  0  0  0  0  0  0  0  0
   -6.0580   21.2480  -32.3860 C   0  0  0  0  0  0  0  0  0  0  0  0
   -5.1280   20.3300  -32.8330 C   0  0  0  0  0  0  0  0  0  0  0  0
   -5.3330   18.9050  -33.1640 C   0  0  0  0  0  0  0  0  0  0  0  0
   -5.0090   18.4170  -34.4400 C   0  0  0  0  0  0  0  0  0  0  0  0
   -5.2070   17.0680  -34.7510 C   0  0  0  0  0  0  0  0  0  0  0  0
   -5.7310   16.1970  -33.7920 C   0  0  0  0  0  0  0  0  0  0  0  0
   -5.9790   14.5050  -34.1840 Cl  0  0  0  0  0  0  0  0  0  0  0  0
   -6.0580   16.6760  -32.5200 C   0  0  0  0  0  0  0  0  0  0  0  0
   -5.8610   18.0240  -32.2060 C   0  0  0  0  0  0  0  0  0  0  0  0
   -3.9520   21.0820  -32.9170 C   0  0  0  0  0  0  0  0  0  0  0  0
   -2.6080   20.5940  -33.3500 C   0  0  0  0  0  0  0  0  0  0  0  0
   -4.1830   22.3590  -32.5270 N   0  0  0  0  0  0  0  0  0  0  0  0
   -5.4660   22.4360  -32.2150 N   0  0  0  0  0  0  0  0  0  0  0  0
   -2.9612   21.8959  -28.3405 H   0  0  0  0  0  0  0  0  0  0  0  0
   -4.0437   21.7784  -29.7691 H   0  0  0  0  0  0  0  0  0  0  0  0
   -2.4610   20.9287  -29.7691 H   0  0  0  0  0  0  0  0  0  0  0  0
   -1.2416   22.9773  -29.9450 H   0  0  0  0  0  0  0  0  0  0  0  0
   -2.6044   23.1414  -31.1044 H   0  0  0  0  0  0  0  0  0  0  0  0
   -0.7883   24.3186  -28.6695 H   0  0  0  0  0  0  0  0  0  0  0  0
   -1.5674   25.9348  -28.8927 H   0  0  0  0  0  0  0  0  0  0  0  0
   -1.1469   24.8338  -26.4520 H   0  0  0  0  0  0  0  0  0  0  0  0
   -2.5370   25.9122  -26.8141 H   0  0  0  0  0  0  0  0  0  0  0  0
   -2.7592   24.1297  -26.8141 H   0  0  0  0  0  0  0  0  0  0  0  0
   -3.9717   22.9252  -28.1990 H   0  0  0  0  0  0  0  0  0  0  0  0
   -3.8924   24.6100  -27.5508 H   0  0  0  0  0  0  0  0  0  0  0  0
   -5.7244   23.4155  -29.5750 H   0  0  0  0  0  0  0  0  0  0  0  0
   -5.9506   24.8242  -28.4542 H   0  0  0  0  0  0  0  0  0  0  0  0
   -5.6579   26.2202  -30.1730 H   0  0  0  0  0  0  0  0  0  0  0  0
   -3.9824   25.5665  -30.3798 H   0  0  0  0  0  0  0  0  0  0  0  0
   -8.0757   24.2310  -31.0710 H   0  0  0  0  0  0  0  0  0  0  0  0
   -9.6392   21.9132  -30.1583 H   0  0  0  0  0  0  0  0  0  0  0  0
  -10.1411   22.7526  -31.6650 H   0  0  0  0  0  0  0  0  0  0  0  0
   -9.9048   20.9720  -31.6650 H   0  0  0  0  0  0  0  0  0  0  0  0
   -7.8030   20.1110  -32.1710 H   0  0  0  0  0  0  0  0  0  0  0  0
   -4.5975   19.0990  -35.1987 H   0  0  0  0  0  0  0  0  0  0  0  0
   -4.9498   16.6919  -35.7522 H   0  0  0  0  0  0  0  0  0  0  0  0
   -6.4710   15.9911  -31.7648 H   0  0  0  0  0  0  0  0  0  0  0  0
   -6.1207   18.3964  -31.2041 H   0  0  0  0  0  0  0  0  0  0  0  0
   -1.9956   20.3716  -32.4637 H   0  0  0  0  0  0  0  0  0  0  0  0
   -2.7259   19.6813  -33.9526 H   0  0  0  0  0  0  0  0  0  0  0  0
   -2.1129   21.3697  -33.9526 H   0  0  0  0  0  0  0  0  0  0  0  0
  1  2  1  0
  2  3  1  0
  3  4  1  0
  4  5  1  0
  3  6  1  0
  6  7  1  0
  7  8  1  0
  8  9  1  0
  9 10  1  0
 10 11  2  0
 11 12  1  0
 12 13  1  0
 12 14  2  0
 14 15  1  0
 15 16  2  0
 16 17  1  0
 17 18  2  0
 18 19  1  0
 19 20  2  0
 20 21  1  0
 20 22  1  0
 22 23  2  0
 16 24  1  0
 24 25  1  0
 24 26  2  0
 26 27  1  0
 27 10  1  0
 27 15  1  0
 23 17  1  0
  1 28  1  0
  1 29  1  0
  1 30  1  0
  2 31  1  0
  2 32  1  0
  4 33  1  0
  4 34  1  0
  5 35  1  0
  5 36  1  0
  5 37  1  0
  6 38  1  0
  6 39  1  0
  7 40  1  0
  7 41  1  0
  8 42  1  0
  8 43  1  0
 11 44  1  0
 13 45  1  0
 13 46  1  0
 13 47  1  0
 14 48  1  0
 18 49  1  0
 19 50  1  0
 22 51  1  0
 23 52  1  0
 25 53  1  0
 25 54  1  0
 25 55  1  0
M  CHG  1  14   1
M  END
>  <UniqueID>  (3) 
3

>  <SMILES>  (3) 
CCN(CC)CCCOc1cc(C)[nH+]c2c(-c3ccc(Cl)cc3)c(C)nn12

>  <Energy>  (3) 
92.31038434618834

>  <Genealogy>  (3) 
CCN(CC)CCCOc1cc(C)[nH+]c2c(-c3ccc(Cl)cc3)c(C)nn12 (protonated)
CCN(CC)CCCOc1cc(C)[nH+]c2c(-c3ccc(Cl)cc3)c(C)nn12 (3D coordinates assigned)
CCN(CC)CCCOc1cc(C)[nH+]c2c(-c3ccc(Cl)cc3)c(C)nn12 (optimized conformer: 92.31038434618834 kcal/mol)

>  <smiles>  (3) 
CCN(CC)CCCOc1cc(C)nc2c(-c3ccc(Cl)cc3)c(C)nn12

>  <score_type>  (3) 
oracle

>  <origin>  (3) 
adg

>  <m_score__min__energy>  (3) 
-8.1699999999999999

>  <m_primary>  (3) 
energy

$$$$
3:0
     RDKit          3D

 48 49  0  0  0  0  0  0  0  0999 V2000
   -7.1080   20.1420  -33.0790 C   0  0  0  0  0  0  0  0  0  0  0  0
   -8.4090   19.5160  -32.7860 N   0  0  0  0  0  0  0  0  0  0  0  0
   -8.1930   18.2640  -32.0380 C   0  0  0  0  0  0  0  0  0  0  0  0
   -9.2550   20.4790  -32.0370 C   0  0  0  0  0  0  0  0  0  0  0  0
   -8.6470   21.8930  -31.8920 C   0  0  0  0  0  0  0  0  0  0  0  0
   -7.9760   22.1790  -30.5370 C   0  0  0  0  0  0  0  0  0  0  0  0
   -6.5620   22.7730  -30.6850 C   0  0  0  0  0  0  0  0  0  0  0  0
   -6.5420   24.0480  -31.5480 C   0  0  0  0  0  0  0  0  0  0  0  0
   -5.9320   25.2780  -30.8460 C   0  0  0  0  0  0  0  0  0  0  0  0
   -4.9590   24.9110  -29.7160 C   0  0  0  0  0  0  0  0  0  0  0  0
   -3.6170   24.7820  -30.1840 O   0  0  0  0  0  0  0  0  0  0  0  0
   -2.9650   23.5750  -30.4800 C   0  0  0  0  0  0  0  0  0  0  0  0
   -1.8390   23.1190  -29.7670 C   0  0  0  0  0  0  0  0  0  0  0  0
   -1.2280   21.9090  -30.1070 C   0  0  0  0  0  0  0  0  0  0  0  0
   -1.7390   21.1300  -31.1480 C   0  0  0  0  0  0  0  0  0  0  0  0
   -1.1530   19.9770  -31.4590 O   0  0  0  0  0  0  0  0  0  0  0  0
   -1.5950   19.1900  -32.4350 C   0  0  0  0  0  0  0  0  0  0  0  0
   -2.7160   19.5520  -33.1850 C   0  0  0  0  0  0  0  0  0  0  0  0
   -3.3650   20.7540  -32.8990 C   0  0  0  0  0  0  0  0  0  0  0  0
   -4.3770   21.0920  -33.5710 O   0  0  0  0  0  0  0  0  0  0  0  0
   -2.8760   21.5690  -31.8640 C   0  0  0  0  0  0  0  0  0  0  0  0
   -3.4720   22.7970  -31.5290 C   0  0  0  0  0  0  0  0  0  0  0  0
   -6.5983   20.3872  -32.1355 H   0  0  0  0  0  0  0  0  0  0  0  0
   -6.4877   19.4438  -33.6601 H   0  0  0  0  0  0  0  0  0  0  0  0
   -7.2665   21.0624  -33.6601 H   0  0  0  0  0  0  0  0  0  0  0  0
   -8.8590   19.2900  -33.7030 H   0  0  0  0  0  0  0  0  0  0  0  0
   -8.2287   18.4711  -30.9583 H   0  0  0  0  0  0  0  0  0  0  0  0
   -8.9796   17.5407  -32.2988 H   0  0  0  0  0  0  0  0  0  0  0  0
   -7.2095   17.8461  -32.2988 H   0  0  0  0  0  0  0  0  0  0  0  0
  -10.2170   20.5714  -32.5624 H   0  0  0  0  0  0  0  0  0  0  0  0
   -9.3566   20.0775  -31.0179 H   0  0  0  0  0  0  0  0  0  0  0  0
   -7.8909   22.0214  -32.6806 H   0  0  0  0  0  0  0  0  0  0  0  0
   -9.4877   22.5978  -31.9724 H   0  0  0  0  0  0  0  0  0  0  0  0
   -8.6004   22.8924  -29.9792 H   0  0  0  0  0  0  0  0  0  0  0  0
   -7.8788   21.2203  -30.0064 H   0  0  0  0  0  0  0  0  0  0  0  0
   -6.1768   23.0189  -29.6844 H   0  0  0  0  0  0  0  0  0  0  0  0
   -5.9360   22.0210  -31.1876 H   0  0  0  0  0  0  0  0  0  0  0  0
   -5.9541   23.8416  -32.4545 H   0  0  0  0  0  0  0  0  0  0  0  0
   -7.5907   24.2974  -31.7671 H   0  0  0  0  0  0  0  0  0  0  0  0
   -5.3892   25.8739  -31.5945 H   0  0  0  0  0  0  0  0  0  0  0  0
   -6.7619   25.8395  -30.3923 H   0  0  0  0  0  0  0  0  0  0  0  0
   -4.9930   25.6986  -28.9489 H   0  0  0  0  0  0  0  0  0  0  0  0
   -5.2691   23.9393  -29.3042 H   0  0  0  0  0  0  0  0  0  0  0  0
   -1.4380   23.7193  -28.9371 H   0  0  0  0  0  0  0  0  0  0  0  0
   -0.3410   21.5685  -29.5526 H   0  0  0  0  0  0  0  0  0  0  0  0
   -1.0737   18.2463  -32.6535 H   0  0  0  0  0  0  0  0  0  0  0  0
   -3.0826   18.8985  -33.9904 H   0  0  0  0  0  0  0  0  0  0  0  0
   -4.3455   23.1509  -32.0963 H   0  0  0  0  0  0  0  0  0  0  0  0
  1  2  1  0
  2  3  1  0
  2  4  1  0
  4  5  1  0
  5  6  1  0
  6  7  1  0
  7  8  1  0
  8  9  1  0
  9 10  1  0
 10 11  1  0
 11 12  1  0
 12 13  2  0
 13 14  1  0
 14 15  2  0
 15 16  1  0
 16 17  1  0
 17 18  2  0
 18 19  1  0
 19 20  2  0
 19 21  1  0
 21 22  2  0
 22 12  1  0
 21 15  1  0
  1 23  1  0
  1 24  1  0
  1 25  1  0
  2 26  1  0
  3 27  1  0
  3 28  1  0
  3 29  1  0
  4 30  1  0
  4 31  1  0
  5 32  1  0
  5 33  1  0
  6 34  1  0
  6 35  1  0
  7 36  1  0
  7 37  1  0
  8 38  1  0
  8 39  1  0
  9 40  1  0
  9 41  1  0
 10 42  1  0
 10 43  1  0
 13 44  1  0
 14 45  1  0
 17 46  1  0
 18 47  1  0
 22 48  1  0
M  CHG  1   2   1
M  END
>  <UniqueID>  (4) 
4

>  <SMILES>  (4) 
C[NH+](C)CCCCCCCOc1ccc2occc(=O)c2c1

>  <Energy>  (4) 
43.29287370286832

>  <Genealogy>  (4) 
C[NH+](C)CCCCCCCOc1ccc2occc(=O)c2c1 (protonated)
C[NH+](C)CCCCCCCOc1ccc2occc(=O)c2c1 (3D coordinates assigned)
C[NH+](C)CCCCCCCOc1ccc2occc(=O)c2c1 (optimized conformer: 43.29287370286832 kcal/mol)

>  <smiles>  (4) 
CN(C)CCCCCCCOc1ccc2occc(=O)c2c1

>  <score_type>  (4) 
oracle

>  <origin>  (4) 
adg

>  <m_score__min__energy>  (4) 
-7.1600000000000001

>  <m_primary>  (4) 
energy

$$$$
4:0
     RDKit          3D

 53 55  0  0  0  0  0  0  0  0999 V2000
   -1.0210   21.2340  -30.8580 C   0  0  0  0  0  0  0  0  0  0  0  0
   -1.9580   22.4520  -30.8660 C   0  0  0  0  0  0  0  0  0  0  0  0
   -3.2350   22.2500  -30.1340 N   0  0  1  0  0  0  0  0  0  0  0  0
   -3.4960   20.8160  -29.8910 C   0  0  0  0  0  0  0  0  0  0  0  0
   -3.2910   23.0470  -28.8810 C   0  0  0  0  0  0  0  0  0  0  0  0
   -3.5260   24.5460  -29.1450 C   0  0  0  0  0  0  0  0  0  0  0  0
   -3.8920   24.7500  -30.4940 O   0  0  0  0  0  0  0  0  0  0  0  0
   -5.0870   25.5010  -30.5960 C   0  0  0  0  0  0  0  0  0  0  0  0
   -6.2660   24.5560  -30.8260 C   0  0  0  0  0  0  0  0  0  0  0  0
   -5.8510   23.4040  -31.5650 O   0  0  0  0  0  0  0  0  0  0  0  0
   -6.6480   22.2730  -31.8410 C   0  0  0  0  0  0  0  0  0  0  0  0
   -8.0090   22.2440  -31.5070 C   0  0  0  0  0  0  0  0  0  0  0  0
   -8.7860   21.1350  -31.8070 C   0  0  0  0  0  0  0  0  0  0  0  0
   -8.2150   20.0200  -32.4170 C   0  0  0  0  0  0  0  0  0  0  0  0
   -6.8360   19.9910  -32.7390 C   0  0  0  0  0  0  0  0  0  0  0  0
   -6.0620   21.1440  -32.4610 C   0  0  0  0  0  0  0  0  0  0  0  0
   -4.7130   21.1720  -32.8350 C   0  0  0  0  0  0  0  0  0  0  0  0
   -4.1190   20.1140  -33.4520 N   0  0  0  0  0  0  0  0  0  0  0  0
   -2.7020   20.2510  -33.8340 C   0  0  0  0  0  0  0  0  0  0  0  0
   -4.8200   18.9490  -33.6790 C   0  0  0  0  0  0  0  0  0  0  0  0
   -4.1880   17.8160  -34.2480 C   0  0  0  0  0  0  0  0  0  0  0  0
   -4.8920   16.6360  -34.4820 C   0  0  0  0  0  0  0  0  0  0  0  0
   -6.2380   16.5530  -34.1520 C   0  0  0  0  0  0  0  0  0  0  0  0
   -6.8900   17.6470  -33.5820 C   0  0  0  0  0  0  0  0  0  0  0  0
   -6.2030   18.8620  -33.3320 C   0  0  0  0  0  0  0  0  0  0  0  0
   -0.8007   20.9477  -29.8190 H   0  0  0  0  0  0  0  0  0  0  0  0
   -1.5077   20.3936  -31.3746 H   0  0  0  0  0  0  0  0  0  0  0  0
   -0.0839   21.4889  -31.3746 H   0  0  0  0  0  0  0  0  0  0  0  0
   -1.4269   23.2974  -30.4042 H   0  0  0  0  0  0  0  0  0  0  0  0
   -2.2249   22.6353  -31.9173 H   0  0  0  0  0  0  0  0  0  0  0  0
   -3.9920   22.5940  -30.7760 H   0  0  0  0  0  0  0  0  0  0  0  0
   -3.5302   20.6280  -28.8077 H   0  0  0  0  0  0  0  0  0  0  0  0
   -4.4597   20.5371  -30.3422 H   0  0  0  0  0  0  0  0  0  0  0  0
   -2.6924   20.2154  -30.3422 H   0  0  0  0  0  0  0  0  0  0  0  0
   -4.1127   22.6657  -28.2569 H   0  0  0  0  0  0  0  0  0  0  0  0
   -2.3188   22.9450  -28.3765 H   0  0  0  0  0  0  0  0  0  0  0  0
   -4.3323   24.9086  -28.4905 H   0  0  0  0  0  0  0  0  0  0  0  0
   -2.5977   25.0980  -28.9365 H   0  0  0  0  0  0  0  0  0  0  0  0
   -5.2458   26.0652  -29.6652 H   0  0  0  0  0  0  0  0  0  0  0  0
   -5.0086   26.2010  -31.4409 H   0  0  0  0  0  0  0  0  0  0  0  0
   -6.6679   24.2361  -29.8533 H   0  0  0  0  0  0  0  0  0  0  0  0
   -7.0390   25.0868  -31.4012 H   0  0  0  0  0  0  0  0  0  0  0  0
   -8.4649   23.1086  -31.0024 H   0  0  0  0  0  0  0  0  0  0  0  0
   -9.8584   21.1357  -31.5621 H   0  0  0  0  0  0  0  0  0  0  0  0
   -8.8446   19.1492  -32.6520 H   0  0  0  0  0  0  0  0  0  0  0  0
   -4.1175   22.0727  -32.6247 H   0  0  0  0  0  0  0  0  0  0  0  0
   -2.0820   20.3109  -32.9274 H   0  0  0  0  0  0  0  0  0  0  0  0
   -2.3968   19.3782  -34.4299 H   0  0  0  0  0  0  0  0  0  0  0  0
   -2.5697   21.1661  -34.4299 H   0  0  0  0  0  0  0  0  0  0  0  0
   -3.1210   17.8685  -34.5102 H   0  0  0  0  0  0  0  0  0  0  0  0
   -4.3809   15.7702  -34.9283 H   0  0  0  0  0  0  0  0  0  0  0  0
   -6.7922   15.6217  -34.3405 H   0  0  0  0  0  0  0  0  0  0  0  0
   -7.9557   17.5655  -33.3220 H   0  0  0  0  0  0  0  0  0  0  0  0
  1  2  1  0
  2  3  1  0
  3  4  1  0
  3  5  1  0
  5  6  1  0
  6  7  1  0
  7  8  1  0
  8  9  1  0
  9 10  1  0
 10 11  1  0
 11 12  2  0
 12 13  1  0
 13 14  2  0
 14 15  1  0
 15 16  2  0
 16 17  1  0
 17 18  2  0
 18 19  1  0
 18 20  1  0
 20 21  2  0
 21 22  1  0
 22 23  2  0
 23 24  1  0
 24 25  2  0
 16 11  1  0
 25 20  1  0
 25 15  1  0
  1 26  1  0
  1 27  1  0
  1 28  1  0
  2 29  1  0
  2 30  1  0
  3 31  1  6
  4 32  1  0
  4 33  1  0
  4 34  1  0
  5 35  1  0
  5 36  1  0
  6 37  1  0
  6 38  1  0
  8 39  1  0
  8 40  1  0
  9 41  1  0
  9 42  1  0
 12 43  1  0
 13 44  1  0
 14 45  1  0
 17 46  1  0
 19 47  1  0
 19 48  1  0
 19 49  1  0
 21 50  1  0
 22 51  1  0
 23 52  1  0
 24 53  1  0
M  CHG  2   3   1  18   1
M  END
>  <UniqueID>  (5) 
5

>  <SMILES>  (5) 
CC[N@@H+](C)CCOCCOc1cccc2c1c[n+](C)c1ccccc21

>  <Energy>  (5) 
70.23596999113107

>  <Genealogy>  (5) 
CC[NH+](C)CCOCCOc1cccc2c1c[n+](C)c1ccccc21 (protonated)
CC[N@@H+](C)CCOCCOc1cccc2c1c[n+](C)c1ccccc21 (chirality)
CC[N@@H+](C)CCOCCOc1cccc2c1c[n+](C)c1ccccc21 (3D coordinates assigned)
CC[N@@H+](C)CCOCCOc1cccc2c1c[n+](C)c1ccccc21 (optimized conformer: 70.23596999113107 kcal/mol)

>  <smiles>  (5) 
CCN(C)CCOCCOc1cccc2c1c[n+](C)c1ccccc21

>  <score_type>  (5) 
oracle

>  <origin>  (5) 
adg

>  <m_score__min__energy>  (5) 
-8.2200000000000006

>  <m_primary>  (5) 
energy

$$$$
5:0
     RDKit          3D

 59 61  0  0  0  0  0  0  0  0999 V2000
   -1.7610   21.1530  -33.1750 C   0  0  0  0  0  0  0  0  0  0  0  0
   -3.2480   21.2300  -33.4810 C   0  0  0  0  0  0  0  0  0  0  0  0
   -3.9270   21.7420  -32.3530 O   0  0  0  0  0  0  0  0  0  0  0  0
   -3.8750   20.7930  -31.3060 C   0  0  0  0  0  0  0  0  0  0  0  0
   -3.1280   21.3880  -30.1080 C   0  0  0  0  0  0  0  0  0  0  0  0
   -2.4210   22.5580  -30.4820 O   0  0  0  0  0  0  0  0  0  0  0  0
   -2.3720   23.4950  -29.4220 C   0  0  0  0  0  0  0  0  0  0  0  0
   -3.5290   24.5070  -29.5350 C   0  0  0  0  0  0  0  0  0  0  0  0
   -4.1980   24.4600  -30.8480 N   0  0  0  0  0  0  0  0  0  0  0  0
   -5.6670   24.3080  -30.7440 C   0  0  0  0  0  0  0  0  0  0  0  0
   -6.2890   24.0340  -32.1410 C   0  0  0  0  0  0  0  0  0  0  0  0
   -6.7220   22.5710  -32.3340 C   0  0  0  0  0  0  0  0  0  0  0  0
   -7.6360   22.1060  -31.2630 N   0  0  0  0  0  0  0  0  0  0  0  0
   -9.0450   21.8830  -31.6570 C   0  0  0  0  0  0  0  0  0  0  0  0
   -9.4250   20.4120  -31.9460 C   0  0  0  0  0  0  0  0  0  0  0  0
   -8.7020   19.8640  -33.0930 N   0  0  0  0  0  0  0  0  0  0  0  0
   -7.4800   19.1040  -33.0090 C   0  0  0  0  0  0  0  0  0  0  0  0
   -7.3180   18.1810  -31.9370 C   0  0  0  0  0  0  0  0  0  0  0  0
   -6.1390   17.4220  -31.8030 C   0  0  0  0  0  0  0  0  0  0  0  0
   -5.1560   17.6100  -32.7650 C   0  0  0  0  0  0  0  0  0  0  0  0
   -3.9550   17.0330  -32.8820 N   0  0  0  0  0  0  0  0  0  0  0  0
   -3.4160   17.5570  -33.9530 O   0  0  0  0  0  0  0  0  0  0  0  0
   -4.1830   18.4400  -34.5500 N   0  0  0  0  0  0  0  0  0  0  0  0
   -5.2970   18.4790  -33.7970 C   0  0  0  0  0  0  0  0  0  0  0  0
   -6.4420   19.2490  -33.9670 C   0  0  0  0  0  0  0  0  0  0  0  0
   -7.4570   22.7230  -29.9320 C   0  0  0  0  0  0  0  0  0  0  0  0
   -6.0180   23.1970  -29.7290 C   0  0  0  0  0  0  0  0  0  0  0  0
   -1.6108   21.1452  -32.0853 H   0  0  0  0  0  0  0  0  0  0  0  0
   -1.3445   20.2321  -33.6091 H   0  0  0  0  0  0  0  0  0  0  0  0
   -1.2516   22.0260  -33.6091 H   0  0  0  0  0  0  0  0  0  0  0  0
   -3.4127   21.8938  -34.3425 H   0  0  0  0  0  0  0  0  0  0  0  0
   -3.6295   20.2260  -33.7186 H   0  0  0  0  0  0  0  0  0  0  0  0
   -4.8982   20.5259  -31.0032 H   0  0  0  0  0  0  0  0  0  0  0  0
   -3.3469   19.8934  -31.6550 H   0  0  0  0  0  0  0  0  0  0  0  0
   -3.8537   21.6419  -29.3213 H   0  0  0  0  0  0  0  0  0  0  0  0
   -2.4060   20.6442  -29.7398 H   0  0  0  0  0  0  0  0  0  0  0  0
   -2.4520   22.9607  -28.4638 H   0  0  0  0  0  0  0  0  0  0  0  0
   -1.4185   24.0407  -29.4764 H   0  0  0  0  0  0  0  0  0  0  0  0
   -4.2703   24.2830  -28.7538 H   0  0  0  0  0  0  0  0  0  0  0  0
   -3.1034   25.5141  -29.4141 H   0  0  0  0  0  0  0  0  0  0  0  0
   -3.7840   23.6760  -31.4070 H   0  0  0  0  0  0  0  0  0  0  0  0
   -6.0998   25.2488  -30.3730 H   0  0  0  0  0  0  0  0  0  0  0  0
   -7.1716   24.6790  -32.2635 H   0  0  0  0  0  0  0  0  0  0  0  0
   -5.5141   24.2477  -32.8919 H   0  0  0  0  0  0  0  0  0  0  0  0
   -7.2366   22.4797  -33.3019 H   0  0  0  0  0  0  0  0  0  0  0  0
   -5.8175   21.9460  -32.2978 H   0  0  0  0  0  0  0  0  0  0  0  0
   -9.6876   22.2462  -30.8414 H   0  0  0  0  0  0  0  0  0  0  0  0
   -9.1859   22.4254  -32.6036 H   0  0  0  0  0  0  0  0  0  0  0  0
   -9.1908   19.8058  -31.0585 H   0  0  0  0  0  0  0  0  0  0  0  0
  -10.4990   20.3834  -32.1820 H   0  0  0  0  0  0  0  0  0  0  0  0
   -9.1010   20.0510  -34.0390 H   0  0  0  0  0  0  0  0  0  0  0  0
   -8.1267   18.0587  -31.2015 H   0  0  0  0  0  0  0  0  0  0  0  0
   -6.0033   16.7124  -30.9735 H   0  0  0  0  0  0  0  0  0  0  0  0
   -3.5140   16.3170  -32.2530 H   0  0  0  0  0  0  0  0  0  0  0  0
   -6.5403   19.9453  -34.8129 H   0  0  0  0  0  0  0  0  0  0  0  0
   -8.1343   23.5851  -29.8426 H   0  0  0  0  0  0  0  0  0  0  0  0
   -7.6854   21.9678  -29.1655 H   0  0  0  0  0  0  0  0  0  0  0  0
   -5.9071   23.5910  -28.7080 H   0  0  0  0  0  0  0  0  0  0  0  0
   -5.3377   22.3463  -29.8826 H   0  0  0  0  0  0  0  0  0  0  0  0
  1  2  1  0
  2  3  1  0
  3  4  1  0
  4  5  1  0
  5  6  1  0
  6  7  1  0
  7  8  1  0
  8  9  1  0
  9 10  1  0
 10 11  1  0
 11 12  1  0
 12 13  1  0
 13 14  1  0
 14 15  1  0
 15 16  1  0
 16 17  1  0
 17 18  1  0
 18 19  2  0
 19 20  1  0
 20 21  2  0
 21 22  1  0
 22 23  1  0
 23 24  2  0
 24 25  1  0
 13 26  1  0
 26 27  1  0
 27 10  1  0
 25 17  2  0
 24 20  1  0
  1 28  1  0
  1 29  1  0
  1 30  1  0
  2 31  1  0
  2 32  1  0
  4 33  1  0
  4 34  1  0
  5 35  1  0
  5 36  1  0
  7 37  1  0
  7 38  1  0
  8 39  1  0
  8 40  1  0
  9 41  1  0
 10 42  1  0
 11 43  1  0
 11 44  1  0
 12 45  1  0
 12 46  1  0
 14 47  1  0
 14 48  1  0
 15 49  1  0
 15 50  1  0
 16 51  1  0
 18 52  1  0
 19 53  1  0
 21 54  1  0
 25 55  1  0
 26 56  1  0
 26 57  1  0
 27 58  1  0
 27 59  1  0
M  CHG  1  21   1
M  END
>  <UniqueID>  (6) 
6

>  <SMILES>  (6) 
CCOCCOCCNC1CCN(CCNc2ccc3[nH+]onc3c2)CC1

>  <Energy>  (6) 
114.74156118138602

>  <Genealogy>  (6) 
CCOCCOCCNC1CCN(CCNc2ccc3[nH+]onc3c2)CC1 (protonated)
CCOCCOCCNC1CCN(CCNc2ccc3[nH+]onc3c2)CC1 (3D coordinates assigned)
CCOCCOCCNC1CCN(CCNc2ccc3[nH+]onc3c2)CC1 (nonaromatic ring conformer: 114.74156118138602 kcal/mol)

>  <smiles>  (6) 
CCOCCOCCNC1CCN(CCNc2ccc3nonc3c2)CC1

>  <score_type>  (6) 
oracle

>  <origin>  (6) 
adg

>  <m_score__min__energy>  (6) 
-8.5

>  <m_primary>  (6) 
energy

$$$$
6:0
     RDKit          3D

 47 48  0  0  0  0  0  0  0  0999 V2000
   -3.6270   22.4040  -28.4410 C   0  0  0  0  0  0  0  0  0  0  0  0
   -2.9600   23.5850  -27.7360 C   0  0  0  0  0  0  0  0  0  0  0  0
   -3.7030   24.8330  -27.9790 N   0  0  0  0  0  0  0  0  0  0  0  0
   -5.0100   24.5820  -28.6280 C   0  0  0  0  0  0  0  0  0  0  0  0
   -5.1760   25.2830  -30.0010 C   0  0  1  0  0  0  0  0  0  0  0  0
   -3.9330   25.5180  -30.6100 O   0  0  0  0  0  0  0  0  0  0  0  0
   -6.0870   24.5050  -30.9620 C   0  0  0  0  0  0  0  0  0  0  0  0
   -5.3330   23.9360  -32.0290 O   0  0  0  0  0  0  0  0  0  0  0  0
   -5.4450   22.6080  -32.4640 C   0  0  0  0  0  0  0  0  0  0  0  0
   -4.3520   21.8880  -32.9780 C   0  0  0  0  0  0  0  0  0  0  0  0
   -4.5150   20.5660  -33.3950 C   0  0  0  0  0  0  0  0  0  0  0  0
   -5.7660   19.9380  -33.3010 C   0  0  0  0  0  0  0  0  0  0  0  0
   -6.8750   20.6590  -32.8050 C   0  0  0  0  0  0  0  0  0  0  0  0
   -6.6960   21.9870  -32.3790 C   0  0  0  0  0  0  0  0  0  0  0  0
   -8.2400   20.0100  -32.6870 C   0  0  0  0  0  0  0  0  0  0  0  0
   -8.3050   18.7410  -31.7930 C   0  0  0  0  0  0  0  0  0  0  0  0
   -7.7180   17.4540  -32.4100 C   0  0  0  0  0  0  0  0  0  0  0  0
   -6.2700   17.5660  -32.7160 N   0  0  0  0  0  0  0  0  0  0  0  0
   -5.7120   16.2350  -33.0010 C   0  0  0  0  0  0  0  0  0  0  0  0
   -5.9380   18.5210  -33.8010 C   0  0  0  0  0  0  0  0  0  0  0  0
   -4.0222   21.7042  -27.6899 H   0  0  0  0  0  0  0  0  0  0  0  0
   -4.4514   22.7706  -29.0702 H   0  0  0  0  0  0  0  0  0  0  0  0
   -2.8873   21.8873  -29.0702 H   0  0  0  0  0  0  0  0  0  0  0  0
   -2.9312   23.3884  -26.6541 H   0  0  0  0  0  0  0  0  0  0  0  0
   -1.9411   23.7007  -28.1341 H   0  0  0  0  0  0  0  0  0  0  0  0
   -3.8160   25.3460  -27.0770 H   0  0  0  0  0  0  0  0  0  0  0  0
   -3.1290   25.4370  -28.6150 H   0  0  0  0  0  0  0  0  0  0  0  0
   -5.1197   23.4977  -28.7775 H   0  0  0  0  0  0  0  0  0  0  0  0
   -5.7812   24.9974  -27.9627 H   0  0  0  0  0  0  0  0  0  0  0  0
   -5.6622   26.2467  -29.7891 H   0  0  0  0  0  0  0  0  0  0  0  0
   -4.1110   25.6730  -31.5740 H   0  0  0  0  0  0  0  0  0  0  0  0
   -6.5910   23.6996  -30.4077 H   0  0  0  0  0  0  0  0  0  0  0  0
   -6.8262   25.2006  -31.3860 H   0  0  0  0  0  0  0  0  0  0  0  0
   -3.3651   22.3683  -33.0517 H   0  0  0  0  0  0  0  0  0  0  0  0
   -3.6556   20.0120  -33.8006 H   0  0  0  0  0  0  0  0  0  0  0  0
   -7.5520   22.5459  -31.9730 H   0  0  0  0  0  0  0  0  0  0  0  0
   -8.9336   20.7544  -32.2689 H   0  0  0  0  0  0  0  0  0  0  0  0
   -8.5036   19.6770  -33.7017 H   0  0  0  0  0  0  0  0  0  0  0  0
   -7.7528   18.9529  -30.8655 H   0  0  0  0  0  0  0  0  0  0  0  0
   -9.3752   18.5378  -31.6401 H   0  0  0  0  0  0  0  0  0  0  0  0
   -7.8632   16.6268  -31.6996 H   0  0  0  0  0  0  0  0  0  0  0  0
   -8.2424   17.2758  -33.3604 H   0  0  0  0  0  0  0  0  0  0  0  0
   -5.4952   15.7180  -32.0546 H   0  0  0  0  0  0  0  0  0  0  0  0
   -6.4401   15.6486  -33.5808 H   0  0  0  0  0  0  0  0  0  0  0  0
   -4.7835   16.3432  -33.5808 H   0  0  0  0  0  0  0  0  0  0  0  0
   -4.9999   18.1999  -34.2772 H   0  0  0  0  0  0  0  0  0  0  0  0
   -6.7773   18.5199  -34.5121 H   0  0  0  0  0  0  0  0  0  0  0  0
  1  2  1  0
  2  3  1  0
  3  4  1  0
  4  5  1  0
  5  6  1  0
  5  7  1  0
  7  8  1  0
  8  9  1  0
  9 10  2  0
 10 11  1  0
 11 12  2  0
 12 13  1  0
 13 14  2  0
 13 15  1  0
 15 16  1  0
 16 17  1  0
 17 18  1  0
 18 19  1  0
 18 20  1  0
 14  9  1  0
 20 12  1  0
  1 21  1  0
  1 22  1  0
  1 23  1  0
  2 24  1  0
  2 25  1  0
  3 26  1  0
  3 27  1  0
  4 28  1  0
  4 29  1  0
  5 30  1  1
  6 31  1  0
  7 32  1  0
  7 33  1  0
 10 34  1  0
 11 35  1  0
 14 36  1  0
 15 37  1  0
 15 38  1  0
 16 39  1  0
 16 40  1  0
 17 41  1  0
 17 42  1  0
 19 43  1  0
 19 44  1  0
 19 45  1  0
 20 46  1  0
 20 47  1  0
M  CHG  1   3   1
M  END
>  <UniqueID>  (7) 
7

>  <SMILES>  (7) 
CC[NH2+]C[C@@H](O)COc1ccc2c(c1)CCCN(C)C2

>  <Energy>  (7) 
56.61966539575881

>  <Genealogy>  (7) 
CC[NH2+]CC(O)COc1ccc2c(c1)CCCN(C)C2 (protonated)
CC[NH2+]C[C@@H](O)COc1ccc2c(c1)CCCN(C)C2 (chirality)
CC[NH2+]C[C@@H](O)COc1ccc2c(c1)CCCN(C)C2 (3D coordinates assigned)
CC[NH2+]C[C@@H](O)COc1ccc2c(c1)CCCN(C)C2 (nonaromatic ring conformer: 56.61966539575881 kcal/mol)

>  <smiles>  (7) 
CCNCC(O)COc1ccc2c(c1)CCCN(C)C2

>  <score_type>  (7) 
oracle

>  <origin>  (7) 
adg

>  <m_score__min__energy>  (7) 
-6.5300000000000002

>  <m_primary>  (7) 
energy

$$$$
7:0
     RDKit          3D

 48 49  0  0  0  0  0  0  0  0999 V2000
   -6.1090   25.3710  -29.5800 C   0  0  0  0  0  0  0  0  0  0  0  0
   -5.3130   25.0470  -30.8370 C   0  0  0  0  0  0  0  0  0  0  0  0
   -3.9360   25.2990  -30.6020 O   0  0  0  0  0  0  0  0  0  0  0  0
   -3.1650   24.5270  -29.7270 C   0  0  0  0  0  0  0  0  0  0  0  0
   -2.3200   25.0730  -28.9660 O   0  0  0  0  0  0  0  0  0  0  0  0
   -3.3320   23.0360  -29.7060 C   0  0  0  0  0  0  0  0  0  0  0  0
   -3.2650   22.4120  -31.1100 C   0  0  0  0  0  0  0  0  0  0  0  0
   -4.0900   21.1220  -31.2370 C   0  0  0  0  0  0  0  0  0  0  0  0
   -5.1670   21.3310  -32.1460 O   0  0  0  0  0  0  0  0  0  0  0  0
   -6.3290   20.5490  -32.1790 C   0  0  0  0  0  0  0  0  0  0  0  0
   -6.2320   19.1830  -32.5230 C   0  0  0  0  0  0  0  0  0  0  0  0
   -4.9390   18.6730  -32.7410 O   0  0  0  0  0  0  0  0  0  0  0  0
   -4.1480   18.9020  -33.9160 C   0  0  0  0  0  0  0  0  0  0  0  0
   -2.6780   18.9050  -33.5320 C   0  0  0  0  0  0  0  0  0  0  0  0
   -7.4110   18.3830  -32.6210 C   0  0  0  0  0  0  0  0  0  0  0  0
   -7.2890   17.0120  -32.9080 O   0  0  0  0  0  0  0  0  0  0  0  0
   -6.5610   16.4450  -33.9970 C   0  0  0  0  0  0  0  0  0  0  0  0
   -5.4080   15.5860  -33.4880 C   0  0  0  0  0  0  0  0  0  0  0  0
   -8.6780   18.9790  -32.3970 C   0  0  0  0  0  0  0  0  0  0  0  0
   -8.7290   20.3300  -32.0840 C   0  0  0  0  0  0  0  0  0  0  0  0
   -9.8010   21.0590  -31.8880 O   0  0  0  0  0  0  0  0  0  0  0  0
   -9.4110   22.2990  -31.6720 C   0  0  0  0  0  0  0  0  0  0  0  0
   -8.0280   22.3830  -31.7290 C   0  0  0  0  0  0  0  0  0  0  0  0
   -7.6020   21.0920  -31.9730 C   0  0  0  0  0  0  0  0  0  0  0  0
   -5.5077   25.1263  -28.6920 H   0  0  0  0  0  0  0  0  0  0  0  0
   -6.3586   26.4423  -29.5700 H   0  0  0  0  0  0  0  0  0  0  0  0
   -7.0358   24.7785  -29.5700 H   0  0  0  0  0  0  0  0  0  0  0  0
   -5.4529   23.9873  -31.0968 H   0  0  0  0  0  0  0  0  0  0  0  0
   -5.6651   25.6771  -31.6671 H   0  0  0  0  0  0  0  0  0  0  0  0
   -2.5321   22.6009  -29.0889 H   0  0  0  0  0  0  0  0  0  0  0  0
   -4.3280   22.8188  -29.2928 H   0  0  0  0  0  0  0  0  0  0  0  0
   -3.6463   23.1442  -31.8370 H   0  0  0  0  0  0  0  0  0  0  0  0
   -2.2142   22.1492  -31.3020 H   0  0  0  0  0  0  0  0  0  0  0  0
   -3.4471   20.3117  -31.6112 H   0  0  0  0  0  0  0  0  0  0  0  0
   -4.4924   20.8472  -30.2508 H   0  0  0  0  0  0  0  0  0  0  0  0
   -4.3359   18.1029  -34.6482 H   0  0  0  0  0  0  0  0  0  0  0  0
   -4.4170   19.8713  -34.3611 H   0  0  0  0  0  0  0  0  0  0  0  0
   -2.5854   18.9052  -32.4359 H   0  0  0  0  0  0  0  0  0  0  0  0
   -2.1903   18.0078  -33.9410 H   0  0  0  0  0  0  0  0  0  0  0  0
   -2.1940   19.8041  -33.9410 H   0  0  0  0  0  0  0  0  0  0  0  0
   -7.2386   15.8203  -34.5975 H   0  0  0  0  0  0  0  0  0  0  0  0
   -6.1496   17.2610  -34.6093 H   0  0  0  0  0  0  0  0  0  0  0  0
   -5.4084   15.5863  -32.3880 H   0  0  0  0  0  0  0  0  0  0  0  0
   -5.5286   14.5559  -33.8545 H   0  0  0  0  0  0  0  0  0  0  0  0
   -4.4555   15.9963  -33.8545 H   0  0  0  0  0  0  0  0  0  0  0  0
   -9.6001   18.3836  -32.4697 H   0  0  0  0  0  0  0  0  0  0  0  0
  -10.0853   23.1455  -31.4749 H   0  0  0  0  0  0  0  0  0  0  0  0
   -7.4058   23.2819  -31.6066 H   0  0  0  0  0  0  0  0  0  0  0  0
  1  2  1  0
  2  3  1  0
  3  4  1  0
  4  5  2  0
  4  6  1  0
  6  7  1  0
  7  8  1  0
  8  9  1  0
  9 10  1  0
 10 11  2  0
 11 12  1  0
 12 13  1  0
 13 14  1  0
 11 15  1  0
 15 16  1  0
 16 17  1  0
 17 18  1  0
 15 19  2  0
 19 20  1  0
 20 21  1  0
 21 22  1  0
 22 23  2  0
 23 24  1  0
 24 10  1  0
 24 20  2  0
  1 25  1  0
  1 26  1  0
  1 27  1  0
  2 28  1  0
  2 29  1  0
  6 30  1  0
  6 31  1  0
  7 32  1  0
  7 33  1  0
  8 34  1  0
  8 35  1  0
 13 36  1  0
 13 37  1  0
 14 38  1  0
 14 39  1  0
 14 40  1  0
 17 41  1  0
 17 42  1  0
 18 43  1  0
 18 44  1  0
 18 45  1  0
 19 46  1  0
 22 47  1  0
 23 48  1  0
M  END
>  <UniqueID>  (8) 
8

>  <SMILES>  (8) 
CCOC(=O)CCCOc1c(OCC)c(OCC)cc2occc12

>  <Energy>  (8) 
73.64650913732879

>  <Genealogy>  (8) 
CCOC(=O)CCCOc1c(OCC)c(OCC)cc2occc12 (3D coordinates assigned)
CCOC(=O)CCCOc1c(OCC)c(OCC)cc2occc12 (optimized conformer: 73.64650913732879 kcal/mol)

>  <smiles>  (8) 
CCOC(=O)CCCOc1c(OCC)c(OCC)cc2occc12

>  <score_type>  (8) 
oracle

>  <origin>  (8) 
adg

>  <m_score__min__energy>  (8) 
-6.5499999999999998

>  <m_primary>  (8) 
energy

$$$$
8:0
     RDKit          3D

 82 86  0  0  0  0  0  0  0  0999 V2000
    0.0540   20.7380  -35.5240 C   0  0  0  0  0  0  0  0  0  0  0  0
   -0.2940   20.7490  -34.0410 C   0  0  0  0  0  0  0  0  0  0  0  0
   -1.6990   21.1430  -33.8650 N   0  0  0  0  0  0  0  0  0  0  0  0
   -2.0040   21.5310  -32.4800 C   0  0  0  0  0  0  0  0  0  0  0  0
   -3.4870   21.9340  -32.2890 C   0  0  0  0  0  0  0  0  0  0  0  0
   -4.3680   21.5570  -33.4180 N   0  0  0  0  0  0  0  0  0  0  0  0
   -5.5220   20.7710  -33.0220 C   0  0  0  0  0  0  0  0  0  0  0  0
   -6.7330   21.3950  -32.5900 C   0  0  0  0  0  0  0  0  0  0  0  0
   -6.8570   22.8040  -32.5240 C   0  0  0  0  0  0  0  0  0  0  0  0
   -8.0180   23.4040  -32.0480 C   0  0  0  0  0  0  0  0  0  0  0  0
   -9.0810   22.6250  -31.6170 C   0  0  0  0  0  0  0  0  0  0  0  0
   -9.0060   21.2370  -31.6890 C   0  0  0  0  0  0  0  0  0  0  0  0
   -7.8570   20.5890  -32.2070 C   0  0  0  0  0  0  0  0  0  0  0  0
   -7.8120   19.2130  -32.3390 N   0  0  0  0  0  0  0  0  0  0  0  0
   -9.0080   18.3830  -32.0920 C   0  0  0  0  0  0  0  0  0  0  0  0
   -6.6280   18.6250  -32.7000 C   0  0  0  0  0  0  0  0  0  0  0  0
   -6.4020   17.2920  -32.7810 N   0  0  0  0  0  0  0  0  0  0  0  0
   -5.1250   17.1680  -33.1750 C   0  0  0  0  0  0  0  0  0  0  0  0
   -4.4570   15.9660  -33.3980 C   0  0  0  0  0  0  0  0  0  0  0  0
   -3.1140   16.0140  -33.7900 C   0  0  0  0  0  0  0  0  0  0  0  0
   -2.4490   17.2580  -33.9240 C   0  0  0  0  0  0  0  0  0  0  0  0
   -1.0930   17.3470  -34.2750 O   0  0  0  0  0  0  0  0  0  0  0  0
   -0.1040   16.3690  -33.9590 C   0  0  0  0  0  0  0  0  0  0  0  0
    0.2200   16.4650  -32.4490 C   0  0  0  0  0  0  0  0  0  0  0  0
    1.4370   17.2600  -32.0580 N   0  0  2  0  0  0  0  0  0  0  0  0
    2.4910   17.1130  -33.1000 C   0  0  0  0  0  0  0  0  0  0  0  0
    1.9790   16.7880  -30.7340 C   0  0  0  0  0  0  0  0  0  0  0  0
    0.9560   16.7750  -29.5700 C   0  0  0  0  0  0  0  0  0  0  0  0
    0.9630   18.0110  -28.7140 N   0  0  0  0  0  0  0  0  0  0  0  0
    2.2930   18.1350  -28.0600 C   0  0  0  0  0  0  0  0  0  0  0  0
   -0.0530   17.8650  -27.6420 C   0  0  0  0  0  0  0  0  0  0  0  0
    0.7110   19.2890  -29.4580 C   0  0  0  0  0  0  0  0  0  0  0  0
    0.1600   19.1200  -30.8570 C   0  0  0  0  0  0  0  0  0  0  0  0
   -1.0290   19.3370  -31.0390 O   0  0  0  0  0  0  0  0  0  0  0  0
    0.9970   18.6980  -32.0450 C   0  0  0  0  0  0  0  0  0  0  0  0
   -3.1510   18.4540  -33.6870 C   0  0  0  0  0  0  0  0  0  0  0  0
   -4.5110   18.3950  -33.3300 C   0  0  0  0  0  0  0  0  0  0  0  0
   -5.4940   19.3560  -33.0280 C   0  0  0  0  0  0  0  0  0  0  0  0
    1.1469   20.7035  -35.6439 H   0  0  0  0  0  0  0  0  0  0  0  0
   -0.3952   19.8536  -35.9995 H   0  0  0  0  0  0  0  0  0  0  0  0
   -0.3384   21.6490  -35.9995 H   0  0  0  0  0  0  0  0  0  0  0  0
   -0.1409   19.7435  -33.6220 H   0  0  0  0  0  0  0  0  0  0  0  0
    0.3543   21.4688  -33.5199 H   0  0  0  0  0  0  0  0  0  0  0  0
   -1.9170   21.9450  -34.5050 H   0  0  0  0  0  0  0  0  0  0  0  0
   -1.7817   20.6807  -31.8185 H   0  0  0  0  0  0  0  0  0  0  0  0
   -1.3857   22.4071  -32.2349 H   0  0  0  0  0  0  0  0  0  0  0  0
   -3.8634   21.4439  -31.3790 H   0  0  0  0  0  0  0  0  0  0  0  0
   -3.5105   23.0317  -32.2222 H   0  0  0  0  0  0  0  0  0  0  0  0
   -4.6880   22.4250  -33.9030 H   0  0  0  0  0  0  0  0  0  0  0  0
   -3.8290   21.0790  -34.1630 H   0  0  0  0  0  0  0  0  0  0  0  0
   -6.0196   23.4357  -32.8553 H   0  0  0  0  0  0  0  0  0  0  0  0
   -8.0932   24.5009  -32.0133 H   0  0  0  0  0  0  0  0  0  0  0  0
   -9.9862   23.1053  -31.2170 H   0  0  0  0  0  0  0  0  0  0  0  0
   -9.8545   20.6317  -31.3372 H   0  0  0  0  0  0  0  0  0  0  0  0
   -9.1625   18.2758  -31.0082 H   0  0  0  0  0  0  0  0  0  0  0  0
   -9.8883   18.8653  -32.5419 H   0  0  0  0  0  0  0  0  0  0  0  0
   -8.8642   17.3896  -32.5419 H   0  0  0  0  0  0  0  0  0  0  0  0
   -7.0390   16.4970  -32.5600 H   0  0  0  0  0  0  0  0  0  0  0  0
   -4.9723   15.0027  -33.2692 H   0  0  0  0  0  0  0  0  0  0  0  0
   -2.5712   15.0796  -33.9954 H   0  0  0  0  0  0  0  0  0  0  0  0
   -0.4877   15.3649  -34.1926 H   0  0  0  0  0  0  0  0  0  0  0  0
    0.8055   16.5493  -34.5508 H   0  0  0  0  0  0  0  0  0  0  0  0
   -0.6483   16.9224  -31.9522 H   0  0  0  0  0  0  0  0  0  0  0  0
    0.4426   15.4332  -32.1396 H   0  0  0  0  0  0  0  0  0  0  0  0
    3.4691   16.9766  -32.6155 H   0  0  0  0  0  0  0  0  0  0  0  0
    2.2671   16.2374  -33.7270 H   0  0  0  0  0  0  0  0  0  0  0  0
    2.5152   18.0165  -33.7270 H   0  0  0  0  0  0  0  0  0  0  0  0
    2.3569   15.7635  -30.8666 H   0  0  0  0  0  0  0  0  0  0  0  0
    2.7582   17.5098  -30.4480 H   0  0  0  0  0  0  0  0  0  0  0  0
   -0.0503   16.6612  -29.9994 H   0  0  0  0  0  0  0  0  0  0  0  0
    1.2430   15.9405  -28.9133 H   0  0  0  0  0  0  0  0  0  0  0  0
    2.1668   18.1232  -26.9673 H   0  0  0  0  0  0  0  0  0  0  0  0
    2.9313   17.2925  -28.3645 H   0  0  0  0  0  0  0  0  0  0  0  0
    2.7646   19.0810  -28.3645 H   0  0  0  0  0  0  0  0  0  0  0  0
    0.4375   17.9355  -26.6599 H   0  0  0  0  0  0  0  0  0  0  0  0
   -0.8025   18.6647  -27.7358 H   0  0  0  0  0  0  0  0  0  0  0  0
   -0.5470   16.8866  -27.7358 H   0  0  0  0  0  0  0  0  0  0  0  0
   -0.0092   19.8846  -28.8779 H   0  0  0  0  0  0  0  0  0  0  0  0
    1.6911   19.7753  -29.5717 H   0  0  0  0  0  0  0  0  0  0  0  0
    0.4062   18.8784  -32.9552 H   0  0  0  0  0  0  0  0  0  0  0  0
    1.9206   19.2925  -31.9859 H   0  0  0  0  0  0  0  0  0  0  0  0
   -2.6423   19.4249  -33.7798 H   0  0  0  0  0  0  0  0  0  0  0  0
  1  2  1  0
  2  3  1  0
  3  4  1  0
  4  5  1  0
  5  6  1  0
  6  7  1  0
  7  8  2  0
  8  9  1  0
  9 10  2  0
 10 11  1  0
 11 12  2  0
 12 13  1  0
 13 14  2  0
 14 15  1  0
 14 16  1  0
 16 17  1  0
 17 18  1  0
 18 19  2  0
 19 20  1  0
 20 21  2  0
 21 22  1  0
 22 23  1  0
 23 24  1  0
 25 24  1  6
 25 26  1  0
 25 27  1  0
 27 28  1  0
 28 29  1  0
 29 30  1  0
 29 31  1  0
 29 32  1  0
 32 33  1  0
 33 34  2  0
 33 35  1  0
 21 36  1  0
 36 37  2  0
 37 38  1  0
 38  7  1  0
 13  8  1  0
 38 16  2  0
 37 18  1  0
 35 25  1  0
  1 39  1  0
  1 40  1  0
  1 41  1  0
  2 42  1  0
  2 43  1  0
  3 44  1  0
  4 45  1  0
  4 46  1  0
  5 47  1  0
  5 48  1  0
  6 49  1  0
  6 50  1  0
  9 51  1  0
 10 52  1  0
 11 53  1  0
 12 54  1  0
 15 55  1  0
 15 56  1  0
 15 57  1  0
 17 58  1  0
 19 59  1  0
 20 60  1  0
 23 61  1  0
 23 62  1  0
 24 63  1  0
 24 64  1  0
 26 65  1  0
 26 66  1  0
 26 67  1  0
 27 68  1  0
 27 69  1  0
 28 70  1  0
 28 71  1  0
 30 72  1  0
 30 73  1  0
 30 74  1  0
 31 75  1  0
 31 76  1  0
 31 77  1  0
 32 78  1  0
 32 79  1  0
 35 80  1  0
 35 81  1  0
 36 82  1  0
M  CHG  4   6   1  14   1  25   1  29   1
M  END
>  <UniqueID>  (9) 
9

>  <SMILES>  (9) 
CCNCC[NH2+]c1c2ccccc2[n+](C)c2[nH]c3ccc(OCC[N@+]4(C)CC[N+](C)(C)CC(=O)C4)cc3c12

>  <Energy>  (9) 
183.14289393865926

>  <Genealogy>  (9) 
CCNCC[NH2+]c1c2ccccc2[n+](C)c2[nH]c3ccc(OCC[N+]4(C)CC[N+](C)(C)CC(=O)C4)cc3c12 (protonated)
CCNCC[NH2+]c1c2ccccc2[n+](C)c2[nH]c3ccc(OCC[N@+]4(C)CC[N+](C)(C)CC(=O)C4)cc3c12 (chirality)
CCNCC[NH2+]c1c2ccccc2[n+](C)c2[nH]c3ccc(OCC[N@+]4(C)CC[N+](C)(C)CC(=O)C4)cc3c12 (3D coordinates assigned)
CCNCC[NH2+]c1c2ccccc2[n+](C)c2[nH]c3ccc(OCC[N@+]4(C)CC[N+](C)(C)CC(=O)C4)cc3c12 (nonaromatic ring conformer: 183.14289393865926 kcal/mol)

>  <smiles>  (9) 
CCNCCNc1c2ccccc2[n+](C)c2[nH]c3ccc(OCC[N+]4(C)CC[N+](C)(C)CC(=O)C4)cc3c12

>  <score_type>  (9) 
oracle

>  <origin>  (9) 
adg

>  <m_score__min__energy>  (9) 
-6.29

>  <m_primary>  (9) 
energy

$$$$
9:0
     RDKit          3D

 67 70  0  0  0  0  0  0  0  0999 V2000
   -8.7290   18.2100  -31.5770 C   0  0  0  0  0  0  0  0  0  0  0  0
   -9.1440   19.5830  -32.0970 C   0  0  0  0  0  0  0  0  0  0  0  0
   -8.2640   20.0140  -33.1790 N   0  0  0  0  0  0  0  0  0  0  0  0
   -6.8860   20.3600  -32.9510 C   0  0  0  0  0  0  0  0  0  0  0  0
   -6.5480   21.5800  -32.3390 C   0  0  0  0  0  0  0  0  0  0  0  0
   -7.5410   22.5370  -32.0410 C   0  0  0  0  0  0  0  0  0  0  0  0
   -7.2070   23.7530  -31.4520 C   0  0  0  0  0  0  0  0  0  0  0  0
   -5.8770   24.0470  -31.1690 C   0  0  0  0  0  0  0  0  0  0  0  0
   -4.8740   23.1270  -31.4770 C   0  0  0  0  0  0  0  0  0  0  0  0
   -5.1850   21.8650  -32.0540 C   0  0  0  0  0  0  0  0  0  0  0  0
   -4.2030   20.9370  -32.3550 N   0  0  0  0  0  0  0  0  0  0  0  0
   -2.8320   21.1120  -31.8250 C   0  0  0  0  0  0  0  0  0  0  0  0
   -4.5070   19.8410  -33.1450 C   0  0  0  0  0  0  0  0  0  0  0  0
   -3.4930   19.0290  -33.7270 C   0  0  0  0  0  0  0  0  0  0  0  0
   -3.8210   17.8930  -34.4860 C   0  0  0  0  0  0  0  0  0  0  0  0
   -2.8580   17.0930  -35.1150 O   0  0  0  0  0  0  0  0  0  0  0  0
   -1.7180   16.5130  -34.4890 C   0  0  0  0  0  0  0  0  0  0  0  0
   -2.0660   15.9780  -33.0750 C   0  0  0  0  0  0  0  0  0  0  0  0
   -2.6780   14.6020  -33.0070 N   0  0  0  0  0  0  0  0  0  0  0  0
   -1.8270   13.7020  -32.1740 C   0  0  0  0  0  0  0  0  0  0  0  0
   -2.8260   14.0220  -34.3900 C   0  0  0  0  0  0  0  0  0  0  0  0
   -4.2510   14.1580  -34.9680 C   0  0  0  0  0  0  0  0  0  0  0  0
   -5.2770   13.4550  -34.1370 N   0  0  0  0  0  0  0  0  0  0  0  0
   -5.3420   12.0220  -34.5280 C   0  0  0  0  0  0  0  0  0  0  0  0
   -6.6020   14.0660  -34.4140 C   0  0  0  0  0  0  0  0  0  0  0  0
   -4.9710   13.5570  -32.6710 C   0  0  0  0  0  0  0  0  0  0  0  0
   -4.0180   14.7260  -32.3360 C   0  0  0  0  0  0  0  0  0  0  0  0
   -5.1600   17.5420  -34.6540 C   0  0  0  0  0  0  0  0  0  0  0  0
   -6.1700   18.3450  -34.1380 C   0  0  0  0  0  0  0  0  0  0  0  0
   -5.8620   19.5130  -33.4100 C   0  0  0  0  0  0  0  0  0  0  0  0
   -8.7315   18.2184  -30.4770 H   0  0  0  0  0  0  0  0  0  0  0  0
   -9.4379   17.4510  -31.9395 H   0  0  0  0  0  0  0  0  0  0  0  0
   -7.7184   17.9707  -31.9395 H   0  0  0  0  0  0  0  0  0  0  0  0
  -10.1770   19.5299  -32.4714 H   0  0  0  0  0  0  0  0  0  0  0  0
   -9.0726   20.3088  -31.2735 H   0  0  0  0  0  0  0  0  0  0  0  0
   -8.6360   20.0560  -34.1570 H   0  0  0  0  0  0  0  0  0  0  0  0
   -8.5930   22.3192  -32.2773 H   0  0  0  0  0  0  0  0  0  0  0  0
   -7.9948   24.4817  -31.2102 H   0  0  0  0  0  0  0  0  0  0  0  0
   -5.6153   25.0075  -30.7011 H   0  0  0  0  0  0  0  0  0  0  0  0
   -3.8243   23.3825  -31.2698 H   0  0  0  0  0  0  0  0  0  0  0  0
   -2.8607   21.1083  -30.7254 H   0  0  0  0  0  0  0  0  0  0  0  0
   -2.1945   20.2879  -32.1779 H   0  0  0  0  0  0  0  0  0  0  0  0
   -2.4219   22.0698  -32.1779 H   0  0  0  0  0  0  0  0  0  0  0  0
   -2.4358   19.2951  -33.5802 H   0  0  0  0  0  0  0  0  0  0  0  0
   -1.3536   15.6800  -35.1082 H   0  0  0  0  0  0  0  0  0  0  0  0
   -0.9442   17.2882  -34.3875 H   0  0  0  0  0  0  0  0  0  0  0  0
   -1.1366   15.9596  -32.4868 H   0  0  0  0  0  0  0  0  0  0  0  0
   -2.8386   16.6591  -32.6887 H   0  0  0  0  0  0  0  0  0  0  0  0
   -2.0156   13.9015  -31.1088 H   0  0  0  0  0  0  0  0  0  0  0  0
   -2.0717   12.6536  -32.3997 H   0  0  0  0  0  0  0  0  0  0  0  0
   -0.7665   13.8877  -32.3997 H   0  0  0  0  0  0  0  0  0  0  0  0
   -2.1272   14.5420  -35.0618 H   0  0  0  0  0  0  0  0  0  0  0  0
   -2.6103   12.9461  -34.3133 H   0  0  0  0  0  0  0  0  0  0  0  0
   -4.5102   15.2258  -35.0193 H   0  0  0  0  0  0  0  0  0  0  0  0
   -4.2527   13.6924  -35.9646 H   0  0  0  0  0  0  0  0  0  0  0  0
   -5.3704   11.3962  -33.6238 H   0  0  0  0  0  0  0  0  0  0  0  0
   -6.2491   11.8455  -35.1247 H   0  0  0  0  0  0  0  0  0  0  0  0
   -4.4546   11.7641  -35.1247 H   0  0  0  0  0  0  0  0  0  0  0  0
   -7.1048   14.2978  -33.4635 H   0  0  0  0  0  0  0  0  0  0  0  0
   -6.4652   14.9920  -34.9918 H   0  0  0  0  0  0  0  0  0  0  0  0
   -7.2174   13.3607  -34.9918 H   0  0  0  0  0  0  0  0  0  0  0  0
   -5.9143   13.7056  -32.1250 H   0  0  0  0  0  0  0  0  0  0  0  0
   -4.4681   12.6252  -32.3730 H   0  0  0  0  0  0  0  0  0  0  0  0
   -4.4877   15.6657  -32.6620 H   0  0  0  0  0  0  0  0  0  0  0  0
   -3.8451   14.7088  -31.2498 H   0  0  0  0  0  0  0  0  0  0  0  0
   -5.4188   16.6223  -35.1992 H   0  0  0  0  0  0  0  0  0  0  0  0
   -7.2219   18.0664  -34.2992 H   0  0  0  0  0  0  0  0  0  0  0  0
  1  2  1  0
  2  3  1  0
  3  4  1  0
  4  5  2  0
  5  6  1  0
  6  7  2  0
  7  8  1  0
  8  9  2  0
  9 10  1  0
 10 11  2  0
 11 12  1  0
 11 13  1  0
 13 14  2  0
 14 15  1  0
 15 16  1  0
 16 17  1  0
 17 18  1  0
 18 19  1  0
 19 20  1  0
 19 21  1  0
 21 22  1  0
 22 23  1  0
 23 24  1  0
 23 25  1  0
 23 26  1  0
 26 27  1  0
 15 28  2  0
 28 29  1  0
 29 30  2  0
 30  4  1  0
 10  5  1  0
 30 13  1  0
 27 19  1  0
  1 31  1  0
  1 32  1  0
  1 33  1  0
  2 34  1  0
  2 35  1  0
  3 36  1  0
  6 37  1  0
  7 38  1  0
  8 39  1  0
  9 40  1  0
 12 41  1  0
 12 42  1  0
 12 43  1  0
 14 44  1  0
 17 45  1  0
 17 46  1  0
 18 47  1  0
 18 48  1  0
 20 49  1  0
 20 50  1  0
 20 51  1  0
 21 52  1  0
 21 53  1  0
 22 54  1  0
 22 55  1  0
 24 56  1  0
 24 57  1  0
 24 58  1  0
 25 59  1  0
 25 60  1  0
 25 61  1  0
 26 62  1  0
 26 63  1  0
 27 64  1  0
 27 65  1  0
 28 66  1  0
 29 67  1  0
M  CHG  3  11   1  19   1  23   1
M  END
>  <UniqueID>  (10) 
10

>  <SMILES>  (10) 
CCNc1c2ccccc2[n+](C)c2cc(OCC[N+]3(C)CC[N+](C)(C)CC3)ccc12

>  <Energy>  (10) 
122.4042408090882

>  <Genealogy>  (10) 
CCNc1c2ccccc2[n+](C)c2cc(OCC[N+]3(C)CC[N+](C)(C)CC3)ccc12 (3D coordinates assigned)
CCNc1c2ccccc2[n+](C)c2cc(OCC[N+]3(C)CC[N+](C)(C)CC3)ccc12 (nonaromatic ring conformer: 122.4042408090882 kcal/mol)

>  <smiles>  (10) 
CCNc1c2ccccc2[n+](C)c2cc(OCC[N+]3(C)CC[N+](C)(C)CC3)ccc12

>  <score_type>  (10) 
oracle

>  <origin>  (10) 
adg

>  <m_score__min__energy>  (10) 
-8.1099999999999994

>  <m_primary>  (10) 
energy

$$$$
10:0
     RDKit          3D

 49 51  0  0  0  0  0  0  0  0999 V2000
   -0.1750   22.6590  -28.5090 C   0  0  0  0  0  0  0  0  0  0  0  0
    0.0500   24.1600  -28.3590 C   0  0  0  0  0  0  0  0  0  0  0  0
   -1.0470   24.9050  -28.9970 N   0  0  0  0  0  0  0  0  0  0  0  0
   -2.2790   24.9040  -28.1890 C   0  0  0  0  0  0  0  0  0  0  0  0
   -3.3060   23.8620  -28.6800 C   0  0  1  0  0  0  0  0  0  0  0  0
   -4.6490   24.5080  -29.0280 C   0  0  0  0  0  0  0  0  0  0  0  0
   -5.0880   23.7480  -30.2650 C   0  0  0  0  0  0  0  0  0  0  0  0
   -5.9400   24.6510  -31.2090 C   0  0  0  0  0  0  0  0  0  0  0  0
   -6.8810   23.8050  -32.0700 C   0  0  0  0  0  0  0  0  0  0  0  0
   -7.8690   23.0840  -31.2320 N   0  0  0  0  0  0  0  0  0  0  0  0
   -8.6190   22.0410  -31.9680 C   0  0  0  0  0  0  0  0  0  0  0  0
   -7.7950   20.8120  -32.2940 C   0  0  0  0  0  0  0  0  0  0  0  0
   -8.1990   19.5470  -31.8360 C   0  0  0  0  0  0  0  0  0  0  0  0
   -7.4390   18.4220  -32.1560 C   0  0  0  0  0  0  0  0  0  0  0  0
   -6.2770   18.5630  -32.9130 C   0  0  0  0  0  0  0  0  0  0  0  0
   -5.8860   19.8350  -33.3320 C   0  0  0  0  0  0  0  0  0  0  0  0
   -6.6370   20.9250  -33.0130 N   0  0  0  0  0  0  0  0  0  0  0  0
   -7.3790   22.6660  -29.8950 C   0  0  0  0  0  0  0  0  0  0  0  0
   -5.8610   22.4440  -29.8770 C   0  0  0  0  0  0  0  0  0  0  0  0
   -3.7240   23.4010  -30.8680 C   0  0  0  0  0  0  0  0  0  0  0  0
   -2.8120   23.1860  -29.8180 O   0  0  0  0  0  0  0  0  0  0  0  0
   -0.2442   22.1973  -27.5130 H   0  0  0  0  0  0  0  0  0  0  0  0
   -1.1098   22.4817  -29.0611 H   0  0  0  0  0  0  0  0  0  0  0  0
    0.6667   22.2154  -29.0611 H   0  0  0  0  0  0  0  0  0  0  0  0
    0.0897   24.4163  -27.2900 H   0  0  0  0  0  0  0  0  0  0  0  0
    0.9984   24.4310  -28.8459 H   0  0  0  0  0  0  0  0  0  0  0  0
   -1.2380   24.4930  -29.9410 H   0  0  0  0  0  0  0  0  0  0  0  0
   -2.0164   24.6761  -27.1454 H   0  0  0  0  0  0  0  0  0  0  0  0
   -2.7406   25.8981  -28.2816 H   0  0  0  0  0  0  0  0  0  0  0  0
   -3.4644   23.1495  -27.8571 H   0  0  0  0  0  0  0  0  0  0  0  0
   -5.3722   24.3804  -28.2091 H   0  0  0  0  0  0  0  0  0  0  0  0
   -4.5765   25.5934  -29.1912 H   0  0  0  0  0  0  0  0  0  0  0  0
   -6.5363   25.3468  -30.6005 H   0  0  0  0  0  0  0  0  0  0  0  0
   -5.2605   25.2065  -31.8721 H   0  0  0  0  0  0  0  0  0  0  0  0
   -7.4163   24.4633  -32.7701 H   0  0  0  0  0  0  0  0  0  0  0  0
   -6.2809   23.0636  -32.6178 H   0  0  0  0  0  0  0  0  0  0  0  0
   -9.4764   21.7307  -31.3527 H   0  0  0  0  0  0  0  0  0  0  0  0
   -8.9277   22.4838  -32.9264 H   0  0  0  0  0  0  0  0  0  0  0  0
   -9.1100   19.4441  -31.2281 H   0  0  0  0  0  0  0  0  0  0  0  0
   -7.7557   17.4263  -31.8120 H   0  0  0  0  0  0  0  0  0  0  0  0
   -5.6750   17.6811  -33.1771 H   0  0  0  0  0  0  0  0  0  0  0  0
   -4.9664   19.9579  -33.9230 H   0  0  0  0  0  0  0  0  0  0  0  0
   -6.2990   21.8630  -33.3220 H   0  0  0  0  0  0  0  0  0  0  0  0
   -7.6311   23.4490  -29.1647 H   0  0  0  0  0  0  0  0  0  0  0  0
   -7.8628   21.7111  -29.6416 H   0  0  0  0  0  0  0  0  0  0  0  0
   -5.5566   22.1350  -28.8661 H   0  0  0  0  0  0  0  0  0  0  0  0
   -5.6166   21.6648  -30.6139 H   0  0  0  0  0  0  0  0  0  0  0  0
   -3.8092   22.4894  -31.4777 H   0  0  0  0  0  0  0  0  0  0  0  0
   -3.3745   24.2251  -31.5073 H   0  0  0  0  0  0  0  0  0  0  0  0
  1  2  1  0
  2  3  1  0
  3  4  1  0
  4  5  1  0
  5  6  1  0
  6  7  1  0
  7  8  1  0
  8  9  1  0
  9 10  1  0
 10 11  1  0
 11 12  1  0
 12 13  2  0
 13 14  1  0
 14 15  2  0
 15 16  1  0
 16 17  2  0
 10 18  1  0
 18 19  1  0
  7 20  1  0
 20 21  1  0
 21  5  1  0
 19  7  1  0
 17 12  1  0
  1 22  1  0
  1 23  1  0
  1 24  1  0
  2 25  1  0
  2 26  1  0
  3 27  1  0
  4 28  1  0
  4 29  1  0
  5 30  1  1
  6 31  1  0
  6 32  1  0
  8 33  1  0
  8 34  1  0
  9 35  1  0
  9 36  1  0
 11 37  1  0
 11 38  1  0
 13 39  1  0
 14 40  1  0
 15 41  1  0
 16 42  1  0
 17 43  1  0
 18 44  1  0
 18 45  1  0
 19 46  1  0
 19 47  1  0
 20 48  1  0
 20 49  1  0
M  CHG  1  17   1
M  END
>  <UniqueID>  (11) 
11

>  <SMILES>  (11) 
CCNC[C@H]1CC2(CCN(Cc3cccc[nH+]3)CC2)CO1

>  <Energy>  (11) 
61.272601808297246

>  <Genealogy>  (11) 
CCNCC1CC2(CCN(Cc3cccc[nH+]3)CC2)CO1 (protonated)
CCNC[C@H]1CC2(CCN(Cc3cccc[nH+]3)CC2)CO1 (chirality)
CCNC[C@H]1CC2(CCN(Cc3cccc[nH+]3)CC2)CO1 (3D coordinates assigned)
CCNC[C@H]1CC2(CCN(Cc3cccc[nH+]3)CC2)CO1 (nonaromatic ring conformer: 61.272601808297246 kcal/mol)

>  <smiles>  (11) 
CCNCC1CC2(CCN(Cc3ccccn3)CC2)CO1

>  <score_type>  (11) 
oracle

>  <origin>  (11) 
adg

>  <m_score__min__energy>  (11) 
-8.1999999999999993

>  <m_primary>  (11) 
energy

$$$$
12:0
     RDKit          3D

 41 43  0  0  0  0  0  0  0  0999 V2000
   -1.2100   25.6780  -27.7340 C   0  0  0  0  0  0  0  0  0  0  0  0
   -1.7770   24.9350  -28.9400 C   0  0  0  0  0  0  0  0  0  0  0  0
   -2.5810   23.7750  -28.4930 N   0  0  0  0  0  0  0  0  0  0  0  0
   -2.6300   22.7010  -29.5040 C   0  0  0  0  0  0  0  0  0  0  0  0
   -3.4300   23.1190  -30.7580 C   0  0  0  0  0  0  0  0  0  0  0  0
   -4.3520   24.2460  -30.4850 N   0  0  0  0  0  0  0  0  0  0  0  0
   -5.3640   24.3810  -31.5510 C   0  0  0  0  0  0  0  0  0  0  0  0
   -6.2860   23.1870  -31.5610 C   0  0  0  0  0  0  0  0  0  0  0  0
   -5.8980   22.0320  -32.1240 C   0  0  0  0  0  0  0  0  0  0  0  0
   -6.8050   20.8740  -32.1700 C   0  0  0  0  0  0  0  0  0  0  0  0
   -6.3850   19.6370  -32.6800 C   0  0  0  0  0  0  0  0  0  0  0  0
   -7.2880   18.5710  -32.7610 C   0  0  0  0  0  0  0  0  0  0  0  0
   -6.7640   17.0230  -33.3980 Cl  0  0  0  0  0  0  0  0  0  0  0  0
   -8.6140   18.7420  -32.3420 C   0  0  0  0  0  0  0  0  0  0  0  0
   -9.0360   19.9780  -31.8390 C   0  0  0  0  0  0  0  0  0  0  0  0
   -8.1300   21.0390  -31.7460 C   0  0  0  0  0  0  0  0  0  0  0  0
   -8.5430   22.2790  -31.2540 O   0  0  0  0  0  0  0  0  0  0  0  0
   -7.6150   23.2870  -30.8390 C   0  0  0  0  0  0  0  0  0  0  0  0
   -4.9960   24.0780  -29.1720 C   0  0  0  0  0  0  0  0  0  0  0  0
   -3.9430   24.1600  -28.0470 C   0  0  0  0  0  0  0  0  0  0  0  0
   -1.5710   25.2049  -26.8089 H   0  0  0  0  0  0  0  0  0  0  0  0
   -0.1111   25.6375  -27.7618 H   0  0  0  0  0  0  0  0  0  0  0  0
   -1.5391   26.7273  -27.7618 H   0  0  0  0  0  0  0  0  0  0  0  0
   -2.4151   25.6176  -29.5204 H   0  0  0  0  0  0  0  0  0  0  0  0
   -0.9456   24.5766  -29.5647 H   0  0  0  0  0  0  0  0  0  0  0  0
   -1.6022   22.4511  -29.8060 H   0  0  0  0  0  0  0  0  0  0  0  0
   -3.1355   21.8343  -29.0531 H   0  0  0  0  0  0  0  0  0  0  0  0
   -2.7229   23.4225  -31.5441 H   0  0  0  0  0  0  0  0  0  0  0  0
   -4.0356   22.2570  -31.0745 H   0  0  0  0  0  0  0  0  0  0  0  0
   -5.9544   25.2924  -31.3758 H   0  0  0  0  0  0  0  0  0  0  0  0
   -4.8508   24.4414  -32.5221 H   0  0  0  0  0  0  0  0  0  0  0  0
   -4.8898   21.9500  -32.5563 H   0  0  0  0  0  0  0  0  0  0  0  0
   -5.3461   19.5047  -33.0163 H   0  0  0  0  0  0  0  0  0  0  0  0
   -9.3238   17.9043  -32.4084 H   0  0  0  0  0  0  0  0  0  0  0  0
  -10.0790   20.1146  -31.5173 H   0  0  0  0  0  0  0  0  0  0  0  0
   -8.0534   24.2751  -31.0427 H   0  0  0  0  0  0  0  0  0  0  0  0
   -7.4232   23.1424  -29.7655 H   0  0  0  0  0  0  0  0  0  0  0  0
   -5.7427   24.8730  -29.0293 H   0  0  0  0  0  0  0  0  0  0  0  0
   -5.4841   23.0929  -29.1353 H   0  0  0  0  0  0  0  0  0  0  0  0
   -3.9096   25.1943  -27.6739 H   0  0  0  0  0  0  0  0  0  0  0  0
   -4.2444   23.4484  -27.2642 H   0  0  0  0  0  0  0  0  0  0  0  0
  1  2  1  0
  2  3  1  0
  3  4  1  0
  4  5  1  0
  5  6  1  0
  6  7  1  0
  7  8  1  0
  8  9  2  0
  9 10  1  0
 10 11  2  0
 11 12  1  0
 12 13  1  0
 12 14  2  0
 14 15  1  0
 15 16  2  0
 16 17  1  0
 17 18  1  0
  6 19  1  0
 19 20  1  0
 20  3  1  0
 18  8  1  0
 16 10  1  0
  1 21  1  0
  1 22  1  0
  1 23  1  0
  2 24  1  0
  2 25  1  0
  4 26  1  0
  4 27  1  0
  5 28  1  0
  5 29  1  0
  7 30  1  0
  7 31  1  0
  9 32  1  0
 11 33  1  0
 14 34  1  0
 15 35  1  0
 18 36  1  0
 18 37  1  0
 19 38  1  0
 19 39  1  0
 20 40  1  0
 20 41  1  0
M  END
>  <UniqueID>  (12) 
12

>  <SMILES>  (12) 
CCN1CCN(CC2=Cc3cc(Cl)ccc3OC2)CC1

>  <Energy>  (12) 
52.99817592925443

>  <Genealogy>  (12) 
CCN1CCN(CC2=Cc3cc(Cl)ccc3OC2)CC1 (protonated)
CCN1CCN(CC2=Cc3cc(Cl)ccc3OC2)CC1 (3D coordinates assigned)
CCN1CCN(CC2=Cc3cc(Cl)ccc3OC2)CC1 (nonaromatic ring conformer: 52.99817592925443 kcal/mol)

>  <smiles>  (12) 
CC[N+]1CCN(CC2=Cc3cc(Cl)ccc3OC2)CC1

>  <score_type>  (12) 
oracle

>  <origin>  (12) 
adg

>  <m_score__min__energy>  (12) 
-8.0600000000000005

>  <m_primary>  (12) 
energy

$$$$
13:0
     RDKit          3D

 33 34  0  0  0  0  0  0  0  0999 V2000
   -1.6720   24.8280  -29.8290 H   0  0  0  0  0  0  0  0  0  0  0  0
   -1.4970   25.6590  -29.3140 O   0  0  0  0  0  0  0  0  0  0  0  0
   -1.4910   25.3010  -27.9580 C   0  0  0  0  0  0  0  0  0  0  0  0
   -2.1838   25.9548  -27.4079 H   0  0  0  0  0  0  0  0  0  0  0  0
   -0.4700   25.4141  -27.5646 H   0  0  0  0  0  0  0  0  0  0  0  0
   -1.9280   23.8490  -27.7870 C   0  0  0  0  0  0  0  0  0  0  0  0
   -2.6255   23.5787  -28.5935 H   0  0  0  0  0  0  0  0  0  0  0  0
   -2.4274   23.7287  -26.8143 H   0  0  0  0  0  0  0  0  0  0  0  0
   -0.7950   23.0060  -27.8420 O   0  0  0  0  0  0  0  0  0  0  0  0
   -0.4030   22.7770  -29.1840 C   0  0  0  0  0  0  0  0  0  0  0  0
    0.4943   22.1410  -29.1989 H   0  0  0  0  0  0  0  0  0  0  0  0
   -0.1825   23.7401  -29.6675 H   0  0  0  0  0  0  0  0  0  0  0  0
   -1.5340   22.0780  -29.9420 C   0  0  0  0  0  0  0  0  0  0  0  0
   -2.2669   21.6919  -29.2183 H   0  0  0  0  0  0  0  0  0  0  0  0
   -1.1038   21.2552  -30.5319 H   0  0  0  0  0  0  0  0  0  0  0  0
   -2.2040   23.0020  -30.8530 N   0  0  0  0  0  0  0  0  0  0  0  0
   -3.4390   23.4200  -30.8310 C   0  0  0  0  0  0  0  0  0  0  0  0
   -3.7470   24.6870  -30.4700 N   0  0  0  0  0  0  0  0  0  0  0  0
   -5.0620   24.8300  -30.5480 N   0  0  0  0  0  0  0  0  0  0  0  0
   -5.7670   26.0640  -30.2270 C   0  0  0  0  0  0  0  0  0  0  0  0
   -5.8311   26.1761  -29.1346 H   0  0  0  0  0  0  0  0  0  0  0  0
   -5.2212   26.9193  -30.6520 H   0  0  0  0  0  0  0  0  0  0  0  0
   -6.7809   26.0282  -30.6520 H   0  0  0  0  0  0  0  0  0  0  0  0
   -5.6060   23.6670  -30.9530 C   0  0  0  0  0  0  0  0  0  0  0  0
   -6.9570   23.3750  -31.1570 C   0  0  0  0  0  0  0  0  0  0  0  0
   -7.7335   24.1373  -30.9963 H   0  0  0  0  0  0  0  0  0  0  0  0
   -7.2910   22.0760  -31.5740 C   0  0  0  0  0  0  0  0  0  0  0  0
   -9.1200   21.6160  -31.8720 Br  0  0  0  0  0  0  0  0  0  0  0  0
   -6.2820   21.1090  -31.7720 C   0  0  0  0  0  0  0  0  0  0  0  0
   -6.5561   20.0950  -32.0985 H   0  0  0  0  0  0  0  0  0  0  0  0
   -4.9300   21.4290  -31.5560 C   0  0  0  0  0  0  0  0  0  0  0  0
   -4.1404   20.6774  -31.7030 H   0  0  0  0  0  0  0  0  0  0  0  0
   -4.6170   22.7330  -31.1480 C   0  0  0  0  0  0  0  0  0  0  0  0
  1  2  1  0
  2  3  1  0
  3  4  1  0
  3  5  1  0
  3  6  1  0
  6  7  1  0
  6  8  1  0
  6  9  1  0
  9 10  1  0
 10 11  1  0
 10 12  1  0
 10 13  1  0
 13 14  1  0
 13 15  1  0
 13 16  1  0
 16 17  2  0
 17 18  1  0
 18 19  1  0
 19 20  1  0
 20 21  1  0
 20 22  1  0
 20 23  1  0
 19 24  1  0
 24 25  2  0
 25 26  1  0
 25 27  1  0
 27 28  1  0
 27 29  2  0
 29 30  1  0
 29 31  1  0
 31 32  1  0
 31 33  2  0
 33 17  1  0
 33 24  1  0
M  CHG  1  18  -1
M  END
>  <UniqueID>  (13) 
13

>  <SMILES>  (13) 
Cn1[n-]/c(=N/CCOCCO)c2ccc(Br)cc21

>  <Energy>  (13) 
74.44737614673932

>  <Genealogy>  (13) 
Cn1[n-]c(=NCCOCCO)c2ccc(Br)cc21 (protonated)
Cn1[n-]/c(=N/CCOCCO)c2ccc(Br)cc21 (cis-trans isomerization)
Cn1[n-]/c(=N/CCOCCO)c2ccc(Br)cc21 (3D coordinates assigned)
Cn1[n-]/c(=N/CCOCCO)c2ccc(Br)cc21 (optimized conformer: 74.44737614673932 kcal/mol)

>  <smiles>  (13) 
Cn1[nH]c(=NCCOCCO)c2ccc(Br)cc21

>  <score_type>  (13) 
oracle

>  <origin>  (13) 
adg

>  <m_score__min__energy>  (13) 
-7.46

>  <m_primary>  (13) 
energy

$$$$
14:0
     RDKit          3D

 59 62  0  0  0  0  0  0  0  0999 V2000
    0.7150   22.7370  -35.8500 C   0  0  0  0  0  0  0  0  0  0  0  0
    0.2830   21.2760  -35.8030 C   0  0  0  0  0  0  0  0  0  0  0  0
   -0.6150   21.0500  -34.6610 N   0  0  0  0  0  0  0  0  0  0  0  0
    0.1330   20.9060  -33.4050 C   0  0  0  0  0  0  0  0  0  0  0  0
   -0.6950   20.1200  -32.3870 C   0  0  0  0  0  0  0  0  0  0  0  0
   -1.8120   20.9330  -31.8900 N   0  0  0  0  0  0  0  0  0  0  0  0
   -3.1140   20.9140  -32.3000 C   0  0  0  0  0  0  0  0  0  0  0  0
   -3.6980   19.9270  -33.2690 C   0  0  0  0  0  0  0  0  0  0  0  0
   -5.0040   20.3980  -33.7290 N   0  0  0  0  0  0  0  0  0  0  0  0
   -6.2120   19.8670  -33.1670 C   0  0  0  0  0  0  0  0  0  0  0  0
   -6.4160   18.4810  -33.1940 C   0  0  0  0  0  0  0  0  0  0  0  0
   -7.6060   17.9290  -32.7200 C   0  0  0  0  0  0  0  0  0  0  0  0
   -8.6070   18.7520  -32.2050 C   0  0  0  0  0  0  0  0  0  0  0  0
   -8.4190   20.1400  -32.1450 C   0  0  0  0  0  0  0  0  0  0  0  0
   -9.4210   20.9660  -31.6110 C   0  0  0  0  0  0  0  0  0  0  0  0
   -9.2240   22.3470  -31.5310 C   0  0  0  0  0  0  0  0  0  0  0  0
   -8.0260   22.9110  -31.9700 C   0  0  0  0  0  0  0  0  0  0  0  0
   -7.0200   22.1020  -32.5050 C   0  0  0  0  0  0  0  0  0  0  0  0
   -7.2080   20.7110  -32.6170 C   0  0  0  0  0  0  0  0  0  0  0  0
   -3.8640   21.8650  -31.6890 N   0  0  0  0  0  0  0  0  0  0  0  0
   -2.9970   22.5140  -30.8970 C   0  0  0  0  0  0  0  0  0  0  0  0
   -3.2440   23.6110  -30.0780 C   0  0  0  0  0  0  0  0  0  0  0  0
   -2.1570   24.1590  -29.3540 C   0  0  0  0  0  0  0  0  0  0  0  0
   -2.3140   25.2760  -28.5160 O   0  0  0  0  0  0  0  0  0  0  0  0
   -2.3020   25.2220  -27.0940 C   0  0  0  0  0  0  0  0  0  0  0  0
   -0.8650   23.5840  -29.4710 C   0  0  0  0  0  0  0  0  0  0  0  0
    0.1850   24.1570  -28.7360 O   0  0  0  0  0  0  0  0  0  0  0  0
    0.7180   23.6110  -27.5330 C   0  0  0  0  0  0  0  0  0  0  0  0
   -0.6610   22.4640  -30.3150 C   0  0  0  0  0  0  0  0  0  0  0  0
   -1.7580   21.9590  -31.0150 C   0  0  0  0  0  0  0  0  0  0  0  0
    0.8280   23.1191  -34.8247 H   0  0  0  0  0  0  0  0  0  0  0  0
    1.6757   22.8184  -36.3796 H   0  0  0  0  0  0  0  0  0  0  0  0
   -0.0469   23.3278  -36.3796 H   0  0  0  0  0  0  0  0  0  0  0  0
   -0.2431   21.0222  -36.7351 H   0  0  0  0  0  0  0  0  0  0  0  0
    1.1742   20.6410  -35.6908 H   0  0  0  0  0  0  0  0  0  0  0  0
   -1.2370   21.8880  -34.5660 H   0  0  0  0  0  0  0  0  0  0  0  0
    1.0732   20.3697  -33.6010 H   0  0  0  0  0  0  0  0  0  0  0  0
    0.3495   21.9049  -32.9985 H   0  0  0  0  0  0  0  0  0  0  0  0
   -1.0932   19.2141  -32.8674 H   0  0  0  0  0  0  0  0  0  0  0  0
   -0.0492   19.8490  -31.5388 H   0  0  0  0  0  0  0  0  0  0  0  0
   -3.0239   19.8195  -34.1316 H   0  0  0  0  0  0  0  0  0  0  0  0
   -3.8180   18.9546  -32.7690 H   0  0  0  0  0  0  0  0  0  0  0  0
   -5.0410   21.3640  -34.1280 H   0  0  0  0  0  0  0  0  0  0  0  0
   -5.6305   17.8222  -33.5927 H   0  0  0  0  0  0  0  0  0  0  0  0
   -7.7555   16.8397  -32.7526 H   0  0  0  0  0  0  0  0  0  0  0  0
   -9.5478   18.3105  -31.8444 H   0  0  0  0  0  0  0  0  0  0  0  0
  -10.3635   20.5248  -31.2547 H   0  0  0  0  0  0  0  0  0  0  0  0
  -10.0157   22.9912  -31.1208 H   0  0  0  0  0  0  0  0  0  0  0  0
   -7.8725   23.9976  -31.8947 H   0  0  0  0  0  0  0  0  0  0  0  0
   -6.0753   22.5546  -32.8407 H   0  0  0  0  0  0  0  0  0  0  0  0
   -4.8830   22.0560  -31.8150 H   0  0  0  0  0  0  0  0  0  0  0  0
   -4.2535   24.0401  -29.9951 H   0  0  0  0  0  0  0  0  0  0  0  0
   -2.5237   26.2197  -26.6873 H   0  0  0  0  0  0  0  0  0  0  0  0
   -3.0633   24.5074  -26.7478 H   0  0  0  0  0  0  0  0  0  0  0  0
   -1.3097   24.8971  -26.7478 H   0  0  0  0  0  0  0  0  0  0  0  0
    0.2434   24.0972  -26.6679 H   0  0  0  0  0  0  0  0  0  0  0  0
    0.5184   22.5297  -27.5011 H   0  0  0  0  0  0  0  0  0  0  0  0
    1.8038   23.7845  -27.5011 H   0  0  0  0  0  0  0  0  0  0  0  0
    0.3338   22.0055  -30.4156 H   0  0  0  0  0  0  0  0  0  0  0  0
  1  2  1  0
  2  3  1  0
  3  4  1  0
  4  5  1  0
  5  6  1  0
  6  7  1  0
  7  8  1  0
  8  9  1  0
  9 10  1  0
 10 11  2  0
 11 12  1  0
 12 13  2  0
 13 14  1  0
 14 15  2  0
 15 16  1  0
 16 17  2  0
 17 18  1  0
 18 19  2  0
  7 20  2  0
 20 21  1  0
 21 22  2  0
 22 23  1  0
 23 24  1  0
 24 25  1  0
 23 26  2  0
 26 27  1  0
 27 28  1  0
 26 29  1  0
 29 30  2  0
 30  6  1  0
 19 10  1  0
 30 21  1  0
 19 14  1  0
  1 31  1  0
  1 32  1  0
  1 33  1  0
  2 34  1  0
  2 35  1  0
  3 36  1  0
  4 37  1  0
  4 38  1  0
  5 39  1  0
  5 40  1  0
  8 41  1  0
  8 42  1  0
  9 43  1  0
 11 44  1  0
 12 45  1  0
 13 46  1  0
 15 47  1  0
 16 48  1  0
 17 49  1  0
 18 50  1  0
 20 51  1  0
 22 52  1  0
 25 53  1  0
 25 54  1  0
 25 55  1  0
 28 56  1  0
 28 57  1  0
 28 58  1  0
 29 59  1  0
M  CHG  1  20   1
M  END
>  <UniqueID>  (14) 
14

>  <SMILES>  (14) 
CCNCCn1c(CNc2cccc3ccccc23)[nH+]c2cc(OC)c(OC)cc21

>  <Energy>  (14) 
99.20716991845802

>  <Genealogy>  (14) 
CCNCCn1c(CNc2cccc3ccccc23)[nH+]c2cc(OC)c(OC)cc21 (protonated)
CCNCCn1c(CNc2cccc3ccccc23)[nH+]c2cc(OC)c(OC)cc21 (3D coordinates assigned)
CCNCCn1c(CNc2cccc3ccccc23)[nH+]c2cc(OC)c(OC)cc21 (optimized conformer: 99.20716991845802 kcal/mol)

>  <smiles>  (14) 
CCNCCn1c(CNc2cccc3ccccc23)nc2cc(OC)c(OC)cc21

>  <score_type>  (14) 
oracle

>  <origin>  (14) 
adg

>  <m_score__min__energy>  (14) 
-8.7100000000000009

>  <m_primary>  (14) 
energy

$$$$
15:0
     RDKit          3D

 37 39  0  0  0  0  0  0  0  0999 V2000
   -6.4290   13.2980  -34.5540 C   0  0  0  0  0  0  0  0  0  0  0  0
   -6.8840   14.7210  -34.2320 C   0  0  0  0  0  0  0  0  0  0  0  0
   -5.8220   15.4730  -33.5280 N   0  0  0  0  0  0  0  0  0  0  0  0
   -4.5760   14.7460  -33.1980 C   0  0  0  0  0  0  0  0  0  0  0  0
   -4.6060   14.2230  -31.7630 C   0  0  0  0  0  0  0  0  0  0  0  0
   -6.0040   16.7540  -33.2530 C   0  0  0  0  0  0  0  0  0  0  0  0
   -4.9680   17.7100  -33.3420 C   0  0  0  0  0  0  0  0  0  0  0  0
   -5.2310   19.0430  -33.0370 C   0  0  0  0  0  0  0  0  0  0  0  0
   -6.5210   19.4440  -32.6450 C   0  0  0  0  0  0  0  0  0  0  0  0
   -7.5100   18.4330  -32.5810 C   0  0  0  0  0  0  0  0  0  0  0  0
   -8.8140   18.7430  -32.2010 C   0  0  0  0  0  0  0  0  0  0  0  0
   -9.1660   20.0500  -31.8790 C   0  0  0  0  0  0  0  0  0  0  0  0
   -8.2120   21.0740  -31.9320 C   0  0  0  0  0  0  0  0  0  0  0  0
   -8.5890   22.3860  -31.6030 C   0  0  0  0  0  0  0  0  0  0  0  0
   -7.6560   23.4200  -31.6480 C   0  0  0  0  0  0  0  0  0  0  0  0
   -6.3400   23.1560  -32.0210 C   0  0  0  0  0  0  0  0  0  0  0  0
   -5.9450   21.8580  -32.3540 C   0  0  0  0  0  0  0  0  0  0  0  0
   -6.8710   20.7870  -32.3150 C   0  0  0  0  0  0  0  0  0  0  0  0
   -7.2150   17.1730  -32.8800 O   0  0  0  0  0  0  0  0  0  0  0  0
   -6.2533   12.7485  -33.6174 H   0  0  0  0  0  0  0  0  0  0  0  0
   -7.2086   12.7871  -35.1382 H   0  0  0  0  0  0  0  0  0  0  0  0
   -5.4976   13.3342  -35.1382 H   0  0  0  0  0  0  0  0  0  0  0  0
   -7.1306   15.2403  -35.1698 H   0  0  0  0  0  0  0  0  0  0  0  0
   -7.7661   14.6661  -33.5772 H   0  0  0  0  0  0  0  0  0  0  0  0
   -4.4628   13.8963  -33.8874 H   0  0  0  0  0  0  0  0  0  0  0  0
   -3.7297   15.4415  -33.2980 H   0  0  0  0  0  0  0  0  0  0  0  0
   -4.5574   15.0701  -31.0629 H   0  0  0  0  0  0  0  0  0  0  0  0
   -5.5378   13.6626  -31.5964 H   0  0  0  0  0  0  0  0  0  0  0  0
   -3.7444   13.5597  -31.5964 H   0  0  0  0  0  0  0  0  0  0  0  0
   -3.9579   17.4029  -33.6509 H   0  0  0  0  0  0  0  0  0  0  0  0
   -4.4242   19.7877  -33.1031 H   0  0  0  0  0  0  0  0  0  0  0  0
   -9.5721   17.9473  -32.1551 H   0  0  0  0  0  0  0  0  0  0  0  0
  -10.1995   20.2804  -31.5811 H   0  0  0  0  0  0  0  0  0  0  0  0
   -9.6271   22.5988  -31.3080 H   0  0  0  0  0  0  0  0  0  0  0  0
   -7.9588   24.4453  -31.3889 H   0  0  0  0  0  0  0  0  0  0  0  0
   -5.6067   23.9753  -32.0536 H   0  0  0  0  0  0  0  0  0  0  0  0
   -4.9031   21.6656  -32.6498 H   0  0  0  0  0  0  0  0  0  0  0  0
  1  2  1  0
  2  3  1  0
  3  4  1  0
  4  5  1  0
  3  6  2  3
  6  7  1  0
  7  8  2  0
  8  9  1  0
  9 10  2  0
 10 11  1  0
 11 12  2  0
 12 13  1  0
 13 14  2  0
 14 15  1  0
 15 16  2  0
 16 17  1  0
 17 18  2  0
 10 19  1  0
 19  6  1  0
 18  9  1  0
 18 13  1  0
  1 20  1  0
  1 21  1  0
  1 22  1  0
  2 23  1  0
  2 24  1  0
  4 25  1  0
  4 26  1  0
  5 27  1  0
  5 28  1  0
  5 29  1  0
  7 30  1  0
  8 31  1  0
 11 32  1  0
 12 33  1  0
 14 34  1  0
 15 35  1  0
 16 36  1  0
 17 37  1  0
M  CHG  1   3   1
M  END
>  <UniqueID>  (15) 
15

>  <SMILES>  (15) 
CC[N+](CC)=c1ccc2c(ccc3ccccc32)o1

>  <Energy>  (15) 
51.12827142779314

>  <Genealogy>  (15) 
CC[N+](CC)=c1ccc2c(ccc3ccccc32)o1 (3D coordinates assigned)
CC[N+](CC)=c1ccc2c(ccc3ccccc32)o1 (optimized conformer: 51.12827142779314 kcal/mol)

>  <smiles>  (15) 
CC[N+](CC)=c1ccc2c(ccc3ccccc32)o1

>  <score_type>  (15) 
oracle

>  <origin>  (15) 
adg

>  <m_score__min__energy>  (15) 
-6.5599999999999996

>  <m_primary>  (15) 
energy

$$$$
16:0
     RDKit          3D

 37 39  0  0  0  0  0  0  0  0999 V2000
    0.2370   25.4230  -36.4650 C   0  0  0  0  0  0  0  0  0  0  0  0
    1.0520   24.3160  -35.8150 C   0  0  0  0  0  0  0  0  0  0  0  0
    0.5480   23.0690  -36.2190 O   0  0  0  0  0  0  0  0  0  0  0  0
    0.1600   22.4320  -35.0820 N   0  0  0  0  0  0  0  0  0  0  0  0
    0.3280   20.9960  -35.2990 C   0  0  0  0  0  0  0  0  0  0  0  0
   -0.6660   20.2150  -34.4390 C   0  0  0  0  0  0  0  0  0  0  0  0
   -1.5200   21.1050  -33.7220 O   0  0  0  0  0  0  0  0  0  0  0  0
   -2.8840   20.8940  -33.4610 C   0  0  0  0  0  0  0  0  0  0  0  0
   -3.4210   19.6130  -33.7370 C   0  0  0  0  0  0  0  0  0  0  0  0
   -4.7780   19.3280  -33.5000 C   0  0  0  0  0  0  0  0  0  0  0  0
   -5.5720   20.3500  -32.9900 C   0  0  0  0  0  0  0  0  0  0  0  0
   -5.0670   21.6030  -32.7190 C   0  0  0  0  0  0  0  0  0  0  0  0
   -3.7270   21.9110  -32.9440 C   0  0  0  0  0  0  0  0  0  0  0  0
   -6.0040   22.4010  -32.2460 O   0  0  0  0  0  0  0  0  0  0  0  0
   -7.1150   21.6910  -32.2020 C   0  0  0  0  0  0  0  0  0  0  0  0
   -8.3710   22.1080  -31.7710 C   0  0  0  0  0  0  0  0  0  0  0  0
   -9.4250   21.1740  -31.8110 C   0  0  0  0  0  0  0  0  0  0  0  0
   -9.2000   19.8570  -32.2750 C   0  0  0  0  0  0  0  0  0  0  0  0
   -7.9220   19.4590  -32.7050 C   0  0  0  0  0  0  0  0  0  0  0  0
   -6.9020   20.4060  -32.6540 C   0  0  0  0  0  0  0  0  0  0  0  0
   -0.2224   26.0469  -35.6842 H   0  0  0  0  0  0  0  0  0  0  0  0
    0.8952   26.0439  -37.0905 H   0  0  0  0  0  0  0  0  0  0  0  0
   -0.5514   24.9789  -37.0905 H   0  0  0  0  0  0  0  0  0  0  0  0
    2.1040   24.4046  -36.1240 H   0  0  0  0  0  0  0  0  0  0  0  0
    0.9844   24.4033  -34.7205 H   0  0  0  0  0  0  0  0  0  0  0  0
   -0.8620   22.6240  -34.9630 H   0  0  0  0  0  0  0  0  0  0  0  0
    0.1511   20.7652  -36.3599 H   0  0  0  0  0  0  0  0  0  0  0  0
    1.3516   20.7068  -35.0187 H   0  0  0  0  0  0  0  0  0  0  0  0
   -1.2781   19.5719  -35.0884 H   0  0  0  0  0  0  0  0  0  0  0  0
   -0.1051   19.6040  -33.7165 H   0  0  0  0  0  0  0  0  0  0  0  0
   -2.7663   18.8280  -34.1434 H   0  0  0  0  0  0  0  0  0  0  0  0
   -5.1963   18.3326  -33.7104 H   0  0  0  0  0  0  0  0  0  0  0  0
   -3.3336   22.9150  -32.7268 H   0  0  0  0  0  0  0  0  0  0  0  0
   -8.5355   23.1342  -31.4106 H   0  0  0  0  0  0  0  0  0  0  0  0
  -10.4306   21.4713  -31.4788 H   0  0  0  0  0  0  0  0  0  0  0  0
  -10.0321   19.1379  -32.2996 H   0  0  0  0  0  0  0  0  0  0  0  0
   -7.7347   18.4377  -33.0682 H   0  0  0  0  0  0  0  0  0  0  0  0
  1  2  1  0
  2  3  1  0
  3  4  1  0
  4  5  1  0
  5  6  1  0
  6  7  1  0
  7  8  1  0
  8  9  2  0
  9 10  1  0
 10 11  2  0
 11 12  1  0
 12 13  2  0
 12 14  1  0
 14 15  1  0
 15 16  2  0
 16 17  1  0
 17 18  2  0
 18 19  1  0
 19 20  2  0
 13  8  1  0
 20 15  1  0
 20 11  1  0
  1 21  1  0
  1 22  1  0
  1 23  1  0
  2 24  1  0
  2 25  1  0
  4 26  1  0
  5 27  1  0
  5 28  1  0
  6 29  1  0
  6 30  1  0
  9 31  1  0
 10 32  1  0
 13 33  1  0
 16 34  1  0
 17 35  1  0
 18 36  1  0
 19 37  1  0
M  END
>  <UniqueID>  (16) 
16

>  <SMILES>  (16) 
CCONCCOc1ccc2c(c1)oc1ccccc12

>  <Energy>  (16) 
73.11256451821758

>  <Genealogy>  (16) 
CCONCCOc1ccc2c(c1)oc1ccccc12 (3D coordinates assigned)
CCONCCOc1ccc2c(c1)oc1ccccc12 (optimized conformer: 73.11256451821758 kcal/mol)

>  <smiles>  (16) 
CCONCCOc1ccc2c(c1)oc1ccccc12

>  <score_type>  (16) 
oracle

>  <origin>  (16) 
adg

>  <m_score__min__energy>  (16) 
-7.7699999999999996

>  <m_primary>  (16) 
energy

$$$$
17:0
     RDKit          3D

 52 54  0  0  0  0  0  0  0  0999 V2000
   -1.1160   26.7900  -24.4190 C   0  0  0  0  0  0  0  0  0  0  0  0
   -0.8030   25.3170  -24.6140 C   0  0  0  0  0  0  0  0  0  0  0  0
   -0.8930   24.9970  -25.9840 O   0  0  0  0  0  0  0  0  0  0  0  0
   -1.2450   26.1560  -26.7130 C   0  0  0  0  0  0  0  0  0  0  0  0
   -0.8460   25.9810  -28.1740 C   0  0  0  0  0  0  0  0  0  0  0  0
   -1.9900   25.6750  -28.9430 O   0  0  0  0  0  0  0  0  0  0  0  0
   -2.4180   24.3610  -28.6500 C   0  0  0  0  0  0  0  0  0  0  0  0
   -2.8520   23.6660  -29.9340 C   0  0  0  0  0  0  0  0  0  0  0  0
   -3.6460   24.5490  -30.7030 O   0  0  0  0  0  0  0  0  0  0  0  0
   -5.0180   24.3740  -30.4180 C   0  0  0  0  0  0  0  0  0  0  0  0
   -5.7940   24.1700  -31.7160 C   0  0  0  0  0  0  0  0  0  0  0  0
   -6.0060   22.7430  -31.9880 N   0  0  0  0  0  0  0  0  0  0  0  0
   -5.0880   21.8420  -32.4090 C   0  0  0  0  0  0  0  0  0  0  0  0
   -3.7280   22.0690  -32.6510 C   0  0  0  0  0  0  0  0  0  0  0  0
   -2.9470   21.0010  -33.1160 C   0  0  0  0  0  0  0  0  0  0  0  0
   -3.5270   19.7360  -33.3340 C   0  0  0  0  0  0  0  0  0  0  0  0
   -2.5400   18.4240  -33.9420 Cl  0  0  0  0  0  0  0  0  0  0  0  0
   -4.8920   19.5180  -33.0750 C   0  0  0  0  0  0  0  0  0  0  0  0
   -5.6550   20.5910  -32.6030 C   0  0  0  0  0  0  0  0  0  0  0  0
   -6.9980   20.7280  -32.2610 C   0  0  0  0  0  0  0  0  0  0  0  0
   -7.1650   22.0500  -31.8900 C   0  0  0  0  0  0  0  0  0  0  0  0
   -8.4130   22.5210  -31.4840 C   0  0  0  0  0  0  0  0  0  0  0  0
   -9.4800   21.6170  -31.4750 C   0  0  0  0  0  0  0  0  0  0  0  0
   -9.2780   20.2810  -31.8690 C   0  0  0  0  0  0  0  0  0  0  0  0
   -8.0370   19.8340  -32.2570 N   0  0  0  0  0  0  0  0  0  0  0  0
   -7.8710   18.4310  -32.6470 C   0  0  0  0  0  0  0  0  0  0  0  0
   -1.1639   27.0154  -23.3434 H   0  0  0  0  0  0  0  0  0  0  0  0
   -0.3269   27.3975  -24.8862 H   0  0  0  0  0  0  0  0  0  0  0  0
   -2.0840   27.0241  -24.8862 H   0  0  0  0  0  0  0  0  0  0  0  0
    0.2151   25.1073  -24.2542 H   0  0  0  0  0  0  0  0  0  0  0  0
   -1.5236   24.7098  -24.0465 H   0  0  0  0  0  0  0  0  0  0  0  0
   -2.3315   26.3146  -26.6465 H   0  0  0  0  0  0  0  0  0  0  0  0
   -0.7199   27.0262  -26.2922 H   0  0  0  0  0  0  0  0  0  0  0  0
   -0.3942   26.9130  -28.5445 H   0  0  0  0  0  0  0  0  0  0  0  0
   -0.1182   25.1605  -28.2586 H   0  0  0  0  0  0  0  0  0  0  0  0
   -1.5900   23.8000  -28.1921 H   0  0  0  0  0  0  0  0  0  0  0  0
   -3.2669   24.4008  -27.9516 H   0  0  0  0  0  0  0  0  0  0  0  0
   -1.9625   23.3749  -30.5120 H   0  0  0  0  0  0  0  0  0  0  0  0
   -3.4375   22.7686  -29.6853 H   0  0  0  0  0  0  0  0  0  0  0  0
   -5.1474   23.4925  -29.7729 H   0  0  0  0  0  0  0  0  0  0  0  0
   -5.3990   25.2688  -29.9040 H   0  0  0  0  0  0  0  0  0  0  0  0
   -6.7710   24.6685  -31.6323 H   0  0  0  0  0  0  0  0  0  0  0  0
   -5.2095   24.5996  -32.5429 H   0  0  0  0  0  0  0  0  0  0  0  0
   -3.2830   23.0604  -32.4807 H   0  0  0  0  0  0  0  0  0  0  0  0
   -1.8751   21.1521  -33.3116 H   0  0  0  0  0  0  0  0  0  0  0  0
   -5.3473   18.5302  -33.2392 H   0  0  0  0  0  0  0  0  0  0  0  0
   -8.5536   23.5690  -31.1808 H   0  0  0  0  0  0  0  0  0  0  0  0
  -10.4794   21.9509  -31.1593 H   0  0  0  0  0  0  0  0  0  0  0  0
  -10.1277   19.5824  -31.8665 H   0  0  0  0  0  0  0  0  0  0  0  0
   -7.7970   17.8059  -31.7449 H   0  0  0  0  0  0  0  0  0  0  0  0
   -8.7376   18.1115  -33.2444 H   0  0  0  0  0  0  0  0  0  0  0  0
   -6.9538   18.3226  -33.2444 H   0  0  0  0  0  0  0  0  0  0  0  0
  1  2  1  0
  2  3  1  0
  3  4  1  0
  4  5  1  0
  5  6  1  0
  6  7  1  0
  7  8  1  0
  8  9  1  0
  9 10  1  0
 10 11  1  0
 11 12  1  0
 12 13  1  0
 13 14  2  0
 14 15  1  0
 15 16  2  0
 16 17  1  0
 16 18  1  0
 18 19  2  0
 19 20  1  0
 20 21  2  0
 21 22  1  0
 22 23  2  0
 23 24  1  0
 24 25  2  0
 25 26  1  0
 21 12  1  0
 19 13  1  0
 25 20  1  0
  1 27  1  0
  1 28  1  0
  1 29  1  0
  2 30  1  0
  2 31  1  0
  4 32  1  0
  4 33  1  0
  5 34  1  0
  5 35  1  0
  7 36  1  0
  7 37  1  0
  8 38  1  0
  8 39  1  0
 10 40  1  0
 10 41  1  0
 11 42  1  0
 11 43  1  0
 14 44  1  0
 15 45  1  0
 18 46  1  0
 22 47  1  0
 23 48  1  0
 24 49  1  0
 26 50  1  0
 26 51  1  0
 26 52  1  0
M  CHG  1  25   1
M  END
>  <UniqueID>  (17) 
17

>  <SMILES>  (17) 
CCOCCOCCOCCn1c2ccc(Cl)cc2c2c1ccc[n+]2C

>  <Energy>  (17) 
93.75151525997065

>  <Genealogy>  (17) 
CCOCCOCCOCCn1c2ccc(Cl)cc2c2c1ccc[n+]2C (3D coordinates assigned)
CCOCCOCCOCCn1c2ccc(Cl)cc2c2c1ccc[n+]2C (optimized conformer: 93.75151525997065 kcal/mol)

>  <smiles>  (17) 
CCOCCOCCOCCn1c2ccc(Cl)cc2c2c1ccc[n+]2C

>  <score_type>  (17) 
oracle

>  <origin>  (17) 
adg

>  <m_score__min__energy>  (17) 
-8.5700000000000003

>  <m_primary>  (17) 
energy

$$$$
18:0
     RDKit          3D

 53 54  0  0  0  0  0  0  0  0999 V2000
   -6.7550   17.0480  -33.6500 C   0  0  0  0  0  0  0  0  0  0  0  0
   -6.9190   18.1950  -32.6430 C   0  0  0  0  0  0  0  0  0  0  0  0
   -6.5020   17.7760  -31.2230 C   0  0  0  0  0  0  0  0  0  0  0  0
   -8.2740   18.7850  -32.6860 N   0  0  0  0  0  0  0  0  0  0  0  0
   -8.3270   20.2560  -32.8710 C   0  0  2  0  0  0  0  0  0  0  0  0
   -6.9000   20.8450  -32.7300 C   0  0  0  0  0  0  0  0  0  0  0  0
   -6.6410   21.4250  -31.3340 C   0  0  0  0  0  0  0  0  0  0  0  0
   -7.6270   22.5820  -30.9830 C   0  0  1  0  0  0  0  0  0  0  0  0
   -7.0590   23.9070  -31.3280 N   0  0  0  0  0  0  0  0  0  0  0  0
   -6.8490   24.7500  -30.1350 C   0  0  0  0  0  0  0  0  0  0  0  0
   -5.5620   25.5850  -30.2510 C   0  0  0  0  0  0  0  0  0  0  0  0
   -4.5780   24.9330  -31.1280 N   0  0  0  0  0  0  0  0  0  0  0  0
   -3.6500   24.0790  -30.3750 C   0  0  0  0  0  0  0  0  0  0  0  0
   -3.4620   22.7850  -31.1150 C   0  0  0  0  0  0  0  0  0  0  0  0
   -3.9620   22.6280  -32.4180 C   0  0  0  0  0  0  0  0  0  0  0  0
   -3.8150   21.4080  -33.0860 C   0  0  0  0  0  0  0  0  0  0  0  0
   -3.1780   20.3350  -32.4530 C   0  0  0  0  0  0  0  0  0  0  0  0
   -3.0380   19.1520  -33.0990 F   0  0  0  0  0  0  0  0  0  0  0  0
   -2.6920   20.4810  -31.1490 C   0  0  0  0  0  0  0  0  0  0  0  0
   -2.8360   21.7000  -30.4810 C   0  0  0  0  0  0  0  0  0  0  0  0
   -9.0050   22.3950  -31.6780 C   0  0  0  0  0  0  0  0  0  0  0  0
   -9.3330   20.9140  -31.8860 C   0  0  1  0  0  0  0  0  0  0  0  0
  -10.6200   20.7910  -32.3840 F   0  0  0  0  0  0  0  0  0  0  0  0
   -6.6195   16.1006  -33.1078 H   0  0  0  0  0  0  0  0  0  0  0  0
   -7.6531   16.9836  -34.2819 H   0  0  0  0  0  0  0  0  0  0  0  0
   -5.8749   17.2379  -34.2819 H   0  0  0  0  0  0  0  0  0  0  0  0
   -6.2265   18.9929  -32.9492 H   0  0  0  0  0  0  0  0  0  0  0  0
   -7.0780   18.3547  -30.4859 H   0  0  0  0  0  0  0  0  0  0  0  0
   -6.7015   16.7032  -31.0838 H   0  0  0  0  0  0  0  0  0  0  0  0
   -5.4283   17.9704  -31.0838 H   0  0  0  0  0  0  0  0  0  0  0  0
   -8.8240   18.2790  -33.4210 H   0  0  0  0  0  0  0  0  0  0  0  0
   -8.6951   20.4802  -33.8831 H   0  0  0  0  0  0  0  0  0  0  0  0
   -6.1680   20.0467  -32.9220 H   0  0  0  0  0  0  0  0  0  0  0  0
   -6.8028   21.6651  -33.4567 H   0  0  0  0  0  0  0  0  0  0  0  0
   -6.7572   20.6229  -30.5902 H   0  0  0  0  0  0  0  0  0  0  0  0
   -5.6209   21.8365  -31.3238 H   0  0  0  0  0  0  0  0  0  0  0  0
   -7.7819   22.5435  -29.8946 H   0  0  0  0  0  0  0  0  0  0  0  0
   -6.1590   23.7710  -31.8440 H   0  0  0  0  0  0  0  0  0  0  0  0
   -7.7190   24.4190  -31.9590 H   0  0  0  0  0  0  0  0  0  0  0  0
   -7.7066   25.4297  -30.0227 H   0  0  0  0  0  0  0  0  0  0  0  0
   -6.7534   24.0903  -29.2600 H   0  0  0  0  0  0  0  0  0  0  0  0
   -5.8121   26.5728  -30.6655 H   0  0  0  0  0  0  0  0  0  0  0  0
   -5.1210   25.6835  -29.2481 H   0  0  0  0  0  0  0  0  0  0  0  0
   -4.0140   25.6820  -31.5940 H   0  0  0  0  0  0  0  0  0  0  0  0
   -2.6807   24.5890  -30.2727 H   0  0  0  0  0  0  0  0  0  0  0  0
   -4.0607   23.8775  -29.3746 H   0  0  0  0  0  0  0  0  0  0  0  0
   -4.4709   23.4672  -32.9148 H   0  0  0  0  0  0  0  0  0  0  0  0
   -4.2004   21.2920  -34.1097 H   0  0  0  0  0  0  0  0  0  0  0  0
   -2.1962   19.6357  -30.6493 H   0  0  0  0  0  0  0  0  0  0  0  0
   -2.4573   21.8099  -29.4541 H   0  0  0  0  0  0  0  0  0  0  0  0
   -9.7861   22.8493  -31.0507 H   0  0  0  0  0  0  0  0  0  0  0  0
   -8.9625   22.8806  -32.6641 H   0  0  0  0  0  0  0  0  0  0  0  0
   -9.2568   20.3995  -30.9167 H   0  0  0  0  0  0  0  0  0  0  0  0
  1  2  1  0
  2  3  1  0
  2  4  1  0
  4  5  1  0
  5  6  1  0
  6  7  1  0
  7  8  1  0
  8  9  1  0
  9 10  1  0
 10 11  1  0
 11 12  1  0
 12 13  1  0
 13 14  1  0
 14 15  2  0
 15 16  1  0
 16 17  2  0
 17 18  1  0
 17 19  1  0
 19 20  2  0
  8 21  1  0
 21 22  1  0
 22 23  1  0
 22  5  1  0
 20 14  1  0
  1 24  1  0
  1 25  1  0
  1 26  1  0
  2 27  1  0
  3 28  1  0
  3 29  1  0
  3 30  1  0
  4 31  1  0
  5 32  1  6
  6 33  1  0
  6 34  1  0
  7 35  1  0
  7 36  1  0
  8 37  1  1
  9 38  1  0
  9 39  1  0
 10 40  1  0
 10 41  1  0
 11 42  1  0
 11 43  1  0
 12 44  1  0
 13 45  1  0
 13 46  1  0
 15 47  1  0
 16 48  1  0
 19 49  1  0
 20 50  1  0
 21 51  1  0
 21 52  1  0
 22 53  1  1
M  CHG  1   9   1
M  END
>  <UniqueID>  (18) 
18

>  <SMILES>  (18) 
CC(C)N[C@@H]1CC[C@@H]([NH2+]CCNCc2ccc(F)cc2)CC1F

>  <Energy>  (18) 
55.1385751965461

>  <Genealogy>  (18) 
CC(C)NC1CCC([NH2+]CCNCc2ccc(F)cc2)CC1F (protonated)
CC(C)N[C@@H]1CC[C@@H]([NH2+]CCNCc2ccc(F)cc2)CC1F (chirality)
CC(C)N[C@@H]1CC[C@@H]([NH2+]CCNCc2ccc(F)cc2)CC1F (3D coordinates assigned)
CC(C)N[C@@H]1CC[C@@H]([NH2+]CCNCc2ccc(F)cc2)CC1F (nonaromatic ring conformer: 55.1385751965461 kcal/mol)

>  <smiles>  (18) 
CC(C)NC1CCC(NCCNCc2ccc(F)cc2)CC1F

>  <score_type>  (18) 
oracle

>  <origin>  (18) 
adg

>  <m_score__min__energy>  (18) 
-7.4800000000000004

>  <m_primary>  (18) 
energy

$$$$
19:0
     RDKit          3D

 47 49  0  0  0  0  0  0  0  0999 V2000
   -6.0970   25.5640  -29.7240 C   0  0  0  0  0  0  0  0  0  0  0  0
   -4.9650   24.5510  -29.8060 C   0  0  0  0  0  0  0  0  0  0  0  0
   -4.6170   24.3230  -31.2060 N   0  0  0  0  0  0  0  0  0  0  0  0
   -4.8960   22.6580  -31.6190 S   0  0  0  0  0  0  0  0  0  0  0  0
   -4.1830   22.3480  -32.9060 O   0  0  0  0  0  0  0  0  0  0  0  0
   -4.3330   21.7770  -30.5390 O   0  0  0  0  0  0  0  0  0  0  0  0
   -6.6350   22.3400  -31.7790 C   0  0  0  0  0  0  0  0  0  0  0  0
   -7.5090   23.4360  -31.8610 C   0  0  0  0  0  0  0  0  0  0  0  0
   -8.8850   23.2460  -31.9700 C   0  0  0  0  0  0  0  0  0  0  0  0
   -9.4170   21.9600  -31.9990 C   0  0  0  0  0  0  0  0  0  0  0  0
   -8.5720   20.8450  -31.9180 C   0  0  0  0  0  0  0  0  0  0  0  0
   -9.1170   19.5530  -31.9430 C   0  0  0  0  0  0  0  0  0  0  0  0
   -8.2880   18.4350  -31.8620 C   0  0  0  0  0  0  0  0  0  0  0  0
   -6.8940   18.5900  -31.7600 C   0  0  0  0  0  0  0  0  0  0  0  0
   -6.0140   17.4980  -31.6780 O   0  0  0  0  0  0  0  0  0  0  0  0
   -5.0540   17.1230  -32.6680 C   0  0  0  0  0  0  0  0  0  0  0  0
   -4.9530   15.5830  -32.7680 C   0  0  0  0  0  0  0  0  0  0  0  0
   -4.7910   15.0770  -34.2160 C   0  0  0  0  0  0  0  0  0  0  0  0
   -3.9530   15.9720  -35.0410 N   0  0  0  0  0  0  0  0  0  0  0  0
   -2.5350   15.9160  -34.6440 C   0  0  0  0  0  0  0  0  0  0  0  0
   -4.4640   17.3660  -35.1170 C   0  0  0  0  0  0  0  0  0  0  0  0
   -5.4710   17.7310  -34.0080 C   0  0  0  0  0  0  0  0  0  0  0  0
   -6.3470   19.8770  -31.7320 C   0  0  0  0  0  0  0  0  0  0  0  0
   -7.1670   21.0220  -31.8090 C   0  0  0  0  0  0  0  0  0  0  0  0
   -6.3282   25.7709  -28.6687 H   0  0  0  0  0  0  0  0  0  0  0  0
   -5.7917   26.4961  -30.2220 H   0  0  0  0  0  0  0  0  0  0  0  0
   -6.9896   25.1575  -30.2220 H   0  0  0  0  0  0  0  0  0  0  0  0
   -4.0869   24.9379  -29.2681 H   0  0  0  0  0  0  0  0  0  0  0  0
   -5.2866   23.6036  -29.3489 H   0  0  0  0  0  0  0  0  0  0  0  0
   -7.1021   24.4577  -31.8389 H   0  0  0  0  0  0  0  0  0  0  0  0
   -9.5543   24.1166  -32.0335 H   0  0  0  0  0  0  0  0  0  0  0  0
  -10.5044   21.8185  -32.0858 H   0  0  0  0  0  0  0  0  0  0  0  0
  -10.2058   19.4209  -32.0271 H   0  0  0  0  0  0  0  0  0  0  0  0
   -8.7266   17.4264  -31.8780 H   0  0  0  0  0  0  0  0  0  0  0  0
   -4.0604   17.5026  -32.3876 H   0  0  0  0  0  0  0  0  0  0  0  0
   -4.0830   15.2510  -32.1824 H   0  0  0  0  0  0  0  0  0  0  0  0
   -5.8951   15.1680  -32.3804 H   0  0  0  0  0  0  0  0  0  0  0  0
   -4.3240   14.0813  -34.1910 H   0  0  0  0  0  0  0  0  0  0  0  0
   -5.7918   15.0448  -34.6713 H   0  0  0  0  0  0  0  0  0  0  0  0
   -2.4614   15.9131  -33.5465 H   0  0  0  0  0  0  0  0  0  0  0  0
   -2.0780   14.9991  -35.0446 H   0  0  0  0  0  0  0  0  0  0  0  0
   -2.0071   16.7940  -35.0446 H   0  0  0  0  0  0  0  0  0  0  0  0
   -3.6072   18.0520  -35.0444 H   0  0  0  0  0  0  0  0  0  0  0  0
   -5.0007   17.4544  -36.0731 H   0  0  0  0  0  0  0  0  0  0  0  0
   -5.5153   18.8256  -33.9082 H   0  0  0  0  0  0  0  0  0  0  0  0
   -6.4572   17.3292  -34.2837 H   0  0  0  0  0  0  0  0  0  0  0  0
   -5.2569   19.9984  -31.6484 H   0  0  0  0  0  0  0  0  0  0  0  0
  1  2  1  0
  2  3  1  0
  3  4  1  0
  4  5  2  0
  4  6  2  0
  4  7  1  0
  7  8  2  0
  8  9  1  0
  9 10  2  0
 10 11  1  0
 11 12  2  0
 12 13  1  0
 13 14  2  0
 14 15  1  0
 15 16  1  0
 16 17  1  0
 17 18  1  0
 18 19  1  0
 19 20  1  0
 19 21  1  0
 21 22  1  0
 14 23  1  0
 23 24  2  0
 24  7  1  0
 24 11  1  0
 22 16  1  0
  1 25  1  0
  1 26  1  0
  1 27  1  0
  2 28  1  0
  2 29  1  0
  8 30  1  0
  9 31  1  0
 10 32  1  0
 12 33  1  0
 13 34  1  0
 16 35  1  0
 17 36  1  0
 17 37  1  0
 18 38  1  0
 18 39  1  0
 20 40  1  0
 20 41  1  0
 20 42  1  0
 21 43  1  0
 21 44  1  0
 22 45  1  0
 22 46  1  0
 23 47  1  0
M  CHG  1   3  -1
M  END
>  <UniqueID>  (19) 
19

>  <SMILES>  (19) 
CC[N-]S(=O)(=O)c1cccc2ccc(OC3CCN(C)CC3)cc12

>  <Energy>  (19) 
56.96634556921387

>  <Genealogy>  (19) 
CC[N-]S(=O)(=O)c1cccc2ccc(OC3CCN(C)CC3)cc12 (protonated)
CC[N-]S(=O)(=O)c1cccc2ccc(OC3CCN(C)CC3)cc12 (3D coordinates assigned)
CC[N-]S(=O)(=O)c1cccc2ccc(OC3CCN(C)CC3)cc12 (nonaromatic ring conformer: 56.96634556921387 kcal/mol)

>  <smiles>  (19) 
CCNS(=O)(=O)c1cccc2ccc(OC3CCN(C)CC3)cc12

>  <score_type>  (19) 
oracle

>  <origin>  (19) 
adg

>  <m_score__min__energy>  (19) 
-9.7699999999999996

>  <m_primary>  (19) 
energy

$$$$
20:0
     RDKit          3D

 40 42  0  0  0  0  0  0  0  0999 V2000
   -7.5210   17.7050  -32.6760 C   0  0  0  0  0  0  0  0  0  0  0  0
   -7.3820   19.1910  -32.5210 C   0  0  0  0  0  0  0  0  0  0  0  0
   -8.4830   19.9670  -32.1300 C   0  0  0  0  0  0  0  0  0  0  0  0
   -8.3450   21.3460  -31.9470 C   0  0  0  0  0  0  0  0  0  0  0  0
   -7.1000   21.9670  -32.1420 C   0  0  0  0  0  0  0  0  0  0  0  0
   -6.9510   23.4500  -31.9200 C   0  0  0  0  0  0  0  0  0  0  0  0
   -7.2110   23.8480  -30.4580 C   0  0  0  0  0  0  0  0  0  0  0  0
   -5.9670   24.4280  -29.7460 C   0  0  2  0  0  0  0  0  0  0  0  0
   -5.2590   25.5030  -30.5950 C   0  0  0  0  0  0  0  0  0  0  0  0
   -3.8560   25.3050  -30.5350 O   0  0  0  0  0  0  0  0  0  0  0  0
   -3.6590   24.3520  -29.5250 C   0  0  2  0  0  0  0  0  0  0  0  0
   -2.3900   23.5150  -29.6970 C   0  0  0  0  0  0  0  0  0  0  0  0
   -2.5570   22.1400  -29.0030 C   0  0  0  0  0  0  0  0  0  0  0  0
   -3.6900   22.1430  -27.9330 C   0  0  0  0  0  0  0  0  0  0  0  0
   -4.9510   22.6780  -28.3520 O   0  0  0  0  0  0  0  0  0  0  0  0
   -4.8550   23.4300  -29.5480 C   0  0  1  0  0  0  0  0  0  0  0  0
   -5.9950   21.1860  -32.5170 C   0  0  0  0  0  0  0  0  0  0  0  0
   -6.1340   19.8060  -32.6990 C   0  0  0  0  0  0  0  0  0  0  0  0
   -7.5649   17.2352  -31.6823 H   0  0  0  0  0  0  0  0  0  0  0  0
   -8.4442   17.4789  -33.2296 H   0  0  0  0  0  0  0  0  0  0  0  0
   -6.6557   17.3116  -33.2296 H   0  0  0  0  0  0  0  0  0  0  0  0
   -9.4597   19.4882  -31.9666 H   0  0  0  0  0  0  0  0  0  0  0  0
   -9.2159   21.9481  -31.6487 H   0  0  0  0  0  0  0  0  0  0  0  0
   -5.9274   23.7476  -32.1914 H   0  0  0  0  0  0  0  0  0  0  0  0
   -7.6964   23.9616  -32.5466 H   0  0  0  0  0  0  0  0  0  0  0  0
   -8.0076   24.6063  -30.4400 H   0  0  0  0  0  0  0  0  0  0  0  0
   -7.4946   22.9321  -29.9189 H   0  0  0  0  0  0  0  0  0  0  0  0
   -6.3895   24.7942  -28.7987 H   0  0  0  0  0  0  0  0  0  0  0  0
   -5.5958   25.4259  -31.6393 H   0  0  0  0  0  0  0  0  0  0  0  0
   -5.5054   26.5007  -30.2028 H   0  0  0  0  0  0  0  0  0  0  0  0
   -3.5434   24.8893  -28.5722 H   0  0  0  0  0  0  0  0  0  0  0  0
   -2.1997   23.3599  -30.7693 H   0  0  0  0  0  0  0  0  0  0  0  0
   -1.5440   24.0478  -29.2383 H   0  0  0  0  0  0  0  0  0  0  0  0
   -2.7963   21.3862  -29.7675 H   0  0  0  0  0  0  0  0  0  0  0  0
   -1.6127   21.9096  -28.4880 H   0  0  0  0  0  0  0  0  0  0  0  0
   -3.8551   21.1029  -27.6154 H   0  0  0  0  0  0  0  0  0  0  0  0
   -3.3379   22.8093  -27.1317 H   0  0  0  0  0  0  0  0  0  0  0  0
   -4.8405   22.6454  -30.3188 H   0  0  0  0  0  0  0  0  0  0  0  0
   -5.0149   21.6618  -32.6685 H   0  0  0  0  0  0  0  0  0  0  0  0
   -5.2607   19.2004  -32.9830 H   0  0  0  0  0  0  0  0  0  0  0  0
  1  2  1  0
  2  3  2  0
  3  4  1  0
  4  5  2  0
  5  6  1  0
  6  7  1  0
  7  8  1  0
  8  9  1  0
  9 10  1  0
 10 11  1  0
 11 12  1  0
 12 13  1  0
 13 14  1  0
 14 15  1  0
 15 16  1  0
  5 17  1  0
 17 18  2  0
 18  2  1  0
 16  8  1  0
 16 11  1  0
  1 19  1  0
  1 20  1  0
  1 21  1  0
  3 22  1  0
  4 23  1  0
  6 24  1  0
  6 25  1  0
  7 26  1  0
  7 27  1  0
  8 28  1  1
  9 29  1  0
  9 30  1  0
 11 31  1  1
 12 32  1  0
 12 33  1  0
 13 34  1  0
 13 35  1  0
 14 36  1  0
 14 37  1  0
 16 38  1  6
 17 39  1  0
 18 40  1  0
M  END
>  <UniqueID>  (20) 
20

>  <SMILES>  (20) 
Cc1ccc(CC[C@@H]2CO[C@@H]3CCCOC23)cc1

>  <Energy>  (20) 
52.26510053730583

>  <Genealogy>  (20) 
Cc1ccc(CC[C@@H]2CO[C@@H]3CCCOC23)cc1 (chirality)
Cc1ccc(CC[C@@H]2CO[C@@H]3CCCOC23)cc1 (3D coordinates assigned)
Cc1ccc(CC[C@@H]2CO[C@@H]3CCCOC23)cc1 (nonaromatic ring conformer: 52.26510053730583 kcal/mol)

>  <smiles>  (20) 
Cc1ccc(CCC2COC3CCCOC23)cc1

>  <score_type>  (20) 
oracle

>  <origin>  (20) 
adg

>  <m_score__min__energy>  (20) 
-8.2400000000000002

>  <m_primary>  (20) 
energy

$$$$
21:0
     RDKit          3D

 78 81  0  0  0  0  0  0  0  0999 V2000
   -6.1070   25.5810  -29.7100 C   0  0  0  0  0  0  0  0  0  0  0  0
   -5.7970   24.6350  -30.8810 C   0  0  0  0  0  0  0  0  0  0  0  0
   -4.4220   24.0780  -30.8640 N   0  0  0  0  0  0  0  0  0  0  0  0
   -3.6410   24.5700  -29.7100 C   0  0  0  0  0  0  0  0  0  0  0  0
   -4.4190   22.6020  -30.9670 C   0  0  0  0  0  0  0  0  0  0  0  0
   -3.4800   22.1130  -32.0890 C   0  0  0  0  0  0  0  0  0  0  0  0
   -4.1740   21.8310  -33.3660 N   0  0  0  0  0  0  0  0  0  0  0  0
   -4.6810   20.4650  -33.4610 C   0  0  0  0  0  0  0  0  0  0  0  0
   -3.8150   19.3980  -33.8340 C   0  0  0  0  0  0  0  0  0  0  0  0
   -2.4640   19.6240  -34.1960 C   0  0  0  0  0  0  0  0  0  0  0  0
   -1.5790   18.5670  -34.3780 C   0  0  0  0  0  0  0  0  0  0  0  0
   -2.0130   17.2490  -34.2130 C   0  0  0  0  0  0  0  0  0  0  0  0
   -1.1380   16.1490  -34.2320 O   0  0  0  0  0  0  0  0  0  0  0  0
   -0.1300   15.8720  -33.2610 C   0  0  0  0  0  0  0  0  0  0  0  0
   -0.5820   14.8620  -32.1670 C   0  0  0  0  0  0  0  0  0  0  0  0
   -1.1350   13.5340  -32.6170 N   0  0  0  0  0  0  0  0  0  0  0  0
   -0.0830   12.7400  -33.3030 C   0  0  0  0  0  0  0  0  0  0  0  0
   -2.2930   13.7140  -33.5570 C   0  0  0  0  0  0  0  0  0  0  0  0
   -3.6390   13.8460  -32.8170 C   0  0  0  0  0  0  0  0  0  0  0  0
   -3.9900   12.6000  -32.0650 N   0  0  0  0  0  0  0  0  0  0  0  0
   -4.7930   12.9650  -30.8700 C   0  0  0  0  0  0  0  0  0  0  0  0
   -4.8270   11.7210  -32.9200 C   0  0  0  0  0  0  0  0  0  0  0  0
   -2.7670   11.8440  -31.6400 C   0  0  0  0  0  0  0  0  0  0  0  0
   -1.5670   12.7810  -31.3870 C   0  0  0  0  0  0  0  0  0  0  0  0
   -3.3660   17.0040  -33.9880 C   0  0  0  0  0  0  0  0  0  0  0  0
   -4.2960   18.0600  -33.8120 C   0  0  0  0  0  0  0  0  0  0  0  0
   -5.6310   17.8030  -33.5910 N   0  0  0  0  0  0  0  0  0  0  0  0
   -6.1620   16.4290  -33.7400 C   0  0  0  0  0  0  0  0  0  0  0  0
   -6.4770   18.8080  -33.1900 C   0  0  0  0  0  0  0  0  0  0  0  0
   -7.7670   18.5120  -32.8540 N   0  0  0  0  0  0  0  0  0  0  0  0
   -8.6530   19.4410  -32.4230 C   0  0  0  0  0  0  0  0  0  0  0  0
   -8.2520   20.7610  -32.2900 C   0  0  0  0  0  0  0  0  0  0  0  0
   -6.9460   21.1160  -32.6140 C   0  0  0  0  0  0  0  0  0  0  0  0
   -6.0230   20.1490  -33.0920 C   0  0  0  0  0  0  0  0  0  0  0  0
   -5.9349   25.0558  -28.7589 H   0  0  0  0  0  0  0  0  0  0  0  0
   -5.4505   26.4618  -29.7665 H   0  0  0  0  0  0  0  0  0  0  0  0
   -7.1575   25.9024  -29.7665 H   0  0  0  0  0  0  0  0  0  0  0  0
   -6.5092   23.7974  -30.8459 H   0  0  0  0  0  0  0  0  0  0  0  0
   -5.8858   25.2309  -31.8013 H   0  0  0  0  0  0  0  0  0  0  0  0
   -4.1325   24.2604  -28.7759 H   0  0  0  0  0  0  0  0  0  0  0  0
   -2.6259   24.1480  -29.7476 H   0  0  0  0  0  0  0  0  0  0  0  0
   -3.5833   25.6678  -29.7476 H   0  0  0  0  0  0  0  0  0  0  0  0
   -4.0822   22.1780  -30.0095 H   0  0  0  0  0  0  0  0  0  0  0  0
   -5.4408   22.2716  -31.2051 H   0  0  0  0  0  0  0  0  0  0  0  0
   -2.7218   22.8891  -32.2700 H   0  0  0  0  0  0  0  0  0  0  0  0
   -3.0379   21.1654  -31.7476 H   0  0  0  0  0  0  0  0  0  0  0  0
   -4.9060   22.5500  -33.5250 H   0  0  0  0  0  0  0  0  0  0  0  0
   -3.5170   22.0120  -34.1590 H   0  0  0  0  0  0  0  0  0  0  0  0
   -2.1083   20.6555  -34.3358 H   0  0  0  0  0  0  0  0  0  0  0  0
   -0.5333   18.7691  -34.6529 H   0  0  0  0  0  0  0  0  0  0  0  0
    0.7467   15.4553  -33.7785 H   0  0  0  0  0  0  0  0  0  0  0  0
    0.0974   16.8200  -32.7516 H   0  0  0  0  0  0  0  0  0  0  0  0
    0.2918   14.6545  -31.5319 H   0  0  0  0  0  0  0  0  0  0  0  0
   -1.4276   15.3574  -31.6674 H   0  0  0  0  0  0  0  0  0  0  0  0
    0.5588   12.2556  -32.5523 H   0  0  0  0  0  0  0  0  0  0  0  0
   -0.5555   11.9714  -33.9323 H   0  0  0  0  0  0  0  0  0  0  0  0
    0.5266   13.4052  -33.9323 H   0  0  0  0  0  0  0  0  0  0  0  0
   -2.1265   14.6244  -34.1515 H   0  0  0  0  0  0  0  0  0  0  0  0
   -2.3483   12.8192  -34.1944 H   0  0  0  0  0  0  0  0  0  0  0  0
   -3.5730   14.6830  -32.1063 H   0  0  0  0  0  0  0  0  0  0  0  0
   -4.4236   14.0223  -33.5676 H   0  0  0  0  0  0  0  0  0  0  0  0
   -4.2316   12.7098  -29.9591 H   0  0  0  0  0  0  0  0  0  0  0  0
   -4.9994   14.0454  -30.8829 H   0  0  0  0  0  0  0  0  0  0  0  0
   -5.7427   12.4101  -30.8829 H   0  0  0  0  0  0  0  0  0  0  0  0
   -5.4456   11.0714  -32.2833 H   0  0  0  0  0  0  0  0  0  0  0  0
   -5.4782   12.3395  -33.5551 H   0  0  0  0  0  0  0  0  0  0  0  0
   -4.1774   11.1008  -33.5551 H   0  0  0  0  0  0  0  0  0  0  0  0
   -2.9921   11.2969  -30.7126 H   0  0  0  0  0  0  0  0  0  0  0  0
   -2.4943   11.1545  -32.4525 H   0  0  0  0  0  0  0  0  0  0  0  0
   -1.8488   13.5090  -30.6120 H   0  0  0  0  0  0  0  0  0  0  0  0
   -0.7206   12.1521  -31.0737 H   0  0  0  0  0  0  0  0  0  0  0  0
   -3.7222   15.9641  -33.9458 H   0  0  0  0  0  0  0  0  0  0  0  0
   -6.3311   15.9914  -32.7451 H   0  0  0  0  0  0  0  0  0  0  0  0
   -7.1125   16.4612  -34.2928 H   0  0  0  0  0  0  0  0  0  0  0  0
   -5.4369   15.8136  -34.2928 H   0  0  0  0  0  0  0  0  0  0  0  0
   -9.6854   19.1495  -32.1798 H   0  0  0  0  0  0  0  0  0  0  0  0
   -8.9605   21.5221  -31.9312 H   0  0  0  0  0  0  0  0  0  0  0  0
   -6.6241   22.1614  -32.4980 H   0  0  0  0  0  0  0  0  0  0  0  0
  1  2  1  0
  2  3  1  0
  3  4  1  0
  3  5  1  0
  5  6  1  0
  6  7  1  0
  7  8  1  0
  8  9  2  0
  9 10  1  0
 10 11  2  0
 11 12  1  0
 12 13  1  0
 13 14  1  0
 14 15  1  0
 15 16  1  0
 16 17  1  0
 16 18  1  0
 18 19  1  0
 19 20  1  0
 20 21  1  0
 20 22  1  0
 20 23  1  0
 23 24  1  0
 12 25  2  0
 25 26  1  0
 26 27  2  0
 27 28  1  0
 27 29  1  0
 29 30  2  0
 30 31  1  0
 31 32  2  0
 32 33  1  0
 33 34  2  0
 34  8  1  0
 26  9  1  0
 34 29  1  0
 24 16  1  0
  1 35  1  0
  1 36  1  0
  1 37  1  0
  2 38  1  0
  2 39  1  0
  4 40  1  0
  4 41  1  0
  4 42  1  0
  5 43  1  0
  5 44  1  0
  6 45  1  0
  6 46  1  0
  7 47  1  0
  7 48  1  0
 10 49  1  0
 11 50  1  0
 14 51  1  0
 14 52  1  0
 15 53  1  0
 15 54  1  0
 17 55  1  0
 17 56  1  0
 17 57  1  0
 18 58  1  0
 18 59  1  0
 19 60  1  0
 19 61  1  0
 21 62  1  0
 21 63  1  0
 21 64  1  0
 22 65  1  0
 22 66  1  0
 22 67  1  0
 23 68  1  0
 23 69  1  0
 24 70  1  0
 24 71  1  0
 25 72  1  0
 28 73  1  0
 28 74  1  0
 28 75  1  0
 31 76  1  0
 32 77  1  0
 33 78  1  0
M  CHG  4   7   1  16   1  20   1  27   1
M  END
>  <UniqueID>  (21) 
21

>  <SMILES>  (21) 
CCN(C)CC[NH2+]c1c2ccc(OCC[N+]3(C)CC[N+](C)(C)CC3)cc2[n+](C)c2ncccc12

>  <Energy>  (21) 
134.1089607052939

>  <Genealogy>  (21) 
CCN(C)CC[NH2+]c1c2ccc(OCC[N+]3(C)CC[N+](C)(C)CC3)cc2[n+](C)c2ncccc12 (protonated)
CCN(C)CC[NH2+]c1c2ccc(OCC[N+]3(C)CC[N+](C)(C)CC3)cc2[n+](C)c2ncccc12 (3D coordinates assigned)
CCN(C)CC[NH2+]c1c2ccc(OCC[N+]3(C)CC[N+](C)(C)CC3)cc2[n+](C)c2ncccc12 (nonaromatic ring conformer: 134.1089607052939 kcal/mol)

>  <smiles>  (21) 
CCN(C)CCNc1c2ccc(OCC[N+]3(C)CC[N+](C)(C)CC3)cc2[n+](C)c2ncccc12

>  <score_type>  (21) 
oracle

>  <origin>  (21) 
adg

>  <m_score__min__energy>  (21) 
-7.4900000000000002

>  <m_primary>  (21) 
energy

$$$$
22:0
     RDKit          3D

 48 50  0  0  0  0  0  0  0  0999 V2000
   -0.8510   21.8120  -26.1860 C   0  0  0  0  0  0  0  0  0  0  0  0
   -1.4660   22.8040  -27.1300 C   0  0  0  0  0  0  0  0  0  0  0  0
   -1.0050   24.0870  -27.4130 C   0  0  0  0  0  0  0  0  0  0  0  0
    0.1000   24.8070  -26.8420 N   0  0  0  0  0  0  0  0  0  0  0  0
    0.8980   24.3240  -25.7150 C   0  0  0  0  0  0  0  0  0  0  0  0
    1.5150   25.5050  -24.9390 C   0  0  0  0  0  0  0  0  0  0  0  0
    0.5950   26.0370  -23.8980 N   0  0  0  0  0  0  0  0  0  0  0  0
   -0.7990   25.5460  -24.0650 C   0  0  0  0  0  0  0  0  0  0  0  0
   -1.6580   26.4800  -24.9440 C   0  0  0  0  0  0  0  0  0  0  0  0
   -0.8490   27.2110  -25.8380 O   0  0  0  0  0  0  0  0  0  0  0  0
   -0.0400   28.1310  -25.1250 C   0  0  0  0  0  0  0  0  0  0  0  0
    0.6170   27.5160  -23.8660 C   0  0  0  0  0  0  0  0  0  0  0  0
   -1.8370   24.5520  -28.4040 C   0  0  0  0  0  0  0  0  0  0  0  0
   -1.7470   25.6730  -28.9750 O   0  0  0  0  0  0  0  0  0  0  0  0
   -2.7680   23.6210  -28.6900 N   0  0  0  0  0  0  0  0  0  0  0  0
   -3.7890   23.7370  -29.6980 C   0  0  0  0  0  0  0  0  0  0  0  0
   -4.8400   24.6540  -29.5420 C   0  0  0  0  0  0  0  0  0  0  0  0
   -5.8370   24.7550  -30.5170 C   0  0  0  0  0  0  0  0  0  0  0  0
   -5.7950   23.9380  -31.6490 C   0  0  0  0  0  0  0  0  0  0  0  0
   -4.7570   23.0150  -31.8060 C   0  0  0  0  0  0  0  0  0  0  0  0
   -3.7590   22.9110  -30.8330 C   0  0  0  0  0  0  0  0  0  0  0  0
   -2.5590   22.5670  -27.9030 N   0  0  0  0  0  0  0  0  0  0  0  0
   -3.3830   21.3550  -27.8780 C   0  0  0  0  0  0  0  0  0  0  0  0
   -1.0444   22.1240  -25.1491 H   0  0  0  0  0  0  0  0  0  0  0  0
   -1.2923   20.8193  -26.3586 H   0  0  0  0  0  0  0  0  0  0  0  0
    0.2344   21.7658  -26.3586 H   0  0  0  0  0  0  0  0  0  0  0  0
    0.2230   25.8060  -27.1220 H   0  0  0  0  0  0  0  0  0  0  0  0
    0.2532   23.7444  -25.0380 H   0  0  0  0  0  0  0  0  0  0  0  0
    1.7106   23.6917  -26.1020 H   0  0  0  0  0  0  0  0  0  0  0  0
    2.4407   25.1639  -24.4525 H   0  0  0  0  0  0  0  0  0  0  0  0
    1.7142   26.3134  -25.6579 H   0  0  0  0  0  0  0  0  0  0  0  0
    0.9390   25.7160  -22.9610 H   0  0  0  0  0  0  0  0  0  0  0  0
   -0.7680   24.5514  -24.5339 H   0  0  0  0  0  0  0  0  0  0  0  0
   -1.2608   25.5109  -23.0673 H   0  0  0  0  0  0  0  0  0  0  0  0
   -2.3752   25.8755  -25.5187 H   0  0  0  0  0  0  0  0  0  0  0  0
   -2.1900   27.1876  -24.2911 H   0  0  0  0  0  0  0  0  0  0  0  0
    0.7555   28.4895  -25.7949 H   0  0  0  0  0  0  0  0  0  0  0  0
   -0.6942   28.9480  -24.7866 H   0  0  0  0  0  0  0  0  0  0  0  0
    1.6620   27.8548  -23.8088 H   0  0  0  0  0  0  0  0  0  0  0  0
    0.0440   27.8462  -22.9870 H   0  0  0  0  0  0  0  0  0  0  0  0
   -4.8795   25.2956  -28.6494 H   0  0  0  0  0  0  0  0  0  0  0  0
   -6.6557   25.4790  -30.3923 H   0  0  0  0  0  0  0  0  0  0  0  0
   -6.5784   24.0208  -32.4167 H   0  0  0  0  0  0  0  0  0  0  0  0
   -4.7256   22.3698  -32.6963 H   0  0  0  0  0  0  0  0  0  0  0  0
   -2.9470   22.1793  -30.9569 H   0  0  0  0  0  0  0  0  0  0  0  0
   -3.5792   21.0664  -26.8348 H   0  0  0  0  0  0  0  0  0  0  0  0
   -4.3368   21.5495  -28.3902 H   0  0  0  0  0  0  0  0  0  0  0  0
   -2.8514   20.5395  -28.3902 H   0  0  0  0  0  0  0  0  0  0  0  0
  1  2  1  0
  2  3  2  0
  3  4  1  0
  4  5  1  0
  5  6  1  0
  6  7  1  0
  7  8  1  0
  8  9  1  0
  9 10  1  0
 10 11  1  0
 11 12  1  0
  3 13  1  0
 13 14  2  0
 13 15  1  0
 15 16  1  0
 16 17  2  0
 17 18  1  0
 18 19  2  0
 19 20  1  0
 20 21  2  0
 15 22  1  0
 22 23  1  0
 22  2  1  0
 12  7  1  0
 21 16  1  0
  1 24  1  0
  1 25  1  0
  1 26  1  0
  4 27  1  0
  5 28  1  0
  5 29  1  0
  6 30  1  0
  6 31  1  0
  7 32  1  0
  8 33  1  0
  8 34  1  0
  9 35  1  0
  9 36  1  0
 11 37  1  0
 11 38  1  0
 12 39  1  0
 12 40  1  0
 17 41  1  0
 18 42  1  0
 19 43  1  0
 20 44  1  0
 21 45  1  0
 23 46  1  0
 23 47  1  0
 23 48  1  0
M  CHG  1   7   1
M  END
>  <UniqueID>  (22) 
22

>  <SMILES>  (22) 
Cc1c(NCC[NH+]2CCOCC2)c(=O)n(-c2ccccc2)n1C

>  <Energy>  (22) 
102.51591485265983

>  <Genealogy>  (22) 
Cc1c(NCC[NH+]2CCOCC2)c(=O)n(-c2ccccc2)n1C (protonated)
Cc1c(NCC[NH+]2CCOCC2)c(=O)n(-c2ccccc2)n1C (3D coordinates assigned)
Cc1c(NCC[NH+]2CCOCC2)c(=O)n(-c2ccccc2)n1C (nonaromatic ring conformer: 102.51591485265983 kcal/mol)

>  <smiles>  (22) 
Cc1c(NCCN2CCOCC2)c(=O)n(-c2ccccc2)n1C

>  <score_type>  (22) 
oracle

>  <origin>  (22) 
adg

>  <m_score__min__energy>  (22) 
-7.4299999999999997

>  <m_primary>  (22) 
energy

$$$$
23:0
     RDKit          3D

 44 45  0  0  0  0  0  0  0  0999 V2000
   -3.5370   24.1780  -28.0370 C   0  0  0  0  0  0  0  0  0  0  0  0
   -2.6660   24.5370  -29.2400 C   0  0  0  0  0  0  0  0  0  0  0  0
   -1.8870   23.3080  -29.7200 C   0  0  0  0  0  0  0  0  0  0  0  0
   -3.5080   25.0250  -30.2880 O   0  0  0  0  0  0  0  0  0  0  0  0
   -4.7370   24.4660  -30.6780 C   0  0  0  0  0  0  0  0  0  0  0  0
   -5.9090   25.0250  -30.1560 C   0  0  0  0  0  0  0  0  0  0  0  0
   -7.1610   24.5410  -30.5430 C   0  0  0  0  0  0  0  0  0  0  0  0
   -7.2590   23.4900  -31.4650 C   0  0  0  0  0  0  0  0  0  0  0  0
   -8.6080   23.0430  -31.9620 C   0  0  0  0  0  0  0  0  0  0  0  0
   -9.1490   21.9640  -31.1210 N   0  0  0  0  0  0  0  0  0  0  0  0
   -8.3410   20.7330  -31.1860 C   0  0  0  0  0  0  0  0  0  0  0  0
   -8.6720   19.9630  -32.4660 C   0  0  0  0  0  0  0  0  0  0  0  0
   -8.2780   18.1890  -32.2950 S   0  0  0  0  0  0  0  0  0  0  0  0
   -6.7190   18.2850  -33.1810 C   0  0  0  0  0  0  0  0  0  0  0  0
   -6.4840   19.1210  -34.2060 N   0  0  0  0  0  0  0  0  0  0  0  0
   -5.2380   18.9340  -34.6110 N   0  0  0  0  0  0  0  0  0  0  0  0
   -4.7220   17.9710  -33.8170 C   0  0  0  0  0  0  0  0  0  0  0  0
   -5.6210   17.5570  -32.9030 N   0  0  0  0  0  0  0  0  0  0  0  0
   -5.4650   16.4760  -31.9380 C   0  0  0  0  0  0  0  0  0  0  0  0
   -6.0870   22.9130  -31.9770 C   0  0  0  0  0  0  0  0  0  0  0  0
   -4.8360   23.3900  -31.5800 C   0  0  0  0  0  0  0  0  0  0  0  0
   -2.9911   24.4030  -27.1089 H   0  0  0  0  0  0  0  0  0  0  0  0
   -4.4657   24.7667  -28.0680 H   0  0  0  0  0  0  0  0  0  0  0  0
   -3.7812   23.1059  -28.0680 H   0  0  0  0  0  0  0  0  0  0  0  0
   -1.9412   25.3125  -28.9516 H   0  0  0  0  0  0  0  0  0  0  0  0
   -1.5266   22.7395  -28.8500 H   0  0  0  0  0  0  0  0  0  0  0  0
   -2.5461   22.6703  -30.3273 H   0  0  0  0  0  0  0  0  0  0  0  0
   -1.0290   23.6319  -30.3273 H   0  0  0  0  0  0  0  0  0  0  0  0
   -5.8438   25.8528  -29.4346 H   0  0  0  0  0  0  0  0  0  0  0  0
   -8.0743   24.9869  -30.1221 H   0  0  0  0  0  0  0  0  0  0  0  0
   -9.3005   23.8974  -31.9404 H   0  0  0  0  0  0  0  0  0  0  0  0
   -8.4952   22.6640  -32.9885 H   0  0  0  0  0  0  0  0  0  0  0  0
   -9.1390   22.3100  -30.1330 H   0  0  0  0  0  0  0  0  0  0  0  0
   -7.2731   20.9966  -31.1842 H   0  0  0  0  0  0  0  0  0  0  0  0
   -8.5686   20.1026  -30.3137 H   0  0  0  0  0  0  0  0  0  0  0  0
   -9.7450   20.0723  -32.6824 H   0  0  0  0  0  0  0  0  0  0  0  0
   -8.0652   20.3755  -33.2855 H   0  0  0  0  0  0  0  0  0  0  0  0
   -7.1510   19.8090  -34.6220 H   0  0  0  0  0  0  0  0  0  0  0  0
   -3.6993   17.5756  -33.9052 H   0  0  0  0  0  0  0  0  0  0  0  0
   -5.5238   16.8837  -30.9180 H   0  0  0  0  0  0  0  0  0  0  0  0
   -6.2656   15.7359  -32.0838 H   0  0  0  0  0  0  0  0  0  0  0  0
   -4.4878   15.9925  -32.0838 H   0  0  0  0  0  0  0  0  0  0  0  0
   -6.1539   22.0815  -32.6940 H   0  0  0  0  0  0  0  0  0  0  0  0
   -3.9222   22.9219  -31.9747 H   0  0  0  0  0  0  0  0  0  0  0  0
  1  2  1  0
  2  3  1  0
  2  4  1  0
  4  5  1  0
  5  6  2  0
  6  7  1  0
  7  8  2  0
  8  9  1  0
  9 10  1  0
 10 11  1  0
 11 12  1  0
 12 13  1  0
 13 14  1  0
 14 15  2  0
 15 16  1  0
 16 17  2  0
 17 18  1  0
 18 19  1  0
  8 20  1  0
 20 21  2  0
 21  5  1  0
 18 14  1  0
  1 22  1  0
  1 23  1  0
  1 24  1  0
  2 25  1  0
  3 26  1  0
  3 27  1  0
  3 28  1  0
  6 29  1  0
  7 30  1  0
  9 31  1  0
  9 32  1  0
 10 33  1  0
 11 34  1  0
 11 35  1  0
 12 36  1  0
 12 37  1  0
 15 38  1  0
 17 39  1  0
 19 40  1  0
 19 41  1  0
 19 42  1  0
 20 43  1  0
 21 44  1  0
M  CHG  1  15   1
M  END
>  <UniqueID>  (23) 
23

>  <SMILES>  (23) 
CC(C)Oc1ccc(CNCCSc2[nH+]ncn2C)cc1

>  <Energy>  (23) 
63.77347606973661

>  <Genealogy>  (23) 
CC(C)Oc1ccc(CNCCSc2[nH+]ncn2C)cc1 (protonated)
CC(C)Oc1ccc(CNCCSc2[nH+]ncn2C)cc1 (3D coordinates assigned)
CC(C)Oc1ccc(CNCCSc2[nH+]ncn2C)cc1 (optimized conformer: 63.77347606973661 kcal/mol)

>  <smiles>  (23) 
CC(C)Oc1ccc(CNCCSc2nncn2C)cc1

>  <score_type>  (23) 
oracle

>  <origin>  (23) 
adg

>  <m_score__min__energy>  (23) 
-7.6699999999999999

>  <m_primary>  (23) 
energy

$$$$
