0:0
     RDKit          3D

 30 32  0  0  0  0  0  0  0  0999 V2000
   -2.2040   24.1850  -29.2890 C   0  0  0  0  0  0  0  0  0  0  0  0
   -3.1260   24.9330  -30.0750 O   0  0  0  0  0  0  0  0  0  0  0  0
   -4.4320   24.5160  -30.3740 C   0  0  0  0  0  0  0  0  0  0  0  0
   -5.5590   25.3150  -30.1060 C   0  0  0  0  0  0  0  0  0  0  0  0
   -6.8390   24.8550  -30.4280 C   0  0  0  0  0  0  0  0  0  0  0  0
   -7.0070   23.6010  -31.0160 C   0  0  0  0  0  0  0  0  0  0  0  0
   -5.8940   22.7890  -31.2880 C   0  0  0  0  0  0  0  0  0  0  0  0
   -6.0660   21.4950  -31.8930 N   0  0  0  0  0  0  0  0  0  0  0  0
   -7.1050   20.5410  -31.6400 C   0  0  0  0  0  0  0  0  0  0  0  0
   -8.0720   20.7290  -30.8560 O   0  0  0  0  0  0  0  0  0  0  0  0
   -6.9040   19.3550  -32.4640 C   0  0  0  0  0  0  0  0  0  0  0  0
   -7.6480   18.1810  -32.5660 C   0  0  0  0  0  0  0  0  0  0  0  0
   -7.2050   17.1930  -33.4630 C   0  0  0  0  0  0  0  0  0  0  0  0
   -6.0400   17.3980  -34.2360 C   0  0  0  0  0  0  0  0  0  0  0  0
   -5.3080   18.5940  -34.1160 C   0  0  0  0  0  0  0  0  0  0  0  0
   -5.7680   19.5570  -33.2210 C   0  0  0  0  0  0  0  0  0  0  0  0
   -5.2360   20.8710  -32.8790 C   0  0  0  0  0  0  0  0  0  0  0  0
   -4.1770   21.3710  -33.3420 O   0  0  0  0  0  0  0  0  0  0  0  0
   -4.6100   23.2570  -30.9630 C   0  0  0  0  0  0  0  0  0  0  0  0
   -2.4112   24.3531  -28.2218 H   0  0  0  0  0  0  0  0  0  0  0  0
   -2.3101   23.1146  -29.5190 H   0  0  0  0  0  0  0  0  0  0  0  0
   -1.1784   24.5095  -29.5190 H   0  0  0  0  0  0  0  0  0  0  0  0
   -5.4323   26.3042  -29.6419 H   0  0  0  0  0  0  0  0  0  0  0  0
   -7.7167   25.4837  -30.2171 H   0  0  0  0  0  0  0  0  0  0  0  0
   -8.0173   23.2462  -31.2680 H   0  0  0  0  0  0  0  0  0  0  0  0
   -8.5554   18.0317  -31.9624 H   0  0  0  0  0  0  0  0  0  0  0  0
   -7.7692   16.2541  -33.5637 H   0  0  0  0  0  0  0  0  0  0  0  0
   -5.7034   16.6185  -34.9354 H   0  0  0  0  0  0  0  0  0  0  0  0
   -4.3989   18.7634  -34.7118 H   0  0  0  0  0  0  0  0  0  0  0  0
   -3.7331   22.6272  -31.1735 H   0  0  0  0  0  0  0  0  0  0  0  0
  1  2  1  0
  2  3  1  0
  3  4  2  0
  4  5  1  0
  5  6  2  0
  6  7  1  0
  7  8  1  0
  8  9  1  0
  9 10  2  0
  9 11  1  0
 11 12  2  0
 12 13  1  0
 13 14  2  0
 14 15  1  0
 15 16  2  0
 16 17  1  0
 17 18  2  0
  7 19  2  0
 19  3  1  0
 17  8  1  0
 16 11  1  0
  1 20  1  0
  1 21  1  0
  1 22  1  0
  4 23  1  0
  5 24  1  0
  6 25  1  0
 12 26  1  0
 13 27  1  0
 14 28  1  0
 15 29  1  0
 19 30  1  0
M  END
>  <UniqueID>  (1) 
1

>  <SMILES>  (1) 
COc1cccc(N2C(=O)c3ccccc3C2=O)c1

>  <Energy>  (1) 
69.01198158568482

>  <Genealogy>  (1) 
COc1cccc(N2C(=O)c3ccccc3C2=O)c1 (3D coordinates assigned)
COc1cccc(N2C(=O)c3ccccc3C2=O)c1 (nonaromatic ring conformer: 69.01198158568482 kcal/mol)

>  <smiles>  (1) 
COc1cccc(N2C(=O)c3ccccc3C2=O)c1

>  <score_type>  (1) 
oracle

>  <origin>  (1) 
adg

>  <m_score__min__energy>  (1) 
-8.0299999999999994

>  <m_primary>  (1) 
energy

$$$$
1:0
     RDKit          3D

 29 30  0  0  0  0  0  0  0  0999 V2000
   -5.7560   24.8730  -28.8800 N   0  0  0  0  0  0  0  0  0  0  0  0
   -5.1810   24.7050  -30.2190 C   0  0  0  0  0  0  0  0  0  0  0  0
   -5.9440   23.6820  -31.1030 C   0  0  2  0  0  0  0  0  0  0  0  0
   -7.4720   23.7320  -30.8300 C   0  0  0  0  0  0  0  0  0  0  0  0
   -8.3200   23.0010  -31.8760 C   0  0  0  0  0  0  0  0  0  0  0  0
   -8.5920   21.2800  -31.3640 S   0  0  0  0  0  0  0  0  0  0  0  0
   -7.0940   20.6440  -32.1440 C   0  0  0  0  0  0  0  0  0  0  0  0
   -7.2770   19.5390  -32.9890 C   0  0  0  0  0  0  0  0  0  0  0  0
   -6.2120   19.0050  -33.7120 C   0  0  0  0  0  0  0  0  0  0  0  0
   -4.9430   19.5620  -33.5930 C   0  0  0  0  0  0  0  0  0  0  0  0
   -4.7320   20.6420  -32.7370 C   0  0  0  0  0  0  0  0  0  0  0  0
   -5.7900   21.2110  -31.9970 C   0  0  0  0  0  0  0  0  0  0  0  0
   -5.3760   22.2510  -30.9560 C   0  0  0  0  0  0  0  0  0  0  0  0
   -6.8000   24.8610  -28.9220 H   0  0  0  0  0  0  0  0  0  0  0  0
   -5.4130   24.1350  -28.2260 H   0  0  0  0  0  0  0  0  0  0  0  0
   -5.4620   25.8030  -28.5040 H   0  0  0  0  0  0  0  0  0  0  0  0
   -5.1939   25.6805  -30.7272 H   0  0  0  0  0  0  0  0  0  0  0  0
   -4.1614   24.3150  -30.0839 H   0  0  0  0  0  0  0  0  0  0  0  0
   -5.7877   23.9742  -32.1519 H   0  0  0  0  0  0  0  0  0  0  0  0
   -7.6626   23.2726  -29.8488 H   0  0  0  0  0  0  0  0  0  0  0  0
   -7.7659   24.7913  -30.8683 H   0  0  0  0  0  0  0  0  0  0  0  0
   -9.2907   23.5085  -31.9772 H   0  0  0  0  0  0  0  0  0  0  0  0
   -7.7910   23.0111  -32.8404 H   0  0  0  0  0  0  0  0  0  0  0  0
   -8.2758   19.0875  -33.0822 H   0  0  0  0  0  0  0  0  0  0  0  0
   -6.3748   18.1436  -34.3764 H   0  0  0  0  0  0  0  0  0  0  0  0
   -4.1052   19.1500  -34.1748 H   0  0  0  0  0  0  0  0  0  0  0  0
   -3.7192   21.0594  -32.6364 H   0  0  0  0  0  0  0  0  0  0  0  0
   -5.6891   21.8729  -29.9716 H   0  0  0  0  0  0  0  0  0  0  0  0
   -4.2911   22.3672  -31.0957 H   0  0  0  0  0  0  0  0  0  0  0  0
  1  2  1  0
  2  3  1  0
  3  4  1  0
  4  5  1  0
  5  6  1  0
  6  7  1  0
  7  8  2  0
  8  9  1  0
  9 10  2  0
 10 11  1  0
 11 12  2  0
 12 13  1  0
 13  3  1  0
 12  7  1  0
  1 14  1  0
  1 15  1  0
  1 16  1  0
  2 17  1  0
  2 18  1  0
  3 19  1  6
  4 20  1  0
  4 21  1  0
  5 22  1  0
  5 23  1  0
  8 24  1  0
  9 25  1  0
 10 26  1  0
 11 27  1  0
 13 28  1  0
 13 29  1  0
M  CHG  1   1   1
M  END
>  <UniqueID>  (2) 
2

>  <SMILES>  (2) 
[NH3+]C[C@@H]1CCSc2ccccc2C1

>  <Energy>  (2) 
39.89932758660677

>  <Genealogy>  (2) 
[NH3+]CC1CCSc2ccccc2C1 (protonated)
[NH3+]C[C@@H]1CCSc2ccccc2C1 (chirality)
[NH3+]C[C@@H]1CCSc2ccccc2C1 (3D coordinates assigned)
[NH3+]C[C@@H]1CCSc2ccccc2C1 (nonaromatic ring conformer: 39.89932758660677 kcal/mol)

>  <smiles>  (2) 
NCC1CCSc2ccccc2C1

>  <score_type>  (2) 
oracle

>  <origin>  (2) 
adg

>  <m_score__min__energy>  (2) 
-4.5899999999999999

>  <m_primary>  (2) 
energy

$$$$
2:0
     RDKit          3D

 57 59  0  0  0  0  0  0  0  0999 V2000
   -3.4950   16.2540  -35.4900 C   0  0  0  0  0  0  0  0  0  0  0  0
   -4.2590   17.4480  -35.3520 O   0  0  0  0  0  0  0  0  0  0  0  0
   -4.1310   18.3700  -34.3020 C   0  0  0  0  0  0  0  0  0  0  0  0
   -2.9450   19.1130  -34.1350 C   0  0  0  0  0  0  0  0  0  0  0  0
   -2.8180   20.0290  -33.0930 C   0  0  0  0  0  0  0  0  0  0  0  0
   -3.8660   20.2200  -32.1980 C   0  0  0  0  0  0  0  0  0  0  0  0
   -5.0580   19.4940  -32.3360 C   0  0  0  0  0  0  0  0  0  0  0  0
   -6.1900   19.7310  -31.3630 C   0  0  0  0  0  0  0  0  0  0  0  0
   -7.1720   20.6900  -31.9200 N   0  0  0  0  0  0  0  0  0  0  0  0
   -8.1370   21.1850  -30.8990 C   0  0  0  0  0  0  0  0  0  0  0  0
   -7.9610   22.6720  -30.5320 C   0  0  0  0  0  0  0  0  0  0  0  0
   -6.4720   23.0440  -30.4760 C   0  0  0  0  0  0  0  0  0  0  0  0
   -6.2040   24.4690  -29.9200 C   0  0  0  0  0  0  0  0  0  0  0  0
   -5.3300   25.3970  -30.7890 C   0  0  0  0  0  0  0  0  0  0  0  0
   -3.9080   25.2770  -30.4780 N   0  0  0  0  0  0  0  0  0  0  0  0
   -3.2010   24.0540  -30.2320 C   0  0  0  0  0  0  0  0  0  0  0  0
   -3.1230   23.2010  -31.1560 O   0  0  0  0  0  0  0  0  0  0  0  0
   -2.6010   23.7420  -28.9230 C   0  0  0  0  0  0  0  0  0  0  0  0
   -2.2720   22.4210  -28.5810 C   0  0  0  0  0  0  0  0  0  0  0  0
   -1.7130   22.1360  -27.3310 C   0  0  0  0  0  0  0  0  0  0  0  0
   -1.4890   23.1650  -26.4130 C   0  0  0  0  0  0  0  0  0  0  0  0
   -1.8320   24.4810  -26.7390 C   0  0  0  0  0  0  0  0  0  0  0  0
   -1.5320   25.8870  -25.4810 Br  0  0  0  0  0  0  0  0  0  0  0  0
   -2.3930   24.7690  -27.9890 C   0  0  0  0  0  0  0  0  0  0  0  0
   -5.7780   22.7840  -31.8350 C   0  0  0  0  0  0  0  0  0  0  0  0
   -6.5440   21.7730  -32.7100 C   0  0  0  0  0  0  0  0  0  0  0  0
   -5.2050   18.5650  -33.3910 C   0  0  0  0  0  0  0  0  0  0  0  0
   -6.4320   17.8770  -33.4760 O   0  0  0  0  0  0  0  0  0  0  0  0
   -6.6190   16.5090  -33.8220 C   0  0  0  0  0  0  0  0  0  0  0  0
   -3.2441   15.8620  -34.4933 H   0  0  0  0  0  0  0  0  0  0  0  0
   -4.0819   15.5048  -36.0416 H   0  0  0  0  0  0  0  0  0  0  0  0
   -2.5689   16.4730  -36.0416 H   0  0  0  0  0  0  0  0  0  0  0  0
   -2.1096   18.9679  -34.8358 H   0  0  0  0  0  0  0  0  0  0  0  0
   -1.8866   20.6028  -32.9776 H   0  0  0  0  0  0  0  0  0  0  0  0
   -3.7590   20.9447  -31.3774 H   0  0  0  0  0  0  0  0  0  0  0  0
   -6.6954   18.7756  -31.1585 H   0  0  0  0  0  0  0  0  0  0  0  0
   -5.7746   20.1515  -30.4353 H   0  0  0  0  0  0  0  0  0  0  0  0
   -9.1555   21.0444  -31.2901 H   0  0  0  0  0  0  0  0  0  0  0  0
   -7.9497   20.6085  -29.9811 H   0  0  0  0  0  0  0  0  0  0  0  0
   -8.4601   23.2928  -31.2906 H   0  0  0  0  0  0  0  0  0  0  0  0
   -8.4071   22.8474  -29.5420 H   0  0  0  0  0  0  0  0  0  0  0  0
   -6.0099   22.3713  -29.7385 H   0  0  0  0  0  0  0  0  0  0  0  0
   -7.1777   24.9615  -29.7811 H   0  0  0  0  0  0  0  0  0  0  0  0
   -5.6314   24.3156  -28.9934 H   0  0  0  0  0  0  0  0  0  0  0  0
   -5.4831   25.1374  -31.8469 H   0  0  0  0  0  0  0  0  0  0  0  0
   -5.6321   26.4338  -30.5798 H   0  0  0  0  0  0  0  0  0  0  0  0
   -2.4544   21.6073  -29.2984 H   0  0  0  0  0  0  0  0  0  0  0  0
   -1.4494   21.1003  -27.0704 H   0  0  0  0  0  0  0  0  0  0  0  0
   -1.0426   22.9400  -25.4332 H   0  0  0  0  0  0  0  0  0  0  0  0
   -2.6716   25.8031  -28.2399 H   0  0  0  0  0  0  0  0  0  0  0  0
   -5.7041   23.7364  -32.3804 H   0  0  0  0  0  0  0  0  0  0  0  0
   -4.7860   22.3574  -31.6253 H   0  0  0  0  0  0  0  0  0  0  0  0
   -7.3318   22.3096  -33.2591 H   0  0  0  0  0  0  0  0  0  0  0  0
   -5.8167   21.3069  -33.3910 H   0  0  0  0  0  0  0  0  0  0  0  0
   -6.7013   15.9068  -32.9051 H   0  0  0  0  0  0  0  0  0  0  0  0
   -7.5400   16.4031  -34.4141 H   0  0  0  0  0  0  0  0  0  0  0  0
   -5.7602   16.1598  -34.4141 H   0  0  0  0  0  0  0  0  0  0  0  0
  1  2  1  0
  2  3  1  0
  3  4  2  0
  4  5  1  0
  5  6  2  0
  6  7  1  0
  7  8  1  0
  8  9  1  0
  9 10  1  0
 10 11  1  0
 11 12  1  0
 12 13  1  0
 13 14  1  0
 14 15  1  0
 15 16  1  0
 16 17  2  0
 16 18  1  0
 18 19  2  0
 19 20  1  0
 20 21  2  0
 21 22  1  0
 22 23  1  0
 22 24  2  0
 12 25  1  0
 25 26  1  0
  7 27  2  0
 27 28  1  0
 28 29  1  0
 27  3  1  0
 26  9  1  0
 24 18  1  0
  1 30  1  0
  1 31  1  0
  1 32  1  0
  4 33  1  0
  5 34  1  0
  6 35  1  0
  8 36  1  0
  8 37  1  0
 10 38  1  0
 10 39  1  0
 11 40  1  0
 11 41  1  0
 12 42  1  0
 13 43  1  0
 13 44  1  0
 14 45  1  0
 14 46  1  0
 19 47  1  0
 20 48  1  0
 21 49  1  0
 24 50  1  0
 25 51  1  0
 25 52  1  0
 26 53  1  0
 26 54  1  0
 29 55  1  0
 29 56  1  0
 29 57  1  0
M  CHG  1  15  -1
M  END
>  <UniqueID>  (3) 
3

>  <SMILES>  (3) 
COc1cccc(CN2CCC(CC[N-]C(=O)c3cccc(Br)c3)CC2)c1OC

>  <Energy>  (3) 
74.02212095943919

>  <Genealogy>  (3) 
COc1cccc(CN2CCC(CC[N-]C(=O)c3cccc(Br)c3)CC2)c1OC (protonated)
COc1cccc(CN2CCC(CC[N-]C(=O)c3cccc(Br)c3)CC2)c1OC (3D coordinates assigned)
COc1cccc(CN2CCC(CC[N-]C(=O)c3cccc(Br)c3)CC2)c1OC (nonaromatic ring conformer: 74.02212095943919 kcal/mol)

>  <smiles>  (3) 
COc1cccc(CN2CCC(CCNC(=O)c3cccc(Br)c3)CC2)c1OC

>  <score_type>  (3) 
oracle

>  <origin>  (3) 
adg

>  <m_score__min__energy>  (3) 
-10.52

>  <m_primary>  (3) 
energy

$$$$
3:0
     RDKit          3D

 48 49  0  0  0  0  0  0  0  0999 V2000
   -3.2130   21.4740  -33.4160 C   0  0  0  0  0  0  0  0  0  0  0  0
   -3.6650   20.6400  -32.2900 N   0  0  0  0  0  0  0  0  0  0  0  0
   -3.7730   19.2380  -32.7280 C   0  0  0  0  0  0  0  0  0  0  0  0
   -2.7330   20.7690  -31.1500 C   0  0  0  0  0  0  0  0  0  0  0  0
   -1.7610   21.9430  -31.3740 C   0  0  0  0  0  0  0  0  0  0  0  0
   -1.7420   22.8830  -30.2340 N   0  0  0  0  0  0  0  0  0  0  0  0
   -3.0590   23.1640  -29.6220 C   0  0  2  0  0  0  0  0  0  0  0  0
   -4.0230   23.7990  -30.5990 C   0  0  0  0  0  0  0  0  0  0  0  0
   -3.9720   25.0380  -30.8350 O   0  0  0  0  0  0  0  0  0  0  0  0
   -4.9820   22.9800  -31.2840 N   0  0  0  0  0  0  0  0  0  0  0  0
   -6.1940   23.5380  -31.8790 C   0  0  0  0  0  0  0  0  0  0  0  0
   -7.2090   22.4460  -32.0720 C   0  0  0  0  0  0  0  0  0  0  0  0
   -6.8130   21.2070  -32.6040 C   0  0  0  0  0  0  0  0  0  0  0  0
   -7.7350   20.1610  -32.7120 C   0  0  0  0  0  0  0  0  0  0  0  0
   -9.0540   20.3420  -32.2860 C   0  0  0  0  0  0  0  0  0  0  0  0
   -9.4520   21.5700  -31.7490 C   0  0  0  0  0  0  0  0  0  0  0  0
   -8.5340   22.6180  -31.6380 C   0  0  0  0  0  0  0  0  0  0  0  0
   -2.9400   23.9410  -28.3170 C   0  0  0  0  0  0  0  0  0  0  0  0
   -1.6980   24.4940  -27.9570 C   0  0  0  0  0  0  0  0  0  0  0  0
   -1.5700   25.2500  -26.7870 C   0  0  0  0  0  0  0  0  0  0  0  0
   -2.6790   25.4660  -25.9670 C   0  0  0  0  0  0  0  0  0  0  0  0
   -3.9210   24.9320  -26.3170 C   0  0  0  0  0  0  0  0  0  0  0  0
   -4.0550   24.1790  -27.4850 C   0  0  0  0  0  0  0  0  0  0  0  0
   -2.7225   22.3790  -33.0282 H   0  0  0  0  0  0  0  0  0  0  0  0
   -2.4998   20.9051  -34.0305 H   0  0  0  0  0  0  0  0  0  0  0  0
   -4.0790   21.7610  -34.0305 H   0  0  0  0  0  0  0  0  0  0  0  0
   -3.8236   18.5814  -31.8469 H   0  0  0  0  0  0  0  0  0  0  0  0
   -4.6835   19.1117  -33.3321 H   0  0  0  0  0  0  0  0  0  0  0  0
   -2.8926   18.9737  -33.3321 H   0  0  0  0  0  0  0  0  0  0  0  0
   -3.3094   20.9474  -30.2303 H   0  0  0  0  0  0  0  0  0  0  0  0
   -2.1516   19.8395  -31.0606 H   0  0  0  0  0  0  0  0  0  0  0  0
   -0.7474   21.5403  -31.5169 H   0  0  0  0  0  0  0  0  0  0  0  0
   -2.1027   22.4973  -32.2605 H   0  0  0  0  0  0  0  0  0  0  0  0
   -1.2820   23.7850  -30.5010 H   0  0  0  0  0  0  0  0  0  0  0  0
   -3.4947   22.1900  -29.3546 H   0  0  0  0  0  0  0  0  0  0  0  0
   -4.8910   21.9410  -31.2290 H   0  0  0  0  0  0  0  0  0  0  0  0
   -6.6078   24.3089  -31.2123 H   0  0  0  0  0  0  0  0  0  0  0  0
   -5.9499   23.9866  -32.8532 H   0  0  0  0  0  0  0  0  0  0  0  0
   -5.7749   21.0595  -32.9364 H   0  0  0  0  0  0  0  0  0  0  0  0
   -7.4217   19.1942  -33.1329 H   0  0  0  0  0  0  0  0  0  0  0  0
   -9.7784   19.5188  -32.3732 H   0  0  0  0  0  0  0  0  0  0  0  0
  -10.4899   21.7116  -31.4132 H   0  0  0  0  0  0  0  0  0  0  0  0
   -8.8500   23.5806  -31.2095 H   0  0  0  0  0  0  0  0  0  0  0  0
   -0.8207   24.3308  -28.6002 H   0  0  0  0  0  0  0  0  0  0  0  0
   -0.5934   25.6752  -26.5125 H   0  0  0  0  0  0  0  0  0  0  0  0
   -2.5745   26.0569  -25.0451 H   0  0  0  0  0  0  0  0  0  0  0  0
   -4.7948   25.1049  -25.6716 H   0  0  0  0  0  0  0  0  0  0  0  0
   -5.0377   23.7678  -27.7591 H   0  0  0  0  0  0  0  0  0  0  0  0
  1  2  1  0
  2  3  1  0
  2  4  1  0
  4  5  1  0
  5  6  1  0
  6  7  1  0
  7  8  1  0
  8  9  2  0
  8 10  1  0
 10 11  1  0
 11 12  1  0
 12 13  2  0
 13 14  1  0
 14 15  2  0
 15 16  1  0
 16 17  2  0
  7 18  1  0
 18 19  2  0
 19 20  1  0
 20 21  2  0
 21 22  1  0
 22 23  2  0
 17 12  1  0
 23 18  1  0
  1 24  1  0
  1 25  1  0
  1 26  1  0
  3 27  1  0
  3 28  1  0
  3 29  1  0
  4 30  1  0
  4 31  1  0
  5 32  1  0
  5 33  1  0
  6 34  1  0
  7 35  1  1
 10 36  1  0
 11 37  1  0
 11 38  1  0
 13 39  1  0
 14 40  1  0
 15 41  1  0
 16 42  1  0
 17 43  1  0
 19 44  1  0
 20 45  1  0
 21 46  1  0
 22 47  1  0
 23 48  1  0
M  END
>  <UniqueID>  (4) 
4

>  <SMILES>  (4) 
CN(C)CCN[C@H](C(=O)NCc1ccccc1)c1ccccc1

>  <Energy>  (4) 
47.733890291298884

>  <Genealogy>  (4) 
CN(C)CCN[C@H](C(=O)NCc1ccccc1)c1ccccc1 (chirality)
CN(C)CCN[C@H](C(=O)NCc1ccccc1)c1ccccc1 (3D coordinates assigned)
CN(C)CCN[C@H](C(=O)NCc1ccccc1)c1ccccc1 (optimized conformer: 47.733890291298884 kcal/mol)

>  <smiles>  (4) 
CN(C)CCNC(C(=O)NCc1ccccc1)c1ccccc1

>  <score_type>  (4) 
oracle

>  <origin>  (4) 
adg

>  <m_score__min__energy>  (4) 
-7.6299999999999999

>  <m_primary>  (4) 
energy

$$$$
4:0
     RDKit          3D

 25 26  0  0  0  0  0  0  0  0999 V2000
   -4.2970   24.1700  -28.3200 C   0  0  0  0  0  0  0  0  0  0  0  0
   -5.2370   24.8900  -29.2790 C   0  0  0  0  0  0  0  0  0  0  0  0
   -5.6410   23.9940  -30.3570 N   0  0  0  0  0  0  0  0  0  0  0  0
   -6.4060   22.8920  -30.2430 C   0  0  0  0  0  0  0  0  0  0  0  0
   -6.5840   22.4030  -31.5250 C   0  0  0  0  0  0  0  0  0  0  0  0
   -7.3570   21.2030  -31.9340 C   0  0  0  0  0  0  0  0  0  0  0  0
   -6.6950   20.0170  -32.3050 C   0  0  0  0  0  0  0  0  0  0  0  0
   -7.4250   18.8880  -32.6900 C   0  0  0  0  0  0  0  0  0  0  0  0
   -8.8210   18.9280  -32.7090 C   0  0  0  0  0  0  0  0  0  0  0  0
   -9.4890   20.0990  -32.3450 C   0  0  0  0  0  0  0  0  0  0  0  0
   -8.7650   21.2300  -31.9600 C   0  0  0  0  0  0  0  0  0  0  0  0
   -5.9280   23.2380  -32.3620 N   0  0  0  0  0  0  0  0  0  0  0  0
   -5.3730   24.1950  -31.6360 N   0  0  0  0  0  0  0  0  0  0  0  0
   -4.5890   24.3937  -27.2833 H   0  0  0  0  0  0  0  0  0  0  0  0
   -4.3578   23.0853  -28.4922 H   0  0  0  0  0  0  0  0  0  0  0  0
   -3.2656   24.5113  -28.4922 H   0  0  0  0  0  0  0  0  0  0  0  0
   -6.1300   25.2238  -28.7302 H   0  0  0  0  0  0  0  0  0  0  0  0
   -4.7148   25.7569  -29.7099 H   0  0  0  0  0  0  0  0  0  0  0  0
   -6.8100   22.4645  -29.3135 H   0  0  0  0  0  0  0  0  0  0  0  0
   -5.5958   19.9782  -32.2919 H   0  0  0  0  0  0  0  0  0  0  0  0
   -6.8985   17.9663  -32.9785 H   0  0  0  0  0  0  0  0  0  0  0  0
   -9.3934   18.0383  -33.0103 H   0  0  0  0  0  0  0  0  0  0  0  0
  -10.5884   20.1310  -32.3615 H   0  0  0  0  0  0  0  0  0  0  0  0
   -9.2986   22.1487  -31.6750 H   0  0  0  0  0  0  0  0  0  0  0  0
   -5.8690   23.1870  -33.4020 H   0  0  0  0  0  0  0  0  0  0  0  0
  1  2  1  0
  2  3  1  0
  3  4  1  0
  4  5  2  0
  5  6  1  0
  6  7  2  0
  7  8  1  0
  8  9  2  0
  9 10  1  0
 10 11  2  0
  5 12  1  0
 12 13  2  0
 13  3  1  0
 11  6  1  0
  1 14  1  0
  1 15  1  0
  1 16  1  0
  2 17  1  0
  2 18  1  0
  4 19  1  0
  7 20  1  0
  8 21  1  0
  9 22  1  0
 10 23  1  0
 11 24  1  0
 12 25  1  0
M  CHG  1  12   1
M  END
>  <UniqueID>  (5) 
5

>  <SMILES>  (5) 
CCn1cc(-c2ccccc2)[nH+]n1

>  <Energy>  (5) 
59.10403643768858

>  <Genealogy>  (5) 
CCn1cc(-c2ccccc2)[nH+]n1 (protonated)
CCn1cc(-c2ccccc2)[nH+]n1 (3D coordinates assigned)
CCn1cc(-c2ccccc2)[nH+]n1 (optimized conformer: 59.10403643768858 kcal/mol)

>  <smiles>  (5) 
CCn1cc(-c2ccccc2)nn1

>  <score_type>  (5) 
oracle

>  <origin>  (5) 
adg

>  <m_score__min__energy>  (5) 
-5.7300000000000004

>  <m_primary>  (5) 
energy

$$$$
5:0
     RDKit          3D

 56 60  0  0  0  0  0  0  0  0999 V2000
   -6.2180   25.8110  -29.7650 C   0  0  0  0  0  0  0  0  0  0  0  0
   -5.1090   25.7750  -30.8090 C   0  0  0  0  0  0  0  0  0  0  0  0
   -4.3700   24.5150  -30.7190 N   0  0  0  0  0  0  0  0  0  0  0  0
   -3.2170   24.3070  -30.0360 C   0  0  0  0  0  0  0  0  0  0  0  0
   -2.5120   25.2890  -29.3490 O   0  0  0  0  0  0  0  0  0  0  0  0
   -2.8450   22.9900  -30.1640 C   0  0  0  0  0  0  0  0  0  0  0  0
   -3.7480   22.3800  -30.9440 C   0  0  0  0  0  0  0  0  0  0  0  0
   -4.6930   23.3250  -31.2930 C   0  0  0  0  0  0  0  0  0  0  0  0
   -5.7860   23.1070  -32.1290 O   0  0  0  0  0  0  0  0  0  0  0  0
   -3.3380   20.9860  -31.2850 C   0  0  1  0  0  0  0  0  0  0  0  0
   -4.2590   19.9330  -30.6250 C   0  0  0  0  0  0  0  0  0  0  0  0
   -5.3940   19.4360  -31.5250 C   0  0  0  0  0  0  0  0  0  0  0  0
   -3.1860   20.7470  -32.7690 C   0  0  0  0  0  0  0  0  0  0  0  0
   -3.9070   21.3740  -33.5920 O   0  0  0  0  0  0  0  0  0  0  0  0
   -2.2420   19.7560  -33.2340 N   0  0  0  0  0  0  0  0  0  0  0  0
   -2.3690   19.2140  -34.5920 C   0  0  0  0  0  0  0  0  0  0  0  0
   -3.4220   18.1370  -34.6250 C   0  0  0  0  0  0  0  0  0  0  0  0
   -3.0460   16.7840  -34.6300 C   0  0  0  0  0  0  0  0  0  0  0  0
   -4.0200   15.7810  -34.6060 C   0  0  0  0  0  0  0  0  0  0  0  0
   -5.3740   16.1210  -34.5730 C   0  0  0  0  0  0  0  0  0  0  0  0
   -5.7570   17.4650  -34.5660 C   0  0  0  0  0  0  0  0  0  0  0  0
   -4.7860   18.4710  -34.5910 C   0  0  0  0  0  0  0  0  0  0  0  0
   -1.3080   19.1110  -32.2950 C   0  0  0  0  0  0  0  0  0  0  0  0
   -1.0060   19.9980  -31.1220 C   0  0  0  0  0  0  0  0  0  0  0  0
    0.1080   19.9150  -30.5360 O   0  0  0  0  0  0  0  0  0  0  0  0
   -1.9990   20.9250  -30.6610 N   0  0  0  0  0  0  0  0  0  0  0  0
   -1.6570   22.1500  -29.9100 C   0  0  2  0  0  0  0  0  0  0  0  0
   -1.4900   21.8880  -28.4410 C   0  0  0  0  0  0  0  0  0  0  0  0
   -0.8990   22.7230  -27.5100 C   0  0  0  0  0  0  0  0  0  0  0  0
   -0.9610   22.0460  -26.3110 C   0  0  0  0  0  0  0  0  0  0  0  0
   -1.5790   20.8430  -26.5820 C   0  0  0  0  0  0  0  0  0  0  0  0
   -1.8810   20.7780  -27.8590 O   0  0  0  0  0  0  0  0  0  0  0  0
   -5.7746   25.7966  -28.7584 H   0  0  0  0  0  0  0  0  0  0  0  0
   -6.8109   26.7289  -29.8914 H   0  0  0  0  0  0  0  0  0  0  0  0
   -6.8692   24.9335  -29.8914 H   0  0  0  0  0  0  0  0  0  0  0  0
   -5.5513   25.8658  -31.8121 H   0  0  0  0  0  0  0  0  0  0  0  0
   -4.4171   26.6104  -30.6262 H   0  0  0  0  0  0  0  0  0  0  0  0
   -5.6820   22.6930  -33.0450 H   0  0  0  0  0  0  0  0  0  0  0  0
   -3.6430   19.0680  -30.3380 H   0  0  0  0  0  0  0  0  0  0  0  0
   -4.7330   20.4251  -29.7629 H   0  0  0  0  0  0  0  0  0  0  0  0
   -6.2241   19.0725  -30.9014 H   0  0  0  0  0  0  0  0  0  0  0  0
   -5.7469   20.2620  -32.1600 H   0  0  0  0  0  0  0  0  0  0  0  0
   -5.0263   18.6165  -32.1600 H   0  0  0  0  0  0  0  0  0  0  0  0
   -2.6544   20.0227  -35.2809 H   0  0  0  0  0  0  0  0  0  0  0  0
   -1.4045   18.7830  -34.8985 H   0  0  0  0  0  0  0  0  0  0  0  0
   -1.9804   16.5120  -34.6529 H   0  0  0  0  0  0  0  0  0  0  0  0
   -3.7193   14.7229  -34.6131 H   0  0  0  0  0  0  0  0  0  0  0  0
   -6.1391   15.3310  -34.5525 H   0  0  0  0  0  0  0  0  0  0  0  0
   -6.8238   17.7319  -34.5408 H   0  0  0  0  0  0  0  0  0  0  0  0
   -5.0914   19.5277  -34.5840 H   0  0  0  0  0  0  0  0  0  0  0  0
   -1.7576   18.1760  -31.9295 H   0  0  0  0  0  0  0  0  0  0  0  0
   -0.3665   18.9112  -32.8277 H   0  0  0  0  0  0  0  0  0  0  0  0
   -0.7015   22.5997  -30.2179 H   0  0  0  0  0  0  0  0  0  0  0  0
   -0.4691   23.7196  -27.6892 H   0  0  0  0  0  0  0  0  0  0  0  0
   -0.5921   22.3947  -25.3351 H   0  0  0  0  0  0  0  0  0  0  0  0
   -1.7874   20.0571  -25.8411 H   0  0  0  0  0  0  0  0  0  0  0  0
  1  2  1  0
  2  3  1  0
  3  4  1  0
  4  5  1  0
  4  6  2  0
  6  7  1  0
  7  8  2  0
  8  9  1  0
  7 10  1  0
 10 11  1  1
 11 12  1  0
 10 13  1  0
 13 14  2  0
 13 15  1  0
 15 16  1  0
 16 17  1  0
 17 18  2  0
 18 19  1  0
 19 20  2  0
 20 21  1  0
 21 22  2  0
 15 23  1  0
 23 24  1  0
 24 25  2  0
 24 26  1  0
 26 27  1  0
 27 28  1  0
 28 29  2  0
 29 30  1  0
 30 31  2  0
 31 32  1  0
  8  3  1  0
 26 10  1  0
 32 28  1  0
 27  6  1  0
 22 17  1  0
  1 33  1  0
  1 34  1  0
  1 35  1  0
  2 36  1  0
  2 37  1  0
  9 38  1  0
 11 39  1  0
 11 40  1  0
 12 41  1  0
 12 42  1  0
 12 43  1  0
 16 44  1  0
 16 45  1  0
 18 46  1  0
 19 47  1  0
 20 48  1  0
 21 49  1  0
 22 50  1  0
 23 51  1  0
 23 52  1  0
 27 53  1  6
 29 54  1  0
 30 55  1  0
 31 56  1  0
M  CHG  1   5  -1
M  END
>  <UniqueID>  (6) 
6

>  <SMILES>  (6) 
CCn1c([O-])c2c(c1O)[C@@]1(CC)C(=O)N(Cc3ccccc3)CC(=O)N1[C@@H]2c1ccco1

>  <Energy>  (6) 
136.3463458162583

>  <Genealogy>  (6) 
CCn1c([O-])c2c(c1O)C1(CC)C(=O)N(Cc3ccccc3)CC(=O)N1C2c1ccco1 (protonated)
CCn1c([O-])c2c(c1O)[C@@]1(CC)C(=O)N(Cc3ccccc3)CC(=O)N1[C@@H]2c1ccco1 (chirality)
CCn1c([O-])c2c(c1O)[C@@]1(CC)C(=O)N(Cc3ccccc3)CC(=O)N1[C@@H]2c1ccco1 (3D coordinates assigned)
CCn1c([O-])c2c(c1O)[C@@]1(CC)C(=O)N(Cc3ccccc3)CC(=O)N1[C@@H]2c1ccco1 (nonaromatic ring conformer: 136.3463458162583 kcal/mol)

>  <smiles>  (6) 
CCn1c(O)c2c(c1O)C1(CC)C(=O)N(Cc3ccccc3)CC(=O)N1C2c1ccco1

>  <score_type>  (6) 
oracle

>  <origin>  (6) 
adg

>  <m_score__min__energy>  (6) 
-9.9700000000000006

>  <m_primary>  (6) 
energy

$$$$
6:0
     RDKit          3D

 48 52  0  0  0  0  0  0  0  0999 V2000
   -3.7041   19.6992  -26.1144 H   0  0  0  0  0  0  0  0  0  0  0  0
   -2.7020   19.6930  -26.5680 C   0  0  0  0  0  0  0  0  0  0  0  0
   -2.0010   20.7900  -26.9180 N   0  0  0  0  0  0  0  0  0  0  0  0
   -0.8540   20.3010  -27.4390 C   0  0  0  0  0  0  0  0  0  0  0  0
    0.2620   21.1840  -27.9290 C   0  0  0  0  0  0  0  0  0  0  0  0
    0.5241   21.9044  -27.1401 H   0  0  0  0  0  0  0  0  0  0  0  0
    1.1280   20.5519  -28.1752 H   0  0  0  0  0  0  0  0  0  0  0  0
   -0.1400   21.9150  -29.1310 N   0  0  0  0  0  0  0  0  0  0  0  0
   -0.8990   22.9750  -29.1890 C   0  0  0  0  0  0  0  0  0  0  0  0
   -0.4360   24.2570  -28.8370 C   0  0  0  0  0  0  0  0  0  0  0  0
    0.5996   24.3980  -28.4939 H   0  0  0  0  0  0  0  0  0  0  0  0
   -1.3010   25.3460  -28.9270 C   0  0  0  0  0  0  0  0  0  0  0  0
   -0.9433   26.3531  -28.6667 H   0  0  0  0  0  0  0  0  0  0  0  0
   -2.5840   25.1680  -29.3350 N   0  0  0  0  0  0  0  0  0  0  0  0
   -3.0770   23.9440  -29.6730 C   0  0  0  0  0  0  0  0  0  0  0  0
   -4.4970   23.8250  -30.0990 C   0  0  0  0  0  0  0  0  0  0  0  0
   -5.3890   24.9340  -30.0250 C   0  0  0  0  0  0  0  0  0  0  0  0
   -5.0263   25.8959  -29.6335 H   0  0  0  0  0  0  0  0  0  0  0  0
   -6.7260   24.8170  -30.4450 C   0  0  0  0  0  0  0  0  0  0  0  0
   -7.4178   25.6696  -30.3776 H   0  0  0  0  0  0  0  0  0  0  0  0
   -7.1470   23.5910  -30.9480 C   0  0  0  0  0  0  0  0  0  0  0  0
   -8.3460   23.2700  -31.3800 O   0  0  0  0  0  0  0  0  0  0  0  0
   -8.2970   22.0040  -31.7540 C   0  0  0  0  0  0  0  0  0  0  0  0
   -7.0250   21.4920  -31.5820 C   0  0  0  0  0  0  0  0  0  0  0  0
   -6.2920   22.5230  -31.0420 C   0  0  0  0  0  0  0  0  0  0  0  0
   -4.9660   22.5960  -30.6250 C   0  0  0  0  0  0  0  0  0  0  0  0
   -4.3006   21.7235  -30.7018 H   0  0  0  0  0  0  0  0  0  0  0  0
   -6.6560   20.0550  -31.7940 C   0  0  0  0  0  0  0  0  0  0  0  0
   -5.6766   20.0009  -32.2918 H   0  0  0  0  0  0  0  0  0  0  0  0
   -6.6098   19.5484  -30.8187 H   0  0  0  0  0  0  0  0  0  0  0  0
   -7.7130   19.3590  -32.6730 C   0  0  0  0  0  0  0  0  0  0  0  0
   -7.5785   19.6829  -33.7156 H   0  0  0  0  0  0  0  0  0  0  0  0
   -7.5763   18.2718  -32.5763 H   0  0  0  0  0  0  0  0  0  0  0  0
   -9.1480   19.7040  -32.2240 C   0  0  0  0  0  0  0  0  0  0  0  0
   -9.8613   19.1617  -32.8621 H   0  0  0  0  0  0  0  0  0  0  0  0
   -9.2580   19.4084  -31.1702 H   0  0  0  0  0  0  0  0  0  0  0  0
   -9.4310   21.2150  -32.3310 C   0  0  0  0  0  0  0  0  0  0  0  0
   -9.5580   21.4852  -33.3897 H   0  0  0  0  0  0  0  0  0  0  0  0
  -10.3472   21.4457  -31.7677 H   0  0  0  0  0  0  0  0  0  0  0  0
   -2.2240   22.8270  -29.6150 C   0  0  0  0  0  0  0  0  0  0  0  0
   -2.5993   21.8346  -29.9052 H   0  0  0  0  0  0  0  0  0  0  0  0
   -0.8000   18.9520  -27.3950 N   0  0  0  0  0  0  0  0  0  0  0  0
    0.2730   18.0800  -27.8520 C   0  0  0  0  0  0  0  0  0  0  0  0
    0.7958   17.6552  -26.9824 H   0  0  0  0  0  0  0  0  0  0  0  0
   -0.1495   17.2661  -28.4594 H   0  0  0  0  0  0  0  0  0  0  0  0
    0.9833   18.6601  -28.4594 H   0  0  0  0  0  0  0  0  0  0  0  0
   -1.9720   18.5630  -26.8650 C   0  0  0  0  0  0  0  0  0  0  0  0
   -2.2924   17.5241  -26.6976 H   0  0  0  0  0  0  0  0  0  0  0  0
  1  2  1  0
  2  3  1  0
  3  4  2  0
  4  5  1  0
  5  6  1  0
  5  7  1  0
  5  8  1  0
  8  9  2  0
  9 10  1  0
 10 11  1  0
 10 12  2  0
 12 13  1  0
 12 14  1  0
 14 15  1  0
 15 16  1  0
 16 17  2  0
 17 18  1  0
 17 19  1  0
 19 20  1  0
 19 21  2  0
 21 22  1  0
 22 23  1  0
 23 24  2  0
 24 25  1  0
 25 26  2  0
 26 27  1  0
 24 28  1  0
 28 29  1  0
 28 30  1  0
 28 31  1  0
 31 32  1  0
 31 33  1  0
 31 34  1  0
 34 35  1  0
 34 36  1  0
 34 37  1  0
 37 38  1  0
 37 39  1  0
 15 40  2  0
 40 41  1  0
  4 42  1  0
 42 43  1  0
 43 44  1  0
 43 45  1  0
 43 46  1  0
 42 47  1  0
 47 48  1  0
 47  2  2  0
 40  9  1  0
 26 16  1  0
 25 21  1  0
 37 23  1  0
M  CHG  1  14  -1
M  END
>  <UniqueID>  (7) 
7

>  <SMILES>  (7) 
Cn1ccnc1C/N=c1\cc[n-]c(-c2ccc3oc4c(c3c2)CCCC4)c1

>  <Energy>  (7) 
121.50485571921335

>  <Genealogy>  (7) 
Cn1ccnc1CN=c1cc[n-]c(-c2ccc3oc4c(c3c2)CCCC4)c1 (protonated)
Cn1ccnc1C/N=c1\cc[n-]c(-c2ccc3oc4c(c3c2)CCCC4)c1 (cis-trans isomerization)
Cn1ccnc1C/N=c1\cc[n-]c(-c2ccc3oc4c(c3c2)CCCC4)c1 (3D coordinates assigned)
Cn1ccnc1C/N=c1\cc[n-]c(-c2ccc3oc4c(c3c2)CCCC4)c1 (nonaromatic ring conformer: 121.50485571921335 kcal/mol)

>  <smiles>  (7) 
Cn1ccnc1CN=c1cc[nH]c(-c2ccc3oc4c(c3c2)CCCC4)c1

>  <score_type>  (7) 
oracle

>  <origin>  (7) 
adg

>  <m_score__min__energy>  (7) 
-10.960000000000001

>  <m_primary>  (7) 
energy

$$$$
7:0
     RDKit          3D

 45 48  0  0  0  0  0  0  0  0999 V2000
   -1.6160   25.6720  -29.3460 O   0  0  0  0  0  0  0  0  0  0  0  0
   -1.0210   24.6930  -28.8200 C   0  0  0  0  0  0  0  0  0  0  0  0
    0.2380   24.8900  -28.2650 O   0  0  0  0  0  0  0  0  0  0  0  0
   -1.6570   23.3570  -28.7970 C   0  0  0  0  0  0  0  0  0  0  0  0
   -2.0890   22.7850  -29.9300 C   0  0  0  0  0  0  0  0  0  0  0  0
   -2.6810   21.4730  -29.9130 N   0  0  0  0  0  0  0  0  0  0  0  0
   -3.0140   20.8220  -31.1860 C   0  0  0  0  0  0  0  0  0  0  0  0
   -2.9340   21.8160  -32.3510 C   0  0  0  0  0  0  0  0  0  0  0  0
   -4.2390   21.8280  -33.1800 C   0  0  0  0  0  0  0  0  0  0  0  0
   -5.4410   21.9230  -32.3290 N   0  0  0  0  0  0  0  0  0  0  0  0
   -5.6890   23.1060  -31.5150 C   0  0  0  0  0  0  0  0  0  0  0  0
   -4.6370   23.9110  -31.0270 C   0  0  0  0  0  0  0  0  0  0  0  0
   -4.8860   24.9260  -30.0980 C   0  0  0  0  0  0  0  0  0  0  0  0
   -6.1860   25.1650  -29.6520 C   0  0  0  0  0  0  0  0  0  0  0  0
   -7.2470   24.4220  -30.1710 C   0  0  0  0  0  0  0  0  0  0  0  0
   -7.0050   23.4230  -31.1190 C   0  0  0  0  0  0  0  0  0  0  0  0
   -8.3900   22.6950  -31.9780 S   0  0  0  0  0  0  0  0  0  0  0  0
   -7.7200   21.0420  -31.8860 C   0  0  0  0  0  0  0  0  0  0  0  0
   -8.5820   19.9770  -31.6070 C   0  0  0  0  0  0  0  0  0  0  0  0
   -8.1390   18.6620  -31.7540 C   0  0  0  0  0  0  0  0  0  0  0  0
   -6.8430   18.4120  -32.2030 C   0  0  0  0  0  0  0  0  0  0  0  0
   -5.9680   19.4730  -32.4580 C   0  0  0  0  0  0  0  0  0  0  0  0
   -6.3780   20.8090  -32.2540 C   0  0  0  0  0  0  0  0  0  0  0  0
   -3.1080   20.8480  -28.6530 C   0  0  0  0  0  0  0  0  0  0  0  0
   -2.4270   21.4520  -27.4560 C   0  0  0  0  0  0  0  0  0  0  0  0
   -1.7980   22.6250  -27.5200 C   0  0  0  0  0  0  0  0  0  0  0  0
   -1.9899   23.3245  -30.8835 H   0  0  0  0  0  0  0  0  0  0  0  0
   -2.3053   20.0001  -31.3655 H   0  0  0  0  0  0  0  0  0  0  0  0
   -4.0430   20.4381  -31.1238 H   0  0  0  0  0  0  0  0  0  0  0  0
   -2.7577   22.8244  -31.9484 H   0  0  0  0  0  0  0  0  0  0  0  0
   -2.1101   21.5067  -33.0110 H   0  0  0  0  0  0  0  0  0  0  0  0
   -4.2180   22.6919  -33.8606 H   0  0  0  0  0  0  0  0  0  0  0  0
   -4.2938   20.8805  -33.7360 H   0  0  0  0  0  0  0  0  0  0  0  0
   -3.6102   23.7379  -31.3814 H   0  0  0  0  0  0  0  0  0  0  0  0
   -4.0545   25.5377  -29.7178 H   0  0  0  0  0  0  0  0  0  0  0  0
   -6.3744   25.9380  -28.8924 H   0  0  0  0  0  0  0  0  0  0  0  0
   -8.2748   24.6224  -29.8340 H   0  0  0  0  0  0  0  0  0  0  0  0
   -9.6104   20.1760  -31.2713 H   0  0  0  0  0  0  0  0  0  0  0  0
   -8.8110   17.8243  -31.5161 H   0  0  0  0  0  0  0  0  0  0  0  0
   -6.5072   17.3760  -32.3574 H   0  0  0  0  0  0  0  0  0  0  0  0
   -4.9507   19.2648  -32.8209 H   0  0  0  0  0  0  0  0  0  0  0  0
   -4.1949   20.9779  -28.5444 H   0  0  0  0  0  0  0  0  0  0  0  0
   -2.8324   19.7839  -28.6952 H   0  0  0  0  0  0  0  0  0  0  0  0
   -2.4487   20.9095  -26.4993 H   0  0  0  0  0  0  0  0  0  0  0  0
   -1.3741   23.0585  -26.6022 H   0  0  0  0  0  0  0  0  0  0  0  0
  1  2  2  0
  2  3  1  0
  2  4  1  0
  4  5  2  0
  5  6  1  0
  6  7  1  0
  7  8  1  0
  8  9  1  0
  9 10  1  0
 10 11  1  0
 11 12  2  0
 12 13  1  0
 13 14  2  0
 14 15  1  0
 15 16  2  0
 16 17  1  0
 17 18  1  0
 18 19  2  0
 19 20  1  0
 20 21  2  0
 21 22  1  0
 22 23  2  0
  6 24  1  0
 24 25  1  0
 25 26  2  0
 26  4  1  0
 23 10  1  0
 16 11  1  0
 23 18  1  0
  5 27  1  0
  7 28  1  0
  7 29  1  0
  8 30  1  0
  8 31  1  0
  9 32  1  0
  9 33  1  0
 12 34  1  0
 13 35  1  0
 14 36  1  0
 15 37  1  0
 19 38  1  0
 20 39  1  0
 21 40  1  0
 22 41  1  0
 24 42  1  0
 24 43  1  0
 25 44  1  0
 26 45  1  0
M  CHG  1   3  -1
M  END
>  <UniqueID>  (8) 
8

>  <SMILES>  (8) 
O=C([O-])C1=CN(CCCN2c3ccccc3Sc3ccccc32)CC=C1

>  <Energy>  (8) 
63.87571765537678

>  <Genealogy>  (8) 
O=C([O-])C1=CN(CCCN2c3ccccc3Sc3ccccc32)CC=C1 (protonated)
O=C([O-])C1=CN(CCCN2c3ccccc3Sc3ccccc32)CC=C1 (3D coordinates assigned)
O=C([O-])C1=CN(CCCN2c3ccccc3Sc3ccccc32)CC=C1 (nonaromatic ring conformer: 63.87571765537678 kcal/mol)

>  <smiles>  (8) 
O=C(O)C1=CN(CCCN2c3ccccc3Sc3ccccc32)CC=C1

>  <score_type>  (8) 
oracle

>  <origin>  (8) 
adg

>  <m_score__min__energy>  (8) 
-11.720000000000001

>  <m_primary>  (8) 
energy

$$$$
8:0
     RDKit          3D

 35 37  0  0  0  0  0  0  0  0999 V2000
   -1.5764   22.8050  -26.9296 H   0  0  0  0  0  0  0  0  0  0  0  0
   -1.9420   23.4590  -27.7350 C   0  0  0  0  0  0  0  0  0  0  0  0
   -3.3200   23.2080  -28.6660 S   0  0  0  0  0  0  0  0  0  0  0  0
   -3.1010   24.6190  -29.5650 C   0  0  0  0  0  0  0  0  0  0  0  0
   -3.8670   25.0600  -30.5200 N   0  0  0  0  0  0  0  0  0  0  0  0
   -5.3030   25.0330  -30.5830 C   0  0  0  0  0  0  0  0  0  0  0  0
   -5.9860   25.9880  -30.1240 O   0  0  0  0  0  0  0  0  0  0  0  0
   -5.9910   23.8680  -31.1920 C   0  0  0  0  0  0  0  0  0  0  0  0
   -7.3960   23.8050  -31.2250 C   0  0  0  0  0  0  0  0  0  0  0  0
   -7.9898   24.6221  -30.7895 H   0  0  0  0  0  0  0  0  0  0  0  0
   -8.0420   22.7120  -31.8070 C   0  0  0  0  0  0  0  0  0  0  0  0
   -9.1411   22.6754  -31.8336 H   0  0  0  0  0  0  0  0  0  0  0  0
   -7.2980   21.6660  -32.3550 C   0  0  0  0  0  0  0  0  0  0  0  0
   -7.8136   20.8128  -32.8200 H   0  0  0  0  0  0  0  0  0  0  0  0
   -5.9010   21.6970  -32.3160 C   0  0  0  0  0  0  0  0  0  0  0  0
   -5.1880   20.6330  -32.8880 O   0  0  0  0  0  0  0  0  0  0  0  0
   -5.6870   19.3390  -33.0970 C   0  0  0  0  0  0  0  0  0  0  0  0
   -6.3700   18.6320  -32.0910 C   0  0  0  0  0  0  0  0  0  0  0  0
   -6.5146   19.0900  -31.1014 H   0  0  0  0  0  0  0  0  0  0  0  0
   -6.8660   17.3490  -32.3440 C   0  0  0  0  0  0  0  0  0  0  0  0
   -7.3903   16.7961  -31.5506 H   0  0  0  0  0  0  0  0  0  0  0  0
   -6.6960   16.7690  -33.6040 C   0  0  0  0  0  0  0  0  0  0  0  0
   -7.1770   15.5250  -33.8490 F   0  0  0  0  0  0  0  0  0  0  0  0
   -6.0360   17.4740  -34.6150 C   0  0  0  0  0  0  0  0  0  0  0  0
   -5.9067   17.0194  -35.6083 H   0  0  0  0  0  0  0  0  0  0  0  0
   -5.5400   18.7580  -34.3630 C   0  0  0  0  0  0  0  0  0  0  0  0
   -5.0315   19.3145  -35.1641 H   0  0  0  0  0  0  0  0  0  0  0  0
   -5.2500   22.8090  -31.7490 C   0  0  0  0  0  0  0  0  0  0  0  0
   -4.1508   22.8506  -31.7412 H   0  0  0  0  0  0  0  0  0  0  0  0
   -1.9960   25.2860  -29.1720 N   0  0  0  0  0  0  0  0  0  0  0  0
   -1.3460   24.6420  -28.1650 C   0  0  0  0  0  0  0  0  0  0  0  0
   -0.1170   25.2070  -27.5330 C   0  0  0  0  0  0  0  0  0  0  0  0
   -0.2140   25.1624  -26.4382 H   0  0  0  0  0  0  0  0  0  0  0  0
    0.7594   24.6214  -27.8476 H   0  0  0  0  0  0  0  0  0  0  0  0
    0.0091   26.2535  -27.8476 H   0  0  0  0  0  0  0  0  0  0  0  0
  1  2  1  0
  2  3  1  0
  3  4  1  0
  4  5  2  0
  5  6  1  0
  6  7  2  0
  6  8  1  0
  8  9  2  0
  9 10  1  0
  9 11  1  0
 11 12  1  0
 11 13  2  0
 13 14  1  0
 13 15  1  0
 15 16  1  0
 16 17  1  0
 17 18  2  0
 18 19  1  0
 18 20  1  0
 20 21  1  0
 20 22  2  0
 22 23  1  0
 22 24  1  0
 24 25  1  0
 24 26  2  0
 26 27  1  0
 15 28  2  0
 28 29  1  0
  4 30  1  0
 30 31  1  0
 31 32  1  0
 32 33  1  0
 32 34  1  0
 32 35  1  0
 31  2  2  0
 28  8  1  0
 26 17  1  0
M  CHG  1  30  -1
M  END
>  <UniqueID>  (9) 
9

>  <SMILES>  (9) 
Cc1cs/c(=N\C(=O)c2cccc(Oc3ccc(F)cc3)c2)[n-]1

>  <Energy>  (9) 
76.82431003149281

>  <Genealogy>  (9) 
Cc1csc(=NC(=O)c2cccc(Oc3ccc(F)cc3)c2)[n-]1 (protonated)
Cc1cs/c(=N\C(=O)c2cccc(Oc3ccc(F)cc3)c2)[n-]1 (cis-trans isomerization)
Cc1cs/c(=N\C(=O)c2cccc(Oc3ccc(F)cc3)c2)[n-]1 (3D coordinates assigned)
Cc1cs/c(=N\C(=O)c2cccc(Oc3ccc(F)cc3)c2)[n-]1 (optimized conformer: 76.82431003149281 kcal/mol)

>  <smiles>  (9) 
Cc1csc(=NC(=O)c2cccc(Oc3ccc(F)cc3)c2)[nH]1

>  <score_type>  (9) 
oracle

>  <origin>  (9) 
adg

>  <m_score__min__energy>  (9) 
-10.029999999999999

>  <m_primary>  (9) 
energy

$$$$
9:0
     RDKit          3D

 23 24  0  0  0  0  0  0  0  0999 V2000
   -2.6356   23.9129  -28.1256 H   0  0  0  0  0  0  0  0  0  0  0  0
   -3.1920   24.1630  -29.0410 C   0  0  0  0  0  0  0  0  0  0  0  0
   -3.1140   25.2990  -29.6990 O   0  0  0  0  0  0  0  0  0  0  0  0
   -3.8930   25.2990  -30.7430 N   0  0  0  0  0  0  0  0  0  0  0  0
   -4.5030   24.0980  -30.7540 C   0  0  0  0  0  0  0  0  0  0  0  0
   -5.3630   23.7060  -31.6480 N   0  0  0  0  0  0  0  0  0  0  0  0
   -5.3520   22.4470  -32.3360 C   0  0  0  0  0  0  0  0  0  0  0  0
   -4.4200   22.1580  -33.1360 O   0  0  0  0  0  0  0  0  0  0  0  0
   -6.4420   21.5370  -32.1340 N   0  0  0  0  0  0  0  0  0  0  0  0
   -7.3070   21.9160  -31.6870 H   0  0  0  0  0  0  0  0  0  0  0  0
   -6.4630   20.1790  -32.6080 C   0  0  0  0  0  0  0  0  0  0  0  0
   -5.8610   19.8160  -33.8280 C   0  0  0  0  0  0  0  0  0  0  0  0
   -5.3774   20.5839  -34.4497 H   0  0  0  0  0  0  0  0  0  0  0  0
   -5.8750   18.4840  -34.2530 C   0  0  0  0  0  0  0  0  0  0  0  0
   -5.4129   18.2092  -35.2126 H   0  0  0  0  0  0  0  0  0  0  0  0
   -6.4750   17.5010  -33.4610 C   0  0  0  0  0  0  0  0  0  0  0  0
   -6.4890   15.6810  -34.0420 Br  0  0  0  0  0  0  0  0  0  0  0  0
   -7.0530   17.8490  -32.2370 C   0  0  0  0  0  0  0  0  0  0  0  0
   -7.5187   17.0748  -31.6096 H   0  0  0  0  0  0  0  0  0  0  0  0
   -7.0400   19.1800  -31.8090 C   0  0  0  0  0  0  0  0  0  0  0  0
   -7.4853   19.4460  -30.8390 H   0  0  0  0  0  0  0  0  0  0  0  0
   -4.0860   23.3380  -29.6880 C   0  0  0  0  0  0  0  0  0  0  0  0
   -4.3921   22.3169  -29.4165 H   0  0  0  0  0  0  0  0  0  0  0  0
  1  2  1  0
  2  3  1  0
  3  4  1  0
  4  5  1  0
  5  6  2  0
  6  7  1  0
  7  8  2  0
  7  9  1  0
  9 10  1  0
  9 11  1  0
 11 12  2  0
 12 13  1  0
 12 14  1  0
 14 15  1  0
 14 16  2  0
 16 17  1  0
 16 18  1  0
 18 19  1  0
 18 20  2  0
 20 21  1  0
  5 22  1  0
 22 23  1  0
 22  2  2  0
 20 11  1  0
M  CHG  1   4  -1
M  END
>  <UniqueID>  (10) 
10

>  <SMILES>  (10) 
O=C(/N=c1/cco[n-]1)Nc1ccc(Br)cc1

>  <Energy>  (10) 
59.34569276552448

>  <Genealogy>  (10) 
O=C(N=c1cco[n-]1)Nc1ccc(Br)cc1 (protonated)
O=C(/N=c1/cco[n-]1)Nc1ccc(Br)cc1 (cis-trans isomerization)
O=C(/N=c1/cco[n-]1)Nc1ccc(Br)cc1 (3D coordinates assigned)
O=C(/N=c1/cco[n-]1)Nc1ccc(Br)cc1 (optimized conformer: 59.34569276552448 kcal/mol)

>  <smiles>  (10) 
O=C(N=c1cco[nH]1)Nc1ccc(Br)cc1

>  <score_type>  (10) 
oracle

>  <origin>  (10) 
adg

>  <m_score__min__energy>  (10) 
-8.4299999999999997

>  <m_primary>  (10) 
energy

$$$$
10:0
     RDKit          3D

 43 45  0  0  0  0  0  0  0  0999 V2000
   -7.7140   23.4100  -32.1880 C   0  0  0  0  0  0  0  0  0  0  0  0
   -6.4640   22.9930  -32.7260 O   0  0  0  0  0  0  0  0  0  0  0  0
   -5.2330   23.0690  -32.0500 C   0  0  0  0  0  0  0  0  0  0  0  0
   -4.9270   24.1580  -31.2150 C   0  0  0  0  0  0  0  0  0  0  0  0
   -3.7180   24.2060  -30.5280 C   0  0  0  0  0  0  0  0  0  0  0  0
   -3.4280   25.2920  -29.7100 O   0  0  0  0  0  0  0  0  0  0  0  0
   -2.8020   23.1650  -30.6500 C   0  0  0  0  0  0  0  0  0  0  0  0
   -3.0780   22.0580  -31.4740 C   0  0  0  0  0  0  0  0  0  0  0  0
   -2.1770   20.9850  -31.5650 O   0  0  0  0  0  0  0  0  0  0  0  0
   -0.9670   20.8660  -30.8240 C   0  0  0  0  0  0  0  0  0  0  0  0
   -4.2920   22.0210  -32.2130 C   0  0  0  0  0  0  0  0  0  0  0  0
   -4.6510   20.8440  -33.1300 C   0  0  2  0  0  0  0  0  0  0  0  0
   -5.8480   20.0590  -32.6070 C   0  0  0  0  0  0  0  0  0  0  0  0
   -7.1260   20.3110  -33.1410 C   0  0  0  0  0  0  0  0  0  0  0  0
   -8.2360   19.5830  -32.7000 C   0  0  0  0  0  0  0  0  0  0  0  0
   -8.0820   18.5900  -31.7310 C   0  0  0  0  0  0  0  0  0  0  0  0
   -6.8180   18.3180  -31.2040 C   0  0  0  0  0  0  0  0  0  0  0  0
   -5.7050   19.0420  -31.6410 C   0  0  0  0  0  0  0  0  0  0  0  0
   -3.4570   19.9770  -33.5110 C   0  0  0  0  0  0  0  0  0  0  0  0
   -2.3810   20.5750  -34.1950 C   0  0  0  0  0  0  0  0  0  0  0  0
   -1.2510   19.8280  -34.5390 C   0  0  0  0  0  0  0  0  0  0  0  0
   -1.1770   18.4730  -34.2040 C   0  0  0  0  0  0  0  0  0  0  0  0
    0.2830   17.5140  -34.6440 S   0  0  0  0  0  0  0  0  0  0  0  0
   -2.2360   17.8650  -33.5250 C   0  0  0  0  0  0  0  0  0  0  0  0
   -3.3680   18.6080  -33.1780 C   0  0  0  0  0  0  0  0  0  0  0  0
   -7.6641   23.3934  -31.0893 H   0  0  0  0  0  0  0  0  0  0  0  0
   -7.9377   24.4314  -32.5295 H   0  0  0  0  0  0  0  0  0  0  0  0
   -8.5062   22.7275  -32.5295 H   0  0  0  0  0  0  0  0  0  0  0  0
   -5.6500   24.9795  -31.1038 H   0  0  0  0  0  0  0  0  0  0  0  0
   -1.8524   23.2081  -30.0965 H   0  0  0  0  0  0  0  0  0  0  0  0
   -1.1925   20.8882  -29.7476 H   0  0  0  0  0  0  0  0  0  0  0  0
   -0.4747   19.9151  -31.0760 H   0  0  0  0  0  0  0  0  0  0  0  0
   -0.2989   21.7028  -31.0760 H   0  0  0  0  0  0  0  0  0  0  0  0
   -4.9721   21.2829  -34.0862 H   0  0  0  0  0  0  0  0  0  0  0  0
   -7.2526   21.0863  -33.9109 H   0  0  0  0  0  0  0  0  0  0  0  0
   -9.2318   19.7933  -33.1174 H   0  0  0  0  0  0  0  0  0  0  0  0
   -8.9569   18.0216  -31.3825 H   0  0  0  0  0  0  0  0  0  0  0  0
   -6.6978   17.5324  -30.4434 H   0  0  0  0  0  0  0  0  0  0  0  0
   -4.7105   18.8167  -31.2283 H   0  0  0  0  0  0  0  0  0  0  0  0
   -2.4304   21.6411  -34.4613 H   0  0  0  0  0  0  0  0  0  0  0  0
   -0.4182   20.3073  -35.0744 H   0  0  0  0  0  0  0  0  0  0  0  0
   -2.1787   16.7983  -33.2627 H   0  0  0  0  0  0  0  0  0  0  0  0
   -4.1961   18.1221  -32.6412 H   0  0  0  0  0  0  0  0  0  0  0  0
  1  2  1  0
  2  3  1  0
  3  4  2  0
  4  5  1  0
  5  6  1  0
  5  7  2  0
  7  8  1  0
  8  9  1  0
  9 10  1  0
  8 11  2  0
 11 12  1  0
 12 13  1  0
 13 14  2  0
 14 15  1  0
 15 16  2  0
 16 17  1  0
 17 18  2  0
 12 19  1  0
 19 20  2  0
 20 21  1  0
 21 22  2  0
 22 23  1  0
 22 24  1  0
 24 25  2  0
 11  3  1  0
 18 13  1  0
 25 19  1  0
  1 26  1  0
  1 27  1  0
  1 28  1  0
  4 29  1  0
  7 30  1  0
 10 31  1  0
 10 32  1  0
 10 33  1  0
 12 34  1  6
 14 35  1  0
 15 36  1  0
 16 37  1  0
 17 38  1  0
 18 39  1  0
 20 40  1  0
 21 41  1  0
 24 42  1  0
 25 43  1  0
M  CHG  2   6  -1  23  -1
M  END
>  <UniqueID>  (11) 
11

>  <SMILES>  (11) 
COc1cc([O-])cc(OC)c1[C@H](c1ccccc1)c1ccc([S-])cc1

>  <Energy>  (11) 
52.11532714228357

>  <Genealogy>  (11) 
COc1cc([O-])cc(OC)c1C(c1ccccc1)c1ccc([S-])cc1 (protonated)
COc1cc([O-])cc(OC)c1[C@H](c1ccccc1)c1ccc([S-])cc1 (chirality)
COc1cc([O-])cc(OC)c1[C@H](c1ccccc1)c1ccc([S-])cc1 (3D coordinates assigned)
COc1cc([O-])cc(OC)c1[C@H](c1ccccc1)c1ccc([S-])cc1 (optimized conformer: 52.11532714228357 kcal/mol)

>  <smiles>  (11) 
COc1cc(O)cc(OC)c1C(c1ccccc1)c1ccc(S)cc1

>  <score_type>  (11) 
oracle

>  <origin>  (11) 
adg

>  <m_score__min__energy>  (11) 
-8.9700000000000006

>  <m_primary>  (11) 
energy

$$$$
11:0
     RDKit          3D

 65 69  0  0  0  0  0  0  0  0999 V2000
   -2.9280   21.8980  -32.2540 C   0  0  0  0  0  0  0  0  0  0  0  0
   -3.3100   21.2150  -33.4410 O   0  0  0  0  0  0  0  0  0  0  0  0
   -3.3910   19.8210  -33.5200 C   0  0  0  0  0  0  0  0  0  0  0  0
   -2.2180   19.0640  -33.5150 C   0  0  0  0  0  0  0  0  0  0  0  0
   -2.2950   17.6730  -33.5990 C   0  0  0  0  0  0  0  0  0  0  0  0
   -3.5450   17.0450  -33.6810 C   0  0  0  0  0  0  0  0  0  0  0  0
   -3.6460   15.6880  -33.7670 N   0  0  0  0  0  0  0  0  0  0  0  0
   -4.8600   15.0650  -33.8290 C   0  0  0  0  0  0  0  0  0  0  0  0
   -4.9450   13.5660  -33.9710 C   0  0  0  0  0  0  0  0  0  0  0  0
   -5.6300   13.2270  -35.1260 F   0  0  0  0  0  0  0  0  0  0  0  0
   -5.6080   13.0030  -32.8960 F   0  0  0  0  0  0  0  0  0  0  0  0
   -3.6670   13.0430  -34.0350 F   0  0  0  0  0  0  0  0  0  0  0  0
   -6.0360   15.8340  -33.8510 C   0  0  0  0  0  0  0  0  0  0  0  0
   -5.9640   17.2360  -33.7770 C   0  0  0  0  0  0  0  0  0  0  0  0
   -7.1070   18.0550  -33.7890 O   0  0  0  0  0  0  0  0  0  0  0  0
   -8.0470   18.1930  -32.7220 C   0  0  0  0  0  0  0  0  0  0  0  0
   -7.5830   19.2670  -31.7290 C   0  0  0  0  0  0  0  0  0  0  0  0
   -7.5760   20.6050  -32.3610 N   0  0  0  0  0  0  0  0  0  0  0  0
   -6.2470   21.2580  -32.2420 C   0  0  0  0  0  0  0  0  0  0  0  0
   -6.1040   22.0710  -30.9460 C   0  0  0  0  0  0  0  0  0  0  0  0
   -7.2190   23.1410  -30.8030 C   0  0  0  0  0  0  0  0  0  0  0  0
   -6.6950   24.5240  -30.8100 N   0  0  0  0  0  0  0  0  0  0  0  0
   -5.2660   24.6640  -31.1450 C   0  0  0  0  0  0  0  0  0  0  0  0
   -4.4420   24.5720  -29.8940 C   0  0  0  0  0  0  0  0  0  0  0  0
   -5.0050   24.1080  -28.6940 C   0  0  0  0  0  0  0  0  0  0  0  0
   -4.2080   24.0230  -27.5490 C   0  0  0  0  0  0  0  0  0  0  0  0
   -2.8660   24.4060  -27.6090 C   0  0  0  0  0  0  0  0  0  0  0  0
   -2.3360   24.8500  -28.8260 C   0  0  0  0  0  0  0  0  0  0  0  0
   -3.1230   24.9170  -29.9320 N   0  0  0  0  0  0  0  0  0  0  0  0
   -0.9510   25.1840  -28.9070 N   0  0  0  0  0  0  0  0  0  0  0  0
   -0.1370   25.1540  -27.7330 C   0  0  0  0  0  0  0  0  0  0  0  0
    1.1020   25.3560  -27.8260 O   0  0  0  0  0  0  0  0  0  0  0  0
   -0.7720   24.9620  -26.3820 C   0  0  0  0  0  0  0  0  0  0  0  0
   -2.0500   24.3200  -26.4750 O   0  0  0  0  0  0  0  0  0  0  0  0
   -8.3780   22.9350  -31.8040 C   0  0  0  0  0  0  0  0  0  0  0  0
   -8.7190   21.4430  -31.8980 C   0  0  0  0  0  0  0  0  0  0  0  0
   -4.7080   17.8420  -33.6820 C   0  0  0  0  0  0  0  0  0  0  0  0
   -4.6000   19.1980  -33.6030 N   0  0  0  0  0  0  0  0  0  0  0  0
   -3.2521   21.3185  -31.3770 H   0  0  0  0  0  0  0  0  0  0  0  0
   -1.8343   22.0136  -32.2333 H   0  0  0  0  0  0  0  0  0  0  0  0
   -3.4020   22.8904  -32.2333 H   0  0  0  0  0  0  0  0  0  0  0  0
   -1.2391   19.5608  -33.4453 H   0  0  0  0  0  0  0  0  0  0  0  0
   -1.3750   17.0700  -33.6008 H   0  0  0  0  0  0  0  0  0  0  0  0
   -2.7710   15.1160  -33.7880 H   0  0  0  0  0  0  0  0  0  0  0  0
   -7.0149   15.3379  -33.9263 H   0  0  0  0  0  0  0  0  0  0  0  0
   -9.0243   18.4817  -33.1362 H   0  0  0  0  0  0  0  0  0  0  0  0
   -8.1268   17.2318  -32.1931 H   0  0  0  0  0  0  0  0  0  0  0  0
   -8.2665   19.2797  -30.8672 H   0  0  0  0  0  0  0  0  0  0  0  0
   -6.5596   19.0267  -31.4052 H   0  0  0  0  0  0  0  0  0  0  0  0
   -5.4693   20.4803  -32.2580 H   0  0  0  0  0  0  0  0  0  0  0  0
   -6.1404   21.9546  -33.0866 H   0  0  0  0  0  0  0  0  0  0  0  0
   -6.1591   21.3843  -30.0884 H   0  0  0  0  0  0  0  0  0  0  0  0
   -5.1359   22.5923  -30.9778 H   0  0  0  0  0  0  0  0  0  0  0  0
   -7.6522   22.9902  -29.8032 H   0  0  0  0  0  0  0  0  0  0  0  0
   -7.2620   25.0870  -31.4880 H   0  0  0  0  0  0  0  0  0  0  0  0
   -4.9721   23.8605  -31.8364 H   0  0  0  0  0  0  0  0  0  0  0  0
   -5.0974   25.6411  -31.6213 H   0  0  0  0  0  0  0  0  0  0  0  0
   -6.0643   23.8139  -28.6556 H   0  0  0  0  0  0  0  0  0  0  0  0
   -4.6358   23.6560  -26.6044 H   0  0  0  0  0  0  0  0  0  0  0  0
   -0.1075   24.3420  -25.7623 H   0  0  0  0  0  0  0  0  0  0  0  0
   -0.9228   25.9551  -25.9336 H   0  0  0  0  0  0  0  0  0  0  0  0
   -9.2622   23.4914  -31.4595 H   0  0  0  0  0  0  0  0  0  0  0  0
   -8.0738   23.3028  -32.7950 H   0  0  0  0  0  0  0  0  0  0  0  0
   -9.0284   21.0921  -30.9024 H   0  0  0  0  0  0  0  0  0  0  0  0
   -9.5222   21.3386  -32.6423 H   0  0  0  0  0  0  0  0  0  0  0  0
  1  2  1  0
  2  3  1  0
  3  4  2  0
  4  5  1  0
  5  6  2  0
  6  7  1  0
  7  8  2  0
  8  9  1  0
  9 10  1  0
  9 11  1  0
  9 12  1  0
  8 13  1  0
 13 14  2  0
 14 15  1  0
 15 16  1  0
 16 17  1  0
 17 18  1  0
 18 19  1  0
 19 20  1  0
 20 21  1  0
 21 22  1  0
 22 23  1  0
 23 24  1  0
 24 25  2  0
 25 26  1  0
 26 27  2  0
 27 28  1  0
 28 29  2  0
 28 30  1  0
 30 31  1  0
 31 32  2  0
 31 33  1  0
 33 34  1  0
 21 35  1  0
 35 36  1  0
 14 37  1  0
 37 38  2  0
 38  3  1  0
 37  6  1  0
 36 18  1  0
 29 24  1  0
 34 27  1  0
  1 39  1  0
  1 40  1  0
  1 41  1  0
  4 42  1  0
  5 43  1  0
  7 44  1  0
 13 45  1  0
 16 46  1  0
 16 47  1  0
 17 48  1  0
 17 49  1  0
 19 50  1  0
 19 51  1  0
 20 52  1  0
 20 53  1  0
 21 54  1  0
 22 55  1  0
 23 56  1  0
 23 57  1  0
 25 58  1  0
 26 59  1  0
 33 60  1  0
 33 61  1  0
 35 62  1  0
 35 63  1  0
 36 64  1  0
 36 65  1  0
M  CHG  2   7   1  30  -1
M  END
>  <UniqueID>  (12) 
12

>  <SMILES>  (12) 
COc1ccc2[nH+]c(C(F)(F)F)cc(OCCN3CCC(NCc4ccc5c(n4)[N-]C(=O)CO5)CC3)c2n1

>  <Energy>  (12) 
86.84672869249212

>  <Genealogy>  (12) 
COc1ccc2[nH+]c(C(F)(F)F)cc(OCCN3CCC(NCc4ccc5c(n4)[N-]C(=O)CO5)CC3)c2n1 (protonated)
COc1ccc2[nH+]c(C(F)(F)F)cc(OCCN3CCC(NCc4ccc5c(n4)[N-]C(=O)CO5)CC3)c2n1 (3D coordinates assigned)
COc1ccc2[nH+]c(C(F)(F)F)cc(OCCN3CCC(NCc4ccc5c(n4)[N-]C(=O)CO5)CC3)c2n1 (nonaromatic ring conformer: 86.84672869249212 kcal/mol)

>  <smiles>  (12) 
COc1ccc2nc(C(F)(F)F)cc(OCCN3CCC(NCc4ccc5c(n4)NC(=O)CO5)CC3)c2n1

>  <score_type>  (12) 
oracle

>  <origin>  (12) 
adg

>  <m_score__min__energy>  (12) 
-10.039999999999999

>  <m_primary>  (12) 
energy

$$$$
12:0
     RDKit          3D

 42 44  0  0  0  0  0  0  0  0999 V2000
   -1.2280   25.5800  -28.4610 C   0  0  0  0  0  0  0  0  0  0  0  0
   -2.3640   25.2990  -29.3290 N   0  0  0  0  0  0  0  0  0  0  0  0
   -3.5200   24.5430  -28.9450 C   0  0  0  0  0  0  0  0  0  0  0  0
   -3.7940   24.4380  -27.7200 O   0  0  0  0  0  0  0  0  0  0  0  0
   -4.4180   23.9190  -29.9360 C   0  0  0  0  0  0  0  0  0  0  0  0
   -5.4740   24.6440  -30.5080 C   0  0  0  0  0  0  0  0  0  0  0  0
   -6.2940   24.0540  -31.4720 C   0  0  0  0  0  0  0  0  0  0  0  0
   -6.0660   22.7360  -31.8770 C   0  0  0  0  0  0  0  0  0  0  0  0
   -5.0170   21.9940  -31.3150 C   0  0  0  0  0  0  0  0  0  0  0  0
   -4.7780   20.6530  -31.7730 N   0  0  0  0  0  0  0  0  0  0  0  0
   -4.2770   20.3380  -33.0840 C   0  0  0  0  0  0  0  0  0  0  0  0
   -3.7130   21.2280  -33.7770 O   0  0  0  0  0  0  0  0  0  0  0  0
   -4.3970   18.9660  -33.6260 C   0  0  0  0  0  0  0  0  0  0  0  0
   -3.2750   18.3660  -34.2240 C   0  0  0  0  0  0  0  0  0  0  0  0
   -3.3720   17.1010  -34.8050 C   0  0  0  0  0  0  0  0  0  0  0  0
   -4.5890   16.4200  -34.8020 C   0  0  0  0  0  0  0  0  0  0  0  0
   -5.7120   16.9970  -34.2080 C   0  0  0  0  0  0  0  0  0  0  0  0
   -5.6320   18.2650  -33.6060 C   0  0  0  0  0  0  0  0  0  0  0  0
   -6.8340   18.8080  -32.9280 C   0  0  0  0  0  0  0  0  0  0  0  0
   -7.3600   20.0580  -33.3020 C   0  0  0  0  0  0  0  0  0  0  0  0
   -8.4970   20.5650  -32.6640 C   0  0  0  0  0  0  0  0  0  0  0  0
   -9.1090   19.8350  -31.6420 C   0  0  0  0  0  0  0  0  0  0  0  0
   -8.5850   18.5990  -31.2530 C   0  0  0  0  0  0  0  0  0  0  0  0
   -7.4500   18.0880  -31.8910 C   0  0  0  0  0  0  0  0  0  0  0  0
   -4.1790   22.6020  -30.3620 C   0  0  0  0  0  0  0  0  0  0  0  0
   -1.5419   25.5024  -27.4096 H   0  0  0  0  0  0  0  0  0  0  0  0
   -0.4266   24.8530  -28.6590 H   0  0  0  0  0  0  0  0  0  0  0  0
   -0.8579   26.5968  -28.6590 H   0  0  0  0  0  0  0  0  0  0  0  0
   -5.6570   25.6827  -30.1955 H   0  0  0  0  0  0  0  0  0  0  0  0
   -7.1217   24.6282  -31.9138 H   0  0  0  0  0  0  0  0  0  0  0  0
   -6.7125   22.2784  -32.6403 H   0  0  0  0  0  0  0  0  0  0  0  0
   -4.9710   19.8700  -31.1090 H   0  0  0  0  0  0  0  0  0  0  0  0
   -2.3124   18.8983  -34.2340 H   0  0  0  0  0  0  0  0  0  0  0  0
   -2.4864   16.6398  -35.2665 H   0  0  0  0  0  0  0  0  0  0  0  0
   -4.6637   15.4266  -35.2685 H   0  0  0  0  0  0  0  0  0  0  0  0
   -6.6690   16.4546  -34.2108 H   0  0  0  0  0  0  0  0  0  0  0  0
   -6.8749   20.6395  -34.0999 H   0  0  0  0  0  0  0  0  0  0  0  0
   -8.9093   21.5387  -32.9671 H   0  0  0  0  0  0  0  0  0  0  0  0
  -10.0045   20.2335  -31.1428 H   0  0  0  0  0  0  0  0  0  0  0  0
   -9.0654   18.0279  -30.4448 H   0  0  0  0  0  0  0  0  0  0  0  0
   -7.0376   17.1171  -31.5790 H   0  0  0  0  0  0  0  0  0  0  0  0
   -3.3289   22.0408  -29.9468 H   0  0  0  0  0  0  0  0  0  0  0  0
  1  2  1  0
  2  3  1  0
  3  4  2  0
  3  5  1  0
  5  6  2  0
  6  7  1  0
  7  8  2  0
  8  9  1  0
  9 10  1  0
 10 11  1  0
 11 12  2  0
 11 13  1  0
 13 14  2  0
 14 15  1  0
 15 16  2  0
 16 17  1  0
 17 18  2  0
 18 19  1  0
 19 20  2  0
 20 21  1  0
 21 22  2  0
 22 23  1  0
 23 24  2  0
  9 25  2  0
 25  5  1  0
 18 13  1  0
 24 19  1  0
  1 26  1  0
  1 27  1  0
  1 28  1  0
  6 29  1  0
  7 30  1  0
  8 31  1  0
 10 32  1  0
 14 33  1  0
 15 34  1  0
 16 35  1  0
 17 36  1  0
 20 37  1  0
 21 38  1  0
 22 39  1  0
 23 40  1  0
 24 41  1  0
 25 42  1  0
M  CHG  1   2  -1
M  END
>  <UniqueID>  (13) 
13

>  <SMILES>  (13) 
C[N-]C(=O)c1cccc(NC(=O)c2ccccc2-c2ccccc2)c1

>  <Energy>  (13) 
62.82440945554592

>  <Genealogy>  (13) 
C[N-]C(=O)c1cccc(NC(=O)c2ccccc2-c2ccccc2)c1 (protonated)
C[N-]C(=O)c1cccc(NC(=O)c2ccccc2-c2ccccc2)c1 (3D coordinates assigned)
C[N-]C(=O)c1cccc(NC(=O)c2ccccc2-c2ccccc2)c1 (optimized conformer: 62.82440945554592 kcal/mol)

>  <smiles>  (13) 
CNC(=O)c1cccc(NC(=O)c2ccccc2-c2ccccc2)c1

>  <score_type>  (13) 
oracle

>  <origin>  (13) 
adg

>  <m_score__min__energy>  (13) 
-10.6

>  <m_primary>  (13) 
energy

$$$$
13:0
     RDKit          3D

 56 59  0  0  1  0  0  0  0  0999 V2000
   -3.1220   24.5840  -26.8840 C   0  0  0  0  0  0  0  0  0  0  0  0
   -4.2470   24.1150  -27.7500 C   0  0  0  0  0  0  0  0  0  0  0  0
   -3.8510   23.9250  -29.1370 N   0  0  0  0  0  0  0  0  0  0  0  0
   -4.3820   24.9080  -30.0560 C   0  0  0  0  0  0  0  0  0  0  0  0
   -5.8110   24.6640  -30.4750 C   0  0  0  0  0  0  0  0  0  0  0  0
   -5.7700   24.1730  -31.8240 N   0  0  0  0  0  0  0  0  0  0  0  0
   -5.6620   22.9340  -32.1130 C   0  0  0  0  0  0  0  0  0  0  0  0
   -4.5420   22.3480  -32.5690 N   0  0  0  0  0  0  0  0  0  0  0  0
   -4.4480   21.0490  -32.8830 C   0  0  0  0  0  0  0  0  0  0  0  0
   -3.2250   20.4310  -33.3730 C   0  0  0  0  0  0  0  0  0  0  0  0
   -2.0560   21.1300  -33.5750 C   0  0  0  0  0  0  0  0  0  0  0  0
   -0.9060   20.5080  -34.0510 C   0  0  0  0  0  0  0  0  0  0  0  0
   -0.8920   19.1500  -34.3470 C   0  0  0  0  0  0  0  0  0  0  0  0
   -2.0660   18.4580  -34.1430 C   0  0  0  0  0  0  0  0  0  0  0  0
   -3.2090   19.0870  -33.6660 C   0  0  0  0  0  0  0  0  0  0  0  0
   -5.5550   20.2870  -32.7280 N   0  0  0  0  0  0  0  0  0  0  0  0
   -6.7150   20.7950  -32.2780 C   0  0  0  0  0  0  0  0  0  0  0  0
   -6.7840   22.1300  -31.9640 C   0  0  0  0  0  0  0  0  0  0  0  0
   -8.0480   22.7180  -31.4660 C   0  0  0  0  0  0  0  0  0  0  0  0
   -9.2150   21.8870  -31.9470 C   0  0  0  0  0  0  0  0  0  0  0  0
   -9.0600   20.4750  -31.4790 C   0  0  0  0  0  0  0  0  0  0  0  0
   -7.8570   19.8600  -32.1520 C   0  0  0  0  0  0  0  0  0  0  0  0
   -3.0140   22.8370  -29.5580 C   0  0  0  0  0  0  0  0  0  0  0  0
   -3.4670   21.5160  -29.5060 C   0  0  0  0  0  0  0  0  0  0  0  0
   -2.6220   20.4880  -29.9050 C   0  0  0  0  0  0  0  0  0  0  0  0
   -1.3460   20.6890  -30.3560 C   0  0  0  0  0  0  0  0  0  0  0  0
   -0.8910   21.9890  -30.4100 C   0  0  0  0  0  0  0  0  0  0  0  0
   -1.7370   23.0300  -30.0090 C   0  0  0  0  0  0  0  0  0  0  0  0
   -3.4005   24.4679  -25.8262 H   0  0  0  0  0  0  0  0  0  0  0  0
   -2.2233   23.9856  -27.0943 H   0  0  0  0  0  0  0  0  0  0  0  0
   -2.9145   25.6436  -27.0943 H   0  0  0  0  0  0  0  0  0  0  0  0
   -4.6176   23.1571  -27.3562 H   0  0  0  0  0  0  0  0  0  0  0  0
   -5.0247   24.8927  -27.7318 H   0  0  0  0  0  0  0  0  0  0  0  0
   -4.3293   25.8945  -29.5723 H   0  0  0  0  0  0  0  0  0  0  0  0
   -3.7725   24.8442  -30.9695 H   0  0  0  0  0  0  0  0  0  0  0  0
   -6.2771   23.9180  -29.8145 H   0  0  0  0  0  0  0  0  0  0  0  0
   -6.4047   25.5877  -30.4091 H   0  0  0  0  0  0  0  0  0  0  0  0
   -3.7100   22.9280  -32.6780 H   0  0  0  0  0  0  0  0  0  0  0  0
   -2.0306   22.2074  -33.3545 H   0  0  0  0  0  0  0  0  0  0  0  0
    0.0086   21.1017  -34.1957 H   0  0  0  0  0  0  0  0  0  0  0  0
    0.0126   18.6518  -34.7258 H   0  0  0  0  0  0  0  0  0  0  0  0
   -2.0989   17.3808  -34.3633 H   0  0  0  0  0  0  0  0  0  0  0  0
   -4.1246   18.4954  -33.5188 H   0  0  0  0  0  0  0  0  0  0  0  0
   -8.0371   22.7326  -30.3662 H   0  0  0  0  0  0  0  0  0  0  0  0
   -8.1487   23.7454  -31.8458 H   0  0  0  0  0  0  0  0  0  0  0  0
  -10.1502   22.3041  -31.5452 H   0  0  0  0  0  0  0  0  0  0  0  0
   -9.2433   21.9036  -33.0465 H   0  0  0  0  0  0  0  0  0  0  0  0
   -8.9184   20.4621  -30.3882 H   0  0  0  0  0  0  0  0  0  0  0  0
   -9.9618   19.8992  -31.7344 H   0  0  0  0  0  0  0  0  0  0  0  0
   -7.5329   18.9904  -31.5614 H   0  0  0  0  0  0  0  0  0  0  0  0
   -8.1618   19.5784  -33.1707 H   0  0  0  0  0  0  0  0  0  0  0  0
   -4.4841   21.2920  -29.1521 H   0  0  0  0  0  0  0  0  0  0  0  0
   -2.9995   19.4560  -29.8556 H   0  0  0  0  0  0  0  0  0  0  0  0
   -0.7087   19.8467  -30.6632 H   0  0  0  0  0  0  0  0  0  0  0  0
    0.1272   22.2065  -30.7648 H   0  0  0  0  0  0  0  0  0  0  0  0
   -1.3537   24.0598  -30.0594 H   0  0  0  0  0  0  0  0  0  0  0  0
  1  2  1  0
  2  3  1  0
  3  4  1  0
  4  5  1  0
  5  6  1  0
  6  7  2  0
  7  8  1  0
  8  9  1  0
  9 10  1  0
 10 11  2  0
 11 12  1  0
 12 13  2  0
 13 14  1  0
 14 15  2  0
  9 16  2  0
 16 17  1  0
 17 18  2  0
 18 19  1  0
 19 20  1  0
 20 21  1  0
 21 22  1  0
  3 23  1  0
 23 24  2  0
 24 25  1  0
 25 26  2  0
 26 27  1  0
 27 28  2  0
 18  7  1  0
 28 23  1  0
 15 10  1  0
 22 17  1  0
  1 29  1  0
  1 30  1  0
  1 31  1  0
  2 32  1  0
  2 33  1  0
  4 34  1  0
  4 35  1  0
  5 36  1  0
  5 37  1  0
  8 38  1  0
 11 39  1  0
 12 40  1  0
 13 41  1  0
 14 42  1  0
 15 43  1  0
 19 44  1  0
 19 45  1  0
 20 46  1  0
 20 47  1  0
 21 48  1  0
 21 49  1  0
 22 50  1  0
 22 51  1  0
 24 52  1  0
 25 53  1  0
 26 54  1  0
 27 55  1  0
 28 56  1  0
M  END
>  <smiles>  (14) 
CCN(CCN=c1[nH]c(-c2ccccc2)nc2c1CCCC2)c1ccccc1

>  <score_type>  (14) 
oracle

>  <origin>  (14) 
adg

>  <m_score__min__energy>  (14) 
-9.8399999999999999

>  <m_primary>  (14) 
energy

$$$$
14:0
     RDKit          3D

 24 25  0  0  0  0  0  0  0  0999 V2000
   -4.2600   25.6720  -30.8430 O   0  0  0  0  0  0  0  0  0  0  0  0
   -5.4270   25.1950  -30.8360 C   0  0  0  0  0  0  0  0  0  0  0  0
   -5.6910   23.8240  -31.3120 C   0  0  0  0  0  0  0  0  0  0  0  0
   -7.0000   23.3720  -31.5360 C   0  0  0  0  0  0  0  0  0  0  0  0
   -7.2310   22.0690  -31.9880 C   0  0  0  0  0  0  0  0  0  0  0  0
   -6.1560   21.1940  -32.2250 C   0  0  0  0  0  0  0  0  0  0  0  0
   -6.4010   19.8100  -32.7050 C   0  0  0  0  0  0  0  0  0  0  0  0
   -5.7370   19.3200  -33.8470 C   0  0  0  0  0  0  0  0  0  0  0  0
   -5.9690   18.0170  -34.2970 C   0  0  0  0  0  0  0  0  0  0  0  0
   -6.8640   17.1900  -33.6150 C   0  0  0  0  0  0  0  0  0  0  0  0
   -7.5280   17.6630  -32.4810 C   0  0  0  0  0  0  0  0  0  0  0  0
   -7.3000   18.9650  -32.0270 C   0  0  0  0  0  0  0  0  0  0  0  0
   -4.8460   21.6520  -32.0000 C   0  0  0  0  0  0  0  0  0  0  0  0
   -4.6160   22.9550  -31.5480 C   0  0  0  0  0  0  0  0  0  0  0  0
   -6.2614   25.8108  -30.4692 H   0  0  0  0  0  0  0  0  0  0  0  0
   -7.8498   24.0466  -31.3550 H   0  0  0  0  0  0  0  0  0  0  0  0
   -8.2619   21.7257  -32.1595 H   0  0  0  0  0  0  0  0  0  0  0  0
   -5.0312   19.9672  -34.3882 H   0  0  0  0  0  0  0  0  0  0  0  0
   -5.4459   17.6427  -35.1894 H   0  0  0  0  0  0  0  0  0  0  0  0
   -7.0462   16.1653  -33.9712 H   0  0  0  0  0  0  0  0  0  0  0  0
   -8.2316   17.0097  -31.9443 H   0  0  0  0  0  0  0  0  0  0  0  0
   -7.8266   19.3320  -31.1337 H   0  0  0  0  0  0  0  0  0  0  0  0
   -3.9946   20.9795  -32.1811 H   0  0  0  0  0  0  0  0  0  0  0  0
   -3.5858   23.3004  -31.3765 H   0  0  0  0  0  0  0  0  0  0  0  0
  1  2  2  0
  2  3  1  0
  3  4  2  0
  4  5  1  0
  5  6  2  0
  6  7  1  0
  7  8  2  0
  8  9  1  0
  9 10  2  0
 10 11  1  0
 11 12  2  0
  6 13  1  0
 13 14  2  0
 14  3  1  0
 12  7  1  0
  2 15  1  0
  4 16  1  0
  5 17  1  0
  8 18  1  0
  9 19  1  0
 10 20  1  0
 11 21  1  0
 12 22  1  0
 13 23  1  0
 14 24  1  0
M  END
>  <UniqueID>  (15) 
14

>  <SMILES>  (15) 
O=Cc1ccc(-c2ccccc2)cc1

>  <Energy>  (15) 
30.010021498167234

>  <Genealogy>  (15) 
O=Cc1ccc(-c2ccccc2)cc1 (3D coordinates assigned)
O=Cc1ccc(-c2ccccc2)cc1 (optimized conformer: 30.010021498167234 kcal/mol)

>  <smiles>  (15) 
O=Cc1ccc(-c2ccccc2)cc1

>  <score_type>  (15) 
oracle

>  <origin>  (15) 
adg

>  <m_score__min__energy>  (15) 
-7.0800000000000001

>  <m_primary>  (15) 
energy

$$$$
15:0
     RDKit          3D

 62 67  0  0  0  0  0  0  0  0999 V2000
   -0.7739   21.4259  -29.6543 H   0  0  0  0  0  0  0  0  0  0  0  0
   -0.8030   20.5370  -29.0070 C   0  0  0  0  0  0  0  0  0  0  0  0
    0.1280   19.5580  -29.1520 N   0  0  0  0  0  0  0  0  0  0  0  0
    0.1070   18.4410  -28.3750 C   0  0  0  0  0  0  0  0  0  0  0  0
    1.1360   17.4480  -28.5250 N   0  0  0  0  0  0  0  0  0  0  0  0
    1.6180   17.1000  -29.8700 C   0  0  0  0  0  0  0  0  0  0  0  0
    2.2290   17.9287  -30.2571 H   0  0  0  0  0  0  0  0  0  0  0  0
    0.7456   16.9243  -30.5166 H   0  0  0  0  0  0  0  0  0  0  0  0
    2.4700   15.8180  -29.8450 C   0  0  0  0  0  0  0  0  0  0  0  0
    3.4889   16.0654  -29.5122 H   0  0  0  0  0  0  0  0  0  0  0  0
    2.4994   15.3870  -30.8566 H   0  0  0  0  0  0  0  0  0  0  0  0
    1.8580   14.7940  -28.8830 C   0  0  0  0  0  0  0  0  0  0  0  0
    2.4730   13.8821  -28.8978 H   0  0  0  0  0  0  0  0  0  0  0  0
    0.8302   14.5885  -29.2169 H   0  0  0  0  0  0  0  0  0  0  0  0
    1.7890   15.3280  -27.4250 C   0  0  2  0  0  0  0  0  0  0  0  0
    2.6952   14.9637  -26.9190 H   0  0  0  0  0  0  0  0  0  0  0  0
    0.6040   14.8120  -26.7350 N   0  0  0  0  0  0  0  0  0  0  0  0
    0.8560   14.6010  -25.7390 H   0  0  0  0  0  0  0  0  0  0  0  0
   -0.1300   15.5610  -26.7170 H   0  0  0  0  0  0  0  0  0  0  0  0
    1.8050   16.8680  -27.3540 C   0  0  0  0  0  0  0  0  0  0  0  0
    2.8476   17.2173  -27.3238 H   0  0  0  0  0  0  0  0  0  0  0  0
    1.2698   17.1860  -26.4471 H   0  0  0  0  0  0  0  0  0  0  0  0
   -0.8970   18.2740  -27.4650 N   0  0  0  0  0  0  0  0  0  0  0  0
   -0.9600   17.4040  -26.8900 H   0  0  0  0  0  0  0  0  0  0  0  0
   -1.8520   19.2260  -27.2980 C   0  0  0  0  0  0  0  0  0  0  0  0
   -2.6707   19.0634  -26.5815 H   0  0  0  0  0  0  0  0  0  0  0  0
   -1.7950   20.4120  -28.0360 C   0  0  0  0  0  0  0  0  0  0  0  0
   -2.7400   21.4690  -27.8160 N   0  0  0  0  0  0  0  0  0  0  0  0
   -2.7000   22.6960  -28.2730 C   0  0  0  0  0  0  0  0  0  0  0  0
   -1.6750   23.5560  -27.8080 C   0  0  0  0  0  0  0  0  0  0  0  0
   -0.6730   23.1250  -26.8070 C   0  0  0  0  0  0  0  0  0  0  0  0
    0.3130   22.4330  -27.1810 O   0  0  0  0  0  0  0  0  0  0  0  0
   -0.7960   23.4980  -25.3560 C   0  0  0  0  0  0  0  0  0  0  0  0
   -1.6107   24.2261  -25.4830 H   0  0  0  0  0  0  0  0  0  0  0  0
    0.5070   23.4800  -24.5630 C   0  0  0  0  0  0  0  0  0  0  0  0
    1.4623   23.3058  -25.0797 H   0  0  0  0  0  0  0  0  0  0  0  0
    1.0061   24.1767  -23.8734 H   0  0  0  0  0  0  0  0  0  0  0  0
   -0.4890   22.3430  -24.4050 C   0  0  0  0  0  0  0  0  0  0  0  0
   -0.2544   21.3467  -24.8078 H   0  0  0  0  0  0  0  0  0  0  0  0
   -1.0085   21.8772  -23.5546 H   0  0  0  0  0  0  0  0  0  0  0  0
   -1.5600   24.8500  -28.3430 C   0  0  0  0  0  0  0  0  0  0  0  0
   -0.7546   25.5132  -27.9946 H   0  0  0  0  0  0  0  0  0  0  0  0
   -2.4310   25.2900  -29.2840 N   0  0  0  0  0  0  0  0  0  0  0  0
   -3.4430   24.5100  -29.7400 C   0  0  0  0  0  0  0  0  0  0  0  0
   -4.3280   25.0030  -30.7040 C   0  0  0  0  0  0  0  0  0  0  0  0
   -4.2001   26.0214  -31.0996 H   0  0  0  0  0  0  0  0  0  0  0  0
   -5.3750   24.2000  -31.1640 C   0  0  0  0  0  0  0  0  0  0  0  0
   -6.0675   24.5762  -31.9315 H   0  0  0  0  0  0  0  0  0  0  0  0
   -5.5340   22.9130  -30.6390 C   0  0  0  0  0  0  0  0  0  0  0  0
   -6.6350   22.0320  -31.0740 C   0  0  0  0  0  0  0  0  0  0  0  0
   -7.9120   22.2260  -30.5240 C   0  0  0  0  0  0  0  0  0  0  0  0
   -8.0738   23.0274  -29.7881 H   0  0  0  0  0  0  0  0  0  0  0  0
   -8.9790   21.4080  -30.9050 C   0  0  0  0  0  0  0  0  0  0  0  0
   -9.9799   21.5793  -30.4821 H   0  0  0  0  0  0  0  0  0  0  0  0
   -8.7780   20.3750  -31.8200 C   0  0  0  0  0  0  0  0  0  0  0  0
   -9.6186   19.7301  -32.1157 H   0  0  0  0  0  0  0  0  0  0  0  0
   -7.5070   20.1600  -32.3610 C   0  0  0  0  0  0  0  0  0  0  0  0
   -7.3509   19.3424  -33.0802 H   0  0  0  0  0  0  0  0  0  0  0  0
   -6.4310   20.9780  -31.9940 C   0  0  0  0  0  0  0  0  0  0  0  0
   -4.6980   20.5580  -32.7030 Br  0  0  0  0  0  0  0  0  0  0  0  0
   -4.6720   22.4690  -29.6860 N   0  0  0  0  0  0  0  0  0  0  0  0
   -3.6160   23.2030  -29.2390 C   0  0  0  0  0  0  0  0  0  0  0  0
  1  2  1  0
  2  3  2  0
  3  4  1  0
  4  5  1  0
  5  6  1  0
  6  7  1  0
  6  8  1  0
  6  9  1  0
  9 10  1  0
  9 11  1  0
  9 12  1  0
 12 13  1  0
 12 14  1  0
 12 15  1  0
 15 16  1  1
 15 17  1  0
 17 18  1  0
 17 19  1  0
 15 20  1  0
 20 21  1  0
 20 22  1  0
  4 23  2  0
 23 24  1  0
 23 25  1  0
 25 26  1  0
 25 27  2  0
 27 28  1  0
 28 29  2  0
 29 30  1  0
 30 31  1  0
 31 32  2  0
 31 33  1  0
 33 34  1  0
 33 35  1  0
 35 36  1  0
 35 37  1  0
 35 38  1  0
 38 39  1  0
 38 40  1  0
 30 41  2  0
 41 42  1  0
 41 43  1  0
 43 44  1  0
 44 45  2  0
 45 46  1  0
 45 47  1  0
 47 48  1  0
 47 49  2  0
 49 50  1  0
 50 51  2  0
 51 52  1  0
 51 53  1  0
 53 54  1  0
 53 55  2  0
 55 56  1  0
 55 57  1  0
 57 58  1  0
 57 59  2  0
 59 60  1  0
 49 61  1  0
 61 62  2  0
 27  2  1  0
 62 29  1  0
 20  5  1  0
 38 33  1  0
 62 44  1  0
 59 50  1  0
M  CHG  2  23   1  43  -1
M  END
>  <UniqueID>  (16) 
15

>  <SMILES>  (16) 
N[C@H]1CCCN(c2ncc(/N=c3/c(C(=O)C4CC4)c[n-]c4ccc(-c5ccccc5Br)nc34)c[nH+]2)C1

>  <Energy>  (16) 
362.18487078062066

>  <Genealogy>  (16) 
NC1CCCN(c2ncc(N=c3c(C(=O)C4CC4)c[n-]c4ccc(-c5ccccc5Br)nc34)c[nH+]2)C1 (protonated)
N[C@H]1CCCN(c2ncc(N=c3c(C(=O)C4CC4)c[n-]c4ccc(-c5ccccc5Br)nc34)c[nH+]2)C1 (chirality)
N[C@H]1CCCN(c2ncc(/N=c3/c(C(=O)C4CC4)c[n-]c4ccc(-c5ccccc5Br)nc34)c[nH+]2)C1 (cis-trans isomerization)
N[C@H]1CCCN(c2ncc(/N=c3/c(C(=O)C4CC4)c[n-]c4ccc(-c5ccccc5Br)nc34)c[nH+]2)C1 (3D coordinates assigned)
N[C@H]1CCCN(c2ncc(/N=c3/c(C(=O)C4CC4)c[n-]c4ccc(-c5ccccc5Br)nc34)c[nH+]2)C1 (nonaromatic ring conformer: 362.18487078062066 kcal/mol)

>  <smiles>  (16) 
NC1CCCN(c2ncc(N=c3c(C(=O)C4CC4)c[nH]c4ccc(-c5ccccc5Br)nc34)cn2)C1

>  <score_type>  (16) 
oracle

>  <origin>  (16) 
adg

>  <m_score__min__energy>  (16) 
-11.76

>  <m_primary>  (16) 
energy

$$$$
16:0
     RDKit          3D

 45 49  0  0  0  0  0  0  0  0999 V2000
   -3.2800   24.4680  -29.3030 C   0  0  0  0  0  0  0  0  0  0  0  0
   -3.9360   25.3830  -30.1730 O   0  0  0  0  0  0  0  0  0  0  0  0
   -5.2950   25.2850  -30.4810 C   0  0  0  0  0  0  0  0  0  0  0  0
   -6.1500   25.9500  -29.8320 O   0  0  0  0  0  0  0  0  0  0  0  0
   -5.7330   24.4160  -31.6200 C   0  0  2  0  0  0  0  0  0  0  0  0
   -7.1520   23.8170  -31.3390 C   0  0  0  0  0  0  0  0  0  0  0  0
   -7.2870   22.5080  -32.1050 C   0  0  2  0  0  0  0  0  0  0  0  0
   -8.5390   21.6560  -31.9630 C   0  0  0  0  0  0  0  0  0  0  0  0
   -8.0220   20.2330  -32.3210 C   0  0  2  0  0  0  0  0  0  0  0  0
   -8.5880   19.1680  -31.3680 C   0  0  0  0  0  0  0  0  0  0  0  0
   -8.7500   17.9470  -32.0370 O   0  0  0  0  0  0  0  0  0  0  0  0
   -6.5590   20.3120  -32.2000 N   0  0  0  0  0  0  0  0  0  0  0  0
   -5.5950   19.5120  -32.9170 C   0  0  0  0  0  0  0  0  0  0  0  0
   -5.9860   18.3260  -33.5840 C   0  0  0  0  0  0  0  0  0  0  0  0
   -5.0110   17.5970  -34.2550 C   0  0  0  0  0  0  0  0  0  0  0  0
   -3.7160   17.9890  -34.2900 C   0  0  0  0  0  0  0  0  0  0  0  0
   -3.2780   19.1490  -33.6640 C   0  0  0  0  0  0  0  0  0  0  0  0
   -4.2280   19.9370  -32.9790 C   0  0  0  0  0  0  0  0  0  0  0  0
   -3.7570   21.1970  -32.2850 C   0  0  0  0  0  0  0  0  0  0  0  0
   -4.8900   22.1400  -31.9990 C   0  0  0  0  0  0  0  0  0  0  0  0
   -4.6900   23.4180  -31.9100 N   0  0  0  0  0  0  0  0  0  0  0  0
   -6.2160   21.5850  -31.6070 C   0  0  1  0  0  0  0  0  0  0  0  0
   -2.9770   17.0760  -35.0200 O   0  0  0  0  0  0  0  0  0  0  0  0
   -3.8680   16.0470  -35.4720 C   0  0  0  0  0  0  0  0  0  0  0  0
   -5.1560   16.4190  -34.9620 O   0  0  0  0  0  0  0  0  0  0  0  0
   -3.4804   24.7476  -28.2582 H   0  0  0  0  0  0  0  0  0  0  0  0
   -3.6561   23.4512  -29.4891 H   0  0  0  0  0  0  0  0  0  0  0  0
   -2.1963   24.4978  -29.4891 H   0  0  0  0  0  0  0  0  0  0  0  0
   -5.8497   25.0099  -32.5385 H   0  0  0  0  0  0  0  0  0  0  0  0
   -7.2683   23.6295  -30.2614 H   0  0  0  0  0  0  0  0  0  0  0  0
   -7.9295   24.5243  -31.6635 H   0  0  0  0  0  0  0  0  0  0  0  0
   -7.2646   22.8625  -33.1461 H   0  0  0  0  0  0  0  0  0  0  0  0
   -8.9283   21.6902  -30.9348 H   0  0  0  0  0  0  0  0  0  0  0  0
   -9.3718   21.9921  -32.5982 H   0  0  0  0  0  0  0  0  0  0  0  0
   -8.3410   19.9346  -33.3306 H   0  0  0  0  0  0  0  0  0  0  0  0
   -7.8938   19.0301  -30.5259 H   0  0  0  0  0  0  0  0  0  0  0  0
   -9.5684   19.5048  -31.0000 H   0  0  0  0  0  0  0  0  0  0  0  0
   -8.7340   18.1510  -33.0080 H   0  0  0  0  0  0  0  0  0  0  0  0
   -7.0335   17.9903  -33.5716 H   0  0  0  0  0  0  0  0  0  0  0  0
   -2.2194   19.4456  -33.7010 H   0  0  0  0  0  0  0  0  0  0  0  0
   -3.2769   20.9205  -31.3347 H   0  0  0  0  0  0  0  0  0  0  0  0
   -3.0501   21.7091  -32.9544 H   0  0  0  0  0  0  0  0  0  0  0  0
   -6.1489   21.4681  -30.5153 H   0  0  0  0  0  0  0  0  0  0  0  0
   -3.8848   16.0058  -36.5711 H   0  0  0  0  0  0  0  0  0  0  0  0
   -3.5583   15.0507  -35.1236 H   0  0  0  0  0  0  0  0  0  0  0  0
  1  2  1  0
  2  3  1  0
  3  4  2  0
  3  5  1  0
  5  6  1  0
  6  7  1  0
  7  8  1  0
  8  9  1  0
  9 10  1  0
 10 11  1  0
  9 12  1  0
 12 13  1  0
 13 14  2  0
 14 15  1  0
 15 16  2  0
 16 17  1  0
 17 18  2  0
 18 19  1  0
 19 20  1  0
 20 21  2  0
 20 22  1  0
 16 23  1  0
 23 24  1  0
 24 25  1  0
 21  5  1  0
 22  7  1  0
 22 12  1  0
 18 13  1  0
 25 15  1  0
  1 26  1  0
  1 27  1  0
  1 28  1  0
  5 29  1  6
  6 30  1  0
  6 31  1  0
  7 32  1  6
  8 33  1  0
  8 34  1  0
  9 35  1  6
 10 36  1  0
 10 37  1  0
 11 38  1  0
 14 39  1  0
 17 40  1  0
 19 41  1  0
 19 42  1  0
 22 43  1  1
 24 44  1  0
 24 45  1  0
M  END
>  <UniqueID>  (17) 
16

>  <SMILES>  (17) 
COC(=O)[C@@H]1C[C@@H]2CC(CO)N3c4cc5c(cc4CC(=N1)C23)OCO5

>  <Energy>  (17) 
94.87114499812891

>  <Genealogy>  (17) 
COC(=O)[C@@H]1C[C@@H]2CC(CO)N3c4cc5c(cc4CC(=N1)C23)OCO5 (chirality)
COC(=O)[C@@H]1C[C@@H]2CC(CO)N3c4cc5c(cc4CC(=N1)C23)OCO5 (3D coordinates assigned)
COC(=O)[C@@H]1C[C@@H]2CC(CO)N3c4cc5c(cc4CC(=N1)C23)OCO5 (nonaromatic ring conformer: 94.87114499812891 kcal/mol)

>  <smiles>  (17) 
COC(=O)C1CC2CC(CO)N3c4cc5c(cc4CC(=N1)C23)OCO5

>  <score_type>  (17) 
oracle

>  <origin>  (17) 
adg

>  <m_score__min__energy>  (17) 
-8.9700000000000006

>  <m_primary>  (17) 
energy

$$$$
17:0
     RDKit          3D

 41 44  0  0  0  0  0  0  0  0999 V2000
   -4.2750   24.1160  -28.7100 O   0  0  0  0  0  0  0  0  0  0  0  0
   -4.1720   23.9520  -30.2020 S   0  0  0  0  0  0  0  0  0  0  0  0
   -3.8610   25.2950  -30.8000 O   0  0  0  0  0  0  0  0  0  0  0  0
   -2.8920   22.8110  -30.5970 C   0  0  0  0  0  0  0  0  0  0  0  0
   -2.8180   22.2500  -31.8790 C   0  0  0  0  0  0  0  0  0  0  0  0
   -1.8130   21.3280  -32.1850 C   0  0  0  0  0  0  0  0  0  0  0  0
   -0.8820   20.9580  -31.2100 C   0  0  0  0  0  0  0  0  0  0  0  0
   -0.9580   21.5070  -29.9270 C   0  0  0  0  0  0  0  0  0  0  0  0
   -1.9620   22.4310  -29.6190 C   0  0  0  0  0  0  0  0  0  0  0  0
   -5.6960   23.3430  -30.8370 C   0  0  0  0  0  0  0  0  0  0  0  0
   -6.7680   24.2150  -31.0670 C   0  0  0  0  0  0  0  0  0  0  0  0
   -7.9670   23.7290  -31.5950 C   0  0  0  0  0  0  0  0  0  0  0  0
   -8.1010   22.3710  -31.8980 C   0  0  0  0  0  0  0  0  0  0  0  0
   -7.0350   21.4870  -31.6670 C   0  0  0  0  0  0  0  0  0  0  0  0
   -7.1670   20.0540  -32.0160 C   0  0  0  0  0  0  0  0  0  0  0  0
   -8.3260   19.3720  -31.6130 C   0  0  0  0  0  0  0  0  0  0  0  0
   -8.5170   18.0690  -31.9470 N   0  0  0  0  0  0  0  0  0  0  0  0
   -7.6040   17.3770  -32.6770 C   0  0  0  0  0  0  0  0  0  0  0  0
   -6.4190   17.9960  -33.0950 C   0  0  0  0  0  0  0  0  0  0  0  0
   -5.4660   17.2790  -33.8350 C   0  0  0  0  0  0  0  0  0  0  0  0
   -4.2770   17.8920  -34.2300 C   0  0  0  0  0  0  0  0  0  0  0  0
   -4.0270   19.2210  -33.8840 C   0  0  0  0  0  0  0  0  0  0  0  0
   -4.9670   19.9480  -33.1490 C   0  0  0  0  0  0  0  0  0  0  0  0
   -6.1850   19.3520  -32.7570 C   0  0  0  0  0  0  0  0  0  0  0  0
   -5.8280   21.9840  -31.1500 C   0  0  0  0  0  0  0  0  0  0  0  0
   -3.5525   22.5359  -32.6463 H   0  0  0  0  0  0  0  0  0  0  0  0
   -1.7546   20.8932  -33.1937 H   0  0  0  0  0  0  0  0  0  0  0  0
   -0.0896   20.2347  -31.4526 H   0  0  0  0  0  0  0  0  0  0  0  0
   -0.2278   21.2123  -29.1589 H   0  0  0  0  0  0  0  0  0  0  0  0
   -2.0220   22.8601  -28.6079 H   0  0  0  0  0  0  0  0  0  0  0  0
   -6.6657   25.2846  -30.8314 H   0  0  0  0  0  0  0  0  0  0  0  0
   -8.8071   24.4165  -31.7726 H   0  0  0  0  0  0  0  0  0  0  0  0
   -9.0447   21.9937  -32.3188 H   0  0  0  0  0  0  0  0  0  0  0  0
   -9.0882   19.8986  -31.0200 H   0  0  0  0  0  0  0  0  0  0  0  0
   -9.3910   17.5870  -31.6400 H   0  0  0  0  0  0  0  0  0  0  0  0
   -7.7960   16.3265  -32.9409 H   0  0  0  0  0  0  0  0  0  0  0  0
   -5.6575   16.2298  -34.1044 H   0  0  0  0  0  0  0  0  0  0  0  0
   -3.5357   17.3276  -34.8147 H   0  0  0  0  0  0  0  0  0  0  0  0
   -3.0850   19.6985  -34.1916 H   0  0  0  0  0  0  0  0  0  0  0  0
   -4.7564   20.9920  -32.8739 H   0  0  0  0  0  0  0  0  0  0  0  0
   -4.9803   21.3016  -30.9896 H   0  0  0  0  0  0  0  0  0  0  0  0
  1  2  2  0
  2  3  2  0
  2  4  1  0
  4  5  2  0
  5  6  1  0
  6  7  2  0
  7  8  1  0
  8  9  2  0
  2 10  1  0
 10 11  2  0
 11 12  1  0
 12 13  2  0
 13 14  1  0
 14 15  1  0
 15 16  2  0
 16 17  1  0
 17 18  2  0
 18 19  1  0
 19 20  2  0
 20 21  1  0
 21 22  2  0
 22 23  1  0
 23 24  2  0
 14 25  2  0
  9  4  1  0
 25 10  1  0
 24 15  1  0
 24 19  1  0
  5 26  1  0
  6 27  1  0
  7 28  1  0
  8 29  1  0
  9 30  1  0
 11 31  1  0
 12 32  1  0
 13 33  1  0
 16 34  1  0
 17 35  1  0
 18 36  1  0
 20 37  1  0
 21 38  1  0
 22 39  1  0
 23 40  1  0
 25 41  1  0
M  CHG  1  17   1
M  END
>  <UniqueID>  (18) 
17

>  <SMILES>  (18) 
O=S(=O)(c1ccccc1)c1cccc(-c2c[nH+]cc3ccccc23)c1

>  <Energy>  (18) 
59.25612791116616

>  <Genealogy>  (18) 
O=S(=O)(c1ccccc1)c1cccc(-c2c[nH+]cc3ccccc23)c1 (protonated)
O=S(=O)(c1ccccc1)c1cccc(-c2c[nH+]cc3ccccc23)c1 (3D coordinates assigned)
O=S(=O)(c1ccccc1)c1cccc(-c2c[nH+]cc3ccccc23)c1 (optimized conformer: 59.25612791116616 kcal/mol)

>  <smiles>  (18) 
O=S(=O)(c1ccccc1)c1cccc(-c2cncc3ccccc23)c1

>  <score_type>  (18) 
oracle

>  <origin>  (18) 
adg

>  <m_score__min__energy>  (18) 
-9.1099999999999994

>  <m_primary>  (18) 
energy

$$$$
18:0
     RDKit          3D

 41 43  0  0  0  0  0  0  0  0999 V2000
   -2.0230   24.8840  -28.4400 C   0  0  0  0  0  0  0  0  0  0  0  0
   -3.1640   24.5520  -29.3390 C   0  0  0  0  0  0  0  0  0  0  0  0
   -3.9630   23.4320  -29.2650 C   0  0  0  0  0  0  0  0  0  0  0  0
   -4.8370   23.5940  -30.3190 C   0  0  0  0  0  0  0  0  0  0  0  0
   -5.9170   22.6790  -30.6950 C   0  0  0  0  0  0  0  0  0  0  0  0
   -7.1780   22.7720  -30.2290 N   0  0  0  0  0  0  0  0  0  0  0  0
   -7.8140   21.7910  -30.7920 O   0  0  0  0  0  0  0  0  0  0  0  0
   -6.9960   21.1230  -31.5690 C   0  0  0  0  0  0  0  0  0  0  0  0
   -7.3940   19.9160  -32.3760 C   0  0  0  0  0  0  0  0  0  0  0  0
   -6.9240   20.0490  -33.8530 C   0  0  0  0  0  0  0  0  0  0  0  0
   -6.1070   18.8480  -34.3410 C   0  0  0  0  0  0  0  0  0  0  0  0
   -5.0640   18.5200  -33.3630 N   0  0  0  0  0  0  0  0  0  0  0  0
   -3.7660   18.1040  -33.8220 C   0  0  0  0  0  0  0  0  0  0  0  0
   -3.6790   17.3700  -34.8440 O   0  0  0  0  0  0  0  0  0  0  0  0
   -2.5650   18.5180  -33.1440 N   0  0  0  0  0  0  0  0  0  0  0  0
   -1.3880   17.6490  -33.1720 C   0  0  0  0  0  0  0  0  0  0  0  0
   -2.4860   19.8110  -32.4610 C   0  0  0  0  0  0  0  0  0  0  0  0
   -5.4130   18.3610  -31.9420 C   0  0  0  0  0  0  0  0  0  0  0  0
   -6.9060   18.6200  -31.6930 C   0  0  0  0  0  0  0  0  0  0  0  0
   -5.7530   21.6480  -31.5480 N   0  0  0  0  0  0  0  0  0  0  0  0
   -4.5590   24.7400  -30.9720 N   0  0  0  0  0  0  0  0  0  0  0  0
   -3.5490   25.2850  -30.3580 O   0  0  0  0  0  0  0  0  0  0  0  0
   -2.3430   24.7909  -27.3917 H   0  0  0  0  0  0  0  0  0  0  0  0
   -1.1909   24.1907  -28.6323 H   0  0  0  0  0  0  0  0  0  0  0  0
   -1.6928   25.9155  -28.6323 H   0  0  0  0  0  0  0  0  0  0  0  0
   -3.9151   22.6067  -28.5393 H   0  0  0  0  0  0  0  0  0  0  0  0
   -8.4918   19.8564  -32.4120 H   0  0  0  0  0  0  0  0  0  0  0  0
   -7.8122   20.1504  -34.4940 H   0  0  0  0  0  0  0  0  0  0  0  0
   -6.2695   20.9314  -33.9078 H   0  0  0  0  0  0  0  0  0  0  0  0
   -6.7729   17.9817  -34.4677 H   0  0  0  0  0  0  0  0  0  0  0  0
   -5.6346   19.0992  -35.3021 H   0  0  0  0  0  0  0  0  0  0  0  0
   -1.0771   17.4195  -32.1421 H   0  0  0  0  0  0  0  0  0  0  0  0
   -1.6345   16.7146  -33.6975 H   0  0  0  0  0  0  0  0  0  0  0  0
   -0.5676   18.1597  -33.6975 H   0  0  0  0  0  0  0  0  0  0  0  0
   -2.4957   19.6519  -31.3726 H   0  0  0  0  0  0  0  0  0  0  0  0
   -1.5550   20.3214  -32.7487 H   0  0  0  0  0  0  0  0  0  0  0  0
   -3.3479   20.4309  -32.7487 H   0  0  0  0  0  0  0  0  0  0  0  0
   -5.1717   17.3347  -31.6280 H   0  0  0  0  0  0  0  0  0  0  0  0
   -4.8354   19.0959  -31.3621 H   0  0  0  0  0  0  0  0  0  0  0  0
   -7.4837   17.7717  -32.0887 H   0  0  0  0  0  0  0  0  0  0  0  0
   -7.0533   18.7331  -30.6088 H   0  0  0  0  0  0  0  0  0  0  0  0
  1  2  1  0
  2  3  2  0
  3  4  1  0
  4  5  1  0
  5  6  2  0
  6  7  1  0
  7  8  1  0
  8  9  1  0
  9 10  1  0
 10 11  1  0
 11 12  1  0
 12 13  1  0
 13 14  2  0
 13 15  1  0
 15 16  1  0
 15 17  1  0
 12 18  1  0
 18 19  1  0
  8 20  2  0
  4 21  2  0
 21 22  1  0
 22  2  1  0
 20  5  1  0
 19  9  1  0
  1 23  1  0
  1 24  1  0
  1 25  1  0
  3 26  1  0
  9 27  1  0
 10 28  1  0
 10 29  1  0
 11 30  1  0
 11 31  1  0
 16 32  1  0
 16 33  1  0
 16 34  1  0
 17 35  1  0
 17 36  1  0
 17 37  1  0
 18 38  1  0
 18 39  1  0
 19 40  1  0
 19 41  1  0
M  END
>  <UniqueID>  (19) 
18

>  <SMILES>  (19) 
Cc1cc(-c2noc(C3CCN(C(=O)N(C)C)CC3)n2)no1

>  <Energy>  (19) 
105.72972264620661

>  <Genealogy>  (19) 
Cc1cc(-c2noc(C3CCN(C(=O)N(C)C)CC3)n2)no1 (3D coordinates assigned)
Cc1cc(-c2noc(C3CCN(C(=O)N(C)C)CC3)n2)no1 (nonaromatic ring conformer: 105.72972264620661 kcal/mol)

>  <smiles>  (19) 
Cc1cc(-c2noc(C3CCN(C(=O)N(C)C)CC3)n2)no1

>  <score_type>  (19) 
oracle

>  <origin>  (19) 
adg

>  <m_score__min__energy>  (19) 
-8.1699999999999999

>  <m_primary>  (19) 
energy

$$$$
19:0
     RDKit          3D

 36 38  0  0  0  0  0  0  0  0999 V2000
   -3.6372   16.7797  -34.4420 H   0  0  0  0  0  0  0  0  0  0  0  0
   -4.2540   17.5970  -34.0400 C   0  0  0  0  0  0  0  0  0  0  0  0
   -3.7290   18.8420  -33.9280 N   0  0  0  0  0  0  0  0  0  0  0  0
   -4.4270   19.9020  -33.4430 C   0  0  0  0  0  0  0  0  0  0  0  0
   -3.8060   21.0510  -33.3870 N   0  0  0  0  0  0  0  0  0  0  0  0
   -2.6230   21.4200  -32.6170 C   0  0  0  0  0  0  0  0  0  0  0  0
   -2.8482   21.3498  -31.5426 H   0  0  0  0  0  0  0  0  0  0  0  0
   -1.7970   20.7368  -32.8639 H   0  0  0  0  0  0  0  0  0  0  0  0
   -2.3319   22.4516  -32.8639 H   0  0  0  0  0  0  0  0  0  0  0  0
   -5.7720   19.7020  -33.0290 C   0  0  0  0  0  0  0  0  0  0  0  0
   -6.5280   20.7180  -32.5340 N   0  0  0  0  0  0  0  0  0  0  0  0
   -7.8120   20.5350  -32.1390 C   0  0  0  0  0  0  0  0  0  0  0  0
   -8.4870   21.5450  -31.6770 N   0  0  0  0  0  0  0  0  0  0  0  0
   -8.2520   22.1880  -30.3840 C   0  0  0  0  0  0  0  0  0  0  0  0
   -9.0998   22.8481  -30.1486 H   0  0  0  0  0  0  0  0  0  0  0  0
   -8.1516   21.4100  -29.6129 H   0  0  0  0  0  0  0  0  0  0  0  0
   -6.9860   23.0020  -30.4220 C   0  0  0  0  0  0  0  0  0  0  0  0
   -7.0520   24.4010  -30.5240 C   0  0  0  0  0  0  0  0  0  0  0  0
   -8.0305   24.8987  -30.5933 H   0  0  0  0  0  0  0  0  0  0  0  0
   -5.8810   25.1650  -30.5380 C   0  0  0  0  0  0  0  0  0  0  0  0
   -5.9397   26.2603  -30.6206 H   0  0  0  0  0  0  0  0  0  0  0  0
   -4.6350   24.5360  -30.4470 C   0  0  0  0  0  0  0  0  0  0  0  0
   -3.4720   25.2960  -30.4610 O   0  0  0  0  0  0  0  0  0  0  0  0
   -4.5600   23.1430  -30.3420 C   0  0  0  0  0  0  0  0  0  0  0  0
   -3.5797   22.6493  -30.2704 H   0  0  0  0  0  0  0  0  0  0  0  0
   -5.7300   22.3780  -30.3280 C   0  0  0  0  0  0  0  0  0  0  0  0
   -5.6674   21.2831  -30.2431 H   0  0  0  0  0  0  0  0  0  0  0  0
   -8.3740   19.3020  -32.2330 N   0  0  0  0  0  0  0  0  0  0  0  0
   -7.6750   18.2460  -32.7180 C   0  0  0  0  0  0  0  0  0  0  0  0
   -8.1523   17.2572  -32.7848 H   0  0  0  0  0  0  0  0  0  0  0  0
   -6.3420   18.4100  -33.1360 C   0  0  0  0  0  0  0  0  0  0  0  0
   -5.5730   17.3420  -33.6490 C   0  0  0  0  0  0  0  0  0  0  0  0
   -6.1270   15.9470  -33.7860 C   0  0  0  0  0  0  0  0  0  0  0  0
   -6.2966   15.5200  -32.7865 H   0  0  0  0  0  0  0  0  0  0  0  0
   -7.0791   15.9829  -34.3357 H   0  0  0  0  0  0  0  0  0  0  0  0
   -5.4096   15.3199  -34.3357 H   0  0  0  0  0  0  0  0  0  0  0  0
  1  2  1  0
  2  3  1  0
  3  4  1  0
  4  5  2  0
  5  6  1  0
  6  7  1  0
  6  8  1  0
  6  9  1  0
  4 10  1  0
 10 11  2  0
 11 12  1  0
 12 13  2  0
 13 14  1  0
 14 15  1  0
 14 16  1  0
 14 17  1  0
 17 18  2  0
 18 19  1  0
 18 20  1  0
 20 21  1  0
 20 22  2  0
 22 23  1  0
 22 24  1  0
 24 25  1  0
 24 26  2  0
 26 27  1  0
 12 28  1  0
 28 29  1  0
 29 30  1  0
 29 31  2  0
 31 32  1  0
 32 33  1  0
 33 34  1  0
 33 35  1  0
 33 36  1  0
 32  2  2  0
 31 10  1  0
 26 17  1  0
M  CHG  3   3  -1  23  -1  28  -1
M  END
>  <UniqueID>  (20) 
19

>  <SMILES>  (20) 
C/N=c1/[n-]cc(C)c2c[n-]/c(=N\Cc3ccc([O-])cc3)nc12

>  <Energy>  (20) 
48.15890451989574

>  <Genealogy>  (20) 
CN=c1[n-]cc(C)c2c[n-]c(=NCc3ccc([O-])cc3)nc12 (protonated)
C/N=c1/[n-]cc(C)c2c[n-]/c(=N\Cc3ccc([O-])cc3)nc12 (cis-trans isomerization)
C/N=c1/[n-]cc(C)c2c[n-]/c(=N\Cc3ccc([O-])cc3)nc12 (3D coordinates assigned)
C/N=c1/[n-]cc(C)c2c[n-]/c(=N\Cc3ccc([O-])cc3)nc12 (optimized conformer: 48.15890451989574 kcal/mol)

>  <smiles>  (20) 
CN=c1[nH]cc(C)c2c[nH]c(=NCc3ccc(O)cc3)nc12

>  <score_type>  (20) 
oracle

>  <origin>  (20) 
adg

>  <m_score__min__energy>  (20) 
-10.94

>  <m_primary>  (20) 
energy

$$$$
20:0
     RDKit          3D

 44 47  0  0  0  0  0  0  0  0999 V2000
   -3.9120   25.6680  -30.7200 O   0  0  0  0  0  0  0  0  0  0  0  0
   -4.1780   24.4630  -30.4690 C   0  0  0  0  0  0  0  0  0  0  0  0
   -5.5070   24.1040  -29.8860 C   0  0  0  0  0  0  0  0  0  0  0  0
   -6.8270   24.1810  -31.1480 S   0  0  0  0  0  0  0  0  0  0  0  0
   -6.4970   22.5430  -31.8310 C   0  0  0  0  0  0  0  0  0  0  0  0
   -5.2120   22.2090  -32.1320 N   0  0  0  0  0  0  0  0  0  0  0  0
   -4.8860   20.9620  -32.5840 C   0  0  0  0  0  0  0  0  0  0  0  0
   -3.4800   20.5940  -32.8820 C   0  0  0  0  0  0  0  0  0  0  0  0
   -3.0250   19.2880  -32.6190 C   0  0  0  0  0  0  0  0  0  0  0  0
   -1.7000   18.9320  -32.8870 C   0  0  0  0  0  0  0  0  0  0  0  0
   -0.8120   19.8740  -33.4110 C   0  0  0  0  0  0  0  0  0  0  0  0
   -1.2480   21.1760  -33.6640 C   0  0  0  0  0  0  0  0  0  0  0  0
   -2.5720   21.5390  -33.3990 C   0  0  0  0  0  0  0  0  0  0  0  0
   -5.8670   20.0390  -32.7650 N   0  0  0  0  0  0  0  0  0  0  0  0
   -7.1660   20.3220  -32.5030 C   0  0  0  0  0  0  0  0  0  0  0  0
   -8.1450   19.3400  -32.6940 C   0  0  0  0  0  0  0  0  0  0  0  0
   -9.4860   19.6280  -32.4290 C   0  0  0  0  0  0  0  0  0  0  0  0
   -9.8540   20.8970  -31.9770 C   0  0  0  0  0  0  0  0  0  0  0  0
   -8.8830   21.8830  -31.7770 C   0  0  0  0  0  0  0  0  0  0  0  0
   -7.5260   21.6010  -32.0320 C   0  0  0  0  0  0  0  0  0  0  0  0
   -3.2300   23.4220  -30.7410 N   0  0  0  0  0  0  0  0  0  0  0  0
   -2.7220   22.4260  -29.8400 C   0  0  0  0  0  0  0  0  0  0  0  0
   -3.4780   21.9230  -28.7640 C   0  0  0  0  0  0  0  0  0  0  0  0
   -2.9590   20.9080  -27.9520 C   0  0  0  0  0  0  0  0  0  0  0  0
   -1.6910   20.3830  -28.2090 C   0  0  0  0  0  0  0  0  0  0  0  0
   -0.9410   20.8660  -29.2830 C   0  0  0  0  0  0  0  0  0  0  0  0
   -1.4560   21.8790  -30.0980 C   0  0  0  0  0  0  0  0  0  0  0  0
   -0.7230   22.3260  -31.1500 F   0  0  0  0  0  0  0  0  0  0  0  0
   -5.4569   23.0823  -29.4815 H   0  0  0  0  0  0  0  0  0  0  0  0
   -5.7441   24.8257  -29.0905 H   0  0  0  0  0  0  0  0  0  0  0  0
   -4.4720   22.9360  -32.0160 H   0  0  0  0  0  0  0  0  0  0  0  0
   -3.7168   18.5426  -32.1998 H   0  0  0  0  0  0  0  0  0  0  0  0
   -1.3558   17.9070  -32.6846 H   0  0  0  0  0  0  0  0  0  0  0  0
    0.2293   19.5906  -33.6240 H   0  0  0  0  0  0  0  0  0  0  0  0
   -0.5475   21.9188  -34.0732 H   0  0  0  0  0  0  0  0  0  0  0  0
   -2.9066   22.5683  -33.5953 H   0  0  0  0  0  0  0  0  0  0  0  0
   -7.8582   18.3406  -33.0531 H   0  0  0  0  0  0  0  0  0  0  0  0
  -10.2534   18.8538  -32.5766 H   0  0  0  0  0  0  0  0  0  0  0  0
  -10.9121   21.1218  -31.7775 H   0  0  0  0  0  0  0  0  0  0  0  0
   -9.1788   22.8805  -31.4200 H   0  0  0  0  0  0  0  0  0  0  0  0
   -4.4799   22.3291  -28.5608 H   0  0  0  0  0  0  0  0  0  0  0  0
   -3.5516   20.5229  -27.1091 H   0  0  0  0  0  0  0  0  0  0  0  0
   -1.2832   19.5894  -27.5657 H   0  0  0  0  0  0  0  0  0  0  0  0
    0.0561   20.4493  -29.4883 H   0  0  0  0  0  0  0  0  0  0  0  0
  1  2  2  0
  2  3  1  0
  3  4  1  0
  4  5  1  0
  5  6  2  0
  6  7  1  0
  7  8  1  0
  8  9  2  0
  9 10  1  0
 10 11  2  0
 11 12  1  0
 12 13  2  0
  7 14  2  0
 14 15  1  0
 15 16  2  0
 16 17  1  0
 17 18  2  0
 18 19  1  0
 19 20  2  0
  2 21  1  0
 21 22  1  0
 22 23  2  0
 23 24  1  0
 24 25  2  0
 25 26  1  0
 26 27  2  0
 27 28  1  0
 20  5  1  0
 27 22  1  0
 13  8  1  0
 20 15  1  0
  3 29  1  0
  3 30  1  0
  6 31  1  0
  9 32  1  0
 10 33  1  0
 11 34  1  0
 12 35  1  0
 13 36  1  0
 16 37  1  0
 17 38  1  0
 18 39  1  0
 19 40  1  0
 23 41  1  0
 24 42  1  0
 25 43  1  0
 26 44  1  0
M  CHG  2   6   1  21  -1
M  END
>  <UniqueID>  (21) 
20

>  <SMILES>  (21) 
O=C(CSc1[nH+]c(-c2ccccc2)nc2ccccc12)[N-]c1ccccc1F

>  <Energy>  (21) 
51.953371674935646

>  <Genealogy>  (21) 
O=C(CSc1[nH+]c(-c2ccccc2)nc2ccccc12)[N-]c1ccccc1F (protonated)
O=C(CSc1[nH+]c(-c2ccccc2)nc2ccccc12)[N-]c1ccccc1F (3D coordinates assigned)
O=C(CSc1[nH+]c(-c2ccccc2)nc2ccccc12)[N-]c1ccccc1F (optimized conformer: 51.953371674935646 kcal/mol)

>  <smiles>  (21) 
O=C(CSc1nc(-c2ccccc2)nc2ccccc12)Nc1ccccc1F

>  <score_type>  (21) 
oracle

>  <origin>  (21) 
adg

>  <m_score__min__energy>  (21) 
-10.85

>  <m_primary>  (21) 
energy

$$$$
21:0
     RDKit          3D

 42 44  0  0  0  0  0  0  0  0999 V2000
   -1.9410   25.3330  -25.4280 C   0  0  0  0  0  0  0  0  0  0  0  0
   -2.6750   25.4200  -26.7090 N   0  0  2  0  0  0  0  0  0  0  0  0
   -3.9320   24.6260  -26.6960 C   0  0  0  0  0  0  0  0  0  0  0  0
   -3.8100   23.1620  -27.2130 C   0  0  1  0  0  0  0  0  0  0  0  0
   -4.6130   22.9780  -28.5130 C   0  0  0  0  0  0  0  0  0  0  0  0
   -4.0120   23.7660  -29.5960 N   0  0  0  0  0  0  0  0  0  0  0  0
   -4.8410   24.1350  -30.7120 C   0  0  0  0  0  0  0  0  0  0  0  0
   -4.7270   25.2840  -31.2180 O   0  0  0  0  0  0  0  0  0  0  0  0
   -5.8270   23.1880  -31.2720 C   0  0  0  0  0  0  0  0  0  0  0  0
   -7.2020   23.3940  -31.0710 C   0  0  0  0  0  0  0  0  0  0  0  0
   -8.1350   22.4960  -31.6010 C   0  0  0  0  0  0  0  0  0  0  0  0
   -7.7020   21.3830  -32.3260 C   0  0  0  0  0  0  0  0  0  0  0  0
   -8.6080   20.5140  -32.8390 F   0  0  0  0  0  0  0  0  0  0  0  0
   -6.3360   21.1620  -32.5160 C   0  0  0  0  0  0  0  0  0  0  0  0
   -5.4000   22.0570  -31.9870 C   0  0  0  0  0  0  0  0  0  0  0  0
   -2.5570   23.6730  -29.8120 C   0  0  0  0  0  0  0  0  0  0  0  0
   -1.7560   23.7540  -28.4750 C   0  0  2  0  0  0  0  0  0  0  0  0
   -0.2940   23.3480  -28.7580 C   0  0  0  0  0  0  0  0  0  0  0  0
   -2.3650   22.7510  -27.4850 C   0  0  0  0  0  0  0  0  0  0  0  0
   -1.7920   25.2100  -27.8920 C   0  0  0  0  0  0  0  0  0  0  0  0
   -2.6511   25.4172  -24.5921 H   0  0  0  0  0  0  0  0  0  0  0  0
   -1.4187   24.3667  -25.3696 H   0  0  0  0  0  0  0  0  0  0  0  0
   -1.2073   26.1505  -25.3696 H   0  0  0  0  0  0  0  0  0  0  0  0
   -2.9770   26.4240  -26.7570 H   0  0  0  0  0  0  0  0  0  0  0  0
   -4.2980   24.5892  -25.6593 H   0  0  0  0  0  0  0  0  0  0  0  0
   -4.6156   25.1343  -27.3919 H   0  0  0  0  0  0  0  0  0  0  0  0
   -4.2114   22.5232  -26.4125 H   0  0  0  0  0  0  0  0  0  0  0  0
   -4.6115   21.9144  -28.7935 H   0  0  0  0  0  0  0  0  0  0  0  0
   -5.6450   23.3217  -28.3491 H   0  0  0  0  0  0  0  0  0  0  0  0
   -7.5467   24.2651  -30.4944 H   0  0  0  0  0  0  0  0  0  0  0  0
   -9.2107   22.6666  -31.4467 H   0  0  0  0  0  0  0  0  0  0  0  0
   -5.9956   20.2827  -33.0826 H   0  0  0  0  0  0  0  0  0  0  0  0
   -4.3250   21.8742  -32.1316 H   0  0  0  0  0  0  0  0  0  0  0  0
   -2.3322   22.7142  -30.3021 H   0  0  0  0  0  0  0  0  0  0  0  0
   -2.2537   24.5241  -30.4394 H   0  0  0  0  0  0  0  0  0  0  0  0
    0.2365   23.2007  -27.8057 H   0  0  0  0  0  0  0  0  0  0  0  0
   -0.2786   22.4116  -29.3350 H   0  0  0  0  0  0  0  0  0  0  0  0
    0.2020   24.1424  -29.3350 H   0  0  0  0  0  0  0  0  0  0  0  0
   -2.3412   21.7401  -27.9179 H   0  0  0  0  0  0  0  0  0  0  0  0
   -1.7895   22.7472  -26.5476 H   0  0  0  0  0  0  0  0  0  0  0  0
   -0.7669   25.4803  -27.5987 H   0  0  0  0  0  0  0  0  0  0  0  0
   -2.2128   25.8384  -28.6908 H   0  0  0  0  0  0  0  0  0  0  0  0
  1  2  1  0
  2  3  1  0
  3  4  1  0
  4  5  1  0
  5  6  1  0
  6  7  1  0
  7  8  2  0
  7  9  1  0
  9 10  2  0
 10 11  1  0
 11 12  2  0
 12 13  1  0
 12 14  1  0
 14 15  2  0
  6 16  1  0
 16 17  1  0
 17 18  1  6
 17 19  1  0
 17 20  1  0
 20  2  1  0
 19  4  1  0
 15  9  1  0
  1 21  1  0
  1 22  1  0
  1 23  1  0
  2 24  1  6
  3 25  1  0
  3 26  1  0
  4 27  1  1
  5 28  1  0
  5 29  1  0
 10 30  1  0
 11 31  1  0
 14 32  1  0
 15 33  1  0
 16 34  1  0
 16 35  1  0
 18 36  1  0
 18 37  1  0
 18 38  1  0
 19 39  1  0
 19 40  1  0
 20 41  1  0
 20 42  1  0
M  CHG  1   2   1
M  END
>  <UniqueID>  (22) 
21

>  <SMILES>  (22) 
C[N@@H+]1C[C@H]2CN(C(=O)c3ccc(F)cc3)CC(C)(C2)C1

>  <Energy>  (22) 
65.43558189518254

>  <Genealogy>  (22) 
C[NH+]1CC2CN(C(=O)c3ccc(F)cc3)CC(C)(C2)C1 (protonated)
C[N@@H+]1C[C@H]2CN(C(=O)c3ccc(F)cc3)CC(C)(C2)C1 (chirality)
C[N@@H+]1C[C@H]2CN(C(=O)c3ccc(F)cc3)CC(C)(C2)C1 (3D coordinates assigned)
C[N@@H+]1C[C@H]2CN(C(=O)c3ccc(F)cc3)CC(C)(C2)C1 (nonaromatic ring conformer: 65.43558189518254 kcal/mol)

>  <smiles>  (22) 
CN1CC2CN(C(=O)c3ccc(F)cc3)CC(C)(C2)C1

>  <score_type>  (22) 
oracle

>  <origin>  (22) 
adg

>  <m_score__min__energy>  (22) 
-6.5199999999999996

>  <m_primary>  (22) 
energy

$$$$
22:0
     RDKit          3D

 38 39  0  0  0  0  0  0  0  0999 V2000
   -2.3140   24.8700  -28.5730 C   0  0  0  0  0  0  0  0  0  0  0  0
   -3.1090   25.2760  -29.6810 O   0  0  0  0  0  0  0  0  0  0  0  0
   -4.1800   24.5350  -30.2030 C   0  0  0  0  0  0  0  0  0  0  0  0
   -5.4250   25.1620  -30.3270 C   0  0  0  0  0  0  0  0  0  0  0  0
   -6.5190   24.4690  -30.8480 C   0  0  0  0  0  0  0  0  0  0  0  0
   -6.3830   23.1380  -31.2460 C   0  0  0  0  0  0  0  0  0  0  0  0
   -5.1460   22.4850  -31.1140 C   0  0  0  0  0  0  0  0  0  0  0  0
   -4.9910   21.0600  -31.5750 C   0  0  0  0  0  0  0  0  0  0  0  0
   -5.1610   20.9680  -33.0970 C   0  0  0  0  0  0  0  0  0  0  0  0
   -5.8380   19.6660  -33.5900 C   0  0  0  0  0  0  0  0  0  0  0  0
   -7.2820   19.4740  -33.2750 N   0  0  0  0  0  0  0  0  0  0  0  0
   -7.5730   18.2850  -32.4500 C   0  0  0  0  0  0  0  0  0  0  0  0
   -8.7150   18.6490  -31.5030 C   0  0  0  0  0  0  0  0  0  0  0  0
   -9.1870   20.0190  -31.9500 C   0  0  0  0  0  0  0  0  0  0  0  0
   -7.9840   20.6100  -32.6550 C   0  0  0  0  0  0  0  0  0  0  0  0
   -4.0430   23.1900  -30.6030 C   0  0  0  0  0  0  0  0  0  0  0  0
   -2.8284   25.1327  -27.6368 H   0  0  0  0  0  0  0  0  0  0  0  0
   -2.1580   23.7818  -28.6128 H   0  0  0  0  0  0  0  0  0  0  0  0
   -1.3410   25.3816  -28.6128 H   0  0  0  0  0  0  0  0  0  0  0  0
   -5.5424   26.2092  -30.0114 H   0  0  0  0  0  0  0  0  0  0  0  0
   -7.4916   24.9735  -30.9453 H   0  0  0  0  0  0  0  0  0  0  0  0
   -7.2462   22.5992  -31.6639 H   0  0  0  0  0  0  0  0  0  0  0  0
   -3.9898   20.6970  -31.2997 H   0  0  0  0  0  0  0  0  0  0  0  0
   -5.7632   20.4431  -31.0921 H   0  0  0  0  0  0  0  0  0  0  0  0
   -5.7740   21.8199  -33.4263 H   0  0  0  0  0  0  0  0  0  0  0  0
   -4.1481   20.9756  -33.5259 H   0  0  0  0  0  0  0  0  0  0  0  0
   -5.7336   19.6356  -34.6846 H   0  0  0  0  0  0  0  0  0  0  0  0
   -5.3247   18.8614  -33.0431 H   0  0  0  0  0  0  0  0  0  0  0  0
   -7.7560   19.3110  -34.1970 H   0  0  0  0  0  0  0  0  0  0  0  0
   -7.8730   17.4455  -33.0944 H   0  0  0  0  0  0  0  0  0  0  0  0
   -6.6815   17.9812  -31.8817 H   0  0  0  0  0  0  0  0  0  0  0  0
   -9.5307   17.9155  -31.5838 H   0  0  0  0  0  0  0  0  0  0  0  0
   -8.3904   18.6508  -30.4520 H   0  0  0  0  0  0  0  0  0  0  0  0
  -10.0403   19.9329  -32.6388 H   0  0  0  0  0  0  0  0  0  0  0  0
   -9.5339   20.6412  -31.1118 H   0  0  0  0  0  0  0  0  0  0  0  0
   -8.3055   21.3273  -33.4245 H   0  0  0  0  0  0  0  0  0  0  0  0
   -7.3327   21.1544  -31.9554 H   0  0  0  0  0  0  0  0  0  0  0  0
   -3.0673   22.6897  -30.5146 H   0  0  0  0  0  0  0  0  0  0  0  0
  1  2  1  0
  2  3  1  0
  3  4  2  0
  4  5  1  0
  5  6  2  0
  6  7  1  0
  7  8  1  0
  8  9  1  0
  9 10  1  0
 10 11  1  0
 11 12  1  0
 12 13  1  0
 13 14  1  0
 14 15  1  0
  7 16  2  0
 16  3  1  0
 15 11  1  0
  1 17  1  0
  1 18  1  0
  1 19  1  0
  4 20  1  0
  5 21  1  0
  6 22  1  0
  8 23  1  0
  8 24  1  0
  9 25  1  0
  9 26  1  0
 10 27  1  0
 10 28  1  0
 11 29  1  0
 12 30  1  0
 12 31  1  0
 13 32  1  0
 13 33  1  0
 14 34  1  0
 14 35  1  0
 15 36  1  0
 15 37  1  0
 16 38  1  0
M  CHG  1  11   1
M  END
>  <UniqueID>  (23) 
22

>  <SMILES>  (23) 
COc1cccc(CCC[NH+]2CCCC2)c1

>  <Energy>  (23) 
43.52280809541482

>  <Genealogy>  (23) 
COc1cccc(CCC[NH+]2CCCC2)c1 (protonated)
COc1cccc(CCC[NH+]2CCCC2)c1 (3D coordinates assigned)
COc1cccc(CCC[NH+]2CCCC2)c1 (nonaromatic ring conformer: 43.52280809541482 kcal/mol)

>  <smiles>  (23) 
COc1cccc(CCCN2CCCC2)c1

>  <score_type>  (23) 
oracle

>  <origin>  (23) 
adg

>  <m_score__min__energy>  (23) 
-6.5999999999999996

>  <m_primary>  (23) 
energy

$$$$
23:0
     RDKit          3D

 29 31  0  0  0  0  0  0  0  0999 V2000
   -3.0370   21.7270  -28.1380 C   0  0  0  0  0  0  0  0  0  0  0  0
   -3.0360   23.0670  -28.7510 C   0  0  0  0  0  0  0  0  0  0  0  0
   -2.1530   24.0600  -28.5690 N   0  0  0  0  0  0  0  0  0  0  0  0
   -2.4820   25.1230  -29.2920 N   0  0  0  0  0  0  0  0  0  0  0  0
   -3.6030   24.8070  -29.9550 C   0  0  0  0  0  0  0  0  0  0  0  0
   -4.2320   25.5890  -30.7670 N   0  0  0  0  0  0  0  0  0  0  0  0
   -3.9680   23.5400  -29.6380 C   0  0  0  0  0  0  0  0  0  0  0  0
   -5.1550   22.8820  -30.1930 C   0  0  0  0  0  0  0  0  0  0  0  0
   -5.5510   21.8640  -30.6190 N   0  0  0  0  0  0  0  0  0  0  0  0
   -6.7400   21.5560  -31.0700 C   0  0  0  0  0  0  0  0  0  0  0  0
   -7.2080   20.3400  -31.5770 C   0  0  0  0  0  0  0  0  0  0  0  0
   -8.4900   20.2180  -32.0000 C   0  0  0  0  0  0  0  0  0  0  0  0
   -8.9720   18.8960  -32.5420 C   0  0  0  0  0  0  0  0  0  0  0  0
   -9.9660   19.0830  -33.4540 F   0  0  0  0  0  0  0  0  0  0  0  0
   -7.9360   18.2400  -33.1800 F   0  0  0  0  0  0  0  0  0  0  0  0
   -9.4510   18.1970  -31.4410 F   0  0  0  0  0  0  0  0  0  0  0  0
   -9.4270   21.2510  -31.9720 C   0  0  0  0  0  0  0  0  0  0  0  0
   -8.9700   22.4530  -31.4730 C   0  0  0  0  0  0  0  0  0  0  0  0
   -7.6410   22.6090  -31.0250 C   0  0  0  0  0  0  0  0  0  0  0  0
   -6.7350   23.9220  -30.3570 S   0  0  0  0  0  0  0  0  0  0  0  0
   -3.0369   21.8250  -27.0424 H   0  0  0  0  0  0  0  0  0  0  0  0
   -3.9356   21.1785  -28.4570 H   0  0  0  0  0  0  0  0  0  0  0  0
   -2.1393   21.1772  -28.4570 H   0  0  0  0  0  0  0  0  0  0  0  0
   -1.2980   24.0580  -27.9510 H   0  0  0  0  0  0  0  0  0  0  0  0
   -1.9910   26.0520  -29.3630 H   0  0  0  0  0  0  0  0  0  0  0  0
   -3.9480   25.7450  -31.7550 H   0  0  0  0  0  0  0  0  0  0  0  0
   -6.5304   19.4753  -31.6331 H   0  0  0  0  0  0  0  0  0  0  0  0
  -10.4604   21.1162  -32.3240 H   0  0  0  0  0  0  0  0  0  0  0  0
   -9.6577   23.3101  -31.4231 H   0  0  0  0  0  0  0  0  0  0  0  0
  1  2  1  0
  2  3  1  0
  3  4  1  0
  4  5  1  0
  5  6  2  3
  5  7  1  0
  7  8  1  0
  8  9  2  0
  9 10  1  0
 10 11  2  0
 11 12  1  0
 12 13  1  0
 13 14  1  0
 13 15  1  0
 13 16  1  0
 12 17  2  0
 17 18  1  0
 18 19  2  0
 19 20  1  0
  7  2  2  0
 20  8  1  0
 19 10  1  0
  1 21  1  0
  1 22  1  0
  1 23  1  0
  3 24  1  0
  4 25  1  0
  6 26  1  0
 11 27  1  0
 17 28  1  0
 18 29  1  0
M  END
>  <smiles>  (24) 
Cc1[nH][nH]c(=N)c1-c1nc2cc(C(F)(F)F)ccc2s1

>  <score_type>  (24) 
oracle

>  <origin>  (24) 
adg

>  <m_score__min__energy>  (24) 
-7.2300000000000004

>  <m_primary>  (24) 
energy

$$$$
24:0
     RDKit          3D

 42 44  0  0  0  0  0  0  0  0999 V2000
   -3.9050   25.6470  -30.6420 O   0  0  0  0  0  0  0  0  0  0  0  0
   -4.9000   25.0220  -29.8760 C   0  0  0  0  0  0  0  0  0  0  0  0
   -5.2710   23.6550  -30.4750 C   0  0  2  0  0  0  0  0  0  0  0  0
   -4.3390   22.5500  -29.9800 C   0  0  0  0  0  0  0  0  0  0  0  0
   -4.2000   21.6300  -31.1640 C   0  0  0  0  0  0  0  0  0  0  0  0
   -4.3440   22.5500  -32.3600 C   0  0  0  0  0  0  0  0  0  0  0  0
   -5.1640   23.7040  -31.9500 N   0  0  0  0  0  0  0  0  0  0  0  0
   -6.4870   23.6830  -32.6150 C   0  0  0  0  0  0  0  0  0  0  0  0
   -7.2890   22.4880  -32.1720 C   0  0  0  0  0  0  0  0  0  0  0  0
   -8.2980   22.6400  -31.2090 C   0  0  0  0  0  0  0  0  0  0  0  0
   -9.0180   21.5290  -30.7640 C   0  0  0  0  0  0  0  0  0  0  0  0
   -8.7280   20.2570  -31.2640 C   0  0  0  0  0  0  0  0  0  0  0  0
   -7.7020   20.0880  -32.2120 C   0  0  0  0  0  0  0  0  0  0  0  0
   -7.3840   18.8290  -32.7410 O   0  0  0  0  0  0  0  0  0  0  0  0
   -6.1320   18.4560  -33.2500 C   0  0  0  0  0  0  0  0  0  0  0  0
   -6.0750   17.8100  -34.4920 C   0  0  0  0  0  0  0  0  0  0  0  0
   -4.8440   17.4360  -35.0380 C   0  0  0  0  0  0  0  0  0  0  0  0
   -3.6590   17.7180  -34.3530 C   0  0  0  0  0  0  0  0  0  0  0  0
   -3.7040   18.3790  -33.1230 C   0  0  0  0  0  0  0  0  0  0  0  0
   -4.9350   18.7530  -32.5730 C   0  0  0  0  0  0  0  0  0  0  0  0
   -7.0020   21.2090  -32.6740 C   0  0  0  0  0  0  0  0  0  0  0  0
   -4.2240   25.6390  -31.5820 H   0  0  0  0  0  0  0  0  0  0  0  0
   -4.5287   24.8778  -28.8506 H   0  0  0  0  0  0  0  0  0  0  0  0
   -5.7957   25.6605  -29.8721 H   0  0  0  0  0  0  0  0  0  0  0  0
   -6.3010   23.4333  -30.1589 H   0  0  0  0  0  0  0  0  0  0  0  0
   -3.3619   22.9638  -29.6901 H   0  0  0  0  0  0  0  0  0  0  0  0
   -4.7290   22.0360  -29.0891 H   0  0  0  0  0  0  0  0  0  0  0  0
   -3.2158   21.1388  -31.1644 H   0  0  0  0  0  0  0  0  0  0  0  0
   -4.9435   20.8193  -31.1607 H   0  0  0  0  0  0  0  0  0  0  0  0
   -3.3520   22.8944  -32.6878 H   0  0  0  0  0  0  0  0  0  0  0  0
   -4.8225   22.0186  -33.1958 H   0  0  0  0  0  0  0  0  0  0  0  0
   -7.0351   24.6011  -32.3567 H   0  0  0  0  0  0  0  0  0  0  0  0
   -6.3341   23.6216  -33.7026 H   0  0  0  0  0  0  0  0  0  0  0  0
   -8.5227   23.6374  -30.8032 H   0  0  0  0  0  0  0  0  0  0  0  0
   -9.8159   21.6559  -30.0175 H   0  0  0  0  0  0  0  0  0  0  0  0
   -9.3028   19.3861  -30.9159 H   0  0  0  0  0  0  0  0  0  0  0  0
   -7.0042   17.5960  -35.0404 H   0  0  0  0  0  0  0  0  0  0  0  0
   -4.8078   16.9190  -36.0082 H   0  0  0  0  0  0  0  0  0  0  0  0
   -2.6911   17.4196  -34.7821 H   0  0  0  0  0  0  0  0  0  0  0  0
   -2.7708   18.6056  -32.5865 H   0  0  0  0  0  0  0  0  0  0  0  0
   -4.9670   19.2808  -31.6084 H   0  0  0  0  0  0  0  0  0  0  0  0
   -6.2198   21.0863  -33.4376 H   0  0  0  0  0  0  0  0  0  0  0  0
  1  2  1  0
  2  3  1  0
  3  4  1  0
  4  5  1  0
  5  6  1  0
  6  7  1  0
  7  8  1  0
  8  9  1  0
  9 10  2  0
 10 11  1  0
 11 12  2  0
 12 13  1  0
 13 14  1  0
 14 15  1  0
 15 16  2  0
 16 17  1  0
 17 18  2  0
 18 19  1  0
 19 20  2  0
 13 21  2  0
  7  3  1  0
 21  9  1  0
 20 15  1  0
  1 22  1  0
  2 23  1  0
  2 24  1  0
  3 25  1  6
  4 26  1  0
  4 27  1  0
  5 28  1  0
  5 29  1  0
  6 30  1  0
  6 31  1  0
  8 32  1  0
  8 33  1  0
 10 34  1  0
 11 35  1  0
 12 36  1  0
 16 37  1  0
 17 38  1  0
 18 39  1  0
 19 40  1  0
 20 41  1  0
 21 42  1  0
M  END
>  <UniqueID>  (25) 
23

>  <SMILES>  (25) 
OC[C@@H]1CCCN1Cc1cccc(Oc2ccccc2)c1

>  <Energy>  (25) 
49.75798056229953

>  <Genealogy>  (25) 
OC[C@@H]1CCCN1Cc1cccc(Oc2ccccc2)c1 (chirality)
OC[C@@H]1CCCN1Cc1cccc(Oc2ccccc2)c1 (3D coordinates assigned)
OC[C@@H]1CCCN1Cc1cccc(Oc2ccccc2)c1 (nonaromatic ring conformer: 49.75798056229953 kcal/mol)

>  <smiles>  (25) 
OCC1CCCN1Cc1cccc(Oc2ccccc2)c1

>  <score_type>  (25) 
oracle

>  <origin>  (25) 
adg

>  <m_score__min__energy>  (25) 
-8.5800000000000001

>  <m_primary>  (25) 
energy

$$$$
25:0
     RDKit          3D

 44 46  0  0  0  0  0  0  0  0999 V2000
   -1.8480   24.3530  -30.1080 H   0  0  0  0  0  0  0  0  0  0  0  0
   -6.5730   22.4850  -30.7390 N   0  0  0  0  0  0  0  0  0  0  0  0
   -5.7130   23.4540  -30.5780 C   0  0  0  0  0  0  0  0  0  0  0  0
   -4.6510   25.7170  -30.5020 N   0  0  0  0  0  0  0  0  0  0  0  0
   -6.0990   25.0300  -30.9140 S   0  0  0  0  0  0  0  0  0  0  0  0
   -3.8680   24.6770  -30.1010 C   0  0  0  0  0  0  0  0  0  0  0  0
   -2.6520   24.8850  -29.7060 N   0  0  0  0  0  0  0  0  0  0  0  0
   -7.5850   22.2470  -31.7590 C   0  0  0  0  0  0  0  0  0  0  0  0
   -8.5814   22.4715  -31.3507 H   0  0  0  0  0  0  0  0  0  0  0  0
   -7.3993   22.8951  -32.6282 H   0  0  0  0  0  0  0  0  0  0  0  0
   -7.5230   20.8050  -32.1750 C   0  0  0  0  0  0  0  0  0  0  0  0
   -6.5630   20.3740  -33.1020 C   0  0  0  0  0  0  0  0  0  0  0  0
   -5.8707   21.1016  -33.5507 H   0  0  0  0  0  0  0  0  0  0  0  0
   -6.4810   19.0250  -33.4590 C   0  0  0  0  0  0  0  0  0  0  0  0
   -5.7306   18.6999  -34.1946 H   0  0  0  0  0  0  0  0  0  0  0  0
   -7.3460   18.0850  -32.8880 C   0  0  0  0  0  0  0  0  0  0  0  0
   -7.2250   16.7430  -33.2810 O   0  0  0  0  0  0  0  0  0  0  0  0
   -6.0360   16.1630  -33.8060 C   0  0  0  0  0  0  0  0  0  0  0  0
   -5.3859   15.8459  -32.9773 H   0  0  0  0  0  0  0  0  0  0  0  0
   -6.2954   15.2902  -34.4232 H   0  0  0  0  0  0  0  0  0  0  0  0
   -5.5078   16.9047  -34.4232 H   0  0  0  0  0  0  0  0  0  0  0  0
   -8.3010   18.5130  -31.9460 C   0  0  0  0  0  0  0  0  0  0  0  0
   -8.9856   17.7828  -31.4897 H   0  0  0  0  0  0  0  0  0  0  0  0
   -8.3830   19.8620  -31.5880 C   0  0  0  0  0  0  0  0  0  0  0  0
   -9.1245   20.1865  -30.8431 H   0  0  0  0  0  0  0  0  0  0  0  0
   -4.4140   23.4050  -30.1340 N   0  0  0  0  0  0  0  0  0  0  0  0
   -3.6070   22.2300  -29.7490 C   0  0  0  0  0  0  0  0  0  0  0  0
   -2.8537   22.5406  -29.0101 H   0  0  0  0  0  0  0  0  0  0  0  0
   -4.2823   21.4719  -29.3257 H   0  0  0  0  0  0  0  0  0  0  0  0
   -2.9020   21.6230  -30.9450 C   0  0  0  0  0  0  0  0  0  0  0  0
   -3.6570   20.9140  -31.8960 C   0  0  0  0  0  0  0  0  0  0  0  0
   -4.7413   20.7963  -31.7531 H   0  0  0  0  0  0  0  0  0  0  0  0
   -3.0430   20.3580  -33.0200 C   0  0  0  0  0  0  0  0  0  0  0  0
   -3.6434   19.8003  -33.7539 H   0  0  0  0  0  0  0  0  0  0  0  0
   -1.6720   20.5080  -33.2140 C   0  0  0  0  0  0  0  0  0  0  0  0
   -1.1910   20.0666  -34.0994 H   0  0  0  0  0  0  0  0  0  0  0  0
   -0.9070   21.2180  -32.2860 C   0  0  0  0  0  0  0  0  0  0  0  0
    0.1747   21.3364  -32.4466 H   0  0  0  0  0  0  0  0  0  0  0  0
   -1.5110   21.7840  -31.1450 C   0  0  0  0  0  0  0  0  0  0  0  0
   -0.7610   22.5000  -30.1990 O   0  0  0  0  0  0  0  0  0  0  0  0
   -0.4680   22.0500  -28.8820 C   0  0  0  0  0  0  0  0  0  0  0  0
   -0.9165   22.7388  -28.1509 H   0  0  0  0  0  0  0  0  0  0  0  0
   -0.8831   21.0415  -28.7382 H   0  0  0  0  0  0  0  0  0  0  0  0
    0.6222   22.0217  -28.7382 H   0  0  0  0  0  0  0  0  0  0  0  0
  1  2  1  0
  2  3  2  0
  3  4  1  0
  4  5  1  0
  5  6  1  0
  6  7  2  0
  7  8  1  0
  8  9  1  0
  8 10  1  0
  8 11  1  0
 11 12  2  0
 12 13  1  0
 12 14  1  0
 14 15  1  0
 14 16  2  0
 16 17  1  0
 17 18  1  0
 18 19  1  0
 18 20  1  0
 18 21  1  0
 16 22  1  0
 22 23  1  0
 22 24  2  0
 24 25  1  0
  6 26  1  0
 26 27  1  0
 27 28  1  0
 27 29  1  0
 27 30  1  0
 30 31  2  0
 31 32  1  0
 31 33  1  0
 33 34  1  0
 33 35  2  0
 35 36  1  0
 35 37  1  0
 37 38  1  0
 37 39  2  0
 39 40  1  0
 40 41  1  0
 41 42  1  0
 41 43  1  0
 41 44  1  0
 26  3  1  0
 39 30  1  0
 24 11  1  0
M  CHG  1   4  -1
M  END
>  <UniqueID>  (26) 
24

>  <SMILES>  (26) 
[H]/N=c1\[n-]s/c(=N/Cc2ccc(OC)cc2)n1Cc1ccccc1OC

>  <Energy>  (26) 
93.03561535160648

>  <Genealogy>  (26) 
COc1ccc(CN=c2s[n-]c(=N)n2Cc2ccccc2OC)cc1 (protonated)
[H]/N=c1\[n-]s/c(=N/Cc2ccc(OC)cc2)n1Cc1ccccc1OC (cis-trans isomerization)
[H]/N=c1\[n-]s/c(=N/Cc2ccc(OC)cc2)n1Cc1ccccc1OC (3D coordinates assigned)
[H]/N=c1\[n-]s/c(=N/Cc2ccc(OC)cc2)n1Cc1ccccc1OC (optimized conformer: 93.03561535160648 kcal/mol)

>  <smiles>  (26) 
COc1ccc(CN=c2s[nH]c(=N)n2Cc2ccccc2OC)cc1

>  <score_type>  (26) 
oracle

>  <origin>  (26) 
adg

>  <m_score__min__energy>  (26) 
-8.8900000000000006

>  <m_primary>  (26) 
energy

$$$$
26:0
     RDKit          3D

 41 43  0  0  0  0  0  0  0  0999 V2000
   -3.8800   25.3060  -30.4980 N   0  0  0  0  0  0  0  0  0  0  0  0
   -4.8010   24.6260  -30.6630 C   0  0  0  0  0  0  0  0  0  0  0  0
   -5.9470   23.7790  -30.8670 C   0  0  0  0  0  0  0  0  0  0  0  0
   -6.4870   23.0610  -29.7930 C   0  0  0  0  0  0  0  0  0  0  0  0
   -7.5930   22.2310  -29.9910 C   0  0  0  0  0  0  0  0  0  0  0  0
   -8.1720   22.1060  -31.2670 C   0  0  0  0  0  0  0  0  0  0  0  0
   -9.3740   21.2050  -31.4700 C   0  0  0  0  0  0  0  0  0  0  0  0
   -9.0520   19.9190  -32.1280 N   0  0  0  0  0  0  0  0  0  0  0  0
   -8.4050   20.0550  -33.4580 C   0  0  0  0  0  0  0  0  0  0  0  0
   -6.9730   19.5070  -33.4780 C   0  0  0  0  0  0  0  0  0  0  0  0
   -6.9650   18.0140  -33.0860 C   0  0  0  0  0  0  0  0  0  0  0  0
   -5.2720   17.3980  -32.7030 S   0  0  0  0  0  0  0  0  0  0  0  0
   -4.4170   18.9770  -32.6200 C   0  0  0  0  0  0  0  0  0  0  0  0
   -3.4840   19.2840  -33.5620 N   0  0  0  0  0  0  0  0  0  0  0  0
   -2.7980   20.4540  -33.5120 C   0  0  0  0  0  0  0  0  0  0  0  0
   -3.0390   21.3570  -32.4770 C   0  0  0  0  0  0  0  0  0  0  0  0
   -3.9820   21.0190  -31.5080 C   0  0  0  0  0  0  0  0  0  0  0  0
   -4.6430   19.8330  -31.5860 N   0  0  0  0  0  0  0  0  0  0  0  0
   -7.9960   17.6740  -31.9810 C   0  0  0  0  0  0  0  0  0  0  0  0
   -8.4390   18.9250  -31.2150 C   0  0  0  0  0  0  0  0  0  0  0  0
   -7.6330   22.8420  -32.3360 C   0  0  0  0  0  0  0  0  0  0  0  0
   -6.5230   23.6680  -32.1380 C   0  0  0  0  0  0  0  0  0  0  0  0
   -6.0397   23.1507  -28.7921 H   0  0  0  0  0  0  0  0  0  0  0  0
   -8.0142   21.6711  -29.1430 H   0  0  0  0  0  0  0  0  0  0  0  0
   -9.8164   20.9900  -30.4861 H   0  0  0  0  0  0  0  0  0  0  0  0
  -10.0672   21.7406  -32.1352 H   0  0  0  0  0  0  0  0  0  0  0  0
   -9.0032   19.5037  -34.1984 H   0  0  0  0  0  0  0  0  0  0  0  0
   -8.3535   21.1281  -33.6944 H   0  0  0  0  0  0  0  0  0  0  0  0
   -6.5558   19.6188  -34.4897 H   0  0  0  0  0  0  0  0  0  0  0  0
   -6.3644   20.0700  -32.7550 H   0  0  0  0  0  0  0  0  0  0  0  0
   -7.2969   17.4618  -33.9776 H   0  0  0  0  0  0  0  0  0  0  0  0
   -2.0532   20.6896  -34.2865 H   0  0  0  0  0  0  0  0  0  0  0  0
   -2.4977   22.3133  -32.4266 H   0  0  0  0  0  0  0  0  0  0  0  0
   -4.1917   21.7118  -30.6797 H   0  0  0  0  0  0  0  0  0  0  0  0
   -5.3260   19.5820  -30.8370 H   0  0  0  0  0  0  0  0  0  0  0  0
   -8.8780   17.2103  -32.4469 H   0  0  0  0  0  0  0  0  0  0  0  0
   -7.5195   16.9858  -31.2674 H   0  0  0  0  0  0  0  0  0  0  0  0
   -9.1757   18.6365  -30.4507 H   0  0  0  0  0  0  0  0  0  0  0  0
   -7.5541   19.3798  -30.7458 H   0  0  0  0  0  0  0  0  0  0  0  0
   -8.0876   22.7675  -33.3349 H   0  0  0  0  0  0  0  0  0  0  0  0
   -6.1011   24.2321  -32.9828 H   0  0  0  0  0  0  0  0  0  0  0  0
  1  2  3  0
  2  3  1  0
  3  4  2  0
  4  5  1  0
  5  6  2  0
  6  7  1  0
  7  8  1  0
  8  9  1  0
  9 10  1  0
 10 11  1  0
 11 12  1  0
 12 13  1  0
 13 14  2  0
 14 15  1  0
 15 16  2  0
 16 17  1  0
 17 18  2  0
 11 19  1  0
 19 20  1  0
  6 21  1  0
 21 22  2  0
 22  3  1  0
 20  8  1  0
 18 13  1  0
  4 23  1  0
  5 24  1  0
  7 25  1  0
  7 26  1  0
  9 27  1  0
  9 28  1  0
 10 29  1  0
 10 30  1  0
 11 31  1  0
 15 32  1  0
 16 33  1  0
 17 34  1  0
 18 35  1  0
 19 36  1  0
 19 37  1  0
 20 38  1  0
 20 39  1  0
 21 40  1  0
 22 41  1  0
M  CHG  1  18   1
M  END
>  <UniqueID>  (27) 
25

>  <SMILES>  (27) 
N#Cc1ccc(CN2CCC(Sc3nccc[nH+]3)CC2)cc1

>  <Energy>  (27) 
47.52408851226504

>  <Genealogy>  (27) 
N#Cc1ccc(CN2CCC(Sc3nccc[nH+]3)CC2)cc1 (protonated)
N#Cc1ccc(CN2CCC(Sc3nccc[nH+]3)CC2)cc1 (3D coordinates assigned)
N#Cc1ccc(CN2CCC(Sc3nccc[nH+]3)CC2)cc1 (nonaromatic ring conformer: 47.52408851226504 kcal/mol)

>  <smiles>  (27) 
N#Cc1ccc(CN2CCC(Sc3ncccn3)CC2)cc1

>  <score_type>  (27) 
oracle

>  <origin>  (27) 
adg

>  <m_score__min__energy>  (27) 
-7.5599999999999996

>  <m_primary>  (27) 
energy

$$$$
27:0
     RDKit          3D

 31 32  0  0  0  0  0  0  0  0999 V2000
   -9.0910   18.5980  -31.6240 C   0  0  0  0  0  0  0  0  0  0  0  0
   -7.6250   18.1840  -31.7140 C   0  0  0  0  0  0  0  0  0  0  0  0
   -7.0190   18.4670  -33.0930 C   0  0  0  0  0  0  0  0  0  0  0  0
   -7.1910   19.8740  -33.4630 N   0  0  0  0  0  0  0  0  0  0  0  0
   -6.8310   21.0080  -32.6470 C   0  0  0  0  0  0  0  0  0  0  0  0
   -7.8460   21.8630  -32.1950 C   0  0  0  0  0  0  0  0  0  0  0  0
   -7.5500   22.9700  -31.3960 C   0  0  0  0  0  0  0  0  0  0  0  0
   -6.2210   23.2450  -31.0250 C   0  0  0  0  0  0  0  0  0  0  0  0
   -5.8640   24.3480  -30.2180 C   0  0  0  0  0  0  0  0  0  0  0  0
   -6.8890   25.3230  -29.6970 C   0  0  0  0  0  0  0  0  0  0  0  0
   -4.5130   24.5350  -29.8950 C   0  0  0  0  0  0  0  0  0  0  0  0
   -3.5610   23.6330  -30.3750 C   0  0  0  0  0  0  0  0  0  0  0  0
   -2.3450   23.7920  -30.0900 O   0  0  0  0  0  0  0  0  0  0  0  0
   -3.9290   22.6060  -31.1320 O   0  0  0  0  0  0  0  0  0  0  0  0
   -5.1940   22.3790  -31.4710 C   0  0  0  0  0  0  0  0  0  0  0  0
   -5.5000   21.2740  -32.2710 C   0  0  0  0  0  0  0  0  0  0  0  0
   -9.3844   18.6809  -30.5671 H   0  0  0  0  0  0  0  0  0  0  0  0
   -9.2286   19.5701  -32.1200 H   0  0  0  0  0  0  0  0  0  0  0  0
   -9.7168   17.8414  -32.1200 H   0  0  0  0  0  0  0  0  0  0  0  0
   -7.0540   18.7411  -30.9566 H   0  0  0  0  0  0  0  0  0  0  0  0
   -7.5729   17.0987  -31.5423 H   0  0  0  0  0  0  0  0  0  0  0  0
   -5.9451   18.2298  -33.0696 H   0  0  0  0  0  0  0  0  0  0  0  0
   -7.5352   17.8431  -33.8375 H   0  0  0  0  0  0  0  0  0  0  0  0
   -7.6090   20.0580  -34.4040 H   0  0  0  0  0  0  0  0  0  0  0  0
   -8.8905   21.6592  -32.4735 H   0  0  0  0  0  0  0  0  0  0  0  0
   -8.3607   23.6306  -31.0549 H   0  0  0  0  0  0  0  0  0  0  0  0
   -6.8786   25.3131  -28.5971 H   0  0  0  0  0  0  0  0  0  0  0  0
   -6.6491   26.3344  -30.0569 H   0  0  0  0  0  0  0  0  0  0  0  0
   -7.8872   25.0329  -30.0569 H   0  0  0  0  0  0  0  0  0  0  0  0
   -4.2051   25.3852  -29.2686 H   0  0  0  0  0  0  0  0  0  0  0  0
   -4.6941   20.6064  -32.6098 H   0  0  0  0  0  0  0  0  0  0  0  0
  1  2  1  0
  2  3  1  0
  3  4  1  0
  4  5  1  0
  5  6  2  0
  6  7  1  0
  7  8  2  0
  8  9  1  0
  9 10  1  0
  9 11  2  0
 11 12  1  0
 12 13  2  0
 12 14  1  0
 14 15  1  0
 15 16  2  0
 16  5  1  0
 15  8  1  0
  1 17  1  0
  1 18  1  0
  1 19  1  0
  2 20  1  0
  2 21  1  0
  3 22  1  0
  3 23  1  0
  4 24  1  0
  6 25  1  0
  7 26  1  0
 10 27  1  0
 10 28  1  0
 10 29  1  0
 11 30  1  0
 16 31  1  0
M  END
>  <UniqueID>  (28) 
26

>  <SMILES>  (28) 
CCCNc1ccc2c(C)cc(=O)oc2c1

>  <Energy>  (28) 
33.146114306479014

>  <Genealogy>  (28) 
CCCNc1ccc2c(C)cc(=O)oc2c1 (3D coordinates assigned)
CCCNc1ccc2c(C)cc(=O)oc2c1 (optimized conformer: 33.146114306479014 kcal/mol)

>  <smiles>  (28) 
CCCNc1ccc2c(C)cc(=O)oc2c1

>  <score_type>  (28) 
oracle

>  <origin>  (28) 
adg

>  <m_score__min__energy>  (28) 
-6.4400000000000004

>  <m_primary>  (28) 
energy

$$$$
28:0
     RDKit          3D

 37 40  0  0  0  0  0  0  0  0999 V2000
   -0.6610   26.6930  -27.3250 O   0  0  0  0  0  0  0  0  0  0  0  0
   -0.9830   25.6140  -27.8880 C   0  0  0  0  0  0  0  0  0  0  0  0
   -0.4070   24.2790  -27.5470 C   0  0  0  0  0  0  0  0  0  0  0  0
   -1.4530   23.3980  -28.2220 C   0  0  2  0  0  0  0  0  0  0  0  0
   -1.0960   21.9990  -28.7030 C   0  0  0  0  0  0  0  0  0  0  0  0
   -2.2610   21.4390  -29.3350 O   0  0  0  0  0  0  0  0  0  0  0  0
   -3.2690   22.2210  -29.9500 C   0  0  0  0  0  0  0  0  0  0  0  0
   -4.3840   21.5820  -30.4960 C   0  0  0  0  0  0  0  0  0  0  0  0
   -5.4010   22.3270  -31.1140 C   0  0  0  0  0  0  0  0  0  0  0  0
   -6.5750   21.6900  -31.6450 N   0  0  0  0  0  0  0  0  0  0  0  0
   -6.5870   20.3890  -32.2610 C   0  0  0  0  0  0  0  0  0  0  0  0
   -5.7870   20.1540  -33.3910 C   0  0  0  0  0  0  0  0  0  0  0  0
   -5.7640   18.8910  -33.9900 C   0  0  0  0  0  0  0  0  0  0  0  0
   -6.5260   17.8480  -33.4560 C   0  0  0  0  0  0  0  0  0  0  0  0
   -6.4930   16.2630  -34.2070 Cl  0  0  0  0  0  0  0  0  0  0  0  0
   -7.3070   18.0670  -32.3160 C   0  0  0  0  0  0  0  0  0  0  0  0
   -7.3330   19.3290  -31.7150 C   0  0  0  0  0  0  0  0  0  0  0  0
   -5.2880   23.7220  -31.1790 C   0  0  0  0  0  0  0  0  0  0  0  0
   -4.1640   24.3820  -30.6670 C   0  0  0  0  0  0  0  0  0  0  0  0
   -4.0660   25.7580  -30.8820 O   0  0  0  0  0  0  0  0  0  0  0  0
   -3.1720   23.6370  -29.9890 C   0  0  0  0  0  0  0  0  0  0  0  0
   -1.9000   24.2240  -29.4260 C   0  0  1  0  0  0  0  0  0  0  0  0
   -1.9320   25.5370  -28.8990 O   0  0  0  0  0  0  0  0  0  0  0  0
    0.5945   24.1377  -27.9795 H   0  0  0  0  0  0  0  0  0  0  0  0
   -0.2448   24.0899  -26.4756 H   0  0  0  0  0  0  0  0  0  0  0  0
   -2.1925   23.1632  -27.4422 H   0  0  0  0  0  0  0  0  0  0  0  0
   -0.2679   22.0518  -29.4251 H   0  0  0  0  0  0  0  0  0  0  0  0
   -0.7797   21.3715  -27.8567 H   0  0  0  0  0  0  0  0  0  0  0  0
   -4.4662   20.4864  -30.4415 H   0  0  0  0  0  0  0  0  0  0  0  0
   -7.4820   22.2060  -31.5800 H   0  0  0  0  0  0  0  0  0  0  0  0
   -5.1752   20.9680  -33.8070 H   0  0  0  0  0  0  0  0  0  0  0  0
   -5.1453   18.7178  -34.8829 H   0  0  0  0  0  0  0  0  0  0  0  0
   -7.9017   17.2446  -31.8918 H   0  0  0  0  0  0  0  0  0  0  0  0
   -7.9391   19.4935  -30.8119 H   0  0  0  0  0  0  0  0  0  0  0  0
   -6.0960   24.3089  -31.6401 H   0  0  0  0  0  0  0  0  0  0  0  0
   -3.8620   26.4240  -30.1510 H   0  0  0  0  0  0  0  0  0  0  0  0
   -1.2535   24.2262  -30.3160 H   0  0  0  0  0  0  0  0  0  0  0  0
  1  2  2  0
  2  3  1  0
  3  4  1  0
  4  5  1  0
  5  6  1  0
  6  7  1  0
  7  8  2  0
  8  9  1  0
  9 10  1  0
 10 11  1  0
 11 12  2  0
 12 13  1  0
 13 14  2  0
 14 15  1  0
 14 16  1  0
 16 17  2  0
  9 18  2  0
 18 19  1  0
 19 20  1  0
 19 21  2  0
 21 22  1  0
 22 23  1  0
 23  2  1  0
 22  4  1  0
 21  7  1  0
 17 11  1  0
  3 24  1  0
  3 25  1  0
  4 26  1  1
  5 27  1  0
  5 28  1  0
  8 29  1  0
 10 30  1  0
 12 31  1  0
 13 32  1  0
 16 33  1  0
 17 34  1  0
 18 35  1  0
 20 36  1  0
 22 37  1  6
M  END
>  <UniqueID>  (29) 
27

>  <SMILES>  (29) 
O=C1C[C@@H]2COc3cc(Nc4ccc(Cl)cc4)cc(O)c3[C@H]2O1

>  <Energy>  (29) 
73.454751390546

>  <Genealogy>  (29) 
O=C1C[C@@H]2COc3cc(Nc4ccc(Cl)cc4)cc(O)c3[C@H]2O1 (chirality)
O=C1C[C@@H]2COc3cc(Nc4ccc(Cl)cc4)cc(O)c3[C@H]2O1 (3D coordinates assigned)
O=C1C[C@@H]2COc3cc(Nc4ccc(Cl)cc4)cc(O)c3[C@H]2O1 (nonaromatic ring conformer: 73.454751390546 kcal/mol)

>  <smiles>  (29) 
O=C1CC2COc3cc(Nc4ccc(Cl)cc4)cc(O)c3C2O1

>  <score_type>  (29) 
oracle

>  <origin>  (29) 
adg

>  <m_score__min__energy>  (29) 
-8.9499999999999993

>  <m_primary>  (29) 
energy

$$$$
29:0
     RDKit          3D

 41 43  0  0  0  0  0  0  0  0999 V2000
   -3.5940   20.8850  -32.1390 C   0  0  0  0  0  0  0  0  0  0  0  0
   -4.2890   22.1290  -32.6880 C   0  0  0  0  0  0  0  0  0  0  0  0
   -4.6830   23.0720  -31.5730 C   0  0  0  0  0  0  0  0  0  0  0  0
   -3.7140   23.4040  -30.6080 C   0  0  0  0  0  0  0  0  0  0  0  0
   -4.0070   24.2980  -29.5790 C   0  0  0  0  0  0  0  0  0  0  0  0
   -5.2690   24.8830  -29.5010 C   0  0  0  0  0  0  0  0  0  0  0  0
   -6.2420   24.5790  -30.4540 C   0  0  0  0  0  0  0  0  0  0  0  0
   -5.9670   23.6810  -31.5060 C   0  0  0  0  0  0  0  0  0  0  0  0
   -6.9790   23.3980  -32.4980 N   0  0  0  0  0  0  0  0  0  0  0  0
   -8.2090   22.6560  -32.2140 C   0  0  0  0  0  0  0  0  0  0  0  0
   -7.9610   21.1780  -32.3140 C   0  0  0  0  0  0  0  0  0  0  0  0
   -8.7620   20.2620  -31.6150 C   0  0  0  0  0  0  0  0  0  0  0  0
   -8.5210   18.8930  -31.7500 C   0  0  0  0  0  0  0  0  0  0  0  0
   -7.4850   18.4460  -32.5790 C   0  0  0  0  0  0  0  0  0  0  0  0
   -7.2240   17.0800  -32.7470 C   0  0  0  0  0  0  0  0  0  0  0  0
   -6.1850   16.6630  -33.5870 C   0  0  0  0  0  0  0  0  0  0  0  0
   -5.3890   17.6080  -34.2560 C   0  0  0  0  0  0  0  0  0  0  0  0
   -4.3040   17.1550  -35.1870 C   0  0  0  0  0  0  0  0  0  0  0  0
   -5.6600   18.9770  -34.1010 C   0  0  0  0  0  0  0  0  0  0  0  0
   -6.6980   19.3980  -33.2620 C   0  0  0  0  0  0  0  0  0  0  0  0
   -6.9550   20.7240  -33.1100 N   0  0  0  0  0  0  0  0  0  0  0  0
   -3.6090   20.9118  -31.0394 H   0  0  0  0  0  0  0  0  0  0  0  0
   -4.1203   19.9855  -32.4911 H   0  0  0  0  0  0  0  0  0  0  0  0
   -2.5521   20.8616  -32.4911 H   0  0  0  0  0  0  0  0  0  0  0  0
   -3.6040   22.6498  -33.3732 H   0  0  0  0  0  0  0  0  0  0  0  0
   -5.2008   21.8141  -33.2165 H   0  0  0  0  0  0  0  0  0  0  0  0
   -2.7127   22.9524  -30.6663 H   0  0  0  0  0  0  0  0  0  0  0  0
   -3.2410   24.5417  -28.8281 H   0  0  0  0  0  0  0  0  0  0  0  0
   -5.4989   25.5859  -28.6867 H   0  0  0  0  0  0  0  0  0  0  0  0
   -7.2357   25.0456  -30.3838 H   0  0  0  0  0  0  0  0  0  0  0  0
   -6.8920   23.7940  -33.4590 H   0  0  0  0  0  0  0  0  0  0  0  0
   -8.5525   22.8984  -31.1975 H   0  0  0  0  0  0  0  0  0  0  0  0
   -8.9764   22.9406  -32.9489 H   0  0  0  0  0  0  0  0  0  0  0  0
   -9.5742   20.6198  -30.9652 H   0  0  0  0  0  0  0  0  0  0  0  0
   -9.1438   18.1675  -31.2062 H   0  0  0  0  0  0  0  0  0  0  0  0
   -7.8361   16.3345  -32.2183 H   0  0  0  0  0  0  0  0  0  0  0  0
   -5.9905   15.5891  -33.7242 H   0  0  0  0  0  0  0  0  0  0  0  0
   -3.4446   16.7962  -34.6016 H   0  0  0  0  0  0  0  0  0  0  0  0
   -4.6818   16.3395  -35.8212 H   0  0  0  0  0  0  0  0  0  0  0  0
   -3.9897   17.9971  -35.8212 H   0  0  0  0  0  0  0  0  0  0  0  0
   -5.0549   19.7205  -34.6404 H   0  0  0  0  0  0  0  0  0  0  0  0
  1  2  1  0
  2  3  1  0
  3  4  2  0
  4  5  1  0
  5  6  2  0
  6  7  1  0
  7  8  2  0
  8  9  1  0
  9 10  1  0
 10 11  1  0
 11 12  2  0
 12 13  1  0
 13 14  2  0
 14 15  1  0
 15 16  2  0
 16 17  1  0
 17 18  1  0
 17 19  2  0
 19 20  1  0
 20 21  2  0
  8  3  1  0
 21 11  1  0
 20 14  1  0
  1 22  1  0
  1 23  1  0
  1 24  1  0
  2 25  1  0
  2 26  1  0
  4 27  1  0
  5 28  1  0
  6 29  1  0
  7 30  1  0
  9 31  1  0
 10 32  1  0
 10 33  1  0
 12 34  1  0
 13 35  1  0
 15 36  1  0
 16 37  1  0
 18 38  1  0
 18 39  1  0
 18 40  1  0
 19 41  1  0
M  END
>  <UniqueID>  (30) 
28

>  <SMILES>  (30) 
CCc1ccccc1NCc1ccc2ccc(C)cc2n1

>  <Energy>  (30) 
43.1749996456401

>  <Genealogy>  (30) 
CCc1ccccc1NCc1ccc2ccc(C)cc2n1 (3D coordinates assigned)
CCc1ccccc1NCc1ccc2ccc(C)cc2n1 (optimized conformer: 43.1749996456401 kcal/mol)

>  <smiles>  (30) 
CCc1ccccc1NCc1ccc2ccc(C)cc2n1

>  <score_type>  (30) 
oracle

>  <origin>  (30) 
adg

>  <m_score__min__energy>  (30) 
-8.5899999999999999

>  <m_primary>  (30) 
energy

$$$$
30:0
     RDKit          3D

 24 26  0  0  0  0  0  0  0  0999 V2000
   -7.0250   15.7110  -34.2990 F   0  0  0  0  0  0  0  0  0  0  0  0
   -6.7010   16.9530  -33.8630 C   0  0  0  0  0  0  0  0  0  0  0  0
   -7.2260   17.4330  -32.6610 C   0  0  0  0  0  0  0  0  0  0  0  0
   -6.8920   18.7130  -32.2090 C   0  0  0  0  0  0  0  0  0  0  0  0
   -6.0280   19.5310  -32.9620 C   0  0  0  0  0  0  0  0  0  0  0  0
   -5.6750   20.8500  -32.5020 N   0  0  0  0  0  0  0  0  0  0  0  0
   -4.6330   21.6200  -32.9190 C   0  0  0  0  0  0  0  0  0  0  0  0
   -4.5730   22.8320  -32.3020 N   0  0  0  0  0  0  0  0  0  0  0  0
   -5.6310   22.7950  -31.4710 C   0  0  0  0  0  0  0  0  0  0  0  0
   -6.1030   23.7720  -30.6050 C   0  0  0  0  0  0  0  0  0  0  0  0
   -5.2810   25.3130  -30.4300 Cl  0  0  0  0  0  0  0  0  0  0  0  0
   -7.2390   23.4980  -29.8950 N   0  0  0  0  0  0  0  0  0  0  0  0
   -7.8960   22.3010  -30.0410 C   0  0  0  0  0  0  0  0  0  0  0  0
   -7.4240   21.3490  -30.9000 N   0  0  0  0  0  0  0  0  0  0  0  0
   -6.2880   21.6180  -31.5890 C   0  0  0  0  0  0  0  0  0  0  0  0
   -5.4990   19.0340  -34.1670 C   0  0  0  0  0  0  0  0  0  0  0  0
   -5.8350   17.7540  -34.6150 C   0  0  0  0  0  0  0  0  0  0  0  0
   -7.9044   16.8019  -32.0682 H   0  0  0  0  0  0  0  0  0  0  0  0
   -7.3065   19.0832  -31.2597 H   0  0  0  0  0  0  0  0  0  0  0  0
   -3.9094   21.2945  -33.6808 H   0  0  0  0  0  0  0  0  0  0  0  0
   -7.6200   24.2110  -29.2340 H   0  0  0  0  0  0  0  0  0  0  0  0
   -8.8104   22.1068  -29.4612 H   0  0  0  0  0  0  0  0  0  0  0  0
   -4.8154   19.6581  -34.7613 H   0  0  0  0  0  0  0  0  0  0  0  0
   -5.4182   17.3757  -35.5600 H   0  0  0  0  0  0  0  0  0  0  0  0
  1  2  1  0
  2  3  2  0
  3  4  1  0
  4  5  2  0
  5  6  1  0
  6  7  1  0
  7  8  2  0
  8  9  1  0
  9 10  2  0
 10 11  1  0
 10 12  1  0
 12 13  2  0
 13 14  1  0
 14 15  2  0
  5 16  1  0
 16 17  2  0
 17  2  1  0
 15  6  1  0
 15  9  1  0
  3 18  1  0
  4 19  1  0
  7 20  1  0
 12 21  1  0
 13 22  1  0
 16 23  1  0
 17 24  1  0
M  CHG  1  12   1
M  END
>  <UniqueID>  (31) 
29

>  <SMILES>  (31) 
Fc1ccc(-n2cnc3c(Cl)[nH+]cnc32)cc1

>  <Energy>  (31) 
71.66447439419699

>  <Genealogy>  (31) 
Fc1ccc(-n2cnc3c(Cl)[nH+]cnc32)cc1 (protonated)
Fc1ccc(-n2cnc3c(Cl)[nH+]cnc32)cc1 (3D coordinates assigned)
Fc1ccc(-n2cnc3c(Cl)[nH+]cnc32)cc1 (optimized conformer: 71.66447439419699 kcal/mol)

>  <smiles>  (31) 
Fc1ccc(-n2cnc3c(Cl)ncnc32)cc1

>  <score_type>  (31) 
oracle

>  <origin>  (31) 
adg

>  <m_score__min__energy>  (31) 
-5.8399999999999999

>  <m_primary>  (31) 
energy

$$$$
31:0
     RDKit          3D

 56 59  0  0  0  0  0  0  0  0999 V2000
   -2.2820   11.4660  -32.8210 C   0  0  0  0  0  0  0  0  0  0  0  0
   -3.0610   12.7440  -33.1480 C   0  0  1  0  0  0  0  0  0  0  0  0
   -4.2310   12.9530  -32.1580 C   0  0  0  0  0  0  0  0  0  0  0  0
   -4.5940   14.4430  -31.9760 C   0  0  0  0  0  0  0  0  0  0  0  0
   -4.3430   15.2170  -33.2150 N   0  0  1  0  0  0  0  0  0  0  0  0
   -4.9610   16.5740  -33.1440 C   0  0  0  0  0  0  0  0  0  0  0  0
   -4.7020   17.4660  -34.4010 C   0  0  0  0  0  0  0  0  0  0  0  0
   -5.8120   18.5080  -34.6270 C   0  0  0  0  0  0  0  0  0  0  0  0
   -6.3810   18.9390  -33.3440 N   0  0  0  0  0  0  0  0  0  0  0  0
   -6.2190   20.2890  -32.8680 C   0  0  0  0  0  0  0  0  0  0  0  0
   -7.1990   20.8770  -32.0500 C   0  0  0  0  0  0  0  0  0  0  0  0
   -7.0160   22.1630  -31.5340 C   0  0  0  0  0  0  0  0  0  0  0  0
   -5.8390   22.8740  -31.8150 C   0  0  0  0  0  0  0  0  0  0  0  0
   -5.6160   24.1870  -31.2850 N   0  0  0  0  0  0  0  0  0  0  0  0
   -4.4770   24.5930  -30.5180 C   0  0  0  0  0  0  0  0  0  0  0  0
   -3.8890   25.6590  -30.8320 O   0  0  0  0  0  0  0  0  0  0  0  0
   -3.9410   23.7680  -29.4180 C   0  0  0  0  0  0  0  0  0  0  0  0
   -3.8180   24.1720  -28.0930 C   0  0  0  0  0  0  0  0  0  0  0  0
   -3.2050   23.2160  -27.2760 C   0  0  0  0  0  0  0  0  0  0  0  0
   -2.8280   22.0610  -27.9500 C   0  0  0  0  0  0  0  0  0  0  0  0
   -3.2520   22.2360  -29.5660 S   0  0  0  0  0  0  0  0  0  0  0  0
   -4.8770   22.3100  -32.6570 C   0  0  0  0  0  0  0  0  0  0  0  0
   -5.0570   21.0250  -33.1720 C   0  0  0  0  0  0  0  0  0  0  0  0
   -6.9830   17.9260  -32.4610 C   0  0  0  0  0  0  0  0  0  0  0  0
   -6.4680   16.5150  -32.7960 C   0  0  0  0  0  0  0  0  0  0  0  0
   -2.8970   15.2360  -33.5880 C   0  0  0  0  0  0  0  0  0  0  0  0
   -2.1350   13.9690  -33.1480 C   0  0  0  0  0  0  0  0  0  0  0  0
   -2.2108   11.3491  -31.7295 H   0  0  0  0  0  0  0  0  0  0  0  0
   -2.8049   10.5982  -33.2493 H   0  0  0  0  0  0  0  0  0  0  0  0
   -1.2710   11.5331  -33.2493 H   0  0  0  0  0  0  0  0  0  0  0  0
   -3.4812   12.6273  -34.1579 H   0  0  0  0  0  0  0  0  0  0  0  0
   -3.9441   12.5380  -31.1805 H   0  0  0  0  0  0  0  0  0  0  0  0
   -5.1133   12.4426  -32.5714 H   0  0  0  0  0  0  0  0  0  0  0  0
   -3.9845   14.8629  -31.1623 H   0  0  0  0  0  0  0  0  0  0  0  0
   -5.6655   14.5111  -31.7368 H   0  0  0  0  0  0  0  0  0  0  0  0
   -4.8530   14.7140  -33.9830 H   0  0  0  0  0  0  0  0  0  0  0  0
   -4.4393   17.0725  -32.3137 H   0  0  0  0  0  0  0  0  0  0  0  0
   -3.7458   17.9933  -34.2677 H   0  0  0  0  0  0  0  0  0  0  0  0
   -4.6821   16.8049  -35.2799 H   0  0  0  0  0  0  0  0  0  0  0  0
   -5.3893   19.3804  -35.1469 H   0  0  0  0  0  0  0  0  0  0  0  0
   -6.6083   18.0537  -35.2349 H   0  0  0  0  0  0  0  0  0  0  0  0
   -8.1179   20.3204  -31.8139 H   0  0  0  0  0  0  0  0  0  0  0  0
   -7.7960   22.6188  -30.9064 H   0  0  0  0  0  0  0  0  0  0  0  0
   -4.1682   25.1472  -27.7237 H   0  0  0  0  0  0  0  0  0  0  0  0
   -3.0370   23.3650  -26.1992 H   0  0  0  0  0  0  0  0  0  0  0  0
   -2.3370   21.1840  -27.5029 H   0  0  0  0  0  0  0  0  0  0  0  0
   -3.9733   22.8814  -32.9154 H   0  0  0  0  0  0  0  0  0  0  0  0
   -4.2855   20.5838  -33.8202 H   0  0  0  0  0  0  0  0  0  0  0  0
   -6.7270   18.1625  -31.4177 H   0  0  0  0  0  0  0  0  0  0  0  0
   -8.0731   17.9415  -32.6074 H   0  0  0  0  0  0  0  0  0  0  0  0
   -6.6164   15.8566  -31.9274 H   0  0  0  0  0  0  0  0  0  0  0  0
   -7.0243   16.1216  -33.6596 H   0  0  0  0  0  0  0  0  0  0  0  0
   -2.4257   16.1091  -33.1131 H   0  0  0  0  0  0  0  0  0  0  0  0
   -2.8450   15.2818  -34.6858 H   0  0  0  0  0  0  0  0  0  0  0  0
   -1.7393   14.1212  -32.1330 H   0  0  0  0  0  0  0  0  0  0  0  0
   -1.3142   13.7887  -33.8577 H   0  0  0  0  0  0  0  0  0  0  0  0
  1  2  1  0
  2  3  1  0
  3  4  1  0
  4  5  1  0
  5  6  1  0
  6  7  1  0
  7  8  1  0
  8  9  1  0
  9 10  1  0
 10 11  2  0
 11 12  1  0
 12 13  2  0
 13 14  1  0
 14 15  1  0
 15 16  2  0
 15 17  1  0
 17 18  2  0
 18 19  1  0
 19 20  2  0
 20 21  1  0
 13 22  1  0
 22 23  2  0
  9 24  1  0
 24 25  1  0
  5 26  1  0
 26 27  1  0
 27  2  1  0
 25  6  1  0
 23 10  1  0
 21 17  1  0
  1 28  1  0
  1 29  1  0
  1 30  1  0
  2 31  1  6
  3 32  1  0
  3 33  1  0
  4 34  1  0
  4 35  1  0
  5 36  1  6
  6 37  1  0
  7 38  1  0
  7 39  1  0
  8 40  1  0
  8 41  1  0
 11 42  1  0
 12 43  1  0
 18 44  1  0
 19 45  1  0
 20 46  1  0
 22 47  1  0
 23 48  1  0
 24 49  1  0
 24 50  1  0
 25 51  1  0
 25 52  1  0
 26 53  1  0
 26 54  1  0
 27 55  1  0
 27 56  1  0
M  CHG  2   5   1  14  -1
M  END
>  <UniqueID>  (32) 
30

>  <SMILES>  (32) 
CC1CC[NH+](C2CCN(c3ccc([N-]C(=O)c4cccs4)cc3)CC2)CC1

>  <Energy>  (32) 
105.79569230465108

>  <Genealogy>  (32) 
CC1CC[NH+](C2CCN(c3ccc([N-]C(=O)c4cccs4)cc3)CC2)CC1 (protonated)
CC1CC[NH+](C2CCN(c3ccc([N-]C(=O)c4cccs4)cc3)CC2)CC1 (3D coordinates assigned)
CC1CC[NH+](C2CCN(c3ccc([N-]C(=O)c4cccs4)cc3)CC2)CC1 (nonaromatic ring conformer: 105.79569230465108 kcal/mol)

>  <smiles>  (32) 
CC1CCN(C2CCN(c3ccc(NC(=O)c4cccs4)cc3)CC2)CC1

>  <score_type>  (32) 
oracle

>  <origin>  (32) 
adg

>  <m_score__min__energy>  (32) 
-9.3900000000000006

>  <m_primary>  (32) 
energy

$$$$
32:0
     RDKit          3D

 39 41  0  0  0  0  0  0  0  0999 V2000
   -8.6500   22.3820  -31.9190 C   0  0  0  0  0  0  0  0  0  0  0  0
   -9.1050   21.0560  -31.3140 C   0  0  0  0  0  0  0  0  0  0  0  0
   -9.4020   19.9820  -32.3730 C   0  0  0  0  0  0  0  0  0  0  0  0
   -8.8350   18.5900  -32.0150 C   0  0  0  0  0  0  0  0  0  0  0  0
   -7.3900   18.3910  -32.4990 C   0  0  0  0  0  0  0  0  0  0  0  0
   -6.4560   19.2510  -31.7700 N   0  0  0  0  0  0  0  0  0  0  0  0
   -5.8200   20.3690  -32.4080 C   0  0  0  0  0  0  0  0  0  0  0  0
   -6.0520   20.6120  -33.6240 O   0  0  0  0  0  0  0  0  0  0  0  0
   -4.8970   21.2420  -31.6600 C   0  0  0  0  0  0  0  0  0  0  0  0
   -5.0110   22.6290  -31.5500 C   0  0  0  0  0  0  0  0  0  0  0  0
   -3.9890   23.1950  -30.7740 C   0  0  0  0  0  0  0  0  0  0  0  0
   -3.8200   24.5500  -30.4740 C   0  0  0  0  0  0  0  0  0  0  0  0
   -4.6270   25.4160  -30.9080 O   0  0  0  0  0  0  0  0  0  0  0  0
   -2.7640   24.9330  -29.7000 N   0  0  0  0  0  0  0  0  0  0  0  0
   -1.8600   24.0360  -29.2050 C   0  0  0  0  0  0  0  0  0  0  0  0
   -0.7940   24.4780  -28.4150 C   0  0  0  0  0  0  0  0  0  0  0  0
    0.1310   23.5590  -27.9070 C   0  0  0  0  0  0  0  0  0  0  0  0
   -0.0060   22.1950  -28.1860 C   0  0  0  0  0  0  0  0  0  0  0  0
   -1.0660   21.7380  -28.9740 C   0  0  0  0  0  0  0  0  0  0  0  0
   -1.9990   22.6530  -29.4870 C   0  0  0  0  0  0  0  0  0  0  0  0
   -3.0830   22.2670  -30.2820 C   0  0  0  0  0  0  0  0  0  0  0  0
   -3.5330   20.7310  -30.7970 S   0  0  0  0  0  0  0  0  0  0  0  0
   -8.4074   23.0891  -31.1121 H   0  0  0  0  0  0  0  0  0  0  0  0
   -7.7579   22.2146  -32.5404 H   0  0  0  0  0  0  0  0  0  0  0  0
   -9.4569   22.7976  -32.5404 H   0  0  0  0  0  0  0  0  0  0  0  0
   -8.3112   20.6832  -30.6499 H   0  0  0  0  0  0  0  0  0  0  0  0
  -10.0409   21.2475  -30.7687 H   0  0  0  0  0  0  0  0  0  0  0  0
  -10.4929   19.8954  -32.4846 H   0  0  0  0  0  0  0  0  0  0  0  0
   -8.9114   20.3015  -33.3042 H   0  0  0  0  0  0  0  0  0  0  0  0
   -8.8584   18.4719  -30.9216 H   0  0  0  0  0  0  0  0  0  0  0  0
   -9.4593   17.8389  -32.5210 H   0  0  0  0  0  0  0  0  0  0  0  0
   -7.1030   17.3404  -32.3448 H   0  0  0  0  0  0  0  0  0  0  0  0
   -7.3437   18.6575  -33.5652 H   0  0  0  0  0  0  0  0  0  0  0  0
   -6.2450   19.0490  -30.7670 H   0  0  0  0  0  0  0  0  0  0  0  0
   -5.8148   23.2142  -32.0206 H   0  0  0  0  0  0  0  0  0  0  0  0
   -0.6825   25.5495  -28.1926 H   0  0  0  0  0  0  0  0  0  0  0  0
    0.9685   23.9102  -27.2863 H   0  0  0  0  0  0  0  0  0  0  0  0
    0.7246   21.4782  -27.7830 H   0  0  0  0  0  0  0  0  0  0  0  0
   -1.1689   20.6647  -29.1916 H   0  0  0  0  0  0  0  0  0  0  0  0
  1  2  1  0
  2  3  1  0
  3  4  1  0
  4  5  1  0
  5  6  1  0
  6  7  1  0
  7  8  2  0
  7  9  1  0
  9 10  2  0
 10 11  1  0
 11 12  1  0
 12 13  2  0
 12 14  1  0
 14 15  1  0
 15 16  2  0
 16 17  1  0
 17 18  2  0
 18 19  1  0
 19 20  2  0
 20 21  1  0
 21 22  1  0
 22  9  1  0
 21 11  2  0
 20 15  1  0
  1 23  1  0
  1 24  1  0
  1 25  1  0
  2 26  1  0
  2 27  1  0
  3 28  1  0
  3 29  1  0
  4 30  1  0
  4 31  1  0
  5 32  1  0
  5 33  1  0
  6 34  1  0
 10 35  1  0
 16 36  1  0
 17 37  1  0
 18 38  1  0
 19 39  1  0
M  CHG  1  14  -1
M  END
>  <UniqueID>  (33) 
31

>  <SMILES>  (33) 
CCCCCNC(=O)c1cc2c(=O)[n-]c3ccccc3c2s1

>  <Energy>  (33) 
69.02644148413299

>  <Genealogy>  (33) 
CCCCCNC(=O)c1cc2c(=O)[n-]c3ccccc3c2s1 (protonated)
CCCCCNC(=O)c1cc2c(=O)[n-]c3ccccc3c2s1 (3D coordinates assigned)
CCCCCNC(=O)c1cc2c(=O)[n-]c3ccccc3c2s1 (optimized conformer: 69.02644148413299 kcal/mol)

>  <smiles>  (33) 
CCCCCNC(=O)c1cc2c(=O)[nH]c3ccccc3c2s1

>  <score_type>  (33) 
oracle

>  <origin>  (33) 
adg

>  <m_score__min__energy>  (33) 
-9.5

>  <m_primary>  (33) 
energy

$$$$
33:0
     RDKit          3D

 35 37  0  0  0  0  0  0  0  0999 V2000
   -0.7698   21.1428  -32.3140 H   0  0  0  0  0  0  0  0  0  0  0  0
   -1.8590   21.2170  -32.1790 C   0  0  0  0  0  0  0  0  0  0  0  0
   -2.6750   21.5530  -33.2620 C   0  0  0  0  0  0  0  0  0  0  0  0
   -2.2277   21.7476  -34.2479 H   0  0  0  0  0  0  0  0  0  0  0  0
   -4.0610   21.6420  -33.0930 C   0  0  0  0  0  0  0  0  0  0  0  0
   -4.7006   21.9188  -33.9441 H   0  0  0  0  0  0  0  0  0  0  0  0
   -4.6380   21.3790  -31.8400 C   0  0  0  0  0  0  0  0  0  0  0  0
   -6.1030   21.4680  -31.6670 C   0  0  0  0  0  0  0  0  0  0  0  0
   -6.8860   20.3800  -32.0860 C   0  0  0  0  0  0  0  0  0  0  0  0
   -6.3979   19.4844  -32.4978 H   0  0  0  0  0  0  0  0  0  0  0  0
   -8.2770   20.4240  -31.9850 C   0  0  0  0  0  0  0  0  0  0  0  0
   -8.8793   19.5645  -32.3145 H   0  0  0  0  0  0  0  0  0  0  0  0
   -8.9040   21.5560  -31.4670 C   0  0  0  0  0  0  0  0  0  0  0  0
  -10.0013   21.5943  -31.3994 H   0  0  0  0  0  0  0  0  0  0  0  0
   -8.1400   22.6410  -31.0340 C   0  0  0  0  0  0  0  0  0  0  0  0
   -8.6421   23.5325  -30.6300 H   0  0  0  0  0  0  0  0  0  0  0  0
   -6.7380   22.6080  -31.1080 C   0  0  0  0  0  0  0  0  0  0  0  0
   -5.8390   23.9990  -30.4690 S   0  0  0  0  0  0  0  0  0  0  0  0
   -5.0870   24.6260  -31.6070 O   0  0  0  0  0  0  0  0  0  0  0  0
   -6.7790   25.0260  -29.9040 O   0  0  0  0  0  0  0  0  0  0  0  0
   -4.6950   23.5500  -29.2420 N   0  0  0  0  0  0  0  0  0  0  0  0
   -3.4690   23.9560  -29.0780 C   0  0  0  0  0  0  0  0  0  0  0  0
   -3.0540   25.1020  -29.5640 O   0  0  0  0  0  0  0  0  0  0  0  0
   -1.7960   25.2990  -29.3020 N   0  0  0  0  0  0  0  0  0  0  0  0
   -1.3680   24.2260  -28.6100 C   0  0  0  0  0  0  0  0  0  0  0  0
    0.0300   24.0680  -28.1060 C   0  0  0  0  0  0  0  0  0  0  0  0
    0.0255   24.0685  -27.0060 H   0  0  0  0  0  0  0  0  0  0  0  0
    0.4459   23.1171  -28.4705 H   0  0  0  0  0  0  0  0  0  0  0  0
    0.6476   24.9021  -28.4705 H   0  0  0  0  0  0  0  0  0  0  0  0
   -2.4060   23.3300  -28.4330 C   0  0  0  0  0  0  0  0  0  0  0  0
   -2.2650   21.6800  -27.4690 Br  0  0  0  0  0  0  0  0  0  0  0  0
   -3.8100   21.0610  -30.7520 C   0  0  0  0  0  0  0  0  0  0  0  0
   -4.2520   20.8789  -29.7613 H   0  0  0  0  0  0  0  0  0  0  0  0
   -2.4250   20.9750  -30.9240 C   0  0  0  0  0  0  0  0  0  0  0  0
   -1.7803   20.7167  -30.0710 H   0  0  0  0  0  0  0  0  0  0  0  0
  1  2  1  0
  2  3  2  0
  3  4  1  0
  3  5  1  0
  5  6  1  0
  5  7  2  0
  7  8  1  0
  8  9  2  0
  9 10  1  0
  9 11  1  0
 11 12  1  0
 11 13  2  0
 13 14  1  0
 13 15  1  0
 15 16  1  0
 15 17  2  0
 17 18  1  0
 18 19  2  0
 18 20  2  0
 18 21  1  0
 21 22  2  0
 22 23  1  0
 23 24  1  0
 24 25  1  0
 25 26  1  0
 26 27  1  0
 26 28  1  0
 26 29  1  0
 25 30  2  0
 30 31  1  0
  7 32  1  0
 32 33  1  0
 32 34  2  0
 34 35  1  0
 34  2  1  0
 17  8  1  0
 30 22  1  0
M  CHG  1  24  -1
M  END
>  <UniqueID>  (34) 
32

>  <SMILES>  (34) 
Cc1[n-]o/c(=N/S(=O)(=O)c2ccccc2-c2ccccc2)c1Br

>  <Energy>  (34) 
83.6708184603592

>  <Genealogy>  (34) 
Cc1[n-]oc(=NS(=O)(=O)c2ccccc2-c2ccccc2)c1Br (protonated)
Cc1[n-]o/c(=N/S(=O)(=O)c2ccccc2-c2ccccc2)c1Br (cis-trans isomerization)
Cc1[n-]o/c(=N/S(=O)(=O)c2ccccc2-c2ccccc2)c1Br (3D coordinates assigned)
Cc1[n-]o/c(=N/S(=O)(=O)c2ccccc2-c2ccccc2)c1Br (optimized conformer: 83.6708184603592 kcal/mol)

>  <smiles>  (34) 
Cc1[nH]oc(=NS(=O)(=O)c2ccccc2-c2ccccc2)c1Br

>  <score_type>  (34) 
oracle

>  <origin>  (34) 
adg

>  <m_score__min__energy>  (34) 
-11.59

>  <m_primary>  (34) 
energy

$$$$
34:0
     RDKit          3D

 20 20  0  0  0  0  0  0  0  0999 V2000
   -4.1400   25.6740  -31.6000 H   0  0  0  0  0  0  0  0  0  0  0  0
   -3.9630   25.1940  -30.6890 N   0  0  0  0  0  0  0  0  0  0  0  0
   -4.9290   24.7490  -29.9470 C   0  0  0  0  0  0  0  0  0  0  0  0
   -4.6960   24.4230  -28.5680 N   0  0  0  0  0  0  0  0  0  0  0  0
   -5.5180   24.4250  -27.9230 H   0  0  0  0  0  0  0  0  0  0  0  0
   -3.3960   24.1860  -27.9980 C   0  0  0  0  0  0  0  0  0  0  0  0
   -2.5000   23.2650  -28.5720 C   0  0  0  0  0  0  0  0  0  0  0  0
   -2.7822   22.7232  -29.4868 H   0  0  0  0  0  0  0  0  0  0  0  0
   -1.2510   23.0360  -27.9830 C   0  0  0  0  0  0  0  0  0  0  0  0
   -0.5499   22.3237  -28.4425 H   0  0  0  0  0  0  0  0  0  0  0  0
   -0.8930   23.7100  -26.8130 C   0  0  0  0  0  0  0  0  0  0  0  0
    0.0913   23.5330  -26.3550 H   0  0  0  0  0  0  0  0  0  0  0  0
   -1.7860   24.6090  -26.2250 C   0  0  0  0  0  0  0  0  0  0  0  0
   -1.5064   25.1353  -25.3004 H   0  0  0  0  0  0  0  0  0  0  0  0
   -3.0350   24.8410  -26.8100 C   0  0  0  0  0  0  0  0  0  0  0  0
   -3.7389   25.5411  -26.3363 H   0  0  0  0  0  0  0  0  0  0  0  0
   -6.3290   24.7200  -30.4830 C   0  0  0  0  0  0  0  0  0  0  0  0
   -7.0420   24.7052  -29.6455 H   0  0  0  0  0  0  0  0  0  0  0  0
   -6.5046   25.6147  -31.0984 H   0  0  0  0  0  0  0  0  0  0  0  0
   -6.4674   23.8188  -31.0984 H   0  0  0  0  0  0  0  0  0  0  0  0
  1  2  1  0
  2  3  2  0
  3  4  1  0
  4  5  1  0
  4  6  1  0
  6  7  2  0
  7  8  1  0
  7  9  1  0
  9 10  1  0
  9 11  2  0
 11 12  1  0
 11 13  1  0
 13 14  1  0
 13 15  2  0
 15 16  1  0
  3 17  1  0
 17 18  1  0
 17 19  1  0
 17 20  1  0
 15  6  1  0
M  END
>  <UniqueID>  (35) 
33

>  <SMILES>  (35) 
[H]/N=C(\C)Nc1ccccc1

>  <Energy>  (35) 
20.210166650600975

>  <Genealogy>  (35) 
[H]/N=C(\C)Nc1ccccc1 (cis-trans isomerization)
[H]/N=C(\C)Nc1ccccc1 (3D coordinates assigned)
[H]/N=C(\C)Nc1ccccc1 (optimized conformer: 20.210166650600975 kcal/mol)

>  <smiles>  (35) 
CC(=N)Nc1ccccc1

>  <score_type>  (35) 
oracle

>  <origin>  (35) 
adg

>  <m_score__min__energy>  (35) 
-5.0599999999999996

>  <m_primary>  (35) 
energy

$$$$
35:0
     RDKit          3D

 50 53  0  0  0  0  0  0  0  0999 V2000
   -2.2470   24.8440  -28.6620 C   0  0  0  0  0  0  0  0  0  0  0  0
   -3.1230   25.2920  -29.6920 O   0  0  0  0  0  0  0  0  0  0  0  0
   -4.2480   24.5840  -30.1360 C   0  0  0  0  0  0  0  0  0  0  0  0
   -5.4980   25.2490  -30.1470 C   0  0  0  0  0  0  0  0  0  0  0  0
   -6.6630   24.5920  -30.5810 C   0  0  0  0  0  0  0  0  0  0  0  0
   -6.5430   23.2680  -30.9950 C   0  0  0  0  0  0  0  0  0  0  0  0
   -7.4840   22.3840  -31.4640 C   0  0  0  0  0  0  0  0  0  0  0  0
   -6.7660   21.2130  -31.7190 C   0  0  0  0  0  0  0  0  0  0  0  0
   -7.2890   19.9330  -32.2460 C   0  0  0  0  0  0  0  0  0  0  0  0
   -8.5360   19.7520  -32.2260 O   0  0  0  0  0  0  0  0  0  0  0  0
   -6.4130   18.8380  -32.8220 C   0  0  1  0  0  0  0  0  0  0  0  0
   -7.1550   17.4950  -32.8900 C   0  0  0  0  0  0  0  0  0  0  0  0
   -6.2200   16.3790  -33.3950 C   0  0  0  0  0  0  0  0  0  0  0  0
   -5.3560   16.7780  -34.5470 N   0  0  2  0  0  0  0  0  0  0  0  0
   -3.9500   16.7740  -34.2040 C   0  0  0  0  0  0  0  0  0  0  0  0
   -3.4700   15.8550  -33.4850 O   0  0  0  0  0  0  0  0  0  0  0  0
   -3.1250   17.8770  -34.6080 N   0  0  0  0  0  0  0  0  0  0  0  0
   -2.5560   18.8760  -33.7490 C   0  0  0  0  0  0  0  0  0  0  0  0
   -2.9020   20.2370  -33.8560 C   0  0  0  0  0  0  0  0  0  0  0  0
   -2.3420   21.1750  -32.9830 C   0  0  0  0  0  0  0  0  0  0  0  0
   -1.4470   20.7650  -31.9920 C   0  0  0  0  0  0  0  0  0  0  0  0
   -1.1190   19.4120  -31.8650 C   0  0  0  0  0  0  0  0  0  0  0  0
   -1.6780   18.4720  -32.7350 C   0  0  0  0  0  0  0  0  0  0  0  0
   -5.7340   18.0620  -35.1780 C   0  0  0  0  0  0  0  0  0  0  0  0
   -5.7810   19.2340  -34.1770 C   0  0  0  0  0  0  0  0  0  0  0  0
   -5.4880   21.3880  -31.4250 O   0  0  0  0  0  0  0  0  0  0  0  0
   -5.3430   22.6150  -30.9900 C   0  0  0  0  0  0  0  0  0  0  0  0
   -4.1700   23.2350  -30.5670 C   0  0  0  0  0  0  0  0  0  0  0  0
   -2.6892   25.0701  -27.6805 H   0  0  0  0  0  0  0  0  0  0  0  0
   -2.0966   23.7583  -28.7550 H   0  0  0  0  0  0  0  0  0  0  0  0
   -1.2787   25.3576  -28.7550 H   0  0  0  0  0  0  0  0  0  0  0  0
   -5.5586   26.2947  -29.8112 H   0  0  0  0  0  0  0  0  0  0  0  0
   -7.6354   25.1061  -30.5930 H   0  0  0  0  0  0  0  0  0  0  0  0
   -8.5606   22.5588  -31.6067 H   0  0  0  0  0  0  0  0  0  0  0  0
   -5.5722   18.7041  -32.1255 H   0  0  0  0  0  0  0  0  0  0  0  0
   -8.0087   17.5889  -33.5773 H   0  0  0  0  0  0  0  0  0  0  0  0
   -7.5039   17.2331  -31.8802 H   0  0  0  0  0  0  0  0  0  0  0  0
   -6.8393   15.5254  -33.7077 H   0  0  0  0  0  0  0  0  0  0  0  0
   -5.5437   16.1329  -32.5631 H   0  0  0  0  0  0  0  0  0  0  0  0
   -5.4810   16.0450  -35.2860 H   0  0  0  0  0  0  0  0  0  0  0  0
   -3.6144   20.5630  -34.6281 H   0  0  0  0  0  0  0  0  0  0  0  0
   -2.6070   22.2385  -33.0769 H   0  0  0  0  0  0  0  0  0  0  0  0
   -1.0008   21.5059  -31.3123 H   0  0  0  0  0  0  0  0  0  0  0  0
   -0.4205   19.0871  -31.0798 H   0  0  0  0  0  0  0  0  0  0  0  0
   -1.4267   17.4070  -32.6227 H   0  0  0  0  0  0  0  0  0  0  0  0
   -6.7291   17.9495  -35.6331 H   0  0  0  0  0  0  0  0  0  0  0  0
   -4.9645   18.2997  -35.9273 H   0  0  0  0  0  0  0  0  0  0  0  0
   -6.3745   20.0489  -34.6171 H   0  0  0  0  0  0  0  0  0  0  0  0
   -4.7442   19.5450  -33.9813 H   0  0  0  0  0  0  0  0  0  0  0  0
   -3.2118   22.6948  -30.5671 H   0  0  0  0  0  0  0  0  0  0  0  0
  1  2  1  0
  2  3  1  0
  3  4  2  0
  4  5  1  0
  5  6  2  0
  6  7  1  0
  7  8  2  0
  8  9  1  0
  9 10  2  0
  9 11  1  0
 11 12  1  0
 12 13  1  0
 13 14  1  0
 14 15  1  0
 15 16  2  0
 15 17  1  0
 17 18  1  0
 18 19  2  0
 19 20  1  0
 20 21  2  0
 21 22  1  0
 22 23  2  0
 14 24  1  0
 24 25  1  0
  8 26  1  0
 26 27  1  0
 27 28  2  0
 28  3  1  0
 27  6  1  0
 25 11  1  0
 23 18  1  0
  1 29  1  0
  1 30  1  0
  1 31  1  0
  4 32  1  0
  5 33  1  0
  7 34  1  0
 11 35  1  1
 12 36  1  0
 12 37  1  0
 13 38  1  0
 13 39  1  0
 14 40  1  6
 19 41  1  0
 20 42  1  0
 21 43  1  0
 22 44  1  0
 23 45  1  0
 24 46  1  0
 24 47  1  0
 25 48  1  0
 25 49  1  0
 28 50  1  0
M  CHG  2  14   1  17  -1
M  END
>  <UniqueID>  (36) 
34

>  <SMILES>  (36) 
COc1ccc2cc(C(=O)C3CC[NH+](C(=O)[N-]c4ccccc4)CC3)oc2c1

>  <Energy>  (36) 
101.45582014568019

>  <Genealogy>  (36) 
COc1ccc2cc(C(=O)C3CC[NH+](C(=O)[N-]c4ccccc4)CC3)oc2c1 (protonated)
COc1ccc2cc(C(=O)C3CC[NH+](C(=O)[N-]c4ccccc4)CC3)oc2c1 (3D coordinates assigned)
COc1ccc2cc(C(=O)C3CC[NH+](C(=O)[N-]c4ccccc4)CC3)oc2c1 (nonaromatic ring conformer: 101.45582014568019 kcal/mol)

>  <smiles>  (36) 
COc1ccc2cc(C(=O)C3CCN(C(=O)Nc4ccccc4)CC3)oc2c1

>  <score_type>  (36) 
oracle

>  <origin>  (36) 
adg

>  <m_score__min__energy>  (36) 
-9.9299999999999997

>  <m_primary>  (36) 
energy

$$$$
36:0
     RDKit          3D

 26 28  0  0  0  0  0  0  0  0999 V2000
   -0.0780   23.9510  -25.1620 C   0  0  0  0  0  0  0  0  0  0  0  0
   -0.8920   24.2520  -26.3790 C   0  0  0  0  0  0  0  0  0  0  0  0
   -0.6410   25.4250  -27.1280 C   0  0  0  0  0  0  0  0  0  0  0  0
   -1.4220   25.6790  -28.2640 C   0  0  0  0  0  0  0  0  0  0  0  0
   -1.2340   26.7100  -28.9620 O   0  0  0  0  0  0  0  0  0  0  0  0
   -2.3850   24.7810  -28.5900 N   0  0  0  0  0  0  0  0  0  0  0  0
   -3.2210   24.8340  -29.6120 N   0  0  0  0  0  0  0  0  0  0  0  0
   -4.0000   23.7240  -29.5350 C   0  0  0  0  0  0  0  0  0  0  0  0
   -5.0730   23.4130  -30.5100 C   0  0  0  0  0  0  0  0  0  0  0  0
   -4.8880   22.3910  -31.4570 C   0  0  0  0  0  0  0  0  0  0  0  0
   -5.9010   22.1010  -32.3730 C   0  0  0  0  0  0  0  0  0  0  0  0
   -7.0630   22.8030  -32.3500 N   0  0  0  0  0  0  0  0  0  0  0  0
   -7.2750   23.7980  -31.4490 C   0  0  0  0  0  0  0  0  0  0  0  0
   -6.2880   24.1210  -30.5150 C   0  0  0  0  0  0  0  0  0  0  0  0
   -3.6340   22.9550  -28.4240 C   0  0  0  0  0  0  0  0  0  0  0  0
   -2.6080   23.6790  -27.8700 C   0  0  0  0  0  0  0  0  0  0  0  0
   -1.8800   23.3890  -26.7650 N   0  0  0  0  0  0  0  0  0  0  0  0
   -0.6703   24.1700  -24.2613 H   0  0  0  0  0  0  0  0  0  0  0  0
    0.2062   22.8883  -25.1645 H   0  0  0  0  0  0  0  0  0  0  0  0
    0.8292   24.5731  -25.1645 H   0  0  0  0  0  0  0  0  0  0  0  0
    0.1519   26.1246  -26.8250 H   0  0  0  0  0  0  0  0  0  0  0  0
   -3.9474   21.8210  -31.4764 H   0  0  0  0  0  0  0  0  0  0  0  0
   -5.7574   21.3019  -33.1151 H   0  0  0  0  0  0  0  0  0  0  0  0
   -8.2262   24.3504  -31.4553 H   0  0  0  0  0  0  0  0  0  0  0  0
   -6.4605   24.9264  -29.7859 H   0  0  0  0  0  0  0  0  0  0  0  0
   -4.0638   22.0029  -28.0792 H   0  0  0  0  0  0  0  0  0  0  0  0
  1  2  1  0
  2  3  2  0
  3  4  1  0
  4  5  2  0
  4  6  1  0
  6  7  1  0
  7  8  2  0
  8  9  1  0
  9 10  2  0
 10 11  1  0
 11 12  2  0
 12 13  1  0
 13 14  2  0
  8 15  1  0
 15 16  2  0
 16 17  1  0
 17  2  1  0
 16  6  1  0
 14  9  1  0
  1 18  1  0
  1 19  1  0
  1 20  1  0
  3 21  1  0
 10 22  1  0
 11 23  1  0
 13 24  1  0
 14 25  1  0
 15 26  1  0
M  CHG  1  17  -1
M  END
>  <UniqueID>  (37) 
35

>  <SMILES>  (37) 
Cc1cc(=O)n2nc(-c3ccncc3)cc2[n-]1

>  <Energy>  (37) 
67.06993956431378

>  <Genealogy>  (37) 
Cc1cc(=O)n2nc(-c3ccncc3)cc2[n-]1 (protonated)
Cc1cc(=O)n2nc(-c3ccncc3)cc2[n-]1 (3D coordinates assigned)
Cc1cc(=O)n2nc(-c3ccncc3)cc2[n-]1 (optimized conformer: 67.06993956431378 kcal/mol)

>  <smiles>  (37) 
Cc1cc(=O)n2nc(-c3ccncc3)cc2[nH]1

>  <score_type>  (37) 
oracle

>  <origin>  (37) 
adg

>  <m_score__min__energy>  (37) 
-6.6299999999999999

>  <m_primary>  (37) 
energy

$$$$
37:0
     RDKit          3D

 35 37  0  0  0  0  0  0  0  0999 V2000
   -1.6280   26.0440  -29.9650 H   0  0  0  0  0  0  0  0  0  0  0  0
   -1.1470   25.8460  -29.0990 O   0  0  0  0  0  0  0  0  0  0  0  0
   -1.2550   24.6320  -28.4160 C   0  0  0  0  0  0  0  0  0  0  0  0
   -0.2070   24.2760  -27.5570 C   0  0  0  0  0  0  0  0  0  0  0  0
    0.6860   24.9151  -27.4933 H   0  0  0  0  0  0  0  0  0  0  0  0
   -0.2850   23.1180  -26.7810 C   0  0  0  0  0  0  0  0  0  0  0  0
    0.5435   22.8487  -26.1094 H   0  0  0  0  0  0  0  0  0  0  0  0
   -1.4140   22.3030  -26.8580 C   0  0  0  0  0  0  0  0  0  0  0  0
   -1.4832   21.4003  -26.2332 H   0  0  0  0  0  0  0  0  0  0  0  0
   -2.4570   22.6310  -27.7270 C   0  0  0  0  0  0  0  0  0  0  0  0
   -3.3438   21.9826  -27.7822 H   0  0  0  0  0  0  0  0  0  0  0  0
   -2.3850   23.7830  -28.5330 C   0  0  0  0  0  0  0  0  0  0  0  0
   -3.4840   24.0280  -29.4920 C   0  0  0  0  0  0  0  0  0  0  0  0
   -4.6350   23.3300  -29.5400 N   0  0  0  0  0  0  0  0  0  0  0  0
   -5.2920   23.9600  -30.5350 C   0  0  0  0  0  0  0  0  0  0  0  0
   -6.6310   23.5600  -30.9900 C   0  0  0  0  0  0  0  0  0  0  0  0
   -7.4943   23.7501  -30.3354 H   0  0  0  0  0  0  0  0  0  0  0  0
   -6.8340   22.9720  -32.1750 C   0  0  0  0  0  0  0  0  0  0  0  0
   -6.6480   23.5486  -33.0931 H   0  0  0  0  0  0  0  0  0  0  0  0
   -7.3000   21.5730  -32.2920 C   0  0  0  0  0  0  0  0  0  0  0  0
   -8.6540   21.3140  -32.0280 C   0  0  0  0  0  0  0  0  0  0  0  0
   -9.3260   22.1442  -31.7649 H   0  0  0  0  0  0  0  0  0  0  0  0
   -9.1560   20.0140  -32.0960 C   0  0  0  0  0  0  0  0  0  0  0  0
  -10.2173   19.8233  -31.8786 H   0  0  0  0  0  0  0  0  0  0  0  0
   -8.3150   18.9560  -32.4390 C   0  0  0  0  0  0  0  0  0  0  0  0
   -8.7100   17.9301  -32.4773 H   0  0  0  0  0  0  0  0  0  0  0  0
   -6.9710   19.1980  -32.7340 C   0  0  0  0  0  0  0  0  0  0  0  0
   -6.3124   18.3588  -33.0024 H   0  0  0  0  0  0  0  0  0  0  0  0
   -6.4520   20.5050  -32.6910 C   0  0  0  0  0  0  0  0  0  0  0  0
   -5.0120   20.7170  -33.0760 C   0  0  0  0  0  0  0  0  0  0  0  0
   -4.3989   20.8073  -32.1672 H   0  0  0  0  0  0  0  0  0  0  0  0
   -4.6617   19.8607  -33.6711 H   0  0  0  0  0  0  0  0  0  0  0  0
   -4.9233   21.6379  -33.6711 H   0  0  0  0  0  0  0  0  0  0  0  0
   -4.5850   24.9860  -31.0510 N   0  0  0  0  0  0  0  0  0  0  0  0
   -3.4770   24.9960  -30.3770 O   0  0  0  0  0  0  0  0  0  0  0  0
  1  2  1  0
  2  3  1  0
  3  4  2  0
  4  5  1  0
  4  6  1  0
  6  7  1  0
  6  8  2  0
  8  9  1  0
  8 10  1  0
 10 11  1  0
 10 12  2  0
 12 13  1  0
 13 14  2  0
 14 15  1  0
 15 16  1  0
 16 17  1  0
 16 18  2  0
 18 19  1  0
 18 20  1  0
 20 21  2  0
 21 22  1  0
 21 23  1  0
 23 24  1  0
 23 25  2  0
 25 26  1  0
 25 27  1  0
 27 28  1  0
 27 29  2  0
 29 30  1  0
 30 31  1  0
 30 32  1  0
 30 33  1  0
 15 34  2  0
 34 35  1  0
 12  3  1  0
 35 13  1  0
 29 20  1  0
M  END
>  <UniqueID>  (38) 
36

>  <SMILES>  (38) 
Cc1ccccc1/C=C/c1noc(-c2ccccc2O)n1

>  <Energy>  (38) 
80.6400233806616

>  <Genealogy>  (38) 
Cc1ccccc1/C=C/c1noc(-c2ccccc2O)n1 (cis-trans isomerization)
Cc1ccccc1/C=C/c1noc(-c2ccccc2O)n1 (3D coordinates assigned)
Cc1ccccc1/C=C/c1noc(-c2ccccc2O)n1 (optimized conformer: 80.6400233806616 kcal/mol)

>  <smiles>  (38) 
Cc1ccccc1C=Cc1noc(-c2ccccc2O)n1

>  <score_type>  (38) 
oracle

>  <origin>  (38) 
adg

>  <m_score__min__energy>  (38) 
-10.550000000000001

>  <m_primary>  (38) 
energy

$$$$
38:0
     RDKit          3D

 37 40  0  0  0  0  0  0  0  0999 V2000
   -0.7880   17.8790  -35.0630 C   0  0  0  0  0  0  0  0  0  0  0  0
   -1.9780   18.5300  -34.4220 C   0  0  0  0  0  0  0  0  0  0  0  0
   -3.2340   17.9150  -34.4770 C   0  0  0  0  0  0  0  0  0  0  0  0
   -4.3520   18.5360  -33.9120 C   0  0  0  0  0  0  0  0  0  0  0  0
   -4.2450   19.7990  -33.2940 C   0  0  0  0  0  0  0  0  0  0  0  0
   -5.3970   20.4610  -32.7010 N   0  0  0  0  0  0  0  0  0  0  0  0
   -6.7690   20.1260  -33.0750 C   0  0  0  0  0  0  0  0  0  0  0  0
   -7.6690   21.0700  -32.2890 C   0  0  0  0  0  0  0  0  0  0  0  0
   -6.8230   21.5270  -31.1150 C   0  0  0  0  0  0  0  0  0  0  0  0
   -5.3780   21.4660  -31.6310 C   0  0  2  0  0  0  0  0  0  0  0  0
   -4.8960   22.8710  -32.1420 C   0  0  0  0  0  0  0  0  0  0  0  0
   -3.8670   23.2230  -31.1260 C   0  0  0  0  0  0  0  0  0  0  0  0
   -3.6570   22.2110  -30.2710 C   0  0  0  0  0  0  0  0  0  0  0  0
   -3.3120   22.7480  -29.0480 C   0  0  0  0  0  0  0  0  0  0  0  0
   -3.2850   24.0620  -29.1710 O   0  0  0  0  0  0  0  0  0  0  0  0
   -3.6520   24.3720  -30.3980 C   0  0  0  0  0  0  0  0  0  0  0  0
   -3.8790   25.6670  -30.8420 O   0  0  0  0  0  0  0  0  0  0  0  0
   -4.4700   21.0890  -30.5370 N   0  0  0  0  0  0  0  0  0  0  0  0
   -2.9740   20.4110  -33.2560 C   0  0  0  0  0  0  0  0  0  0  0  0
   -1.8580   19.7880  -33.8220 C   0  0  0  0  0  0  0  0  0  0  0  0
   -0.1084   17.5072  -34.2820 H   0  0  0  0  0  0  0  0  0  0  0  0
   -1.1226   17.0383  -35.6885 H   0  0  0  0  0  0  0  0  0  0  0  0
   -0.2605   18.6142  -35.6885 H   0  0  0  0  0  0  0  0  0  0  0  0
   -3.3423   16.9366  -34.9680 H   0  0  0  0  0  0  0  0  0  0  0  0
   -5.3291   18.0321  -33.9501 H   0  0  0  0  0  0  0  0  0  0  0  0
   -6.9156   20.2715  -34.1554 H   0  0  0  0  0  0  0  0  0  0  0  0
   -6.9992   19.0742  -32.8499 H   0  0  0  0  0  0  0  0  0  0  0  0
   -7.9660   21.9283  -32.9096 H   0  0  0  0  0  0  0  0  0  0  0  0
   -8.5994   20.5813  -31.9642 H   0  0  0  0  0  0  0  0  0  0  0  0
   -7.0876   22.5538  -30.8222 H   0  0  0  0  0  0  0  0  0  0  0  0
   -6.9741   20.9007  -30.2234 H   0  0  0  0  0  0  0  0  0  0  0  0
   -4.4588   22.8033  -33.1491 H   0  0  0  0  0  0  0  0  0  0  0  0
   -5.7025   23.6130  -32.2373 H   0  0  0  0  0  0  0  0  0  0  0  0
   -3.0970   22.1804  -28.1306 H   0  0  0  0  0  0  0  0  0  0  0  0
   -4.6050   20.2790  -29.8900 H   0  0  0  0  0  0  0  0  0  0  0  0
   -2.8598   21.3930  -32.7737 H   0  0  0  0  0  0  0  0  0  0  0  0
   -0.8796   20.2899  -33.7954 H   0  0  0  0  0  0  0  0  0  0  0  0
  1  2  1  0
  2  3  2  0
  3  4  1  0
  4  5  2  0
  5  6  1  0
  6  7  1  0
  7  8  1  0
  8  9  1  0
  9 10  1  0
 10 11  1  0
 11 12  1  0
 12 13  1  0
 13 14  2  0
 14 15  1  0
 15 16  1  0
 16 17  1  0
 13 18  1  0
  5 19  1  0
 19 20  2  0
 20  2  1  0
 10  6  1  6
 16 12  2  0
 18 10  1  0
  1 21  1  0
  1 22  1  0
  1 23  1  0
  3 24  1  0
  4 25  1  0
  7 26  1  0
  7 27  1  0
  8 28  1  0
  8 29  1  0
  9 30  1  0
  9 31  1  0
 11 32  1  0
 11 33  1  0
 14 34  1  0
 18 35  1  0
 19 36  1  0
 20 37  1  0
M  CHG  1  17  -1
M  END
>  <UniqueID>  (39) 
37

>  <SMILES>  (39) 
Cc1ccc(N2CCC[C@]23Cc2c(coc2[O-])N3)cc1

>  <Energy>  (39) 
106.79515170834156

>  <Genealogy>  (39) 
Cc1ccc(N2CCCC23Cc2c(coc2[O-])N3)cc1 (protonated)
Cc1ccc(N2CCC[C@]23Cc2c(coc2[O-])N3)cc1 (chirality)
Cc1ccc(N2CCC[C@]23Cc2c(coc2[O-])N3)cc1 (3D coordinates assigned)
Cc1ccc(N2CCC[C@]23Cc2c(coc2[O-])N3)cc1 (nonaromatic ring conformer: 106.79515170834156 kcal/mol)

>  <smiles>  (39) 
Cc1ccc(N2CCCC23Cc2c(coc2O)N3)cc1

>  <score_type>  (39) 
oracle

>  <origin>  (39) 
adg

>  <m_score__min__energy>  (39) 
-8.1899999999999995

>  <m_primary>  (39) 
energy

$$$$
39:0
     RDKit          3D

 36 39  0  0  0  0  0  0  0  0999 V2000
   -9.1400   19.4430  -33.0220 C   0  0  0  0  0  0  0  0  0  0  0  0
   -8.7190   20.6600  -32.3310 N   0  0  0  0  0  0  0  0  0  0  0  0
   -9.5490   21.6620  -31.9550 C   0  0  0  0  0  0  0  0  0  0  0  0
   -8.8440   22.6660  -31.3060 C   0  0  0  0  0  0  0  0  0  0  0  0
   -7.5330   22.2400  -31.3000 C   0  0  0  0  0  0  0  0  0  0  0  0
   -6.4080   22.8470  -30.7610 C   0  0  0  0  0  0  0  0  0  0  0  0
   -5.1770   22.1680  -30.8780 C   0  0  0  0  0  0  0  0  0  0  0  0
   -3.9440   22.7700  -30.3110 C   0  0  0  0  0  0  0  0  0  0  0  0
   -2.6460   22.2650  -30.4140 C   0  0  0  0  0  0  0  0  0  0  0  0
   -1.6840   23.0550  -29.7710 C   0  0  0  0  0  0  0  0  0  0  0  0
   -2.2150   24.1790  -29.1610 C   0  0  0  0  0  0  0  0  0  0  0  0
   -1.2370   25.4920  -28.1860 Br  0  0  0  0  0  0  0  0  0  0  0  0
   -3.8740   24.1980  -29.4130 S   0  0  0  0  0  0  0  0  0  0  0  0
   -5.1310   20.9530  -31.5250 N   0  0  0  0  0  0  0  0  0  0  0  0
   -6.2460   20.3620  -32.0620 C   0  0  0  0  0  0  0  0  0  0  0  0
   -6.1070   19.0760  -32.7630 C   0  0  0  0  0  0  0  0  0  0  0  0
   -6.2720   17.8730  -32.0610 C   0  0  0  0  0  0  0  0  0  0  0  0
   -6.1130   16.6500  -32.7210 C   0  0  0  0  0  0  0  0  0  0  0  0
   -5.7760   16.6250  -34.0770 C   0  0  0  0  0  0  0  0  0  0  0  0
   -5.5920   17.8230  -34.7760 C   0  0  0  0  0  0  0  0  0  0  0  0
   -5.2570   17.7960  -36.0890 F   0  0  0  0  0  0  0  0  0  0  0  0
   -5.7500   19.0470  -34.1190 C   0  0  0  0  0  0  0  0  0  0  0  0
   -7.4780   21.0280  -31.9320 C   0  0  0  0  0  0  0  0  0  0  0  0
   -9.4059   18.6743  -32.2815 H   0  0  0  0  0  0  0  0  0  0  0  0
  -10.0143   19.6630  -33.6523 H   0  0  0  0  0  0  0  0  0  0  0  0
   -8.3167   19.0757  -33.6523 H   0  0  0  0  0  0  0  0  0  0  0  0
  -10.6334   21.6779  -32.1388 H   0  0  0  0  0  0  0  0  0  0  0  0
   -9.2451   23.6005  -30.8867 H   0  0  0  0  0  0  0  0  0  0  0  0
   -6.4736   23.8239  -30.2597 H   0  0  0  0  0  0  0  0  0  0  0  0
   -2.4021   21.3354  -30.9491 H   0  0  0  0  0  0  0  0  0  0  0  0
   -0.6125   22.8068  -29.7526 H   0  0  0  0  0  0  0  0  0  0  0  0
   -4.2180   20.4620  -31.6390 H   0  0  0  0  0  0  0  0  0  0  0  0
   -6.5265   17.8913  -30.9910 H   0  0  0  0  0  0  0  0  0  0  0  0
   -6.2534   15.7071  -32.1722 H   0  0  0  0  0  0  0  0  0  0  0  0
   -5.6553   15.6624  -34.5954 H   0  0  0  0  0  0  0  0  0  0  0  0
   -5.5941   19.9884  -34.6663 H   0  0  0  0  0  0  0  0  0  0  0  0
  1  2  1  0
  2  3  1  0
  3  4  2  0
  4  5  1  0
  5  6  2  0
  6  7  1  0
  7  8  1  0
  8  9  2  0
  9 10  1  0
 10 11  2  0
 11 12  1  0
 11 13  1  0
  7 14  2  0
 14 15  1  0
 15 16  1  0
 16 17  2  0
 17 18  1  0
 18 19  2  0
 19 20  1  0
 20 21  1  0
 20 22  2  0
 15 23  2  0
 23  2  1  0
 23  5  1  0
 13  8  1  0
 22 16  1  0
  1 24  1  0
  1 25  1  0
  1 26  1  0
  3 27  1  0
  4 28  1  0
  6 29  1  0
  9 30  1  0
 10 31  1  0
 14 32  1  0
 17 33  1  0
 18 34  1  0
 19 35  1  0
 22 36  1  0
M  CHG  1  14   1
M  END
>  <UniqueID>  (40) 
38

>  <SMILES>  (40) 
Cn1ccc2cc(-c3ccc(Br)s3)[nH+]c(-c3cccc(F)c3)c21

>  <Energy>  (40) 
111.40153735741511

>  <Genealogy>  (40) 
Cn1ccc2cc(-c3ccc(Br)s3)[nH+]c(-c3cccc(F)c3)c21 (protonated)
Cn1ccc2cc(-c3ccc(Br)s3)[nH+]c(-c3cccc(F)c3)c21 (3D coordinates assigned)
Cn1ccc2cc(-c3ccc(Br)s3)[nH+]c(-c3cccc(F)c3)c21 (optimized conformer: 111.40153735741511 kcal/mol)

>  <smiles>  (40) 
Cn1ccc2cc(-c3ccc(Br)s3)nc(-c3cccc(F)c3)c21

>  <score_type>  (40) 
oracle

>  <origin>  (40) 
adg

>  <m_score__min__energy>  (40) 
-7.6399999999999997

>  <m_primary>  (40) 
energy

$$$$
40:0
     RDKit          3D

 68 72  0  0  0  0  0  0  0  0999 V2000
   -5.4578   26.2896  -31.2551 H   0  0  0  0  0  0  0  0  0  0  0  0
   -5.0490   25.3260  -30.9170 C   0  0  0  0  0  0  0  0  0  0  0  0
   -3.8700   25.2890  -30.2520 N   0  0  0  0  0  0  0  0  0  0  0  0
   -3.3040   24.1210  -29.8560 C   0  0  0  0  0  0  0  0  0  0  0  0
   -2.0480   24.1480  -29.2390 C   0  0  0  0  0  0  0  0  0  0  0  0
   -1.5809   25.1123  -28.9903 H   0  0  0  0  0  0  0  0  0  0  0  0
   -1.3860   22.9580  -28.9380 C   0  0  0  0  0  0  0  0  0  0  0  0
    0.2030   23.0040  -28.1940 Cl  0  0  0  0  0  0  0  0  0  0  0  0
   -1.9660   21.7360  -29.2780 C   0  0  0  0  0  0  0  0  0  0  0  0
   -1.4275   20.7991  -29.0725 H   0  0  0  0  0  0  0  0  0  0  0  0
   -3.2270   21.6950  -29.8780 C   0  0  0  0  0  0  0  0  0  0  0  0
   -3.6582   20.7260  -30.1698 H   0  0  0  0  0  0  0  0  0  0  0  0
   -3.9560   22.8830  -30.1150 C   0  0  0  0  0  0  0  0  0  0  0  0
   -5.2580   22.9210  -30.7070 C   0  0  0  0  0  0  0  0  0  0  0  0
   -6.0680   21.8980  -30.8140 N   0  0  0  0  0  0  0  0  0  0  0  0
   -6.0150   20.7710  -31.6980 C   0  0  0  0  0  0  0  0  0  0  0  0
   -6.4850   20.8690  -33.0170 C   0  0  0  0  0  0  0  0  0  0  0  0
   -6.9713   21.7950  -33.3576 H   0  0  0  0  0  0  0  0  0  0  0  0
   -6.3380   19.7960  -33.8990 C   0  0  0  0  0  0  0  0  0  0  0  0
   -6.7458   19.8649  -34.9183 H   0  0  0  0  0  0  0  0  0  0  0  0
   -5.6690   18.6250  -33.4880 C   0  0  0  0  0  0  0  0  0  0  0  0
   -5.4290   17.5270  -34.3860 N   0  0  0  0  0  0  0  0  0  0  0  0
   -4.2650   17.0160  -34.6690 C   0  0  0  0  0  0  0  0  0  0  0  0
   -3.1180   17.6320  -34.2840 N   0  0  0  0  0  0  0  0  0  0  0  0
   -1.9080   17.0710  -34.5290 C   0  0  0  0  0  0  0  0  0  0  0  0
   -0.8060   17.6840  -34.2090 N   0  0  0  0  0  0  0  0  0  0  0  0
   -0.4820   19.0560  -34.4990 C   0  0  0  0  0  0  0  0  0  0  0  0
    0.3200   19.3370  -35.6120 C   0  0  0  0  0  0  0  0  0  0  0  0
    0.6991   18.5132  -36.2346 H   0  0  0  0  0  0  0  0  0  0  0  0
    0.6420   20.6590  -35.9370 C   0  0  0  0  0  0  0  0  0  0  0  0
    1.2598   20.8727  -36.8217 H   0  0  0  0  0  0  0  0  0  0  0  0
    0.1790   21.7090  -35.1380 C   0  0  0  0  0  0  0  0  0  0  0  0
    0.4870   22.9900  -35.4570 F   0  0  0  0  0  0  0  0  0  0  0  0
   -0.5900   21.4370  -34.0040 C   0  0  0  0  0  0  0  0  0  0  0  0
   -0.9447   22.2626  -33.3695 H   0  0  0  0  0  0  0  0  0  0  0  0
   -0.9090   20.1170  -33.6750 C   0  0  0  0  0  0  0  0  0  0  0  0
   -1.4958   19.9049  -32.7691 H   0  0  0  0  0  0  0  0  0  0  0  0
   -1.8470   15.8740  -35.1640 N   0  0  0  0  0  0  0  0  0  0  0  0
   -2.9860   15.2410  -35.5510 C   0  0  0  0  0  0  0  0  0  0  0  0
   -2.9050   14.0890  -36.1430 N   0  0  0  0  0  0  0  0  0  0  0  0
   -2.6820   12.8230  -35.4490 C   0  0  0  0  0  0  0  0  0  0  0  0
   -1.6787   12.8250  -34.9980 H   0  0  0  0  0  0  0  0  0  0  0  0
   -2.7621   11.9944  -36.1680 H   0  0  0  0  0  0  0  0  0  0  0  0
   -3.7310   12.6450  -34.3530 C   0  0  0  0  0  0  0  0  0  0  0  0
   -4.0918   11.6059  -34.3569 H   0  0  0  0  0  0  0  0  0  0  0  0
   -4.5730   13.3280  -34.5390 H   0  0  0  0  0  0  0  0  0  0  0  0
   -3.1300   12.9530  -33.0350 N   0  0  0  0  0  0  0  0  0  0  0  0
   -3.9590   13.8930  -32.2370 C   0  0  0  0  0  0  0  0  0  0  0  0
   -4.7276   14.3217  -32.8969 H   0  0  0  0  0  0  0  0  0  0  0  0
   -3.2756   14.6536  -31.8316 H   0  0  0  0  0  0  0  0  0  0  0  0
   -4.6620   13.2430  -31.0360 C   0  0  0  0  0  0  0  0  0  0  0  0
   -4.2344   13.6384  -30.1028 H   0  0  0  0  0  0  0  0  0  0  0  0
   -5.7373   13.4720  -31.0725 H   0  0  0  0  0  0  0  0  0  0  0  0
   -4.5178   12.1531  -31.0725 H   0  0  0  0  0  0  0  0  0  0  0  0
   -1.7080   13.3480  -33.1650 C   0  0  0  0  0  0  0  0  0  0  0  0
   -1.1396   12.4995  -33.5735 H   0  0  0  0  0  0  0  0  0  0  0  0
   -1.6572   14.2197  -33.8340 H   0  0  0  0  0  0  0  0  0  0  0  0
   -1.1000   13.7480  -31.8210 C   0  0  0  0  0  0  0  0  0  0  0  0
   -1.7160   13.3427  -31.0047 H   0  0  0  0  0  0  0  0  0  0  0  0
   -0.0796   13.3443  -31.7455 H   0  0  0  0  0  0  0  0  0  0  0  0
   -1.0668   14.8449  -31.7455 H   0  0  0  0  0  0  0  0  0  0  0  0
   -4.1950   15.8180  -35.3040 N   0  0  0  0  0  0  0  0  0  0  0  0
   -5.2200   18.5250  -32.1650 C   0  0  0  0  0  0  0  0  0  0  0  0
   -4.7453   17.5953  -31.8181 H   0  0  0  0  0  0  0  0  0  0  0  0
   -5.3710   19.5990  -31.2820 C   0  0  0  0  0  0  0  0  0  0  0  0
   -4.9821   19.5228  -30.2559 H   0  0  0  0  0  0  0  0  0  0  0  0
   -5.7450   24.1490  -31.1740 C   0  0  0  0  0  0  0  0  0  0  0  0
   -6.6832   24.1827  -31.7472 H   0  0  0  0  0  0  0  0  0  0  0  0
  1  2  1  0
  2  3  1  0
  3  4  1  0
  4  5  2  0
  5  6  1  0
  5  7  1  0
  7  8  1  0
  7  9  2  0
  9 10  1  0
  9 11  1  0
 11 12  1  0
 11 13  2  0
 13 14  1  0
 14 15  2  3
 15 16  1  0
 16 17  2  0
 17 18  1  0
 17 19  1  0
 19 20  1  0
 19 21  2  0
 21 22  1  0
 22 23  2  0
 23 24  1  0
 24 25  1  0
 25 26  2  3
 26 27  1  0
 27 28  2  0
 28 29  1  0
 28 30  1  0
 30 31  1  0
 30 32  2  0
 32 33  1  0
 32 34  1  0
 34 35  1  0
 34 36  2  0
 36 37  1  0
 25 38  1  0
 38 39  1  0
 39 40  2  0
 40 41  1  0
 41 42  1  0
 41 43  1  0
 41 44  1  0
 44 45  1  0
 44 46  1  0
 44 47  1  0
 47 48  1  0
 48 49  1  0
 48 50  1  0
 48 51  1  0
 51 52  1  0
 51 53  1  0
 51 54  1  0
 47 55  1  0
 55 56  1  0
 55 57  1  0
 55 58  1  0
 58 59  1  0
 58 60  1  0
 58 61  1  0
 39 62  1  0
 21 63  1  0
 63 64  1  0
 63 65  2  0
 65 66  1  0
 14 67  1  0
 67 68  1  0
 67  2  2  0
 13  4  1  0
 65 16  1  0
 62 23  1  0
 36 27  1  0
M  CHG  4   3  -1  24  -1  38  -1  62  -1
M  END
>  <UniqueID>  (41) 
39

>  <SMILES>  (41) 
CCN(CC)CC/N=c1/[n-]c(=Nc2ccc(F)cc2)[n-]/c(=N\c2ccc(N=c3cc[n-]c4cc(Cl)ccc34)cc2)[n-]1

>  <Energy>  (41) 
108.93976469366015

>  <Genealogy>  (41) 
CCN(CC)CCN=c1[n-]c(=Nc2ccc(F)cc2)[n-]c(=Nc2ccc(N=c3cc[n-]c4cc(Cl)ccc34)cc2)[n-]1 (protonated)
CCN(CC)CC/N=c1/[n-]c(=Nc2ccc(F)cc2)[n-]/c(=N\c2ccc(N=c3cc[n-]c4cc(Cl)ccc34)cc2)[n-]1 (cis-trans isomerization)
CCN(CC)CC/N=c1/[n-]c(=Nc2ccc(F)cc2)[n-]/c(=N\c2ccc(N=c3cc[n-]c4cc(Cl)ccc34)cc2)[n-]1 (3D coordinates assigned)
CCN(CC)CC/N=c1/[n-]c(=Nc2ccc(F)cc2)[n-]/c(=N\c2ccc(N=c3cc[n-]c4cc(Cl)ccc34)cc2)[n-]1 (optimized conformer: 108.93976469366015 kcal/mol)

>  <smiles>  (41) 
CCN(CC)CCN=c1[nH]c(=Nc2ccc(F)cc2)[nH]c(=Nc2ccc(N=c3cc[nH]c4cc(Cl)ccc34)cc2)[nH]1

>  <score_type>  (41) 
oracle

>  <origin>  (41) 
adg

>  <m_score__min__energy>  (41) 
-14.44

>  <m_primary>  (41) 
energy

$$$$
41:0
     RDKit          3D

 39 41  0  0  0  0  0  0  0  0999 V2000
   -5.2530   21.6290  -32.5600 C   0  0  0  0  0  0  0  0  0  0  0  0
   -6.6800   21.1630  -32.4380 C   0  0  0  0  0  0  0  0  0  0  0  0
   -6.9920   19.8440  -32.8150 C   0  0  0  0  0  0  0  0  0  0  0  0
   -8.2920   19.3540  -32.6870 C   0  0  0  0  0  0  0  0  0  0  0  0
   -9.2990   20.1690  -32.1740 C   0  0  0  0  0  0  0  0  0  0  0  0
   -9.0100   21.4790  -31.7930 C   0  0  0  0  0  0  0  0  0  0  0  0
   -7.7080   22.0010  -31.9230 C   0  0  0  0  0  0  0  0  0  0  0  0
   -7.4620   23.3770  -31.5350 N   0  0  0  0  0  0  0  0  0  0  0  0
   -7.0600   23.4850  -30.1220 C   0  0  0  0  0  0  0  0  0  0  0  0
   -5.6370   23.9330  -29.9790 C   0  0  0  0  0  0  0  0  0  0  0  0
   -4.9880   24.6720  -30.9060 N   0  0  0  0  0  0  0  0  0  0  0  0
   -3.7120   24.8990  -30.6000 N   0  0  0  0  0  0  0  0  0  0  0  0
   -3.3310   24.3360  -29.4300 C   0  0  0  0  0  0  0  0  0  0  0  0
   -1.9950   24.4390  -28.8980 N   0  0  0  0  0  0  0  0  0  0  0  0
   -1.5640   25.6700  -28.2230 C   0  0  0  0  0  0  0  0  0  0  0  0
   -0.3800   25.3860  -27.2930 C   0  0  0  0  0  0  0  0  0  0  0  0
    0.6370   24.6790  -27.9730 O   0  0  0  0  0  0  0  0  0  0  0  0
    0.1620   23.3940  -28.3230 C   0  0  0  0  0  0  0  0  0  0  0  0
   -0.9670   23.4940  -29.3530 C   0  0  0  0  0  0  0  0  0  0  0  0
   -4.6140   23.5050  -28.7110 S   0  0  0  0  0  0  0  0  0  0  0  0
   -4.8257   21.7685  -31.5560 H   0  0  0  0  0  0  0  0  0  0  0  0
   -4.6667   20.8756  -33.1065 H   0  0  0  0  0  0  0  0  0  0  0  0
   -5.2243   22.5832  -33.1065 H   0  0  0  0  0  0  0  0  0  0  0  0
   -6.2020   19.1916  -33.2153 H   0  0  0  0  0  0  0  0  0  0  0  0
   -8.5224   18.3224  -32.9916 H   0  0  0  0  0  0  0  0  0  0  0  0
  -10.3222   19.7790  -32.0695 H   0  0  0  0  0  0  0  0  0  0  0  0
   -9.8103   22.1139  -31.3850 H   0  0  0  0  0  0  0  0  0  0  0  0
   -6.6830   23.7490  -32.1260 H   0  0  0  0  0  0  0  0  0  0  0  0
   -8.2850   23.9950  -31.7140 H   0  0  0  0  0  0  0  0  0  0  0  0
   -7.7143   24.2134  -29.6207 H   0  0  0  0  0  0  0  0  0  0  0  0
   -7.1517   22.4890  -29.6642 H   0  0  0  0  0  0  0  0  0  0  0  0
   -1.2614   26.4101  -28.9784 H   0  0  0  0  0  0  0  0  0  0  0  0
   -2.4009   26.0592  -27.6246 H   0  0  0  0  0  0  0  0  0  0  0  0
    0.0275   26.3400  -26.9271 H   0  0  0  0  0  0  0  0  0  0  0  0
   -0.7333   24.7713  -26.4520 H   0  0  0  0  0  0  0  0  0  0  0  0
    0.9890   22.8077  -28.7500 H   0  0  0  0  0  0  0  0  0  0  0  0
   -0.2278   22.9036  -27.4188 H   0  0  0  0  0  0  0  0  0  0  0  0
   -0.5535   23.8423  -30.3110 H   0  0  0  0  0  0  0  0  0  0  0  0
   -1.4252   22.5016  -29.4766 H   0  0  0  0  0  0  0  0  0  0  0  0
  1  2  1  0
  2  3  2  0
  3  4  1  0
  4  5  2  0
  5  6  1  0
  6  7  2  0
  7  8  1  0
  8  9  1  0
  9 10  1  0
 10 11  2  0
 11 12  1  0
 12 13  2  0
 13 14  1  0
 14 15  1  0
 15 16  1  0
 16 17  1  0
 17 18  1  0
 18 19  1  0
 13 20  1  0
  7  2  1  0
 20 10  1  0
 19 14  1  0
  1 21  1  0
  1 22  1  0
  1 23  1  0
  3 24  1  0
  4 25  1  0
  5 26  1  0
  6 27  1  0
  8 28  1  0
  8 29  1  0
  9 30  1  0
  9 31  1  0
 15 32  1  0
 15 33  1  0
 16 34  1  0
 16 35  1  0
 18 36  1  0
 18 37  1  0
 19 38  1  0
 19 39  1  0
M  CHG  1   8   1
M  END
>  <UniqueID>  (42) 
40

>  <SMILES>  (42) 
Cc1ccccc1[NH2+]Cc1nnc(N2CCOCC2)s1

>  <Energy>  (42) 
76.75437316167843

>  <Genealogy>  (42) 
Cc1ccccc1[NH2+]Cc1nnc(N2CCOCC2)s1 (protonated)
Cc1ccccc1[NH2+]Cc1nnc(N2CCOCC2)s1 (3D coordinates assigned)
Cc1ccccc1[NH2+]Cc1nnc(N2CCOCC2)s1 (nonaromatic ring conformer: 76.75437316167843 kcal/mol)

>  <smiles>  (42) 
Cc1ccccc1NCc1nnc(N2CCOCC2)s1

>  <score_type>  (42) 
oracle

>  <origin>  (42) 
adg

>  <m_score__min__energy>  (42) 
-8.2599999999999998

>  <m_primary>  (42) 
energy

$$$$
42:0
     RDKit          3D

 23 24  0  0  0  0  0  0  0  0999 V2000
   -3.7570   24.9060  -29.2420 N   0  0  0  0  0  0  0  0  0  0  0  0
   -4.5080   24.2260  -30.0650 C   0  0  0  0  0  0  0  0  0  0  0  0
   -3.9800   23.7330  -31.2040 N   0  0  0  0  0  0  0  0  0  0  0  0
   -4.7640   23.0320  -32.0460 C   0  0  0  0  0  0  0  0  0  0  0  0
   -6.1150   22.8000  -31.7700 C   0  0  0  0  0  0  0  0  0  0  0  0
   -6.8840   22.0870  -32.6410 O   0  0  0  0  0  0  0  0  0  0  0  0
   -7.1170   20.7270  -32.6340 C   0  0  0  0  0  0  0  0  0  0  0  0
   -6.2710   19.7970  -33.2040 C   0  0  0  0  0  0  0  0  0  0  0  0
   -6.5920   18.4370  -33.1480 C   0  0  0  0  0  0  0  0  0  0  0  0
   -7.7720   18.0470  -32.5100 C   0  0  0  0  0  0  0  0  0  0  0  0
   -8.6260   18.9700  -31.9360 C   0  0  0  0  0  0  0  0  0  0  0  0
   -8.2900   20.3060  -32.0050 C   0  0  0  0  0  0  0  0  0  0  0  0
   -9.4950   21.5480  -31.2010 Br  0  0  0  0  0  0  0  0  0  0  0  0
   -6.5930   23.3380  -30.5780 C   0  0  0  0  0  0  0  0  0  0  0  0
   -5.7980   24.0390  -29.7410 N   0  0  0  0  0  0  0  0  0  0  0  0
   -4.2130   25.3200  -28.3780 H   0  0  0  0  0  0  0  0  0  0  0  0
   -4.3302   22.6319  -32.9743 H   0  0  0  0  0  0  0  0  0  0  0  0
   -5.3462   20.1250  -33.7012 H   0  0  0  0  0  0  0  0  0  0  0  0
   -5.9261   17.6865  -33.5990 H   0  0  0  0  0  0  0  0  0  0  0  0
   -8.0281   16.9782  -32.4632 H   0  0  0  0  0  0  0  0  0  0  0  0
   -9.5511   18.6469  -31.4363 H   0  0  0  0  0  0  0  0  0  0  0  0
   -7.6492   23.1876  -30.3101 H   0  0  0  0  0  0  0  0  0  0  0  0
   -6.1440   24.4500  -28.8380 H   0  0  0  0  0  0  0  0  0  0  0  0
  1  2  2  3
  2  3  1  0
  3  4  2  0
  4  5  1  0
  5  6  1  0
  6  7  1  0
  7  8  2  0
  8  9  1  0
  9 10  2  0
 10 11  1  0
 11 12  2  0
 12 13  1  0
  5 14  2  0
 14 15  1  0
 15  2  1  0
 12  7  1  0
  1 16  1  0
  4 17  1  0
  8 18  1  0
  9 19  1  0
 10 20  1  0
 11 21  1  0
 14 22  1  0
 15 23  1  0
M  END
>  <smiles>  (43) 
N=c1ncc(Oc2ccccc2Br)c[nH]1

>  <score_type>  (43) 
oracle

>  <origin>  (43) 
adg

>  <m_score__min__energy>  (43) 
-6.8200000000000003

>  <m_primary>  (43) 
energy

$$$$
43:0
     RDKit          3D

 37 39  0  0  0  0  0  0  0  0999 V2000
   -0.9730   21.0550  -33.8490 C   0  0  0  0  0  0  0  0  0  0  0  0
   -2.3940   20.6420  -33.6100 C   0  0  0  0  0  0  0  0  0  0  0  0
   -3.3220   21.5390  -33.0740 C   0  0  0  0  0  0  0  0  0  0  0  0
   -4.5940   21.1330  -32.8300 N   0  0  0  0  0  0  0  0  0  0  0  0
   -4.9940   19.8590  -33.0910 C   0  0  0  0  0  0  0  0  0  0  0  0
   -6.3860   19.4520  -32.7890 C   0  0  0  0  0  0  0  0  0  0  0  0
   -6.6920   18.0870  -32.6750 C   0  0  0  0  0  0  0  0  0  0  0  0
   -7.9790   17.6910  -32.3150 C   0  0  0  0  0  0  0  0  0  0  0  0
   -8.9360   18.6220  -32.0760 N   0  0  0  0  0  0  0  0  0  0  0  0
   -8.6810   19.9530  -32.1800 C   0  0  0  0  0  0  0  0  0  0  0  0
   -7.4010   20.4060  -32.5430 C   0  0  0  0  0  0  0  0  0  0  0  0
   -7.1530   21.8130  -32.7230 N   0  0  0  0  0  0  0  0  0  0  0  0
   -7.7760   22.8450  -31.8940 C   0  0  0  0  0  0  0  0  0  0  0  0
   -6.7180   23.6810  -31.2290 C   0  0  0  0  0  0  0  0  0  0  0  0
   -7.0420   24.4930  -30.1320 C   0  0  0  0  0  0  0  0  0  0  0  0
   -6.0660   25.3040  -29.5520 C   0  0  0  0  0  0  0  0  0  0  0  0
   -4.7730   25.3010  -30.0780 C   0  0  0  0  0  0  0  0  0  0  0  0
   -4.4750   24.5180  -31.1480 N   0  0  0  0  0  0  0  0  0  0  0  0
   -5.4090   23.7180  -31.7320 C   0  0  0  0  0  0  0  0  0  0  0  0
   -4.0960   18.9620  -33.5940 N   0  0  0  0  0  0  0  0  0  0  0  0
   -2.8130   19.3290  -33.8510 C   0  0  0  0  0  0  0  0  0  0  0  0
   -0.4666   21.2022  -32.8836 H   0  0  0  0  0  0  0  0  0  0  0  0
   -0.4541   20.2705  -34.4194 H   0  0  0  0  0  0  0  0  0  0  0  0
   -0.9555   21.9954  -34.4194 H   0  0  0  0  0  0  0  0  0  0  0  0
   -3.0218   22.5733  -32.8500 H   0  0  0  0  0  0  0  0  0  0  0  0
   -5.9172   17.3308  -32.8695 H   0  0  0  0  0  0  0  0  0  0  0  0
   -8.2190   16.6213  -32.2245 H   0  0  0  0  0  0  0  0  0  0  0  0
   -9.4814   20.6802  -31.9788 H   0  0  0  0  0  0  0  0  0  0  0  0
   -6.4140   22.1140  -33.3980 H   0  0  0  0  0  0  0  0  0  0  0  0
   -8.4048   23.4891  -32.5262 H   0  0  0  0  0  0  0  0  0  0  0  0
   -8.3927   22.3628  -31.1212 H   0  0  0  0  0  0  0  0  0  0  0  0
   -8.0655   24.4904  -29.7290 H   0  0  0  0  0  0  0  0  0  0  0  0
   -6.3130   25.9395  -28.6888 H   0  0  0  0  0  0  0  0  0  0  0  0
   -3.9945   25.9331  -29.6259 H   0  0  0  0  0  0  0  0  0  0  0  0
   -5.1367   23.0995  -32.5999 H   0  0  0  0  0  0  0  0  0  0  0  0
   -4.3880   17.9810  -33.8020 H   0  0  0  0  0  0  0  0  0  0  0  0
   -2.1014   18.5911  -34.2499 H   0  0  0  0  0  0  0  0  0  0  0  0
  1  2  1  0
  2  3  2  0
  3  4  1  0
  4  5  2  0
  5  6  1  0
  6  7  2  0
  7  8  1  0
  8  9  2  0
  9 10  1  0
 10 11  2  0
 11 12  1  0
 12 13  1  0
 13 14  1  0
 14 15  2  0
 15 16  1  0
 16 17  2  0
 17 18  1  0
 18 19  2  0
  5 20  1  0
 20 21  2  0
 21  2  1  0
 11  6  1  0
 19 14  1  0
  1 22  1  0
  1 23  1  0
  1 24  1  0
  3 25  1  0
  7 26  1  0
  8 27  1  0
 10 28  1  0
 12 29  1  0
 13 30  1  0
 13 31  1  0
 15 32  1  0
 16 33  1  0
 17 34  1  0
 19 35  1  0
 20 36  1  0
 21 37  1  0
M  CHG  1  20   1
M  END
>  <UniqueID>  (44) 
41

>  <SMILES>  (44) 
Cc1cnc(-c2ccncc2NCc2cccnc2)[nH+]c1

>  <Energy>  (44) 
46.177712600408974

>  <Genealogy>  (44) 
Cc1cnc(-c2ccncc2NCc2cccnc2)[nH+]c1 (protonated)
Cc1cnc(-c2ccncc2NCc2cccnc2)[nH+]c1 (3D coordinates assigned)
Cc1cnc(-c2ccncc2NCc2cccnc2)[nH+]c1 (optimized conformer: 46.177712600408974 kcal/mol)

>  <smiles>  (44) 
Cc1cnc(-c2ccncc2NCc2cccnc2)nc1

>  <score_type>  (44) 
oracle

>  <origin>  (44) 
adg

>  <m_score__min__energy>  (44) 
-7.3700000000000001

>  <m_primary>  (44) 
energy

$$$$
44:0
     RDKit          3D

 33 34  0  0  1  0  0  0  0  0999 V2000
   -6.5820   24.3880  -29.7730 C   0  0  0  0  0  0  0  0  0  0  0  0
   -5.8530   24.7280  -31.0950 C   0  0  0  0  0  0  0  0  0  0  0  0
   -4.7690   23.7780  -31.1940 C   0  0  0  0  0  0  0  0  0  0  0  0
   -3.5990   24.1120  -30.4800 C   0  0  0  0  0  0  0  0  0  0  0  0
   -3.5390   25.2990  -29.7420 O   0  0  0  0  0  0  0  0  0  0  0  0
   -2.5140   23.3400  -30.4660 N   0  0  0  0  0  0  0  0  0  0  0  0
   -2.4970   22.2060  -31.1390 C   0  0  0  0  0  0  0  0  0  0  0  0
   -1.4640   21.4720  -31.1260 O   0  0  0  0  0  0  0  0  0  0  0  0
   -3.5750   21.8430  -31.8310 N   0  0  0  0  0  0  0  0  0  0  0  0
   -3.4980   20.5780  -32.5560 C   0  0  0  0  0  0  0  0  0  0  0  0
   -4.7150   22.6010  -31.8770 C   0  0  0  0  0  0  0  0  0  0  0  0
   -5.6580   22.1860  -32.5440 N   0  0  0  0  0  0  0  0  0  0  0  0
   -6.6110   21.2270  -32.2500 C   0  0  0  0  0  0  0  0  0  0  0  0
   -7.7270   21.4520  -31.4160 C   0  0  0  0  0  0  0  0  0  0  0  0
   -8.6870   20.4790  -31.2330 C   0  0  0  0  0  0  0  0  0  0  0  0
   -8.5430   19.2570  -31.8880 C   0  0  0  0  0  0  0  0  0  0  0  0
   -9.4720   18.2820  -31.7260 F   0  0  0  0  0  0  0  0  0  0  0  0
   -7.4620   19.0120  -32.7090 C   0  0  0  0  0  0  0  0  0  0  0  0
   -6.4850   19.9770  -32.9060 C   0  0  0  0  0  0  0  0  0  0  0  0
   -5.9518   24.6819  -28.9207 H   0  0  0  0  0  0  0  0  0  0  0  0
   -7.5358   24.9342  -29.7293 H   0  0  0  0  0  0  0  0  0  0  0  0
   -6.7766   23.3062  -29.7293 H   0  0  0  0  0  0  0  0  0  0  0  0
   -6.5371   24.6209  -31.9497 H   0  0  0  0  0  0  0  0  0  0  0  0
   -5.4881   25.7657  -31.1043 H   0  0  0  0  0  0  0  0  0  0  0  0
   -4.2270   25.4030  -29.0090 H   0  0  0  0  0  0  0  0  0  0  0  0
   -1.6570   23.6370  -29.9110 H   0  0  0  0  0  0  0  0  0  0  0  0
   -3.4474   19.7463  -31.8379 H   0  0  0  0  0  0  0  0  0  0  0  0
   -4.3908   20.4628  -33.1882 H   0  0  0  0  0  0  0  0  0  0  0  0
   -2.5978   20.5719  -33.1882 H   0  0  0  0  0  0  0  0  0  0  0  0
   -7.8329   22.4195  -30.9034 H   0  0  0  0  0  0  0  0  0  0  0  0
   -9.5528   20.6643  -30.5803 H   0  0  0  0  0  0  0  0  0  0  0  0
   -7.3735   18.0388  -33.2141 H   0  0  0  0  0  0  0  0  0  0  0  0
   -5.6252   19.7750  -33.5617 H   0  0  0  0  0  0  0  0  0  0  0  0
  1  2  1  0
  2  3  1  0
  3  4  2  0
  4  5  1  0
  4  6  1  0
  6  7  1  0
  7  8  2  0
  7  9  1  0
  9 10  1  0
  9 11  1  0
 11 12  2  0
 12 13  1  0
 13 14  2  0
 14 15  1  0
 15 16  2  0
 16 17  1  0
 16 18  1  0
 18 19  2  0
 11  3  1  0
 19 13  1  0
  1 20  1  0
  1 21  1  0
  1 22  1  0
  2 23  1  0
  2 24  1  0
  5 25  1  0
  6 26  1  0
 10 27  1  0
 10 28  1  0
 10 29  1  0
 14 30  1  0
 15 31  1  0
 18 32  1  0
 19 33  1  0
M  END
>  <smiles>  (45) 
CCc1c(O)[nH]c(=O)n(C)c1=Nc1ccc(F)cc1

>  <score_type>  (45) 
oracle

>  <origin>  (45) 
adg

>  <m_score__min__energy>  (45) 
-6.8499999999999996

>  <m_primary>  (45) 
energy

$$$$
45:0
     RDKit          3D

 36 38  0  0  0  0  0  0  0  0999 V2000
   -3.0540   24.9440  -29.6500 N   0  0  0  0  0  0  0  0  0  0  0  0
   -4.6670   24.7010  -30.2190 S   0  0  0  0  0  0  0  0  0  0  0  0
   -5.6240   24.8130  -29.0670 O   0  0  0  0  0  0  0  0  0  0  0  0
   -5.0070   25.7570  -31.2320 O   0  0  0  0  0  0  0  0  0  0  0  0
   -4.7980   23.1060  -30.9520 C   0  0  0  0  0  0  0  0  0  0  0  0
   -6.0560   22.5380  -31.1890 C   0  0  0  0  0  0  0  0  0  0  0  0
   -6.1600   21.2660  -31.7590 C   0  0  0  0  0  0  0  0  0  0  0  0
   -5.0010   20.5500  -32.1110 C   0  0  0  0  0  0  0  0  0  0  0  0
   -5.0780   19.2280  -32.6740 N   0  0  0  0  0  0  0  0  0  0  0  0
   -5.9790   18.2070  -32.2030 C   0  0  0  0  0  0  0  0  0  0  0  0
   -6.8190   18.4750  -31.3010 O   0  0  0  0  0  0  0  0  0  0  0  0
   -5.9460   16.8350  -32.7650 C   0  0  0  0  0  0  0  0  0  0  0  0
   -6.8630   16.4750  -33.7670 C   0  0  0  0  0  0  0  0  0  0  0  0
   -6.8540   15.1910  -34.3160 C   0  0  0  0  0  0  0  0  0  0  0  0
   -5.9180   14.2440  -33.8800 C   0  0  0  0  0  0  0  0  0  0  0  0
   -5.8990   12.9510  -34.4260 C   0  0  0  0  0  0  0  0  0  0  0  0
   -4.9550   12.0180  -33.9870 C   0  0  0  0  0  0  0  0  0  0  0  0
   -4.0260   12.3670  -33.0040 C   0  0  0  0  0  0  0  0  0  0  0  0
   -4.0350   13.6520  -32.4520 C   0  0  0  0  0  0  0  0  0  0  0  0
   -4.9790   14.5980  -32.8820 C   0  0  0  0  0  0  0  0  0  0  0  0
   -4.9970   15.8910  -32.3350 C   0  0  0  0  0  0  0  0  0  0  0  0
   -3.7440   21.1090  -31.8410 C   0  0  0  0  0  0  0  0  0  0  0  0
   -3.6420   22.3810  -31.2710 C   0  0  0  0  0  0  0  0  0  0  0  0
   -2.4950   25.3010  -30.4580 H   0  0  0  0  0  0  0  0  0  0  0  0
   -6.9667   23.0957  -30.9253 H   0  0  0  0  0  0  0  0  0  0  0  0
   -7.1517   20.8230  -31.9331 H   0  0  0  0  0  0  0  0  0  0  0  0
   -4.4750   19.0330  -33.5020 H   0  0  0  0  0  0  0  0  0  0  0  0
   -7.5966   17.2133  -34.1231 H   0  0  0  0  0  0  0  0  0  0  0  0
   -7.5843   14.9222  -35.0934 H   0  0  0  0  0  0  0  0  0  0  0  0
   -6.6282   12.6714  -35.2007 H   0  0  0  0  0  0  0  0  0  0  0  0
   -4.9438   11.0056  -34.4171 H   0  0  0  0  0  0  0  0  0  0  0  0
   -3.2851   11.6289  -32.6630 H   0  0  0  0  0  0  0  0  0  0  0  0
   -3.3006   13.9221  -31.6789 H   0  0  0  0  0  0  0  0  0  0  0  0
   -4.2628   16.1676  -31.5640 H   0  0  0  0  0  0  0  0  0  0  0  0
   -2.8317   20.5425  -32.0794 H   0  0  0  0  0  0  0  0  0  0  0  0
   -2.6508   22.8146  -31.0721 H   0  0  0  0  0  0  0  0  0  0  0  0
  1  2  1  0
  2  3  2  0
  2  4  2  0
  2  5  1  0
  5  6  2  0
  6  7  1  0
  7  8  2  0
  8  9  1  0
  9 10  1  0
 10 11  2  0
 10 12  1  0
 12 13  2  0
 13 14  1  0
 14 15  2  0
 15 16  1  0
 16 17  2  0
 17 18  1  0
 18 19  2  0
 19 20  1  0
 20 21  2  0
  8 22  1  0
 22 23  2  0
 23  5  1  0
 21 12  1  0
 20 15  1  0
  1 24  1  0
  6 25  1  0
  7 26  1  0
  9 27  1  0
 13 28  1  0
 14 29  1  0
 16 30  1  0
 17 31  1  0
 18 32  1  0
 19 33  1  0
 21 34  1  0
 22 35  1  0
 23 36  1  0
M  CHG  1   1  -1
M  END
>  <UniqueID>  (46) 
42

>  <SMILES>  (46) 
[NH-]S(=O)(=O)c1ccc(NC(=O)c2ccc3ccccc3c2)cc1

>  <Energy>  (46) 
48.599522015104554

>  <Genealogy>  (46) 
[NH-]S(=O)(=O)c1ccc(NC(=O)c2ccc3ccccc3c2)cc1 (protonated)
[NH-]S(=O)(=O)c1ccc(NC(=O)c2ccc3ccccc3c2)cc1 (3D coordinates assigned)
[NH-]S(=O)(=O)c1ccc(NC(=O)c2ccc3ccccc3c2)cc1 (optimized conformer: 48.599522015104554 kcal/mol)

>  <smiles>  (46) 
NS(=O)(=O)c1ccc(NC(=O)c2ccc3ccccc3c2)cc1

>  <score_type>  (46) 
oracle

>  <origin>  (46) 
adg

>  <m_score__min__energy>  (46) 
-9.6400000000000006

>  <m_primary>  (46) 
energy

$$$$
