0:0
     RDKit          3D

 52 56  0  0  0  0  0  0  0  0999 V2000
   -6.2550   17.3330  -31.3580 C   0  0  0  0  0  0  0  0  0  0  0  0
   -6.4160   18.3660  -32.3790 N   0  0  0  0  0  0  0  0  0  0  0  0
   -7.4010   19.2810  -32.4670 C   0  0  0  0  0  0  0  0  0  0  0  0
   -8.7280   19.4850  -31.2770 S   0  0  0  0  0  0  0  0  0  0  0  0
   -9.5090   20.8460  -32.2120 C   0  0  0  0  0  0  0  0  0  0  0  0
   -9.1470   22.2130  -31.6170 C   0  0  0  0  0  0  0  0  0  0  0  0
   -7.8310   22.7920  -32.1560 C   0  0  0  0  0  0  0  0  0  0  0  0
   -7.2670   23.7850  -31.2050 N   0  0  0  0  0  0  0  0  0  0  0  0
   -7.1260   23.2250  -29.8480 C   0  0  0  0  0  0  0  0  0  0  0  0
   -5.6990   22.7180  -29.6910 C   0  0  2  0  0  0  0  0  0  0  0  0
   -4.6340   23.7500  -29.3480 C   0  0  0  0  0  0  0  0  0  0  0  0
   -4.9150   23.3880  -30.8010 C   0  0  1  0  0  0  0  0  0  0  0  0
   -3.9340   22.5010  -31.5250 C   0  0  0  0  0  0  0  0  0  0  0  0
   -4.2500   21.9540  -32.7800 C   0  0  0  0  0  0  0  0  0  0  0  0
   -3.3160   21.1650  -33.4590 C   0  0  0  0  0  0  0  0  0  0  0  0
   -2.0590   20.9280  -32.8970 C   0  0  0  0  0  0  0  0  0  0  0  0
   -1.7310   21.4840  -31.6580 C   0  0  0  0  0  0  0  0  0  0  0  0
   -0.5080   21.2630  -31.1180 F   0  0  0  0  0  0  0  0  0  0  0  0
   -2.6620   22.2740  -30.9760 C   0  0  0  0  0  0  0  0  0  0  0  0
   -5.9130   24.2280  -31.5850 C   0  0  0  0  0  0  0  0  0  0  0  0
   -7.2740   20.0430  -33.5680 N   0  0  0  0  0  0  0  0  0  0  0  0
   -6.1860   19.6270  -34.2000 N   0  0  0  0  0  0  0  0  0  0  0  0
   -5.6590   18.6240  -33.4700 C   0  0  0  0  0  0  0  0  0  0  0  0
   -4.4260   17.9170  -33.8670 C   0  0  0  0  0  0  0  0  0  0  0  0
   -4.3830   17.0740  -34.9850 C   0  0  0  0  0  0  0  0  0  0  0  0
   -3.1910   16.4140  -35.2800 C   0  0  0  0  0  0  0  0  0  0  0  0
   -2.1060   16.5830  -34.4800 N   0  0  0  0  0  0  0  0  0  0  0  0
   -2.1670   17.3860  -33.3870 C   0  0  0  0  0  0  0  0  0  0  0  0
   -3.3190   18.0380  -33.0840 N   0  0  0  0  0  0  0  0  0  0  0  0
   -6.3262   17.7898  -30.3599 H   0  0  0  0  0  0  0  0  0  0  0  0
   -7.0462   16.5775  -31.4728 H   0  0  0  0  0  0  0  0  0  0  0  0
   -5.2714   16.8541  -31.4728 H   0  0  0  0  0  0  0  0  0  0  0  0
   -9.1642   20.8072  -33.2558 H   0  0  0  0  0  0  0  0  0  0  0  0
  -10.6006   20.7223  -32.1570 H   0  0  0  0  0  0  0  0  0  0  0  0
   -9.9580   22.9188  -31.8497 H   0  0  0  0  0  0  0  0  0  0  0  0
   -9.0147   22.0676  -30.5347 H   0  0  0  0  0  0  0  0  0  0  0  0
   -7.1077   21.9753  -32.2968 H   0  0  0  0  0  0  0  0  0  0  0  0
   -8.0309   23.2934  -33.1145 H   0  0  0  0  0  0  0  0  0  0  0  0
   -7.3288   24.0054  -29.0998 H   0  0  0  0  0  0  0  0  0  0  0  0
   -7.8410   22.4024  -29.6992 H   0  0  0  0  0  0  0  0  0  0  0  0
   -5.8913   21.7194  -29.2716 H   0  0  0  0  0  0  0  0  0  0  0  0
   -4.9275   24.7363  -28.9593 H   0  0  0  0  0  0  0  0  0  0  0  0
   -3.7403   23.7647  -28.7069 H   0  0  0  0  0  0  0  0  0  0  0  0
   -5.2351   22.1469  -33.2299 H   0  0  0  0  0  0  0  0  0  0  0  0
   -3.5713   20.7305  -34.4367 H   0  0  0  0  0  0  0  0  0  0  0  0
   -1.3273   20.3034  -33.4303 H   0  0  0  0  0  0  0  0  0  0  0  0
   -2.3966   22.7192  -30.0058 H   0  0  0  0  0  0  0  0  0  0  0  0
   -5.7835   25.2919  -31.3374 H   0  0  0  0  0  0  0  0  0  0  0  0
   -5.7560   24.1036  -32.6666 H   0  0  0  0  0  0  0  0  0  0  0  0
   -5.2722   16.9356  -35.6176 H   0  0  0  0  0  0  0  0  0  0  0  0
   -3.1290   15.7568  -36.1599 H   0  0  0  0  0  0  0  0  0  0  0  0
   -1.2817   17.5087  -32.7457 H   0  0  0  0  0  0  0  0  0  0  0  0
  1  2  1  0
  2  3  1  0
  3  4  1  0
  4  5  1  0
  5  6  1  0
  6  7  1  0
  7  8  1  0
  8  9  1  0
  9 10  1  0
 10 11  1  0
 11 12  1  0
 12 13  1  6
 13 14  2  0
 14 15  1  0
 15 16  2  0
 16 17  1  0
 17 18  1  0
 17 19  2  0
 12 20  1  0
  3 21  2  0
 21 22  1  0
 22 23  2  0
 23 24  1  0
 24 25  2  0
 25 26  1  0
 26 27  2  0
 27 28  1  0
 28 29  2  0
 23  2  1  0
 29 24  1  0
 20  8  1  0
 12 10  1  0
 19 13  1  0
  1 30  1  0
  1 31  1  0
  1 32  1  0
  5 33  1  0
  5 34  1  0
  6 35  1  0
  6 36  1  0
  7 37  1  0
  7 38  1  0
  9 39  1  0
  9 40  1  0
 10 41  1  1
 11 42  1  0
 11 43  1  0
 14 44  1  0
 15 45  1  0
 16 46  1  0
 19 47  1  0
 20 48  1  0
 20 49  1  0
 25 50  1  0
 26 51  1  0
 28 52  1  0
M  END
>  <UniqueID>  (1) 
1

>  <SMILES>  (1) 
Cn1c(SCCCN2C[C@@H]3C[C@]3(c3cccc(F)c3)C2)nnc1-c1ccncn1

>  <Energy>  (1) 
364.5913979383443

>  <Genealogy>  (1) 
Cn1c(SCCCN2C[C@@H]3C[C@]3(c3cccc(F)c3)C2)nnc1-c1ccncn1 (chirality)
Cn1c(SCCCN2C[C@@H]3C[C@]3(c3cccc(F)c3)C2)nnc1-c1ccncn1 (3D coordinates assigned)
Cn1c(SCCCN2C[C@@H]3C[C@]3(c3cccc(F)c3)C2)nnc1-c1ccncn1 (nonaromatic ring conformer: 364.5913979383443 kcal/mol)

>  <smiles>  (1) 
Cn1c(SCCCN2CC3CC3(c3cccc(F)c3)C2)nnc1-c1ccncn1

>  <score_type>  (1) 
oracle

>  <origin>  (1) 
adg

>  <m_score__min__energy>  (1) 
-10.09

>  <m_primary>  (1) 
energy

$$$$
1:0
     RDKit          3D

 45 48  0  0  0  0  0  0  0  0999 V2000
   -0.3060   20.8620  -31.3370 C   0  0  0  0  0  0  0  0  0  0  0  0
   -1.3150   20.9870  -30.2890 N   0  0  0  0  0  0  0  0  0  0  0  0
   -2.2720   21.9070  -30.2760 N   0  0  0  0  0  0  0  0  0  0  0  0
   -2.9750   21.8000  -29.1240 C   0  0  0  0  0  0  0  0  0  0  0  0
   -4.1470   22.6670  -28.7660 C   0  0  0  0  0  0  0  0  0  0  0  0
   -3.9960   24.0790  -29.3500 C   0  0  0  0  0  0  0  0  0  0  0  0
   -3.9940   24.0840  -30.8260 N   0  0  0  0  0  0  0  0  0  0  0  0
   -5.3360   23.9460  -31.4140 C   0  0  0  0  0  0  0  0  0  0  0  0
   -5.5640   22.5580  -31.9930 C   0  0  0  0  0  0  0  0  0  0  0  0
   -4.4480   21.9050  -32.5440 C   0  0  0  0  0  0  0  0  0  0  0  0
   -4.5770   20.6350  -33.0960 C   0  0  0  0  0  0  0  0  0  0  0  0
   -5.7810   20.0150  -33.1070 N   0  0  0  0  0  0  0  0  0  0  0  0
   -6.8920   20.5970  -32.5900 C   0  0  0  0  0  0  0  0  0  0  0  0
   -8.1070   19.9040  -32.6330 C   0  0  0  0  0  0  0  0  0  0  0  0
   -9.2650   20.4830  -32.1180 C   0  0  0  0  0  0  0  0  0  0  0  0
   -9.2150   21.7530  -31.5460 C   0  0  0  0  0  0  0  0  0  0  0  0
   -8.0080   22.4550  -31.4840 C   0  0  0  0  0  0  0  0  0  0  0  0
   -6.8220   21.8950  -32.0130 C   0  0  0  0  0  0  0  0  0  0  0  0
   -2.4300   20.7650  -28.3850 C   0  0  0  0  0  0  0  0  0  0  0  0
   -2.7460   20.2240  -27.1390 C   0  0  0  0  0  0  0  0  0  0  0  0
   -1.9600   19.1540  -26.6740 C   0  0  0  0  0  0  0  0  0  0  0  0
   -0.8860   18.6620  -27.4490 C   0  0  0  0  0  0  0  0  0  0  0  0
   -0.5850   19.2330  -28.7000 C   0  0  0  0  0  0  0  0  0  0  0  0
   -1.3890   20.2880  -29.1410 C   0  0  0  0  0  0  0  0  0  0  0  0
    0.6861   20.7391  -30.8780 H   0  0  0  0  0  0  0  0  0  0  0  0
   -0.5324   19.9850  -31.9612 H   0  0  0  0  0  0  0  0  0  0  0  0
   -0.3116   21.7677  -31.9612 H   0  0  0  0  0  0  0  0  0  0  0  0
   -2.4400   22.6040  -31.0370 H   0  0  0  0  0  0  0  0  0  0  0  0
   -5.0651   22.2108  -29.1646 H   0  0  0  0  0  0  0  0  0  0  0  0
   -4.1966   22.7482  -27.6701 H   0  0  0  0  0  0  0  0  0  0  0  0
   -4.8336   24.6982  -28.9965 H   0  0  0  0  0  0  0  0  0  0  0  0
   -3.0275   24.4776  -29.0135 H   0  0  0  0  0  0  0  0  0  0  0  0
   -3.5100   24.9220  -31.2240 H   0  0  0  0  0  0  0  0  0  0  0  0
   -6.0872   24.1326  -30.6324 H   0  0  0  0  0  0  0  0  0  0  0  0
   -5.4248   24.6748  -32.2331 H   0  0  0  0  0  0  0  0  0  0  0  0
   -3.4664   22.4015  -32.5386 H   0  0  0  0  0  0  0  0  0  0  0  0
   -3.6978   20.1322  -33.5253 H   0  0  0  0  0  0  0  0  0  0  0  0
   -8.1480   18.8977  -33.0753 H   0  0  0  0  0  0  0  0  0  0  0  0
  -10.2192   19.9375  -32.1629 H   0  0  0  0  0  0  0  0  0  0  0  0
  -10.1318   22.2059  -31.1406 H   0  0  0  0  0  0  0  0  0  0  0  0
   -7.9803   23.4518  -31.0197 H   0  0  0  0  0  0  0  0  0  0  0  0
   -3.5802   20.6199  -26.5411 H   0  0  0  0  0  0  0  0  0  0  0  0
   -2.1834   18.6966  -25.6989 H   0  0  0  0  0  0  0  0  0  0  0  0
   -0.2797   17.8254  -27.0715 H   0  0  0  0  0  0  0  0  0  0  0  0
    0.2529   18.8623  -29.3087 H   0  0  0  0  0  0  0  0  0  0  0  0
  1  2  1  0
  2  3  1  0
  3  4  2  0
  4  5  1  0
  5  6  1  0
  6  7  1  0
  7  8  1  0
  8  9  1  0
  9 10  2  0
 10 11  1  0
 11 12  2  0
 12 13  1  0
 13 14  2  0
 14 15  1  0
 15 16  2  0
 16 17  1  0
 17 18  2  0
  4 19  1  0
 19 20  2  0
 20 21  1  0
 21 22  2  0
 22 23  1  0
 23 24  2  0
 24  2  1  0
 18  9  1  0
 24 19  1  0
 18 13  1  0
  1 25  1  0
  1 26  1  0
  1 27  1  0
  3 28  1  0
  5 29  1  0
  5 30  1  0
  6 31  1  0
  6 32  1  0
  7 33  1  0
  8 34  1  0
  8 35  1  0
 10 36  1  0
 11 37  1  0
 14 38  1  0
 15 39  1  0
 16 40  1  0
 17 41  1  0
 20 42  1  0
 21 43  1  0
 22 44  1  0
 23 45  1  0
M  CHG  1   3   1
M  END
>  <UniqueID>  (2) 
2

>  <SMILES>  (2) 
Cn1[nH+]c(CCNCc2ccnc3ccccc23)c2ccccc21

>  <Energy>  (2) 
88.4834650189947

>  <Genealogy>  (2) 
Cn1[nH+]c(CCNCc2ccnc3ccccc23)c2ccccc21 (protonated)
Cn1[nH+]c(CCNCc2ccnc3ccccc23)c2ccccc21 (3D coordinates assigned)
Cn1[nH+]c(CCNCc2ccnc3ccccc23)c2ccccc21 (optimized conformer: 88.4834650189947 kcal/mol)

>  <smiles>  (2) 
Cn1nc(CCNCc2ccnc3ccccc23)c2ccccc21

>  <score_type>  (2) 
oracle

>  <origin>  (2) 
adg

>  <m_score__min__energy>  (2) 
-8.9399999999999995

>  <m_primary>  (2) 
energy

$$$$
2:0
     RDKit          3D

 48 49  0  0  0  0  0  0  0  0999 V2000
   -1.7650   25.7080  -26.5700 C   0  0  0  0  0  0  0  0  0  0  0  0
   -1.0260   26.3730  -27.7260 C   0  0  0  0  0  0  0  0  0  0  0  0
   -1.5930   25.9750  -28.9600 O   0  0  0  0  0  0  0  0  0  0  0  0
   -1.4330   24.5840  -29.1490 C   0  0  0  0  0  0  0  0  0  0  0  0
   -2.7870   23.9420  -29.4450 C   0  0  0  0  0  0  0  0  0  0  0  0
   -3.4930   24.7000  -30.4900 N   0  0  0  0  0  0  0  0  0  0  0  0
   -4.9460   24.7590  -30.2280 C   0  0  0  0  0  0  0  0  0  0  0  0
   -5.7410   24.6580  -31.5560 C   0  0  0  0  0  0  0  0  0  0  0  0
   -5.9850   23.1950  -31.9500 C   0  0  0  0  0  0  0  0  0  0  0  0
   -6.7420   22.4410  -30.9140 N   0  0  0  0  0  0  0  0  0  0  0  0
   -8.0860   21.9620  -31.3250 C   0  0  1  0  0  0  0  0  0  0  0  0
   -8.8280   22.9380  -32.2660 C   0  0  0  0  0  0  0  0  0  0  0  0
   -7.9900   20.5390  -31.8570 C   0  0  0  0  0  0  0  0  0  0  0  0
   -8.8750   19.5700  -31.3480 C   0  0  0  0  0  0  0  0  0  0  0  0
   -8.7990   18.2420  -31.7750 C   0  0  0  0  0  0  0  0  0  0  0  0
   -7.8310   17.8600  -32.7050 C   0  0  0  0  0  0  0  0  0  0  0  0
   -6.9310   18.8040  -33.2040 C   0  0  0  0  0  0  0  0  0  0  0  0
   -5.6000   18.2780  -34.4710 Br  0  0  0  0  0  0  0  0  0  0  0  0
   -7.0020   20.1350  -32.7800 C   0  0  0  0  0  0  0  0  0  0  0  0
   -6.7350   23.0510  -29.5640 C   0  0  0  0  0  0  0  0  0  0  0  0
   -5.3580   23.6350  -29.2380 C   0  0  0  0  0  0  0  0  0  0  0  0
   -1.3582   26.0740  -25.6158 H   0  0  0  0  0  0  0  0  0  0  0  0
   -2.8357   25.9527  -26.6301 H   0  0  0  0  0  0  0  0  0  0  0  0
   -1.6342   24.6175  -26.6301 H   0  0  0  0  0  0  0  0  0  0  0  0
   -1.1028   27.4658  -27.6261 H   0  0  0  0  0  0  0  0  0  0  0  0
    0.0305   26.0677  -27.7006 H   0  0  0  0  0  0  0  0  0  0  0  0
   -0.7522   24.4064  -29.9946 H   0  0  0  0  0  0  0  0  0  0  0  0
   -1.0129   24.1396  -28.2347 H   0  0  0  0  0  0  0  0  0  0  0  0
   -2.6315   22.9086  -29.7884 H   0  0  0  0  0  0  0  0  0  0  0  0
   -3.3938   23.9464  -28.5275 H   0  0  0  0  0  0  0  0  0  0  0  0
   -3.1090   25.6740  -30.4600 H   0  0  0  0  0  0  0  0  0  0  0  0
   -5.1863   25.7274  -29.7649 H   0  0  0  0  0  0  0  0  0  0  0  0
   -6.7107   25.1623  -31.4323 H   0  0  0  0  0  0  0  0  0  0  0  0
   -5.1513   25.1379  -32.3510 H   0  0  0  0  0  0  0  0  0  0  0  0
   -6.5572   23.1740  -32.8892 H   0  0  0  0  0  0  0  0  0  0  0  0
   -5.0029   22.7122  -32.0618 H   0  0  0  0  0  0  0  0  0  0  0  0
   -8.7263   21.9367  -30.4309 H   0  0  0  0  0  0  0  0  0  0  0  0
   -9.3862   23.6722  -31.6665 H   0  0  0  0  0  0  0  0  0  0  0  0
   -8.0980   23.4618  -32.9006 H   0  0  0  0  0  0  0  0  0  0  0  0
   -9.5279   22.3747  -32.9006 H   0  0  0  0  0  0  0  0  0  0  0  0
   -9.6338   19.8612  -30.6068 H   0  0  0  0  0  0  0  0  0  0  0  0
   -9.5032   17.4962  -31.3776 H   0  0  0  0  0  0  0  0  0  0  0  0
   -7.7770   16.8152  -33.0450 H   0  0  0  0  0  0  0  0  0  0  0  0
   -6.2832   20.8714  -33.1685 H   0  0  0  0  0  0  0  0  0  0  0  0
   -7.4853   23.8546  -29.5276 H   0  0  0  0  0  0  0  0  0  0  0  0
   -6.9716   22.2721  -28.8241 H   0  0  0  0  0  0  0  0  0  0  0  0
   -5.3821   24.0512  -28.2201 H   0  0  0  0  0  0  0  0  0  0  0  0
   -4.6195   22.8241  -29.3226 H   0  0  0  0  0  0  0  0  0  0  0  0
  1  2  1  0
  2  3  1  0
  3  4  1  0
  4  5  1  0
  5  6  1  0
  6  7  1  0
  7  8  1  0
  8  9  1  0
  9 10  1  0
 10 11  1  0
 11 12  1  0
 11 13  1  0
 13 14  2  0
 14 15  1  0
 15 16  2  0
 16 17  1  0
 17 18  1  0
 17 19  2  0
 10 20  1  0
 20 21  1  0
 21  7  1  0
 19 13  1  0
  1 22  1  0
  1 23  1  0
  1 24  1  0
  2 25  1  0
  2 26  1  0
  4 27  1  0
  4 28  1  0
  5 29  1  0
  5 30  1  0
  6 31  1  0
  7 32  1  0
  8 33  1  0
  8 34  1  0
  9 35  1  0
  9 36  1  0
 11 37  1  1
 12 38  1  0
 12 39  1  0
 12 40  1  0
 14 41  1  0
 15 42  1  0
 16 43  1  0
 19 44  1  0
 20 45  1  0
 20 46  1  0
 21 47  1  0
 21 48  1  0
M  END
>  <UniqueID>  (3) 
3

>  <SMILES>  (3) 
CCOCCNC1CCN([C@@H](C)c2cccc(Br)c2)CC1

>  <Energy>  (3) 
57.24508215967471

>  <Genealogy>  (3) 
CCOCCNC1CCN([C@@H](C)c2cccc(Br)c2)CC1 (chirality)
CCOCCNC1CCN([C@@H](C)c2cccc(Br)c2)CC1 (3D coordinates assigned)
CCOCCNC1CCN([C@@H](C)c2cccc(Br)c2)CC1 (nonaromatic ring conformer: 57.24508215967471 kcal/mol)

>  <smiles>  (3) 
CCOCCNC1CCN(C(C)c2cccc(Br)c2)CC1

>  <score_type>  (3) 
oracle

>  <origin>  (3) 
adg

>  <m_score__min__energy>  (3) 
-9.4000000000000004

>  <m_primary>  (3) 
energy

$$$$
3:0
     RDKit          3D

 75 78  0  0  0  0  0  0  0  0999 V2000
   -1.6540   20.7550  -27.8250 C   0  0  0  0  0  0  0  0  0  0  0  0
   -0.9930   20.4020  -29.0820 N   0  0  0  0  0  0  0  0  0  0  0  0
   -0.7080   21.5950  -29.8960 C   0  0  0  0  0  0  0  0  0  0  0  0
   -0.5660   21.2520  -31.3910 C   0  0  0  0  0  0  0  0  0  0  0  0
   -1.9070   21.0190  -32.1020 C   0  0  0  0  0  0  0  0  0  0  0  0
   -2.9430   20.5720  -31.1690 N   0  0  0  0  0  0  0  0  0  0  0  0
   -4.2870   21.0880  -31.2040 C   0  0  0  0  0  0  0  0  0  0  0  0
   -5.3180   20.3450  -31.8100 C   0  0  0  0  0  0  0  0  0  0  0  0
   -5.0450   19.1230  -32.4620 C   0  0  0  0  0  0  0  0  0  0  0  0
   -6.0640   18.4080  -33.0890 C   0  0  0  0  0  0  0  0  0  0  0  0
   -7.3630   18.8990  -33.0870 C   0  0  0  0  0  0  0  0  0  0  0  0
   -7.6600   20.0920  -32.4300 C   0  0  0  0  0  0  0  0  0  0  0  0
   -6.6550   20.8220  -31.7460 C   0  0  0  0  0  0  0  0  0  0  0  0
   -6.9460   21.9690  -31.0320 N   0  0  0  0  0  0  0  0  0  0  0  0
   -8.3500   22.2980  -30.6980 C   0  0  0  0  0  0  0  0  0  0  0  0
   -5.9240   22.8030  -30.6180 C   0  0  0  0  0  0  0  0  0  0  0  0
   -6.1800   24.1120  -30.1410 C   0  0  0  0  0  0  0  0  0  0  0  0
   -5.1430   24.9400  -29.7110 C   0  0  0  0  0  0  0  0  0  0  0  0
   -3.8150   24.5020  -29.7680 C   0  0  0  0  0  0  0  0  0  0  0  0
   -2.7320   25.2930  -29.3490 O   0  0  0  0  0  0  0  0  0  0  0  0
   -1.7710   24.9310  -28.3570 C   0  0  0  0  0  0  0  0  0  0  0  0
   -2.3140   25.2520  -26.9410 C   0  0  0  0  0  0  0  0  0  0  0  0
   -1.2930   25.5710  -25.8850 N   0  0  0  0  0  0  0  0  0  0  0  0
   -0.8220   24.2580  -25.3600 C   0  0  0  0  0  0  0  0  0  0  0  0
   -0.1430   26.3030  -26.4900 C   0  0  0  0  0  0  0  0  0  0  0  0
    0.8850   26.8120  -25.4520 C   0  0  0  0  0  0  0  0  0  0  0  0
    0.2710   27.6000  -24.3480 N   0  0  0  0  0  0  0  0  0  0  0  0
    1.2980   27.8210  -23.3000 C   0  0  0  0  0  0  0  0  0  0  0  0
   -0.1680   28.9340  -24.8350 C   0  0  0  0  0  0  0  0  0  0  0  0
   -0.8640   26.8540  -23.7380 C   0  0  0  0  0  0  0  0  0  0  0  0
   -1.8980   26.3670  -24.7770 C   0  0  0  0  0  0  0  0  0  0  0  0
   -3.5410   23.2350  -30.2800 C   0  0  0  0  0  0  0  0  0  0  0  0
   -4.5760   22.3670  -30.6900 C   0  0  0  0  0  0  0  0  0  0  0  0
   -1.0338   20.4238  -26.9790 H   0  0  0  0  0  0  0  0  0  0  0  0
   -1.7894   21.8455  -27.7756 H   0  0  0  0  0  0  0  0  0  0  0  0
   -2.6356   20.2610  -27.7756 H   0  0  0  0  0  0  0  0  0  0  0  0
   -0.0790   19.9520  -28.8380 H   0  0  0  0  0  0  0  0  0  0  0  0
   -1.5314   22.3140  -29.7731 H   0  0  0  0  0  0  0  0  0  0  0  0
    0.2463   22.0210  -29.5526 H   0  0  0  0  0  0  0  0  0  0  0  0
   -0.0484   22.0843  -31.8904 H   0  0  0  0  0  0  0  0  0  0  0  0
   -0.0023   20.3094  -31.4520 H   0  0  0  0  0  0  0  0  0  0  0  0
   -2.2307   21.9603  -32.5702 H   0  0  0  0  0  0  0  0  0  0  0  0
   -1.7629   20.2326  -32.8576 H   0  0  0  0  0  0  0  0  0  0  0  0
   -2.6560   19.9590  -30.3710 H   0  0  0  0  0  0  0  0  0  0  0  0
   -4.0173   18.7310  -32.4754 H   0  0  0  0  0  0  0  0  0  0  0  0
   -5.8388   17.4530  -33.5863 H   0  0  0  0  0  0  0  0  0  0  0  0
   -8.1596   18.3451  -33.6052 H   0  0  0  0  0  0  0  0  0  0  0  0
   -8.6916   20.4737  -32.4424 H   0  0  0  0  0  0  0  0  0  0  0  0
   -8.4699   22.3261  -29.6049 H   0  0  0  0  0  0  0  0  0  0  0  0
   -8.6068   23.2807  -31.1204 H   0  0  0  0  0  0  0  0  0  0  0  0
   -9.0166   21.5317  -31.1204 H   0  0  0  0  0  0  0  0  0  0  0  0
   -7.2153   24.4823  -30.1091 H   0  0  0  0  0  0  0  0  0  0  0  0
   -5.3707   25.9443  -29.3244 H   0  0  0  0  0  0  0  0  0  0  0  0
   -1.5620   23.8535  -28.4301 H   0  0  0  0  0  0  0  0  0  0  0  0
   -0.8483   25.5056  -28.5256 H   0  0  0  0  0  0  0  0  0  0  0  0
   -2.9848   26.1193  -27.0295 H   0  0  0  0  0  0  0  0  0  0  0  0
   -2.8032   24.3271  -26.6014 H   0  0  0  0  0  0  0  0  0  0  0  0
   -0.8295   24.2788  -24.2602 H   0  0  0  0  0  0  0  0  0  0  0  0
   -1.4899   23.4598  -25.7162 H   0  0  0  0  0  0  0  0  0  0  0  0
    0.2009   24.0663  -25.7162 H   0  0  0  0  0  0  0  0  0  0  0  0
    0.3727   25.6252  -27.1861 H   0  0  0  0  0  0  0  0  0  0  0  0
   -0.5555   27.1888  -26.9953 H   0  0  0  0  0  0  0  0  0  0  0  0
    1.3993   25.9430  -25.0157 H   0  0  0  0  0  0  0  0  0  0  0  0
    1.5773   27.4821  -25.9827 H   0  0  0  0  0  0  0  0  0  0  0  0
    0.8357   27.7215  -22.3068 H   0  0  0  0  0  0  0  0  0  0  0  0
    2.0988   27.0746  -23.4081 H   0  0  0  0  0  0  0  0  0  0  0  0
    1.7209   28.8307  -23.4081 H   0  0  0  0  0  0  0  0  0  0  0  0
   -0.3825   29.5858  -23.9753 H   0  0  0  0  0  0  0  0  0  0  0  0
    0.6300   29.3824  -25.4451 H   0  0  0  0  0  0  0  0  0  0  0  0
   -1.0763   28.8209  -25.4451 H   0  0  0  0  0  0  0  0  0  0  0  0
   -0.4622   25.9784  -23.2071 H   0  0  0  0  0  0  0  0  0  0  0  0
   -1.3832   27.5457  -23.0583 H   0  0  0  0  0  0  0  0  0  0  0  0
   -2.6411   25.7401  -24.2624 H   0  0  0  0  0  0  0  0  0  0  0  0
   -2.3513   27.2616  -25.2289 H   0  0  0  0  0  0  0  0  0  0  0  0
   -2.4955   22.9042  -30.3665 H   0  0  0  0  0  0  0  0  0  0  0  0
  1  2  1  0
  2  3  1  0
  3  4  1  0
  4  5  1  0
  5  6  1  0
  6  7  1  0
  7  8  2  0
  8  9  1  0
  9 10  2  0
 10 11  1  0
 11 12  2  0
 12 13  1  0
 13 14  2  0
 14 15  1  0
 14 16  1  0
 16 17  2  0
 17 18  1  0
 18 19  2  0
 19 20  1  0
 20 21  1  0
 21 22  1  0
 22 23  1  0
 23 24  1  0
 23 25  1  0
 25 26  1  0
 26 27  1  0
 27 28  1  0
 27 29  1  0
 27 30  1  0
 30 31  1  0
 19 32  1  0
 32 33  2  0
 33  7  1  0
 13  8  1  0
 33 16  1  0
 31 23  1  0
  1 34  1  0
  1 35  1  0
  1 36  1  0
  2 37  1  0
  3 38  1  0
  3 39  1  0
  4 40  1  0
  4 41  1  0
  5 42  1  0
  5 43  1  0
  6 44  1  0
  9 45  1  0
 10 46  1  0
 11 47  1  0
 12 48  1  0
 15 49  1  0
 15 50  1  0
 15 51  1  0
 17 52  1  0
 18 53  1  0
 21 54  1  0
 21 55  1  0
 22 56  1  0
 22 57  1  0
 24 58  1  0
 24 59  1  0
 24 60  1  0
 25 61  1  0
 25 62  1  0
 26 63  1  0
 26 64  1  0
 28 65  1  0
 28 66  1  0
 28 67  1  0
 29 68  1  0
 29 69  1  0
 29 70  1  0
 30 71  1  0
 30 72  1  0
 31 73  1  0
 31 74  1  0
 32 75  1  0
M  CHG  3  14   1  23   1  27   1
M  END
>  <UniqueID>  (4) 
4

>  <SMILES>  (4) 
CNCCCNc1c2ccccc2[n+](C)c2ccc(OCC[N+]3(C)CC[N+](C)(C)CC3)cc12

>  <Energy>  (4) 
119.47394118768251

>  <Genealogy>  (4) 
CNCCCNc1c2ccccc2[n+](C)c2ccc(OCC[N+]3(C)CC[N+](C)(C)CC3)cc12 (3D coordinates assigned)
CNCCCNc1c2ccccc2[n+](C)c2ccc(OCC[N+]3(C)CC[N+](C)(C)CC3)cc12 (nonaromatic ring conformer: 119.47394118768251 kcal/mol)

>  <smiles>  (4) 
CNCCCNc1c2ccccc2[n+](C)c2ccc(OCC[N+]3(C)CC[N+](C)(C)CC3)cc12

>  <score_type>  (4) 
oracle

>  <origin>  (4) 
adg

>  <m_score__min__energy>  (4) 
-8.8100000000000005

>  <m_primary>  (4) 
energy

$$$$
4:0
     RDKit          3D

 59 62  0  0  0  0  0  0  0  0999 V2000
   -1.7420   20.4570  -28.9970 C   0  0  0  0  0  0  0  0  0  0  0  0
   -0.4460   19.7500  -29.3620 C   0  0  0  0  0  0  0  0  0  0  0  0
   -0.5210   19.3030  -30.7030 O   0  0  0  0  0  0  0  0  0  0  0  0
    0.4660   19.8960  -31.4520 N   0  0  0  0  0  0  0  0  0  0  0  0
    0.9650   18.9360  -32.4400 C   0  0  0  0  0  0  0  0  0  0  0  0
    0.7200   19.4520  -33.8610 C   0  0  0  0  0  0  0  0  0  0  0  0
    0.3690   20.9440  -33.8530 C   0  0  0  0  0  0  0  0  0  0  0  0
   -1.1510   21.1540  -33.8090 C   0  0  0  0  0  0  0  0  0  0  0  0
   -1.7340   20.4930  -32.6310 N   0  0  0  0  0  0  0  0  0  0  0  0
   -3.1840   20.5460  -32.6860 C   0  0  0  0  0  0  0  0  0  0  0  0
   -3.8680   21.5770  -32.0350 C   0  0  0  0  0  0  0  0  0  0  0  0
   -5.2500   21.6660  -32.0760 C   0  0  0  0  0  0  0  0  0  0  0  0
   -6.0210   20.6970  -32.6770 N   0  0  0  0  0  0  0  0  0  0  0  0
   -7.4850   20.6880  -32.4860 C   0  0  0  0  0  0  0  0  0  0  0  0
   -7.9210   19.4960  -31.6320 C   0  0  0  0  0  0  0  0  0  0  0  0
   -5.3860   19.7060  -33.4170 C   0  0  0  0  0  0  0  0  0  0  0  0
   -6.1210   18.7620  -34.1830 C   0  0  0  0  0  0  0  0  0  0  0  0
   -5.4780   17.7700  -34.9200 C   0  0  0  0  0  0  0  0  0  0  0  0
   -4.0940   17.6890  -34.9270 C   0  0  0  0  0  0  0  0  0  0  0  0
   -3.3360   18.5990  -34.1990 C   0  0  0  0  0  0  0  0  0  0  0  0
   -3.9530   19.6160  -33.4340 C   0  0  0  0  0  0  0  0  0  0  0  0
   -5.6340   22.8910  -31.3360 C   0  0  0  0  0  0  0  0  0  0  0  0
   -6.8580   23.5670  -31.1770 C   0  0  0  0  0  0  0  0  0  0  0  0
   -6.8870   24.7620  -30.4440 C   0  0  0  0  0  0  0  0  0  0  0  0
   -5.7070   25.2970  -29.9050 C   0  0  0  0  0  0  0  0  0  0  0  0
   -4.4830   24.6480  -30.1100 C   0  0  0  0  0  0  0  0  0  0  0  0
   -4.4700   23.4540  -30.8330 C   0  0  0  0  0  0  0  0  0  0  0  0
   -3.2600   22.6780  -31.2170 C   0  0  0  0  0  0  0  0  0  0  0  0
   -1.8360   20.5083  -27.9022 H   0  0  0  0  0  0  0  0  0  0  0  0
   -1.7336   21.4755  -29.4124 H   0  0  0  0  0  0  0  0  0  0  0  0
   -2.5939   19.8986  -29.4124 H   0  0  0  0  0  0  0  0  0  0  0  0
    0.3971   20.4482  -29.2536 H   0  0  0  0  0  0  0  0  0  0  0  0
   -0.2937   18.8896  -28.6938 H   0  0  0  0  0  0  0  0  0  0  0  0
    1.2650   20.2740  -30.8850 H   0  0  0  0  0  0  0  0  0  0  0  0
    2.0447   18.7897  -32.2892 H   0  0  0  0  0  0  0  0  0  0  0  0
    0.4313   17.9829  -32.3108 H   0  0  0  0  0  0  0  0  0  0  0  0
    1.6298   19.3001  -34.4603 H   0  0  0  0  0  0  0  0  0  0  0  0
   -0.1250   18.8964  -34.2938 H   0  0  0  0  0  0  0  0  0  0  0  0
    0.8225   21.4150  -32.9684 H   0  0  0  0  0  0  0  0  0  0  0  0
    0.7580   21.3993  -34.7757 H   0  0  0  0  0  0  0  0  0  0  0  0
   -1.3653   22.2319  -33.7610 H   0  0  0  0  0  0  0  0  0  0  0  0
   -1.5946   20.7163  -34.7155 H   0  0  0  0  0  0  0  0  0  0  0  0
   -1.3870   20.9690  -31.7670 H   0  0  0  0  0  0  0  0  0  0  0  0
   -1.4040   19.5050  -32.5520 H   0  0  0  0  0  0  0  0  0  0  0  0
   -7.7878   21.6191  -31.9847 H   0  0  0  0  0  0  0  0  0  0  0  0
   -7.9658   20.6062  -33.4720 H   0  0  0  0  0  0  0  0  0  0  0  0
   -7.8266   19.7540  -30.5669 H   0  0  0  0  0  0  0  0  0  0  0  0
   -8.9684   19.2470  -31.8575 H   0  0  0  0  0  0  0  0  0  0  0  0
   -7.2815   18.6299  -31.8575 H   0  0  0  0  0  0  0  0  0  0  0  0
   -7.2196   18.8154  -34.1944 H   0  0  0  0  0  0  0  0  0  0  0  0
   -6.0714   17.0473  -35.4993 H   0  0  0  0  0  0  0  0  0  0  0  0
   -3.5940   16.9020  -35.5106 H   0  0  0  0  0  0  0  0  0  0  0  0
   -2.2385   18.5269  -34.2183 H   0  0  0  0  0  0  0  0  0  0  0  0
   -7.7796   23.1634  -31.6217 H   0  0  0  0  0  0  0  0  0  0  0  0
   -7.8427   25.2844  -30.2902 H   0  0  0  0  0  0  0  0  0  0  0  0
   -5.7435   26.2280  -29.3203 H   0  0  0  0  0  0  0  0  0  0  0  0
   -3.5500   25.0709  -29.7091 H   0  0  0  0  0  0  0  0  0  0  0  0
   -2.5636   23.2859  -31.8133 H   0  0  0  0  0  0  0  0  0  0  0  0
   -2.6585   22.3283  -30.3650 H   0  0  0  0  0  0  0  0  0  0  0  0
  1  2  1  0
  2  3  1  0
  3  4  1  0
  4  5  1  0
  5  6  1  0
  6  7  1  0
  7  8  1  0
  8  9  1  0
  9 10  1  0
 10 11  2  0
 11 12  1  0
 12 13  2  0
 13 14  1  0
 14 15  1  0
 13 16  1  0
 16 17  2  0
 17 18  1  0
 18 19  2  0
 19 20  1  0
 20 21  2  0
 12 22  1  0
 22 23  2  0
 23 24  1  0
 24 25  2  0
 25 26  1  0
 26 27  2  0
 27 28  1  0
 21 10  1  0
 27 22  1  0
 28 11  1  0
 21 16  1  0
  1 29  1  0
  1 30  1  0
  1 31  1  0
  2 32  1  0
  2 33  1  0
  4 34  1  0
  5 35  1  0
  5 36  1  0
  6 37  1  0
  6 38  1  0
  7 39  1  0
  7 40  1  0
  8 41  1  0
  8 42  1  0
  9 43  1  0
  9 44  1  0
 14 45  1  0
 14 46  1  0
 15 47  1  0
 15 48  1  0
 15 49  1  0
 17 50  1  0
 18 51  1  0
 19 52  1  0
 20 53  1  0
 23 54  1  0
 24 55  1  0
 25 56  1  0
 26 57  1  0
 28 58  1  0
 28 59  1  0
M  CHG  2   9   1  13   1
M  END
>  <UniqueID>  (5) 
5

>  <SMILES>  (5) 
CCONCCCC[NH2+]c1c2c([n+](CC)c3ccccc13)-c1ccccc1C2

>  <Energy>  (5) 
97.18055620694112

>  <Genealogy>  (5) 
CCONCCCC[NH2+]c1c2c([n+](CC)c3ccccc13)-c1ccccc1C2 (protonated)
CCONCCCC[NH2+]c1c2c([n+](CC)c3ccccc13)-c1ccccc1C2 (3D coordinates assigned)
CCONCCCC[NH2+]c1c2c([n+](CC)c3ccccc13)-c1ccccc1C2 (nonaromatic ring conformer: 97.18055620694112 kcal/mol)

>  <smiles>  (5) 
CCONCCCCNc1c2c([n+](CC)c3ccccc13)-c1ccccc1C2

>  <score_type>  (5) 
oracle

>  <origin>  (5) 
adg

>  <m_score__min__energy>  (5) 
-9.6199999999999992

>  <m_primary>  (5) 
energy

$$$$
5:0
     RDKit          3D

 42 45  0  0  0  0  0  0  0  0999 V2000
   -9.4730   18.1830  -31.9590 C   0  0  0  0  0  0  0  0  0  0  0  0
   -9.5800   19.4900  -32.7370 C   0  0  0  0  0  0  0  0  0  0  0  0
   -8.5730   20.4880  -32.2420 C   0  0  0  0  0  0  0  0  0  0  0  0
   -8.8430   21.6530  -31.5460 C   0  0  0  0  0  0  0  0  0  0  0  0
   -7.6910   22.3250  -31.3090 N   0  0  0  0  0  0  0  0  0  0  0  0
   -6.7490   21.5500  -31.8850 C   0  0  0  0  0  0  0  0  0  0  0  0
   -5.3760   21.7980  -31.9200 C   0  0  0  0  0  0  0  0  0  0  0  0
   -4.8000   22.9740  -31.3330 N   0  0  0  0  0  0  0  0  0  0  0  0
   -5.4500   24.2740  -31.5260 C   0  0  0  0  0  0  0  0  0  0  0  0
   -5.0260   25.2340  -30.4110 C   0  0  0  0  0  0  0  0  0  0  0  0
   -3.6150   25.2930  -30.3090 O   0  0  0  0  0  0  0  0  0  0  0  0
   -3.1080   24.0300  -29.9150 C   0  0  0  0  0  0  0  0  0  0  0  0
   -3.3750   22.9770  -30.9940 C   0  0  0  0  0  0  0  0  0  0  0  0
   -4.5800   20.8680  -32.5260 N   0  0  0  0  0  0  0  0  0  0  0  0
   -5.0790   19.7300  -33.1050 C   0  0  0  0  0  0  0  0  0  0  0  0
   -4.1430   18.7770  -33.7600 C   0  0  0  0  0  0  0  0  0  0  0  0
   -4.6450   17.6590  -34.4510 C   0  0  0  0  0  0  0  0  0  0  0  0
   -3.7750   16.7640  -35.0750 C   0  0  0  0  0  0  0  0  0  0  0  0
   -2.4010   16.9910  -35.0110 C   0  0  0  0  0  0  0  0  0  0  0  0
   -1.9220   18.0800  -34.3560 N   0  0  0  0  0  0  0  0  0  0  0  0
   -2.7470   18.9680  -33.7400 C   0  0  0  0  0  0  0  0  0  0  0  0
   -6.4740   19.5130  -33.0750 C   0  0  0  0  0  0  0  0  0  0  0  0
   -7.2460   20.4400  -32.4500 N   0  0  0  0  0  0  0  0  0  0  0  0
   -9.4904   18.3961  -30.8800 H   0  0  0  0  0  0  0  0  0  0  0  0
  -10.3208   17.5317  -32.2179 H   0  0  0  0  0  0  0  0  0  0  0  0
   -8.5305   17.6783  -32.2179 H   0  0  0  0  0  0  0  0  0  0  0  0
   -9.3969   19.2912  -33.8033 H   0  0  0  0  0  0  0  0  0  0  0  0
  -10.5885   19.9050  -32.5930 H   0  0  0  0  0  0  0  0  0  0  0  0
   -9.8439   21.9841  -31.2320 H   0  0  0  0  0  0  0  0  0  0  0  0
   -5.1526   24.6905  -32.4997 H   0  0  0  0  0  0  0  0  0  0  0  0
   -6.5418   24.1429  -31.4980 H   0  0  0  0  0  0  0  0  0  0  0  0
   -5.4140   26.2390  -30.6333 H   0  0  0  0  0  0  0  0  0  0  0  0
   -5.4339   24.8689  -29.4569 H   0  0  0  0  0  0  0  0  0  0  0  0
   -2.0233   24.1118  -29.7513 H   0  0  0  0  0  0  0  0  0  0  0  0
   -3.6126   23.7209  -28.9877 H   0  0  0  0  0  0  0  0  0  0  0  0
   -2.7853   23.2145  -31.8917 H   0  0  0  0  0  0  0  0  0  0  0  0
   -3.0863   21.9849  -30.6168 H   0  0  0  0  0  0  0  0  0  0  0  0
   -5.7307   17.4892  -34.4997 H   0  0  0  0  0  0  0  0  0  0  0  0
   -4.1692   15.8885  -35.6118 H   0  0  0  0  0  0  0  0  0  0  0  0
   -1.7046   16.2878  -35.4912 H   0  0  0  0  0  0  0  0  0  0  0  0
   -2.3221   19.8409  -33.2228 H   0  0  0  0  0  0  0  0  0  0  0  0
   -6.9208   18.6230  -33.5421 H   0  0  0  0  0  0  0  0  0  0  0  0
  1  2  1  0
  2  3  1  0
  3  4  2  0
  4  5  1  0
  5  6  2  0
  6  7  1  0
  7  8  1  0
  8  9  1  0
  9 10  1  0
 10 11  1  0
 11 12  1  0
 12 13  1  0
  7 14  2  0
 14 15  1  0
 15 16  1  0
 16 17  2  0
 17 18  1  0
 18 19  2  0
 19 20  1  0
 20 21  2  0
 15 22  2  0
 22 23  1  0
 23  3  1  0
 23  6  1  0
 13  8  1  0
 21 16  1  0
  1 24  1  0
  1 25  1  0
  1 26  1  0
  2 27  1  0
  2 28  1  0
  4 29  1  0
  9 30  1  0
  9 31  1  0
 10 32  1  0
 10 33  1  0
 12 34  1  0
 12 35  1  0
 13 36  1  0
 13 37  1  0
 17 38  1  0
 18 39  1  0
 19 40  1  0
 21 41  1  0
 22 42  1  0
M  END
>  <UniqueID>  (6) 
6

>  <SMILES>  (6) 
CCc1cnc2c(N3CCOCC3)nc(-c3cccnc3)cn12

>  <Energy>  (6) 
87.22877557335764

>  <Genealogy>  (6) 
CCc1cnc2c(N3CCOCC3)nc(-c3cccnc3)cn12 (3D coordinates assigned)
CCc1cnc2c(N3CCOCC3)nc(-c3cccnc3)cn12 (nonaromatic ring conformer: 87.22877557335764 kcal/mol)

>  <smiles>  (6) 
CCc1cnc2c(N3CCOCC3)nc(-c3cccnc3)cn12

>  <score_type>  (6) 
oracle

>  <origin>  (6) 
adg

>  <m_score__min__energy>  (6) 
-7.8499999999999996

>  <m_primary>  (6) 
energy

$$$$
6:0
     RDKit          3D

 42 44  0  0  0  0  0  0  0  0999 V2000
   -6.0540   25.6760  -30.1310 C   0  0  0  0  0  0  0  0  0  0  0  0
   -5.0210   24.6420  -29.6940 C   0  0  0  0  0  0  0  0  0  0  0  0
   -3.8360   24.7690  -30.4590 O   0  0  0  0  0  0  0  0  0  0  0  0
   -3.0750   23.5750  -30.4390 C   0  0  0  0  0  0  0  0  0  0  0  0
   -3.9130   22.4000  -30.9610 C   0  0  0  0  0  0  0  0  0  0  0  0
   -3.3850   21.8520  -32.2930 C   0  0  0  0  0  0  0  0  0  0  0  0
   -4.4620   21.7250  -33.2780 N   0  0  0  0  0  0  0  0  0  0  0  0
   -5.6120   20.9060  -33.0160 C   0  0  0  0  0  0  0  0  0  0  0  0
   -6.8170   21.4380  -32.5090 C   0  0  0  0  0  0  0  0  0  0  0  0
   -6.9810   22.8280  -32.3460 C   0  0  0  0  0  0  0  0  0  0  0  0
   -8.1820   23.3510  -31.8760 C   0  0  0  0  0  0  0  0  0  0  0  0
   -9.2470   22.5060  -31.5830 C   0  0  0  0  0  0  0  0  0  0  0  0
   -9.1210   21.1270  -31.7540 C   0  0  0  0  0  0  0  0  0  0  0  0
   -7.9050   20.5540  -32.2070 C   0  0  0  0  0  0  0  0  0  0  0  0
   -7.7680   19.1840  -32.3860 N   0  0  0  0  0  0  0  0  0  0  0  0
   -8.8250   18.2510  -31.9460 C   0  0  0  0  0  0  0  0  0  0  0  0
   -6.6340   18.7060  -33.0000 C   0  0  0  0  0  0  0  0  0  0  0  0
   -6.3890   17.3730  -33.3970 C   0  0  0  0  0  0  0  0  0  0  0  0
   -5.1380   17.1920  -33.9750 C   0  0  0  0  0  0  0  0  0  0  0  0
   -4.3350   18.6710  -34.0150 S   0  0  0  0  0  0  0  0  0  0  0  0
   -5.5760   19.5480  -33.2980 C   0  0  0  0  0  0  0  0  0  0  0  0
   -6.5123   26.1347  -29.2424 H   0  0  0  0  0  0  0  0  0  0  0  0
   -5.5619   26.4542  -30.7329 H   0  0  0  0  0  0  0  0  0  0  0  0
   -6.8327   25.1847  -30.7329 H   0  0  0  0  0  0  0  0  0  0  0  0
   -4.7834   24.7949  -28.6309 H   0  0  0  0  0  0  0  0  0  0  0  0
   -5.4378   23.6359  -29.8492 H   0  0  0  0  0  0  0  0  0  0  0  0
   -2.1877   23.6996  -31.0771 H   0  0  0  0  0  0  0  0  0  0  0  0
   -2.7684   23.3636  -29.4040 H   0  0  0  0  0  0  0  0  0  0  0  0
   -3.8934   21.5927  -30.2141 H   0  0  0  0  0  0  0  0  0  0  0  0
   -4.9360   22.7668  -31.1309 H   0  0  0  0  0  0  0  0  0  0  0  0
   -2.6194   22.5378  -32.6849 H   0  0  0  0  0  0  0  0  0  0  0  0
   -2.9573   20.8545  -32.1141 H   0  0  0  0  0  0  0  0  0  0  0  0
   -4.2330   21.9440  -34.2730 H   0  0  0  0  0  0  0  0  0  0  0  0
   -6.1512   23.5067  -32.5928 H   0  0  0  0  0  0  0  0  0  0  0  0
   -8.2893   24.4367  -31.7357 H   0  0  0  0  0  0  0  0  0  0  0  0
  -10.1940   22.9272  -31.2144 H   0  0  0  0  0  0  0  0  0  0  0  0
   -9.9783   20.4738  -31.5340 H   0  0  0  0  0  0  0  0  0  0  0  0
   -8.8558   18.2238  -30.8468 H   0  0  0  0  0  0  0  0  0  0  0  0
   -9.7976   18.5905  -32.3318 H   0  0  0  0  0  0  0  0  0  0  0  0
   -8.6089   17.2438  -32.3318 H   0  0  0  0  0  0  0  0  0  0  0  0
   -7.1162   16.5587  -33.2621 H   0  0  0  0  0  0  0  0  0  0  0  0
   -4.7375   16.2371  -34.3462 H   0  0  0  0  0  0  0  0  0  0  0  0
  1  2  1  0
  2  3  1  0
  3  4  1  0
  4  5  1  0
  5  6  1  0
  6  7  1  0
  7  8  1  0
  8  9  2  0
  9 10  1  0
 10 11  2  0
 11 12  1  0
 12 13  2  0
 13 14  1  0
 14 15  2  0
 15 16  1  0
 15 17  1  0
 17 18  1  0
 18 19  2  0
 19 20  1  0
 20 21  1  0
 21  8  1  0
 14  9  1  0
 21 17  2  0
  1 22  1  0
  1 23  1  0
  1 24  1  0
  2 25  1  0
  2 26  1  0
  4 27  1  0
  4 28  1  0
  5 29  1  0
  5 30  1  0
  6 31  1  0
  6 32  1  0
  7 33  1  0
 10 34  1  0
 11 35  1  0
 12 36  1  0
 13 37  1  0
 16 38  1  0
 16 39  1  0
 16 40  1  0
 18 41  1  0
 19 42  1  0
M  CHG  1  15   1
M  END
>  <UniqueID>  (7) 
7

>  <SMILES>  (7) 
CCOCCCNc1c2ccccc2[n+](C)c2ccsc12

>  <Energy>  (7) 
87.22745867419776

>  <Genealogy>  (7) 
CCOCCCNc1c2ccccc2[n+](C)c2ccsc12 (3D coordinates assigned)
CCOCCCNc1c2ccccc2[n+](C)c2ccsc12 (optimized conformer: 87.22745867419776 kcal/mol)

>  <smiles>  (7) 
CCOCCCNc1c2ccccc2[n+](C)c2ccsc12

>  <score_type>  (7) 
oracle

>  <origin>  (7) 
adg

>  <m_score__min__energy>  (7) 
-8.3200000000000003

>  <m_primary>  (7) 
energy

$$$$
7:0
     RDKit          3D

 48 48  0  0  0  0  0  0  0  0999 V2000
   -3.8370   23.6680  -27.9390 C   0  0  0  0  0  0  0  0  0  0  0  0
   -3.8050   22.3670  -28.7240 C   0  0  0  0  0  0  0  0  0  0  0  0
   -3.8810   22.6560  -30.1170 O   0  0  0  0  0  0  0  0  0  0  0  0
   -3.1460   21.9940  -31.1140 C   0  0  0  0  0  0  0  0  0  0  0  0
   -1.8200   21.5710  -30.8930 C   0  0  0  0  0  0  0  0  0  0  0  0
   -1.1040   20.9250  -31.9020 C   0  0  0  0  0  0  0  0  0  0  0  0
   -1.6930   20.7060  -33.1450 C   0  0  0  0  0  0  0  0  0  0  0  0
   -3.0050   21.1200  -33.3820 C   0  0  0  0  0  0  0  0  0  0  0  0
   -3.7530   21.7430  -32.3660 C   0  0  0  0  0  0  0  0  0  0  0  0
   -5.1690   22.2030  -32.6570 C   0  0  0  0  0  0  0  0  0  0  0  0
   -6.0660   22.2860  -31.4710 N   0  0  1  0  0  0  0  0  0  0  0  0
   -6.7740   23.5900  -31.3710 C   0  0  0  0  0  0  0  0  0  0  0  0
   -6.4350   24.3600  -30.0730 C   0  0  0  0  0  0  0  0  0  0  0  0
   -5.6160   25.6340  -30.3430 C   0  0  0  0  0  0  0  0  0  0  0  0
   -4.2220   25.3140  -30.6450 N   0  0  0  0  0  0  0  0  0  0  0  0
   -6.8840   21.0480  -31.2400 C   0  0  0  0  0  0  0  0  0  0  0  0
   -7.9650   20.6570  -32.3000 C   0  0  0  0  0  0  0  0  0  0  0  0
   -9.2920   21.3560  -31.9570 C   0  0  0  0  0  0  0  0  0  0  0  0
   -8.2150   19.1460  -32.3820 C   0  0  0  0  0  0  0  0  0  0  0  0
   -3.8315   23.4464  -26.8616 H   0  0  0  0  0  0  0  0  0  0  0  0
   -2.9534   24.2717  -28.1936 H   0  0  0  0  0  0  0  0  0  0  0  0
   -4.7492   24.2275  -28.1936 H   0  0  0  0  0  0  0  0  0  0  0  0
   -2.8681   21.8318  -28.5103 H   0  0  0  0  0  0  0  0  0  0  0  0
   -4.6588   21.7384  -28.4308 H   0  0  0  0  0  0  0  0  0  0  0  0
   -1.3454   21.7514  -29.9172 H   0  0  0  0  0  0  0  0  0  0  0  0
   -0.0735   20.5885  -31.7153 H   0  0  0  0  0  0  0  0  0  0  0  0
   -1.1231   20.2057  -33.9418 H   0  0  0  0  0  0  0  0  0  0  0  0
   -3.4578   20.9578  -34.3713 H   0  0  0  0  0  0  0  0  0  0  0  0
   -5.1150   23.2025  -33.1132 H   0  0  0  0  0  0  0  0  0  0  0  0
   -5.6074   21.4409  -33.3180 H   0  0  0  0  0  0  0  0  0  0  0  0
   -5.3760   22.2970  -30.6820 H   0  0  0  0  0  0  0  0  0  0  0  0
   -6.4887   24.2115  -32.2326 H   0  0  0  0  0  0  0  0  0  0  0  0
   -7.8536   23.3797  -31.3581 H   0  0  0  0  0  0  0  0  0  0  0  0
   -7.3740   24.6428  -29.5747 H   0  0  0  0  0  0  0  0  0  0  0  0
   -5.8259   23.6979  -29.4400 H   0  0  0  0  0  0  0  0  0  0  0  0
   -6.0549   26.1677  -31.1989 H   0  0  0  0  0  0  0  0  0  0  0  0
   -5.6409   26.2612  -29.4397 H   0  0  0  0  0  0  0  0  0  0  0  0
   -3.9950   25.6620  -31.6050 H   0  0  0  0  0  0  0  0  0  0  0  0
   -4.1060   24.2740  -30.6460 H   0  0  0  0  0  0  0  0  0  0  0  0
   -6.1819   20.2044  -31.1664 H   0  0  0  0  0  0  0  0  0  0  0  0
   -7.4659   21.2759  -30.3348 H   0  0  0  0  0  0  0  0  0  0  0  0
   -7.5794   20.9811  -33.2779 H   0  0  0  0  0  0  0  0  0  0  0  0
   -9.4037   21.4148  -30.8643 H   0  0  0  0  0  0  0  0  0  0  0  0
   -9.2919   22.3711  -32.3808 H   0  0  0  0  0  0  0  0  0  0  0  0
  -10.1291   20.7818  -32.3808 H   0  0  0  0  0  0  0  0  0  0  0  0
   -8.2838   18.7301  -31.3660 H   0  0  0  0  0  0  0  0  0  0  0  0
   -9.1563   18.9587  -32.9194 H   0  0  0  0  0  0  0  0  0  0  0  0
   -7.3841   18.6655  -32.9194 H   0  0  0  0  0  0  0  0  0  0  0  0
  1  2  1  0
  2  3  1  0
  3  4  1  0
  4  5  2  0
  5  6  1  0
  6  7  2  0
  7  8  1  0
  8  9  2  0
  9 10  1  0
 10 11  1  0
 11 12  1  0
 12 13  1  0
 13 14  1  0
 14 15  1  0
 11 16  1  0
 16 17  1  0
 17 18  1  0
 17 19  1  0
  9  4  1  0
  1 20  1  0
  1 21  1  0
  1 22  1  0
  2 23  1  0
  2 24  1  0
  5 25  1  0
  6 26  1  0
  7 27  1  0
  8 28  1  0
 10 29  1  0
 10 30  1  0
 11 31  1  1
 12 32  1  0
 12 33  1  0
 13 34  1  0
 13 35  1  0
 14 36  1  0
 14 37  1  0
 15 38  1  0
 15 39  1  0
 16 40  1  0
 16 41  1  0
 17 42  1  0
 18 43  1  0
 18 44  1  0
 18 45  1  0
 19 46  1  0
 19 47  1  0
 19 48  1  0
M  CHG  1  11   1
M  END
>  <UniqueID>  (8) 
8

>  <SMILES>  (8) 
CCOc1ccccc1C[N@@H+](CCCN)CC(C)C

>  <Energy>  (8) 
50.955221838449084

>  <Genealogy>  (8) 
CCOc1ccccc1C[NH+](CCCN)CC(C)C (protonated)
CCOc1ccccc1C[N@@H+](CCCN)CC(C)C (chirality)
CCOc1ccccc1C[N@@H+](CCCN)CC(C)C (3D coordinates assigned)
CCOc1ccccc1C[N@@H+](CCCN)CC(C)C (optimized conformer: 50.955221838449084 kcal/mol)

>  <smiles>  (8) 
CCOc1ccccc1CN(CCCN)CC(C)C

>  <score_type>  (8) 
oracle

>  <origin>  (8) 
adg

>  <m_score__min__energy>  (8) 
-5.3099999999999996

>  <m_primary>  (8) 
energy

$$$$
8:0
     RDKit          3D

 71 73  0  0  0  0  0  0  0  0999 V2000
   -0.0227   25.6545  -28.7148 H   0  0  0  0  0  0  0  0  0  0  0  0
   -0.8510   24.9310  -28.7350 C   0  0  0  0  0  0  0  0  0  0  0  0
   -2.0220   25.2620  -29.3240 N   0  0  0  0  0  0  0  0  0  0  0  0
   -3.0850   24.4190  -29.3410 C   0  0  0  0  0  0  0  0  0  0  0  0
   -4.2670   24.8490  -29.9530 C   0  0  0  0  0  0  0  0  0  0  0  0
   -4.3006   25.8294  -30.4507 H   0  0  0  0  0  0  0  0  0  0  0  0
   -5.4020   24.0410  -29.9350 C   0  0  0  0  0  0  0  0  0  0  0  0
   -6.8850   24.5890  -30.6980 Cl  0  0  0  0  0  0  0  0  0  0  0  0
   -5.3650   22.8130  -29.2800 C   0  0  0  0  0  0  0  0  0  0  0  0
   -6.2696   22.1884  -29.2403 H   0  0  0  0  0  0  0  0  0  0  0  0
   -4.1870   22.3670  -28.6720 C   0  0  0  0  0  0  0  0  0  0  0  0
   -4.1847   21.4052  -28.1381 H   0  0  0  0  0  0  0  0  0  0  0  0
   -2.9980   23.1320  -28.7320 C   0  0  0  0  0  0  0  0  0  0  0  0
   -1.7290   22.7360  -28.1840 C   0  0  0  0  0  0  0  0  0  0  0  0
   -1.4070   21.5360  -27.7730 N   0  0  0  0  0  0  0  0  0  0  0  0
   -1.9550   20.6780  -26.7280 C   0  0  0  0  0  0  0  0  0  0  0  0
   -3.0452   20.8140  -26.6737 H   0  0  0  0  0  0  0  0  0  0  0  0
   -1.5084   20.9433  -25.7584 H   0  0  0  0  0  0  0  0  0  0  0  0
   -1.6380   19.2260  -27.0590 C   0  0  0  0  0  0  0  0  0  0  0  0
   -2.5637   18.7008  -27.3369 H   0  0  0  0  0  0  0  0  0  0  0  0
   -1.1925   18.7342  -26.1817 H   0  0  0  0  0  0  0  0  0  0  0  0
   -0.7280   19.1870  -28.1410 O   0  0  0  0  0  0  0  0  0  0  0  0
    0.3000   18.2350  -27.9150 C   0  0  0  0  0  0  0  0  0  0  0  0
   -0.1294   17.3672  -27.3929 H   0  0  0  0  0  0  0  0  0  0  0  0
    1.0816   18.7192  -27.3112 H   0  0  0  0  0  0  0  0  0  0  0  0
    0.9440   17.7560  -29.2220 C   0  0  0  0  0  0  0  0  0  0  0  0
    0.9782   16.6565  -29.2247 H   0  0  0  0  0  0  0  0  0  0  0  0
    1.9601   18.1724  -29.2862 H   0  0  0  0  0  0  0  0  0  0  0  0
    0.2010   18.2000  -30.3450 O   0  0  0  0  0  0  0  0  0  0  0  0
    0.9160   19.1700  -31.0870 C   0  0  0  0  0  0  0  0  0  0  0  0
    1.1541   18.7613  -32.0801 H   0  0  0  0  0  0  0  0  0  0  0  0
    1.8400   19.4190  -30.5446 H   0  0  0  0  0  0  0  0  0  0  0  0
    0.0830   20.4490  -31.2550 C   0  0  0  0  0  0  0  0  0  0  0  0
   -0.2441   20.5307  -32.3021 H   0  0  0  0  0  0  0  0  0  0  0  0
    0.7057   21.3125  -30.9782 H   0  0  0  0  0  0  0  0  0  0  0  0
   -1.1010   20.4240  -30.3810 N   0  0  0  0  0  0  0  0  0  0  0  0
   -0.8730   20.8930  -29.4720 H   0  0  0  0  0  0  0  0  0  0  0  0
   -1.3710   19.4280  -30.2010 H   0  0  0  0  0  0  0  0  0  0  0  0
   -2.2260   21.1290  -31.0140 C   0  0  0  0  0  0  0  0  0  0  0  0
   -1.8333   21.9414  -31.6430 H   0  0  0  0  0  0  0  0  0  0  0  0
   -2.8756   21.5333  -30.2237 H   0  0  0  0  0  0  0  0  0  0  0  0
   -3.0510   20.1760  -31.8840 C   0  0  0  0  0  0  0  0  0  0  0  0
   -4.0611   20.0742  -31.4605 H   0  0  0  0  0  0  0  0  0  0  0  0
   -2.5645   19.1898  -31.9115 H   0  0  0  0  0  0  0  0  0  0  0  0
   -3.1400   20.6960  -33.1980 O   0  0  0  0  0  0  0  0  0  0  0  0
   -3.8700   21.9040  -33.2410 C   0  0  0  0  0  0  0  0  0  0  0  0
   -4.1788   22.1032  -34.2778 H   0  0  0  0  0  0  0  0  0  0  0  0
   -3.2299   22.7187  -32.8716 H   0  0  0  0  0  0  0  0  0  0  0  0
   -5.1130   21.8130  -32.3550 C   0  0  0  0  0  0  0  0  0  0  0  0
   -5.3098   22.7993  -31.9094 H   0  0  0  0  0  0  0  0  0  0  0  0
   -4.9291   21.0645  -31.5702 H   0  0  0  0  0  0  0  0  0  0  0  0
   -6.2560   21.4060  -33.1130 O   0  0  0  0  0  0  0  0  0  0  0  0
   -7.1020   20.3560  -32.7270 C   0  0  0  0  0  0  0  0  0  0  0  0
   -6.7790   19.0310  -33.1010 C   0  0  0  0  0  0  0  0  0  0  0  0
   -5.5470   18.7230  -33.9070 C   0  0  0  0  0  0  0  0  0  0  0  0
   -4.7075   18.5131  -33.2279 H   0  0  0  0  0  0  0  0  0  0  0  0
   -5.7341   17.8440  -34.5413 H   0  0  0  0  0  0  0  0  0  0  0  0
   -5.2984   19.5866  -34.5413 H   0  0  0  0  0  0  0  0  0  0  0  0
   -7.5820   17.9680  -32.6580 C   0  0  0  0  0  0  0  0  0  0  0  0
   -7.3135   16.9343  -32.9213 H   0  0  0  0  0  0  0  0  0  0  0  0
   -8.7170   18.2130  -31.8870 C   0  0  0  0  0  0  0  0  0  0  0  0
   -9.3319   17.3729  -31.5320 H   0  0  0  0  0  0  0  0  0  0  0  0
   -9.0740   19.5230  -31.5650 C   0  0  0  0  0  0  0  0  0  0  0  0
   -9.9754   19.7100  -30.9629 H   0  0  0  0  0  0  0  0  0  0  0  0
   -8.2940   20.6030  -32.0020 C   0  0  0  0  0  0  0  0  0  0  0  0
   -8.7640   21.9980  -31.6990 C   0  0  0  0  0  0  0  0  0  0  0  0
   -8.8119   22.1402  -30.6093 H   0  0  0  0  0  0  0  0  0  0  0  0
   -8.0609   22.7242  -32.1330 H   0  0  0  0  0  0  0  0  0  0  0  0
   -9.7632   22.1506  -32.1330 H   0  0  0  0  0  0  0  0  0  0  0  0
   -0.6920   23.6780  -28.1550 C   0  0  0  0  0  0  0  0  0  0  0  0
    0.2601   23.4225  -27.6669 H   0  0  0  0  0  0  0  0  0  0  0  0
  1  2  1  0
  2  3  1  0
  3  4  1  0
  4  5  2  0
  5  6  1  0
  5  7  1  0
  7  8  1  0
  7  9  2  0
  9 10  1  0
  9 11  1  0
 11 12  1  0
 11 13  2  0
 13 14  1  0
 14 15  2  0
 15 16  1  0
 16 17  1  0
 16 18  1  0
 16 19  1  0
 19 20  1  0
 19 21  1  0
 19 22  1  0
 22 23  1  0
 23 24  1  0
 23 25  1  0
 23 26  1  0
 26 27  1  0
 26 28  1  0
 26 29  1  0
 29 30  1  0
 30 31  1  0
 30 32  1  0
 30 33  1  0
 33 34  1  0
 33 35  1  0
 33 36  1  0
 36 37  1  0
 36 38  1  0
 36 39  1  0
 39 40  1  0
 39 41  1  0
 39 42  1  0
 42 43  1  0
 42 44  1  0
 42 45  1  0
 45 46  1  0
 46 47  1  0
 46 48  1  0
 46 49  1  0
 49 50  1  0
 49 51  1  0
 49 52  1  0
 52 53  1  0
 53 54  2  0
 54 55  1  0
 55 56  1  0
 55 57  1  0
 55 58  1  0
 54 59  1  0
 59 60  1  0
 59 61  2  0
 61 62  1  0
 61 63  1  0
 63 64  1  0
 63 65  2  0
 65 66  1  0
 66 67  1  0
 66 68  1  0
 66 69  1  0
 14 70  1  0
 70 71  1  0
 70  2  2  0
 13  4  1  0
 65 53  1  0
M  CHG  2   3  -1  36   1
M  END
>  <UniqueID>  (9) 
9

>  <SMILES>  (9) 
Cc1cccc(C)c1OCCOCC[NH2+]CCOCCOCC/N=c1/cc[n-]c2cc(Cl)ccc12

>  <Energy>  (9) 
96.85510625473324

>  <Genealogy>  (9) 
Cc1cccc(C)c1OCCOCC[NH2+]CCOCCOCCN=c1cc[n-]c2cc(Cl)ccc12 (protonated)
Cc1cccc(C)c1OCCOCC[NH2+]CCOCCOCC/N=c1/cc[n-]c2cc(Cl)ccc12 (cis-trans isomerization)
Cc1cccc(C)c1OCCOCC[NH2+]CCOCCOCC/N=c1/cc[n-]c2cc(Cl)ccc12 (3D coordinates assigned)
Cc1cccc(C)c1OCCOCC[NH2+]CCOCCOCC/N=c1/cc[n-]c2cc(Cl)ccc12 (optimized conformer: 96.85510625473324 kcal/mol)

>  <smiles>  (9) 
Cc1cccc(C)c1OCCOCCNCCOCCOCCN=c1cc[nH]c2cc(Cl)ccc12

>  <score_type>  (9) 
oracle

>  <origin>  (9) 
adg

>  <m_score__min__energy>  (9) 
-9.0700000000000003

>  <m_primary>  (9) 
energy

$$$$
9:0
     RDKit          3D

 48 49  0  0  0  0  0  0  0  0999 V2000
   -0.2370   19.2560  -27.9540 C   0  0  0  0  0  0  0  0  0  0  0  0
   -1.2880   18.5430  -27.0890 C   0  0  0  0  0  0  0  0  0  0  0  0
   -2.3890   19.4170  -26.6010 N   0  0  2  0  0  0  0  0  0  0  0  0
   -3.4340   18.6360  -25.9110 C   0  0  0  0  0  0  0  0  0  0  0  0
   -3.0020   20.2740  -27.6460 C   0  0  0  0  0  0  0  0  0  0  0  0
   -2.7420   21.7750  -27.4370 C   0  0  0  0  0  0  0  0  0  0  0  0
   -1.5280   21.9630  -26.7380 O   0  0  0  0  0  0  0  0  0  0  0  0
   -1.2360   23.3410  -26.6530 C   0  0  0  0  0  0  0  0  0  0  0  0
   -1.8720   24.0860  -27.8360 C   0  0  0  0  0  0  0  0  0  0  0  0
   -1.1660   23.8360  -29.1830 C   0  0  0  0  0  0  0  0  0  0  0  0
   -2.0160   23.0780  -30.2150 C   0  0  0  0  0  0  0  0  0  0  0  0
   -3.3240   23.7470  -30.5230 C   0  0  0  0  0  0  0  0  0  0  0  0
   -3.5160   25.0860  -30.4700 N   0  0  0  0  0  0  0  0  0  0  0  0
   -4.7580   25.3640  -30.8530 N   0  0  0  0  0  0  0  0  0  0  0  0
   -5.3540   24.1970  -31.1550 C   0  0  0  0  0  0  0  0  0  0  0  0
   -6.6500   24.0000  -31.6190 C   0  0  0  0  0  0  0  0  0  0  0  0
   -7.0500   22.6810  -31.9050 C   0  0  0  0  0  0  0  0  0  0  0  0
   -6.1520   21.5970  -31.7220 C   0  0  0  0  0  0  0  0  0  0  0  0
   -6.5750   20.2050  -32.0830 C   0  0  0  0  0  0  0  0  0  0  0  0
   -4.8370   21.8420  -31.2670 C   0  0  0  0  0  0  0  0  0  0  0  0
   -4.4860   23.1590  -30.9730 C   0  0  0  0  0  0  0  0  0  0  0  0
    0.4969   19.7539  -27.3032 H   0  0  0  0  0  0  0  0  0  0  0  0
    0.2765   18.5190  -28.5890 H   0  0  0  0  0  0  0  0  0  0  0  0
   -0.7320   20.0055  -28.5890 H   0  0  0  0  0  0  0  0  0  0  0  0
   -1.7324   17.7340  -27.6873 H   0  0  0  0  0  0  0  0  0  0  0  0
   -0.7599   18.1803  -26.1948 H   0  0  0  0  0  0  0  0  0  0  0  0
   -1.9730   20.0460  -25.8740 H   0  0  0  0  0  0  0  0  0  0  0  0
   -3.3052   18.7322  -24.8228 H   0  0  0  0  0  0  0  0  0  0  0  0
   -4.4255   19.0163  -26.1980 H   0  0  0  0  0  0  0  0  0  0  0  0
   -3.3501   17.5774  -26.1980 H   0  0  0  0  0  0  0  0  0  0  0  0
   -2.5891   19.9816  -28.6227 H   0  0  0  0  0  0  0  0  0  0  0  0
   -4.0902   20.1230  -27.5916 H   0  0  0  0  0  0  0  0  0  0  0  0
   -2.6798   22.2736  -28.4156 H   0  0  0  0  0  0  0  0  0  0  0  0
   -3.5667   22.2059  -26.8503 H   0  0  0  0  0  0  0  0  0  0  0  0
   -1.6390   23.7415  -25.7111 H   0  0  0  0  0  0  0  0  0  0  0  0
   -0.1454   23.4817  -26.6815 H   0  0  0  0  0  0  0  0  0  0  0  0
   -2.9188   23.7607  -27.9279 H   0  0  0  0  0  0  0  0  0  0  0  0
   -1.7814   25.1613  -27.6224 H   0  0  0  0  0  0  0  0  0  0  0  0
   -0.8908   24.8103  -29.6131 H   0  0  0  0  0  0  0  0  0  0  0  0
   -0.2944   23.2006  -28.9671 H   0  0  0  0  0  0  0  0  0  0  0  0
   -1.4391   22.9959  -31.1480 H   0  0  0  0  0  0  0  0  0  0  0  0
   -2.2505   22.0950  -29.7807 H   0  0  0  0  0  0  0  0  0  0  0  0
   -7.3391   24.8461  -31.7578 H   0  0  0  0  0  0  0  0  0  0  0  0
   -8.0683   22.4885  -32.2739 H   0  0  0  0  0  0  0  0  0  0  0  0
   -6.7511   19.6255  -31.1647 H   0  0  0  0  0  0  0  0  0  0  0  0
   -7.5015   20.2451  -32.6746 H   0  0  0  0  0  0  0  0  0  0  0  0
   -5.7828   19.7228  -32.6746 H   0  0  0  0  0  0  0  0  0  0  0  0
   -4.1143   21.0212  -31.1487 H   0  0  0  0  0  0  0  0  0  0  0  0
  1  2  1  0
  2  3  1  0
  3  4  1  0
  3  5  1  0
  5  6  1  0
  6  7  1  0
  7  8  1  0
  8  9  1  0
  9 10  1  0
 10 11  1  0
 11 12  1  0
 12 13  1  0
 13 14  1  0
 14 15  2  0
 15 16  1  0
 16 17  2  0
 17 18  1  0
 18 19  1  0
 18 20  2  0
 20 21  1  0
 21 12  2  0
 21 15  1  0
  1 22  1  0
  1 23  1  0
  1 24  1  0
  2 25  1  0
  2 26  1  0
  3 27  1  1
  4 28  1  0
  4 29  1  0
  4 30  1  0
  5 31  1  0
  5 32  1  0
  6 33  1  0
  6 34  1  0
  8 35  1  0
  8 36  1  0
  9 37  1  0
  9 38  1  0
 10 39  1  0
 10 40  1  0
 11 41  1  0
 11 42  1  0
 16 43  1  0
 17 44  1  0
 19 45  1  0
 19 46  1  0
 19 47  1  0
 20 48  1  0
M  CHG  2   3   1  13  -1
M  END
>  <UniqueID>  (10) 
10

>  <SMILES>  (10) 
CC[N@H+](C)CCOCCCCc1[n-]nc2ccc(C)cc12

>  <Energy>  (10) 
81.68226417243295

>  <Genealogy>  (10) 
CC[NH+](C)CCOCCCCc1[n-]nc2ccc(C)cc12 (protonated)
CC[N@H+](C)CCOCCCCc1[n-]nc2ccc(C)cc12 (chirality)
CC[N@H+](C)CCOCCCCc1[n-]nc2ccc(C)cc12 (3D coordinates assigned)
CC[N@H+](C)CCOCCCCc1[n-]nc2ccc(C)cc12 (optimized conformer: 81.68226417243295 kcal/mol)

>  <smiles>  (10) 
CCN(C)CCOCCCCc1[nH]nc2ccc(C)cc12

>  <score_type>  (10) 
oracle

>  <origin>  (10) 
adg

>  <m_score__min__energy>  (10) 
-8.75

>  <m_primary>  (10) 
energy

$$$$
10:0
     RDKit          3D

 55 57  0  0  0  0  0  0  0  0999 V2000
   -2.2200   24.9210  -28.6490 C   0  0  0  0  0  0  0  0  0  0  0  0
   -3.1030   25.2480  -29.7170 O   0  0  0  0  0  0  0  0  0  0  0  0
   -4.1460   24.4240  -30.1680 C   0  0  0  0  0  0  0  0  0  0  0  0
   -5.4540   24.8480  -29.9570 C   0  0  0  0  0  0  0  0  0  0  0  0
   -6.5320   24.0760  -30.3860 C   0  0  0  0  0  0  0  0  0  0  0  0
   -6.3300   22.8540  -31.0760 C   0  0  0  0  0  0  0  0  0  0  0  0
   -4.9950   22.4060  -31.2670 C   0  0  0  0  0  0  0  0  0  0  0  0
   -3.9190   23.1960  -30.8080 C   0  0  0  0  0  0  0  0  0  0  0  0
   -4.7660   21.1660  -31.8900 C   0  0  0  0  0  0  0  0  0  0  0  0
   -3.4280   20.7270  -32.1740 N   0  0  0  0  0  0  0  0  0  0  0  0
   -3.0290   20.4280  -33.5500 C   0  0  0  0  0  0  0  0  0  0  0  0
   -1.5620   19.9870  -33.6350 C   0  0  0  0  0  0  0  0  0  0  0  0
   -0.7890   20.3900  -32.4500 N   0  0  0  0  0  0  0  0  0  0  0  0
   -0.5780   19.2690  -31.5240 C   0  0  0  0  0  0  0  0  0  0  0  0
   -0.7320   19.7140  -30.0530 C   0  0  0  0  0  0  0  0  0  0  0  0
   -1.5370   20.9400  -29.8360 N   0  0  0  0  0  0  0  0  0  0  0  0
   -2.4850   20.8290  -28.7190 C   0  0  0  0  0  0  0  0  0  0  0  0
   -0.7330   22.1680  -29.7400 C   0  0  0  0  0  0  0  0  0  0  0  0
   -5.8570   20.3350  -32.2000 C   0  0  0  0  0  0  0  0  0  0  0  0
   -5.6540   19.0460  -32.7380 C   0  0  0  0  0  0  0  0  0  0  0  0
   -6.7340   18.2050  -32.9940 C   0  0  0  0  0  0  0  0  0  0  0  0
   -8.0280   18.6270  -32.7130 C   0  0  0  0  0  0  0  0  0  0  0  0
   -8.2530   19.9060  -32.2060 C   0  0  0  0  0  0  0  0  0  0  0  0
   -7.1790   20.8030  -31.9760 C   0  0  0  0  0  0  0  0  0  0  0  0
   -7.3910   22.0980  -31.5400 N   0  0  0  0  0  0  0  0  0  0  0  0
   -8.7490   22.6840  -31.5970 C   0  0  0  0  0  0  0  0  0  0  0  0
   -2.7221   25.1069  -27.6881 H   0  0  0  0  0  0  0  0  0  0  0  0
   -1.9398   23.8595  -28.7169 H   0  0  0  0  0  0  0  0  0  0  0  0
   -1.3159   25.5440  -28.7169 H   0  0  0  0  0  0  0  0  0  0  0  0
   -5.6396   25.8040  -29.4455 H   0  0  0  0  0  0  0  0  0  0  0  0
   -7.5573   24.4207  -30.1858 H   0  0  0  0  0  0  0  0  0  0  0  0
   -2.8872   22.8438  -30.9542 H   0  0  0  0  0  0  0  0  0  0  0  0
   -2.8440   20.3980  -31.3720 H   0  0  0  0  0  0  0  0  0  0  0  0
   -3.6667   19.6200  -33.9380 H   0  0  0  0  0  0  0  0  0  0  0  0
   -3.1454   21.3448  -34.1466 H   0  0  0  0  0  0  0  0  0  0  0  0
   -1.5265   18.8912  -33.7248 H   0  0  0  0  0  0  0  0  0  0  0  0
   -1.1135   20.4763  -34.5121 H   0  0  0  0  0  0  0  0  0  0  0  0
   -1.3550   21.1150  -31.9490 H   0  0  0  0  0  0  0  0  0  0  0  0
   -1.3174   18.4835  -31.7392 H   0  0  0  0  0  0  0  0  0  0  0  0
    0.4457   18.8922  -31.6655 H   0  0  0  0  0  0  0  0  0  0  0  0
   -1.2101   18.8926  -29.4991 H   0  0  0  0  0  0  0  0  0  0  0  0
    0.2829   19.9543  -29.7033 H   0  0  0  0  0  0  0  0  0  0  0  0
   -1.9385   20.8930  -27.7665 H   0  0  0  0  0  0  0  0  0  0  0  0
   -3.2176   21.6475  -28.7771 H   0  0  0  0  0  0  0  0  0  0  0  0
   -3.0087   19.8634  -28.7771 H   0  0  0  0  0  0  0  0  0  0  0  0
   -0.5697   22.4175  -28.6812 H   0  0  0  0  0  0  0  0  0  0  0  0
    0.2374   22.0105  -30.2335 H   0  0  0  0  0  0  0  0  0  0  0  0
   -1.2655   22.9944  -30.2335 H   0  0  0  0  0  0  0  0  0  0  0  0
   -4.6324   18.7023  -32.9573 H   0  0  0  0  0  0  0  0  0  0  0  0
   -6.5626   17.2051  -33.4193 H   0  0  0  0  0  0  0  0  0  0  0  0
   -8.8767   17.9502  -32.8911 H   0  0  0  0  0  0  0  0  0  0  0  0
   -9.2813   20.2249  -31.9805 H   0  0  0  0  0  0  0  0  0  0  0  0
   -9.1221   22.8450  -30.5748 H   0  0  0  0  0  0  0  0  0  0  0  0
   -8.7112   23.6459  -32.1293 H   0  0  0  0  0  0  0  0  0  0  0  0
   -9.4229   21.9966  -32.1293 H   0  0  0  0  0  0  0  0  0  0  0  0
  1  2  1  0
  2  3  1  0
  3  4  2  0
  4  5  1  0
  5  6  2  0
  6  7  1  0
  7  8  2  0
  7  9  1  0
  9 10  1  0
 10 11  1  0
 11 12  1  0
 12 13  1  0
 13 14  1  0
 14 15  1  0
 15 16  1  0
 16 17  1  0
 16 18  1  0
  9 19  2  0
 19 20  1  0
 20 21  2  0
 21 22  1  0
 22 23  2  0
 23 24  1  0
 24 25  2  0
 25 26  1  0
  8  3  1  0
 24 19  1  0
 25  6  1  0
  1 27  1  0
  1 28  1  0
  1 29  1  0
  4 30  1  0
  5 31  1  0
  8 32  1  0
 10 33  1  0
 11 34  1  0
 11 35  1  0
 12 36  1  0
 12 37  1  0
 13 38  1  0
 14 39  1  0
 14 40  1  0
 15 41  1  0
 15 42  1  0
 17 43  1  0
 17 44  1  0
 17 45  1  0
 18 46  1  0
 18 47  1  0
 18 48  1  0
 20 49  1  0
 21 50  1  0
 22 51  1  0
 23 52  1  0
 26 53  1  0
 26 54  1  0
 26 55  1  0
M  CHG  1  25   1
M  END
>  <UniqueID>  (11) 
11

>  <SMILES>  (11) 
COc1ccc2c(c1)c(NCCNCCN(C)C)c1ccccc1[n+]2C

>  <Energy>  (11) 
81.15414190390547

>  <Genealogy>  (11) 
COc1ccc2c(c1)c(NCCNCCN(C)C)c1ccccc1[n+]2C (3D coordinates assigned)
COc1ccc2c(c1)c(NCCNCCN(C)C)c1ccccc1[n+]2C (optimized conformer: 81.15414190390547 kcal/mol)

>  <smiles>  (11) 
COc1ccc2c(c1)c(NCCNCCN(C)C)c1ccccc1[n+]2C

>  <score_type>  (11) 
oracle

>  <origin>  (11) 
adg

>  <m_score__min__energy>  (11) 
-8.7100000000000009

>  <m_primary>  (11) 
energy

$$$$
11:0
     RDKit          3D

 39 40  0  0  0  0  0  0  0  0999 V2000
   -6.2983   25.9220  -30.2490 H   0  0  0  0  0  0  0  0  0  0  0  0
   -5.8450   25.0500  -30.7430 C   0  0  0  0  0  0  0  0  0  0  0  0
   -4.6140   25.1060  -31.1560 N   0  0  0  0  0  0  0  0  0  0  0  0
   -3.5130   25.2620  -30.3300 O   0  0  0  0  0  0  0  0  0  0  0  0
   -2.9660   24.2130  -29.5340 C   0  0  0  0  0  0  0  0  0  0  0  0
   -1.8900   24.3877  -29.3869 H   0  0  0  0  0  0  0  0  0  0  0  0
   -3.1156   23.2502  -30.0445 H   0  0  0  0  0  0  0  0  0  0  0  0
   -3.6630   24.1830  -28.1840 C   0  0  0  0  0  0  0  0  0  0  0  0
   -2.9107   24.2154  -27.3821 H   0  0  0  0  0  0  0  0  0  0  0  0
   -4.3300   25.0533  -28.0963 H   0  0  0  0  0  0  0  0  0  0  0  0
   -4.2528   23.2586  -28.0963 H   0  0  0  0  0  0  0  0  0  0  0  0
   -6.6470   23.8020  -30.9380 C   0  0  0  0  0  0  0  0  0  0  0  0
   -7.5917   23.8966  -30.3825 H   0  0  0  0  0  0  0  0  0  0  0  0
   -6.8294   23.6806  -32.0160 H   0  0  0  0  0  0  0  0  0  0  0  0
   -5.9020   22.5550  -30.4400 C   0  0  0  0  0  0  0  0  0  0  0  0
   -5.5144   22.7485  -29.4289 H   0  0  0  0  0  0  0  0  0  0  0  0
   -6.6056   21.7095  -30.4304 H   0  0  0  0  0  0  0  0  0  0  0  0
   -4.7710   22.2140  -31.3340 N   0  0  0  0  0  0  0  0  0  0  0  0
   -3.8900   21.2010  -30.7300 C   0  0  0  0  0  0  0  0  0  0  0  0
   -3.9498   21.2698  -29.6338 H   0  0  0  0  0  0  0  0  0  0  0  0
   -4.2087   20.1988  -31.0524 H   0  0  0  0  0  0  0  0  0  0  0  0
   -2.8532   21.3775  -31.0524 H   0  0  0  0  0  0  0  0  0  0  0  0
   -5.1630   21.8600  -32.7220 C   0  0  0  0  0  0  0  0  0  0  0  0
   -5.8441   22.6387  -33.0958 H   0  0  0  0  0  0  0  0  0  0  0  0
   -4.2308   21.7891  -33.3017 H   0  0  0  0  0  0  0  0  0  0  0  0
   -5.8570   20.5200  -32.8570 C   0  0  0  0  0  0  0  0  0  0  0  0
   -5.1440   19.3600  -33.2380 C   0  0  0  0  0  0  0  0  0  0  0  0
   -4.0669   19.4292  -33.4504 H   0  0  0  0  0  0  0  0  0  0  0  0
   -5.7990   18.1130  -33.3490 C   0  0  0  0  0  0  0  0  0  0  0  0
   -5.2307   17.2238  -33.6595 H   0  0  0  0  0  0  0  0  0  0  0  0
   -7.1700   18.0000  -33.0660 C   0  0  0  0  0  0  0  0  0  0  0  0
   -7.6914   17.0353  -33.1527 H   0  0  0  0  0  0  0  0  0  0  0  0
   -7.8460   19.1510  -32.6720 C   0  0  0  0  0  0  0  0  0  0  0  0
   -9.1600   19.3420  -32.3120 C   0  0  0  0  0  0  0  0  0  0  0  0
   -9.9652   18.5932  -32.2805 H   0  0  0  0  0  0  0  0  0  0  0  0
   -9.2420   20.6930  -31.9970 C   0  0  0  0  0  0  0  0  0  0  0  0
  -10.1566   21.2054  -31.6639 H   0  0  0  0  0  0  0  0  0  0  0  0
   -8.0670   21.2750  -32.1540 O   0  0  0  0  0  0  0  0  0  0  0  0
   -7.2180   20.3620  -32.5630 C   0  0  0  0  0  0  0  0  0  0  0  0
  1  2  1  0
  2  3  2  0
  3  4  1  0
  4  5  1  0
  5  6  1  0
  5  7  1  0
  5  8  1  0
  8  9  1  0
  8 10  1  0
  8 11  1  0
  2 12  1  0
 12 13  1  0
 12 14  1  0
 12 15  1  0
 15 16  1  0
 15 17  1  0
 15 18  1  0
 18 19  1  0
 19 20  1  0
 19 21  1  0
 19 22  1  0
 18 23  1  0
 23 24  1  0
 23 25  1  0
 23 26  1  0
 26 27  2  0
 27 28  1  0
 27 29  1  0
 29 30  1  0
 29 31  2  0
 31 32  1  0
 31 33  1  0
 33 34  1  0
 34 35  1  0
 34 36  2  0
 36 37  1  0
 36 38  1  0
 38 39  1  0
 39 26  1  0
 39 33  2  0
M  END
>  <UniqueID>  (12) 
12

>  <SMILES>  (12) 
CCO/N=C/CCN(C)Cc1cccc2ccoc12

>  <Energy>  (12) 
71.34532991764644

>  <Genealogy>  (12) 
CCO/N=C/CCN(C)Cc1cccc2ccoc12 (cis-trans isomerization)
CCO/N=C/CCN(C)Cc1cccc2ccoc12 (3D coordinates assigned)
CCO/N=C/CCN(C)Cc1cccc2ccoc12 (optimized conformer: 71.34532991764644 kcal/mol)

>  <smiles>  (12) 
CCON=CCCN(C)Cc1cccc2ccoc12

>  <score_type>  (12) 
oracle

>  <origin>  (12) 
adg

>  <m_score__min__energy>  (12) 
-7.75

>  <m_primary>  (12) 
energy

$$$$
12:0
     RDKit          3D

 65 67  0  0  0  0  0  0  0  0999 V2000
   -2.8940   23.9770  -28.0340 C   0  0  0  0  0  0  0  0  0  0  0  0
   -2.2820   24.5220  -29.3210 C   0  0  0  0  0  0  0  0  0  0  0  0
   -3.2870   25.0780  -30.1690 O   0  0  0  0  0  0  0  0  0  0  0  0
   -4.6220   24.6490  -30.2560 C   0  0  0  0  0  0  0  0  0  0  0  0
   -5.6720   25.3150  -29.5990 C   0  0  0  0  0  0  0  0  0  0  0  0
   -6.9770   24.8380  -29.6950 C   0  0  0  0  0  0  0  0  0  0  0  0
   -7.2660   23.7180  -30.4740 C   0  0  0  0  0  0  0  0  0  0  0  0
   -6.2430   23.0550  -31.1950 C   0  0  0  0  0  0  0  0  0  0  0  0
   -4.9110   23.5160  -31.0350 C   0  0  0  0  0  0  0  0  0  0  0  0
   -3.8940   22.8400  -31.6180 N   0  0  0  0  0  0  0  0  0  0  0  0
   -4.1070   21.7130  -32.3340 C   0  0  0  0  0  0  0  0  0  0  0  0
   -3.0140   21.0240  -32.8690 C   0  0  0  0  0  0  0  0  0  0  0  0
   -3.2060   19.8430  -33.5800 C   0  0  0  0  0  0  0  0  0  0  0  0
   -4.4960   19.3220  -33.7490 C   0  0  0  0  0  0  0  0  0  0  0  0
   -4.6970   18.0140  -34.4640 C   0  0  0  0  0  0  0  0  0  0  0  0
   -6.1010   17.5950  -34.3470 N   0  0  0  0  0  0  0  0  0  0  0  0
   -6.2160   16.2180  -33.8440 C   0  0  0  0  0  0  0  0  0  0  0  0
   -5.3780   16.0340  -32.5680 C   0  0  0  0  0  0  0  0  0  0  0  0
   -3.9510   15.4670  -32.8510 C   0  0  0  0  0  0  0  0  0  0  0  0
   -3.8510   13.9750  -33.0160 N   0  0  0  0  0  0  0  0  0  0  0  0
   -3.8770   13.6930  -34.4800 C   0  0  0  0  0  0  0  0  0  0  0  0
   -4.9870   13.2670  -32.3330 C   0  0  0  0  0  0  0  0  0  0  0  0
   -4.7780   12.9600  -30.8360 C   0  0  0  0  0  0  0  0  0  0  0  0
   -2.5410   13.5060  -32.4350 C   0  0  0  0  0  0  0  0  0  0  0  0
   -1.3740   14.5130  -32.5070 C   0  0  0  0  0  0  0  0  0  0  0  0
   -5.5970   20.0090  -33.2100 C   0  0  0  0  0  0  0  0  0  0  0  0
   -5.4270   21.2380  -32.5210 C   0  0  0  0  0  0  0  0  0  0  0  0
   -6.4910   21.9690  -32.0200 N   0  0  0  0  0  0  0  0  0  0  0  0
   -7.8800   21.6120  -32.3850 C   0  0  0  0  0  0  0  0  0  0  0  0
   -2.3878   24.4278  -27.1677 H   0  0  0  0  0  0  0  0  0  0  0  0
   -3.9650   24.2259  -28.0032 H   0  0  0  0  0  0  0  0  0  0  0  0
   -2.7704   22.8844  -28.0032 H   0  0  0  0  0  0  0  0  0  0  0  0
   -1.5509   25.3042  -29.0687 H   0  0  0  0  0  0  0  0  0  0  0  0
   -1.7916   23.6943  -29.8542 H   0  0  0  0  0  0  0  0  0  0  0  0
   -5.4615   26.2174  -29.0062 H   0  0  0  0  0  0  0  0  0  0  0  0
   -7.7860   25.3487  -29.1521 H   0  0  0  0  0  0  0  0  0  0  0  0
   -8.2995   23.3455  -30.5291 H   0  0  0  0  0  0  0  0  0  0  0  0
   -1.9967   21.4177  -32.7271 H   0  0  0  0  0  0  0  0  0  0  0  0
   -2.3417   19.3164  -34.0110 H   0  0  0  0  0  0  0  0  0  0  0  0
   -4.4390   18.1349  -35.5265 H   0  0  0  0  0  0  0  0  0  0  0  0
   -4.0499   17.2485  -34.0110 H   0  0  0  0  0  0  0  0  0  0  0  0
   -6.5250   17.6280  -35.3030 H   0  0  0  0  0  0  0  0  0  0  0  0
   -7.2708   16.0032  -33.6175 H   0  0  0  0  0  0  0  0  0  0  0  0
   -5.8430   15.5275  -34.6148 H   0  0  0  0  0  0  0  0  0  0  0  0
   -5.2751   17.0107  -32.0725 H   0  0  0  0  0  0  0  0  0  0  0  0
   -5.9018   15.3042  -31.9331 H   0  0  0  0  0  0  0  0  0  0  0  0
   -3.5821   15.9327  -33.7768 H   0  0  0  0  0  0  0  0  0  0  0  0
   -3.3563   15.7053  -31.9568 H   0  0  0  0  0  0  0  0  0  0  0  0
   -3.9769   12.6097  -34.6430 H   0  0  0  0  0  0  0  0  0  0  0  0
   -4.7310   14.2131  -34.9385 H   0  0  0  0  0  0  0  0  0  0  0  0
   -2.9423   14.0482  -34.9385 H   0  0  0  0  0  0  0  0  0  0  0  0
   -5.8838   13.8970  -32.4272 H   0  0  0  0  0  0  0  0  0  0  0  0
   -5.0751   12.2900  -32.8308 H   0  0  0  0  0  0  0  0  0  0  0  0
   -5.2948   13.7191  -30.2304 H   0  0  0  0  0  0  0  0  0  0  0  0
   -5.1875   11.9656  -30.6050 H   0  0  0  0  0  0  0  0  0  0  0  0
   -3.7027   12.9764  -30.6050 H   0  0  0  0  0  0  0  0  0  0  0  0
   -2.7102   13.2610  -31.3761 H   0  0  0  0  0  0  0  0  0  0  0  0
   -2.2325   12.6476  -33.0498 H   0  0  0  0  0  0  0  0  0  0  0  0
   -1.0601   14.7839  -31.4881 H   0  0  0  0  0  0  0  0  0  0  0  0
   -0.5283   14.0565  -33.0421 H   0  0  0  0  0  0  0  0  0  0  0  0
   -1.7018   15.4165  -33.0421 H   0  0  0  0  0  0  0  0  0  0  0  0
   -6.6066   19.5875  -33.3239 H   0  0  0  0  0  0  0  0  0  0  0  0
   -8.4719   21.4599  -31.4704 H   0  0  0  0  0  0  0  0  0  0  0  0
   -8.3239   22.4253  -32.9780 H   0  0  0  0  0  0  0  0  0  0  0  0
   -7.8767   20.6855  -32.9780 H   0  0  0  0  0  0  0  0  0  0  0  0
  1  2  1  0
  2  3  1  0
  3  4  1  0
  4  5  2  0
  5  6  1  0
  6  7  2  0
  7  8  1  0
  8  9  2  0
  9 10  1  0
 10 11  2  0
 11 12  1  0
 12 13  2  0
 13 14  1  0
 14 15  1  0
 15 16  1  0
 16 17  1  0
 17 18  1  0
 18 19  1  0
 19 20  1  0
 20 21  1  0
 20 22  1  0
 22 23  1  0
 20 24  1  0
 24 25  1  0
 14 26  2  0
 26 27  1  0
 27 28  2  0
 28 29  1  0
  9  4  1  0
 27 11  1  0
 28  8  1  0
  1 30  1  0
  1 31  1  0
  1 32  1  0
  2 33  1  0
  2 34  1  0
  5 35  1  0
  6 36  1  0
  7 37  1  0
 12 38  1  0
 13 39  1  0
 15 40  1  0
 15 41  1  0
 16 42  1  0
 17 43  1  0
 17 44  1  0
 18 45  1  0
 18 46  1  0
 19 47  1  0
 19 48  1  0
 21 49  1  0
 21 50  1  0
 21 51  1  0
 22 52  1  0
 22 53  1  0
 23 54  1  0
 23 55  1  0
 23 56  1  0
 24 57  1  0
 24 58  1  0
 25 59  1  0
 25 60  1  0
 25 61  1  0
 26 62  1  0
 29 63  1  0
 29 64  1  0
 29 65  1  0
M  CHG  2  20   1  28   1
M  END
>  <UniqueID>  (13) 
13

>  <SMILES>  (13) 
CCOc1cccc2c1nc1ccc(CNCCC[N+](C)(CC)CC)cc1[n+]2C

>  <Energy>  (13) 
94.11323564251143

>  <Genealogy>  (13) 
CCOc1cccc2c1nc1ccc(CNCCC[N+](C)(CC)CC)cc1[n+]2C (3D coordinates assigned)
CCOc1cccc2c1nc1ccc(CNCCC[N+](C)(CC)CC)cc1[n+]2C (optimized conformer: 94.11323564251143 kcal/mol)

>  <smiles>  (13) 
CCOc1cccc2c1nc1ccc(CNCCC[N+](C)(CC)CC)cc1[n+]2C

>  <score_type>  (13) 
oracle

>  <origin>  (13) 
adg

>  <m_score__min__energy>  (13) 
-7.0300000000000002

>  <m_primary>  (13) 
energy

$$$$
13:0
     RDKit          3D

 57 59  0  0  0  0  0  0  0  0999 V2000
   -6.3900   25.3090  -29.6860 C   0  0  0  0  0  0  0  0  0  0  0  0
   -5.3970   25.2850  -30.8390 C   0  0  0  0  0  0  0  0  0  0  0  0
   -4.1770   24.7330  -30.3890 O   0  0  0  0  0  0  0  0  0  0  0  0
   -4.2050   24.5370  -28.9870 C   0  0  0  0  0  0  0  0  0  0  0  0
   -2.9060   23.8830  -28.4990 C   0  0  0  0  0  0  0  0  0  0  0  0
   -2.6200   22.5640  -29.2280 C   0  0  0  0  0  0  0  0  0  0  0  0
   -3.8780   21.9390  -29.6640 N   0  0  0  0  0  0  0  0  0  0  0  0
   -3.7390   21.2110  -30.9370 C   0  0  0  0  0  0  0  0  0  0  0  0
   -3.7870   22.1490  -32.1540 C   0  0  0  0  0  0  0  0  0  0  0  0
   -4.5080   21.5100  -33.2540 N   0  0  0  0  0  0  0  0  0  0  0  0
   -5.6790   20.7120  -33.0190 C   0  0  0  0  0  0  0  0  0  0  0  0
   -6.8390   21.3260  -32.5110 C   0  0  0  0  0  0  0  0  0  0  0  0
   -6.9190   22.7300  -32.3860 C   0  0  0  0  0  0  0  0  0  0  0  0
   -8.0810   23.3400  -31.9210 C   0  0  0  0  0  0  0  0  0  0  0  0
   -9.1890   22.5680  -31.5940 C   0  0  0  0  0  0  0  0  0  0  0  0
   -9.1350   21.1790  -31.7110 C   0  0  0  0  0  0  0  0  0  0  0  0
   -7.9530   20.5270  -32.1490 C   0  0  0  0  0  0  0  0  0  0  0  0
   -7.8750   19.1530  -32.2420 N   0  0  0  0  0  0  0  0  0  0  0  0
   -8.8960   18.3100  -31.5780 C   0  0  0  0  0  0  0  0  0  0  0  0
   -6.8380   18.5630  -32.9410 C   0  0  0  0  0  0  0  0  0  0  0  0
   -6.8920   17.1980  -33.3130 C   0  0  0  0  0  0  0  0  0  0  0  0
   -5.8300   16.5860  -33.9640 C   0  0  0  0  0  0  0  0  0  0  0  0
   -4.6930   17.3120  -34.2810 C   0  0  0  0  0  0  0  0  0  0  0  0
   -4.6100   18.6840  -33.9890 C   0  0  0  0  0  0  0  0  0  0  0  0
   -3.4770   19.4200  -34.3740 O   0  0  0  0  0  0  0  0  0  0  0  0
   -2.1860   19.3100  -33.7840 C   0  0  0  0  0  0  0  0  0  0  0  0
   -5.6940   19.3270  -33.3200 C   0  0  0  0  0  0  0  0  0  0  0  0
   -5.8437   25.2958  -28.7313 H   0  0  0  0  0  0  0  0  0  0  0  0
   -7.0003   26.2222  -29.7466 H   0  0  0  0  0  0  0  0  0  0  0  0
   -7.0437   24.4264  -29.7466 H   0  0  0  0  0  0  0  0  0  0  0  0
   -5.7990   24.6707  -31.6582 H   0  0  0  0  0  0  0  0  0  0  0  0
   -5.2277   26.3092  -31.2027 H   0  0  0  0  0  0  0  0  0  0  0  0
   -4.3268   25.5106  -28.4897 H   0  0  0  0  0  0  0  0  0  0  0  0
   -5.0464   23.8722  -28.7421 H   0  0  0  0  0  0  0  0  0  0  0  0
   -2.0704   24.5760  -28.6769 H   0  0  0  0  0  0  0  0  0  0  0  0
   -3.0174   23.6626  -27.4271 H   0  0  0  0  0  0  0  0  0  0  0  0
   -1.9905   22.7645  -30.1075 H   0  0  0  0  0  0  0  0  0  0  0  0
   -2.1001   21.8805  -28.5406 H   0  0  0  0  0  0  0  0  0  0  0  0
   -4.6140   22.6790  -29.7590 H   0  0  0  0  0  0  0  0  0  0  0  0
   -2.7756   20.6800  -30.9374 H   0  0  0  0  0  0  0  0  0  0  0  0
   -4.5837   20.5110  -31.0182 H   0  0  0  0  0  0  0  0  0  0  0  0
   -4.3009   23.0807  -31.8750 H   0  0  0  0  0  0  0  0  0  0  0  0
   -2.7594   22.3704  -32.4781 H   0  0  0  0  0  0  0  0  0  0  0  0
   -4.2100   21.6990  -34.2380 H   0  0  0  0  0  0  0  0  0  0  0  0
   -6.0524   23.3498  -32.6594 H   0  0  0  0  0  0  0  0  0  0  0  0
   -8.1219   24.4339  -31.8124 H   0  0  0  0  0  0  0  0  0  0  0  0
  -10.1112   23.0534  -31.2419 H   0  0  0  0  0  0  0  0  0  0  0  0
  -10.0225   20.5797  -31.4598 H   0  0  0  0  0  0  0  0  0  0  0  0
   -8.7902   18.3973  -30.4866 H   0  0  0  0  0  0  0  0  0  0  0  0
   -9.8998   18.6459  -31.8772 H   0  0  0  0  0  0  0  0  0  0  0  0
   -8.7562   17.2607  -31.8772 H   0  0  0  0  0  0  0  0  0  0  0  0
   -7.7931   16.6112  -33.0816 H   0  0  0  0  0  0  0  0  0  0  0  0
   -5.8911   15.5203  -34.2294 H   0  0  0  0  0  0  0  0  0  0  0  0
   -3.8448   16.8079  -34.7673 H   0  0  0  0  0  0  0  0  0  0  0  0
   -2.2817   19.3182  -32.6882 H   0  0  0  0  0  0  0  0  0  0  0  0
   -1.7156   18.3685  -34.1040 H   0  0  0  0  0  0  0  0  0  0  0  0
   -1.5631   20.1583  -34.1040 H   0  0  0  0  0  0  0  0  0  0  0  0
  1  2  1  0
  2  3  1  0
  3  4  1  0
  4  5  1  0
  5  6  1  0
  6  7  1  0
  7  8  1  0
  8  9  1  0
  9 10  1  0
 10 11  1  0
 11 12  2  0
 12 13  1  0
 13 14  2  0
 14 15  1  0
 15 16  2  0
 16 17  1  0
 17 18  2  0
 18 19  1  0
 18 20  1  0
 20 21  2  0
 21 22  1  0
 22 23  2  0
 23 24  1  0
 24 25  1  0
 25 26  1  0
 24 27  2  0
 27 11  1  0
 17 12  1  0
 27 20  1  0
  1 28  1  0
  1 29  1  0
  1 30  1  0
  2 31  1  0
  2 32  1  0
  4 33  1  0
  4 34  1  0
  5 35  1  0
  5 36  1  0
  6 37  1  0
  6 38  1  0
  7 39  1  0
  8 40  1  0
  8 41  1  0
  9 42  1  0
  9 43  1  0
 10 44  1  0
 13 45  1  0
 14 46  1  0
 15 47  1  0
 16 48  1  0
 19 49  1  0
 19 50  1  0
 19 51  1  0
 21 52  1  0
 22 53  1  0
 23 54  1  0
 26 55  1  0
 26 56  1  0
 26 57  1  0
M  CHG  1  18   1
M  END
>  <UniqueID>  (14) 
14

>  <SMILES>  (14) 
CCOCCCNCCNc1c2ccccc2[n+](C)c2cccc(OC)c12

>  <Energy>  (14) 
82.67120892181967

>  <Genealogy>  (14) 
CCOCCCNCCNc1c2ccccc2[n+](C)c2cccc(OC)c12 (3D coordinates assigned)
CCOCCCNCCNc1c2ccccc2[n+](C)c2cccc(OC)c12 (optimized conformer: 82.67120892181967 kcal/mol)

>  <smiles>  (14) 
CCOCCCNCCNc1c2ccccc2[n+](C)c2cccc(OC)c12

>  <score_type>  (14) 
oracle

>  <origin>  (14) 
adg

>  <m_score__min__energy>  (14) 
-8.8699999999999992

>  <m_primary>  (14) 
energy

$$$$
14:0
     RDKit          3D

 31 32  0  0  0  0  0  0  0  0999 V2000
   -6.4110   24.7380  -30.1510 C   0  0  0  0  0  0  0  0  0  0  0  0
   -5.3720   25.8080  -30.4700 C   0  0  0  0  0  0  0  0  0  0  0  0
   -4.1410   25.2060  -30.8230 O   0  0  0  0  0  0  0  0  0  0  0  0
   -3.8070   24.1840  -29.9050 C   0  0  0  0  0  0  0  0  0  0  0  0
   -3.8410   22.8310  -30.6150 C   0  0  0  0  0  0  0  0  0  0  0  0
   -4.5840   22.9100  -31.8720 N   0  0  0  0  0  0  0  0  0  0  0  0
   -5.2960   21.7740  -32.3710 C   0  0  0  0  0  0  0  0  0  0  0  0
   -6.5800   21.5740  -32.2230 O   0  0  0  0  0  0  0  0  0  0  0  0
   -6.8480   20.4300  -32.8150 C   0  0  0  0  0  0  0  0  0  0  0  0
   -8.2190   19.8390  -32.8920 C   0  0  0  0  0  0  0  0  0  0  0  0
   -8.6830   19.1530  -31.6160 C   0  0  0  0  0  0  0  0  0  0  0  0
   -9.2480   20.5110  -31.9960 C   0  0  0  0  0  0  0  0  0  0  0  0
   -5.7570   19.8510  -33.3730 N   0  0  0  0  0  0  0  0  0  0  0  0
   -4.7710   20.7190  -33.0790 C   0  0  0  0  0  0  0  0  0  0  0  0
   -3.3990   20.5400  -33.4650 C   0  0  0  0  0  0  0  0  0  0  0  0
   -2.2940   20.3950  -33.7770 N   0  0  0  0  0  0  0  0  0  0  0  0
   -6.5097   24.6364  -29.0602 H   0  0  0  0  0  0  0  0  0  0  0  0
   -7.3807   25.0286  -30.5814 H   0  0  0  0  0  0  0  0  0  0  0  0
   -6.0920   23.7773  -30.5814 H   0  0  0  0  0  0  0  0  0  0  0  0
   -5.7296   26.4225  -31.3094 H   0  0  0  0  0  0  0  0  0  0  0  0
   -5.2210   26.4373  -29.5805 H   0  0  0  0  0  0  0  0  0  0  0  0
   -2.7974   24.3641  -29.5070 H   0  0  0  0  0  0  0  0  0  0  0  0
   -4.5321   24.1825  -29.0778 H   0  0  0  0  0  0  0  0  0  0  0  0
   -2.8100   22.5116  -30.8274 H   0  0  0  0  0  0  0  0  0  0  0  0
   -4.3449   22.1065  -29.9584 H   0  0  0  0  0  0  0  0  0  0  0  0
   -4.5990   23.7980  -32.4230 H   0  0  0  0  0  0  0  0  0  0  0  0
   -8.1726   19.5614  -33.9554 H   0  0  0  0  0  0  0  0  0  0  0  0
   -9.3189   18.2573  -31.6732 H   0  0  0  0  0  0  0  0  0  0  0  0
   -8.1812   18.7402  -30.7284 H   0  0  0  0  0  0  0  0  0  0  0  0
  -10.2930   20.5984  -32.3282 H   0  0  0  0  0  0  0  0  0  0  0  0
   -9.3246   21.4884  -31.4973 H   0  0  0  0  0  0  0  0  0  0  0  0
  1  2  1  0
  2  3  1  0
  3  4  1  0
  4  5  1  0
  5  6  1  0
  6  7  1  0
  7  8  1  0
  8  9  1  0
  9 10  1  0
 10 11  1  0
 11 12  1  0
  9 13  2  0
 13 14  1  0
 14 15  1  0
 15 16  3  0
 14  7  2  0
 12 10  1  0
  1 17  1  0
  1 18  1  0
  1 19  1  0
  2 20  1  0
  2 21  1  0
  4 22  1  0
  4 23  1  0
  5 24  1  0
  5 25  1  0
  6 26  1  0
 10 27  1  0
 11 28  1  0
 11 29  1  0
 12 30  1  0
 12 31  1  0
M  END
>  <UniqueID>  (15) 
15

>  <SMILES>  (15) 
CCOCCNc1oc(C2CC2)nc1C#N

>  <Energy>  (15) 
317.2035138652841

>  <Genealogy>  (15) 
CCOCCNc1oc(C2CC2)nc1C#N (3D coordinates assigned)
CCOCCNc1oc(C2CC2)nc1C#N (nonaromatic ring conformer: 317.2035138652841 kcal/mol)

>  <smiles>  (15) 
CCOCCNc1oc(C2CC2)nc1C#N

>  <score_type>  (15) 
oracle

>  <origin>  (15) 
adg

>  <m_score__min__energy>  (15) 
-5.5199999999999996

>  <m_primary>  (15) 
energy

$$$$
15:0
     RDKit          3D

 67 69  0  0  0  0  0  0  0  0999 V2000
   -1.0780   21.5710  -30.5140 C   0  0  0  0  0  0  0  0  0  0  0  0
   -2.3570   20.8100  -30.1880 C   0  0  0  0  0  0  0  0  0  0  0  0
   -3.4010   21.7560  -29.7560 N   0  0  0  0  0  0  0  0  0  0  0  0
   -3.4010   21.9850  -28.3030 C   0  0  0  0  0  0  0  0  0  0  0  0
   -2.5210   23.1860  -27.9300 C   0  0  0  0  0  0  0  0  0  0  0  0
   -3.1610   24.5160  -28.3760 C   0  0  0  0  0  0  0  0  0  0  0  0
   -2.9680   24.7950  -29.7500 O   0  0  0  0  0  0  0  0  0  0  0  0
   -4.0170   24.2560  -30.4310 N   0  0  0  0  0  0  0  0  0  0  0  0
   -4.9510   25.3180  -30.8080 C   0  0  0  0  0  0  0  0  0  0  0  0
   -6.4030   24.8450  -30.6320 C   0  0  0  0  0  0  0  0  0  0  0  0
   -6.5370   23.3190  -30.7220 C   0  0  0  0  0  0  0  0  0  0  0  0
   -6.2730   22.8410  -32.0850 N   0  0  0  0  0  0  0  0  0  0  0  0
   -6.0510   21.4480  -32.3710 C   0  0  0  0  0  0  0  0  0  0  0  0
   -7.0790   20.5200  -32.1570 C   0  0  0  0  0  0  0  0  0  0  0  0
   -6.8060   19.1420  -32.2330 C   0  0  0  0  0  0  0  0  0  0  0  0
   -5.5750   18.6890  -32.6730 N   0  0  0  0  0  0  0  0  0  0  0  0
   -5.3850   17.2450  -32.9530 C   0  0  0  0  0  0  0  0  0  0  0  0
   -6.0220   16.8540  -34.2860 C   0  0  0  0  0  0  0  0  0  0  0  0
   -4.5470   19.5940  -32.8970 C   0  0  0  0  0  0  0  0  0  0  0  0
   -3.2280   19.1740  -33.2210 C   0  0  0  0  0  0  0  0  0  0  0  0
   -2.2080   20.0960  -33.5070 C   0  0  0  0  0  0  0  0  0  0  0  0
   -0.8830   19.6410  -33.8430 N   0  0  0  0  0  0  0  0  0  0  0  0
    0.1180   20.1140  -33.2660 O   0  0  0  0  0  0  0  0  0  0  0  0
   -0.6950   18.6790  -34.8090 O   0  0  0  0  0  0  0  0  0  0  0  0
   -2.4990   21.4640  -33.4660 C   0  0  0  0  0  0  0  0  0  0  0  0
   -3.7670   21.9060  -33.1080 C   0  0  0  0  0  0  0  0  0  0  0  0
   -4.7880   20.9910  -32.7830 C   0  0  0  0  0  0  0  0  0  0  0  0
   -7.8980   18.2260  -31.6860 C   0  0  0  0  0  0  0  0  0  0  0  0
   -9.2710   18.5620  -32.2910 C   0  0  0  0  0  0  0  0  0  0  0  0
   -9.5180   20.0760  -32.4840 C   0  0  0  0  0  0  0  0  0  0  0  0
   -8.4780   20.9540  -31.7760 C   0  0  0  0  0  0  0  0  0  0  0  0
   -0.5795   21.8676  -29.5794 H   0  0  0  0  0  0  0  0  0  0  0  0
   -0.4063   20.9256  -31.0990 H   0  0  0  0  0  0  0  0  0  0  0  0
   -1.3248   22.4693  -31.0990 H   0  0  0  0  0  0  0  0  0  0  0  0
   -2.6999   20.2707  -31.0833 H   0  0  0  0  0  0  0  0  0  0  0  0
   -2.1578   20.0924  -29.3784 H   0  0  0  0  0  0  0  0  0  0  0  0
   -3.2180   22.6790  -30.2180 H   0  0  0  0  0  0  0  0  0  0  0  0
   -4.4315   22.1783  -27.9703 H   0  0  0  0  0  0  0  0  0  0  0  0
   -2.9954   21.0895  -27.8094 H   0  0  0  0  0  0  0  0  0  0  0  0
   -2.3841   23.2035  -26.8387 H   0  0  0  0  0  0  0  0  0  0  0  0
   -1.5546   23.0786  -28.4443 H   0  0  0  0  0  0  0  0  0  0  0  0
   -4.2419   24.4676  -28.1777 H   0  0  0  0  0  0  0  0  0  0  0  0
   -2.6719   25.3207  -27.8074 H   0  0  0  0  0  0  0  0  0  0  0  0
   -4.5090   23.6210  -29.7600 H   0  0  0  0  0  0  0  0  0  0  0  0
   -4.7766   26.1969  -30.1699 H   0  0  0  0  0  0  0  0  0  0  0  0
   -4.7869   25.5779  -31.8642 H   0  0  0  0  0  0  0  0  0  0  0  0
   -6.7644   25.1737  -29.6464 H   0  0  0  0  0  0  0  0  0  0  0  0
   -6.9989   25.2823  -31.4467 H   0  0  0  0  0  0  0  0  0  0  0  0
   -5.8160   22.8545  -30.0332 H   0  0  0  0  0  0  0  0  0  0  0  0
   -7.5667   23.0437  -30.4503 H   0  0  0  0  0  0  0  0  0  0  0  0
   -6.2770   23.5260  -32.8730 H   0  0  0  0  0  0  0  0  0  0  0  0
   -4.3078   17.0253  -32.9915 H   0  0  0  0  0  0  0  0  0  0  0  0
   -5.8693   16.6673  -32.1519 H   0  0  0  0  0  0  0  0  0  0  0  0
   -6.9458   16.2870  -34.0986 H   0  0  0  0  0  0  0  0  0  0  0  0
   -6.2592   17.7622  -34.8594 H   0  0  0  0  0  0  0  0  0  0  0  0
   -5.3195   16.2313  -34.8594 H   0  0  0  0  0  0  0  0  0  0  0  0
   -3.0003   18.0982  -33.2484 H   0  0  0  0  0  0  0  0  0  0  0  0
   -1.7176   22.1957  -33.7192 H   0  0  0  0  0  0  0  0  0  0  0  0
   -3.9765   22.9854  -33.0779 H   0  0  0  0  0  0  0  0  0  0  0  0
   -7.6454   17.1836  -31.9299 H   0  0  0  0  0  0  0  0  0  0  0  0
   -7.9561   18.3705  -30.5971 H   0  0  0  0  0  0  0  0  0  0  0  0
   -9.3463   18.0711  -33.2725 H   0  0  0  0  0  0  0  0  0  0  0  0
  -10.0294   18.2033  -31.5795 H   0  0  0  0  0  0  0  0  0  0  0  0
   -9.4899   20.3002  -33.5605 H   0  0  0  0  0  0  0  0  0  0  0  0
  -10.4972   20.3064  -32.0389 H   0  0  0  0  0  0  0  0  0  0  0  0
   -8.6261   22.0029  -32.0724 H   0  0  0  0  0  0  0  0  0  0  0  0
   -8.6018   20.8494  -30.6880 H   0  0  0  0  0  0  0  0  0  0  0  0
  1  2  1  0
  2  3  1  0
  3  4  1  0
  4  5  1  0
  5  6  1  0
  6  7  1  0
  7  8  1  0
  8  9  1  0
  9 10  1  0
 10 11  1  0
 11 12  1  0
 12 13  1  0
 13 14  2  0
 14 15  1  0
 15 16  2  0
 16 17  1  0
 17 18  1  0
 16 19  1  0
 19 20  2  0
 20 21  1  0
 21 22  1  0
 22 23  2  0
 22 24  1  0
 21 25  2  0
 25 26  1  0
 26 27  2  0
 15 28  1  0
 28 29  1  0
 29 30  1  0
 30 31  1  0
 27 13  1  0
 31 14  1  0
 27 19  1  0
  1 32  1  0
  1 33  1  0
  1 34  1  0
  2 35  1  0
  2 36  1  0
  3 37  1  0
  4 38  1  0
  4 39  1  0
  5 40  1  0
  5 41  1  0
  6 42  1  0
  6 43  1  0
  8 44  1  0
  9 45  1  0
  9 46  1  0
 10 47  1  0
 10 48  1  0
 11 49  1  0
 11 50  1  0
 12 51  1  0
 17 52  1  0
 17 53  1  0
 18 54  1  0
 18 55  1  0
 18 56  1  0
 20 57  1  0
 25 58  1  0
 26 59  1  0
 28 60  1  0
 28 61  1  0
 29 62  1  0
 29 63  1  0
 30 64  1  0
 30 65  1  0
 31 66  1  0
 31 67  1  0
M  CHG  3  16   1  22   1  24  -1
M  END
>  <UniqueID>  (16) 
16

>  <SMILES>  (16) 
CCNCCCONCCCNc1c2c([n+](CC)c3cc([N+](=O)[O-])ccc13)CCCC2

>  <Energy>  (16) 
83.87382879901735

>  <Genealogy>  (16) 
CCNCCCONCCCNc1c2c([n+](CC)c3cc([N+](=O)[O-])ccc13)CCCC2 (3D coordinates assigned)
CCNCCCONCCCNc1c2c([n+](CC)c3cc([N+](=O)[O-])ccc13)CCCC2 (nonaromatic ring conformer: 83.87382879901735 kcal/mol)

>  <smiles>  (16) 
CCNCCCONCCCNc1c2c([n+](CC)c3cc([N+](=O)[O-])ccc13)CCCC2

>  <score_type>  (16) 
oracle

>  <origin>  (16) 
adg

>  <m_score__min__energy>  (16) 
-8.5999999999999996

>  <m_primary>  (16) 
energy

$$$$
16:0
     RDKit          3D

 50 52  0  0  0  0  0  0  0  0999 V2000
   -2.3040   25.6180  -26.2910 C   0  0  0  0  0  0  0  0  0  0  0  0
   -1.5540   24.5090  -27.0220 C   0  0  0  0  0  0  0  0  0  0  0  0
   -1.3430   24.8710  -28.4680 C   0  0  0  0  0  0  0  0  0  0  0  0
   -0.1730   24.8440  -28.9310 O   0  0  0  0  0  0  0  0  0  0  0  0
   -2.4160   25.2600  -29.3380 N   0  0  0  0  0  0  0  0  0  0  0  0
   -3.7810   24.7320  -29.3400 C   0  0  0  0  0  0  0  0  0  0  0  0
   -4.6540   25.5100  -30.3520 C   0  0  0  0  0  0  0  0  0  0  0  0
   -5.7280   24.6100  -30.9740 C   0  0  0  0  0  0  0  0  0  0  0  0
   -5.1380   23.4790  -31.7380 N   0  0  0  0  0  0  0  0  0  0  0  0
   -6.1130   22.3790  -31.9160 C   0  0  0  0  0  0  0  0  0  0  0  0
   -7.4880   22.7230  -31.3220 C   0  0  0  0  0  0  0  0  0  0  0  0
   -8.5810   22.2620  -32.1950 N   0  0  0  0  0  0  0  0  0  0  0  0
   -9.0170   20.8890  -31.8940 C   0  0  0  0  0  0  0  0  0  0  0  0
   -8.0880   19.8630  -32.4770 C   0  0  0  0  0  0  0  0  0  0  0  0
   -8.0330   18.5220  -32.1060 C   0  0  0  0  0  0  0  0  0  0  0  0
   -7.0310   17.9970  -32.8890 C   0  0  0  0  0  0  0  0  0  0  0  0
   -6.5150   16.7050  -32.9670 C   0  0  0  0  0  0  0  0  0  0  0  0
   -5.4700   16.4730  -33.8810 C   0  0  0  0  0  0  0  0  0  0  0  0
   -4.9730   17.5250  -34.6840 C   0  0  0  0  0  0  0  0  0  0  0  0
   -5.5170   18.8190  -34.5800 C   0  0  0  0  0  0  0  0  0  0  0  0
   -6.5500   19.0170  -33.6660 C   0  0  0  0  0  0  0  0  0  0  0  0
   -7.1910   20.1310  -33.4100 O   0  0  0  0  0  0  0  0  0  0  0  0
   -3.8540   22.9800  -31.1750 C   0  0  0  0  0  0  0  0  0  0  0  0
   -3.7370   23.2240  -29.6640 C   0  0  0  0  0  0  0  0  0  0  0  0
   -2.2059   25.4729  -25.2050 H   0  0  0  0  0  0  0  0  0  0  0  0
   -1.8795   26.5936  -26.5704 H   0  0  0  0  0  0  0  0  0  0  0  0
   -3.3675   25.5873  -26.5704 H   0  0  0  0  0  0  0  0  0  0  0  0
   -0.5761   24.3574  -26.5416 H   0  0  0  0  0  0  0  0  0  0  0  0
   -2.1515   23.5867  -26.9725 H   0  0  0  0  0  0  0  0  0  0  0  0
   -4.2371   24.8625  -28.3476 H   0  0  0  0  0  0  0  0  0  0  0  0
   -5.1450   26.3460  -29.8323 H   0  0  0  0  0  0  0  0  0  0  0  0
   -4.0029   25.8791  -31.1582 H   0  0  0  0  0  0  0  0  0  0  0  0
   -6.3591   24.2036  -30.1699 H   0  0  0  0  0  0  0  0  0  0  0  0
   -6.3168   25.2206  -31.6744 H   0  0  0  0  0  0  0  0  0  0  0  0
   -6.2310   22.1802  -32.9914 H   0  0  0  0  0  0  0  0  0  0  0  0
   -5.7269   21.4954  -31.3866 H   0  0  0  0  0  0  0  0  0  0  0  0
   -7.5853   22.2372  -30.3399 H   0  0  0  0  0  0  0  0  0  0  0  0
   -7.5597   23.8164  -31.2255 H   0  0  0  0  0  0  0  0  0  0  0  0
   -9.3960   22.9100  -32.0830 H   0  0  0  0  0  0  0  0  0  0  0  0
   -9.0503   20.7583  -30.8023 H   0  0  0  0  0  0  0  0  0  0  0  0
  -10.0104   20.7419  -32.3429 H   0  0  0  0  0  0  0  0  0  0  0  0
   -8.6495   18.0016  -31.3582 H   0  0  0  0  0  0  0  0  0  0  0  0
   -6.9104   15.8949  -32.3365 H   0  0  0  0  0  0  0  0  0  0  0  0
   -5.0369   15.4659  -33.9711 H   0  0  0  0  0  0  0  0  0  0  0  0
   -4.1560   17.3311  -35.3946 H   0  0  0  0  0  0  0  0  0  0  0  0
   -5.1394   19.6460  -35.1993 H   0  0  0  0  0  0  0  0  0  0  0  0
   -3.7833   21.8986  -31.3637 H   0  0  0  0  0  0  0  0  0  0  0  0
   -3.0386   23.5318  -31.6655 H   0  0  0  0  0  0  0  0  0  0  0  0
   -4.5721   22.7223  -29.1533 H   0  0  0  0  0  0  0  0  0  0  0  0
   -2.7739   22.8202  -29.3183 H   0  0  0  0  0  0  0  0  0  0  0  0
  1  2  1  0
  2  3  1  0
  3  4  2  0
  3  5  1  0
  5  6  1  0
  6  7  1  0
  7  8  1  0
  8  9  1  0
  9 10  1  0
 10 11  1  0
 11 12  1  0
 12 13  1  0
 13 14  1  0
 14 15  2  0
 15 16  1  0
 16 17  2  0
 17 18  1  0
 18 19  2  0
 19 20  1  0
 20 21  2  0
 21 22  1  0
  9 23  1  0
 23 24  1  0
 24  6  1  0
 22 14  1  0
 21 16  1  0
  1 25  1  0
  1 26  1  0
  1 27  1  0
  2 28  1  0
  2 29  1  0
  6 30  1  0
  7 31  1  0
  7 32  1  0
  8 33  1  0
  8 34  1  0
 10 35  1  0
 10 36  1  0
 11 37  1  0
 11 38  1  0
 12 39  1  0
 13 40  1  0
 13 41  1  0
 15 42  1  0
 17 43  1  0
 18 44  1  0
 19 45  1  0
 20 46  1  0
 23 47  1  0
 23 48  1  0
 24 49  1  0
 24 50  1  0
M  CHG  1   5  -1
M  END
>  <UniqueID>  (17) 
17

>  <SMILES>  (17) 
CCC(=O)[N-]C1CCN(CCNCc2cc3ccccc3o2)CC1

>  <Energy>  (17) 
87.28198207695513

>  <Genealogy>  (17) 
CCC(=O)[N-]C1CCN(CCNCc2cc3ccccc3o2)CC1 (protonated)
CCC(=O)[N-]C1CCN(CCNCc2cc3ccccc3o2)CC1 (3D coordinates assigned)
CCC(=O)[N-]C1CCN(CCNCc2cc3ccccc3o2)CC1 (nonaromatic ring conformer: 87.28198207695513 kcal/mol)

>  <smiles>  (17) 
CCC(=O)NC1CCN(CCNCc2cc3ccccc3o2)CC1

>  <score_type>  (17) 
oracle

>  <origin>  (17) 
adg

>  <m_score__min__energy>  (17) 
-10.210000000000001

>  <m_primary>  (17) 
energy

$$$$
17:0
     RDKit          3D

 49 51  0  0  0  0  0  0  0  0999 V2000
   -1.6230   20.3870  -29.0400 C   0  0  0  0  0  0  0  0  0  0  0  0
   -1.1480   20.3910  -30.1480 C   0  0  0  0  0  0  0  0  0  0  0  0
   -0.5740   20.3940  -31.4970 C   0  0  0  0  0  0  0  0  0  0  0  0
   -1.0680   21.5610  -32.2460 N   0  0  0  0  0  0  0  0  0  0  0  0
   -1.6470   21.1970  -33.5500 C   0  0  0  0  0  0  0  0  0  0  0  0
   -3.1680   21.0430  -33.4620 C   0  0  0  0  0  0  0  0  0  0  0  0
   -3.6380   21.3110  -32.1030 N   0  0  0  0  0  0  0  0  0  0  0  0
   -5.0220   21.5810  -31.8280 C   0  0  0  0  0  0  0  0  0  0  0  0
   -5.9840   20.6040  -32.1330 C   0  0  0  0  0  0  0  0  0  0  0  0
   -5.5970   19.3060  -32.5310 C   0  0  0  0  0  0  0  0  0  0  0  0
   -6.5520   18.3290  -32.7990 C   0  0  0  0  0  0  0  0  0  0  0  0
   -7.9030   18.6230  -32.6630 C   0  0  0  0  0  0  0  0  0  0  0  0
   -8.3090   19.9020  -32.2860 C   0  0  0  0  0  0  0  0  0  0  0  0
   -7.3600   20.9290  -32.0440 C   0  0  0  0  0  0  0  0  0  0  0  0
   -7.7460   22.2170  -31.7300 N   0  0  0  0  0  0  0  0  0  0  0  0
   -9.1450   22.6430  -31.9600 C   0  0  0  0  0  0  0  0  0  0  0  0
   -6.8230   23.1090  -31.2150 C   0  0  0  0  0  0  0  0  0  0  0  0
   -7.2350   24.3220  -30.6140 C   0  0  0  0  0  0  0  0  0  0  0  0
   -6.3100   25.2340  -30.1250 C   0  0  0  0  0  0  0  0  0  0  0  0
   -4.9540   24.9530  -30.1770 C   0  0  0  0  0  0  0  0  0  0  0  0
   -4.4930   23.7350  -30.7090 C   0  0  0  0  0  0  0  0  0  0  0  0
   -3.1230   23.4130  -30.6770 O   0  0  0  0  0  0  0  0  0  0  0  0
   -2.2270   23.6090  -29.5830 C   0  0  0  0  0  0  0  0  0  0  0  0
   -2.9210   23.3200  -28.2560 C   0  0  0  0  0  0  0  0  0  0  0  0
   -5.4290   22.8120  -31.2600 C   0  0  0  0  0  0  0  0  0  0  0  0
   -2.0564   20.3833  -28.0290 H   0  0  0  0  0  0  0  0  0  0  0  0
    0.5227   20.4423  -31.4272 H   0  0  0  0  0  0  0  0  0  0  0  0
   -0.8716   19.4735  -32.0206 H   0  0  0  0  0  0  0  0  0  0  0  0
   -1.8360   21.9970  -31.6830 H   0  0  0  0  0  0  0  0  0  0  0  0
   -1.4086   21.9846  -34.2800 H   0  0  0  0  0  0  0  0  0  0  0  0
   -1.2187   20.2331  -33.8623 H   0  0  0  0  0  0  0  0  0  0  0  0
   -3.6433   21.7530  -34.1549 H   0  0  0  0  0  0  0  0  0  0  0  0
   -3.4346   20.0102  -33.7307 H   0  0  0  0  0  0  0  0  0  0  0  0
   -2.9580   21.2820  -31.3090 H   0  0  0  0  0  0  0  0  0  0  0  0
   -4.5286   19.0637  -32.6305 H   0  0  0  0  0  0  0  0  0  0  0  0
   -6.2369   17.3246  -33.1183 H   0  0  0  0  0  0  0  0  0  0  0  0
   -8.6552   17.8434  -32.8536 H   0  0  0  0  0  0  0  0  0  0  0  0
   -9.3817   20.1187  -32.1743 H   0  0  0  0  0  0  0  0  0  0  0  0
   -9.6456   22.7954  -30.9925 H   0  0  0  0  0  0  0  0  0  0  0  0
   -9.1528   23.5842  -32.5292 H   0  0  0  0  0  0  0  0  0  0  0  0
   -9.6761   21.8659  -32.5292 H   0  0  0  0  0  0  0  0  0  0  0  0
   -8.3088   24.5464  -30.5328 H   0  0  0  0  0  0  0  0  0  0  0  0
   -6.6552   26.1852  -29.6937 H   0  0  0  0  0  0  0  0  0  0  0  0
   -4.2305   25.6900  -29.7983 H   0  0  0  0  0  0  0  0  0  0  0  0
   -1.3673   22.9321  -29.6953 H   0  0  0  0  0  0  0  0  0  0  0  0
   -1.8922   24.6568  -29.5849 H   0  0  0  0  0  0  0  0  0  0  0  0
   -2.2548   23.5974  -27.4258 H   0  0  0  0  0  0  0  0  0  0  0  0
   -3.8496   23.9062  -28.1926 H   0  0  0  0  0  0  0  0  0  0  0  0
   -3.1591   22.2479  -28.1926 H   0  0  0  0  0  0  0  0  0  0  0  0
  1  2  3  0
  2  3  1  0
  3  4  1  0
  4  5  1  0
  5  6  1  0
  6  7  1  0
  7  8  1  0
  8  9  2  0
  9 10  1  0
 10 11  2  0
 11 12  1  0
 12 13  2  0
 13 14  1  0
 14 15  2  0
 15 16  1  0
 15 17  1  0
 17 18  2  0
 18 19  1  0
 19 20  2  0
 20 21  1  0
 21 22  1  0
 22 23  1  0
 23 24  1  0
 21 25  2  0
 25  8  1  0
 14  9  1  0
 25 17  1  0
  1 26  1  0
  3 27  1  0
  3 28  1  0
  4 29  1  0
  5 30  1  0
  5 31  1  0
  6 32  1  0
  6 33  1  0
  7 34  1  0
 10 35  1  0
 11 36  1  0
 12 37  1  0
 13 38  1  0
 16 39  1  0
 16 40  1  0
 16 41  1  0
 18 42  1  0
 19 43  1  0
 20 44  1  0
 23 45  1  0
 23 46  1  0
 24 47  1  0
 24 48  1  0
 24 49  1  0
M  CHG  1  15   1
M  END
>  <UniqueID>  (18) 
18

>  <SMILES>  (18) 
C#CCNCCNc1c2ccccc2[n+](C)c2cccc(OCC)c12

>  <Energy>  (18) 
74.2173413134881

>  <Genealogy>  (18) 
C#CCNCCNc1c2ccccc2[n+](C)c2cccc(OCC)c12 (3D coordinates assigned)
C#CCNCCNc1c2ccccc2[n+](C)c2cccc(OCC)c12 (optimized conformer: 74.2173413134881 kcal/mol)

>  <smiles>  (18) 
C#CCNCCNc1c2ccccc2[n+](C)c2cccc(OCC)c12

>  <score_type>  (18) 
oracle

>  <origin>  (18) 
adg

>  <m_score__min__energy>  (18) 
-7.8399999999999999

>  <m_primary>  (18) 
energy

$$$$
18:0
     RDKit          3D

 41 43  0  0  0  0  0  0  0  0999 V2000
   -5.0900   17.0200  -34.1490 C   0  0  0  0  0  0  0  0  0  0  0  0
   -6.1260   17.9320  -33.5630 C   0  0  0  0  0  0  0  0  0  0  0  0
   -7.0820   17.4320  -32.6650 C   0  0  0  0  0  0  0  0  0  0  0  0
   -8.0240   18.2890  -32.0890 C   0  0  0  0  0  0  0  0  0  0  0  0
   -8.0200   19.6580  -32.3990 C   0  0  0  0  0  0  0  0  0  0  0  0
   -9.0110   20.5870  -31.7460 C   0  0  0  0  0  0  0  0  0  0  0  0
   -8.3080   21.6380  -30.9900 N   0  0  0  0  0  0  0  0  0  0  0  0
   -8.4740   22.9710  -31.5990 C   0  0  0  0  0  0  0  0  0  0  0  0
   -7.2130   23.4330  -32.3460 C   0  0  0  0  0  0  0  0  0  0  0  0
   -6.1270   23.7820  -31.3730 C   0  0  0  0  0  0  0  0  0  0  0  0
   -6.1050   24.8750  -30.5130 C   0  0  0  0  0  0  0  0  0  0  0  0
   -4.9360   24.9190  -29.8340 N   0  0  0  0  0  0  0  0  0  0  0  0
   -4.2140   23.8710  -30.2690 C   0  0  0  0  0  0  0  0  0  0  0  0
   -2.9270   23.5080  -29.8750 C   0  0  0  0  0  0  0  0  0  0  0  0
   -2.3470   22.3780  -30.4810 C   0  0  0  0  0  0  0  0  0  0  0  0
   -3.0570   21.6460  -31.4570 C   0  0  0  0  0  0  0  0  0  0  0  0
   -4.3550   22.0350  -31.8360 C   0  0  0  0  0  0  0  0  0  0  0  0
   -4.9060   23.1570  -31.2140 C   0  0  0  0  0  0  0  0  0  0  0  0
   -7.0430   20.1630  -33.2710 C   0  0  0  0  0  0  0  0  0  0  0  0
   -6.1010   19.3060  -33.8480 C   0  0  0  0  0  0  0  0  0  0  0  0
   -4.5325   16.5292  -33.3377 H   0  0  0  0  0  0  0  0  0  0  0  0
   -5.5822   16.2567  -34.7696 H   0  0  0  0  0  0  0  0  0  0  0  0
   -4.3953   17.6050  -34.7696 H   0  0  0  0  0  0  0  0  0  0  0  0
   -7.0898   16.3612  -32.4135 H   0  0  0  0  0  0  0  0  0  0  0  0
   -8.7723   17.8886  -31.3892 H   0  0  0  0  0  0  0  0  0  0  0  0
   -9.6353   21.0544  -32.5217 H   0  0  0  0  0  0  0  0  0  0  0  0
   -9.6396   20.0085  -31.0530 H   0  0  0  0  0  0  0  0  0  0  0  0
   -8.6460   21.6520  -29.9990 H   0  0  0  0  0  0  0  0  0  0  0  0
   -7.2850   21.4150  -30.9810 H   0  0  0  0  0  0  0  0  0  0  0  0
   -9.3123   22.9329  -32.3102 H   0  0  0  0  0  0  0  0  0  0  0  0
   -8.6666   23.6893  -30.7884 H   0  0  0  0  0  0  0  0  0  0  0  0
   -6.8640   22.6230  -33.0033 H   0  0  0  0  0  0  0  0  0  0  0  0
   -7.4580   24.3246  -32.9419 H   0  0  0  0  0  0  0  0  0  0  0  0
   -6.9233   25.6015  -30.4008 H   0  0  0  0  0  0  0  0  0  0  0  0
   -4.6490   25.6320  -29.1280 H   0  0  0  0  0  0  0  0  0  0  0  0
   -2.3821   24.0865  -29.1145 H   0  0  0  0  0  0  0  0  0  0  0  0
   -1.3334   22.0630  -30.1921 H   0  0  0  0  0  0  0  0  0  0  0  0
   -2.5923   20.7654  -31.9245 H   0  0  0  0  0  0  0  0  0  0  0  0
   -4.9170   21.4738  -32.5971 H   0  0  0  0  0  0  0  0  0  0  0  0
   -7.0183   21.2383  -33.5016 H   0  0  0  0  0  0  0  0  0  0  0  0
   -5.3370   19.7104  -34.5283 H   0  0  0  0  0  0  0  0  0  0  0  0
  1  2  1  0
  2  3  2  0
  3  4  1  0
  4  5  2  0
  5  6  1  0
  6  7  1  0
  7  8  1  0
  8  9  1  0
  9 10  1  0
 10 11  2  0
 11 12  1  0
 12 13  1  0
 13 14  2  0
 14 15  1  0
 15 16  2  0
 16 17  1  0
 17 18  2  0
  5 19  1  0
 19 20  2  0
 20  2  1  0
 18 10  1  0
 18 13  1  0
  1 21  1  0
  1 22  1  0
  1 23  1  0
  3 24  1  0
  4 25  1  0
  6 26  1  0
  6 27  1  0
  7 28  1  0
  7 29  1  0
  8 30  1  0
  8 31  1  0
  9 32  1  0
  9 33  1  0
 11 34  1  0
 12 35  1  0
 14 36  1  0
 15 37  1  0
 16 38  1  0
 17 39  1  0
 19 40  1  0
 20 41  1  0
M  CHG  1   7   1
M  END
>  <UniqueID>  (19) 
19

>  <SMILES>  (19) 
Cc1ccc(C[NH2+]CCc2c[nH]c3ccccc23)cc1

>  <Energy>  (19) 
72.1751972662631

>  <Genealogy>  (19) 
Cc1ccc(C[NH2+]CCc2c[nH]c3ccccc23)cc1 (protonated)
Cc1ccc(C[NH2+]CCc2c[nH]c3ccccc23)cc1 (3D coordinates assigned)
Cc1ccc(C[NH2+]CCc2c[nH]c3ccccc23)cc1 (optimized conformer: 72.1751972662631 kcal/mol)

>  <smiles>  (19) 
Cc1ccc(CNCCc2c[nH]c3ccccc23)cc1

>  <score_type>  (19) 
oracle

>  <origin>  (19) 
adg

>  <m_score__min__energy>  (19) 
-7.3600000000000003

>  <m_primary>  (19) 
energy

$$$$
19:0
     RDKit          3D

 79 83  0  0  0  0  0  0  0  0999 V2000
   -6.8340   25.0370  -30.0520 C   0  0  0  0  0  0  0  0  0  0  0  0
   -5.5190   25.6860  -30.3900 C   0  0  0  0  0  0  0  0  0  0  0  0
   -4.5190   24.7260  -30.8350 N   0  0  0  0  0  0  0  0  0  0  0  0
   -3.6300   24.5430  -29.7030 C   0  0  0  0  0  0  0  0  0  0  0  0
   -4.2290   23.7070  -28.6210 C   0  0  0  0  0  0  0  0  0  0  0  0
   -5.1660   23.5130  -31.2220 C   0  0  0  0  0  0  0  0  0  0  0  0
   -4.2610   22.4220  -31.6940 C   0  0  0  0  0  0  0  0  0  0  0  0
   -4.6840   21.9590  -33.0440 N   0  0  0  0  0  0  0  0  0  0  0  0
   -5.1190   20.6170  -33.1010 C   0  0  0  0  0  0  0  0  0  0  0  0
   -6.4490   20.4070  -32.7610 C   0  0  0  0  0  0  0  0  0  0  0  0
   -7.2280   21.4750  -32.3610 C   0  0  0  0  0  0  0  0  0  0  0  0
   -8.5520   21.3740  -31.9990 C   0  0  0  0  0  0  0  0  0  0  0  0
   -9.1290   20.1300  -32.0390 C   0  0  0  0  0  0  0  0  0  0  0  0
   -8.3650   19.0310  -32.4400 C   0  0  0  0  0  0  0  0  0  0  0  0
   -7.0470   19.1690  -32.7940 C   0  0  0  0  0  0  0  0  0  0  0  0
   -6.3060   18.1160  -33.1740 N   0  0  0  0  0  0  0  0  0  0  0  0
   -6.8390   16.7880  -33.2480 C   0  0  0  0  0  0  0  0  0  0  0  0
   -5.0030   18.2800  -33.5100 C   0  0  0  0  0  0  0  0  0  0  0  0
   -4.3030   17.1530  -33.8800 C   0  0  0  0  0  0  0  0  0  0  0  0
   -2.9850   17.2860  -34.2140 C   0  0  0  0  0  0  0  0  0  0  0  0
   -2.3920   18.5190  -34.1770 C   0  0  0  0  0  0  0  0  0  0  0  0
   -3.0470   19.6930  -33.8120 C   0  0  0  0  0  0  0  0  0  0  0  0
   -2.3340   20.8840  -33.7830 N   0  0  0  0  0  0  0  0  0  0  0  0
   -1.0990   20.9240  -32.9590 C   0  0  0  0  0  0  0  0  0  0  0  0
   -1.1830   19.9390  -31.8300 C   0  0  0  0  0  0  0  0  0  0  0  0
   -2.1820   20.4830  -30.8220 C   0  0  0  0  0  0  0  0  0  0  0  0
   -1.6190   21.3180  -29.8200 N   0  0  0  0  0  0  0  0  0  0  0  0
   -1.0170   22.4720  -30.2210 C   0  0  0  0  0  0  0  0  0  0  0  0
   -0.4370   23.3550  -29.3450 C   0  0  0  0  0  0  0  0  0  0  0  0
   -0.4690   23.0550  -28.0070 C   0  0  0  0  0  0  0  0  0  0  0  0
    0.1040   23.9220  -27.1290 C   0  0  0  0  0  0  0  0  0  0  0  0
    0.0910   23.6540  -25.7770 C   0  0  0  0  0  0  0  0  0  0  0  0
   -0.5150   22.4860  -25.3370 C   0  0  0  0  0  0  0  0  0  0  0  0
   -1.0870   21.6260  -26.2490 C   0  0  0  0  0  0  0  0  0  0  0  0
   -1.0840   21.8810  -27.6200 C   0  0  0  0  0  0  0  0  0  0  0  0
   -1.6430   21.0400  -28.5080 N   0  0  0  0  0  0  0  0  0  0  0  0
   -2.2710   19.8360  -28.0540 C   0  0  0  0  0  0  0  0  0  0  0  0
   -4.3850   19.5360  -33.4790 C   0  0  0  0  0  0  0  0  0  0  0  0
   -6.9455   24.9820  -28.9591 H   0  0  0  0  0  0  0  0  0  0  0  0
   -7.6563   25.6327  -30.4749 H   0  0  0  0  0  0  0  0  0  0  0  0
   -6.8614   24.0219  -30.4749 H   0  0  0  0  0  0  0  0  0  0  0  0
   -5.6843   26.4200  -31.1924 H   0  0  0  0  0  0  0  0  0  0  0  0
   -5.1384   26.1638  -29.4752 H   0  0  0  0  0  0  0  0  0  0  0  0
   -2.7098   24.0539  -30.0553 H   0  0  0  0  0  0  0  0  0  0  0  0
   -3.4291   25.5374  -29.2778 H   0  0  0  0  0  0  0  0  0  0  0  0
   -3.9383   24.1127  -27.6407 H   0  0  0  0  0  0  0  0  0  0  0  0
   -5.3251   23.7192  -28.7125 H   0  0  0  0  0  0  0  0  0  0  0  0
   -3.8650   22.6730  -28.7125 H   0  0  0  0  0  0  0  0  0  0  0  0
   -5.7264   23.1362  -30.3537 H   0  0  0  0  0  0  0  0  0  0  0  0
   -5.8009   23.7713  -32.0824 H   0  0  0  0  0  0  0  0  0  0  0  0
   -3.2295   22.8008  -31.7453 H   0  0  0  0  0  0  0  0  0  0  0  0
   -4.3138   21.5787  -30.9897 H   0  0  0  0  0  0  0  0  0  0  0  0
   -4.6180   22.5950  -33.8730 H   0  0  0  0  0  0  0  0  0  0  0  0
   -6.7603   22.4701  -32.3297 H   0  0  0  0  0  0  0  0  0  0  0  0
   -9.1269   22.2590  -31.6887 H   0  0  0  0  0  0  0  0  0  0  0  0
  -10.1843   19.9988  -31.7577 H   0  0  0  0  0  0  0  0  0  0  0  0
   -8.8300   18.0347  -32.4725 H   0  0  0  0  0  0  0  0  0  0  0  0
   -6.9953   16.3985  -32.2312 H   0  0  0  0  0  0  0  0  0  0  0  0
   -7.7989   16.8076  -33.7848 H   0  0  0  0  0  0  0  0  0  0  0  0
   -6.1319   16.1385  -33.7848 H   0  0  0  0  0  0  0  0  0  0  0  0
   -4.7937   16.1689  -33.9060 H   0  0  0  0  0  0  0  0  0  0  0  0
   -2.4009   16.4029  -34.5124 H   0  0  0  0  0  0  0  0  0  0  0  0
   -1.3295   18.5873  -34.4534 H   0  0  0  0  0  0  0  0  0  0  0  0
   -2.5090   21.7930  -34.2210 H   0  0  0  0  0  0  0  0  0  0  0  0
   -0.2344   20.6751  -33.5918 H   0  0  0  0  0  0  0  0  0  0  0  0
   -0.9862   21.9345  -32.5393 H   0  0  0  0  0  0  0  0  0  0  0  0
   -1.5236   18.9635  -32.2073 H   0  0  0  0  0  0  0  0  0  0  0  0
   -0.1970   19.8010  -31.3623 H   0  0  0  0  0  0  0  0  0  0  0  0
   -2.9378   21.0658  -31.3689 H   0  0  0  0  0  0  0  0  0  0  0  0
   -2.6027   19.6111  -30.2997 H   0  0  0  0  0  0  0  0  0  0  0  0
   -0.9947   22.7069  -31.2954 H   0  0  0  0  0  0  0  0  0  0  0  0
    0.0404   24.2779  -29.7060 H   0  0  0  0  0  0  0  0  0  0  0  0
    0.5801   24.8416  -27.5000 H   0  0  0  0  0  0  0  0  0  0  0  0
    0.5514   24.3515  -25.0618 H   0  0  0  0  0  0  0  0  0  0  0  0
   -0.5387   22.2473  -24.2635 H   0  0  0  0  0  0  0  0  0  0  0  0
   -1.5633   20.7048  -25.8823 H   0  0  0  0  0  0  0  0  0  0  0  0
   -2.2797   19.8192  -26.9542 H   0  0  0  0  0  0  0  0  0  0  0  0
   -3.3042   19.7973  -28.4295 H   0  0  0  0  0  0  0  0  0  0  0  0
   -1.7115   18.9665  -28.4295 H   0  0  0  0  0  0  0  0  0  0  0  0
  1  2  1  0
  2  3  1  0
  3  4  1  0
  4  5  1  0
  3  6  1  0
  6  7  1  0
  7  8  1  0
  8  9  1  0
  9 10  2  0
 10 11  1  0
 11 12  2  0
 12 13  1  0
 13 14  2  0
 14 15  1  0
 15 16  2  0
 16 17  1  0
 16 18  1  0
 18 19  2  0
 19 20  1  0
 20 21  2  0
 21 22  1  0
 22 23  1  0
 23 24  1  0
 24 25  1  0
 25 26  1  0
 26 27  1  0
 27 28  2  0
 28 29  1  0
 29 30  2  0
 30 31  1  0
 31 32  2  0
 32 33  1  0
 33 34  2  0
 34 35  1  0
 35 36  2  0
 36 37  1  0
 22 38  2  0
 38  9  1  0
 15 10  1  0
 38 18  1  0
 36 27  1  0
 35 30  1  0
  1 39  1  0
  1 40  1  0
  1 41  1  0
  2 42  1  0
  2 43  1  0
  4 44  1  0
  4 45  1  0
  5 46  1  0
  5 47  1  0
  5 48  1  0
  6 49  1  0
  6 50  1  0
  7 51  1  0
  7 52  1  0
  8 53  1  0
 11 54  1  0
 12 55  1  0
 13 56  1  0
 14 57  1  0
 17 58  1  0
 17 59  1  0
 17 60  1  0
 19 61  1  0
 20 62  1  0
 21 63  1  0
 23 64  1  0
 24 65  1  0
 24 66  1  0
 25 67  1  0
 25 68  1  0
 26 69  1  0
 26 70  1  0
 28 71  1  0
 29 72  1  0
 31 73  1  0
 32 74  1  0
 33 75  1  0
 34 76  1  0
 37 77  1  0
 37 78  1  0
 37 79  1  0
M  CHG  3  16   1  27   1  36   1
M  END
>  <smiles>  (20) 
CCN(CC)CCNc1c2ccccc2[n+](C)c2cccc(NCCC[n+]3ccc4ccccc4[n+]3C)c12

>  <score_type>  (20) 
oracle

>  <origin>  (20) 
adg

>  <m_score__min__energy>  (20) 
-10.289999999999999

>  <m_primary>  (20) 
energy

$$$$
20:0
     RDKit          3D

 47 46  0  0  0  0  0  0  0  0999 V2000
   -2.5700   24.8900  -26.9680 C   0  0  0  0  0  0  0  0  0  0  0  0
   -1.5470   25.4440  -27.9470 C   0  0  0  0  0  0  0  0  0  0  0  0
   -2.0240   25.2680  -29.2650 O   0  0  0  0  0  0  0  0  0  0  0  0
   -2.5460   23.9620  -29.4330 C   0  0  0  0  0  0  0  0  0  0  0  0
   -3.8200   24.0000  -30.2730 C   0  0  0  0  0  0  0  0  0  0  0  0
   -4.0020   25.3020  -30.7890 O   0  0  0  0  0  0  0  0  0  0  0  0
   -5.3560   25.6770  -30.6600 C   0  0  0  0  0  0  0  0  0  0  0  0
   -6.0910   24.6540  -29.7840 C   0  0  0  0  0  0  0  0  0  0  0  0
   -6.9520   23.8260  -30.5470 O   0  0  0  0  0  0  0  0  0  0  0  0
   -7.5570   22.8200  -29.7520 C   0  0  0  0  0  0  0  0  0  0  0  0
   -7.7030   21.5520  -30.5850 C   0  0  0  0  0  0  0  0  0  0  0  0
   -8.3590   21.8580  -31.8000 O   0  0  0  0  0  0  0  0  0  0  0  0
   -9.1760   20.7740  -32.2050 C   0  0  0  0  0  0  0  0  0  0  0  0
   -8.3140   19.6350  -32.7560 C   0  0  0  0  0  0  0  0  0  0  0  0
   -7.2190   20.1810  -33.5670 N   0  0  0  0  0  0  0  0  0  0  0  0
   -6.1470   19.1920  -33.7570 C   0  0  0  0  0  0  0  0  0  0  0  0
   -4.9420   19.5290  -32.8810 C   0  0  0  0  0  0  0  0  0  0  0  0
   -5.2090   20.7200  -32.1470 O   0  0  0  0  0  0  0  0  0  0  0  0
   -4.9070   21.9720  -32.6470 N   0  0  0  0  0  0  0  0  0  0  0  0
   -3.7570   22.2440  -33.0510 O   0  0  0  0  0  0  0  0  0  0  0  0
   -5.8920   22.9270  -32.7090 O   0  0  0  0  0  0  0  0  0  0  0  0
   -2.2295   25.0744  -25.9384 H   0  0  0  0  0  0  0  0  0  0  0  0
   -3.5380   25.3872  -27.1287 H   0  0  0  0  0  0  0  0  0  0  0  0
   -2.6826   23.8076  -27.1287 H   0  0  0  0  0  0  0  0  0  0  0  0
   -1.3929   26.5154  -27.7513 H   0  0  0  0  0  0  0  0  0  0  0  0
   -0.5921   24.9118  -27.8250 H   0  0  0  0  0  0  0  0  0  0  0  0
   -1.7971   23.3351  -29.9391 H   0  0  0  0  0  0  0  0  0  0  0  0
   -2.7841   23.5439  -28.4438 H   0  0  0  0  0  0  0  0  0  0  0  0
   -3.7333   23.2845  -31.1040 H   0  0  0  0  0  0  0  0  0  0  0  0
   -4.6822   23.7290  -29.6460 H   0  0  0  0  0  0  0  0  0  0  0  0
   -5.4179   26.6709  -30.1928 H   0  0  0  0  0  0  0  0  0  0  0  0
   -5.8231   25.7089  -31.6554 H   0  0  0  0  0  0  0  0  0  0  0  0
   -5.3479   24.0218  -29.2760 H   0  0  0  0  0  0  0  0  0  0  0  0
   -6.7051   25.2063  -29.0574 H   0  0  0  0  0  0  0  0  0  0  0  0
   -6.9266   22.6144  -28.8743 H   0  0  0  0  0  0  0  0  0  0  0  0
   -8.5472   23.1588  -29.4131 H   0  0  0  0  0  0  0  0  0  0  0  0
   -6.7068   21.1383  -30.8005 H   0  0  0  0  0  0  0  0  0  0  0  0
   -8.2945   20.8123  -30.0256 H   0  0  0  0  0  0  0  0  0  0  0  0
   -9.7496   20.4092  -31.3402 H   0  0  0  0  0  0  0  0  0  0  0  0
   -9.8610   21.1179  -32.9940 H   0  0  0  0  0  0  0  0  0  0  0  0
   -7.8945   19.0579  -31.9188 H   0  0  0  0  0  0  0  0  0  0  0  0
   -8.9375   18.9818  -33.3841 H   0  0  0  0  0  0  0  0  0  0  0  0
   -6.8130   20.9920  -33.0440 H   0  0  0  0  0  0  0  0  0  0  0  0
   -6.5233   18.1946  -33.4857 H   0  0  0  0  0  0  0  0  0  0  0  0
   -5.8338   19.2072  -34.8114 H   0  0  0  0  0  0  0  0  0  0  0  0
   -4.7539   18.7012  -32.1815 H   0  0  0  0  0  0  0  0  0  0  0  0
   -4.0566   19.6796  -33.5162 H   0  0  0  0  0  0  0  0  0  0  0  0
  1  2  1  0
  2  3  1  0
  3  4  1  0
  4  5  1  0
  5  6  1  0
  6  7  1  0
  7  8  1  0
  8  9  1  0
  9 10  1  0
 10 11  1  0
 11 12  1  0
 12 13  1  0
 13 14  1  0
 14 15  1  0
 15 16  1  0
 16 17  1  0
 17 18  1  0
 18 19  1  0
 19 20  2  0
 19 21  1  0
  1 22  1  0
  1 23  1  0
  1 24  1  0
  2 25  1  0
  2 26  1  0
  4 27  1  0
  4 28  1  0
  5 29  1  0
  5 30  1  0
  7 31  1  0
  7 32  1  0
  8 33  1  0
  8 34  1  0
 10 35  1  0
 10 36  1  0
 11 37  1  0
 11 38  1  0
 13 39  1  0
 13 40  1  0
 14 41  1  0
 14 42  1  0
 15 43  1  0
 16 44  1  0
 16 45  1  0
 17 46  1  0
 17 47  1  0
M  CHG  2  19   1  21  -1
M  END
>  <UniqueID>  (21) 
20

>  <SMILES>  (21) 
CCOCCOCCOCCOCCNCCO[N+](=O)[O-]

>  <Energy>  (21) 
32.94623717811064

>  <Genealogy>  (21) 
CCOCCOCCOCCOCCNCCO[N+](=O)[O-] (3D coordinates assigned)
CCOCCOCCOCCOCCNCCO[N+](=O)[O-] (optimized conformer: 32.94623717811064 kcal/mol)

>  <smiles>  (21) 
CCOCCOCCOCCOCCNCCO[N+](=O)[O-]

>  <score_type>  (21) 
oracle

>  <origin>  (21) 
adg

>  <m_score__min__energy>  (21) 
-5.6500000000000004

>  <m_primary>  (21) 
energy

$$$$
21:0
     RDKit          3D

 49 51  0  0  0  0  0  0  0  0999 V2000
   -4.2320   23.0700  -28.6740 C   0  0  0  0  0  0  0  0  0  0  0  0
   -4.3320   24.3820  -29.4680 C   0  0  0  0  0  0  0  0  0  0  0  0
   -4.5910   24.1900  -30.9130 N   0  0  0  0  0  0  0  0  0  0  0  0
   -6.0100   24.3740  -31.2820 C   0  0  0  0  0  0  0  0  0  0  0  0
   -6.8140   24.8920  -30.0910 C   0  0  0  0  0  0  0  0  0  0  0  0
   -3.9930   22.9440  -31.4480 C   0  0  0  0  0  0  0  0  0  0  0  0
   -4.7210   22.5330  -32.6450 N   0  0  0  0  0  0  0  0  0  0  0  0
   -5.0320   21.1510  -32.8810 C   0  0  0  0  0  0  0  0  0  0  0  0
   -4.0320   20.2700  -33.3230 C   0  0  0  0  0  0  0  0  0  0  0  0
   -2.6920   20.6980  -33.4380 C   0  0  0  0  0  0  0  0  0  0  0  0
   -1.6960   19.8150  -33.8440 C   0  0  0  0  0  0  0  0  0  0  0  0
   -2.0130   18.4910  -34.1280 C   0  0  0  0  0  0  0  0  0  0  0  0
   -3.3320   18.0500  -34.0340 C   0  0  0  0  0  0  0  0  0  0  0  0
   -4.3770   18.9350  -33.6630 C   0  0  0  0  0  0  0  0  0  0  0  0
   -5.6970   18.5280  -33.6190 N   0  0  0  0  0  0  0  0  0  0  0  0
   -6.0990   17.2490  -34.2460 C   0  0  0  0  0  0  0  0  0  0  0  0
   -6.6470   19.3280  -33.0090 C   0  0  0  0  0  0  0  0  0  0  0  0
   -7.9410   18.8430  -32.6970 C   0  0  0  0  0  0  0  0  0  0  0  0
   -8.9030   19.6720  -32.1200 C   0  0  0  0  0  0  0  0  0  0  0  0
   -8.6050   21.0040  -31.8290 C   0  0  0  0  0  0  0  0  0  0  0  0
   -9.6290   21.8800  -31.1680 C   0  0  0  0  0  0  0  0  0  0  0  0
   -7.3160   21.4890  -32.0710 C   0  0  0  0  0  0  0  0  0  0  0  0
   -6.3320   20.6670  -32.6580 C   0  0  0  0  0  0  0  0  0  0  0  0
   -4.2489   23.2912  -27.5966 H   0  0  0  0  0  0  0  0  0  0  0  0
   -5.0833   22.4216  -28.9285 H   0  0  0  0  0  0  0  0  0  0  0  0
   -3.2922   22.5581  -28.9285 H   0  0  0  0  0  0  0  0  0  0  0  0
   -5.1523   24.9809  -29.0456 H   0  0  0  0  0  0  0  0  0  0  0  0
   -3.3563   24.8826  -29.3821 H   0  0  0  0  0  0  0  0  0  0  0  0
   -6.0778   25.0991  -32.1064 H   0  0  0  0  0  0  0  0  0  0  0  0
   -6.4236   23.4033  -31.5930 H   0  0  0  0  0  0  0  0  0  0  0  0
   -6.3272   24.5784  -29.1557 H   0  0  0  0  0  0  0  0  0  0  0  0
   -6.8604   25.9903  -30.1298 H   0  0  0  0  0  0  0  0  0  0  0  0
   -7.8333   24.4803  -30.1298 H   0  0  0  0  0  0  0  0  0  0  0  0
   -2.9381   23.1231  -31.7032 H   0  0  0  0  0  0  0  0  0  0  0  0
   -4.0555   22.1505  -30.6888 H   0  0  0  0  0  0  0  0  0  0  0  0
   -5.1190   23.2600  -33.2810 H   0  0  0  0  0  0  0  0  0  0  0  0
   -2.4321   21.7410  -33.2041 H   0  0  0  0  0  0  0  0  0  0  0  0
   -0.6574   20.1644  -33.9404 H   0  0  0  0  0  0  0  0  0  0  0  0
   -1.2204   17.7896  -34.4277 H   0  0  0  0  0  0  0  0  0  0  0  0
   -3.5667   16.9975  -34.2512 H   0  0  0  0  0  0  0  0  0  0  0  0
   -6.3303   16.5130  -33.4619 H   0  0  0  0  0  0  0  0  0  0  0  0
   -6.9895   17.4110  -34.8710 H   0  0  0  0  0  0  0  0  0  0  0  0
   -5.2759   16.8724  -34.8710 H   0  0  0  0  0  0  0  0  0  0  0  0
   -8.1915   17.7940  -32.9136 H   0  0  0  0  0  0  0  0  0  0  0  0
   -9.9028   19.2734  -31.8929 H   0  0  0  0  0  0  0  0  0  0  0  0
   -9.5321   21.7971  -30.0754 H   0  0  0  0  0  0  0  0  0  0  0  0
   -9.4688   22.9249  -31.4721 H   0  0  0  0  0  0  0  0  0  0  0  0
  -10.6365   21.5600  -31.4721 H   0  0  0  0  0  0  0  0  0  0  0  0
   -7.0663   22.5254  -31.7999 H   0  0  0  0  0  0  0  0  0  0  0  0
  1  2  1  0
  2  3  1  0
  3  4  1  0
  4  5  1  0
  3  6  1  0
  6  7  1  0
  7  8  1  0
  8  9  2  0
  9 10  1  0
 10 11  2  0
 11 12  1  0
 12 13  2  0
 13 14  1  0
 14 15  2  0
 15 16  1  0
 15 17  1  0
 17 18  2  0
 18 19  1  0
 19 20  2  0
 20 21  1  0
 20 22  1  0
 22 23  2  0
 23  8  1  0
 14  9  1  0
 23 17  1  0
  1 24  1  0
  1 25  1  0
  1 26  1  0
  2 27  1  0
  2 28  1  0
  4 29  1  0
  4 30  1  0
  5 31  1  0
  5 32  1  0
  5 33  1  0
  6 34  1  0
  6 35  1  0
  7 36  1  0
 10 37  1  0
 11 38  1  0
 12 39  1  0
 13 40  1  0
 16 41  1  0
 16 42  1  0
 16 43  1  0
 18 44  1  0
 19 45  1  0
 21 46  1  0
 21 47  1  0
 21 48  1  0
 22 49  1  0
M  CHG  1  15   1
M  END
>  <UniqueID>  (22) 
21

>  <SMILES>  (22) 
CCN(CC)CNc1c2ccccc2[n+](C)c2ccc(C)cc12

>  <Energy>  (22) 
75.18519321672748

>  <Genealogy>  (22) 
CCN(CC)CNc1c2ccccc2[n+](C)c2ccc(C)cc12 (3D coordinates assigned)
CCN(CC)CNc1c2ccccc2[n+](C)c2ccc(C)cc12 (optimized conformer: 75.18519321672748 kcal/mol)

>  <smiles>  (22) 
CCN(CC)CNc1c2ccccc2[n+](C)c2ccc(C)cc12

>  <score_type>  (22) 
oracle

>  <origin>  (22) 
adg

>  <m_score__min__energy>  (22) 
-8.4800000000000004

>  <m_primary>  (22) 
energy

$$$$
22:0
     RDKit          3D

 68 70  0  0  0  0  0  0  0  0999 V2000
   -3.7002   18.8214  -34.7376 H   0  0  0  0  0  0  0  0  0  0  0  0
   -4.1650   17.9850  -34.1950 C   0  0  0  0  0  0  0  0  0  0  0  0
   -4.9370   17.1890  -34.8570 N   0  0  0  0  0  0  0  0  0  0  0  0
   -5.6670   16.0750  -34.2890 C   0  0  0  0  0  0  0  0  0  0  0  0
   -5.6289   16.1332  -33.1912 H   0  0  0  0  0  0  0  0  0  0  0  0
   -6.7146   16.1150  -34.6221 H   0  0  0  0  0  0  0  0  0  0  0  0
   -5.2121   15.1305  -34.6221 H   0  0  0  0  0  0  0  0  0  0  0  0
   -3.8600   17.8400  -32.7230 C   0  0  0  0  0  0  0  0  0  0  0  0
   -2.7704   17.8008  -32.5775 H   0  0  0  0  0  0  0  0  0  0  0  0
   -4.3166   16.9130  -32.3459 H   0  0  0  0  0  0  0  0  0  0  0  0
   -4.4070   18.9810  -31.9920 N   0  0  0  0  0  0  0  0  0  0  0  0
   -3.9190   19.2880  -31.1190 H   0  0  0  0  0  0  0  0  0  0  0  0
   -5.7340   19.4870  -32.2280 C   0  0  0  0  0  0  0  0  0  0  0  0
   -6.7410   18.5880  -32.5990 C   0  0  0  0  0  0  0  0  0  0  0  0
   -6.4807   17.5461  -32.8371 H   0  0  0  0  0  0  0  0  0  0  0  0
   -8.0610   18.9980  -32.6690 C   0  0  0  0  0  0  0  0  0  0  0  0
   -8.8388   18.2854  -32.9808 H   0  0  0  0  0  0  0  0  0  0  0  0
   -8.4100   20.3040  -32.3480 C   0  0  0  0  0  0  0  0  0  0  0  0
   -9.4681   20.6035  -32.3767 H   0  0  0  0  0  0  0  0  0  0  0  0
   -7.4280   21.2550  -31.9850 C   0  0  0  0  0  0  0  0  0  0  0  0
   -6.0660   20.8440  -31.9520 C   0  0  0  0  0  0  0  0  0  0  0  0
   -5.0810   21.8130  -31.6610 C   0  0  0  0  0  0  0  0  0  0  0  0
   -3.7230   21.6270  -32.0860 N   0  0  0  0  0  0  0  0  0  0  0  0
   -2.9460   21.9590  -31.4660 H   0  0  0  0  0  0  0  0  0  0  0  0
   -3.4300   21.4140  -33.5000 C   0  0  0  0  0  0  0  0  0  0  0  0
   -3.7215   22.3091  -34.0690 H   0  0  0  0  0  0  0  0  0  0  0  0
   -3.9962   20.5395  -33.8530 H   0  0  0  0  0  0  0  0  0  0  0  0
   -1.9420   21.1530  -33.7030 C   0  0  0  0  0  0  0  0  0  0  0  0
   -1.5510   21.8424  -34.4658 H   0  0  0  0  0  0  0  0  0  0  0  0
   -1.7972   20.1139  -34.0335 H   0  0  0  0  0  0  0  0  0  0  0  0
   -1.2500   21.3570  -32.4870 O   0  0  0  0  0  0  0  0  0  0  0  0
   -0.4660   20.2280  -32.1350 C   0  0  0  0  0  0  0  0  0  0  0  0
    0.6000   20.4979  -32.1620 H   0  0  0  0  0  0  0  0  0  0  0  0
   -0.6533   19.4120  -32.8485 H   0  0  0  0  0  0  0  0  0  0  0  0
   -0.8400   19.7750  -30.7330 C   0  0  0  0  0  0  0  0  0  0  0  0
   -0.1186   20.1827  -30.0096 H   0  0  0  0  0  0  0  0  0  0  0  0
   -0.8230   18.6763  -30.6819 H   0  0  0  0  0  0  0  0  0  0  0  0
   -2.1400   20.2470  -30.4240 O   0  0  0  0  0  0  0  0  0  0  0  0
   -2.2890   20.4910  -29.0380 C   0  0  0  0  0  0  0  0  0  0  0  0
   -1.3814   20.1637  -28.5097 H   0  0  0  0  0  0  0  0  0  0  0  0
   -3.1582   19.9317  -28.6616 H   0  0  0  0  0  0  0  0  0  0  0  0
   -2.5070   21.9910  -28.7960 C   0  0  0  0  0  0  0  0  0  0  0  0
   -2.0681   22.2687  -27.8263 H   0  0  0  0  0  0  0  0  0  0  0  0
   -3.5873   22.1980  -28.7967 H   0  0  0  0  0  0  0  0  0  0  0  0
   -1.8710   22.7820  -29.8590 N   0  0  0  0  0  0  0  0  0  0  0  0
   -1.3430   22.1170  -30.4760 H   0  0  0  0  0  0  0  0  0  0  0  0
   -0.8900   23.7300  -29.3070 C   0  0  0  0  0  0  0  0  0  0  0  0
   -0.2854   24.1465  -30.1261 H   0  0  0  0  0  0  0  0  0  0  0  0
   -0.2398   23.2019  -28.5940 H   0  0  0  0  0  0  0  0  0  0  0  0
   -1.6090   24.8640  -28.5830 C   0  0  0  0  0  0  0  0  0  0  0  0
   -1.5183   24.7209  -27.4961 H   0  0  0  0  0  0  0  0  0  0  0  0
   -1.1551   25.8254  -28.8654 H   0  0  0  0  0  0  0  0  0  0  0  0
   -2.6721   24.8635  -28.8654 H   0  0  0  0  0  0  0  0  0  0  0  0
   -5.4670   23.0420  -31.1080 C   0  0  0  0  0  0  0  0  0  0  0  0
   -4.5060   23.9440  -30.6080 C   0  0  0  0  0  0  0  0  0  0  0  0
   -3.4369   23.6947  -30.6780 H   0  0  0  0  0  0  0  0  0  0  0  0
   -4.8960   25.1460  -30.0270 C   0  0  0  0  0  0  0  0  0  0  0  0
   -4.1367   25.8511  -29.6579 H   0  0  0  0  0  0  0  0  0  0  0  0
   -6.2500   25.4560  -29.9130 C   0  0  0  0  0  0  0  0  0  0  0  0
   -6.5577   26.3964  -29.4325 H   0  0  0  0  0  0  0  0  0  0  0  0
   -7.2160   24.5800  -30.4050 C   0  0  0  0  0  0  0  0  0  0  0  0
   -8.2823   24.8225  -30.2857 H   0  0  0  0  0  0  0  0  0  0  0  0
   -6.8380   23.3790  -31.0580 C   0  0  0  0  0  0  0  0  0  0  0  0
   -7.7660   22.5570  -31.6610 N   0  0  0  0  0  0  0  0  0  0  0  0
   -9.1250   23.0760  -31.9470 C   0  0  0  0  0  0  0  0  0  0  0  0
   -9.6480   23.2757  -31.0001 H   0  0  0  0  0  0  0  0  0  0  0  0
   -9.0472   24.0077  -32.5265 H   0  0  0  0  0  0  0  0  0  0  0  0
   -9.6881   22.3296  -32.5265 H   0  0  0  0  0  0  0  0  0  0  0  0
  1  2  1  0
  2  3  2  0
  3  4  1  0
  4  5  1  0
  4  6  1  0
  4  7  1  0
  2  8  1  0
  8  9  1  0
  8 10  1  0
  8 11  1  0
 11 12  1  0
 11 13  1  0
 13 14  2  0
 14 15  1  0
 14 16  1  0
 16 17  1  0
 16 18  2  0
 18 19  1  0
 18 20  1  0
 20 21  2  0
 21 22  1  0
 22 23  1  0
 23 24  1  0
 23 25  1  0
 25 26  1  0
 25 27  1  0
 25 28  1  0
 28 29  1  0
 28 30  1  0
 28 31  1  0
 31 32  1  0
 32 33  1  0
 32 34  1  0
 32 35  1  0
 35 36  1  0
 35 37  1  0
 35 38  1  0
 38 39  1  0
 39 40  1  0
 39 41  1  0
 39 42  1  0
 42 43  1  0
 42 44  1  0
 42 45  1  0
 45 46  1  0
 45 47  1  0
 47 48  1  0
 47 49  1  0
 47 50  1  0
 50 51  1  0
 50 52  1  0
 50 53  1  0
 22 54  2  0
 54 55  1  0
 55 56  1  0
 55 57  2  0
 57 58  1  0
 57 59  1  0
 59 60  1  0
 59 61  2  0
 61 62  1  0
 61 63  1  0
 63 64  2  0
 64 65  1  0
 65 66  1  0
 65 67  1  0
 65 68  1  0
 21 13  1  0
 63 54  1  0
 64 20  1  0
M  CHG  1  64   1
M  END
>  <UniqueID>  (23) 
22

>  <SMILES>  (23) 
CCNCCOCCOCCNc1c2ccccc2[n+](C)c2cccc(NC/C=N\C)c12

>  <Energy>  (23) 
102.17061192908092

>  <Genealogy>  (23) 
CCNCCOCCOCCNc1c2ccccc2[n+](C)c2cccc(NC/C=N\C)c12 (cis-trans isomerization)
CCNCCOCCOCCNc1c2ccccc2[n+](C)c2cccc(NC/C=N\C)c12 (3D coordinates assigned)
CCNCCOCCOCCNc1c2ccccc2[n+](C)c2cccc(NC/C=N\C)c12 (optimized conformer: 102.17061192908092 kcal/mol)

>  <smiles>  (23) 
CCNCCOCCOCCNc1c2ccccc2[n+](C)c2cccc(NCC=NC)c12

>  <score_type>  (23) 
oracle

>  <origin>  (23) 
adg

>  <m_score__min__energy>  (23) 
-8.5899999999999999

>  <m_primary>  (23) 
energy

$$$$
23:0
     RDKit          3D

 38 39  0  0  0  0  0  0  0  0999 V2000
   -2.3280   20.4330  -27.4140 C   0  0  0  0  0  0  0  0  0  0  0  0
   -2.4660   21.7400  -27.6560 C   0  0  0  0  0  0  0  0  0  0  0  0
   -3.6890   22.3020  -28.3450 C   0  0  0  0  0  0  0  0  0  0  0  0
   -3.6170   23.7590  -28.5920 N   0  0  2  0  0  0  0  0  0  0  0  0
   -4.2400   24.5490  -27.5150 C   0  0  0  0  0  0  0  0  0  0  0  0
   -4.1750   24.1040  -29.8860 C   0  0  0  0  0  0  0  0  0  0  0  0
   -3.8450   25.1840  -30.4530 O   0  0  0  0  0  0  0  0  0  0  0  0
   -5.1690   23.2250  -30.5430 C   0  0  0  0  0  0  0  0  0  0  0  0
   -6.5330   23.4380  -30.3070 C   0  0  0  0  0  0  0  0  0  0  0  0
   -7.4640   22.6360  -30.8800 N   0  0  0  0  0  0  0  0  0  0  0  0
   -7.1300   21.6060  -31.7010 C   0  0  0  0  0  0  0  0  0  0  0  0
   -8.1390   20.8020  -32.2660 C   0  0  0  0  0  0  0  0  0  0  0  0
   -9.5890   21.0660  -31.9640 C   0  0  0  0  0  0  0  0  0  0  0  0
   -7.7840   19.7380  -33.1080 C   0  0  0  0  0  0  0  0  0  0  0  0
   -6.4400   19.4800  -33.4050 C   0  0  0  0  0  0  0  0  0  0  0  0
   -6.0740   18.3130  -34.2750 C   0  0  0  0  0  0  0  0  0  0  0  0
   -5.4360   20.2700  -32.8290 C   0  0  0  0  0  0  0  0  0  0  0  0
   -5.7660   21.3430  -31.9780 C   0  0  0  0  0  0  0  0  0  0  0  0
   -4.7780   22.1650  -31.3890 C   0  0  0  0  0  0  0  0  0  0  0  0
   -3.0610   21.9190  -31.7490 Cl  0  0  0  0  0  0  0  0  0  0  0  0
   -1.4243   20.0593  -26.9104 H   0  0  0  0  0  0  0  0  0  0  0  0
   -3.1181   19.7309  -27.7184 H   0  0  0  0  0  0  0  0  0  0  0  0
   -1.6659   22.4276  -27.3446 H   0  0  0  0  0  0  0  0  0  0  0  0
   -3.8078   21.7915  -29.3121 H   0  0  0  0  0  0  0  0  0  0  0  0
   -4.5427   22.1323  -27.6724 H   0  0  0  0  0  0  0  0  0  0  0  0
   -2.6000   24.0070  -28.5870 H   0  0  0  0  0  0  0  0  0  0  0  0
   -3.9257   24.1505  -26.5391 H   0  0  0  0  0  0  0  0  0  0  0  0
   -3.9244   25.5992  -27.6010 H   0  0  0  0  0  0  0  0  0  0  0  0
   -5.3349   24.4869  -27.6010 H   0  0  0  0  0  0  0  0  0  0  0  0
   -6.8514   24.2622  -29.6518 H   0  0  0  0  0  0  0  0  0  0  0  0
   -9.7376   21.0931  -30.8744 H   0  0  0  0  0  0  0  0  0  0  0  0
   -9.8839   22.0326  -32.3984 H   0  0  0  0  0  0  0  0  0  0  0  0
  -10.2057   20.2654  -32.3984 H   0  0  0  0  0  0  0  0  0  0  0  0
   -8.5692   19.0997  -33.5394 H   0  0  0  0  0  0  0  0  0  0  0  0
   -5.8047   17.4543  -33.6424 H   0  0  0  0  0  0  0  0  0  0  0  0
   -6.9315   18.0459  -34.9101 H   0  0  0  0  0  0  0  0  0  0  0  0
   -5.2175   18.5835  -34.9101 H   0  0  0  0  0  0  0  0  0  0  0  0
   -4.3798   20.0501  -33.0435 H   0  0  0  0  0  0  0  0  0  0  0  0
  1  2  2  0
  2  3  1  0
  3  4  1  0
  4  5  1  0
  4  6  1  0
  6  7  2  0
  6  8  1  0
  8  9  2  0
  9 10  1  0
 10 11  2  0
 11 12  1  0
 12 13  1  0
 12 14  2  0
 14 15  1  0
 15 16  1  0
 15 17  2  0
 17 18  1  0
 18 19  2  0
 19 20  1  0
 19  8  1  0
 18 11  1  0
  1 21  1  0
  1 22  1  0
  2 23  1  0
  3 24  1  0
  3 25  1  0
  4 26  1  6
  5 27  1  0
  5 28  1  0
  5 29  1  0
  9 30  1  0
 13 31  1  0
 13 32  1  0
 13 33  1  0
 14 34  1  0
 16 35  1  0
 16 36  1  0
 16 37  1  0
 17 38  1  0
M  CHG  1   4   1
M  END
>  <UniqueID>  (24) 
23

>  <SMILES>  (24) 
C=CC[N@H+](C)C(=O)c1cnc2c(C)cc(C)cc2c1Cl

>  <Energy>  (24) 
51.072259094488956

>  <Genealogy>  (24) 
C=CC[NH+](C)C(=O)c1cnc2c(C)cc(C)cc2c1Cl (protonated)
C=CC[N@H+](C)C(=O)c1cnc2c(C)cc(C)cc2c1Cl (chirality)
C=CC[N@H+](C)C(=O)c1cnc2c(C)cc(C)cc2c1Cl (3D coordinates assigned)
C=CC[N@H+](C)C(=O)c1cnc2c(C)cc(C)cc2c1Cl (optimized conformer: 51.072259094488956 kcal/mol)

>  <smiles>  (24) 
C=CCN(C)C(=O)c1cnc2c(C)cc(C)cc2c1Cl

>  <score_type>  (24) 
oracle

>  <origin>  (24) 
adg

>  <m_score__min__energy>  (24) 
-7.5800000000000001

>  <m_primary>  (24) 
energy

$$$$
24:0
     RDKit          3D

 53 55  0  0  0  0  0  0  0  0999 V2000
   -3.6100   22.7980  -27.8600 C   0  0  0  0  0  0  0  0  0  0  0  0
   -3.2540   21.4010  -28.3500 C   0  0  0  0  0  0  0  0  0  0  0  0
   -2.6840   21.4960  -29.6380 O   0  0  0  0  0  0  0  0  0  0  0  0
   -1.3670   21.9950  -29.5340 C   0  0  0  0  0  0  0  0  0  0  0  0
   -0.4360   21.1570  -30.4030 C   0  0  0  0  0  0  0  0  0  0  0  0
   -1.1840   20.4630  -31.3870 O   0  0  0  0  0  0  0  0  0  0  0  0
   -0.7710   20.8040  -32.6970 C   0  0  0  0  0  0  0  0  0  0  0  0
   -1.8680   20.4970  -33.7260 C   0  0  0  0  0  0  0  0  0  0  0  0
   -3.1940   21.1860  -33.3700 C   0  0  0  0  0  0  0  0  0  0  0  0
   -3.5860   20.9760  -31.9600 N   0  0  0  0  0  0  0  0  0  0  0  0
   -5.0050   21.2260  -31.7290 C   0  0  0  0  0  0  0  0  0  0  0  0
   -5.4360   22.4850  -31.2220 C   0  0  0  0  0  0  0  0  0  0  0  0
   -4.5270   23.5530  -31.0050 C   0  0  0  0  0  0  0  0  0  0  0  0
   -4.9670   24.7970  -30.5620 C   0  0  0  0  0  0  0  0  0  0  0  0
   -6.3170   25.0160  -30.3340 C   0  0  0  0  0  0  0  0  0  0  0  0
   -7.2310   23.9830  -30.5170 C   0  0  0  0  0  0  0  0  0  0  0  0
   -6.8110   22.6900  -30.9230 C   0  0  0  0  0  0  0  0  0  0  0  0
   -7.7100   21.6520  -31.0370 N   0  0  0  0  0  0  0  0  0  0  0  0
   -9.0490   21.7620  -30.4140 C   0  0  0  0  0  0  0  0  0  0  0  0
   -7.3560   20.5010  -31.7090 C   0  0  0  0  0  0  0  0  0  0  0  0
   -8.3380   19.5580  -32.1080 C   0  0  0  0  0  0  0  0  0  0  0  0
   -7.9870   18.3680  -32.7350 C   0  0  0  0  0  0  0  0  0  0  0  0
   -6.6530   18.0840  -32.9890 C   0  0  0  0  0  0  0  0  0  0  0  0
   -6.2170   16.5800  -33.7820 Cl  0  0  0  0  0  0  0  0  0  0  0  0
   -5.6660   19.0050  -32.6430 C   0  0  0  0  0  0  0  0  0  0  0  0
   -5.9920   20.2410  -32.0280 C   0  0  0  0  0  0  0  0  0  0  0  0
   -3.6133   22.8110  -26.7601 H   0  0  0  0  0  0  0  0  0  0  0  0
   -2.8666   23.5179  -28.2330 H   0  0  0  0  0  0  0  0  0  0  0  0
   -4.6073   23.0743  -28.2330 H   0  0  0  0  0  0  0  0  0  0  0  0
   -2.5311   20.9414  -27.6600 H   0  0  0  0  0  0  0  0  0  0  0  0
   -4.1607   20.7795  -28.3903 H   0  0  0  0  0  0  0  0  0  0  0  0
   -1.3433   23.0409  -29.8739 H   0  0  0  0  0  0  0  0  0  0  0  0
   -1.0366   21.9424  -28.4861 H   0  0  0  0  0  0  0  0  0  0  0  0
    0.2925   21.8165  -30.8973 H   0  0  0  0  0  0  0  0  0  0  0  0
    0.0902   20.4280  -29.7692 H   0  0  0  0  0  0  0  0  0  0  0  0
   -0.5386   21.8786  -32.7310 H   0  0  0  0  0  0  0  0  0  0  0  0
    0.1171   20.2053  -32.9476 H   0  0  0  0  0  0  0  0  0  0  0  0
   -1.5378   20.8496  -34.7142 H   0  0  0  0  0  0  0  0  0  0  0  0
   -2.0380   19.4102  -33.7301 H   0  0  0  0  0  0  0  0  0  0  0  0
   -3.0883   22.2662  -33.5486 H   0  0  0  0  0  0  0  0  0  0  0  0
   -3.9782   20.7438  -34.0021 H   0  0  0  0  0  0  0  0  0  0  0  0
   -3.0250   21.6130  -31.3520 H   0  0  0  0  0  0  0  0  0  0  0  0
   -3.2770   20.0380  -31.6290 H   0  0  0  0  0  0  0  0  0  0  0  0
   -3.4544   23.3947  -31.1904 H   0  0  0  0  0  0  0  0  0  0  0  0
   -4.2428   25.6074  -30.3926 H   0  0  0  0  0  0  0  0  0  0  0  0
   -6.6657   26.0071  -30.0082 H   0  0  0  0  0  0  0  0  0  0  0  0
   -8.3006   24.1726  -30.3434 H   0  0  0  0  0  0  0  0  0  0  0  0
   -8.9457   21.7535  -29.3189 H   0  0  0  0  0  0  0  0  0  0  0  0
   -9.5244   22.7022  -30.7302 H   0  0  0  0  0  0  0  0  0  0  0  0
   -9.6715   20.9120  -30.7302 H   0  0  0  0  0  0  0  0  0  0  0  0
   -9.3998   19.7731  -31.9172 H   0  0  0  0  0  0  0  0  0  0  0  0
   -8.7674   17.6511  -33.0299 H   0  0  0  0  0  0  0  0  0  0  0  0
   -4.6121   18.7686  -32.8512 H   0  0  0  0  0  0  0  0  0  0  0  0
  1  2  1  0
  2  3  1  0
  3  4  1  0
  4  5  1  0
  5  6  1  0
  6  7  1  0
  7  8  1  0
  8  9  1  0
  9 10  1  0
 10 11  1  0
 11 12  2  0
 12 13  1  0
 13 14  2  0
 14 15  1  0
 15 16  2  0
 16 17  1  0
 17 18  2  0
 18 19  1  0
 18 20  1  0
 20 21  2  0
 21 22  1  0
 22 23  2  0
 23 24  1  0
 23 25  1  0
 25 26  2  0
 26 11  1  0
 17 12  1  0
 26 20  1  0
  1 27  1  0
  1 28  1  0
  1 29  1  0
  2 30  1  0
  2 31  1  0
  4 32  1  0
  4 33  1  0
  5 34  1  0
  5 35  1  0
  7 36  1  0
  7 37  1  0
  8 38  1  0
  8 39  1  0
  9 40  1  0
  9 41  1  0
 10 42  1  0
 10 43  1  0
 13 44  1  0
 14 45  1  0
 15 46  1  0
 16 47  1  0
 19 48  1  0
 19 49  1  0
 19 50  1  0
 21 51  1  0
 22 52  1  0
 25 53  1  0
M  CHG  2  10   1  18   1
M  END
>  <UniqueID>  (25) 
24

>  <SMILES>  (25) 
CCOCCOCCC[NH2+]c1c2ccccc2[n+](C)c2ccc(Cl)cc12

>  <Energy>  (25) 
80.18375376812702

>  <Genealogy>  (25) 
CCOCCOCCC[NH2+]c1c2ccccc2[n+](C)c2ccc(Cl)cc12 (protonated)
CCOCCOCCC[NH2+]c1c2ccccc2[n+](C)c2ccc(Cl)cc12 (3D coordinates assigned)
CCOCCOCCC[NH2+]c1c2ccccc2[n+](C)c2ccc(Cl)cc12 (optimized conformer: 80.18375376812702 kcal/mol)

>  <smiles>  (25) 
CCOCCOCCCNc1c2ccccc2[n+](C)c2ccc(Cl)cc12

>  <score_type>  (25) 
oracle

>  <origin>  (25) 
adg

>  <m_score__min__energy>  (25) 
-8.3800000000000008

>  <m_primary>  (25) 
energy

$$$$
25:0
     RDKit          3D

 44 44  0  0  0  0  0  0  0  0999 V2000
   -2.4290   24.5270  -28.7600 C   0  0  0  0  0  0  0  0  0  0  0  0
   -3.8810   24.5040  -29.2240 C   0  0  0  0  0  0  0  0  0  0  0  0
   -4.0290   25.2930  -30.4550 N   0  0  0  0  0  0  0  0  0  0  0  0
   -5.4300   25.3360  -30.8960 C   0  0  0  0  0  0  0  0  0  0  0  0
   -5.9020   23.9610  -31.3030 C   0  0  0  0  0  0  0  0  0  0  0  0
   -7.2750   23.6730  -31.2640 C   0  0  0  0  0  0  0  0  0  0  0  0
   -7.7450   22.4060  -31.6100 C   0  0  0  0  0  0  0  0  0  0  0  0
   -6.8530   21.3940  -31.9970 C   0  0  0  0  0  0  0  0  0  0  0  0
   -7.3370   20.0770  -32.3450 N   0  0  0  0  0  0  0  0  0  0  0  0
   -8.7800   19.7970  -32.3480 C   0  0  0  0  0  0  0  0  0  0  0  0
   -9.0910   18.5020  -31.6000 C   0  0  0  0  0  0  0  0  0  0  0  0
   -6.3970   18.9990  -32.6940 C   0  0  0  0  0  0  0  0  0  0  0  0
   -6.0550   19.0380  -34.1810 C   0  0  0  0  0  0  0  0  0  0  0  0
   -5.4770   21.6790  -32.0290 C   0  0  0  0  0  0  0  0  0  0  0  0
   -4.9910   22.9540  -31.6800 C   0  0  0  0  0  0  0  0  0  0  0  0
   -3.6170   23.2490  -31.6900 O   0  0  0  0  0  0  0  0  0  0  0  0
   -2.5810   22.3050  -31.4330 C   0  0  0  0  0  0  0  0  0  0  0  0
   -2.2970   21.5110  -32.6970 C   0  0  0  0  0  0  0  0  0  0  0  0
   -2.3954   24.5275  -27.6605 H   0  0  0  0  0  0  0  0  0  0  0  0
   -1.9077   23.6370  -29.1423 H   0  0  0  0  0  0  0  0  0  0  0  0
   -1.9362   25.4331  -29.1423 H   0  0  0  0  0  0  0  0  0  0  0  0
   -4.1845   23.4648  -29.4189 H   0  0  0  0  0  0  0  0  0  0  0  0
   -4.5174   24.9381  -28.4388 H   0  0  0  0  0  0  0  0  0  0  0  0
   -3.4810   24.8120  -31.2070 H   0  0  0  0  0  0  0  0  0  0  0  0
   -6.0575   25.7039  -30.0708 H   0  0  0  0  0  0  0  0  0  0  0  0
   -5.5081   26.0085  -31.7630 H   0  0  0  0  0  0  0  0  0  0  0  0
   -7.9871   24.4535  -30.9578 H   0  0  0  0  0  0  0  0  0  0  0  0
   -8.8248   22.1982  -31.5792 H   0  0  0  0  0  0  0  0  0  0  0  0
   -9.3084   20.6293  -31.8601 H   0  0  0  0  0  0  0  0  0  0  0  0
   -9.1120   19.6862  -33.3908 H   0  0  0  0  0  0  0  0  0  0  0  0
   -9.0471   18.6850  -30.5162 H   0  0  0  0  0  0  0  0  0  0  0  0
  -10.0983   18.1540  -31.8726 H   0  0  0  0  0  0  0  0  0  0  0  0
   -8.3516   17.7345  -31.8726 H   0  0  0  0  0  0  0  0  0  0  0  0
   -5.4740   19.1218  -32.1084 H   0  0  0  0  0  0  0  0  0  0  0  0
   -6.8693   18.0320  -32.4662 H   0  0  0  0  0  0  0  0  0  0  0  0
   -4.9690   19.1618  -34.3043 H   0  0  0  0  0  0  0  0  0  0  0  0
   -6.3730   18.0978  -34.6552 H   0  0  0  0  0  0  0  0  0  0  0  0
   -6.5765   19.8825  -34.6552 H   0  0  0  0  0  0  0  0  0  0  0  0
   -4.7685   20.8938  -32.3314 H   0  0  0  0  0  0  0  0  0  0  0  0
   -1.6697   22.8361  -31.1207 H   0  0  0  0  0  0  0  0  0  0  0  0
   -2.8979   21.6204  -30.6324 H   0  0  0  0  0  0  0  0  0  0  0  0
   -1.9379   20.5071  -32.4265 H   0  0  0  0  0  0  0  0  0  0  0  0
   -3.2194   21.4231  -33.2898 H   0  0  0  0  0  0  0  0  0  0  0  0
   -1.5281   22.0280  -33.2898 H   0  0  0  0  0  0  0  0  0  0  0  0
  1  2  1  0
  2  3  1  0
  3  4  1  0
  4  5  1  0
  5  6  2  0
  6  7  1  0
  7  8  2  0
  8  9  1  0
  9 10  1  0
 10 11  1  0
  9 12  1  0
 12 13  1  0
  8 14  1  0
 14 15  2  0
 15 16  1  0
 16 17  1  0
 17 18  1  0
 15  5  1  0
  1 19  1  0
  1 20  1  0
  1 21  1  0
  2 22  1  0
  2 23  1  0
  3 24  1  0
  4 25  1  0
  4 26  1  0
  6 27  1  0
  7 28  1  0
 10 29  1  0
 10 30  1  0
 11 31  1  0
 11 32  1  0
 11 33  1  0
 12 34  1  0
 12 35  1  0
 13 36  1  0
 13 37  1  0
 13 38  1  0
 14 39  1  0
 17 40  1  0
 17 41  1  0
 18 42  1  0
 18 43  1  0
 18 44  1  0
M  END
>  <UniqueID>  (26) 
25

>  <SMILES>  (26) 
CCNCc1ccc(N(CC)CC)cc1OCC

>  <Energy>  (26) 
31.016681148507665

>  <Genealogy>  (26) 
CCNCc1ccc(N(CC)CC)cc1OCC (3D coordinates assigned)
CCNCc1ccc(N(CC)CC)cc1OCC (optimized conformer: 31.016681148507665 kcal/mol)

>  <smiles>  (26) 
CCNCc1ccc(N(CC)CC)cc1OCC

>  <score_type>  (26) 
oracle

>  <origin>  (26) 
adg

>  <m_score__min__energy>  (26) 
-6.71

>  <m_primary>  (26) 
energy

$$$$
26:0
     RDKit          3D

 54 56  0  0  0  0  0  0  0  0999 V2000
   -6.7050   24.8930  -30.1160 C   0  0  0  0  0  0  0  0  0  0  0  0
   -5.3650   25.3800  -30.6770 C   0  0  0  0  0  0  0  0  0  0  0  0
   -4.3510   24.3130  -30.8520 N   0  0  0  0  0  0  0  0  0  0  0  0
   -3.3380   24.2290  -29.7710 C   0  0  0  0  0  0  0  0  0  0  0  0
   -3.9140   23.9460  -28.3720 C   0  0  0  0  0  0  0  0  0  0  0  0
   -4.8670   23.0200  -31.3490 C   0  0  0  0  0  0  0  0  0  0  0  0
   -3.7780   22.2600  -32.1260 C   0  0  0  0  0  0  0  0  0  0  0  0
   -4.2500   21.7960  -33.4460 N   0  0  0  0  0  0  0  0  0  0  0  0
   -4.6770   20.4040  -33.4250 C   0  0  0  0  0  0  0  0  0  0  0  0
   -3.7690   19.3480  -33.7200 C   0  0  0  0  0  0  0  0  0  0  0  0
   -4.2040   18.0100  -33.6400 C   0  0  0  0  0  0  0  0  0  0  0  0
   -5.5360   17.7120  -33.4650 N   0  0  0  0  0  0  0  0  0  0  0  0
   -6.0180   16.3390  -33.7230 C   0  0  0  0  0  0  0  0  0  0  0  0
   -6.4160   18.6960  -33.0660 C   0  0  0  0  0  0  0  0  0  0  0  0
   -7.7270   18.3750  -32.6320 C   0  0  0  0  0  0  0  0  0  0  0  0
   -8.6320   19.3680  -32.2730 C   0  0  0  0  0  0  0  0  0  0  0  0
   -8.2590   20.7030  -32.3260 C   0  0  0  0  0  0  0  0  0  0  0  0
   -9.4130   21.9520  -31.8890 Cl  0  0  0  0  0  0  0  0  0  0  0  0
   -6.9660   21.0520  -32.7130 C   0  0  0  0  0  0  0  0  0  0  0  0
   -6.0120   20.0630  -33.0650 C   0  0  0  0  0  0  0  0  0  0  0  0
   -3.1490   16.9200  -33.7840 C   0  0  0  0  0  0  0  0  0  0  0  0
   -1.8620   17.3080  -33.0420 C   0  0  0  0  0  0  0  0  0  0  0  0
   -1.3450   18.7160  -33.4010 C   0  0  0  0  0  0  0  0  0  0  0  0
   -2.3420   19.5520  -34.2140 C   0  0  0  0  0  0  0  0  0  0  0  0
   -6.6688   24.9062  -29.0167 H   0  0  0  0  0  0  0  0  0  0  0  0
   -7.5109   25.5557  -30.4643 H   0  0  0  0  0  0  0  0  0  0  0  0
   -6.8973   23.8675  -30.4643 H   0  0  0  0  0  0  0  0  0  0  0  0
   -5.5502   25.8429  -31.6575 H   0  0  0  0  0  0  0  0  0  0  0  0
   -4.9541   26.0862  -29.9405 H   0  0  0  0  0  0  0  0  0  0  0  0
   -2.6348   23.4212  -30.0221 H   0  0  0  0  0  0  0  0  0  0  0  0
   -2.8588   25.2176  -29.7161 H   0  0  0  0  0  0  0  0  0  0  0  0
   -3.2052   24.2943  -27.6063 H   0  0  0  0  0  0  0  0  0  0  0  0
   -4.8703   24.4768  -28.2549 H   0  0  0  0  0  0  0  0  0  0  0  0
   -4.0782   22.8646  -28.2549 H   0  0  0  0  0  0  0  0  0  0  0  0
   -5.1931   22.4092  -30.4943 H   0  0  0  0  0  0  0  0  0  0  0  0
   -5.7125   23.2141  -32.0253 H   0  0  0  0  0  0  0  0  0  0  0  0
   -2.9171   22.9287  -32.2735 H   0  0  0  0  0  0  0  0  0  0  0  0
   -3.5023   21.3729  -31.5370 H   0  0  0  0  0  0  0  0  0  0  0  0
   -4.9760   22.4430  -33.8150 H   0  0  0  0  0  0  0  0  0  0  0  0
   -3.4840   21.9160  -34.1460 H   0  0  0  0  0  0  0  0  0  0  0  0
   -6.1976   15.8275  -32.7658 H   0  0  0  0  0  0  0  0  0  0  0  0
   -6.9550   16.3813  -34.2976 H   0  0  0  0  0  0  0  0  0  0  0  0
   -5.2602   15.7863  -34.2976 H   0  0  0  0  0  0  0  0  0  0  0  0
   -8.0342   17.3201  -32.5782 H   0  0  0  0  0  0  0  0  0  0  0  0
   -9.6460   19.0942  -31.9462 H   0  0  0  0  0  0  0  0  0  0  0  0
   -6.6803   22.1137  -32.7460 H   0  0  0  0  0  0  0  0  0  0  0  0
   -3.5395   15.9818  -33.3630 H   0  0  0  0  0  0  0  0  0  0  0  0
   -2.9165   16.7921  -34.8515 H   0  0  0  0  0  0  0  0  0  0  0  0
   -2.0604   17.2753  -31.9605 H   0  0  0  0  0  0  0  0  0  0  0  0
   -1.0850   16.5911  -33.3457 H   0  0  0  0  0  0  0  0  0  0  0  0
   -1.1228   19.2527  -32.4669 H   0  0  0  0  0  0  0  0  0  0  0  0
   -0.4529   18.5795  -34.0300 H   0  0  0  0  0  0  0  0  0  0  0  0
   -2.0787   20.6158  -34.1190 H   0  0  0  0  0  0  0  0  0  0  0  0
   -2.2892   19.2300  -35.2645 H   0  0  0  0  0  0  0  0  0  0  0  0
  1  2  1  0
  2  3  1  0
  3  4  1  0
  4  5  1  0
  3  6  1  0
  6  7  1  0
  7  8  1  0
  8  9  1  0
  9 10  2  0
 10 11  1  0
 11 12  2  0
 12 13  1  0
 12 14  1  0
 14 15  2  0
 15 16  1  0
 16 17  2  0
 17 18  1  0
 17 19  1  0
 19 20  2  0
 11 21  1  0
 21 22  1  0
 22 23  1  0
 23 24  1  0
 20  9  1  0
 24 10  1  0
 20 14  1  0
  1 25  1  0
  1 26  1  0
  1 27  1  0
  2 28  1  0
  2 29  1  0
  4 30  1  0
  4 31  1  0
  5 32  1  0
  5 33  1  0
  5 34  1  0
  6 35  1  0
  6 36  1  0
  7 37  1  0
  7 38  1  0
  8 39  1  0
  8 40  1  0
 13 41  1  0
 13 42  1  0
 13 43  1  0
 15 44  1  0
 16 45  1  0
 19 46  1  0
 21 47  1  0
 21 48  1  0
 22 49  1  0
 22 50  1  0
 23 51  1  0
 23 52  1  0
 24 53  1  0
 24 54  1  0
M  CHG  2   8   1  12   1
M  END
>  <UniqueID>  (27) 
26

>  <SMILES>  (27) 
CCN(CC)CC[NH2+]c1c2c([n+](C)c3ccc(Cl)cc13)CCCC2

>  <Energy>  (27) 
88.89231643951227

>  <Genealogy>  (27) 
CCN(CC)CC[NH2+]c1c2c([n+](C)c3ccc(Cl)cc13)CCCC2 (protonated)
CCN(CC)CC[NH2+]c1c2c([n+](C)c3ccc(Cl)cc13)CCCC2 (3D coordinates assigned)
CCN(CC)CC[NH2+]c1c2c([n+](C)c3ccc(Cl)cc13)CCCC2 (nonaromatic ring conformer: 88.89231643951227 kcal/mol)

>  <smiles>  (27) 
CCN(CC)CCNc1c2c([n+](C)c3ccc(Cl)cc13)CCCC2

>  <score_type>  (27) 
oracle

>  <origin>  (27) 
adg

>  <m_score__min__energy>  (27) 
-8.4299999999999997

>  <m_primary>  (27) 
energy

$$$$
27:0
     RDKit          3D

 66 68  0  0  0  0  0  0  0  0999 V2000
   -2.9480   18.8820  -26.1240 C   0  0  0  0  0  0  0  0  0  0  0  0
   -3.1180   19.6250  -27.4560 C   0  0  0  0  0  0  0  0  0  0  0  0
   -1.8420   20.2140  -27.9410 N   0  0  0  0  0  0  0  0  0  0  0  0
   -1.9070   21.6960  -27.8380 C   0  0  0  0  0  0  0  0  0  0  0  0
   -3.3490   22.2160  -27.8700 C   0  0  0  0  0  0  0  0  0  0  0  0
   -0.6710   19.6700  -27.1830 C   0  0  0  0  0  0  0  0  0  0  0  0
   -0.0720   18.4300  -27.8640 C   0  0  0  0  0  0  0  0  0  0  0  0
   -0.1700   18.5770  -29.3290 N   0  0  0  0  0  0  0  0  0  0  0  0
    0.6580   19.6740  -29.8550 C   0  0  0  0  0  0  0  0  0  0  0  0
   -0.1780   20.6850  -30.6500 C   0  0  0  0  0  0  0  0  0  0  0  0
   -1.4290   20.0700  -31.1190 N   0  0  0  0  0  0  0  0  0  0  0  0
   -1.6650   20.3220  -32.5510 C   0  0  0  0  0  0  0  0  0  0  0  0
   -3.1450   20.5850  -32.8880 C   0  0  0  0  0  0  0  0  0  0  0  0
   -3.9910   20.4580  -31.7000 N   0  0  0  0  0  0  0  0  0  0  0  0
   -5.2960   21.0600  -31.6420 C   0  0  0  0  0  0  0  0  0  0  0  0
   -6.4420   20.2930  -31.9160 C   0  0  0  0  0  0  0  0  0  0  0  0
   -6.3430   18.9040  -32.1500 C   0  0  0  0  0  0  0  0  0  0  0  0
   -7.4830   18.1380  -32.3800 C   0  0  0  0  0  0  0  0  0  0  0  0
   -8.7400   18.7350  -32.3550 C   0  0  0  0  0  0  0  0  0  0  0  0
   -8.8630   20.1040  -32.1150 C   0  0  0  0  0  0  0  0  0  0  0  0
   -7.7190   20.9180  -31.9190 C   0  0  0  0  0  0  0  0  0  0  0  0
   -7.8250   22.2820  -31.7100 N   0  0  0  0  0  0  0  0  0  0  0  0
   -9.1010   22.9790  -31.9880 C   0  0  0  0  0  0  0  0  0  0  0  0
   -6.7330   22.9970  -31.2500 C   0  0  0  0  0  0  0  0  0  0  0  0
   -6.8600   24.3250  -30.7680 C   0  0  0  0  0  0  0  0  0  0  0  0
   -5.7420   25.0540  -30.3630 C   0  0  0  0  0  0  0  0  0  0  0  0
   -4.4780   24.4810  -30.4140 C   0  0  0  0  0  0  0  0  0  0  0  0
   -4.3240   23.1660  -30.8450 C   0  0  0  0  0  0  0  0  0  0  0  0
   -5.4420   22.4010  -31.2430 C   0  0  0  0  0  0  0  0  0  0  0  0
   -3.1081   19.5819  -25.2907 H   0  0  0  0  0  0  0  0  0  0  0  0
   -3.6825   18.0654  -26.0633 H   0  0  0  0  0  0  0  0  0  0  0  0
   -1.9315   18.4661  -26.0633 H   0  0  0  0  0  0  0  0  0  0  0  0
   -3.4901   18.9168  -28.2110 H   0  0  0  0  0  0  0  0  0  0  0  0
   -3.8283   20.4490  -27.2931 H   0  0  0  0  0  0  0  0  0  0  0  0
   -1.7670   19.9770  -28.9620 H   0  0  0  0  0  0  0  0  0  0  0  0
   -1.4395   22.0062  -26.8919 H   0  0  0  0  0  0  0  0  0  0  0  0
   -1.3764   22.1183  -28.7041 H   0  0  0  0  0  0  0  0  0  0  0  0
   -3.7142   22.3477  -26.8408 H   0  0  0  0  0  0  0  0  0  0  0  0
   -3.3790   23.1816  -28.3961 H   0  0  0  0  0  0  0  0  0  0  0  0
   -3.9883   21.4918  -28.3961 H   0  0  0  0  0  0  0  0  0  0  0  0
    0.1032   20.4487  -27.1182 H   0  0  0  0  0  0  0  0  0  0  0  0
   -1.0208   19.3735  -26.1831 H   0  0  0  0  0  0  0  0  0  0  0  0
    0.9846   18.3280  -27.5757 H   0  0  0  0  0  0  0  0  0  0  0  0
   -0.6268   17.5344  -27.5477 H   0  0  0  0  0  0  0  0  0  0  0  0
   -1.1660   18.7900  -29.5730 H   0  0  0  0  0  0  0  0  0  0  0  0
    1.1389   20.1931  -29.0128 H   0  0  0  0  0  0  0  0  0  0  0  0
    1.4092   19.2421  -30.5326 H   0  0  0  0  0  0  0  0  0  0  0  0
   -0.4172   21.5429  -30.0044 H   0  0  0  0  0  0  0  0  0  0  0  0
    0.4031   21.0153  -31.5236 H   0  0  0  0  0  0  0  0  0  0  0  0
   -1.4050   19.0410  -30.9400 H   0  0  0  0  0  0  0  0  0  0  0  0
   -1.0768   21.2014  -32.8523 H   0  0  0  0  0  0  0  0  0  0  0  0
   -1.3633   19.4150  -33.0953 H   0  0  0  0  0  0  0  0  0  0  0  0
   -3.2451   21.6031  -33.2922 H   0  0  0  0  0  0  0  0  0  0  0  0
   -3.4708   19.8391  -33.6280 H   0  0  0  0  0  0  0  0  0  0  0  0
   -3.5730   20.0860  -30.8190 H   0  0  0  0  0  0  0  0  0  0  0  0
   -5.3544   18.4217  -32.1506 H   0  0  0  0  0  0  0  0  0  0  0  0
   -7.3900   17.0606  -32.5815 H   0  0  0  0  0  0  0  0  0  0  0  0
   -9.6397   18.1254  -32.5250 H   0  0  0  0  0  0  0  0  0  0  0  0
   -9.8638   20.5590  -32.0773 H   0  0  0  0  0  0  0  0  0  0  0  0
   -9.5880   23.2450  -31.0382 H   0  0  0  0  0  0  0  0  0  0  0  0
   -8.9010   23.8932  -32.5662 H   0  0  0  0  0  0  0  0  0  0  0  0
   -9.7622   22.3167  -32.5662 H   0  0  0  0  0  0  0  0  0  0  0  0
   -7.8565   24.7875  -30.7127 H   0  0  0  0  0  0  0  0  0  0  0  0
   -5.8619   26.0861  -30.0020 H   0  0  0  0  0  0  0  0  0  0  0  0
   -3.5970   25.0670  -30.1134 H   0  0  0  0  0  0  0  0  0  0  0  0
   -3.3198   22.7180  -30.8758 H   0  0  0  0  0  0  0  0  0  0  0  0
  1  2  1  0
  2  3  1  0
  3  4  1  0
  4  5  1  0
  3  6  1  0
  6  7  1  0
  7  8  1  0
  8  9  1  0
  9 10  1  0
 10 11  1  0
 11 12  1  0
 12 13  1  0
 13 14  1  0
 14 15  1  0
 15 16  2  0
 16 17  1  0
 17 18  2  0
 18 19  1  0
 19 20  2  0
 20 21  1  0
 21 22  2  0
 22 23  1  0
 22 24  1  0
 24 25  2  0
 25 26  1  0
 26 27  2  0
 27 28  1  0
 28 29  2  0
 29 15  1  0
 21 16  1  0
 29 24  1  0
  1 30  1  0
  1 31  1  0
  1 32  1  0
  2 33  1  0
  2 34  1  0
  3 35  1  0
  4 36  1  0
  4 37  1  0
  5 38  1  0
  5 39  1  0
  5 40  1  0
  6 41  1  0
  6 42  1  0
  7 43  1  0
  7 44  1  0
  8 45  1  0
  9 46  1  0
  9 47  1  0
 10 48  1  0
 10 49  1  0
 11 50  1  0
 12 51  1  0
 12 52  1  0
 13 53  1  0
 13 54  1  0
 14 55  1  0
 17 56  1  0
 18 57  1  0
 19 58  1  0
 20 59  1  0
 23 60  1  0
 23 61  1  0
 23 62  1  0
 25 63  1  0
 26 64  1  0
 27 65  1  0
 28 66  1  0
M  CHG  2   3   1  22   1
M  END
>  <UniqueID>  (28) 
27

>  <SMILES>  (28) 
CC[NH+](CC)CCNCCNCCNc1c2ccccc2[n+](C)c2ccccc12

>  <Energy>  (28) 
90.6475289665252

>  <Genealogy>  (28) 
CC[NH+](CC)CCNCCNCCNc1c2ccccc2[n+](C)c2ccccc12 (protonated)
CC[NH+](CC)CCNCCNCCNc1c2ccccc2[n+](C)c2ccccc12 (3D coordinates assigned)
CC[NH+](CC)CCNCCNCCNc1c2ccccc2[n+](C)c2ccccc12 (optimized conformer: 90.6475289665252 kcal/mol)

>  <smiles>  (28) 
CCN(CC)CCNCCNCCNc1c2ccccc2[n+](C)c2ccccc12

>  <score_type>  (28) 
oracle

>  <origin>  (28) 
adg

>  <m_score__min__energy>  (28) 
-9.3699999999999992

>  <m_primary>  (28) 
energy

$$$$
