0:0
     RDKit          3D

 29 31  0  0  0  0  0  0  0  0999 V2000
   -6.0100   25.5670  -29.3330 C   0  0  0  0  0  0  0  0  0  0  0  0
   -6.0440   24.3190  -30.1060 N   0  0  0  0  0  0  0  0  0  0  0  0
   -7.1640   23.5830  -30.1170 N   0  0  0  0  0  0  0  0  0  0  0  0
   -7.2570   22.4240  -30.8170 C   0  0  0  0  0  0  0  0  0  0  0  0
   -6.1630   21.9570  -31.5570 C   0  0  0  0  0  0  0  0  0  0  0  0
   -6.2140   20.7480  -32.2980 C   0  0  0  0  0  0  0  0  0  0  0  0
   -7.3560   19.8770  -32.2510 N   0  0  0  0  0  0  0  0  0  0  0  0
   -8.5940   20.1570  -32.7020 C   0  0  0  0  0  0  0  0  0  0  0  0
   -9.4470   19.1150  -32.3990 C   0  0  0  0  0  0  0  0  0  0  0  0
   -8.6950   18.1740  -31.7220 C   0  0  0  0  0  0  0  0  0  0  0  0
   -7.4130   18.6790  -31.6380 C   0  0  0  0  0  0  0  0  0  0  0  0
   -5.1140   20.3770  -33.0850 C   0  0  0  0  0  0  0  0  0  0  0  0
   -3.9640   21.1650  -33.1180 C   0  0  0  0  0  0  0  0  0  0  0  0
   -3.8960   22.3380  -32.3680 C   0  0  0  0  0  0  0  0  0  0  0  0
   -4.9920   22.7480  -31.5850 C   0  0  0  0  0  0  0  0  0  0  0  0
   -4.9510   23.9380  -30.8370 C   0  0  0  0  0  0  0  0  0  0  0  0
   -3.9120   24.6560  -30.8440 O   0  0  0  0  0  0  0  0  0  0  0  0
   -6.0164   25.3329  -28.2582 H   0  0  0  0  0  0  0  0  0  0  0  0
   -5.0963   26.1270  -29.5809 H   0  0  0  0  0  0  0  0  0  0  0  0
   -6.8919   26.1760  -29.5809 H   0  0  0  0  0  0  0  0  0  0  0  0
   -8.0040   23.8940  -29.5780 H   0  0  0  0  0  0  0  0  0  0  0  0
   -8.1948   21.8492  -30.8032 H   0  0  0  0  0  0  0  0  0  0  0  0
   -8.8817   21.0771  -33.2318 H   0  0  0  0  0  0  0  0  0  0  0  0
  -10.5163   19.0470  -32.6478 H   0  0  0  0  0  0  0  0  0  0  0  0
   -9.0489   17.2103  -31.3270 H   0  0  0  0  0  0  0  0  0  0  0  0
   -6.5663   18.1788  -31.1451 H   0  0  0  0  0  0  0  0  0  0  0  0
   -5.1589   19.4546  -33.6826 H   0  0  0  0  0  0  0  0  0  0  0  0
   -3.1079   20.8600  -33.7378 H   0  0  0  0  0  0  0  0  0  0  0  0
   -2.9803   22.9472  -32.3880 H   0  0  0  0  0  0  0  0  0  0  0  0
  1  2  1  0
  2  3  1  0
  3  4  2  0
  4  5  1  0
  5  6  2  0
  6  7  1  0
  7  8  1  0
  8  9  2  0
  9 10  1  0
 10 11  2  0
  6 12  1  0
 12 13  2  0
 13 14  1  0
 14 15  2  0
 15 16  1  0
 16 17  2  0
 16  2  1  0
 15  5  1  0
 11  7  1  0
  1 18  1  0
  1 19  1  0
  1 20  1  0
  3 21  1  0
  4 22  1  0
  8 23  1  0
  9 24  1  0
 10 25  1  0
 11 26  1  0
 12 27  1  0
 13 28  1  0
 14 29  1  0
M  CHG  1   3   1
M  END
>  <UniqueID>  (1) 
1

>  <SMILES>  (1) 
Cn1[nH+]cc2c(-n3cccc3)cccc2c1=O

>  <Energy>  (1) 
70.46227680668218

>  <Genealogy>  (1) 
Cn1[nH+]cc2c(-n3cccc3)cccc2c1=O (protonated)
Cn1[nH+]cc2c(-n3cccc3)cccc2c1=O (3D coordinates assigned)
Cn1[nH+]cc2c(-n3cccc3)cccc2c1=O (optimized conformer: 70.46227680668218 kcal/mol)

>  <smiles>  (1) 
Cn1ncc2c(-n3cccc3)cccc2c1=O

>  <score_type>  (1) 
oracle

>  <origin>  (1) 
adg

>  <m_score__min__energy>  (1) 
-6.7999999999999998

>  <m_primary>  (1) 
energy

$$$$
1:0
     RDKit          3D

122121  0  0  0  0  0  0  0  0999 V2000
   -0.3300   24.0310  -28.6230 C   0  0  0  0  0  0  0  0  0  0  0  0
   -1.1010   25.3430  -28.6180 C   0  0  0  0  0  0  0  0  0  0  0  0
   -2.5000   25.1080  -28.9960 N   0  0  0  0  0  0  0  0  0  0  0  0
   -3.2810   24.5860  -27.8630 C   0  0  0  0  0  0  0  0  0  0  0  0
   -4.2550   23.4990  -28.3580 C   0  0  0  0  0  0  0  0  0  0  0  0
   -3.8610   22.8260  -29.6270 N   0  0  2  0  0  0  0  0  0  0  0  0
   -4.9940   22.3010  -30.4360 C   0  0  0  0  0  0  0  0  0  0  0  0
   -6.3040   23.0850  -30.2200 C   0  0  0  0  0  0  0  0  0  0  0  0
   -6.3500   24.3290  -31.1210 C   0  0  0  0  0  0  0  0  0  0  0  0
   -5.7130   25.5580  -30.4620 C   0  0  0  0  0  0  0  0  0  0  0  0
   -4.2990   25.6660  -30.8130 N   0  0  0  0  0  0  0  0  0  0  0  0
   -2.7480   21.8470  -29.4420 C   0  0  0  0  0  0  0  0  0  0  0  0
   -2.8970   20.8820  -28.2350 C   0  0  0  0  0  0  0  0  0  0  0  0
   -2.0160   21.2950  -27.0450 C   0  0  0  0  0  0  0  0  0  0  0  0
   -1.2930   20.0960  -26.4080 C   0  0  0  0  0  0  0  0  0  0  0  0
   -1.5470   18.7830  -27.1620 C   0  0  0  0  0  0  0  0  0  0  0  0
   -0.3210   18.3070  -27.9600 C   0  0  0  0  0  0  0  0  0  0  0  0
    0.7470   19.3380  -27.9690 N   0  0  0  0  0  0  0  0  0  0  0  0
    2.0850   18.6990  -27.9450 C   0  0  0  0  0  0  0  0  0  0  0  0
    3.1930   19.7320  -28.2110 C   0  0  0  0  0  0  0  0  0  0  0  0
    4.1130   19.2670  -29.3430 C   0  0  0  0  0  0  0  0  0  0  0  0
    3.3280   18.5820  -30.3760 N   0  0  0  0  0  0  0  0  0  0  0  0
    3.8360   18.9220  -31.7110 C   0  0  0  0  0  0  0  0  0  0  0  0
    2.7000   18.9380  -32.7440 C   0  0  0  0  0  0  0  0  0  0  0  0
    2.1800   17.5390  -33.1340 C   0  0  0  0  0  0  0  0  0  0  0  0
    1.1060   16.9740  -32.1920 C   0  0  0  0  0  0  0  0  0  0  0  0
    1.7040   16.4560  -30.9550 N   0  0  0  0  0  0  0  0  0  0  0  0
    0.7130   15.6770  -30.2020 C   0  0  0  0  0  0  0  0  0  0  0  0
    1.3730   15.0340  -28.9760 C   0  0  0  0  0  0  0  0  0  0  0  0
    2.8900   14.8880  -29.1500 C   0  0  0  0  0  0  0  0  0  0  0  0
    3.5310   16.1930  -29.2870 N   0  0  0  0  0  0  0  0  0  0  0  0
    0.5980   20.2700  -29.1200 C   0  0  0  0  0  0  0  0  0  0  0  0
    0.3500   19.4680  -30.4100 C   0  0  0  0  0  0  0  0  0  0  0  0
   -0.9530   19.8520  -31.1470 C   0  0  0  0  0  0  0  0  0  0  0  0
   -0.8190   20.9780  -32.0880 N   0  0  0  0  0  0  0  0  0  0  0  0
   -2.1100   21.5860  -32.4510 C   0  0  0  0  0  0  0  0  0  0  0  0
   -3.1200   20.5100  -32.8800 C   0  0  0  0  0  0  0  0  0  0  0  0
   -2.4840   19.4920  -33.8510 C   0  0  0  0  0  0  0  0  0  0  0  0
   -1.4240   20.0790  -34.6900 N   0  0  0  0  0  0  0  0  0  0  0  0
   -0.3030   19.1650  -34.9750 C   0  0  0  0  0  0  0  0  0  0  0  0
    0.9880   19.8900  -35.3940 C   0  0  0  0  0  0  0  0  0  0  0  0
    0.7700   21.3590  -35.7690 C   0  0  0  0  0  0  0  0  0  0  0  0
    0.1030   22.0810  -34.6900 N   0  0  0  0  0  0  0  0  0  0  0  0
   -0.1425   23.7119  -27.5871 H   0  0  0  0  0  0  0  0  0  0  0  0
   -0.9194   23.2613  -29.1427 H   0  0  0  0  0  0  0  0  0  0  0  0
    0.6292   24.1714  -29.1427 H   0  0  0  0  0  0  0  0  0  0  0  0
   -1.0654   25.7820  -27.6100 H   0  0  0  0  0  0  0  0  0  0  0  0
   -0.6433   26.0321  -29.3430 H   0  0  0  0  0  0  0  0  0  0  0  0
   -2.9070   26.0330  -29.2720 H   0  0  0  0  0  0  0  0  0  0  0  0
   -2.5981   24.1526  -27.1174 H   0  0  0  0  0  0  0  0  0  0  0  0
   -3.8538   25.4071  -27.4073 H   0  0  0  0  0  0  0  0  0  0  0  0
   -4.3337   22.7303  -27.5751 H   0  0  0  0  0  0  0  0  0  0  0  0
   -5.2054   24.0121  -28.5664 H   0  0  0  0  0  0  0  0  0  0  0  0
   -3.4380   23.5950  -30.2020 H   0  0  0  0  0  0  0  0  0  0  0  0
   -4.7217   22.3602  -31.5001 H   0  0  0  0  0  0  0  0  0  0  0  0
   -5.1746   21.2645  -30.1148 H   0  0  0  0  0  0  0  0  0  0  0  0
   -7.1577   22.4341  -30.4600 H   0  0  0  0  0  0  0  0  0  0  0  0
   -6.3525   23.4082  -29.1697 H   0  0  0  0  0  0  0  0  0  0  0  0
   -5.8091   24.1090  -32.0532 H   0  0  0  0  0  0  0  0  0  0  0  0
   -7.4077   24.5636  -31.3114 H   0  0  0  0  0  0  0  0  0  0  0  0
   -6.2385   26.4621  -30.8032 H   0  0  0  0  0  0  0  0  0  0  0  0
   -5.7962   25.4530  -29.3702 H   0  0  0  0  0  0  0  0  0  0  0  0
   -3.8730   26.3840  -30.1840 H   0  0  0  0  0  0  0  0  0  0  0  0
   -3.8320   24.7620  -30.5770 H   0  0  0  0  0  0  0  0  0  0  0  0
   -2.6776   21.2381  -30.3554 H   0  0  0  0  0  0  0  0  0  0  0  0
   -1.8496   22.4479  -29.2376 H   0  0  0  0  0  0  0  0  0  0  0  0
   -3.9486   20.8791  -27.9123 H   0  0  0  0  0  0  0  0  0  0  0  0
   -2.5740   19.8825  -28.5617 H   0  0  0  0  0  0  0  0  0  0  0  0
   -1.2630   22.0159  -27.3961 H   0  0  0  0  0  0  0  0  0  0  0  0
   -2.6709   21.7374  -26.2799 H   0  0  0  0  0  0  0  0  0  0  0  0
   -0.2116   20.2974  -26.4062 H   0  0  0  0  0  0  0  0  0  0  0  0
   -1.6855   19.9748  -25.3876 H   0  0  0  0  0  0  0  0  0  0  0  0
   -1.8151   18.0048  -26.4322 H   0  0  0  0  0  0  0  0  0  0  0  0
   -2.3594   18.9657  -27.8807 H   0  0  0  0  0  0  0  0  0  0  0  0
    0.0714   17.3879  -27.5005 H   0  0  0  0  0  0  0  0  0  0  0  0
   -0.6326   18.1192  -28.9981 H   0  0  0  0  0  0  0  0  0  0  0  0
    2.2481   18.2425  -26.9576 H   0  0  0  0  0  0  0  0  0  0  0  0
    2.1224   17.9334  -28.7340 H   0  0  0  0  0  0  0  0  0  0  0  0
    2.7320   20.6903  -28.4922 H   0  0  0  0  0  0  0  0  0  0  0  0
    3.7925   19.8479  -27.2960 H   0  0  0  0  0  0  0  0  0  0  0  0
    4.6158   20.1394  -29.7858 H   0  0  0  0  0  0  0  0  0  0  0  0
    4.8625   18.5715  -28.9375 H   0  0  0  0  0  0  0  0  0  0  0  0
    3.4400   17.5500  -30.2380 H   0  0  0  0  0  0  0  0  0  0  0  0
    4.3039   19.9169  -31.6753 H   0  0  0  0  0  0  0  0  0  0  0  0
    4.5716   18.1610  -32.0105 H   0  0  0  0  0  0  0  0  0  0  0  0
    1.8612   19.5134  -32.3254 H   0  0  0  0  0  0  0  0  0  0  0  0
    3.1114   19.3887  -33.6592 H   0  0  0  0  0  0  0  0  0  0  0  0
    1.7519   17.6010  -34.1454 H   0  0  0  0  0  0  0  0  0  0  0  0
    3.0406   16.8567  -33.0728 H   0  0  0  0  0  0  0  0  0  0  0  0
    0.3941   17.7735  -31.9390 H   0  0  0  0  0  0  0  0  0  0  0  0
    0.5937   16.1464  -32.7044 H   0  0  0  0  0  0  0  0  0  0  0  0
    1.9850   17.2760  -30.3670 H   0  0  0  0  0  0  0  0  0  0  0  0
   -0.0987   16.3420  -29.8720 H   0  0  0  0  0  0  0  0  0  0  0  0
    0.3072   14.8862  -30.8500 H   0  0  0  0  0  0  0  0  0  0  0  0
    1.1755   15.6631  -28.0955 H   0  0  0  0  0  0  0  0  0  0  0  0
    0.9472   14.0276  -28.8497 H   0  0  0  0  0  0  0  0  0  0  0  0
    3.3049   14.3745  -28.2701 H   0  0  0  0  0  0  0  0  0  0  0  0
    3.0827   14.3062  -30.0635 H   0  0  0  0  0  0  0  0  0  0  0  0
    2.8140   16.9230  -29.0690 H   0  0  0  0  0  0  0  0  0  0  0  0
    3.7910   16.3230  -30.2900 H   0  0  0  0  0  0  0  0  0  0  0  0
   -0.2537   20.9420  -28.9381 H   0  0  0  0  0  0  0  0  0  0  0  0
    1.5189   20.8613  -29.2307 H   0  0  0  0  0  0  0  0  0  0  0  0
    1.1963   19.6386  -31.0917 H   0  0  0  0  0  0  0  0  0  0  0  0
    0.2503   18.4130  -30.1151 H   0  0  0  0  0  0  0  0  0  0  0  0
   -1.2993   18.9734  -31.7110 H   0  0  0  0  0  0  0  0  0  0  0  0
   -1.6637   20.1769  -30.3728 H   0  0  0  0  0  0  0  0  0  0  0  0
   -0.2790   20.6770  -32.9300 H   0  0  0  0  0  0  0  0  0  0  0  0
   -2.5095   22.1293  -31.5820 H   0  0  0  0  0  0  0  0  0  0  0  0
   -1.9502   22.2748  -33.2936 H   0  0  0  0  0  0  0  0  0  0  0  0
   -3.4758   19.9770  -31.9860 H   0  0  0  0  0  0  0  0  0  0  0  0
   -3.9540   21.0063  -33.3978 H   0  0  0  0  0  0  0  0  0  0  0  0
   -2.0500   18.6704  -33.2623 H   0  0  0  0  0  0  0  0  0  0  0  0
   -3.2790   19.1400  -34.5248 H   0  0  0  0  0  0  0  0  0  0  0  0
   -1.0440   20.9270  -34.2130 H   0  0  0  0  0  0  0  0  0  0  0  0
   -0.0940   18.5771  -34.0691 H   0  0  0  0  0  0  0  0  0  0  0  0
   -0.6083   18.5322  -35.8214 H   0  0  0  0  0  0  0  0  0  0  0  0
    1.6993   19.8465  -34.5561 H   0  0  0  0  0  0  0  0  0  0  0  0
    1.3685   19.3802  -36.2914 H   0  0  0  0  0  0  0  0  0  0  0  0
    1.7450   21.8282  -35.9668 H   0  0  0  0  0  0  0  0  0  0  0  0
    0.1331   21.4011  -36.6649 H   0  0  0  0  0  0  0  0  0  0  0  0
   -0.9060   22.1870  -34.9450 H   0  0  0  0  0  0  0  0  0  0  0  0
    0.1310   21.4710  -33.8400 H   0  0  0  0  0  0  0  0  0  0  0  0
  1  2  1  0
  2  3  1  0
  3  4  1  0
  4  5  1  0
  5  6  1  0
  6  7  1  0
  7  8  1  0
  8  9  1  0
  9 10  1  0
 10 11  1  0
  6 12  1  0
 12 13  1  0
 13 14  1  0
 14 15  1  0
 15 16  1  0
 16 17  1  0
 17 18  1  0
 18 19  1  0
 19 20  1  0
 20 21  1  0
 21 22  1  0
 22 23  1  0
 23 24  1  0
 24 25  1  0
 25 26  1  0
 26 27  1  0
 27 28  1  0
 28 29  1  0
 29 30  1  0
 30 31  1  0
 18 32  1  0
 32 33  1  0
 33 34  1  0
 34 35  1  0
 35 36  1  0
 36 37  1  0
 37 38  1  0
 38 39  1  0
 39 40  1  0
 40 41  1  0
 41 42  1  0
 42 43  1  0
  1 44  1  0
  1 45  1  0
  1 46  1  0
  2 47  1  0
  2 48  1  0
  3 49  1  0
  4 50  1  0
  4 51  1  0
  5 52  1  0
  5 53  1  0
  6 54  1  6
  7 55  1  0
  7 56  1  0
  8 57  1  0
  8 58  1  0
  9 59  1  0
  9 60  1  0
 10 61  1  0
 10 62  1  0
 11 63  1  0
 11 64  1  0
 12 65  1  0
 12 66  1  0
 13 67  1  0
 13 68  1  0
 14 69  1  0
 14 70  1  0
 15 71  1  0
 15 72  1  0
 16 73  1  0
 16 74  1  0
 17 75  1  0
 17 76  1  0
 19 77  1  0
 19 78  1  0
 20 79  1  0
 20 80  1  0
 21 81  1  0
 21 82  1  0
 22 83  1  0
 23 84  1  0
 23 85  1  0
 24 86  1  0
 24 87  1  0
 25 88  1  0
 25 89  1  0
 26 90  1  0
 26 91  1  0
 27 92  1  0
 28 93  1  0
 28 94  1  0
 29 95  1  0
 29 96  1  0
 30 97  1  0
 30 98  1  0
 31 99  1  0
 31100  1  0
 32101  1  0
 32102  1  0
 33103  1  0
 33104  1  0
 34105  1  0
 34106  1  0
 35107  1  0
 36108  1  0
 36109  1  0
 37110  1  0
 37111  1  0
 38112  1  0
 38113  1  0
 39114  1  0
 40115  1  0
 40116  1  0
 41117  1  0
 41118  1  0
 42119  1  0
 42120  1  0
 43121  1  0
 43122  1  0
M  CHG  1   6   1
M  END
>  <UniqueID>  (2) 
2

>  <SMILES>  (2) 
CCNCC[N@H+](CCCCN)CCCCCCN(CCCNCCCCNCCCN)CCCNCCCNCCCN

>  <Energy>  (2) 
89.68518869870353

>  <Genealogy>  (2) 
CCNCC[NH+](CCCCN)CCCCCCN(CCCNCCCCNCCCN)CCCNCCCNCCCN (protonated)
CCNCC[N@H+](CCCCN)CCCCCCN(CCCNCCCCNCCCN)CCCNCCCNCCCN (chirality)
CCNCC[N@H+](CCCCN)CCCCCCN(CCCNCCCCNCCCN)CCCNCCCNCCCN (3D coordinates assigned)
CCNCC[N@H+](CCCCN)CCCCCCN(CCCNCCCCNCCCN)CCCNCCCNCCCN (optimized conformer: 89.68518869870353 kcal/mol)

>  <smiles>  (2) 
CCNCC[N+](CCCCN)CCCCCCN(CCCNCCCCNCCCN)CCCNCCCNCCCN

>  <score_type>  (2) 
oracle

>  <origin>  (2) 
adg

>  <m_score__min__energy>  (2) 
-3.9500000000000002

>  <m_primary>  (2) 
energy

$$$$
2:0
     RDKit          3D

 51 53  0  0  0  0  0  0  0  0999 V2000
   -5.4840   25.5300  -30.3680 C   0  0  0  0  0  0  0  0  0  0  0  0
   -4.1390   24.8030  -30.4890 C   0  0  0  0  0  0  0  0  0  0  0  0
   -4.2430   23.3370  -30.7000 N   0  0  0  0  0  0  0  0  0  0  0  0
   -4.7100   22.6430  -29.4880 C   0  0  0  0  0  0  0  0  0  0  0  0
   -3.0260   22.6870  -31.2390 C   0  0  0  0  0  0  0  0  0  0  0  0
   -3.3260   21.6570  -32.3480 C   0  0  0  0  0  0  0  0  0  0  0  0
   -4.5460   21.9650  -33.1210 N   0  0  0  0  0  0  0  0  0  0  0  0
   -5.6240   21.0180  -32.8710 C   0  0  0  0  0  0  0  0  0  0  0  0
   -6.7960   21.4410  -32.1890 C   0  0  0  0  0  0  0  0  0  0  0  0
   -7.8280   20.5200  -31.9250 C   0  0  0  0  0  0  0  0  0  0  0  0
   -7.6550   19.1810  -32.1850 N   0  0  0  0  0  0  0  0  0  0  0  0
   -8.5860   18.1950  -31.5960 C   0  0  0  0  0  0  0  0  0  0  0  0
   -6.6080   18.7630  -32.9790 C   0  0  0  0  0  0  0  0  0  0  0  0
   -6.5590   17.4380  -33.4840 C   0  0  0  0  0  0  0  0  0  0  0  0
   -5.4780   16.9890  -34.2330 C   0  0  0  0  0  0  0  0  0  0  0  0
   -4.4220   17.8420  -34.5050 C   0  0  0  0  0  0  0  0  0  0  0  0
   -4.4530   19.1610  -34.0610 C   0  0  0  0  0  0  0  0  0  0  0  0
   -5.5520   19.6630  -33.3160 C   0  0  0  0  0  0  0  0  0  0  0  0
   -9.1120   21.0630  -31.3130 C   0  0  0  0  0  0  0  0  0  0  0  0
   -9.4990   22.3980  -31.9600 C   0  0  0  0  0  0  0  0  0  0  0  0
   -8.3500   23.4280  -31.9790 C   0  0  0  0  0  0  0  0  0  0  0  0
   -6.9790   22.8390  -31.6140 C   0  0  0  0  0  0  0  0  0  0  0  0
   -5.7336   25.6649  -29.3052 H   0  0  0  0  0  0  0  0  0  0  0  0
   -5.4145   26.5134  -30.8560 H   0  0  0  0  0  0  0  0  0  0  0  0
   -6.2686   24.9332  -30.8560 H   0  0  0  0  0  0  0  0  0  0  0  0
   -3.5920   25.2338  -31.3406 H   0  0  0  0  0  0  0  0  0  0  0  0
   -3.6227   24.9427  -29.5278 H   0  0  0  0  0  0  0  0  0  0  0  0
   -4.3498   23.1783  -28.5971 H   0  0  0  0  0  0  0  0  0  0  0  0
   -5.8097   22.6176  -29.4808 H   0  0  0  0  0  0  0  0  0  0  0  0
   -4.3194   21.6147  -29.4808 H   0  0  0  0  0  0  0  0  0  0  0  0
   -2.3687   23.4654  -31.6537 H   0  0  0  0  0  0  0  0  0  0  0  0
   -2.5513   22.1436  -30.4087 H   0  0  0  0  0  0  0  0  0  0  0  0
   -2.4717   21.6317  -33.0405 H   0  0  0  0  0  0  0  0  0  0  0  0
   -3.4906   20.6877  -31.8546 H   0  0  0  0  0  0  0  0  0  0  0  0
   -4.3080   22.0760  -34.1270 H   0  0  0  0  0  0  0  0  0  0  0  0
   -4.8720   22.9270  -32.8800 H   0  0  0  0  0  0  0  0  0  0  0  0
   -8.5332   18.2509  -30.4987 H   0  0  0  0  0  0  0  0  0  0  0  0
   -9.6118   18.4169  -31.9255 H   0  0  0  0  0  0  0  0  0  0  0  0
   -8.3057   17.1837  -31.9255 H   0  0  0  0  0  0  0  0  0  0  0  0
   -7.3939   16.7520  -33.2784 H   0  0  0  0  0  0  0  0  0  0  0  0
   -5.4614   15.9557  -34.6098 H   0  0  0  0  0  0  0  0  0  0  0  0
   -3.5549   17.4760  -35.0743 H   0  0  0  0  0  0  0  0  0  0  0  0
   -3.6090   19.8275  -34.2921 H   0  0  0  0  0  0  0  0  0  0  0  0
   -9.9227   20.3366  -31.4714 H   0  0  0  0  0  0  0  0  0  0  0  0
   -8.9496   21.2255  -30.2373 H   0  0  0  0  0  0  0  0  0  0  0  0
   -9.8109   22.2050  -32.9970 H   0  0  0  0  0  0  0  0  0  0  0  0
  -10.3099   22.8285  -31.3541 H   0  0  0  0  0  0  0  0  0  0  0  0
   -8.2850   23.8555  -32.9904 H   0  0  0  0  0  0  0  0  0  0  0  0
   -8.5862   24.1835  -31.2151 H   0  0  0  0  0  0  0  0  0  0  0  0
   -6.1914   23.4948  -32.0135 H   0  0  0  0  0  0  0  0  0  0  0  0
   -6.9159   22.7701  -30.5180 H   0  0  0  0  0  0  0  0  0  0  0  0
  1  2  1  0
  2  3  1  0
  3  4  1  0
  3  5  1  0
  5  6  1  0
  6  7  1  0
  7  8  1  0
  8  9  2  0
  9 10  1  0
 10 11  2  0
 11 12  1  0
 11 13  1  0
 13 14  2  0
 14 15  1  0
 15 16  2  0
 16 17  1  0
 17 18  2  0
 10 19  1  0
 19 20  1  0
 20 21  1  0
 21 22  1  0
 18  8  1  0
 22  9  1  0
 18 13  1  0
  1 23  1  0
  1 24  1  0
  1 25  1  0
  2 26  1  0
  2 27  1  0
  4 28  1  0
  4 29  1  0
  4 30  1  0
  5 31  1  0
  5 32  1  0
  6 33  1  0
  6 34  1  0
  7 35  1  0
  7 36  1  0
 12 37  1  0
 12 38  1  0
 12 39  1  0
 14 40  1  0
 15 41  1  0
 16 42  1  0
 17 43  1  0
 19 44  1  0
 19 45  1  0
 20 46  1  0
 20 47  1  0
 21 48  1  0
 21 49  1  0
 22 50  1  0
 22 51  1  0
M  CHG  2   7   1  11   1
M  END
>  <UniqueID>  (3) 
3

>  <SMILES>  (3) 
CCN(C)CC[NH2+]c1c2c([n+](C)c3ccccc13)CCCC2

>  <Energy>  (3) 
81.05679291690606

>  <Genealogy>  (3) 
CCN(C)CC[NH2+]c1c2c([n+](C)c3ccccc13)CCCC2 (protonated)
CCN(C)CC[NH2+]c1c2c([n+](C)c3ccccc13)CCCC2 (3D coordinates assigned)
CCN(C)CC[NH2+]c1c2c([n+](C)c3ccccc13)CCCC2 (nonaromatic ring conformer: 81.05679291690606 kcal/mol)

>  <smiles>  (3) 
CCN(C)CCNc1c2c([n+](C)c3ccccc13)CCCC2

>  <score_type>  (3) 
oracle

>  <origin>  (3) 
adg

>  <m_score__min__energy>  (3) 
-7.5300000000000002

>  <m_primary>  (3) 
energy

$$$$
3:0
     RDKit          3D

 54 56  0  0  0  0  0  0  0  0999 V2000
   -3.3890   22.4890  -29.6390 C   0  0  0  0  0  0  0  0  0  0  0  0
   -3.2620   23.8530  -30.3350 C   0  0  0  0  0  0  0  0  0  0  0  0
   -4.5080   24.3370  -30.9850 N   0  0  0  0  0  0  0  0  0  0  0  0
   -5.0010   25.6390  -30.4840 C   0  0  0  0  0  0  0  0  0  0  0  0
   -6.2980   25.4890  -29.6880 C   0  0  0  0  0  0  0  0  0  0  0  0
   -5.5740   23.3100  -30.9970 C   0  0  0  0  0  0  0  0  0  0  0  0
   -5.6610   22.6850  -32.3180 N   0  0  0  0  0  0  0  0  0  0  0  0
   -5.5620   21.2590  -32.4430 C   0  0  0  0  0  0  0  0  0  0  0  0
   -4.3360   20.6990  -32.8480 C   0  0  0  0  0  0  0  0  0  0  0  0
   -3.1920   21.5110  -33.0180 C   0  0  0  0  0  0  0  0  0  0  0  0
   -1.9930   20.9690  -33.4700 C   0  0  0  0  0  0  0  0  0  0  0  0
   -1.9130   19.6160  -33.7750 C   0  0  0  0  0  0  0  0  0  0  0  0
   -3.0250   18.7920  -33.6070 C   0  0  0  0  0  0  0  0  0  0  0  0
   -4.2510   19.3070  -33.1100 C   0  0  0  0  0  0  0  0  0  0  0  0
   -5.3510   18.4970  -32.9130 N   0  0  0  0  0  0  0  0  0  0  0  0
   -5.1950   17.0250  -32.9320 C   0  0  0  0  0  0  0  0  0  0  0  0
   -6.5900   19.0560  -32.6610 C   0  0  0  0  0  0  0  0  0  0  0  0
   -7.7730   18.2850  -32.7550 C   0  0  0  0  0  0  0  0  0  0  0  0
   -9.0090   18.8170  -32.4130 C   0  0  0  0  0  0  0  0  0  0  0  0
   -9.1020   20.1180  -31.9460 C   0  0  0  0  0  0  0  0  0  0  0  0
   -7.9690   20.9390  -31.8770 C   0  0  0  0  0  0  0  0  0  0  0  0
   -8.1020   22.2270  -31.2480 N   0  0  0  0  0  0  0  0  0  0  0  0
   -8.0870   22.2880  -29.7860 C   0  0  0  0  0  0  0  0  0  0  0  0
   -8.7740   23.3110  -31.9680 C   0  0  0  0  0  0  0  0  0  0  0  0
   -6.7050   20.4360  -32.3160 C   0  0  0  0  0  0  0  0  0  0  0  0
   -3.3758   22.6313  -28.5483 H   0  0  0  0  0  0  0  0  0  0  0  0
   -4.3354   22.0129  -29.9352 H   0  0  0  0  0  0  0  0  0  0  0  0
   -2.5468   21.8464  -29.9352 H   0  0  0  0  0  0  0  0  0  0  0  0
   -2.9579   24.5949  -29.5820 H   0  0  0  0  0  0  0  0  0  0  0  0
   -2.5222   23.7240  -31.1388 H   0  0  0  0  0  0  0  0  0  0  0  0
   -4.2336   26.0834  -29.8332 H   0  0  0  0  0  0  0  0  0  0  0  0
   -5.2059   26.2830  -31.3519 H   0  0  0  0  0  0  0  0  0  0  0  0
   -6.0727   25.5151  -28.6116 H   0  0  0  0  0  0  0  0  0  0  0  0
   -6.9803   26.3142  -29.9399 H   0  0  0  0  0  0  0  0  0  0  0  0
   -6.7740   24.5298  -29.9399 H   0  0  0  0  0  0  0  0  0  0  0  0
   -5.3449   22.5401  -30.2455 H   0  0  0  0  0  0  0  0  0  0  0  0
   -6.5361   23.7894  -30.7634 H   0  0  0  0  0  0  0  0  0  0  0  0
   -6.1130   23.2080  -33.1020 H   0  0  0  0  0  0  0  0  0  0  0  0
   -3.2502   22.5855  -32.7900 H   0  0  0  0  0  0  0  0  0  0  0  0
   -1.1081   21.6120  -33.5859 H   0  0  0  0  0  0  0  0  0  0  0  0
   -0.9693   19.1935  -34.1503 H   0  0  0  0  0  0  0  0  0  0  0  0
   -2.9511   17.7250  -33.8638 H   0  0  0  0  0  0  0  0  0  0  0  0
   -5.1550   16.6472  -31.8997 H   0  0  0  0  0  0  0  0  0  0  0  0
   -6.0502   16.5724  -33.4552 H   0  0  0  0  0  0  0  0  0  0  0  0
   -4.2639   16.7617  -33.4552 H   0  0  0  0  0  0  0  0  0  0  0  0
   -7.7121   17.2442  -33.1058 H   0  0  0  0  0  0  0  0  0  0  0  0
   -9.9168   18.2039  -32.5131 H   0  0  0  0  0  0  0  0  0  0  0  0
  -10.0779   20.5113  -31.6253 H   0  0  0  0  0  0  0  0  0  0  0  0
   -8.3307   21.2971  -29.3752 H   0  0  0  0  0  0  0  0  0  0  0  0
   -7.0874   22.5919  -29.4419 H   0  0  0  0  0  0  0  0  0  0  0  0
   -8.8317   23.0208  -29.4419 H   0  0  0  0  0  0  0  0  0  0  0  0
   -9.2109   24.0157  -31.2451 H   0  0  0  0  0  0  0  0  0  0  0  0
   -8.0446   23.8389  -32.5998 H   0  0  0  0  0  0  0  0  0  0  0  0
   -9.5713   22.8925  -32.5998 H   0  0  0  0  0  0  0  0  0  0  0  0
  1  2  1  0
  2  3  1  0
  3  4  1  0
  4  5  1  0
  3  6  1  0
  6  7  1  0
  7  8  1  0
  8  9  2  0
  9 10  1  0
 10 11  2  0
 11 12  1  0
 12 13  2  0
 13 14  1  0
 14 15  2  0
 15 16  1  0
 15 17  1  0
 17 18  2  0
 18 19  1  0
 19 20  2  0
 20 21  1  0
 21 22  1  0
 22 23  1  0
 22 24  1  0
 21 25  2  0
 25  8  1  0
 14  9  1  0
 25 17  1  0
  1 26  1  0
  1 27  1  0
  1 28  1  0
  2 29  1  0
  2 30  1  0
  4 31  1  0
  4 32  1  0
  5 33  1  0
  5 34  1  0
  5 35  1  0
  6 36  1  0
  6 37  1  0
  7 38  1  0
 10 39  1  0
 11 40  1  0
 12 41  1  0
 13 42  1  0
 16 43  1  0
 16 44  1  0
 16 45  1  0
 18 46  1  0
 19 47  1  0
 20 48  1  0
 23 49  1  0
 23 50  1  0
 23 51  1  0
 24 52  1  0
 24 53  1  0
 24 54  1  0
M  CHG  1  15   1
M  END
>  <UniqueID>  (4) 
4

>  <SMILES>  (4) 
CCN(CC)CNc1c2ccccc2[n+](C)c2cccc(N(C)C)c12

>  <Energy>  (4) 
91.46842446470176

>  <Genealogy>  (4) 
CCN(CC)CNc1c2ccccc2[n+](C)c2cccc(N(C)C)c12 (3D coordinates assigned)
CCN(CC)CNc1c2ccccc2[n+](C)c2cccc(N(C)C)c12 (optimized conformer: 91.46842446470176 kcal/mol)

>  <smiles>  (4) 
CCN(CC)CNc1c2ccccc2[n+](C)c2cccc(N(C)C)c12

>  <score_type>  (4) 
oracle

>  <origin>  (4) 
adg

>  <m_score__min__energy>  (4) 
-8.3200000000000003

>  <m_primary>  (4) 
energy

$$$$
4:0
     RDKit          3D

 44 46  0  0  0  0  0  0  0  0999 V2000
   -3.2340   24.2130  -27.5540 C   0  0  0  0  0  0  0  0  0  0  0  0
   -2.3710   24.9240  -28.5850 C   0  0  0  0  0  0  0  0  0  0  0  0
   -3.1650   25.2660  -29.7160 O   0  0  0  0  0  0  0  0  0  0  0  0
   -4.1050   24.3970  -30.2810 C   0  0  0  0  0  0  0  0  0  0  0  0
   -3.8220   23.1780  -30.8960 C   0  0  0  0  0  0  0  0  0  0  0  0
   -5.0520   22.6830  -31.2780 C   0  0  0  0  0  0  0  0  0  0  0  0
   -5.3810   21.4970  -31.9290 C   0  0  0  0  0  0  0  0  0  0  0  0
   -6.7430   21.2400  -32.1890 C   0  0  0  0  0  0  0  0  0  0  0  0
   -7.2260   19.7730  -33.0370 S   0  0  0  0  0  0  0  0  0  0  0  0
   -8.7250   19.6580  -33.0410 O   0  0  0  0  0  0  0  0  0  0  0  0
   -6.7570   19.8740  -34.4620 O   0  0  0  0  0  0  0  0  0  0  0  0
   -6.5070   18.3620  -32.2920 N   0  0  0  0  0  0  0  0  0  0  0  0
   -7.1300   17.1060  -32.7590 C   0  0  0  0  0  0  0  0  0  0  0  0
   -6.7180   16.7330  -34.1950 C   0  0  0  0  0  0  0  0  0  0  0  0
   -5.2340   17.0190  -34.4920 C   0  0  0  0  0  0  0  0  0  0  0  0
   -4.4280   17.2350  -33.2140 C   0  0  0  0  0  0  0  0  0  0  0  0
   -5.0250   18.3830  -32.3800 C   0  0  0  0  0  0  0  0  0  0  0  0
   -7.7280   22.1770  -31.7960 C   0  0  0  0  0  0  0  0  0  0  0  0
   -7.3640   23.3660  -31.1390 C   0  0  0  0  0  0  0  0  0  0  0  0
   -6.0080   23.5910  -30.8960 C   0  0  0  0  0  0  0  0  0  0  0  0
   -5.4360   24.6500  -30.2900 N   0  0  0  0  0  0  0  0  0  0  0  0
   -6.1160   25.8050  -29.7090 C   0  0  0  0  0  0  0  0  0  0  0  0
   -2.8995   24.4886  -26.5430 H   0  0  0  0  0  0  0  0  0  0  0  0
   -4.2844   24.5113  -27.6867 H   0  0  0  0  0  0  0  0  0  0  0  0
   -3.1422   23.1249  -27.6867 H   0  0  0  0  0  0  0  0  0  0  0  0
   -1.9504   25.8390  -28.1424 H   0  0  0  0  0  0  0  0  0  0  0  0
   -1.5535   24.2586  -28.8995 H   0  0  0  0  0  0  0  0  0  0  0  0
   -2.8359   22.7135  -31.0440 H   0  0  0  0  0  0  0  0  0  0  0  0
   -4.6018   20.7819  -32.2315 H   0  0  0  0  0  0  0  0  0  0  0  0
   -6.8278   16.2917  -32.0840 H   0  0  0  0  0  0  0  0  0  0  0  0
   -8.2197   17.2559  -32.7557 H   0  0  0  0  0  0  0  0  0  0  0  0
   -6.9043   15.6593  -34.3448 H   0  0  0  0  0  0  0  0  0  0  0  0
   -7.3148   17.3543  -34.8790 H   0  0  0  0  0  0  0  0  0  0  0  0
   -4.8100   16.1643  -35.0394 H   0  0  0  0  0  0  0  0  0  0  0  0
   -5.1779   17.9407  -35.0897 H   0  0  0  0  0  0  0  0  0  0  0  0
   -4.4422   16.3107  -32.6179 H   0  0  0  0  0  0  0  0  0  0  0  0
   -3.3955   17.4975  -33.4879 H   0  0  0  0  0  0  0  0  0  0  0  0
   -4.6175   18.3172  -31.3604 H   0  0  0  0  0  0  0  0  0  0  0  0
   -4.7509   19.3195  -32.8878 H   0  0  0  0  0  0  0  0  0  0  0  0
   -8.7883   21.9734  -32.0064 H   0  0  0  0  0  0  0  0  0  0  0  0
   -8.1247   24.0964  -30.8262 H   0  0  0  0  0  0  0  0  0  0  0  0
   -6.0774   25.7395  -28.6116 H   0  0  0  0  0  0  0  0  0  0  0  0
   -5.6173   26.7283  -30.0389 H   0  0  0  0  0  0  0  0  0  0  0  0
   -7.1653   25.8170  -30.0389 H   0  0  0  0  0  0  0  0  0  0  0  0
  1  2  1  0
  2  3  1  0
  3  4  1  0
  4  5  2  0
  5  6  1  0
  6  7  2  0
  7  8  1  0
  8  9  1  0
  9 10  2  0
  9 11  2  0
  9 12  1  0
 12 13  1  0
 13 14  1  0
 14 15  1  0
 15 16  1  0
 16 17  1  0
  8 18  2  0
 18 19  1  0
 19 20  2  0
 20 21  1  0
 21 22  1  0
 21  4  1  0
 20  6  1  0
 17 12  1  0
  1 23  1  0
  1 24  1  0
  1 25  1  0
  2 26  1  0
  2 27  1  0
  5 28  1  0
  7 29  1  0
 13 30  1  0
 13 31  1  0
 14 32  1  0
 14 33  1  0
 15 34  1  0
 15 35  1  0
 16 36  1  0
 16 37  1  0
 17 38  1  0
 17 39  1  0
 18 40  1  0
 19 41  1  0
 22 42  1  0
 22 43  1  0
 22 44  1  0
M  END
>  <UniqueID>  (5) 
5

>  <SMILES>  (5) 
CCOc1cc2cc(S(=O)(=O)N3CCCCC3)ccc2n1C

>  <Energy>  (5) 
80.18040578583839

>  <Genealogy>  (5) 
CCOc1cc2cc(S(=O)(=O)N3CCCCC3)ccc2n1C (3D coordinates assigned)
CCOc1cc2cc(S(=O)(=O)N3CCCCC3)ccc2n1C (nonaromatic ring conformer: 80.18040578583839 kcal/mol)

>  <smiles>  (5) 
CCOc1cc2cc(S(=O)(=O)N3CCCCC3)ccc2n1C

>  <score_type>  (5) 
oracle

>  <origin>  (5) 
adg

>  <m_score__min__energy>  (5) 
-8.6199999999999992

>  <m_primary>  (5) 
energy

$$$$
5:0
     RDKit          3D

 61 64  0  0  0  0  0  0  0  0999 V2000
   -6.2980   25.1990  -29.7220 C   0  0  0  0  0  0  0  0  0  0  0  0
   -5.3600   25.6700  -30.8260 C   0  0  0  0  0  0  0  0  0  0  0  0
   -4.0570   25.0080  -30.6960 N   0  0  0  0  0  0  0  0  0  0  0  0
   -4.1920   23.5590  -30.4810 C   0  0  0  0  0  0  0  0  0  0  0  0
   -3.5490   22.7350  -31.6080 C   0  0  0  0  0  0  0  0  0  0  0  0
   -4.5000   22.5190  -32.6960 N   0  0  0  0  0  0  0  0  0  0  0  0
   -5.3600   21.3740  -32.6830 C   0  0  0  0  0  0  0  0  0  0  0  0
   -6.7260   21.4840  -32.3460 C   0  0  0  0  0  0  0  0  0  0  0  0
   -7.2910   22.7380  -32.0460 C   0  0  0  0  0  0  0  0  0  0  0  0
   -8.6460   22.8510  -31.7440 C   0  0  0  0  0  0  0  0  0  0  0  0
   -9.4600   21.7230  -31.7410 C   0  0  0  0  0  0  0  0  0  0  0  0
   -8.9260   20.4650  -32.0260 C   0  0  0  0  0  0  0  0  0  0  0  0
   -7.5480   20.3060  -32.3140 C   0  0  0  0  0  0  0  0  0  0  0  0
   -6.9960   19.0580  -32.5700 N   0  0  0  0  0  0  0  0  0  0  0  0
   -7.7970   17.8250  -32.4420 C   0  0  0  0  0  0  0  0  0  0  0  0
   -5.6840   18.9960  -32.9620 C   0  0  0  0  0  0  0  0  0  0  0  0
   -5.0070   17.8870  -33.3590 N   0  0  0  0  0  0  0  0  0  0  0  0
   -3.7660   18.3210  -33.6590 C   0  0  0  0  0  0  0  0  0  0  0  0
   -2.7070   17.5530  -34.1300 C   0  0  0  0  0  0  0  0  0  0  0  0
   -1.4910   18.2000  -34.4070 C   0  0  0  0  0  0  0  0  0  0  0  0
   -1.3490   19.6010  -34.2240 C   0  0  0  0  0  0  0  0  0  0  0  0
   -0.0870   20.2520  -34.5030 N   0  0  0  0  0  0  0  0  0  0  0  0
    0.9340   20.3750  -33.4510 C   0  0  0  0  0  0  0  0  0  0  0  0
    0.2890   20.4360  -32.0680 C   0  0  0  0  0  0  0  0  0  0  0  0
    0.1960   20.8050  -35.8380 C   0  0  0  0  0  0  0  0  0  0  0  0
    0.6010   22.2740  -35.7430 C   0  0  0  0  0  0  0  0  0  0  0  0
   -2.4550   20.3520  -33.7580 C   0  0  0  0  0  0  0  0  0  0  0  0
   -3.6430   19.6780  -33.4690 C   0  0  0  0  0  0  0  0  0  0  0  0
   -4.8770   20.1140  -33.0190 C   0  0  0  0  0  0  0  0  0  0  0  0
   -5.8521   25.4229  -28.7417 H   0  0  0  0  0  0  0  0  0  0  0  0
   -7.2627   25.7196  -29.8136 H   0  0  0  0  0  0  0  0  0  0  0  0
   -6.4566   24.1143  -29.8136 H   0  0  0  0  0  0  0  0  0  0  0  0
   -5.7973   25.4237  -31.8048 H   0  0  0  0  0  0  0  0  0  0  0  0
   -5.2215   26.7580  -30.7414 H   0  0  0  0  0  0  0  0  0  0  0  0
   -3.4920   25.1830  -31.5610 H   0  0  0  0  0  0  0  0  0  0  0  0
   -3.7053   23.2965  -29.5301 H   0  0  0  0  0  0  0  0  0  0  0  0
   -5.2660   23.3219  -30.4642 H   0  0  0  0  0  0  0  0  0  0  0  0
   -2.6729   23.2754  -31.9959 H   0  0  0  0  0  0  0  0  0  0  0  0
   -3.2460   21.7580  -31.2035 H   0  0  0  0  0  0  0  0  0  0  0  0
   -4.6360   23.2360  -33.4430 H   0  0  0  0  0  0  0  0  0  0  0  0
   -6.6567   23.6367  -32.0501 H   0  0  0  0  0  0  0  0  0  0  0  0
   -9.0741   23.8361  -31.5069 H   0  0  0  0  0  0  0  0  0  0  0  0
  -10.5314   21.8229  -31.5126 H   0  0  0  0  0  0  0  0  0  0  0  0
   -9.5849   19.5842  -32.0270 H   0  0  0  0  0  0  0  0  0  0  0  0
   -7.9470   17.5941  -31.3770 H   0  0  0  0  0  0  0  0  0  0  0  0
   -8.7737   17.9703  -32.9268 H   0  0  0  0  0  0  0  0  0  0  0  0
   -7.2673   16.9917  -32.9268 H   0  0  0  0  0  0  0  0  0  0  0  0
   -5.3480   16.9070  -33.4620 H   0  0  0  0  0  0  0  0  0  0  0  0
   -2.8181   16.4692  -34.2815 H   0  0  0  0  0  0  0  0  0  0  0  0
   -0.6356   17.6121  -34.7713 H   0  0  0  0  0  0  0  0  0  0  0  0
    1.6049   19.5045  -33.4971 H   0  0  0  0  0  0  0  0  0  0  0  0
    1.4979   21.3048  -33.6164 H   0  0  0  0  0  0  0  0  0  0  0  0
    1.0691   20.3622  -31.2960 H   0  0  0  0  0  0  0  0  0  0  0  0
   -0.2488   21.3890  -31.9559 H   0  0  0  0  0  0  0  0  0  0  0  0
   -0.4179   19.6007  -31.9559 H   0  0  0  0  0  0  0  0  0  0  0  0
    1.0160   20.2341  -36.2982 H   0  0  0  0  0  0  0  0  0  0  0  0
   -0.7146   20.7298  -36.4505 H   0  0  0  0  0  0  0  0  0  0  0  0
    0.6811   22.5646  -34.6851 H   0  0  0  0  0  0  0  0  0  0  0  0
    1.5727   22.4192  -36.2377 H   0  0  0  0  0  0  0  0  0  0  0  0
   -0.1590   22.8966  -36.2377 H   0  0  0  0  0  0  0  0  0  0  0  0
   -2.3800   21.4416  -33.6266 H   0  0  0  0  0  0  0  0  0  0  0  0
  1  2  1  0
  2  3  1  0
  3  4  1  0
  4  5  1  0
  5  6  1  0
  6  7  1  0
  7  8  2  0
  8  9  1  0
  9 10  2  0
 10 11  1  0
 11 12  2  0
 12 13  1  0
 13 14  2  0
 14 15  1  0
 14 16  1  0
 16 17  1  0
 17 18  1  0
 18 19  2  0
 19 20  1  0
 20 21  2  0
 21 22  1  0
 22 23  1  0
 23 24  1  0
 22 25  1  0
 25 26  1  0
 21 27  1  0
 27 28  2  0
 28 29  1  0
 29  7  1  0
 13  8  1  0
 29 16  2  0
 28 18  1  0
  1 30  1  0
  1 31  1  0
  1 32  1  0
  2 33  1  0
  2 34  1  0
  3 35  1  0
  4 36  1  0
  4 37  1  0
  5 38  1  0
  5 39  1  0
  6 40  1  0
  9 41  1  0
 10 42  1  0
 11 43  1  0
 12 44  1  0
 15 45  1  0
 15 46  1  0
 15 47  1  0
 17 48  1  0
 19 49  1  0
 20 50  1  0
 23 51  1  0
 23 52  1  0
 24 53  1  0
 24 54  1  0
 24 55  1  0
 25 56  1  0
 25 57  1  0
 26 58  1  0
 26 59  1  0
 26 60  1  0
 27 61  1  0
M  CHG  1  14   1
M  END
>  <UniqueID>  (6) 
6

>  <SMILES>  (6) 
CCNCCNc1c2ccccc2[n+](C)c2[nH]c3ccc(N(CC)CC)cc3c12

>  <Energy>  (6) 
111.58886297159133

>  <Genealogy>  (6) 
CCNCCNc1c2ccccc2[n+](C)c2[nH]c3ccc(N(CC)CC)cc3c12 (3D coordinates assigned)
CCNCCNc1c2ccccc2[n+](C)c2[nH]c3ccc(N(CC)CC)cc3c12 (optimized conformer: 111.58886297159133 kcal/mol)

>  <smiles>  (6) 
CCNCCNc1c2ccccc2[n+](C)c2[nH]c3ccc(N(CC)CC)cc3c12

>  <score_type>  (6) 
oracle

>  <origin>  (6) 
adg

>  <m_score__min__energy>  (6) 
-9.3200000000000003

>  <m_primary>  (6) 
energy

$$$$
6:0
     RDKit          3D

 74 78  0  0  0  0  0  0  0  0999 V2000
   -7.8082   24.0703  -31.8137 H   0  0  0  0  0  0  0  0  0  0  0  0
   -8.0180   22.9940  -31.9000 C   0  0  0  0  0  0  0  0  0  0  0  0
   -9.3260   22.5040  -31.8000 C   0  0  0  0  0  0  0  0  0  0  0  0
  -10.1607   23.1915  -31.5986 H   0  0  0  0  0  0  0  0  0  0  0  0
   -9.5660   21.1250  -31.9590 C   0  0  0  0  0  0  0  0  0  0  0  0
  -10.5953   20.7409  -31.9040 H   0  0  0  0  0  0  0  0  0  0  0  0
   -8.5310   20.2600  -32.1810 N   0  0  0  0  0  0  0  0  0  0  0  0
   -8.7570   19.2650  -32.3820 H   0  0  0  0  0  0  0  0  0  0  0  0
   -7.2500   20.7280  -32.1920 C   0  0  0  0  0  0  0  0  0  0  0  0
   -6.9910   22.0780  -32.1120 C   0  0  0  0  0  0  0  0  0  0  0  0
   -5.5820   22.3120  -32.3900 C   0  0  0  0  0  0  0  0  0  0  0  0
   -5.0270   23.4780  -32.2640 N   0  0  0  0  0  0  0  0  0  0  0  0
   -4.4050   23.9240  -31.1250 O   0  0  0  0  0  0  0  0  0  0  0  0
   -5.1140   24.0060  -29.8960 C   0  0  0  0  0  0  0  0  0  0  0  0
   -5.7959   24.8685  -29.9308 H   0  0  0  0  0  0  0  0  0  0  0  0
   -5.6798   23.0733  -29.7546 H   0  0  0  0  0  0  0  0  0  0  0  0
   -4.1460   24.1770  -28.7120 C   0  0  0  0  0  0  0  0  0  0  0  0
   -4.4533   25.0579  -28.1292 H   0  0  0  0  0  0  0  0  0  0  0  0
   -4.2220   22.9550  -27.7540 C   0  0  0  0  0  0  0  0  0  0  0  0
   -4.0995   23.3063  -26.7188 H   0  0  0  0  0  0  0  0  0  0  0  0
   -5.1997   22.4711  -27.8951 H   0  0  0  0  0  0  0  0  0  0  0  0
   -3.1320   21.9220  -28.0590 C   0  0  0  0  0  0  0  0  0  0  0  0
   -3.2451   21.0703  -27.3721 H   0  0  0  0  0  0  0  0  0  0  0  0
   -3.2454   21.6008  -29.1049 H   0  0  0  0  0  0  0  0  0  0  0  0
   -1.7200   22.5190  -27.8880 C   0  0  0  0  0  0  0  0  0  0  0  0
   -1.3933   22.3497  -26.8514 H   0  0  0  0  0  0  0  0  0  0  0  0
   -1.0660   22.0190  -28.6176 H   0  0  0  0  0  0  0  0  0  0  0  0
   -1.6540   24.0310  -28.1800 C   0  0  0  0  0  0  0  0  0  0  0  0
   -1.8332   24.5835  -27.2458 H   0  0  0  0  0  0  0  0  0  0  0  0
   -0.6579   24.2606  -28.5862 H   0  0  0  0  0  0  0  0  0  0  0  0
   -2.7030   24.4500  -29.2150 C   0  0  0  0  0  0  0  0  0  0  0  0
   -2.5937   25.5255  -29.4182 H   0  0  0  0  0  0  0  0  0  0  0  0
   -2.5400   23.8581  -30.1278 H   0  0  0  0  0  0  0  0  0  0  0  0
   -4.9890   20.9810  -32.7000 C   0  0  0  0  0  0  0  0  0  0  0  0
   -3.7230   20.5800  -33.1620 C   0  0  0  0  0  0  0  0  0  0  0  0
   -2.6860   21.5300  -33.4230 N   0  0  0  0  0  0  0  0  0  0  0  0
   -2.8190   22.2030  -34.2130 H   0  0  0  0  0  0  0  0  0  0  0  0
   -1.4590   21.5430  -32.6250 C   0  0  0  0  0  0  0  0  0  0  0  0
   -1.0238   22.5530  -32.6486 H   0  0  0  0  0  0  0  0  0  0  0  0
   -0.7538   20.8132  -33.0493 H   0  0  0  0  0  0  0  0  0  0  0  0
   -1.7530   21.1560  -31.1720 C   0  0  0  0  0  0  0  0  0  0  0  0
   -2.5461   20.3940  -31.1521 H   0  0  0  0  0  0  0  0  0  0  0  0
   -2.0784   22.0505  -30.6207 H   0  0  0  0  0  0  0  0  0  0  0  0
   -0.5330   20.6100  -30.5320 N   0  0  0  0  0  0  0  0  0  0  0  0
    0.3570   19.9810  -31.5350 C   0  0  0  0  0  0  0  0  0  0  0  0
    1.4044   20.1208  -31.2294 H   0  0  0  0  0  0  0  0  0  0  0  0
    0.1842   20.4531  -32.5134 H   0  0  0  0  0  0  0  0  0  0  0  0
    0.0590   18.4880  -31.6440 C   0  0  0  0  0  0  0  0  0  0  0  0
   -0.0271   18.0567  -30.6357 H   0  0  0  0  0  0  0  0  0  0  0  0
   -0.8861   18.3415  -32.1874 H   0  0  0  0  0  0  0  0  0  0  0  0
    0.8754   17.9899  -32.1874 H   0  0  0  0  0  0  0  0  0  0  0  0
   -0.8790   19.6580  -29.4520 C   0  0  0  0  0  0  0  0  0  0  0  0
   -1.8440   19.9459  -29.0095 H   0  0  0  0  0  0  0  0  0  0  0  0
   -0.9467   18.6449  -29.8752 H   0  0  0  0  0  0  0  0  0  0  0  0
    0.1970   19.6740  -28.3690 C   0  0  0  0  0  0  0  0  0  0  0  0
   -0.2802   19.6669  -27.3779 H   0  0  0  0  0  0  0  0  0  0  0  0
    0.8366   18.7853  -28.4744 H   0  0  0  0  0  0  0  0  0  0  0  0
    0.8099   20.5814  -28.4744 H   0  0  0  0  0  0  0  0  0  0  0  0
   -3.5250   19.2090  -33.4560 C   0  0  0  0  0  0  0  0  0  0  0  0
   -2.3360   18.7650  -34.0760 C   0  0  0  0  0  0  0  0  0  0  0  0
   -1.5534   19.4933  -34.3351 H   0  0  0  0  0  0  0  0  0  0  0  0
   -2.1430   17.4160  -34.3630 C   0  0  0  0  0  0  0  0  0  0  0  0
   -1.2038   17.0840  -34.8296 H   0  0  0  0  0  0  0  0  0  0  0  0
   -3.1330   16.4870  -34.0620 C   0  0  0  0  0  0  0  0  0  0  0  0
   -2.9734   15.4228  -34.2899 H   0  0  0  0  0  0  0  0  0  0  0  0
   -4.3280   16.9000  -33.4720 C   0  0  0  0  0  0  0  0  0  0  0  0
   -5.1098   16.1572  -33.2552 H   0  0  0  0  0  0  0  0  0  0  0  0
   -4.5500   18.2600  -33.1480 C   0  0  0  0  0  0  0  0  0  0  0  0
   -5.7390   18.6820  -32.5810 N   0  0  0  0  0  0  0  0  0  0  0  0
   -6.6900   17.7200  -31.9980 C   0  0  0  0  0  0  0  0  0  0  0  0
   -6.6382   17.7724  -30.9005 H   0  0  0  0  0  0  0  0  0  0  0  0
   -7.7097   17.9660  -32.3291 H   0  0  0  0  0  0  0  0  0  0  0  0
   -6.4323   16.7032  -32.3291 H   0  0  0  0  0  0  0  0  0  0  0  0
   -5.9890   20.0280  -32.5120 C   0  0  0  0  0  0  0  0  0  0  0  0
  1  2  1  0
  2  3  2  0
  3  4  1  0
  3  5  1  0
  5  6  1  0
  5  7  2  0
  7  8  1  0
  7  9  1  0
  9 10  2  0
 10 11  1  0
 11 12  2  0
 12 13  1  0
 13 14  1  0
 14 15  1  0
 14 16  1  0
 14 17  1  0
 17 18  1  0
 17 19  1  0
 19 20  1  0
 19 21  1  0
 19 22  1  0
 22 23  1  0
 22 24  1  0
 22 25  1  0
 25 26  1  0
 25 27  1  0
 25 28  1  0
 28 29  1  0
 28 30  1  0
 28 31  1  0
 31 32  1  0
 31 33  1  0
 11 34  1  0
 34 35  2  0
 35 36  1  0
 36 37  1  0
 36 38  1  0
 38 39  1  0
 38 40  1  0
 38 41  1  0
 41 42  1  0
 41 43  1  0
 41 44  1  0
 44 45  1  0
 45 46  1  0
 45 47  1  0
 45 48  1  0
 48 49  1  0
 48 50  1  0
 48 51  1  0
 44 52  1  0
 52 53  1  0
 52 54  1  0
 52 55  1  0
 55 56  1  0
 55 57  1  0
 55 58  1  0
 35 59  1  0
 59 60  2  0
 60 61  1  0
 60 62  1  0
 62 63  1  0
 62 64  2  0
 64 65  1  0
 64 66  1  0
 66 67  1  0
 66 68  2  0
 68 69  1  0
 69 70  1  0
 70 71  1  0
 70 72  1  0
 70 73  1  0
 69 74  2  0
 10  2  1  0
 31 17  1  0
 74 34  1  0
 74  9  1  0
 68 59  1  0
M  CHG  2   7   1  69   1
M  END
>  <UniqueID>  (7) 
7

>  <SMILES>  (7) 
CCN(CC)CCNc1c2c([n+](C)c3ccccc13)-c1[nH+]cccc1/C2=N/OCC1CCCCC1

>  <Energy>  (7) 
131.181573377346

>  <Genealogy>  (7) 
CCN(CC)CCNc1c2c([n+](C)c3ccccc13)-c1[nH+]cccc1C2=NOCC1CCCCC1 (protonated)
CCN(CC)CCNc1c2c([n+](C)c3ccccc13)-c1[nH+]cccc1/C2=N/OCC1CCCCC1 (cis-trans isomerization)
CCN(CC)CCNc1c2c([n+](C)c3ccccc13)-c1[nH+]cccc1/C2=N/OCC1CCCCC1 (3D coordinates assigned)
CCN(CC)CCNc1c2c([n+](C)c3ccccc13)-c1[nH+]cccc1/C2=N/OCC1CCCCC1 (nonaromatic ring conformer: 131.181573377346 kcal/mol)

>  <smiles>  (7) 
CCN(CC)CCNc1c2c([n+](C)c3ccccc13)-c1ncccc1C2=NOCC1CCCCC1

>  <score_type>  (7) 
oracle

>  <origin>  (7) 
adg

>  <m_score__min__energy>  (7) 
-9.4299999999999997

>  <m_primary>  (7) 
energy

$$$$
7:0
     RDKit          3D

 48 51  0  0  0  0  0  0  0  0999 V2000
   -6.1040   17.7350  -31.0760 C   0  0  0  0  0  0  0  0  0  0  0  0
   -5.4050   17.9330  -32.3460 N   0  0  0  0  0  0  0  0  0  0  0  0
   -5.2110   19.0930  -33.0340 C   0  0  0  0  0  0  0  0  0  0  0  0
   -5.5930   20.4610  -32.5360 C   0  0  0  0  0  0  0  0  0  0  0  0
   -7.0970   20.6160  -32.4350 C   0  0  0  0  0  0  0  0  0  0  0  0
   -7.9320   19.5410  -32.8040 C   0  0  0  0  0  0  0  0  0  0  0  0
   -9.3200   19.6410  -32.6800 C   0  0  0  0  0  0  0  0  0  0  0  0
   -9.8960   20.8150  -32.1970 C   0  0  0  0  0  0  0  0  0  0  0  0
   -9.0890   21.9010  -31.8580 C   0  0  0  0  0  0  0  0  0  0  0  0
   -7.6960   21.8250  -31.9980 C   0  0  0  0  0  0  0  0  0  0  0  0
   -6.9110   22.9860  -31.6950 N   0  0  0  0  0  0  0  0  0  0  0  0
   -6.5970   23.3390  -30.3050 C   0  0  0  0  0  0  0  0  0  0  0  0
   -5.1580   22.9190  -29.9610 C   0  0  0  0  0  0  0  0  0  0  0  0
   -4.1040   23.7460  -30.7320 C   0  0  0  0  0  0  0  0  0  0  0  0
   -4.6240   25.0400  -31.2130 N   0  0  0  0  0  0  0  0  0  0  0  0
   -5.5060   25.6660  -30.2230 C   0  0  0  0  0  0  0  0  0  0  0  0
   -6.8050   24.8540  -30.0720 C   0  0  0  0  0  0  0  0  0  0  0  0
   -4.5940   18.9130  -34.2320 N   0  0  0  0  0  0  0  0  0  0  0  0
   -4.4250   17.5790  -34.2900 C   0  0  0  0  0  0  0  0  0  0  0  0
   -3.8540   16.8430  -35.3250 C   0  0  0  0  0  0  0  0  0  0  0  0
   -3.7990   15.4430  -35.1790 C   0  0  0  0  0  0  0  0  0  0  0  0
   -4.3170   14.8230  -34.0190 C   0  0  0  0  0  0  0  0  0  0  0  0
   -4.8900   15.5970  -32.9930 C   0  0  0  0  0  0  0  0  0  0  0  0
   -4.9190   16.9830  -33.1650 C   0  0  0  0  0  0  0  0  0  0  0  0
   -5.4130   17.9307  -30.2428 H   0  0  0  0  0  0  0  0  0  0  0  0
   -6.9570   18.4269  -31.0152 H   0  0  0  0  0  0  0  0  0  0  0  0
   -6.4675   16.6986  -31.0152 H   0  0  0  0  0  0  0  0  0  0  0  0
   -5.1503   20.6155  -31.5410 H   0  0  0  0  0  0  0  0  0  0  0  0
   -5.2169   21.2062  -33.2524 H   0  0  0  0  0  0  0  0  0  0  0  0
   -7.4858   18.6141  -33.1935 H   0  0  0  0  0  0  0  0  0  0  0  0
   -9.9593   18.7921  -32.9639 H   0  0  0  0  0  0  0  0  0  0  0  0
  -10.9878   20.8850  -32.0831 H   0  0  0  0  0  0  0  0  0  0  0  0
   -9.5493   22.8248  -31.4776 H   0  0  0  0  0  0  0  0  0  0  0  0
   -6.2650   23.3270  -32.4420 H   0  0  0  0  0  0  0  0  0  0  0  0
   -7.2819   22.7957  -29.6373 H   0  0  0  0  0  0  0  0  0  0  0  0
   -4.9972   23.0593  -28.8819 H   0  0  0  0  0  0  0  0  0  0  0  0
   -5.0369   21.8652  -30.2522 H   0  0  0  0  0  0  0  0  0  0  0  0
   -3.2517   23.9376  -30.0635 H   0  0  0  0  0  0  0  0  0  0  0  0
   -3.8100   23.1611  -31.6160 H   0  0  0  0  0  0  0  0  0  0  0  0
   -3.8100   25.6780  -31.3760 H   0  0  0  0  0  0  0  0  0  0  0  0
   -4.9897   25.7076  -29.2526 H   0  0  0  0  0  0  0  0  0  0  0  0
   -5.7576   26.6820  -30.5612 H   0  0  0  0  0  0  0  0  0  0  0  0
   -7.1957   25.0025  -29.0545 H   0  0  0  0  0  0  0  0  0  0  0  0
   -7.5097   25.2124  -30.8368 H   0  0  0  0  0  0  0  0  0  0  0  0
   -3.4597   17.3375  -36.2250 H   0  0  0  0  0  0  0  0  0  0  0  0
   -3.3500   14.8281  -35.9729 H   0  0  0  0  0  0  0  0  0  0  0  0
   -4.2719   13.7286  -33.9178 H   0  0  0  0  0  0  0  0  0  0  0  0
   -5.3007   15.1271  -32.0872 H   0  0  0  0  0  0  0  0  0  0  0  0
  1  2  1  0
  2  3  1  0
  3  4  1  0
  4  5  1  0
  5  6  2  0
  6  7  1  0
  7  8  2  0
  8  9  1  0
  9 10  2  0
 10 11  1  0
 11 12  1  0
 12 13  1  0
 13 14  1  0
 14 15  1  0
 15 16  1  0
 16 17  1  0
  3 18  2  0
 18 19  1  0
 19 20  2  0
 20 21  1  0
 21 22  2  0
 22 23  1  0
 23 24  2  0
 24  2  1  0
 10  5  1  0
 17 12  1  0
 24 19  1  0
  1 25  1  0
  1 26  1  0
  1 27  1  0
  4 28  1  0
  4 29  1  0
  6 30  1  0
  7 31  1  0
  8 32  1  0
  9 33  1  0
 11 34  1  0
 12 35  1  0
 13 36  1  0
 13 37  1  0
 14 38  1  0
 14 39  1  0
 15 40  1  0
 16 41  1  0
 16 42  1  0
 17 43  1  0
 17 44  1  0
 20 45  1  0
 21 46  1  0
 22 47  1  0
 23 48  1  0
M  END
>  <UniqueID>  (8) 
8

>  <SMILES>  (8) 
Cn1c(Cc2ccccc2NC2CCNCC2)nc2ccccc21

>  <Energy>  (8) 
97.42593582989562

>  <Genealogy>  (8) 
Cn1c(Cc2ccccc2NC2CCNCC2)nc2ccccc21 (3D coordinates assigned)
Cn1c(Cc2ccccc2NC2CCNCC2)nc2ccccc21 (nonaromatic ring conformer: 97.42593582989562 kcal/mol)

>  <smiles>  (8) 
Cn1c(Cc2ccccc2NC2CCNCC2)nc2ccccc21

>  <score_type>  (8) 
oracle

>  <origin>  (8) 
adg

>  <m_score__min__energy>  (8) 
-8.9900000000000002

>  <m_primary>  (8) 
energy

$$$$
8:0
     RDKit          3D

 60 63  0  0  0  0  0  0  0  0999 V2000
    3.0640   25.5140  -27.6180 C   0  0  0  0  0  0  0  0  0  0  0  0
    1.8970   24.5520  -27.8470 C   0  0  0  0  0  0  0  0  0  0  0  0
    0.6610   24.9090  -26.9960 C   0  0  1  0  0  0  0  0  0  0  0  0
    1.0190   25.8590  -25.8270 C   0  0  0  0  0  0  0  0  0  0  0  0
   -0.1600   26.6140  -25.3500 N   0  0  0  0  0  0  0  0  0  0  0  0
   -1.2280   25.7640  -24.7700 C   0  0  0  0  0  0  0  0  0  0  0  0
   -2.4540   25.6790  -25.6800 C   0  0  0  0  0  0  0  0  0  0  0  0
   -0.6870   27.5190  -26.4020 C   0  0  0  0  0  0  0  0  0  0  0  0
   -0.5070   26.9850  -27.8410 C   0  0  0  0  0  0  0  0  0  0  0  0
   -0.3740   25.5210  -27.8480 N   0  0  0  0  0  0  0  0  0  0  0  0
   -1.1980   24.6970  -28.7040 C   0  0  0  0  0  0  0  0  0  0  0  0
   -0.7090   23.5350  -29.2140 N   0  0  0  0  0  0  0  0  0  0  0  0
   -1.4570   22.7420  -30.0250 C   0  0  0  0  0  0  0  0  0  0  0  0
   -0.9560   21.6850  -30.4890 O   0  0  0  0  0  0  0  0  0  0  0  0
   -2.7750   23.1110  -30.3390 C   0  0  0  0  0  0  0  0  0  0  0  0
   -3.2610   24.3120  -29.8110 C   0  0  0  0  0  0  0  0  0  0  0  0
   -2.4670   25.0770  -29.0160 N   0  0  0  0  0  0  0  0  0  0  0  0
   -4.6330   24.7800  -30.1680 C   0  0  0  0  0  0  0  0  0  0  0  0
   -5.5910   23.5920  -30.2330 C   0  0  0  0  0  0  0  0  0  0  0  0
   -5.0740   22.5270  -31.1110 N   0  0  0  0  0  0  0  0  0  0  0  0
   -5.9900   21.6470  -31.7980 C   0  0  0  0  0  0  0  0  0  0  0  0
   -7.3280   21.7810  -31.5950 N   0  0  0  0  0  0  0  0  0  0  0  0
   -8.2280   20.9700  -32.2080 C   0  0  0  0  0  0  0  0  0  0  0  0
   -9.6900   21.1640  -31.9690 C   0  0  0  0  0  0  0  0  0  0  0  0
   -7.7770   19.9880  -33.0910 C   0  0  0  0  0  0  0  0  0  0  0  0
   -6.4030   19.8680  -33.3190 C   0  0  0  0  0  0  0  0  0  0  0  0
   -5.8870   18.8010  -34.2380 C   0  0  0  0  0  0  0  0  0  0  0  0
   -5.5350   20.6880  -32.6610 N   0  0  0  0  0  0  0  0  0  0  0  0
   -3.6270   22.2900  -31.2800 C   0  0  0  0  0  0  0  0  0  0  0  0
    3.2239   25.6458  -26.5377 H   0  0  0  0  0  0  0  0  0  0  0  0
    3.9749   25.1009  -28.0758 H   0  0  0  0  0  0  0  0  0  0  0  0
    2.8324   26.4870  -28.0758 H   0  0  0  0  0  0  0  0  0  0  0  0
    1.6152   24.5860  -28.9098 H   0  0  0  0  0  0  0  0  0  0  0  0
    2.2292   23.5468  -27.5484 H   0  0  0  0  0  0  0  0  0  0  0  0
    0.2750   23.9768  -26.5578 H   0  0  0  0  0  0  0  0  0  0  0  0
    1.4204   25.2628  -24.9943 H   0  0  0  0  0  0  0  0  0  0  0  0
    1.7632   26.5826  -26.1910 H   0  0  0  0  0  0  0  0  0  0  0  0
   -0.8299   24.7502  -24.6158 H   0  0  0  0  0  0  0  0  0  0  0  0
   -1.5431   26.2182  -23.8190 H   0  0  0  0  0  0  0  0  0  0  0  0
   -3.3637   25.6159  -25.0647 H   0  0  0  0  0  0  0  0  0  0  0  0
   -2.5022   26.5760  -26.3149 H   0  0  0  0  0  0  0  0  0  0  0  0
   -2.3780   24.7840  -26.3149 H   0  0  0  0  0  0  0  0  0  0  0  0
   -1.7615   27.6701  -26.2214 H   0  0  0  0  0  0  0  0  0  0  0  0
   -0.1099   28.4531  -26.3355 H   0  0  0  0  0  0  0  0  0  0  0  0
   -1.3832   27.2693  -28.4422 H   0  0  0  0  0  0  0  0  0  0  0  0
    0.4096   27.4217  -28.2643 H   0  0  0  0  0  0  0  0  0  0  0  0
   -4.9852   25.4904  -29.4056 H   0  0  0  0  0  0  0  0  0  0  0  0
   -4.6017   25.2722  -31.1512 H   0  0  0  0  0  0  0  0  0  0  0  0
   -5.7254   23.1857  -29.2197 H   0  0  0  0  0  0  0  0  0  0  0  0
   -6.5485   23.9436  -30.6448 H   0  0  0  0  0  0  0  0  0  0  0  0
   -9.8843   21.1898  -30.8866 H   0  0  0  0  0  0  0  0  0  0  0  0
  -10.0129   22.1129  -32.4222 H   0  0  0  0  0  0  0  0  0  0  0  0
  -10.2492   20.3322  -32.4222 H   0  0  0  0  0  0  0  0  0  0  0  0
   -8.4894   19.3208  -33.5982 H   0  0  0  0  0  0  0  0  0  0  0  0
   -5.4842   17.9680  -33.6431 H   0  0  0  0  0  0  0  0  0  0  0  0
   -6.7077   18.4352  -34.8725 H   0  0  0  0  0  0  0  0  0  0  0  0
   -5.0906   19.2172  -34.8725 H   0  0  0  0  0  0  0  0  0  0  0  0
   -4.5120   20.5910  -32.8450 H   0  0  0  0  0  0  0  0  0  0  0  0
   -3.4235   21.2247  -31.0964 H   0  0  0  0  0  0  0  0  0  0  0  0
   -3.3642   22.5903  -32.3050 H   0  0  0  0  0  0  0  0  0  0  0  0
  1  2  1  0
  2  3  1  0
  3  4  1  0
  4  5  1  0
  5  6  1  0
  6  7  1  0
  5  8  1  0
  8  9  1  0
  9 10  1  0
 10 11  1  0
 11 12  2  0
 12 13  1  0
 13 14  2  0
 13 15  1  0
 15 16  2  0
 16 17  1  0
 16 18  1  0
 18 19  1  0
 19 20  1  0
 20 21  1  0
 21 22  2  0
 22 23  1  0
 23 24  1  0
 23 25  2  0
 25 26  1  0
 26 27  1  0
 26 28  2  0
 20 29  1  0
 10  3  1  0
 17 11  1  0
 28 21  1  0
 29 15  1  0
  1 30  1  0
  1 31  1  0
  1 32  1  0
  2 33  1  0
  2 34  1  0
  3 35  1  1
  4 36  1  0
  4 37  1  0
  6 38  1  0
  6 39  1  0
  7 40  1  0
  7 41  1  0
  7 42  1  0
  8 43  1  0
  8 44  1  0
  9 45  1  0
  9 46  1  0
 18 47  1  0
 18 48  1  0
 19 49  1  0
 19 50  1  0
 24 51  1  0
 24 52  1  0
 24 53  1  0
 25 54  1  0
 27 55  1  0
 27 56  1  0
 27 57  1  0
 28 58  1  0
 29 59  1  0
 29 60  1  0
M  CHG  2  17  -1  28   1
M  END
>  <UniqueID>  (9) 
9

>  <SMILES>  (9) 
CC[C@H]1CN(CC)CCN1c1nc(=O)c2c([n-]1)CCN(c1nc(C)cc(C)[nH+]1)C2

>  <Energy>  (9) 
70.25044874724055

>  <Genealogy>  (9) 
CCC1CN(CC)CCN1c1nc(=O)c2c([n-]1)CCN(c1nc(C)cc(C)[nH+]1)C2 (protonated)
CC[C@H]1CN(CC)CCN1c1nc(=O)c2c([n-]1)CCN(c1nc(C)cc(C)[nH+]1)C2 (chirality)
CC[C@H]1CN(CC)CCN1c1nc(=O)c2c([n-]1)CCN(c1nc(C)cc(C)[nH+]1)C2 (3D coordinates assigned)
CC[C@H]1CN(CC)CCN1c1nc(=O)c2c([n-]1)CCN(c1nc(C)cc(C)[nH+]1)C2 (nonaromatic ring conformer: 70.25044874724055 kcal/mol)

>  <smiles>  (9) 
CCC1CN(CC)CCN1c1nc(=O)c2c([nH]1)CCN(c1nc(C)cc(C)n1)C2

>  <score_type>  (9) 
oracle

>  <origin>  (9) 
adg

>  <m_score__min__energy>  (9) 
-8.7100000000000009

>  <m_primary>  (9) 
energy

$$$$
9:0
     RDKit          3D

 86 90  0  0  0  0  0  0  0  0999 V2000
    1.7870   21.9080  -35.3450 C   0  0  0  0  0  0  0  0  0  0  0  0
    0.2670   22.0960  -35.3440 C   0  0  0  0  0  0  0  0  0  0  0  0
   -0.4750   20.8700  -34.9440 N   0  0  0  0  0  0  0  0  0  0  0  0
   -0.0550   19.6330  -35.6620 C   0  0  0  0  0  0  0  0  0  0  0  0
   -0.1820   18.3380  -34.8540 C   0  0  0  0  0  0  0  0  0  0  0  0
   -0.5580   20.6710  -33.4660 C   0  0  0  0  0  0  0  0  0  0  0  0
   -1.5800   21.5660  -32.7300 C   0  0  0  0  0  0  0  0  0  0  0  0
   -2.5050   20.7500  -31.9450 N   0  0  0  0  0  0  0  0  0  0  0  0
   -3.8790   20.6250  -32.3410 C   0  0  0  0  0  0  0  0  0  0  0  0
   -4.3190   19.5790  -33.1860 C   0  0  0  0  0  0  0  0  0  0  0  0
   -3.3980   18.6780  -33.7570 C   0  0  0  0  0  0  0  0  0  0  0  0
   -3.8300   17.6680  -34.6150 C   0  0  0  0  0  0  0  0  0  0  0  0
   -5.1790   17.5410  -34.9230 C   0  0  0  0  0  0  0  0  0  0  0  0
   -6.1150   18.4090  -34.3640 C   0  0  0  0  0  0  0  0  0  0  0  0
   -5.7190   19.4320  -33.4700 C   0  0  0  0  0  0  0  0  0  0  0  0
   -6.6490   20.2790  -32.8830 N   0  0  0  0  0  0  0  0  0  0  0  0
   -8.1010   20.0820  -33.0700 C   0  0  0  0  0  0  0  0  0  0  0  0
   -6.1860   21.3340  -32.1400 C   0  0  0  0  0  0  0  0  0  0  0  0
   -6.9350   22.3260  -31.5930 N   0  0  0  0  0  0  0  0  0  0  0  0
   -6.0500   23.1340  -30.9740 C   0  0  0  0  0  0  0  0  0  0  0  0
   -6.3350   24.3040  -30.2740 C   0  0  0  0  0  0  0  0  0  0  0  0
   -5.2640   25.0210  -29.7120 C   0  0  0  0  0  0  0  0  0  0  0  0
   -3.9220   24.5770  -29.8880 C   0  0  0  0  0  0  0  0  0  0  0  0
   -2.8150   25.2630  -29.3590 O   0  0  0  0  0  0  0  0  0  0  0  0
   -1.8790   24.7480  -28.4120 C   0  0  0  0  0  0  0  0  0  0  0  0
   -1.0150   25.8500  -27.7440 C   0  0  0  0  0  0  0  0  0  0  0  0
   -0.7930   25.7370  -26.2610 N   0  0  0  0  0  0  0  0  0  0  0  0
   -1.1960   24.3820  -25.7990 C   0  0  0  0  0  0  0  0  0  0  0  0
    0.6820   25.8880  -25.9940 C   0  0  0  0  0  0  0  0  0  0  0  0
    1.0810   27.3420  -25.6540 C   0  0  0  0  0  0  0  0  0  0  0  0
    0.4160   27.8300  -24.4030 N   0  0  0  0  0  0  0  0  0  0  0  0
    1.2820   27.5430  -23.2320 C   0  0  0  0  0  0  0  0  0  0  0  0
    0.2440   29.3010  -24.4920 C   0  0  0  0  0  0  0  0  0  0  0  0
   -0.9180   27.1810  -24.1900 C   0  0  0  0  0  0  0  0  0  0  0  0
   -1.5800   26.7800  -25.5220 C   0  0  0  0  0  0  0  0  0  0  0  0
   -3.6730   23.3980  -30.6170 C   0  0  0  0  0  0  0  0  0  0  0  0
   -4.7570   22.6820  -31.1280 C   0  0  0  0  0  0  0  0  0  0  0  0
   -4.8430   21.5160  -31.8730 C   0  0  0  0  0  0  0  0  0  0  0  0
    2.1516   21.8629  -34.3081 H   0  0  0  0  0  0  0  0  0  0  0  0
    2.0403   20.9717  -35.8638 H   0  0  0  0  0  0  0  0  0  0  0  0
    2.2608   22.7544  -35.8638 H   0  0  0  0  0  0  0  0  0  0  0  0
    0.0150   22.9026  -34.6398 H   0  0  0  0  0  0  0  0  0  0  0  0
   -0.0331   22.3382  -36.3742 H   0  0  0  0  0  0  0  0  0  0  0  0
   -1.4690   21.0270  -35.2470 H   0  0  0  0  0  0  0  0  0  0  0  0
   -0.6772   19.5345  -36.5637 H   0  0  0  0  0  0  0  0  0  0  0  0
    1.0163   19.7542  -35.8801 H   0  0  0  0  0  0  0  0  0  0  0  0
   -0.1590   18.5725  -33.7795 H   0  0  0  0  0  0  0  0  0  0  0  0
   -1.1330   17.8434  -35.1011 H   0  0  0  0  0  0  0  0  0  0  0  0
    0.6548   17.6681  -35.1011 H   0  0  0  0  0  0  0  0  0  0  0  0
   -0.8310   19.6217  -33.2803 H   0  0  0  0  0  0  0  0  0  0  0  0
    0.4289   20.9499  -33.0681 H   0  0  0  0  0  0  0  0  0  0  0  0
   -1.0428   22.2516  -32.0582 H   0  0  0  0  0  0  0  0  0  0  0  0
   -2.1540   22.1366  -33.4750 H   0  0  0  0  0  0  0  0  0  0  0  0
   -2.2380   20.5220  -30.9640 H   0  0  0  0  0  0  0  0  0  0  0  0
   -2.3273   18.7728  -33.5232 H   0  0  0  0  0  0  0  0  0  0  0  0
   -3.1004   16.9690  -35.0498 H   0  0  0  0  0  0  0  0  0  0  0  0
   -5.5102   16.7504  -35.6124 H   0  0  0  0  0  0  0  0  0  0  0  0
   -7.1785   18.2972  -34.6218 H   0  0  0  0  0  0  0  0  0  0  0  0
   -8.5915   20.0155  -32.0877 H   0  0  0  0  0  0  0  0  0  0  0  0
   -8.5171   20.9319  -33.6308 H   0  0  0  0  0  0  0  0  0  0  0  0
   -8.2756   19.1519  -33.6308 H   0  0  0  0  0  0  0  0  0  0  0  0
   -7.9640   22.4870  -31.6590 H   0  0  0  0  0  0  0  0  0  0  0  0
   -7.3707   24.6577  -30.1638 H   0  0  0  0  0  0  0  0  0  0  0  0
   -5.4643   25.9333  -29.1310 H   0  0  0  0  0  0  0  0  0  0  0  0
   -2.4343   24.2151  -27.6261 H   0  0  0  0  0  0  0  0  0  0  0  0
   -1.1943   24.0827  -28.9584 H   0  0  0  0  0  0  0  0  0  0  0  0
   -0.0279   25.8377  -28.2293 H   0  0  0  0  0  0  0  0  0  0  0  0
   -1.5854   26.7810  -27.8777 H   0  0  0  0  0  0  0  0  0  0  0  0
   -1.2035   24.3567  -24.6993 H   0  0  0  0  0  0  0  0  0  0  0  0
   -2.2022   24.1496  -26.1780 H   0  0  0  0  0  0  0  0  0  0  0  0
   -0.4804   23.6375  -26.1780 H   0  0  0  0  0  0  0  0  0  0  0  0
    0.9543   25.2412  -25.1470 H   0  0  0  0  0  0  0  0  0  0  0  0
    1.2167   25.6028  -26.9120 H   0  0  0  0  0  0  0  0  0  0  0  0
    2.1715   27.3881  -25.5174 H   0  0  0  0  0  0  0  0  0  0  0  0
    0.7558   27.9860  -26.4844 H   0  0  0  0  0  0  0  0  0  0  0  0
    0.7193   27.7295  -22.3054 H   0  0  0  0  0  0  0  0  0  0  0  0
    1.6017   26.4909  -23.2614 H   0  0  0  0  0  0  0  0  0  0  0  0
    2.1667   28.1960  -23.2614 H   0  0  0  0  0  0  0  0  0  0  0  0
    0.1943   29.7263  -23.4788 H   0  0  0  0  0  0  0  0  0  0  0  0
    1.0972   29.7379  -25.0316 H   0  0  0  0  0  0  0  0  0  0  0  0
   -0.6870   29.5293  -25.0316 H   0  0  0  0  0  0  0  0  0  0  0  0
   -0.7808   26.2792  -23.5752 H   0  0  0  0  0  0  0  0  0  0  0  0
   -1.5743   27.9068  -23.6876 H   0  0  0  0  0  0  0  0  0  0  0  0
   -2.5838   26.3821  -25.3119 H   0  0  0  0  0  0  0  0  0  0  0  0
   -1.6267   27.6772  -26.1568 H   0  0  0  0  0  0  0  0  0  0  0  0
   -2.6432   23.0477  -30.7807 H   0  0  0  0  0  0  0  0  0  0  0  0
  1  2  1  0
  2  3  1  0
  3  4  1  0
  4  5  1  0
  3  6  1  0
  6  7  1  0
  7  8  1  0
  8  9  1  0
  9 10  2  0
 10 11  1  0
 11 12  2  0
 12 13  1  0
 13 14  2  0
 14 15  1  0
 15 16  2  0
 16 17  1  0
 16 18  1  0
 18 19  1  0
 19 20  1  0
 20 21  2  0
 21 22  1  0
 22 23  2  0
 23 24  1  0
 24 25  1  0
 25 26  1  0
 26 27  1  0
 27 28  1  0
 27 29  1  0
 29 30  1  0
 30 31  1  0
 31 32  1  0
 31 33  1  0
 31 34  1  0
 34 35  1  0
 23 36  1  0
 36 37  2  0
 37 38  1  0
 38  9  1  0
 15 10  1  0
 38 18  2  0
 37 20  1  0
 35 27  1  0
  1 39  1  0
  1 40  1  0
  1 41  1  0
  2 42  1  0
  2 43  1  0
  3 44  1  0
  4 45  1  0
  4 46  1  0
  5 47  1  0
  5 48  1  0
  5 49  1  0
  6 50  1  0
  6 51  1  0
  7 52  1  0
  7 53  1  0
  8 54  1  0
 11 55  1  0
 12 56  1  0
 13 57  1  0
 14 58  1  0
 17 59  1  0
 17 60  1  0
 17 61  1  0
 19 62  1  0
 21 63  1  0
 22 64  1  0
 25 65  1  0
 25 66  1  0
 26 67  1  0
 26 68  1  0
 28 69  1  0
 28 70  1  0
 28 71  1  0
 29 72  1  0
 29 73  1  0
 30 74  1  0
 30 75  1  0
 32 76  1  0
 32 77  1  0
 32 78  1  0
 33 79  1  0
 33 80  1  0
 33 81  1  0
 34 82  1  0
 34 83  1  0
 35 84  1  0
 35 85  1  0
 36 86  1  0
M  CHG  4   3   1  16   1  27   1  31   1
M  END
>  <UniqueID>  (10) 
10

>  <SMILES>  (10) 
CC[NH+](CC)CCNc1c2ccccc2[n+](C)c2[nH]c3ccc(OCC[N+]4(C)CC[N+](C)(C)CC4)cc3c12

>  <Energy>  (10) 
180.07218560987923

>  <Genealogy>  (10) 
CC[NH+](CC)CCNc1c2ccccc2[n+](C)c2[nH]c3ccc(OCC[N+]4(C)CC[N+](C)(C)CC4)cc3c12 (protonated)
CC[NH+](CC)CCNc1c2ccccc2[n+](C)c2[nH]c3ccc(OCC[N+]4(C)CC[N+](C)(C)CC4)cc3c12 (3D coordinates assigned)
CC[NH+](CC)CCNc1c2ccccc2[n+](C)c2[nH]c3ccc(OCC[N+]4(C)CC[N+](C)(C)CC4)cc3c12 (nonaromatic ring conformer: 180.07218560987923 kcal/mol)

>  <smiles>  (10) 
CCN(CC)CCNc1c2ccccc2[n+](C)c2[nH]c3ccc(OCC[N+]4(C)CC[N+](C)(C)CC4)cc3c12

>  <score_type>  (10) 
oracle

>  <origin>  (10) 
adg

>  <m_score__min__energy>  (10) 
-8.5500000000000007

>  <m_primary>  (10) 
energy

$$$$
10:0
     RDKit          3D

 66 70  0  0  0  0  0  0  0  0999 V2000
   -0.1810   26.8180  -22.9780 C   0  0  0  0  0  0  0  0  0  0  0  0
   -0.7250   25.9080  -24.0900 C   0  0  0  0  0  0  0  0  0  0  0  0
   -1.6450   26.5850  -25.0460 N   0  0  0  0  0  0  0  0  0  0  0  0
   -0.8870   27.2450  -26.1430 C   0  0  0  0  0  0  0  0  0  0  0  0
   -0.5600   28.7110  -25.8260 C   0  0  0  0  0  0  0  0  0  0  0  0
   -2.6920   25.6820  -25.5980 C   0  0  0  0  0  0  0  0  0  0  0  0
   -2.1110   24.5520  -26.4650 C   0  0  0  0  0  0  0  0  0  0  0  0
   -2.5010   24.7220  -27.8640 N   0  0  0  0  0  0  0  0  0  0  0  0
   -2.5860   23.5860  -28.7340 C   0  0  0  0  0  0  0  0  0  0  0  0
   -3.7310   23.4010  -29.5220 C   0  0  0  0  0  0  0  0  0  0  0  0
   -3.8540   22.2180  -30.2920 C   0  0  0  0  0  0  0  0  0  0  0  0
   -2.7840   21.3570  -30.4280 N   0  0  0  0  0  0  0  0  0  0  0  0
   -2.7770   20.3460  -31.5050 C   0  0  0  0  0  0  0  0  0  0  0  0
   -1.6820   21.4930  -29.6050 C   0  0  0  0  0  0  0  0  0  0  0  0
   -0.6530   20.5170  -29.5720 C   0  0  0  0  0  0  0  0  0  0  0  0
    0.4700   20.6850  -28.7630 C   0  0  0  0  0  0  0  0  0  0  0  0
    0.5980   21.8190  -27.9690 C   0  0  0  0  0  0  0  0  0  0  0  0
   -0.4060   22.7840  -27.9620 C   0  0  0  0  0  0  0  0  0  0  0  0
   -1.5600   22.6270  -28.7570 C   0  0  0  0  0  0  0  0  0  0  0  0
   -5.1690   21.9970  -30.9520 C   0  0  0  0  0  0  0  0  0  0  0  0
   -5.7620   20.8090  -31.2300 N   0  0  0  0  0  0  0  0  0  0  0  0
   -7.0090   21.1170  -31.6400 C   0  0  0  0  0  0  0  0  0  0  0  0
   -8.0220   20.2260  -32.0010 C   0  0  0  0  0  0  0  0  0  0  0  0
   -7.7660   18.8480  -32.0020 O   0  0  0  0  0  0  0  0  0  0  0  0
   -6.9410   18.1900  -32.9570 C   0  0  0  0  0  0  0  0  0  0  0  0
   -9.2810   20.7770  -32.3470 C   0  0  0  0  0  0  0  0  0  0  0  0
   -9.4920   22.1730  -32.3020 C   0  0  0  0  0  0  0  0  0  0  0  0
   -8.4580   23.0400  -31.9130 C   0  0  0  0  0  0  0  0  0  0  0  0
   -7.2250   22.4740  -31.5960 C   0  0  0  0  0  0  0  0  0  0  0  0
   -6.0550   23.0360  -31.1370 C   0  0  0  0  0  0  0  0  0  0  0  0
   -5.7520   24.4360  -30.7180 C   0  0  0  0  0  0  0  0  0  0  0  0
   -4.8890   24.4010  -29.4410 C   0  0  0  0  0  0  0  0  0  0  0  0
   -0.4363   26.3909  -21.9970 H   0  0  0  0  0  0  0  0  0  0  0  0
    0.9123   26.8965  -23.0704 H   0  0  0  0  0  0  0  0  0  0  0  0
   -0.6295   27.8182  -23.0704 H   0  0  0  0  0  0  0  0  0  0  0  0
    0.1293   25.5108  -24.6578 H   0  0  0  0  0  0  0  0  0  0  0  0
   -1.3128   25.1225  -23.5925 H   0  0  0  0  0  0  0  0  0  0  0  0
   -2.1300   27.3310  -24.4940 H   0  0  0  0  0  0  0  0  0  0  0  0
    0.0547   26.6987  -26.3006 H   0  0  0  0  0  0  0  0  0  0  0  0
   -1.5171   27.2284  -27.0445 H   0  0  0  0  0  0  0  0  0  0  0  0
   -0.5285   28.8521  -24.7355 H   0  0  0  0  0  0  0  0  0  0  0  0
    0.4180   28.9701  -26.2577 H   0  0  0  0  0  0  0  0  0  0  0  0
   -1.3352   29.3612  -26.2577 H   0  0  0  0  0  0  0  0  0  0  0  0
   -3.2453   25.2326  -24.7602 H   0  0  0  0  0  0  0  0  0  0  0  0
   -3.3459   26.2890  -26.2414 H   0  0  0  0  0  0  0  0  0  0  0  0
   -1.0136   24.5681  -26.3914 H   0  0  0  0  0  0  0  0  0  0  0  0
   -2.5034   23.5904  -26.1026 H   0  0  0  0  0  0  0  0  0  0  0  0
   -2.8720   25.6390  -28.2090 H   0  0  0  0  0  0  0  0  0  0  0  0
   -2.7700   19.3389  -31.0625 H   0  0  0  0  0  0  0  0  0  0  0  0
   -3.6760   20.4669  -32.1272 H   0  0  0  0  0  0  0  0  0  0  0  0
   -1.8798   20.4793  -32.1272 H   0  0  0  0  0  0  0  0  0  0  0  0
   -0.7425   19.6142  -30.1940 H   0  0  0  0  0  0  0  0  0  0  0  0
    1.2578   19.9173  -28.7529 H   0  0  0  0  0  0  0  0  0  0  0  0
    1.4939   21.9542  -27.3452 H   0  0  0  0  0  0  0  0  0  0  0  0
   -0.2977   23.6777  -27.3299 H   0  0  0  0  0  0  0  0  0  0  0  0
   -5.3800   19.8490  -31.0790 H   0  0  0  0  0  0  0  0  0  0  0  0
   -6.1844   17.5866  -32.4341 H   0  0  0  0  0  0  0  0  0  0  0  0
   -7.5605   17.5353  -33.5875 H   0  0  0  0  0  0  0  0  0  0  0  0
   -6.4405   18.9396  -33.5875 H   0  0  0  0  0  0  0  0  0  0  0  0
  -10.1015   20.1115  -32.6534 H   0  0  0  0  0  0  0  0  0  0  0  0
  -10.4751   22.5847  -32.5741 H   0  0  0  0  0  0  0  0  0  0  0  0
   -8.6159   24.1273  -31.8604 H   0  0  0  0  0  0  0  0  0  0  0  0
   -5.2030   24.9507  -31.5203 H   0  0  0  0  0  0  0  0  0  0  0  0
   -6.6895   24.9759  -30.5188 H   0  0  0  0  0  0  0  0  0  0  0  0
   -4.4726   25.4052  -29.2729 H   0  0  0  0  0  0  0  0  0  0  0  0
   -5.5406   24.0801  -28.6149 H   0  0  0  0  0  0  0  0  0  0  0  0
  1  2  1  0
  2  3  1  0
  3  4  1  0
  4  5  1  0
  3  6  1  0
  6  7  1  0
  7  8  1  0
  8  9  1  0
  9 10  2  0
 10 11  1  0
 11 12  2  0
 12 13  1  0
 12 14  1  0
 14 15  2  0
 15 16  1  0
 16 17  2  0
 17 18  1  0
 18 19  2  0
 11 20  1  0
 20 21  1  0
 21 22  1  0
 22 23  2  0
 23 24  1  0
 24 25  1  0
 23 26  1  0
 26 27  2  0
 27 28  1  0
 28 29  2  0
 29 30  1  0
 30 31  1  0
 31 32  1  0
 19  9  1  0
 30 20  2  0
 32 10  1  0
 19 14  1  0
 29 22  1  0
  1 33  1  0
  1 34  1  0
  1 35  1  0
  2 36  1  0
  2 37  1  0
  3 38  1  0
  4 39  1  0
  4 40  1  0
  5 41  1  0
  5 42  1  0
  5 43  1  0
  6 44  1  0
  6 45  1  0
  7 46  1  0
  7 47  1  0
  8 48  1  0
 13 49  1  0
 13 50  1  0
 13 51  1  0
 15 52  1  0
 16 53  1  0
 17 54  1  0
 18 55  1  0
 21 56  1  0
 25 57  1  0
 25 58  1  0
 25 59  1  0
 26 60  1  0
 27 61  1  0
 28 62  1  0
 31 63  1  0
 31 64  1  0
 32 65  1  0
 32 66  1  0
M  CHG  2   3   1  12   1
M  END
>  <UniqueID>  (11) 
11

>  <SMILES>  (11) 
CC[NH+](CC)CCNc1c2c([n+](C)c3ccccc13)-c1[nH]c3c(OC)cccc3c1CC2

>  <Energy>  (11) 
134.3878349087839

>  <Genealogy>  (11) 
CC[NH+](CC)CCNc1c2c([n+](C)c3ccccc13)-c1[nH]c3c(OC)cccc3c1CC2 (protonated)
CC[NH+](CC)CCNc1c2c([n+](C)c3ccccc13)-c1[nH]c3c(OC)cccc3c1CC2 (3D coordinates assigned)
CC[NH+](CC)CCNc1c2c([n+](C)c3ccccc13)-c1[nH]c3c(OC)cccc3c1CC2 (nonaromatic ring conformer: 134.3878349087839 kcal/mol)

>  <smiles>  (11) 
CCN(CC)CCNc1c2c([n+](C)c3ccccc13)-c1[nH]c3c(OC)cccc3c1CC2

>  <score_type>  (11) 
oracle

>  <origin>  (11) 
adg

>  <m_score__min__energy>  (11) 
-7.8700000000000001

>  <m_primary>  (11) 
energy

$$$$
11:0
     RDKit          3D

 51 53  0  0  0  0  0  0  0  0999 V2000
   -5.7190   25.7170  -30.0970 C   0  0  0  0  0  0  0  0  0  0  0  0
   -4.7240   24.9140  -30.8280 N   0  0  0  0  0  0  0  0  0  0  0  0
   -3.7580   24.3470  -29.8700 C   0  0  0  0  0  0  0  0  0  0  0  0
   -5.3940   23.8470  -31.6020 C   0  0  0  0  0  0  0  0  0  0  0  0
   -4.4640   22.6410  -31.7790 C   0  0  0  0  0  0  0  0  0  0  0  0
   -4.7200   21.9580  -33.0480 N   0  0  0  0  0  0  0  0  0  0  0  0
   -5.2460   20.6230  -33.1180 C   0  0  0  0  0  0  0  0  0  0  0  0
   -6.5870   20.3860  -32.7900 C   0  0  0  0  0  0  0  0  0  0  0  0
   -7.1140   19.0890  -32.9020 C   0  0  0  0  0  0  0  0  0  0  0  0
   -6.3000   18.0250  -33.2360 N   0  0  0  0  0  0  0  0  0  0  0  0
   -6.8740   16.6610  -33.2150 C   0  0  0  0  0  0  0  0  0  0  0  0
   -4.9760   18.2390  -33.5790 C   0  0  0  0  0  0  0  0  0  0  0  0
   -4.4180   19.5460  -33.4810 C   0  0  0  0  0  0  0  0  0  0  0  0
   -2.9600   19.8140  -33.8090 C   0  0  0  0  0  0  0  0  0  0  0  0
   -2.0960   18.5620  -33.7360 C   0  0  0  0  0  0  0  0  0  0  0  0
   -2.7300   17.4700  -34.5820 C   0  0  0  0  0  0  0  0  0  0  0  0
   -4.0850   17.0690  -33.9960 C   0  0  0  0  0  0  0  0  0  0  0  0
   -8.6210   18.9630  -32.7140 C   0  0  0  0  0  0  0  0  0  0  0  0
   -9.0830   19.6770  -31.4330 C   0  0  0  0  0  0  0  0  0  0  0  0
   -8.4040   21.0470  -31.1970 C   0  0  0  0  0  0  0  0  0  0  0  0
   -7.5150   21.5050  -32.3620 C   0  0  0  0  0  0  0  0  0  0  0  0
   -5.5661   25.5936  -29.0147 H   0  0  0  0  0  0  0  0  0  0  0  0
   -5.6029   26.7775  -30.3652 H   0  0  0  0  0  0  0  0  0  0  0  0
   -6.7311   25.3796  -30.3652 H   0  0  0  0  0  0  0  0  0  0  0  0
   -4.0990   24.5472  -28.8435 H   0  0  0  0  0  0  0  0  0  0  0  0
   -3.6817   23.2608  -30.0257 H   0  0  0  0  0  0  0  0  0  0  0  0
   -2.7724   24.8099  -30.0257 H   0  0  0  0  0  0  0  0  0  0  0  0
   -6.3010   23.5283  -31.0675 H   0  0  0  0  0  0  0  0  0  0  0  0
   -5.6552   24.2411  -32.5952 H   0  0  0  0  0  0  0  0  0  0  0  0
   -3.4200   22.9872  -31.7619 H   0  0  0  0  0  0  0  0  0  0  0  0
   -4.6509   21.9331  -30.9581 H   0  0  0  0  0  0  0  0  0  0  0  0
   -4.4900   22.4480  -33.9410 H   0  0  0  0  0  0  0  0  0  0  0  0
   -7.0105   16.3366  -32.1728 H   0  0  0  0  0  0  0  0  0  0  0  0
   -7.8469   16.6647  -33.7283 H   0  0  0  0  0  0  0  0  0  0  0  0
   -6.1912   15.9679  -33.7283 H   0  0  0  0  0  0  0  0  0  0  0  0
   -2.8991   20.2235  -34.8281 H   0  0  0  0  0  0  0  0  0  0  0  0
   -2.5780   20.5227  -33.0594 H   0  0  0  0  0  0  0  0  0  0  0  0
   -1.0893   18.7864  -34.1184 H   0  0  0  0  0  0  0  0  0  0  0  0
   -2.0200   18.2246  -32.6918 H   0  0  0  0  0  0  0  0  0  0  0  0
   -2.8730   17.8414  -35.6075 H   0  0  0  0  0  0  0  0  0  0  0  0
   -2.0678   16.5917  -34.5902 H   0  0  0  0  0  0  0  0  0  0  0  0
   -4.6246   16.4812  -34.7532 H   0  0  0  0  0  0  0  0  0  0  0  0
   -3.8693   16.5023  -33.0782 H   0  0  0  0  0  0  0  0  0  0  0  0
   -9.1295   19.4135  -33.5792 H   0  0  0  0  0  0  0  0  0  0  0  0
   -8.8734   17.8958  -32.6283 H   0  0  0  0  0  0  0  0  0  0  0  0
  -10.1695   19.8360  -31.4982 H   0  0  0  0  0  0  0  0  0  0  0  0
   -8.7995   19.0314  -30.5887 H   0  0  0  0  0  0  0  0  0  0  0  0
   -9.1893   21.8015  -31.0422 H   0  0  0  0  0  0  0  0  0  0  0  0
   -7.7505   20.9345  -30.3193 H   0  0  0  0  0  0  0  0  0  0  0  0
   -8.1512   21.7933  -33.2118 H   0  0  0  0  0  0  0  0  0  0  0  0
   -6.9109   22.3636  -32.0337 H   0  0  0  0  0  0  0  0  0  0  0  0
  1  2  1  0
  2  3  1  0
  2  4  1  0
  4  5  1  0
  5  6  1  0
  6  7  1  0
  7  8  2  0
  8  9  1  0
  9 10  2  0
 10 11  1  0
 10 12  1  0
 12 13  2  0
 13 14  1  0
 14 15  1  0
 15 16  1  0
 16 17  1  0
  9 18  1  0
 18 19  1  0
 19 20  1  0
 20 21  1  0
 13  7  1  0
 21  8  1  0
 17 12  1  0
  1 22  1  0
  1 23  1  0
  1 24  1  0
  3 25  1  0
  3 26  1  0
  3 27  1  0
  4 28  1  0
  4 29  1  0
  5 30  1  0
  5 31  1  0
  6 32  1  0
 11 33  1  0
 11 34  1  0
 11 35  1  0
 14 36  1  0
 14 37  1  0
 15 38  1  0
 15 39  1  0
 16 40  1  0
 16 41  1  0
 17 42  1  0
 17 43  1  0
 18 44  1  0
 18 45  1  0
 19 46  1  0
 19 47  1  0
 20 48  1  0
 20 49  1  0
 21 50  1  0
 21 51  1  0
M  CHG  1  10   1
M  END
>  <UniqueID>  (12) 
12

>  <SMILES>  (12) 
CN(C)CCNc1c2c([n+](C)c3c1CCCC3)CCCC2

>  <Energy>  (12) 
70.19251413147362

>  <Genealogy>  (12) 
CN(C)CCNc1c2c([n+](C)c3c1CCCC3)CCCC2 (3D coordinates assigned)
CN(C)CCNc1c2c([n+](C)c3c1CCCC3)CCCC2 (nonaromatic ring conformer: 70.19251413147362 kcal/mol)

>  <smiles>  (12) 
CN(C)CCNc1c2c([n+](C)c3c1CCCC3)CCCC2

>  <score_type>  (12) 
oracle

>  <origin>  (12) 
adg

>  <m_score__min__energy>  (12) 
-8.0999999999999996

>  <m_primary>  (12) 
energy

$$$$
12:0
     RDKit          3D

 66 68  0  0  0  0  0  0  0  0999 V2000
    0.6560   22.8470  -35.9410 C   0  0  0  0  0  0  0  0  0  0  0  0
    0.7110   22.0470  -34.7050 N   0  0  0  0  0  0  0  0  0  0  0  0
    1.9460   21.2410  -34.7140 C   0  0  0  0  0  0  0  0  0  0  0  0
   -0.4900   21.1880  -34.5960 C   0  0  0  0  0  0  0  0  0  0  0  0
   -0.5880   20.5060  -33.2170 C   0  0  0  0  0  0  0  0  0  0  0  0
   -1.7370   19.4900  -33.0880 C   0  0  0  0  0  0  0  0  0  0  0  0
   -2.8660   19.7810  -33.9840 N   0  0  0  0  0  0  0  0  0  0  0  0
   -4.1260   19.0890  -33.9600 C   0  0  0  0  0  0  0  0  0  0  0  0
   -4.1130   17.7480  -34.3770 C   0  0  0  0  0  0  0  0  0  0  0  0
   -5.2370   16.9570  -34.2940 C   0  0  0  0  0  0  0  0  0  0  0  0
   -6.3840   17.4510  -33.7110 C   0  0  0  0  0  0  0  0  0  0  0  0
   -6.4430   18.7660  -33.1930 C   0  0  0  0  0  0  0  0  0  0  0  0
   -5.3400   19.6590  -33.4090 C   0  0  0  0  0  0  0  0  0  0  0  0
   -5.5440   21.0560  -33.1010 C   0  0  0  0  0  0  0  0  0  0  0  0
   -4.5530   22.0840  -33.3930 N   0  0  0  0  0  0  0  0  0  0  0  0
   -3.4810   22.1080  -32.3750 C   0  0  0  0  0  0  0  0  0  0  0  0
   -4.0150   21.7990  -30.9640 C   0  0  0  0  0  0  0  0  0  0  0  0
   -4.7800   22.9650  -30.3130 C   0  0  0  0  0  0  0  0  0  0  0  0
   -4.1340   24.2780  -30.5430 N   0  0  0  0  0  0  0  0  0  0  0  0
   -5.1450   25.3460  -30.4570 C   0  0  0  0  0  0  0  0  0  0  0  0
   -3.0780   24.5420  -29.5480 C   0  0  0  0  0  0  0  0  0  0  0  0
   -6.8140   21.4730  -32.5900 C   0  0  0  0  0  0  0  0  0  0  0  0
   -7.1080   22.8400  -32.3270 C   0  0  0  0  0  0  0  0  0  0  0  0
   -8.3610   23.2420  -31.8780 C   0  0  0  0  0  0  0  0  0  0  0  0
   -9.3640   22.3060  -31.6880 C   0  0  0  0  0  0  0  0  0  0  0  0
   -9.1070   20.9590  -31.9150 C   0  0  0  0  0  0  0  0  0  0  0  0
   -7.8250   20.5120  -32.3320 C   0  0  0  0  0  0  0  0  0  0  0  0
   -7.5670   19.1750  -32.5090 N   0  0  0  0  0  0  0  0  0  0  0  0
   -8.4880   18.1680  -31.9300 C   0  0  0  0  0  0  0  0  0  0  0  0
    0.5826   23.9141  -35.6841 H   0  0  0  0  0  0  0  0  0  0  0  0
    1.5682   22.6737  -36.5308 H   0  0  0  0  0  0  0  0  0  0  0  0
   -0.2239   22.5505  -36.5308 H   0  0  0  0  0  0  0  0  0  0  0  0
    2.2583   21.0371  -33.6792 H   0  0  0  0  0  0  0  0  0  0  0  0
    1.7595   20.2902  -35.2348 H   0  0  0  0  0  0  0  0  0  0  0  0
    2.7413   21.7945  -35.2348 H   0  0  0  0  0  0  0  0  0  0  0  0
   -1.3854   21.8080  -34.7502 H   0  0  0  0  0  0  0  0  0  0  0  0
   -0.4154   20.4005  -35.3604 H   0  0  0  0  0  0  0  0  0  0  0  0
    0.3589   19.9800  -33.0257 H   0  0  0  0  0  0  0  0  0  0  0  0
   -0.7919   21.3034  -32.4872 H   0  0  0  0  0  0  0  0  0  0  0  0
   -1.3483   18.4893  -33.3278 H   0  0  0  0  0  0  0  0  0  0  0  0
   -2.1131   19.5486  -32.0559 H   0  0  0  0  0  0  0  0  0  0  0  0
   -2.8350   20.6840  -34.5000 H   0  0  0  0  0  0  0  0  0  0  0  0
   -3.1832   17.3196  -34.7793 H   0  0  0  0  0  0  0  0  0  0  0  0
   -5.2195   15.9319  -34.6926 H   0  0  0  0  0  0  0  0  0  0  0  0
   -7.2741   16.8079  -33.6470 H   0  0  0  0  0  0  0  0  0  0  0  0
   -5.0280   23.0110  -33.4530 H   0  0  0  0  0  0  0  0  0  0  0  0
   -4.1530   22.0070  -34.3400 H   0  0  0  0  0  0  0  0  0  0  0  0
   -2.7233   21.3559  -32.6400 H   0  0  0  0  0  0  0  0  0  0  0  0
   -3.0506   23.1202  -32.3601 H   0  0  0  0  0  0  0  0  0  0  0  0
   -4.6936   20.9360  -31.0327 H   0  0  0  0  0  0  0  0  0  0  0  0
   -3.1387   21.6006  -30.3294 H   0  0  0  0  0  0  0  0  0  0  0  0
   -5.7964   22.9956  -30.7325 H   0  0  0  0  0  0  0  0  0  0  0  0
   -4.7904   22.7878  -29.2274 H   0  0  0  0  0  0  0  0  0  0  0  0
   -5.3550   25.5679  -29.4003 H   0  0  0  0  0  0  0  0  0  0  0  0
   -4.7652   26.2513  -30.9533 H   0  0  0  0  0  0  0  0  0  0  0  0
   -6.0697   25.0164  -30.9533 H   0  0  0  0  0  0  0  0  0  0  0  0
   -3.4943   24.4379  -28.5351 H   0  0  0  0  0  0  0  0  0  0  0  0
   -2.2582   23.8212  -29.6833 H   0  0  0  0  0  0  0  0  0  0  0  0
   -2.6939   25.5638  -29.6833 H   0  0  0  0  0  0  0  0  0  0  0  0
   -6.3252   23.5970  -32.4826 H   0  0  0  0  0  0  0  0  0  0  0  0
   -8.5560   24.3051  -31.6734 H   0  0  0  0  0  0  0  0  0  0  0  0
  -10.3626   22.6282  -31.3579 H   0  0  0  0  0  0  0  0  0  0  0  0
   -9.9127   20.2245  -31.7688 H   0  0  0  0  0  0  0  0  0  0  0  0
   -8.4424   18.2178  -30.8321 H   0  0  0  0  0  0  0  0  0  0  0  0
   -9.5152   18.3756  -32.2641 H   0  0  0  0  0  0  0  0  0  0  0  0
   -8.1897   17.1633  -32.2641 H   0  0  0  0  0  0  0  0  0  0  0  0
  1  2  1  0
  2  3  1  0
  2  4  1  0
  4  5  1  0
  5  6  1  0
  6  7  1  0
  7  8  1  0
  8  9  2  0
  9 10  1  0
 10 11  2  0
 11 12  1  0
 12 13  2  0
 13 14  1  0
 14 15  1  0
 15 16  1  0
 16 17  1  0
 17 18  1  0
 18 19  1  0
 19 20  1  0
 19 21  1  0
 14 22  2  0
 22 23  1  0
 23 24  2  0
 24 25  1  0
 25 26  2  0
 26 27  1  0
 27 28  2  0
 28 29  1  0
 13  8  1  0
 27 22  1  0
 28 12  1  0
  1 30  1  0
  1 31  1  0
  1 32  1  0
  3 33  1  0
  3 34  1  0
  3 35  1  0
  4 36  1  0
  4 37  1  0
  5 38  1  0
  5 39  1  0
  6 40  1  0
  6 41  1  0
  7 42  1  0
  9 43  1  0
 10 44  1  0
 11 45  1  0
 15 46  1  0
 15 47  1  0
 16 48  1  0
 16 49  1  0
 17 50  1  0
 17 51  1  0
 18 52  1  0
 18 53  1  0
 20 54  1  0
 20 55  1  0
 20 56  1  0
 21 57  1  0
 21 58  1  0
 21 59  1  0
 23 60  1  0
 24 61  1  0
 25 62  1  0
 26 63  1  0
 29 64  1  0
 29 65  1  0
 29 66  1  0
M  CHG  2  15   1  28   1
M  END
>  <UniqueID>  (13) 
13

>  <SMILES>  (13) 
CN(C)CCCNc1cccc2c1c([NH2+]CCCN(C)C)c1ccccc1[n+]2C

>  <Energy>  (13) 
103.63597405308411

>  <Genealogy>  (13) 
CN(C)CCCNc1cccc2c1c([NH2+]CCCN(C)C)c1ccccc1[n+]2C (protonated)
CN(C)CCCNc1cccc2c1c([NH2+]CCCN(C)C)c1ccccc1[n+]2C (3D coordinates assigned)
CN(C)CCCNc1cccc2c1c([NH2+]CCCN(C)C)c1ccccc1[n+]2C (optimized conformer: 103.63597405308411 kcal/mol)

>  <smiles>  (13) 
CN(C)CCCNc1cccc2c1c(NCCCN(C)C)c1ccccc1[n+]2C

>  <score_type>  (13) 
oracle

>  <origin>  (13) 
adg

>  <m_score__min__energy>  (13) 
-8.6300000000000008

>  <m_primary>  (13) 
energy

$$$$
13:0
     RDKit          3D

 48 51  0  0  0  0  0  0  0  0999 V2000
   -3.8380   18.0160  -33.4720 C   0  0  0  0  0  0  0  0  0  0  0  0
   -3.0130   19.2620  -33.4280 C   0  0  0  0  0  0  0  0  0  0  0  0
   -1.7940   19.3790  -33.9870 N   0  0  0  0  0  0  0  0  0  0  0  0
   -1.3680   20.6190  -33.8090 N   0  0  0  0  0  0  0  0  0  0  0  0
   -0.1280   21.1500  -34.3610 C   0  0  0  0  0  0  0  0  0  0  0  0
   -2.3110   21.3290  -33.1590 C   0  0  0  0  0  0  0  0  0  0  0  0
   -3.3770   20.4880  -32.8840 C   0  0  0  0  0  0  0  0  0  0  0  0
   -4.6670   20.8530  -32.2600 C   0  0  0  0  0  0  0  0  0  0  0  0
   -5.8090   20.2970  -32.7520 N   0  0  0  0  0  0  0  0  0  0  0  0
   -7.0340   20.6360  -32.2750 C   0  0  0  0  0  0  0  0  0  0  0  0
   -8.1920   20.0510  -32.7990 C   0  0  0  0  0  0  0  0  0  0  0  0
   -9.4450   20.4230  -32.3010 C   0  0  0  0  0  0  0  0  0  0  0  0
   -9.5420   21.3770  -31.2810 C   0  0  0  0  0  0  0  0  0  0  0  0
   -8.3860   21.9640  -30.7540 C   0  0  0  0  0  0  0  0  0  0  0  0
   -7.1320   21.5950  -31.2500 C   0  0  0  0  0  0  0  0  0  0  0  0
   -5.9970   22.1430  -30.7440 N   0  0  0  0  0  0  0  0  0  0  0  0
   -4.7660   21.7940  -31.2100 C   0  0  0  0  0  0  0  0  0  0  0  0
   -3.6040   22.3510  -30.5770 N   0  0  0  0  0  0  0  0  0  0  0  0
   -3.4350   23.8120  -30.5880 C   0  0  0  0  0  0  0  0  0  0  0  0
   -2.9120   24.3570  -29.2450 C   0  0  0  0  0  0  0  0  0  0  0  0
   -3.8020   24.0570  -28.0280 C   0  0  0  0  0  0  0  0  0  0  0  0
   -4.1870   22.5750  -27.8790 C   0  0  0  0  0  0  0  0  0  0  0  0
   -3.0850   21.5570  -28.2370 C   0  0  0  0  0  0  0  0  0  0  0  0
   -2.7710   21.4620  -29.7410 C   0  0  0  0  0  0  0  0  0  0  0  0
   -4.0572   17.6850  -32.4461 H   0  0  0  0  0  0  0  0  0  0  0  0
   -4.7808   18.2190  -34.0011 H   0  0  0  0  0  0  0  0  0  0  0  0
   -3.2830   17.2273  -34.0011 H   0  0  0  0  0  0  0  0  0  0  0  0
   -1.2710   18.6350  -34.5020 H   0  0  0  0  0  0  0  0  0  0  0  0
    0.5450   21.4382  -33.5400 H   0  0  0  0  0  0  0  0  0  0  0  0
    0.3570   20.3806  -34.9798 H   0  0  0  0  0  0  0  0  0  0  0  0
   -0.3501   22.0319  -34.9798 H   0  0  0  0  0  0  0  0  0  0  0  0
   -2.2456   22.3942  -32.8924 H   0  0  0  0  0  0  0  0  0  0  0  0
   -8.1172   19.3009  -33.6001 H   0  0  0  0  0  0  0  0  0  0  0  0
  -10.3567   19.9647  -32.7119 H   0  0  0  0  0  0  0  0  0  0  0  0
  -10.5297   21.6661  -30.8926 H   0  0  0  0  0  0  0  0  0  0  0  0
   -8.4638   22.7131  -29.9523 H   0  0  0  0  0  0  0  0  0  0  0  0
   -2.7188   24.0781  -31.3793 H   0  0  0  0  0  0  0  0  0  0  0  0
   -4.4230   24.2608  -30.7682 H   0  0  0  0  0  0  0  0  0  0  0  0
   -1.9219   23.9148  -29.0603 H   0  0  0  0  0  0  0  0  0  0  0  0
   -2.8910   25.4521  -29.3464 H   0  0  0  0  0  0  0  0  0  0  0  0
   -3.2619   24.3661  -27.1209 H   0  0  0  0  0  0  0  0  0  0  0  0
   -4.7390   24.6139  -28.1763 H   0  0  0  0  0  0  0  0  0  0  0  0
   -4.4764   22.4050  -26.8315 H   0  0  0  0  0  0  0  0  0  0  0  0
   -4.9992   22.4029  -28.6006 H   0  0  0  0  0  0  0  0  0  0  0  0
   -2.1638   21.8480  -27.7110 H   0  0  0  0  0  0  0  0  0  0  0  0
   -3.4594   20.5688  -27.9316 H   0  0  0  0  0  0  0  0  0  0  0  0
   -1.7151   21.7303  -29.8933 H   0  0  0  0  0  0  0  0  0  0  0  0
   -2.9896   20.4296  -30.0513 H   0  0  0  0  0  0  0  0  0  0  0  0
  1  2  1  0
  2  3  2  0
  3  4  1  0
  4  5  1  0
  4  6  1  0
  6  7  2  0
  7  8  1  0
  8  9  2  0
  9 10  1  0
 10 11  2  0
 11 12  1  0
 12 13  2  0
 13 14  1  0
 14 15  2  0
 15 16  1  0
 16 17  2  0
 17 18  1  0
 18 19  1  0
 19 20  1  0
 20 21  1  0
 21 22  1  0
 22 23  1  0
 23 24  1  0
  7  2  1  0
 17  8  1  0
 24 18  1  0
 15 10  1  0
  1 25  1  0
  1 26  1  0
  1 27  1  0
  3 28  1  0
  5 29  1  0
  5 30  1  0
  5 31  1  0
  6 32  1  0
 11 33  1  0
 12 34  1  0
 13 35  1  0
 14 36  1  0
 19 37  1  0
 19 38  1  0
 20 39  1  0
 20 40  1  0
 21 41  1  0
 21 42  1  0
 22 43  1  0
 22 44  1  0
 23 45  1  0
 23 46  1  0
 24 47  1  0
 24 48  1  0
M  CHG  1   3   1
M  END
>  <UniqueID>  (14) 
14

>  <SMILES>  (14) 
Cc1[nH+]n(C)cc1-c1nc2ccccc2nc1N1CCCCCC1

>  <Energy>  (14) 
95.2310029450946

>  <Genealogy>  (14) 
Cc1[nH+]n(C)cc1-c1nc2ccccc2nc1N1CCCCCC1 (protonated)
Cc1[nH+]n(C)cc1-c1nc2ccccc2nc1N1CCCCCC1 (3D coordinates assigned)
Cc1[nH+]n(C)cc1-c1nc2ccccc2nc1N1CCCCCC1 (nonaromatic ring conformer: 95.2310029450946 kcal/mol)

>  <smiles>  (14) 
Cc1nn(C)cc1-c1nc2ccccc2nc1N1CCCCCC1

>  <score_type>  (14) 
oracle

>  <origin>  (14) 
adg

>  <m_score__min__energy>  (14) 
-5.5300000000000002

>  <m_primary>  (14) 
energy

$$$$
14:0
     RDKit          3D

 79 83  0  0  0  0  0  0  0  0999 V2000
   -3.1510   24.6290  -29.9270 C   0  0  0  0  0  0  0  0  0  0  0  0
   -4.4850   24.3600  -30.4920 N   0  0  0  0  0  0  0  0  0  0  0  0
   -5.2740   25.6100  -30.5060 C   0  0  0  0  0  0  0  0  0  0  0  0
   -5.1850   23.3130  -29.7060 C   0  0  0  0  0  0  0  0  0  0  0  0
   -4.6810   21.9160  -30.1080 C   0  0  0  0  0  0  0  0  0  0  0  0
   -4.3540   21.8220  -31.5470 N   0  0  0  0  0  0  0  0  0  0  0  0
   -5.3300   21.0240  -32.2800 C   0  0  0  0  0  0  0  0  0  0  0  0
   -6.7080   21.3320  -32.2040 C   0  0  0  0  0  0  0  0  0  0  0  0
   -7.1580   22.6430  -31.9320 C   0  0  0  0  0  0  0  0  0  0  0  0
   -8.5220   22.9320  -31.8910 C   0  0  0  0  0  0  0  0  0  0  0  0
   -9.4540   21.9290  -32.1300 C   0  0  0  0  0  0  0  0  0  0  0  0
   -9.0310   20.6230  -32.3840 C   0  0  0  0  0  0  0  0  0  0  0  0
   -7.6540   20.2930  -32.3960 C   0  0  0  0  0  0  0  0  0  0  0  0
   -7.2220   18.9940  -32.5710 N   0  0  0  0  0  0  0  0  0  0  0  0
   -8.1580   17.8660  -32.3680 C   0  0  0  0  0  0  0  0  0  0  0  0
   -5.9150   18.7550  -32.9500 C   0  0  0  0  0  0  0  0  0  0  0  0
   -5.5020   17.4820  -33.4160 C   0  0  0  0  0  0  0  0  0  0  0  0
   -4.1950   17.2630  -33.8310 C   0  0  0  0  0  0  0  0  0  0  0  0
   -3.2900   18.3140  -33.8850 C   0  0  0  0  0  0  0  0  0  0  0  0
   -3.6670   19.6060  -33.4880 C   0  0  0  0  0  0  0  0  0  0  0  0
   -2.8360   20.7300  -33.8560 N   0  0  0  0  0  0  0  0  0  0  0  0
   -1.4040   20.8300  -33.5720 C   0  0  0  0  0  0  0  0  0  0  0  0
   -1.1590   21.6220  -32.2820 C   0  0  0  0  0  0  0  0  0  0  0  0
   -1.2160   20.7130  -31.0520 C   0  0  0  0  0  0  0  0  0  0  0  0
   -1.9010   21.3520  -29.9760 O   0  0  0  0  0  0  0  0  0  0  0  0
   -1.8010   21.0170  -28.6140 C   0  0  0  0  0  0  0  0  0  0  0  0
   -2.2180   19.7660  -28.1150 C   0  0  0  0  0  0  0  0  0  0  0  0
   -2.1300   19.4810  -26.7520 C   0  0  0  0  0  0  0  0  0  0  0  0
   -1.6210   20.4310  -25.8690 C   0  0  0  0  0  0  0  0  0  0  0  0
   -1.1800   21.6650  -26.3510 C   0  0  0  0  0  0  0  0  0  0  0  0
   -1.2490   21.9610  -27.7230 C   0  0  0  0  0  0  0  0  0  0  0  0
   -0.7410   23.2930  -28.2200 C   0  0  0  0  0  0  0  0  0  0  0  0
   -1.0350   24.3540  -27.2500 N   0  0  0  0  0  0  0  0  0  0  0  0
   -2.3320   24.6150  -26.8950 C   0  0  0  0  0  0  0  0  0  0  0  0
   -2.6280   25.6290  -25.9800 C   0  0  0  0  0  0  0  0  0  0  0  0
   -1.5860   26.3710  -25.4200 C   0  0  0  0  0  0  0  0  0  0  0  0
   -0.2650   26.0900  -25.7770 C   0  0  0  0  0  0  0  0  0  0  0  0
   -0.0060   25.0700  -26.6950 C   0  0  0  0  0  0  0  0  0  0  0  0
   -4.9550   19.8070  -32.9060 C   0  0  0  0  0  0  0  0  0  0  0  0
   -3.2089   24.6173  -28.8286 H   0  0  0  0  0  0  0  0  0  0  0  0
   -2.4466   23.8548  -30.2653 H   0  0  0  0  0  0  0  0  0  0  0  0
   -2.8017   25.6157  -30.2653 H   0  0  0  0  0  0  0  0  0  0  0  0
   -5.4749   25.9284  -29.4724 H   0  0  0  0  0  0  0  0  0  0  0  0
   -4.7076   26.3953  -31.0280 H   0  0  0  0  0  0  0  0  0  0  0  0
   -6.2266   25.4365  -31.0280 H   0  0  0  0  0  0  0  0  0  0  0  0
   -4.9923   23.4738  -28.6350 H   0  0  0  0  0  0  0  0  0  0  0  0
   -6.2644   23.3756  -29.9086 H   0  0  0  0  0  0  0  0  0  0  0  0
   -3.7766   21.6866  -29.5254 H   0  0  0  0  0  0  0  0  0  0  0  0
   -5.4889   21.1983  -29.9023 H   0  0  0  0  0  0  0  0  0  0  0  0
   -4.2920   22.7800  -31.9600 H   0  0  0  0  0  0  0  0  0  0  0  0
   -3.3960   21.4210  -31.5960 H   0  0  0  0  0  0  0  0  0  0  0  0
   -6.4258   23.4437  -31.7508 H   0  0  0  0  0  0  0  0  0  0  0  0
   -8.8604   23.9549  -31.6693 H   0  0  0  0  0  0  0  0  0  0  0  0
  -10.5283   22.1650  -32.1190 H   0  0  0  0  0  0  0  0  0  0  0  0
   -9.7781   19.8391  -32.5776 H   0  0  0  0  0  0  0  0  0  0  0  0
   -8.2991   17.6960  -31.2904 H   0  0  0  0  0  0  0  0  0  0  0  0
   -9.1265   18.1053  -32.8313 H   0  0  0  0  0  0  0  0  0  0  0  0
   -7.7442   16.9582  -32.8313 H   0  0  0  0  0  0  0  0  0  0  0  0
   -6.2271   16.6555  -33.4495 H   0  0  0  0  0  0  0  0  0  0  0  0
   -3.8750   16.2506  -34.1186 H   0  0  0  0  0  0  0  0  0  0  0  0
   -2.2659   18.1321  -34.2430 H   0  0  0  0  0  0  0  0  0  0  0  0
   -3.2730   21.5290  -34.3700 H   0  0  0  0  0  0  0  0  0  0  0  0
   -0.9872   19.8183  -33.4588 H   0  0  0  0  0  0  0  0  0  0  0  0
   -0.9148   21.3544  -34.4061 H   0  0  0  0  0  0  0  0  0  0  0  0
   -0.1663   22.0930  -32.3338 H   0  0  0  0  0  0  0  0  0  0  0  0
   -1.9468   22.3839  -32.1875 H   0  0  0  0  0  0  0  0  0  0  0  0
   -1.7449   19.7849  -31.3146 H   0  0  0  0  0  0  0  0  0  0  0  0
   -0.1873   20.4923  -30.7310 H   0  0  0  0  0  0  0  0  0  0  0  0
   -2.6160   19.0083  -28.8060 H   0  0  0  0  0  0  0  0  0  0  0  0
   -2.4634   18.5035  -26.3735 H   0  0  0  0  0  0  0  0  0  0  0  0
   -1.5666   20.2090  -24.7930 H   0  0  0  0  0  0  0  0  0  0  0  0
   -0.7754   22.4112  -25.6514 H   0  0  0  0  0  0  0  0  0  0  0  0
    0.3471   23.2317  -28.3696 H   0  0  0  0  0  0  0  0  0  0  0  0
   -1.2434   23.5318  -29.1690 H   0  0  0  0  0  0  0  0  0  0  0  0
   -3.1475   24.0214  -27.3339 H   0  0  0  0  0  0  0  0  0  0  0  0
   -3.6715   25.8405  -25.7037 H   0  0  0  0  0  0  0  0  0  0  0  0
   -1.8046   27.1738  -24.7004 H   0  0  0  0  0  0  0  0  0  0  0  0
    0.5632   26.6666  -25.3392 H   0  0  0  0  0  0  0  0  0  0  0  0
    1.0324   24.8391  -26.9751 H   0  0  0  0  0  0  0  0  0  0  0  0
  1  2  1  0
  2  3  1  0
  2  4  1  0
  4  5  1  0
  5  6  1  0
  6  7  1  0
  7  8  2  0
  8  9  1  0
  9 10  2  0
 10 11  1  0
 11 12  2  0
 12 13  1  0
 13 14  2  0
 14 15  1  0
 14 16  1  0
 16 17  2  0
 17 18  1  0
 18 19  2  0
 19 20  1  0
 20 21  1  0
 21 22  1  0
 22 23  1  0
 23 24  1  0
 24 25  1  0
 25 26  1  0
 26 27  2  0
 27 28  1  0
 28 29  2  0
 29 30  1  0
 30 31  2  0
 31 32  1  0
 32 33  1  0
 33 34  2  0
 34 35  1  0
 35 36  2  0
 36 37  1  0
 37 38  2  0
 20 39  2  0
 39  7  1  0
 13  8  1  0
 39 16  1  0
 31 26  1  0
 38 33  1  0
  1 40  1  0
  1 41  1  0
  1 42  1  0
  3 43  1  0
  3 44  1  0
  3 45  1  0
  4 46  1  0
  4 47  1  0
  5 48  1  0
  5 49  1  0
  6 50  1  0
  6 51  1  0
  9 52  1  0
 10 53  1  0
 11 54  1  0
 12 55  1  0
 15 56  1  0
 15 57  1  0
 15 58  1  0
 17 59  1  0
 18 60  1  0
 19 61  1  0
 21 62  1  0
 22 63  1  0
 22 64  1  0
 23 65  1  0
 23 66  1  0
 24 67  1  0
 24 68  1  0
 27 69  1  0
 28 70  1  0
 29 71  1  0
 30 72  1  0
 32 73  1  0
 32 74  1  0
 34 75  1  0
 35 76  1  0
 36 77  1  0
 37 78  1  0
 38 79  1  0
M  CHG  3   6   1  14   1  33   1
M  END
>  <UniqueID>  (15) 
15

>  <SMILES>  (15) 
CN(C)CC[NH2+]c1c2ccccc2[n+](C)c2cccc(NCCCOc3ccccc3C[n+]3ccccc3)c12

>  <Energy>  (15) 
113.37941573562244

>  <Genealogy>  (15) 
CN(C)CC[NH2+]c1c2ccccc2[n+](C)c2cccc(NCCCOc3ccccc3C[n+]3ccccc3)c12 (protonated)
CN(C)CC[NH2+]c1c2ccccc2[n+](C)c2cccc(NCCCOc3ccccc3C[n+]3ccccc3)c12 (3D coordinates assigned)
CN(C)CC[NH2+]c1c2ccccc2[n+](C)c2cccc(NCCCOc3ccccc3C[n+]3ccccc3)c12 (optimized conformer: 113.37941573562244 kcal/mol)

>  <smiles>  (15) 
CN(C)CCNc1c2ccccc2[n+](C)c2cccc(NCCCOc3ccccc3C[n+]3ccccc3)c12

>  <score_type>  (15) 
oracle

>  <origin>  (15) 
adg

>  <m_score__min__energy>  (15) 
-8.6500000000000004

>  <m_primary>  (15) 
energy

$$$$
15:0
     RDKit          3D

 82 85  0  0  0  0  0  0  0  0999 V2000
    0.4270   21.9170  -35.9280 C   0  0  0  0  0  0  0  0  0  0  0  0
   -0.0660   20.4930  -35.6610 C   0  0  0  0  0  0  0  0  0  0  0  0
   -0.4640   20.2770  -34.2460 N   0  0  0  0  0  0  0  0  0  0  0  0
    0.5780   19.5610  -33.4580 C   0  0  0  0  0  0  0  0  0  0  0  0
    0.6430   20.0350  -32.0020 C   0  0  0  0  0  0  0  0  0  0  0  0
   -0.8910   21.5460  -33.5870 C   0  0  0  0  0  0  0  0  0  0  0  0
   -2.1830   21.4750  -32.7370 C   0  0  0  0  0  0  0  0  0  0  0  0
   -3.3800   21.1540  -33.5270 N   0  0  0  0  0  0  0  0  0  0  0  0
   -4.6290   20.7190  -32.9310 C   0  0  0  0  0  0  0  0  0  0  0  0
   -5.4670   21.6570  -32.2870 C   0  0  0  0  0  0  0  0  0  0  0  0
   -4.9820   22.9210  -31.8820 C   0  0  0  0  0  0  0  0  0  0  0  0
   -5.8380   23.8850  -31.3610 C   0  0  0  0  0  0  0  0  0  0  0  0
   -7.1930   23.6160  -31.2370 C   0  0  0  0  0  0  0  0  0  0  0  0
   -7.6930   22.3630  -31.5860 C   0  0  0  0  0  0  0  0  0  0  0  0
   -6.8360   21.3370  -32.0670 C   0  0  0  0  0  0  0  0  0  0  0  0
   -7.3120   20.0720  -32.3550 N   0  0  0  0  0  0  0  0  0  0  0  0
   -8.6790   19.6890  -31.9310 C   0  0  0  0  0  0  0  0  0  0  0  0
   -6.4930   19.1420  -32.9700 C   0  0  0  0  0  0  0  0  0  0  0  0
   -7.0000   17.9180  -33.4670 C   0  0  0  0  0  0  0  0  0  0  0  0
   -6.1480   16.9280  -33.9440 C   0  0  0  0  0  0  0  0  0  0  0  0
   -4.7730   17.1140  -33.9060 C   0  0  0  0  0  0  0  0  0  0  0  0
   -4.2320   18.3360  -33.4730 C   0  0  0  0  0  0  0  0  0  0  0  0
   -2.8460   18.5140  -33.3280 O   0  0  0  0  0  0  0  0  0  0  0  0
   -1.8880   17.5040  -33.0110 C   0  0  0  0  0  0  0  0  0  0  0  0
   -1.5670   16.5590  -34.1980 C   0  0  0  0  0  0  0  0  0  0  0  0
   -1.3060   15.1070  -33.9010 N   0  0  0  0  0  0  0  0  0  0  0  0
    0.0850   14.7500  -34.2880 C   0  0  0  0  0  0  0  0  0  0  0  0
   -2.2480   14.1960  -34.6290 C   0  0  0  0  0  0  0  0  0  0  0  0
   -3.5730   14.0050  -33.8710 C   0  0  0  0  0  0  0  0  0  0  0  0
   -3.3720   13.3120  -32.5590 N   0  0  0  0  0  0  0  0  0  0  0  0
   -3.5710   11.8500  -32.7310 C   0  0  0  0  0  0  0  0  0  0  0  0
   -4.3920   13.7960  -31.5950 C   0  0  0  0  0  0  0  0  0  0  0  0
   -1.9980   13.5480  -32.0070 C   0  0  0  0  0  0  0  0  0  0  0  0
   -1.4360   14.9280  -32.4080 C   0  0  0  0  0  0  0  0  0  0  0  0
   -5.1070   19.4050  -33.1350 C   0  0  0  0  0  0  0  0  0  0  0  0
    0.6043   22.4292  -34.9708 H   0  0  0  0  0  0  0  0  0  0  0  0
    1.3642   21.8789  -36.5026 H   0  0  0  0  0  0  0  0  0  0  0  0
   -0.3332   22.4665  -36.5026 H   0  0  0  0  0  0  0  0  0  0  0  0
   -0.9359   20.2958  -36.3047 H   0  0  0  0  0  0  0  0  0  0  0  0
    0.7667   19.8081  -35.8789 H   0  0  0  0  0  0  0  0  0  0  0  0
   -1.3330   19.6880  -34.2620 H   0  0  0  0  0  0  0  0  0  0  0  0
    0.3507   18.4848  -33.4686 H   0  0  0  0  0  0  0  0  0  0  0  0
    1.5524   19.7736  -33.9221 H   0  0  0  0  0  0  0  0  0  0  0  0
    0.5247   19.1723  -31.3299 H   0  0  0  0  0  0  0  0  0  0  0  0
    1.6153   20.5144  -31.8155 H   0  0  0  0  0  0  0  0  0  0  0  0
   -0.1643   20.7585  -31.8155 H   0  0  0  0  0  0  0  0  0  0  0  0
   -0.0734   21.8732  -32.9278 H   0  0  0  0  0  0  0  0  0  0  0  0
   -1.1174   22.2419  -34.4083 H   0  0  0  0  0  0  0  0  0  0  0  0
   -2.0533   20.6990  -31.9682 H   0  0  0  0  0  0  0  0  0  0  0  0
   -2.3396   22.4710  -32.2972 H   0  0  0  0  0  0  0  0  0  0  0  0
   -3.2730   21.1770  -34.5610 H   0  0  0  0  0  0  0  0  0  0  0  0
   -3.9098   23.1460  -31.9805 H   0  0  0  0  0  0  0  0  0  0  0  0
   -5.4404   24.8614  -31.0470 H   0  0  0  0  0  0  0  0  0  0  0  0
   -7.8747   24.3937  -30.8622 H   0  0  0  0  0  0  0  0  0  0  0  0
   -8.7705   22.1647  -31.4873 H   0  0  0  0  0  0  0  0  0  0  0  0
   -8.7315   19.6743  -30.8324 H   0  0  0  0  0  0  0  0  0  0  0  0
   -9.4025   20.4190  -32.3229 H   0  0  0  0  0  0  0  0  0  0  0  0
   -8.9179   18.6893  -32.3229 H   0  0  0  0  0  0  0  0  0  0  0  0
   -8.0865   17.7467  -33.4762 H   0  0  0  0  0  0  0  0  0  0  0  0
   -6.5646   15.9954  -34.3523 H   0  0  0  0  0  0  0  0  0  0  0  0
   -4.1026   16.2992  -34.2170 H   0  0  0  0  0  0  0  0  0  0  0  0
   -0.9558   17.9955  -32.6957 H   0  0  0  0  0  0  0  0  0  0  0  0
   -2.3242   16.8842  -32.2138 H   0  0  0  0  0  0  0  0  0  0  0  0
   -2.4216   16.6019  -34.8893 H   0  0  0  0  0  0  0  0  0  0  0  0
   -0.6105   16.9325  -34.5926 H   0  0  0  0  0  0  0  0  0  0  0  0
    0.6893   14.5949  -33.3820 H   0  0  0  0  0  0  0  0  0  0  0  0
    0.0740   13.8256  -34.8841 H   0  0  0  0  0  0  0  0  0  0  0  0
    0.5205   15.5655  -34.8841 H   0  0  0  0  0  0  0  0  0  0  0  0
   -2.4643   14.6267  -35.6178 H   0  0  0  0  0  0  0  0  0  0  0  0
   -1.7649   13.2118  -34.7184 H   0  0  0  0  0  0  0  0  0  0  0  0
   -4.0224   14.9919  -33.6865 H   0  0  0  0  0  0  0  0  0  0  0  0
   -4.2319   13.3781  -34.4897 H   0  0  0  0  0  0  0  0  0  0  0  0
   -3.6363   11.3701  -31.7433 H   0  0  0  0  0  0  0  0  0  0  0  0
   -4.5020   11.6698  -33.2885 H   0  0  0  0  0  0  0  0  0  0  0  0
   -2.7221   11.4275  -33.2885 H   0  0  0  0  0  0  0  0  0  0  0  0
   -4.0355   13.6268  -30.5682 H   0  0  0  0  0  0  0  0  0  0  0  0
   -4.5631   14.8713  -31.7513 H   0  0  0  0  0  0  0  0  0  0  0  0
   -5.3332   13.2485  -31.7513 H   0  0  0  0  0  0  0  0  0  0  0  0
   -2.0426   13.4893  -30.9095 H   0  0  0  0  0  0  0  0  0  0  0  0
   -1.3310   12.7787  -32.4231 H   0  0  0  0  0  0  0  0  0  0  0  0
   -2.1101   15.7059  -32.0202 H   0  0  0  0  0  0  0  0  0  0  0  0
   -0.4254   15.0057  -31.9806 H   0  0  0  0  0  0  0  0  0  0  0  0
  1  2  1  0
  2  3  1  0
  3  4  1  0
  4  5  1  0
  3  6  1  0
  6  7  1  0
  7  8  1  0
  8  9  1  0
  9 10  2  0
 10 11  1  0
 11 12  2  0
 12 13  1  0
 13 14  2  0
 14 15  1  0
 15 16  2  0
 16 17  1  0
 16 18  1  0
 18 19  2  0
 19 20  1  0
 20 21  2  0
 21 22  1  0
 22 23  1  0
 23 24  1  0
 24 25  1  0
 25 26  1  0
 26 27  1  0
 26 28  1  0
 28 29  1  0
 29 30  1  0
 30 31  1  0
 30 32  1  0
 30 33  1  0
 33 34  1  0
 22 35  2  0
 35  9  1  0
 15 10  1  0
 35 18  1  0
 34 26  1  0
  1 36  1  0
  1 37  1  0
  1 38  1  0
  2 39  1  0
  2 40  1  0
  3 41  1  0
  4 42  1  0
  4 43  1  0
  5 44  1  0
  5 45  1  0
  5 46  1  0
  6 47  1  0
  6 48  1  0
  7 49  1  0
  7 50  1  0
  8 51  1  0
 11 52  1  0
 12 53  1  0
 13 54  1  0
 14 55  1  0
 17 56  1  0
 17 57  1  0
 17 58  1  0
 19 59  1  0
 20 60  1  0
 21 61  1  0
 24 62  1  0
 24 63  1  0
 25 64  1  0
 25 65  1  0
 27 66  1  0
 27 67  1  0
 27 68  1  0
 28 69  1  0
 28 70  1  0
 29 71  1  0
 29 72  1  0
 31 73  1  0
 31 74  1  0
 31 75  1  0
 32 76  1  0
 32 77  1  0
 32 78  1  0
 33 79  1  0
 33 80  1  0
 34 81  1  0
 34 82  1  0
M  CHG  4   3   1  16   1  26   1  30   1
M  END
>  <UniqueID>  (16) 
16

>  <SMILES>  (16) 
CC[NH+](CC)CCNc1c2ccccc2[n+](C)c2cccc(OCC[N+]3(C)CC[N+](C)(C)CC3)c12

>  <Energy>  (16) 
152.2075836558818

>  <Genealogy>  (16) 
CC[NH+](CC)CCNc1c2ccccc2[n+](C)c2cccc(OCC[N+]3(C)CC[N+](C)(C)CC3)c12 (protonated)
CC[NH+](CC)CCNc1c2ccccc2[n+](C)c2cccc(OCC[N+]3(C)CC[N+](C)(C)CC3)c12 (3D coordinates assigned)
CC[NH+](CC)CCNc1c2ccccc2[n+](C)c2cccc(OCC[N+]3(C)CC[N+](C)(C)CC3)c12 (nonaromatic ring conformer: 152.2075836558818 kcal/mol)

>  <smiles>  (16) 
CCN(CC)CCNc1c2ccccc2[n+](C)c2cccc(OCC[N+]3(C)CC[N+](C)(C)CC3)c12

>  <score_type>  (16) 
oracle

>  <origin>  (16) 
adg

>  <m_score__min__energy>  (16) 
-6.6399999999999997

>  <m_primary>  (16) 
energy

$$$$
16:0
     RDKit          3D

 57 59  0  0  0  0  0  0  0  0999 V2000
   -1.3360   26.6400  -24.8880 C   0  0  0  0  0  0  0  0  0  0  0  0
   -2.3780   25.6840  -25.4740 C   0  0  0  0  0  0  0  0  0  0  0  0
   -2.3240   25.6240  -26.9450 N   0  0  0  0  0  0  0  0  0  0  0  0
   -1.4680   24.5240  -27.4520 C   0  0  0  0  0  0  0  0  0  0  0  0
   -1.6940   24.2600  -28.9450 C   0  0  0  0  0  0  0  0  0  0  0  0
   -2.8530   24.9500  -29.3710 O   0  0  0  0  0  0  0  0  0  0  0  0
   -4.0170   24.1960  -29.0760 C   0  0  0  0  0  0  0  0  0  0  0  0
   -4.3820   23.3310  -30.2880 C   0  0  0  0  0  0  0  0  0  0  0  0
   -5.3780   24.0360  -31.2240 C   0  0  0  0  0  0  0  0  0  0  0  0
   -5.4040   23.4110  -32.5490 N   0  0  0  0  0  0  0  0  0  0  0  0
   -5.6520   22.0030  -32.6850 C   0  0  0  0  0  0  0  0  0  0  0  0
   -4.5910   21.1160  -32.9360 C   0  0  0  0  0  0  0  0  0  0  0  0
   -3.2700   21.5840  -33.0990 C   0  0  0  0  0  0  0  0  0  0  0  0
   -2.2220   20.6950  -33.3300 C   0  0  0  0  0  0  0  0  0  0  0  0
   -2.4720   19.3290  -33.4100 C   0  0  0  0  0  0  0  0  0  0  0  0
   -3.7740   18.8460  -33.2860 C   0  0  0  0  0  0  0  0  0  0  0  0
   -4.8620   19.7300  -33.0730 C   0  0  0  0  0  0  0  0  0  0  0  0
   -6.1610   19.2670  -33.0100 N   0  0  0  0  0  0  0  0  0  0  0  0
   -6.4860   17.9790  -33.6620 C   0  0  0  0  0  0  0  0  0  0  0  0
   -7.1680   20.0880  -32.5350 C   0  0  0  0  0  0  0  0  0  0  0  0
   -8.4320   19.5940  -32.0710 C   0  0  0  0  0  0  0  0  0  0  0  0
   -8.6620   18.1650  -31.6460 C   0  0  0  0  0  0  0  0  0  0  0  0
   -9.4880   20.4930  -31.8520 C   0  0  0  0  0  0  0  0  0  0  0  0
   -9.2920   21.8630  -31.9650 C   0  0  0  0  0  0  0  0  0  0  0  0
   -8.0270   22.3640  -32.2450 C   0  0  0  0  0  0  0  0  0  0  0  0
   -6.9480   21.4940  -32.4930 C   0  0  0  0  0  0  0  0  0  0  0  0
   -1.3790   26.6006  -23.7895 H   0  0  0  0  0  0  0  0  0  0  0  0
   -0.3329   26.3414  -25.2267 H   0  0  0  0  0  0  0  0  0  0  0  0
   -1.5473   27.6650  -25.2267 H   0  0  0  0  0  0  0  0  0  0  0  0
   -2.1970   24.6759  -25.0729 H   0  0  0  0  0  0  0  0  0  0  0  0
   -3.3726   26.0591  -25.1909 H   0  0  0  0  0  0  0  0  0  0  0  0
   -1.9240   26.5320  -27.2790 H   0  0  0  0  0  0  0  0  0  0  0  0
   -3.2970   25.5690  -27.3290 H   0  0  0  0  0  0  0  0  0  0  0  0
   -0.4133   24.7940  -27.2950 H   0  0  0  0  0  0  0  0  0  0  0  0
   -1.7312   23.6084  -26.9021 H   0  0  0  0  0  0  0  0  0  0  0  0
   -0.8239   24.6149  -29.5168 H   0  0  0  0  0  0  0  0  0  0  0  0
   -1.8247   23.1808  -29.1130 H   0  0  0  0  0  0  0  0  0  0  0  0
   -3.8251   23.5490  -28.2074 H   0  0  0  0  0  0  0  0  0  0  0  0
   -4.8490   24.8779  -28.8464 H   0  0  0  0  0  0  0  0  0  0  0  0
   -3.4647   23.1052  -30.8516 H   0  0  0  0  0  0  0  0  0  0  0  0
   -4.8590   22.4121  -29.9165 H   0  0  0  0  0  0  0  0  0  0  0  0
   -6.3841   23.9804  -30.7827 H   0  0  0  0  0  0  0  0  0  0  0  0
   -5.0596   25.0823  -31.3420 H   0  0  0  0  0  0  0  0  0  0  0  0
   -5.4190   23.9970  -33.4150 H   0  0  0  0  0  0  0  0  0  0  0  0
   -3.0649   22.6633  -33.0431 H   0  0  0  0  0  0  0  0  0  0  0  0
   -1.1962   21.0738  -33.4492 H   0  0  0  0  0  0  0  0  0  0  0  0
   -1.6400   18.6278  -33.5716 H   0  0  0  0  0  0  0  0  0  0  0  0
   -3.9598   17.7640  -33.3544 H   0  0  0  0  0  0  0  0  0  0  0  0
   -6.6783   17.2168  -32.8926 H   0  0  0  0  0  0  0  0  0  0  0  0
   -7.3815   18.1011  -34.2891 H   0  0  0  0  0  0  0  0  0  0  0  0
   -5.6398   17.6616  -34.2891 H   0  0  0  0  0  0  0  0  0  0  0  0
   -8.6715   18.1061  -30.5476 H   0  0  0  0  0  0  0  0  0  0  0  0
   -9.6279   17.8161  -32.0402 H   0  0  0  0  0  0  0  0  0  0  0  0
   -7.8544   17.5307  -32.0402 H   0  0  0  0  0  0  0  0  0  0  0  0
  -10.4835   20.1070  -31.5875 H   0  0  0  0  0  0  0  0  0  0  0  0
  -10.1391   22.5521  -31.8327 H   0  0  0  0  0  0  0  0  0  0  0  0
   -7.8665   23.4519  -32.2733 H   0  0  0  0  0  0  0  0  0  0  0  0
  1  2  1  0
  2  3  1  0
  3  4  1  0
  4  5  1  0
  5  6  1  0
  6  7  1  0
  7  8  1  0
  8  9  1  0
  9 10  1  0
 10 11  1  0
 11 12  2  0
 12 13  1  0
 13 14  2  0
 14 15  1  0
 15 16  2  0
 16 17  1  0
 17 18  2  0
 18 19  1  0
 18 20  1  0
 20 21  2  0
 21 22  1  0
 21 23  1  0
 23 24  2  0
 24 25  1  0
 25 26  2  0
 26 11  1  0
 17 12  1  0
 26 20  1  0
  1 27  1  0
  1 28  1  0
  1 29  1  0
  2 30  1  0
  2 31  1  0
  3 32  1  0
  3 33  1  0
  4 34  1  0
  4 35  1  0
  5 36  1  0
  5 37  1  0
  7 38  1  0
  7 39  1  0
  8 40  1  0
  8 41  1  0
  9 42  1  0
  9 43  1  0
 10 44  1  0
 13 45  1  0
 14 46  1  0
 15 47  1  0
 16 48  1  0
 19 49  1  0
 19 50  1  0
 19 51  1  0
 22 52  1  0
 22 53  1  0
 22 54  1  0
 23 55  1  0
 24 56  1  0
 25 57  1  0
M  CHG  2   3   1  18   1
M  END
>  <UniqueID>  (17) 
17

>  <SMILES>  (17) 
CC[NH2+]CCOCCCNc1c2ccccc2[n+](C)c2c(C)cccc12

>  <Energy>  (17) 
91.002539647787

>  <Genealogy>  (17) 
CC[NH2+]CCOCCCNc1c2ccccc2[n+](C)c2c(C)cccc12 (protonated)
CC[NH2+]CCOCCCNc1c2ccccc2[n+](C)c2c(C)cccc12 (3D coordinates assigned)
CC[NH2+]CCOCCCNc1c2ccccc2[n+](C)c2c(C)cccc12 (optimized conformer: 91.002539647787 kcal/mol)

>  <smiles>  (17) 
CCNCCOCCCNc1c2ccccc2[n+](C)c2c(C)cccc12

>  <score_type>  (17) 
oracle

>  <origin>  (17) 
adg

>  <m_score__min__energy>  (17) 
-9.0999999999999996

>  <m_primary>  (17) 
energy

$$$$
17:0
     RDKit          3D

 57 61  0  0  0  0  0  0  0  0999 V2000
   -3.4370   16.3130  -35.6760 C   0  0  0  0  0  0  0  0  0  0  0  0
   -4.0370   17.2510  -34.7380 N   0  0  0  0  0  0  0  0  0  0  0  0
   -3.3890   18.2310  -34.0830 C   0  0  0  0  0  0  0  0  0  0  0  0
   -4.3180   18.9590  -33.3640 C   0  0  0  0  0  0  0  0  0  0  0  0
   -4.0440   20.1900  -32.5910 C   0  0  0  0  0  0  0  0  0  0  0  0
   -2.8270   20.3330  -31.9080 C   0  0  0  0  0  0  0  0  0  0  0  0
   -2.5550   21.4930  -31.1820 C   0  0  0  0  0  0  0  0  0  0  0  0
   -3.4940   22.5350  -31.1270 C   0  0  0  0  0  0  0  0  0  0  0  0
   -4.7150   22.4040  -31.8220 C   0  0  0  0  0  0  0  0  0  0  0  0
   -4.9750   21.2400  -32.5620 C   0  0  0  0  0  0  0  0  0  0  0  0
   -5.7000   23.5480  -31.8310 C   0  0  0  0  0  0  0  0  0  0  0  0
   -6.3280   23.7860  -30.4410 C   0  0  0  0  0  0  0  0  0  0  0  0
   -5.4480   23.3720  -29.2380 C   0  0  0  0  0  0  0  0  0  0  0  0
   -4.1190   24.0310  -29.1860 N   0  0  0  0  0  0  0  0  0  0  0  0
   -3.4520   23.8290  -27.8840 C   0  0  0  0  0  0  0  0  0  0  0  0
   -1.9600   23.9570  -28.0290 C   0  0  0  0  0  0  0  0  0  0  0  0
   -1.2610   25.1390  -28.1350 C   0  0  0  0  0  0  0  0  0  0  0  0
    0.0550   24.8700  -28.2570 N   0  0  0  0  0  0  0  0  0  0  0  0
    0.1290   23.5220  -28.2210 C   0  0  0  0  0  0  0  0  0  0  0  0
   -1.0790   22.9400  -28.0820 N   0  0  0  0  0  0  0  0  0  0  0  0
   -1.3510   21.5080  -28.0050 C   0  0  0  0  0  0  0  0  0  0  0  0
   -3.1980   23.7920  -30.3340 C   0  0  0  0  0  0  0  0  0  0  0  0
   -5.5380   18.3410  -33.6380 C   0  0  0  0  0  0  0  0  0  0  0  0
   -6.8660   18.6730  -33.0810 C   0  0  0  0  0  0  0  0  0  0  0  0
   -7.4420   17.8380  -32.1120 C   0  0  0  0  0  0  0  0  0  0  0  0
   -8.6970   18.1550  -31.5890 C   0  0  0  0  0  0  0  0  0  0  0  0
   -9.3590   19.3030  -32.0230 C   0  0  0  0  0  0  0  0  0  0  0  0
   -8.7500   20.1250  -32.9720 C   0  0  0  0  0  0  0  0  0  0  0  0
   -7.5260   19.8040  -33.4730 N   0  0  0  0  0  0  0  0  0  0  0  0
   -5.3350   17.3150  -34.4890 N   0  0  0  0  0  0  0  0  0  0  0  0
   -2.9259   15.5139  -35.1191 H   0  0  0  0  0  0  0  0  0  0  0  0
   -4.2225   15.8742  -36.3088 H   0  0  0  0  0  0  0  0  0  0  0  0
   -2.7093   16.8422  -36.3088 H   0  0  0  0  0  0  0  0  0  0  0  0
   -2.3059   18.4204  -34.1143 H   0  0  0  0  0  0  0  0  0  0  0  0
   -2.0818   19.5247  -31.9451 H   0  0  0  0  0  0  0  0  0  0  0  0
   -1.5979   21.5917  -30.6489 H   0  0  0  0  0  0  0  0  0  0  0  0
   -5.9163   21.1499  -33.1240 H   0  0  0  0  0  0  0  0  0  0  0  0
   -5.1773   24.4634  -32.1453 H   0  0  0  0  0  0  0  0  0  0  0  0
   -6.5105   23.2910  -32.5289 H   0  0  0  0  0  0  0  0  0  0  0  0
   -6.5486   24.8596  -30.3471 H   0  0  0  0  0  0  0  0  0  0  0  0
   -7.2222   23.1468  -30.3979 H   0  0  0  0  0  0  0  0  0  0  0  0
   -5.9907   23.6218  -28.3144 H   0  0  0  0  0  0  0  0  0  0  0  0
   -5.2564   22.2945  -29.3493 H   0  0  0  0  0  0  0  0  0  0  0  0
   -3.8124   24.5858  -27.1717 H   0  0  0  0  0  0  0  0  0  0  0  0
   -3.6877   22.8191  -27.5172 H   0  0  0  0  0  0  0  0  0  0  0  0
   -1.7063   26.1448  -28.1222 H   0  0  0  0  0  0  0  0  0  0  0  0
    1.0718   22.9604  -28.2968 H   0  0  0  0  0  0  0  0  0  0  0  0
   -1.4091   21.2020  -26.9500 H   0  0  0  0  0  0  0  0  0  0  0  0
   -2.3068   21.2890  -28.5035 H   0  0  0  0  0  0  0  0  0  0  0  0
   -0.5421   20.9538  -28.5035 H   0  0  0  0  0  0  0  0  0  0  0  0
   -3.2683   24.6525  -31.0156 H   0  0  0  0  0  0  0  0  0  0  0  0
   -2.1928   23.6623  -29.9065 H   0  0  0  0  0  0  0  0  0  0  0  0
   -6.9087   16.9400  -31.7668 H   0  0  0  0  0  0  0  0  0  0  0  0
   -9.1623   17.5011  -30.8367 H   0  0  0  0  0  0  0  0  0  0  0  0
  -10.3509   19.5579  -31.6215 H   0  0  0  0  0  0  0  0  0  0  0  0
   -9.2612   21.0360  -33.3165 H   0  0  0  0  0  0  0  0  0  0  0  0
   -7.0860   20.4610  -34.1560 H   0  0  0  0  0  0  0  0  0  0  0  0
  1  2  1  0
  2  3  1  0
  3  4  2  0
  4  5  1  0
  5  6  2  0
  6  7  1  0
  7  8  2  0
  8  9  1  0
  9 10  2  0
  9 11  1  0
 11 12  1  0
 12 13  1  0
 13 14  1  0
 14 15  1  0
 15 16  1  0
 16 17  2  0
 17 18  1  0
 18 19  2  0
 19 20  1  0
 20 21  1  0
 14 22  1  0
  4 23  1  0
 23 24  1  0
 24 25  2  0
 25 26  1  0
 26 27  2  0
 27 28  1  0
 28 29  2  0
 23 30  2  0
 30  2  1  0
 10  5  1  0
 20 16  1  0
 29 24  1  0
 22  8  1  0
  1 31  1  0
  1 32  1  0
  1 33  1  0
  3 34  1  0
  6 35  1  0
  7 36  1  0
 10 37  1  0
 11 38  1  0
 11 39  1  0
 12 40  1  0
 12 41  1  0
 13 42  1  0
 13 43  1  0
 15 44  1  0
 15 45  1  0
 17 46  1  0
 19 47  1  0
 21 48  1  0
 21 49  1  0
 21 50  1  0
 22 51  1  0
 22 52  1  0
 25 53  1  0
 26 54  1  0
 27 55  1  0
 28 56  1  0
 29 57  1  0
M  CHG  1  29   1
M  END
>  <UniqueID>  (18) 
18

>  <SMILES>  (18) 
Cn1cc(-c2ccc3c(c2)CCCN(Cc2cncn2C)C3)c(-c2cccc[nH+]2)n1

>  <Energy>  (18) 
141.34149999708742

>  <Genealogy>  (18) 
Cn1cc(-c2ccc3c(c2)CCCN(Cc2cncn2C)C3)c(-c2cccc[nH+]2)n1 (protonated)
Cn1cc(-c2ccc3c(c2)CCCN(Cc2cncn2C)C3)c(-c2cccc[nH+]2)n1 (3D coordinates assigned)
Cn1cc(-c2ccc3c(c2)CCCN(Cc2cncn2C)C3)c(-c2cccc[nH+]2)n1 (nonaromatic ring conformer: 141.34149999708742 kcal/mol)

>  <smiles>  (18) 
Cn1cc(-c2ccc3c(c2)CCCN(Cc2cncn2C)C3)c(-c2ccccn2)n1

>  <score_type>  (18) 
oracle

>  <origin>  (18) 
adg

>  <m_score__min__energy>  (18) 
-6.8499999999999996

>  <m_primary>  (18) 
energy

$$$$
19:0
     RDKit          3D

 81 86  0  0  0  0  0  0  0  0999 V2000
   -1.0987   22.6196  -32.1718 H   0  0  0  0  0  0  0  0  0  0  0  0
   -1.2290   21.5440  -32.3620 C   0  0  0  0  0  0  0  0  0  0  0  0
   -0.3320   20.6250  -31.8140 C   0  0  0  0  0  0  0  0  0  0  0  0
    0.5105   20.9779  -31.2011 H   0  0  0  0  0  0  0  0  0  0  0  0
   -0.5040   19.2540  -32.0440 C   0  0  0  0  0  0  0  0  0  0  0  0
    0.7080   17.9940  -31.2720 Br  0  0  0  0  0  0  0  0  0  0  0  0
   -1.5700   18.8080  -32.8350 C   0  0  0  0  0  0  0  0  0  0  0  0
   -1.7189   17.7302  -32.9968 H   0  0  0  0  0  0  0  0  0  0  0  0
   -2.4460   19.7280  -33.4200 C   0  0  0  0  0  0  0  0  0  0  0  0
   -3.5670   19.2550  -34.1780 N   0  0  0  0  0  0  0  0  0  0  0  0
   -4.6430   18.6170  -33.7840 C   0  0  0  0  0  0  0  0  0  0  0  0
   -4.8100   17.1970  -33.8780 C   0  0  0  0  0  0  0  0  0  0  0  0
   -3.7410   16.2830  -34.0340 C   0  0  0  0  0  0  0  0  0  0  0  0
   -2.7062   16.6559  -34.0492 H   0  0  0  0  0  0  0  0  0  0  0  0
   -3.9820   14.9130  -34.1690 C   0  0  0  0  0  0  0  0  0  0  0  0
   -3.1413   14.2226  -34.3320 H   0  0  0  0  0  0  0  0  0  0  0  0
   -5.2820   14.4180  -34.0980 C   0  0  0  0  0  0  0  0  0  0  0  0
   -5.6000   12.5430  -34.2790 Br  0  0  0  0  0  0  0  0  0  0  0  0
   -6.3440   15.2850  -33.8380 C   0  0  0  0  0  0  0  0  0  0  0  0
   -7.3668   14.8897  -33.7508 H   0  0  0  0  0  0  0  0  0  0  0  0
   -6.1100   16.6570  -33.6880 C   0  0  0  0  0  0  0  0  0  0  0  0
   -7.1330   17.4540  -33.3000 N   0  0  0  0  0  0  0  0  0  0  0  0
   -6.9730   18.7790  -33.0690 C   0  0  0  0  0  0  0  0  0  0  0  0
   -8.0650   19.5330  -32.6320 C   0  0  0  0  0  0  0  0  0  0  0  0
   -9.0338   19.0395  -32.4648 H   0  0  0  0  0  0  0  0  0  0  0  0
   -7.9410   20.9160  -32.4030 C   0  0  0  0  0  0  0  0  0  0  0  0
   -9.0280   21.6870  -31.9610 O   0  0  0  0  0  0  0  0  0  0  0  0
   -9.6090   21.6000  -30.6640 C   0  0  0  0  0  0  0  0  0  0  0  0
   -8.8243   21.7175  -29.9021 H   0  0  0  0  0  0  0  0  0  0  0  0
  -10.3588   22.3959  -30.5439 H   0  0  0  0  0  0  0  0  0  0  0  0
  -10.0928   20.6194  -30.5439 H   0  0  0  0  0  0  0  0  0  0  0  0
   -6.6990   21.5480  -32.6320 C   0  0  0  0  0  0  0  0  0  0  0  0
   -6.5350   22.9700  -32.4210 N   0  0  0  0  0  0  0  0  0  0  0  0
   -7.4610   23.4460  -32.3490 H   0  0  0  0  0  0  0  0  0  0  0  0
   -6.0490   23.3640  -33.2570 H   0  0  0  0  0  0  0  0  0  0  0  0
   -5.7390   23.2250  -31.2070 C   0  0  0  0  0  0  0  0  0  0  0  0
   -4.6887   23.3742  -31.4979 H   0  0  0  0  0  0  0  0  0  0  0  0
   -5.8529   22.3562  -30.5420 H   0  0  0  0  0  0  0  0  0  0  0  0
   -6.2230   24.4730  -30.4390 C   0  0  0  0  0  0  0  0  0  0  0  0
   -7.2608   24.2950  -30.1207 H   0  0  0  0  0  0  0  0  0  0  0  0
   -6.1144   25.3191  -31.1335 H   0  0  0  0  0  0  0  0  0  0  0  0
   -5.3950   24.8390  -29.1860 C   0  0  0  0  0  0  0  0  0  0  0  0
   -6.0560   24.8428  -28.3067 H   0  0  0  0  0  0  0  0  0  0  0  0
   -4.9502   25.8334  -29.3385 H   0  0  0  0  0  0  0  0  0  0  0  0
   -4.3000   23.8600  -28.9660 N   0  0  0  0  0  0  0  0  0  0  0  0
   -3.0680   24.2650  -29.6880 C   0  0  0  0  0  0  0  0  0  0  0  0
   -3.0798   23.8243  -30.6958 H   0  0  0  0  0  0  0  0  0  0  0  0
   -3.0413   25.3630  -29.7491 H   0  0  0  0  0  0  0  0  0  0  0  0
   -1.8260   23.7890  -28.9510 C   0  0  0  0  0  0  0  0  0  0  0  0
   -0.9260   24.7820  -28.4960 C   0  0  0  0  0  0  0  0  0  0  0  0
   -1.2350   26.1350  -28.7270 O   0  0  0  0  0  0  0  0  0  0  0  0
   -0.8440   27.2160  -27.8840 C   0  0  0  0  0  0  0  0  0  0  0  0
   -0.9520   26.9173  -26.8309 H   0  0  0  0  0  0  0  0  0  0  0  0
    0.2055   27.4769  -28.0853 H   0  0  0  0  0  0  0  0  0  0  0  0
   -1.4837   28.0879  -28.0853 H   0  0  0  0  0  0  0  0  0  0  0  0
    0.2520   24.4090  -27.8300 C   0  0  0  0  0  0  0  0  0  0  0  0
    0.9458   25.1860  -27.4766 H   0  0  0  0  0  0  0  0  0  0  0  0
    0.5520   23.0710  -27.6120 C   0  0  0  0  0  0  0  0  0  0  0  0
    1.4763   22.7984  -27.0816 H   0  0  0  0  0  0  0  0  0  0  0  0
   -0.3110   22.0680  -28.0610 C   0  0  0  0  0  0  0  0  0  0  0  0
    0.0240   20.7220  -27.8400 C   0  0  0  0  0  0  0  0  0  0  0  0
    0.9582   20.4700  -27.3168 H   0  0  0  0  0  0  0  0  0  0  0  0
   -0.8190   19.7050  -28.2790 C   0  0  0  0  0  0  0  0  0  0  0  0
   -0.5506   18.6531  -28.1014 H   0  0  0  0  0  0  0  0  0  0  0  0
   -2.0020   20.0190  -28.9430 C   0  0  0  0  0  0  0  0  0  0  0  0
   -2.6648   19.2121  -29.2889 H   0  0  0  0  0  0  0  0  0  0  0  0
   -2.3530   21.3510  -29.1730 C   0  0  0  0  0  0  0  0  0  0  0  0
   -3.2916   21.5823  -29.6980 H   0  0  0  0  0  0  0  0  0  0  0  0
   -1.5160   22.4080  -28.7390 C   0  0  0  0  0  0  0  0  0  0  0  0
   -4.0310   23.6130  -27.5250 C   0  0  0  0  0  0  0  0  0  0  0  0
   -2.9942   23.2671  -27.4011 H   0  0  0  0  0  0  0  0  0  0  0  0
   -4.7248   22.8451  -27.1523 H   0  0  0  0  0  0  0  0  0  0  0  0
   -4.2330   24.9010  -26.7340 C   0  0  0  0  0  0  0  0  0  0  0  0
   -4.1982   24.6792  -25.6571 H   0  0  0  0  0  0  0  0  0  0  0  0
   -3.4359   25.6156  -26.9871 H   0  0  0  0  0  0  0  0  0  0  0  0
   -5.2105   25.3373  -26.9871 H   0  0  0  0  0  0  0  0  0  0  0  0
   -5.6030   20.7820  -33.0700 C   0  0  0  0  0  0  0  0  0  0  0  0
   -4.6357   21.2755  -33.2458 H   0  0  0  0  0  0  0  0  0  0  0  0
   -5.7210   19.3930  -33.2880 C   0  0  0  0  0  0  0  0  0  0  0  0
   -2.2910   21.0990  -33.1510 C   0  0  0  0  0  0  0  0  0  0  0  0
   -3.0088   21.8233  -33.5635 H   0  0  0  0  0  0  0  0  0  0  0  0
  1  2  1  0
  2  3  2  0
  3  4  1  0
  3  5  1  0
  5  6  1  0
  5  7  2  0
  7  8  1  0
  7  9  1  0
  9 10  1  0
 10 11  2  0
 11 12  1  0
 12 13  2  0
 13 14  1  0
 13 15  1  0
 15 16  1  0
 15 17  2  0
 17 18  1  0
 17 19  1  0
 19 20  1  0
 19 21  2  0
 21 22  1  0
 22 23  1  0
 23 24  2  0
 24 25  1  0
 24 26  1  0
 26 27  1  0
 27 28  1  0
 28 29  1  0
 28 30  1  0
 28 31  1  0
 26 32  2  0
 32 33  1  0
 33 34  1  0
 33 35  1  0
 33 36  1  0
 36 37  1  0
 36 38  1  0
 36 39  1  0
 39 40  1  0
 39 41  1  0
 39 42  1  0
 42 43  1  0
 42 44  1  0
 42 45  1  0
 45 46  1  0
 46 47  1  0
 46 48  1  0
 46 49  1  0
 49 50  2  0
 50 51  1  0
 51 52  1  0
 52 53  1  0
 52 54  1  0
 52 55  1  0
 50 56  1  0
 56 57  1  0
 56 58  2  0
 58 59  1  0
 58 60  1  0
 60 61  2  0
 61 62  1  0
 61 63  1  0
 63 64  1  0
 63 65  2  0
 65 66  1  0
 65 67  1  0
 67 68  1  0
 67 69  2  0
 45 70  1  0
 70 71  1  0
 70 72  1  0
 70 73  1  0
 73 74  1  0
 73 75  1  0
 73 76  1  0
 32 77  1  0
 77 78  1  0
 77 79  2  0
  9 80  2  0
 80 81  1  0
 80  2  1  0
 79 11  1  0
 21 12  1  0
 79 23  1  0
 69 49  1  0
 69 60  1  0
M  CHG  2  22  -1  33   1
M  END
>  <UniqueID>  (19) 
19

>  <SMILES>  (19) 
CCN(CCC[NH2+]c1cc2/c(=N/c3cccc(Br)c3)c3ccc(Br)cc3[n-]c2cc1OC)Cc1c(OC)ccc2ccccc12

>  <Energy>  (19) 
129.40397373740038

>  <Genealogy>  (19) 
CCN(CCC[NH2+]c1cc2c(=Nc3cccc(Br)c3)c3ccc(Br)cc3[n-]c2cc1OC)Cc1c(OC)ccc2ccccc12 (protonated)
CCN(CCC[NH2+]c1cc2/c(=N/c3cccc(Br)c3)c3ccc(Br)cc3[n-]c2cc1OC)Cc1c(OC)ccc2ccccc12 (cis-trans isomerization)
CCN(CCC[NH2+]c1cc2/c(=N/c3cccc(Br)c3)c3ccc(Br)cc3[n-]c2cc1OC)Cc1c(OC)ccc2ccccc12 (3D coordinates assigned)
CCN(CCC[NH2+]c1cc2/c(=N/c3cccc(Br)c3)c3ccc(Br)cc3[n-]c2cc1OC)Cc1c(OC)ccc2ccccc12 (optimized conformer: 129.40397373740038 kcal/mol)

>  <smiles>  (19) 
CCN(CCCNc1cc2c(=Nc3cccc(Br)c3)c3ccc(Br)cc3[nH]c2cc1OC)Cc1c(OC)ccc2ccccc12

>  <score_type>  (19) 
oracle

>  <origin>  (19) 
adg

>  <m_score__min__energy>  (19) 
-11.609999999999999

>  <m_primary>  (19) 
energy

$$$$
20:0
     RDKit          3D

 39 39  0  0  0  0  0  0  0  0999 V2000
   -1.1852   23.9497  -30.0329 H   0  0  0  0  0  0  0  0  0  0  0  0
   -1.9250   24.2140  -29.2630 C   0  0  0  0  0  0  0  0  0  0  0  0
   -3.1780   24.2900  -29.5820 N   0  0  0  0  0  0  0  0  0  0  0  0
   -3.6240   25.2460  -30.4650 O   0  0  0  0  0  0  0  0  0  0  0  0
   -4.9860   25.6520  -30.4660 C   0  0  0  0  0  0  0  0  0  0  0  0
   -5.1219   26.4547  -31.2057 H   0  0  0  0  0  0  0  0  0  0  0  0
   -5.2468   26.0092  -29.4588 H   0  0  0  0  0  0  0  0  0  0  0  0
   -5.9060   24.4800  -30.8230 C   0  0  0  0  0  0  0  0  0  0  0  0
   -6.5175   24.7586  -31.6939 H   0  0  0  0  0  0  0  0  0  0  0  0
   -6.5403   24.2625  -29.9510 H   0  0  0  0  0  0  0  0  0  0  0  0
   -5.1380   23.2680  -31.1470 N   0  0  0  0  0  0  0  0  0  0  0  0
   -4.1630   23.5690  -31.3820 H   0  0  0  0  0  0  0  0  0  0  0  0
   -5.6840   22.5800  -32.3250 C   0  0  0  0  0  0  0  0  0  0  0  0
   -5.3818   21.5226  -32.3016 H   0  0  0  0  0  0  0  0  0  0  0  0
   -5.2950   23.0597  -33.2353 H   0  0  0  0  0  0  0  0  0  0  0  0
   -7.2050   22.6700  -32.3240 C   0  0  0  0  0  0  0  0  0  0  0  0
   -7.5703   22.6916  -31.2867 H   0  0  0  0  0  0  0  0  0  0  0  0
   -7.5183   23.5883  -32.8423 H   0  0  0  0  0  0  0  0  0  0  0  0
   -7.6244   21.7951  -32.8423 H   0  0  0  0  0  0  0  0  0  0  0  0
   -1.4740   24.4770  -27.8800 C   0  0  0  0  0  0  0  0  0  0  0  0
   -1.3710   23.4350  -26.9400 C   0  0  0  0  0  0  0  0  0  0  0  0
   -1.6349   22.4078  -27.2320 H   0  0  0  0  0  0  0  0  0  0  0  0
   -0.9360   23.6960  -25.6390 C   0  0  0  0  0  0  0  0  0  0  0  0
   -0.8549   22.8717  -24.9152 H   0  0  0  0  0  0  0  0  0  0  0  0
   -0.6010   25.0030  -25.2470 C   0  0  0  0  0  0  0  0  0  0  0  0
   -0.1380   25.2660  -23.9050 N   0  0  0  0  0  0  0  0  0  0  0  0
   -0.4920   24.5380  -23.2410 H   0  0  0  0  0  0  0  0  0  0  0  0
    0.9070   25.2120  -23.8920 H   0  0  0  0  0  0  0  0  0  0  0  0
   -0.5430   26.6050  -23.4450 C   0  0  0  0  0  0  0  0  0  0  0  0
   -1.2607   27.0243  -24.1654 H   0  0  0  0  0  0  0  0  0  0  0  0
   -0.9923   26.4959  -22.4469 H   0  0  0  0  0  0  0  0  0  0  0  0
    0.6460   27.5620  -23.3210 C   0  0  0  0  0  0  0  0  0  0  0  0
    0.8653   27.7385  -22.2576 H   0  0  0  0  0  0  0  0  0  0  0  0
    1.5266   27.1178  -23.8082 H   0  0  0  0  0  0  0  0  0  0  0  0
    0.4003   28.5171  -23.8082 H   0  0  0  0  0  0  0  0  0  0  0  0
   -0.7060   26.0440  -26.1840 C   0  0  0  0  0  0  0  0  0  0  0  0
   -0.4453   27.0712  -25.8893 H   0  0  0  0  0  0  0  0  0  0  0  0
   -1.1390   25.7860  -27.4880 C   0  0  0  0  0  0  0  0  0  0  0  0
   -1.2250   26.8150  -28.3690 F   0  0  0  0  0  0  0  0  0  0  0  0
  1  2  1  0
  2  3  2  0
  3  4  1  0
  4  5  1  0
  5  6  1  0
  5  7  1  0
  5  8  1  0
  8  9  1  0
  8 10  1  0
  8 11  1  0
 11 12  1  0
 11 13  1  0
 13 14  1  0
 13 15  1  0
 13 16  1  0
 16 17  1  0
 16 18  1  0
 16 19  1  0
  2 20  1  0
 20 21  2  0
 21 22  1  0
 21 23  1  0
 23 24  1  0
 23 25  2  0
 25 26  1  0
 26 27  1  0
 26 28  1  0
 26 29  1  0
 29 30  1  0
 29 31  1  0
 29 32  1  0
 32 33  1  0
 32 34  1  0
 32 35  1  0
 25 36  1  0
 36 37  1  0
 36 38  2  0
 38 39  1  0
 38 20  1  0
M  CHG  1  26   1
M  END
>  <UniqueID>  (20) 
20

>  <SMILES>  (20) 
CCNCCO/N=C/c1ccc([NH2+]CC)cc1F

>  <Energy>  (20) 
26.3924288652591

>  <Genealogy>  (20) 
CCNCCON=Cc1ccc([NH2+]CC)cc1F (protonated)
CCNCCO/N=C/c1ccc([NH2+]CC)cc1F (cis-trans isomerization)
CCNCCO/N=C/c1ccc([NH2+]CC)cc1F (3D coordinates assigned)
CCNCCO/N=C/c1ccc([NH2+]CC)cc1F (optimized conformer: 26.3924288652591 kcal/mol)

>  <smiles>  (20) 
CCNCCON=Cc1ccc(NCC)cc1F

>  <score_type>  (20) 
oracle

>  <origin>  (20) 
adg

>  <m_score__min__energy>  (20) 
-6.96

>  <m_primary>  (20) 
energy

$$$$
21:0
     RDKit          3D

 45 47  0  0  0  0  0  0  0  0999 V2000
   -1.3940   22.4997  -30.5148 H   0  0  0  0  0  0  0  0  0  0  0  0
   -2.0300   23.0450  -29.8020 C   0  0  0  0  0  0  0  0  0  0  0  0
   -1.5070   23.3280  -28.5910 C   0  0  0  0  0  0  0  0  0  0  0  0
   -1.5030   24.6970  -28.0050 C   0  0  0  0  0  0  0  0  0  0  0  0
   -1.6170   25.7090  -28.7500 O   0  0  0  0  0  0  0  0  0  0  0  0
   -1.2790   24.8780  -26.5480 C   0  0  0  0  0  0  0  0  0  0  0  0
   -1.5830   26.0590  -25.9700 C   0  0  0  0  0  0  0  0  0  0  0  0
   -2.5763   26.4878  -26.1685 H   0  0  0  0  0  0  0  0  0  0  0  0
   -0.6710   26.8120  -25.0900 C   0  0  0  0  0  0  0  0  0  0  0  0
   -0.3590   28.1540  -25.3510 C   0  0  0  0  0  0  0  0  0  0  0  0
   -0.7674   28.6522  -26.2427 H   0  0  0  0  0  0  0  0  0  0  0  0
    0.4720   28.8560  -24.4750 C   0  0  0  0  0  0  0  0  0  0  0  0
    0.7364   29.9038  -24.6803 H   0  0  0  0  0  0  0  0  0  0  0  0
    0.9640   28.2150  -23.3360 C   0  0  0  0  0  0  0  0  0  0  0  0
    1.6234   28.7572  -22.6424 H   0  0  0  0  0  0  0  0  0  0  0  0
    0.6290   26.9210  -23.0830 N   0  0  0  0  0  0  0  0  0  0  0  0
    0.9980   26.4580  -22.2210 H   0  0  0  0  0  0  0  0  0  0  0  0
   -0.1780   26.2170  -23.9230 C   0  0  0  0  0  0  0  0  0  0  0  0
   -0.4437   25.1767  -23.6839 H   0  0  0  0  0  0  0  0  0  0  0  0
   -0.8600   23.6720  -25.7310 C   0  0  0  0  0  0  0  0  0  0  0  0
   -1.7599   23.2004  -25.3095 H   0  0  0  0  0  0  0  0  0  0  0  0
   -0.1811   24.0215  -24.9392 H   0  0  0  0  0  0  0  0  0  0  0  0
   -0.1030   22.6290  -26.5740 C   0  0  2  0  0  0  0  0  0  0  0  0
    0.0719   21.7485  -25.9383 H   0  0  0  0  0  0  0  0  0  0  0  0
    1.2800   23.1410  -27.0100 C   0  0  0  0  0  0  0  0  0  0  0  0
    1.8855   23.3652  -26.1194 H   0  0  0  0  0  0  0  0  0  0  0  0
    1.7837   22.3698  -27.6112 H   0  0  0  0  0  0  0  0  0  0  0  0
    1.1601   24.0543  -27.6112 H   0  0  0  0  0  0  0  0  0  0  0  0
   -0.9510   22.1780  -27.7790 C   0  0  0  0  0  0  0  0  0  0  0  0
   -1.7929   21.5760  -27.4063 H   0  0  0  0  0  0  0  0  0  0  0  0
   -0.2888   21.6035  -28.4434 H   0  0  0  0  0  0  0  0  0  0  0  0
   -3.3870   23.4100  -30.2430 C   0  0  0  0  0  0  0  0  0  0  0  0
   -4.0660   23.0140  -31.3880 C   0  0  0  0  0  0  0  0  0  0  0  0
   -3.6030   22.0400  -32.4230 C   0  0  0  0  0  0  0  0  0  0  0  0
   -3.1811   21.1525  -31.9286 H   0  0  0  0  0  0  0  0  0  0  0  0
   -4.4547   21.7398  -33.0510 H   0  0  0  0  0  0  0  0  0  0  0  0
   -2.8324   22.5109  -33.0510 H   0  0  0  0  0  0  0  0  0  0  0  0
   -5.2490   23.6570  -31.4510 N   0  0  0  0  0  0  0  0  0  0  0  0
   -5.3130   24.4700  -30.4090 N   0  0  0  0  0  0  0  0  0  0  0  0
   -6.4650   25.3070  -30.1020 C   0  0  0  0  0  0  0  0  0  0  0  0
   -6.5781   25.3892  -29.0109 H   0  0  0  0  0  0  0  0  0  0  0  0
   -6.3155   26.3085  -30.5316 H   0  0  0  0  0  0  0  0  0  0  0  0
   -7.3713   24.8553  -30.5316 H   0  0  0  0  0  0  0  0  0  0  0  0
   -4.2020   24.3560  -29.6570 C   0  0  0  0  0  0  0  0  0  0  0  0
   -3.9829   24.9183  -28.7373 H   0  0  0  0  0  0  0  0  0  0  0  0
  1  2  1  0
  2  3  2  3
  3  4  1  0
  4  5  2  0
  4  6  1  0
  6  7  2  0
  7  8  1  0
  7  9  1  0
  9 10  2  0
 10 11  1  0
 10 12  1  0
 12 13  1  0
 12 14  2  0
 14 15  1  0
 14 16  1  0
 16 17  1  0
 16 18  2  0
 18 19  1  0
  6 20  1  0
 20 21  1  0
 20 22  1  0
 20 23  1  0
 23 24  1  1
 23 25  1  0
 25 26  1  0
 25 27  1  0
 25 28  1  0
 23 29  1  0
 29 30  1  0
 29 31  1  0
  2 32  1  0
 32 33  1  0
 33 34  1  0
 34 35  1  0
 34 36  1  0
 34 37  1  0
 33 38  2  0
 38 39  1  0
 39 40  1  0
 40 41  1  0
 40 42  1  0
 40 43  1  0
 39 44  1  0
 44 45  1  0
 29  3  1  0
 44 32  2  0
 18  9  1  0
M  CHG  1  16   1
M  END
>  <UniqueID>  (21) 
21

>  <SMILES>  (21) 
Cc1nn(C)cc1C=C1C[C@@H](C)C/C(=C\c2ccc[nH+]c2)C1=O

>  <Energy>  (21) 
90.1171982914176

>  <Genealogy>  (21) 
Cc1nn(C)cc1C=C1CC(C)CC(=Cc2ccc[nH+]c2)C1=O (protonated)
Cc1nn(C)cc1C=C1C[C@@H](C)CC(=Cc2ccc[nH+]c2)C1=O (chirality)
Cc1nn(C)cc1C=C1C[C@@H](C)C/C(=C\c2ccc[nH+]c2)C1=O (cis-trans isomerization)
Cc1nn(C)cc1C=C1C[C@@H](C)C/C(=C\c2ccc[nH+]c2)C1=O (3D coordinates assigned)
Cc1nn(C)cc1C=C1C[C@@H](C)C/C(=C\c2ccc[nH+]c2)C1=O (nonaromatic ring conformer: 90.1171982914176 kcal/mol)

>  <smiles>  (21) 
Cc1nn(C)cc1C=C1CC(C)CC(=Cc2cccnc2)C1=O

>  <score_type>  (21) 
oracle

>  <origin>  (21) 
adg

>  <m_score__min__energy>  (21) 
-9

>  <m_primary>  (21) 
energy

$$$$
22:0
     RDKit          3D

 89 93  0  0  0  0  0  0  0  0999 V2000
    0.6740   19.5430  -36.0610 C   0  0  0  0  0  0  0  0  0  0  0  0
   -0.4030   19.7760  -34.9950 C   0  0  0  0  0  0  0  0  0  0  0  0
   -0.6630   21.2170  -34.7560 N   0  0  2  0  0  0  0  0  0  0  0  0
    0.3750   22.0750  -35.3660 C   0  0  0  0  0  0  0  0  0  0  0  0
   -0.8410   21.5110  -33.3100 C   0  0  0  0  0  0  0  0  0  0  0  0
   -2.0580   20.8090  -32.6680 C   0  0  0  0  0  0  0  0  0  0  0  0
   -3.2320   20.8530  -33.5460 N   0  0  0  0  0  0  0  0  0  0  0  0
   -4.5230   20.4180  -33.0920 C   0  0  0  0  0  0  0  0  0  0  0  0
   -5.4220   21.3740  -32.5840 C   0  0  0  0  0  0  0  0  0  0  0  0
   -4.9910   22.6890  -32.2970 C   0  0  0  0  0  0  0  0  0  0  0  0
   -5.8850   23.6520  -31.8420 C   0  0  0  0  0  0  0  0  0  0  0  0
   -7.2270   23.3330  -31.6840 C   0  0  0  0  0  0  0  0  0  0  0  0
   -7.6780   22.0430  -31.9590 C   0  0  0  0  0  0  0  0  0  0  0  0
   -6.7830   21.0240  -32.3850 C   0  0  0  0  0  0  0  0  0  0  0  0
   -7.2150   19.7380  -32.6440 N   0  0  0  0  0  0  0  0  0  0  0  0
   -8.5750   19.3200  -32.2350 C   0  0  0  0  0  0  0  0  0  0  0  0
   -6.3620   18.8240  -33.2380 C   0  0  0  0  0  0  0  0  0  0  0  0
   -6.8440   17.5980  -33.7550 C   0  0  0  0  0  0  0  0  0  0  0  0
   -5.9710   16.6320  -34.2380 C   0  0  0  0  0  0  0  0  0  0  0  0
   -4.6000   16.8390  -34.1840 C   0  0  0  0  0  0  0  0  0  0  0  0
   -4.0720   18.0550  -33.7130 C   0  0  0  0  0  0  0  0  0  0  0  0
   -2.6770   18.2010  -33.5440 O   0  0  0  0  0  0  0  0  0  0  0  0
   -1.7440   17.1530  -33.8540 C   0  0  0  0  0  0  0  0  0  0  0  0
   -1.2470   16.3740  -32.6070 C   0  0  0  0  0  0  0  0  0  0  0  0
    0.1660   16.6340  -32.1510 N   0  0  2  0  0  0  0  0  0  0  0  0
    1.1460   16.1860  -33.1800 C   0  0  0  0  0  0  0  0  0  0  0  0
    0.4030   15.8330  -30.9030 C   0  0  0  0  0  0  0  0  0  0  0  0
    1.4950   16.4480  -30.0040 C   0  0  0  0  0  0  0  0  0  0  0  0
    1.1220   17.8120  -29.4940 N   0  0  2  0  0  0  0  0  0  0  0  0
    2.3620   18.6310  -29.4060 C   0  0  0  0  0  0  0  0  0  0  0  0
    0.5250   17.6610  -28.1250 C   0  0  0  0  0  0  0  0  0  0  0  0
   -0.3820   18.8040  -27.6950 C   0  0  0  0  0  0  0  0  0  0  0  0
   -1.6460   18.5480  -27.1320 C   0  0  0  0  0  0  0  0  0  0  0  0
   -2.4670   19.6070  -26.7280 C   0  0  0  0  0  0  0  0  0  0  0  0
   -2.0280   20.9260  -26.8630 C   0  0  0  0  0  0  0  0  0  0  0  0
   -0.7660   21.1910  -27.4000 C   0  0  0  0  0  0  0  0  0  0  0  0
    0.0560   20.1360  -27.8080 C   0  0  0  0  0  0  0  0  0  0  0  0
    0.1450   18.4800  -30.4120 C   0  0  0  0  0  0  0  0  0  0  0  0
    0.3630   18.0970  -31.8900 C   0  0  0  0  0  0  0  0  0  0  0  0
   -4.9690   19.1050  -33.3570 C   0  0  0  0  0  0  0  0  0  0  0  0
    1.6364   19.3348  -35.5706 H   0  0  0  0  0  0  0  0  0  0  0  0
    0.3893   18.6857  -36.6886 H   0  0  0  0  0  0  0  0  0  0  0  0
    0.7691   20.4413  -36.6886 H   0  0  0  0  0  0  0  0  0  0  0  0
   -1.3371   19.2993  -35.3271 H   0  0  0  0  0  0  0  0  0  0  0  0
   -0.0400   19.3408  -34.0522 H   0  0  0  0  0  0  0  0  0  0  0  0
   -1.5750   21.4640  -35.2130 H   0  0  0  0  0  0  0  0  0  0  0  0
    0.9623   22.5604  -34.5726 H   0  0  0  0  0  0  0  0  0  0  0  0
    1.0397   21.4592  -35.9896 H   0  0  0  0  0  0  0  0  0  0  0  0
   -0.1047   22.8437  -35.9896 H   0  0  0  0  0  0  0  0  0  0  0  0
    0.0653   21.1866  -32.7776 H   0  0  0  0  0  0  0  0  0  0  0  0
   -1.0190   22.5933  -33.2263 H   0  0  0  0  0  0  0  0  0  0  0  0
   -1.8001   19.7583  -32.4692 H   0  0  0  0  0  0  0  0  0  0  0  0
   -2.3063   21.3359  -31.7349 H   0  0  0  0  0  0  0  0  0  0  0  0
   -3.0980   21.0580  -34.5610 H   0  0  0  0  0  0  0  0  0  0  0  0
   -3.9326   22.9547  -32.4356 H   0  0  0  0  0  0  0  0  0  0  0  0
   -5.5291   24.6661  -31.6074 H   0  0  0  0  0  0  0  0  0  0  0  0
   -7.9364   24.1005  -31.3408 H   0  0  0  0  0  0  0  0  0  0  0  0
   -8.7467   21.8091  -31.8442 H   0  0  0  0  0  0  0  0  0  0  0  0
   -8.6380   19.3006  -31.1370 H   0  0  0  0  0  0  0  0  0  0  0  0
   -9.3127   20.0329  -32.6321 H   0  0  0  0  0  0  0  0  0  0  0  0
   -8.7849   18.3159  -32.6321 H   0  0  0  0  0  0  0  0  0  0  0  0
   -7.9271   17.4072  -33.7746 H   0  0  0  0  0  0  0  0  0  0  0  0
   -6.3679   15.6992  -34.6650 H   0  0  0  0  0  0  0  0  0  0  0  0
   -3.9172   16.0421  -34.5137 H   0  0  0  0  0  0  0  0  0  0  0  0
   -2.2337   16.4420  -34.5357 H   0  0  0  0  0  0  0  0  0  0  0  0
   -0.8630   17.6297  -34.3085 H   0  0  0  0  0  0  0  0  0  0  0  0
   -1.9162   16.6257  -31.7711 H   0  0  0  0  0  0  0  0  0  0  0  0
   -1.2573   15.3167  -32.9102 H   0  0  0  0  0  0  0  0  0  0  0  0
    2.0386   15.7780  -32.6832 H   0  0  0  0  0  0  0  0  0  0  0  0
    0.6881   15.4078  -33.8082 H   0  0  0  0  0  0  0  0  0  0  0  0
    1.4349   17.0415  -33.8082 H   0  0  0  0  0  0  0  0  0  0  0  0
    0.7129   14.8172  -31.1895 H   0  0  0  0  0  0  0  0  0  0  0  0
   -0.5355   15.8232  -30.3292 H   0  0  0  0  0  0  0  0  0  0  0  0
    2.4249   16.5313  -30.5857 H   0  0  0  0  0  0  0  0  0  0  0  0
    1.6200   15.7886  -29.1324 H   0  0  0  0  0  0  0  0  0  0  0  0
    2.6163   18.7989  -28.3490 H   0  0  0  0  0  0  0  0  0  0  0  0
    3.1880   18.1002  -29.9020 H   0  0  0  0  0  0  0  0  0  0  0  0
    2.1980   19.5991  -29.9020 H   0  0  0  0  0  0  0  0  0  0  0  0
   -0.0641   16.7322  -28.1091 H   0  0  0  0  0  0  0  0  0  0  0  0
    1.3682   17.6523  -27.4187 H   0  0  0  0  0  0  0  0  0  0  0  0
   -1.9904   17.5106  -27.0088 H   0  0  0  0  0  0  0  0  0  0  0  0
   -3.4603   19.4000  -26.3032 H   0  0  0  0  0  0  0  0  0  0  0  0
   -2.6762   21.7564  -26.5464 H   0  0  0  0  0  0  0  0  0  0  0  0
   -0.4188   22.2298  -27.5019 H   0  0  0  0  0  0  0  0  0  0  0  0
    1.0531   20.3493  -28.2206 H   0  0  0  0  0  0  0  0  0  0  0  0
    0.2546   19.5698  -30.3106 H   0  0  0  0  0  0  0  0  0  0  0  0
   -0.8632   18.1455  -30.1262 H   0  0  0  0  0  0  0  0  0  0  0  0
    1.3902   18.3687  -32.1747 H   0  0  0  0  0  0  0  0  0  0  0  0
   -0.3854   18.6411  -32.4848 H   0  0  0  0  0  0  0  0  0  0  0  0
  1  2  1  0
  2  3  1  0
  3  4  1  0
  3  5  1  0
  5  6  1  0
  6  7  1  0
  7  8  1  0
  8  9  2  0
  9 10  1  0
 10 11  2  0
 11 12  1  0
 12 13  2  0
 13 14  1  0
 14 15  2  0
 15 16  1  0
 15 17  1  0
 17 18  2  0
 18 19  1  0
 19 20  2  0
 20 21  1  0
 21 22  1  0
 22 23  1  0
 23 24  1  0
 25 24  1  6
 25 26  1  0
 25 27  1  0
 27 28  1  0
 28 29  1  0
 29 30  1  1
 29 31  1  0
 31 32  1  0
 32 33  2  0
 33 34  1  0
 34 35  2  0
 35 36  1  0
 36 37  2  0
 29 38  1  0
 38 39  1  0
 21 40  2  0
 40  8  1  0
 14  9  1  0
 40 17  1  0
 39 25  1  0
 37 32  1  0
  1 41  1  0
  1 42  1  0
  1 43  1  0
  2 44  1  0
  2 45  1  0
  3 46  1  6
  4 47  1  0
  4 48  1  0
  4 49  1  0
  5 50  1  0
  5 51  1  0
  6 52  1  0
  6 53  1  0
  7 54  1  0
 10 55  1  0
 11 56  1  0
 12 57  1  0
 13 58  1  0
 16 59  1  0
 16 60  1  0
 16 61  1  0
 18 62  1  0
 19 63  1  0
 20 64  1  0
 23 65  1  0
 23 66  1  0
 24 67  1  0
 24 68  1  0
 26 69  1  0
 26 70  1  0
 26 71  1  0
 27 72  1  0
 27 73  1  0
 28 74  1  0
 28 75  1  0
 30 76  1  0
 30 77  1  0
 30 78  1  0
 31 79  1  0
 31 80  1  0
 33 81  1  0
 34 82  1  0
 35 83  1  0
 36 84  1  0
 37 85  1  0
 38 86  1  0
 38 87  1  0
 39 88  1  0
 39 89  1  0
M  CHG  4   3   1  15   1  25   1  29   1
M  END
>  <UniqueID>  (22) 
22

>  <SMILES>  (22) 
CC[N@H+](C)CCNc1c2ccccc2[n+](C)c2cccc(OCC[N+]3(C)CC[N+](C)(Cc4ccccc4)CC3)c12

>  <Energy>  (22) 
158.5910124853149

>  <Genealogy>  (22) 
CC[NH+](C)CCNc1c2ccccc2[n+](C)c2cccc(OCC[N+]3(C)CC[N+](C)(Cc4ccccc4)CC3)c12 (protonated)
CC[N@H+](C)CCNc1c2ccccc2[n+](C)c2cccc(OCC[N+]3(C)CC[N+](C)(Cc4ccccc4)CC3)c12 (chirality)
CC[N@H+](C)CCNc1c2ccccc2[n+](C)c2cccc(OCC[N+]3(C)CC[N+](C)(Cc4ccccc4)CC3)c12 (3D coordinates assigned)
CC[N@H+](C)CCNc1c2ccccc2[n+](C)c2cccc(OCC[N+]3(C)CC[N+](C)(Cc4ccccc4)CC3)c12 (nonaromatic ring conformer: 158.5910124853149 kcal/mol)

>  <smiles>  (22) 
CCN(C)CCNc1c2ccccc2[n+](C)c2cccc(OCC[N+]3(C)CC[N+](C)(Cc4ccccc4)CC3)c12

>  <score_type>  (22) 
oracle

>  <origin>  (22) 
adg

>  <m_score__min__energy>  (22) 
-7.96

>  <m_primary>  (22) 
energy

$$$$
23:0
     RDKit          3D

 56 59  0  0  0  0  0  0  0  0999 V2000
   -9.0000   20.8320  -30.9370 C   0  0  0  0  0  0  0  0  0  0  0  0
   -9.5990   20.8010  -32.3450 C   0  0  0  0  0  0  0  0  0  0  0  0
   -9.0550   19.7030  -33.1640 N   0  0  0  0  0  0  0  0  0  0  0  0
   -8.3870   18.6720  -32.3470 C   0  0  0  0  0  0  0  0  0  0  0  0
   -7.2250   18.0070  -33.1050 C   0  0  0  0  0  0  0  0  0  0  0  0
   -6.4690   18.9810  -33.8950 N   0  0  0  0  0  0  0  0  0  0  0  0
   -5.1520   19.4180  -33.5210 C   0  0  0  0  0  0  0  0  0  0  0  0
   -4.0370   18.6190  -33.8160 C   0  0  0  0  0  0  0  0  0  0  0  0
   -4.1840   17.3190  -34.3430 C   0  0  0  0  0  0  0  0  0  0  0  0
   -3.0660   16.5600  -34.6820 C   0  0  0  0  0  0  0  0  0  0  0  0
   -1.7880   17.0830  -34.5040 C   0  0  0  0  0  0  0  0  0  0  0  0
   -1.6220   18.3690  -33.9890 C   0  0  0  0  0  0  0  0  0  0  0  0
   -2.7410   19.1600  -33.6400 C   0  0  0  0  0  0  0  0  0  0  0  0
   -2.5920   20.4460  -33.1660 N   0  0  0  0  0  0  0  0  0  0  0  0
   -1.3970   21.2090  -33.5700 C   0  0  0  0  0  0  0  0  0  0  0  0
   -3.6530   21.0860  -32.5490 C   0  0  0  0  0  0  0  0  0  0  0  0
   -4.9650   20.6350  -32.8380 C   0  0  0  0  0  0  0  0  0  0  0  0
   -6.0560   21.3950  -32.4100 C   0  0  0  0  0  0  0  0  0  0  0  0
   -5.8590   22.5650  -31.6890 C   0  0  0  0  0  0  0  0  0  0  0  0
   -6.9670   23.3450  -31.3140 C   0  0  0  0  0  0  0  0  0  0  0  0
   -6.7920   24.4860  -30.5350 C   0  0  0  0  0  0  0  0  0  0  0  0
   -5.5160   24.8490  -30.1140 C   0  0  0  0  0  0  0  0  0  0  0  0
   -4.4080   24.0790  -30.4730 C   0  0  0  0  0  0  0  0  0  0  0  0
   -4.5510   22.9230  -31.2850 C   0  0  0  0  0  0  0  0  0  0  0  0
   -3.4710   22.1320  -31.6490 N   0  0  0  0  0  0  0  0  0  0  0  0
   -2.2200   22.2160  -30.8510 C   0  0  0  0  0  0  0  0  0  0  0  0
   -2.0950   21.0940  -29.8050 C   0  0  0  0  0  0  0  0  0  0  0  0
   -9.8093   20.7901  -30.1932 H   0  0  0  0  0  0  0  0  0  0  0  0
   -8.3336   19.9671  -30.8029 H   0  0  0  0  0  0  0  0  0  0  0  0
   -8.4265   21.7610  -30.8029 H   0  0  0  0  0  0  0  0  0  0  0  0
  -10.6885   20.6736  -32.2625 H   0  0  0  0  0  0  0  0  0  0  0  0
   -9.3398   21.7484  -32.8402 H   0  0  0  0  0  0  0  0  0  0  0  0
   -8.3800   20.0880  -33.8670 H   0  0  0  0  0  0  0  0  0  0  0  0
   -9.8530   19.2820  -33.6890 H   0  0  0  0  0  0  0  0  0  0  0  0
   -7.9938   19.1413  -31.4332 H   0  0  0  0  0  0  0  0  0  0  0  0
   -9.1269   17.8948  -32.1052 H   0  0  0  0  0  0  0  0  0  0  0  0
   -6.5481   17.5349  -32.3777 H   0  0  0  0  0  0  0  0  0  0  0  0
   -7.6463   17.2590  -33.7928 H   0  0  0  0  0  0  0  0  0  0  0  0
   -6.9110   19.3950  -34.7480 H   0  0  0  0  0  0  0  0  0  0  0  0
   -5.1909   16.9004  -34.4877 H   0  0  0  0  0  0  0  0  0  0  0  0
   -3.1931   15.5467  -35.0906 H   0  0  0  0  0  0  0  0  0  0  0  0
   -0.9069   16.4807  -34.7701 H   0  0  0  0  0  0  0  0  0  0  0  0
   -0.6079   18.7727  -33.8527 H   0  0  0  0  0  0  0  0  0  0  0  0
   -0.8603   21.5517  -32.6731 H   0  0  0  0  0  0  0  0  0  0  0  0
   -0.7362   20.5653  -34.1692 H   0  0  0  0  0  0  0  0  0  0  0  0
   -1.7029   22.0793  -34.1692 H   0  0  0  0  0  0  0  0  0  0  0  0
   -7.0783   21.0643  -32.6458 H   0  0  0  0  0  0  0  0  0  0  0  0
   -7.9769   23.0526  -31.6375 H   0  0  0  0  0  0  0  0  0  0  0  0
   -7.6606   25.0992  -30.2529 H   0  0  0  0  0  0  0  0  0  0  0  0
   -5.3797   25.7479  -29.4948 H   0  0  0  0  0  0  0  0  0  0  0  0
   -3.4081   24.3727  -30.1211 H   0  0  0  0  0  0  0  0  0  0  0  0
   -1.3623   22.1525  -31.5368 H   0  0  0  0  0  0  0  0  0  0  0  0
   -2.2418   23.1714  -30.3063 H   0  0  0  0  0  0  0  0  0  0  0  0
   -2.1433   21.5272  -28.7951 H   0  0  0  0  0  0  0  0  0  0  0  0
   -2.9188   20.3770  -29.9362 H   0  0  0  0  0  0  0  0  0  0  0  0
   -1.1336   20.5759  -29.9362 H   0  0  0  0  0  0  0  0  0  0  0  0
  1  2  1  0
  2  3  1  0
  3  4  1  0
  4  5  1  0
  5  6  1  0
  6  7  1  0
  7  8  2  0
  8  9  1  0
  9 10  2  0
 10 11  1  0
 11 12  2  0
 12 13  1  0
 13 14  2  0
 14 15  1  0
 14 16  1  0
 16 17  2  0
 17 18  1  0
 18 19  2  0
 19 20  1  0
 20 21  2  0
 21 22  1  0
 22 23  2  0
 23 24  1  0
 24 25  2  0
 25 26  1  0
 26 27  1  0
 17  7  1  0
 24 19  1  0
 13  8  1  0
 25 16  1  0
  1 28  1  0
  1 29  1  0
  1 30  1  0
  2 31  1  0
  2 32  1  0
  3 33  1  0
  3 34  1  0
  4 35  1  0
  4 36  1  0
  5 37  1  0
  5 38  1  0
  6 39  1  0
  9 40  1  0
 10 41  1  0
 11 42  1  0
 12 43  1  0
 15 44  1  0
 15 45  1  0
 15 46  1  0
 18 47  1  0
 20 48  1  0
 21 49  1  0
 22 50  1  0
 23 51  1  0
 26 52  1  0
 26 53  1  0
 27 54  1  0
 27 55  1  0
 27 56  1  0
M  CHG  3   3   1  14   1  25   1
M  END
>  <UniqueID>  (23) 
23

>  <SMILES>  (23) 
CC[NH2+]CCNc1c2ccccc2[n+](C)c2c1cc1ccccc1[n+]2CC

>  <Energy>  (23) 
105.7056795706247

>  <Genealogy>  (23) 
CC[NH2+]CCNc1c2ccccc2[n+](C)c2c1cc1ccccc1[n+]2CC (protonated)
CC[NH2+]CCNc1c2ccccc2[n+](C)c2c1cc1ccccc1[n+]2CC (3D coordinates assigned)
CC[NH2+]CCNc1c2ccccc2[n+](C)c2c1cc1ccccc1[n+]2CC (optimized conformer: 105.7056795706247 kcal/mol)

>  <smiles>  (23) 
CCNCCNc1c2ccccc2[n+](C)c2c1cc1ccccc1[n+]2CC

>  <score_type>  (23) 
oracle

>  <origin>  (23) 
adg

>  <m_score__min__energy>  (23) 
-7.8600000000000003

>  <m_primary>  (23) 
energy

$$$$
24:0
     RDKit          3D

 58 63  0  0  0  0  0  0  0  0999 V2000
   -6.6180   15.0640  -34.2330 C   0  0  0  0  0  0  0  0  0  0  0  0
   -6.6460   16.4510  -33.7950 N   0  0  0  0  0  0  0  0  0  0  0  0
   -7.6250   16.9670  -33.0550 N   0  0  0  0  0  0  0  0  0  0  0  0
   -7.2550   18.2400  -32.8440 C   0  0  0  0  0  0  0  0  0  0  0  0
   -7.9240   19.2430  -32.1520 C   0  0  0  0  0  0  0  0  0  0  0  0
   -7.3180   20.5160  -32.0990 C   0  0  0  0  0  0  0  0  0  0  0  0
   -7.9560   21.5170  -31.4480 F   0  0  0  0  0  0  0  0  0  0  0  0
   -6.0640   20.7480  -32.7350 C   0  0  0  0  0  0  0  0  0  0  0  0
   -5.3910   22.0940  -32.6630 C   0  0  0  0  0  0  0  0  0  0  0  0
   -4.1040   21.9750  -31.9830 N   0  0  0  0  0  0  0  0  0  0  0  0
   -3.0950   21.2610  -32.4620 N   0  0  0  0  0  0  0  0  0  0  0  0
   -2.0860   21.2940  -31.5620 C   0  0  0  0  0  0  0  0  0  0  0  0
   -0.7470   20.7800  -31.8800 C   0  0  0  0  0  0  0  0  0  0  0  0
   -0.1140   21.1600  -33.0740 C   0  0  0  0  0  0  0  0  0  0  0  0
    1.1270   20.6200  -33.4140 C   0  0  0  0  0  0  0  0  0  0  0  0
    1.7300   19.6760  -32.5780 C   0  0  0  0  0  0  0  0  0  0  0  0
    2.9290   19.1550  -32.9070 F   0  0  0  0  0  0  0  0  0  0  0  0
    1.0890   19.2690  -31.4050 C   0  0  0  0  0  0  0  0  0  0  0  0
   -0.1500   19.8160  -31.0580 C   0  0  0  0  0  0  0  0  0  0  0  0
   -2.4830   22.0540  -30.4620 C   0  0  0  0  0  0  0  0  0  0  0  0
   -1.8940   22.3580  -29.2160 C   0  0  0  0  0  0  0  0  0  0  0  0
   -2.6460   23.1840  -28.3240 C   0  0  0  0  0  0  0  0  0  0  0  0
   -3.9340   23.6480  -28.7020 C   0  0  0  0  0  0  0  0  0  0  0  0
   -4.6500   24.4460  -27.8650 F   0  0  0  0  0  0  0  0  0  0  0  0
   -4.5020   23.2730  -29.9270 C   0  0  0  0  0  0  0  0  0  0  0  0
   -3.7530   22.4690  -30.7800 C   0  0  0  0  0  0  0  0  0  0  0  0
   -2.0660   23.6330  -26.9920 C   0  0  2  0  0  0  0  0  0  0  0  0
   -1.5600   25.1040  -27.0250 C   0  0  0  0  0  0  0  0  0  0  0  0
   -0.6960   25.4440  -28.2030 C   0  0  0  0  0  0  0  0  0  0  0  0
    0.5440   25.2040  -28.1690 O   0  0  0  0  0  0  0  0  0  0  0  0
   -1.2480   26.0400  -29.3310 O   0  0  0  0  0  0  0  0  0  0  0  0
   -1.0220   22.6350  -26.4560 C   0  0  0  0  0  0  0  0  0  0  0  0
    0.0080   22.2530  -27.5110 C   0  0  0  0  0  0  0  0  0  0  0  0
   -0.6590   21.6200  -28.7380 C   0  0  0  0  0  0  0  0  0  0  0  0
   -5.4260   19.6920  -33.4270 C   0  0  0  0  0  0  0  0  0  0  0  0
   -6.0620   18.4550  -33.4550 C   0  0  0  0  0  0  0  0  0  0  0  0
   -5.6710   17.3210  -34.0520 N   0  0  0  0  0  0  0  0  0  0  0  0
   -6.6046   14.4022  -33.3544 H   0  0  0  0  0  0  0  0  0  0  0  0
   -7.5121   14.8524  -34.8379 H   0  0  0  0  0  0  0  0  0  0  0  0
   -5.7161   14.8886  -34.8379 H   0  0  0  0  0  0  0  0  0  0  0  0
   -8.8907   19.0511  -31.6635 H   0  0  0  0  0  0  0  0  0  0  0  0
   -5.2303   22.4756  -33.6821 H   0  0  0  0  0  0  0  0  0  0  0  0
   -6.0328   22.7882  -32.1007 H   0  0  0  0  0  0  0  0  0  0  0  0
   -0.5979   21.8860  -33.7439 H   0  0  0  0  0  0  0  0  0  0  0  0
    1.6303   20.9370  -34.3393 H   0  0  0  0  0  0  0  0  0  0  0  0
    1.5596   18.5175  -30.7540 H   0  0  0  0  0  0  0  0  0  0  0  0
   -0.6566   19.4887  -30.1381 H   0  0  0  0  0  0  0  0  0  0  0  0
   -5.5127   23.6054  -30.2064 H   0  0  0  0  0  0  0  0  0  0  0  0
   -2.8902   23.6299  -26.2636 H   0  0  0  0  0  0  0  0  0  0  0  0
   -2.4371   25.7676  -27.0407 H   0  0  0  0  0  0  0  0  0  0  0  0
   -0.9325   25.2365  -26.1313 H   0  0  0  0  0  0  0  0  0  0  0  0
   -0.5008   23.0928  -25.6023 H   0  0  0  0  0  0  0  0  0  0  0  0
   -1.5539   21.7194  -26.1582 H   0  0  0  0  0  0  0  0  0  0  0  0
    0.5514   23.1565  -27.8248 H   0  0  0  0  0  0  0  0  0  0  0  0
    0.6974   21.5166  -27.0723 H   0  0  0  0  0  0  0  0  0  0  0  0
    0.0728   21.6017  -29.5590 H   0  0  0  0  0  0  0  0  0  0  0  0
   -0.9849   20.6126  -28.4397 H   0  0  0  0  0  0  0  0  0  0  0  0
   -4.4580   19.8440  -33.9269 H   0  0  0  0  0  0  0  0  0  0  0  0
  1  2  1  0
  2  3  1  0
  3  4  2  0
  4  5  1  0
  5  6  2  0
  6  7  1  0
  6  8  1  0
  8  9  1  0
  9 10  1  0
 10 11  1  0
 11 12  2  0
 12 13  1  0
 13 14  2  0
 14 15  1  0
 15 16  2  0
 16 17  1  0
 16 18  1  0
 18 19  2  0
 12 20  1  0
 20 21  2  0
 21 22  1  0
 22 23  2  0
 23 24  1  0
 23 25  1  0
 25 26  2  0
 22 27  1  0
 27 28  1  0
 28 29  1  0
 29 30  2  0
 29 31  1  0
 27 32  1  0
 32 33  1  0
 33 34  1  0
  8 35  2  0
 35 36  1  0
 36 37  2  0
 37  2  1  0
 36  4  1  0
 26 10  1  0
 19 13  1  0
 26 20  1  0
 34 21  1  0
  1 38  1  0
  1 39  1  0
  1 40  1  0
  5 41  1  0
  9 42  1  0
  9 43  1  0
 14 44  1  0
 15 45  1  0
 18 46  1  0
 19 47  1  0
 25 48  1  0
 27 49  1  1
 28 50  1  0
 28 51  1  0
 32 52  1  0
 32 53  1  0
 33 54  1  0
 33 55  1  0
 34 56  1  0
 34 57  1  0
 35 58  1  0
M  CHG  1  31  -1
M  END
>  <UniqueID>  (24) 
24

>  <SMILES>  (24) 
Cn1nc2cc(F)c(Cn3nc(-c4ccc(F)cc4)c4c5c(c(F)cc43)[C@H](CC(=O)[O-])CCC5)cc2n1

>  <Energy>  (24) 
156.667420978494

>  <Genealogy>  (24) 
Cn1nc2cc(F)c(Cn3nc(-c4ccc(F)cc4)c4c5c(c(F)cc43)C(CC(=O)[O-])CCC5)cc2n1 (protonated)
Cn1nc2cc(F)c(Cn3nc(-c4ccc(F)cc4)c4c5c(c(F)cc43)[C@H](CC(=O)[O-])CCC5)cc2n1 (chirality)
Cn1nc2cc(F)c(Cn3nc(-c4ccc(F)cc4)c4c5c(c(F)cc43)[C@H](CC(=O)[O-])CCC5)cc2n1 (3D coordinates assigned)
Cn1nc2cc(F)c(Cn3nc(-c4ccc(F)cc4)c4c5c(c(F)cc43)[C@H](CC(=O)[O-])CCC5)cc2n1 (nonaromatic ring conformer: 156.667420978494 kcal/mol)

>  <smiles>  (24) 
Cn1nc2cc(F)c(Cn3nc(-c4ccc(F)cc4)c4c5c(c(F)cc43)C(CC(=O)O)CCC5)cc2n1

>  <score_type>  (24) 
oracle

>  <origin>  (24) 
adg

>  <m_score__min__energy>  (24) 
-12.1

>  <m_primary>  (24) 
energy

$$$$
25:0
     RDKit          3D

 46 49  0  0  0  0  0  0  0  0999 V2000
   -5.0560   24.5840  -30.3060 C   0  0  0  0  0  0  0  0  0  0  0  0
   -5.9120   23.6720  -31.0620 N   0  0  0  0  0  0  0  0  0  0  0  0
   -7.2520   23.5930  -30.9500 C   0  0  0  0  0  0  0  0  0  0  0  0
   -7.7340   22.5790  -31.7530 C   0  0  0  0  0  0  0  0  0  0  0  0
   -6.6390   22.0090  -32.3710 C   0  0  0  0  0  0  0  0  0  0  0  0
   -5.5290   22.6980  -31.9200 C   0  0  0  0  0  0  0  0  0  0  0  0
   -4.1040   22.3770  -32.3000 C   0  0  0  0  0  0  0  0  0  0  0  0
   -4.0320   21.5080  -33.4890 N   0  0  0  0  0  0  0  0  0  0  0  0
   -3.5130   20.1500  -33.1870 C   0  0  0  0  0  0  0  0  0  0  0  0
   -4.6130   19.0690  -32.9430 C   0  0  2  0  0  0  0  0  0  0  0  0
   -4.0480   17.6260  -33.0910 C   0  0  0  0  0  0  0  0  0  0  0  0
   -5.1750   16.5900  -32.8900 C   0  0  1  0  0  0  0  0  0  0  0  0
   -5.7880   16.7590  -31.4830 C   0  0  0  0  0  0  0  0  0  0  0  0
   -6.3800   18.1790  -31.3410 C   0  0  2  0  0  0  0  0  0  0  0  0
   -7.4720   18.3910  -32.4110 C   0  0  0  0  0  0  0  0  0  0  0  0
   -6.8560   18.2240  -33.8150 C   0  0  2  0  0  0  0  0  0  0  0  0
   -6.2700   16.8040  -33.9570 C   0  0  0  0  0  0  0  0  0  0  0  0
   -5.7320   19.2640  -34.0090 C   0  0  0  0  0  0  0  0  0  0  0  0
   -5.2590   19.2250  -31.5320 C   0  0  0  0  0  0  0  0  0  0  0  0
   -5.2084   24.4216  -29.2288 H   0  0  0  0  0  0  0  0  0  0  0  0
   -4.0028   24.3937  -30.5601 H   0  0  0  0  0  0  0  0  0  0  0  0
   -5.3125   25.6230  -30.5601 H   0  0  0  0  0  0  0  0  0  0  0  0
   -7.8711   24.2412  -30.3124 H   0  0  0  0  0  0  0  0  0  0  0  0
   -8.7861   22.2827  -31.8765 H   0  0  0  0  0  0  0  0  0  0  0  0
   -6.6481   21.1706  -33.0830 H   0  0  0  0  0  0  0  0  0  0  0  0
   -3.5733   23.3164  -32.5140 H   0  0  0  0  0  0  0  0  0  0  0  0
   -3.6404   21.8410  -31.4587 H   0  0  0  0  0  0  0  0  0  0  0  0
   -3.4130   21.9550  -34.2040 H   0  0  0  0  0  0  0  0  0  0  0  0
   -4.9820   21.4730  -33.9190 H   0  0  0  0  0  0  0  0  0  0  0  0
   -2.8943   19.8233  -34.0358 H   0  0  0  0  0  0  0  0  0  0  0  0
   -2.9486   20.2358  -32.2468 H   0  0  0  0  0  0  0  0  0  0  0  0
   -3.6182   17.5052  -34.0963 H   0  0  0  0  0  0  0  0  0  0  0  0
   -3.2712   17.4643  -32.3291 H   0  0  0  0  0  0  0  0  0  0  0  0
   -4.7598   15.5762  -32.9892 H   0  0  0  0  0  0  0  0  0  0  0  0
   -6.5848   16.0144  -31.3393 H   0  0  0  0  0  0  0  0  0  0  0  0
   -5.0052   16.6127  -30.7242 H   0  0  0  0  0  0  0  0  0  0  0  0
   -6.8218   18.2944  -30.3403 H   0  0  0  0  0  0  0  0  0  0  0  0
   -8.2716   17.6487  -32.2708 H   0  0  0  0  0  0  0  0  0  0  0  0
   -7.8901   19.4037  -32.3123 H   0  0  0  0  0  0  0  0  0  0  0  0
   -7.6351   18.3762  -34.5765 H   0  0  0  0  0  0  0  0  0  0  0  0
   -7.0694   16.0617  -33.8160 H   0  0  0  0  0  0  0  0  0  0  0  0
   -5.8330   16.6863  -34.9596 H   0  0  0  0  0  0  0  0  0  0  0  0
   -5.2991   19.1450  -35.0132 H   0  0  0  0  0  0  0  0  0  0  0  0
   -6.1583   20.2716  -33.8947 H   0  0  0  0  0  0  0  0  0  0  0  0
   -5.6841   20.2350  -31.4364 H   0  0  0  0  0  0  0  0  0  0  0  0
   -4.4871   19.0688  -30.7641 H   0  0  0  0  0  0  0  0  0  0  0  0
  1  2  1  0
  2  3  1  0
  3  4  2  0
  4  5  1  0
  5  6  2  0
  6  7  1  0
  7  8  1  0
  8  9  1  0
 10  9  1  6
 10 11  1  0
 11 12  1  0
 12 13  1  0
 13 14  1  0
 14 15  1  0
 15 16  1  0
 16 17  1  0
 16 18  1  0
 14 19  1  0
  6  2  1  0
 18 10  1  0
 19 10  1  0
 17 12  1  0
  1 20  1  0
  1 21  1  0
  1 22  1  0
  3 23  1  0
  4 24  1  0
  5 25  1  0
  7 26  1  0
  7 27  1  0
  8 28  1  0
  8 29  1  0
  9 30  1  0
  9 31  1  0
 11 32  1  0
 11 33  1  0
 12 34  1  1
 13 35  1  0
 13 36  1  0
 14 37  1  1
 15 38  1  0
 15 39  1  0
 16 40  1  6
 17 41  1  0
 17 42  1  0
 18 43  1  0
 18 44  1  0
 19 45  1  0
 19 46  1  0
M  CHG  1   8   1
M  END
>  <UniqueID>  (25) 
25

>  <SMILES>  (25) 
Cn1cccc1C[NH2+]CC12CC3CC(CC(C3)C1)C2

>  <Energy>  (25) 
73.78254795880984

>  <Genealogy>  (25) 
Cn1cccc1C[NH2+]CC12CC3CC(CC(C3)C1)C2 (protonated)
Cn1cccc1C[NH2+]CC12CC3CC(CC(C3)C1)C2 (3D coordinates assigned)
Cn1cccc1C[NH2+]CC12CC3CC(CC(C3)C1)C2 (nonaromatic ring conformer: 73.78254795880984 kcal/mol)

>  <smiles>  (25) 
Cn1cccc1CNCC12CC3CC(CC(C3)C1)C2

>  <score_type>  (25) 
oracle

>  <origin>  (25) 
adg

>  <m_score__min__energy>  (25) 
-6.6900000000000004

>  <m_primary>  (25) 
energy

$$$$
26:0
     RDKit          3D

 57 59  0  0  0  0  0  0  0  0999 V2000
   -0.8490   20.7390  -30.3330 C   0  0  0  0  0  0  0  0  0  0  0  0
   -0.9640   22.2620  -30.3040 C   0  0  0  0  0  0  0  0  0  0  0  0
   -2.3580   22.6700  -30.0030 N   0  0  0  0  0  0  0  0  0  0  0  0
   -3.1090   21.5640  -29.3590 C   0  0  0  0  0  0  0  0  0  0  0  0
   -2.9860   21.6590  -27.8370 C   0  0  0  0  0  0  0  0  0  0  0  0
   -2.3810   23.8930  -29.1650 C   0  0  0  0  0  0  0  0  0  0  0  0
   -3.7690   24.5390  -29.2270 C   0  0  0  0  0  0  0  0  0  0  0  0
   -3.9600   25.1820  -30.4750 O   0  0  0  0  0  0  0  0  0  0  0  0
   -5.3370   25.3550  -30.7700 C   0  0  0  0  0  0  0  0  0  0  0  0
   -5.8790   24.1860  -31.6010 C   0  0  0  0  0  0  0  0  0  0  0  0
   -5.0310   23.0060  -31.4620 N   0  0  0  0  0  0  0  0  0  0  0  0
   -5.3790   21.7740  -32.1070 C   0  0  0  0  0  0  0  0  0  0  0  0
   -6.6810   21.2830  -32.0220 C   0  0  0  0  0  0  0  0  0  0  0  0
   -7.0150   20.0670  -32.5600 C   0  0  0  0  0  0  0  0  0  0  0  0
   -6.0970   19.2840  -33.2200 N   0  0  0  0  0  0  0  0  0  0  0  0
   -6.5060   17.9870  -33.8000 C   0  0  0  0  0  0  0  0  0  0  0  0
   -4.7890   19.7310  -33.3280 C   0  0  0  0  0  0  0  0  0  0  0  0
   -3.7920   18.9630  -33.9800 C   0  0  0  0  0  0  0  0  0  0  0  0
   -2.4790   19.4230  -34.0720 C   0  0  0  0  0  0  0  0  0  0  0  0
   -2.1220   20.6530  -33.5260 C   0  0  0  0  0  0  0  0  0  0  0  0
   -3.0780   21.4340  -32.8780 C   0  0  0  0  0  0  0  0  0  0  0  0
   -4.4100   20.9900  -32.7650 C   0  0  0  0  0  0  0  0  0  0  0  0
   -8.4420   19.7290  -32.2870 C   0  0  0  0  0  0  0  0  0  0  0  0
   -8.9500   20.8800  -31.4060 C   0  0  0  0  0  0  0  0  0  0  0  0
   -7.8270   21.9240  -31.3280 C   0  0  0  0  0  0  0  0  0  0  0  0
   -0.8199   20.3538  -29.3031 H   0  0  0  0  0  0  0  0  0  0  0  0
   -1.7177   20.3156  -30.8584 H   0  0  0  0  0  0  0  0  0  0  0  0
    0.0735   20.4509  -30.8584 H   0  0  0  0  0  0  0  0  0  0  0  0
   -0.2940   22.6613  -29.5283 H   0  0  0  0  0  0  0  0  0  0  0  0
   -0.6808   22.6599  -31.2896 H   0  0  0  0  0  0  0  0  0  0  0  0
   -4.1696   21.6312  -29.6429 H   0  0  0  0  0  0  0  0  0  0  0  0
   -2.6911   20.6032  -29.6940 H   0  0  0  0  0  0  0  0  0  0  0  0
   -3.7731   21.0511  -27.3669 H   0  0  0  0  0  0  0  0  0  0  0  0
   -1.9992   21.2863  -27.5249 H   0  0  0  0  0  0  0  0  0  0  0  0
   -3.0973   22.7079  -27.5249 H   0  0  0  0  0  0  0  0  0  0  0  0
   -2.1486   23.6264  -28.1234 H   0  0  0  0  0  0  0  0  0  0  0  0
   -1.6319   24.6052  -29.5414 H   0  0  0  0  0  0  0  0  0  0  0  0
   -4.5365   23.7615  -29.0988 H   0  0  0  0  0  0  0  0  0  0  0  0
   -3.8503   25.2869  -28.4245 H   0  0  0  0  0  0  0  0  0  0  0  0
   -5.9006   25.4164  -29.8274 H   0  0  0  0  0  0  0  0  0  0  0  0
   -5.4538   26.2800  -31.3537 H   0  0  0  0  0  0  0  0  0  0  0  0
   -6.8948   23.9411  -31.2572 H   0  0  0  0  0  0  0  0  0  0  0  0
   -5.8912   24.4853  -32.6594 H   0  0  0  0  0  0  0  0  0  0  0  0
   -4.0590   23.1050  -31.0840 H   0  0  0  0  0  0  0  0  0  0  0  0
   -6.7298   17.2773  -32.9899 H   0  0  0  0  0  0  0  0  0  0  0  0
   -7.4028   18.1295  -34.4208 H   0  0  0  0  0  0  0  0  0  0  0  0
   -5.6897   17.5892  -34.4208 H   0  0  0  0  0  0  0  0  0  0  0  0
   -4.0579   17.9903  -34.4196 H   0  0  0  0  0  0  0  0  0  0  0  0
   -1.7198   18.8098  -34.5795 H   0  0  0  0  0  0  0  0  0  0  0  0
   -1.0843   21.0091  -33.6060 H   0  0  0  0  0  0  0  0  0  0  0  0
   -2.7894   22.4058  -32.4511 H   0  0  0  0  0  0  0  0  0  0  0  0
   -9.0148   19.6754  -33.2246 H   0  0  0  0  0  0  0  0  0  0  0  0
   -8.5531   18.7494  -31.7992 H   0  0  0  0  0  0  0  0  0  0  0  0
   -9.8499   21.3276  -31.8531 H   0  0  0  0  0  0  0  0  0  0  0  0
   -9.2137   20.5154  -30.4022 H   0  0  0  0  0  0  0  0  0  0  0  0
   -8.1220   22.8525  -31.8388 H   0  0  0  0  0  0  0  0  0  0  0  0
   -7.5866   22.2060  -30.2923 H   0  0  0  0  0  0  0  0  0  0  0  0
  1  2  1  0
  2  3  1  0
  3  4  1  0
  4  5  1  0
  3  6  1  0
  6  7  1  0
  7  8  1  0
  8  9  1  0
  9 10  1  0
 10 11  1  0
 11 12  1  0
 12 13  2  0
 13 14  1  0
 14 15  2  0
 15 16  1  0
 15 17  1  0
 17 18  2  0
 18 19  1  0
 19 20  2  0
 20 21  1  0
 21 22  2  0
 14 23  1  0
 23 24  1  0
 24 25  1  0
 22 12  1  0
 25 13  1  0
 22 17  1  0
  1 26  1  0
  1 27  1  0
  1 28  1  0
  2 29  1  0
  2 30  1  0
  4 31  1  0
  4 32  1  0
  5 33  1  0
  5 34  1  0
  5 35  1  0
  6 36  1  0
  6 37  1  0
  7 38  1  0
  7 39  1  0
  9 40  1  0
  9 41  1  0
 10 42  1  0
 10 43  1  0
 11 44  1  0
 16 45  1  0
 16 46  1  0
 16 47  1  0
 18 48  1  0
 19 49  1  0
 20 50  1  0
 21 51  1  0
 23 52  1  0
 23 53  1  0
 24 54  1  0
 24 55  1  0
 25 56  1  0
 25 57  1  0
M  CHG  1  15   1
M  END
>  <UniqueID>  (26) 
26

>  <SMILES>  (26) 
CCN(CC)CCOCCNc1c2c([n+](C)c3ccccc13)CCC2

>  <Energy>  (26) 
78.4060322780279

>  <Genealogy>  (26) 
CCN(CC)CCOCCNc1c2c([n+](C)c3ccccc13)CCC2 (3D coordinates assigned)
CCN(CC)CCOCCNc1c2c([n+](C)c3ccccc13)CCC2 (nonaromatic ring conformer: 78.4060322780279 kcal/mol)

>  <smiles>  (26) 
CCN(CC)CCOCCNc1c2c([n+](C)c3ccccc13)CCC2

>  <score_type>  (26) 
oracle

>  <origin>  (26) 
adg

>  <m_score__min__energy>  (26) 
-8.7300000000000004

>  <m_primary>  (26) 
energy

$$$$
27:0
     RDKit          3D

 72 75  0  0  0  0  0  0  0  0999 V2000
    1.3270   15.7180  -28.6700 C   0  0  0  0  0  0  0  0  0  0  0  0
    0.8940   16.5980  -27.4980 C   0  0  0  0  0  0  0  0  0  0  0  0
    1.0660   18.0200  -27.8290 N   0  0  0  0  0  0  0  0  0  0  0  0
    2.4180   18.5720  -27.9500 C   0  0  0  0  0  0  0  0  0  0  0  0
   -0.0710   18.9060  -27.8100 C   0  0  0  0  0  0  0  0  0  0  0  0
   -0.0230   20.1380  -28.4630 C   0  0  0  0  0  0  0  0  0  0  0  0
   -1.1210   20.9870  -28.4210 C   0  0  0  0  0  0  0  0  0  0  0  0
   -2.2870   20.6050  -27.7400 C   0  0  0  0  0  0  0  0  0  0  0  0
   -3.4830   21.5500  -27.8090 C   0  0  0  0  0  0  0  0  0  0  0  0
   -3.0650   22.9620  -27.8780 N   0  0  0  0  0  0  0  0  0  0  0  0
   -4.1830   23.8740  -27.5870 C   0  0  0  0  0  0  0  0  0  0  0  0
   -4.7280   24.5390  -28.8680 C   0  0  0  0  0  0  0  0  0  0  0  0
   -3.7690   24.6040  -29.9090 O   0  0  0  0  0  0  0  0  0  0  0  0
   -3.9460   23.5500  -30.8370 C   0  0  0  0  0  0  0  0  0  0  0  0
   -5.4350   23.3380  -31.1140 C   0  0  0  0  0  0  0  0  0  0  0  0
   -5.6790   22.7790  -32.4480 N   0  0  0  0  0  0  0  0  0  0  0  0
   -5.6680   21.3680  -32.7370 C   0  0  0  0  0  0  0  0  0  0  0  0
   -4.4780   20.7180  -33.1140 C   0  0  0  0  0  0  0  0  0  0  0  0
   -3.2450   21.4060  -33.1010 C   0  0  0  0  0  0  0  0  0  0  0  0
   -2.0650   20.7640  -33.4690 C   0  0  0  0  0  0  0  0  0  0  0  0
   -2.0840   19.4190  -33.8130 C   0  0  0  0  0  0  0  0  0  0  0  0
   -3.2800   18.7040  -33.7860 C   0  0  0  0  0  0  0  0  0  0  0  0
   -4.5060   19.3380  -33.4520 C   0  0  0  0  0  0  0  0  0  0  0  0
   -5.7010   18.6400  -33.4220 N   0  0  0  0  0  0  0  0  0  0  0  0
   -5.7760   17.2710  -33.9890 C   0  0  0  0  0  0  0  0  0  0  0  0
   -6.8260   19.2170  -32.8580 C   0  0  0  0  0  0  0  0  0  0  0  0
   -7.9920   18.4590  -32.5680 C   0  0  0  0  0  0  0  0  0  0  0  0
   -9.1340   19.0610  -32.0470 C   0  0  0  0  0  0  0  0  0  0  0  0
   -9.1460   20.4250  -31.7810 C   0  0  0  0  0  0  0  0  0  0  0  0
   -8.0040   21.1900  -32.0070 C   0  0  0  0  0  0  0  0  0  0  0  0
   -6.8320   20.6010  -32.5350 C   0  0  0  0  0  0  0  0  0  0  0  0
   -2.3240   19.3890  -27.0870 N   0  0  0  0  0  0  0  0  0  0  0  0
   -3.5040   18.9720  -26.3140 C   0  0  0  0  0  0  0  0  0  0  0  0
   -1.2400   18.5520  -27.1230 C   0  0  0  0  0  0  0  0  0  0  0  0
    1.7820   14.7932  -28.2856 H   0  0  0  0  0  0  0  0  0  0  0  0
    0.4494   15.4672  -29.2840 H   0  0  0  0  0  0  0  0  0  0  0  0
    2.0612   16.2602  -29.2840 H   0  0  0  0  0  0  0  0  0  0  0  0
   -0.1651   16.4046  -27.2724 H   0  0  0  0  0  0  0  0  0  0  0  0
    1.5183   16.3586  -26.6245 H   0  0  0  0  0  0  0  0  0  0  0  0
    2.8356   18.7425  -26.9467 H   0  0  0  0  0  0  0  0  0  0  0  0
    3.0562   17.8624  -28.4971 H   0  0  0  0  0  0  0  0  0  0  0  0
    2.3772   19.5255  -28.4971 H   0  0  0  0  0  0  0  0  0  0  0  0
    0.8833   20.4364  -29.0103 H   0  0  0  0  0  0  0  0  0  0  0  0
   -1.0766   21.9641  -28.9242 H   0  0  0  0  0  0  0  0  0  0  0  0
   -4.0745   21.3101  -28.7049 H   0  0  0  0  0  0  0  0  0  0  0  0
   -4.0773   21.4149  -26.8933 H   0  0  0  0  0  0  0  0  0  0  0  0
   -2.6720   23.1670  -28.8260 H   0  0  0  0  0  0  0  0  0  0  0  0
   -2.2970   23.1150  -27.1820 H   0  0  0  0  0  0  0  0  0  0  0  0
   -4.9932   23.3032  -27.1098 H   0  0  0  0  0  0  0  0  0  0  0  0
   -3.8128   24.6672  -26.9209 H   0  0  0  0  0  0  0  0  0  0  0  0
   -5.5925   23.9590  -29.2235 H   0  0  0  0  0  0  0  0  0  0  0  0
   -5.0045   25.5720  -28.6104 H   0  0  0  0  0  0  0  0  0  0  0  0
   -3.4335   23.8029  -31.7769 H   0  0  0  0  0  0  0  0  0  0  0  0
   -3.5228   22.6256  -30.4169 H   0  0  0  0  0  0  0  0  0  0  0  0
   -5.8399   22.6459  -30.3610 H   0  0  0  0  0  0  0  0  0  0  0  0
   -5.9295   24.3193  -31.0648 H   0  0  0  0  0  0  0  0  0  0  0  0
   -5.7910   23.4460  -33.2460 H   0  0  0  0  0  0  0  0  0  0  0  0
   -3.2160   22.4626  -32.7963 H   0  0  0  0  0  0  0  0  0  0  0  0
   -1.1177   21.3228  -33.4871 H   0  0  0  0  0  0  0  0  0  0  0  0
   -1.1514   18.9158  -34.1080 H   0  0  0  0  0  0  0  0  0  0  0  0
   -3.2742   17.6308  -34.0274 H   0  0  0  0  0  0  0  0  0  0  0  0
   -5.8162   16.5369  -33.1707 H   0  0  0  0  0  0  0  0  0  0  0  0
   -6.6805   17.1797  -34.6083 H   0  0  0  0  0  0  0  0  0  0  0  0
   -4.8869   17.0814  -34.6083 H   0  0  0  0  0  0  0  0  0  0  0  0
   -7.9925   17.3757  -32.7588 H   0  0  0  0  0  0  0  0  0  0  0  0
  -10.0297   18.4552  -31.8452 H   0  0  0  0  0  0  0  0  0  0  0  0
  -10.0581   20.9009  -31.3917 H   0  0  0  0  0  0  0  0  0  0  0  0
   -8.0141   22.2646  -31.7720 H   0  0  0  0  0  0  0  0  0  0  0  0
   -3.2843   19.0496  -25.2390 H   0  0  0  0  0  0  0  0  0  0  0  0
   -4.3543   19.6241  -26.5625 H   0  0  0  0  0  0  0  0  0  0  0  0
   -3.7558   17.9304  -26.5625 H   0  0  0  0  0  0  0  0  0  0  0  0
   -1.2881   17.5839  -26.6029 H   0  0  0  0  0  0  0  0  0  0  0  0
  1  2  1  0
  2  3  1  0
  3  4  1  0
  3  5  1  0
  5  6  2  0
  6  7  1  0
  7  8  2  0
  8  9  1  0
  9 10  1  0
 10 11  1  0
 11 12  1  0
 12 13  1  0
 13 14  1  0
 14 15  1  0
 15 16  1  0
 16 17  1  0
 17 18  1  0
 18 19  2  0
 19 20  1  0
 20 21  2  0
 21 22  1  0
 22 23  2  0
 23 24  1  0
 24 25  1  0
 24 26  2  0
 26 27  1  0
 27 28  2  0
 28 29  1  0
 29 30  2  0
 30 31  1  0
  8 32  1  0
 32 33  1  0
 32 34  2  0
 34  5  1  0
 31 17  2  0
 23 18  1  0
 31 26  1  0
  1 35  1  0
  1 36  1  0
  1 37  1  0
  2 38  1  0
  2 39  1  0
  4 40  1  0
  4 41  1  0
  4 42  1  0
  6 43  1  0
  7 44  1  0
  9 45  1  0
  9 46  1  0
 10 47  1  0
 10 48  1  0
 11 49  1  0
 11 50  1  0
 12 51  1  0
 12 52  1  0
 14 53  1  0
 14 54  1  0
 15 55  1  0
 15 56  1  0
 16 57  1  0
 19 58  1  0
 20 59  1  0
 21 60  1  0
 22 61  1  0
 25 62  1  0
 25 63  1  0
 25 64  1  0
 27 65  1  0
 28 66  1  0
 29 67  1  0
 30 68  1  0
 33 69  1  0
 33 70  1  0
 33 71  1  0
 34 72  1  0
M  CHG  3  10   1  24   1  32   1
M  END
>  <UniqueID>  (27) 
27

>  <SMILES>  (27) 
CCN(C)c1ccc(C[NH2+]CCOCCNc2c3ccccc3[n+](C)c3ccccc23)[n+](C)c1

>  <Energy>  (27) 
97.83101276971787

>  <Genealogy>  (27) 
CCN(C)c1ccc(C[NH2+]CCOCCNc2c3ccccc3[n+](C)c3ccccc23)[n+](C)c1 (protonated)
CCN(C)c1ccc(C[NH2+]CCOCCNc2c3ccccc3[n+](C)c3ccccc23)[n+](C)c1 (3D coordinates assigned)
CCN(C)c1ccc(C[NH2+]CCOCCNc2c3ccccc3[n+](C)c3ccccc23)[n+](C)c1 (optimized conformer: 97.83101276971787 kcal/mol)

>  <smiles>  (27) 
CCN(C)c1ccc(CNCCOCCNc2c3ccccc3[n+](C)c3ccccc23)[n+](C)c1

>  <score_type>  (27) 
oracle

>  <origin>  (27) 
adg

>  <m_score__min__energy>  (27) 
-8.7300000000000004

>  <m_primary>  (27) 
energy

$$$$
28:0
     RDKit          3D

 52 54  0  0  0  0  0  0  0  0999 V2000
   -6.2960   25.3870  -29.4860 C   0  0  0  0  0  0  0  0  0  0  0  0
   -5.6180   25.5560  -30.8400 C   0  0  0  0  0  0  0  0  0  0  0  0
   -4.3210   24.8680  -30.8440 N   0  0  0  0  0  0  0  0  0  0  0  0
   -3.9110   24.5520  -29.4710 C   0  0  0  0  0  0  0  0  0  0  0  0
   -2.7890   23.5140  -29.4730 C   0  0  0  0  0  0  0  0  0  0  0  0
   -2.5730   23.0550  -30.7900 O   0  0  0  0  0  0  0  0  0  0  0  0
   -1.7420   21.9150  -30.7630 C   0  0  0  0  0  0  0  0  0  0  0  0
   -2.5670   20.6770  -31.1010 C   0  0  0  0  0  0  0  0  0  0  0  0
   -3.7090   21.0180  -31.9500 N   0  0  0  0  0  0  0  0  0  0  0  0
   -4.4340   19.9860  -32.6330 C   0  0  0  0  0  0  0  0  0  0  0  0
   -3.7160   19.0010  -33.3350 C   0  0  0  0  0  0  0  0  0  0  0  0
   -2.3120   19.0900  -33.4680 C   0  0  0  0  0  0  0  0  0  0  0  0
   -1.5950   18.0990  -34.1310 C   0  0  0  0  0  0  0  0  0  0  0  0
   -2.2560   16.9960  -34.6550 C   0  0  0  0  0  0  0  0  0  0  0  0
   -3.6400   16.8860  -34.5380 C   0  0  0  0  0  0  0  0  0  0  0  0
   -4.4050   17.8970  -33.9010 C   0  0  0  0  0  0  0  0  0  0  0  0
   -5.7790   17.8080  -33.7890 N   0  0  0  0  0  0  0  0  0  0  0  0
   -6.5180   16.7970  -34.5770 C   0  0  0  0  0  0  0  0  0  0  0  0
   -6.4690   18.6850  -32.9720 C   0  0  0  0  0  0  0  0  0  0  0  0
   -7.8070   18.4290  -32.5860 C   0  0  0  0  0  0  0  0  0  0  0  0
   -8.5260   19.3480  -31.8310 C   0  0  0  0  0  0  0  0  0  0  0  0
   -7.9510   20.5560  -31.4700 C   0  0  0  0  0  0  0  0  0  0  0  0
   -6.6220   20.8440  -31.8060 C   0  0  0  0  0  0  0  0  0  0  0  0
   -6.1370   22.1720  -31.5590 N   0  0  0  0  0  0  0  0  0  0  0  0
   -5.8410   22.9160  -32.5170 O   0  0  0  0  0  0  0  0  0  0  0  0
   -5.6870   22.5040  -30.3020 O   0  0  0  0  0  0  0  0  0  0  0  0
   -5.8330   19.8600  -32.4760 C   0  0  0  0  0  0  0  0  0  0  0  0
   -5.5649   25.5692  -28.6846 H   0  0  0  0  0  0  0  0  0  0  0  0
   -7.1235   26.1064  -29.3980 H   0  0  0  0  0  0  0  0  0  0  0  0
   -6.6891   24.3634  -29.3980 H   0  0  0  0  0  0  0  0  0  0  0  0
   -6.2595   25.1276  -31.6242 H   0  0  0  0  0  0  0  0  0  0  0  0
   -5.4579   26.6273  -31.0313 H   0  0  0  0  0  0  0  0  0  0  0  0
   -4.4480   23.9640  -31.3580 H   0  0  0  0  0  0  0  0  0  0  0  0
   -3.5547   25.4693  -28.9794 H   0  0  0  0  0  0  0  0  0  0  0  0
   -4.7746   24.1414  -28.9273 H   0  0  0  0  0  0  0  0  0  0  0  0
   -1.8657   23.9718  -29.0885 H   0  0  0  0  0  0  0  0  0  0  0  0
   -3.0734   22.6664  -28.8321 H   0  0  0  0  0  0  0  0  0  0  0  0
   -0.9356   22.0314  -31.5020 H   0  0  0  0  0  0  0  0  0  0  0  0
   -1.3058   21.8025  -29.7595 H   0  0  0  0  0  0  0  0  0  0  0  0
   -1.9291   19.9543  -31.6309 H   0  0  0  0  0  0  0  0  0  0  0  0
   -2.9466   20.2447  -30.1635 H   0  0  0  0  0  0  0  0  0  0  0  0
   -3.8860   22.0110  -32.2240 H   0  0  0  0  0  0  0  0  0  0  0  0
   -1.7795   19.9532  -33.0422 H   0  0  0  0  0  0  0  0  0  0  0  0
   -0.5042   18.1893  -34.2401 H   0  0  0  0  0  0  0  0  0  0  0  0
   -1.6847   16.2060  -35.1645 H   0  0  0  0  0  0  0  0  0  0  0  0
   -4.1483   16.0001  -34.9465 H   0  0  0  0  0  0  0  0  0  0  0  0
   -7.0271   16.1006  -33.8945 H   0  0  0  0  0  0  0  0  0  0  0  0
   -7.2633   17.2994  -35.2112 H   0  0  0  0  0  0  0  0  0  0  0  0
   -5.8131   16.2394  -35.2112 H   0  0  0  0  0  0  0  0  0  0  0  0
   -8.2858   17.4862  -32.8890 H   0  0  0  0  0  0  0  0  0  0  0  0
   -9.5549   19.1157  -31.5190 H   0  0  0  0  0  0  0  0  0  0  0  0
   -8.5444   21.2965  -30.9137 H   0  0  0  0  0  0  0  0  0  0  0  0
  1  2  1  0
  2  3  1  0
  3  4  1  0
  4  5  1  0
  5  6  1  0
  6  7  1  0
  7  8  1  0
  8  9  1  0
  9 10  1  0
 10 11  2  0
 11 12  1  0
 12 13  2  0
 13 14  1  0
 14 15  2  0
 15 16  1  0
 16 17  2  0
 17 18  1  0
 17 19  1  0
 19 20  2  0
 20 21  1  0
 21 22  2  0
 22 23  1  0
 23 24  1  0
 24 25  2  0
 24 26  1  0
 23 27  2  0
 27 10  1  0
 16 11  1  0
 27 19  1  0
  1 28  1  0
  1 29  1  0
  1 30  1  0
  2 31  1  0
  2 32  1  0
  3 33  1  0
  4 34  1  0
  4 35  1  0
  5 36  1  0
  5 37  1  0
  7 38  1  0
  7 39  1  0
  8 40  1  0
  8 41  1  0
  9 42  1  0
 12 43  1  0
 13 44  1  0
 14 45  1  0
 15 46  1  0
 18 47  1  0
 18 48  1  0
 18 49  1  0
 20 50  1  0
 21 51  1  0
 22 52  1  0
M  CHG  3  17   1  24   1  26  -1
M  END
>  <UniqueID>  (28) 
28

>  <SMILES>  (28) 
CCNCCOCCNc1c2ccccc2[n+](C)c2cccc([N+](=O)[O-])c12

>  <Energy>  (28) 
82.35752014123854

>  <Genealogy>  (28) 
CCNCCOCCNc1c2ccccc2[n+](C)c2cccc([N+](=O)[O-])c12 (3D coordinates assigned)
CCNCCOCCNc1c2ccccc2[n+](C)c2cccc([N+](=O)[O-])c12 (optimized conformer: 82.35752014123854 kcal/mol)

>  <smiles>  (28) 
CCNCCOCCNc1c2ccccc2[n+](C)c2cccc([N+](=O)[O-])c12

>  <score_type>  (28) 
oracle

>  <origin>  (28) 
adg

>  <m_score__min__energy>  (28) 
-8.1500000000000004

>  <m_primary>  (28) 
energy

$$$$
