0:0
     RDKit          3D

 65 68  0  0  0  0  0  0  0  0999 V2000
   -1.0560   26.7850  -24.2600 C   0  0  0  0  0  0  0  0  0  0  0  0
   -1.2090   27.2170  -25.7250 C   0  0  0  0  0  0  0  0  0  0  0  0
   -1.8110   26.1420  -26.5620 N   0  0  0  0  0  0  0  0  0  0  0  0
   -2.6910   25.2730  -25.7300 C   0  0  0  0  0  0  0  0  0  0  0  0
   -3.9950   24.9040  -26.4510 C   0  0  0  0  0  0  0  0  0  0  0  0
   -0.7390   25.3300  -27.2120 C   0  0  0  0  0  0  0  0  0  0  0  0
   -1.0170   25.0260  -28.6970 C   0  0  0  0  0  0  0  0  0  0  0  0
   -2.3800   25.2880  -29.0400 O   0  0  0  0  0  0  0  0  0  0  0  0
   -3.2580   24.4200  -29.7150 C   0  0  0  0  0  0  0  0  0  0  0  0
   -2.9760   23.0500  -29.6680 C   0  0  0  0  0  0  0  0  0  0  0  0
   -3.7870   22.1280  -30.3350 C   0  0  0  0  0  0  0  0  0  0  0  0
   -4.9130   22.5630  -31.0460 C   0  0  0  0  0  0  0  0  0  0  0  0
   -5.7500   21.5910  -31.7870 C   0  0  0  0  0  0  0  0  0  0  0  0
   -5.3290   20.6640  -32.7420 C   0  0  0  0  0  0  0  0  0  0  0  0
   -3.9420   20.3870  -33.1760 C   0  0  0  0  0  0  0  0  0  0  0  0
   -3.0170   21.4230  -33.3570 C   0  0  0  0  0  0  0  0  0  0  0  0
   -1.7110   21.1450  -33.7700 C   0  0  0  0  0  0  0  0  0  0  0  0
   -1.2920   19.8180  -34.0070 C   0  0  0  0  0  0  0  0  0  0  0  0
    0.0680   19.5260  -34.4360 N   0  0  0  0  0  0  0  0  0  0  0  0
    0.3960   18.2410  -35.0680 C   0  0  0  0  0  0  0  0  0  0  0  0
    1.1470   20.5050  -34.2300 C   0  0  0  0  0  0  0  0  0  0  0  0
   -2.2320   18.7820  -33.8090 C   0  0  0  0  0  0  0  0  0  0  0  0
   -3.5360   19.0640  -33.3920 C   0  0  0  0  0  0  0  0  0  0  0  0
   -6.3980   19.9910  -33.2340 N   0  0  0  0  0  0  0  0  0  0  0  0
   -7.4420   20.5180  -32.5650 C   0  0  0  0  0  0  0  0  0  0  0  0
   -8.7780   20.1520  -32.7300 C   0  0  0  0  0  0  0  0  0  0  0  0
   -9.7400   20.8310  -31.9690 C   0  0  0  0  0  0  0  0  0  0  0  0
   -9.3520   21.8570  -31.0850 C   0  0  0  0  0  0  0  0  0  0  0  0
   -7.9950   22.1870  -30.9610 C   0  0  0  0  0  0  0  0  0  0  0  0
   -7.0890   21.4820  -31.6940 N   0  0  0  0  0  0  0  0  0  0  0  0
   -5.2130   23.9350  -31.0830 C   0  0  0  0  0  0  0  0  0  0  0  0
   -4.3920   24.8590  -30.4300 C   0  0  0  0  0  0  0  0  0  0  0  0
   -1.3499   27.6148  -23.6004 H   0  0  0  0  0  0  0  0  0  0  0  0
   -1.7008   25.9155  -24.0649 H   0  0  0  0  0  0  0  0  0  0  0  0
   -0.0076   26.5151  -24.0649 H   0  0  0  0  0  0  0  0  0  0  0  0
   -1.8563   28.1054  -25.7679 H   0  0  0  0  0  0  0  0  0  0  0  0
   -0.2068   27.4365  -26.1217 H   0  0  0  0  0  0  0  0  0  0  0  0
   -2.3950   26.5940  -27.3040 H   0  0  0  0  0  0  0  0  0  0  0  0
   -2.1472   24.3482  -25.4870 H   0  0  0  0  0  0  0  0  0  0  0  0
   -2.9558   25.8338  -24.8215 H   0  0  0  0  0  0  0  0  0  0  0  0
   -4.7752   24.6832  -25.7076 H   0  0  0  0  0  0  0  0  0  0  0  0
   -4.3167   25.7464  -27.0810 H   0  0  0  0  0  0  0  0  0  0  0  0
   -3.8276   24.0180  -27.0810 H   0  0  0  0  0  0  0  0  0  0  0  0
    0.2091   25.8833  -27.1409 H   0  0  0  0  0  0  0  0  0  0  0  0
   -0.6979   24.3652  -26.6852 H   0  0  0  0  0  0  0  0  0  0  0  0
   -0.3645   25.6564  -29.3190 H   0  0  0  0  0  0  0  0  0  0  0  0
   -0.8159   23.9591  -28.8741 H   0  0  0  0  0  0  0  0  0  0  0  0
   -2.1046   22.6944  -29.0986 H   0  0  0  0  0  0  0  0  0  0  0  0
   -3.5403   21.0565  -30.3017 H   0  0  0  0  0  0  0  0  0  0  0  0
   -3.3209   22.4640  -33.1726 H   0  0  0  0  0  0  0  0  0  0  0  0
   -0.9997   21.9719  -33.9124 H   0  0  0  0  0  0  0  0  0  0  0  0
    0.5882   17.4880  -34.2895 H   0  0  0  0  0  0  0  0  0  0  0  0
   -0.4475   17.9143  -35.6938 H   0  0  0  0  0  0  0  0  0  0  0  0
    1.2929   18.3586  -35.6938 H   0  0  0  0  0  0  0  0  0  0  0  0
    1.3083   20.6514  -33.1518 H   0  0  0  0  0  0  0  0  0  0  0  0
    2.0732   20.1326  -34.6921 H   0  0  0  0  0  0  0  0  0  0  0  0
    0.8661   21.4629  -34.6921 H   0  0  0  0  0  0  0  0  0  0  0  0
   -1.9333   17.7382  -33.9856 H   0  0  0  0  0  0  0  0  0  0  0  0
   -4.2483   18.2411  -33.2324 H   0  0  0  0  0  0  0  0  0  0  0  0
   -9.0670   19.3573  -33.4336 H   0  0  0  0  0  0  0  0  0  0  0  0
  -10.8023   20.5615  -32.0626 H   0  0  0  0  0  0  0  0  0  0  0  0
  -10.1088   22.3957  -30.4959 H   0  0  0  0  0  0  0  0  0  0  0  0
   -7.6703   22.9948  -30.2887 H   0  0  0  0  0  0  0  0  0  0  0  0
   -6.1009   24.2849  -31.6301 H   0  0  0  0  0  0  0  0  0  0  0  0
   -4.6310   25.9318  -30.4739 H   0  0  0  0  0  0  0  0  0  0  0  0
  1  2  1  0
  2  3  1  0
  3  4  1  0
  4  5  1  0
  3  6  1  0
  6  7  1  0
  7  8  1  0
  8  9  1  0
  9 10  2  0
 10 11  1  0
 11 12  2  0
 12 13  1  0
 13 14  2  0
 14 15  1  0
 15 16  2  0
 16 17  1  0
 17 18  2  0
 18 19  1  0
 19 20  1  0
 19 21  1  0
 18 22  1  0
 22 23  2  0
 14 24  1  0
 24 25  2  0
 25 26  1  0
 26 27  2  0
 27 28  1  0
 28 29  2  0
 29 30  1  0
 12 31  1  0
 31 32  2  0
 32  9  1  0
 30 13  1  0
 23 15  1  0
 30 25  1  0
  1 33  1  0
  1 34  1  0
  1 35  1  0
  2 36  1  0
  2 37  1  0
  3 38  1  0
  4 39  1  0
  4 40  1  0
  5 41  1  0
  5 42  1  0
  5 43  1  0
  6 44  1  0
  6 45  1  0
  7 46  1  0
  7 47  1  0
 10 48  1  0
 11 49  1  0
 16 50  1  0
 17 51  1  0
 20 52  1  0
 20 53  1  0
 20 54  1  0
 21 55  1  0
 21 56  1  0
 21 57  1  0
 22 58  1  0
 23 59  1  0
 26 60  1  0
 27 61  1  0
 28 62  1  0
 29 63  1  0
 31 64  1  0
 32 65  1  0
M  CHG  1   3   1
M  END
>  <UniqueID>  (1) 
1

>  <SMILES>  (1) 
CC[NH+](CC)CCOc1ccc(-c2c(-c3ccc(N(C)C)cc3)nc3ccccn23)cc1

>  <Energy>  (1) 
117.96400974780244

>  <Genealogy>  (1) 
CC[NH+](CC)CCOc1ccc(-c2c(-c3ccc(N(C)C)cc3)nc3ccccn23)cc1 (protonated)
CC[NH+](CC)CCOc1ccc(-c2c(-c3ccc(N(C)C)cc3)nc3ccccn23)cc1 (3D coordinates assigned)
CC[NH+](CC)CCOc1ccc(-c2c(-c3ccc(N(C)C)cc3)nc3ccccn23)cc1 (optimized conformer: 117.96400974780244 kcal/mol)

>  <smiles>  (1) 
CCN(CC)CCOc1ccc(-c2c(-c3ccc(N(C)C)cc3)nc3ccccn23)cc1

>  <score_type>  (1) 
oracle

>  <origin>  (1) 
adg

>  <m_score__min__energy>  (1) 
-8.8200000000000003

>  <m_primary>  (1) 
energy

$$$$
1:0
     RDKit          3D

 39 42  0  0  0  0  0  0  0  0999 V2000
    4.3110   24.0590  -35.6030 C   0  0  0  0  0  0  0  0  0  0  0  0
    3.7380   22.8500  -36.0910 O   0  0  0  0  0  0  0  0  0  0  0  0
    2.5600   22.2700  -35.5940 C   0  0  0  0  0  0  0  0  0  0  0  0
    2.5820   21.1610  -34.7280 C   0  0  0  0  0  0  0  0  0  0  0  0
    1.3910   20.6100  -34.2530 C   0  0  0  0  0  0  0  0  0  0  0  0
    0.1560   21.1540  -34.6340 C   0  0  0  0  0  0  0  0  0  0  0  0
   -1.1060   20.5750  -34.1350 C   0  0  0  0  0  0  0  0  0  0  0  0
   -1.3010   19.2600  -33.8940 N   0  0  0  0  0  0  0  0  0  0  0  0
   -2.5470   19.1600  -33.4650 N   0  0  0  0  0  0  0  0  0  0  0  0
   -3.0720   20.3970  -33.4550 C   0  0  0  0  0  0  0  0  0  0  0  0
   -4.4410   20.7270  -33.0420 C   0  0  0  0  0  0  0  0  0  0  0  0
   -5.5420   19.8800  -33.1630 C   0  0  0  0  0  0  0  0  0  0  0  0
   -6.7180   20.4660  -32.6850 C   0  0  0  0  0  0  0  0  0  0  0  0
   -7.9850   19.8770  -32.6670 C   0  0  0  0  0  0  0  0  0  0  0  0
   -9.0650   20.6120  -32.1480 C   0  0  0  0  0  0  0  0  0  0  0  0
   -8.8710   21.9180  -31.6570 C   0  0  0  0  0  0  0  0  0  0  0  0
   -7.5940   22.5000  -31.6800 C   0  0  0  0  0  0  0  0  0  0  0  0
   -6.5390   21.7530  -32.1980 C   0  0  0  0  0  0  0  0  0  0  0  0
   -4.9260   22.1930  -32.3470 S   0  0  0  0  0  0  0  0  0  0  0  0
   -2.1880   21.2740  -33.8660 O   0  0  0  0  0  0  0  0  0  0  0  0
    0.1300   22.2600  -35.4980 C   0  0  0  0  0  0  0  0  0  0  0  0
    1.3300   22.8210  -35.9810 C   0  0  0  0  0  0  0  0  0  0  0  0
    1.3390   23.9270  -36.8470 O   0  0  0  0  0  0  0  0  0  0  0  0
    0.8840   25.2300  -36.4990 C   0  0  0  0  0  0  0  0  0  0  0  0
    4.3063   24.0491  -34.5031 H   0  0  0  0  0  0  0  0  0  0  0  0
    5.3462   24.1462  -35.9645 H   0  0  0  0  0  0  0  0  0  0  0  0
    3.7230   24.9155  -35.9645 H   0  0  0  0  0  0  0  0  0  0  0  0
    3.5449   20.7252  -34.4232 H   0  0  0  0  0  0  0  0  0  0  0  0
    1.4212   19.7438  -33.5757 H   0  0  0  0  0  0  0  0  0  0  0  0
   -3.0120   18.2660  -33.1910 H   0  0  0  0  0  0  0  0  0  0  0  0
   -5.4911   18.8660  -33.5864 H   0  0  0  0  0  0  0  0  0  0  0  0
   -8.1345   18.8574  -33.0517 H   0  0  0  0  0  0  0  0  0  0  0  0
  -10.0693   20.1639  -32.1251 H   0  0  0  0  0  0  0  0  0  0  0  0
   -9.7238   22.4840  -31.2539 H   0  0  0  0  0  0  0  0  0  0  0  0
   -7.4309   23.5190  -31.2990 H   0  0  0  0  0  0  0  0  0  0  0  0
   -0.8349   22.6928  -35.8009 H   0  0  0  0  0  0  0  0  0  0  0  0
    0.8504   25.3263  -35.4037 H   0  0  0  0  0  0  0  0  0  0  0  0
    1.5729   25.9815  -36.9122 H   0  0  0  0  0  0  0  0  0  0  0  0
   -0.1229   25.3893  -36.9122 H   0  0  0  0  0  0  0  0  0  0  0  0
  1  2  1  0
  2  3  1  0
  3  4  2  0
  4  5  1  0
  5  6  2  0
  6  7  1  0
  7  8  2  0
  8  9  1  0
  9 10  2  0
 10 11  1  0
 11 12  2  0
 12 13  1  0
 13 14  2  0
 14 15  1  0
 15 16  2  0
 16 17  1  0
 17 18  2  0
 18 19  1  0
 10 20  1  0
  6 21  1  0
 21 22  2  0
 22 23  1  0
 23 24  1  0
 22  3  1  0
 20  7  1  0
 19 11  1  0
 18 13  1  0
  1 25  1  0
  1 26  1  0
  1 27  1  0
  4 28  1  0
  5 29  1  0
  9 30  1  0
 12 31  1  0
 14 32  1  0
 15 33  1  0
 16 34  1  0
 17 35  1  0
 21 36  1  0
 24 37  1  0
 24 38  1  0
 24 39  1  0
M  CHG  1   9   1
M  END
>  <UniqueID>  (2) 
2

>  <SMILES>  (2) 
COc1ccc(-c2n[nH+]c(-c3cc4ccccc4s3)o2)cc1OC

>  <Energy>  (2) 
107.90332580325342

>  <Genealogy>  (2) 
COc1ccc(-c2n[nH+]c(-c3cc4ccccc4s3)o2)cc1OC (protonated)
COc1ccc(-c2n[nH+]c(-c3cc4ccccc4s3)o2)cc1OC (3D coordinates assigned)
COc1ccc(-c2n[nH+]c(-c3cc4ccccc4s3)o2)cc1OC (optimized conformer: 107.90332580325342 kcal/mol)

>  <smiles>  (2) 
COc1ccc(-c2nnc(-c3cc4ccccc4s3)o2)cc1OC

>  <score_type>  (2) 
oracle

>  <origin>  (2) 
adg

>  <m_score__min__energy>  (2) 
-7.6100000000000003

>  <m_primary>  (2) 
energy

$$$$
2:0
     RDKit          3D

 46 48  0  0  0  0  0  0  0  0999 V2000
   -8.9680   19.7450  -32.2260 C   0  0  0  0  0  0  0  0  0  0  0  0
   -8.8440   21.1150  -31.8650 O   0  0  0  0  0  0  0  0  0  0  0  0
   -7.6370   21.7300  -31.4980 C   0  0  0  0  0  0  0  0  0  0  0  0
   -7.6640   22.6940  -30.4820 C   0  0  0  0  0  0  0  0  0  0  0  0
   -6.4910   23.3470  -30.0910 C   0  0  0  0  0  0  0  0  0  0  0  0
   -5.2750   23.0580  -30.7250 C   0  0  0  0  0  0  0  0  0  0  0  0
   -3.7800   23.8430  -30.2050 S   0  0  0  0  0  0  0  0  0  0  0  0
   -2.6620   23.2380  -31.0070 O   0  0  0  0  0  0  0  0  0  0  0  0
   -3.8560   25.3120  -30.5190 O   0  0  0  0  0  0  0  0  0  0  0  0
   -3.4830   23.6140  -28.4820 N   0  0  1  0  0  0  0  0  0  0  0  0
   -4.1590   22.4010  -28.0030 C   0  0  0  0  0  0  0  0  0  0  0  0
   -3.3070   21.1830  -28.3460 C   0  0  0  0  0  0  0  0  0  0  0  0
   -1.5720   21.7090  -28.4400 S   0  0  0  0  0  0  0  0  0  0  0  0
   -2.0620   23.4370  -28.1260 C   0  0  1  0  0  0  0  0  0  0  0  0
   -1.1260   24.4320  -28.7600 C   0  0  0  0  0  0  0  0  0  0  0  0
   -0.0780   24.0410  -29.3440 O   0  0  0  0  0  0  0  0  0  0  0  0
   -1.4230   25.8310  -28.6550 N   0  0  0  0  0  0  0  0  0  0  0  0
   -1.1930   26.6790  -27.4810 C   0  0  0  0  0  0  0  0  0  0  0  0
    0.2850   26.7620  -27.0980 C   0  0  0  0  0  0  0  0  0  0  0  0
    0.3280   26.6740  -25.5830 C   0  0  0  0  0  0  0  0  0  0  0  0
   -0.8950   25.8660  -25.1910 C   0  0  0  0  0  0  0  0  0  0  0  0
   -1.9490   26.1700  -26.2470 C   0  0  0  0  0  0  0  0  0  0  0  0
   -5.2390   22.0790  -31.7290 C   0  0  0  0  0  0  0  0  0  0  0  0
   -6.4110   21.4190  -32.1150 C   0  0  0  0  0  0  0  0  0  0  0  0
   -9.0237   19.1296  -31.3160 H   0  0  0  0  0  0  0  0  0  0  0  0
   -9.8826   19.6038  -32.8206 H   0  0  0  0  0  0  0  0  0  0  0  0
   -8.0936   19.4419  -32.8206 H   0  0  0  0  0  0  0  0  0  0  0  0
   -8.6156   22.9393  -29.9878 H   0  0  0  0  0  0  0  0  0  0  0  0
   -6.5228   24.0913  -29.2817 H   0  0  0  0  0  0  0  0  0  0  0  0
   -3.8690   24.4350  -27.9630 H   0  0  0  0  0  0  0  0  0  0  0  0
   -4.2933   22.4608  -26.9129 H   0  0  0  0  0  0  0  0  0  0  0  0
   -5.1432   22.3113  -28.4861 H   0  0  0  0  0  0  0  0  0  0  0  0
   -3.4216   20.4170  -27.5649 H   0  0  0  0  0  0  0  0  0  0  0  0
   -3.6262   20.7561  -29.3082 H   0  0  0  0  0  0  0  0  0  0  0  0
   -1.9683   23.6522  -27.0513 H   0  0  0  0  0  0  0  0  0  0  0  0
   -1.5610   27.6727  -27.7762 H   0  0  0  0  0  0  0  0  0  0  0  0
    0.8437   25.9269  -27.5457 H   0  0  0  0  0  0  0  0  0  0  0  0
    0.7447   27.6928  -27.4616 H   0  0  0  0  0  0  0  0  0  0  0  0
    1.2464   26.1665  -25.2530 H   0  0  0  0  0  0  0  0  0  0  0  0
    0.3274   27.6697  -25.1154 H   0  0  0  0  0  0  0  0  0  0  0  0
   -0.6583   24.7918  -25.1842 H   0  0  0  0  0  0  0  0  0  0  0  0
   -1.2461   26.1268  -24.1817 H   0  0  0  0  0  0  0  0  0  0  0  0
   -2.5124   25.2585  -26.4954 H   0  0  0  0  0  0  0  0  0  0  0  0
   -2.6709   26.9173  -25.8858 H   0  0  0  0  0  0  0  0  0  0  0  0
   -4.2846   21.8288  -32.2154 H   0  0  0  0  0  0  0  0  0  0  0  0
   -6.3738   20.6537  -32.9042 H   0  0  0  0  0  0  0  0  0  0  0  0
  1  2  1  0
  2  3  1  0
  3  4  2  0
  4  5  1  0
  5  6  2  0
  6  7  1  0
  7  8  2  0
  7  9  2  0
  7 10  1  0
 10 11  1  0
 11 12  1  0
 12 13  1  0
 13 14  1  0
 14 15  1  0
 15 16  2  0
 15 17  1  0
 17 18  1  0
 18 19  1  0
 19 20  1  0
 20 21  1  0
 21 22  1  0
  6 23  1  0
 23 24  2  0
 24  3  1  0
 14 10  1  0
 22 18  1  0
  1 25  1  0
  1 26  1  0
  1 27  1  0
  4 28  1  0
  5 29  1  0
 10 30  1  1
 11 31  1  0
 11 32  1  0
 12 33  1  0
 12 34  1  0
 14 35  1  1
 18 36  1  0
 19 37  1  0
 19 38  1  0
 20 39  1  0
 20 40  1  0
 21 41  1  0
 21 42  1  0
 22 43  1  0
 22 44  1  0
 23 45  1  0
 24 46  1  0
M  CHG  2  10   1  17  -1
M  END
>  <UniqueID>  (3) 
3

>  <SMILES>  (3) 
COc1ccc(S(=O)(=O)[N@H+]2CCS[C@H]2C(=O)[N-]C2CCCC2)cc1

>  <Energy>  (3) 
45.41065266708182

>  <Genealogy>  (3) 
COc1ccc(S(=O)(=O)[NH+]2CCSC2C(=O)[N-]C2CCCC2)cc1 (protonated)
COc1ccc(S(=O)(=O)[N@H+]2CCS[C@H]2C(=O)[N-]C2CCCC2)cc1 (chirality)
COc1ccc(S(=O)(=O)[N@H+]2CCS[C@H]2C(=O)[N-]C2CCCC2)cc1 (3D coordinates assigned)
COc1ccc(S(=O)(=O)[N@H+]2CCS[C@H]2C(=O)[N-]C2CCCC2)cc1 (nonaromatic ring conformer: 45.41065266708182 kcal/mol)

>  <smiles>  (3) 
COc1ccc(S(=O)(=O)N2CCSC2C(=O)NC2CCCC2)cc1

>  <score_type>  (3) 
oracle

>  <origin>  (3) 
adg

>  <m_score__min__energy>  (3) 
-8.5299999999999994

>  <m_primary>  (3) 
energy

$$$$
3:0
     RDKit          3D

 48 49  0  0  0  0  0  0  0  0999 V2000
   -3.5090   18.5740  -25.9860 C   0  0  0  0  0  0  0  0  0  0  0  0
   -2.1800   18.2180  -26.2970 O   0  0  0  0  0  0  0  0  0  0  0  0
   -1.5940   19.1880  -27.1470 C   0  0  0  0  0  0  0  0  0  0  0  0
   -2.6820   20.0710  -27.7660 C   0  0  0  0  0  0  0  0  0  0  0  0
   -2.1640   21.4350  -28.0010 N   0  0  0  0  0  0  0  0  0  0  0  0
   -1.6190   22.0160  -26.7530 C   0  0  0  0  0  0  0  0  0  0  0  0
   -0.8060   23.3080  -27.0010 C   0  0  0  0  0  0  0  0  0  0  0  0
   -1.1010   23.9390  -28.3750 C   0  0  0  0  0  0  0  0  0  0  0  0
   -2.5240   24.5430  -28.4130 C   0  0  0  0  0  0  0  0  0  0  0  0
   -3.4320   23.6910  -29.1810 N   0  0  0  0  0  0  0  0  0  0  0  0
   -4.0810   24.1280  -30.3880 C   0  0  0  0  0  0  0  0  0  0  0  0
   -3.8810   25.2930  -30.8250 O   0  0  0  0  0  0  0  0  0  0  0  0
   -4.9820   23.2130  -31.1260 C   0  0  0  0  0  0  0  0  0  0  0  0
   -6.3730   23.4100  -31.0520 C   0  0  0  0  0  0  0  0  0  0  0  0
   -7.2580   22.5510  -31.7300 C   0  0  0  0  0  0  0  0  0  0  0  0
   -8.6510   22.7120  -31.6790 O   0  0  0  0  0  0  0  0  0  0  0  0
   -9.5830   21.6390  -31.5950 C   0  0  0  0  0  0  0  0  0  0  0  0
   -6.7420   21.4930  -32.4820 C   0  0  0  0  0  0  0  0  0  0  0  0
   -5.3650   21.2890  -32.5670 C   0  0  0  0  0  0  0  0  0  0  0  0
   -4.4790   22.1400  -31.8970 C   0  0  0  0  0  0  0  0  0  0  0  0
   -2.7520   21.8600  -32.1040 Cl  0  0  0  0  0  0  0  0  0  0  0  0
   -0.8560   22.9040  -29.5040 C   0  0  0  0  0  0  0  0  0  0  0  0
   -1.1460   21.4560  -29.0680 C   0  0  0  0  0  0  0  0  0  0  0  0
   -3.6336   18.6074  -24.8936 H   0  0  0  0  0  0  0  0  0  0  0  0
   -3.7325   19.5637  -26.4109 H   0  0  0  0  0  0  0  0  0  0  0  0
   -4.1973   17.8286  -26.4109 H   0  0  0  0  0  0  0  0  0  0  0  0
   -0.9050   19.8154  -26.5625 H   0  0  0  0  0  0  0  0  0  0  0  0
   -1.0439   18.6772  -27.9511 H   0  0  0  0  0  0  0  0  0  0  0  0
   -3.0022   19.6345  -28.7236 H   0  0  0  0  0  0  0  0  0  0  0  0
   -3.5346   20.1266  -27.0732 H   0  0  0  0  0  0  0  0  0  0  0  0
   -2.4563   22.2510  -26.0794 H   0  0  0  0  0  0  0  0  0  0  0  0
   -0.9372   21.2742  -26.3114 H   0  0  0  0  0  0  0  0  0  0  0  0
   -1.0565   24.0378  -26.2171 H   0  0  0  0  0  0  0  0  0  0  0  0
    0.2606   23.0397  -26.9797 H   0  0  0  0  0  0  0  0  0  0  0  0
   -0.4060   24.7746  -28.5448 H   0  0  0  0  0  0  0  0  0  0  0  0
   -2.9026   24.6380  -27.3846 H   0  0  0  0  0  0  0  0  0  0  0  0
   -2.4744   25.5298  -28.8966 H   0  0  0  0  0  0  0  0  0  0  0  0
   -3.6750   22.7580  -28.7810 H   0  0  0  0  0  0  0  0  0  0  0  0
   -6.7733   24.2446  -30.4577 H   0  0  0  0  0  0  0  0  0  0  0  0
   -9.7829   21.4089  -30.5381 H   0  0  0  0  0  0  0  0  0  0  0  0
  -10.5212   21.9285  -32.0910 H   0  0  0  0  0  0  0  0  0  0  0  0
   -9.1650   20.7506  -32.0910 H   0  0  0  0  0  0  0  0  0  0  0  0
   -7.4275   20.8150  -33.0116 H   0  0  0  0  0  0  0  0  0  0  0  0
   -4.9726   20.4532  -33.1649 H   0  0  0  0  0  0  0  0  0  0  0  0
   -1.5092   23.1514  -30.3538 H   0  0  0  0  0  0  0  0  0  0  0  0
    0.2089   22.9586  -29.7742 H   0  0  0  0  0  0  0  0  0  0  0  0
   -1.5148   20.8841  -29.9323 H   0  0  0  0  0  0  0  0  0  0  0  0
   -0.2182   21.0058  -28.6852 H   0  0  0  0  0  0  0  0  0  0  0  0
  1  2  1  0
  2  3  1  0
  3  4  1  0
  4  5  1  0
  5  6  1  0
  6  7  1  0
  7  8  1  0
  8  9  1  0
  9 10  1  0
 10 11  1  0
 11 12  2  0
 11 13  1  0
 13 14  2  0
 14 15  1  0
 15 16  1  0
 16 17  1  0
 15 18  2  0
 18 19  1  0
 19 20  2  0
 20 21  1  0
  8 22  1  0
 22 23  1  0
 23  5  1  0
 20 13  1  0
  1 24  1  0
  1 25  1  0
  1 26  1  0
  3 27  1  0
  3 28  1  0
  4 29  1  0
  4 30  1  0
  6 31  1  0
  6 32  1  0
  7 33  1  0
  7 34  1  0
  8 35  1  0
  9 36  1  0
  9 37  1  0
 10 38  1  0
 14 39  1  0
 17 40  1  0
 17 41  1  0
 17 42  1  0
 18 43  1  0
 19 44  1  0
 22 45  1  0
 22 46  1  0
 23 47  1  0
 23 48  1  0
M  END
>  <UniqueID>  (4) 
4

>  <SMILES>  (4) 
COCCN1CCC(CNC(=O)c2cc(OC)ccc2Cl)CC1

>  <Energy>  (4) 
56.311680198030515

>  <Genealogy>  (4) 
COCCN1CCC(CNC(=O)c2cc(OC)ccc2Cl)CC1 (3D coordinates assigned)
COCCN1CCC(CNC(=O)c2cc(OC)ccc2Cl)CC1 (nonaromatic ring conformer: 56.311680198030515 kcal/mol)

>  <smiles>  (4) 
COCCN1CCC(CNC(=O)c2cc(OC)ccc2Cl)CC1

>  <score_type>  (4) 
oracle

>  <origin>  (4) 
adg

>  <m_score__min__energy>  (4) 
-8.2100000000000009

>  <m_primary>  (4) 
energy

$$$$
4:0
     RDKit          3D

 40 41  0  0  0  0  0  0  0  0999 V2000
   -5.6170   23.2980  -30.3280 C   0  0  0  0  0  0  0  0  0  0  0  0
   -6.0960   24.0860  -31.5510 C   0  0  0  0  0  0  0  0  0  0  0  0
   -6.3150   23.2170  -32.7230 N   0  0  0  0  0  0  0  0  0  0  0  0
   -7.1980   22.0910  -32.4710 C   0  0  0  0  0  0  0  0  0  0  0  0
   -8.4980   22.3120  -32.1130 N   0  0  0  0  0  0  0  0  0  0  0  0
   -9.3670   21.2980  -31.8490 C   0  0  0  0  0  0  0  0  0  0  0  0
   -8.9320   19.9780  -31.9040 C   0  0  0  0  0  0  0  0  0  0  0  0
   -7.6020   19.7090  -32.2200 C   0  0  0  0  0  0  0  0  0  0  0  0
   -6.7130   20.7570  -32.5160 C   0  0  0  0  0  0  0  0  0  0  0  0
   -5.2880   20.4430  -32.7940 C   0  0  0  0  0  0  0  0  0  0  0  0
   -4.4030   21.1740  -32.2670 O   0  0  0  0  0  0  0  0  0  0  0  0
   -4.8810   19.3270  -33.6280 N   0  0  0  0  0  0  0  0  0  0  0  0
   -3.4590   18.9190  -33.6000 C   0  0  0  0  0  0  0  0  0  0  0  0
   -3.2380   17.4040  -33.4240 C   0  0  0  0  0  0  0  0  0  0  0  0
   -4.0310   16.5380  -34.4190 C   0  0  0  0  0  0  0  0  0  0  0  0
   -5.4600   16.1870  -33.9770 C   0  0  0  0  0  0  0  0  0  0  0  0
   -6.4340   17.3790  -34.0300 C   0  0  0  0  0  0  0  0  0  0  0  0
   -5.8250   18.6950  -34.5740 C   0  0  0  0  0  0  0  0  0  0  0  0
   -5.9325   23.8170  -29.4109 H   0  0  0  0  0  0  0  0  0  0  0  0
   -6.0547   22.2890  -30.3474 H   0  0  0  0  0  0  0  0  0  0  0  0
   -4.5198   23.2221  -30.3474 H   0  0  0  0  0  0  0  0  0  0  0  0
   -7.0421   24.5882  -31.3006 H   0  0  0  0  0  0  0  0  0  0  0  0
   -5.3134   24.8137  -31.8117 H   0  0  0  0  0  0  0  0  0  0  0  0
   -6.6990   23.8120  -33.4940 H   0  0  0  0  0  0  0  0  0  0  0  0
   -5.3910   22.8370  -33.0310 H   0  0  0  0  0  0  0  0  0  0  0  0
  -10.4128   21.5224  -31.5923 H   0  0  0  0  0  0  0  0  0  0  0  0
   -9.6316   19.1541  -31.6999 H   0  0  0  0  0  0  0  0  0  0  0  0
   -7.2449   18.6687  -32.2380 H   0  0  0  0  0  0  0  0  0  0  0  0
   -2.9932   19.2274  -34.5476 H   0  0  0  0  0  0  0  0  0  0  0  0
   -3.0080   19.4074  -32.7236 H   0  0  0  0  0  0  0  0  0  0  0  0
   -2.1669   17.1924  -33.5579 H   0  0  0  0  0  0  0  0  0  0  0  0
   -3.5974   17.1439  -32.4175 H   0  0  0  0  0  0  0  0  0  0  0  0
   -4.0926   17.0831  -35.3725 H   0  0  0  0  0  0  0  0  0  0  0  0
   -3.4894   15.5837  -34.4965 H   0  0  0  0  0  0  0  0  0  0  0  0
   -5.8434   15.3954  -34.6376 H   0  0  0  0  0  0  0  0  0  0  0  0
   -5.4021   15.8652  -32.9267 H   0  0  0  0  0  0  0  0  0  0  0  0
   -7.2795   17.1009  -34.6764 H   0  0  0  0  0  0  0  0  0  0  0  0
   -6.7294   17.5825  -32.9901 H   0  0  0  0  0  0  0  0  0  0  0  0
   -5.2893   18.4736  -35.5089 H   0  0  0  0  0  0  0  0  0  0  0  0
   -6.6537   19.4005  -34.7338 H   0  0  0  0  0  0  0  0  0  0  0  0
  1  2  1  0
  2  3  1  0
  3  4  1  0
  4  5  2  0
  5  6  1  0
  6  7  2  0
  7  8  1  0
  8  9  2  0
  9 10  1  0
 10 11  2  0
 10 12  1  0
 12 13  1  0
 13 14  1  0
 14 15  1  0
 15 16  1  0
 16 17  1  0
 17 18  1  0
  9  4  1  0
 18 12  1  0
  1 19  1  0
  1 20  1  0
  1 21  1  0
  2 22  1  0
  2 23  1  0
  3 24  1  0
  3 25  1  0
  6 26  1  0
  7 27  1  0
  8 28  1  0
 13 29  1  0
 13 30  1  0
 14 31  1  0
 14 32  1  0
 15 33  1  0
 15 34  1  0
 16 35  1  0
 16 36  1  0
 17 37  1  0
 17 38  1  0
 18 39  1  0
 18 40  1  0
M  CHG  1   3   1
M  END
>  <UniqueID>  (5) 
5

>  <SMILES>  (5) 
CC[NH2+]c1ncccc1C(=O)N1CCCCCC1

>  <Energy>  (5) 
52.24688222279067

>  <Genealogy>  (5) 
CC[NH2+]c1ncccc1C(=O)N1CCCCCC1 (protonated)
CC[NH2+]c1ncccc1C(=O)N1CCCCCC1 (3D coordinates assigned)
CC[NH2+]c1ncccc1C(=O)N1CCCCCC1 (nonaromatic ring conformer: 52.24688222279067 kcal/mol)

>  <smiles>  (5) 
CCNc1ncccc1C(=O)N1CCCCCC1

>  <score_type>  (5) 
oracle

>  <origin>  (5) 
adg

>  <m_score__min__energy>  (5) 
-4.3499999999999996

>  <m_primary>  (5) 
energy

$$$$
5:0
     RDKit          3D

 35 37  0  0  0  0  0  0  0  0999 V2000
   -5.5840   14.6620  -33.8480 C   0  0  0  0  0  0  0  0  0  0  0  0
   -6.4750   15.6810  -34.2930 O   0  0  0  0  0  0  0  0  0  0  0  0
   -6.4900   16.9920  -33.7940 C   0  0  0  0  0  0  0  0  0  0  0  0
   -6.9500   17.2020  -32.4900 C   0  0  0  0  0  0  0  0  0  0  0  0
   -6.9860   18.4890  -31.9470 C   0  0  0  0  0  0  0  0  0  0  0  0
   -6.5590   19.5950  -32.7030 C   0  0  0  0  0  0  0  0  0  0  0  0
   -6.5960   20.9640  -32.1270 C   0  0  0  0  0  0  0  0  0  0  0  0
   -7.8200   21.6280  -31.9430 C   0  0  0  0  0  0  0  0  0  0  0  0
   -7.8560   22.9180  -31.4100 C   0  0  0  0  0  0  0  0  0  0  0  0
   -6.6680   23.5730  -31.0570 C   0  0  0  0  0  0  0  0  0  0  0  0
   -5.4360   22.9070  -31.2100 C   0  0  0  0  0  0  0  0  0  0  0  0
   -5.4070   21.6170  -31.7610 C   0  0  0  0  0  0  0  0  0  0  0  0
   -4.1350   23.6050  -30.8810 C   0  0  0  0  0  0  0  0  0  0  0  0
   -4.3230   24.7240  -29.9460 N   0  0  0  0  0  0  0  0  0  0  0  0
   -5.3690   25.6350  -30.4290 C   0  0  0  0  0  0  0  0  0  0  0  0
   -6.7370   24.9440  -30.4340 C   0  0  0  0  0  0  0  0  0  0  0  0
   -6.0960   19.3830  -34.0130 C   0  0  0  0  0  0  0  0  0  0  0  0
   -6.0620   18.0960  -34.5560 C   0  0  0  0  0  0  0  0  0  0  0  0
   -5.5679   14.6436  -32.7483 H   0  0  0  0  0  0  0  0  0  0  0  0
   -5.9242   13.6867  -34.2261 H   0  0  0  0  0  0  0  0  0  0  0  0
   -4.5720   14.8691  -34.2261 H   0  0  0  0  0  0  0  0  0  0  0  0
   -7.2865   16.3462  -31.8864 H   0  0  0  0  0  0  0  0  0  0  0  0
   -7.3512   18.6381  -30.9202 H   0  0  0  0  0  0  0  0  0  0  0  0
   -8.7589   21.1271  -32.2214 H   0  0  0  0  0  0  0  0  0  0  0  0
   -8.8224   23.4233  -31.2662 H   0  0  0  0  0  0  0  0  0  0  0  0
   -4.4416   21.1107  -31.9082 H   0  0  0  0  0  0  0  0  0  0  0  0
   -3.4476   22.8762  -30.4268 H   0  0  0  0  0  0  0  0  0  0  0  0
   -3.7263   24.0136  -31.8170 H   0  0  0  0  0  0  0  0  0  0  0  0
   -4.6030   24.3440  -29.0110 H   0  0  0  0  0  0  0  0  0  0  0  0
   -5.4125   26.5149  -29.7703 H   0  0  0  0  0  0  0  0  0  0  0  0
   -5.1242   25.9369  -31.4580 H   0  0  0  0  0  0  0  0  0  0  0  0
   -7.0908   24.8467  -29.3970 H   0  0  0  0  0  0  0  0  0  0  0  0
   -7.4282   25.5571  -31.0310 H   0  0  0  0  0  0  0  0  0  0  0  0
   -5.7573   20.2381  -34.6163 H   0  0  0  0  0  0  0  0  0  0  0  0
   -5.6992   17.9446  -35.5834 H   0  0  0  0  0  0  0  0  0  0  0  0
  1  2  1  0
  2  3  1  0
  3  4  2  0
  4  5  1  0
  5  6  2  0
  6  7  1  0
  7  8  2  0
  8  9  1  0
  9 10  2  0
 10 11  1  0
 11 12  2  0
 11 13  1  0
 13 14  1  0
 14 15  1  0
 15 16  1  0
  6 17  1  0
 17 18  2  0
 18  3  1  0
 12  7  1  0
 16 10  1  0
  1 19  1  0
  1 20  1  0
  1 21  1  0
  4 22  1  0
  5 23  1  0
  8 24  1  0
  9 25  1  0
 12 26  1  0
 13 27  1  0
 13 28  1  0
 14 29  1  0
 15 30  1  0
 15 31  1  0
 16 32  1  0
 16 33  1  0
 17 34  1  0
 18 35  1  0
M  END
>  <UniqueID>  (6) 
6

>  <SMILES>  (6) 
COc1ccc(-c2ccc3c(c2)CNCC3)cc1

>  <Energy>  (6) 
43.16856745841408

>  <Genealogy>  (6) 
COc1ccc(-c2ccc3c(c2)CNCC3)cc1 (3D coordinates assigned)
COc1ccc(-c2ccc3c(c2)CNCC3)cc1 (nonaromatic ring conformer: 43.16856745841408 kcal/mol)

>  <smiles>  (6) 
COc1ccc(-c2ccc3c(c2)CNCC3)cc1

>  <score_type>  (6) 
oracle

>  <origin>  (6) 
adg

>  <m_score__min__energy>  (6) 
-7.3600000000000003

>  <m_primary>  (6) 
energy

$$$$
6:0
     RDKit          3D

 48 49  0  0  0  0  0  0  0  0999 V2000
   -2.3880   18.3270  -33.8290 C   0  0  0  0  0  0  0  0  0  0  0  0
   -2.2550   18.9680  -32.4480 C   0  0  0  0  0  0  0  0  0  0  0  0
   -2.5570   20.4170  -32.5180 N   0  0  0  0  0  0  0  0  0  0  0  0
   -2.1610   20.9870  -33.8280 C   0  0  0  0  0  0  0  0  0  0  0  0
   -0.6470   21.1870  -33.8860 C   0  0  0  0  0  0  0  0  0  0  0  0
   -1.9410   21.1580  -31.3890 C   0  0  0  0  0  0  0  0  0  0  0  0
   -2.9640   22.1080  -30.7650 C   0  0  0  0  0  0  0  0  0  0  0  0
   -3.7580   22.7520  -31.8040 N   0  0  0  0  0  0  0  0  0  0  0  0
   -4.9910   23.4210  -31.5430 C   0  0  0  0  0  0  0  0  0  0  0  0
   -4.9900   24.6370  -31.2110 O   0  0  0  0  0  0  0  0  0  0  0  0
   -6.2660   22.6990  -31.7330 C   0  0  0  0  0  0  0  0  0  0  0  0
   -7.4570   23.4290  -31.5670 C   0  0  0  0  0  0  0  0  0  0  0  0
   -8.6980   22.8050  -31.6850 C   0  0  0  0  0  0  0  0  0  0  0  0
   -8.7720   21.4460  -31.9730 C   0  0  0  0  0  0  0  0  0  0  0  0
   -7.6040   20.7070  -32.1640 C   0  0  0  0  0  0  0  0  0  0  0  0
   -6.3350   21.3150  -32.0610 C   0  0  0  0  0  0  0  0  0  0  0  0
   -5.1630   20.5390  -32.4070 N   0  0  0  0  0  0  0  0  0  0  0  0
   -5.5640   19.2300  -32.8660 C   0  0  0  0  0  0  0  0  0  0  0  0
   -5.7510   18.1820  -31.9450 C   0  0  0  0  0  0  0  0  0  0  0  0
   -6.1060   16.9030  -32.3900 C   0  0  0  0  0  0  0  0  0  0  0  0
   -6.2670   16.6560  -33.7550 C   0  0  0  0  0  0  0  0  0  0  0  0
   -6.0880   17.6910  -34.6800 C   0  0  0  0  0  0  0  0  0  0  0  0
   -5.7340   18.9710  -34.2390 C   0  0  0  0  0  0  0  0  0  0  0  0
   -2.6103   17.2556  -33.7161 H   0  0  0  0  0  0  0  0  0  0  0  0
   -3.2041   18.8145  -34.3824 H   0  0  0  0  0  0  0  0  0  0  0  0
   -1.4453   18.4495  -34.3824 H   0  0  0  0  0  0  0  0  0  0  0  0
   -2.9591   18.4844  -31.7550 H   0  0  0  0  0  0  0  0  0  0  0  0
   -1.2225   18.8362  -32.0922 H   0  0  0  0  0  0  0  0  0  0  0  0
   -2.4667   20.2990  -34.6300 H   0  0  0  0  0  0  0  0  0  0  0  0
   -2.6549   21.9613  -33.9572 H   0  0  0  0  0  0  0  0  0  0  0  0
   -0.2447   21.2401  -32.8636 H   0  0  0  0  0  0  0  0  0  0  0  0
   -0.1856   20.3420  -34.4181 H   0  0  0  0  0  0  0  0  0  0  0  0
   -0.4209   22.1228  -34.4181 H   0  0  0  0  0  0  0  0  0  0  0  0
   -1.5975   20.4420  -30.6279 H   0  0  0  0  0  0  0  0  0  0  0  0
   -1.0880   21.7426  -31.7641 H   0  0  0  0  0  0  0  0  0  0  0  0
   -3.6301   21.5380  -30.1006 H   0  0  0  0  0  0  0  0  0  0  0  0
   -2.4307   22.8810  -30.1923 H   0  0  0  0  0  0  0  0  0  0  0  0
   -7.4085   24.5045  -31.3415 H   0  0  0  0  0  0  0  0  0  0  0  0
   -9.6207   23.3885  -31.5501 H   0  0  0  0  0  0  0  0  0  0  0  0
   -9.7525   20.9534  -32.0502 H   0  0  0  0  0  0  0  0  0  0  0  0
   -7.6736   19.6345  -32.3984 H   0  0  0  0  0  0  0  0  0  0  0  0
   -4.5830   21.0040  -33.1380 H   0  0  0  0  0  0  0  0  0  0  0  0
   -4.5400   20.4460  -31.5720 H   0  0  0  0  0  0  0  0  0  0  0  0
   -5.6174   18.3691  -30.8693 H   0  0  0  0  0  0  0  0  0  0  0  0
   -6.2584   16.0914  -31.6633 H   0  0  0  0  0  0  0  0  0  0  0  0
   -6.5346   15.6475  -34.1034 H   0  0  0  0  0  0  0  0  0  0  0  0
   -6.2257   17.4982  -35.7542 H   0  0  0  0  0  0  0  0  0  0  0  0
   -5.5877   19.7799  -34.9700 H   0  0  0  0  0  0  0  0  0  0  0  0
  1  2  1  0
  2  3  1  0
  3  4  1  0
  4  5  1  0
  3  6  1  0
  6  7  1  0
  7  8  1  0
  8  9  1  0
  9 10  2  0
  9 11  1  0
 11 12  2  0
 12 13  1  0
 13 14  2  0
 14 15  1  0
 15 16  2  0
 16 17  1  0
 17 18  1  0
 18 19  2  0
 19 20  1  0
 20 21  2  0
 21 22  1  0
 22 23  2  0
 16 11  1  0
 23 18  1  0
  1 24  1  0
  1 25  1  0
  1 26  1  0
  2 27  1  0
  2 28  1  0
  4 29  1  0
  4 30  1  0
  5 31  1  0
  5 32  1  0
  5 33  1  0
  6 34  1  0
  6 35  1  0
  7 36  1  0
  7 37  1  0
 12 38  1  0
 13 39  1  0
 14 40  1  0
 15 41  1  0
 17 42  1  0
 17 43  1  0
 19 44  1  0
 20 45  1  0
 21 46  1  0
 22 47  1  0
 23 48  1  0
M  CHG  2   8  -1  17   1
M  END
>  <UniqueID>  (7) 
7

>  <SMILES>  (7) 
CCN(CC)CC[N-]C(=O)c1ccccc1[NH2+]c1ccccc1

>  <Energy>  (7) 
51.66479822731439

>  <Genealogy>  (7) 
CCN(CC)CC[N-]C(=O)c1ccccc1[NH2+]c1ccccc1 (protonated)
CCN(CC)CC[N-]C(=O)c1ccccc1[NH2+]c1ccccc1 (3D coordinates assigned)
CCN(CC)CC[N-]C(=O)c1ccccc1[NH2+]c1ccccc1 (optimized conformer: 51.66479822731439 kcal/mol)

>  <smiles>  (7) 
CCN(CC)CCNC(=O)c1ccccc1Nc1ccccc1

>  <score_type>  (7) 
oracle

>  <origin>  (7) 
adg

>  <m_score__min__energy>  (7) 
-8.3100000000000005

>  <m_primary>  (7) 
energy

$$$$
7:0
     RDKit          3D

 58 62  0  0  0  0  0  0  0  0999 V2000
   -6.0860   17.0650  -31.7670 C   0  0  0  0  0  0  0  0  0  0  0  0
   -5.1080   16.5300  -32.8060 C   0  0  0  0  0  0  0  0  0  0  0  0
   -3.8300   17.1400  -32.6510 O   0  0  0  0  0  0  0  0  0  0  0  0
   -3.1500   17.7860  -33.6920 C   0  0  0  0  0  0  0  0  0  0  0  0
   -2.3430   17.1480  -34.4220 O   0  0  0  0  0  0  0  0  0  0  0  0
   -3.3380   19.2650  -33.9120 C   0  0  1  0  0  0  0  0  0  0  0  0
   -4.6100   19.8040  -33.2470 C   0  0  2  0  0  0  0  0  0  0  0  0
   -5.9420   19.6150  -33.9650 C   0  0  0  0  0  0  0  0  0  0  0  0
   -7.0650   20.2070  -33.0850 C   0  0  0  0  0  0  0  0  0  0  0  0
   -6.7040   21.5290  -32.4090 C   0  0  0  0  0  0  0  0  0  0  0  0
   -7.7230   22.2650  -31.7870 C   0  0  0  0  0  0  0  0  0  0  0  0
   -7.4460   23.4950  -31.1890 C   0  0  0  0  0  0  0  0  0  0  0  0
   -6.1530   24.0270  -31.2210 C   0  0  0  0  0  0  0  0  0  0  0  0
   -5.9370   25.2860  -30.6390 O   0  0  0  0  0  0  0  0  0  0  0  0
   -6.4320   25.6780  -29.3630 C   0  0  0  0  0  0  0  0  0  0  0  0
   -5.1220   23.2930  -31.8350 C   0  0  0  0  0  0  0  0  0  0  0  0
   -5.3700   22.0130  -32.3590 C   0  0  0  0  0  0  0  0  0  0  0  0
   -4.3020   21.2790  -33.1320 C   0  0  1  0  0  0  0  0  0  0  0  0
   -2.9330   21.2780  -32.6260 N   0  0  0  0  0  0  0  0  0  0  0  0
   -2.5850   21.1990  -31.2330 C   0  0  0  0  0  0  0  0  0  0  0  0
   -3.1110   21.9170  -30.3430 O   0  0  0  0  0  0  0  0  0  0  0  0
   -1.6490   20.1740  -30.9400 N   0  0  0  0  0  0  0  0  0  0  0  0
   -1.2430   19.7160  -29.6390 C   0  0  0  0  0  0  0  0  0  0  0  0
   -0.1060   18.9030  -29.4880 C   0  0  0  0  0  0  0  0  0  0  0  0
    0.2800   18.4570  -28.2210 C   0  0  0  0  0  0  0  0  0  0  0  0
   -0.4620   18.8180  -27.0940 C   0  0  0  0  0  0  0  0  0  0  0  0
   -1.5940   19.6240  -27.2330 C   0  0  0  0  0  0  0  0  0  0  0  0
   -1.9850   20.0720  -28.4990 C   0  0  0  0  0  0  0  0  0  0  0  0
   -1.4180   19.5450  -32.1900 C   0  0  0  0  0  0  0  0  0  0  0  0
   -0.5830   18.6130  -32.3530 O   0  0  0  0  0  0  0  0  0  0  0  0
   -2.2150   20.1800  -33.3030 C   0  0  1  0  0  0  0  0  0  0  0  0
   -1.2780   20.7480  -34.3770 C   0  0  0  0  0  0  0  0  0  0  0  0
   -5.7010   16.8544  -30.7583 H   0  0  0  0  0  0  0  0  0  0  0  0
   -6.2005   18.1514  -31.8963 H   0  0  0  0  0  0  0  0  0  0  0  0
   -7.0625   16.5755  -31.8963 H   0  0  0  0  0  0  0  0  0  0  0  0
   -5.0069   15.4418  -32.6811 H   0  0  0  0  0  0  0  0  0  0  0  0
   -5.4934   16.7631  -33.8096 H   0  0  0  0  0  0  0  0  0  0  0  0
   -3.3491   19.3190  -35.0106 H   0  0  0  0  0  0  0  0  0  0  0  0
   -4.7894   19.2428  -32.3181 H   0  0  0  0  0  0  0  0  0  0  0  0
   -5.9176   20.1350  -34.9340 H   0  0  0  0  0  0  0  0  0  0  0  0
   -6.1262   18.5446  -34.1393 H   0  0  0  0  0  0  0  0  0  0  0  0
   -7.9477   20.3745  -33.7196 H   0  0  0  0  0  0  0  0  0  0  0  0
   -7.2490   19.4813  -32.2791 H   0  0  0  0  0  0  0  0  0  0  0  0
   -8.7492   21.8693  -31.7704 H   0  0  0  0  0  0  0  0  0  0  0  0
   -8.2519   24.0512  -30.6879 H   0  0  0  0  0  0  0  0  0  0  0  0
   -5.8308   25.2019  -28.5744 H   0  0  0  0  0  0  0  0  0  0  0  0
   -6.3662   26.7716  -29.2643 H   0  0  0  0  0  0  0  0  0  0  0  0
   -7.4814   25.3634  -29.2643 H   0  0  0  0  0  0  0  0  0  0  0  0
   -4.1128   23.7248  -31.9056 H   0  0  0  0  0  0  0  0  0  0  0  0
   -4.3334   21.8626  -34.0639 H   0  0  0  0  0  0  0  0  0  0  0  0
    0.4829   18.6164  -30.3718 H   0  0  0  0  0  0  0  0  0  0  0  0
    1.1702   17.8202  -28.1111 H   0  0  0  0  0  0  0  0  0  0  0  0
   -0.1549   18.4676  -26.0975 H   0  0  0  0  0  0  0  0  0  0  0  0
   -2.1790   19.9070  -26.3455 H   0  0  0  0  0  0  0  0  0  0  0  0
   -2.8777   20.7062  -28.6033 H   0  0  0  0  0  0  0  0  0  0  0  0
   -0.4333   21.2601  -33.8930 H   0  0  0  0  0  0  0  0  0  0  0  0
   -0.8989   19.9275  -35.0040 H   0  0  0  0  0  0  0  0  0  0  0  0
   -1.8301   21.4636  -35.0040 H   0  0  0  0  0  0  0  0  0  0  0  0
  1  2  1  0
  2  3  1  0
  3  4  1  0
  4  5  2  0
  4  6  1  0
  6  7  1  0
  7  8  1  0
  8  9  1  0
  9 10  1  0
 10 11  2  0
 11 12  1  0
 12 13  2  0
 13 14  1  0
 14 15  1  0
 13 16  1  0
 16 17  2  0
 17 18  1  0
 18 19  1  0
 19 20  1  0
 20 21  2  0
 20 22  1  0
 22 23  1  0
 23 24  2  0
 24 25  1  0
 25 26  2  0
 26 27  1  0
 27 28  2  0
 22 29  1  0
 29 30  2  0
 29 31  1  0
 31 32  1  6
 31  6  1  0
 18  7  1  0
 31 19  1  0
 17 10  1  0
 28 23  1  0
  1 33  1  0
  1 34  1  0
  1 35  1  0
  2 36  1  0
  2 37  1  0
  6 38  1  6
  7 39  1  1
  8 40  1  0
  8 41  1  0
  9 42  1  0
  9 43  1  0
 11 44  1  0
 12 45  1  0
 15 46  1  0
 15 47  1  0
 15 48  1  0
 16 49  1  0
 18 50  1  6
 24 51  1  0
 25 52  1  0
 26 53  1  0
 27 54  1  0
 28 55  1  0
 32 56  1  0
 32 57  1  0
 32 58  1  0
M  END
>  <UniqueID>  (8) 
8

>  <SMILES>  (8) 
CCOC(=O)[C@H]1[C@@H]2CCc3ccc(OC)cc3C2N2C(=O)N(c3ccccc3)C(=O)C12C

>  <Energy>  (8) 
106.78592042848514

>  <Genealogy>  (8) 
CCOC(=O)[C@H]1[C@@H]2CCc3ccc(OC)cc3C2N2C(=O)N(c3ccccc3)C(=O)C12C (chirality)
CCOC(=O)[C@H]1[C@@H]2CCc3ccc(OC)cc3C2N2C(=O)N(c3ccccc3)C(=O)C12C (3D coordinates assigned)
CCOC(=O)[C@H]1[C@@H]2CCc3ccc(OC)cc3C2N2C(=O)N(c3ccccc3)C(=O)C12C (nonaromatic ring conformer: 106.78592042848514 kcal/mol)

>  <smiles>  (8) 
CCOC(=O)C1C2CCc3ccc(OC)cc3C2N2C(=O)N(c3ccccc3)C(=O)C12C

>  <score_type>  (8) 
oracle

>  <origin>  (8) 
adg

>  <m_score__min__energy>  (8) 
-8.4000000000000004

>  <m_primary>  (8) 
energy

$$$$
8:0
     RDKit          3D

 32 33  0  0  0  0  0  0  0  0999 V2000
   -9.0740   22.8650  -31.9700 C   0  0  0  0  0  0  0  0  0  0  0  0
   -7.5890   23.0820  -32.2350 C   0  0  0  0  0  0  0  0  0  0  0  0
   -6.7940   22.0230  -31.5960 N   0  0  0  0  0  0  0  0  0  0  0  0
   -6.0190   22.3080  -30.3830 C   0  0  0  0  0  0  0  0  0  0  0  0
   -5.3940   23.6640  -30.4840 C   0  0  0  0  0  0  0  0  0  0  0  0
   -4.0480   23.9290  -30.5400 C   0  0  0  0  0  0  0  0  0  0  0  0
   -3.8700   25.2620  -30.5400 N   0  0  0  0  0  0  0  0  0  0  0  0
   -5.1220   25.7620  -30.4730 C   0  0  0  0  0  0  0  0  0  0  0  0
   -6.0830   24.8160  -30.4270 N   0  0  0  0  0  0  0  0  0  0  0  0
   -6.7160   20.7180  -32.1990 C   0  0  0  0  0  0  0  0  0  0  0  0
   -5.6730   20.4110  -33.0880 C   0  0  0  0  0  0  0  0  0  0  0  0
   -5.5990   19.1470  -33.6790 C   0  0  0  0  0  0  0  0  0  0  0  0
   -6.5750   18.1780  -33.4030 C   0  0  0  0  0  0  0  0  0  0  0  0
   -6.4740   16.8090  -34.0090 C   0  0  0  0  0  0  0  0  0  0  0  0
   -7.6070   18.4770  -32.5020 C   0  0  0  0  0  0  0  0  0  0  0  0
   -7.6810   19.7410  -31.9090 C   0  0  0  0  0  0  0  0  0  0  0  0
   -9.2528   22.8389  -30.8849 H   0  0  0  0  0  0  0  0  0  0  0  0
   -9.6504   23.6885  -32.4169 H   0  0  0  0  0  0  0  0  0  0  0  0
   -9.3906   21.9110  -32.4169 H   0  0  0  0  0  0  0  0  0  0  0  0
   -7.4084   23.0661  -33.3200 H   0  0  0  0  0  0  0  0  0  0  0  0
   -7.2902   24.0543  -31.8162 H   0  0  0  0  0  0  0  0  0  0  0  0
   -6.6860   22.2781  -29.5088 H   0  0  0  0  0  0  0  0  0  0  0  0
   -5.2275   21.5520  -30.2733 H   0  0  0  0  0  0  0  0  0  0  0  0
   -3.2475   23.1755  -30.5785 H   0  0  0  0  0  0  0  0  0  0  0  0
   -5.3387   26.8403  -30.4574 H   0  0  0  0  0  0  0  0  0  0  0  0
   -4.9107   21.1693  -33.3202 H   0  0  0  0  0  0  0  0  0  0  0  0
   -4.7714   18.9107  -34.3640 H   0  0  0  0  0  0  0  0  0  0  0  0
   -6.4185   16.0568  -33.2083 H   0  0  0  0  0  0  0  0  0  0  0  0
   -7.3604   16.6172  -34.6315 H   0  0  0  0  0  0  0  0  0  0  0  0
   -5.5690   16.7494  -34.6315 H   0  0  0  0  0  0  0  0  0  0  0  0
   -8.3616   17.7138  -32.2607 H   0  0  0  0  0  0  0  0  0  0  0  0
   -8.4999   19.9710  -31.2115 H   0  0  0  0  0  0  0  0  0  0  0  0
  1  2  1  0
  2  3  1  0
  3  4  1  0
  4  5  1  0
  5  6  2  0
  6  7  1  0
  7  8  1  0
  8  9  2  0
  3 10  1  0
 10 11  2  0
 11 12  1  0
 12 13  2  0
 13 14  1  0
 13 15  1  0
 15 16  2  0
  9  5  1  0
 16 10  1  0
  1 17  1  0
  1 18  1  0
  1 19  1  0
  2 20  1  0
  2 21  1  0
  4 22  1  0
  4 23  1  0
  6 24  1  0
  8 25  1  0
 11 26  1  0
 12 27  1  0
 14 28  1  0
 14 29  1  0
 14 30  1  0
 15 31  1  0
 16 32  1  0
M  CHG  1   7  -1
M  END
>  <UniqueID>  (9) 
9

>  <SMILES>  (9) 
CCN(Cc1c[n-]cn1)c1ccc(C)cc1

>  <Energy>  (9) 
57.4055053834162

>  <Genealogy>  (9) 
CCN(Cc1c[n-]cn1)c1ccc(C)cc1 (protonated)
CCN(Cc1c[n-]cn1)c1ccc(C)cc1 (3D coordinates assigned)
CCN(Cc1c[n-]cn1)c1ccc(C)cc1 (optimized conformer: 57.4055053834162 kcal/mol)

>  <smiles>  (9) 
CCN(Cc1c[nH]cn1)c1ccc(C)cc1

>  <score_type>  (9) 
oracle

>  <origin>  (9) 
adg

>  <m_score__min__energy>  (9) 
-7.5499999999999998

>  <m_primary>  (9) 
energy

$$$$
9:0
     RDKit          3D

 36 38  0  0  0  0  0  0  0  0999 V2000
  -10.0540   20.8640  -32.3320 C   0  0  0  0  0  0  0  0  0  0  0  0
   -9.4560   21.7140  -31.2120 C   0  0  0  0  0  0  0  0  0  0  0  0
   -8.0610   21.2330  -30.7820 C   0  0  0  0  0  0  0  0  0  0  0  0
   -7.0570   21.4240  -31.8440 N   0  0  0  0  0  0  0  0  0  0  0  0
   -6.6180   22.7630  -32.0980 C   0  0  0  0  0  0  0  0  0  0  0  0
   -7.2270   23.4800  -32.9360 O   0  0  0  0  0  0  0  0  0  0  0  0
   -5.5400   23.3290  -31.2800 C   0  0  0  0  0  0  0  0  0  0  0  0
   -5.7830   24.4510  -30.4740 C   0  0  0  0  0  0  0  0  0  0  0  0
   -4.8090   24.8880  -29.5710 C   0  0  0  0  0  0  0  0  0  0  0  0
   -3.5920   24.2060  -29.4720 C   0  0  0  0  0  0  0  0  0  0  0  0
   -3.3380   23.1030  -30.2920 C   0  0  0  0  0  0  0  0  0  0  0  0
   -4.3070   22.6680  -31.2020 C   0  0  0  0  0  0  0  0  0  0  0  0
   -3.8920   21.4460  -32.3910 S   0  0  0  0  0  0  0  0  0  0  0  0
   -3.4770   22.1770  -33.8460 O   0  0  0  0  0  0  0  0  0  0  0  0
   -5.0500   20.1450  -32.6650 C   0  0  0  0  0  0  0  0  0  0  0  0
   -4.5250   18.9410  -33.1540 C   0  0  0  0  0  0  0  0  0  0  0  0
   -5.3670   17.8980  -33.5400 C   0  0  0  0  0  0  0  0  0  0  0  0
   -6.7480   18.0530  -33.4540 C   0  0  0  0  0  0  0  0  0  0  0  0
   -7.2880   19.2360  -32.9490 C   0  0  0  0  0  0  0  0  0  0  0  0
   -6.4570   20.2880  -32.5120 C   0  0  0  0  0  0  0  0  0  0  0  0
  -10.6349   20.0383  -31.8953 H   0  0  0  0  0  0  0  0  0  0  0  0
  -10.7134   21.4877  -32.9535 H   0  0  0  0  0  0  0  0  0  0  0  0
   -9.2442   20.4541  -32.9535 H   0  0  0  0  0  0  0  0  0  0  0  0
   -9.3770   22.7535  -31.5631 H   0  0  0  0  0  0  0  0  0  0  0  0
  -10.1203   21.6285  -30.3394 H   0  0  0  0  0  0  0  0  0  0  0  0
   -7.7488   21.8000  -29.8926 H   0  0  0  0  0  0  0  0  0  0  0  0
   -8.1255   20.1563  -30.5665 H   0  0  0  0  0  0  0  0  0  0  0  0
   -6.7402   24.9873  -30.5524 H   0  0  0  0  0  0  0  0  0  0  0  0
   -4.9998   25.7677  -28.9388 H   0  0  0  0  0  0  0  0  0  0  0  0
   -2.8336   24.5381  -28.7477 H   0  0  0  0  0  0  0  0  0  0  0  0
   -2.3748   22.5764  -30.2216 H   0  0  0  0  0  0  0  0  0  0  0  0
   -2.7770   21.5940  -34.2310 H   0  0  0  0  0  0  0  0  0  0  0  0
   -3.4350   18.8169  -33.2344 H   0  0  0  0  0  0  0  0  0  0  0  0
   -4.9406   16.9546  -33.9117 H   0  0  0  0  0  0  0  0  0  0  0  0
   -7.4137   17.2421  -33.7845 H   0  0  0  0  0  0  0  0  0  0  0  0
   -8.3805   19.3501  -32.8907 H   0  0  0  0  0  0  0  0  0  0  0  0
  1  2  1  0
  2  3  1  0
  3  4  1  0
  4  5  1  0
  5  6  2  0
  5  7  1  0
  7  8  2  0
  8  9  1  0
  9 10  2  0
 10 11  1  0
 11 12  2  0
 12 13  1  0
 13 14  1  6
 13 15  1  0
 15 16  2  0
 16 17  1  0
 17 18  2  0
 18 19  1  0
 19 20  2  0
 20  4  1  0
 12  7  1  0
 20 15  1  0
  1 21  1  0
  1 22  1  0
  1 23  1  0
  2 24  1  0
  2 25  1  0
  3 26  1  0
  3 27  1  0
  8 28  1  0
  9 29  1  0
 10 30  1  0
 11 31  1  0
 14 32  1  0
 16 33  1  0
 17 34  1  0
 18 35  1  0
 19 36  1  0
M  CHG  1  13   1
M  END
>  <UniqueID>  (10) 
10

>  <SMILES>  (10) 
CCCN1C(=O)c2ccccc2[S@+](O)c2ccccc21

>  <Energy>  (10) 
59.30116643794453

>  <Genealogy>  (10) 
CCCN1C(=O)c2ccccc2[S+](O)c2ccccc21 (protonated)
CCCN1C(=O)c2ccccc2[S@+](O)c2ccccc21 (chirality)
CCCN1C(=O)c2ccccc2[S@+](O)c2ccccc21 (3D coordinates assigned)
CCCN1C(=O)c2ccccc2[S@+](O)c2ccccc21 (nonaromatic ring conformer: 59.30116643794453 kcal/mol)

>  <smiles>  (10) 
CCCN1C(=O)c2ccccc2[S+]([O-])c2ccccc21

>  <score_type>  (10) 
oracle

>  <origin>  (10) 
adg

>  <m_score__min__energy>  (10) 
-7.1100000000000003

>  <m_primary>  (10) 
energy

$$$$
10:0
     RDKit          3D

 37 38  0  0  0  0  0  0  0  0999 V2000
   -2.3720   24.7950  -28.4990 C   0  0  0  0  0  0  0  0  0  0  0  0
   -3.0580   24.9270  -29.7390 O   0  0  0  0  0  0  0  0  0  0  0  0
   -3.6070   23.8570  -30.4640 C   0  0  0  0  0  0  0  0  0  0  0  0
   -2.8000   22.8750  -31.0670 C   0  0  0  0  0  0  0  0  0  0  0  0
   -3.3800   21.8160  -31.7640 C   0  0  0  0  0  0  0  0  0  0  0  0
   -4.7750   21.7170  -31.8830 C   0  0  0  0  0  0  0  0  0  0  0  0
   -5.3860   20.5430  -32.6240 C   0  0  0  0  0  0  0  0  0  0  0  0
   -6.5270   19.9480  -31.8850 N   0  0  0  0  0  0  0  0  0  0  0  0
   -7.7500   20.0020  -32.7220 C   0  0  0  0  0  0  0  0  0  0  0  0
   -8.7850   18.9640  -32.2540 C   0  0  0  0  0  0  0  0  0  0  0  0
   -8.3260   17.6190  -32.3200 O   0  0  0  0  0  0  0  0  0  0  0  0
   -6.9110   17.4970  -32.2860 C   0  0  0  0  0  0  0  0  0  0  0  0
   -6.2310   18.5670  -31.4130 C   0  0  0  0  0  0  0  0  0  0  0  0
   -5.5890   22.7130  -31.3080 C   0  0  0  0  0  0  0  0  0  0  0  0
   -6.9780   22.6420  -31.4390 O   0  0  0  0  0  0  0  0  0  0  0  0
   -7.6810   23.4480  -32.3760 C   0  0  0  0  0  0  0  0  0  0  0  0
   -5.0020   23.7690  -30.5850 C   0  0  0  0  0  0  0  0  0  0  0  0
   -6.1080   25.0760  -29.7170 Br  0  0  0  0  0  0  0  0  0  0  0  0
   -3.0826   24.9317  -27.6705 H   0  0  0  0  0  0  0  0  0  0  0  0
   -1.9213   23.7937  -28.4341 H   0  0  0  0  0  0  0  0  0  0  0  0
   -1.5819   25.5576  -28.4341 H   0  0  0  0  0  0  0  0  0  0  0  0
   -1.7050   22.9431  -30.9881 H   0  0  0  0  0  0  0  0  0  0  0  0
   -2.7382   21.0508  -32.2251 H   0  0  0  0  0  0  0  0  0  0  0  0
   -5.7414   20.8895  -33.6056 H   0  0  0  0  0  0  0  0  0  0  0  0
   -4.6112   19.7694  -32.7298 H   0  0  0  0  0  0  0  0  0  0  0  0
   -6.7170   20.5380  -31.0390 H   0  0  0  0  0  0  0  0  0  0  0  0
   -8.1909   21.0072  -32.6502 H   0  0  0  0  0  0  0  0  0  0  0  0
   -7.4729   19.7761  -33.7623 H   0  0  0  0  0  0  0  0  0  0  0  0
   -9.0518   19.1877  -31.2105 H   0  0  0  0  0  0  0  0  0  0  0  0
   -9.6441   19.0410  -32.9366 H   0  0  0  0  0  0  0  0  0  0  0  0
   -6.6551   16.5049  -31.8857 H   0  0  0  0  0  0  0  0  0  0  0  0
   -6.5462   17.6341  -33.3147 H   0  0  0  0  0  0  0  0  0  0  0  0
   -6.5902   18.4613  -30.3787 H   0  0  0  0  0  0  0  0  0  0  0  0
   -5.1435   18.4139  -31.4762 H   0  0  0  0  0  0  0  0  0  0  0  0
   -8.3115   24.1709  -31.8376 H   0  0  0  0  0  0  0  0  0  0  0  0
   -6.9608   23.9887  -33.0077 H   0  0  0  0  0  0  0  0  0  0  0  0
   -8.3145   22.8080  -33.0077 H   0  0  0  0  0  0  0  0  0  0  0  0
  1  2  1  0
  2  3  1  0
  3  4  2  0
  4  5  1  0
  5  6  2  0
  6  7  1  0
  7  8  1  0
  8  9  1  0
  9 10  1  0
 10 11  1  0
 11 12  1  0
 12 13  1  0
  6 14  1  0
 14 15  1  0
 15 16  1  0
 14 17  2  0
 17 18  1  0
 17  3  1  0
 13  8  1  0
  1 19  1  0
  1 20  1  0
  1 21  1  0
  4 22  1  0
  5 23  1  0
  7 24  1  0
  7 25  1  0
  8 26  1  0
  9 27  1  0
  9 28  1  0
 10 29  1  0
 10 30  1  0
 12 31  1  0
 12 32  1  0
 13 33  1  0
 13 34  1  0
 16 35  1  0
 16 36  1  0
 16 37  1  0
M  CHG  1   8   1
M  END
>  <UniqueID>  (11) 
11

>  <SMILES>  (11) 
COc1ccc(C[NH+]2CCOCC2)c(OC)c1Br

>  <Energy>  (11) 
57.948661080186476

>  <Genealogy>  (11) 
COc1ccc(C[NH+]2CCOCC2)c(OC)c1Br (protonated)
COc1ccc(C[NH+]2CCOCC2)c(OC)c1Br (3D coordinates assigned)
COc1ccc(C[NH+]2CCOCC2)c(OC)c1Br (nonaromatic ring conformer: 57.948661080186476 kcal/mol)

>  <smiles>  (11) 
COc1ccc(CN2CCOCC2)c(OC)c1Br

>  <score_type>  (11) 
oracle

>  <origin>  (11) 
adg

>  <m_score__min__energy>  (11) 
-5.6500000000000004

>  <m_primary>  (11) 
energy

$$$$
11:0
     RDKit          3D

 38 39  0  0  0  0  0  0  0  0999 V2000
   -3.7550   22.0020  -32.6200 C   0  0  0  0  0  0  0  0  0  0  0  0
   -3.6070   23.0100  -31.6260 O   0  0  0  0  0  0  0  0  0  0  0  0
   -3.4470   22.7640  -30.2530 C   0  0  0  0  0  0  0  0  0  0  0  0
   -2.7670   21.6190  -29.7890 C   0  0  0  0  0  0  0  0  0  0  0  0
   -2.6280   21.3820  -28.4210 C   0  0  0  0  0  0  0  0  0  0  0  0
   -3.1620   22.2790  -27.4980 C   0  0  0  0  0  0  0  0  0  0  0  0
   -3.8360   23.4190  -27.9390 C   0  0  0  0  0  0  0  0  0  0  0  0
   -3.9790   23.6820  -29.3150 C   0  0  0  0  0  0  0  0  0  0  0  0
   -4.7350   24.9280  -29.7490 C   0  0  1  0  0  0  0  0  0  0  0  0
   -4.0490   25.5920  -30.7830 O   0  0  0  0  0  0  0  0  0  0  0  0
   -6.1970   24.5970  -30.1170 C   0  0  0  0  0  0  0  0  0  0  0  0
   -6.2520   23.7250  -31.2890 N   0  0  0  0  0  0  0  0  0  0  0  0
   -7.1800   22.6380  -31.4010 C   0  0  0  0  0  0  0  0  0  0  0  0
   -7.9680   22.3700  -30.4530 O   0  0  0  0  0  0  0  0  0  0  0  0
   -7.1800   21.7750  -32.6240 C   0  0  0  0  0  0  0  0  0  0  0  0
   -7.6860   20.4460  -32.2950 N   0  0  0  0  0  0  0  0  0  0  0  0
   -8.9800   20.0750  -32.2480 C   0  0  0  0  0  0  0  0  0  0  0  0
   -9.0670   18.7250  -31.9730 C   0  0  0  0  0  0  0  0  0  0  0  0
   -7.7700   18.2610  -31.8570 C   0  0  0  0  0  0  0  0  0  0  0  0
   -6.9420   19.3460  -32.0680 C   0  0  0  0  0  0  0  0  0  0  0  0
   -3.8983   21.0258  -32.1337 H   0  0  0  0  0  0  0  0  0  0  0  0
   -4.6291   22.2311  -33.2472 H   0  0  0  0  0  0  0  0  0  0  0  0
   -2.8519   21.9701  -33.2472 H   0  0  0  0  0  0  0  0  0  0  0  0
   -2.3425   20.9066  -30.5117 H   0  0  0  0  0  0  0  0  0  0  0  0
   -2.0959   20.4854  -28.0705 H   0  0  0  0  0  0  0  0  0  0  0  0
   -3.0522   22.0884  -26.4202 H   0  0  0  0  0  0  0  0  0  0  0  0
   -4.2598   24.1192  -27.2041 H   0  0  0  0  0  0  0  0  0  0  0  0
   -4.7813   25.6235  -28.8980 H   0  0  0  0  0  0  0  0  0  0  0  0
   -3.5360   24.9270  -31.3110 H   0  0  0  0  0  0  0  0  0  0  0  0
   -6.6769   24.0897  -29.2671 H   0  0  0  0  0  0  0  0  0  0  0  0
   -6.7232   25.5345  -30.3497 H   0  0  0  0  0  0  0  0  0  0  0  0
   -5.5480   23.8690  -32.0480 H   0  0  0  0  0  0  0  0  0  0  0  0
   -7.8231   22.2303  -33.3915 H   0  0  0  0  0  0  0  0  0  0  0  0
   -6.1517   21.6867  -33.0046 H   0  0  0  0  0  0  0  0  0  0  0  0
   -9.8374   20.7460  -32.4049 H   0  0  0  0  0  0  0  0  0  0  0  0
   -9.9886   18.1339  -31.8669 H   0  0  0  0  0  0  0  0  0  0  0  0
   -7.4582   17.2289  -31.6391 H   0  0  0  0  0  0  0  0  0  0  0  0
   -5.8425   19.3165  -32.0530 H   0  0  0  0  0  0  0  0  0  0  0  0
  1  2  1  0
  2  3  1  0
  3  4  2  0
  4  5  1  0
  5  6  2  0
  6  7  1  0
  7  8  2  0
  8  9  1  0
  9 10  1  0
  9 11  1  0
 11 12  1  0
 12 13  1  0
 13 14  2  0
 13 15  1  0
 15 16  1  0
 16 17  1  0
 17 18  2  0
 18 19  1  0
 19 20  2  0
  8  3  1  0
 20 16  1  0
  1 21  1  0
  1 22  1  0
  1 23  1  0
  4 24  1  0
  5 25  1  0
  6 26  1  0
  7 27  1  0
  9 28  1  1
 10 29  1  0
 11 30  1  0
 11 31  1  0
 12 32  1  0
 15 33  1  0
 15 34  1  0
 17 35  1  0
 18 36  1  0
 19 37  1  0
 20 38  1  0
M  END
>  <UniqueID>  (12) 
12

>  <SMILES>  (12) 
COc1ccccc1[C@@H](O)CNC(=O)Cn1cccc1

>  <Energy>  (12) 
60.11715639355371

>  <Genealogy>  (12) 
COc1ccccc1[C@@H](O)CNC(=O)Cn1cccc1 (chirality)
COc1ccccc1[C@@H](O)CNC(=O)Cn1cccc1 (3D coordinates assigned)
COc1ccccc1[C@@H](O)CNC(=O)Cn1cccc1 (optimized conformer: 60.11715639355371 kcal/mol)

>  <smiles>  (12) 
COc1ccccc1C(O)CNC(=O)Cn1cccc1

>  <score_type>  (12) 
oracle

>  <origin>  (12) 
adg

>  <m_score__min__energy>  (12) 
-7.6799999999999997

>  <m_primary>  (12) 
energy

$$$$
12:0
     RDKit          3D

 49 53  0  0  0  0  0  0  0  0999 V2000
   -2.2070   24.7180  -28.9420 C   0  0  0  0  0  0  0  0  0  0  0  0
   -3.0840   24.9220  -30.0450 O   0  0  0  0  0  0  0  0  0  0  0  0
   -3.9580   23.9500  -30.5540 C   0  0  0  0  0  0  0  0  0  0  0  0
   -3.5180   22.6700  -30.9440 C   0  0  0  0  0  0  0  0  0  0  0  0
   -4.4210   21.7340  -31.4700 C   0  0  0  0  0  0  0  0  0  0  0  0
   -5.7750   22.0790  -31.6100 C   0  0  0  0  0  0  0  0  0  0  0  0
   -6.6890   21.1590  -32.1510 C   0  0  0  0  0  0  0  0  0  0  0  0
   -8.0590   21.4070  -32.0590 C   0  0  0  0  0  0  0  0  0  0  0  0
   -8.5230   22.6430  -31.5920 C   0  0  0  0  0  0  0  0  0  0  0  0
   -7.6110   23.6180  -31.1730 C   0  0  0  0  0  0  0  0  0  0  0  0
   -6.2360   23.3350  -31.1520 C   0  0  0  0  0  0  0  0  0  0  0  0
   -5.3170   24.2690  -30.6540 C   0  0  0  0  0  0  0  0  0  0  0  0
   -8.9830   20.2760  -32.3920 C   0  0  0  0  0  0  0  0  0  0  0  0
   -8.3630   18.9740  -31.8400 C   0  0  0  0  0  0  0  0  0  0  0  0
   -6.9870   18.6850  -32.3700 N   0  0  1  0  0  0  0  0  0  0  0  0
   -7.0580   17.6420  -33.4310 C   0  0  0  0  0  0  0  0  0  0  0  0
   -5.7470   16.9060  -33.5940 C   0  0  0  0  0  0  0  0  0  0  0  0
   -4.9810   17.0530  -34.7620 C   0  0  0  0  0  0  0  0  0  0  0  0
   -3.7720   16.3640  -34.9040 C   0  0  0  0  0  0  0  0  0  0  0  0
   -3.3190   15.5260  -33.8820 C   0  0  0  0  0  0  0  0  0  0  0  0
   -4.0730   15.3770  -32.7140 C   0  0  0  0  0  0  0  0  0  0  0  0
   -5.2810   16.0640  -32.5680 C   0  0  0  0  0  0  0  0  0  0  0  0
   -6.2630   19.8950  -32.8800 C   0  0  2  0  0  0  0  0  0  0  0  0
   -4.7150   19.7170  -32.9180 C   0  0  0  0  0  0  0  0  0  0  0  0
   -3.9970   20.3090  -31.7030 C   0  0  0  0  0  0  0  0  0  0  0  0
   -2.7637   24.8475  -28.0021 H   0  0  0  0  0  0  0  0  0  0  0  0
   -1.7934   23.6997  -28.9859 H   0  0  0  0  0  0  0  0  0  0  0  0
   -1.3864   25.4492  -28.9859 H   0  0  0  0  0  0  0  0  0  0  0  0
   -2.4567   22.4019  -30.8351 H   0  0  0  0  0  0  0  0  0  0  0  0
   -9.6032   22.8472  -31.5546 H   0  0  0  0  0  0  0  0  0  0  0  0
   -7.9722   24.6085  -30.8593 H   0  0  0  0  0  0  0  0  0  0  0  0
   -5.6676   25.2628  -30.3386 H   0  0  0  0  0  0  0  0  0  0  0  0
   -9.9653   20.4476  -31.9277 H   0  0  0  0  0  0  0  0  0  0  0  0
   -9.1192   20.2022  -33.4810 H   0  0  0  0  0  0  0  0  0  0  0  0
   -8.3026   19.0559  -30.7447 H   0  0  0  0  0  0  0  0  0  0  0  0
   -9.0117   18.1474  -32.1654 H   0  0  0  0  0  0  0  0  0  0  0  0
   -6.4240   18.3080  -31.5700 H   0  0  0  0  0  0  0  0  0  0  0  0
   -7.8409   16.9170  -33.1638 H   0  0  0  0  0  0  0  0  0  0  0  0
   -7.2860   18.1428  -34.3835 H   0  0  0  0  0  0  0  0  0  0  0  0
   -5.3333   17.7128  -35.5686 H   0  0  0  0  0  0  0  0  0  0  0  0
   -3.1770   16.4821  -35.8216 H   0  0  0  0  0  0  0  0  0  0  0  0
   -2.3690   14.9834  -33.9963 H   0  0  0  0  0  0  0  0  0  0  0  0
   -3.7149   14.7182  -31.9092 H   0  0  0  0  0  0  0  0  0  0  0  0
   -5.8702   15.9459  -31.6466 H   0  0  0  0  0  0  0  0  0  0  0  0
   -6.5669   20.0134  -33.9305 H   0  0  0  0  0  0  0  0  0  0  0  0
   -4.4903   18.6412  -32.9639 H   0  0  0  0  0  0  0  0  0  0  0  0
   -4.3509   20.2603  -33.8025 H   0  0  0  0  0  0  0  0  0  0  0  0
   -4.2417   19.7104  -30.8132 H   0  0  0  0  0  0  0  0  0  0  0  0
   -2.9135   20.2913  -31.8921 H   0  0  0  0  0  0  0  0  0  0  0  0
  1  2  1  0
  2  3  1  0
  3  4  2  0
  4  5  1  0
  5  6  2  0
  6  7  1  0
  7  8  2  0
  8  9  1  0
  9 10  2  0
 10 11  1  0
 11 12  2  0
  8 13  1  0
 13 14  1  0
 14 15  1  0
 15 16  1  0
 16 17  1  0
 17 18  2  0
 18 19  1  0
 19 20  2  0
 20 21  1  0
 21 22  2  0
 15 23  1  0
 23 24  1  0
 24 25  1  0
 12  3  1  0
 22 17  1  0
 25  5  1  0
 11  6  1  0
 23  7  1  0
  1 26  1  0
  1 27  1  0
  1 28  1  0
  4 29  1  0
  9 30  1  0
 10 31  1  0
 12 32  1  0
 13 33  1  0
 13 34  1  0
 14 35  1  0
 14 36  1  0
 15 37  1  1
 16 38  1  0
 16 39  1  0
 18 40  1  0
 19 41  1  0
 20 42  1  0
 21 43  1  0
 22 44  1  0
 23 45  1  6
 24 46  1  0
 24 47  1  0
 25 48  1  0
 25 49  1  0
M  CHG  1  15   1
M  END
>  <UniqueID>  (13) 
13

>  <SMILES>  (13) 
COc1cc2c3c4c(ccc3c1)CC[N@@H+](Cc1ccccc1)[C@@H]4CC2

>  <Energy>  (13) 
78.4413434483321

>  <Genealogy>  (13) 
COc1cc2c3c4c(ccc3c1)CC[NH+](Cc1ccccc1)C4CC2 (protonated)
COc1cc2c3c4c(ccc3c1)CC[N@@H+](Cc1ccccc1)[C@@H]4CC2 (chirality)
COc1cc2c3c4c(ccc3c1)CC[N@@H+](Cc1ccccc1)[C@@H]4CC2 (3D coordinates assigned)
COc1cc2c3c4c(ccc3c1)CC[N@@H+](Cc1ccccc1)[C@@H]4CC2 (nonaromatic ring conformer: 78.4413434483321 kcal/mol)

>  <smiles>  (13) 
COc1cc2c3c4c(ccc3c1)CCN(Cc1ccccc1)C4CC2

>  <score_type>  (13) 
oracle

>  <origin>  (13) 
adg

>  <m_score__min__energy>  (13) 
-9.2400000000000002

>  <m_primary>  (13) 
energy

$$$$
13:0
     RDKit          3D

 27 28  0  0  0  0  0  0  0  0999 V2000
   -6.1410   24.4370  -30.8510 C   0  0  0  0  0  0  0  0  0  0  0  0
   -6.4120   23.7860  -32.0720 O   0  0  0  0  0  0  0  0  0  0  0  0
   -6.0540   22.4250  -31.9650 C   0  0  0  0  0  0  0  0  0  0  0  0
   -7.2750   21.5790  -32.1770 C   0  0  0  0  0  0  0  0  0  0  0  0
   -8.4800   21.8950  -31.7400 C   0  0  0  0  0  0  0  0  0  0  0  0
   -9.4790   20.8910  -32.1900 C   0  0  0  0  0  0  0  0  0  0  0  0
   -8.7070   19.8310  -32.8800 N   0  0  2  0  0  0  0  0  0  0  0  0
   -8.6720   18.5530  -32.1470 C   0  0  0  0  0  0  0  0  0  0  0  0
   -7.2730   17.9950  -32.3130 C   0  0  0  0  0  0  0  0  0  0  0  0
   -6.4000   19.2270  -32.3890 C   0  0  0  0  0  0  0  0  0  0  0  0
   -7.3140   20.3120  -32.9650 C   0  0  2  0  0  0  0  0  0  0  0  0
   -6.4157   23.7772  -30.0148 H   0  0  0  0  0  0  0  0  0  0  0  0
   -5.0688   24.6757  -30.7928 H   0  0  0  0  0  0  0  0  0  0  0  0
   -6.7271   25.3660  -30.7928 H   0  0  0  0  0  0  0  0  0  0  0  0
   -5.2998   22.1813  -32.7277 H   0  0  0  0  0  0  0  0  0  0  0  0
   -5.6355   22.2288  -30.9668 H   0  0  0  0  0  0  0  0  0  0  0  0
   -8.7124   22.7788  -31.1277 H   0  0  0  0  0  0  0  0  0  0  0  0
  -10.0164   20.4723  -31.3264 H   0  0  0  0  0  0  0  0  0  0  0  0
  -10.2317   21.3401  -32.8547 H   0  0  0  0  0  0  0  0  0  0  0  0
   -9.0890   19.6730  -33.8430 H   0  0  0  0  0  0  0  0  0  0  0  0
   -8.8895   18.7206  -31.0818 H   0  0  0  0  0  0  0  0  0  0  0  0
   -9.4263   17.8529  -32.5354 H   0  0  0  0  0  0  0  0  0  0  0  0
   -6.9953   17.3705  -31.4510 H   0  0  0  0  0  0  0  0  0  0  0  0
   -7.1749   17.3489  -33.1978 H   0  0  0  0  0  0  0  0  0  0  0  0
   -6.0418   19.5116  -31.3887 H   0  0  0  0  0  0  0  0  0  0  0  0
   -5.5033   19.0659  -33.0055 H   0  0  0  0  0  0  0  0  0  0  0  0
   -6.9718   20.5101  -33.9915 H   0  0  0  0  0  0  0  0  0  0  0  0
  1  2  1  0
  2  3  1  0
  3  4  1  0
  4  5  2  0
  5  6  1  0
  6  7  1  0
  7  8  1  0
  8  9  1  0
  9 10  1  0
 10 11  1  0
 11  4  1  0
 11  7  1  0
  1 12  1  0
  1 13  1  0
  1 14  1  0
  3 15  1  0
  3 16  1  0
  5 17  1  0
  6 18  1  0
  6 19  1  0
  7 20  1  6
  8 21  1  0
  8 22  1  0
  9 23  1  0
  9 24  1  0
 10 25  1  0
 10 26  1  0
 11 27  1  6
M  CHG  1   7   1
M  END
>  <UniqueID>  (14) 
14

>  <SMILES>  (14) 
COCC1=CC[N@@H+]2CCC[C@H]12

>  <Energy>  (14) 
32.79499312555943

>  <Genealogy>  (14) 
COCC1=CC[NH+]2CCCC12 (protonated)
COCC1=CC[N@@H+]2CCC[C@H]12 (chirality)
COCC1=CC[N@@H+]2CCC[C@H]12 (3D coordinates assigned)
COCC1=CC[N@@H+]2CCC[C@H]12 (nonaromatic ring conformer: 32.79499312555943 kcal/mol)

>  <smiles>  (14) 
COCC1=CCN2CCCC12

>  <score_type>  (14) 
oracle

>  <origin>  (14) 
adg

>  <m_score__min__energy>  (14) 
-4.7999999999999998

>  <m_primary>  (14) 
energy

$$$$
14:0
     RDKit          3D

 54 56  0  0  0  0  0  0  0  0999 V2000
   -5.7800   15.5410  -33.8240 C   0  0  0  0  0  0  0  0  0  0  0  0
   -6.9070   16.3340  -33.4680 O   0  0  0  0  0  0  0  0  0  0  0  0
   -6.8650   17.7200  -33.2550 C   0  0  0  0  0  0  0  0  0  0  0  0
   -7.9460   18.4300  -32.7060 C   0  0  0  0  0  0  0  0  0  0  0  0
   -7.8550   19.8080  -32.5070 C   0  0  0  0  0  0  0  0  0  0  0  0
   -6.6800   20.5030  -32.8410 C   0  0  0  0  0  0  0  0  0  0  0  0
   -6.5920   21.9270  -32.6550 N   0  0  0  0  0  0  0  0  0  0  0  0
   -6.0640   22.5410  -31.4700 C   0  0  0  0  0  0  0  0  0  0  0  0
   -5.3630   21.8730  -30.6650 O   0  0  0  0  0  0  0  0  0  0  0  0
   -6.3160   24.0020  -31.1920 C   0  0  0  0  0  0  0  0  0  0  0  0
   -6.3170   24.3310  -29.7500 N   0  0  0  0  0  0  0  0  0  0  0  0
   -6.8460   25.6850  -29.4940 C   0  0  0  0  0  0  0  0  0  0  0  0
   -4.9940   24.1270  -29.1220 C   0  0  0  0  0  0  0  0  0  0  0  0
   -3.9100   24.7830  -29.9230 C   0  0  0  0  0  0  0  0  0  0  0  0
   -4.2020   25.6670  -30.7770 O   0  0  0  0  0  0  0  0  0  0  0  0
   -2.5480   24.4050  -29.6960 N   0  0  0  0  0  0  0  0  0  0  0  0
   -2.0530   23.0840  -29.4190 C   0  0  0  0  0  0  0  0  0  0  0  0
   -1.2530   22.4540  -30.3850 C   0  0  0  0  0  0  0  0  0  0  0  0
   -0.7580   21.1640  -30.1660 C   0  0  0  0  0  0  0  0  0  0  0  0
   -1.0730   20.4900  -28.9850 C   0  0  0  0  0  0  0  0  0  0  0  0
   -1.9120   21.0900  -28.0360 C   0  0  0  0  0  0  0  0  0  0  0  0
   -2.3980   22.3820  -28.2470 C   0  0  0  0  0  0  0  0  0  0  0  0
   -2.2530   20.3760  -26.8830 O   0  0  0  0  0  0  0  0  0  0  0  0
   -1.9920   18.9740  -26.7770 C   0  0  0  0  0  0  0  0  0  0  0  0
   -0.6460   18.6300  -27.4300 C   0  0  0  0  0  0  0  0  0  0  0  0
   -0.5670   19.2100  -28.7330 O   0  0  0  0  0  0  0  0  0  0  0  0
   -5.5990   19.8040  -33.4120 C   0  0  0  0  0  0  0  0  0  0  0  0
   -4.4420   20.5190  -33.7610 O   0  0  0  0  0  0  0  0  0  0  0  0
   -3.3920   20.8480  -32.8580 C   0  0  0  0  0  0  0  0  0  0  0  0
   -5.7010   18.4120  -33.6090 C   0  0  0  0  0  0  0  0  0  0  0  0
   -5.2775   15.1874  -32.9116 H   0  0  0  0  0  0  0  0  0  0  0  0
   -6.1126   14.6768  -34.4178 H   0  0  0  0  0  0  0  0  0  0  0  0
   -5.0789   16.1459  -34.4178 H   0  0  0  0  0  0  0  0  0  0  0  0
   -8.8684   17.8970  -32.4318 H   0  0  0  0  0  0  0  0  0  0  0  0
   -8.7107   20.3554  -32.0849 H   0  0  0  0  0  0  0  0  0  0  0  0
   -6.8740   22.5510  -33.4440 H   0  0  0  0  0  0  0  0  0  0  0  0
   -5.5289   24.5920  -31.6843 H   0  0  0  0  0  0  0  0  0  0  0  0
   -7.3169   24.2400  -31.5814 H   0  0  0  0  0  0  0  0  0  0  0  0
   -6.9120   25.8538  -28.4090 H   0  0  0  0  0  0  0  0  0  0  0  0
   -6.1736   26.4320  -29.9411 H   0  0  0  0  0  0  0  0  0  0  0  0
   -7.8467   25.7783  -29.9411 H   0  0  0  0  0  0  0  0  0  0  0  0
   -5.0056   24.5598  -28.1108 H   0  0  0  0  0  0  0  0  0  0  0  0
   -4.7909   23.0468  -29.0776 H   0  0  0  0  0  0  0  0  0  0  0  0
   -1.0134   22.9787  -31.3216 H   0  0  0  0  0  0  0  0  0  0  0  0
   -0.1219   20.6819  -30.9229 H   0  0  0  0  0  0  0  0  0  0  0  0
   -3.0511   22.8524  -27.4972 H   0  0  0  0  0  0  0  0  0  0  0  0
   -1.9627   18.6900  -25.7147 H   0  0  0  0  0  0  0  0  0  0  0  0
   -2.7910   18.4220  -27.2937 H   0  0  0  0  0  0  0  0  0  0  0  0
    0.1710   19.0232  -26.8072 H   0  0  0  0  0  0  0  0  0  0  0  0
   -0.5588   17.5370  -27.5179 H   0  0  0  0  0  0  0  0  0  0  0  0
   -3.7493   20.7360  -31.8237 H   0  0  0  0  0  0  0  0  0  0  0  0
   -2.5391   20.1740  -33.0262 H   0  0  0  0  0  0  0  0  0  0  0  0
   -3.0762   21.8882  -33.0262 H   0  0  0  0  0  0  0  0  0  0  0  0
   -4.8547   17.8623  -34.0467 H   0  0  0  0  0  0  0  0  0  0  0  0
  1  2  1  0
  2  3  1  0
  3  4  2  0
  4  5  1  0
  5  6  2  0
  6  7  1  0
  7  8  1  0
  8  9  2  0
  8 10  1  0
 10 11  1  0
 11 12  1  0
 11 13  1  0
 13 14  1  0
 14 15  2  0
 14 16  1  0
 16 17  1  0
 17 18  2  0
 18 19  1  0
 19 20  2  0
 20 21  1  0
 21 22  2  0
 21 23  1  0
 23 24  1  0
 24 25  1  0
 25 26  1  0
  6 27  1  0
 27 28  1  0
 28 29  1  0
 27 30  2  0
 30  3  1  0
 22 17  1  0
 26 20  1  0
  1 31  1  0
  1 32  1  0
  1 33  1  0
  4 34  1  0
  5 35  1  0
  7 36  1  0
 10 37  1  0
 10 38  1  0
 12 39  1  0
 12 40  1  0
 12 41  1  0
 13 42  1  0
 13 43  1  0
 18 44  1  0
 19 45  1  0
 22 46  1  0
 24 47  1  0
 24 48  1  0
 25 49  1  0
 25 50  1  0
 29 51  1  0
 29 52  1  0
 29 53  1  0
 30 54  1  0
M  CHG  1  16  -1
M  END
>  <UniqueID>  (15) 
15

>  <SMILES>  (15) 
COc1ccc(NC(=O)CN(C)CC(=O)[N-]c2ccc3c(c2)OCCO3)c(OC)c1

>  <Energy>  (15) 
63.93528827091146

>  <Genealogy>  (15) 
COc1ccc(NC(=O)CN(C)CC(=O)[N-]c2ccc3c(c2)OCCO3)c(OC)c1 (protonated)
COc1ccc(NC(=O)CN(C)CC(=O)[N-]c2ccc3c(c2)OCCO3)c(OC)c1 (3D coordinates assigned)
COc1ccc(NC(=O)CN(C)CC(=O)[N-]c2ccc3c(c2)OCCO3)c(OC)c1 (nonaromatic ring conformer: 63.93528827091146 kcal/mol)

>  <smiles>  (15) 
COc1ccc(NC(=O)CN(C)CC(=O)Nc2ccc3c(c2)OCCO3)c(OC)c1

>  <score_type>  (15) 
oracle

>  <origin>  (15) 
adg

>  <m_score__min__energy>  (15) 
-9.5700000000000003

>  <m_primary>  (15) 
energy

$$$$
15:0
     RDKit          3D

 45 47  0  0  0  0  0  0  0  0999 V2000
   -1.3120   21.5150  -30.2180 C   0  0  0  0  0  0  0  0  0  0  0  0
   -1.1780   22.6450  -29.1980 C   0  0  0  0  0  0  0  0  0  0  0  0
   -2.1490   22.5100  -28.0870 N   0  0  0  0  0  0  0  0  0  0  0  0
   -3.0900   21.3700  -28.2150 C   0  0  0  0  0  0  0  0  0  0  0  0
   -2.7240   20.1590  -27.3480 C   0  0  0  0  0  0  0  0  0  0  0  0
   -2.8310   23.7880  -27.7790 C   0  0  0  0  0  0  0  0  0  0  0  0
   -2.2530   24.9220  -28.6280 C   0  0  0  0  0  0  0  0  0  0  0  0
   -3.1250   25.2560  -29.7090 O   0  0  0  0  0  0  0  0  0  0  0  0
   -4.2670   24.5360  -30.1000 C   0  0  0  0  0  0  0  0  0  0  0  0
   -5.5870   24.9570  -29.7890 C   0  0  0  0  0  0  0  0  0  0  0  0
   -6.6960   24.2100  -30.2180 C   0  0  0  0  0  0  0  0  0  0  0  0
   -6.4660   23.0510  -30.9540 C   0  0  0  0  0  0  0  0  0  0  0  0
   -5.1880   22.6230  -31.2570 C   0  0  0  0  0  0  0  0  0  0  0  0
   -4.0750   23.3490  -30.8310 C   0  0  0  0  0  0  0  0  0  0  0  0
   -5.2050   21.3530  -32.0590 C   0  0  2  0  0  0  0  0  0  0  0  0
   -4.6460   21.5770  -33.3260 O   0  0  0  0  0  0  0  0  0  0  0  0
   -6.6870   21.1150  -32.1620 C   0  0  0  0  0  0  0  0  0  0  0  0
   -7.3430   20.0560  -32.7940 C   0  0  0  0  0  0  0  0  0  0  0  0
   -8.7470   20.0230  -32.7680 C   0  0  0  0  0  0  0  0  0  0  0  0
   -9.4730   21.0380  -32.1140 C   0  0  0  0  0  0  0  0  0  0  0  0
   -8.8000   22.0950  -31.4800 C   0  0  0  0  0  0  0  0  0  0  0  0
   -7.4050   22.1060  -31.5190 C   0  0  0  0  0  0  0  0  0  0  0  0
   -1.4257   20.5565  -29.6905 H   0  0  0  0  0  0  0  0  0  0  0  0
   -2.1953   21.6933  -30.8489 H   0  0  0  0  0  0  0  0  0  0  0  0
   -0.4115   21.4818  -30.8489 H   0  0  0  0  0  0  0  0  0  0  0  0
   -0.1594   22.6294  -28.7829 H   0  0  0  0  0  0  0  0  0  0  0  0
   -1.3836   23.5942  -29.7145 H   0  0  0  0  0  0  0  0  0  0  0  0
   -4.0928   21.7146  -27.9223 H   0  0  0  0  0  0  0  0  0  0  0  0
   -3.0458   21.0367  -29.2624 H   0  0  0  0  0  0  0  0  0  0  0  0
   -2.8061   20.4307  -26.2852 H   0  0  0  0  0  0  0  0  0  0  0  0
   -3.4114   19.3290  -27.5685 H   0  0  0  0  0  0  0  0  0  0  0  0
   -1.6920   19.8487  -27.5685 H   0  0  0  0  0  0  0  0  0  0  0  0
   -3.9050   23.6861  -27.9939 H   0  0  0  0  0  0  0  0  0  0  0  0
   -2.6778   24.0258  -26.7160 H   0  0  0  0  0  0  0  0  0  0  0  0
   -2.1126   25.8094  -27.9933 H   0  0  0  0  0  0  0  0  0  0  0  0
   -1.2923   24.5879  -29.0468 H   0  0  0  0  0  0  0  0  0  0  0  0
   -5.7423   25.8771  -29.2065 H   0  0  0  0  0  0  0  0  0  0  0  0
   -7.7201   24.5324  -29.9786 H   0  0  0  0  0  0  0  0  0  0  0  0
   -3.0591   22.9974  -31.0640 H   0  0  0  0  0  0  0  0  0  0  0  0
   -4.6367   20.5163  -31.6266 H   0  0  0  0  0  0  0  0  0  0  0  0
   -4.9790   22.4630  -33.6250 H   0  0  0  0  0  0  0  0  0  0  0  0
   -6.7720   19.2645  -33.3014 H   0  0  0  0  0  0  0  0  0  0  0  0
   -9.2833   19.1991  -33.2616 H   0  0  0  0  0  0  0  0  0  0  0  0
  -10.5723   21.0023  -32.0999 H   0  0  0  0  0  0  0  0  0  0  0  0
   -9.3572   22.8925  -30.9667 H   0  0  0  0  0  0  0  0  0  0  0  0
  1  2  1  0
  2  3  1  0
  3  4  1  0
  4  5  1  0
  3  6  1  0
  6  7  1  0
  7  8  1  0
  8  9  1  0
  9 10  2  0
 10 11  1  0
 11 12  2  0
 12 13  1  0
 13 14  2  0
 13 15  1  0
 15 16  1  0
 15 17  1  0
 17 18  2  0
 18 19  1  0
 19 20  2  0
 20 21  1  0
 21 22  2  0
 14  9  1  0
 22 17  1  0
 22 12  1  0
  1 23  1  0
  1 24  1  0
  1 25  1  0
  2 26  1  0
  2 27  1  0
  4 28  1  0
  4 29  1  0
  5 30  1  0
  5 31  1  0
  5 32  1  0
  6 33  1  0
  6 34  1  0
  7 35  1  0
  7 36  1  0
 10 37  1  0
 11 38  1  0
 14 39  1  0
 15 40  1  1
 16 41  1  0
 18 42  1  0
 19 43  1  0
 20 44  1  0
 21 45  1  0
M  END
>  <UniqueID>  (16) 
16

>  <SMILES>  (16) 
CCN(CC)CCOc1ccc2c(c1)[C@H](O)c1ccccc1-2

>  <Energy>  (16) 
69.54772317487964

>  <Genealogy>  (16) 
CCN(CC)CCOc1ccc2c(c1)[C@H](O)c1ccccc1-2 (chirality)
CCN(CC)CCOc1ccc2c(c1)[C@H](O)c1ccccc1-2 (3D coordinates assigned)
CCN(CC)CCOc1ccc2c(c1)[C@H](O)c1ccccc1-2 (nonaromatic ring conformer: 69.54772317487964 kcal/mol)

>  <smiles>  (16) 
CCN(CC)CCOc1ccc2c(c1)C(O)c1ccccc1-2

>  <score_type>  (16) 
oracle

>  <origin>  (16) 
adg

>  <m_score__min__energy>  (16) 
-8.2400000000000002

>  <m_primary>  (16) 
energy

$$$$
16:0
     RDKit          3D

 43 44  0  0  0  0  0  0  0  0999 V2000
   -0.6340   21.1820  -33.4870 C   0  0  0  0  0  0  0  0  0  0  0  0
   -2.0270   21.4730  -33.0960 N   0  0  0  0  0  0  0  0  0  0  0  0
   -2.1130   21.5540  -31.6290 C   0  0  0  0  0  0  0  0  0  0  0  0
   -2.9500   20.4370  -33.6080 C   0  0  0  0  0  0  0  0  0  0  0  0
   -2.8910   19.1790  -32.7300 C   0  0  0  0  0  0  0  0  0  0  0  0
   -3.5590   18.0740  -33.3790 N   0  0  0  0  0  0  0  0  0  0  0  0
   -4.3360   17.2610  -32.7480 C   0  0  0  0  0  0  0  0  0  0  0  0
   -5.8200   17.2650  -33.0020 C   0  0  1  0  0  0  0  0  0  0  0  0
   -6.5800   17.8340  -31.8280 C   0  0  0  0  0  0  0  0  0  0  0  0
   -6.3110   17.4780  -30.6900 O   0  0  0  0  0  0  0  0  0  0  0  0
   -7.7530   18.7480  -32.0660 C   0  0  0  0  0  0  0  0  0  0  0  0
   -7.4270   19.8930  -33.0650 C   0  0  1  0  0  0  0  0  0  0  0  0
   -7.0290   21.1660  -32.3380 C   0  0  0  0  0  0  0  0  0  0  0  0
   -7.9800   21.8790  -31.5840 C   0  0  0  0  0  0  0  0  0  0  0  0
   -7.6220   23.0590  -30.9250 C   0  0  0  0  0  0  0  0  0  0  0  0
   -6.3140   23.5440  -31.0150 C   0  0  0  0  0  0  0  0  0  0  0  0
   -5.8290   25.1590  -30.1160 Br  0  0  0  0  0  0  0  0  0  0  0  0
   -5.3630   22.8500  -31.7670 C   0  0  0  0  0  0  0  0  0  0  0  0
   -5.7160   21.6680  -32.4260 C   0  0  0  0  0  0  0  0  0  0  0  0
   -6.3770   19.5330  -34.1550 C   0  0  0  0  0  0  0  0  0  0  0  0
   -6.1240   18.0520  -34.2500 C   0  0  0  0  0  0  0  0  0  0  0  0
   -6.0910   17.5050  -35.3420 O   0  0  0  0  0  0  0  0  0  0  0  0
   -0.0190   21.0535  -32.5841 H   0  0  0  0  0  0  0  0  0  0  0  0
   -0.6060   20.2586  -34.0842 H   0  0  0  0  0  0  0  0  0  0  0  0
   -0.2387   22.0170  -34.0842 H   0  0  0  0  0  0  0  0  0  0  0  0
   -1.3819   20.8654  -31.1803 H   0  0  0  0  0  0  0  0  0  0  0  0
   -1.8949   22.5824  -31.3051 H   0  0  0  0  0  0  0  0  0  0  0  0
   -3.1265   21.2748  -31.3051 H   0  0  0  0  0  0  0  0  0  0  0  0
   -3.9762   20.8331  -33.6036 H   0  0  0  0  0  0  0  0  0  0  0  0
   -2.6498   20.1693  -34.6318 H   0  0  0  0  0  0  0  0  0  0  0  0
   -1.8390   18.9113  -32.5521 H   0  0  0  0  0  0  0  0  0  0  0  0
   -3.3970   19.3883  -31.7760 H   0  0  0  0  0  0  0  0  0  0  0  0
   -3.9104   16.5577  -32.0171 H   0  0  0  0  0  0  0  0  0  0  0  0
   -6.1459   16.2233  -33.1389 H   0  0  0  0  0  0  0  0  0  0  0  0
   -8.5857   18.1540  -32.4708 H   0  0  0  0  0  0  0  0  0  0  0  0
   -8.0146   19.2111  -31.1031 H   0  0  0  0  0  0  0  0  0  0  0  0
   -8.3679   20.0614  -33.6094 H   0  0  0  0  0  0  0  0  0  0  0  0
   -9.0121   21.5052  -31.5127 H   0  0  0  0  0  0  0  0  0  0  0  0
   -8.3711   23.6068  -30.3345 H   0  0  0  0  0  0  0  0  0  0  0  0
   -4.3348   23.2338  -31.8409 H   0  0  0  0  0  0  0  0  0  0  0  0
   -4.9628   21.1266  -33.0172 H   0  0  0  0  0  0  0  0  0  0  0  0
   -6.7433   19.8908  -35.1286 H   0  0  0  0  0  0  0  0  0  0  0  0
   -5.4287   20.0152  -33.8755 H   0  0  0  0  0  0  0  0  0  0  0  0
  1  2  1  0
  2  3  1  0
  2  4  1  0
  4  5  1  0
  5  6  1  0
  6  7  2  3
  7  8  1  0
  8  9  1  0
  9 10  2  0
  9 11  1  0
 11 12  1  0
 12 13  1  0
 13 14  2  0
 14 15  1  0
 15 16  2  0
 16 17  1  0
 16 18  1  0
 18 19  2  0
 12 20  1  0
 20 21  1  0
 21 22  2  0
 21  8  1  0
 19 13  1  0
  1 23  1  0
  1 24  1  0
  1 25  1  0
  3 26  1  0
  3 27  1  0
  3 28  1  0
  4 29  1  0
  4 30  1  0
  5 31  1  0
  5 32  1  0
  7 33  1  0
  8 34  1  6
 11 35  1  0
 11 36  1  0
 12 37  1  6
 14 38  1  0
 15 39  1  0
 18 40  1  0
 19 41  1  0
 20 42  1  0
 20 43  1  0
M  END
>  <UniqueID>  (17) 
17

>  <SMILES>  (17) 
CN(C)CCN=CC1C(=O)CC(c2ccc(Br)cc2)CC1=O

>  <Energy>  (17) 
43.8831058621072

>  <Genealogy>  (17) 
CN(C)CCN=CC1C(=O)CC(c2ccc(Br)cc2)CC1=O (3D coordinates assigned)
CN(C)CCN=CC1C(=O)CC(c2ccc(Br)cc2)CC1=O (nonaromatic ring conformer: 43.8831058621072 kcal/mol)

>  <smiles>  (17) 
CN(C)CCN=CC1C(=O)CC(c2ccc(Br)cc2)CC1=O

>  <score_type>  (17) 
oracle

>  <origin>  (17) 
adg

>  <m_score__min__energy>  (17) 
-7.6600000000000001

>  <m_primary>  (17) 
energy

$$$$
17:0
     RDKit          3D

 60 61  0  0  0  0  0  0  0  0999 V2000
   -4.5930   14.4950  -32.1040 C   0  0  0  0  0  0  0  0  0  0  0  0
   -4.9140   15.9000  -32.6080 C   0  0  0  0  0  0  0  0  0  0  0  0
   -5.8690   15.8750  -33.8080 C   0  0  0  0  0  0  0  0  0  0  0  0
   -6.9170   16.8920  -33.6560 N   0  0  0  0  0  0  0  0  0  0  0  0
   -6.9350   17.4230  -32.2870 C   0  0  0  0  0  0  0  0  0  0  0  0
   -8.2680   18.1500  -32.0150 C   0  0  0  0  0  0  0  0  0  0  0  0
   -8.1000   19.6040  -31.7410 N   0  0  2  0  0  0  0  0  0  0  0  0
   -9.2670   20.3880  -32.2130 C   0  0  0  0  0  0  0  0  0  0  0  0
   -9.1290   21.9090  -31.9660 C   0  0  0  0  0  0  0  0  0  0  0  0
   -7.7320   22.3960  -31.6730 C   0  0  0  0  0  0  0  0  0  0  0  0
   -7.5460   23.7220  -31.2540 C   0  0  0  0  0  0  0  0  0  0  0  0
   -6.2570   24.2170  -30.9870 C   0  0  0  0  0  0  0  0  0  0  0  0
   -6.0440   25.5280  -30.5420 O   0  0  0  0  0  0  0  0  0  0  0  0
   -6.4770   26.0420  -29.2870 C   0  0  0  0  0  0  0  0  0  0  0  0
   -5.1390   23.3840  -31.1600 C   0  0  0  0  0  0  0  0  0  0  0  0
   -3.8650   23.9120  -30.9080 O   0  0  0  0  0  0  0  0  0  0  0  0
   -2.9210   23.3490  -29.9980 C   0  0  0  0  0  0  0  0  0  0  0  0
   -5.3210   22.0540  -31.5740 C   0  0  0  0  0  0  0  0  0  0  0  0
   -6.6170   21.5560  -31.8220 C   0  0  0  0  0  0  0  0  0  0  0  0
   -6.8090   20.1290  -32.2790 C   0  0  2  0  0  0  0  0  0  0  0  0
   -6.6640   20.0690  -33.8250 C   0  0  0  0  0  0  0  0  0  0  0  0
   -5.4960   19.3640  -34.2050 O   0  0  0  0  0  0  0  0  0  0  0  0
   -4.5160   19.3740  -33.1810 C   0  0  0  0  0  0  0  0  0  0  0  0
   -3.1360   19.6400  -33.7900 C   0  0  0  0  0  0  0  0  0  0  0  0
   -2.6190   21.0190  -33.4160 C   0  0  0  0  0  0  0  0  0  0  0  0
   -4.5922   14.4913  -31.0040 H   0  0  0  0  0  0  0  0  0  0  0  0
   -5.3534   13.7907  -32.4724 H   0  0  0  0  0  0  0  0  0  0  0  0
   -3.6022   14.1907  -32.4724 H   0  0  0  0  0  0  0  0  0  0  0  0
   -5.3824   16.4714  -31.7931 H   0  0  0  0  0  0  0  0  0  0  0  0
   -3.9729   16.3683  -32.9321 H   0  0  0  0  0  0  0  0  0  0  0  0
   -5.2997   16.0772  -34.7273 H   0  0  0  0  0  0  0  0  0  0  0  0
   -6.3424   14.8837  -33.8637 H   0  0  0  0  0  0  0  0  0  0  0  0
   -6.6910   17.6880  -34.3090 H   0  0  0  0  0  0  0  0  0  0  0  0
   -6.8216   16.5932  -31.5739 H   0  0  0  0  0  0  0  0  0  0  0  0
   -6.1063   18.1365  -32.1679 H   0  0  0  0  0  0  0  0  0  0  0  0
   -8.9157   18.0332  -32.8964 H   0  0  0  0  0  0  0  0  0  0  0  0
   -8.7085   17.6972  -31.1145 H   0  0  0  0  0  0  0  0  0  0  0  0
   -8.0510   19.7150  -30.6980 H   0  0  0  0  0  0  0  0  0  0  0  0
   -9.3853   20.2200  -33.2936 H   0  0  0  0  0  0  0  0  0  0  0  0
  -10.1407   20.0449  -31.6395 H   0  0  0  0  0  0  0  0  0  0  0  0
   -9.4886   22.4320  -32.8644 H   0  0  0  0  0  0  0  0  0  0  0  0
   -9.7186   22.1225  -31.0622 H   0  0  0  0  0  0  0  0  0  0  0  0
   -8.4179   24.3817  -31.1330 H   0  0  0  0  0  0  0  0  0  0  0  0
   -5.9995   25.4752  -28.4742 H   0  0  0  0  0  0  0  0  0  0  0  0
   -6.1961   27.1026  -29.2086 H   0  0  0  0  0  0  0  0  0  0  0  0
   -7.5699   25.9453  -29.2086 H   0  0  0  0  0  0  0  0  0  0  0  0
   -3.2465   23.5431  -28.9653 H   0  0  0  0  0  0  0  0  0  0  0  0
   -2.8545   22.2636  -30.1636 H   0  0  0  0  0  0  0  0  0  0  0  0
   -1.9344   23.8063  -30.1636 H   0  0  0  0  0  0  0  0  0  0  0  0
   -4.4482   21.3976  -31.7054 H   0  0  0  0  0  0  0  0  0  0  0  0
   -6.0328   19.4603  -31.8784 H   0  0  0  0  0  0  0  0  0  0  0  0
   -7.5430   19.5606  -34.2479 H   0  0  0  0  0  0  0  0  0  0  0  0
   -6.5884   21.0978  -34.2070 H   0  0  0  0  0  0  0  0  0  0  0  0
   -4.7539   20.1653  -32.4548 H   0  0  0  0  0  0  0  0  0  0  0  0
   -4.5086   18.3977  -32.6742 H   0  0  0  0  0  0  0  0  0  0  0  0
   -2.4301   18.8814  -33.4209 H   0  0  0  0  0  0  0  0  0  0  0  0
   -3.2266   19.5906  -34.8852 H   0  0  0  0  0  0  0  0  0  0  0  0
   -2.5839   21.1127  -32.3206 H   0  0  0  0  0  0  0  0  0  0  0  0
   -1.6085   21.1560  -33.8283 H   0  0  0  0  0  0  0  0  0  0  0  0
   -3.2904   21.7866  -33.8283 H   0  0  0  0  0  0  0  0  0  0  0  0
  1  2  1  0
  2  3  1  0
  3  4  1  0
  4  5  1  0
  5  6  1  0
  6  7  1  0
  7  8  1  0
  8  9  1  0
  9 10  1  0
 10 11  2  0
 11 12  1  0
 12 13  1  0
 13 14  1  0
 12 15  2  0
 15 16  1  0
 16 17  1  0
 15 18  1  0
 18 19  2  0
 19 20  1  0
 20 21  1  0
 21 22  1  0
 22 23  1  0
 23 24  1  0
 24 25  1  0
 20  7  1  0
 19 10  1  0
  1 26  1  0
  1 27  1  0
  1 28  1  0
  2 29  1  0
  2 30  1  0
  3 31  1  0
  3 32  1  0
  4 33  1  0
  5 34  1  0
  5 35  1  0
  6 36  1  0
  6 37  1  0
  7 38  1  1
  8 39  1  0
  8 40  1  0
  9 41  1  0
  9 42  1  0
 11 43  1  0
 14 44  1  0
 14 45  1  0
 14 46  1  0
 17 47  1  0
 17 48  1  0
 17 49  1  0
 18 50  1  0
 20 51  1  1
 21 52  1  0
 21 53  1  0
 23 54  1  0
 23 55  1  0
 24 56  1  0
 24 57  1  0
 25 58  1  0
 25 59  1  0
 25 60  1  0
M  CHG  1   7   1
M  END
>  <UniqueID>  (18) 
18

>  <SMILES>  (18) 
CCCNCC[N@@H+]1CCc2cc(OC)c(OC)cc2[C@@H]1COCCC

>  <Energy>  (18) 
61.70882992034522

>  <Genealogy>  (18) 
CCCNCC[NH+]1CCc2cc(OC)c(OC)cc2C1COCCC (protonated)
CCCNCC[N@@H+]1CCc2cc(OC)c(OC)cc2[C@@H]1COCCC (chirality)
CCCNCC[N@@H+]1CCc2cc(OC)c(OC)cc2[C@@H]1COCCC (3D coordinates assigned)
CCCNCC[N@@H+]1CCc2cc(OC)c(OC)cc2[C@@H]1COCCC (nonaromatic ring conformer: 61.70882992034522 kcal/mol)

>  <smiles>  (18) 
CCCNCCN1CCc2cc(OC)c(OC)cc2C1COCCC

>  <score_type>  (18) 
oracle

>  <origin>  (18) 
adg

>  <m_score__min__energy>  (18) 
-6.8099999999999996

>  <m_primary>  (18) 
energy

$$$$
18:0
     RDKit          3D

 50 53  0  0  0  0  0  0  0  0999 V2000
   -4.8070   18.6100  -34.4120 C   0  0  0  0  0  0  0  0  0  0  0  0
   -5.6500   19.5250  -33.5820 C   0  0  0  0  0  0  0  0  0  0  0  0
   -5.4450   20.8470  -33.4580 N   0  0  0  0  0  0  0  0  0  0  0  0
   -6.4650   21.3210  -32.7020 C   0  0  0  0  0  0  0  0  0  0  0  0
   -6.6420   22.8060  -32.5140 C   0  0  0  0  0  0  0  0  0  0  0  0
   -5.9630   23.2530  -31.2440 C   0  0  0  0  0  0  0  0  0  0  0  0
   -5.5360   22.3110  -30.2940 C   0  0  0  0  0  0  0  0  0  0  0  0
   -4.9250   22.7280  -29.1090 C   0  0  0  0  0  0  0  0  0  0  0  0
   -4.7320   24.0940  -28.8550 C   0  0  0  0  0  0  0  0  0  0  0  0
   -4.0960   24.5370  -27.5620 C   0  0  0  0  0  0  0  0  0  0  0  0
   -2.7720   23.8990  -27.3800 N   0  0  0  0  0  0  0  0  0  0  0  0
   -2.1910   23.4300  -28.6600 C   0  0  0  0  0  0  0  0  0  0  0  0
   -1.2600   24.4750  -29.3100 C   0  0  0  0  0  0  0  0  0  0  0  0
   -1.6100   25.7790  -28.9020 O   0  0  0  0  0  0  0  0  0  0  0  0
   -1.3270   25.9460  -27.5240 C   0  0  0  0  0  0  0  0  0  0  0  0
   -1.8190   24.7640  -26.6540 C   0  0  0  0  0  0  0  0  0  0  0  0
   -5.1650   25.0380  -29.7990 C   0  0  0  0  0  0  0  0  0  0  0  0
   -5.7770   24.6210  -30.9840 C   0  0  0  0  0  0  0  0  0  0  0  0
   -7.3240   20.3210  -32.3390 N   0  0  0  0  0  0  0  0  0  0  0  0
   -8.4760   20.2660  -31.5900 C   0  0  0  0  0  0  0  0  0  0  0  0
   -9.0350   21.4340  -30.8300 C   0  0  0  0  0  0  0  0  0  0  0  0
   -9.1250   19.0160  -31.4810 C   0  0  0  0  0  0  0  0  0  0  0  0
   -8.5980   17.9140  -32.0860 N   0  0  0  0  0  0  0  0  0  0  0  0
   -7.4440   17.9770  -32.8000 C   0  0  0  0  0  0  0  0  0  0  0  0
   -6.8080   19.2100  -32.9100 C   0  0  0  0  0  0  0  0  0  0  0  0
   -4.2103   17.9624  -33.7528 H   0  0  0  0  0  0  0  0  0  0  0  0
   -5.4559   17.9888  -35.0469 H   0  0  0  0  0  0  0  0  0  0  0  0
   -4.1348   19.2059  -35.0469 H   0  0  0  0  0  0  0  0  0  0  0  0
   -4.6830   21.4070  -33.9030 H   0  0  0  0  0  0  0  0  0  0  0  0
   -6.1984   23.3363  -33.3696 H   0  0  0  0  0  0  0  0  0  0  0  0
   -7.7159   23.0346  -32.4473 H   0  0  0  0  0  0  0  0  0  0  0  0
   -5.6836   21.2377  -30.4843 H   0  0  0  0  0  0  0  0  0  0  0  0
   -4.5937   21.9818  -28.3718 H   0  0  0  0  0  0  0  0  0  0  0  0
   -3.9704   25.6297  -27.5780 H   0  0  0  0  0  0  0  0  0  0  0  0
   -4.7484   24.2381  -26.7283 H   0  0  0  0  0  0  0  0  0  0  0  0
   -1.6128   22.5139  -28.4692 H   0  0  0  0  0  0  0  0  0  0  0  0
   -3.0234   23.2483  -29.3558 H   0  0  0  0  0  0  0  0  0  0  0  0
   -0.2219   24.2695  -29.0100 H   0  0  0  0  0  0  0  0  0  0  0  0
   -1.3626   24.4077  -30.4031 H   0  0  0  0  0  0  0  0  0  0  0  0
   -0.2383   26.0425  -27.3997 H   0  0  0  0  0  0  0  0  0  0  0  0
   -1.8622   26.8458  -27.1866 H   0  0  0  0  0  0  0  0  0  0  0  0
   -0.9506   24.1600  -26.3522 H   0  0  0  0  0  0  0  0  0  0  0  0
   -2.3386   25.1807  -25.7786 H   0  0  0  0  0  0  0  0  0  0  0  0
   -5.0219   26.1113  -29.6051 H   0  0  0  0  0  0  0  0  0  0  0  0
   -6.1150   25.3680  -31.7173 H   0  0  0  0  0  0  0  0  0  0  0  0
   -8.9449   21.2457  -29.7500 H   0  0  0  0  0  0  0  0  0  0  0  0
   -8.4747   22.3437  -31.0916 H   0  0  0  0  0  0  0  0  0  0  0  0
  -10.0950   21.5683  -31.0916 H   0  0  0  0  0  0  0  0  0  0  0  0
  -10.0589   18.9316  -30.9059 H   0  0  0  0  0  0  0  0  0  0  0  0
   -7.0243   17.0793  -33.2775 H   0  0  0  0  0  0  0  0  0  0  0  0
  1  2  1  0
  2  3  1  0
  3  4  2  0
  4  5  1  0
  5  6  1  0
  6  7  2  0
  7  8  1  0
  8  9  2  0
  9 10  1  0
 10 11  1  0
 11 12  1  0
 12 13  1  0
 13 14  1  0
 14 15  1  0
 15 16  1  0
  9 17  1  0
 17 18  2  0
  4 19  1  0
 19 20  1  0
 20 21  1  0
 20 22  2  0
 22 23  1  0
 23 24  2  0
 24 25  1  0
 25  2  2  0
 18  6  1  0
 25 19  1  0
 16 11  1  0
  1 26  1  0
  1 27  1  0
  1 28  1  0
  3 29  1  0
  5 30  1  0
  5 31  1  0
  7 32  1  0
  8 33  1  0
 10 34  1  0
 10 35  1  0
 12 36  1  0
 12 37  1  0
 13 38  1  0
 13 39  1  0
 15 40  1  0
 15 41  1  0
 16 42  1  0
 16 43  1  0
 17 44  1  0
 18 45  1  0
 21 46  1  0
 21 47  1  0
 21 48  1  0
 22 49  1  0
 24 50  1  0
M  CHG  1   3   1
M  END
>  <UniqueID>  (19) 
19

>  <SMILES>  (19) 
Cc1[nH+]c(Cc2ccc(CN3CCOCC3)cc2)n2c(C)cncc12

>  <Energy>  (19) 
107.26688070571707

>  <Genealogy>  (19) 
Cc1[nH+]c(Cc2ccc(CN3CCOCC3)cc2)n2c(C)cncc12 (protonated)
Cc1[nH+]c(Cc2ccc(CN3CCOCC3)cc2)n2c(C)cncc12 (3D coordinates assigned)
Cc1[nH+]c(Cc2ccc(CN3CCOCC3)cc2)n2c(C)cncc12 (nonaromatic ring conformer: 107.26688070571707 kcal/mol)

>  <smiles>  (19) 
Cc1nc(Cc2ccc(CN3CCOCC3)cc2)n2c(C)cncc12

>  <score_type>  (19) 
oracle

>  <origin>  (19) 
adg

>  <m_score__min__energy>  (19) 
-8.5999999999999996

>  <m_primary>  (19) 
energy

$$$$
19:0
     RDKit          3D

 34 35  0  0  0  0  0  0  0  0999 V2000
   -5.2100   25.6740  -30.5360 C   0  0  0  0  0  0  0  0  0  0  0  0
   -3.9020   25.1610  -30.7640 O   0  0  0  0  0  0  0  0  0  0  0  0
   -3.5050   23.8410  -30.4990 C   0  0  0  0  0  0  0  0  0  0  0  0
   -3.6120   22.8270  -31.4730 C   0  0  0  0  0  0  0  0  0  0  0  0
   -3.2010   21.5240  -31.1880 C   0  0  0  0  0  0  0  0  0  0  0  0
   -2.6860   21.2110  -29.9310 C   0  0  0  0  0  0  0  0  0  0  0  0
   -2.5760   22.2020  -28.9540 C   0  0  0  0  0  0  0  0  0  0  0  0
   -2.9750   23.5210  -29.2280 C   0  0  0  0  0  0  0  0  0  0  0  0
   -2.7860   24.5760  -28.1640 C   0  0  0  0  0  0  0  0  0  0  0  0
   -1.9410   25.6750  -28.6620 N   0  0  0  0  0  0  0  0  0  0  0  0
   -0.5210   25.5020  -28.3120 C   0  0  0  0  0  0  0  0  0  0  0  0
   -0.3370   25.3580  -26.8230 C   0  0  0  0  0  0  0  0  0  0  0  0
   -0.7230   26.3900  -25.9540 C   0  0  0  0  0  0  0  0  0  0  0  0
   -0.5110   26.2490  -24.5810 C   0  0  0  0  0  0  0  0  0  0  0  0
    0.0510   25.1130  -24.0870 N   0  0  0  0  0  0  0  0  0  0  0  0
    0.4120   24.0880  -24.9060 C   0  0  0  0  0  0  0  0  0  0  0  0
    0.2180   24.1890  -26.2860 C   0  0  0  0  0  0  0  0  0  0  0  0
   -5.3923   25.7455  -29.4536 H   0  0  0  0  0  0  0  0  0  0  0  0
   -5.2963   26.6726  -30.9891 H   0  0  0  0  0  0  0  0  0  0  0  0
   -5.9522   25.0003  -30.9891 H   0  0  0  0  0  0  0  0  0  0  0  0
   -4.0227   23.0648  -32.4654 H   0  0  0  0  0  0  0  0  0  0  0  0
   -3.2837   20.7420  -31.9572 H   0  0  0  0  0  0  0  0  0  0  0  0
   -2.3660   20.1823  -29.7088 H   0  0  0  0  0  0  0  0  0  0  0  0
   -2.1739   21.9483  -27.9621 H   0  0  0  0  0  0  0  0  0  0  0  0
   -3.7686   24.9783  -27.8764 H   0  0  0  0  0  0  0  0  0  0  0  0
   -2.2915   24.1165  -27.2955 H   0  0  0  0  0  0  0  0  0  0  0  0
   -2.0030   25.6660  -29.7070 H   0  0  0  0  0  0  0  0  0  0  0  0
   -0.1369   24.5992  -28.8094 H   0  0  0  0  0  0  0  0  0  0  0  0
    0.0296   26.3942  -28.6449 H   0  0  0  0  0  0  0  0  0  0  0  0
   -1.1893   27.3035  -26.3515 H   0  0  0  0  0  0  0  0  0  0  0  0
   -0.7997   27.0599  -23.8961 H   0  0  0  0  0  0  0  0  0  0  0  0
    0.2060   25.0240  -23.0580 H   0  0  0  0  0  0  0  0  0  0  0  0
    0.8580   23.1770  -24.4803 H   0  0  0  0  0  0  0  0  0  0  0  0
    0.4993   23.3558  -26.9468 H   0  0  0  0  0  0  0  0  0  0  0  0
  1  2  1  0
  2  3  1  0
  3  4  2  0
  4  5  1  0
  5  6  2  0
  6  7  1  0
  7  8  2  0
  8  9  1  0
  9 10  1  0
 10 11  1  0
 11 12  1  0
 12 13  2  0
 13 14  1  0
 14 15  2  0
 15 16  1  0
 16 17  2  0
  8  3  1  0
 17 12  1  0
  1 18  1  0
  1 19  1  0
  1 20  1  0
  4 21  1  0
  5 22  1  0
  6 23  1  0
  7 24  1  0
  9 25  1  0
  9 26  1  0
 10 27  1  0
 11 28  1  0
 11 29  1  0
 13 30  1  0
 14 31  1  0
 15 32  1  0
 16 33  1  0
 17 34  1  0
M  CHG  1  15   1
M  END
>  <UniqueID>  (20) 
20

>  <SMILES>  (20) 
COc1ccccc1CNCc1cc[nH+]cc1

>  <Energy>  (20) 
31.000730029767205

>  <Genealogy>  (20) 
COc1ccccc1CNCc1cc[nH+]cc1 (protonated)
COc1ccccc1CNCc1cc[nH+]cc1 (3D coordinates assigned)
COc1ccccc1CNCc1cc[nH+]cc1 (optimized conformer: 31.000730029767205 kcal/mol)

>  <smiles>  (20) 
COc1ccccc1CNCc1ccncc1

>  <score_type>  (20) 
oracle

>  <origin>  (20) 
adg

>  <m_score__min__energy>  (20) 
-6.54

>  <m_primary>  (20) 
energy

$$$$
20:0
     RDKit          3D

 48 50  0  0  0  0  0  0  0  0999 V2000
   -9.6961   21.9028  -31.6966 H   0  0  0  0  0  0  0  0  0  0  0  0
   -8.5980   21.9670  -31.7010 C   0  0  0  0  0  0  0  0  0  0  0  0
   -7.9650   23.0380  -31.0790 C   0  0  0  0  0  0  0  0  0  0  0  0
   -8.5697   23.8149  -30.5882 H   0  0  0  0  0  0  0  0  0  0  0  0
   -6.5660   23.1410  -31.0690 C   0  0  0  0  0  0  0  0  0  0  0  0
   -5.8300   24.5350  -30.2550 S   0  0  0  0  0  0  0  0  0  0  0  0
   -5.1820   25.4040  -31.2950 O   0  0  0  0  0  0  0  0  0  0  0  0
   -6.8920   25.3150  -29.5300 O   0  0  0  0  0  0  0  0  0  0  0  0
   -4.6650   23.9430  -29.1140 N   0  0  0  0  0  0  0  0  0  0  0  0
   -3.3930   24.2080  -29.0140 C   0  0  0  0  0  0  0  0  0  0  0  0
   -2.8790   25.2970  -29.5330 O   0  0  0  0  0  0  0  0  0  0  0  0
   -1.5990   25.3710  -29.3130 N   0  0  0  0  0  0  0  0  0  0  0  0
   -1.2540   24.2730  -28.6150 C   0  0  0  0  0  0  0  0  0  0  0  0
    0.1390   24.0050  -28.1410 C   0  0  0  0  0  0  0  0  0  0  0  0
    0.1577   24.0014  -27.0412 H   0  0  0  0  0  0  0  0  0  0  0  0
    0.4722   23.0263  -28.5166 H   0  0  0  0  0  0  0  0  0  0  0  0
    0.8116   24.7902  -28.5166 H   0  0  0  0  0  0  0  0  0  0  0  0
   -2.3730   23.4810  -28.3970 C   0  0  0  0  0  0  0  0  0  0  0  0
   -2.4100   22.2190  -27.5870 C   0  0  0  0  0  0  0  0  0  0  0  0
   -2.4026   22.4703  -26.5161 H   0  0  0  0  0  0  0  0  0  0  0  0
   -3.3250   21.6570  -27.8255 H   0  0  0  0  0  0  0  0  0  0  0  0
   -1.5295   21.6043  -27.8255 H   0  0  0  0  0  0  0  0  0  0  0  0
   -5.7890   22.1330  -31.7050 C   0  0  0  0  0  0  0  0  0  0  0  0
   -4.3790   22.1830  -31.7230 C   0  0  0  0  0  0  0  0  0  0  0  0
   -3.8589   23.0203  -31.2347 H   0  0  0  0  0  0  0  0  0  0  0  0
   -3.6380   21.1860  -32.3510 C   0  0  0  0  0  0  0  0  0  0  0  0
   -2.5394   21.2407  -32.3530 H   0  0  0  0  0  0  0  0  0  0  0  0
   -4.2780   20.1210  -32.9760 C   0  0  0  0  0  0  0  0  0  0  0  0
   -3.6806   19.3403  -33.4696 H   0  0  0  0  0  0  0  0  0  0  0  0
   -5.6750   20.0330  -32.9830 C   0  0  0  0  0  0  0  0  0  0  0  0
   -6.2890   18.9130  -33.6510 N   0  0  0  0  0  0  0  0  0  0  0  0
   -5.7440   18.4900  -34.9500 C   0  0  0  0  0  0  0  0  0  0  0  0
   -5.1516   19.3133  -35.3758 H   0  0  0  0  0  0  0  0  0  0  0  0
   -6.5834   18.2329  -35.6127 H   0  0  0  0  0  0  0  0  0  0  0  0
   -4.8540   17.2630  -34.8010 C   0  0  0  0  0  0  0  0  0  0  0  0
   -4.6993   17.0497  -33.7330 H   0  0  0  0  0  0  0  0  0  0  0  0
   -5.3370   16.3992  -35.2812 H   0  0  0  0  0  0  0  0  0  0  0  0
   -3.8829   17.4539  -35.2812 H   0  0  0  0  0  0  0  0  0  0  0  0
   -7.1020   17.9820  -32.8520 C   0  0  0  0  0  0  0  0  0  0  0  0
   -8.1127   18.3996  -32.7334 H   0  0  0  0  0  0  0  0  0  0  0  0
   -7.1399   17.0156  -33.3761 H   0  0  0  0  0  0  0  0  0  0  0  0
   -6.4920   17.7590  -31.4740 C   0  0  0  0  0  0  0  0  0  0  0  0
   -7.2263   18.0274  -30.7002 H   0  0  0  0  0  0  0  0  0  0  0  0
   -6.2130   16.7007  -31.3634 H   0  0  0  0  0  0  0  0  0  0  0  0
   -5.5963   18.3878  -31.3634 H   0  0  0  0  0  0  0  0  0  0  0  0
   -6.4440   21.0390  -32.3440 C   0  0  0  0  0  0  0  0  0  0  0  0
   -7.8490   20.9760  -32.3290 C   0  0  0  0  0  0  0  0  0  0  0  0
   -8.3613   20.1347  -32.8187 H   0  0  0  0  0  0  0  0  0  0  0  0
  1  2  1  0
  2  3  2  0
  3  4  1  0
  3  5  1  0
  5  6  1  0
  6  7  2  0
  6  8  2  0
  6  9  1  0
  9 10  2  0
 10 11  1  0
 11 12  1  0
 12 13  1  0
 13 14  1  0
 14 15  1  0
 14 16  1  0
 14 17  1  0
 13 18  2  0
 18 19  1  0
 19 20  1  0
 19 21  1  0
 19 22  1  0
  5 23  2  0
 23 24  1  0
 24 25  1  0
 24 26  2  0
 26 27  1  0
 26 28  1  0
 28 29  1  0
 28 30  2  0
 30 31  1  0
 31 32  1  0
 32 33  1  0
 32 34  1  0
 32 35  1  0
 35 36  1  0
 35 37  1  0
 35 38  1  0
 31 39  1  0
 39 40  1  0
 39 41  1  0
 39 42  1  0
 42 43  1  0
 42 44  1  0
 42 45  1  0
 30 46  1  0
 46 47  2  0
 47 48  1  0
 47  2  1  0
 18 10  1  0
 46 23  1  0
M  CHG  1  12  -1
M  END
>  <UniqueID>  (21) 
21

>  <SMILES>  (21) 
CCN(CC)c1cccc2c(S(=O)(=O)/N=c3/o[n-]c(C)c3C)cccc12

>  <Energy>  (21) 
96.2222150359451

>  <Genealogy>  (21) 
CCN(CC)c1cccc2c(S(=O)(=O)N=c3o[n-]c(C)c3C)cccc12 (protonated)
CCN(CC)c1cccc2c(S(=O)(=O)/N=c3/o[n-]c(C)c3C)cccc12 (cis-trans isomerization)
CCN(CC)c1cccc2c(S(=O)(=O)/N=c3/o[n-]c(C)c3C)cccc12 (3D coordinates assigned)
CCN(CC)c1cccc2c(S(=O)(=O)/N=c3/o[n-]c(C)c3C)cccc12 (optimized conformer: 96.2222150359451 kcal/mol)

>  <smiles>  (21) 
CCN(CC)c1cccc2c(S(=O)(=O)N=c3o[nH]c(C)c3C)cccc12

>  <score_type>  (21) 
oracle

>  <origin>  (21) 
adg

>  <m_score__min__energy>  (21) 
-12.460000000000001

>  <m_primary>  (21) 
energy

$$$$
21:0
     RDKit          3D

 59 62  0  0  1  0  0  0  0  0999 V2000
   -0.8430   22.2830  -25.8260 C   0  0  0  0  0  0  0  0  0  0  0  0
   -0.6150   23.6850  -25.6340 N   0  0  0  0  0  0  0  0  0  0  0  0
   -0.4810   23.9470  -24.2170 C   0  0  0  0  0  0  0  0  0  0  0  0
   -1.6360   24.4830  -26.2430 C   0  0  0  0  0  0  0  0  0  0  0  0
   -1.0730   25.6270  -27.0850 C   0  0  0  0  0  0  0  0  0  0  0  0
   -0.9700   25.2720  -28.4750 N   0  0  0  0  0  0  0  0  0  0  0  0
   -1.7380   24.3450  -28.9840 C   0  0  0  0  0  0  0  0  0  0  0  0
   -1.3680   23.0810  -28.7220 N   0  0  0  0  0  0  0  0  0  0  0  0
   -2.0880   22.0490  -29.1990 C   0  0  0  0  0  0  0  0  0  0  0  0
   -1.6940   20.6910  -28.9240 N   0  0  0  0  0  0  0  0  0  0  0  0
   -2.3140   19.8940  -27.8940 C   0  0  0  0  0  0  0  0  0  0  0  0
   -1.3450   19.0280  -27.1300 C   0  0  0  0  0  0  0  0  0  0  0  0
   -0.2700   18.5240  -27.8720 N   0  0  0  0  0  0  0  0  0  0  0  0
    0.2450   17.2490  -27.5840 C   0  0  0  0  0  0  0  0  0  0  0  0
    0.2650   19.2820  -28.9140 C   0  0  0  0  0  0  0  0  0  0  0  0
   -0.6470   20.1260  -29.7250 C   0  0  0  0  0  0  0  0  0  0  0  0
   -3.1960   22.3610  -29.9520 C   0  0  0  0  0  0  0  0  0  0  0  0
   -3.5540   23.6740  -30.2070 C   0  0  0  0  0  0  0  0  0  0  0  0
   -4.6960   24.0200  -30.9840 N   0  0  0  0  0  0  0  0  0  0  0  0
   -5.5730   23.1940  -31.4130 C   0  0  0  0  0  0  0  0  0  0  0  0
   -6.5930   22.6430  -30.6760 C   0  0  0  0  0  0  0  0  0  0  0  0
   -7.2790   21.8240  -31.5290 C   0  0  0  0  0  0  0  0  0  0  0  0
   -8.4650   20.9980  -31.2330 C   0  0  0  0  0  0  0  0  0  0  0  0
   -8.4170   19.5750  -31.8690 C   0  0  0  0  0  0  0  0  0  0  0  0
   -9.4080   20.6050  -32.3190 C   0  0  0  0  0  0  0  0  0  0  0  0
   -6.6820   21.8860  -32.7500 N   0  0  0  0  0  0  0  0  0  0  0  0
   -5.6380   22.7220  -32.6840 N   0  0  0  0  0  0  0  0  0  0  0  0
   -2.8100   24.6790  -29.7140 N   0  0  0  0  0  0  0  0  0  0  0  0
   -0.9236   21.7872  -24.8474 H   0  0  0  0  0  0  0  0  0  0  0  0
   -1.7767   22.1371  -26.3890 H   0  0  0  0  0  0  0  0  0  0  0  0
   -0.0037   21.8487  -26.3890 H   0  0  0  0  0  0  0  0  0  0  0  0
   -0.9094   23.1093  -23.6471 H   0  0  0  0  0  0  0  0  0  0  0  0
    0.5838   24.0564  -23.9634 H   0  0  0  0  0  0  0  0  0  0  0  0
   -1.0155   24.8744  -23.9634 H   0  0  0  0  0  0  0  0  0  0  0  0
   -2.2463   23.8372  -26.8915 H   0  0  0  0  0  0  0  0  0  0  0  0
   -2.2318   24.9306  -25.4339 H   0  0  0  0  0  0  0  0  0  0  0  0
   -1.7370   26.4988  -26.9892 H   0  0  0  0  0  0  0  0  0  0  0  0
   -0.0620   25.8549  -26.7164 H   0  0  0  0  0  0  0  0  0  0  0  0
   -2.8097   20.5710  -27.1826 H   0  0  0  0  0  0  0  0  0  0  0  0
   -3.0226   19.2178  -28.3946 H   0  0  0  0  0  0  0  0  0  0  0  0
   -0.9347   19.6269  -26.3036 H   0  0  0  0  0  0  0  0  0  0  0  0
   -1.9207   18.1507  -26.8000 H   0  0  0  0  0  0  0  0  0  0  0  0
    0.2998   17.1134  -26.4938 H   0  0  0  0  0  0  0  0  0  0  0  0
   -0.4136   16.4813  -28.0164 H   0  0  0  0  0  0  0  0  0  0  0  0
    1.2520   17.1541  -28.0164 H   0  0  0  0  0  0  0  0  0  0  0  0
    1.0185   19.9513  -28.4732 H   0  0  0  0  0  0  0  0  0  0  0  0
    0.6361   18.5305  -29.6264 H   0  0  0  0  0  0  0  0  0  0  0  0
   -0.0671   20.9415  -30.1818 H   0  0  0  0  0  0  0  0  0  0  0  0
   -1.1078   19.4920  -30.4969 H   0  0  0  0  0  0  0  0  0  0  0  0
   -3.8128   21.5475  -30.3616 H   0  0  0  0  0  0  0  0  0  0  0  0
   -6.8134   22.8242  -29.6136 H   0  0  0  0  0  0  0  0  0  0  0  0
   -8.6147   21.4542  -30.2433 H   0  0  0  0  0  0  0  0  0  0  0  0
   -7.5803   19.2876  -32.5227 H   0  0  0  0  0  0  0  0  0  0  0  0
   -8.4699   18.5424  -31.4936 H   0  0  0  0  0  0  0  0  0  0  0  0
   -9.3045   21.0571  -33.3164 H   0  0  0  0  0  0  0  0  0  0  0  0
  -10.5037   20.6151  -32.4153 H   0  0  0  0  0  0  0  0  0  0  0  0
   -6.9860   21.3650  -33.6090 H   0  0  0  0  0  0  0  0  0  0  0  0
   -4.9750   22.9850  -33.4480 H   0  0  0  0  0  0  0  0  0  0  0  0
   -3.0730   25.6710  -29.9020 H   0  0  0  0  0  0  0  0  0  0  0  0
  1  2  1  0
  2  3  1  0
  2  4  1  0
  4  5  1  0
  5  6  1  0
  6  7  2  0
  7  8  1  0
  8  9  2  0
  9 10  1  0
 10 11  1  0
 11 12  1  0
 12 13  1  0
 13 14  1  0
 13 15  1  0
 15 16  1  0
  9 17  1  0
 17 18  2  0
 18 19  1  0
 19 20  2  0
 20 21  1  0
 21 22  2  0
 22 23  1  0
 23 24  1  0
 24 25  1  0
 22 26  1  0
 26 27  1  0
 18 28  1  0
 28  7  1  0
 16 10  1  0
 27 20  1  0
 25 23  1  0
  1 29  1  0
  1 30  1  0
  1 31  1  0
  3 32  1  0
  3 33  1  0
  3 34  1  0
  4 35  1  0
  4 36  1  0
  5 37  1  0
  5 38  1  0
 11 39  1  0
 11 40  1  0
 12 41  1  0
 12 42  1  0
 14 43  1  0
 14 44  1  0
 14 45  1  0
 15 46  1  0
 15 47  1  0
 16 48  1  0
 16 49  1  0
 17 50  1  0
 21 51  1  0
 23 52  1  0
 24 53  1  0
 24 54  1  0
 25 55  1  0
 25 56  1  0
 26 57  1  0
 27 58  1  0
 28 59  1  0
M  END
>  <smiles>  (22) 
CN(C)CCN=c1nc(N2CCN(C)CC2)cc(N=c2cc(C3CC3)[nH][nH]2)[nH]1

>  <score_type>  (22) 
oracle

>  <origin>  (22) 
adg

>  <m_score__min__energy>  (22) 
-8.6699999999999999

>  <m_primary>  (22) 
energy

$$$$
22:0
     RDKit          3D

 56 59  0  0  0  0  0  0  0  0999 V2000
   -5.5619   26.4133  -30.8610 H   0  0  0  0  0  0  0  0  0  0  0  0
   -5.0670   25.4310  -30.8490 C   0  0  0  0  0  0  0  0  0  0  0  0
   -3.9110   25.2660  -30.1660 N   0  0  0  0  0  0  0  0  0  0  0  0
   -3.2880   24.0610  -30.0850 C   0  0  0  0  0  0  0  0  0  0  0  0
   -2.1290   23.9500  -29.3090 C   0  0  0  0  0  0  0  0  0  0  0  0
   -1.6905   24.8475  -28.8483 H   0  0  0  0  0  0  0  0  0  0  0  0
   -1.5270   22.7060  -29.1170 C   0  0  0  0  0  0  0  0  0  0  0  0
   -0.0900   22.5710  -28.1190 Cl  0  0  0  0  0  0  0  0  0  0  0  0
   -2.0990   21.5650  -29.6750 C   0  0  0  0  0  0  0  0  0  0  0  0
   -1.6415   20.5807  -29.4966 H   0  0  0  0  0  0  0  0  0  0  0  0
   -3.2520   21.6640  -30.4610 C   0  0  0  0  0  0  0  0  0  0  0  0
   -3.7130   20.7507  -30.8652 H   0  0  0  0  0  0  0  0  0  0  0  0
   -3.8330   22.9220  -30.7430 C   0  0  0  0  0  0  0  0  0  0  0  0
   -4.9920   23.1120  -31.5640 C   0  0  0  0  0  0  0  0  0  0  0  0
   -5.4910   22.2250  -32.3870 N   0  0  0  0  0  0  0  0  0  0  0  0
   -6.5380   21.2670  -32.1830 C   0  0  0  0  0  0  0  0  0  0  0  0
   -6.2050   19.9140  -32.0460 C   0  0  0  0  0  0  0  0  0  0  0  0
   -5.1532   19.6007  -32.1201 H   0  0  0  0  0  0  0  0  0  0  0  0
   -7.2020   18.9550  -31.8150 C   0  0  0  0  0  0  0  0  0  0  0  0
   -6.8540   17.4930  -31.7610 C   0  0  0  0  0  0  0  0  0  0  0  0
   -7.0486   17.1061  -30.7498 H   0  0  0  0  0  0  0  0  0  0  0  0
   -7.4686   16.9409  -32.4873 H   0  0  0  0  0  0  0  0  0  0  0  0
   -5.4340   17.3200  -32.0870 N   0  0  0  0  0  0  0  0  0  0  0  0
   -4.9440   18.2390  -31.9880 H   0  0  0  0  0  0  0  0  0  0  0  0
   -5.2210   16.7970  -33.4470 C   0  0  0  0  0  0  0  0  0  0  0  0
   -4.6963   15.8328  -33.3758 H   0  0  0  0  0  0  0  0  0  0  0  0
   -6.2076   16.6870  -33.9208 H   0  0  0  0  0  0  0  0  0  0  0  0
   -4.3850   17.7510  -34.3230 C   0  0  0  0  0  0  0  0  0  0  0  0
   -3.8293   17.1601  -35.0660 H   0  0  0  0  0  0  0  0  0  0  0  0
   -5.0695   18.4560  -34.8175 H   0  0  0  0  0  0  0  0  0  0  0  0
   -3.4230   18.5290  -33.5090 N   0  0  0  0  0  0  0  0  0  0  0  0
   -3.5250   19.9850  -33.7850 C   0  0  0  0  0  0  0  0  0  0  0  0
   -3.7081   20.1323  -34.8596 H   0  0  0  0  0  0  0  0  0  0  0  0
   -4.3530   20.3908  -33.1852 H   0  0  0  0  0  0  0  0  0  0  0  0
   -2.2350   20.7310  -33.3910 C   0  0  0  0  0  0  0  0  0  0  0  0
   -1.5698   20.7964  -34.2646 H   0  0  0  0  0  0  0  0  0  0  0  0
   -2.4924   21.7426  -33.0441 H   0  0  0  0  0  0  0  0  0  0  0  0
   -1.5780   20.0360  -32.3530 O   0  0  0  0  0  0  0  0  0  0  0  0
   -1.0500   18.8150  -32.8520 C   0  0  0  0  0  0  0  0  0  0  0  0
   -0.1484   19.0373  -33.4416 H   0  0  0  0  0  0  0  0  0  0  0  0
   -0.8251   18.1741  -31.9867 H   0  0  0  0  0  0  0  0  0  0  0  0
   -2.0500   18.0500  -33.7490 C   0  0  0  0  0  0  0  0  0  0  0  0
   -1.7883   18.2129  -34.8049 H   0  0  0  0  0  0  0  0  0  0  0  0
   -1.9981   16.9778  -33.5088 H   0  0  0  0  0  0  0  0  0  0  0  0
   -8.5390   19.3630  -31.7160 C   0  0  0  0  0  0  0  0  0  0  0  0
   -9.3289   18.6136  -31.5593 H   0  0  0  0  0  0  0  0  0  0  0  0
   -8.8750   20.7150  -31.8150 C   0  0  0  0  0  0  0  0  0  0  0  0
   -9.9258   21.0256  -31.7182 H   0  0  0  0  0  0  0  0  0  0  0  0
   -7.8770   21.6830  -32.0380 C   0  0  0  0  0  0  0  0  0  0  0  0
   -8.1720   23.0530  -32.1190 O   0  0  0  0  0  0  0  0  0  0  0  0
   -9.4730   23.5880  -32.3370 C   0  0  0  0  0  0  0  0  0  0  0  0
   -9.9550   23.7862  -31.3683 H   0  0  0  0  0  0  0  0  0  0  0  0
   -9.3931   24.5263  -32.9056 H   0  0  0  0  0  0  0  0  0  0  0  0
  -10.0763   22.8650  -32.9056 H   0  0  0  0  0  0  0  0  0  0  0  0
   -5.6320   24.3600  -31.5370 C   0  0  0  0  0  0  0  0  0  0  0  0
   -6.5883   24.4939  -32.0638 H   0  0  0  0  0  0  0  0  0  0  0  0
  1  2  1  0
  2  3  1  0
  3  4  1  0
  4  5  2  0
  5  6  1  0
  5  7  1  0
  7  8  1  0
  7  9  2  0
  9 10  1  0
  9 11  1  0
 11 12  1  0
 11 13  2  0
 13 14  1  0
 14 15  2  0
 15 16  1  0
 16 17  2  0
 17 18  1  0
 17 19  1  0
 19 20  1  0
 20 21  1  0
 20 22  1  0
 20 23  1  0
 23 24  1  0
 23 25  1  0
 25 26  1  0
 25 27  1  0
 25 28  1  0
 28 29  1  0
 28 30  1  0
 28 31  1  0
 31 32  1  0
 32 33  1  0
 32 34  1  0
 32 35  1  0
 35 36  1  0
 35 37  1  0
 35 38  1  0
 38 39  1  0
 39 40  1  0
 39 41  1  0
 39 42  1  0
 42 43  1  0
 42 44  1  0
 19 45  2  0
 45 46  1  0
 45 47  1  0
 47 48  1  0
 47 49  2  0
 49 50  1  0
 50 51  1  0
 51 52  1  0
 51 53  1  0
 51 54  1  0
 14 55  1  0
 55 56  1  0
 55  2  2  0
 13  4  1  0
 49 16  1  0
 42 31  1  0
M  CHG  1   3  -1
M  END
>  <UniqueID>  (23) 
22

>  <SMILES>  (23) 
COc1ccc(CNCCN2CCOCC2)cc1/N=c1/cc[n-]c2cc(Cl)ccc12

>  <Energy>  (23) 
90.61734594664907

>  <Genealogy>  (23) 
COc1ccc(CNCCN2CCOCC2)cc1N=c1cc[n-]c2cc(Cl)ccc12 (protonated)
COc1ccc(CNCCN2CCOCC2)cc1/N=c1/cc[n-]c2cc(Cl)ccc12 (cis-trans isomerization)
COc1ccc(CNCCN2CCOCC2)cc1/N=c1/cc[n-]c2cc(Cl)ccc12 (3D coordinates assigned)
COc1ccc(CNCCN2CCOCC2)cc1/N=c1/cc[n-]c2cc(Cl)ccc12 (nonaromatic ring conformer: 90.61734594664907 kcal/mol)

>  <smiles>  (23) 
COc1ccc(CNCCN2CCOCC2)cc1N=c1cc[nH]c2cc(Cl)ccc12

>  <score_type>  (23) 
oracle

>  <origin>  (23) 
adg

>  <m_score__min__energy>  (23) 
-10.42

>  <m_primary>  (23) 
energy

$$$$
23:0
     RDKit          3D

 46 48  0  0  0  0  0  0  0  0999 V2000
   -9.8490   21.0570  -32.3160 C   0  0  0  0  0  0  0  0  0  0  0  0
   -8.3510   21.0450  -32.2290 C   0  0  0  0  0  0  0  0  0  0  0  0
   -7.6270   19.9310  -32.6750 C   0  0  0  0  0  0  0  0  0  0  0  0
   -6.2330   19.9020  -32.5610 C   0  0  0  0  0  0  0  0  0  0  0  0
   -5.5420   20.9850  -31.9880 C   0  0  0  0  0  0  0  0  0  0  0  0
   -4.0660   20.9830  -31.8550 C   0  0  0  0  0  0  0  0  0  0  0  0
   -3.3360   21.9500  -31.2560 N   0  0  0  0  0  0  0  0  0  0  0  0
   -2.0640   21.5310  -31.3720 C   0  0  0  0  0  0  0  0  0  0  0  0
   -0.8740   22.2490  -30.8140 C   0  0  0  0  0  0  0  0  0  0  0  0
   -0.7720   22.0050  -29.3590 N   0  0  0  0  0  0  0  0  0  0  0  0
   -0.5800   23.2550  -28.5970 C   0  0  0  0  0  0  0  0  0  0  0  0
   -1.8400   24.1520  -28.6130 C   0  0  0  0  0  0  0  0  0  0  0  0
   -3.0640   23.3910  -28.9460 N   0  0  0  0  0  0  0  0  0  0  0  0
   -4.2740   24.1700  -28.6100 C   0  0  0  0  0  0  0  0  0  0  0  0
   -4.8530   24.8420  -29.8590 C   0  0  0  0  0  0  0  0  0  0  0  0
   -3.8650   24.9920  -30.8430 O   0  0  0  0  0  0  0  0  0  0  0  0
   -3.0520   22.0820  -28.2700 C   0  0  0  0  0  0  0  0  0  0  0  0
   -1.9080   21.2100  -28.8280 C   0  0  0  0  0  0  0  0  0  0  0  0
   -2.0550   20.3190  -32.0270 C   0  0  0  0  0  0  0  0  0  0  0  0
   -3.2990   20.0140  -32.3140 O   0  0  0  0  0  0  0  0  0  0  0  0
   -6.2760   22.0910  -31.5250 C   0  0  0  0  0  0  0  0  0  0  0  0
   -7.6690   22.1180  -31.6390 C   0  0  0  0  0  0  0  0  0  0  0  0
  -10.2752   21.0604  -31.3019 H   0  0  0  0  0  0  0  0  0  0  0  0
  -10.1778   21.9578  -32.8549 H   0  0  0  0  0  0  0  0  0  0  0  0
  -10.1922   20.1616  -32.8549 H   0  0  0  0  0  0  0  0  0  0  0  0
   -8.1577   19.0749  -33.1171 H   0  0  0  0  0  0  0  0  0  0  0  0
   -5.6735   19.0264  -32.9219 H   0  0  0  0  0  0  0  0  0  0  0  0
   -3.6630   22.8260  -30.7930 H   0  0  0  0  0  0  0  0  0  0  0  0
    0.0374   21.8831  -31.3094 H   0  0  0  0  0  0  0  0  0  0  0  0
   -0.9878   23.3286  -30.9918 H   0  0  0  0  0  0  0  0  0  0  0  0
   -0.3404   23.0002  -27.5541 H   0  0  0  0  0  0  0  0  0  0  0  0
    0.2384   23.8161  -29.0718 H   0  0  0  0  0  0  0  0  0  0  0  0
   -1.9645   24.6056  -27.6186 H   0  0  0  0  0  0  0  0  0  0  0  0
   -1.6982   24.9193  -29.3884 H   0  0  0  0  0  0  0  0  0  0  0  0
   -5.0294   23.4955  -28.1805 H   0  0  0  0  0  0  0  0  0  0  0  0
   -4.0006   24.9504  -27.8846 H   0  0  0  0  0  0  0  0  0  0  0  0
   -5.6689   24.2213  -30.2579 H   0  0  0  0  0  0  0  0  0  0  0  0
   -5.2314   25.8372  -29.5825 H   0  0  0  0  0  0  0  0  0  0  0  0
   -3.0590   24.5160  -30.5120 H   0  0  0  0  0  0  0  0  0  0  0  0
   -2.9030   22.2310  -27.1904 H   0  0  0  0  0  0  0  0  0  0  0  0
   -4.0119   21.5751  -28.4479 H   0  0  0  0  0  0  0  0  0  0  0  0
   -1.5349   20.5638  -28.0198 H   0  0  0  0  0  0  0  0  0  0  0  0
   -2.3195   20.6280  -29.6658 H   0  0  0  0  0  0  0  0  0  0  0  0
   -1.1665   19.7162  -32.2661 H   0  0  0  0  0  0  0  0  0  0  0  0
   -5.7496   22.9425  -31.0691 H   0  0  0  0  0  0  0  0  0  0  0  0
   -8.2324   22.9852  -31.2640 H   0  0  0  0  0  0  0  0  0  0  0  0
  1  2  1  0
  2  3  2  0
  3  4  1  0
  4  5  2  0
  5  6  1  0
  6  7  2  0
  7  8  1  0
  8  9  1  0
  9 10  1  0
 10 11  1  0
 11 12  1  0
 12 13  1  0
 13 14  1  0
 14 15  1  0
 15 16  1  0
 13 17  1  0
 17 18  1  0
  8 19  2  0
 19 20  1  0
  5 21  1  0
 21 22  2  0
 22  2  1  0
 20  6  1  0
 18 10  1  0
  1 23  1  0
  1 24  1  0
  1 25  1  0
  3 26  1  0
  4 27  1  0
  7 28  1  0
  9 29  1  0
  9 30  1  0
 11 31  1  0
 11 32  1  0
 12 33  1  0
 12 34  1  0
 14 35  1  0
 14 36  1  0
 15 37  1  0
 15 38  1  0
 16 39  1  0
 17 40  1  0
 17 41  1  0
 18 42  1  0
 18 43  1  0
 19 44  1  0
 21 45  1  0
 22 46  1  0
M  CHG  1   7   1
M  END
>  <UniqueID>  (24) 
23

>  <SMILES>  (24) 
Cc1ccc(-c2[nH+]c(CN3CCN(CCO)CC3)co2)cc1

>  <Energy>  (24) 
86.90953283239568

>  <Genealogy>  (24) 
Cc1ccc(-c2[nH+]c(CN3CCN(CCO)CC3)co2)cc1 (protonated)
Cc1ccc(-c2[nH+]c(CN3CCN(CCO)CC3)co2)cc1 (3D coordinates assigned)
Cc1ccc(-c2[nH+]c(CN3CCN(CCO)CC3)co2)cc1 (nonaromatic ring conformer: 86.90953283239568 kcal/mol)

>  <smiles>  (24) 
Cc1ccc(-c2nc(CN3CCN(CCO)CC3)co2)cc1

>  <score_type>  (24) 
oracle

>  <origin>  (24) 
adg

>  <m_score__min__energy>  (24) 
-6.6200000000000001

>  <m_primary>  (24) 
energy

$$$$
24:0
     RDKit          3D

 67 70  0  0  0  0  0  0  0  0999 V2000
   -2.0250   16.3890  -34.3620 C   0  0  0  0  0  0  0  0  0  0  0  0
   -1.9740   16.9490  -32.9330 C   0  0  0  0  0  0  0  0  0  0  0  0
   -0.8760   17.9380  -32.7590 N   0  0  0  0  0  0  0  0  0  0  0  0
   -0.1190   18.1340  -34.0350 C   0  0  0  0  0  0  0  0  0  0  0  0
   -0.4510   19.4750  -34.6970 C   0  0  0  0  0  0  0  0  0  0  0  0
    0.0180   17.4920  -31.6560 C   0  0  0  0  0  0  0  0  0  0  0  0
    0.2240   18.5670  -30.5730 C   0  0  0  0  0  0  0  0  0  0  0  0
   -0.9630   19.3320  -30.3860 O   0  0  0  0  0  0  0  0  0  0  0  0
   -1.2230   20.5260  -31.0610 C   0  0  0  0  0  0  0  0  0  0  0  0
   -0.5810   20.8230  -32.1090 O   0  0  0  0  0  0  0  0  0  0  0  0
   -2.3290   21.4210  -30.5570 C   0  0  1  0  0  0  0  0  0  0  0  0
   -1.8080   22.6430  -29.8190 C   0  0  0  0  0  0  0  0  0  0  0  0
   -0.6250   22.5780  -29.0480 C   0  0  0  0  0  0  0  0  0  0  0  0
   -0.2040   23.6740  -28.2940 C   0  0  0  0  0  0  0  0  0  0  0  0
   -0.9740   24.8330  -28.2570 C   0  0  0  0  0  0  0  0  0  0  0  0
   -2.1770   24.8930  -28.9600 C   0  0  0  0  0  0  0  0  0  0  0  0
   -2.6100   23.7970  -29.7300 C   0  0  0  0  0  0  0  0  0  0  0  0
   -3.9120   23.8380  -30.4230 C   0  0  0  0  0  0  0  0  0  0  0  0
   -4.7230   24.7690  -30.1610 O   0  0  0  0  0  0  0  0  0  0  0  0
   -4.2550   22.8310  -31.3990 N   0  0  0  0  0  0  0  0  0  0  0  0
   -5.3710   23.1040  -32.3310 C   0  0  0  0  0  0  0  0  0  0  0  0
   -6.6110   22.3390  -31.9420 C   0  0  0  0  0  0  0  0  0  0  0  0
   -7.0710   21.2830  -32.7500 C   0  0  0  0  0  0  0  0  0  0  0  0
   -8.2110   20.5580  -32.3840 C   0  0  0  0  0  0  0  0  0  0  0  0
   -8.9090   20.8910  -31.2210 C   0  0  0  0  0  0  0  0  0  0  0  0
   -8.4720   21.9540  -30.4250 C   0  0  0  0  0  0  0  0  0  0  0  0
   -7.3330   22.6800  -30.7860 C   0  0  0  0  0  0  0  0  0  0  0  0
   -3.2690   21.7820  -31.7440 C   0  0  2  0  0  0  0  0  0  0  0  0
   -3.9620   20.5210  -32.2480 C   0  0  0  0  0  0  0  0  0  0  0  0
   -3.8190   20.1220  -33.5890 C   0  0  0  0  0  0  0  0  0  0  0  0
   -4.4520   18.9660  -34.0530 C   0  0  0  0  0  0  0  0  0  0  0  0
   -5.2310   18.1940  -33.1850 C   0  0  0  0  0  0  0  0  0  0  0  0
   -6.1070   16.6230  -33.8250 Br  0  0  0  0  0  0  0  0  0  0  0  0
   -5.3720   18.5770  -31.8490 C   0  0  0  0  0  0  0  0  0  0  0  0
   -4.7420   19.7320  -31.3810 C   0  0  0  0  0  0  0  0  0  0  0  0
   -2.1247   15.2942  -34.3234 H   0  0  0  0  0  0  0  0  0  0  0  0
   -2.8879   16.8173  -34.8931 H   0  0  0  0  0  0  0  0  0  0  0  0
   -1.0990   16.6544  -34.8931 H   0  0  0  0  0  0  0  0  0  0  0  0
   -2.9326   17.4402  -32.7100 H   0  0  0  0  0  0  0  0  0  0  0  0
   -1.7866   16.1101  -32.2466 H   0  0  0  0  0  0  0  0  0  0  0  0
   -1.3250   18.8350  -32.4550 H   0  0  0  0  0  0  0  0  0  0  0  0
    0.9588   18.1022  -33.8174 H   0  0  0  0  0  0  0  0  0  0  0  0
   -0.4077   17.3309  -34.7290 H   0  0  0  0  0  0  0  0  0  0  0  0
   -0.6382   20.2310  -33.9202 H   0  0  0  0  0  0  0  0  0  0  0  0
    0.3952   19.7943  -35.3231 H   0  0  0  0  0  0  0  0  0  0  0  0
   -1.3484   19.3626  -35.3231 H   0  0  0  0  0  0  0  0  0  0  0  0
   -0.4241   16.6014  -31.1855 H   0  0  0  0  0  0  0  0  0  0  0  0
    1.0025   17.2788  -32.0978 H   0  0  0  0  0  0  0  0  0  0  0  0
    0.4902   18.0770  -29.6248 H   0  0  0  0  0  0  0  0  0  0  0  0
    1.0306   19.2418  -30.8955 H   0  0  0  0  0  0  0  0  0  0  0  0
   -2.9120   20.8733  -29.8019 H   0  0  0  0  0  0  0  0  0  0  0  0
   -0.0296   21.6531  -29.0424 H   0  0  0  0  0  0  0  0  0  0  0  0
    0.7378   23.6220  -27.7280 H   0  0  0  0  0  0  0  0  0  0  0  0
   -0.6338   25.7012  -27.6735 H   0  0  0  0  0  0  0  0  0  0  0  0
   -2.7922   25.8037  -28.9124 H   0  0  0  0  0  0  0  0  0  0  0  0
   -5.5950   24.1808  -32.3157 H   0  0  0  0  0  0  0  0  0  0  0  0
   -5.0676   22.7832  -33.3385 H   0  0  0  0  0  0  0  0  0  0  0  0
   -6.5321   21.0259  -33.6738 H   0  0  0  0  0  0  0  0  0  0  0  0
   -8.5576   19.7249  -33.0131 H   0  0  0  0  0  0  0  0  0  0  0  0
   -9.8018   20.3174  -30.9316 H   0  0  0  0  0  0  0  0  0  0  0  0
   -9.0257   22.2198  -29.5124 H   0  0  0  0  0  0  0  0  0  0  0  0
   -7.0005   23.5225  -30.1618 H   0  0  0  0  0  0  0  0  0  0  0  0
   -2.6459   22.2046  -32.5460 H   0  0  0  0  0  0  0  0  0  0  0  0
   -3.2056   20.7232  -34.2762 H   0  0  0  0  0  0  0  0  0  0  0  0
   -4.3373   18.6622  -35.1040 H   0  0  0  0  0  0  0  0  0  0  0  0
   -5.9804   17.9677  -31.1645 H   0  0  0  0  0  0  0  0  0  0  0  0
   -4.8559   20.0275  -30.3276 H   0  0  0  0  0  0  0  0  0  0  0  0
  1  2  1  0
  2  3  1  0
  3  4  1  0
  4  5  1  0
  3  6  1  0
  6  7  1  0
  7  8  1  0
  8  9  1  0
  9 10  2  0
  9 11  1  0
 11 12  1  0
 12 13  2  0
 13 14  1  0
 14 15  2  0
 15 16  1  0
 16 17  2  0
 17 18  1  0
 18 19  2  0
 18 20  1  0
 20 21  1  0
 21 22  1  0
 22 23  2  0
 23 24  1  0
 24 25  2  0
 25 26  1  0
 26 27  2  0
 20 28  1  0
 28 29  1  0
 29 30  2  0
 30 31  1  0
 31 32  2  0
 32 33  1  0
 32 34  1  0
 34 35  2  0
 28 11  1  0
 35 29  1  0
 17 12  1  0
 27 22  1  0
  1 36  1  0
  1 37  1  0
  1 38  1  0
  2 39  1  0
  2 40  1  0
  3 41  1  0
  4 42  1  0
  4 43  1  0
  5 44  1  0
  5 45  1  0
  5 46  1  0
  6 47  1  0
  6 48  1  0
  7 49  1  0
  7 50  1  0
 11 51  1  1
 13 52  1  0
 14 53  1  0
 15 54  1  0
 16 55  1  0
 21 56  1  0
 21 57  1  0
 23 58  1  0
 24 59  1  0
 25 60  1  0
 26 61  1  0
 27 62  1  0
 28 63  1  6
 30 64  1  0
 31 65  1  0
 34 66  1  0
 35 67  1  0
M  CHG  1   3   1
M  END
>  <UniqueID>  (25) 
24

>  <SMILES>  (25) 
CC[NH+](CC)CCOC(=O)[C@H]1c2ccccc2C(=O)N(Cc2ccccc2)[C@@H]1c1ccc(Br)cc1

>  <Energy>  (25) 
74.86518650708469

>  <Genealogy>  (25) 
CC[NH+](CC)CCOC(=O)C1c2ccccc2C(=O)N(Cc2ccccc2)C1c1ccc(Br)cc1 (protonated)
CC[NH+](CC)CCOC(=O)[C@H]1c2ccccc2C(=O)N(Cc2ccccc2)[C@@H]1c1ccc(Br)cc1 (chirality)
CC[NH+](CC)CCOC(=O)[C@H]1c2ccccc2C(=O)N(Cc2ccccc2)[C@@H]1c1ccc(Br)cc1 (3D coordinates assigned)
CC[NH+](CC)CCOC(=O)[C@H]1c2ccccc2C(=O)N(Cc2ccccc2)[C@@H]1c1ccc(Br)cc1 (nonaromatic ring conformer: 74.86518650708469 kcal/mol)

>  <smiles>  (25) 
CCN(CC)CCOC(=O)C1c2ccccc2C(=O)N(Cc2ccccc2)C1c1ccc(Br)cc1

>  <score_type>  (25) 
oracle

>  <origin>  (25) 
adg

>  <m_score__min__energy>  (25) 
-8.5999999999999996

>  <m_primary>  (25) 
energy

$$$$
25:0
     RDKit          3D

 55 56  0  0  0  0  0  0  0  0999 V2000
   -2.7340   24.8990  -27.0140 C   0  0  0  0  0  0  0  0  0  0  0  0
   -1.6050   25.4040  -27.9040 C   0  0  0  0  0  0  0  0  0  0  0  0
   -1.9680   25.2740  -29.3120 N   0  0  0  0  0  0  0  0  0  0  0  0
   -3.1180   24.5870  -29.8210 C   0  0  0  0  0  0  0  0  0  0  0  0
   -3.9210   25.2130  -30.5610 O   0  0  0  0  0  0  0  0  0  0  0  0
   -3.3680   23.1300  -29.5380 C   0  0  0  0  0  0  0  0  0  0  0  0
   -2.0950   22.4430  -29.2280 N   0  0  0  0  0  0  0  0  0  0  0  0
   -1.0260   22.7210  -30.2160 C   0  0  0  0  0  0  0  0  0  0  0  0
   -1.1940   21.9160  -31.5160 C   0  0  0  0  0  0  0  0  0  0  0  0
   -1.3240   20.4820  -31.2030 N   0  0  0  0  0  0  0  0  0  0  0  0
   -1.2960   19.6140  -32.4010 C   0  0  0  0  0  0  0  0  0  0  0  0
   -1.9080   20.2470  -33.6670 C   0  0  0  0  0  0  0  0  0  0  0  0
   -3.2960   19.9290  -33.7580 O   0  0  0  0  0  0  0  0  0  0  0  0
   -4.3510   20.6890  -33.2200 C   0  0  0  0  0  0  0  0  0  0  0  0
   -4.1850   22.0350  -32.8350 C   0  0  0  0  0  0  0  0  0  0  0  0
   -5.2570   22.7590  -32.3090 C   0  0  0  0  0  0  0  0  0  0  0  0
   -6.5010   22.1490  -32.1470 C   0  0  0  0  0  0  0  0  0  0  0  0
   -7.8750   23.0790  -31.4650 S   0  0  0  0  0  0  0  0  0  0  0  0
   -6.8230   24.0190  -30.3140 C   0  0  0  0  0  0  0  0  0  0  0  0
   -6.6780   20.8130  -32.5200 C   0  0  0  0  0  0  0  0  0  0  0  0
   -5.6090   20.0760  -33.0540 C   0  0  0  0  0  0  0  0  0  0  0  0
   -5.8300   18.3830  -33.5150 S   0  0  0  0  0  0  0  0  0  0  0  0
   -7.2520   17.6400  -32.7400 C   0  0  0  0  0  0  0  0  0  0  0  0
   -6.0070   18.2970  -35.0060 O   0  0  0  0  0  0  0  0  0  0  0  0
   -4.6090   17.6030  -33.1130 O   0  0  0  0  0  0  0  0  0  0  0  0
   -2.4770   20.2350  -30.3230 C   0  0  0  0  0  0  0  0  0  0  0  0
   -2.2720   20.9920  -29.0060 C   0  0  0  0  0  0  0  0  0  0  0  0
   -2.4527   25.0248  -25.9580 H   0  0  0  0  0  0  0  0  0  0  0  0
   -3.6489   25.4737  -27.2207 H   0  0  0  0  0  0  0  0  0  0  0  0
   -2.9154   23.8339  -27.2207 H   0  0  0  0  0  0  0  0  0  0  0  0
   -1.4102   26.4624  -27.6764 H   0  0  0  0  0  0  0  0  0  0  0  0
   -0.7039   24.8032  -27.7116 H   0  0  0  0  0  0  0  0  0  0  0  0
   -4.0487   23.0385  -28.6787 H   0  0  0  0  0  0  0  0  0  0  0  0
   -3.8194   22.6645  -30.4266 H   0  0  0  0  0  0  0  0  0  0  0  0
   -1.0440   23.7931  -30.4614 H   0  0  0  0  0  0  0  0  0  0  0  0
   -0.0692   22.4230  -29.7624 H   0  0  0  0  0  0  0  0  0  0  0  0
   -2.0970   22.2579  -32.0429 H   0  0  0  0  0  0  0  0  0  0  0  0
   -0.3114   22.0694  -32.1543 H   0  0  0  0  0  0  0  0  0  0  0  0
   -0.2475   19.3606  -32.6166 H   0  0  0  0  0  0  0  0  0  0  0  0
   -1.9124   18.7345  -32.1631 H   0  0  0  0  0  0  0  0  0  0  0  0
   -1.7883   21.3395  -33.6207 H   0  0  0  0  0  0  0  0  0  0  0  0
   -1.3907   19.8485  -34.5522 H   0  0  0  0  0  0  0  0  0  0  0  0
   -3.2037   22.5186  -32.9498 H   0  0  0  0  0  0  0  0  0  0  0  0
   -5.1202   23.8120  -32.0219 H   0  0  0  0  0  0  0  0  0  0  0  0
   -7.1000   23.7715  -29.2786 H   0  0  0  0  0  0  0  0  0  0  0  0
   -5.7683   23.7570  -30.4840 H   0  0  0  0  0  0  0  0  0  0  0  0
   -6.9651   25.0964  -30.4840 H   0  0  0  0  0  0  0  0  0  0  0  0
   -7.6613   20.3363  -32.3942 H   0  0  0  0  0  0  0  0  0  0  0  0
   -7.1448   17.6960  -31.6467 H   0  0  0  0  0  0  0  0  0  0  0  0
   -8.1605   18.1787  -33.0474 H   0  0  0  0  0  0  0  0  0  0  0  0
   -7.3286   16.5866  -33.0474 H   0  0  0  0  0  0  0  0  0  0  0  0
   -3.3966   20.5887  -30.8122 H   0  0  0  0  0  0  0  0  0  0  0  0
   -2.5662   19.1573  -30.1217 H   0  0  0  0  0  0  0  0  0  0  0  0
   -3.1516   20.8347  -28.3644 H   0  0  0  0  0  0  0  0  0  0  0  0
   -1.3596   20.6056  -28.5282 H   0  0  0  0  0  0  0  0  0  0  0  0
  1  2  1  0
  2  3  1  0
  3  4  1  0
  4  5  2  0
  4  6  1  0
  6  7  1  0
  7  8  1  0
  8  9  1  0
  9 10  1  0
 10 11  1  0
 11 12  1  0
 12 13  1  0
 13 14  1  0
 14 15  2  0
 15 16  1  0
 16 17  2  0
 17 18  1  0
 18 19  1  0
 17 20  1  0
 20 21  2  0
 21 22  1  0
 22 23  1  0
 22 24  2  0
 22 25  2  0
 10 26  1  0
 26 27  1  0
 27  7  1  0
 21 14  1  0
  1 28  1  0
  1 29  1  0
  1 30  1  0
  2 31  1  0
  2 32  1  0
  6 33  1  0
  6 34  1  0
  8 35  1  0
  8 36  1  0
  9 37  1  0
  9 38  1  0
 11 39  1  0
 11 40  1  0
 12 41  1  0
 12 42  1  0
 15 43  1  0
 16 44  1  0
 19 45  1  0
 19 46  1  0
 19 47  1  0
 20 48  1  0
 23 49  1  0
 23 50  1  0
 23 51  1  0
 26 52  1  0
 26 53  1  0
 27 54  1  0
 27 55  1  0
M  CHG  1   3  -1
M  END
>  <UniqueID>  (26) 
25

>  <SMILES>  (26) 
CC[N-]C(=O)CN1CCN(CCOc2ccc(SC)cc2S(C)(=O)=O)CC1

>  <Energy>  (26) 
49.505793183055744

>  <Genealogy>  (26) 
CC[N-]C(=O)CN1CCN(CCOc2ccc(SC)cc2S(C)(=O)=O)CC1 (protonated)
CC[N-]C(=O)CN1CCN(CCOc2ccc(SC)cc2S(C)(=O)=O)CC1 (3D coordinates assigned)
CC[N-]C(=O)CN1CCN(CCOc2ccc(SC)cc2S(C)(=O)=O)CC1 (nonaromatic ring conformer: 49.505793183055744 kcal/mol)

>  <smiles>  (26) 
CCNC(=O)CN1CCN(CCOc2ccc(SC)cc2S(C)(=O)=O)CC1

>  <score_type>  (26) 
oracle

>  <origin>  (26) 
adg

>  <m_score__min__energy>  (26) 
-9.8300000000000001

>  <m_primary>  (26) 
energy

$$$$
26:0
     RDKit          3D

 54 56  0  0  0  0  0  0  0  0999 V2000
    1.1360   21.0760  -36.1050 C   0  0  0  0  0  0  0  0  0  0  0  0
    0.1800   21.7700  -35.1360 C   0  0  0  0  0  0  0  0  0  0  0  0
   -0.6740   20.8020  -34.4070 N   0  0  0  0  0  0  0  0  0  0  0  0
   -0.5180   19.3980  -34.8610 C   0  0  0  0  0  0  0  0  0  0  0  0
   -1.0840   18.3570  -33.8840 C   0  0  0  0  0  0  0  0  0  0  0  0
   -0.5160   20.9370  -32.9400 C   0  0  0  0  0  0  0  0  0  0  0  0
   -1.8670   21.2220  -32.2770 C   0  0  0  0  0  0  0  0  0  0  0  0
   -2.9500   21.2080  -33.2620 N   0  0  0  0  0  0  0  0  0  0  0  0
   -4.2630   20.7850  -32.8790 C   0  0  0  0  0  0  0  0  0  0  0  0
   -5.0140   21.4990  -31.9380 C   0  0  0  0  0  0  0  0  0  0  0  0
   -6.2760   21.0890  -31.5560 C   0  0  0  0  0  0  0  0  0  0  0  0
   -6.8720   19.9440  -32.0920 C   0  0  0  0  0  0  0  0  0  0  0  0
   -8.1500   19.5480  -31.6920 O   0  0  0  0  0  0  0  0  0  0  0  0
   -9.3150   20.0600  -32.3240 C   0  0  0  0  0  0  0  0  0  0  0  0
   -6.1490   19.2090  -33.0590 C   0  0  0  0  0  0  0  0  0  0  0  0
   -6.6850   18.0540  -33.6500 C   0  0  0  0  0  0  0  0  0  0  0  0
   -5.9450   17.3460  -34.5980 C   0  0  0  0  0  0  0  0  0  0  0  0
   -4.6710   17.7920  -34.9510 C   0  0  0  0  0  0  0  0  0  0  0  0
   -4.1550   18.9110  -34.3780 N   0  0  0  0  0  0  0  0  0  0  0  0
   -4.8450   19.6330  -33.4530 C   0  0  0  0  0  0  0  0  0  0  0  0
   -6.8110   22.0960  -30.6410 C   0  0  0  0  0  0  0  0  0  0  0  0
   -7.9710   22.1020  -30.1500 O   0  0  0  0  0  0  0  0  0  0  0  0
   -5.8500   23.1290  -30.4290 N   0  0  0  0  0  0  0  0  0  0  0  0
   -6.1170   24.4540  -29.8740 C   0  0  0  0  0  0  0  0  0  0  0  0
   -5.6070   25.5410  -30.8200 C   0  0  0  0  0  0  0  0  0  0  0  0
   -4.2210   25.6940  -30.6810 O   0  0  0  0  0  0  0  0  0  0  0  0
   -4.7530   22.7760  -31.2720 C   0  0  0  0  0  0  0  0  0  0  0  0
   -3.7520   23.5140  -31.4640 O   0  0  0  0  0  0  0  0  0  0  0  0
    1.8977   20.5231  -35.5357 H   0  0  0  0  0  0  0  0  0  0  0  0
    0.5717   20.3758  -36.7385 H   0  0  0  0  0  0  0  0  0  0  0  0
    1.6269   21.8295  -36.7385 H   0  0  0  0  0  0  0  0  0  0  0  0
    0.7696   22.3434  -34.4055 H   0  0  0  0  0  0  0  0  0  0  0  0
   -0.4780   22.4284  -35.7221 H   0  0  0  0  0  0  0  0  0  0  0  0
   -1.0377   19.2865  -35.8240 H   0  0  0  0  0  0  0  0  0  0  0  0
    0.5627   19.2072  -34.9371 H   0  0  0  0  0  0  0  0  0  0  0  0
   -0.9040   18.6881  -32.8506 H   0  0  0  0  0  0  0  0  0  0  0  0
   -2.1658   18.2477  -34.0508 H   0  0  0  0  0  0  0  0  0  0  0  0
   -0.5877   17.3896  -34.0508 H   0  0  0  0  0  0  0  0  0  0  0  0
   -0.1036   20.0019  -32.5331 H   0  0  0  0  0  0  0  0  0  0  0  0
    0.1653   21.7752  -32.7320 H   0  0  0  0  0  0  0  0  0  0  0  0
   -2.0634   20.4524  -31.5160 H   0  0  0  0  0  0  0  0  0  0  0  0
   -1.8266   22.2198  -31.8158 H   0  0  0  0  0  0  0  0  0  0  0  0
   -2.6890   21.1050  -34.2690 H   0  0  0  0  0  0  0  0  0  0  0  0
  -10.0380   20.3777  -31.5582 H   0  0  0  0  0  0  0  0  0  0  0  0
   -9.0431   20.9216  -32.9515 H   0  0  0  0  0  0  0  0  0  0  0  0
   -9.7658   19.2771  -32.9515 H   0  0  0  0  0  0  0  0  0  0  0  0
   -7.6892   17.7067  -33.3656 H   0  0  0  0  0  0  0  0  0  0  0  0
   -6.3636   16.4418  -35.0641 H   0  0  0  0  0  0  0  0  0  0  0  0
   -4.0823   17.2360  -35.6956 H   0  0  0  0  0  0  0  0  0  0  0  0
   -7.2010   24.5760  -29.7327 H   0  0  0  0  0  0  0  0  0  0  0  0
   -5.5969   24.5480  -28.9093 H   0  0  0  0  0  0  0  0  0  0  0  0
   -5.8388   25.2576  -31.8573 H   0  0  0  0  0  0  0  0  0  0  0  0
   -6.0993   26.4926  -30.5710 H   0  0  0  0  0  0  0  0  0  0  0  0
   -3.8390   25.6600  -31.5970 H   0  0  0  0  0  0  0  0  0  0  0  0
  1  2  1  0
  2  3  1  0
  3  4  1  0
  4  5  1  0
  3  6  1  0
  6  7  1  0
  7  8  1  0
  8  9  1  0
  9 10  2  0
 10 11  1  0
 11 12  2  0
 12 13  1  0
 13 14  1  0
 12 15  1  0
 15 16  2  0
 16 17  1  0
 17 18  2  0
 18 19  1  0
 19 20  2  0
 11 21  1  0
 21 22  2  0
 21 23  1  0
 23 24  1  0
 24 25  1  0
 25 26  1  0
 23 27  1  0
 27 28  2  0
 20  9  1  0
 27 10  1  0
 20 15  1  0
  1 29  1  0
  1 30  1  0
  1 31  1  0
  2 32  1  0
  2 33  1  0
  4 34  1  0
  4 35  1  0
  5 36  1  0
  5 37  1  0
  5 38  1  0
  6 39  1  0
  6 40  1  0
  7 41  1  0
  7 42  1  0
  8 43  1  0
 14 44  1  0
 14 45  1  0
 14 46  1  0
 16 47  1  0
 17 48  1  0
 18 49  1  0
 24 50  1  0
 24 51  1  0
 25 52  1  0
 25 53  1  0
 26 54  1  0
M  END
>  <UniqueID>  (27) 
26

>  <SMILES>  (27) 
CCN(CC)CCNc1c2c(c(OC)c3cccnc13)C(=O)N(CCO)C2=O

>  <Energy>  (27) 
97.24390086389582

>  <Genealogy>  (27) 
CCN(CC)CCNc1c2c(c(OC)c3cccnc13)C(=O)N(CCO)C2=O (3D coordinates assigned)
CCN(CC)CCNc1c2c(c(OC)c3cccnc13)C(=O)N(CCO)C2=O (nonaromatic ring conformer: 97.24390086389582 kcal/mol)

>  <smiles>  (27) 
CCN(CC)CCNc1c2c(c(OC)c3cccnc13)C(=O)N(CCO)C2=O

>  <score_type>  (27) 
oracle

>  <origin>  (27) 
adg

>  <m_score__min__energy>  (27) 
-8.5099999999999998

>  <m_primary>  (27) 
energy

$$$$
27:0
     RDKit          3D

 26 28  0  0  0  0  0  0  0  0999 V2000
   -6.1090   25.7300  -30.1310 C   0  0  0  0  0  0  0  0  0  0  0  0
   -5.4490   24.4320  -30.4950 C   0  0  0  0  0  0  0  0  0  0  0  0
   -6.1150   23.4670  -31.2830 C   0  0  0  0  0  0  0  0  0  0  0  0
   -5.4640   22.2640  -31.6460 C   0  0  0  0  0  0  0  0  0  0  0  0
   -6.3860   20.9680  -32.7040 Br  0  0  0  0  0  0  0  0  0  0  0  0
   -4.1410   22.0210  -31.2370 C   0  0  0  0  0  0  0  0  0  0  0  0
   -3.5090   22.9980  -30.4750 C   0  0  0  0  0  0  0  0  0  0  0  0
   -2.2570   22.9780  -29.9940 N   0  0  0  0  0  0  0  0  0  0  0  0
   -2.1660   24.1700  -29.3450 C   0  0  0  0  0  0  0  0  0  0  0  0
   -0.9430   24.6110  -28.6390 C   0  0  0  0  0  0  0  0  0  0  0  0
    0.1650   23.7550  -28.5240 C   0  0  0  0  0  0  0  0  0  0  0  0
    1.3100   24.1920  -27.8530 C   0  0  0  0  0  0  0  0  0  0  0  0
    1.3510   25.4400  -27.3170 N   0  0  0  0  0  0  0  0  0  0  0  0
    0.2960   26.2910  -27.4110 C   0  0  0  0  0  0  0  0  0  0  0  0
   -0.8690   25.8940  -28.0720 C   0  0  0  0  0  0  0  0  0  0  0  0
   -3.2980   24.9220  -29.4000 N   0  0  0  0  0  0  0  0  0  0  0  0
   -4.1310   24.1550  -30.1210 C   0  0  0  0  0  0  0  0  0  0  0  0
   -6.1562   25.8229  -29.0359 H   0  0  0  0  0  0  0  0  0  0  0  0
   -5.5266   26.5663  -30.5451 H   0  0  0  0  0  0  0  0  0  0  0  0
   -7.1278   25.7521  -30.5451 H   0  0  0  0  0  0  0  0  0  0  0  0
   -7.1467   23.6519  -31.6167 H   0  0  0  0  0  0  0  0  0  0  0  0
   -3.6233   21.0898  -31.5104 H   0  0  0  0  0  0  0  0  0  0  0  0
    0.1313   22.7457  -28.9601 H   0  0  0  0  0  0  0  0  0  0  0  0
    2.1795   23.5248  -27.7585 H   0  0  0  0  0  0  0  0  0  0  0  0
    0.3593   27.2948  -26.9656 H   0  0  0  0  0  0  0  0  0  0  0  0
   -1.7236   26.5824  -28.1480 H   0  0  0  0  0  0  0  0  0  0  0  0
  1  2  1  0
  2  3  2  0
  3  4  1  0
  4  5  1  0
  4  6  2  0
  6  7  1  0
  7  8  1  0
  8  9  2  0
  9 10  1  0
 10 11  2  0
 11 12  1  0
 12 13  2  0
 13 14  1  0
 14 15  2  0
  9 16  1  0
 16 17  1  0
 17  2  1  0
 17  7  2  0
 15 10  1  0
  1 18  1  0
  1 19  1  0
  1 20  1  0
  3 21  1  0
  6 22  1  0
 11 23  1  0
 12 24  1  0
 14 25  1  0
 15 26  1  0
M  CHG  1  16  -1
M  END
>  <UniqueID>  (28) 
27

>  <SMILES>  (28) 
Cc1cc(Br)cc2nc(-c3ccncc3)[n-]c12

>  <Energy>  (28) 
63.843873783151295

>  <Genealogy>  (28) 
Cc1cc(Br)cc2nc(-c3ccncc3)[n-]c12 (protonated)
Cc1cc(Br)cc2nc(-c3ccncc3)[n-]c12 (3D coordinates assigned)
Cc1cc(Br)cc2nc(-c3ccncc3)[n-]c12 (optimized conformer: 63.843873783151295 kcal/mol)

>  <smiles>  (28) 
Cc1cc(Br)cc2nc(-c3ccncc3)[nH]c12

>  <score_type>  (28) 
oracle

>  <origin>  (28) 
adg

>  <m_score__min__energy>  (28) 
-7.2199999999999998

>  <m_primary>  (28) 
energy

$$$$
28:0
     RDKit          3D

 63 67  0  0  0  0  0  0  0  0999 V2000
   -4.5320   20.6920  -30.9450 C   0  0  0  0  0  0  0  0  0  0  0  0
   -3.5090   21.6010  -30.3220 C   0  0  0  0  0  0  0  0  0  0  0  0
   -3.8710   22.4150  -29.2350 C   0  0  0  0  0  0  0  0  0  0  0  0
   -2.9340   23.2660  -28.6440 C   0  0  0  0  0  0  0  0  0  0  0  0
   -1.6240   23.3070  -29.1240 C   0  0  0  0  0  0  0  0  0  0  0  0
   -1.2460   22.4950  -30.1950 C   0  0  0  0  0  0  0  0  0  0  0  0
   -2.1770   21.6350  -30.7970 C   0  0  0  0  0  0  0  0  0  0  0  0
   -1.7590   20.7950  -31.8840 N   0  0  0  0  0  0  0  0  0  0  0  0
   -1.5820   19.3570  -31.6610 C   0  0  0  0  0  0  0  0  0  0  0  0
   -1.0600   18.6650  -32.9310 C   0  0  0  0  0  0  0  0  0  0  0  0
   -1.8310   19.0160  -34.1570 N   0  0  0  0  0  0  0  0  0  0  0  0
   -2.9230   18.0930  -34.4200 C   0  0  0  0  0  0  0  0  0  0  0  0
   -2.7880   17.2130  -35.3130 O   0  0  0  0  0  0  0  0  0  0  0  0
   -4.2170   18.1740  -33.7150 C   0  0  0  0  0  0  0  0  0  0  0  0
   -4.5250   17.2210  -32.7090 C   0  0  0  0  0  0  0  0  0  0  0  0
   -5.7490   17.2800  -32.0150 C   0  0  0  0  0  0  0  0  0  0  0  0
   -6.6400   18.2900  -32.3640 C   0  0  0  0  0  0  0  0  0  0  0  0
   -7.8580   18.5300  -31.8490 N   0  0  0  0  0  0  0  0  0  0  0  0
   -8.2590   19.6080  -32.5730 C   0  0  0  0  0  0  0  0  0  0  0  0
   -9.5910   20.2650  -32.3940 C   0  0  0  0  0  0  0  0  0  0  0  0
   -9.4620   21.6500  -31.7420 C   0  0  0  0  0  0  0  0  0  0  0  0
   -8.4500   21.7000  -30.5830 C   0  0  0  0  0  0  0  0  0  0  0  0
   -7.3850   22.7460  -30.7980 C   0  0  0  0  0  0  0  0  0  0  0  0
   -6.6910   22.8080  -32.0170 C   0  0  0  0  0  0  0  0  0  0  0  0
   -5.7240   23.7950  -32.2280 C   0  0  0  0  0  0  0  0  0  0  0  0
   -5.4360   24.7220  -31.2200 C   0  0  0  0  0  0  0  0  0  0  0  0
   -6.1180   24.6630  -30.0030 C   0  0  0  0  0  0  0  0  0  0  0  0
   -7.0890   23.6810  -29.7900 C   0  0  0  0  0  0  0  0  0  0  0  0
   -7.3680   20.0050  -33.4670 O   0  0  0  0  0  0  0  0  0  0  0  0
   -6.3570   19.1910  -33.3420 C   0  0  0  0  0  0  0  0  0  0  0  0
   -5.1600   19.1710  -34.0510 C   0  0  0  0  0  0  0  0  0  0  0  0
   -2.3090   20.4270  -34.2250 C   0  0  0  0  0  0  0  0  0  0  0  0
   -1.5990   21.3470  -33.2290 C   0  0  0  0  0  0  0  0  0  0  0  0
   -5.1027   20.1849  -30.1530 H   0  0  0  0  0  0  0  0  0  0  0  0
   -5.2174   21.2844  -31.5689 H   0  0  0  0  0  0  0  0  0  0  0  0
   -4.0243   19.9417  -31.5689 H   0  0  0  0  0  0  0  0  0  0  0  0
   -4.8997   22.3818  -28.8468 H   0  0  0  0  0  0  0  0  0  0  0  0
   -3.2291   23.9050  -27.7987 H   0  0  0  0  0  0  0  0  0  0  0  0
   -0.8888   23.9796  -28.6581 H   0  0  0  0  0  0  0  0  0  0  0  0
   -0.2121   22.5297  -30.5691 H   0  0  0  0  0  0  0  0  0  0  0  0
   -0.8597   19.2053  -30.8454 H   0  0  0  0  0  0  0  0  0  0  0  0
   -2.5563   18.9196  -31.3976 H   0  0  0  0  0  0  0  0  0  0  0  0
   -0.0112   18.9600  -33.0825 H   0  0  0  0  0  0  0  0  0  0  0  0
   -1.1698   17.5812  -32.7781 H   0  0  0  0  0  0  0  0  0  0  0  0
   -1.1550   18.8940  -34.9490 H   0  0  0  0  0  0  0  0  0  0  0  0
   -3.8006   16.4287  -32.4692 H   0  0  0  0  0  0  0  0  0  0  0  0
   -5.9919   16.5537  -31.2254 H   0  0  0  0  0  0  0  0  0  0  0  0
  -10.0672   20.3784  -33.3791 H   0  0  0  0  0  0  0  0  0  0  0  0
  -10.1983   19.6308  -31.7314 H   0  0  0  0  0  0  0  0  0  0  0  0
   -9.1427   22.3674  -32.5123 H   0  0  0  0  0  0  0  0  0  0  0  0
  -10.4465   21.8972  -31.3182 H   0  0  0  0  0  0  0  0  0  0  0  0
   -8.9892   21.9302  -29.6522 H   0  0  0  0  0  0  0  0  0  0  0  0
   -7.9531   20.7202  -30.5275 H   0  0  0  0  0  0  0  0  0  0  0  0
   -6.9092   22.0768  -32.8093 H   0  0  0  0  0  0  0  0  0  0  0  0
   -5.1886   23.8431  -33.1877 H   0  0  0  0  0  0  0  0  0  0  0  0
   -4.6729   25.4966  -31.3863 H   0  0  0  0  0  0  0  0  0  0  0  0
   -5.8904   25.3910  -29.2104 H   0  0  0  0  0  0  0  0  0  0  0  0
   -7.6241   23.6391  -28.8299 H   0  0  0  0  0  0  0  0  0  0  0  0
   -4.9553   19.9049  -34.8444 H   0  0  0  0  0  0  0  0  0  0  0  0
   -2.1328   20.8083  -35.2416 H   0  0  0  0  0  0  0  0  0  0  0  0
   -3.3783   20.4252  -33.9671 H   0  0  0  0  0  0  0  0  0  0  0  0
   -0.5296   21.4082  -33.4791 H   0  0  0  0  0  0  0  0  0  0  0  0
   -2.0351   22.3558  -33.2743 H   0  0  0  0  0  0  0  0  0  0  0  0
  1  2  1  0
  2  3  2  0
  3  4  1  0
  4  5  2  0
  5  6  1  0
  6  7  2  0
  7  8  1  0
  8  9  1  0
  9 10  1  0
 10 11  1  0
 11 12  1  0
 12 13  2  0
 12 14  1  0
 14 15  2  0
 15 16  1  0
 16 17  2  0
 17 18  1  0
 18 19  2  0
 19 20  1  0
 20 21  1  0
 21 22  1  0
 22 23  1  0
 23 24  2  0
 24 25  1  0
 25 26  2  0
 26 27  1  0
 27 28  2  0
 19 29  1  0
 29 30  1  0
 30 31  2  0
 11 32  1  0
 32 33  1  0
  7  2  1  0
 33  8  1  0
 31 14  1  0
 30 17  1  0
 28 23  1  0
  1 34  1  0
  1 35  1  0
  1 36  1  0
  3 37  1  0
  4 38  1  0
  5 39  1  0
  6 40  1  0
  9 41  1  0
  9 42  1  0
 10 43  1  0
 10 44  1  0
 11 45  1  0
 15 46  1  0
 16 47  1  0
 20 48  1  0
 20 49  1  0
 21 50  1  0
 21 51  1  0
 22 52  1  0
 22 53  1  0
 24 54  1  0
 25 55  1  0
 26 56  1  0
 27 57  1  0
 28 58  1  0
 31 59  1  0
 32 60  1  0
 32 61  1  0
 33 62  1  0
 33 63  1  0
M  CHG  1  11   1
M  END
>  <UniqueID>  (29) 
28

>  <SMILES>  (29) 
Cc1ccccc1N1CC[NH+](C(=O)c2ccc3nc(CCCc4ccccc4)oc3c2)CC1

>  <Energy>  (29) 
121.48529871716559

>  <Genealogy>  (29) 
Cc1ccccc1N1CC[NH+](C(=O)c2ccc3nc(CCCc4ccccc4)oc3c2)CC1 (protonated)
Cc1ccccc1N1CC[NH+](C(=O)c2ccc3nc(CCCc4ccccc4)oc3c2)CC1 (3D coordinates assigned)
Cc1ccccc1N1CC[NH+](C(=O)c2ccc3nc(CCCc4ccccc4)oc3c2)CC1 (nonaromatic ring conformer: 121.48529871716559 kcal/mol)

>  <smiles>  (29) 
Cc1ccccc1N1CCN(C(=O)c2ccc3nc(CCCc4ccccc4)oc3c2)CC1

>  <score_type>  (29) 
oracle

>  <origin>  (29) 
adg

>  <m_score__min__energy>  (29) 
-9.1899999999999995

>  <m_primary>  (29) 
energy

$$$$
29:0
     RDKit          3D

 51 52  0  0  0  0  0  0  0  0999 V2000
   -5.2140   15.4410  -33.2720 C   0  0  0  0  0  0  0  0  0  0  0  0
   -5.3650   16.3600  -32.0630 C   0  0  0  0  0  0  0  0  0  0  0  0
   -6.0790   17.5990  -32.4400 N   0  0  0  0  0  0  0  0  0  0  0  0
   -7.1130   17.9960  -31.4550 C   0  0  0  0  0  0  0  0  0  0  0  0
   -8.5210   18.1670  -32.0490 C   0  0  0  0  0  0  0  0  0  0  0  0
   -6.5730   17.5890  -33.8380 C   0  0  0  0  0  0  0  0  0  0  0  0
   -5.7330   18.5190  -34.7210 C   0  0  0  0  0  0  0  0  0  0  0  0
   -5.2290   19.6030  -33.9600 O   0  0  0  0  0  0  0  0  0  0  0  0
   -3.8350   19.4730  -33.7630 C   0  0  0  0  0  0  0  0  0  0  0  0
   -3.4650   20.0630  -32.3960 C   0  0  0  0  0  0  0  0  0  0  0  0
   -4.6200   20.1320  -31.4810 N   0  0  0  0  0  0  0  0  0  0  0  0
   -5.0510   21.4990  -31.2690 C   0  0  0  0  0  0  0  0  0  0  0  0
   -4.1180   22.4760  -30.8760 C   0  0  0  0  0  0  0  0  0  0  0  0
   -4.4810   23.8210  -30.7590 C   0  0  0  0  0  0  0  0  0  0  0  0
   -3.4900   24.7450  -30.3960 O   0  0  0  0  0  0  0  0  0  0  0  0
   -2.5780   24.5640  -29.3190 C   0  0  0  0  0  0  0  0  0  0  0  0
   -5.8090   24.2040  -31.0190 C   0  0  0  0  0  0  0  0  0  0  0  0
   -6.7600   23.2450  -31.3900 C   0  0  0  0  0  0  0  0  0  0  0  0
   -8.0860   23.6110  -31.6580 C   0  0  0  0  0  0  0  0  0  0  0  0
   -9.0130   22.6400  -32.0340 C   0  0  0  0  0  0  0  0  0  0  0  0
   -8.6090   21.3080  -32.1370 C   0  0  0  0  0  0  0  0  0  0  0  0
   -7.3200   20.9650  -31.8760 N   0  0  0  0  0  0  0  0  0  0  0  0
   -6.3860   21.8870  -31.5090 C   0  0  0  0  0  0  0  0  0  0  0  0
   -5.0445   14.4095  -32.9296 H   0  0  0  0  0  0  0  0  0  0  0  0
   -6.1306   15.4799  -33.8789 H   0  0  0  0  0  0  0  0  0  0  0  0
   -4.3581   15.7712  -33.8789 H   0  0  0  0  0  0  0  0  0  0  0  0
   -5.9348   15.8378  -31.2803 H   0  0  0  0  0  0  0  0  0  0  0  0
   -4.3645   16.6253  -31.6907 H   0  0  0  0  0  0  0  0  0  0  0  0
   -7.1601   17.2224  -30.6744 H   0  0  0  0  0  0  0  0  0  0  0  0
   -6.8144   18.9801  -31.0645 H   0  0  0  0  0  0  0  0  0  0  0  0
   -9.2544   18.2561  -31.2340 H   0  0  0  0  0  0  0  0  0  0  0  0
   -8.5496   19.0752  -32.6689 H   0  0  0  0  0  0  0  0  0  0  0  0
   -8.7662   17.2920  -32.6689 H   0  0  0  0  0  0  0  0  0  0  0  0
   -6.5127   16.5646  -34.2341 H   0  0  0  0  0  0  0  0  0  0  0  0
   -7.6145   17.9428  -33.8455 H   0  0  0  0  0  0  0  0  0  0  0  0
   -4.8913   17.9524  -35.1458 H   0  0  0  0  0  0  0  0  0  0  0  0
   -6.3684   18.9147  -35.5271 H   0  0  0  0  0  0  0  0  0  0  0  0
   -3.5562   18.4093  -33.7930 H   0  0  0  0  0  0  0  0  0  0  0  0
   -3.2964   20.0107  -34.5572 H   0  0  0  0  0  0  0  0  0  0  0  0
   -2.6887   19.4326  -31.9378 H   0  0  0  0  0  0  0  0  0  0  0  0
   -3.1061   21.0897  -32.5604 H   0  0  0  0  0  0  0  0  0  0  0  0
   -4.3740   19.6730  -30.5720 H   0  0  0  0  0  0  0  0  0  0  0  0
   -5.4100   19.5830  -31.8920 H   0  0  0  0  0  0  0  0  0  0  0  0
   -3.0828   22.1757  -30.6565 H   0  0  0  0  0  0  0  0  0  0  0  0
   -3.1130   24.6702  -28.3637 H   0  0  0  0  0  0  0  0  0  0  0  0
   -2.1328   23.5600  -29.3803 H   0  0  0  0  0  0  0  0  0  0  0  0
   -1.7831   25.3219  -29.3803 H   0  0  0  0  0  0  0  0  0  0  0  0
   -6.1019   25.2606  -30.9307 H   0  0  0  0  0  0  0  0  0  0  0  0
   -8.3950   24.6632  -31.5718 H   0  0  0  0  0  0  0  0  0  0  0  0
  -10.0547   22.9214  -32.2478 H   0  0  0  0  0  0  0  0  0  0  0  0
   -9.3347   20.5349  -32.4298 H   0  0  0  0  0  0  0  0  0  0  0  0
  1  2  1  0
  2  3  1  0
  3  4  1  0
  4  5  1  0
  3  6  1  0
  6  7  1  0
  7  8  1  0
  8  9  1  0
  9 10  1  0
 10 11  1  0
 11 12  1  0
 12 13  2  0
 13 14  1  0
 14 15  1  0
 15 16  1  0
 14 17  2  0
 17 18  1  0
 18 19  2  0
 19 20  1  0
 20 21  2  0
 21 22  1  0
 22 23  2  0
 23 12  1  0
 23 18  1  0
  1 24  1  0
  1 25  1  0
  1 26  1  0
  2 27  1  0
  2 28  1  0
  4 29  1  0
  4 30  1  0
  5 31  1  0
  5 32  1  0
  5 33  1  0
  6 34  1  0
  6 35  1  0
  7 36  1  0
  7 37  1  0
  9 38  1  0
  9 39  1  0
 10 40  1  0
 10 41  1  0
 11 42  1  0
 11 43  1  0
 13 44  1  0
 16 45  1  0
 16 46  1  0
 16 47  1  0
 17 48  1  0
 19 49  1  0
 20 50  1  0
 21 51  1  0
M  CHG  1  11   1
M  END
>  <UniqueID>  (30) 
29

>  <SMILES>  (30) 
CCN(CC)CCOCC[NH2+]c1cc(OC)cc2cccnc12

>  <Energy>  (30) 
51.48181493492082

>  <Genealogy>  (30) 
CCN(CC)CCOCC[NH2+]c1cc(OC)cc2cccnc12 (protonated)
CCN(CC)CCOCC[NH2+]c1cc(OC)cc2cccnc12 (3D coordinates assigned)
CCN(CC)CCOCC[NH2+]c1cc(OC)cc2cccnc12 (optimized conformer: 51.48181493492082 kcal/mol)

>  <smiles>  (30) 
CCN(CC)CCOCCNc1cc(OC)cc2cccnc12

>  <score_type>  (30) 
oracle

>  <origin>  (30) 
adg

>  <m_score__min__energy>  (30) 
-6.5999999999999996

>  <m_primary>  (30) 
energy

$$$$
30:0
     RDKit          3D

 63 65  0  0  0  0  0  0  0  0999 V2000
   -0.4230   22.8270  -25.2900 C   0  0  0  0  0  0  0  0  0  0  0  0
   -1.2610   23.3760  -26.4430 C   0  0  0  0  0  0  0  0  0  0  0  0
   -1.5240   24.8180  -26.2450 N   0  0  0  0  0  0  0  0  0  0  0  0
   -1.0250   25.3220  -24.9420 C   0  0  0  0  0  0  0  0  0  0  0  0
   -1.2650   26.8230  -24.7070 C   0  0  0  0  0  0  0  0  0  0  0  0
   -1.1020   25.6410  -27.4020 C   0  0  0  0  0  0  0  0  0  0  0  0
   -1.3310   24.8870  -28.7170 C   0  0  0  0  0  0  0  0  0  0  0  0
   -2.5570   25.2830  -29.3350 O   0  0  0  0  0  0  0  0  0  0  0  0
   -3.4360   24.4320  -30.0240 C   0  0  0  0  0  0  0  0  0  0  0  0
   -4.6550   24.9700  -30.4810 C   0  0  0  0  0  0  0  0  0  0  0  0
   -5.5650   24.1610  -31.1760 C   0  0  0  0  0  0  0  0  0  0  0  0
   -5.2380   22.8590  -31.3910 N   0  0  0  0  0  0  0  0  0  0  0  0
   -5.9040   21.8700  -32.0180 C   0  0  0  0  0  0  0  0  0  0  0  0
   -7.2800   21.9920  -32.6320 C   0  0  0  0  0  0  0  0  0  0  0  0
   -8.2510   21.1340  -31.9200 N   0  0  0  0  0  0  0  0  0  0  0  0
   -8.6510   19.9450  -32.7130 C   0  0  0  0  0  0  0  0  0  0  0  0
   -9.0910   18.7360  -31.8730 C   0  0  0  0  0  0  0  0  0  0  0  0
   -9.3910   21.9030  -31.3760 C   0  0  0  0  0  0  0  0  0  0  0  0
   -9.4810   23.2770  -32.0350 C   0  0  0  0  0  0  0  0  0  0  0  0
   -5.0910   20.7370  -31.9670 C   0  0  0  0  0  0  0  0  0  0  0  0
   -5.3810   19.4000  -32.5190 C   0  0  0  0  0  0  0  0  0  0  0  0
   -5.7530   18.3570  -31.6560 C   0  0  0  0  0  0  0  0  0  0  0  0
   -6.0400   17.0870  -32.1680 C   0  0  0  0  0  0  0  0  0  0  0  0
   -5.9400   16.8470  -33.5430 C   0  0  0  0  0  0  0  0  0  0  0  0
   -6.3020   15.2540  -34.1840 Cl  0  0  0  0  0  0  0  0  0  0  0  0
   -5.5470   17.8750  -34.4040 C   0  0  0  0  0  0  0  0  0  0  0  0
   -5.2610   19.1450  -33.8950 C   0  0  0  0  0  0  0  0  0  0  0  0
   -3.9500   21.0140  -31.2920 N   0  0  0  0  0  0  0  0  0  0  0  0
   -4.0820   22.3160  -30.9690 C   0  0  0  0  0  0  0  0  0  0  0  0
   -3.1390   23.0740  -30.2780 C   0  0  0  0  0  0  0  0  0  0  0  0
   -0.8767   23.1242  -24.3330 H   0  0  0  0  0  0  0  0  0  0  0  0
   -0.3866   21.7294  -25.3533 H   0  0  0  0  0  0  0  0  0  0  0  0
    0.5978   23.2320  -25.3533 H   0  0  0  0  0  0  0  0  0  0  0  0
   -0.7163   23.2328  -27.3879 H   0  0  0  0  0  0  0  0  0  0  0  0
   -2.2202   22.8385  -26.4760 H   0  0  0  0  0  0  0  0  0  0  0  0
   -1.5305   24.7632  -24.1406 H   0  0  0  0  0  0  0  0  0  0  0  0
    0.0652   25.1753  -24.9454 H   0  0  0  0  0  0  0  0  0  0  0  0
   -1.2972   27.0244  -23.6261 H   0  0  0  0  0  0  0  0  0  0  0  0
   -0.4478   27.4009  -25.1634 H   0  0  0  0  0  0  0  0  0  0  0  0
   -2.2216   27.1172  -25.1634 H   0  0  0  0  0  0  0  0  0  0  0  0
   -1.6860   26.5731  -27.4140 H   0  0  0  0  0  0  0  0  0  0  0  0
   -0.0291   25.8634  -27.3046 H   0  0  0  0  0  0  0  0  0  0  0  0
   -0.4982   25.1015  -29.4029 H   0  0  0  0  0  0  0  0  0  0  0  0
   -1.3851   23.8109  -28.4957 H   0  0  0  0  0  0  0  0  0  0  0  0
   -4.8934   26.0271  -30.2922 H   0  0  0  0  0  0  0  0  0  0  0  0
   -6.5199   24.5696  -31.5383 H   0  0  0  0  0  0  0  0  0  0  0  0
   -7.6109   23.0392  -32.5700 H   0  0  0  0  0  0  0  0  0  0  0  0
   -7.2273   21.6684  -33.6820 H   0  0  0  0  0  0  0  0  0  0  0  0
   -9.4887   20.2332  -33.3651 H   0  0  0  0  0  0  0  0  0  0  0  0
   -7.7586   19.6283  -33.2727 H   0  0  0  0  0  0  0  0  0  0  0  0
   -9.0021   18.9803  -30.8042 H   0  0  0  0  0  0  0  0  0  0  0  0
  -10.1369   18.4883  -32.1067 H   0  0  0  0  0  0  0  0  0  0  0  0
   -8.4490   17.8739  -32.1067 H   0  0  0  0  0  0  0  0  0  0  0  0
  -10.3227   21.3500  -31.5661 H   0  0  0  0  0  0  0  0  0  0  0  0
   -9.2408   22.0394  -30.2949 H   0  0  0  0  0  0  0  0  0  0  0  0
   -9.5319   24.0538  -31.2578 H   0  0  0  0  0  0  0  0  0  0  0  0
   -8.5918   23.4424  -32.6610 H   0  0  0  0  0  0  0  0  0  0  0  0
  -10.3842   23.3250  -32.6610 H   0  0  0  0  0  0  0  0  0  0  0  0
   -5.8191   18.5390  -30.5732 H   0  0  0  0  0  0  0  0  0  0  0  0
   -6.3444   16.2766  -31.4893 H   0  0  0  0  0  0  0  0  0  0  0  0
   -5.4626   17.6845  -35.4841 H   0  0  0  0  0  0  0  0  0  0  0  0
   -4.9406   19.9481  -34.5749 H   0  0  0  0  0  0  0  0  0  0  0  0
   -2.1916   22.6286  -29.9403 H   0  0  0  0  0  0  0  0  0  0  0  0
  1  2  1  0
  2  3  1  0
  3  4  1  0
  4  5  1  0
  3  6  1  0
  6  7  1  0
  7  8  1  0
  8  9  1  0
  9 10  1  0
 10 11  2  0
 11 12  1  0
 12 13  1  0
 13 14  1  0
 14 15  1  0
 15 16  1  0
 16 17  1  0
 15 18  1  0
 18 19  1  0
 13 20  2  0
 20 21  1  0
 21 22  2  0
 22 23  1  0
 23 24  2  0
 24 25  1  0
 24 26  1  0
 26 27  2  0
 20 28  1  0
 28 29  2  0
 29 30  1  0
 30  9  2  0
 29 12  1  0
 27 21  1  0
  1 31  1  0
  1 32  1  0
  1 33  1  0
  2 34  1  0
  2 35  1  0
  4 36  1  0
  4 37  1  0
  5 38  1  0
  5 39  1  0
  5 40  1  0
  6 41  1  0
  6 42  1  0
  7 43  1  0
  7 44  1  0
 10 45  1  0
 11 46  1  0
 14 47  1  0
 14 48  1  0
 16 49  1  0
 16 50  1  0
 17 51  1  0
 17 52  1  0
 17 53  1  0
 18 54  1  0
 18 55  1  0
 19 56  1  0
 19 57  1  0
 19 58  1  0
 22 59  1  0
 23 60  1  0
 26 61  1  0
 27 62  1  0
 30 63  1  0
M  END
>  <UniqueID>  (31) 
30

>  <SMILES>  (31) 
CCN(CC)CCOc1ccn2c(CN(CC)CC)c(-c3ccc(Cl)cc3)nc2c1

>  <Energy>  (31) 
102.63061279581672

>  <Genealogy>  (31) 
CCN(CC)CCOc1ccn2c(CN(CC)CC)c(-c3ccc(Cl)cc3)nc2c1 (3D coordinates assigned)
CCN(CC)CCOc1ccn2c(CN(CC)CC)c(-c3ccc(Cl)cc3)nc2c1 (optimized conformer: 102.63061279581672 kcal/mol)

>  <smiles>  (31) 
CCN(CC)CCOc1ccn2c(CN(CC)CC)c(-c3ccc(Cl)cc3)nc2c1

>  <score_type>  (31) 
oracle

>  <origin>  (31) 
adg

>  <m_score__min__energy>  (31) 
-9

>  <m_primary>  (31) 
energy

$$$$
31:0
     RDKit          3D

 52 56  0  0  0  0  0  0  0  0999 V2000
   -5.9520   15.7700  -33.8460 C   0  0  0  0  0  0  0  0  0  0  0  0
   -7.0000   16.7320  -33.8780 O   0  0  0  0  0  0  0  0  0  0  0  0
   -6.8900   18.0420  -33.3870 C   0  0  0  0  0  0  0  0  0  0  0  0
   -7.9840   18.5940  -32.7140 C   0  0  0  0  0  0  0  0  0  0  0  0
   -7.9230   19.8950  -32.2050 C   0  0  0  0  0  0  0  0  0  0  0  0
   -6.7610   20.6680  -32.3610 C   0  0  0  0  0  0  0  0  0  0  0  0
   -6.7190   22.0440  -31.8180 C   0  0  0  0  0  0  0  0  0  0  0  0
   -5.6130   22.8740  -31.7060 C   0  0  0  0  0  0  0  0  0  0  0  0
   -6.1240   24.0320  -31.1550 C   0  0  0  0  0  0  0  0  0  0  0  0
   -5.3570   25.2740  -30.8310 C   0  0  0  0  0  0  0  0  0  0  0  0
   -3.8990   25.0470  -30.8400 N   0  0  0  0  0  0  0  0  0  0  0  0
   -3.3120   24.2260  -29.7410 C   0  0  2  0  0  0  0  0  0  0  0  0
   -2.0370   24.9110  -29.1680 C   0  0  0  0  0  0  0  0  0  0  0  0
   -1.4800   24.1070  -27.9720 C   0  0  1  0  0  0  0  0  0  0  0  0
   -2.5390   24.0410  -26.8540 C   0  0  0  0  0  0  0  0  0  0  0  0
   -3.8060   23.3450  -27.3890 C   0  0  2  0  0  0  0  0  0  0  0  0
   -3.4590   21.9140  -27.8490 C   0  0  0  0  0  0  0  0  0  0  0  0
   -2.3990   21.9760  -28.9670 C   0  0  2  0  0  0  0  0  0  0  0  0
   -1.1290   22.6740  -28.4330 C   0  0  0  0  0  0  0  0  0  0  0  0
   -2.9530   22.7690  -30.1710 C   0  0  0  0  0  0  0  0  0  0  0  0
   -4.3600   24.1440  -28.5860 C   0  0  0  0  0  0  0  0  0  0  0  0
   -7.4440   23.8760  -30.9520 N   0  0  0  0  0  0  0  0  0  0  0  0
   -7.7720   22.6850  -31.3550 O   0  0  0  0  0  0  0  0  0  0  0  0
   -5.6610   20.1130  -33.0380 C   0  0  0  0  0  0  0  0  0  0  0  0
   -5.7230   18.8120  -33.5460 C   0  0  0  0  0  0  0  0  0  0  0  0
   -5.6991   15.5379  -32.8009 H   0  0  0  0  0  0  0  0  0  0  0  0
   -6.2807   14.8526  -34.3562 H   0  0  0  0  0  0  0  0  0  0  0  0
   -5.0660   16.1759  -34.3562 H   0  0  0  0  0  0  0  0  0  0  0  0
   -8.9005   17.9999  -32.5838 H   0  0  0  0  0  0  0  0  0  0  0  0
   -8.7920   20.3162  -31.6783 H   0  0  0  0  0  0  0  0  0  0  0  0
   -4.5721   22.6595  -31.9899 H   0  0  0  0  0  0  0  0  0  0  0  0
   -5.6001   26.0452  -31.5768 H   0  0  0  0  0  0  0  0  0  0  0  0
   -5.6429   25.5928  -29.8178 H   0  0  0  0  0  0  0  0  0  0  0  0
   -3.4650   26.0000  -30.8230 H   0  0  0  0  0  0  0  0  0  0  0  0
   -1.2708   24.9656  -29.9554 H   0  0  0  0  0  0  0  0  0  0  0  0
   -2.3011   25.9219  -28.8241 H   0  0  0  0  0  0  0  0  0  0  0  0
   -0.5755   24.6025  -27.5895 H   0  0  0  0  0  0  0  0  0  0  0  0
   -2.1388   23.4708  -26.0027 H   0  0  0  0  0  0  0  0  0  0  0  0
   -2.7907   25.0603  -26.5258 H   0  0  0  0  0  0  0  0  0  0  0  0
   -4.5611   23.2988  -26.5904 H   0  0  0  0  0  0  0  0  0  0  0  0
   -3.0612   21.3417  -26.9980 H   0  0  0  0  0  0  0  0  0  0  0  0
   -4.3657   21.4216  -28.2305 H   0  0  0  0  0  0  0  0  0  0  0  0
   -2.1516   20.9537  -29.2889 H   0  0  0  0  0  0  0  0  0  0  0  0
   -0.7280   22.1036  -27.5822 H   0  0  0  0  0  0  0  0  0  0  0  0
   -0.3749   22.7218  -29.2324 H   0  0  0  0  0  0  0  0  0  0  0  0
   -2.1923   22.8019  -30.9648 H   0  0  0  0  0  0  0  0  0  0  0  0
   -3.8615   22.2707  -30.5402 H   0  0  0  0  0  0  0  0  0  0  0  0
   -5.2681   23.6481  -28.9595 H   0  0  0  0  0  0  0  0  0  0  0  0
   -4.5883   25.1657  -28.2483 H   0  0  0  0  0  0  0  0  0  0  0  0
   -8.1050   24.5760  -30.5490 H   0  0  0  0  0  0  0  0  0  0  0  0
   -4.7445   20.7070  -33.1690 H   0  0  0  0  0  0  0  0  0  0  0  0
   -4.8552   18.3882  -34.0726 H   0  0  0  0  0  0  0  0  0  0  0  0
  1  2  1  0
  2  3  1  0
  3  4  2  0
  4  5  1  0
  5  6  2  0
  6  7  1  0
  7  8  2  0
  8  9  1  0
  9 10  1  0
 10 11  1  0
 12 11  1  6
 12 13  1  0
 13 14  1  0
 14 15  1  0
 15 16  1  0
 16 17  1  0
 17 18  1  0
 18 19  1  0
 18 20  1  0
 16 21  1  0
  9 22  2  0
 22 23  1  0
  6 24  1  0
 24 25  2  0
 25  3  1  0
 23  7  1  0
 20 12  1  0
 21 12  1  0
 19 14  1  0
  1 26  1  0
  1 27  1  0
  1 28  1  0
  4 29  1  0
  5 30  1  0
  8 31  1  0
 10 32  1  0
 10 33  1  0
 11 34  1  0
 13 35  1  0
 13 36  1  0
 14 37  1  1
 15 38  1  0
 15 39  1  0
 16 40  1  1
 17 41  1  0
 17 42  1  0
 18 43  1  6
 19 44  1  0
 19 45  1  0
 20 46  1  0
 20 47  1  0
 21 48  1  0
 21 49  1  0
 22 50  1  0
 24 51  1  0
 25 52  1  0
M  CHG  1  22   1
M  END
>  <UniqueID>  (32) 
31

>  <SMILES>  (32) 
COc1ccc(-c2cc(CNC34CC5CC(CC(C5)C3)C4)[nH+]o2)cc1

>  <Energy>  (32) 
90.73589160814498

>  <Genealogy>  (32) 
COc1ccc(-c2cc(CNC34CC5CC(CC(C5)C3)C4)[nH+]o2)cc1 (protonated)
COc1ccc(-c2cc(CNC34CC5CC(CC(C5)C3)C4)[nH+]o2)cc1 (3D coordinates assigned)
COc1ccc(-c2cc(CNC34CC5CC(CC(C5)C3)C4)[nH+]o2)cc1 (nonaromatic ring conformer: 90.73589160814498 kcal/mol)

>  <smiles>  (32) 
COc1ccc(-c2cc(CNC34CC5CC(CC(C5)C3)C4)no2)cc1

>  <score_type>  (32) 
oracle

>  <origin>  (32) 
adg

>  <m_score__min__energy>  (32) 
-9.3200000000000003

>  <m_primary>  (32) 
energy

$$$$
32:0
     RDKit          3D

 48 50  0  0  0  0  0  0  0  0999 V2000
   -0.8870   27.0050  -24.5040 C   0  0  0  0  0  0  0  0  0  0  0  0
   -0.9590   27.3420  -26.0020 C   0  0  0  0  0  0  0  0  0  0  0  0
   -1.6040   26.2980  -26.8270 N   0  0  0  0  0  0  0  0  0  0  0  0
   -2.3670   25.3090  -26.0450 C   0  0  0  0  0  0  0  0  0  0  0  0
   -3.3110   24.5490  -26.9840 C   0  0  0  0  0  0  0  0  0  0  0  0
   -2.6410   24.2370  -28.2550 N   0  0  0  0  0  0  0  0  0  0  0  0
   -3.4200   23.8580  -29.4050 C   0  0  0  0  0  0  0  0  0  0  0  0
   -4.5990   24.5500  -29.7260 C   0  0  0  0  0  0  0  0  0  0  0  0
   -5.3710   24.1640  -30.8240 C   0  0  0  0  0  0  0  0  0  0  0  0
   -4.9820   23.0740  -31.6200 C   0  0  0  0  0  0  0  0  0  0  0  0
   -5.8090   22.6370  -32.7200 N   0  0  0  0  0  0  0  0  0  0  0  0
   -6.7610   21.5960  -32.2960 C   0  0  0  0  0  0  0  0  0  0  0  0
   -6.3740   20.2290  -32.8230 C   0  0  0  0  0  0  0  0  0  0  0  0
   -5.0640   20.0360  -33.2980 C   0  0  0  0  0  0  0  0  0  0  0  0
   -4.6750   18.8050  -33.8300 C   0  0  0  0  0  0  0  0  0  0  0  0
   -5.5880   17.7520  -33.8980 C   0  0  0  0  0  0  0  0  0  0  0  0
   -6.8930   17.9280  -33.4340 C   0  0  0  0  0  0  0  0  0  0  0  0
   -7.2960   19.1570  -32.8980 C   0  0  0  0  0  0  0  0  0  0  0  0
   -9.1130   19.3040  -32.2920 Br  0  0  0  0  0  0  0  0  0  0  0  0
   -3.8040   22.3780  -31.2980 C   0  0  0  0  0  0  0  0  0  0  0  0
   -3.0310   22.7660  -30.2000 C   0  0  0  0  0  0  0  0  0  0  0  0
   -1.1760   24.3190  -28.3260 C   0  0  0  0  0  0  0  0  0  0  0  0
   -0.6850   25.6890  -27.8190 C   0  0  0  0  0  0  0  0  0  0  0  0
   -1.0810   27.9130  -23.9142 H   0  0  0  0  0  0  0  0  0  0  0  0
   -1.6426   26.2428  -24.2629 H   0  0  0  0  0  0  0  0  0  0  0  0
    0.1141   26.6181  -24.2629 H   0  0  0  0  0  0  0  0  0  0  0  0
   -1.5292   28.2754  -26.1188 H   0  0  0  0  0  0  0  0  0  0  0  0
    0.0785   27.4297  -26.3569 H   0  0  0  0  0  0  0  0  0  0  0  0
   -1.6729   24.6013  -25.5683 H   0  0  0  0  0  0  0  0  0  0  0  0
   -2.9513   25.8221  -25.2670 H   0  0  0  0  0  0  0  0  0  0  0  0
   -3.6229   23.6114  -26.5008 H   0  0  0  0  0  0  0  0  0  0  0  0
   -4.1867   25.1813  -27.1922 H   0  0  0  0  0  0  0  0  0  0  0  0
   -4.9169   25.4026  -29.1079 H   0  0  0  0  0  0  0  0  0  0  0  0
   -6.2900   24.7174  -31.0671 H   0  0  0  0  0  0  0  0  0  0  0  0
   -6.3230   23.4490  -33.1350 H   0  0  0  0  0  0  0  0  0  0  0  0
   -5.1980   22.2450  -33.4740 H   0  0  0  0  0  0  0  0  0  0  0  0
   -6.7830   21.5604  -31.1968 H   0  0  0  0  0  0  0  0  0  0  0  0
   -7.7501   21.8515  -32.7039 H   0  0  0  0  0  0  0  0  0  0  0  0
   -4.3395   20.8623  -33.2499 H   0  0  0  0  0  0  0  0  0  0  0  0
   -3.6472   18.6651  -34.1961 H   0  0  0  0  0  0  0  0  0  0  0  0
   -5.2795   16.7830  -34.3173 H   0  0  0  0  0  0  0  0  0  0  0  0
   -7.6095   17.0953  -33.4899 H   0  0  0  0  0  0  0  0  0  0  0  0
   -3.4886   21.5229  -31.9138 H   0  0  0  0  0  0  0  0  0  0  0  0
   -2.1119   22.2130  -29.9563 H   0  0  0  0  0  0  0  0  0  0  0  0
   -0.7387   23.5249  -27.7030 H   0  0  0  0  0  0  0  0  0  0  0  0
   -0.8639   24.1955  -29.3736 H   0  0  0  0  0  0  0  0  0  0  0  0
    0.3012   25.5572  -27.3499 H   0  0  0  0  0  0  0  0  0  0  0  0
   -0.6378   26.3651  -28.6854 H   0  0  0  0  0  0  0  0  0  0  0  0
  1  2  1  0
  2  3  1  0
  3  4  1  0
  4  5  1  0
  5  6  1  0
  6  7  1  0
  7  8  2  0
  8  9  1  0
  9 10  2  0
 10 11  1  0
 11 12  1  0
 12 13  1  0
 13 14  2  0
 14 15  1  0
 15 16  2  0
 16 17  1  0
 17 18  2  0
 18 19  1  0
 10 20  1  0
 20 21  2  0
  6 22  1  0
 22 23  1  0
 23  3  1  0
 21  7  1  0
 18 13  1  0
  1 24  1  0
  1 25  1  0
  1 26  1  0
  2 27  1  0
  2 28  1  0
  4 29  1  0
  4 30  1  0
  5 31  1  0
  5 32  1  0
  8 33  1  0
  9 34  1  0
 11 35  1  0
 11 36  1  0
 12 37  1  0
 12 38  1  0
 14 39  1  0
 15 40  1  0
 16 41  1  0
 17 42  1  0
 20 43  1  0
 21 44  1  0
 22 45  1  0
 22 46  1  0
 23 47  1  0
 23 48  1  0
M  CHG  1  11   1
M  END
>  <UniqueID>  (33) 
32

>  <SMILES>  (33) 
CCN1CCN(c2ccc([NH2+]Cc3ccccc3Br)cc2)CC1

>  <Energy>  (33) 
60.872838331879095

>  <Genealogy>  (33) 
CCN1CCN(c2ccc([NH2+]Cc3ccccc3Br)cc2)CC1 (protonated)
CCN1CCN(c2ccc([NH2+]Cc3ccccc3Br)cc2)CC1 (3D coordinates assigned)
CCN1CCN(c2ccc([NH2+]Cc3ccccc3Br)cc2)CC1 (nonaromatic ring conformer: 60.872838331879095 kcal/mol)

>  <smiles>  (33) 
CCN1CCN(c2ccc(NCc3ccccc3Br)cc2)CC1

>  <score_type>  (33) 
oracle

>  <origin>  (33) 
adg

>  <m_score__min__energy>  (33) 
-8.1099999999999994

>  <m_primary>  (33) 
energy

$$$$
33:0
     RDKit          3D

 56 57  0  0  0  0  0  0  0  0999 V2000
   -8.4020   18.7910  -32.4150 C   0  0  0  0  0  0  0  0  0  0  0  0
   -7.2280   17.8500  -32.1250 C   0  0  0  0  0  0  0  0  0  0  0  0
   -6.2270   17.7960  -33.2240 N   0  0  0  0  0  0  0  0  0  0  0  0
   -6.4890   16.7140  -34.2130 C   0  0  0  0  0  0  0  0  0  0  0  0
   -5.8220   15.3690  -33.8910 C   0  0  0  0  0  0  0  0  0  0  0  0
   -4.8590   17.7430  -32.6400 C   0  0  0  0  0  0  0  0  0  0  0  0
   -3.8460   18.6230  -33.3900 C   0  0  0  0  0  0  0  0  0  0  0  0
   -4.4540   19.8330  -33.8370 O   0  0  0  0  0  0  0  0  0  0  0  0
   -5.3480   20.5820  -33.0560 C   0  0  0  0  0  0  0  0  0  0  0  0
   -6.5270   20.7970  -33.4490 O   0  0  0  0  0  0  0  0  0  0  0  0
   -4.9020   21.0940  -31.7210 C   0  0  0  0  0  0  0  0  0  0  0  0
   -3.8780   22.2240  -31.8700 C   0  0  0  0  0  0  0  0  0  0  0  0
   -3.2550   22.5470  -30.5340 C   0  0  0  0  0  0  0  0  0  0  0  0
   -2.5930   21.5350  -29.8190 C   0  0  0  0  0  0  0  0  0  0  0  0
   -1.9590   21.8210  -28.6090 C   0  0  0  0  0  0  0  0  0  0  0  0
   -1.9650   23.1220  -28.1100 C   0  0  0  0  0  0  0  0  0  0  0  0
   -2.6050   24.1430  -28.8180 C   0  0  0  0  0  0  0  0  0  0  0  0
   -3.2550   23.8670  -30.0380 C   0  0  0  0  0  0  0  0  0  0  0  0
   -3.9120   24.8680  -30.7740 O   0  0  0  0  0  0  0  0  0  0  0  0
   -5.2320   25.3510  -30.5300 C   0  0  0  0  0  0  0  0  0  0  0  0
   -6.2400   24.2630  -30.7730 C   0  0  0  0  0  0  0  0  0  0  0  0
   -6.6320   23.4220  -29.7180 C   0  0  0  0  0  0  0  0  0  0  0  0
   -7.5720   22.4100  -29.9350 C   0  0  0  0  0  0  0  0  0  0  0  0
   -8.1290   22.2330  -31.2030 C   0  0  0  0  0  0  0  0  0  0  0  0
   -7.7470   23.0690  -32.2570 C   0  0  0  0  0  0  0  0  0  0  0  0
   -6.8070   24.0830  -32.0460 C   0  0  0  0  0  0  0  0  0  0  0  0
   -8.8361   19.1389  -31.4660 H   0  0  0  0  0  0  0  0  0  0  0  0
   -8.0446   19.6556  -32.9936 H   0  0  0  0  0  0  0  0  0  0  0  0
   -9.1681   18.2540  -32.9936 H   0  0  0  0  0  0  0  0  0  0  0  0
   -6.7231   18.1945  -31.2104 H   0  0  0  0  0  0  0  0  0  0  0  0
   -7.6437   16.8375  -32.0152 H   0  0  0  0  0  0  0  0  0  0  0  0
   -6.3000   18.7040  -33.7420 H   0  0  0  0  0  0  0  0  0  0  0  0
   -7.5760   16.5530  -34.2635 H   0  0  0  0  0  0  0  0  0  0  0  0
   -6.0547   17.0539  -35.1647 H   0  0  0  0  0  0  0  0  0  0  0  0
   -5.7593   15.2427  -32.8001 H   0  0  0  0  0  0  0  0  0  0  0  0
   -6.4190   14.5514  -34.3211 H   0  0  0  0  0  0  0  0  0  0  0  0
   -4.8098   15.3494  -34.3211 H   0  0  0  0  0  0  0  0  0  0  0  0
   -4.9115   18.0831  -31.5952 H   0  0  0  0  0  0  0  0  0  0  0  0
   -4.5099   16.7028  -32.7189 H   0  0  0  0  0  0  0  0  0  0  0  0
   -3.0123   18.8671  -32.7152 H   0  0  0  0  0  0  0  0  0  0  0  0
   -3.4814   18.0686  -34.2673 H   0  0  0  0  0  0  0  0  0  0  0  0
   -5.7768   21.4736  -31.1727 H   0  0  0  0  0  0  0  0  0  0  0  0
   -4.4275   20.2664  -31.1734 H   0  0  0  0  0  0  0  0  0  0  0  0
   -3.0906   21.9098  -32.5709 H   0  0  0  0  0  0  0  0  0  0  0  0
   -4.3880   23.1204  -32.2526 H   0  0  0  0  0  0  0  0  0  0  0  0
   -2.5742   20.5093  -30.2159 H   0  0  0  0  0  0  0  0  0  0  0  0
   -1.4546   21.0195  -28.0493 H   0  0  0  0  0  0  0  0  0  0  0  0
   -1.4647   23.3460  -27.1563 H   0  0  0  0  0  0  0  0  0  0  0  0
   -2.6015   25.1687  -28.4206 H   0  0  0  0  0  0  0  0  0  0  0  0
   -5.3074   25.6886  -29.4858 H   0  0  0  0  0  0  0  0  0  0  0  0
   -5.4381   26.1882  -31.2131 H   0  0  0  0  0  0  0  0  0  0  0  0
   -6.1975   23.5603  -28.7170 H   0  0  0  0  0  0  0  0  0  0  0  0
   -7.8730   21.7526  -29.1060 H   0  0  0  0  0  0  0  0  0  0  0  0
   -8.8681   21.4362  -31.3729 H   0  0  0  0  0  0  0  0  0  0  0  0
   -8.1872   22.9287  -33.2552 H   0  0  0  0  0  0  0  0  0  0  0  0
   -6.5114   24.7400  -32.8772 H   0  0  0  0  0  0  0  0  0  0  0  0
  1  2  1  0
  2  3  1  0
  3  4  1  0
  4  5  1  0
  3  6  1  0
  6  7  1  0
  7  8  1  0
  8  9  1  0
  9 10  2  0
  9 11  1  0
 11 12  1  0
 12 13  1  0
 13 14  2  0
 14 15  1  0
 15 16  2  0
 16 17  1  0
 17 18  2  0
 18 19  1  0
 19 20  1  0
 20 21  1  0
 21 22  2  0
 22 23  1  0
 23 24  2  0
 24 25  1  0
 25 26  2  0
 18 13  1  0
 26 21  1  0
  1 27  1  0
  1 28  1  0
  1 29  1  0
  2 30  1  0
  2 31  1  0
  3 32  1  0
  4 33  1  0
  4 34  1  0
  5 35  1  0
  5 36  1  0
  5 37  1  0
  6 38  1  0
  6 39  1  0
  7 40  1  0
  7 41  1  0
 11 42  1  0
 11 43  1  0
 12 44  1  0
 12 45  1  0
 14 46  1  0
 15 47  1  0
 16 48  1  0
 17 49  1  0
 20 50  1  0
 20 51  1  0
 22 52  1  0
 23 53  1  0
 24 54  1  0
 25 55  1  0
 26 56  1  0
M  CHG  1   3   1
M  END
>  <UniqueID>  (34) 
33

>  <SMILES>  (34) 
CC[NH+](CC)CCOC(=O)CCc1ccccc1OCc1ccccc1

>  <Energy>  (34) 
53.15796403504256

>  <Genealogy>  (34) 
CC[NH+](CC)CCOC(=O)CCc1ccccc1OCc1ccccc1 (protonated)
CC[NH+](CC)CCOC(=O)CCc1ccccc1OCc1ccccc1 (3D coordinates assigned)
CC[NH+](CC)CCOC(=O)CCc1ccccc1OCc1ccccc1 (optimized conformer: 53.15796403504256 kcal/mol)

>  <smiles>  (34) 
CCN(CC)CCOC(=O)CCc1ccccc1OCc1ccccc1

>  <score_type>  (34) 
oracle

>  <origin>  (34) 
adg

>  <m_score__min__energy>  (34) 
-6.8600000000000003

>  <m_primary>  (34) 
energy

$$$$
34:0
     RDKit          3D

 47 49  0  0  0  0  0  0  0  0999 V2000
   -0.8680   26.5760  -28.2200 C   0  0  0  0  0  0  0  0  0  0  0  0
   -1.5540   25.6590  -29.0660 O   0  0  0  0  0  0  0  0  0  0  0  0
   -1.6320   24.2740  -28.8470 C   0  0  0  0  0  0  0  0  0  0  0  0
   -0.4790   23.4970  -28.6140 C   0  0  0  0  0  0  0  0  0  0  0  0
   -0.5840   22.1220  -28.3950 C   0  0  0  0  0  0  0  0  0  0  0  0
   -1.8350   21.5050  -28.4030 C   0  0  0  0  0  0  0  0  0  0  0  0
   -2.9860   22.2610  -28.6320 C   0  0  0  0  0  0  0  0  0  0  0  0
   -2.8970   23.6450  -28.8570 C   0  0  0  0  0  0  0  0  0  0  0  0
   -4.1690   24.4280  -29.0880 C   0  0  0  0  0  0  0  0  0  0  0  0
   -4.5290   24.4180  -30.5200 N   0  0  0  0  0  0  0  0  0  0  0  0
   -4.0270   23.2040  -31.2180 C   0  0  0  0  0  0  0  0  0  0  0  0
   -5.1350   22.1650  -31.4440 C   0  0  0  0  0  0  0  0  0  0  0  0
   -6.2210   22.7190  -32.2930 N   0  0  0  0  0  0  0  0  0  0  0  0
   -7.4590   21.8960  -32.2430 C   0  0  0  0  0  0  0  0  0  0  0  0
   -7.2550   20.4270  -32.5670 C   0  0  0  0  0  0  0  0  0  0  0  0
   -7.8930   19.4350  -31.7980 C   0  0  0  0  0  0  0  0  0  0  0  0
   -7.7060   18.0820  -32.0910 C   0  0  0  0  0  0  0  0  0  0  0  0
   -6.8640   17.7020  -33.1390 C   0  0  0  0  0  0  0  0  0  0  0  0
   -6.1980   18.6750  -33.8870 C   0  0  0  0  0  0  0  0  0  0  0  0
   -5.3640   18.3050  -34.8900 F   0  0  0  0  0  0  0  0  0  0  0  0
   -6.3830   20.0310  -33.5970 C   0  0  0  0  0  0  0  0  0  0  0  0
   -6.4640   24.1720  -32.0710 C   0  0  0  0  0  0  0  0  0  0  0  0
   -5.9860   24.6350  -30.6870 C   0  0  0  0  0  0  0  0  0  0  0  0
   -1.0605   26.3187  -27.1680 H   0  0  0  0  0  0  0  0  0  0  0  0
    0.2124   26.5209  -28.4192 H   0  0  0  0  0  0  0  0  0  0  0  0
   -1.2259   27.5969  -28.4192 H   0  0  0  0  0  0  0  0  0  0  0  0
    0.5105   23.9774  -28.6047 H   0  0  0  0  0  0  0  0  0  0  0  0
    0.3217   21.5241  -28.2158 H   0  0  0  0  0  0  0  0  0  0  0  0
   -1.9146   20.4218  -28.2287 H   0  0  0  0  0  0  0  0  0  0  0  0
   -3.9700   21.7694  -28.6363 H   0  0  0  0  0  0  0  0  0  0  0  0
   -4.9846   23.9735  -28.5064 H   0  0  0  0  0  0  0  0  0  0  0  0
   -4.0096   25.4684  -28.7683 H   0  0  0  0  0  0  0  0  0  0  0  0
   -3.6156   23.5011  -32.1939 H   0  0  0  0  0  0  0  0  0  0  0  0
   -3.2566   22.7433  -30.5823 H   0  0  0  0  0  0  0  0  0  0  0  0
   -4.7048   21.2830  -31.9409 H   0  0  0  0  0  0  0  0  0  0  0  0
   -5.5603   21.8891  -30.4678 H   0  0  0  0  0  0  0  0  0  0  0  0
   -5.8800   22.6330  -33.2820 H   0  0  0  0  0  0  0  0  0  0  0  0
   -7.8785   21.9686  -31.2287 H   0  0  0  0  0  0  0  0  0  0  0  0
   -8.1304   22.2956  -33.0173 H   0  0  0  0  0  0  0  0  0  0  0  0
   -8.5434   19.7275  -30.9605 H   0  0  0  0  0  0  0  0  0  0  0  0
   -8.2225   17.3147  -31.4957 H   0  0  0  0  0  0  0  0  0  0  0  0
   -6.7257   16.6365  -33.3749 H   0  0  0  0  0  0  0  0  0  0  0  0
   -5.8428   20.7926  -34.1785 H   0  0  0  0  0  0  0  0  0  0  0  0
   -5.9251   24.7431  -32.8413 H   0  0  0  0  0  0  0  0  0  0  0  0
   -7.5486   24.3459  -32.1294 H   0  0  0  0  0  0  0  0  0  0  0  0
   -6.2040   25.7071  -30.5728 H   0  0  0  0  0  0  0  0  0  0  0  0
   -6.5145   24.0468  -29.9224 H   0  0  0  0  0  0  0  0  0  0  0  0
  1  2  1  0
  2  3  1  0
  3  4  2  0
  4  5  1  0
  5  6  2  0
  6  7  1  0
  7  8  2  0
  8  9  1  0
  9 10  1  0
 10 11  1  0
 11 12  1  0
 12 13  1  0
 13 14  1  0
 14 15  1  0
 15 16  2  0
 16 17  1  0
 17 18  2  0
 18 19  1  0
 19 20  1  0
 19 21  2  0
 13 22  1  0
 22 23  1  0
  8  3  1  0
 23 10  1  0
 21 15  1  0
  1 24  1  0
  1 25  1  0
  1 26  1  0
  4 27  1  0
  5 28  1  0
  6 29  1  0
  7 30  1  0
  9 31  1  0
  9 32  1  0
 11 33  1  0
 11 34  1  0
 12 35  1  0
 12 36  1  0
 13 37  1  0
 14 38  1  0
 14 39  1  0
 16 40  1  0
 17 41  1  0
 18 42  1  0
 21 43  1  0
 22 44  1  0
 22 45  1  0
 23 46  1  0
 23 47  1  0
M  CHG  1  13   1
M  END
>  <UniqueID>  (35) 
34

>  <SMILES>  (35) 
COc1ccccc1CN1CC[NH+](Cc2cccc(F)c2)CC1

>  <Energy>  (35) 
64.29495154838503

>  <Genealogy>  (35) 
COc1ccccc1CN1CC[NH+](Cc2cccc(F)c2)CC1 (protonated)
COc1ccccc1CN1CC[NH+](Cc2cccc(F)c2)CC1 (3D coordinates assigned)
COc1ccccc1CN1CC[NH+](Cc2cccc(F)c2)CC1 (nonaromatic ring conformer: 64.29495154838503 kcal/mol)

>  <smiles>  (35) 
COc1ccccc1CN1CCN(Cc2cccc(F)c2)CC1

>  <score_type>  (35) 
oracle

>  <origin>  (35) 
adg

>  <m_score__min__energy>  (35) 
-8.1300000000000008

>  <m_primary>  (35) 
energy

$$$$
35:0
     RDKit          3D

 42 44  0  0  0  0  0  0  0  0999 V2000
   -0.4850   23.4060  -29.5130 C   0  0  0  0  0  0  0  0  0  0  0  0
   -1.3090   24.5550  -29.3390 O   0  0  0  0  0  0  0  0  0  0  0  0
   -2.0850   24.8130  -28.1980 C   0  0  0  0  0  0  0  0  0  0  0  0
   -1.5210   25.3250  -27.0120 C   0  0  0  0  0  0  0  0  0  0  0  0
   -2.3210   25.5500  -25.8890 C   0  0  0  0  0  0  0  0  0  0  0  0
   -3.6880   25.2700  -25.9360 C   0  0  0  0  0  0  0  0  0  0  0  0
   -4.2590   24.7640  -27.1050 C   0  0  0  0  0  0  0  0  0  0  0  0
   -3.4650   24.5380  -28.2410 C   0  0  0  0  0  0  0  0  0  0  0  0
   -4.0650   24.0210  -29.4400 N   0  0  0  0  0  0  0  0  0  0  0  0
   -5.1520   24.7740  -30.0830 C   0  0  0  0  0  0  0  0  0  0  0  0
   -5.6590   24.0550  -31.3380 C   0  0  0  0  0  0  0  0  0  0  0  0
   -5.8270   22.6220  -31.0610 N   0  0  0  0  0  0  0  0  0  0  0  0
   -7.1110   22.0020  -31.2450 C   0  0  0  0  0  0  0  0  0  0  0  0
   -8.1500   22.6100  -30.8690 O   0  0  0  0  0  0  0  0  0  0  0  0
   -7.2390   20.6620  -31.8620 C   0  0  0  0  0  0  0  0  0  0  0  0
   -6.3060   20.2220  -32.8180 C   0  0  0  0  0  0  0  0  0  0  0  0
   -6.4430   18.9630  -33.4110 C   0  0  0  0  0  0  0  0  0  0  0  0
   -7.5150   18.1380  -33.0640 C   0  0  0  0  0  0  0  0  0  0  0  0
   -8.4570   18.5740  -32.1280 C   0  0  0  0  0  0  0  0  0  0  0  0
   -8.3240   19.8320  -31.5310 C   0  0  0  0  0  0  0  0  0  0  0  0
   -4.7460   21.8670  -30.4040 C   0  0  0  0  0  0  0  0  0  0  0  0
   -3.5670   22.7750  -30.0350 C   0  0  0  0  0  0  0  0  0  0  0  0
   -0.1991   23.0073  -28.5285 H   0  0  0  0  0  0  0  0  0  0  0  0
   -1.0397   22.6383  -30.0724 H   0  0  0  0  0  0  0  0  0  0  0  0
    0.4200   23.6851  -30.0724 H   0  0  0  0  0  0  0  0  0  0  0  0
   -0.4448   25.5487  -26.9704 H   0  0  0  0  0  0  0  0  0  0  0  0
   -1.8733   25.9483  -24.9665 H   0  0  0  0  0  0  0  0  0  0  0  0
   -4.3159   25.4484  -25.0506 H   0  0  0  0  0  0  0  0  0  0  0  0
   -5.3358   24.5413  -27.1365 H   0  0  0  0  0  0  0  0  0  0  0  0
   -5.9835   24.8819  -29.3710 H   0  0  0  0  0  0  0  0  0  0  0  0
   -4.7642   25.7597  -30.3796 H   0  0  0  0  0  0  0  0  0  0  0  0
   -6.6263   24.4841  -31.6383 H   0  0  0  0  0  0  0  0  0  0  0  0
   -4.9270   24.1833  -32.1490 H   0  0  0  0  0  0  0  0  0  0  0  0
   -5.4644   20.8714  -33.1006 H   0  0  0  0  0  0  0  0  0  0  0  0
   -5.7051   18.6219  -34.1521 H   0  0  0  0  0  0  0  0  0  0  0  0
   -7.6180   17.1455  -33.5271 H   0  0  0  0  0  0  0  0  0  0  0  0
   -9.3049   17.9264  -31.8602 H   0  0  0  0  0  0  0  0  0  0  0  0
   -9.0715   20.1731  -30.7996 H   0  0  0  0  0  0  0  0  0  0  0  0
   -5.1402   21.4036  -29.4875 H   0  0  0  0  0  0  0  0  0  0  0  0
   -4.3843   21.1020  -31.1068 H   0  0  0  0  0  0  0  0  0  0  0  0
   -2.9205   22.2576  -29.3109 H   0  0  0  0  0  0  0  0  0  0  0  0
   -2.9927   23.0108  -30.9430 H   0  0  0  0  0  0  0  0  0  0  0  0
  1  2  1  0
  2  3  1  0
  3  4  2  0
  4  5  1  0
  5  6  2  0
  6  7  1  0
  7  8  2  0
  8  9  1  0
  9 10  1  0
 10 11  1  0
 11 12  1  0
 12 13  1  0
 13 14  2  0
 13 15  1  0
 15 16  2  0
 16 17  1  0
 17 18  2  0
 18 19  1  0
 19 20  2  0
 12 21  1  0
 21 22  1  0
  8  3  1  0
 22  9  1  0
 20 15  1  0
  1 23  1  0
  1 24  1  0
  1 25  1  0
  4 26  1  0
  5 27  1  0
  6 28  1  0
  7 29  1  0
 10 30  1  0
 10 31  1  0
 11 32  1  0
 11 33  1  0
 16 34  1  0
 17 35  1  0
 18 36  1  0
 19 37  1  0
 20 38  1  0
 21 39  1  0
 21 40  1  0
 22 41  1  0
 22 42  1  0
M  END
>  <UniqueID>  (36) 
35

>  <SMILES>  (36) 
COc1ccccc1N1CCN(C(=O)c2ccccc2)CC1

>  <Energy>  (36) 
53.65231808118955

>  <Genealogy>  (36) 
COc1ccccc1N1CCN(C(=O)c2ccccc2)CC1 (3D coordinates assigned)
COc1ccccc1N1CCN(C(=O)c2ccccc2)CC1 (nonaromatic ring conformer: 53.65231808118955 kcal/mol)

>  <smiles>  (36) 
COc1ccccc1N1CCN(C(=O)c2ccccc2)CC1

>  <score_type>  (36) 
oracle

>  <origin>  (36) 
adg

>  <m_score__min__energy>  (36) 
-7.3799999999999999

>  <m_primary>  (36) 
energy

$$$$
36:0
     RDKit          3D

 31 34  0  0  0  0  0  0  0  0999 V2000
   -4.8150   22.2880  -32.5580 C   0  0  0  0  0  0  0  0  0  0  0  0
   -6.2670   22.2160  -32.3460 N   0  0  0  0  0  0  0  0  0  0  0  0
   -6.8920   23.3920  -32.0180 C   0  0  0  0  0  0  0  0  0  0  0  0
   -8.2320   23.4220  -31.6490 C   0  0  0  0  0  0  0  0  0  0  0  0
   -8.9580   22.2430  -31.6010 C   0  0  0  0  0  0  0  0  0  0  0  0
   -8.3580   21.0390  -31.9740 C   0  0  0  0  0  0  0  0  0  0  0  0
   -9.1130   19.8460  -31.9140 C   0  0  0  0  0  0  0  0  0  0  0  0
   -8.5570   18.6280  -32.3040 C   0  0  0  0  0  0  0  0  0  0  0  0
   -7.2570   18.6300  -32.7840 C   0  0  0  0  0  0  0  0  0  0  0  0
   -6.5190   17.6050  -33.3270 C   0  0  0  0  0  0  0  0  0  0  0  0
   -6.8050   16.2550  -33.5230 C   0  0  0  0  0  0  0  0  0  0  0  0
   -5.8300   15.4670  -34.1640 C   0  0  0  0  0  0  0  0  0  0  0  0
   -6.1580   13.6090  -34.4590 Br  0  0  0  0  0  0  0  0  0  0  0  0
   -4.6150   16.0450  -34.5980 C   0  0  0  0  0  0  0  0  0  0  0  0
   -4.3630   17.4150  -34.3940 C   0  0  0  0  0  0  0  0  0  0  0  0
   -5.3400   18.1700  -33.7460 C   0  0  0  0  0  0  0  0  0  0  0  0
   -5.3050   19.4940  -33.4870 N   0  0  0  0  0  0  0  0  0  0  0  0
   -6.4840   19.7830  -32.8680 C   0  0  0  0  0  0  0  0  0  0  0  0
   -6.9940   21.0370  -32.4110 C   0  0  0  0  0  0  0  0  0  0  0  0
   -4.3032   22.3134  -31.5847 H   0  0  0  0  0  0  0  0  0  0  0  0
   -4.4829   21.4052  -33.1240 H   0  0  0  0  0  0  0  0  0  0  0  0
   -4.5718   23.1993  -33.1240 H   0  0  0  0  0  0  0  0  0  0  0  0
   -6.3207   24.3316  -32.0476 H   0  0  0  0  0  0  0  0  0  0  0  0
   -8.7139   24.3780  -31.3962 H   0  0  0  0  0  0  0  0  0  0  0  0
  -10.0067   22.2556  -31.2691 H   0  0  0  0  0  0  0  0  0  0  0  0
  -10.1523   19.8785  -31.5552 H   0  0  0  0  0  0  0  0  0  0  0  0
   -9.1331   17.6936  -32.2328 H   0  0  0  0  0  0  0  0  0  0  0  0
   -7.7587   15.8206  -33.1887 H   0  0  0  0  0  0  0  0  0  0  0  0
   -3.8611   15.4198  -35.0987 H   0  0  0  0  0  0  0  0  0  0  0  0
   -3.4242   17.8757  -34.7353 H   0  0  0  0  0  0  0  0  0  0  0  0
   -4.5380   20.1200  -33.8010 H   0  0  0  0  0  0  0  0  0  0  0  0
  1  2  1  0
  2  3  2  0
  3  4  1  0
  4  5  2  0
  5  6  1  0
  6  7  2  0
  7  8  1  0
  8  9  2  0
  9 10  1  0
 10 11  2  0
 11 12  1  0
 12 13  1  0
 12 14  2  0
 14 15  1  0
 15 16  2  0
 16 17  1  0
 17 18  1  0
 18 19  2  0
 19  2  1  0
 19  6  1  0
 18  9  1  0
 16 10  1  0
  1 20  1  0
  1 21  1  0
  1 22  1  0
  3 23  1  0
  4 24  1  0
  5 25  1  0
  7 26  1  0
  8 27  1  0
 11 28  1  0
 14 29  1  0
 15 30  1  0
 17 31  1  0
M  CHG  1   2   1
M  END
>  <UniqueID>  (37) 
36

>  <SMILES>  (37) 
C[n+]1cccc2ccc3c4cc(Br)ccc4[nH]c3c21

>  <Energy>  (37) 
90.13502808462886

>  <Genealogy>  (37) 
C[n+]1cccc2ccc3c4cc(Br)ccc4[nH]c3c21 (3D coordinates assigned)
C[n+]1cccc2ccc3c4cc(Br)ccc4[nH]c3c21 (optimized conformer: 90.13502808462886 kcal/mol)

>  <smiles>  (37) 
C[n+]1cccc2ccc3c4cc(Br)ccc4[nH]c3c21

>  <score_type>  (37) 
oracle

>  <origin>  (37) 
adg

>  <m_score__min__energy>  (37) 
-7.4100000000000001

>  <m_primary>  (37) 
energy

$$$$
37:0
     RDKit          3D

 39 41  0  0  0  0  0  0  0  0999 V2000
   -6.1090   25.3670  -29.5660 C   0  0  0  0  0  0  0  0  0  0  0  0
   -5.3400   24.2870  -30.1840 N   0  0  0  0  0  0  0  0  0  0  0  0
   -5.7900   23.3230  -31.0330 C   0  0  0  0  0  0  0  0  0  0  0  0
   -7.1940   23.2550  -31.5680 C   0  0  0  0  0  0  0  0  0  0  0  0
   -7.2670   22.3430  -32.7100 N   0  0  0  0  0  0  0  0  0  0  0  0
   -7.4990   20.9240  -32.6020 C   0  0  0  0  0  0  0  0  0  0  0  0
   -8.6920   20.4680  -32.0160 C   0  0  0  0  0  0  0  0  0  0  0  0
   -8.9490   19.0990  -31.9010 C   0  0  0  0  0  0  0  0  0  0  0  0
   -8.0170   18.1690  -32.3700 C   0  0  0  0  0  0  0  0  0  0  0  0
   -6.8260   18.6100  -32.9520 C   0  0  0  0  0  0  0  0  0  0  0  0
   -6.5640   19.9790  -33.0690 C   0  0  0  0  0  0  0  0  0  0  0  0
   -4.8300   22.4280  -31.3870 N   0  0  0  0  0  0  0  0  0  0  0  0
   -3.7550   22.8460  -30.6960 C   0  0  0  0  0  0  0  0  0  0  0  0
   -2.4920   22.2630  -30.6640 C   0  0  0  0  0  0  0  0  0  0  0  0
   -1.5170   22.8550  -29.8410 C   0  0  0  0  0  0  0  0  0  0  0  0
   -1.8220   24.0060  -29.0760 C   0  0  0  0  0  0  0  0  0  0  0  0
   -0.5990   24.7210  -28.0310 S   0  0  0  0  0  0  0  0  0  0  0  0
   -0.9730   24.3330  -26.3360 C   0  0  0  0  0  0  0  0  0  0  0  0
   -0.5830   26.2130  -28.2140 O   0  0  0  0  0  0  0  0  0  0  0  0
    0.7560   24.1760  -28.3850 O   0  0  0  0  0  0  0  0  0  0  0  0
   -3.1170   24.5660  -29.1280 C   0  0  0  0  0  0  0  0  0  0  0  0
   -4.0570   23.9550  -29.9620 C   0  0  0  0  0  0  0  0  0  0  0  0
   -6.0476   25.2808  -28.4711 H   0  0  0  0  0  0  0  0  0  0  0  0
   -5.6972   26.3371  -29.8811 H   0  0  0  0  0  0  0  0  0  0  0  0
   -7.1605   25.2952  -29.8811 H   0  0  0  0  0  0  0  0  0  0  0  0
   -7.8660   22.8954  -30.7748 H   0  0  0  0  0  0  0  0  0  0  0  0
   -7.4969   24.2600  -31.8971 H   0  0  0  0  0  0  0  0  0  0  0  0
   -7.1410   22.7580  -33.6620 H   0  0  0  0  0  0  0  0  0  0  0  0
   -9.4298   21.1945  -31.6447 H   0  0  0  0  0  0  0  0  0  0  0  0
   -9.8862   18.7530  -31.4407 H   0  0  0  0  0  0  0  0  0  0  0  0
   -8.2209   17.0917  -32.2810 H   0  0  0  0  0  0  0  0  0  0  0  0
   -6.0917   17.8781  -33.3195 H   0  0  0  0  0  0  0  0  0  0  0  0
   -5.6239   20.3194  -33.5276 H   0  0  0  0  0  0  0  0  0  0  0  0
   -2.2636   21.3688  -31.2625 H   0  0  0  0  0  0  0  0  0  0  0  0
   -0.5082   22.4194  -29.7915 H   0  0  0  0  0  0  0  0  0  0  0  0
   -0.3642   24.9646  -25.6723 H   0  0  0  0  0  0  0  0  0  0  0  0
   -2.0397   24.5205  -26.1437 H   0  0  0  0  0  0  0  0  0  0  0  0
   -0.7464   23.2739  -26.1437 H   0  0  0  0  0  0  0  0  0  0  0  0
   -3.3772   25.4533  -28.5321 H   0  0  0  0  0  0  0  0  0  0  0  0
  1  2  1  0
  2  3  1  0
  3  4  1  0
  4  5  1  0
  5  6  1  0
  6  7  2  0
  7  8  1  0
  8  9  2  0
  9 10  1  0
 10 11  2  0
  3 12  2  0
 12 13  1  0
 13 14  2  0
 14 15  1  0
 15 16  2  0
 16 17  1  0
 17 18  1  0
 17 19  2  0
 17 20  2  0
 16 21  1  0
 21 22  2  0
 22  2  1  0
 11  6  1  0
 22 13  1  0
  1 23  1  0
  1 24  1  0
  1 25  1  0
  4 26  1  0
  4 27  1  0
  5 28  1  0
  7 29  1  0
  8 30  1  0
  9 31  1  0
 10 32  1  0
 11 33  1  0
 14 34  1  0
 15 35  1  0
 18 36  1  0
 18 37  1  0
 18 38  1  0
 21 39  1  0
M  END
>  <UniqueID>  (38) 
37

>  <SMILES>  (38) 
Cn1c(CNc2ccccc2)nc2ccc(S(C)(=O)=O)cc21

>  <Energy>  (38) 
74.42618252313551

>  <Genealogy>  (38) 
Cn1c(CNc2ccccc2)nc2ccc(S(C)(=O)=O)cc21 (3D coordinates assigned)
Cn1c(CNc2ccccc2)nc2ccc(S(C)(=O)=O)cc21 (optimized conformer: 74.42618252313551 kcal/mol)

>  <smiles>  (38) 
Cn1c(CNc2ccccc2)nc2ccc(S(C)(=O)=O)cc21

>  <score_type>  (38) 
oracle

>  <origin>  (38) 
adg

>  <m_score__min__energy>  (38) 
-8.2899999999999991

>  <m_primary>  (38) 
energy

$$$$
38:0
     RDKit          3D

 55 57  0  0  0  0  0  0  0  0999 V2000
   -4.2060   24.1590  -28.0420 C   0  0  0  0  0  0  0  0  0  0  0  0
   -3.4170   24.4400  -29.3330 C   0  0  0  0  0  0  0  0  0  0  0  0
   -2.2310   23.4750  -29.4670 C   0  0  0  0  0  0  0  0  0  0  0  0
   -4.2610   24.4310  -30.5560 N   0  0  0  0  0  0  0  0  0  0  0  0
   -5.6490   24.9220  -30.3490 C   0  0  0  0  0  0  0  0  0  0  0  0
   -6.7120   23.8080  -30.3810 C   0  0  0  0  0  0  0  0  0  0  0  0
   -6.4920   22.8750  -31.4930 N   0  0  0  0  0  0  0  0  0  0  0  0
   -7.5070   21.9150  -31.8300 C   0  0  0  0  0  0  0  0  0  0  0  0
   -8.8580   22.2520  -31.6400 C   0  0  0  0  0  0  0  0  0  0  0  0
   -9.8660   21.3270  -31.9170 C   0  0  0  0  0  0  0  0  0  0  0  0
   -9.5370   20.0520  -32.3770 C   0  0  0  0  0  0  0  0  0  0  0  0
   -8.2000   19.7030  -32.5760 C   0  0  0  0  0  0  0  0  0  0  0  0
   -7.1750   20.6320  -32.3290 C   0  0  0  0  0  0  0  0  0  0  0  0
   -5.8040   20.2190  -32.5020 N   0  0  0  0  0  0  0  0  0  0  0  0
   -4.8490   20.1230  -31.3790 C   0  0  0  0  0  0  0  0  0  0  0  0
   -3.3780   20.0350  -31.8020 C   0  0  0  0  0  0  0  0  0  0  0  0
   -3.0710   21.0080  -32.7350 F   0  0  0  0  0  0  0  0  0  0  0  0
   -5.3460   19.8360  -33.8430 C   0  0  0  0  0  0  0  0  0  0  0  0
   -5.2290   18.3410  -33.9460 C   0  0  0  0  0  0  0  0  0  0  0  0
   -6.3370   17.5180  -33.6960 C   0  0  0  0  0  0  0  0  0  0  0  0
   -6.2270   16.1350  -33.8460 C   0  0  0  0  0  0  0  0  0  0  0  0
   -5.0090   15.5870  -34.2560 C   0  0  0  0  0  0  0  0  0  0  0  0
   -3.9470   16.3980  -34.5090 N   0  0  0  0  0  0  0  0  0  0  0  0
   -4.0300   17.7480  -34.3690 C   0  0  0  0  0  0  0  0  0  0  0  0
   -5.3150   23.0370  -32.3420 C   0  0  0  0  0  0  0  0  0  0  0  0
   -4.0990   23.2530  -31.4460 C   0  0  0  0  0  0  0  0  0  0  0  0
   -3.5744   24.3839  -27.1700 H   0  0  0  0  0  0  0  0  0  0  0  0
   -5.1051   24.7922  -28.0166 H   0  0  0  0  0  0  0  0  0  0  0  0
   -4.5025   23.1000  -28.0166 H   0  0  0  0  0  0  0  0  0  0  0  0
   -3.0304   25.4659  -29.2434 H   0  0  0  0  0  0  0  0  0  0  0  0
   -1.8774   23.1873  -28.4659 H   0  0  0  0  0  0  0  0  0  0  0  0
   -2.5496   22.5764  -30.0156 H   0  0  0  0  0  0  0  0  0  0  0  0
   -1.4159   23.9697  -30.0156 H   0  0  0  0  0  0  0  0  0  0  0  0
   -5.6983   25.4208  -29.3698 H   0  0  0  0  0  0  0  0  0  0  0  0
   -5.8751   25.6055  -31.1807 H   0  0  0  0  0  0  0  0  0  0  0  0
   -6.6707   23.2494  -29.4343 H   0  0  0  0  0  0  0  0  0  0  0  0
   -7.6963   24.2791  -30.5201 H   0  0  0  0  0  0  0  0  0  0  0  0
   -9.1234   23.2533  -31.2698 H   0  0  0  0  0  0  0  0  0  0  0  0
  -10.9207   21.6038  -31.7724 H   0  0  0  0  0  0  0  0  0  0  0  0
  -10.3321   19.3204  -32.5833 H   0  0  0  0  0  0  0  0  0  0  0  0
   -7.9468   18.6924  -32.9291 H   0  0  0  0  0  0  0  0  0  0  0  0
   -4.9719   21.0143  -30.7462 H   0  0  0  0  0  0  0  0  0  0  0  0
   -5.0796   19.1859  -30.8511 H   0  0  0  0  0  0  0  0  0  0  0  0
   -2.7403   20.1722  -30.9163 H   0  0  0  0  0  0  0  0  0  0  0  0
   -3.2023   19.0480  -32.2547 H   0  0  0  0  0  0  0  0  0  0  0  0
   -6.0687   20.1959  -34.5901 H   0  0  0  0  0  0  0  0  0  0  0  0
   -4.3592   20.2861  -34.0267 H   0  0  0  0  0  0  0  0  0  0  0  0
   -7.2927   17.9628  -33.3817 H   0  0  0  0  0  0  0  0  0  0  0  0
   -7.0898   15.4834  -33.6436 H   0  0  0  0  0  0  0  0  0  0  0  0
   -4.9089   14.4980  -34.3743 H   0  0  0  0  0  0  0  0  0  0  0  0
   -3.1545   18.3769  -34.5880 H   0  0  0  0  0  0  0  0  0  0  0  0
   -5.1705   22.1335  -32.9525 H   0  0  0  0  0  0  0  0  0  0  0  0
   -5.4485   23.8996  -33.0114 H   0  0  0  0  0  0  0  0  0  0  0  0
   -3.9528   22.3570  -30.8249 H   0  0  0  0  0  0  0  0  0  0  0  0
   -3.2296   23.4363  -32.0945 H   0  0  0  0  0  0  0  0  0  0  0  0
  1  2  1  0
  2  3  1  0
  2  4  1  0
  4  5  1  0
  5  6  1  0
  6  7  1  0
  7  8  1  0
  8  9  2  0
  9 10  1  0
 10 11  2  0
 11 12  1  0
 12 13  2  0
 13 14  1  0
 14 15  1  0
 15 16  1  0
 16 17  1  0
 14 18  1  0
 18 19  1  0
 19 20  2  0
 20 21  1  0
 21 22  2  0
 22 23  1  0
 23 24  2  0
  7 25  1  0
 25 26  1  0
 26  4  1  0
 13  8  1  0
 24 19  1  0
  1 27  1  0
  1 28  1  0
  1 29  1  0
  2 30  1  0
  3 31  1  0
  3 32  1  0
  3 33  1  0
  5 34  1  0
  5 35  1  0
  6 36  1  0
  6 37  1  0
  9 38  1  0
 10 39  1  0
 11 40  1  0
 12 41  1  0
 15 42  1  0
 15 43  1  0
 16 44  1  0
 16 45  1  0
 18 46  1  0
 18 47  1  0
 20 48  1  0
 21 49  1  0
 22 50  1  0
 24 51  1  0
 25 52  1  0
 25 53  1  0
 26 54  1  0
 26 55  1  0
M  END
>  <UniqueID>  (39) 
38

>  <SMILES>  (39) 
CC(C)N1CCN(c2ccccc2N(CCF)Cc2cccnc2)CC1

>  <Energy>  (39) 
72.45610678772924

>  <Genealogy>  (39) 
CC(C)N1CCN(c2ccccc2N(CCF)Cc2cccnc2)CC1 (3D coordinates assigned)
CC(C)N1CCN(c2ccccc2N(CCF)Cc2cccnc2)CC1 (nonaromatic ring conformer: 72.45610678772924 kcal/mol)

>  <smiles>  (39) 
CC(C)N1CCN(c2ccccc2N(CCF)Cc2cccnc2)CC1

>  <score_type>  (39) 
oracle

>  <origin>  (39) 
adg

>  <m_score__min__energy>  (39) 
-8.1400000000000006

>  <m_primary>  (39) 
energy

$$$$
39:0
     RDKit          3D

 45 47  0  0  0  0  0  0  0  0999 V2000
   -8.2678   23.7822  -32.4476 H   0  0  0  0  0  0  0  0  0  0  0  0
   -7.6240   23.0270  -31.9730 C   0  0  0  0  0  0  0  0  0  0  0  0
   -8.0420   21.7500  -31.9780 C   0  0  0  0  0  0  0  0  0  0  0  0
   -7.3830   20.6800  -32.7010 C   0  0  0  0  0  0  0  0  0  0  0  0
   -6.3390   20.8300  -33.3920 O   0  0  0  0  0  0  0  0  0  0  0  0
   -8.1210   19.3930  -32.5720 C   0  0  1  0  0  0  0  0  0  0  0  0
   -8.2055   18.8527  -33.5264 H   0  0  0  0  0  0  0  0  0  0  0  0
   -7.4000   18.4080  -31.6170 C   0  0  0  0  0  0  0  0  0  0  0  0
   -7.7156   18.6279  -30.5865 H   0  0  0  0  0  0  0  0  0  0  0  0
   -7.6785   17.3908  -31.9298 H   0  0  0  0  0  0  0  0  0  0  0  0
   -5.9290   18.4960  -31.6840 N   0  0  0  0  0  0  0  0  0  0  0  0
   -5.6260   19.4860  -31.8310 H   0  0  0  0  0  0  0  0  0  0  0  0
   -5.5390   18.2000  -30.7580 H   0  0  0  0  0  0  0  0  0  0  0  0
   -5.3850   17.6310  -32.7050 C   0  0  0  0  0  0  0  0  0  0  0  0
   -5.0790   18.1420  -33.9800 C   0  0  0  0  0  0  0  0  0  0  0  0
   -5.2640   19.2032  -34.2029 H   0  0  0  0  0  0  0  0  0  0  0  0
   -4.5410   17.3080  -34.9650 C   0  0  0  0  0  0  0  0  0  0  0  0
   -4.3040   17.7144  -35.9593 H   0  0  0  0  0  0  0  0  0  0  0  0
   -4.3040   15.9590  -34.6880 C   0  0  0  0  0  0  0  0  0  0  0  0
   -3.8797   15.3044  -35.4636 H   0  0  0  0  0  0  0  0  0  0  0  0
   -4.6060   15.4420  -33.4260 C   0  0  0  0  0  0  0  0  0  0  0  0
   -4.4189   14.3799  -33.2094 H   0  0  0  0  0  0  0  0  0  0  0  0
   -5.1450   16.2700  -32.4380 C   0  0  0  0  0  0  0  0  0  0  0  0
   -5.3829   15.8563  -31.4469 H   0  0  0  0  0  0  0  0  0  0  0  0
   -9.4810   19.8340  -31.9870 C   0  0  0  0  0  0  0  0  0  0  0  0
   -9.8158   19.1109  -31.2287 H   0  0  0  0  0  0  0  0  0  0  0  0
  -10.2452   19.8819  -32.7767 H   0  0  0  0  0  0  0  0  0  0  0  0
   -9.2810   21.2150  -31.3430 C   0  0  0  0  0  0  0  0  0  0  0  0
   -9.1502   21.1208  -30.2549 H   0  0  0  0  0  0  0  0  0  0  0  0
  -10.1469   21.8760  -31.4956 H   0  0  0  0  0  0  0  0  0  0  0  0
   -6.3540   23.4800  -31.3700 C   0  0  0  0  0  0  0  0  0  0  0  0
   -6.2790   24.7710  -30.8280 C   0  0  0  0  0  0  0  0  0  0  0  0
   -7.1657   25.4218  -30.8411 H   0  0  0  0  0  0  0  0  0  0  0  0
   -5.0840   25.2360  -30.2710 C   0  0  0  0  0  0  0  0  0  0  0  0
   -5.0422   26.2448  -29.8344 H   0  0  0  0  0  0  0  0  0  0  0  0
   -3.9400   24.4290  -30.2640 C   0  0  0  0  0  0  0  0  0  0  0  0
   -2.7670   24.9410  -29.6910 O   0  0  0  0  0  0  0  0  0  0  0  0
   -2.0790   24.3410  -28.5980 C   0  0  0  0  0  0  0  0  0  0  0  0
   -2.5018   24.7097  -27.6518 H   0  0  0  0  0  0  0  0  0  0  0  0
   -2.1922   23.2480  -28.6490 H   0  0  0  0  0  0  0  0  0  0  0  0
   -1.0116   24.6018  -28.6490 H   0  0  0  0  0  0  0  0  0  0  0  0
   -4.0060   23.1430  -30.8340 C   0  0  0  0  0  0  0  0  0  0  0  0
   -3.1127   22.5011  -30.8408 H   0  0  0  0  0  0  0  0  0  0  0  0
   -5.2000   22.6780  -31.3910 C   0  0  0  0  0  0  0  0  0  0  0  0
   -5.2371   21.6784  -31.8486 H   0  0  0  0  0  0  0  0  0  0  0  0
  1  2  1  0
  2  3  2  0
  3  4  1  0
  4  5  2  0
  4  6  1  0
  6  7  1  6
  6  8  1  0
  8  9  1  0
  8 10  1  0
  8 11  1  0
 11 12  1  0
 11 13  1  0
 11 14  1  0
 14 15  2  0
 15 16  1  0
 15 17  1  0
 17 18  1  0
 17 19  2  0
 19 20  1  0
 19 21  1  0
 21 22  1  0
 21 23  2  0
 23 24  1  0
  6 25  1  0
 25 26  1  0
 25 27  1  0
 25 28  1  0
 28 29  1  0
 28 30  1  0
  2 31  1  0
 31 32  2  0
 32 33  1  0
 32 34  1  0
 34 35  1  0
 34 36  2  0
 36 37  1  0
 37 38  1  0
 38 39  1  0
 38 40  1  0
 38 41  1  0
 36 42  1  0
 42 43  1  0
 42 44  2  0
 44 45  1  0
 28  3  1  0
 44 31  1  0
 23 14  1  0
M  CHG  1  11   1
M  END
>  <UniqueID>  (40) 
39

>  <SMILES>  (40) 
COc1ccc(/C=C2\CC[C@H](C[NH2+]c3ccccc3)C2=O)cc1

>  <Energy>  (40) 
58.99690086249351

>  <Genealogy>  (40) 
COc1ccc(C=C2CCC(C[NH2+]c3ccccc3)C2=O)cc1 (protonated)
COc1ccc(C=C2CC[C@H](C[NH2+]c3ccccc3)C2=O)cc1 (chirality)
COc1ccc(/C=C2\CC[C@H](C[NH2+]c3ccccc3)C2=O)cc1 (cis-trans isomerization)
COc1ccc(/C=C2\CC[C@H](C[NH2+]c3ccccc3)C2=O)cc1 (3D coordinates assigned)
COc1ccc(/C=C2\CC[C@H](C[NH2+]c3ccccc3)C2=O)cc1 (nonaromatic ring conformer: 58.99690086249351 kcal/mol)

>  <smiles>  (40) 
COc1ccc(C=C2CCC(CNc3ccccc3)C2=O)cc1

>  <score_type>  (40) 
oracle

>  <origin>  (40) 
adg

>  <m_score__min__energy>  (40) 
-8.3599999999999994

>  <m_primary>  (40) 
energy

$$$$
40:0
     RDKit          3D

 63 66  0  0  0  0  0  0  0  0999 V2000
   -3.8030   24.9390  -26.3350 C   0  0  0  0  0  0  0  0  0  0  0  0
   -2.4570   25.5160  -26.4670 N   0  0  0  0  0  0  0  0  0  0  0  0
   -1.9650   26.0310  -25.1800 C   0  0  0  0  0  0  0  0  0  0  0  0
   -1.4990   24.6180  -27.1520 C   0  0  0  0  0  0  0  0  0  0  0  0
   -1.2270   24.9560  -28.6290 C   0  0  0  0  0  0  0  0  0  0  0  0
   -2.4390   25.2990  -29.2950 O   0  0  0  0  0  0  0  0  0  0  0  0
   -3.3620   24.3710  -29.7960 C   0  0  0  0  0  0  0  0  0  0  0  0
   -4.5240   24.8530  -30.4060 C   0  0  0  0  0  0  0  0  0  0  0  0
   -5.4750   23.9710  -30.9220 C   0  0  0  0  0  0  0  0  0  0  0  0
   -5.2840   22.5800  -30.8320 C   0  0  0  0  0  0  0  0  0  0  0  0
   -6.2940   21.6370  -31.3790 C   0  0  0  0  0  0  0  0  0  0  0  0
   -7.6260   22.0380  -31.5590 C   0  0  0  0  0  0  0  0  0  0  0  0
   -8.5320   21.1610  -32.0610 N   0  0  0  0  0  0  0  0  0  0  0  0
   -8.1780   19.8960  -32.3970 C   0  0  0  0  0  0  0  0  0  0  0  0
   -6.8510   19.4750  -32.2200 C   0  0  0  0  0  0  0  0  0  0  0  0
   -6.4430   18.0930  -32.5680 C   0  0  0  0  0  0  0  0  0  0  0  0
   -6.6550   17.5990  -33.8660 C   0  0  0  0  0  0  0  0  0  0  0  0
   -6.2690   16.2980  -34.2020 C   0  0  0  0  0  0  0  0  0  0  0  0
   -5.6750   15.4600  -33.2410 C   0  0  0  0  0  0  0  0  0  0  0  0
   -5.2650   14.1230  -33.5900 N   0  0  0  0  0  0  0  0  0  0  0  0
   -5.9730   13.3830  -34.6430 C   0  0  0  0  0  0  0  0  0  0  0  0
   -5.6910   11.8740  -34.5330 C   0  0  0  0  0  0  0  0  0  0  0  0
   -5.6250   11.4270  -33.1250 N   0  0  0  0  0  0  0  0  0  0  0  0
   -6.9390   11.5020  -32.4630 C   0  0  0  0  0  0  0  0  0  0  0  0
   -4.5690   12.1150  -32.3370 C   0  0  0  0  0  0  0  0  0  0  0  0
   -4.1340   13.4720  -32.9240 C   0  0  0  0  0  0  0  0  0  0  0  0
   -5.4560   15.9570  -31.9460 C   0  0  0  0  0  0  0  0  0  0  0  0
   -5.8360   17.2590  -31.6130 C   0  0  0  0  0  0  0  0  0  0  0  0
   -5.9410   20.3600  -31.7140 N   0  0  0  0  0  0  0  0  0  0  0  0
   -4.1160   22.0950  -30.2180 C   0  0  0  0  0  0  0  0  0  0  0  0
   -3.1610   22.9800  -29.7070 C   0  0  0  0  0  0  0  0  0  0  0  0
   -4.0531   24.8318  -25.2692 H   0  0  0  0  0  0  0  0  0  0  0  0
   -4.5353   25.6023  -26.8185 H   0  0  0  0  0  0  0  0  0  0  0  0
   -3.8276   23.9513  -26.8185 H   0  0  0  0  0  0  0  0  0  0  0  0
   -2.4692   25.5033  -24.3570 H   0  0  0  0  0  0  0  0  0  0  0  0
   -0.8795   25.8670  -25.1103 H   0  0  0  0  0  0  0  0  0  0  0  0
   -2.1784   27.1079  -25.1103 H   0  0  0  0  0  0  0  0  0  0  0  0
   -0.5426   24.6636  -26.6105 H   0  0  0  0  0  0  0  0  0  0  0  0
   -1.9590   23.6188  -27.1466 H   0  0  0  0  0  0  0  0  0  0  0  0
   -0.5312   25.8063  -28.6833 H   0  0  0  0  0  0  0  0  0  0  0  0
   -0.7889   24.0747  -29.1202 H   0  0  0  0  0  0  0  0  0  0  0  0
   -4.6905   25.9378  -30.4800 H   0  0  0  0  0  0  0  0  0  0  0  0
   -6.3815   24.3669  -31.4031 H   0  0  0  0  0  0  0  0  0  0  0  0
   -7.9353   23.0599  -31.2942 H   0  0  0  0  0  0  0  0  0  0  0  0
   -8.9276   19.2028  -32.8065 H   0  0  0  0  0  0  0  0  0  0  0  0
   -7.1283   18.2408  -34.6237 H   0  0  0  0  0  0  0  0  0  0  0  0
   -6.4309   15.9271  -35.2249 H   0  0  0  0  0  0  0  0  0  0  0  0
   -7.0545   13.5564  -34.5410 H   0  0  0  0  0  0  0  0  0  0  0  0
   -5.6196   13.7377  -35.6224 H   0  0  0  0  0  0  0  0  0  0  0  0
   -6.4951   11.3237  -35.0436 H   0  0  0  0  0  0  0  0  0  0  0  0
   -4.7154   11.6744  -35.0003 H   0  0  0  0  0  0  0  0  0  0  0  0
   -6.8008   11.4941  -31.3717 H   0  0  0  0  0  0  0  0  0  0  0  0
   -7.4475   12.4306  -32.7615 H   0  0  0  0  0  0  0  0  0  0  0  0
   -7.5498   10.6373  -32.7615 H   0  0  0  0  0  0  0  0  0  0  0  0
   -4.9515   12.2846  -31.3197 H   0  0  0  0  0  0  0  0  0  0  0  0
   -3.6836   11.4625  -32.3528 H   0  0  0  0  0  0  0  0  0  0  0  0
   -3.7696   14.1186  -32.1122 H   0  0  0  0  0  0  0  0  0  0  0  0
   -3.3335   13.3040  -33.6596 H   0  0  0  0  0  0  0  0  0  0  0  0
   -4.9816   15.3161  -31.1883 H   0  0  0  0  0  0  0  0  0  0  0  0
   -5.6588   17.6351  -30.5946 H   0  0  0  0  0  0  0  0  0  0  0  0
   -4.9430   20.0640  -31.6240 H   0  0  0  0  0  0  0  0  0  0  0  0
   -3.9518   21.0102  -30.1388 H   0  0  0  0  0  0  0  0  0  0  0  0
   -2.2489   22.5877  -29.2335 H   0  0  0  0  0  0  0  0  0  0  0  0
  1  2  1  0
  2  3  1  0
  2  4  1  0
  4  5  1  0
  5  6  1  0
  6  7  1  0
  7  8  2  0
  8  9  1  0
  9 10  2  0
 10 11  1  0
 11 12  2  0
 12 13  1  0
 13 14  2  0
 14 15  1  0
 15 16  1  0
 16 17  2  0
 17 18  1  0
 18 19  2  0
 19 20  1  0
 20 21  1  0
 21 22  1  0
 22 23  1  0
 23 24  1  0
 23 25  1  0
 25 26  1  0
 19 27  1  0
 27 28  2  0
 15 29  2  0
 10 30  1  0
 30 31  2  0
 31  7  1  0
 29 11  1  0
 28 16  1  0
 26 20  1  0
  1 32  1  0
  1 33  1  0
  1 34  1  0
  3 35  1  0
  3 36  1  0
  3 37  1  0
  4 38  1  0
  4 39  1  0
  5 40  1  0
  5 41  1  0
  8 42  1  0
  9 43  1  0
 12 44  1  0
 14 45  1  0
 17 46  1  0
 18 47  1  0
 21 48  1  0
 21 49  1  0
 22 50  1  0
 22 51  1  0
 24 52  1  0
 24 53  1  0
 24 54  1  0
 25 55  1  0
 25 56  1  0
 26 57  1  0
 26 58  1  0
 27 59  1  0
 28 60  1  0
 29 61  1  0
 30 62  1  0
 31 63  1  0
M  CHG  1  29   1
M  END
>  <UniqueID>  (41) 
40

>  <SMILES>  (41) 
CN(C)CCOc1ccc(-c2cncc(-c3ccc(N4CCN(C)CC4)cc3)[nH+]2)cc1

>  <Energy>  (41) 
90.07281363200933

>  <Genealogy>  (41) 
CN(C)CCOc1ccc(-c2cncc(-c3ccc(N4CCN(C)CC4)cc3)[nH+]2)cc1 (protonated)
CN(C)CCOc1ccc(-c2cncc(-c3ccc(N4CCN(C)CC4)cc3)[nH+]2)cc1 (3D coordinates assigned)
CN(C)CCOc1ccc(-c2cncc(-c3ccc(N4CCN(C)CC4)cc3)[nH+]2)cc1 (nonaromatic ring conformer: 90.07281363200933 kcal/mol)

>  <smiles>  (41) 
CN(C)CCOc1ccc(-c2cncc(-c3ccc(N4CCN(C)CC4)cc3)n2)cc1

>  <score_type>  (41) 
oracle

>  <origin>  (41) 
adg

>  <m_score__min__energy>  (41) 
-8.25

>  <m_primary>  (41) 
energy

$$$$
41:0
     RDKit          3D

 50 52  0  0  0  0  0  0  0  0999 V2000
   -4.3260   18.5330  -34.1380 C   0  0  0  0  0  0  0  0  0  0  0  0
   -5.7090   18.6880  -34.4340 O   0  0  0  0  0  0  0  0  0  0  0  0
   -6.7100   18.8720  -33.4690 C   0  0  0  0  0  0  0  0  0  0  0  0
   -6.9710   17.8270  -32.5740 C   0  0  0  0  0  0  0  0  0  0  0  0
   -7.9510   17.9650  -31.5890 C   0  0  0  0  0  0  0  0  0  0  0  0
   -8.6870   19.1490  -31.4920 C   0  0  0  0  0  0  0  0  0  0  0  0
   -8.4510   20.2010  -32.3890 C   0  0  0  0  0  0  0  0  0  0  0  0
   -9.2180   21.4910  -32.2630 C   0  0  0  0  0  0  0  0  0  0  0  0
   -8.5980   22.3840  -31.1820 C   0  0  0  0  0  0  0  0  0  0  0  0
   -7.1320   22.2060  -31.1440 N   0  0  0  0  0  0  0  0  0  0  0  0
   -6.5060   22.7400  -32.3740 C   0  0  0  0  0  0  0  0  0  0  0  0
   -5.0010   22.9540  -32.1770 C   0  0  0  0  0  0  0  0  0  0  0  0
   -4.7200   23.9700  -31.1300 N   0  0  0  0  0  0  0  0  0  0  0  0
   -3.4010   23.7500  -30.4930 C   0  0  0  0  0  0  0  0  0  0  0  0
   -3.2600   24.5350  -29.1760 C   0  0  1  0  0  0  0  0  0  0  0  0
   -3.2230   23.6220  -27.9600 C   0  0  0  0  0  0  0  0  0  0  0  0
   -2.3490   24.3790  -27.0120 C   0  0  0  0  0  0  0  0  0  0  0  0
   -1.4650   25.1930  -27.9360 C   0  0  0  0  0  0  0  0  0  0  0  0
   -2.0730   25.2960  -29.2050 O   0  0  0  0  0  0  0  0  0  0  0  0
   -5.8020   24.0800  -30.1180 C   0  0  0  0  0  0  0  0  0  0  0  0
   -6.5290   22.7430  -29.8960 C   0  0  0  0  0  0  0  0  0  0  0  0
   -7.4540   20.0640  -33.3690 C   0  0  0  0  0  0  0  0  0  0  0  0
   -4.1840   18.5171  -33.0473 H   0  0  0  0  0  0  0  0  0  0  0  0
   -3.9624   17.5885  -34.5689 H   0  0  0  0  0  0  0  0  0  0  0  0
   -3.7623   19.3736  -34.5689 H   0  0  0  0  0  0  0  0  0  0  0  0
   -6.3994   16.8900  -32.6476 H   0  0  0  0  0  0  0  0  0  0  0  0
   -8.1442   17.1398  -30.8877 H   0  0  0  0  0  0  0  0  0  0  0  0
   -9.4533   19.2561  -30.7102 H   0  0  0  0  0  0  0  0  0  0  0  0
   -9.1949   22.0209  -33.2267 H   0  0  0  0  0  0  0  0  0  0  0  0
  -10.2557   21.2604  -31.9803 H   0  0  0  0  0  0  0  0  0  0  0  0
   -8.8295   23.4361  -31.4046 H   0  0  0  0  0  0  0  0  0  0  0  0
   -9.0166   22.1030  -30.2043 H   0  0  0  0  0  0  0  0  0  0  0  0
   -6.6631   22.0265  -33.1963 H   0  0  0  0  0  0  0  0  0  0  0  0
   -6.9695   23.7092  -32.6103 H   0  0  0  0  0  0  0  0  0  0  0  0
   -4.5417   21.9998  -31.8794 H   0  0  0  0  0  0  0  0  0  0  0  0
   -4.5803   23.3165  -33.1265 H   0  0  0  0  0  0  0  0  0  0  0  0
   -3.2830   22.6770  -30.2815 H   0  0  0  0  0  0  0  0  0  0  0  0
   -2.6246   24.1059  -31.1862 H   0  0  0  0  0  0  0  0  0  0  0  0
   -4.1428   25.1854  -29.0888 H   0  0  0  0  0  0  0  0  0  0  0  0
   -4.2299   23.4761  -27.5419 H   0  0  0  0  0  0  0  0  0  0  0  0
   -2.8540   22.6100  -28.1831 H   0  0  0  0  0  0  0  0  0  0  0  0
   -2.9468   25.0328  -26.3599 H   0  0  0  0  0  0  0  0  0  0  0  0
   -1.7804   23.7267  -26.3329 H   0  0  0  0  0  0  0  0  0  0  0  0
   -1.3242   26.1994  -27.5150 H   0  0  0  0  0  0  0  0  0  0  0  0
   -0.4889   24.6963  -28.0383 H   0  0  0  0  0  0  0  0  0  0  0  0
   -5.3627   24.4068  -29.1640 H   0  0  0  0  0  0  0  0  0  0  0  0
   -6.5390   24.8071  -30.4898 H   0  0  0  0  0  0  0  0  0  0  0  0
   -5.8065   22.0090  -29.5097 H   0  0  0  0  0  0  0  0  0  0  0  0
   -7.3461   22.9227  -29.1818 H   0  0  0  0  0  0  0  0  0  0  0  0
   -7.2528   20.8933  -34.0632 H   0  0  0  0  0  0  0  0  0  0  0  0
  1  2  1  0
  2  3  1  0
  3  4  2  0
  4  5  1  0
  5  6  2  0
  6  7  1  0
  7  8  1  0
  8  9  1  0
  9 10  1  0
 10 11  1  0
 11 12  1  0
 12 13  1  0
 13 14  1  0
 14 15  1  0
 15 16  1  0
 16 17  1  0
 17 18  1  0
 18 19  1  0
 13 20  1  0
 20 21  1  0
  7 22  2  0
 22  3  1  0
 21 10  1  0
 19 15  1  0
  1 23  1  0
  1 24  1  0
  1 25  1  0
  4 26  1  0
  5 27  1  0
  6 28  1  0
  8 29  1  0
  8 30  1  0
  9 31  1  0
  9 32  1  0
 11 33  1  0
 11 34  1  0
 12 35  1  0
 12 36  1  0
 14 37  1  0
 14 38  1  0
 15 39  1  1
 16 40  1  0
 16 41  1  0
 17 42  1  0
 17 43  1  0
 18 44  1  0
 18 45  1  0
 20 46  1  0
 20 47  1  0
 21 48  1  0
 21 49  1  0
 22 50  1  0
M  END
>  <UniqueID>  (42) 
41

>  <SMILES>  (42) 
COc1cccc(CCN2CCN(C[C@H]3CCCO3)CC2)c1

>  <Energy>  (42) 
59.22029444748096

>  <Genealogy>  (42) 
COc1cccc(CCN2CCN(C[C@H]3CCCO3)CC2)c1 (chirality)
COc1cccc(CCN2CCN(C[C@H]3CCCO3)CC2)c1 (3D coordinates assigned)
COc1cccc(CCN2CCN(C[C@H]3CCCO3)CC2)c1 (nonaromatic ring conformer: 59.22029444748096 kcal/mol)

>  <smiles>  (42) 
COc1cccc(CCN2CCN(CC3CCCO3)CC2)c1

>  <score_type>  (42) 
oracle

>  <origin>  (42) 
adg

>  <m_score__min__energy>  (42) 
-8.8200000000000003

>  <m_primary>  (42) 
energy

$$$$
42:0
     RDKit          3D

 48 50  0  0  0  0  0  0  0  0999 V2000
   -3.5250   24.0260  -28.2920 C   0  0  0  0  0  0  0  0  0  0  0  0
   -4.0730   22.6010  -28.1650 C   0  0  0  0  0  0  0  0  0  0  0  0
   -3.2070   21.5490  -28.7620 N   0  0  0  0  0  0  0  0  0  0  0  0
   -2.2590   20.9510  -27.7710 C   0  0  0  0  0  0  0  0  0  0  0  0
   -2.7150   19.6530  -27.0800 C   0  0  0  0  0  0  0  0  0  0  0  0
   -2.6140   21.9700  -30.0680 C   0  0  0  0  0  0  0  0  0  0  0  0
   -3.0440   21.0860  -31.2600 C   0  0  0  0  0  0  0  0  0  0  0  0
   -2.9230   21.7690  -32.6340 C   0  0  0  0  0  0  0  0  0  0  0  0
   -4.2200   22.2770  -33.0860 N   0  0  0  0  0  0  0  0  0  0  0  0
   -5.4520   21.7280  -32.5970 C   0  0  0  0  0  0  0  0  0  0  0  0
   -6.2880   22.5020  -31.7420 C   0  0  0  0  0  0  0  0  0  0  0  0
   -5.7940   24.2730  -31.2000 Br  0  0  0  0  0  0  0  0  0  0  0  0
   -7.5180   21.9850  -31.2790 C   0  0  0  0  0  0  0  0  0  0  0  0
   -7.8920   20.6980  -31.6650 C   0  0  0  0  0  0  0  0  0  0  0  0
   -7.0740   19.9590  -32.4550 C   0  0  0  0  0  0  0  0  0  0  0  0
   -7.5700   18.7150  -32.6880 C   0  0  0  0  0  0  0  0  0  0  0  0
   -6.8360   17.7990  -33.4450 C   0  0  0  0  0  0  0  0  0  0  0  0
   -5.5790   18.1960  -33.9450 C   0  0  0  0  0  0  0  0  0  0  0  0
   -5.0770   19.4930  -33.6880 C   0  0  0  0  0  0  0  0  0  0  0  0
   -5.8470   20.4080  -32.9360 C   0  0  0  0  0  0  0  0  0  0  0  0
   -8.8920   18.5460  -32.0080 C   0  0  0  0  0  0  0  0  0  0  0  0
   -9.1130   19.9130  -31.2990 C   0  0  0  0  0  0  0  0  0  0  0  0
   -3.3630   24.4473  -27.2889 H   0  0  0  0  0  0  0  0  0  0  0  0
   -2.5710   24.0046  -28.8392 H   0  0  0  0  0  0  0  0  0  0  0  0
   -4.2476   24.6493  -28.8392 H   0  0  0  0  0  0  0  0  0  0  0  0
   -4.1988   22.3758  -27.0957 H   0  0  0  0  0  0  0  0  0  0  0  0
   -5.0198   22.5800  -28.7246 H   0  0  0  0  0  0  0  0  0  0  0  0
   -3.8900   20.7820  -28.9720 H   0  0  0  0  0  0  0  0  0  0  0  0
   -1.3172   20.7363  -28.2972 H   0  0  0  0  0  0  0  0  0  0  0  0
   -2.1732   21.6948  -26.9652 H   0  0  0  0  0  0  0  0  0  0  0  0
   -2.6693   19.7830  -25.9887 H   0  0  0  0  0  0  0  0  0  0  0  0
   -3.7481   19.4220  -27.3788 H   0  0  0  0  0  0  0  0  0  0  0  0
   -2.0534   18.8266  -27.3788 H   0  0  0  0  0  0  0  0  0  0  0  0
   -2.9255   23.0048  -30.2732 H   0  0  0  0  0  0  0  0  0  0  0  0
   -1.5227   21.8709  -29.9720 H   0  0  0  0  0  0  0  0  0  0  0  0
   -2.4119   20.1858  -31.2664 H   0  0  0  0  0  0  0  0  0  0  0  0
   -4.1106   20.8599  -31.1146 H   0  0  0  0  0  0  0  0  0  0  0  0
   -2.2155   22.6078  -32.5572 H   0  0  0  0  0  0  0  0  0  0  0  0
   -2.5650   21.0269  -33.3628 H   0  0  0  0  0  0  0  0  0  0  0  0
   -4.2520   22.8230  -33.9760 H   0  0  0  0  0  0  0  0  0  0  0  0
   -8.1686   22.5858  -30.6265 H   0  0  0  0  0  0  0  0  0  0  0  0
   -7.2294   16.7917  -33.6463 H   0  0  0  0  0  0  0  0  0  0  0  0
   -4.9825   17.4897  -34.5411 H   0  0  0  0  0  0  0  0  0  0  0  0
   -4.0897   19.7885  -34.0726 H   0  0  0  0  0  0  0  0  0  0  0  0
   -9.6887   18.3497  -32.7406 H   0  0  0  0  0  0  0  0  0  0  0  0
   -8.9100   17.6944  -31.3119 H   0  0  0  0  0  0  0  0  0  0  0  0
  -10.0234   20.4060  -31.6706 H   0  0  0  0  0  0  0  0  0  0  0  0
   -9.2492   19.8147  -30.2119 H   0  0  0  0  0  0  0  0  0  0  0  0
  1  2  1  0
  2  3  1  0
  3  4  1  0
  4  5  1  0
  3  6  1  0
  6  7  1  0
  7  8  1  0
  8  9  1  0
  9 10  1  0
 10 11  2  0
 11 12  1  0
 11 13  1  0
 13 14  2  0
 14 15  1  0
 15 16  2  0
 16 17  1  0
 17 18  2  0
 18 19  1  0
 19 20  2  0
 16 21  1  0
 21 22  1  0
 20 10  1  0
 22 14  1  0
 20 15  1  0
  1 23  1  0
  1 24  1  0
  1 25  1  0
  2 26  1  0
  2 27  1  0
  3 28  1  0
  4 29  1  0
  4 30  1  0
  5 31  1  0
  5 32  1  0
  5 33  1  0
  6 34  1  0
  6 35  1  0
  7 36  1  0
  7 37  1  0
  8 38  1  0
  8 39  1  0
  9 40  1  0
 13 41  1  0
 17 42  1  0
 18 43  1  0
 19 44  1  0
 21 45  1  0
 21 46  1  0
 22 47  1  0
 22 48  1  0
M  CHG  1   3   1
M  END
>  <UniqueID>  (43) 
42

>  <SMILES>  (43) 
CC[NH+](CC)CCCNc1c(Br)cc2c3c(cccc13)CC2

>  <Energy>  (43) 
85.86552795684908

>  <Genealogy>  (43) 
CC[NH+](CC)CCCNc1c(Br)cc2c3c(cccc13)CC2 (protonated)
CC[NH+](CC)CCCNc1c(Br)cc2c3c(cccc13)CC2 (3D coordinates assigned)
CC[NH+](CC)CCCNc1c(Br)cc2c3c(cccc13)CC2 (nonaromatic ring conformer: 85.86552795684908 kcal/mol)

>  <smiles>  (43) 
CCN(CC)CCCNc1c(Br)cc2c3c(cccc13)CC2

>  <score_type>  (43) 
oracle

>  <origin>  (43) 
adg

>  <m_score__min__energy>  (43) 
-7.6600000000000001

>  <m_primary>  (43) 
energy

$$$$
43:0
     RDKit          3D

 56 60  0  0  0  0  0  0  0  0999 V2000
   -1.3570   22.0920  -30.8330 C   0  0  0  0  0  0  0  0  0  0  0  0
   -1.8660   20.6820  -31.1490 C   0  0  0  0  0  0  0  0  0  0  0  0
   -1.2430   20.0570  -32.3400 N   0  0  0  0  0  0  0  0  0  0  0  0
   -0.1370   20.8430  -32.9410 C   0  0  0  0  0  0  0  0  0  0  0  0
   -0.4840   21.5150  -34.2800 C   0  0  0  0  0  0  0  0  0  0  0  0
   -1.0030   18.5980  -32.2590 C   0  0  0  0  0  0  0  0  0  0  0  0
   -1.6200   17.8540  -33.4540 C   0  0  0  0  0  0  0  0  0  0  0  0
   -2.3810   18.7770  -34.3110 N   0  0  0  0  0  0  0  0  0  0  0  0
   -3.7410   18.9130  -33.8280 C   0  0  0  0  0  0  0  0  0  0  0  0
   -4.1240   20.1150  -33.2360 C   0  0  0  0  0  0  0  0  0  0  0  0
   -5.4400   20.3330  -32.7880 C   0  0  0  0  0  0  0  0  0  0  0  0
   -5.8120   21.5790  -32.1880 C   0  0  0  0  0  0  0  0  0  0  0  0
   -4.8710   22.5870  -31.8200 C   0  0  0  0  0  0  0  0  0  0  0  0
   -5.3440   23.7690  -31.2600 C   0  0  0  0  0  0  0  0  0  0  0  0
   -6.6610   23.9890  -31.0450 C   0  0  0  0  0  0  0  0  0  0  0  0
   -7.6230   23.0430  -31.3630 C   0  0  0  0  0  0  0  0  0  0  0  0
   -7.1940   21.8230  -31.9300 C   0  0  0  0  0  0  0  0  0  0  0  0
   -8.1300   20.8530  -32.2500 C   0  0  0  0  0  0  0  0  0  0  0  0
   -7.7180   19.6320  -32.7660 C   0  0  0  0  0  0  0  0  0  0  0  0
   -6.3900   19.3380  -32.9780 N   0  0  0  0  0  0  0  0  0  0  0  0
   -6.0030   18.0750  -33.4110 C   0  0  0  0  0  0  0  0  0  0  0  0
   -6.8840   16.9570  -33.3710 C   0  0  0  0  0  0  0  0  0  0  0  0
   -6.4900   15.7050  -33.8410 C   0  0  0  0  0  0  0  0  0  0  0  0
   -5.2100   15.5160  -34.3380 C   0  0  0  0  0  0  0  0  0  0  0  0
   -4.3020   16.5700  -34.3440 C   0  0  0  0  0  0  0  0  0  0  0  0
   -4.6710   17.8510  -33.8730 C   0  0  0  0  0  0  0  0  0  0  0  0
   -6.8360   25.2370  -30.4800 O   0  0  0  0  0  0  0  0  0  0  0  0
   -5.5430   25.8380  -30.3290 C   0  0  0  0  0  0  0  0  0  0  0  0
   -4.6190   24.8670  -30.8380 O   0  0  0  0  0  0  0  0  0  0  0  0
   -1.3078   22.2283  -29.7426 H   0  0  0  0  0  0  0  0  0  0  0  0
   -0.3541   22.2251  -31.2648 H   0  0  0  0  0  0  0  0  0  0  0  0
   -2.0436   22.8350  -31.2648 H   0  0  0  0  0  0  0  0  0  0  0  0
   -1.6636   20.0404  -30.2787 H   0  0  0  0  0  0  0  0  0  0  0  0
   -2.9390   20.7788  -31.3713 H   0  0  0  0  0  0  0  0  0  0  0  0
    0.1528   21.6286  -32.2277 H   0  0  0  0  0  0  0  0  0  0  0  0
    0.6743   20.1303  -33.1506 H   0  0  0  0  0  0  0  0  0  0  0  0
   -0.9810   22.4776  -34.0892 H   0  0  0  0  0  0  0  0  0  0  0  0
    0.4385   21.6861  -34.8543 H   0  0  0  0  0  0  0  0  0  0  0  0
   -1.1576   20.8620  -34.8543 H   0  0  0  0  0  0  0  0  0  0  0  0
    0.0816   18.4151  -32.2465 H   0  0  0  0  0  0  0  0  0  0  0  0
   -1.4762   18.2228  -31.3396 H   0  0  0  0  0  0  0  0  0  0  0  0
   -0.8153   17.3935  -34.0460 H   0  0  0  0  0  0  0  0  0  0  0  0
   -2.3054   17.0830  -33.0722 H   0  0  0  0  0  0  0  0  0  0  0  0
   -1.9080   19.7130  -34.3000 H   0  0  0  0  0  0  0  0  0  0  0  0
   -2.3670   18.4680  -35.3080 H   0  0  0  0  0  0  0  0  0  0  0  0
   -3.3780   20.9144  -33.1158 H   0  0  0  0  0  0  0  0  0  0  0  0
   -3.7932   22.4322  -31.9761 H   0  0  0  0  0  0  0  0  0  0  0  0
   -8.6900   23.2371  -31.1789 H   0  0  0  0  0  0  0  0  0  0  0  0
   -9.2009   21.0507  -32.0950 H   0  0  0  0  0  0  0  0  0  0  0  0
   -8.4769   18.8752  -33.0134 H   0  0  0  0  0  0  0  0  0  0  0  0
   -7.8967   17.0839  -32.9607 H   0  0  0  0  0  0  0  0  0  0  0  0
   -7.1980   14.8635  -33.8173 H   0  0  0  0  0  0  0  0  0  0  0  0
   -4.9118   14.5317  -34.7281 H   0  0  0  0  0  0  0  0  0  0  0  0
   -3.2819   16.4043  -34.7208 H   0  0  0  0  0  0  0  0  0  0  0  0
   -5.4807   26.7712  -30.9080 H   0  0  0  0  0  0  0  0  0  0  0  0
   -5.3301   26.1011  -29.2824 H   0  0  0  0  0  0  0  0  0  0  0  0
  1  2  1  0
  2  3  1  0
  3  4  1  0
  4  5  1  0
  3  6  1  0
  6  7  1  0
  7  8  1  0
  8  9  1  0
  9 10  2  0
 10 11  1  0
 11 12  2  0
 12 13  1  0
 13 14  2  0
 14 15  1  0
 15 16  2  0
 16 17  1  0
 17 18  2  0
 18 19  1  0
 19 20  2  0
 20 21  1  0
 21 22  2  0
 22 23  1  0
 23 24  2  0
 24 25  1  0
 25 26  2  0
 15 27  1  0
 27 28  1  0
 28 29  1  0
 26  9  1  0
 20 11  1  0
 26 21  1  0
 17 12  1  0
 29 14  1  0
  1 30  1  0
  1 31  1  0
  1 32  1  0
  2 33  1  0
  2 34  1  0
  4 35  1  0
  4 36  1  0
  5 37  1  0
  5 38  1  0
  5 39  1  0
  6 40  1  0
  6 41  1  0
  7 42  1  0
  7 43  1  0
  8 44  1  0
  8 45  1  0
 10 46  1  0
 13 47  1  0
 16 48  1  0
 18 49  1  0
 19 50  1  0
 22 51  1  0
 23 52  1  0
 24 53  1  0
 25 54  1  0
 28 55  1  0
 28 56  1  0
M  CHG  2   8   1  20   1
M  END
>  <UniqueID>  (44) 
43

>  <SMILES>  (44) 
CCN(CC)CC[NH2+]c1cc2c3cc4c(cc3cc[n+]2c2ccccc12)OCO4

>  <Energy>  (44) 
123.28321177072166

>  <Genealogy>  (44) 
CCN(CC)CC[NH2+]c1cc2c3cc4c(cc3cc[n+]2c2ccccc12)OCO4 (protonated)
CCN(CC)CC[NH2+]c1cc2c3cc4c(cc3cc[n+]2c2ccccc12)OCO4 (3D coordinates assigned)
CCN(CC)CC[NH2+]c1cc2c3cc4c(cc3cc[n+]2c2ccccc12)OCO4 (nonaromatic ring conformer: 123.28321177072166 kcal/mol)

>  <smiles>  (44) 
CCN(CC)CCNc1cc2c3cc4c(cc3cc[n+]2c2ccccc12)OCO4

>  <score_type>  (44) 
oracle

>  <origin>  (44) 
adg

>  <m_score__min__energy>  (44) 
-7.7699999999999996

>  <m_primary>  (44) 
energy

$$$$
44:0
     RDKit          3D

 45 46  0  0  0  0  0  0  0  0999 V2000
   -5.2930   25.6730  -30.5260 C   0  0  0  0  0  0  0  0  0  0  0  0
   -3.9150   25.3180  -30.4870 O   0  0  0  0  0  0  0  0  0  0  0  0
   -3.4310   24.0660  -30.0820 C   0  0  0  0  0  0  0  0  0  0  0  0
   -2.7420   23.9820  -28.8670 C   0  0  0  0  0  0  0  0  0  0  0  0
   -2.2470   22.7560  -28.4160 C   0  0  0  0  0  0  0  0  0  0  0  0
   -2.4290   21.6000  -29.1780 C   0  0  0  0  0  0  0  0  0  0  0  0
   -1.9520   20.4180  -28.7130 F   0  0  0  0  0  0  0  0  0  0  0  0
   -3.1060   21.6640  -30.4110 C   0  0  0  0  0  0  0  0  0  0  0  0
   -3.3250   20.4710  -31.1930 N   0  0  0  0  0  0  0  0  0  0  0  0
   -3.1210   20.7610  -32.6200 C   0  0  0  0  0  0  0  0  0  0  0  0
   -4.4570   20.8750  -33.3580 C   0  0  0  0  0  0  0  0  0  0  0  0
   -5.5010   21.1400  -32.4240 O   0  0  0  0  0  0  0  0  0  0  0  0
   -6.6970   20.4120  -32.3260 C   0  0  0  0  0  0  0  0  0  0  0  0
   -6.7780   19.0710  -32.7530 C   0  0  0  0  0  0  0  0  0  0  0  0
   -7.9770   18.3650  -32.6490 C   0  0  0  0  0  0  0  0  0  0  0  0
   -9.1090   18.9830  -32.1230 C   0  0  0  0  0  0  0  0  0  0  0  0
   -9.0470   20.3110  -31.6970 C   0  0  0  0  0  0  0  0  0  0  0  0
   -7.8460   21.0420  -31.7900 C   0  0  0  0  0  0  0  0  0  0  0  0
   -7.7990   22.4910  -31.3230 C   0  0  0  0  0  0  0  0  0  0  0  0
   -6.9860   22.6290  -30.0320 C   0  0  0  0  0  0  0  0  0  0  0  0
   -7.2510   23.4100  -32.4220 C   0  0  0  0  0  0  0  0  0  0  0  0
   -3.6140   22.9000  -30.8510 C   0  0  0  0  0  0  0  0  0  0  0  0
   -5.6755   25.7715  -29.4993 H   0  0  0  0  0  0  0  0  0  0  0  0
   -5.4101   26.6306  -31.0544 H   0  0  0  0  0  0  0  0  0  0  0  0
   -5.8582   24.8911  -31.0544 H   0  0  0  0  0  0  0  0  0  0  0  0
   -2.5890   24.8882  -28.2625 H   0  0  0  0  0  0  0  0  0  0  0  0
   -1.7116   22.7010  -27.4566 H   0  0  0  0  0  0  0  0  0  0  0  0
   -2.6620   19.7230  -30.8820 H   0  0  0  0  0  0  0  0  0  0  0  0
   -4.2980   20.1170  -31.0380 H   0  0  0  0  0  0  0  0  0  0  0  0
   -2.5744   21.7105  -32.7186 H   0  0  0  0  0  0  0  0  0  0  0  0
   -2.5467   19.9349  -33.0647 H   0  0  0  0  0  0  0  0  0  0  0  0
   -4.4025   21.6960  -34.0881 H   0  0  0  0  0  0  0  0  0  0  0  0
   -4.6666   19.9297  -33.8800 H   0  0  0  0  0  0  0  0  0  0  0  0
   -5.8887   18.5771  -33.1716 H   0  0  0  0  0  0  0  0  0  0  0  0
   -8.0284   17.3182  -32.9831 H   0  0  0  0  0  0  0  0  0  0  0  0
  -10.0530   18.4240  -32.0432 H   0  0  0  0  0  0  0  0  0  0  0  0
   -9.9459   20.7922  -31.2841 H   0  0  0  0  0  0  0  0  0  0  0  0
   -8.8302   22.8063  -31.1060 H   0  0  0  0  0  0  0  0  0  0  0  0
   -7.6531   22.5158  -29.1647 H   0  0  0  0  0  0  0  0  0  0  0  0
   -6.2103   21.8497  -30.0021 H   0  0  0  0  0  0  0  0  0  0  0  0
   -6.5109   23.6206  -30.0021 H   0  0  0  0  0  0  0  0  0  0  0  0
   -6.7394   24.2679  -31.9613 H   0  0  0  0  0  0  0  0  0  0  0  0
   -6.5389   22.8506  -33.0464 H   0  0  0  0  0  0  0  0  0  0  0  0
   -8.0817   23.7706  -33.0464 H   0  0  0  0  0  0  0  0  0  0  0  0
   -4.1593   22.9564  -31.8047 H   0  0  0  0  0  0  0  0  0  0  0  0
  1  2  1  0
  2  3  1  0
  3  4  2  0
  4  5  1  0
  5  6  2  0
  6  7  1  0
  6  8  1  0
  8  9  1  0
  9 10  1  0
 10 11  1  0
 11 12  1  0
 12 13  1  0
 13 14  2  0
 14 15  1  0
 15 16  2  0
 16 17  1  0
 17 18  2  0
 18 19  1  0
 19 20  1  0
 19 21  1  0
  8 22  2  0
 22  3  1  0
 18 13  1  0
  1 23  1  0
  1 24  1  0
  1 25  1  0
  4 26  1  0
  5 27  1  0
  9 28  1  0
  9 29  1  0
 10 30  1  0
 10 31  1  0
 11 32  1  0
 11 33  1  0
 14 34  1  0
 15 35  1  0
 16 36  1  0
 17 37  1  0
 19 38  1  0
 20 39  1  0
 20 40  1  0
 20 41  1  0
 21 42  1  0
 21 43  1  0
 21 44  1  0
 22 45  1  0
M  CHG  1   9   1
M  END
>  <UniqueID>  (45) 
44

>  <SMILES>  (45) 
COc1ccc(F)c([NH2+]CCOc2ccccc2C(C)C)c1

>  <Energy>  (45) 
39.76689122032293

>  <Genealogy>  (45) 
COc1ccc(F)c([NH2+]CCOc2ccccc2C(C)C)c1 (protonated)
COc1ccc(F)c([NH2+]CCOc2ccccc2C(C)C)c1 (3D coordinates assigned)
COc1ccc(F)c([NH2+]CCOc2ccccc2C(C)C)c1 (optimized conformer: 39.76689122032293 kcal/mol)

>  <smiles>  (45) 
COc1ccc(F)c(NCCOc2ccccc2C(C)C)c1

>  <score_type>  (45) 
oracle

>  <origin>  (45) 
adg

>  <m_score__min__energy>  (45) 
-7.0800000000000001

>  <m_primary>  (45) 
energy

$$$$
