0:0
     RDKit          3D

 70 73  0  0  0  0  0  0  0  0999 V2000
   -5.8090   25.0250  -29.5080 C   0  0  0  0  0  0  0  0  0  0  0  0
   -5.0790   25.1470  -30.8370 C   0  0  0  0  0  0  0  0  0  0  0  0
   -3.8440   24.4670  -30.7510 O   0  0  0  0  0  0  0  0  0  0  0  0
   -3.3240   24.5490  -29.4350 C   0  0  0  0  0  0  0  0  0  0  0  0
   -2.0050   23.7760  -29.3370 C   0  0  0  0  0  0  0  0  0  0  0  0
   -1.9690   22.7520  -30.3140 O   0  0  0  0  0  0  0  0  0  0  0  0
   -2.2580   21.5010  -29.7220 C   0  0  0  0  0  0  0  0  0  0  0  0
   -3.5590   20.9420  -30.3170 C   0  0  0  0  0  0  0  0  0  0  0  0
   -4.2390   21.8990  -31.2130 N   0  0  0  0  0  0  0  0  0  0  0  0
   -5.1570   21.2360  -32.1410 C   0  0  0  0  0  0  0  0  0  0  0  0
   -6.5380   21.5090  -32.0660 C   0  0  0  0  0  0  0  0  0  0  0  0
   -7.0080   22.8120  -31.8050 C   0  0  0  0  0  0  0  0  0  0  0  0
   -8.3690   23.0790  -31.7160 C   0  0  0  0  0  0  0  0  0  0  0  0
   -9.2860   22.0520  -31.8940 C   0  0  0  0  0  0  0  0  0  0  0  0
   -8.8470   20.7700  -32.2150 C   0  0  0  0  0  0  0  0  0  0  0  0
   -7.4640   20.4650  -32.3150 C   0  0  0  0  0  0  0  0  0  0  0  0
   -7.0050   19.2040  -32.6570 N   0  0  0  0  0  0  0  0  0  0  0  0
   -7.9230   18.0380  -32.6810 C   0  0  0  0  0  0  0  0  0  0  0  0
   -5.6870   19.0420  -33.0540 C   0  0  0  0  0  0  0  0  0  0  0  0
   -5.2350   17.8390  -33.6560 C   0  0  0  0  0  0  0  0  0  0  0  0
   -3.9260   17.7120  -34.1120 C   0  0  0  0  0  0  0  0  0  0  0  0
   -3.0490   18.7840  -34.0440 C   0  0  0  0  0  0  0  0  0  0  0  0
   -3.4510   19.9970  -33.4660 C   0  0  0  0  0  0  0  0  0  0  0  0
   -2.6670   21.1840  -33.7080 N   0  0  0  0  0  0  0  0  0  0  0  0
   -1.4550   21.5420  -32.9660 C   0  0  0  0  0  0  0  0  0  0  0  0
   -0.5500   20.3080  -32.8400 C   0  0  0  0  0  0  0  0  0  0  0  0
    0.4990   20.3110  -33.8780 N   0  0  0  0  0  0  0  0  0  0  0  0
    0.5140   21.5780  -34.6370 C   0  0  0  0  0  0  0  0  0  0  0  0
    0.2790   21.2580  -36.1060 C   0  0  0  0  0  0  0  0  0  0  0  0
    0.6340   19.7990  -36.2330 C   0  0  0  0  0  0  0  0  0  0  0  0
    0.3260   19.2260  -34.8640 C   0  0  0  0  0  0  0  0  0  0  0  0
   -4.7490   20.1020  -32.8840 C   0  0  0  0  0  0  0  0  0  0  0  0
   -5.0913   25.1449  -28.6831 H   0  0  0  0  0  0  0  0  0  0  0  0
   -6.5798   25.8068  -29.4400 H   0  0  0  0  0  0  0  0  0  0  0  0
   -6.2837   24.0351  -29.4400 H   0  0  0  0  0  0  0  0  0  0  0  0
   -5.6903   24.7006  -31.6352 H   0  0  0  0  0  0  0  0  0  0  0  0
   -4.9021   26.2082  -31.0662 H   0  0  0  0  0  0  0  0  0  0  0  0
   -3.1464   25.6041  -29.1798 H   0  0  0  0  0  0  0  0  0  0  0  0
   -4.0498   24.1097  -28.7348 H   0  0  0  0  0  0  0  0  0  0  0  0
   -1.1650   24.4667  -29.5024 H   0  0  0  0  0  0  0  0  0  0  0  0
   -1.9255   23.3237  -28.3374 H   0  0  0  0  0  0  0  0  0  0  0  0
   -1.4330   20.8014  -29.9218 H   0  0  0  0  0  0  0  0  0  0  0  0
   -2.3761   21.6277  -28.6357 H   0  0  0  0  0  0  0  0  0  0  0  0
   -3.3211   20.0334  -30.8895 H   0  0  0  0  0  0  0  0  0  0  0  0
   -4.2411   20.7316  -29.4800 H   0  0  0  0  0  0  0  0  0  0  0  0
   -4.7330   22.5800  -30.6030 H   0  0  0  0  0  0  0  0  0  0  0  0
   -3.5150   22.4550  -31.7150 H   0  0  0  0  0  0  0  0  0  0  0  0
   -6.2859   23.6307  -31.6696 H   0  0  0  0  0  0  0  0  0  0  0  0
   -8.7184   24.1005  -31.5053 H   0  0  0  0  0  0  0  0  0  0  0  0
  -10.3619   22.2514  -31.7812 H   0  0  0  0  0  0  0  0  0  0  0  0
   -9.5875   19.9768  -32.3949 H   0  0  0  0  0  0  0  0  0  0  0  0
   -8.1602   17.7368  -31.6500 H   0  0  0  0  0  0  0  0  0  0  0  0
   -8.8503   18.3121  -33.2054 H   0  0  0  0  0  0  0  0  0  0  0  0
   -7.4389   17.2009  -33.2054 H   0  0  0  0  0  0  0  0  0  0  0  0
   -5.9302   16.9934  -33.7640 H   0  0  0  0  0  0  0  0  0  0  0  0
   -3.5844   16.7534  -34.5297 H   0  0  0  0  0  0  0  0  0  0  0  0
   -2.0303   18.6822  -34.4464 H   0  0  0  0  0  0  0  0  0  0  0  0
   -2.8880   21.7560  -34.5500 H   0  0  0  0  0  0  0  0  0  0  0  0
   -0.9177   22.3377  -33.5029 H   0  0  0  0  0  0  0  0  0  0  0  0
   -1.7308   21.8990  -31.9627 H   0  0  0  0  0  0  0  0  0  0  0  0
   -0.0742   20.3110  -31.8482 H   0  0  0  0  0  0  0  0  0  0  0  0
   -1.1674   19.4069  -32.9695 H   0  0  0  0  0  0  0  0  0  0  0  0
   -0.2824   22.2415  -34.2689 H   0  0  0  0  0  0  0  0  0  0  0  0
    1.4821   22.0845  -34.5097 H   0  0  0  0  0  0  0  0  0  0  0  0
   -0.7733   21.4277  -36.3779 H   0  0  0  0  0  0  0  0  0  0  0  0
    0.8767   21.8948  -36.7747 H   0  0  0  0  0  0  0  0  0  0  0  0
    0.0214   19.3135  -37.0069 H   0  0  0  0  0  0  0  0  0  0  0  0
    1.6811   19.6426  -36.5316 H   0  0  0  0  0  0  0  0  0  0  0  0
   -0.7094   18.8555  -34.8365 H   0  0  0  0  0  0  0  0  0  0  0  0
    0.9982   18.3856  -34.6363 H   0  0  0  0  0  0  0  0  0  0  0  0
  1  2  1  0
  2  3  1  0
  3  4  1  0
  4  5  1  0
  5  6  1  0
  6  7  1  0
  7  8  1  0
  8  9  1  0
  9 10  1  0
 10 11  2  0
 11 12  1  0
 12 13  2  0
 13 14  1  0
 14 15  2  0
 15 16  1  0
 16 17  2  0
 17 18  1  0
 17 19  1  0
 19 20  2  0
 20 21  1  0
 21 22  2  0
 22 23  1  0
 23 24  1  0
 24 25  1  0
 25 26  1  0
 26 27  1  0
 27 28  1  0
 28 29  1  0
 29 30  1  0
 30 31  1  0
 23 32  2  0
 32 10  1  0
 16 11  1  0
 32 19  1  0
 31 27  1  0
  1 33  1  0
  1 34  1  0
  1 35  1  0
  2 36  1  0
  2 37  1  0
  4 38  1  0
  4 39  1  0
  5 40  1  0
  5 41  1  0
  7 42  1  0
  7 43  1  0
  8 44  1  0
  8 45  1  0
  9 46  1  0
  9 47  1  0
 12 48  1  0
 13 49  1  0
 14 50  1  0
 15 51  1  0
 18 52  1  0
 18 53  1  0
 18 54  1  0
 20 55  1  0
 21 56  1  0
 22 57  1  0
 24 58  1  0
 25 59  1  0
 25 60  1  0
 26 61  1  0
 26 62  1  0
 28 63  1  0
 28 64  1  0
 29 65  1  0
 29 66  1  0
 30 67  1  0
 30 68  1  0
 31 69  1  0
 31 70  1  0
M  CHG  2   9   1  17   1
M  END
>  <UniqueID>  (1) 
1

>  <SMILES>  (1) 
CCOCCOCC[NH2+]c1c2ccccc2[n+](C)c2cccc(NCCN3CCCC3)c12

>  <Energy>  (1) 
117.5882855378167

>  <Genealogy>  (1) 
CCOCCOCC[NH2+]c1c2ccccc2[n+](C)c2cccc(NCCN3CCCC3)c12 (protonated)
CCOCCOCC[NH2+]c1c2ccccc2[n+](C)c2cccc(NCCN3CCCC3)c12 (3D coordinates assigned)
CCOCCOCC[NH2+]c1c2ccccc2[n+](C)c2cccc(NCCN3CCCC3)c12 (nonaromatic ring conformer: 117.5882855378167 kcal/mol)

>  <smiles>  (1) 
CCOCCOCCNc1c2ccccc2[n+](C)c2cccc(NCCN3CCCC3)c12

>  <score_type>  (1) 
oracle

>  <origin>  (1) 
adg

>  <m_score__min__energy>  (1) 
-7.6900000000000004

>  <m_primary>  (1) 
energy

$$$$
1:0
     RDKit          3D

 53 55  0  0  0  0  0  0  0  0999 V2000
   -6.2050   25.3990  -29.6650 C   0  0  0  0  0  0  0  0  0  0  0  0
   -5.2120   25.5740  -30.7620 C   0  0  0  0  0  0  0  0  0  0  0  0
   -3.9100   25.1220  -30.4670 O   0  0  0  0  0  0  0  0  0  0  0  0
   -3.6140   24.0370  -29.6700 C   0  0  0  0  0  0  0  0  0  0  0  0
   -3.5390   24.1750  -28.2810 C   0  0  0  0  0  0  0  0  0  0  0  0
   -3.2410   23.1000  -27.4590 C   0  0  0  0  0  0  0  0  0  0  0  0
   -3.0170   21.8830  -28.0190 C   0  0  0  0  0  0  0  0  0  0  0  0
   -3.0860   21.7280  -29.3860 C   0  0  0  0  0  0  0  0  0  0  0  0
   -3.3830   22.7830  -30.2460 C   0  0  0  0  0  0  0  0  0  0  0  0
   -3.4560   22.5780  -31.7150 C   0  0  0  0  0  0  0  0  0  0  0  0
   -2.5470   21.5310  -32.2520 C   0  0  0  0  0  0  0  0  0  0  0  0
   -3.1240   20.9760  -33.4580 N   0  0  0  0  0  0  0  0  0  0  0  0
   -2.6490   19.6810  -33.8150 C   0  0  0  0  0  0  0  0  0  0  0  0
   -3.8450   18.8200  -34.2060 C   0  0  0  0  0  0  0  0  0  0  0  0
   -3.8570   17.5830  -33.3240 C   0  0  0  0  0  0  0  0  0  0  0  0
   -4.9150   17.5700  -32.3620 N   0  0  0  0  0  0  0  0  0  0  0  0
   -5.9390   18.5330  -32.2300 C   0  0  0  0  0  0  0  0  0  0  0  0
   -7.2740   18.1080  -32.1490 C   0  0  0  0  0  0  0  0  0  0  0  0
   -8.3140   19.0150  -32.0410 C   0  0  0  0  0  0  0  0  0  0  0  0
   -9.5140   18.6280  -31.9680 O   0  0  0  0  0  0  0  0  0  0  0  0
   -8.0640   20.3780  -32.0090 C   0  0  0  0  0  0  0  0  0  0  0  0
   -9.0880   21.3070  -31.9030 C   0  0  0  0  0  0  0  0  0  0  0  0
   -8.7790   22.6660  -31.8780 C   0  0  0  0  0  0  0  0  0  0  0  0
   -7.4300   23.0180  -31.9630 C   0  0  0  0  0  0  0  0  0  0  0  0
   -6.4660   22.0800  -32.0650 N   0  0  0  0  0  0  0  0  0  0  0  0
   -6.7420   20.7570  -32.0910 C   0  0  0  0  0  0  0  0  0  0  0  0
   -5.7290   19.8570  -32.1970 N   0  0  0  0  0  0  0  0  0  0  0  0
   -5.6974   25.4885  -28.6932 H   0  0  0  0  0  0  0  0  0  0  0  0
   -6.9812   26.1742  -29.7460 H   0  0  0  0  0  0  0  0  0  0  0  0
   -6.6695   24.4052  -29.7460 H   0  0  0  0  0  0  0  0  0  0  0  0
   -5.5740   25.0205  -31.6410 H   0  0  0  0  0  0  0  0  0  0  0  0
   -5.1294   26.6578  -30.9307 H   0  0  0  0  0  0  0  0  0  0  0  0
   -3.7210   25.1613  -27.8293 H   0  0  0  0  0  0  0  0  0  0  0  0
   -3.1866   23.2304  -26.3681 H   0  0  0  0  0  0  0  0  0  0  0  0
   -2.7801   21.0197  -27.3798 H   0  0  0  0  0  0  0  0  0  0  0  0
   -2.8993   20.7326  -29.8153 H   0  0  0  0  0  0  0  0  0  0  0  0
   -4.4884   22.2956  -31.9687 H   0  0  0  0  0  0  0  0  0  0  0  0
   -3.1358   23.5256  -32.1727 H   0  0  0  0  0  0  0  0  0  0  0  0
   -1.5681   21.9763  -32.4832 H   0  0  0  0  0  0  0  0  0  0  0  0
   -2.4154   20.7353  -31.5040 H   0  0  0  0  0  0  0  0  0  0  0  0
   -3.1000   21.6910  -34.1950 H   0  0  0  0  0  0  0  0  0  0  0  0
   -1.9553   19.7611  -34.6649 H   0  0  0  0  0  0  0  0  0  0  0  0
   -2.1177   19.2262  -32.9659 H   0  0  0  0  0  0  0  0  0  0  0  0
   -4.7752   19.3888  -34.0602 H   0  0  0  0  0  0  0  0  0  0  0  0
   -3.7696   18.5280  -35.2639 H   0  0  0  0  0  0  0  0  0  0  0  0
   -3.9638   16.6983  -33.9689 H   0  0  0  0  0  0  0  0  0  0  0  0
   -2.9121   17.5820  -32.7609 H   0  0  0  0  0  0  0  0  0  0  0  0
   -4.9220   16.7500  -31.6830 H   0  0  0  0  0  0  0  0  0  0  0  0
   -7.4987   17.0314  -32.1718 H   0  0  0  0  0  0  0  0  0  0  0  0
  -10.1346   20.9745  -31.8392 H   0  0  0  0  0  0  0  0  0  0  0  0
   -9.5657   23.4303  -31.7947 H   0  0  0  0  0  0  0  0  0  0  0  0
   -7.1482   24.0812  -31.9464 H   0  0  0  0  0  0  0  0  0  0  0  0
   -4.7830   20.2450  -32.2610 H   0  0  0  0  0  0  0  0  0  0  0  0
  1  2  1  0
  2  3  1  0
  3  4  1  0
  4  5  2  0
  5  6  1  0
  6  7  2  0
  7  8  1  0
  8  9  2  0
  9 10  1  0
 10 11  1  0
 11 12  1  0
 12 13  1  0
 13 14  1  0
 14 15  1  0
 15 16  1  0
 16 17  1  0
 17 18  2  0
 18 19  1  0
 19 20  2  0
 19 21  1  0
 21 22  2  0
 22 23  1  0
 23 24  2  0
 24 25  1  0
 25 26  2  0
 26 27  1  0
  9  4  1  0
 27 17  1  0
 26 21  1  0
  1 28  1  0
  1 29  1  0
  1 30  1  0
  2 31  1  0
  2 32  1  0
  5 33  1  0
  6 34  1  0
  7 35  1  0
  8 36  1  0
 10 37  1  0
 10 38  1  0
 11 39  1  0
 11 40  1  0
 12 41  1  0
 13 42  1  0
 13 43  1  0
 14 44  1  0
 14 45  1  0
 15 46  1  0
 15 47  1  0
 16 48  1  0
 18 49  1  0
 22 50  1  0
 23 51  1  0
 24 52  1  0
 27 53  1  0
M  END
>  <smiles>  (2) 
CCOc1ccccc1CCNCCCNc1cc(=O)c2cccnc2[nH]1

>  <score_type>  (2) 
oracle

>  <origin>  (2) 
adg

>  <m_score__min__energy>  (2) 
-8.9100000000000001

>  <m_primary>  (2) 
energy

$$$$
2:0
     RDKit          3D

 55 58  0  0  0  0  0  0  0  0999 V2000
   -3.0260   20.9640  -29.7860 C   0  0  0  0  0  0  0  0  0  0  0  0
   -2.8590   22.4190  -29.9420 N   0  0  0  0  0  0  0  0  0  0  0  0
   -1.4210   22.7410  -29.9820 C   0  0  0  0  0  0  0  0  0  0  0  0
   -3.5360   23.1230  -28.8300 C   0  0  0  0  0  0  0  0  0  0  0  0
   -4.0650   24.5090  -29.2490 C   0  0  0  0  0  0  0  0  0  0  0  0
   -4.1330   24.6900  -30.7090 N   0  0  0  0  0  0  0  0  0  0  0  0
   -5.5100   24.8060  -31.2270 C   0  0  0  0  0  0  0  0  0  0  0  0
   -5.8340   23.7100  -32.2480 C   0  0  0  0  0  0  0  0  0  0  0  0
   -5.0680   22.4970  -31.9570 N   0  0  0  0  0  0  0  0  0  0  0  0
   -5.4500   21.2210  -32.4890 C   0  0  0  0  0  0  0  0  0  0  0  0
   -6.7780   20.7410  -32.3870 C   0  0  0  0  0  0  0  0  0  0  0  0
   -7.7950   21.5470  -31.8370 C   0  0  0  0  0  0  0  0  0  0  0  0
   -9.0910   21.0600  -31.6910 C   0  0  0  0  0  0  0  0  0  0  0  0
   -9.4000   19.7640  -32.0910 C   0  0  0  0  0  0  0  0  0  0  0  0
   -8.4230   18.9530  -32.6680 C   0  0  0  0  0  0  0  0  0  0  0  0
   -7.1010   19.4250  -32.8630 C   0  0  0  0  0  0  0  0  0  0  0  0
   -6.1370   18.6460  -33.4850 N   0  0  0  0  0  0  0  0  0  0  0  0
   -6.4730   17.3320  -34.0650 C   0  0  0  0  0  0  0  0  0  0  0  0
   -4.8540   19.1260  -33.5480 C   0  0  0  0  0  0  0  0  0  0  0  0
   -3.7690   18.4640  -34.0240 N   0  0  0  0  0  0  0  0  0  0  0  0
   -2.7400   19.3200  -33.8760 C   0  0  0  0  0  0  0  0  0  0  0  0
   -1.4090   19.0860  -34.2190 C   0  0  0  0  0  0  0  0  0  0  0  0
   -0.4750   20.1080  -33.9780 C   0  0  0  0  0  0  0  0  0  0  0  0
   -0.8860   21.3300  -33.4060 C   0  0  0  0  0  0  0  0  0  0  0  0
   -2.2330   21.5420  -33.0660 C   0  0  0  0  0  0  0  0  0  0  0  0
   -3.1450   20.5100  -33.3100 C   0  0  0  0  0  0  0  0  0  0  0  0
   -4.5090   20.3840  -33.0880 C   0  0  0  0  0  0  0  0  0  0  0  0
   -3.0550   20.7109  -28.7159 H   0  0  0  0  0  0  0  0  0  0  0  0
   -3.9661   20.6496  -30.2628 H   0  0  0  0  0  0  0  0  0  0  0  0
   -2.1816   20.4448  -30.2628 H   0  0  0  0  0  0  0  0  0  0  0  0
   -1.0359   22.8272  -28.9552 H   0  0  0  0  0  0  0  0  0  0  0  0
   -0.8808   21.9416  -30.5103 H   0  0  0  0  0  0  0  0  0  0  0  0
   -1.2733   23.6945  -30.5103 H   0  0  0  0  0  0  0  0  0  0  0  0
   -4.3828   22.5103  -28.4872 H   0  0  0  0  0  0  0  0  0  0  0  0
   -2.7976   23.2735  -28.0286 H   0  0  0  0  0  0  0  0  0  0  0  0
   -5.0756   24.6370  -28.8339 H   0  0  0  0  0  0  0  0  0  0  0  0
   -3.3592   25.2580  -28.8605 H   0  0  0  0  0  0  0  0  0  0  0  0
   -3.5840   23.9460  -31.1980 H   0  0  0  0  0  0  0  0  0  0  0  0
   -6.2138   24.7265  -30.3854 H   0  0  0  0  0  0  0  0  0  0  0  0
   -5.6019   25.7787  -31.7323 H   0  0  0  0  0  0  0  0  0  0  0  0
   -6.9086   23.4793  -32.2030 H   0  0  0  0  0  0  0  0  0  0  0  0
   -5.5654   24.0684  -33.2527 H   0  0  0  0  0  0  0  0  0  0  0  0
   -4.2980   22.5430  -31.2530 H   0  0  0  0  0  0  0  0  0  0  0  0
   -7.5618   22.5739  -31.5191 H   0  0  0  0  0  0  0  0  0  0  0  0
   -9.8727   21.7016  -31.2582 H   0  0  0  0  0  0  0  0  0  0  0  0
  -10.4201   19.3768  -31.9515 H   0  0  0  0  0  0  0  0  0  0  0  0
   -8.6829   17.9298  -32.9769 H   0  0  0  0  0  0  0  0  0  0  0  0
   -6.6575   16.6103  -33.2556 H   0  0  0  0  0  0  0  0  0  0  0  0
   -7.3762   17.4254  -34.6860 H   0  0  0  0  0  0  0  0  0  0  0  0
   -5.6359   16.9804  -34.6860 H   0  0  0  0  0  0  0  0  0  0  0  0
   -3.6970   17.4920  -34.3960 H   0  0  0  0  0  0  0  0  0  0  0  0
   -1.0991   18.1295  -34.6652 H   0  0  0  0  0  0  0  0  0  0  0  0
    0.5829   19.9540  -34.2370 H   0  0  0  0  0  0  0  0  0  0  0  0
   -0.1462   22.1235  -33.2245 H   0  0  0  0  0  0  0  0  0  0  0  0
   -2.5609   22.4928  -32.6205 H   0  0  0  0  0  0  0  0  0  0  0  0
  1  2  1  0
  2  3  1  0
  2  4  1  0
  4  5  1  0
  5  6  1  0
  6  7  1  0
  7  8  1  0
  8  9  1  0
  9 10  1  0
 10 11  2  0
 11 12  1  0
 12 13  2  0
 13 14  1  0
 14 15  2  0
 15 16  1  0
 16 17  2  0
 17 18  1  0
 17 19  1  0
 19 20  1  0
 20 21  1  0
 21 22  2  0
 22 23  1  0
 23 24  2  0
 24 25  1  0
 25 26  2  0
 26 27  1  0
 27 10  1  0
 16 11  1  0
 27 19  2  0
 26 21  1  0
  1 28  1  0
  1 29  1  0
  1 30  1  0
  3 31  1  0
  3 32  1  0
  3 33  1  0
  4 34  1  0
  4 35  1  0
  5 36  1  0
  5 37  1  0
  6 38  1  0
  7 39  1  0
  7 40  1  0
  8 41  1  0
  8 42  1  0
  9 43  1  0
 12 44  1  0
 13 45  1  0
 14 46  1  0
 15 47  1  0
 18 48  1  0
 18 49  1  0
 18 50  1  0
 20 51  1  0
 22 52  1  0
 23 53  1  0
 24 54  1  0
 25 55  1  0
M  CHG  1  17   1
M  END
>  <UniqueID>  (3) 
2

>  <SMILES>  (3) 
CN(C)CCNCCNc1c2ccccc2[n+](C)c2[nH]c3ccccc3c12

>  <Energy>  (3) 
115.97228007458277

>  <Genealogy>  (3) 
CN(C)CCNCCNc1c2ccccc2[n+](C)c2[nH]c3ccccc3c12 (3D coordinates assigned)
CN(C)CCNCCNc1c2ccccc2[n+](C)c2[nH]c3ccccc3c12 (optimized conformer: 115.97228007458277 kcal/mol)

>  <smiles>  (3) 
CN(C)CCNCCNc1c2ccccc2[n+](C)c2[nH]c3ccccc3c12

>  <score_type>  (3) 
oracle

>  <origin>  (3) 
adg

>  <m_score__min__energy>  (3) 
-8.9000000000000004

>  <m_primary>  (3) 
energy

$$$$
3:0
     RDKit          3D

 69 71  0  0  0  0  0  0  0  0999 V2000
   -2.2950   20.0390  -27.1640 C   0  0  0  0  0  0  0  0  0  0  0  0
   -2.8650   21.2220  -27.9370 C   0  0  0  0  0  0  0  0  0  0  0  0
   -1.8480   21.7220  -28.8940 N   0  0  0  0  0  0  0  0  0  0  0  0
   -1.7990   20.9340  -30.1480 C   0  0  0  0  0  0  0  0  0  0  0  0
   -0.5030   21.1280  -30.9490 C   0  0  0  0  0  0  0  0  0  0  0  0
   -0.5130   21.9150  -28.2880 C   0  0  0  0  0  0  0  0  0  0  0  0
   -0.4030   23.3010  -27.6420 C   0  0  0  0  0  0  0  0  0  0  0  0
   -0.0340   24.2590  -28.6150 O   0  0  0  0  0  0  0  0  0  0  0  0
   -0.9090   25.3690  -28.5800 C   0  0  0  0  0  0  0  0  0  0  0  0
   -2.3290   24.8760  -28.3390 C   0  0  0  0  0  0  0  0  0  0  0  0
   -3.1200   25.1410  -29.4880 O   0  0  0  0  0  0  0  0  0  0  0  0
   -3.1240   24.0560  -30.3310 N   0  0  0  0  0  0  0  0  0  0  0  0
   -4.3950   23.3240  -30.2610 C   0  0  0  0  0  0  0  0  0  0  0  0
   -5.4600   23.9910  -31.1360 C   0  0  0  0  0  0  0  0  0  0  0  0
   -5.6490   23.2440  -32.3770 N   0  0  0  0  0  0  0  0  0  0  0  0
   -5.7520   21.8130  -32.3540 C   0  0  0  0  0  0  0  0  0  0  0  0
   -6.9580   21.2000  -31.9840 C   0  0  0  0  0  0  0  0  0  0  0  0
   -7.0320   19.7940  -31.9350 C   0  0  0  0  0  0  0  0  0  0  0  0
   -5.9060   19.0260  -32.1470 N   0  0  0  0  0  0  0  0  0  0  0  0
   -5.9240   17.5870  -31.8100 C   0  0  0  0  0  0  0  0  0  0  0  0
   -4.7620   19.6060  -32.6610 C   0  0  0  0  0  0  0  0  0  0  0  0
   -3.6710   18.8270  -33.1240 C   0  0  0  0  0  0  0  0  0  0  0  0
   -2.5100   19.4330  -33.6040 C   0  0  0  0  0  0  0  0  0  0  0  0
   -2.4050   20.8190  -33.6430 C   0  0  0  0  0  0  0  0  0  0  0  0
   -1.2710   21.4000  -34.1050 F   0  0  0  0  0  0  0  0  0  0  0  0
   -3.4730   21.6120  -33.2240 C   0  0  0  0  0  0  0  0  0  0  0  0
   -4.6630   21.0210  -32.7510 C   0  0  0  0  0  0  0  0  0  0  0  0
   -8.3900   19.1800  -31.6460 C   0  0  0  0  0  0  0  0  0  0  0  0
   -9.4840   19.9660  -32.3730 C   0  0  0  0  0  0  0  0  0  0  0  0
   -9.5150   21.4470  -31.9600 C   0  0  0  0  0  0  0  0  0  0  0  0
   -8.1490   22.0200  -31.5220 C   0  0  0  0  0  0  0  0  0  0  0  0
   -2.3862   20.2283  -26.0843 H   0  0  0  0  0  0  0  0  0  0  0  0
   -2.8528   19.1275  -27.4249 H   0  0  0  0  0  0  0  0  0  0  0  0
   -1.2345   19.9072  -27.4249 H   0  0  0  0  0  0  0  0  0  0  0  0
   -3.7617   20.9024  -28.4882 H   0  0  0  0  0  0  0  0  0  0  0  0
   -3.1339   22.0245  -27.2344 H   0  0  0  0  0  0  0  0  0  0  0  0
   -1.8930   19.8683  -29.8923 H   0  0  0  0  0  0  0  0  0  0  0  0
   -2.6250   21.2879  -30.7824 H   0  0  0  0  0  0  0  0  0  0  0  0
    0.3413   21.2544  -30.2553 H   0  0  0  0  0  0  0  0  0  0  0  0
   -0.3281   20.2460  -31.5827 H   0  0  0  0  0  0  0  0  0  0  0  0
   -0.5940   22.0225  -31.5827 H   0  0  0  0  0  0  0  0  0  0  0  0
   -0.3513   21.1450  -27.5192 H   0  0  0  0  0  0  0  0  0  0  0  0
    0.2478   21.8332  -29.0782 H   0  0  0  0  0  0  0  0  0  0  0  0
   -1.3745   23.5786  -27.2072 H   0  0  0  0  0  0  0  0  0  0  0  0
    0.3635   23.2727  -26.8535 H   0  0  0  0  0  0  0  0  0  0  0  0
   -0.6114   26.0472  -27.7667 H   0  0  0  0  0  0  0  0  0  0  0  0
   -0.8614   25.9089  -29.5372 H   0  0  0  0  0  0  0  0  0  0  0  0
   -2.3140   23.7933  -28.1452 H   0  0  0  0  0  0  0  0  0  0  0  0
   -2.7568   25.3966  -27.4695 H   0  0  0  0  0  0  0  0  0  0  0  0
   -2.3050   23.4210  -30.1750 H   0  0  0  0  0  0  0  0  0  0  0  0
   -4.2363   22.2930  -30.6102 H   0  0  0  0  0  0  0  0  0  0  0  0
   -4.7450   23.3275  -29.2182 H   0  0  0  0  0  0  0  0  0  0  0  0
   -6.4117   24.0234  -30.5853 H   0  0  0  0  0  0  0  0  0  0  0  0
   -5.1279   25.0101  -31.3832 H   0  0  0  0  0  0  0  0  0  0  0  0
   -5.5870   23.7210  -33.3040 H   0  0  0  0  0  0  0  0  0  0  0  0
   -5.9255   17.4665  -30.7166 H   0  0  0  0  0  0  0  0  0  0  0  0
   -6.8280   17.1230  -32.2313 H   0  0  0  0  0  0  0  0  0  0  0  0
   -5.0319   17.1006  -32.2313 H   0  0  0  0  0  0  0  0  0  0  0  0
   -3.7414   17.7294  -33.1043 H   0  0  0  0  0  0  0  0  0  0  0  0
   -1.6728   18.8110  -33.9536 H   0  0  0  0  0  0  0  0  0  0  0  0
   -3.3865   22.7079  -33.2628 H   0  0  0  0  0  0  0  0  0  0  0  0
   -8.3994   18.1362  -31.9930 H   0  0  0  0  0  0  0  0  0  0  0  0
   -8.5792   19.2142  -30.5629 H   0  0  0  0  0  0  0  0  0  0  0  0
   -9.3022   19.9051  -33.4562 H   0  0  0  0  0  0  0  0  0  0  0  0
  -10.4529   19.5218  -32.1012 H   0  0  0  0  0  0  0  0  0  0  0  0
   -9.8750   22.0350  -32.8171 H   0  0  0  0  0  0  0  0  0  0  0  0
  -10.1767   21.5130  -31.0838 H   0  0  0  0  0  0  0  0  0  0  0  0
   -8.0512   23.0348  -31.9350 H   0  0  0  0  0  0  0  0  0  0  0  0
   -8.1366   22.0070  -30.4221 H   0  0  0  0  0  0  0  0  0  0  0  0
  1  2  1  0
  2  3  1  0
  3  4  1  0
  4  5  1  0
  3  6  1  0
  6  7  1  0
  7  8  1  0
  8  9  1  0
  9 10  1  0
 10 11  1  0
 11 12  1  0
 12 13  1  0
 13 14  1  0
 14 15  1  0
 15 16  1  0
 16 17  2  0
 17 18  1  0
 18 19  2  0
 19 20  1  0
 19 21  1  0
 21 22  2  0
 22 23  1  0
 23 24  2  0
 24 25  1  0
 24 26  1  0
 26 27  2  0
 18 28  1  0
 28 29  1  0
 29 30  1  0
 30 31  1  0
 27 16  1  0
 31 17  1  0
 27 21  1  0
  1 32  1  0
  1 33  1  0
  1 34  1  0
  2 35  1  0
  2 36  1  0
  4 37  1  0
  4 38  1  0
  5 39  1  0
  5 40  1  0
  5 41  1  0
  6 42  1  0
  6 43  1  0
  7 44  1  0
  7 45  1  0
  9 46  1  0
  9 47  1  0
 10 48  1  0
 10 49  1  0
 12 50  1  0
 13 51  1  0
 13 52  1  0
 14 53  1  0
 14 54  1  0
 15 55  1  0
 20 56  1  0
 20 57  1  0
 20 58  1  0
 22 59  1  0
 23 60  1  0
 26 61  1  0
 28 62  1  0
 28 63  1  0
 29 64  1  0
 29 65  1  0
 30 66  1  0
 30 67  1  0
 31 68  1  0
 31 69  1  0
M  CHG  1  19   1
M  END
>  <UniqueID>  (4) 
3

>  <SMILES>  (4) 
CCN(CC)CCOCCONCCNc1c2c([n+](C)c3ccc(F)cc13)CCCC2

>  <Energy>  (4) 
98.40965501277007

>  <Genealogy>  (4) 
CCN(CC)CCOCCONCCNc1c2c([n+](C)c3ccc(F)cc13)CCCC2 (3D coordinates assigned)
CCN(CC)CCOCCONCCNc1c2c([n+](C)c3ccc(F)cc13)CCCC2 (nonaromatic ring conformer: 98.40965501277007 kcal/mol)

>  <smiles>  (4) 
CCN(CC)CCOCCONCCNc1c2c([n+](C)c3ccc(F)cc13)CCCC2

>  <score_type>  (4) 
oracle

>  <origin>  (4) 
adg

>  <m_score__min__energy>  (4) 
-10.34

>  <m_primary>  (4) 
energy

$$$$
4:0
     RDKit          3D

 40 40  0  0  0  0  0  0  0  0999 V2000
   -3.6094   24.1956  -27.7976 H   0  0  0  0  0  0  0  0  0  0  0  0
   -3.3440   24.0000  -28.8470 C   0  0  0  0  0  0  0  0  0  0  0  0
   -3.4800   24.9330  -29.7310 N   0  0  0  0  0  0  0  0  0  0  0  0
   -4.3340   24.7690  -30.7970 O   0  0  0  0  0  0  0  0  0  0  0  0
   -5.7030   25.1230  -30.6780 C   0  0  0  0  0  0  0  0  0  0  0  0
   -5.9946   25.7494  -31.5339 H   0  0  0  0  0  0  0  0  0  0  0  0
   -5.8552   25.6820  -29.7429 H   0  0  0  0  0  0  0  0  0  0  0  0
   -6.5560   23.8660  -30.6580 C   0  0  0  0  0  0  0  0  0  0  0  0
   -6.7542   23.5739  -29.6162 H   0  0  0  0  0  0  0  0  0  0  0  0
   -7.5089   24.0613  -31.1717 H   0  0  0  0  0  0  0  0  0  0  0  0
   -6.0225   23.0526  -31.1717 H   0  0  0  0  0  0  0  0  0  0  0  0
   -2.8270   22.6560  -29.2470 C   0  0  0  0  0  0  0  0  0  0  0  0
   -1.7391   22.6234  -29.0876 H   0  0  0  0  0  0  0  0  0  0  0  0
   -3.3203   21.8861  -28.6356 H   0  0  0  0  0  0  0  0  0  0  0  0
   -3.1160   22.4010  -30.6580 N   0  0  0  0  0  0  0  0  0  0  0  0
   -3.3420   23.2260  -31.2530 H   0  0  0  0  0  0  0  0  0  0  0  0
   -3.1100   21.0680  -31.2040 C   0  0  0  0  0  0  0  0  0  0  0  0
   -2.6360   20.1260  -30.5110 O   0  0  0  0  0  0  0  0  0  0  0  0
   -3.7130   20.7310  -32.5680 C   0  0  0  0  0  0  0  0  0  0  0  0
   -5.1140   20.1350  -32.3450 C   0  0  0  0  0  0  0  0  0  0  0  0
   -5.3370   18.7750  -32.0410 C   0  0  0  0  0  0  0  0  0  0  0  0
   -4.4810   18.0917  -31.9391 H   0  0  0  0  0  0  0  0  0  0  0  0
   -6.6000   18.3020  -31.8730 N   0  0  0  0  0  0  0  0  0  0  0  0
   -7.6950   19.0990  -31.9930 C   0  0  0  0  0  0  0  0  0  0  0  0
   -9.0620   18.5200  -31.8140 C   0  0  0  0  0  0  0  0  0  0  0  0
   -9.2829   18.4264  -30.7405 H   0  0  0  0  0  0  0  0  0  0  0  0
   -9.8047   19.1808  -32.2849 H   0  0  0  0  0  0  0  0  0  0  0  0
   -9.1041   17.5268  -32.2849 H   0  0  0  0  0  0  0  0  0  0  0  0
   -7.5340   20.4460  -32.3220 C   0  0  0  0  0  0  0  0  0  0  0  0
   -8.4124   21.0982  -32.4366 H   0  0  0  0  0  0  0  0  0  0  0  0
   -6.2500   20.9570  -32.5040 C   0  0  0  0  0  0  0  0  0  0  0  0
   -6.1205   22.0151  -32.7752 H   0  0  0  0  0  0  0  0  0  0  0  0
   -3.8580   21.9680  -33.4810 C   0  0  0  0  0  0  0  0  0  0  0  0
   -3.9638   22.8707  -32.8614 H   0  0  0  0  0  0  0  0  0  0  0  0
   -2.9647   22.0618  -34.1160 H   0  0  0  0  0  0  0  0  0  0  0  0
   -4.7488   21.8527  -34.1160 H   0  0  0  0  0  0  0  0  0  0  0  0
   -2.7410   19.7500  -33.2670 C   0  0  0  0  0  0  0  0  0  0  0  0
   -2.1811   19.1849  -32.5073 H   0  0  0  0  0  0  0  0  0  0  0  0
   -3.3136   19.0518  -33.8952 H   0  0  0  0  0  0  0  0  0  0  0  0
   -2.0376   20.3161  -33.8952 H   0  0  0  0  0  0  0  0  0  0  0  0
  1  2  1  0
  2  3  2  0
  3  4  1  0
  4  5  1  0
  5  6  1  0
  5  7  1  0
  5  8  1  0
  8  9  1  0
  8 10  1  0
  8 11  1  0
  2 12  1  0
 12 13  1  0
 12 14  1  0
 12 15  1  0
 15 16  1  0
 15 17  1  0
 17 18  2  0
 17 19  1  0
 19 20  1  0
 20 21  2  0
 21 22  1  0
 21 23  1  0
 23 24  2  0
 24 25  1  0
 25 26  1  0
 25 27  1  0
 25 28  1  0
 24 29  1  0
 29 30  1  0
 29 31  2  0
 31 32  1  0
 19 33  1  0
 33 34  1  0
 33 35  1  0
 33 36  1  0
 19 37  1  0
 37 38  1  0
 37 39  1  0
 37 40  1  0
 31 20  1  0
M  END
>  <UniqueID>  (5) 
4

>  <SMILES>  (5) 
CCO/N=C/CNC(=O)C(C)(C)c1ccc(C)nc1

>  <Energy>  (5) 
29.444633815266606

>  <Genealogy>  (5) 
CCO/N=C/CNC(=O)C(C)(C)c1ccc(C)nc1 (cis-trans isomerization)
CCO/N=C/CNC(=O)C(C)(C)c1ccc(C)nc1 (3D coordinates assigned)
CCO/N=C/CNC(=O)C(C)(C)c1ccc(C)nc1 (optimized conformer: 29.444633815266606 kcal/mol)

>  <smiles>  (5) 
CCON=CCNC(=O)C(C)(C)c1ccc(C)nc1

>  <score_type>  (5) 
oracle

>  <origin>  (5) 
adg

>  <m_score__min__energy>  (5) 
-7.5199999999999996

>  <m_primary>  (5) 
energy

$$$$
5:0
     RDKit          3D

 69 71  0  0  0  0  0  0  0  0999 V2000
   -0.8660   26.5520  -24.0370 C   0  0  0  0  0  0  0  0  0  0  0  0
   -1.5840   25.8990  -25.2210 C   0  0  0  0  0  0  0  0  0  0  0  0
   -1.2620   26.5580  -26.5110 N   0  0  1  0  0  0  0  0  0  0  0  0
   -0.8090   27.9520  -26.3220 C   0  0  0  0  0  0  0  0  0  0  0  0
   -0.3090   25.7600  -27.3270 C   0  0  0  0  0  0  0  0  0  0  0  0
   -0.9200   25.0490  -28.5560 C   0  0  0  0  0  0  0  0  0  0  0  0
   -2.3040   25.3200  -28.6910 O   0  0  0  0  0  0  0  0  0  0  0  0
   -3.0900   24.3830  -27.9780 C   0  0  0  0  0  0  0  0  0  0  0  0
   -3.6470   23.3250  -28.9360 C   0  0  0  0  0  0  0  0  0  0  0  0
   -3.5690   23.8050  -30.3970 C   0  0  0  0  0  0  0  0  0  0  0  0
   -4.2410   25.0980  -30.6170 N   0  0  0  0  0  0  0  0  0  0  0  0
   -5.6500   25.0040  -31.0320 C   0  0  0  0  0  0  0  0  0  0  0  0
   -6.1570   23.5570  -31.1100 C   0  0  0  0  0  0  0  0  0  0  0  0
   -6.0060   23.0060  -32.4590 N   0  0  0  0  0  0  0  0  0  0  0  0
   -5.8650   21.5940  -32.6940 C   0  0  0  0  0  0  0  0  0  0  0  0
   -4.6150   21.0590  -33.0460 C   0  0  0  0  0  0  0  0  0  0  0  0
   -4.5140   19.6990  -33.3930 C   0  0  0  0  0  0  0  0  0  0  0  0
   -5.6430   18.9130  -33.4690 N   0  0  0  0  0  0  0  0  0  0  0  0
   -5.5760   17.5900  -34.1250 C   0  0  0  0  0  0  0  0  0  0  0  0
   -6.8310   19.3640  -32.9250 C   0  0  0  0  0  0  0  0  0  0  0  0
   -7.9330   18.4980  -32.7170 C   0  0  0  0  0  0  0  0  0  0  0  0
   -9.1240   18.9710  -32.1650 C   0  0  0  0  0  0  0  0  0  0  0  0
   -9.2410   20.3040  -31.7900 C   0  0  0  0  0  0  0  0  0  0  0  0
   -8.1670   21.1750  -31.9590 C   0  0  0  0  0  0  0  0  0  0  0  0
   -6.9600   20.7250  -32.5340 C   0  0  0  0  0  0  0  0  0  0  0  0
   -3.1250   19.1720  -33.7230 C   0  0  0  0  0  0  0  0  0  0  0  0
   -2.0800   19.7130  -32.7360 C   0  0  0  0  0  0  0  0  0  0  0  0
   -2.1720   21.2350  -32.4810 C   0  0  0  0  0  0  0  0  0  0  0  0
   -3.3720   21.9150  -33.1540 C   0  0  0  0  0  0  0  0  0  0  0  0
   -1.2874   26.1687  -23.0960 H   0  0  0  0  0  0  0  0  0  0  0  0
    0.2069   26.3138  -24.0822 H   0  0  0  0  0  0  0  0  0  0  0  0
   -1.0016   27.6427  -24.0822 H   0  0  0  0  0  0  0  0  0  0  0  0
   -1.2817   24.8429  -25.2787 H   0  0  0  0  0  0  0  0  0  0  0  0
   -2.6665   25.9998  -25.0539 H   0  0  0  0  0  0  0  0  0  0  0  0
   -2.1440   26.6030  -27.0780 H   0  0  0  0  0  0  0  0  0  0  0  0
   -0.7376   28.1717  -25.2465 H   0  0  0  0  0  0  0  0  0  0  0  0
    0.1781   28.0833  -26.7894 H   0  0  0  0  0  0  0  0  0  0  0  0
   -1.5303   28.6385  -26.7894 H   0  0  0  0  0  0  0  0  0  0  0  0
    0.4806   26.4371  -27.6848 H   0  0  0  0  0  0  0  0  0  0  0  0
    0.0587   24.9606  -26.6669 H   0  0  0  0  0  0  0  0  0  0  0  0
   -0.4002   25.3951  -29.4615 H   0  0  0  0  0  0  0  0  0  0  0  0
   -0.7976   23.9647  -28.4174 H   0  0  0  0  0  0  0  0  0  0  0  0
   -2.4677   23.8917  -27.2155 H   0  0  0  0  0  0  0  0  0  0  0  0
   -3.9275   24.9086  -27.4961 H   0  0  0  0  0  0  0  0  0  0  0  0
   -3.0612   22.4000  -28.8299 H   0  0  0  0  0  0  0  0  0  0  0  0
   -4.7023   23.1451  -28.6829 H   0  0  0  0  0  0  0  0  0  0  0  0
   -2.5099   23.9090  -30.6753 H   0  0  0  0  0  0  0  0  0  0  0  0
   -4.0858   23.0570  -31.0162 H   0  0  0  0  0  0  0  0  0  0  0  0
   -4.1960   25.6530  -29.7290 H   0  0  0  0  0  0  0  0  0  0  0  0
   -6.2669   25.5529  -30.3052 H   0  0  0  0  0  0  0  0  0  0  0  0
   -5.7250   25.4339  -32.0417 H   0  0  0  0  0  0  0  0  0  0  0  0
   -5.5820   22.9385  -30.4051 H   0  0  0  0  0  0  0  0  0  0  0  0
   -7.2267   23.5523  -30.8536 H   0  0  0  0  0  0  0  0  0  0  0  0
   -6.0420   23.6550  -33.2770 H   0  0  0  0  0  0  0  0  0  0  0  0
   -5.5361   16.8022  -33.3583 H   0  0  0  0  0  0  0  0  0  0  0  0
   -6.4680   17.4462  -34.7524 H   0  0  0  0  0  0  0  0  0  0  0  0
   -4.6740   17.5371  -34.7524 H   0  0  0  0  0  0  0  0  0  0  0  0
   -7.8483   17.4370  -32.9948 H   0  0  0  0  0  0  0  0  0  0  0  0
   -9.9735   18.2862  -32.0261 H   0  0  0  0  0  0  0  0  0  0  0  0
  -10.1836   20.6722  -31.3588 H   0  0  0  0  0  0  0  0  0  0  0  0
   -8.2611   22.2238  -31.6410 H   0  0  0  0  0  0  0  0  0  0  0  0
   -3.1353   18.0734  -33.6691 H   0  0  0  0  0  0  0  0  0  0  0  0
   -2.8556   19.5066  -34.7356 H   0  0  0  0  0  0  0  0  0  0  0  0
   -2.2130   19.1943  -31.7751 H   0  0  0  0  0  0  0  0  0  0  0  0
   -1.0947   19.5290  -33.1891 H   0  0  0  0  0  0  0  0  0  0  0  0
   -2.2467   21.3989  -31.3958 H   0  0  0  0  0  0  0  0  0  0  0  0
   -1.2682   21.6837  -32.9190 H   0  0  0  0  0  0  0  0  0  0  0  0
   -3.5582   22.8820  -32.6639 H   0  0  0  0  0  0  0  0  0  0  0  0
   -3.1391   22.0596  -34.2193 H   0  0  0  0  0  0  0  0  0  0  0  0
  1  2  1  0
  2  3  1  0
  3  4  1  0
  3  5  1  0
  5  6  1  0
  6  7  1  0
  7  8  1  0
  8  9  1  0
  9 10  1  0
 10 11  1  0
 11 12  1  0
 12 13  1  0
 13 14  1  0
 14 15  1  0
 15 16  2  0
 16 17  1  0
 17 18  2  0
 18 19  1  0
 18 20  1  0
 20 21  2  0
 21 22  1  0
 22 23  2  0
 23 24  1  0
 24 25  2  0
 17 26  1  0
 26 27  1  0
 27 28  1  0
 28 29  1  0
 25 15  1  0
 29 16  1  0
 25 20  1  0
  1 30  1  0
  1 31  1  0
  1 32  1  0
  2 33  1  0
  2 34  1  0
  3 35  1  6
  4 36  1  0
  4 37  1  0
  4 38  1  0
  5 39  1  0
  5 40  1  0
  6 41  1  0
  6 42  1  0
  8 43  1  0
  8 44  1  0
  9 45  1  0
  9 46  1  0
 10 47  1  0
 10 48  1  0
 11 49  1  0
 12 50  1  0
 12 51  1  0
 13 52  1  0
 13 53  1  0
 14 54  1  0
 19 55  1  0
 19 56  1  0
 19 57  1  0
 21 58  1  0
 22 59  1  0
 23 60  1  0
 24 61  1  0
 26 62  1  0
 26 63  1  0
 27 64  1  0
 27 65  1  0
 28 66  1  0
 28 67  1  0
 29 68  1  0
 29 69  1  0
M  CHG  2   3   1  18   1
M  END
>  <UniqueID>  (6) 
5

>  <SMILES>  (6) 
CC[N@@H+](C)CCOCCCNCCNc1c2c([n+](C)c3ccccc13)CCCC2

>  <Energy>  (6) 
96.26239280184453

>  <Genealogy>  (6) 
CC[NH+](C)CCOCCCNCCNc1c2c([n+](C)c3ccccc13)CCCC2 (protonated)
CC[N@@H+](C)CCOCCCNCCNc1c2c([n+](C)c3ccccc13)CCCC2 (chirality)
CC[N@@H+](C)CCOCCCNCCNc1c2c([n+](C)c3ccccc13)CCCC2 (3D coordinates assigned)
CC[N@@H+](C)CCOCCCNCCNc1c2c([n+](C)c3ccccc13)CCCC2 (nonaromatic ring conformer: 96.26239280184453 kcal/mol)

>  <smiles>  (6) 
CCN(C)CCOCCCNCCNc1c2c([n+](C)c3ccccc13)CCCC2

>  <score_type>  (6) 
oracle

>  <origin>  (6) 
adg

>  <m_score__min__energy>  (6) 
-9.5800000000000001

>  <m_primary>  (6) 
energy

$$$$
6:0
     RDKit          3D

 31 34  0  0  0  0  0  0  0  0999 V2000
   -9.2920   18.7020  -32.6770 O   0  0  0  0  0  0  0  0  0  0  0  0
   -8.0860   19.0240  -32.4980 C   0  0  0  0  0  0  0  0  0  0  0  0
   -6.9690   18.1420  -32.9360 C   0  0  0  0  0  0  0  0  0  0  0  0
   -7.2330   16.9010  -33.5390 C   0  0  0  0  0  0  0  0  0  0  0  0
   -6.1830   16.0800  -33.9540 C   0  0  0  0  0  0  0  0  0  0  0  0
   -4.8590   16.4850  -33.7740 C   0  0  0  0  0  0  0  0  0  0  0  0
   -4.5750   17.7160  -33.1770 C   0  0  0  0  0  0  0  0  0  0  0  0
   -5.6170   18.5570  -32.7510 C   0  0  0  0  0  0  0  0  0  0  0  0
   -5.3160   19.8730  -32.1170 C   0  0  0  0  0  0  0  0  0  0  0  0
   -4.1350   20.3030  -32.0410 O   0  0  0  0  0  0  0  0  0  0  0  0
   -6.4500   20.6750  -31.6330 C   0  0  0  0  0  0  0  0  0  0  0  0
   -7.7420   20.2900  -31.8470 C   0  0  0  0  0  0  0  0  0  0  0  0
   -8.5740   21.2560  -31.4260 N   0  0  0  0  0  0  0  0  0  0  0  0
   -7.8410   22.2260  -30.9590 O   0  0  0  0  0  0  0  0  0  0  0  0
   -6.5570   21.9310  -31.0480 C   0  0  0  0  0  0  0  0  0  0  0  0
   -5.4810   22.8280  -30.5890 C   0  0  0  0  0  0  0  0  0  0  0  0
   -5.5140   24.2040  -30.8720 C   0  0  0  0  0  0  0  0  0  0  0  0
   -4.4710   25.0350  -30.4500 C   0  0  0  0  0  0  0  0  0  0  0  0
   -3.3800   24.4970  -29.7590 C   0  0  0  0  0  0  0  0  0  0  0  0
   -2.3460   25.3240  -29.3410 O   0  0  0  0  0  0  0  0  0  0  0  0
   -3.3300   23.1250  -29.4960 C   0  0  0  0  0  0  0  0  0  0  0  0
   -4.3720   22.2920  -29.9170 C   0  0  0  0  0  0  0  0  0  0  0  0
   -8.2732   16.5743  -33.6850 H   0  0  0  0  0  0  0  0  0  0  0  0
   -6.3997   15.1098  -34.4249 H   0  0  0  0  0  0  0  0  0  0  0  0
   -4.0367   15.8328  -34.1033 H   0  0  0  0  0  0  0  0  0  0  0  0
   -3.5293   18.0286  -33.0397 H   0  0  0  0  0  0  0  0  0  0  0  0
   -9.6180   21.2570  -31.4730 H   0  0  0  0  0  0  0  0  0  0  0  0
   -6.3630   24.6291  -31.4273 H   0  0  0  0  0  0  0  0  0  0  0  0
   -4.5087   26.1137  -30.6619 H   0  0  0  0  0  0  0  0  0  0  0  0
   -2.4703   22.6999  -28.9574 H   0  0  0  0  0  0  0  0  0  0  0  0
   -4.3217   21.2109  -29.7202 H   0  0  0  0  0  0  0  0  0  0  0  0
  1  2  2  0
  2  3  1  0
  3  4  2  0
  4  5  1  0
  5  6  2  0
  6  7  1  0
  7  8  2  0
  8  9  1  0
  9 10  2  0
  9 11  1  0
 11 12  1  0
 12 13  2  0
 13 14  1  0
 14 15  1  0
 15 16  1  0
 16 17  2  0
 17 18  1  0
 18 19  2  0
 19 20  1  0
 19 21  1  0
 21 22  2  0
 12  2  1  0
 22 16  1  0
  8  3  1  0
 15 11  2  0
  4 23  1  0
  5 24  1  0
  6 25  1  0
  7 26  1  0
 13 27  1  0
 17 28  1  0
 18 29  1  0
 21 30  1  0
 22 31  1  0
M  CHG  2  13   1  20  -1
M  END
>  <UniqueID>  (7) 
6

>  <SMILES>  (7) 
O=C1c2ccccc2C(=O)c2c1[nH+]oc2-c1ccc([O-])cc1

>  <Energy>  (7) 
79.73393457972738

>  <Genealogy>  (7) 
O=C1c2ccccc2C(=O)c2c1[nH+]oc2-c1ccc([O-])cc1 (protonated)
O=C1c2ccccc2C(=O)c2c1[nH+]oc2-c1ccc([O-])cc1 (3D coordinates assigned)
O=C1c2ccccc2C(=O)c2c1[nH+]oc2-c1ccc([O-])cc1 (nonaromatic ring conformer: 79.73393457972738 kcal/mol)

>  <smiles>  (7) 
O=C1c2ccccc2C(=O)c2c1noc2-c1ccc(O)cc1

>  <score_type>  (7) 
oracle

>  <origin>  (7) 
adg

>  <m_score__min__energy>  (7) 
-10.69

>  <m_primary>  (7) 
energy

$$$$
7:0
     RDKit          3D

 39 41  0  0  0  0  0  0  0  0999 V2000
   -3.1370   21.8300  -29.8160 C   0  0  0  0  0  0  0  0  0  0  0  0
   -3.7390   23.0850  -30.2630 N   0  0  0  0  0  0  0  0  0  0  0  0
   -4.6710   23.2540  -31.2230 C   0  0  0  0  0  0  0  0  0  0  0  0
   -5.3780   21.9390  -32.2210 S   0  0  0  0  0  0  0  0  0  0  0  0
   -6.9290   21.8290  -31.2620 C   0  0  0  0  0  0  0  0  0  0  0  0
   -8.0380   21.1680  -32.0890 C   0  0  0  0  0  0  0  0  0  0  0  0
   -8.0300   19.6640  -31.9710 C   0  0  0  0  0  0  0  0  0  0  0  0
   -8.8330   19.0930  -31.1840 O   0  0  0  0  0  0  0  0  0  0  0  0
   -7.1640   18.8660  -32.7970 N   0  0  0  0  0  0  0  0  0  0  0  0
   -6.2900   19.4020  -33.8260 C   0  0  0  0  0  0  0  0  0  0  0  0
   -5.7430   18.1910  -34.5700 C   0  0  0  0  0  0  0  0  0  0  0  0
   -5.9970   16.9920  -33.6610 C   0  0  0  0  0  0  0  0  0  0  0  0
   -7.1110   17.4170  -32.7130 C   0  0  0  0  0  0  0  0  0  0  0  0
   -5.0130   24.5470  -31.3610 N   0  0  0  0  0  0  0  0  0  0  0  0
   -4.2960   25.2310  -30.4830 N   0  0  0  0  0  0  0  0  0  0  0  0
   -3.5180   24.3470  -29.8260 C   0  0  0  0  0  0  0  0  0  0  0  0
   -2.5810   24.7690  -28.7660 C   0  0  0  0  0  0  0  0  0  0  0  0
   -2.4980   24.3010  -27.4650 C   0  0  0  0  0  0  0  0  0  0  0  0
   -1.4550   24.9900  -26.8850 C   0  0  0  0  0  0  0  0  0  0  0  0
   -0.9600   25.8290  -27.8600 C   0  0  0  0  0  0  0  0  0  0  0  0
   -1.6470   25.6720  -28.9670 O   0  0  0  0  0  0  0  0  0  0  0  0
   -3.1232   21.8011  -28.7165 H   0  0  0  0  0  0  0  0  0  0  0  0
   -3.7272   20.9838  -30.1976 H   0  0  0  0  0  0  0  0  0  0  0  0
   -2.1076   21.7607  -30.1976 H   0  0  0  0  0  0  0  0  0  0  0  0
   -6.7506   21.2313  -30.3559 H   0  0  0  0  0  0  0  0  0  0  0  0
   -7.2495   22.8466  -30.9941 H   0  0  0  0  0  0  0  0  0  0  0  0
   -9.0106   21.5439  -31.7387 H   0  0  0  0  0  0  0  0  0  0  0  0
   -7.8625   21.4208  -33.1451 H   0  0  0  0  0  0  0  0  0  0  0  0
   -6.8560   20.0502  -34.5112 H   0  0  0  0  0  0  0  0  0  0  0  0
   -5.4835   20.0145  -33.3966 H   0  0  0  0  0  0  0  0  0  0  0  0
   -6.2668   18.0622  -35.5286 H   0  0  0  0  0  0  0  0  0  0  0  0
   -4.6729   18.3060  -34.7972 H   0  0  0  0  0  0  0  0  0  0  0  0
   -6.3112   16.1211  -34.2549 H   0  0  0  0  0  0  0  0  0  0  0  0
   -5.0889   16.7005  -33.1129 H   0  0  0  0  0  0  0  0  0  0  0  0
   -8.0700   16.9789  -33.0266 H   0  0  0  0  0  0  0  0  0  0  0  0
   -6.9224   17.0756  -31.6845 H   0  0  0  0  0  0  0  0  0  0  0  0
   -3.1332   23.5373  -26.9925 H   0  0  0  0  0  0  0  0  0  0  0  0
   -1.0908   24.8904  -25.8518 H   0  0  0  0  0  0  0  0  0  0  0  0
   -0.1175   26.5242  -27.7300 H   0  0  0  0  0  0  0  0  0  0  0  0
  1  2  1  0
  2  3  1  0
  3  4  1  0
  4  5  1  0
  5  6  1  0
  6  7  1  0
  7  8  2  0
  7  9  1  0
  9 10  1  0
 10 11  1  0
 11 12  1  0
 12 13  1  0
  3 14  2  0
 14 15  1  0
 15 16  2  0
 16 17  1  0
 17 18  2  0
 18 19  1  0
 19 20  2  0
 20 21  1  0
 16  2  1  0
 21 17  1  0
 13  9  1  0
  1 22  1  0
  1 23  1  0
  1 24  1  0
  5 25  1  0
  5 26  1  0
  6 27  1  0
  6 28  1  0
 10 29  1  0
 10 30  1  0
 11 31  1  0
 11 32  1  0
 12 33  1  0
 12 34  1  0
 13 35  1  0
 13 36  1  0
 18 37  1  0
 19 38  1  0
 20 39  1  0
M  END
>  <UniqueID>  (8) 
7

>  <SMILES>  (8) 
Cn1c(SCCC(=O)N2CCCC2)nnc1-c1ccco1

>  <Energy>  (8) 
96.02412788317476

>  <Genealogy>  (8) 
Cn1c(SCCC(=O)N2CCCC2)nnc1-c1ccco1 (3D coordinates assigned)
Cn1c(SCCC(=O)N2CCCC2)nnc1-c1ccco1 (nonaromatic ring conformer: 96.02412788317476 kcal/mol)

>  <smiles>  (8) 
Cn1c(SCCC(=O)N2CCCC2)nnc1-c1ccco1

>  <score_type>  (8) 
oracle

>  <origin>  (8) 
adg

>  <m_score__min__energy>  (8) 
-8.5199999999999996

>  <m_primary>  (8) 
energy

$$$$
8:0
     RDKit          3D

 44 45  0  0  0  0  0  0  0  0999 V2000
   -9.4790   19.6020  -32.3570 C   0  0  0  0  0  0  0  0  0  0  0  0
   -8.7110   18.6250  -31.4740 C   0  0  0  0  0  0  0  0  0  0  0  0
   -7.8170   17.8510  -32.2540 O   0  0  0  0  0  0  0  0  0  0  0  0
   -6.6750   17.4720  -31.5070 C   0  0  0  0  0  0  0  0  0  0  0  0
   -5.7370   16.6160  -32.3570 C   0  0  0  0  0  0  0  0  0  0  0  0
   -4.4550   17.2070  -32.3750 O   0  0  0  0  0  0  0  0  0  0  0  0
   -3.9350   17.1660  -33.6870 C   0  0  0  0  0  0  0  0  0  0  0  0
   -3.5930   18.5830  -34.1400 C   0  0  0  0  0  0  0  0  0  0  0  0
   -4.6510   19.5180  -33.7550 N   0  0  0  0  0  0  0  0  0  0  0  0
   -5.9640   19.4050  -34.0700 C   0  0  0  0  0  0  0  0  0  0  0  0
   -6.6980   20.4310  -33.4830 C   0  0  0  0  0  0  0  0  0  0  0  0
   -5.7780   21.1780  -32.7790 C   0  0  0  0  0  0  0  0  0  0  0  0
   -5.9530   22.3140  -31.9920 C   0  0  0  0  0  0  0  0  0  0  0  0
   -4.8180   22.8660  -31.3640 C   0  0  0  0  0  0  0  0  0  0  0  0
   -4.9890   24.3140  -30.3750 S   0  0  0  0  0  0  0  0  0  0  0  0
   -3.8520   25.2490  -30.6770 O   0  0  0  0  0  0  0  0  0  0  0  0
   -6.2790   25.0140  -30.7020 O   0  0  0  0  0  0  0  0  0  0  0  0
   -4.9580   23.9030  -28.6870 N   0  0  0  0  0  0  0  0  0  0  0  0
   -3.6370   24.1920  -28.1330 C   0  0  0  0  0  0  0  0  0  0  0  0
   -3.5460   22.2700  -31.5490 C   0  0  0  0  0  0  0  0  0  0  0  0
   -3.4030   21.1240  -32.3500 C   0  0  0  0  0  0  0  0  0  0  0  0
   -4.5480   20.6010  -32.9570 C   0  0  0  0  0  0  0  0  0  0  0  0
  -10.0349   20.3092  -31.7240 H   0  0  0  0  0  0  0  0  0  0  0  0
   -8.7720   20.1559  -32.9921 H   0  0  0  0  0  0  0  0  0  0  0  0
  -10.1842   19.0458  -32.9921 H   0  0  0  0  0  0  0  0  0  0  0  0
   -8.1403   19.1886  -30.7212 H   0  0  0  0  0  0  0  0  0  0  0  0
   -9.4274   17.9521  -30.9800 H   0  0  0  0  0  0  0  0  0  0  0  0
   -6.1414   18.3761  -31.1784 H   0  0  0  0  0  0  0  0  0  0  0  0
   -6.9998   16.8845  -30.6356 H   0  0  0  0  0  0  0  0  0  0  0  0
   -5.6701   15.6059  -31.9267 H   0  0  0  0  0  0  0  0  0  0  0  0
   -6.1269   16.5496  -33.3834 H   0  0  0  0  0  0  0  0  0  0  0  0
   -3.0264   16.5461  -33.7027 H   0  0  0  0  0  0  0  0  0  0  0  0
   -4.6841   16.7333  -34.3664 H   0  0  0  0  0  0  0  0  0  0  0  0
   -2.6479   18.8940  -33.6709 H   0  0  0  0  0  0  0  0  0  0  0  0
   -3.4955   18.5905  -35.2356 H   0  0  0  0  0  0  0  0  0  0  0  0
   -6.3905   18.6122  -34.7021 H   0  0  0  0  0  0  0  0  0  0  0  0
   -7.7807   20.6081  -33.5635 H   0  0  0  0  0  0  0  0  0  0  0  0
   -6.9473   22.7669  -31.8644 H   0  0  0  0  0  0  0  0  0  0  0  0
   -5.6500   24.5240  -28.2060 H   0  0  0  0  0  0  0  0  0  0  0  0
   -3.6896   24.1805  -27.0343 H   0  0  0  0  0  0  0  0  0  0  0  0
   -2.9215   23.4291  -28.4738 H   0  0  0  0  0  0  0  0  0  0  0  0
   -3.3054   25.1839  -28.4738 H   0  0  0  0  0  0  0  0  0  0  0  0
   -2.6626   22.7081  -31.0614 H   0  0  0  0  0  0  0  0  0  0  0  0
   -2.4195   20.6530  -32.4947 H   0  0  0  0  0  0  0  0  0  0  0  0
  1  2  1  0
  2  3  1  0
  3  4  1  0
  4  5  1  0
  5  6  1  0
  6  7  1  0
  7  8  1  0
  8  9  1  0
  9 10  1  0
 10 11  2  0
 11 12  1  0
 12 13  2  0
 13 14  1  0
 14 15  1  0
 15 16  2  0
 15 17  2  0
 15 18  1  0
 18 19  1  0
 14 20  2  0
 20 21  1  0
 21 22  2  0
 22  9  1  0
 22 12  1  0
  1 23  1  0
  1 24  1  0
  1 25  1  0
  2 26  1  0
  2 27  1  0
  4 28  1  0
  4 29  1  0
  5 30  1  0
  5 31  1  0
  7 32  1  0
  7 33  1  0
  8 34  1  0
  8 35  1  0
 10 36  1  0
 11 37  1  0
 13 38  1  0
 18 39  1  0
 19 40  1  0
 19 41  1  0
 19 42  1  0
 20 43  1  0
 21 44  1  0
M  END
>  <UniqueID>  (9) 
8

>  <SMILES>  (9) 
CCOCCOCCn1ccc2cc(S(=O)(=O)NC)ccc21

>  <Energy>  (9) 
69.79271457488453

>  <Genealogy>  (9) 
CCOCCOCCn1ccc2cc(S(=O)(=O)NC)ccc21 (3D coordinates assigned)
CCOCCOCCn1ccc2cc(S(=O)(=O)NC)ccc21 (optimized conformer: 69.79271457488453 kcal/mol)

>  <smiles>  (9) 
CCOCCOCCn1ccc2cc(S(=O)(=O)NC)ccc21

>  <score_type>  (9) 
oracle

>  <origin>  (9) 
adg

>  <m_score__min__energy>  (9) 
-7.9299999999999997

>  <m_primary>  (9) 
energy

$$$$
9:0
     RDKit          3D

 67 70  0  0  0  0  0  0  0  0999 V2000
    0.4870   25.4800  -36.1340 C   0  0  0  0  0  0  0  0  0  0  0  0
    1.9250   25.0530  -36.3750 C   0  0  0  0  0  0  0  0  0  0  0  0
    1.9490   23.7050  -36.8390 O   0  0  0  0  0  0  0  0  0  0  0  0
    1.6230   22.5890  -36.0540 C   0  0  0  0  0  0  0  0  0  0  0  0
    0.2750   22.2260  -35.9480 C   0  0  0  0  0  0  0  0  0  0  0  0
   -0.1080   21.1330  -35.1680 C   0  0  0  0  0  0  0  0  0  0  0  0
    0.8550   20.3740  -34.4840 C   0  0  0  0  0  0  0  0  0  0  0  0
    0.4490   19.2190  -33.6570 C   0  0  0  0  0  0  0  0  0  0  0  0
    1.3140   18.5680  -33.0030 O   0  0  0  0  0  0  0  0  0  0  0  0
   -0.8990   18.8460  -33.6020 O   0  0  0  0  0  0  0  0  0  0  0  0
   -1.8200   19.3120  -32.6090 C   0  0  1  0  0  0  0  0  0  0  0  0
   -1.4130   20.7340  -32.1970 C   0  0  0  0  0  0  0  0  0  0  0  0
   -2.1310   21.1890  -30.9280 C   0  0  0  0  0  0  0  0  0  0  0  0
   -3.4410   21.8280  -31.2830 C   0  0  0  0  0  0  0  0  0  0  0  0
   -3.6310   23.1860  -30.9890 C   0  0  0  0  0  0  0  0  0  0  0  0
   -4.8390   23.8290  -31.2970 C   0  0  0  0  0  0  0  0  0  0  0  0
   -5.0630   25.1810  -30.9850 O   0  0  0  0  0  0  0  0  0  0  0  0
   -5.9920   25.6450  -30.0100 C   0  0  0  0  0  0  0  0  0  0  0  0
   -5.8690   23.1150  -31.9180 C   0  0  0  0  0  0  0  0  0  0  0  0
   -7.0660   23.8040  -32.1720 O   0  0  0  0  0  0  0  0  0  0  0  0
   -8.3600   23.3870  -31.7390 C   0  0  0  0  0  0  0  0  0  0  0  0
   -5.6660   21.7620  -32.2710 C   0  0  0  0  0  0  0  0  0  0  0  0
   -6.6440   21.0750  -32.9940 O   0  0  0  0  0  0  0  0  0  0  0  0
   -7.7890   20.5260  -32.3490 C   0  0  0  0  0  0  0  0  0  0  0  0
   -4.4610   21.0980  -31.9280 C   0  0  0  0  0  0  0  0  0  0  0  0
   -4.3230   19.6470  -32.2720 C   0  0  0  0  0  0  0  0  0  0  0  0
   -5.3280   18.8060  -31.7960 C   0  0  0  0  0  0  0  0  0  0  0  0
   -5.8010   17.6400  -32.3810 C   0  0  0  0  0  0  0  0  0  0  0  0
   -5.6250   17.2390  -33.7080 C   0  0  0  0  0  0  0  0  0  0  0  0
   -6.7840   15.9860  -34.3010 S   0  0  0  0  0  0  0  0  0  0  0  0
   -5.6570   14.5990  -33.9550 C   0  0  0  0  0  0  0  0  0  0  0  0
   -4.6310   17.6830  -34.5990 C   0  0  0  0  0  0  0  0  0  0  0  0
   -4.6800   17.2630  -35.7880 O   0  0  0  0  0  0  0  0  0  0  0  0
   -3.5110   18.4470  -34.2620 C   0  0  0  0  0  0  0  0  0  0  0  0
   -3.2710   19.1870  -33.0900 C   0  0  0  0  0  0  0  0  0  0  0  0
    2.2120   20.7300  -34.6010 C   0  0  0  0  0  0  0  0  0  0  0  0
    2.5940   21.8310  -35.3750 C   0  0  0  0  0  0  0  0  0  0  0  0
    0.2977   25.5362  -35.0519 H   0  0  0  0  0  0  0  0  0  0  0  0
    0.3168   26.4675  -36.5878 H   0  0  0  0  0  0  0  0  0  0  0  0
   -0.1946   24.7455  -36.5878 H   0  0  0  0  0  0  0  0  0  0  0  0
    2.3806   25.7093  -37.1312 H   0  0  0  0  0  0  0  0  0  0  0  0
    2.4921   25.1275  -35.4354 H   0  0  0  0  0  0  0  0  0  0  0  0
   -0.4896   22.8073  -36.4842 H   0  0  0  0  0  0  0  0  0  0  0  0
   -1.1718   20.8647  -35.0888 H   0  0  0  0  0  0  0  0  0  0  0  0
   -1.7738   18.6799  -31.7099 H   0  0  0  0  0  0  0  0  0  0  0  0
   -0.3278   20.7552  -32.0182 H   0  0  0  0  0  0  0  0  0  0  0  0
   -1.6952   21.4178  -33.0111 H   0  0  0  0  0  0  0  0  0  0  0  0
   -2.3134   20.3188  -30.2804 H   0  0  0  0  0  0  0  0  0  0  0  0
   -1.5027   21.9211  -30.3995 H   0  0  0  0  0  0  0  0  0  0  0  0
   -2.8209   23.7553  -30.5098 H   0  0  0  0  0  0  0  0  0  0  0  0
   -5.5961   25.4472  -29.0030 H   0  0  0  0  0  0  0  0  0  0  0  0
   -6.1474   26.7265  -30.1370 H   0  0  0  0  0  0  0  0  0  0  0  0
   -6.9500   25.1195  -30.1370 H   0  0  0  0  0  0  0  0  0  0  0  0
   -8.3930   23.3764  -30.6395 H   0  0  0  0  0  0  0  0  0  0  0  0
   -9.1178   24.0864  -32.1218 H   0  0  0  0  0  0  0  0  0  0  0  0
   -8.5668   22.3767  -32.1218 H   0  0  0  0  0  0  0  0  0  0  0  0
   -7.6603   20.5877  -31.2583 H   0  0  0  0  0  0  0  0  0  0  0  0
   -8.6838   21.0930  -32.6453 H   0  0  0  0  0  0  0  0  0  0  0  0
   -7.9072   19.4733  -32.6453 H   0  0  0  0  0  0  0  0  0  0  0  0
   -5.8004   19.1008  -30.8474 H   0  0  0  0  0  0  0  0  0  0  0  0
   -6.3741   16.9607  -31.7328 H   0  0  0  0  0  0  0  0  0  0  0  0
   -5.5543   14.4726  -32.8671 H   0  0  0  0  0  0  0  0  0  0  0  0
   -6.0649   13.6767  -34.3944 H   0  0  0  0  0  0  0  0  0  0  0  0
   -4.6708   14.8095  -34.3944 H   0  0  0  0  0  0  0  0  0  0  0  0
   -2.7089   18.4735  -35.0143 H   0  0  0  0  0  0  0  0  0  0  0  0
    2.9783   20.1376  -34.0796 H   0  0  0  0  0  0  0  0  0  0  0  0
    3.6566   22.1046  -35.4528 H   0  0  0  0  0  0  0  0  0  0  0  0
  1  2  1  0
  2  3  1  0
  3  4  1  0
  4  5  2  0
  5  6  1  0
  6  7  2  0
  7  8  1  0
  8  9  2  0
  8 10  1  0
 10 11  1  0
 11 12  1  0
 12 13  1  0
 13 14  1  0
 14 15  2  0
 15 16  1  0
 16 17  1  0
 17 18  1  0
 16 19  2  0
 19 20  1  0
 20 21  1  0
 19 22  1  0
 22 23  1  0
 23 24  1  0
 22 25  2  0
 25 26  1  0
 26 27  2  0
 27 28  1  0
 28 29  2  0
 29 30  1  0
 30 31  1  0
 29 32  1  0
 32 33  2  0
 32 34  1  0
 34 35  2  0
  7 36  1  0
 36 37  2  0
 37  4  1  0
 35 11  1  0
 25 14  1  0
 35 26  1  0
  1 38  1  0
  1 39  1  0
  1 40  1  0
  2 41  1  0
  2 42  1  0
  5 43  1  0
  6 44  1  0
 11 45  1  1
 12 46  1  0
 12 47  1  0
 13 48  1  0
 13 49  1  0
 15 50  1  0
 18 51  1  0
 18 52  1  0
 18 53  1  0
 21 54  1  0
 21 55  1  0
 21 56  1  0
 24 57  1  0
 24 58  1  0
 24 59  1  0
 27 60  1  0
 28 61  1  0
 31 62  1  0
 31 63  1  0
 31 64  1  0
 34 65  1  0
 36 66  1  0
 37 67  1  0
M  END
>  <UniqueID>  (10) 
9

>  <SMILES>  (10) 
CCOc1ccc(C(=O)O[C@H]2CCc3cc(OC)c(OC)c(OC)c3-c3ccc(SC)c(=O)cc32)cc1

>  <Energy>  (10) 
128.65765271313353

>  <Genealogy>  (10) 
CCOc1ccc(C(=O)O[C@H]2CCc3cc(OC)c(OC)c(OC)c3-c3ccc(SC)c(=O)cc32)cc1 (chirality)
CCOc1ccc(C(=O)O[C@H]2CCc3cc(OC)c(OC)c(OC)c3-c3ccc(SC)c(=O)cc32)cc1 (3D coordinates assigned)
CCOc1ccc(C(=O)O[C@H]2CCc3cc(OC)c(OC)c(OC)c3-c3ccc(SC)c(=O)cc32)cc1 (nonaromatic ring conformer: 128.65765271313353 kcal/mol)

>  <smiles>  (10) 
CCOc1ccc(C(=O)OC2CCc3cc(OC)c(OC)c(OC)c3-c3ccc(SC)c(=O)cc32)cc1

>  <score_type>  (10) 
oracle

>  <origin>  (10) 
adg

>  <m_score__min__energy>  (10) 
-7.4299999999999997

>  <m_primary>  (10) 
energy

$$$$
10:0
     RDKit          3D

 44 46  0  0  0  0  0  0  0  0999 V2000
   -0.4660   26.3830  -27.4440 C   0  0  0  0  0  0  0  0  0  0  0  0
   -0.4640   25.3100  -28.3800 O   0  0  0  0  0  0  0  0  0  0  0  0
   -0.7490   23.9710  -28.0620 C   0  0  0  0  0  0  0  0  0  0  0  0
    0.2730   23.0130  -27.9210 C   0  0  0  0  0  0  0  0  0  0  0  0
   -0.0320   21.6890  -27.6100 C   0  0  0  0  0  0  0  0  0  0  0  0
   -1.3620   21.2980  -27.4170 C   0  0  0  0  0  0  0  0  0  0  0  0
   -1.6930   19.8640  -27.1220 C   0  0  0  0  0  0  0  0  0  0  0  0
   -2.3870   22.2400  -27.5700 C   0  0  0  0  0  0  0  0  0  0  0  0
   -2.0950   23.5820  -27.8880 C   0  0  0  0  0  0  0  0  0  0  0  0
   -3.1470   24.5590  -28.0460 N   0  0  0  0  0  0  0  0  0  0  0  0
   -4.5720   24.2310  -28.1360 C   0  0  0  0  0  0  0  0  0  0  0  0
   -4.9270   23.7640  -29.5210 C   0  0  0  0  0  0  0  0  0  0  0  0
   -4.9120   22.4560  -29.9610 C   0  0  0  0  0  0  0  0  0  0  0  0
   -5.2610   22.5370  -31.3020 C   0  0  0  0  0  0  0  0  0  0  0  0
   -5.4080   21.4090  -32.2550 C   0  0  0  0  0  0  0  0  0  0  0  0
   -6.6900   20.9250  -32.5770 C   0  0  0  0  0  0  0  0  0  0  0  0
   -6.8430   19.8620  -33.4730 C   0  0  0  0  0  0  0  0  0  0  0  0
   -5.7220   19.2700  -34.0570 C   0  0  0  0  0  0  0  0  0  0  0  0
   -5.8730   18.2390  -34.9250 F   0  0  0  0  0  0  0  0  0  0  0  0
   -4.4440   19.7410  -33.7450 C   0  0  0  0  0  0  0  0  0  0  0  0
   -4.2850   20.8020  -32.8510 C   0  0  0  0  0  0  0  0  0  0  0  0
   -5.4550   23.8290  -31.6380 N   0  0  0  0  0  0  0  0  0  0  0  0
   -5.2410   24.5650  -30.5600 N   0  0  0  0  0  0  0  0  0  0  0  0
   -5.3600   26.0180  -30.5430 C   0  0  0  0  0  0  0  0  0  0  0  0
   -0.4652   25.9776  -26.4214 H   0  0  0  0  0  0  0  0  0  0  0  0
    0.4310   27.0019  -27.5937 H   0  0  0  0  0  0  0  0  0  0  0  0
   -1.3653   26.9985  -27.5937 H   0  0  0  0  0  0  0  0  0  0  0  0
    1.3226   23.3124  -28.0576 H   0  0  0  0  0  0  0  0  0  0  0  0
    0.7758   20.9484  -27.5159 H   0  0  0  0  0  0  0  0  0  0  0  0
   -1.7280   19.7123  -26.0331 H   0  0  0  0  0  0  0  0  0  0  0  0
   -2.6719   19.6164  -27.5584 H   0  0  0  0  0  0  0  0  0  0  0  0
   -0.9216   19.2124  -27.5584 H   0  0  0  0  0  0  0  0  0  0  0  0
   -3.4340   21.9285  -27.4403 H   0  0  0  0  0  0  0  0  0  0  0  0
   -2.8950   25.5690  -28.1320 H   0  0  0  0  0  0  0  0  0  0  0  0
   -4.8043   23.4327  -27.4158 H   0  0  0  0  0  0  0  0  0  0  0  0
   -5.1565   25.1346  -27.9084 H   0  0  0  0  0  0  0  0  0  0  0  0
   -4.6764   21.5524  -29.3796 H   0  0  0  0  0  0  0  0  0  0  0  0
   -7.5782   21.3863  -32.1205 H   0  0  0  0  0  0  0  0  0  0  0  0
   -7.8493   19.4916  -33.7181 H   0  0  0  0  0  0  0  0  0  0  0  0
   -3.5604   19.2746  -34.2050 H   0  0  0  0  0  0  0  0  0  0  0  0
   -3.2754   21.1665  -32.6104 H   0  0  0  0  0  0  0  0  0  0  0  0
   -5.3889   26.3714  -29.5017 H   0  0  0  0  0  0  0  0  0  0  0  0
   -4.4953   26.4628  -31.0572 H   0  0  0  0  0  0  0  0  0  0  0  0
   -6.2856   26.3161  -31.0572 H   0  0  0  0  0  0  0  0  0  0  0  0
  1  2  1  0
  2  3  1  0
  3  4  2  0
  4  5  1  0
  5  6  2  0
  6  7  1  0
  6  8  1  0
  8  9  2  0
  9 10  1  0
 10 11  1  0
 11 12  1  0
 12 13  2  0
 13 14  1  0
 14 15  1  0
 15 16  2  0
 16 17  1  0
 17 18  2  0
 18 19  1  0
 18 20  1  0
 20 21  2  0
 14 22  2  0
 22 23  1  0
 23 24  1  0
  9  3  1  0
 23 12  1  0
 21 15  1  0
  1 25  1  0
  1 26  1  0
  1 27  1  0
  4 28  1  0
  5 29  1  0
  7 30  1  0
  7 31  1  0
  7 32  1  0
  8 33  1  0
 10 34  1  0
 11 35  1  0
 11 36  1  0
 13 37  1  0
 16 38  1  0
 17 39  1  0
 20 40  1  0
 21 41  1  0
 24 42  1  0
 24 43  1  0
 24 44  1  0
M  END
>  <UniqueID>  (11) 
10

>  <SMILES>  (11) 
COc1ccc(C)cc1NCc1cc(-c2ccc(F)cc2)nn1C

>  <Energy>  (11) 
74.55437326383105

>  <Genealogy>  (11) 
COc1ccc(C)cc1NCc1cc(-c2ccc(F)cc2)nn1C (3D coordinates assigned)
COc1ccc(C)cc1NCc1cc(-c2ccc(F)cc2)nn1C (optimized conformer: 74.55437326383105 kcal/mol)

>  <smiles>  (11) 
COc1ccc(C)cc1NCc1cc(-c2ccc(F)cc2)nn1C

>  <score_type>  (11) 
oracle

>  <origin>  (11) 
adg

>  <m_score__min__energy>  (11) 
-8.1099999999999994

>  <m_primary>  (11) 
energy

$$$$
11:0
     RDKit          3D

 50 52  0  0  0  0  0  0  0  0999 V2000
    2.1570   24.5450  -27.7860 C   0  0  0  0  0  0  0  0  0  0  0  0
    0.7870   24.8890  -27.9730 O   0  0  0  0  0  0  0  0  0  0  0  0
   -0.0780   25.3530  -26.9670 C   0  0  0  0  0  0  0  0  0  0  0  0
    0.3890   25.7440  -25.6950 C   0  0  0  0  0  0  0  0  0  0  0  0
   -0.5020   26.2480  -24.7400 C   0  0  0  0  0  0  0  0  0  0  0  0
   -1.8610   26.3640  -25.0410 C   0  0  0  0  0  0  0  0  0  0  0  0
   -2.3340   25.9690  -26.2930 C   0  0  0  0  0  0  0  0  0  0  0  0
   -1.4530   25.4510  -27.2530 C   0  0  0  0  0  0  0  0  0  0  0  0
   -1.9760   25.0550  -28.4850 O   0  0  0  0  0  0  0  0  0  0  0  0
   -2.2140   23.6880  -28.8100 C   0  0  0  0  0  0  0  0  0  0  0  0
   -2.9020   23.6140  -30.1750 C   0  0  0  0  0  0  0  0  0  0  0  0
   -3.5320   24.8900  -30.5100 N   0  0  0  0  0  0  0  0  0  0  0  0
   -4.8910   25.2690  -30.2430 C   0  0  0  0  0  0  0  0  0  0  0  0
   -5.2420   26.4570  -30.4730 O   0  0  0  0  0  0  0  0  0  0  0  0
   -5.9070   24.3090  -29.6820 C   0  0  0  0  0  0  0  0  0  0  0  0
   -7.2570   24.0050  -30.8750 S   0  0  0  0  0  0  0  0  0  0  0  0
   -6.3840   22.6750  -31.7110 C   0  0  0  0  0  0  0  0  0  0  0  0
   -5.0960   22.7580  -32.0900 N   0  0  0  0  0  0  0  0  0  0  0  0
   -4.7400   21.5930  -32.6040 N   0  0  0  0  0  0  0  0  0  0  0  0
   -5.8390   20.8100  -32.5550 C   0  0  0  0  0  0  0  0  0  0  0  0
   -5.8460   19.4170  -33.0290 C   0  0  0  0  0  0  0  0  0  0  0  0
   -5.6550   19.1340  -34.3940 C   0  0  0  0  0  0  0  0  0  0  0  0
   -5.7050   17.8130  -34.8520 C   0  0  0  0  0  0  0  0  0  0  0  0
   -5.9660   16.7690  -33.9570 C   0  0  0  0  0  0  0  0  0  0  0  0
   -6.1740   17.0450  -32.6020 C   0  0  0  0  0  0  0  0  0  0  0  0
   -6.1160   18.3640  -32.1380 C   0  0  0  0  0  0  0  0  0  0  0  0
   -6.8960   21.4620  -32.0060 N   0  0  0  0  0  0  0  0  0  0  0  0
   -8.1830   20.9060  -31.5820 C   0  0  0  0  0  0  0  0  0  0  0  0
    2.3775   24.4896  -26.7098 H   0  0  0  0  0  0  0  0  0  0  0  0
    2.3568   23.5688  -28.2519 H   0  0  0  0  0  0  0  0  0  0  0  0
    2.7943   25.3110  -28.2519 H   0  0  0  0  0  0  0  0  0  0  0  0
    1.4580   25.6526  -25.4522 H   0  0  0  0  0  0  0  0  0  0  0  0
   -0.1310   26.5533  -23.7505 H   0  0  0  0  0  0  0  0  0  0  0  0
   -2.5582   26.7666  -24.2914 H   0  0  0  0  0  0  0  0  0  0  0  0
   -3.4043   26.0646  -26.5282 H   0  0  0  0  0  0  0  0  0  0  0  0
   -1.2575   23.1461  -28.8490 H   0  0  0  0  0  0  0  0  0  0  0  0
   -2.8569   23.2299  -28.0440 H   0  0  0  0  0  0  0  0  0  0  0  0
   -2.1536   23.3690  -30.9430 H   0  0  0  0  0  0  0  0  0  0  0  0
   -3.6797   22.8370  -30.1356 H   0  0  0  0  0  0  0  0  0  0  0  0
   -5.4103   23.3550  -29.4513 H   0  0  0  0  0  0  0  0  0  0  0  0
   -6.3389   24.7510  -28.7720 H   0  0  0  0  0  0  0  0  0  0  0  0
   -4.4600   23.5770  -31.9720 H   0  0  0  0  0  0  0  0  0  0  0  0
   -5.4659   19.9536  -35.1029 H   0  0  0  0  0  0  0  0  0  0  0  0
   -5.5389   17.5945  -35.9172 H   0  0  0  0  0  0  0  0  0  0  0  0
   -6.0075   15.7313  -34.3195 H   0  0  0  0  0  0  0  0  0  0  0  0
   -6.3834   16.2244  -31.9000 H   0  0  0  0  0  0  0  0  0  0  0  0
   -6.2824   18.5775  -31.0718 H   0  0  0  0  0  0  0  0  0  0  0  0
   -8.2296   20.8859  -30.4832 H   0  0  0  0  0  0  0  0  0  0  0  0
   -8.9992   21.5318  -31.9722 H   0  0  0  0  0  0  0  0  0  0  0  0
   -8.2868   19.8828  -31.9722 H   0  0  0  0  0  0  0  0  0  0  0  0
  1  2  1  0
  2  3  1  0
  3  4  2  0
  4  5  1  0
  5  6  2  0
  6  7  1  0
  7  8  2  0
  8  9  1  0
  9 10  1  0
 10 11  1  0
 11 12  1  0
 12 13  1  0
 13 14  2  0
 13 15  1  0
 15 16  1  0
 16 17  1  0
 17 18  2  0
 18 19  1  0
 19 20  2  0
 20 21  1  0
 21 22  2  0
 22 23  1  0
 23 24  2  0
 24 25  1  0
 25 26  2  0
 20 27  1  0
 27 28  1  0
  8  3  1  0
 27 17  1  0
 26 21  1  0
  1 29  1  0
  1 30  1  0
  1 31  1  0
  4 32  1  0
  5 33  1  0
  6 34  1  0
  7 35  1  0
 10 36  1  0
 10 37  1  0
 11 38  1  0
 11 39  1  0
 15 40  1  0
 15 41  1  0
 18 42  1  0
 22 43  1  0
 23 44  1  0
 24 45  1  0
 25 46  1  0
 26 47  1  0
 28 48  1  0
 28 49  1  0
 28 50  1  0
M  CHG  2  12  -1  18   1
M  END
>  <UniqueID>  (12) 
11

>  <SMILES>  (12) 
COc1ccccc1OCC[N-]C(=O)CSc1[nH+]nc(-c2ccccc2)n1C

>  <Energy>  (12) 
90.24940533673426

>  <Genealogy>  (12) 
COc1ccccc1OCC[N-]C(=O)CSc1[nH+]nc(-c2ccccc2)n1C (protonated)
COc1ccccc1OCC[N-]C(=O)CSc1[nH+]nc(-c2ccccc2)n1C (3D coordinates assigned)
COc1ccccc1OCC[N-]C(=O)CSc1[nH+]nc(-c2ccccc2)n1C (optimized conformer: 90.24940533673426 kcal/mol)

>  <smiles>  (12) 
COc1ccccc1OCCNC(=O)CSc1nnc(-c2ccccc2)n1C

>  <score_type>  (12) 
oracle

>  <origin>  (12) 
adg

>  <m_score__min__energy>  (12) 
-10.460000000000001

>  <m_primary>  (12) 
energy

$$$$
12:0
     RDKit          3D

 36 38  0  0  0  0  0  0  0  0999 V2000
   -9.1100   18.2510  -31.6150 C   0  0  0  0  0  0  0  0  0  0  0  0
   -7.8780   18.8570  -32.1180 N   0  0  0  0  0  0  0  0  0  0  0  0
   -6.9390   18.2780  -32.9080 C   0  0  0  0  0  0  0  0  0  0  0  0
   -6.8990   16.9600  -33.3770 C   0  0  0  0  0  0  0  0  0  0  0  0
   -5.8220   16.5820  -34.2010 C   0  0  0  0  0  0  0  0  0  0  0  0
   -4.8180   17.5140  -34.5430 C   0  0  0  0  0  0  0  0  0  0  0  0
   -4.8800   18.8370  -34.0710 C   0  0  0  0  0  0  0  0  0  0  0  0
   -5.9550   19.1840  -33.2550 C   0  0  0  0  0  0  0  0  0  0  0  0
   -6.3070   20.3800  -32.6730 C   0  0  0  0  0  0  0  0  0  0  0  0
   -5.7000   21.6340  -32.7080 C   0  0  0  0  0  0  0  0  0  0  0  0
   -6.3320   22.7010  -32.0260 C   0  0  0  0  0  0  0  0  0  0  0  0
   -5.7720   24.0290  -32.0080 N   0  0  0  0  0  0  0  0  0  0  0  0
   -5.8040   24.9310  -30.8570 C   0  0  0  0  0  0  0  0  0  0  0  0
   -4.9150   24.3960  -29.7270 C   0  0  0  0  0  0  0  0  0  0  0  0
   -5.3680   24.8900  -28.4270 N   0  0  0  0  0  0  0  0  0  0  0  0
   -7.5470   22.4620  -31.3350 C   0  0  0  0  0  0  0  0  0  0  0  0
   -8.1370   21.1850  -31.3190 C   0  0  0  0  0  0  0  0  0  0  0  0
   -7.4880   20.1510  -31.9980 C   0  0  0  0  0  0  0  0  0  0  0  0
   -9.0988   18.2565  -30.5151 H   0  0  0  0  0  0  0  0  0  0  0  0
   -9.9754   18.8262  -31.9758 H   0  0  0  0  0  0  0  0  0  0  0  0
   -9.1826   17.2144  -31.9758 H   0  0  0  0  0  0  0  0  0  0  0  0
   -7.6865   16.2401  -33.1094 H   0  0  0  0  0  0  0  0  0  0  0  0
   -5.7621   15.5517  -34.5817 H   0  0  0  0  0  0  0  0  0  0  0  0
   -3.9802   17.2024  -35.1841 H   0  0  0  0  0  0  0  0  0  0  0  0
   -4.1066   19.5727  -34.3367 H   0  0  0  0  0  0  0  0  0  0  0  0
   -4.7560   21.7901  -33.2506 H   0  0  0  0  0  0  0  0  0  0  0  0
   -5.3230   24.3890  -32.8810 H   0  0  0  0  0  0  0  0  0  0  0  0
   -5.4403   25.9225  -31.1645 H   0  0  0  0  0  0  0  0  0  0  0  0
   -6.8388   25.0021  -30.4908 H   0  0  0  0  0  0  0  0  0  0  0  0
   -4.9542   23.2967  -29.7279 H   0  0  0  0  0  0  0  0  0  0  0  0
   -3.8853   24.7443  -29.8955 H   0  0  0  0  0  0  0  0  0  0  0  0
   -4.7490   25.6680  -28.1020 H   0  0  0  0  0  0  0  0  0  0  0  0
   -6.3550   25.2290  -28.4970 H   0  0  0  0  0  0  0  0  0  0  0  0
   -5.3260   24.1100  -27.7320 H   0  0  0  0  0  0  0  0  0  0  0  0
   -8.0370   23.2900  -30.8019 H   0  0  0  0  0  0  0  0  0  0  0  0
   -9.0828   21.0057  -30.7868 H   0  0  0  0  0  0  0  0  0  0  0  0
  1  2  1  0
  2  3  1  0
  3  4  2  0
  4  5  1  0
  5  6  2  0
  6  7  1  0
  7  8  2  0
  8  9  1  0
  9 10  2  0
 10 11  1  0
 11 12  1  0
 12 13  1  0
 13 14  1  0
 14 15  1  0
 11 16  2  0
 16 17  1  0
 17 18  2  0
 18  2  1  0
  8  3  1  0
 18  9  1  0
  1 19  1  0
  1 20  1  0
  1 21  1  0
  4 22  1  0
  5 23  1  0
  6 24  1  0
  7 25  1  0
 10 26  1  0
 12 27  1  0
 13 28  1  0
 13 29  1  0
 14 30  1  0
 14 31  1  0
 15 32  1  0
 15 33  1  0
 15 34  1  0
 16 35  1  0
 17 36  1  0
M  CHG  1  15   1
M  END
>  <UniqueID>  (13) 
12

>  <SMILES>  (13) 
Cn1c2ccccc2c2cc(NCC[NH3+])ccc21

>  <Energy>  (13) 
76.01853708152865

>  <Genealogy>  (13) 
Cn1c2ccccc2c2cc(NCC[NH3+])ccc21 (protonated)
Cn1c2ccccc2c2cc(NCC[NH3+])ccc21 (3D coordinates assigned)
Cn1c2ccccc2c2cc(NCC[NH3+])ccc21 (optimized conformer: 76.01853708152865 kcal/mol)

>  <smiles>  (13) 
Cn1c2ccccc2c2cc(NCCN)ccc21

>  <score_type>  (13) 
oracle

>  <origin>  (13) 
adg

>  <m_score__min__energy>  (13) 
-7.6299999999999999

>  <m_primary>  (13) 
energy

$$$$
13:0
     RDKit          3D

 65 67  0  0  0  0  0  0  0  0999 V2000
   -3.1840   18.6910  -25.9780 C   0  0  0  0  0  0  0  0  0  0  0  0
   -2.0130   19.0650  -26.8950 C   0  0  0  0  0  0  0  0  0  0  0  0
   -1.9630   20.5140  -27.2310 N   0  0  0  0  0  0  0  0  0  0  0  0
   -1.1940   21.2360  -26.1860 C   0  0  0  0  0  0  0  0  0  0  0  0
   -0.2900   22.3370  -26.7530 C   0  0  0  0  0  0  0  0  0  0  0  0
   -3.3030   21.1080  -27.5000 C   0  0  0  0  0  0  0  0  0  0  0  0
   -3.3960   21.9550  -28.7870 C   0  0  0  0  0  0  0  0  0  0  0  0
   -2.1040   21.9320  -29.4870 N   0  0  0  0  0  0  0  0  0  0  0  0
   -2.1440   21.0640  -30.6720 C   0  0  0  0  0  0  0  0  0  0  0  0
   -2.2910   21.9250  -31.9300 C   0  0  0  0  0  0  0  0  0  0  0  0
   -2.8880   21.1440  -33.1060 C   0  0  0  0  0  0  0  0  0  0  0  0
   -4.2520   21.5880  -33.4080 N   0  0  0  0  0  0  0  0  0  0  0  0
   -5.3970   20.8060  -33.0160 C   0  0  0  0  0  0  0  0  0  0  0  0
   -5.4440   19.4380  -33.3480 C   0  0  0  0  0  0  0  0  0  0  0  0
   -4.3310   18.7960  -33.9350 C   0  0  0  0  0  0  0  0  0  0  0  0
   -4.4040   17.4670  -34.3440 C   0  0  0  0  0  0  0  0  0  0  0  0
   -5.5840   16.7560  -34.1830 C   0  0  0  0  0  0  0  0  0  0  0  0
   -6.6890   17.3580  -33.5800 C   0  0  0  0  0  0  0  0  0  0  0  0
   -6.6310   18.6980  -33.1120 C   0  0  0  0  0  0  0  0  0  0  0  0
   -7.7010   19.2880  -32.4710 N   0  0  0  0  0  0  0  0  0  0  0  0
   -8.8220   18.4510  -31.9840 C   0  0  0  0  0  0  0  0  0  0  0  0
   -7.7080   20.6510  -32.2370 C   0  0  0  0  0  0  0  0  0  0  0  0
   -8.8880   21.3190  -31.8320 C   0  0  0  0  0  0  0  0  0  0  0  0
   -8.8740   22.6680  -31.4990 C   0  0  0  0  0  0  0  0  0  0  0  0
   -7.6890   23.3850  -31.5430 C   0  0  0  0  0  0  0  0  0  0  0  0
   -6.5000   22.7790  -31.9810 C   0  0  0  0  0  0  0  0  0  0  0  0
   -5.2900   23.4940  -31.9640 O   0  0  0  0  0  0  0  0  0  0  0  0
   -4.7890   24.2350  -30.8560 C   0  0  0  0  0  0  0  0  0  0  0  0
   -6.5230   21.4220  -32.4180 C   0  0  0  0  0  0  0  0  0  0  0  0
   -2.8733   18.7902  -24.9275 H   0  0  0  0  0  0  0  0  0  0  0  0
   -4.0326   19.3628  -26.1744 H   0  0  0  0  0  0  0  0  0  0  0  0
   -3.4861   17.6517  -26.1744 H   0  0  0  0  0  0  0  0  0  0  0  0
   -1.0744   18.7917  -26.3906 H   0  0  0  0  0  0  0  0  0  0  0  0
   -2.1531   18.5180  -27.8390 H   0  0  0  0  0  0  0  0  0  0  0  0
   -1.4140   20.5940  -28.1210 H   0  0  0  0  0  0  0  0  0  0  0  0
   -1.9050   21.6950  -25.4833 H   0  0  0  0  0  0  0  0  0  0  0  0
   -0.5422   20.4998  -25.6929 H   0  0  0  0  0  0  0  0  0  0  0  0
    0.1695   22.8967  -25.9250 H   0  0  0  0  0  0  0  0  0  0  0  0
    0.4986   21.8822  -27.3704 H   0  0  0  0  0  0  0  0  0  0  0  0
   -0.8896   23.0220  -27.3704 H   0  0  0  0  0  0  0  0  0  0  0  0
   -4.0304   20.2867  -27.5790 H   0  0  0  0  0  0  0  0  0  0  0  0
   -3.5075   21.7946  -26.6653 H   0  0  0  0  0  0  0  0  0  0  0  0
   -4.1752   21.5397  -29.4430 H   0  0  0  0  0  0  0  0  0  0  0  0
   -3.6504   22.9923  -28.5239 H   0  0  0  0  0  0  0  0  0  0  0  0
   -1.8890   22.9040  -29.8120 H   0  0  0  0  0  0  0  0  0  0  0  0
   -1.2122   20.4825  -30.7323 H   0  0  0  0  0  0  0  0  0  0  0  0
   -3.0000   20.3774  -30.5952 H   0  0  0  0  0  0  0  0  0  0  0  0
   -2.9491   22.7761  -31.7007 H   0  0  0  0  0  0  0  0  0  0  0  0
   -1.2862   22.2608  -32.2259 H   0  0  0  0  0  0  0  0  0  0  0  0
   -2.2572   21.2973  -33.9940 H   0  0  0  0  0  0  0  0  0  0  0  0
   -2.9243   20.0796  -32.8308 H   0  0  0  0  0  0  0  0  0  0  0  0
   -4.4000   22.5710  -33.7300 H   0  0  0  0  0  0  0  0  0  0  0  0
   -3.3929   19.3541  -34.0710 H   0  0  0  0  0  0  0  0  0  0  0  0
   -3.5261   16.9811  -34.7947 H   0  0  0  0  0  0  0  0  0  0  0  0
   -5.6489   15.7147  -34.5316 H   0  0  0  0  0  0  0  0  0  0  0  0
   -7.6210   16.7851  -33.4651 H   0  0  0  0  0  0  0  0  0  0  0  0
   -8.8263   18.4478  -30.8840 H   0  0  0  0  0  0  0  0  0  0  0  0
   -9.7734   18.8615  -32.3532 H   0  0  0  0  0  0  0  0  0  0  0  0
   -8.6987   17.4222  -32.3532 H   0  0  0  0  0  0  0  0  0  0  0  0
   -9.8339   20.7599  -31.7798 H   0  0  0  0  0  0  0  0  0  0  0  0
   -9.8067   23.1684  -31.1995 H   0  0  0  0  0  0  0  0  0  0  0  0
   -7.6794   24.4400  -31.2316 H   0  0  0  0  0  0  0  0  0  0  0  0
   -5.1120   23.7573  -29.9193 H   0  0  0  0  0  0  0  0  0  0  0  0
   -3.6900   24.2570  -30.8964 H   0  0  0  0  0  0  0  0  0  0  0  0
   -5.1780   25.2631  -30.8964 H   0  0  0  0  0  0  0  0  0  0  0  0
  1  2  1  0
  2  3  1  0
  3  4  1  0
  4  5  1  0
  3  6  1  0
  6  7  1  0
  7  8  1  0
  8  9  1  0
  9 10  1  0
 10 11  1  0
 11 12  1  0
 12 13  1  0
 13 14  2  0
 14 15  1  0
 15 16  2  0
 16 17  1  0
 17 18  2  0
 18 19  1  0
 19 20  2  0
 20 21  1  0
 20 22  1  0
 22 23  2  0
 23 24  1  0
 24 25  2  0
 25 26  1  0
 26 27  1  0
 27 28  1  0
 26 29  2  0
 29 13  1  0
 19 14  1  0
 29 22  1  0
  1 30  1  0
  1 31  1  0
  1 32  1  0
  2 33  1  0
  2 34  1  0
  3 35  1  0
  4 36  1  0
  4 37  1  0
  5 38  1  0
  5 39  1  0
  5 40  1  0
  6 41  1  0
  6 42  1  0
  7 43  1  0
  7 44  1  0
  8 45  1  0
  9 46  1  0
  9 47  1  0
 10 48  1  0
 10 49  1  0
 11 50  1  0
 11 51  1  0
 12 52  1  0
 15 53  1  0
 16 54  1  0
 17 55  1  0
 18 56  1  0
 21 57  1  0
 21 58  1  0
 21 59  1  0
 23 60  1  0
 24 61  1  0
 25 62  1  0
 28 63  1  0
 28 64  1  0
 28 65  1  0
M  CHG  2   3   1  20   1
M  END
>  <UniqueID>  (14) 
13

>  <SMILES>  (14) 
CC[NH+](CC)CCNCCCNc1c2ccccc2[n+](C)c2cccc(OC)c12

>  <Energy>  (14) 
92.56744749845494

>  <Genealogy>  (14) 
CC[NH+](CC)CCNCCCNc1c2ccccc2[n+](C)c2cccc(OC)c12 (protonated)
CC[NH+](CC)CCNCCCNc1c2ccccc2[n+](C)c2cccc(OC)c12 (3D coordinates assigned)
CC[NH+](CC)CCNCCCNc1c2ccccc2[n+](C)c2cccc(OC)c12 (optimized conformer: 92.56744749845494 kcal/mol)

>  <smiles>  (14) 
CCN(CC)CCNCCCNc1c2ccccc2[n+](C)c2cccc(OC)c12

>  <score_type>  (14) 
oracle

>  <origin>  (14) 
adg

>  <m_score__min__energy>  (14) 
-7.1500000000000004

>  <m_primary>  (14) 
energy

$$$$
14:0
     RDKit          3D

 51 53  0  0  0  0  0  0  0  0999 V2000
   -6.1010   25.3720  -29.3550 C   0  0  0  0  0  0  0  0  0  0  0  0
   -5.6120   25.3470  -30.7990 C   0  0  0  0  0  0  0  0  0  0  0  0
   -4.1470   25.4220  -30.8370 N   0  0  0  0  0  0  0  0  0  0  0  0
   -3.5610   24.6300  -29.7500 C   0  0  0  0  0  0  0  0  0  0  0  0
   -2.9900   23.3140  -30.2870 C   0  0  0  0  0  0  0  0  0  0  0  0
   -3.8770   21.8520  -29.6270 S   0  0  0  0  0  0  0  0  0  0  0  0
   -3.8140   20.8460  -31.1500 C   0  0  0  0  0  0  0  0  0  0  0  0
   -3.4180   21.7220  -32.3400 C   0  0  0  0  0  0  0  0  0  0  0  0
   -4.4920   21.8240  -33.3510 N   0  0  0  0  0  0  0  0  0  0  0  0
   -5.6150   20.9370  -33.0660 C   0  0  0  0  0  0  0  0  0  0  0  0
   -6.8350   21.4350  -32.5200 C   0  0  0  0  0  0  0  0  0  0  0  0
   -7.0500   22.8170  -32.2790 C   0  0  0  0  0  0  0  0  0  0  0  0
   -8.2750   23.2870  -31.8120 C   0  0  0  0  0  0  0  0  0  0  0  0
   -9.3180   22.4060  -31.5830 C   0  0  0  0  0  0  0  0  0  0  0  0
   -9.1330   21.0420  -31.7810 C   0  0  0  0  0  0  0  0  0  0  0  0
   -7.8840   20.5220  -32.2080 C   0  0  0  0  0  0  0  0  0  0  0  0
   -7.6860   19.1630  -32.3300 N   0  0  0  0  0  0  0  0  0  0  0  0
   -8.6290   18.2190  -31.6870 C   0  0  0  0  0  0  0  0  0  0  0  0
   -6.5970   18.6810  -33.0260 C   0  0  0  0  0  0  0  0  0  0  0  0
   -6.5240   17.3200  -33.4200 C   0  0  0  0  0  0  0  0  0  0  0  0
   -5.4030   16.8160  -34.0700 C   0  0  0  0  0  0  0  0  0  0  0  0
   -4.3320   17.6490  -34.3580 C   0  0  0  0  0  0  0  0  0  0  0  0
   -3.2400   17.1530  -34.9910 F   0  0  0  0  0  0  0  0  0  0  0  0
   -4.3890   18.9990  -34.0210 C   0  0  0  0  0  0  0  0  0  0  0  0
   -5.5260   19.5500  -33.3730 C   0  0  0  0  0  0  0  0  0  0  0  0
   -5.2377   25.3279  -28.6747 H   0  0  0  0  0  0  0  0  0  0  0  0
   -6.6632   26.3001  -29.1743 H   0  0  0  0  0  0  0  0  0  0  0  0
   -6.7549   24.5061  -29.1743 H   0  0  0  0  0  0  0  0  0  0  0  0
   -5.9410   24.4132  -31.2783 H   0  0  0  0  0  0  0  0  0  0  0  0
   -6.0306   26.2111  -31.3357 H   0  0  0  0  0  0  0  0  0  0  0  0
   -3.8690   26.4230  -30.6900 H   0  0  0  0  0  0  0  0  0  0  0  0
   -2.7534   25.2078  -29.2769 H   0  0  0  0  0  0  0  0  0  0  0  0
   -4.3470   24.4012  -29.0153 H   0  0  0  0  0  0  0  0  0  0  0  0
   -3.0735   23.3133  -31.3838 H   0  0  0  0  0  0  0  0  0  0  0  0
   -1.9405   23.2454  -29.9646 H   0  0  0  0  0  0  0  0  0  0  0  0
   -3.0722   20.0433  -31.0259 H   0  0  0  0  0  0  0  0  0  0  0  0
   -4.8070   20.4110  -31.3366 H   0  0  0  0  0  0  0  0  0  0  0  0
   -3.1831   22.7316  -31.9719 H   0  0  0  0  0  0  0  0  0  0  0  0
   -2.5475   21.2548  -32.8236 H   0  0  0  0  0  0  0  0  0  0  0  0
   -4.8320   22.8120  -33.3870 H   0  0  0  0  0  0  0  0  0  0  0  0
   -4.1050   21.6960  -34.3090 H   0  0  0  0  0  0  0  0  0  0  0  0
   -6.2336   23.5305  -32.4646 H   0  0  0  0  0  0  0  0  0  0  0  0
   -8.4143   24.3619  -31.6245 H   0  0  0  0  0  0  0  0  0  0  0  0
  -10.2935   22.7850  -31.2443 H   0  0  0  0  0  0  0  0  0  0  0  0
   -9.9716   20.3527  -31.6030 H   0  0  0  0  0  0  0  0  0  0  0  0
   -8.5443   18.3038  -30.5936 H   0  0  0  0  0  0  0  0  0  0  0  0
   -9.6570   18.4608  -31.9950 H   0  0  0  0  0  0  0  0  0  0  0  0
   -8.3861   17.1913  -31.9950 H   0  0  0  0  0  0  0  0  0  0  0  0
   -7.3706   16.6507  -33.2071 H   0  0  0  0  0  0  0  0  0  0  0  0
   -5.3654   15.7546  -34.3564 H   0  0  0  0  0  0  0  0  0  0  0  0
   -3.5365   19.6513  -34.2615 H   0  0  0  0  0  0  0  0  0  0  0  0
  1  2  1  0
  2  3  1  0
  3  4  1  0
  4  5  1  0
  5  6  1  0
  6  7  1  0
  7  8  1  0
  8  9  1  0
  9 10  1  0
 10 11  2  0
 11 12  1  0
 12 13  2  0
 13 14  1  0
 14 15  2  0
 15 16  1  0
 16 17  2  0
 17 18  1  0
 17 19  1  0
 19 20  2  0
 20 21  1  0
 21 22  2  0
 22 23  1  0
 22 24  1  0
 24 25  2  0
 25 10  1  0
 16 11  1  0
 25 19  1  0
  1 26  1  0
  1 27  1  0
  1 28  1  0
  2 29  1  0
  2 30  1  0
  3 31  1  0
  4 32  1  0
  4 33  1  0
  5 34  1  0
  5 35  1  0
  7 36  1  0
  7 37  1  0
  8 38  1  0
  8 39  1  0
  9 40  1  0
  9 41  1  0
 12 42  1  0
 13 43  1  0
 14 44  1  0
 15 45  1  0
 18 46  1  0
 18 47  1  0
 18 48  1  0
 20 49  1  0
 21 50  1  0
 24 51  1  0
M  CHG  2   9   1  17   1
M  END
>  <UniqueID>  (15) 
14

>  <SMILES>  (15) 
CCNCCSCC[NH2+]c1c2ccccc2[n+](C)c2ccc(F)cc12

>  <Energy>  (15) 
70.62503436201332

>  <Genealogy>  (15) 
CCNCCSCC[NH2+]c1c2ccccc2[n+](C)c2ccc(F)cc12 (protonated)
CCNCCSCC[NH2+]c1c2ccccc2[n+](C)c2ccc(F)cc12 (3D coordinates assigned)
CCNCCSCC[NH2+]c1c2ccccc2[n+](C)c2ccc(F)cc12 (optimized conformer: 70.62503436201332 kcal/mol)

>  <smiles>  (15) 
CCNCCSCCNc1c2ccccc2[n+](C)c2ccc(F)cc12

>  <score_type>  (15) 
oracle

>  <origin>  (15) 
adg

>  <m_score__min__energy>  (15) 
-8.6199999999999992

>  <m_primary>  (15) 
energy

$$$$
15:0
     RDKit          3D

 39 41  0  0  0  0  0  0  0  0999 V2000
   -5.7340   18.1230  -34.9420 C   0  0  0  0  0  0  0  0  0  0  0  0
   -6.4700   17.0380  -34.1630 C   0  0  0  0  0  0  0  0  0  0  0  0
   -6.8500   17.5100  -32.8710 O   0  0  0  0  0  0  0  0  0  0  0  0
   -7.3510   18.7930  -32.5710 C   0  0  0  0  0  0  0  0  0  0  0  0
   -8.7140   19.1020  -32.7080 C   0  0  0  0  0  0  0  0  0  0  0  0
   -9.1810   20.3770  -32.4080 C   0  0  0  0  0  0  0  0  0  0  0  0
   -8.3050   21.3680  -31.9700 C   0  0  0  0  0  0  0  0  0  0  0  0
   -6.9230   21.1030  -31.8220 C   0  0  0  0  0  0  0  0  0  0  0  0
   -6.4550   19.7950  -32.1310 C   0  0  0  0  0  0  0  0  0  0  0  0
   -5.0910   19.5070  -31.9930 C   0  0  0  0  0  0  0  0  0  0  0  0
   -4.2210   20.4550  -31.5710 N   0  0  0  0  0  0  0  0  0  0  0  0
   -4.6220   21.7190  -31.2640 C   0  0  0  0  0  0  0  0  0  0  0  0
   -3.6710   22.6550  -30.8330 C   0  0  0  0  0  0  0  0  0  0  0  0
   -4.0470   23.9660  -30.5070 C   0  0  0  0  0  0  0  0  0  0  0  0
   -3.1150   24.9230  -30.0730 O   0  0  0  0  0  0  0  0  0  0  0  0
   -2.2520   24.7630  -28.9520 C   0  0  0  0  0  0  0  0  0  0  0  0
   -5.3880   24.3470  -30.6150 C   0  0  0  0  0  0  0  0  0  0  0  0
   -5.7270   25.6690  -30.2800 O   0  0  0  0  0  0  0  0  0  0  0  0
   -6.4970   26.0480  -29.1440 C   0  0  0  0  0  0  0  0  0  0  0  0
   -6.3490   23.4140  -31.0460 C   0  0  0  0  0  0  0  0  0  0  0  0
   -5.9860   22.0860  -31.3790 C   0  0  0  0  0  0  0  0  0  0  0  0
   -5.2597   18.8223  -34.2377 H   0  0  0  0  0  0  0  0  0  0  0  0
   -4.9625   17.6605  -35.5751 H   0  0  0  0  0  0  0  0  0  0  0  0
   -6.4490   18.6689  -35.5751 H   0  0  0  0  0  0  0  0  0  0  0  0
   -7.3724   16.7441  -34.7192 H   0  0  0  0  0  0  0  0  0  0  0  0
   -5.7981   16.1759  -34.0395 H   0  0  0  0  0  0  0  0  0  0  0  0
   -9.4169   18.3303  -33.0549 H   0  0  0  0  0  0  0  0  0  0  0  0
  -10.2515   20.6052  -32.5175 H   0  0  0  0  0  0  0  0  0  0  0  0
   -8.6932   22.3703  -31.7360 H   0  0  0  0  0  0  0  0  0  0  0  0
   -4.7221   18.4983  -32.2304 H   0  0  0  0  0  0  0  0  0  0  0  0
   -3.2130   20.1880  -31.4840 H   0  0  0  0  0  0  0  0  0  0  0  0
   -2.6155   22.3568  -30.7495 H   0  0  0  0  0  0  0  0  0  0  0  0
   -2.8326   24.8707  -28.0240 H   0  0  0  0  0  0  0  0  0  0  0  0
   -1.7920   23.7643  -28.9830 H   0  0  0  0  0  0  0  0  0  0  0  0
   -1.4646   25.5305  -28.9830 H   0  0  0  0  0  0  0  0  0  0  0  0
   -5.9529   25.7802  -28.2263 H   0  0  0  0  0  0  0  0  0  0  0  0
   -6.6699   27.1341  -29.1640 H   0  0  0  0  0  0  0  0  0  0  0  0
   -7.4632   25.5225  -29.1640 H   0  0  0  0  0  0  0  0  0  0  0  0
   -7.4021   23.7217  -31.1258 H   0  0  0  0  0  0  0  0  0  0  0  0
  1  2  1  0
  2  3  1  0
  3  4  1  0
  4  5  2  0
  5  6  1  0
  6  7  2  0
  7  8  1  0
  8  9  2  0
  9 10  1  0
 10 11  2  0
 11 12  1  0
 12 13  2  0
 13 14  1  0
 14 15  1  0
 15 16  1  0
 14 17  2  0
 17 18  1  0
 18 19  1  0
 17 20  1  0
 20 21  2  0
  9  4  1  0
 21 12  1  0
 21  8  1  0
  1 22  1  0
  1 23  1  0
  1 24  1  0
  2 25  1  0
  2 26  1  0
  5 27  1  0
  6 28  1  0
  7 29  1  0
 10 30  1  0
 11 31  1  0
 13 32  1  0
 16 33  1  0
 16 34  1  0
 16 35  1  0
 19 36  1  0
 19 37  1  0
 19 38  1  0
 20 39  1  0
M  CHG  1  11   1
M  END
>  <UniqueID>  (16) 
15

>  <SMILES>  (16) 
CCOc1cccc2c1c[nH+]c1cc(OC)c(OC)cc12

>  <Energy>  (16) 
50.68162106343909

>  <Genealogy>  (16) 
CCOc1cccc2c1c[nH+]c1cc(OC)c(OC)cc12 (protonated)
CCOc1cccc2c1c[nH+]c1cc(OC)c(OC)cc12 (3D coordinates assigned)
CCOc1cccc2c1c[nH+]c1cc(OC)c(OC)cc12 (optimized conformer: 50.68162106343909 kcal/mol)

>  <smiles>  (16) 
CCOc1cccc2c1cnc1cc(OC)c(OC)cc12

>  <score_type>  (16) 
oracle

>  <origin>  (16) 
adg

>  <m_score__min__energy>  (16) 
-6.9000000000000004

>  <m_primary>  (16) 
energy

$$$$
16:0
     RDKit          3D

 54 55  0  0  0  0  0  0  0  0999 V2000
   -5.8080   25.5200  -30.0700 C   0  0  0  0  0  0  0  0  0  0  0  0
   -5.4210   24.5940  -31.2210 C   0  0  0  0  0  0  0  0  0  0  0  0
   -4.2320   23.8060  -30.8650 N   0  0  0  0  0  0  0  0  0  0  0  0
   -3.8460   24.0200  -29.4630 C   0  0  0  0  0  0  0  0  0  0  0  0
   -4.1510   22.7670  -28.6420 C   0  0  0  0  0  0  0  0  0  0  0  0
   -3.8670   21.6030  -29.3960 O   0  0  0  0  0  0  0  0  0  0  0  0
   -2.8280   20.8580  -28.7940 C   0  0  0  0  0  0  0  0  0  0  0  0
   -1.5280   21.0670  -29.5680 C   0  0  0  0  0  0  0  0  0  0  0  0
   -1.7130   22.0110  -30.6070 O   0  0  0  0  0  0  0  0  0  0  0  0
   -1.0490   21.6220  -31.7950 C   0  0  0  0  0  0  0  0  0  0  0  0
   -2.0530   21.2740  -32.8950 C   0  0  0  0  0  0  0  0  0  0  0  0
   -3.4100   21.2140  -32.3500 N   0  0  0  0  0  0  0  0  0  0  0  0
   -4.4420   20.3190  -32.8170 C   0  0  0  0  0  0  0  0  0  0  0  0
   -4.1580   19.3070  -33.7560 C   0  0  0  0  0  0  0  0  0  0  0  0
   -5.1700   18.4450  -34.2200 C   0  0  0  0  0  0  0  0  0  0  0  0
   -4.9200   17.4280  -35.1530 O   0  0  0  0  0  0  0  0  0  0  0  0
   -3.8550   16.4880  -35.0550 C   0  0  0  0  0  0  0  0  0  0  0  0
   -6.4750   18.6000  -33.7450 C   0  0  0  0  0  0  0  0  0  0  0  0
   -6.7810   19.6060  -32.8210 C   0  0  0  0  0  0  0  0  0  0  0  0
   -8.0870   19.7690  -32.3400 C   0  0  0  0  0  0  0  0  0  0  0  0
   -8.3680   20.7740  -31.4160 C   0  0  0  0  0  0  0  0  0  0  0  0
   -7.3390   21.6170  -30.9790 C   0  0  0  0  0  0  0  0  0  0  0  0
   -7.6140   22.6920  -29.9780 C   0  0  0  0  0  0  0  0  0  0  0  0
   -6.0750   21.4420  -31.4530 N   0  0  0  0  0  0  0  0  0  0  0  0
   -5.7650   20.4720  -32.3580 C   0  0  0  0  0  0  0  0  0  0  0  0
   -5.5995   25.0211  -29.1121 H   0  0  0  0  0  0  0  0  0  0  0  0
   -5.2229   26.4493  -30.1344 H   0  0  0  0  0  0  0  0  0  0  0  0
   -6.8803   25.7566  -30.1344 H   0  0  0  0  0  0  0  0  0  0  0  0
   -6.2573   23.9122  -31.4350 H   0  0  0  0  0  0  0  0  0  0  0  0
   -5.1940   25.2026  -32.1087 H   0  0  0  0  0  0  0  0  0  0  0  0
   -4.4790   22.7940  -30.9710 H   0  0  0  0  0  0  0  0  0  0  0  0
   -2.7690   24.2373  -29.4104 H   0  0  0  0  0  0  0  0  0  0  0  0
   -4.4168   24.8675  -29.0557 H   0  0  0  0  0  0  0  0  0  0  0  0
   -3.5323   22.7699  -27.7325 H   0  0  0  0  0  0  0  0  0  0  0  0
   -5.2176   22.7670  -28.3729 H   0  0  0  0  0  0  0  0  0  0  0  0
   -2.6927   21.1931  -27.7551 H   0  0  0  0  0  0  0  0  0  0  0  0
   -3.0914   19.7901  -28.8069 H   0  0  0  0  0  0  0  0  0  0  0  0
   -0.7525   21.4342  -28.8797 H   0  0  0  0  0  0  0  0  0  0  0  0
   -1.2207   20.1080  -30.0106 H   0  0  0  0  0  0  0  0  0  0  0  0
   -0.4116   22.4501  -32.1385 H   0  0  0  0  0  0  0  0  0  0  0  0
   -0.4407   20.7308  -31.5809 H   0  0  0  0  0  0  0  0  0  0  0  0
   -2.0117   22.0439  -33.6796 H   0  0  0  0  0  0  0  0  0  0  0  0
   -1.7943   20.2907  -33.3147 H   0  0  0  0  0  0  0  0  0  0  0  0
   -3.6120   21.8290  -31.5290 H   0  0  0  0  0  0  0  0  0  0  0  0
   -3.1309   19.1889  -34.1318 H   0  0  0  0  0  0  0  0  0  0  0  0
   -3.6343   16.2932  -33.9951 H   0  0  0  0  0  0  0  0  0  0  0  0
   -4.1483   15.5489  -35.5471 H   0  0  0  0  0  0  0  0  0  0  0  0
   -2.9597   16.8957  -35.5471 H   0  0  0  0  0  0  0  0  0  0  0  0
   -7.2684   17.9259  -34.1001 H   0  0  0  0  0  0  0  0  0  0  0  0
   -8.8899   19.1043  -32.6914 H   0  0  0  0  0  0  0  0  0  0  0  0
   -9.3909   20.9039  -31.0328 H   0  0  0  0  0  0  0  0  0  0  0  0
   -7.5093   22.2828  -28.9623 H   0  0  0  0  0  0  0  0  0  0  0  0
   -6.8974   23.5149  -30.1174 H   0  0  0  0  0  0  0  0  0  0  0  0
   -8.6377   23.0697  -30.1174 H   0  0  0  0  0  0  0  0  0  0  0  0
  1  2  1  0
  2  3  1  0
  3  4  1  0
  4  5  1  0
  5  6  1  0
  6  7  1  0
  7  8  1  0
  8  9  1  0
  9 10  1  0
 10 11  1  0
 11 12  1  0
 12 13  1  0
 13 14  2  0
 14 15  1  0
 15 16  1  0
 16 17  1  0
 15 18  2  0
 18 19  1  0
 19 20  2  0
 20 21  1  0
 21 22  2  0
 22 23  1  0
 22 24  1  0
 24 25  2  0
 25 13  1  0
 25 19  1  0
  1 26  1  0
  1 27  1  0
  1 28  1  0
  2 29  1  0
  2 30  1  0
  3 31  1  0
  4 32  1  0
  4 33  1  0
  5 34  1  0
  5 35  1  0
  7 36  1  0
  7 37  1  0
  8 38  1  0
  8 39  1  0
 10 40  1  0
 10 41  1  0
 11 42  1  0
 11 43  1  0
 12 44  1  0
 14 45  1  0
 17 46  1  0
 17 47  1  0
 17 48  1  0
 18 49  1  0
 20 50  1  0
 21 51  1  0
 23 52  1  0
 23 53  1  0
 23 54  1  0
M  END
>  <UniqueID>  (17) 
16

>  <SMILES>  (17) 
CCNCCOCCOCCNc1cc(OC)cc2ccc(C)nc12

>  <Energy>  (17) 
52.81421158534217

>  <Genealogy>  (17) 
CCNCCOCCOCCNc1cc(OC)cc2ccc(C)nc12 (3D coordinates assigned)
CCNCCOCCOCCNc1cc(OC)cc2ccc(C)nc12 (optimized conformer: 52.81421158534217 kcal/mol)

>  <smiles>  (17) 
CCNCCOCCOCCNc1cc(OC)cc2ccc(C)nc12

>  <score_type>  (17) 
oracle

>  <origin>  (17) 
adg

>  <m_score__min__energy>  (17) 
-7.6399999999999997

>  <m_primary>  (17) 
energy

$$$$
17:0
     RDKit          3D

 60 62  0  0  0  0  0  0  0  0999 V2000
   -3.4280   18.5600  -25.9680 C   0  0  0  0  0  0  0  0  0  0  0  0
   -2.4080   18.9740  -27.0280 C   0  0  0  0  0  0  0  0  0  0  0  0
   -1.7520   20.3260  -26.6720 C   0  0  0  0  0  0  0  0  0  0  0  0
   -1.6800   21.2420  -27.8450 N   0  0  2  0  0  0  0  0  0  0  0  0
   -0.7800   22.3980  -27.5710 C   0  0  0  0  0  0  0  0  0  0  0  0
   -0.9730   23.5920  -28.5200 C   0  0  0  0  0  0  0  0  0  0  0  0
   -3.0450   21.6440  -28.2810 C   0  0  0  0  0  0  0  0  0  0  0  0
   -3.3470   21.2630  -29.7380 C   0  0  0  0  0  0  0  0  0  0  0  0
   -2.2440   20.5510  -30.2600 O   0  0  0  0  0  0  0  0  0  0  0  0
   -2.4610   20.2170  -31.6190 C   0  0  0  0  0  0  0  0  0  0  0  0
   -2.5010   21.4780  -32.4900 C   0  0  0  0  0  0  0  0  0  0  0  0
   -3.5980   21.4210  -33.4540 N   0  0  0  0  0  0  0  0  0  0  0  0
   -4.9210   21.0790  -33.0230 C   0  0  0  0  0  0  0  0  0  0  0  0
   -5.6830   22.0000  -32.2870 C   0  0  0  0  0  0  0  0  0  0  0  0
   -5.1400   23.2490  -31.9160 C   0  0  0  0  0  0  0  0  0  0  0  0
   -5.8790   24.1420  -31.1450 C   0  0  0  0  0  0  0  0  0  0  0  0
   -7.1580   23.8000  -30.7160 C   0  0  0  0  0  0  0  0  0  0  0  0
   -7.7170   22.5730  -31.0770 C   0  0  0  0  0  0  0  0  0  0  0  0
   -7.0080   21.6590  -31.9000 C   0  0  0  0  0  0  0  0  0  0  0  0
   -7.5650   20.4610  -32.3100 N   0  0  0  0  0  0  0  0  0  0  0  0
   -9.0200   20.2300  -32.1580 C   0  0  0  0  0  0  0  0  0  0  0  0
   -6.7670   19.4890  -32.8850 C   0  0  0  0  0  0  0  0  0  0  0  0
   -7.2300   18.1620  -33.0860 C   0  0  0  0  0  0  0  0  0  0  0  0
   -6.4280   17.2070  -33.7120 C   0  0  0  0  0  0  0  0  0  0  0  0
   -5.1470   17.5390  -34.1410 C   0  0  0  0  0  0  0  0  0  0  0  0
   -4.6490   18.8220  -33.9230 C   0  0  0  0  0  0  0  0  0  0  0  0
   -5.4380   19.8000  -33.2810 C   0  0  0  0  0  0  0  0  0  0  0  0
   -3.0062   18.7312  -24.9666 H   0  0  0  0  0  0  0  0  0  0  0  0
   -4.3438   19.1576  -26.0872 H   0  0  0  0  0  0  0  0  0  0  0  0
   -3.6682   17.4932  -26.0872 H   0  0  0  0  0  0  0  0  0  0  0  0
   -1.6268   18.2025  -27.0952 H   0  0  0  0  0  0  0  0  0  0  0  0
   -2.9294   19.0820  -27.9905 H   0  0  0  0  0  0  0  0  0  0  0  0
   -2.3436   20.8095  -25.8806 H   0  0  0  0  0  0  0  0  0  0  0  0
   -0.7239   20.1249  -26.3365 H   0  0  0  0  0  0  0  0  0  0  0  0
   -1.2360   20.7180  -28.6390 H   0  0  0  0  0  0  0  0  0  0  0  0
   -0.9654   22.7422  -26.5428 H   0  0  0  0  0  0  0  0  0  0  0  0
    0.2483   22.0384  -27.7239 H   0  0  0  0  0  0  0  0  0  0  0  0
   -1.1212   24.5088  -27.9304 H   0  0  0  0  0  0  0  0  0  0  0  0
   -0.0813   23.7041  -29.1543 H   0  0  0  0  0  0  0  0  0  0  0  0
   -1.8546   23.4175  -29.1543 H   0  0  0  0  0  0  0  0  0  0  0  0
   -3.7807   21.1494  -27.6298 H   0  0  0  0  0  0  0  0  0  0  0  0
   -3.1036   22.7401  -28.2090 H   0  0  0  0  0  0  0  0  0  0  0  0
   -4.2466   20.6311  -29.7761 H   0  0  0  0  0  0  0  0  0  0  0  0
   -3.5215   22.1712  -30.3335 H   0  0  0  0  0  0  0  0  0  0  0  0
   -1.6450   19.5655  -31.9650 H   0  0  0  0  0  0  0  0  0  0  0  0
   -3.4274   19.6986  -31.7046 H   0  0  0  0  0  0  0  0  0  0  0  0
   -2.6377   22.3568  -31.8427 H   0  0  0  0  0  0  0  0  0  0  0  0
   -1.5537   21.5479  -33.0447 H   0  0  0  0  0  0  0  0  0  0  0  0
   -3.4600   21.7240  -34.4490 H   0  0  0  0  0  0  0  0  0  0  0  0
   -4.1238   23.5191  -32.2390 H   0  0  0  0  0  0  0  0  0  0  0  0
   -5.4516   25.1188  -30.8746 H   0  0  0  0  0  0  0  0  0  0  0  0
   -7.7309   24.4997  -30.0897 H   0  0  0  0  0  0  0  0  0  0  0  0
   -8.7230   22.3100  -30.7181 H   0  0  0  0  0  0  0  0  0  0  0  0
   -9.2751   20.1895  -31.0888 H   0  0  0  0  0  0  0  0  0  0  0  0
   -9.5736   21.0515  -32.6362 H   0  0  0  0  0  0  0  0  0  0  0  0
   -9.2920   19.2774  -32.6362 H   0  0  0  0  0  0  0  0  0  0  0  0
   -8.2370   17.8823  -32.7428 H   0  0  0  0  0  0  0  0  0  0  0  0
   -6.8103   16.1873  -33.8669 H   0  0  0  0  0  0  0  0  0  0  0  0
   -4.5268   16.7882  -34.6526 H   0  0  0  0  0  0  0  0  0  0  0  0
   -3.6311   19.0749  -34.2545 H   0  0  0  0  0  0  0  0  0  0  0  0
  1  2  1  0
  2  3  1  0
  3  4  1  0
  4  5  1  0
  5  6  1  0
  4  7  1  0
  7  8  1  0
  8  9  1  0
  9 10  1  0
 10 11  1  0
 11 12  1  0
 12 13  1  0
 13 14  2  0
 14 15  1  0
 15 16  2  0
 16 17  1  0
 17 18  2  0
 18 19  1  0
 19 20  2  0
 20 21  1  0
 20 22  1  0
 22 23  2  0
 23 24  1  0
 24 25  2  0
 25 26  1  0
 26 27  2  0
 27 13  1  0
 19 14  1  0
 27 22  1  0
  1 28  1  0
  1 29  1  0
  1 30  1  0
  2 31  1  0
  2 32  1  0
  3 33  1  0
  3 34  1  0
  4 35  1  6
  5 36  1  0
  5 37  1  0
  6 38  1  0
  6 39  1  0
  6 40  1  0
  7 41  1  0
  7 42  1  0
  8 43  1  0
  8 44  1  0
 10 45  1  0
 10 46  1  0
 11 47  1  0
 11 48  1  0
 12 49  1  0
 15 50  1  0
 16 51  1  0
 17 52  1  0
 18 53  1  0
 21 54  1  0
 21 55  1  0
 21 56  1  0
 23 57  1  0
 24 58  1  0
 25 59  1  0
 26 60  1  0
M  CHG  2   4   1  20   1
M  END
>  <UniqueID>  (18) 
17

>  <SMILES>  (18) 
CCC[N@H+](CC)CCOCCNc1c2ccccc2[n+](C)c2ccccc12

>  <Energy>  (18) 
85.59533425649785

>  <Genealogy>  (18) 
CCC[NH+](CC)CCOCCNc1c2ccccc2[n+](C)c2ccccc12 (protonated)
CCC[N@H+](CC)CCOCCNc1c2ccccc2[n+](C)c2ccccc12 (chirality)
CCC[N@H+](CC)CCOCCNc1c2ccccc2[n+](C)c2ccccc12 (3D coordinates assigned)
CCC[N@H+](CC)CCOCCNc1c2ccccc2[n+](C)c2ccccc12 (optimized conformer: 85.59533425649785 kcal/mol)

>  <smiles>  (18) 
CCCN(CC)CCOCCNc1c2ccccc2[n+](C)c2ccccc12

>  <score_type>  (18) 
oracle

>  <origin>  (18) 
adg

>  <m_score__min__energy>  (18) 
-7.6399999999999997

>  <m_primary>  (18) 
energy

$$$$
18:0
     RDKit          3D

 43 46  0  0  0  0  0  0  0  0999 V2000
    0.5150   23.8290  -28.2940 C   0  0  0  0  0  0  0  0  0  0  0  0
   -0.7160   23.5130  -29.0060 N   0  0  0  0  0  0  0  0  0  0  0  0
   -0.9180   22.4020  -29.6960 N   0  0  0  0  0  0  0  0  0  0  0  0
   -2.2000   22.4520  -30.1260 C   0  0  0  0  0  0  0  0  0  0  0  0
   -2.8520   21.3110  -30.8560 C   0  0  0  0  0  0  0  0  0  0  0  0
   -2.3260   21.1620  -32.2930 C   0  0  0  0  0  0  0  0  0  0  0  0
   -3.4220   21.1520  -33.2960 N   0  0  0  0  0  0  0  0  0  0  0  0
   -3.9410   19.8160  -33.4870 C   0  0  0  0  0  0  0  0  0  0  0  0
   -3.2680   18.8780  -33.9910 O   0  0  0  0  0  0  0  0  0  0  0  0
   -5.3370   19.6960  -33.0960 C   0  0  0  0  0  0  0  0  0  0  0  0
   -6.2050   18.6050  -33.1160 C   0  0  0  0  0  0  0  0  0  0  0  0
   -7.5280   18.8060  -32.6840 C   0  0  0  0  0  0  0  0  0  0  0  0
   -7.9500   20.0840  -32.2520 C   0  0  0  0  0  0  0  0  0  0  0  0
   -7.0510   21.1650  -32.2510 C   0  0  0  0  0  0  0  0  0  0  0  0
   -5.7450   20.9300  -32.6810 C   0  0  0  0  0  0  0  0  0  0  0  0
   -4.6060   21.8250  -32.8070 C   0  0  0  0  0  0  0  0  0  0  0  0
   -4.6520   23.0580  -32.5550 O   0  0  0  0  0  0  0  0  0  0  0  0
   -2.8250   23.5770  -29.6940 N   0  0  0  0  0  0  0  0  0  0  0  0
   -4.1910   23.9820  -29.8700 C   0  0  0  0  0  0  0  0  0  0  0  0
   -4.4980   25.2760  -30.3160 C   0  0  0  0  0  0  0  0  0  0  0  0
   -5.8300   25.6650  -30.4860 C   0  0  0  0  0  0  0  0  0  0  0  0
   -6.8630   24.7670  -30.2020 C   0  0  0  0  0  0  0  0  0  0  0  0
   -6.5660   23.4810  -29.7430 C   0  0  0  0  0  0  0  0  0  0  0  0
   -7.5690   22.6110  -29.4660 F   0  0  0  0  0  0  0  0  0  0  0  0
   -5.2350   23.0900  -29.5710 C   0  0  0  0  0  0  0  0  0  0  0  0
   -1.8680   24.2040  -28.9880 C   0  0  0  0  0  0  0  0  0  0  0  0
   -2.0300   25.2990  -28.3830 O   0  0  0  0  0  0  0  0  0  0  0  0
    0.3339   23.7825  -27.2100 H   0  0  0  0  0  0  0  0  0  0  0  0
    1.2936   23.1016  -28.5672 H   0  0  0  0  0  0  0  0  0  0  0  0
    0.8470   24.8415  -28.5672 H   0  0  0  0  0  0  0  0  0  0  0  0
   -2.6513   20.3790  -30.3073 H   0  0  0  0  0  0  0  0  0  0  0  0
   -3.9306   21.5194  -30.9120 H   0  0  0  0  0  0  0  0  0  0  0  0
   -1.6531   22.0040  -32.5126 H   0  0  0  0  0  0  0  0  0  0  0  0
   -1.7991   20.1988  -32.3605 H   0  0  0  0  0  0  0  0  0  0  0  0
   -3.1410   21.5430  -34.2250 H   0  0  0  0  0  0  0  0  0  0  0  0
   -5.8651   17.6168  -33.4594 H   0  0  0  0  0  0  0  0  0  0  0  0
   -8.2374   17.9653  -32.6822 H   0  0  0  0  0  0  0  0  0  0  0  0
   -8.9864   20.2335  -31.9151 H   0  0  0  0  0  0  0  0  0  0  0  0
   -7.3678   22.1654  -31.9212 H   0  0  0  0  0  0  0  0  0  0  0  0
   -3.6875   25.9874  -30.5328 H   0  0  0  0  0  0  0  0  0  0  0  0
   -6.0653   26.6783  -30.8435 H   0  0  0  0  0  0  0  0  0  0  0  0
   -7.9105   25.0730  -30.3400 H   0  0  0  0  0  0  0  0  0  0  0  0
   -5.0039   22.0805  -29.2003 H   0  0  0  0  0  0  0  0  0  0  0  0
  1  2  1  0
  2  3  1  0
  3  4  2  0
  4  5  1  0
  5  6  1  0
  6  7  1  0
  7  8  1  0
  8  9  2  0
  8 10  1  0
 10 11  2  0
 11 12  1  0
 12 13  2  0
 13 14  1  0
 14 15  2  0
 15 16  1  0
 16 17  2  0
  4 18  1  0
 18 19  1  0
 19 20  2  0
 20 21  1  0
 21 22  2  0
 22 23  1  0
 23 24  1  0
 23 25  2  0
 18 26  1  0
 26 27  2  0
 26  2  1  0
 16  7  1  0
 25 19  1  0
 15 10  1  0
  1 28  1  0
  1 29  1  0
  1 30  1  0
  5 31  1  0
  5 32  1  0
  6 33  1  0
  6 34  1  0
  7 35  1  0
 11 36  1  0
 12 37  1  0
 13 38  1  0
 14 39  1  0
 20 40  1  0
 21 41  1  0
 22 42  1  0
 25 43  1  0
M  CHG  1   7   1
M  END
>  <UniqueID>  (19) 
18

>  <SMILES>  (19) 
Cn1nc(CC[NH+]2C(=O)c3ccccc3C2=O)n(-c2cccc(F)c2)c1=O

>  <Energy>  (19) 
114.79555555478753

>  <Genealogy>  (19) 
Cn1nc(CC[NH+]2C(=O)c3ccccc3C2=O)n(-c2cccc(F)c2)c1=O (protonated)
Cn1nc(CC[NH+]2C(=O)c3ccccc3C2=O)n(-c2cccc(F)c2)c1=O (3D coordinates assigned)
Cn1nc(CC[NH+]2C(=O)c3ccccc3C2=O)n(-c2cccc(F)c2)c1=O (nonaromatic ring conformer: 114.79555555478753 kcal/mol)

>  <smiles>  (19) 
Cn1nc(CCN2C(=O)c3ccccc3C2=O)n(-c2cccc(F)c2)c1=O

>  <score_type>  (19) 
oracle

>  <origin>  (19) 
adg

>  <m_score__min__energy>  (19) 
-8.1199999999999992

>  <m_primary>  (19) 
energy

$$$$
19:0
     RDKit          3D

 44 45  0  0  0  0  0  0  0  0999 V2000
   -6.3770   25.2510  -29.7330 C   0  0  0  0  0  0  0  0  0  0  0  0
   -5.3760   25.7780  -30.7620 C   0  0  0  0  0  0  0  0  0  0  0  0
   -4.2410   24.9330  -30.8470 O   0  0  0  0  0  0  0  0  0  0  0  0
   -4.2290   23.9630  -29.8160 C   0  0  0  0  0  0  0  0  0  0  0  0
   -3.4970   22.7180  -30.3010 C   0  0  0  0  0  0  0  0  0  0  0  0
   -4.3260   22.0280  -31.2230 O   0  0  0  0  0  0  0  0  0  0  0  0
   -5.6930   22.2790  -30.9470 C   0  0  0  0  0  0  0  0  0  0  0  0
   -6.5310   22.1190  -32.2330 C   0  0  0  0  0  0  0  0  0  0  0  0
   -7.2390   20.8270  -32.2460 N   0  0  0  0  0  0  0  0  0  0  0  0
   -8.6440   20.7510  -32.0270 C   0  0  0  0  0  0  0  0  0  0  0  0
   -9.3250   21.7570  -31.6760 O   0  0  0  0  0  0  0  0  0  0  0  0
   -9.2810   19.4520  -32.3200 C   0  0  0  0  0  0  0  0  0  0  0  0
   -7.9230   18.2420  -32.3890 S   0  0  0  0  0  0  0  0  0  0  0  0
   -6.6500   19.5470  -32.7020 C   0  0  0  0  0  0  0  0  0  0  0  0
   -5.3560   19.1730  -31.9140 C   0  0  0  0  0  0  0  0  0  0  0  0
   -4.2950   18.4280  -32.7590 C   0  0  0  0  0  0  0  0  0  0  0  0
   -4.9300   17.5140  -33.8110 C   0  0  0  0  0  0  0  0  0  0  0  0
   -5.8080   18.3040  -34.8050 C   0  0  0  0  0  0  0  0  0  0  0  0
   -6.3730   19.6230  -34.2230 C   0  0  0  0  0  0  0  0  0  0  0  0
   -5.9995   25.4497  -28.7191 H   0  0  0  0  0  0  0  0  0  0  0  0
   -7.3442   25.7568  -29.8699 H   0  0  0  0  0  0  0  0  0  0  0  0
   -6.5074   24.1674  -29.8699 H   0  0  0  0  0  0  0  0  0  0  0  0
   -5.8638   25.8250  -31.7468 H   0  0  0  0  0  0  0  0  0  0  0  0
   -5.0446   26.7786  -30.4474 H   0  0  0  0  0  0  0  0  0  0  0  0
   -3.7139   24.3713  -28.9340 H   0  0  0  0  0  0  0  0  0  0  0  0
   -5.2626   23.7000  -29.5469 H   0  0  0  0  0  0  0  0  0  0  0  0
   -2.5586   23.0102  -30.7950 H   0  0  0  0  0  0  0  0  0  0  0  0
   -3.2654   22.0650  -29.4466 H   0  0  0  0  0  0  0  0  0  0  0  0
   -6.0485   21.5648  -30.1897 H   0  0  0  0  0  0  0  0  0  0  0  0
   -5.8019   23.3072  -30.5715 H   0  0  0  0  0  0  0  0  0  0  0  0
   -7.2684   22.9336  -32.2852 H   0  0  0  0  0  0  0  0  0  0  0  0
   -5.8536   22.1555  -33.0989 H   0  0  0  0  0  0  0  0  0  0  0  0
   -9.9922   19.1854  -31.5243 H   0  0  0  0  0  0  0  0  0  0  0  0
   -9.8473   19.4809  -33.2626 H   0  0  0  0  0  0  0  0  0  0  0  0
   -4.9043   20.1002  -31.5316 H   0  0  0  0  0  0  0  0  0  0  0  0
   -5.6611   18.4863  -31.1106 H   0  0  0  0  0  0  0  0  0  0  0  0
   -3.6638   19.1703  -33.2694 H   0  0  0  0  0  0  0  0  0  0  0  0
   -3.7028   17.7986  -32.0784 H   0  0  0  0  0  0  0  0  0  0  0  0
   -4.1304   17.0052  -34.3693 H   0  0  0  0  0  0  0  0  0  0  0  0
   -5.5727   16.7892  -33.2898 H   0  0  0  0  0  0  0  0  0  0  0  0
   -5.1999   18.5466  -35.6889 H   0  0  0  0  0  0  0  0  0  0  0  0
   -6.6694   17.6658  -35.0511 H   0  0  0  0  0  0  0  0  0  0  0  0
   -5.6447   20.4267  -34.4063 H   0  0  0  0  0  0  0  0  0  0  0  0
   -7.3342   19.8160  -34.7218 H   0  0  0  0  0  0  0  0  0  0  0  0
  1  2  1  0
  2  3  1  0
  3  4  1  0
  4  5  1  0
  5  6  1  0
  6  7  1  0
  7  8  1  0
  8  9  1  0
  9 10  1  0
 10 11  2  0
 10 12  1  0
 12 13  1  0
 13 14  1  0
 14 15  1  0
 15 16  1  0
 16 17  1  0
 17 18  1  0
 18 19  1  0
 14  9  1  0
 19 14  1  0
  1 20  1  0
  1 21  1  0
  1 22  1  0
  2 23  1  0
  2 24  1  0
  4 25  1  0
  4 26  1  0
  5 27  1  0
  5 28  1  0
  7 29  1  0
  7 30  1  0
  8 31  1  0
  8 32  1  0
 12 33  1  0
 12 34  1  0
 15 35  1  0
 15 36  1  0
 16 37  1  0
 16 38  1  0
 17 39  1  0
 17 40  1  0
 18 41  1  0
 18 42  1  0
 19 43  1  0
 19 44  1  0
M  END
>  <UniqueID>  (20) 
19

>  <SMILES>  (20) 
CCOCCOCCN1C(=O)CSC12CCCCC2

>  <Energy>  (20) 
44.82599116683292

>  <Genealogy>  (20) 
CCOCCOCCN1C(=O)CSC12CCCCC2 (3D coordinates assigned)
CCOCCOCCN1C(=O)CSC12CCCCC2 (nonaromatic ring conformer: 44.82599116683292 kcal/mol)

>  <smiles>  (20) 
CCOCCOCCN1C(=O)CSC12CCCCC2

>  <score_type>  (20) 
oracle

>  <origin>  (20) 
adg

>  <m_score__min__energy>  (20) 
-7.6699999999999999

>  <m_primary>  (20) 
energy

$$$$
20:0
     RDKit          3D

 58 60  0  0  0  0  0  0  0  0999 V2000
   -1.9290   24.2140  -28.9280 C   0  0  0  0  0  0  0  0  0  0  0  0
   -1.0970   22.9560  -29.2170 C   0  0  0  0  0  0  0  0  0  0  0  0
   -1.8990   21.7780  -29.6170 N   0  0  0  0  0  0  0  0  0  0  0  0
   -3.0780   21.5920  -28.7510 C   0  0  0  0  0  0  0  0  0  0  0  0
   -1.0820   20.5480  -29.7200 C   0  0  0  0  0  0  0  0  0  0  0  0
   -0.5940   20.3330  -31.1580 C   0  0  0  0  0  0  0  0  0  0  0  0
   -0.9060   21.4940  -32.0090 N   0  0  0  0  0  0  0  0  0  0  0  0
   -1.3610   21.1080  -33.3580 C   0  0  0  0  0  0  0  0  0  0  0  0
   -2.8970   21.1850  -33.4630 C   0  0  0  0  0  0  0  0  0  0  0  0
   -3.5490   21.1420  -32.1480 N   0  0  0  0  0  0  0  0  0  0  0  0
   -4.9620   21.3610  -31.9580 C   0  0  0  0  0  0  0  0  0  0  0  0
   -5.8790   20.3740  -32.3630 C   0  0  0  0  0  0  0  0  0  0  0  0
   -7.2510   20.5150  -32.0220 C   0  0  0  0  0  0  0  0  0  0  0  0
   -7.7050   21.6790  -31.4280 N   0  0  0  0  0  0  0  0  0  0  0  0
   -9.1530   21.9020  -31.2100 C   0  0  0  0  0  0  0  0  0  0  0  0
   -6.8120   22.6680  -31.0500 C   0  0  0  0  0  0  0  0  0  0  0  0
   -7.2350   23.8330  -30.3540 C   0  0  0  0  0  0  0  0  0  0  0  0
   -6.3440   24.8640  -30.0630 C   0  0  0  0  0  0  0  0  0  0  0  0
   -5.0160   24.7700  -30.4600 C   0  0  0  0  0  0  0  0  0  0  0  0
   -4.5620   23.6260  -31.1100 C   0  0  0  0  0  0  0  0  0  0  0  0
   -5.4330   22.5430  -31.3610 C   0  0  0  0  0  0  0  0  0  0  0  0
   -8.2290   19.3900  -32.3640 C   0  0  0  0  0  0  0  0  0  0  0  0
   -7.5630   18.0610  -32.7140 C   0  0  0  0  0  0  0  0  0  0  0  0
   -6.4560   18.2950  -33.7260 C   0  0  0  0  0  0  0  0  0  0  0  0
   -5.3580   19.1410  -33.0890 C   0  0  0  0  0  0  0  0  0  0  0  0
   -2.0200   24.3516  -27.8404 H   0  0  0  0  0  0  0  0  0  0  0  0
   -1.4324   25.0912  -29.3683 H   0  0  0  0  0  0  0  0  0  0  0  0
   -2.9306   24.1003  -29.3683 H   0  0  0  0  0  0  0  0  0  0  0  0
   -0.3934   23.1869  -30.0304 H   0  0  0  0  0  0  0  0  0  0  0  0
   -0.5896   22.6895  -28.2781 H   0  0  0  0  0  0  0  0  0  0  0  0
   -2.7696   21.6407  -27.6963 H   0  0  0  0  0  0  0  0  0  0  0  0
   -3.8119   22.3855  -28.9554 H   0  0  0  0  0  0  0  0  0  0  0  0
   -3.5320   20.6111  -28.9554 H   0  0  0  0  0  0  0  0  0  0  0  0
   -0.2112   20.6374  -29.0539 H   0  0  0  0  0  0  0  0  0  0  0  0
   -1.7031   19.6884  -29.4278 H   0  0  0  0  0  0  0  0  0  0  0  0
    0.4951   20.1790  -31.1474 H   0  0  0  0  0  0  0  0  0  0  0  0
   -1.1079   19.4523  -31.5707 H   0  0  0  0  0  0  0  0  0  0  0  0
   -1.6900   22.0110  -31.5440 H   0  0  0  0  0  0  0  0  0  0  0  0
   -0.9148   21.7894  -34.0973 H   0  0  0  0  0  0  0  0  0  0  0  0
   -1.0468   20.0718  -33.5520 H   0  0  0  0  0  0  0  0  0  0  0  0
   -3.1705   22.1260  -33.9627 H   0  0  0  0  0  0  0  0  0  0  0  0
   -3.2390   20.3109  -34.0366 H   0  0  0  0  0  0  0  0  0  0  0  0
   -2.9500   21.0040  -31.3040 H   0  0  0  0  0  0  0  0  0  0  0  0
   -9.3606   21.9340  -30.1302 H   0  0  0  0  0  0  0  0  0  0  0  0
   -9.4502   22.8565  -31.6689 H   0  0  0  0  0  0  0  0  0  0  0  0
   -9.7236   21.0811  -31.6689 H   0  0  0  0  0  0  0  0  0  0  0  0
   -8.2852   23.9223  -30.0393 H   0  0  0  0  0  0  0  0  0  0  0  0
   -6.6926   25.7537  -29.5181 H   0  0  0  0  0  0  0  0  0  0  0  0
   -4.3227   25.6004  -30.2605 H   0  0  0  0  0  0  0  0  0  0  0  0
   -3.5120   23.5647  -31.4321 H   0  0  0  0  0  0  0  0  0  0  0  0
   -8.8848   19.2282  -31.4958 H   0  0  0  0  0  0  0  0  0  0  0  0
   -8.7778   19.7125  -33.2611 H   0  0  0  0  0  0  0  0  0  0  0  0
   -7.1376   17.6141  -31.8034 H   0  0  0  0  0  0  0  0  0  0  0  0
   -8.3121   17.3800  -33.1441 H   0  0  0  0  0  0  0  0  0  0  0  0
   -6.0375   17.3282  -34.0423 H   0  0  0  0  0  0  0  0  0  0  0  0
   -6.8638   18.8210  -34.6018 H   0  0  0  0  0  0  0  0  0  0  0  0
   -4.8137   18.5161  -32.3656 H   0  0  0  0  0  0  0  0  0  0  0  0
   -4.7123   19.4973  -33.9052 H   0  0  0  0  0  0  0  0  0  0  0  0
  1  2  1  0
  2  3  1  0
  3  4  1  0
  3  5  1  0
  5  6  1  0
  6  7  1  0
  7  8  1  0
  8  9  1  0
  9 10  1  0
 10 11  1  0
 11 12  2  0
 12 13  1  0
 13 14  2  0
 14 15  1  0
 14 16  1  0
 16 17  2  0
 17 18  1  0
 18 19  2  0
 19 20  1  0
 20 21  2  0
 13 22  1  0
 22 23  1  0
 23 24  1  0
 24 25  1  0
 21 11  1  0
 25 12  1  0
 21 16  1  0
  1 26  1  0
  1 27  1  0
  1 28  1  0
  2 29  1  0
  2 30  1  0
  4 31  1  0
  4 32  1  0
  4 33  1  0
  5 34  1  0
  5 35  1  0
  6 36  1  0
  6 37  1  0
  7 38  1  0
  8 39  1  0
  8 40  1  0
  9 41  1  0
  9 42  1  0
 10 43  1  0
 15 44  1  0
 15 45  1  0
 15 46  1  0
 17 47  1  0
 18 48  1  0
 19 49  1  0
 20 50  1  0
 22 51  1  0
 22 52  1  0
 23 53  1  0
 23 54  1  0
 24 55  1  0
 24 56  1  0
 25 57  1  0
 25 58  1  0
M  CHG  1  14   1
M  END
>  <UniqueID>  (21) 
20

>  <SMILES>  (21) 
CCN(C)CCNCCNc1c2c([n+](C)c3ccccc13)CCCC2

>  <Energy>  (21) 
80.32433627900747

>  <Genealogy>  (21) 
CCN(C)CCNCCNc1c2c([n+](C)c3ccccc13)CCCC2 (3D coordinates assigned)
CCN(C)CCNCCNc1c2c([n+](C)c3ccccc13)CCCC2 (nonaromatic ring conformer: 80.32433627900747 kcal/mol)

>  <smiles>  (21) 
CCN(C)CCNCCNc1c2c([n+](C)c3ccccc13)CCCC2

>  <score_type>  (21) 
oracle

>  <origin>  (21) 
adg

>  <m_score__min__energy>  (21) 
-9.0099999999999998

>  <m_primary>  (21) 
energy

$$$$
21:0
     RDKit          3D

 61 65  0  0  0  0  0  0  0  0999 V2000
   -5.5490   17.9630  -32.0890 C   0  0  0  0  0  0  0  0  0  0  0  0
   -5.0460   19.2200  -32.6400 N   0  0  0  0  0  0  0  0  0  0  0  0
   -3.8030   19.4820  -33.1000 C   0  0  0  0  0  0  0  0  0  0  0  0
   -2.4280   18.3270  -33.0700 S   0  0  0  0  0  0  0  0  0  0  0  0
   -1.1360   19.6120  -32.8890 C   0  0  0  0  0  0  0  0  0  0  0  0
   -1.4420   20.6140  -31.7660 C   0  0  0  0  0  0  0  0  0  0  0  0
   -0.1800   21.1580  -31.0750 C   0  0  0  0  0  0  0  0  0  0  0  0
   -0.3500   21.2500  -29.6090 N   0  0  0  0  0  0  0  0  0  0  0  0
   -1.1340   20.0950  -29.0930 C   0  0  0  0  0  0  0  0  0  0  0  0
   -1.6740   20.3030  -27.6490 C   0  0  1  0  0  0  0  0  0  0  0  0
   -0.9170   21.4400  -26.9810 C   0  0  0  0  0  0  0  0  0  0  0  0
   -1.4650   22.6200  -27.7660 C   0  0  1  0  0  0  0  0  0  0  0  0
   -0.8110   22.6000  -29.1780 C   0  0  0  0  0  0  0  0  0  0  0  0
   -2.9900   22.3450  -27.7620 C   0  0  1  0  0  0  0  0  0  0  0  0
   -3.7900   23.0310  -28.8630 C   0  0  0  0  0  0  0  0  0  0  0  0
   -3.7520   22.4970  -30.1640 C   0  0  0  0  0  0  0  0  0  0  0  0
   -4.4920   23.0790  -31.1960 C   0  0  0  0  0  0  0  0  0  0  0  0
   -5.2940   24.1930  -30.9420 C   0  0  0  0  0  0  0  0  0  0  0  0
   -5.3610   24.7240  -29.6530 C   0  0  0  0  0  0  0  0  0  0  0  0
   -6.1560   25.7930  -29.4010 F   0  0  0  0  0  0  0  0  0  0  0  0
   -4.6190   24.1470  -28.6170 C   0  0  0  0  0  0  0  0  0  0  0  0
   -3.1210   20.8130  -27.6820 C   0  0  0  0  0  0  0  0  0  0  0  0
   -3.7100   20.7280  -33.6080 N   0  0  0  0  0  0  0  0  0  0  0  0
   -4.9060   21.2740  -33.4610 N   0  0  0  0  0  0  0  0  0  0  0  0
   -5.7120   20.3740  -32.8640 C   0  0  0  0  0  0  0  0  0  0  0  0
   -7.1270   20.6410  -32.5290 C   0  0  0  0  0  0  0  0  0  0  0  0
   -8.1080   19.6760  -32.8150 C   0  0  0  0  0  0  0  0  0  0  0  0
   -9.4510   19.9230  -32.5130 C   0  0  0  0  0  0  0  0  0  0  0  0
   -9.8270   21.1380  -31.9360 C   0  0  0  0  0  0  0  0  0  0  0  0
   -8.8610   22.1110  -31.6640 C   0  0  0  0  0  0  0  0  0  0  0  0
   -7.5170   21.8660  -31.9630 C   0  0  0  0  0  0  0  0  0  0  0  0
   -5.5299   18.0106  -30.9902 H   0  0  0  0  0  0  0  0  0  0  0  0
   -6.5817   17.7999  -32.4311 H   0  0  0  0  0  0  0  0  0  0  0  0
   -4.9139   17.1325  -32.4311 H   0  0  0  0  0  0  0  0  0  0  0  0
   -0.1785   19.1180  -32.6672 H   0  0  0  0  0  0  0  0  0  0  0  0
   -1.0972   20.1759  -33.8327 H   0  0  0  0  0  0  0  0  0  0  0  0
   -1.9973   21.4608  -32.1955 H   0  0  0  0  0  0  0  0  0  0  0  0
   -2.0264   20.0793  -31.0027 H   0  0  0  0  0  0  0  0  0  0  0  0
    0.6629   20.4859  -31.2937 H   0  0  0  0  0  0  0  0  0  0  0  0
    0.0098   22.1707  -31.4603 H   0  0  0  0  0  0  0  0  0  0  0  0
   -1.9899   19.9285  -29.7636 H   0  0  0  0  0  0  0  0  0  0  0  0
   -0.4529   19.2318  -29.0610 H   0  0  0  0  0  0  0  0  0  0  0  0
   -1.5742   19.3388  -27.1290 H   0  0  0  0  0  0  0  0  0  0  0  0
   -1.1563   21.5158  -25.9100 H   0  0  0  0  0  0  0  0  0  0  0  0
    0.1783   21.3405  -26.9990 H   0  0  0  0  0  0  0  0  0  0  0  0
   -1.2544   23.6219  -27.3638 H   0  0  0  0  0  0  0  0  0  0  0  0
   -1.5499   22.9633  -29.9075 H   0  0  0  0  0  0  0  0  0  0  0  0
    0.0811   23.2415  -29.1267 H   0  0  0  0  0  0  0  0  0  0  0  0
   -3.4724   22.8187  -26.8943 H   0  0  0  0  0  0  0  0  0  0  0  0
   -3.1329   21.6116  -30.3708 H   0  0  0  0  0  0  0  0  0  0  0  0
   -4.4426   22.6585  -32.2112 H   0  0  0  0  0  0  0  0  0  0  0  0
   -5.8727   24.6520  -31.7571 H   0  0  0  0  0  0  0  0  0  0  0  0
   -4.6820   24.5664  -27.6020 H   0  0  0  0  0  0  0  0  0  0  0  0
   -3.6585   20.5162  -26.7693 H   0  0  0  0  0  0  0  0  0  0  0  0
   -3.6909   20.3980  -28.5264 H   0  0  0  0  0  0  0  0  0  0  0  0
   -5.1500   22.2490  -33.7460 H   0  0  0  0  0  0  0  0  0  0  0  0
   -7.8180   18.7216  -33.2787 H   0  0  0  0  0  0  0  0  0  0  0  0
  -10.2123   19.1593  -32.7302 H   0  0  0  0  0  0  0  0  0  0  0  0
  -10.8832   21.3292  -31.6956 H   0  0  0  0  0  0  0  0  0  0  0  0
   -9.1581   23.0700  -31.2145 H   0  0  0  0  0  0  0  0  0  0  0  0
   -6.7609   22.6370  -31.7537 H   0  0  0  0  0  0  0  0  0  0  0  0
  1  2  1  0
  2  3  1  0
  3  4  1  0
  4  5  1  0
  5  6  1  0
  6  7  1  0
  7  8  1  0
  8  9  1  0
  9 10  1  0
 10 11  1  0
 11 12  1  0
 12 13  1  0
 12 14  1  0
 14 15  1  0
 15 16  2  0
 16 17  1  0
 17 18  2  0
 18 19  1  0
 19 20  1  0
 19 21  2  0
 14 22  1  0
  3 23  2  0
 23 24  1  0
 24 25  2  0
 25 26  1  0
 26 27  2  0
 27 28  1  0
 28 29  2  0
 29 30  1  0
 30 31  2  0
 25  2  1  0
 31 26  1  0
 13  8  1  0
 21 15  1  0
 22 10  1  0
  1 32  1  0
  1 33  1  0
  1 34  1  0
  5 35  1  0
  5 36  1  0
  6 37  1  0
  6 38  1  0
  7 39  1  0
  7 40  1  0
  9 41  1  0
  9 42  1  0
 10 43  1  1
 11 44  1  0
 11 45  1  0
 12 46  1  1
 13 47  1  0
 13 48  1  0
 14 49  1  1
 16 50  1  0
 17 51  1  0
 18 52  1  0
 21 53  1  0
 22 54  1  0
 22 55  1  0
 24 56  1  0
 27 57  1  0
 28 58  1  0
 29 59  1  0
 30 60  1  0
 31 61  1  0
M  CHG  1  24   1
M  END
>  <UniqueID>  (22) 
21

>  <SMILES>  (22) 
Cn1c(SCCCN2C[C@@H]3CC(c4cccc(F)c4)[C@@H](C3)C2)n[nH+]c1-c1ccccc1

>  <Energy>  (22) 
125.073427193374

>  <Genealogy>  (22) 
Cn1c(SCCCN2CC3CC(C2)C(c2cccc(F)c2)C3)n[nH+]c1-c1ccccc1 (protonated)
Cn1c(SCCCN2C[C@@H]3CC(c4cccc(F)c4)[C@@H](C3)C2)n[nH+]c1-c1ccccc1 (chirality)
Cn1c(SCCCN2C[C@@H]3CC(c4cccc(F)c4)[C@@H](C3)C2)n[nH+]c1-c1ccccc1 (3D coordinates assigned)
Cn1c(SCCCN2C[C@@H]3CC(c4cccc(F)c4)[C@@H](C3)C2)n[nH+]c1-c1ccccc1 (nonaromatic ring conformer: 125.073427193374 kcal/mol)

>  <smiles>  (22) 
Cn1c(SCCCN2CC3CC(C2)C(c2cccc(F)c2)C3)nnc1-c1ccccc1

>  <score_type>  (22) 
oracle

>  <origin>  (22) 
adg

>  <m_score__min__energy>  (22) 
-9.9299999999999997

>  <m_primary>  (22) 
energy

$$$$
22:0
     RDKit          3D

 63 67  0  0  0  0  0  0  0  0999 V2000
   -9.1460   18.1760  -31.6120 C   0  0  0  0  0  0  0  0  0  0  0  0
   -9.3590   19.3860  -32.5140 C   0  0  0  0  0  0  0  0  0  0  0  0
   -8.1430   20.2690  -32.5100 C   0  0  0  0  0  0  0  0  0  0  0  0
   -6.8870   19.8790  -32.9370 C   0  0  0  0  0  0  0  0  0  0  0  0
   -6.0740   20.9920  -32.8170 C   0  0  0  0  0  0  0  0  0  0  0  0
   -4.6260   21.0270  -33.1210 C   0  0  0  0  0  0  0  0  0  0  0  0
   -3.8730   22.1370  -33.0000 N   0  0  0  0  0  0  0  0  0  0  0  0
   -2.6340   21.8420  -33.3540 N   0  0  0  0  0  0  0  0  0  0  0  0
   -2.6410   20.5340  -33.6820 C   0  0  0  0  0  0  0  0  0  0  0  0
   -1.1750   19.6540  -34.2240 S   0  0  0  0  0  0  0  0  0  0  0  0
   -0.6860   19.1800  -32.5300 C   0  0  0  0  0  0  0  0  0  0  0  0
    0.2650   20.2210  -31.9320 C   0  0  0  0  0  0  0  0  0  0  0  0
    1.1470   19.6250  -30.8250 C   0  0  0  0  0  0  0  0  0  0  0  0
    0.3130   18.8200  -29.9030 N   0  0  0  0  0  0  0  0  0  0  0  0
    1.1000   17.9090  -29.0310 C   0  0  0  0  0  0  0  0  0  0  0  0
    0.6260   18.3570  -27.6400 C   0  0  2  0  0  0  0  0  0  0  0  0
   -0.8630   18.5130  -27.9110 C   0  0  0  0  0  0  0  0  0  0  0  0
   -0.3200   19.6060  -28.8230 C   0  0  2  0  0  0  0  0  0  0  0  0
   -1.2620   20.7140  -29.2290 C   0  0  0  0  0  0  0  0  0  0  0  0
   -0.7880   22.0230  -29.4220 C   0  0  0  0  0  0  0  0  0  0  0  0
   -1.6520   23.0300  -29.8640 C   0  0  0  0  0  0  0  0  0  0  0  0
   -2.9960   22.7380  -30.1250 C   0  0  0  0  0  0  0  0  0  0  0  0
   -3.8840   23.7760  -30.5810 C   0  0  0  0  0  0  0  0  0  0  0  0
   -4.5990   24.6100  -30.9450 N   0  0  0  0  0  0  0  0  0  0  0  0
   -3.4730   21.4330  -29.9480 C   0  0  0  0  0  0  0  0  0  0  0  0
   -2.6090   20.4240  -29.5090 C   0  0  0  0  0  0  0  0  0  0  0  0
    0.7830   19.8580  -27.7900 C   0  0  0  0  0  0  0  0  0  0  0  0
   -3.8670   19.9870  -33.5370 N   0  0  0  0  0  0  0  0  0  0  0  0
   -4.2540   18.5970  -33.7800 C   0  0  0  0  0  0  0  0  0  0  0  0
   -6.8630   22.0130  -32.3120 C   0  0  0  0  0  0  0  0  0  0  0  0
   -8.1250   21.5730  -32.1500 N   0  0  0  0  0  0  0  0  0  0  0  0
   -9.2320   22.3490  -31.5970 C   0  0  0  0  0  0  0  0  0  0  0  0
   -9.2012   18.4894  -30.5590 H   0  0  0  0  0  0  0  0  0  0  0  0
   -9.9261   17.4270  -31.8130 H   0  0  0  0  0  0  0  0  0  0  0  0
   -8.1570   17.7384  -31.8130 H   0  0  0  0  0  0  0  0  0  0  0  0
   -9.5526   19.0420  -33.5407 H   0  0  0  0  0  0  0  0  0  0  0  0
  -10.2171   19.9623  -32.1377 H   0  0  0  0  0  0  0  0  0  0  0  0
   -6.5930   18.8830  -33.2996 H   0  0  0  0  0  0  0  0  0  0  0  0
   -4.1900   23.0850  -32.6980 H   0  0  0  0  0  0  0  0  0  0  0  0
   -1.5854   19.1084  -31.9008 H   0  0  0  0  0  0  0  0  0  0  0  0
   -0.1701   18.2092  -32.5684 H   0  0  0  0  0  0  0  0  0  0  0  0
    0.9127   20.6109  -32.7310 H   0  0  0  0  0  0  0  0  0  0  0  0
   -0.3438   21.0220  -31.4873 H   0  0  0  0  0  0  0  0  0  0  0  0
    1.9172   18.9826  -31.2769 H   0  0  0  0  0  0  0  0  0  0  0  0
    1.6287   20.4395  -30.2642 H   0  0  0  0  0  0  0  0  0  0  0  0
    0.8539   16.8540  -29.2217 H   0  0  0  0  0  0  0  0  0  0  0  0
    2.1884   17.9650  -29.1801 H   0  0  0  0  0  0  0  0  0  0  0  0
    1.0317   17.7837  -26.7934 H   0  0  0  0  0  0  0  0  0  0  0  0
   -1.3571   17.6659  -28.4094 H   0  0  0  0  0  0  0  0  0  0  0  0
   -1.6402   18.6492  -27.1446 H   0  0  0  0  0  0  0  0  0  0  0  0
    0.2685   22.2568  -29.2243 H   0  0  0  0  0  0  0  0  0  0  0  0
   -1.2748   24.0534  -30.0068 H   0  0  0  0  0  0  0  0  0  0  0  0
   -4.5283   21.2012  -30.1544 H   0  0  0  0  0  0  0  0  0  0  0  0
   -2.9855   19.3983  -29.3822 H   0  0  0  0  0  0  0  0  0  0  0  0
    1.7479   20.2085  -28.1852 H   0  0  0  0  0  0  0  0  0  0  0  0
    0.7359   20.5905  -26.9707 H   0  0  0  0  0  0  0  0  0  0  0  0
   -4.3972   18.0828  -32.8182 H   0  0  0  0  0  0  0  0  0  0  0  0
   -5.1931   18.5725  -34.3522 H   0  0  0  0  0  0  0  0  0  0  0  0
   -3.4626   18.0907  -34.3522 H   0  0  0  0  0  0  0  0  0  0  0  0
   -6.5115   23.0289  -32.0788 H   0  0  0  0  0  0  0  0  0  0  0  0
   -9.1884   22.3184  -30.4983 H   0  0  0  0  0  0  0  0  0  0  0  0
   -9.1551   23.3919  -31.9381 H   0  0  0  0  0  0  0  0  0  0  0  0
  -10.1862   21.9211  -31.9381 H   0  0  0  0  0  0  0  0  0  0  0  0
  1  2  1  0
  2  3  1  0
  3  4  2  0
  4  5  1  0
  5  6  1  0
  6  7  2  0
  7  8  1  0
  8  9  2  0
  9 10  1  0
 10 11  1  0
 11 12  1  0
 12 13  1  0
 13 14  1  0
 14 15  1  0
 15 16  1  0
 16 17  1  0
 17 18  1  0
 18 19  1  6
 19 20  2  0
 20 21  1  0
 21 22  2  0
 22 23  1  0
 23 24  3  0
 22 25  1  0
 25 26  2  0
 18 27  1  0
  9 28  1  0
 28 29  1  0
  5 30  2  0
 30 31  1  0
 31 32  1  0
 31  3  1  0
 28  6  1  0
 18 14  1  0
 26 19  1  0
 27 16  1  0
  1 33  1  0
  1 34  1  0
  1 35  1  0
  2 36  1  0
  2 37  1  0
  4 38  1  0
  7 39  1  0
 11 40  1  0
 11 41  1  0
 12 42  1  0
 12 43  1  0
 13 44  1  0
 13 45  1  0
 15 46  1  0
 15 47  1  0
 16 48  1  1
 17 49  1  0
 17 50  1  0
 20 51  1  0
 21 52  1  0
 25 53  1  0
 26 54  1  0
 27 55  1  0
 27 56  1  0
 29 57  1  0
 29 58  1  0
 29 59  1  0
 30 60  1  0
 32 61  1  0
 32 62  1  0
 32 63  1  0
M  CHG  1   7   1
M  END
>  <UniqueID>  (23) 
22

>  <SMILES>  (23) 
CCc1cc(-c2[nH+]nc(SCCCN3CC4CC3(c3ccc(C#N)cc3)C4)n2C)cn1C

>  <Energy>  (23) 
246.78982539796445

>  <Genealogy>  (23) 
CCc1cc(-c2[nH+]nc(SCCCN3CC4CC3(c3ccc(C#N)cc3)C4)n2C)cn1C (protonated)
CCc1cc(-c2[nH+]nc(SCCCN3CC4CC3(c3ccc(C#N)cc3)C4)n2C)cn1C (3D coordinates assigned)
CCc1cc(-c2[nH+]nc(SCCCN3CC4CC3(c3ccc(C#N)cc3)C4)n2C)cn1C (nonaromatic ring conformer: 246.78982539796445 kcal/mol)

>  <smiles>  (23) 
CCc1cc(-c2nnc(SCCCN3CC4CC3(c3ccc(C#N)cc3)C4)n2C)cn1C

>  <score_type>  (23) 
oracle

>  <origin>  (23) 
adg

>  <m_score__min__energy>  (23) 
-9.3599999999999994

>  <m_primary>  (23) 
energy

$$$$
23:0
     RDKit          3D

 57 59  0  0  0  0  0  0  0  0999 V2000
   -1.9330   26.4230  -25.3030 C   0  0  0  0  0  0  0  0  0  0  0  0
   -1.0230   26.0430  -24.1280 C   0  0  0  0  0  0  0  0  0  0  0  0
   -0.5120   24.6080  -24.3060 C   0  0  0  0  0  0  0  0  0  0  0  0
    0.1710   27.0180  -23.9820 C   0  0  0  0  0  0  0  0  0  0  0  0
    1.3530   26.3960  -23.3390 N   0  0  0  0  0  0  0  0  0  0  0  0
    2.5730   26.4580  -24.1740 C   0  0  0  0  0  0  0  0  0  0  0  0
    3.0550   25.0670  -24.6210 C   0  0  0  0  0  0  0  0  0  0  0  0
    2.9710   24.9060  -26.0370 O   0  0  0  0  0  0  0  0  0  0  0  0
    1.7910   24.6820  -26.7660 C   0  0  0  0  0  0  0  0  0  0  0  0
    0.9110   25.7180  -27.1330 C   0  0  0  0  0  0  0  0  0  0  0  0
   -0.2580   25.4320  -27.8440 C   0  0  0  0  0  0  0  0  0  0  0  0
   -0.5720   24.1100  -28.2020 C   0  0  0  0  0  0  0  0  0  0  0  0
   -1.8190   23.8050  -28.9510 C   0  0  0  0  0  0  0  0  0  0  0  0
   -1.8460   22.7820  -29.9080 C   0  0  0  0  0  0  0  0  0  0  0  0
   -3.0190   22.4920  -30.6100 C   0  0  0  0  0  0  0  0  0  0  0  0
   -4.2100   23.2170  -30.3770 C   0  0  0  0  0  0  0  0  0  0  0  0
   -5.4380   22.9140  -31.1100 N   0  0  0  0  0  0  0  0  0  0  0  0
   -5.5320   21.6530  -31.8770 C   0  0  0  0  0  0  0  0  0  0  0  0
   -6.8410   21.5050  -32.6570 C   0  0  0  0  0  0  0  0  0  0  0  0
   -7.9280   22.0090  -31.9170 O   0  0  0  0  0  0  0  0  0  0  0  0
   -7.7990   23.4070  -31.8360 C   0  0  0  0  0  0  0  0  0  0  0  0
   -6.6130   23.7980  -30.9500 C   0  0  0  0  0  0  0  0  0  0  0  0
   -4.1660   24.2520  -29.4140 C   0  0  0  0  0  0  0  0  0  0  0  0
   -2.9910   24.5370  -28.7120 C   0  0  0  0  0  0  0  0  0  0  0  0
    0.3130   23.0790  -27.8390 C   0  0  0  0  0  0  0  0  0  0  0  0
    1.4830   23.3680  -27.1300 C   0  0  0  0  0  0  0  0  0  0  0  0
   -2.8836   26.8199  -24.9171 H   0  0  0  0  0  0  0  0  0  0  0  0
   -1.4379   27.1896  -25.9172 H   0  0  0  0  0  0  0  0  0  0  0  0
   -2.1301   25.5320  -25.9172 H   0  0  0  0  0  0  0  0  0  0  0  0
   -1.6206   26.1111  -23.2070 H   0  0  0  0  0  0  0  0  0  0  0  0
   -0.3495   24.1515  -23.3185 H   0  0  0  0  0  0  0  0  0  0  0  0
   -1.2561   24.0203  -24.8636 H   0  0  0  0  0  0  0  0  0  0  0  0
    0.4361   24.6229  -24.8636 H   0  0  0  0  0  0  0  0  0  0  0  0
    0.4611   27.3690  -24.9833 H   0  0  0  0  0  0  0  0  0  0  0  0
   -0.1575   27.8451  -23.3354 H   0  0  0  0  0  0  0  0  0  0  0  0
    1.5520   26.8590  -22.4210 H   0  0  0  0  0  0  0  0  0  0  0  0
    1.1320   25.3990  -23.1100 H   0  0  0  0  0  0  0  0  0  0  0  0
    2.3574   27.0605  -25.0687 H   0  0  0  0  0  0  0  0  0  0  0  0
    3.3712   26.9075  -23.5650 H   0  0  0  0  0  0  0  0  0  0  0  0
    4.1017   24.9358  -24.3093 H   0  0  0  0  0  0  0  0  0  0  0  0
    2.4052   24.3133  -24.1523 H   0  0  0  0  0  0  0  0  0  0  0  0
    1.1445   26.7574  -26.8589 H   0  0  0  0  0  0  0  0  0  0  0  0
   -0.9383   26.2492  -28.1258 H   0  0  0  0  0  0  0  0  0  0  0  0
   -0.9339   22.2008  -30.1089 H   0  0  0  0  0  0  0  0  0  0  0  0
   -3.0155   21.6850  -31.3574 H   0  0  0  0  0  0  0  0  0  0  0  0
   -4.6960   21.6174  -32.5910 H   0  0  0  0  0  0  0  0  0  0  0  0
   -5.4962   20.8295  -31.1486 H   0  0  0  0  0  0  0  0  0  0  0  0
   -6.7611   22.0606  -33.6030 H   0  0  0  0  0  0  0  0  0  0  0  0
   -7.0145   20.4364  -32.8518 H   0  0  0  0  0  0  0  0  0  0  0  0
   -7.6426   23.8130  -32.8463 H   0  0  0  0  0  0  0  0  0  0  0  0
   -8.7180   23.8188  -31.3934 H   0  0  0  0  0  0  0  0  0  0  0  0
   -6.3127   24.8252  -31.2043 H   0  0  0  0  0  0  0  0  0  0  0  0
   -6.9462   23.7061  -29.9057 H   0  0  0  0  0  0  0  0  0  0  0  0
   -5.0720   24.8429  -29.2139 H   0  0  0  0  0  0  0  0  0  0  0  0
   -2.9858   25.3439  -27.9644 H   0  0  0  0  0  0  0  0  0  0  0  0
    0.0834   22.0391  -28.1145 H   0  0  0  0  0  0  0  0  0  0  0  0
    2.1684   22.5526  -26.8557 H   0  0  0  0  0  0  0  0  0  0  0  0
  1  2  1  0
  2  3  1  0
  2  4  1  0
  4  5  1  0
  5  6  1  0
  6  7  1  0
  7  8  1  0
  8  9  1  0
  9 10  2  0
 10 11  1  0
 11 12  2  0
 12 13  1  0
 13 14  2  0
 14 15  1  0
 15 16  2  0
 16 17  1  0
 17 18  1  0
 18 19  1  0
 19 20  1  0
 20 21  1  0
 21 22  1  0
 16 23  1  0
 23 24  2  0
 12 25  1  0
 25 26  2  0
 26  9  1  0
 24 13  1  0
 22 17  1  0
  1 27  1  0
  1 28  1  0
  1 29  1  0
  2 30  1  0
  3 31  1  0
  3 32  1  0
  3 33  1  0
  4 34  1  0
  4 35  1  0
  5 36  1  0
  5 37  1  0
  6 38  1  0
  6 39  1  0
  7 40  1  0
  7 41  1  0
 10 42  1  0
 11 43  1  0
 14 44  1  0
 15 45  1  0
 18 46  1  0
 18 47  1  0
 19 48  1  0
 19 49  1  0
 21 50  1  0
 21 51  1  0
 22 52  1  0
 22 53  1  0
 23 54  1  0
 24 55  1  0
 25 56  1  0
 26 57  1  0
M  CHG  1   5   1
M  END
>  <UniqueID>  (24) 
23

>  <SMILES>  (24) 
CC(C)C[NH2+]CCOc1ccc(-c2ccc(N3CCOCC3)cc2)cc1

>  <Energy>  (24) 
67.91166489662054

>  <Genealogy>  (24) 
CC(C)C[NH2+]CCOc1ccc(-c2ccc(N3CCOCC3)cc2)cc1 (protonated)
CC(C)C[NH2+]CCOc1ccc(-c2ccc(N3CCOCC3)cc2)cc1 (3D coordinates assigned)
CC(C)C[NH2+]CCOc1ccc(-c2ccc(N3CCOCC3)cc2)cc1 (nonaromatic ring conformer: 67.91166489662054 kcal/mol)

>  <smiles>  (24) 
CC(C)CNCCOc1ccc(-c2ccc(N3CCOCC3)cc2)cc1

>  <score_type>  (24) 
oracle

>  <origin>  (24) 
adg

>  <m_score__min__energy>  (24) 
-7.5700000000000003

>  <m_primary>  (24) 
energy

$$$$
