0:0
     RDKit          3D

 43 44  0  0  0  0  0  0  0  0999 V2000
   -3.6800   24.1440  -27.8780 C   0  0  0  0  0  0  0  0  0  0  0  0
   -2.7740   24.5770  -29.3450 S   0  0  0  0  0  0  0  0  0  0  0  0
   -2.1890   23.3260  -29.9380 O   0  0  0  0  0  0  0  0  0  0  0  0
   -1.6550   25.5120  -28.9790 O   0  0  0  0  0  0  0  0  0  0  0  0
   -3.8620   25.2920  -30.5040 N   0  0  0  0  0  0  0  0  0  0  0  0
   -5.2680   25.0120  -30.2000 C   0  0  0  0  0  0  0  0  0  0  0  0
   -5.6110   23.5160  -30.3760 C   0  0  1  0  0  0  0  0  0  0  0  0
   -7.1270   23.2750  -30.1740 C   0  0  0  0  0  0  0  0  0  0  0  0
   -7.8590   23.1620  -31.5090 C   0  0  0  0  0  0  0  0  0  0  0  0
   -7.3070   21.9900  -32.3440 C   0  0  0  0  0  0  0  0  0  0  0  0
   -5.8400   21.7830  -32.2060 N   0  0  0  0  0  0  0  0  0  0  0  0
   -5.5030   20.5730  -31.4220 C   0  0  0  0  0  0  0  0  0  0  0  0
   -5.8610   19.3150  -32.1720 C   0  0  0  0  0  0  0  0  0  0  0  0
   -7.0770   18.6610  -31.9240 C   0  0  0  0  0  0  0  0  0  0  0  0
   -7.4100   17.5030  -32.6270 C   0  0  0  0  0  0  0  0  0  0  0  0
   -6.5370   16.9890  -33.5880 C   0  0  0  0  0  0  0  0  0  0  0  0
   -5.3090   17.6230  -33.8460 C   0  0  0  0  0  0  0  0  0  0  0  0
   -4.3890   17.1010  -34.9200 C   0  0  0  0  0  0  0  0  0  0  0  0
   -4.8690   17.4880  -36.1580 F   0  0  0  0  0  0  0  0  0  0  0  0
   -4.3170   15.7190  -34.8760 F   0  0  0  0  0  0  0  0  0  0  0  0
   -3.1110   17.6070  -34.7550 F   0  0  0  0  0  0  0  0  0  0  0  0
   -4.9920   18.8050  -33.1520 C   0  0  0  0  0  0  0  0  0  0  0  0
   -5.1210   22.9970  -31.7560 C   0  0  0  0  0  0  0  0  0  0  0  0
   -3.0947   24.4237  -26.9896 H   0  0  0  0  0  0  0  0  0  0  0  0
   -4.6402   24.6805  -27.8683 H   0  0  0  0  0  0  0  0  0  0  0  0
   -3.8657   23.0598  -27.8683 H   0  0  0  0  0  0  0  0  0  0  0  0
   -5.4710   25.3028  -29.1588 H   0  0  0  0  0  0  0  0  0  0  0  0
   -5.8888   25.5879  -30.9021 H   0  0  0  0  0  0  0  0  0  0  0  0
   -5.0804   22.9411  -29.6027 H   0  0  0  0  0  0  0  0  0  0  0  0
   -7.2683   22.3419  -29.6089 H   0  0  0  0  0  0  0  0  0  0  0  0
   -7.5423   24.1327  -29.6245 H   0  0  0  0  0  0  0  0  0  0  0  0
   -8.9297   22.9956  -31.3193 H   0  0  0  0  0  0  0  0  0  0  0  0
   -7.7078   24.0950  -32.0717 H   0  0  0  0  0  0  0  0  0  0  0  0
   -7.8172   21.0689  -32.0258 H   0  0  0  0  0  0  0  0  0  0  0  0
   -7.4944   22.2369  -33.3994 H   0  0  0  0  0  0  0  0  0  0  0  0
   -4.4229   20.5706  -31.2138 H   0  0  0  0  0  0  0  0  0  0  0  0
   -6.0805   20.5946  -30.4860 H   0  0  0  0  0  0  0  0  0  0  0  0
   -7.7713   19.0632  -31.1716 H   0  0  0  0  0  0  0  0  0  0  0  0
   -8.3633   16.9932  -32.4237 H   0  0  0  0  0  0  0  0  0  0  0  0
   -6.8119   16.0822  -34.1468 H   0  0  0  0  0  0  0  0  0  0  0  0
   -4.0551   19.3351  -33.3785 H   0  0  0  0  0  0  0  0  0  0  0  0
   -4.0489   22.7622  -31.6817 H   0  0  0  0  0  0  0  0  0  0  0  0
   -5.3177   23.7886  -32.4941 H   0  0  0  0  0  0  0  0  0  0  0  0
  1  2  1  0
  2  3  2  0
  2  4  2  0
  2  5  1  0
  5  6  1  0
  6  7  1  0
  7  8  1  0
  8  9  1  0
  9 10  1  0
 10 11  1  0
 11 12  1  0
 12 13  1  0
 13 14  2  0
 14 15  1  0
 15 16  2  0
 16 17  1  0
 17 18  1  0
 18 19  1  0
 18 20  1  0
 18 21  1  0
 17 22  2  0
 11 23  1  0
 23  7  1  0
 22 13  1  0
  1 24  1  0
  1 25  1  0
  1 26  1  0
  6 27  1  0
  6 28  1  0
  7 29  1  1
  8 30  1  0
  8 31  1  0
  9 32  1  0
  9 33  1  0
 10 34  1  0
 10 35  1  0
 12 36  1  0
 12 37  1  0
 14 38  1  0
 15 39  1  0
 16 40  1  0
 22 41  1  0
 23 42  1  0
 23 43  1  0
M  CHG  1   5  -1
M  END
>  <UniqueID>  (1) 
1

>  <SMILES>  (1) 
CS(=O)(=O)[N-]C[C@H]1CCCN(Cc2cccc(C(F)(F)F)c2)C1

>  <Energy>  (1) 
45.3074863812702

>  <Genealogy>  (1) 
CS(=O)(=O)[N-]CC1CCCN(Cc2cccc(C(F)(F)F)c2)C1 (protonated)
CS(=O)(=O)[N-]C[C@H]1CCCN(Cc2cccc(C(F)(F)F)c2)C1 (chirality)
CS(=O)(=O)[N-]C[C@H]1CCCN(Cc2cccc(C(F)(F)F)c2)C1 (3D coordinates assigned)
CS(=O)(=O)[N-]C[C@H]1CCCN(Cc2cccc(C(F)(F)F)c2)C1 (nonaromatic ring conformer: 45.3074863812702 kcal/mol)

>  <smiles>  (1) 
CS(=O)(=O)NCC1CCCN(Cc2cccc(C(F)(F)F)c2)C1

>  <score_type>  (1) 
oracle

>  <origin>  (1) 
adg

>  <m_score__min__energy>  (1) 
-10.039999999999999

>  <m_primary>  (1) 
energy

$$$$
1:0
     RDKit          3D

 40 42  0  0  0  0  0  0  0  0999 V2000
   -2.6760   23.4380  -29.9460 C   0  0  0  0  0  0  0  0  0  0  0  0
   -3.8570   24.3610  -29.6360 C   0  0  0  0  0  0  0  0  0  0  0  0
   -4.2610   25.1710  -30.7960 N   0  0  0  0  0  0  0  0  0  0  0  0
   -5.3680   26.0850  -30.4800 C   0  0  0  0  0  0  0  0  0  0  0  0
   -6.5630   25.3030  -29.9300 C   0  0  0  0  0  0  0  0  0  0  0  0
   -6.8700   24.1130  -30.7910 C   0  0  0  0  0  0  0  0  0  0  0  0
   -6.6380   24.1690  -32.0290 O   0  0  0  0  0  0  0  0  0  0  0  0
   -7.4050   22.9180  -30.2020 N   0  0  0  0  0  0  0  0  0  0  0  0
   -7.4680   21.6590  -30.8940 C   0  0  0  0  0  0  0  0  0  0  0  0
   -8.6820   20.9190  -30.9250 C   0  0  0  0  0  0  0  0  0  0  0  0
   -8.7740   19.7050  -31.6370 C   0  0  0  0  0  0  0  0  0  0  0  0
   -7.6490   19.2460  -32.3210 C   0  0  0  0  0  0  0  0  0  0  0  0
   -6.4970   19.9630  -32.2950 C   0  0  0  0  0  0  0  0  0  0  0  0
   -5.5050   19.3710  -33.0110 C   0  0  0  0  0  0  0  0  0  0  0  0
   -4.2440   19.9650  -33.0860 C   0  0  0  0  0  0  0  0  0  0  0  0
   -4.0330   21.1810  -32.4030 C   0  0  0  0  0  0  0  0  0  0  0  0
   -5.0770   21.7830  -31.6610 C   0  0  0  0  0  0  0  0  0  0  0  0
   -6.3460   21.1660  -31.6080 C   0  0  0  0  0  0  0  0  0  0  0  0
   -5.9950   18.0950  -33.6210 C   0  0  0  0  0  0  0  0  0  0  0  0
   -7.4740   18.0090  -33.1460 C   0  0  0  0  0  0  0  0  0  0  0  0
   -2.2276   23.0876  -29.0047 H   0  0  0  0  0  0  0  0  0  0  0  0
   -3.0289   22.5739  -30.5281 H   0  0  0  0  0  0  0  0  0  0  0  0
   -1.9228   23.9892  -30.5281 H   0  0  0  0  0  0  0  0  0  0  0  0
   -4.7124   23.7452  -29.3211 H   0  0  0  0  0  0  0  0  0  0  0  0
   -3.5404   25.0520  -28.8408 H   0  0  0  0  0  0  0  0  0  0  0  0
   -4.5530   24.5370  -31.5780 H   0  0  0  0  0  0  0  0  0  0  0  0
   -5.0333   26.8133  -29.7266 H   0  0  0  0  0  0  0  0  0  0  0  0
   -5.6744   26.6065  -31.3988 H   0  0  0  0  0  0  0  0  0  0  0  0
   -6.3298   24.9593  -28.9114 H   0  0  0  0  0  0  0  0  0  0  0  0
   -7.4412   25.9653  -29.9220 H   0  0  0  0  0  0  0  0  0  0  0  0
   -7.7670   22.9700  -29.2240 H   0  0  0  0  0  0  0  0  0  0  0  0
   -9.5622   21.2990  -30.3857 H   0  0  0  0  0  0  0  0  0  0  0  0
   -9.7132   19.1325  -31.6524 H   0  0  0  0  0  0  0  0  0  0  0  0
   -3.4341   19.4959  -33.6640 H   0  0  0  0  0  0  0  0  0  0  0  0
   -3.0469   21.6664  -32.4476 H   0  0  0  0  0  0  0  0  0  0  0  0
   -4.9005   22.7285  -31.1273 H   0  0  0  0  0  0  0  0  0  0  0  0
   -5.9365   18.1362  -34.7187 H   0  0  0  0  0  0  0  0  0  0  0  0
   -5.3979   17.2207  -33.3224 H   0  0  0  0  0  0  0  0  0  0  0  0
   -8.1629   18.0077  -34.0036 H   0  0  0  0  0  0  0  0  0  0  0  0
   -7.6913   17.0870  -32.5868 H   0  0  0  0  0  0  0  0  0  0  0  0
  1  2  1  0
  2  3  1  0
  3  4  1  0
  4  5  1  0
  5  6  1  0
  6  7  2  0
  6  8  1  0
  8  9  1  0
  9 10  2  0
 10 11  1  0
 11 12  2  0
 12 13  1  0
 13 14  2  0
 14 15  1  0
 15 16  2  0
 16 17  1  0
 17 18  2  0
 14 19  1  0
 19 20  1  0
 18  9  1  0
 20 12  1  0
 18 13  1  0
  1 21  1  0
  1 22  1  0
  1 23  1  0
  2 24  1  0
  2 25  1  0
  3 26  1  0
  4 27  1  0
  4 28  1  0
  5 29  1  0
  5 30  1  0
  8 31  1  0
 10 32  1  0
 11 33  1  0
 15 34  1  0
 16 35  1  0
 17 36  1  0
 19 37  1  0
 19 38  1  0
 20 39  1  0
 20 40  1  0
M  END
>  <UniqueID>  (2) 
2

>  <SMILES>  (2) 
CCNCCC(=O)Nc1ccc2c3c(cccc13)CC2

>  <Energy>  (2) 
60.62612780102648

>  <Genealogy>  (2) 
CCNCCC(=O)Nc1ccc2c3c(cccc13)CC2 (3D coordinates assigned)
CCNCCC(=O)Nc1ccc2c3c(cccc13)CC2 (nonaromatic ring conformer: 60.62612780102648 kcal/mol)

>  <smiles>  (2) 
CCNCCC(=O)Nc1ccc2c3c(cccc13)CC2

>  <score_type>  (2) 
oracle

>  <origin>  (2) 
adg

>  <m_score__min__energy>  (2) 
-8.5600000000000005

>  <m_primary>  (2) 
energy

$$$$
2:0
     RDKit          3D

 45 47  0  0  0  0  0  0  0  0999 V2000
   -5.7162   24.5480  -32.6576 H   0  0  0  0  0  0  0  0  0  0  0  0
   -5.3790   23.7690  -31.9580 C   0  0  0  0  0  0  0  0  0  0  0  0
   -4.7300   24.1250  -30.8890 N   0  0  0  0  0  0  0  0  0  0  0  0
   -5.3090   24.1780  -29.5470 C   0  0  0  0  0  0  0  0  0  0  0  0
   -5.9685   23.3097  -29.4015 H   0  0  0  0  0  0  0  0  0  0  0  0
   -5.8846   25.1094  -29.4416 H   0  0  0  0  0  0  0  0  0  0  0  0
   -4.2030   24.1540  -28.4920 C   0  0  0  0  0  0  0  0  0  0  0  0
   -4.6166   24.5041  -27.5347 H   0  0  0  0  0  0  0  0  0  0  0  0
   -3.3893   24.8100  -28.8350 H   0  0  0  0  0  0  0  0  0  0  0  0
   -3.6260   22.7360  -28.2980 C   0  0  0  0  0  0  0  0  0  0  0  0
   -4.4490   22.0515  -28.0448 H   0  0  0  0  0  0  0  0  0  0  0  0
   -2.8796   22.7855  -27.4915 H   0  0  0  0  0  0  0  0  0  0  0  0
   -2.9440   22.2310  -29.5140 N   0  0  0  0  0  0  0  0  0  0  0  0
   -3.5480   22.4070  -30.3510 H   0  0  0  0  0  0  0  0  0  0  0  0
   -1.6420   22.8920  -29.7240 C   0  0  0  0  0  0  0  0  0  0  0  0
   -1.1867   23.1231  -28.7497 H   0  0  0  0  0  0  0  0  0  0  0  0
   -0.9776   22.2220  -30.2895 H   0  0  0  0  0  0  0  0  0  0  0  0
   -1.7908   23.8237  -30.2895 H   0  0  0  0  0  0  0  0  0  0  0  0
   -2.7440   20.7750  -29.4040 C   0  0  0  0  0  0  0  0  0  0  0  0
   -2.7048   20.4894  -28.3424 H   0  0  0  0  0  0  0  0  0  0  0  0
   -3.5788   20.2522  -29.8937 H   0  0  0  0  0  0  0  0  0  0  0  0
   -1.7992   20.4966  -29.8937 H   0  0  0  0  0  0  0  0  0  0  0  0
   -5.6810   22.3500  -32.2680 C   0  0  0  0  0  0  0  0  0  0  0  0
   -7.0070   21.8600  -32.1530 C   0  0  0  0  0  0  0  0  0  0  0  0
   -8.0730   22.6880  -31.7330 C   0  0  0  0  0  0  0  0  0  0  0  0
   -7.8779   23.7408  -31.4808 H   0  0  0  0  0  0  0  0  0  0  0  0
   -9.3710   22.1830  -31.6350 C   0  0  0  0  0  0  0  0  0  0  0  0
  -10.1912   22.8404  -31.3108 H   0  0  0  0  0  0  0  0  0  0  0  0
   -9.6320   20.8500  -31.9460 C   0  0  0  0  0  0  0  0  0  0  0  0
  -10.6568   20.4582  -31.8667 H   0  0  0  0  0  0  0  0  0  0  0  0
   -8.5950   20.0110  -32.3580 C   0  0  0  0  0  0  0  0  0  0  0  0
   -8.8057   18.9592  -32.6016 H   0  0  0  0  0  0  0  0  0  0  0  0
   -7.2830   20.5040  -32.4630 C   0  0  0  0  0  0  0  0  0  0  0  0
   -6.2520   19.6530  -32.8730 C   0  0  0  0  0  0  0  0  0  0  0  0
   -6.4753   18.6028  -33.1121 H   0  0  0  0  0  0  0  0  0  0  0  0
   -4.9400   20.1240  -32.9820 C   0  0  0  0  0  0  0  0  0  0  0  0
   -3.9180   19.2540  -33.3950 C   0  0  0  0  0  0  0  0  0  0  0  0
   -4.1535   18.2050  -33.6276 H   0  0  0  0  0  0  0  0  0  0  0  0
   -2.6050   19.7130  -33.5120 C   0  0  0  0  0  0  0  0  0  0  0  0
   -1.8094   19.0255  -33.8351 H   0  0  0  0  0  0  0  0  0  0  0  0
   -2.3010   21.0410  -33.2200 C   0  0  0  0  0  0  0  0  0  0  0  0
   -1.2653   21.3990  -33.3152 H   0  0  0  0  0  0  0  0  0  0  0  0
   -3.3050   21.9200  -32.8070 C   0  0  0  0  0  0  0  0  0  0  0  0
   -3.0535   22.9662  -32.5786 H   0  0  0  0  0  0  0  0  0  0  0  0
   -4.6410   21.4770  -32.6800 C   0  0  0  0  0  0  0  0  0  0  0  0
  1  2  1  0
  2  3  2  0
  3  4  1  0
  4  5  1  0
  4  6  1  0
  4  7  1  0
  7  8  1  0
  7  9  1  0
  7 10  1  0
 10 11  1  0
 10 12  1  0
 10 13  1  0
 13 14  1  0
 13 15  1  0
 15 16  1  0
 15 17  1  0
 15 18  1  0
 13 19  1  0
 19 20  1  0
 19 21  1  0
 19 22  1  0
  2 23  1  0
 23 24  2  0
 24 25  1  0
 25 26  1  0
 25 27  2  0
 27 28  1  0
 27 29  1  0
 29 30  1  0
 29 31  2  0
 31 32  1  0
 31 33  1  0
 33 34  2  0
 34 35  1  0
 34 36  1  0
 36 37  2  0
 37 38  1  0
 37 39  1  0
 39 40  1  0
 39 41  2  0
 41 42  1  0
 41 43  1  0
 43 44  1  0
 43 45  2  0
 45 23  1  0
 33 24  1  0
 45 36  1  0
M  CHG  1  13   1
M  END
>  <UniqueID>  (3) 
3

>  <SMILES>  (3) 
C[NH+](C)CCC/N=C\c1c2ccccc2cc2ccccc12

>  <Energy>  (3) 
60.88441024884905

>  <Genealogy>  (3) 
C[NH+](C)CCCN=Cc1c2ccccc2cc2ccccc12 (protonated)
C[NH+](C)CCC/N=C\c1c2ccccc2cc2ccccc12 (cis-trans isomerization)
C[NH+](C)CCC/N=C\c1c2ccccc2cc2ccccc12 (3D coordinates assigned)
C[NH+](C)CCC/N=C\c1c2ccccc2cc2ccccc12 (optimized conformer: 60.88441024884905 kcal/mol)

>  <smiles>  (3) 
CN(C)CCCN=Cc1c2ccccc2cc2ccccc12

>  <score_type>  (3) 
oracle

>  <origin>  (3) 
adg

>  <m_score__min__energy>  (3) 
-7.1900000000000004

>  <m_primary>  (3) 
energy

$$$$
3:0
     RDKit          3D

 50 52  0  0  0  0  0  0  0  0999 V2000
   -8.6810   19.5620  -31.2940 C   0  0  0  0  0  0  0  0  0  0  0  0
   -8.6760   18.6370  -32.5120 C   0  0  0  0  0  0  0  0  0  0  0  0
   -7.5220   17.6250  -32.4670 C   0  0  0  0  0  0  0  0  0  0  0  0
   -6.5220   17.8670  -33.5670 C   0  0  0  0  0  0  0  0  0  0  0  0
   -6.5060   17.0930  -34.5620 O   0  0  0  0  0  0  0  0  0  0  0  0
   -5.5550   18.9280  -33.4790 N   0  0  0  0  0  0  0  0  0  0  0  0
   -4.1610   18.6490  -33.8620 C   0  0  0  0  0  0  0  0  0  0  0  0
   -3.2580   19.8660  -33.6280 C   0  0  0  0  0  0  0  0  0  0  0  0
   -3.5790   20.4910  -32.3360 N   0  0  0  0  0  0  0  0  0  0  0  0
   -2.5440   20.7100  -31.3660 C   0  0  0  0  0  0  0  0  0  0  0  0
   -1.6810   19.6980  -31.0890 N   0  0  0  0  0  0  0  0  0  0  0  0
   -0.6610   19.8540  -30.2080 C   0  0  0  0  0  0  0  0  0  0  0  0
   -0.4780   21.0430  -29.5790 N   0  0  0  0  0  0  0  0  0  0  0  0
   -1.3180   22.0910  -29.8040 C   0  0  0  0  0  0  0  0  0  0  0  0
   -1.1270   23.3080  -29.1360 C   0  0  0  0  0  0  0  0  0  0  0  0
   -2.0050   24.3870  -29.3460 C   0  0  0  0  0  0  0  0  0  0  0  0
   -1.8410   25.6210  -28.6960 O   0  0  0  0  0  0  0  0  0  0  0  0
   -1.6390   25.7730  -27.2940 C   0  0  0  0  0  0  0  0  0  0  0  0
   -3.0880   24.2420  -30.2270 C   0  0  0  0  0  0  0  0  0  0  0  0
   -3.9500   25.3350  -30.4060 O   0  0  0  0  0  0  0  0  0  0  0  0
   -5.3710   25.2680  -30.3210 C   0  0  0  0  0  0  0  0  0  0  0  0
   -3.2810   23.0200  -30.9000 C   0  0  0  0  0  0  0  0  0  0  0  0
   -2.3930   21.9480  -30.7080 C   0  0  0  0  0  0  0  0  0  0  0  0
   -4.9740   20.7550  -31.9600 C   0  0  0  0  0  0  0  0  0  0  0  0
   -5.9370   20.2790  -33.0500 C   0  0  0  0  0  0  0  0  0  0  0  0
   -8.6777   18.9579  -30.3748 H   0  0  0  0  0  0  0  0  0  0  0  0
   -7.7863   20.2016  -31.3156 H   0  0  0  0  0  0  0  0  0  0  0  0
   -9.5826   20.1919  -31.3156 H   0  0  0  0  0  0  0  0  0  0  0  0
   -9.6283   18.0873  -32.5432 H   0  0  0  0  0  0  0  0  0  0  0  0
   -8.5439   19.2602  -33.4088 H   0  0  0  0  0  0  0  0  0  0  0  0
   -7.0113   17.7104  -31.4965 H   0  0  0  0  0  0  0  0  0  0  0  0
   -7.9444   16.6187  -32.6045 H   0  0  0  0  0  0  0  0  0  0  0  0
   -3.7875   17.8064  -33.2616 H   0  0  0  0  0  0  0  0  0  0  0  0
   -4.1405   18.4060  -34.9346 H   0  0  0  0  0  0  0  0  0  0  0  0
   -2.2063   19.5438  -33.6252 H   0  0  0  0  0  0  0  0  0  0  0  0
   -3.4226   20.5973  -34.4331 H   0  0  0  0  0  0  0  0  0  0  0  0
    0.0196   19.0146  -30.0028 H   0  0  0  0  0  0  0  0  0  0  0  0
    0.3200   21.1360  -28.9080 H   0  0  0  0  0  0  0  0  0  0  0  0
   -0.2822   23.4207  -28.4406 H   0  0  0  0  0  0  0  0  0  0  0  0
   -2.4025   25.1985  -26.7491 H   0  0  0  0  0  0  0  0  0  0  0  0
   -0.6392   25.4013  -27.0252 H   0  0  0  0  0  0  0  0  0  0  0  0
   -1.7193   26.8366  -27.0252 H   0  0  0  0  0  0  0  0  0  0  0  0
   -5.6748   25.2537  -29.2639 H   0  0  0  0  0  0  0  0  0  0  0  0
   -5.8098   26.1465  -30.8168 H   0  0  0  0  0  0  0  0  0  0  0  0
   -5.7252   24.3522  -30.8168 H   0  0  0  0  0  0  0  0  0  0  0  0
   -4.1355   22.9035  -31.5828 H   0  0  0  0  0  0  0  0  0  0  0  0
   -5.2004   20.2242  -31.0235 H   0  0  0  0  0  0  0  0  0  0  0  0
   -5.1018   21.8397  -31.8297 H   0  0  0  0  0  0  0  0  0  0  0  0
   -6.9625   20.2620  -32.6524 H   0  0  0  0  0  0  0  0  0  0  0  0
   -5.8900   20.9652  -33.9084 H   0  0  0  0  0  0  0  0  0  0  0  0
  1  2  1  0
  2  3  1  0
  3  4  1  0
  4  5  2  0
  4  6  1  0
  6  7  1  0
  7  8  1  0
  8  9  1  0
  9 10  1  0
 10 11  2  0
 11 12  1  0
 12 13  2  0
 13 14  1  0
 14 15  2  0
 15 16  1  0
 16 17  1  0
 17 18  1  0
 16 19  2  0
 19 20  1  0
 20 21  1  0
 19 22  1  0
 22 23  2  0
  9 24  1  0
 24 25  1  0
 25  6  1  0
 23 10  1  0
 23 14  1  0
  1 26  1  0
  1 27  1  0
  1 28  1  0
  2 29  1  0
  2 30  1  0
  3 31  1  0
  3 32  1  0
  7 33  1  0
  7 34  1  0
  8 35  1  0
  8 36  1  0
 12 37  1  0
 13 38  1  0
 15 39  1  0
 18 40  1  0
 18 41  1  0
 18 42  1  0
 21 43  1  0
 21 44  1  0
 21 45  1  0
 22 46  1  0
 24 47  1  0
 24 48  1  0
 25 49  1  0
 25 50  1  0
M  CHG  1  13   1
M  END
>  <UniqueID>  (4) 
4

>  <SMILES>  (4) 
CCCC(=O)N1CCN(c2nc[nH+]c3cc(OC)c(OC)cc23)CC1

>  <Energy>  (4) 
57.109105447059655

>  <Genealogy>  (4) 
CCCC(=O)N1CCN(c2nc[nH+]c3cc(OC)c(OC)cc23)CC1 (protonated)
CCCC(=O)N1CCN(c2nc[nH+]c3cc(OC)c(OC)cc23)CC1 (3D coordinates assigned)
CCCC(=O)N1CCN(c2nc[nH+]c3cc(OC)c(OC)cc23)CC1 (nonaromatic ring conformer: 57.109105447059655 kcal/mol)

>  <smiles>  (4) 
CCCC(=O)N1CCN(c2ncnc3cc(OC)c(OC)cc23)CC1

>  <score_type>  (4) 
oracle

>  <origin>  (4) 
adg

>  <m_score__min__energy>  (4) 
-7.8099999999999996

>  <m_primary>  (4) 
energy

$$$$
4:0
     RDKit          3D

 64 66  0  0  0  0  0  0  0  0999 V2000
   -3.2170   21.8420  -29.7950 C   0  0  0  0  0  0  0  0  0  0  0  0
   -2.9220   23.3310  -30.0090 C   0  0  0  0  0  0  0  0  0  0  0  0
   -3.8550   23.9670  -30.9570 N   0  0  0  0  0  0  0  0  0  0  0  0
   -5.2040   24.1170  -30.3930 C   0  0  0  0  0  0  0  0  0  0  0  0
   -6.2240   23.3090  -31.2130 C   0  0  0  0  0  0  0  0  0  0  0  0
   -5.7210   22.8880  -32.5390 N   0  0  0  0  0  0  0  0  0  0  0  0
   -5.6970   21.4380  -32.7120 C   0  0  0  0  0  0  0  0  0  0  0  0
   -6.8670   20.6460  -32.5150 C   0  0  0  0  0  0  0  0  0  0  0  0
   -8.1060   21.2060  -32.1080 C   0  0  0  0  0  0  0  0  0  0  0  0
   -9.2130   20.4040  -31.8390 C   0  0  0  0  0  0  0  0  0  0  0  0
   -9.1200   19.0280  -31.9470 C   0  0  0  0  0  0  0  0  0  0  0  0
   -7.9310   18.4460  -32.3730 C   0  0  0  0  0  0  0  0  0  0  0  0
   -6.8010   19.2370  -32.7120 C   0  0  0  0  0  0  0  0  0  0  0  0
   -5.6550   18.6570  -33.2080 N   0  0  0  0  0  0  0  0  0  0  0  0
   -5.7000   17.2780  -33.7510 C   0  0  0  0  0  0  0  0  0  0  0  0
   -4.4750   19.3710  -33.2460 C   0  0  0  0  0  0  0  0  0  0  0  0
   -3.2370   18.7200  -33.4700 C   0  0  0  0  0  0  0  0  0  0  0  0
   -2.0390   19.4310  -33.5840 C   0  0  0  0  0  0  0  0  0  0  0  0
   -0.7950   18.7450  -33.8290 N   0  0  0  0  0  0  0  0  0  0  0  0
   -0.7080   17.3530  -34.2720 C   0  0  0  0  0  0  0  0  0  0  0  0
    0.4020   17.1760  -35.3160 C   0  0  0  0  0  0  0  0  0  0  0  0
    1.1230   18.4510  -35.5310 N   0  0  0  0  0  0  0  0  0  0  0  0
    1.0320   18.8830  -36.9380 C   0  0  0  0  0  0  0  0  0  0  0  0
    2.5310   18.3380  -35.1320 C   0  0  0  0  0  0  0  0  0  0  0  0
   -2.0470   20.8200  -33.4450 C   0  0  0  0  0  0  0  0  0  0  0  0
   -0.8320   21.5130  -33.5790 O   0  0  0  0  0  0  0  0  0  0  0  0
   -0.0390   21.5490  -34.7640 C   0  0  0  0  0  0  0  0  0  0  0  0
   -3.2570   21.4820  -33.1810 C   0  0  0  0  0  0  0  0  0  0  0  0
   -4.4780   20.7740  -33.0430 C   0  0  0  0  0  0  0  0  0  0  0  0
   -3.2594   21.6279  -28.7169 H   0  0  0  0  0  0  0  0  0  0  0  0
   -4.1827   21.5894  -30.2573 H   0  0  0  0  0  0  0  0  0  0  0  0
   -2.4206   21.2403  -30.2573 H   0  0  0  0  0  0  0  0  0  0  0  0
   -2.9983   23.8473  -29.0407 H   0  0  0  0  0  0  0  0  0  0  0  0
   -1.9109   23.4108  -30.4349 H   0  0  0  0  0  0  0  0  0  0  0  0
   -3.4880   24.9110  -31.2300 H   0  0  0  0  0  0  0  0  0  0  0  0
   -5.2047   23.7533  -29.3549 H   0  0  0  0  0  0  0  0  0  0  0  0
   -5.4858   25.1799  -30.4229 H   0  0  0  0  0  0  0  0  0  0  0  0
   -6.4935   22.4084  -30.6418 H   0  0  0  0  0  0  0  0  0  0  0  0
   -7.0873   23.9671  -31.3907 H   0  0  0  0  0  0  0  0  0  0  0  0
   -6.2410   23.3890  -33.2870 H   0  0  0  0  0  0  0  0  0  0  0  0
   -4.7530   23.2620  -32.6720 H   0  0  0  0  0  0  0  0  0  0  0  0
   -8.1942   22.2974  -32.0026 H   0  0  0  0  0  0  0  0  0  0  0  0
  -10.1649   20.8668  -31.5395 H   0  0  0  0  0  0  0  0  0  0  0  0
   -9.9845   18.3957  -31.6965 H   0  0  0  0  0  0  0  0  0  0  0  0
   -7.8643   17.3507  -32.4490 H   0  0  0  0  0  0  0  0  0  0  0  0
   -5.7235   16.5574  -32.9202 H   0  0  0  0  0  0  0  0  0  0  0  0
   -6.6026   17.1561  -34.3678 H   0  0  0  0  0  0  0  0  0  0  0  0
   -4.8073   17.0975  -34.3678 H   0  0  0  0  0  0  0  0  0  0  0  0
   -3.2179   17.6236  -33.5567 H   0  0  0  0  0  0  0  0  0  0  0  0
    0.0950   19.2940  -33.8050 H   0  0  0  0  0  0  0  0  0  0  0  0
   -0.4912   16.7124  -33.4045 H   0  0  0  0  0  0  0  0  0  0  0  0
   -1.6675   17.0706  -34.7298 H   0  0  0  0  0  0  0  0  0  0  0  0
    1.1124   16.4141  -34.9628 H   0  0  0  0  0  0  0  0  0  0  0  0
   -0.0524   16.8608  -36.2669 H   0  0  0  0  0  0  0  0  0  0  0  0
    0.8054   19.9587  -36.9774 H   0  0  0  0  0  0  0  0  0  0  0  0
    1.9902   18.6914  -37.4431 H   0  0  0  0  0  0  0  0  0  0  0  0
    0.2325   18.3211  -37.4431 H   0  0  0  0  0  0  0  0  0  0  0  0
    2.6017   18.3323  -34.0343 H   0  0  0  0  0  0  0  0  0  0  0  0
    2.9514   17.4032  -35.5313 H   0  0  0  0  0  0  0  0  0  0  0  0
    3.0951   19.1938  -35.5313 H   0  0  0  0  0  0  0  0  0  0  0  0
    1.0256   21.5973  -34.4914 H   0  0  0  0  0  0  0  0  0  0  0  0
   -0.2248   20.6415  -35.3572 H   0  0  0  0  0  0  0  0  0  0  0  0
   -0.3062   22.4359  -35.3572 H   0  0  0  0  0  0  0  0  0  0  0  0
   -3.2577   22.5772  -33.0787 H   0  0  0  0  0  0  0  0  0  0  0  0
  1  2  1  0
  2  3  1  0
  3  4  1  0
  4  5  1  0
  5  6  1  0
  6  7  1  0
  7  8  2  0
  8  9  1  0
  9 10  2  0
 10 11  1  0
 11 12  2  0
 12 13  1  0
 13 14  2  0
 14 15  1  0
 14 16  1  0
 16 17  2  0
 17 18  1  0
 18 19  1  0
 19 20  1  0
 20 21  1  0
 21 22  1  0
 22 23  1  0
 22 24  1  0
 18 25  2  0
 25 26  1  0
 26 27  1  0
 25 28  1  0
 28 29  2  0
 29  7  1  0
 13  8  1  0
 29 16  1  0
  1 30  1  0
  1 31  1  0
  1 32  1  0
  2 33  1  0
  2 34  1  0
  3 35  1  0
  4 36  1  0
  4 37  1  0
  5 38  1  0
  5 39  1  0
  6 40  1  0
  6 41  1  0
  9 42  1  0
 10 43  1  0
 11 44  1  0
 12 45  1  0
 15 46  1  0
 15 47  1  0
 15 48  1  0
 17 49  1  0
 19 50  1  0
 20 51  1  0
 20 52  1  0
 21 53  1  0
 21 54  1  0
 23 55  1  0
 23 56  1  0
 23 57  1  0
 24 58  1  0
 24 59  1  0
 24 60  1  0
 27 61  1  0
 27 62  1  0
 27 63  1  0
 28 64  1  0
M  CHG  2   6   1  14   1
M  END
>  <UniqueID>  (5) 
5

>  <SMILES>  (5) 
CCNCC[NH2+]c1c2ccccc2[n+](C)c2cc(NCCN(C)C)c(OC)cc12

>  <Energy>  (5) 
89.8506626457572

>  <Genealogy>  (5) 
CCNCC[NH2+]c1c2ccccc2[n+](C)c2cc(NCCN(C)C)c(OC)cc12 (protonated)
CCNCC[NH2+]c1c2ccccc2[n+](C)c2cc(NCCN(C)C)c(OC)cc12 (3D coordinates assigned)
CCNCC[NH2+]c1c2ccccc2[n+](C)c2cc(NCCN(C)C)c(OC)cc12 (optimized conformer: 89.8506626457572 kcal/mol)

>  <smiles>  (5) 
CCNCCNc1c2ccccc2[n+](C)c2cc(NCCN(C)C)c(OC)cc12

>  <score_type>  (5) 
oracle

>  <origin>  (5) 
adg

>  <m_score__min__energy>  (5) 
-7.0099999999999998

>  <m_primary>  (5) 
energy

$$$$
5:0
     RDKit          3D

 52 56  0  0  0  0  0  0  0  0999 V2000
   -0.7130   16.6440  -34.9070 C   0  0  0  0  0  0  0  0  0  0  0  0
   -1.3250   17.9680  -34.5530 C   0  0  0  0  0  0  0  0  0  0  0  0
   -0.5550   19.1350  -34.5960 C   0  0  0  0  0  0  0  0  0  0  0  0
   -1.0920   20.3240  -34.2190 N   0  0  0  0  0  0  0  0  0  0  0  0
   -2.3790   20.4280  -33.7900 C   0  0  0  0  0  0  0  0  0  0  0  0
   -3.2010   19.2890  -33.7170 C   0  0  0  0  0  0  0  0  0  0  0  0
   -4.6120   19.3790  -33.2570 C   0  0  0  0  0  0  0  0  0  0  0  0
   -5.5260   18.3220  -33.1400 C   0  0  0  0  0  0  0  0  0  0  0  0
   -6.7630   18.7360  -32.6350 C   0  0  0  0  0  0  0  0  0  0  0  0
   -7.8310   17.9230  -32.4460 N   0  0  0  0  0  0  0  0  0  0  0  0
   -9.0040   18.4300  -31.9630 C   0  0  0  0  0  0  0  0  0  0  0  0
   -9.1170   19.7960  -31.6440 C   0  0  0  0  0  0  0  0  0  0  0  0
   -8.0140   20.6450  -31.8040 C   0  0  0  0  0  0  0  0  0  0  0  0
   -8.1290   21.9990  -31.4550 O   0  0  0  0  0  0  0  0  0  0  0  0
   -7.0560   22.8060  -31.0560 C   0  0  0  0  0  0  0  0  0  0  0  0
   -6.5950   23.8060  -31.9240 C   0  0  0  0  0  0  0  0  0  0  0  0
   -5.4560   24.5500  -31.5970 C   0  0  0  0  0  0  0  0  0  0  0  0
   -4.7600   24.2900  -30.4110 C   0  0  0  0  0  0  0  0  0  0  0  0
   -3.5340   24.9770  -30.1420 N   0  0  0  0  0  0  0  0  0  0  0  0
   -2.6130   24.5970  -29.1150 C   0  0  0  0  0  0  0  0  0  0  0  0
   -1.5380   24.0340  -29.4480 O   0  0  0  0  0  0  0  0  0  0  0  0
   -2.9190   24.8440  -27.7270 N   0  0  0  0  0  0  0  0  0  0  0  0
   -2.0110   24.6420  -26.6290 C   0  0  0  0  0  0  0  0  0  0  0  0
   -1.7800   25.6380  -25.6610 C   0  0  0  0  0  0  0  0  0  0  0  0
   -0.8420   25.4260  -24.6430 C   0  0  0  0  0  0  0  0  0  0  0  0
   -0.1200   24.2340  -24.5890 C   0  0  0  0  0  0  0  0  0  0  0  0
   -0.3360   23.2460  -25.5520 C   0  0  0  0  0  0  0  0  0  0  0  0
   -1.2730   23.4480  -26.5700 C   0  0  0  0  0  0  0  0  0  0  0  0
   -5.2790   23.3600  -29.4950 C   0  0  0  0  0  0  0  0  0  0  0  0
   -6.4260   22.6290  -29.8140 C   0  0  0  0  0  0  0  0  0  0  0  0
   -6.8410   20.0840  -32.3340 C   0  0  0  0  0  0  0  0  0  0  0  0
   -5.3770   20.8000  -32.7370 S   0  0  0  0  0  0  0  0  0  0  0  0
   -2.6510   18.0510  -34.1000 C   0  0  0  0  0  0  0  0  0  0  0  0
   -0.4609   16.0985  -33.9856 H   0  0  0  0  0  0  0  0  0  0  0  0
   -1.4301   16.0547  -35.4974 H   0  0  0  0  0  0  0  0  0  0  0  0
    0.2005   16.8084  -35.4974 H   0  0  0  0  0  0  0  0  0  0  0  0
    0.4899   19.0894  -34.9366 H   0  0  0  0  0  0  0  0  0  0  0  0
   -2.7796   21.4100  -33.4981 H   0  0  0  0  0  0  0  0  0  0  0  0
   -5.2957   17.2821  -33.4150 H   0  0  0  0  0  0  0  0  0  0  0  0
   -9.8683   17.7643  -31.8221 H   0  0  0  0  0  0  0  0  0  0  0  0
  -10.0704   20.1968  -31.2694 H   0  0  0  0  0  0  0  0  0  0  0  0
   -7.1299   24.0061  -32.8641 H   0  0  0  0  0  0  0  0  0  0  0  0
   -5.1062   25.3425  -32.2749 H   0  0  0  0  0  0  0  0  0  0  0  0
   -3.8350   25.2930  -27.4940 H   0  0  0  0  0  0  0  0  0  0  0  0
   -2.3378   26.5851  -25.7045 H   0  0  0  0  0  0  0  0  0  0  0  0
   -0.6739   26.2030  -23.8827 H   0  0  0  0  0  0  0  0  0  0  0  0
    0.6181   24.0724  -23.7895 H   0  0  0  0  0  0  0  0  0  0  0  0
    0.2330   22.3055  -25.5095 H   0  0  0  0  0  0  0  0  0  0  0  0
   -1.4332   22.6678  -27.3288 H   0  0  0  0  0  0  0  0  0  0  0  0
   -4.7819   23.2072  -28.5257 H   0  0  0  0  0  0  0  0  0  0  0  0
   -6.8373   21.9115  -29.0887 H   0  0  0  0  0  0  0  0  0  0  0  0
   -3.2658   17.1406  -34.0438 H   0  0  0  0  0  0  0  0  0  0  0  0
  1  2  1  0
  2  3  2  0
  3  4  1  0
  4  5  2  0
  5  6  1  0
  6  7  1  0
  7  8  2  0
  8  9  1  0
  9 10  2  0
 10 11  1  0
 11 12  2  0
 12 13  1  0
 13 14  1  0
 14 15  1  0
 15 16  2  0
 16 17  1  0
 17 18  2  0
 18 19  1  0
 19 20  1  0
 20 21  2  0
 20 22  1  0
 22 23  1  0
 23 24  2  0
 24 25  1  0
 25 26  2  0
 26 27  1  0
 27 28  2  0
 18 29  1  0
 29 30  2  0
 13 31  2  0
 31 32  1  0
  6 33  2  0
 33  2  1  0
 32  7  1  0
 31  9  1  0
 30 15  1  0
 28 23  1  0
  1 34  1  0
  1 35  1  0
  1 36  1  0
  3 37  1  0
  5 38  1  0
  8 39  1  0
 11 40  1  0
 12 41  1  0
 16 42  1  0
 17 43  1  0
 22 44  1  0
 24 45  1  0
 25 46  1  0
 26 47  1  0
 27 48  1  0
 28 49  1  0
 29 50  1  0
 30 51  1  0
 33 52  1  0
M  CHG  1  19  -1
M  END
>  <UniqueID>  (6) 
6

>  <SMILES>  (6) 
Cc1cncc(-c2cc3nccc(Oc4ccc([N-]C(=O)Nc5ccccc5)cc4)c3s2)c1

>  <Energy>  (6) 
106.30466027141865

>  <Genealogy>  (6) 
Cc1cncc(-c2cc3nccc(Oc4ccc([N-]C(=O)Nc5ccccc5)cc4)c3s2)c1 (protonated)
Cc1cncc(-c2cc3nccc(Oc4ccc([N-]C(=O)Nc5ccccc5)cc4)c3s2)c1 (3D coordinates assigned)
Cc1cncc(-c2cc3nccc(Oc4ccc([N-]C(=O)Nc5ccccc5)cc4)c3s2)c1 (optimized conformer: 106.30466027141865 kcal/mol)

>  <smiles>  (6) 
Cc1cncc(-c2cc3nccc(Oc4ccc(NC(=O)Nc5ccccc5)cc4)c3s2)c1

>  <score_type>  (6) 
oracle

>  <origin>  (6) 
adg

>  <m_score__min__energy>  (6) 
-11.710000000000001

>  <m_primary>  (6) 
energy

$$$$
6:0
     RDKit          3D

 41 42  0  0  0  0  0  0  0  0999 V2000
   -4.3960   19.4530  -33.4780 C   0  0  0  0  0  0  0  0  0  0  0  0
   -2.9110   19.6450  -33.7960 C   0  0  0  0  0  0  0  0  0  0  0  0
   -2.4490   21.0180  -33.4840 N   0  0  0  0  0  0  0  0  0  0  0  0
   -0.9950   21.1050  -33.2560 C   0  0  0  0  0  0  0  0  0  0  0  0
   -0.5910   20.6200  -31.8570 C   0  0  0  0  0  0  0  0  0  0  0  0
   -1.6240   20.9770  -30.8860 N   0  0  0  0  0  0  0  0  0  0  0  0
   -1.6390   22.2470  -30.2110 C   0  0  0  0  0  0  0  0  0  0  0  0
   -0.5080   22.6410  -29.4740 C   0  0  0  0  0  0  0  0  0  0  0  0
   -0.4350   23.8950  -28.8680 C   0  0  0  0  0  0  0  0  0  0  0  0
    0.7280   24.2200  -28.1520 O   0  0  0  0  0  0  0  0  0  0  0  0
    0.8830   24.0460  -26.7470 C   0  0  0  0  0  0  0  0  0  0  0  0
   -1.5110   24.7840  -28.9980 C   0  0  0  0  0  0  0  0  0  0  0  0
   -2.6520   24.4160  -29.7160 C   0  0  0  0  0  0  0  0  0  0  0  0
   -3.6810   25.2980  -29.8130 N   0  0  0  0  0  0  0  0  0  0  0  0
   -4.8250   25.0040  -30.4760 C   0  0  0  0  0  0  0  0  0  0  0  0
   -4.9880   23.7540  -31.0840 C   0  0  0  0  0  0  0  0  0  0  0  0
   -6.2800   23.4200  -31.7790 C   0  0  0  0  0  0  0  0  0  0  0  0
   -3.9540   22.8060  -30.9880 C   0  0  0  0  0  0  0  0  0  0  0  0
   -4.1300   21.6590  -31.4820 O   0  0  0  0  0  0  0  0  0  0  0  0
   -2.7430   23.1380  -30.3250 C   0  0  0  0  0  0  0  0  0  0  0  0
   -4.5380   19.4346  -32.3874 H   0  0  0  0  0  0  0  0  0  0  0  0
   -4.9737   20.2839  -33.9091 H   0  0  0  0  0  0  0  0  0  0  0  0
   -4.7434   18.5025  -33.9091 H   0  0  0  0  0  0  0  0  0  0  0  0
   -2.3250   18.9293  -33.2007 H   0  0  0  0  0  0  0  0  0  0  0  0
   -2.7699   19.4760  -34.8737 H   0  0  0  0  0  0  0  0  0  0  0  0
   -2.9590   21.4230  -32.6640 H   0  0  0  0  0  0  0  0  0  0  0  0
   -2.6700   21.6300  -34.3050 H   0  0  0  0  0  0  0  0  0  0  0  0
   -0.4823   20.4852  -34.0063 H   0  0  0  0  0  0  0  0  0  0  0  0
   -0.7055   22.1629  -33.3403 H   0  0  0  0  0  0  0  0  0  0  0  0
   -0.4674   19.5271  -31.8720 H   0  0  0  0  0  0  0  0  0  0  0  0
    0.3564   21.0989  -31.5686 H   0  0  0  0  0  0  0  0  0  0  0  0
   -2.4860   20.3880  -30.8460 H   0  0  0  0  0  0  0  0  0  0  0  0
    0.3377   21.9448  -29.3733 H   0  0  0  0  0  0  0  0  0  0  0  0
    0.2424   24.7652  -26.2156 H   0  0  0  0  0  0  0  0  0  0  0  0
    0.5925   23.0218  -26.4701 H   0  0  0  0  0  0  0  0  0  0  0  0
    1.9338   24.2166  -26.4701 H   0  0  0  0  0  0  0  0  0  0  0  0
   -1.4568   25.7787  -28.5314 H   0  0  0  0  0  0  0  0  0  0  0  0
   -5.6298   25.7513  -30.5368 H   0  0  0  0  0  0  0  0  0  0  0  0
   -7.0587   23.2187  -31.0285 H   0  0  0  0  0  0  0  0  0  0  0  0
   -6.5877   24.2681  -32.4083 H   0  0  0  0  0  0  0  0  0  0  0  0
   -6.1382   22.5290  -32.4083 H   0  0  0  0  0  0  0  0  0  0  0  0
  1  2  1  0
  2  3  1  0
  3  4  1  0
  4  5  1  0
  5  6  1  0
  6  7  1  0
  7  8  2  0
  8  9  1  0
  9 10  1  0
 10 11  1  0
  9 12  2  0
 12 13  1  0
 13 14  1  0
 14 15  1  0
 15 16  2  0
 16 17  1  0
 16 18  1  0
 18 19  2  0
 18 20  1  0
 20  7  1  0
 20 13  2  0
  1 21  1  0
  1 22  1  0
  1 23  1  0
  2 24  1  0
  2 25  1  0
  3 26  1  0
  3 27  1  0
  4 28  1  0
  4 29  1  0
  5 30  1  0
  5 31  1  0
  6 32  1  0
  8 33  1  0
 11 34  1  0
 11 35  1  0
 11 36  1  0
 12 37  1  0
 15 38  1  0
 17 39  1  0
 17 40  1  0
 17 41  1  0
M  CHG  2   3   1  14  -1
M  END
>  <UniqueID>  (7) 
7

>  <SMILES>  (7) 
CC[NH2+]CCNc1cc(OC)cc2[n-]cc(C)c(=O)c12

>  <Energy>  (7) 
49.92938769064594

>  <Genealogy>  (7) 
CC[NH2+]CCNc1cc(OC)cc2[n-]cc(C)c(=O)c12 (protonated)
CC[NH2+]CCNc1cc(OC)cc2[n-]cc(C)c(=O)c12 (3D coordinates assigned)
CC[NH2+]CCNc1cc(OC)cc2[n-]cc(C)c(=O)c12 (optimized conformer: 49.92938769064594 kcal/mol)

>  <smiles>  (7) 
CCNCCNc1cc(OC)cc2[nH]cc(C)c(=O)c12

>  <score_type>  (7) 
oracle

>  <origin>  (7) 
adg

>  <m_score__min__energy>  (7) 
-6.0999999999999996

>  <m_primary>  (7) 
energy

$$$$
7:0
     RDKit          3D

 49 51  0  0  1  0  0  0  0  0999 V2000
   -1.1670   25.7310  -28.2600 C   0  0  0  0  0  0  0  0  0  0  0  0
   -2.2430   25.3120  -29.0010 O   0  0  0  0  0  0  0  0  0  0  0  0
   -2.9540   24.2590  -28.4330 C   0  0  0  0  0  0  0  0  0  0  0  0
   -2.6320   22.9340  -29.0340 C   0  0  0  0  0  0  0  0  0  0  0  0
   -1.9140   23.0770  -30.3150 N   0  0  0  0  0  0  0  0  0  0  0  0
   -2.0840   22.1740  -31.3870 C   0  0  0  0  0  0  0  0  0  0  0  0
   -0.9380   21.4880  -31.8140 C   0  0  0  0  0  0  0  0  0  0  0  0
   -0.9820   20.5620  -32.8460 C   0  0  0  0  0  0  0  0  0  0  0  0
   -2.2010   20.3370  -33.4400 C   0  0  0  0  0  0  0  0  0  0  0  0
   -3.3630   21.0100  -33.0260 C   0  0  0  0  0  0  0  0  0  0  0  0
   -3.3080   21.9290  -32.0000 C   0  0  0  0  0  0  0  0  0  0  0  0
   -4.5230   22.6030  -31.5770 C   0  0  0  0  0  0  0  0  0  0  0  0
   -5.7330   21.9000  -31.5260 C   0  0  0  0  0  0  0  0  0  0  0  0
   -6.8920   22.5790  -31.1190 C   0  0  0  0  0  0  0  0  0  0  0  0
   -8.0150   21.9660  -31.0720 N   0  0  0  0  0  0  0  0  0  0  0  0
   -8.4830   20.9910  -31.9630 C   0  0  0  0  0  0  0  0  0  0  0  0
   -9.6730   21.1660  -32.4170 O   0  0  0  0  0  0  0  0  0  0  0  0
   -7.7950   19.8140  -32.4340 C   0  0  0  0  0  0  0  0  0  0  0  0
   -6.9230   19.9730  -33.5140 C   0  0  0  0  0  0  0  0  0  0  0  0
   -6.2100   18.9160  -34.0390 C   0  0  0  0  0  0  0  0  0  0  0  0
   -6.3560   17.6420  -33.4860 C   0  0  0  0  0  0  0  0  0  0  0  0
   -7.2200   17.4830  -32.4160 C   0  0  0  0  0  0  0  0  0  0  0  0
   -7.9320   18.5560  -31.8970 C   0  0  0  0  0  0  0  0  0  0  0  0
   -8.7700   18.3760  -30.8500 F   0  0  0  0  0  0  0  0  0  0  0  0
   -6.8680   23.8770  -30.7790 N   0  0  0  0  0  0  0  0  0  0  0  0
   -5.7040   24.5380  -30.8330 C   0  0  0  0  0  0  0  0  0  0  0  0
   -5.5590   25.9800  -30.4850 C   0  0  0  0  0  0  0  0  0  0  0  0
   -4.6220   23.8860  -31.2180 N   0  0  0  0  0  0  0  0  0  0  0  0
   -1.4014   25.6397  -27.1891 H   0  0  0  0  0  0  0  0  0  0  0  0
   -0.2926   25.1077  -28.4984 H   0  0  0  0  0  0  0  0  0  0  0  0
   -0.9444   26.7815  -28.4984 H   0  0  0  0  0  0  0  0  0  0  0  0
   -2.7207   24.2204  -27.3587 H   0  0  0  0  0  0  0  0  0  0  0  0
   -4.0210   24.4496  -28.6207 H   0  0  0  0  0  0  0  0  0  0  0  0
   -2.0011   22.3681  -28.3327 H   0  0  0  0  0  0  0  0  0  0  0  0
   -3.5773   22.4058  -29.2273 H   0  0  0  0  0  0  0  0  0  0  0  0
   -1.2870   23.9130  -30.3220 H   0  0  0  0  0  0  0  0  0  0  0  0
    0.0224   21.6897  -31.3170 H   0  0  0  0  0  0  0  0  0  0  0  0
   -0.0778   20.0293  -33.1757 H   0  0  0  0  0  0  0  0  0  0  0  0
   -2.2688   19.6097  -34.2625 H   0  0  0  0  0  0  0  0  0  0  0  0
   -4.3219   20.8023  -33.5234 H   0  0  0  0  0  0  0  0  0  0  0  0
   -5.7744   20.8354  -31.7998 H   0  0  0  0  0  0  0  0  0  0  0  0
   -6.8016   20.9716  -33.9589 H   0  0  0  0  0  0  0  0  0  0  0  0
   -5.5299   19.0754  -34.8888 H   0  0  0  0  0  0  0  0  0  0  0  0
   -5.7977   16.7851  -33.8910 H   0  0  0  0  0  0  0  0  0  0  0  0
   -7.3449   16.4862  -31.9679 H   0  0  0  0  0  0  0  0  0  0  0  0
   -7.6970   24.4170  -30.4690 H   0  0  0  0  0  0  0  0  0  0  0  0
   -5.5476   26.0938  -29.3910 H   0  0  0  0  0  0  0  0  0  0  0  0
   -4.6176   26.3653  -30.9036 H   0  0  0  0  0  0  0  0  0  0  0  0
   -6.4049   26.5451  -30.9036 H   0  0  0  0  0  0  0  0  0  0  0  0
  1  2  1  0
  2  3  1  0
  3  4  1  0
  4  5  1  0
  5  6  1  0
  6  7  2  0
  7  8  1  0
  8  9  2  0
  9 10  1  0
 10 11  2  0
 11 12  1  0
 12 13  2  0
 13 14  1  0
 14 15  2  0
 15 16  1  0
 16 17  2  0
 16 18  1  0
 18 19  2  0
 19 20  1  0
 20 21  2  0
 21 22  1  0
 22 23  2  0
 23 24  1  0
 14 25  1  0
 25 26  1  0
 26 27  1  0
 26 28  2  0
 11  6  1  0
 28 12  1  0
 23 18  1  0
  1 29  1  0
  1 30  1  0
  1 31  1  0
  3 32  1  0
  3 33  1  0
  4 34  1  0
  4 35  1  0
  5 36  1  0
  7 37  1  0
  8 38  1  0
  9 39  1  0
 10 40  1  0
 13 41  1  0
 19 42  1  0
 20 43  1  0
 21 44  1  0
 22 45  1  0
 25 46  1  0
 27 47  1  0
 27 48  1  0
 27 49  1  0
M  END
>  <smiles>  (8) 
COCCNc1ccccc1-c1cc(=NC(=O)c2ccccc2F)[nH]c(C)n1

>  <score_type>  (8) 
oracle

>  <origin>  (8) 
adg

>  <m_score__min__energy>  (8) 
-9

>  <m_primary>  (8) 
energy

$$$$
8:0
     RDKit          3D

 41 43  0  0  0  0  0  0  0  0999 V2000
   -0.7370   25.4865  -27.9799 H   0  0  0  0  0  0  0  0  0  0  0  0
   -1.3360   24.7300  -28.5080 C   0  0  0  0  0  0  0  0  0  0  0  0
   -2.3360   25.1190  -29.3420 N   0  0  0  0  0  0  0  0  0  0  0  0
   -3.0980   24.2310  -30.0370 C   0  0  0  0  0  0  0  0  0  0  0  0
   -4.0420   24.7030  -30.8050 N   0  0  0  0  0  0  0  0  0  0  0  0
   -5.3830   25.0930  -30.4630 C   0  0  0  0  0  0  0  0  0  0  0  0
   -5.7360   26.3030  -30.4670 O   0  0  0  0  0  0  0  0  0  0  0  0
   -6.3590   24.0460  -30.0440 C   0  0  0  0  0  0  0  0  0  0  0  0
   -5.8246   23.1076  -29.8345 H   0  0  0  0  0  0  0  0  0  0  0  0
   -6.8863   24.3744  -29.1362 H   0  0  0  0  0  0  0  0  0  0  0  0
   -7.5610   23.7760  -31.3860 S   0  0  0  0  0  0  0  0  0  0  0  0
   -6.6580   22.3720  -32.0660 C   0  0  0  0  0  0  0  0  0  0  0  0
   -7.3150   21.1710  -32.3770 C   0  0  0  0  0  0  0  0  0  0  0  0
   -8.7320   21.0120  -32.1610 C   0  0  0  0  0  0  0  0  0  0  0  0
   -9.8690   20.8860  -31.9880 N   0  0  0  0  0  0  0  0  0  0  0  0
   -6.5790   20.1040  -32.9010 C   0  0  0  0  0  0  0  0  0  0  0  0
   -7.0853   19.1583  -33.1444 H   0  0  0  0  0  0  0  0  0  0  0  0
   -5.1950   20.2320  -33.1190 C   0  0  0  0  0  0  0  0  0  0  0  0
   -4.4100   19.1740  -33.6480 C   0  0  0  0  0  0  0  0  0  0  0  0
   -5.0110   17.8390  -34.0100 C   0  0  0  0  0  0  0  0  0  0  0  0
   -5.2593   17.2874  -33.0912 H   0  0  0  0  0  0  0  0  0  0  0  0
   -5.9250   17.9966  -34.6014 H   0  0  0  0  0  0  0  0  0  0  0  0
   -4.2870   17.2592  -34.6014 H   0  0  0  0  0  0  0  0  0  0  0  0
   -3.0320   19.3720  -33.8400 C   0  0  0  0  0  0  0  0  0  0  0  0
   -2.4174   18.5566  -34.2491 H   0  0  0  0  0  0  0  0  0  0  0  0
   -2.4350   20.5900  -33.5180 C   0  0  0  0  0  0  0  0  0  0  0  0
   -1.3552   20.7293  -33.6749 H   0  0  0  0  0  0  0  0  0  0  0  0
   -3.2010   21.6320  -32.9980 C   0  0  0  0  0  0  0  0  0  0  0  0
   -2.7224   22.5899  -32.7464 H   0  0  0  0  0  0  0  0  0  0  0  0
   -4.5770   21.4660  -32.7940 C   0  0  0  0  0  0  0  0  0  0  0  0
   -5.3210   22.4910  -32.2840 N   0  0  0  0  0  0  0  0  0  0  0  0
   -4.8560   23.3980  -32.0470 H   0  0  0  0  0  0  0  0  0  0  0  0
   -2.8560   22.8510  -29.8700 C   0  0  0  0  0  0  0  0  0  0  0  0
   -3.4696   22.1118  -30.4057 H   0  0  0  0  0  0  0  0  0  0  0  0
   -1.8310   22.4310  -29.0190 C   0  0  0  0  0  0  0  0  0  0  0  0
   -1.6245   21.3573  -28.8988 H   0  0  0  0  0  0  0  0  0  0  0  0
   -1.0660   23.3700  -28.3190 C   0  0  0  0  0  0  0  0  0  0  0  0
    0.0610   22.9300  -27.4330 C   0  0  0  0  0  0  0  0  0  0  0  0
   -0.2342   23.0453  -26.3796 H   0  0  0  0  0  0  0  0  0  0  0  0
    0.2953   21.8743  -27.6347 H   0  0  0  0  0  0  0  0  0  0  0  0
    0.9486   23.5476  -27.6347 H   0  0  0  0  0  0  0  0  0  0  0  0
  1  2  1  0
  2  3  1  0
  3  4  1  0
  4  5  2  0
  5  6  1  0
  6  7  2  0
  6  8  1  0
  8  9  1  0
  8 10  1  0
  8 11  1  0
 11 12  1  0
 12 13  2  0
 13 14  1  0
 14 15  3  0
 13 16  1  0
 16 17  1  0
 16 18  2  0
 18 19  1  0
 19 20  1  0
 20 21  1  0
 20 22  1  0
 20 23  1  0
 19 24  2  0
 24 25  1  0
 24 26  1  0
 26 27  1  0
 26 28  2  0
 28 29  1  0
 28 30  1  0
 30 31  2  0
 31 32  1  0
  4 33  1  0
 33 34  1  0
 33 35  2  0
 35 36  1  0
 35 37  1  0
 37 38  1  0
 38 39  1  0
 38 40  1  0
 38 41  1  0
 37  2  2  0
 31 12  1  0
 30 18  1  0
M  CHG  2   3  -1  31   1
M  END
>  <UniqueID>  (9) 
8

>  <SMILES>  (9) 
Cc1cc/c(=N\C(=O)CSc2[nH+]c3cccc(C)c3cc2C#N)[n-]c1

>  <Energy>  (9) 
50.26112022245414

>  <Genealogy>  (9) 
Cc1ccc(=NC(=O)CSc2[nH+]c3cccc(C)c3cc2C#N)[n-]c1 (protonated)
Cc1cc/c(=N\C(=O)CSc2[nH+]c3cccc(C)c3cc2C#N)[n-]c1 (cis-trans isomerization)
Cc1cc/c(=N\C(=O)CSc2[nH+]c3cccc(C)c3cc2C#N)[n-]c1 (3D coordinates assigned)
Cc1cc/c(=N\C(=O)CSc2[nH+]c3cccc(C)c3cc2C#N)[n-]c1 (optimized conformer: 50.26112022245414 kcal/mol)

>  <smiles>  (9) 
Cc1ccc(=NC(=O)CSc2nc3cccc(C)c3cc2C#N)[nH]c1

>  <score_type>  (9) 
oracle

>  <origin>  (9) 
adg

>  <m_score__min__energy>  (9) 
-9.6500000000000004

>  <m_primary>  (9) 
energy

$$$$
9:0
     RDKit          3D

 53 55  0  0  0  0  0  0  0  0999 V2000
   -1.9940   26.0740  -25.2110 C   0  0  0  0  0  0  0  0  0  0  0  0
   -0.6090   26.0710  -24.7150 N   0  0  0  0  0  0  0  0  0  0  0  0
   -0.5070   26.7490  -23.4130 C   0  0  0  0  0  0  0  0  0  0  0  0
    0.0020   24.7230  -24.7150 C   0  0  0  0  0  0  0  0  0  0  0  0
    0.5760   24.2810  -26.0770 C   0  0  0  0  0  0  0  0  0  0  0  0
   -0.5130   24.1330  -27.0570 N   0  0  0  0  0  0  0  0  0  0  0  0
   -0.6880   25.1100  -27.9990 C   0  0  0  0  0  0  0  0  0  0  0  0
   -1.7230   25.0260  -28.9300 C   0  0  0  0  0  0  0  0  0  0  0  0
   -2.5990   23.9410  -28.8940 C   0  0  0  0  0  0  0  0  0  0  0  0
   -3.6700   23.8550  -29.8460 N   0  0  0  0  0  0  0  0  0  0  0  0
   -4.8130   24.7680  -29.7390 C   0  0  0  0  0  0  0  0  0  0  0  0
   -6.1360   24.0600  -30.1040 C   0  0  0  0  0  0  0  0  0  0  0  0
   -5.9260   22.7620  -30.7820 N   0  0  0  0  0  0  0  0  0  0  0  0
   -7.4020   22.2500  -31.5620 S   0  0  0  0  0  0  0  0  0  0  0  0
   -8.5320   22.2930  -30.5690 O   0  0  0  0  0  0  0  0  0  0  0  0
   -7.7190   23.1730  -32.7040 O   0  0  0  0  0  0  0  0  0  0  0  0
   -7.2010   20.6180  -32.2050 C   0  0  0  0  0  0  0  0  0  0  0  0
   -6.2030   20.3800  -33.1620 C   0  0  0  0  0  0  0  0  0  0  0  0
   -6.0220   19.1000  -33.6920 C   0  0  0  0  0  0  0  0  0  0  0  0
   -6.8410   18.0490  -33.2740 C   0  0  0  0  0  0  0  0  0  0  0  0
   -7.8450   18.2780  -32.3290 C   0  0  0  0  0  0  0  0  0  0  0  0
   -8.0310   19.5580  -31.7950 C   0  0  0  0  0  0  0  0  0  0  0  0
   -9.0210   19.7560  -30.8900 F   0  0  0  0  0  0  0  0  0  0  0  0
   -4.8410   22.8540  -31.7710 C   0  0  0  0  0  0  0  0  0  0  0  0
   -3.5110   23.0060  -31.0300 C   0  0  0  0  0  0  0  0  0  0  0  0
   -2.4240   22.9460  -27.9220 C   0  0  0  0  0  0  0  0  0  0  0  0
   -3.4920   21.5440  -27.8730 Cl  0  0  0  0  0  0  0  0  0  0  0  0
   -1.3720   23.0630  -27.0000 C   0  0  0  0  0  0  0  0  0  0  0  0
   -1.2240   22.1720  -26.1170 O   0  0  0  0  0  0  0  0  0  0  0  0
   -2.6889   26.0755  -24.3583 H   0  0  0  0  0  0  0  0  0  0  0  0
   -2.1624   26.9725  -25.8228 H   0  0  0  0  0  0  0  0  0  0  0  0
   -2.1663   25.1762  -25.8228 H   0  0  0  0  0  0  0  0  0  0  0  0
   -0.6181   26.0105  -22.6053 H   0  0  0  0  0  0  0  0  0  0  0  0
    0.4748   27.2380  -23.3302 H   0  0  0  0  0  0  0  0  0  0  0  0
   -1.3015   27.5053  -23.3302 H   0  0  0  0  0  0  0  0  0  0  0  0
    0.8196   24.7163  -23.9791 H   0  0  0  0  0  0  0  0  0  0  0  0
   -0.8030   24.0146  -24.4699 H   0  0  0  0  0  0  0  0  0  0  0  0
    1.2885   25.0386  -26.4354 H   0  0  0  0  0  0  0  0  0  0  0  0
    1.0884   23.3150  -25.9572 H   0  0  0  0  0  0  0  0  0  0  0  0
   -0.0045   25.9715  -28.0222 H   0  0  0  0  0  0  0  0  0  0  0  0
   -1.8480   25.8119  -29.6894 H   0  0  0  0  0  0  0  0  0  0  0  0
   -4.8790   25.1392  -28.7056 H   0  0  0  0  0  0  0  0  0  0  0  0
   -4.6594   25.5989  -30.4432 H   0  0  0  0  0  0  0  0  0  0  0  0
   -6.7071   23.8852  -29.1802 H   0  0  0  0  0  0  0  0  0  0  0  0
   -6.6784   24.7137  -30.8029 H   0  0  0  0  0  0  0  0  0  0  0  0
   -5.5590   21.2064  -33.4971 H   0  0  0  0  0  0  0  0  0  0  0  0
   -5.2344   18.9201  -34.4385 H   0  0  0  0  0  0  0  0  0  0  0  0
   -6.6959   17.0405  -33.6886 H   0  0  0  0  0  0  0  0  0  0  0  0
   -8.4911   17.4492  -32.0039 H   0  0  0  0  0  0  0  0  0  0  0  0
   -4.8207   21.9407  -32.3838 H   0  0  0  0  0  0  0  0  0  0  0  0
   -5.0052   23.7218  -32.4267 H   0  0  0  0  0  0  0  0  0  0  0  0
   -3.1569   22.0128  -30.7168 H   0  0  0  0  0  0  0  0  0  0  0  0
   -2.7819   23.4763  -31.7062 H   0  0  0  0  0  0  0  0  0  0  0  0
  1  2  1  0
  2  3  1  0
  2  4  1  0
  4  5  1  0
  5  6  1  0
  6  7  1  0
  7  8  2  0
  8  9  1  0
  9 10  1  0
 10 11  1  0
 11 12  1  0
 12 13  1  0
 13 14  1  0
 14 15  2  0
 14 16  2  0
 14 17  1  0
 17 18  2  0
 18 19  1  0
 19 20  2  0
 20 21  1  0
 21 22  2  0
 22 23  1  0
 13 24  1  0
 24 25  1  0
  9 26  2  0
 26 27  1  0
 26 28  1  0
 28 29  2  0
 28  6  1  0
 25 10  1  0
 22 17  1  0
  1 30  1  0
  1 31  1  0
  1 32  1  0
  3 33  1  0
  3 34  1  0
  3 35  1  0
  4 36  1  0
  4 37  1  0
  5 38  1  0
  5 39  1  0
  7 40  1  0
  8 41  1  0
 11 42  1  0
 11 43  1  0
 12 44  1  0
 12 45  1  0
 18 46  1  0
 19 47  1  0
 20 48  1  0
 21 49  1  0
 24 50  1  0
 24 51  1  0
 25 52  1  0
 25 53  1  0
M  END
>  <UniqueID>  (10) 
9

>  <SMILES>  (10) 
CN(C)CCn1ccc(N2CCN(S(=O)(=O)c3ccccc3F)CC2)c(Cl)c1=O

>  <Energy>  (10) 
67.75826397477424

>  <Genealogy>  (10) 
CN(C)CCn1ccc(N2CCN(S(=O)(=O)c3ccccc3F)CC2)c(Cl)c1=O (3D coordinates assigned)
CN(C)CCn1ccc(N2CCN(S(=O)(=O)c3ccccc3F)CC2)c(Cl)c1=O (nonaromatic ring conformer: 67.75826397477424 kcal/mol)

>  <smiles>  (10) 
CN(C)CCn1ccc(N2CCN(S(=O)(=O)c3ccccc3F)CC2)c(Cl)c1=O

>  <score_type>  (10) 
oracle

>  <origin>  (10) 
adg

>  <m_score__min__energy>  (10) 
-8.8200000000000003

>  <m_primary>  (10) 
energy

$$$$
10:0
     RDKit          3D

 36 37  0  0  1  0  0  0  0  0999 V2000
   -5.7410   18.3360  -34.9970 C   0  0  0  0  0  0  0  0  0  0  0  0
   -4.8280   18.5520  -34.2220 C   0  0  0  0  0  0  0  0  0  0  0  0
   -3.7440   18.8140  -33.2750 C   0  0  0  0  0  0  0  0  0  0  0  0
   -3.2570   20.5630  -33.3140 S   0  0  0  0  0  0  0  0  0  0  0  0
   -4.3940   21.5730  -32.3820 C   0  0  0  0  0  0  0  0  0  0  0  0
   -4.0910   22.8080  -31.9450 N   0  0  0  0  0  0  0  0  0  0  0  0
   -4.9790   23.5290  -31.2460 C   0  0  0  0  0  0  0  0  0  0  0  0
   -4.6130   24.7490  -30.8510 N   0  0  0  0  0  0  0  0  0  0  0  0
   -5.5110   25.4690  -30.1590 C   0  0  0  0  0  0  0  0  0  0  0  0
   -6.7630   25.0620  -29.8290 C   0  0  0  0  0  0  0  0  0  0  0  0
   -7.1720   23.7750  -30.2360 C   0  0  0  0  0  0  0  0  0  0  0  0
   -6.2560   23.0530  -30.9300 C   0  0  0  0  0  0  0  0  0  0  0  0
   -6.5400   21.7980  -31.3810 C   0  0  0  0  0  0  0  0  0  0  0  0
   -7.5980   21.2200  -31.0880 N   0  0  0  0  0  0  0  0  0  0  0  0
   -8.8410   21.2970  -31.7210 C   0  0  0  0  0  0  0  0  0  0  0  0
   -8.7580   20.0520  -32.6870 C   0  0  0  0  0  0  0  0  0  0  0  0
   -8.2270   18.9630  -31.7780 C   0  0  0  0  0  0  0  0  0  0  0  0
   -7.0810   18.3850  -32.2430 O   0  0  0  0  0  0  0  0  0  0  0  0
   -6.4760   17.6760  -31.2040 C   0  0  0  0  0  0  0  0  0  0  0  0
   -5.6130   21.1040  -32.0850 N   0  0  0  0  0  0  0  0  0  0  0  0
   -6.5663   18.1408  -35.6976 H   0  0  0  0  0  0  0  0  0  0  0  0
   -4.0824   18.5570  -32.2604 H   0  0  0  0  0  0  0  0  0  0  0  0
   -2.8752   18.2012  -33.5574 H   0  0  0  0  0  0  0  0  0  0  0  0
   -5.2059   26.4739  -29.8319 H   0  0  0  0  0  0  0  0  0  0  0  0
   -7.4394   25.7171  -29.2604 H   0  0  0  0  0  0  0  0  0  0  0  0
   -8.1725   23.3805  -30.0050 H   0  0  0  0  0  0  0  0  0  0  0  0
   -9.6681   21.1976  -31.0026 H   0  0  0  0  0  0  0  0  0  0  0  0
   -9.0361   22.2540  -32.2270 H   0  0  0  0  0  0  0  0  0  0  0  0
   -9.7502   19.7899  -33.0830 H   0  0  0  0  0  0  0  0  0  0  0  0
   -8.1301   20.2270  -33.5730 H   0  0  0  0  0  0  0  0  0  0  0  0
   -8.0214   19.4015  -30.7904 H   0  0  0  0  0  0  0  0  0  0  0  0
   -8.9935   18.1755  -31.7293 H   0  0  0  0  0  0  0  0  0  0  0  0
   -6.8182   18.0770  -30.2385 H   0  0  0  0  0  0  0  0  0  0  0  0
   -6.7497   16.6131  -31.2773 H   0  0  0  0  0  0  0  0  0  0  0  0
   -5.3833   17.7791  -31.2773 H   0  0  0  0  0  0  0  0  0  0  0  0
   -5.8410   20.1470  -32.4270 H   0  0  0  0  0  0  0  0  0  0  0  0
  1  2  3  0
  2  3  1  0
  3  4  1  0
  4  5  1  0
  5  6  2  0
  6  7  1  0
  7  8  2  0
  8  9  1  0
  9 10  2  0
 10 11  1  0
 11 12  2  0
 12 13  1  0
 13 14  2  0
 14 15  1  0
 15 16  1  0
 16 17  1  0
 17 18  1  0
 18 19  1  0
 13 20  1  0
 20  5  1  0
 12  7  1  0
  1 21  1  0
  3 22  1  0
  3 23  1  0
  9 24  1  0
 10 25  1  0
 11 26  1  0
 15 27  1  0
 15 28  1  0
 16 29  1  0
 16 30  1  0
 17 31  1  0
 17 32  1  0
 19 33  1  0
 19 34  1  0
 19 35  1  0
 20 36  1  0
M  END
>  <smiles>  (11) 
C#CCSc1nc2ncccc2c(=NCCCOC)[nH]1

>  <score_type>  (11) 
oracle

>  <origin>  (11) 
adg

>  <m_score__min__energy>  (11) 
-6.5499999999999998

>  <m_primary>  (11) 
energy

$$$$
11:0
     RDKit          3D

 56 58  0  0  0  0  0  0  0  0999 V2000
   -9.0460   19.5360  -32.2800 C   0  0  0  0  0  0  0  0  0  0  0  0
   -8.9620   21.0010  -31.8520 C   0  0  0  0  0  0  0  0  0  0  0  0
   -7.6090   21.3290  -31.3500 N   0  0  0  0  0  0  0  0  0  0  0  0
   -6.6610   21.6130  -32.4590 C   0  0  0  0  0  0  0  0  0  0  0  0
   -5.6290   20.4950  -32.5460 C   0  0  0  0  0  0  0  0  0  0  0  0
   -7.6760   22.4490  -30.3870 C   0  0  0  0  0  0  0  0  0  0  0  0
   -6.3280   22.8340  -29.9500 C   0  0  0  0  0  0  0  0  0  0  0  0
   -5.2260   23.1610  -29.5860 C   0  0  0  0  0  0  0  0  0  0  0  0
   -3.8990   23.5420  -29.1550 C   0  0  0  0  0  0  0  0  0  0  0  0
   -3.1990   22.8340  -28.1470 C   0  0  0  0  0  0  0  0  0  0  0  0
   -3.8440   21.6280  -27.4840 C   0  0  0  0  0  0  0  0  0  0  0  0
   -1.9480   23.2760  -27.7540 N   0  0  0  0  0  0  0  0  0  0  0  0
   -1.1730   22.6020  -26.6850 C   0  0  0  0  0  0  0  0  0  0  0  0
   -0.7240   21.2230  -27.1150 C   0  0  0  0  0  0  0  0  0  0  0  0
    0.3920   21.0790  -27.9540 C   0  0  0  0  0  0  0  0  0  0  0  0
    0.8330   19.8100  -28.3370 C   0  0  0  0  0  0  0  0  0  0  0  0
    0.1730   18.6560  -27.8820 C   0  0  0  0  0  0  0  0  0  0  0  0
    0.6390   17.3060  -28.2900 C   0  0  0  0  0  0  0  0  0  0  0  0
    0.6820   16.9450  -29.6500 C   0  0  0  0  0  0  0  0  0  0  0  0
    1.1210   15.6740  -30.0320 C   0  0  0  0  0  0  0  0  0  0  0  0
    1.5200   14.7490  -29.0630 C   0  0  0  0  0  0  0  0  0  0  0  0
    1.4810   15.0950  -27.7100 C   0  0  0  0  0  0  0  0  0  0  0  0
    1.0430   16.3660  -27.3230 C   0  0  0  0  0  0  0  0  0  0  0  0
   -0.9370   18.8010  -27.0300 C   0  0  0  0  0  0  0  0  0  0  0  0
   -1.3760   20.0710  -26.6450 C   0  0  0  0  0  0  0  0  0  0  0  0
   -1.3860   24.3670  -28.3720 C   0  0  0  0  0  0  0  0  0  0  0  0
   -0.2380   24.7760  -28.0400 O   0  0  0  0  0  0  0  0  0  0  0  0
   -2.0520   25.0280  -29.3480 N   0  0  0  0  0  0  0  0  0  0  0  0
   -3.2840   24.6480  -29.7480 C   0  0  0  0  0  0  0  0  0  0  0  0
   -3.8660   25.3010  -30.6570 O   0  0  0  0  0  0  0  0  0  0  0  0
   -9.0828   18.8947  -31.3871 H   0  0  0  0  0  0  0  0  0  0  0  0
   -9.9545   19.3809  -32.8805 H   0  0  0  0  0  0  0  0  0  0  0  0
   -8.1612   19.2781  -32.8805 H   0  0  0  0  0  0  0  0  0  0  0  0
   -9.1905   21.6421  -32.7162 H   0  0  0  0  0  0  0  0  0  0  0  0
   -9.6875   21.1724  -31.0432 H   0  0  0  0  0  0  0  0  0  0  0  0
   -7.2147   21.6752  -33.4075 H   0  0  0  0  0  0  0  0  0  0  0  0
   -6.1504   22.5685  -32.2684 H   0  0  0  0  0  0  0  0  0  0  0  0
   -5.3405   20.1825  -31.5315 H   0  0  0  0  0  0  0  0  0  0  0  0
   -6.0607   19.6386  -33.0846 H   0  0  0  0  0  0  0  0  0  0  0  0
   -4.7408   20.8570  -33.0846 H   0  0  0  0  0  0  0  0  0  0  0  0
   -8.1605   23.3114  -30.8682 H   0  0  0  0  0  0  0  0  0  0  0  0
   -8.2562   22.1286  -29.5091 H   0  0  0  0  0  0  0  0  0  0  0  0
   -3.7862   21.7360  -26.3908 H   0  0  0  0  0  0  0  0  0  0  0  0
   -4.8983   21.5612  -27.7907 H   0  0  0  0  0  0  0  0  0  0  0  0
   -3.3143   20.7140  -27.7907 H   0  0  0  0  0  0  0  0  0  0  0  0
   -0.2869   23.2093  -26.4481 H   0  0  0  0  0  0  0  0  0  0  0  0
   -1.8206   22.4958  -25.8022 H   0  0  0  0  0  0  0  0  0  0  0  0
    0.9237   21.9726  -28.3128 H   0  0  0  0  0  0  0  0  0  0  0  0
    1.7048   19.7133  -29.0008 H   0  0  0  0  0  0  0  0  0  0  0  0
    0.3680   17.6680  -30.4173 H   0  0  0  0  0  0  0  0  0  0  0  0
    1.1525   15.4013  -31.0972 H   0  0  0  0  0  0  0  0  0  0  0  0
    1.8645   13.7491  -29.3656 H   0  0  0  0  0  0  0  0  0  0  0  0
    1.7952   14.3668  -26.9477 H   0  0  0  0  0  0  0  0  0  0  0  0
    1.0141   16.6326  -26.2562 H   0  0  0  0  0  0  0  0  0  0  0  0
   -1.4638   17.9075  -26.6637 H   0  0  0  0  0  0  0  0  0  0  0  0
   -2.2383   20.1690  -25.9691 H   0  0  0  0  0  0  0  0  0  0  0  0
  1  2  1  0
  2  3  1  0
  3  4  1  0
  4  5  1  0
  3  6  1  0
  6  7  1  0
  7  8  3  0
  8  9  1  0
  9 10  2  0
 10 11  1  0
 10 12  1  0
 12 13  1  0
 13 14  1  0
 14 15  2  0
 15 16  1  0
 16 17  2  0
 17 18  1  0
 18 19  2  0
 19 20  1  0
 20 21  2  0
 21 22  1  0
 22 23  2  0
 17 24  1  0
 24 25  2  0
 12 26  1  0
 26 27  2  0
 26 28  1  0
 28 29  1  0
 29 30  2  0
 29  9  1  0
 25 14  1  0
 23 18  1  0
  1 31  1  0
  1 32  1  0
  1 33  1  0
  2 34  1  0
  2 35  1  0
  4 36  1  0
  4 37  1  0
  5 38  1  0
  5 39  1  0
  5 40  1  0
  6 41  1  0
  6 42  1  0
 11 43  1  0
 11 44  1  0
 11 45  1  0
 13 46  1  0
 13 47  1  0
 15 48  1  0
 16 49  1  0
 19 50  1  0
 20 51  1  0
 21 52  1  0
 22 53  1  0
 23 54  1  0
 24 55  1  0
 25 56  1  0
M  CHG  1  28  -1
M  END
>  <UniqueID>  (12) 
10

>  <SMILES>  (12) 
CCN(CC)CC#Cc1c(C)n(Cc2ccc(-c3ccccc3)cc2)c(=O)[n-]c1=O

>  <Energy>  (12) 
67.58761415814553

>  <Genealogy>  (12) 
CCN(CC)CC#Cc1c(C)n(Cc2ccc(-c3ccccc3)cc2)c(=O)[n-]c1=O (protonated)
CCN(CC)CC#Cc1c(C)n(Cc2ccc(-c3ccccc3)cc2)c(=O)[n-]c1=O (3D coordinates assigned)
CCN(CC)CC#Cc1c(C)n(Cc2ccc(-c3ccccc3)cc2)c(=O)[n-]c1=O (optimized conformer: 67.58761415814553 kcal/mol)

>  <smiles>  (12) 
CCN(CC)CC#Cc1c(C)n(Cc2ccc(-c3ccccc3)cc2)c(=O)[nH]c1=O

>  <score_type>  (12) 
oracle

>  <origin>  (12) 
adg

>  <m_score__min__energy>  (12) 
-9.0999999999999996

>  <m_primary>  (12) 
energy

$$$$
12:0
     RDKit          3D

 46 48  0  0  0  0  0  0  0  0999 V2000
   -6.1080   17.8730  -34.1680 C   0  0  0  0  0  0  0  0  0  0  0  0
   -6.0890   19.2850  -34.3400 O   0  0  0  0  0  0  0  0  0  0  0  0
   -5.4550   20.1790  -33.4630 C   0  0  0  0  0  0  0  0  0  0  0  0
   -6.2530   20.9830  -32.6400 C   0  0  0  0  0  0  0  0  0  0  0  0
   -5.6680   21.8740  -31.7350 C   0  0  0  0  0  0  0  0  0  0  0  0
   -4.2720   21.9670  -31.6360 C   0  0  0  0  0  0  0  0  0  0  0  0
   -3.5300   23.1110  -30.5140 S   0  0  0  0  0  0  0  0  0  0  0  0
   -2.0390   23.0330  -30.6960 O   0  0  0  0  0  0  0  0  0  0  0  0
   -3.9410   24.5110  -30.8780 O   0  0  0  0  0  0  0  0  0  0  0  0
   -3.9160   22.7930  -28.8250 N   0  0  0  0  0  0  0  0  0  0  0  0
   -4.6360   23.9300  -28.1990 C   0  0  0  0  0  0  0  0  0  0  0  0
   -3.9200   24.5530  -26.9840 C   0  0  0  0  0  0  0  0  0  0  0  0
   -2.4610   24.5400  -27.1510 N   0  0  0  0  0  0  0  0  0  0  0  0
   -1.6560   25.6360  -26.6630 C   0  0  0  0  0  0  0  0  0  0  0  0
   -1.5000   25.8340  -25.2780 C   0  0  0  0  0  0  0  0  0  0  0  0
   -0.7090   26.8760  -24.7920 C   0  0  0  0  0  0  0  0  0  0  0  0
   -0.0720   27.7440  -25.6800 C   0  0  0  0  0  0  0  0  0  0  0  0
   -0.2340   27.5760  -27.0560 C   0  0  0  0  0  0  0  0  0  0  0  0
   -1.0230   26.5320  -27.5510 C   0  0  0  0  0  0  0  0  0  0  0  0
   -1.1960   26.4280  -28.8920 F   0  0  0  0  0  0  0  0  0  0  0  0
   -1.8000   23.3010  -27.5820 C   0  0  0  0  0  0  0  0  0  0  0  0
   -2.8280   22.2320  -27.9840 C   0  0  2  0  0  0  0  0  0  0  0  0
   -2.1560   20.9970  -28.5960 C   0  0  0  0  0  0  0  0  0  0  0  0
   -3.4710   21.1790  -32.4720 C   0  0  0  0  0  0  0  0  0  0  0  0
   -4.0540   20.2890  -33.3790 C   0  0  0  0  0  0  0  0  0  0  0  0
   -6.1112   17.6344  -33.0942 H   0  0  0  0  0  0  0  0  0  0  0  0
   -7.0118   17.4584  -34.6384 H   0  0  0  0  0  0  0  0  0  0  0  0
   -5.2157   17.4343  -34.6384 H   0  0  0  0  0  0  0  0  0  0  0  0
   -7.3488   20.9131  -32.7059 H   0  0  0  0  0  0  0  0  0  0  0  0
   -6.3054   22.5048  -31.0979 H   0  0  0  0  0  0  0  0  0  0  0  0
   -4.7662   24.7140  -28.9595 H   0  0  0  0  0  0  0  0  0  0  0  0
   -5.5894   23.5276  -27.8261 H   0  0  0  0  0  0  0  0  0  0  0  0
   -4.2566   25.5936  -26.8663 H   0  0  0  0  0  0  0  0  0  0  0  0
   -4.1698   23.9563  -26.0943 H   0  0  0  0  0  0  0  0  0  0  0  0
   -2.0069   25.1603  -24.5714 H   0  0  0  0  0  0  0  0  0  0  0  0
   -0.5874   27.0134  -23.7074 H   0  0  0  0  0  0  0  0  0  0  0  0
    0.5574   28.5601  -25.2956 H   0  0  0  0  0  0  0  0  0  0  0  0
    0.2607   28.2672  -27.7542 H   0  0  0  0  0  0  0  0  0  0  0  0
   -1.1547   23.5205  -28.4454 H   0  0  0  0  0  0  0  0  0  0  0  0
   -1.2058   22.9133  -26.7414 H   0  0  0  0  0  0  0  0  0  0  0  0
   -3.3180   21.8815  -27.0636 H   0  0  0  0  0  0  0  0  0  0  0  0
   -1.7975   20.3381  -27.7914 H   0  0  0  0  0  0  0  0  0  0  0  0
   -2.8831   20.4542  -29.2178 H   0  0  0  0  0  0  0  0  0  0  0  0
   -1.3053   21.3127  -29.2178 H   0  0  0  0  0  0  0  0  0  0  0  0
   -2.3756   21.2609  -32.4146 H   0  0  0  0  0  0  0  0  0  0  0  0
   -3.4158   19.6726  -34.0292 H   0  0  0  0  0  0  0  0  0  0  0  0
  1  2  1  0
  2  3  1  0
  3  4  2  0
  4  5  1  0
  5  6  2  0
  6  7  1  0
  7  8  2  0
  7  9  2  0
  7 10  1  0
 10 11  1  0
 11 12  1  0
 12 13  1  0
 13 14  1  0
 14 15  2  0
 15 16  1  0
 16 17  2  0
 17 18  1  0
 18 19  2  0
 19 20  1  0
 13 21  1  0
 21 22  1  0
 22 23  1  0
  6 24  1  0
 24 25  2  0
 25  3  1  0
 22 10  1  0
 19 14  1  0
  1 26  1  0
  1 27  1  0
  1 28  1  0
  4 29  1  0
  5 30  1  0
 11 31  1  0
 11 32  1  0
 12 33  1  0
 12 34  1  0
 15 35  1  0
 16 36  1  0
 17 37  1  0
 18 38  1  0
 21 39  1  0
 21 40  1  0
 22 41  1  1
 23 42  1  0
 23 43  1  0
 23 44  1  0
 24 45  1  0
 25 46  1  0
M  END
>  <UniqueID>  (13) 
11

>  <SMILES>  (13) 
COc1ccc(S(=O)(=O)N2CCN(c3ccccc3F)C[C@@H]2C)cc1

>  <Energy>  (13) 
59.56163900982233

>  <Genealogy>  (13) 
COc1ccc(S(=O)(=O)N2CCN(c3ccccc3F)C[C@@H]2C)cc1 (chirality)
COc1ccc(S(=O)(=O)N2CCN(c3ccccc3F)C[C@@H]2C)cc1 (3D coordinates assigned)
COc1ccc(S(=O)(=O)N2CCN(c3ccccc3F)C[C@@H]2C)cc1 (nonaromatic ring conformer: 59.56163900982233 kcal/mol)

>  <smiles>  (13) 
COc1ccc(S(=O)(=O)N2CCN(c3ccccc3F)CC2C)cc1

>  <score_type>  (13) 
oracle

>  <origin>  (13) 
adg

>  <m_score__min__energy>  (13) 
-8.0800000000000001

>  <m_primary>  (13) 
energy

$$$$
13:0
     RDKit          3D

 50 51  0  0  0  0  0  0  0  0999 V2000
   -2.8850   18.9030  -26.0000 C   0  0  0  0  0  0  0  0  0  0  0  0
   -2.8070   19.5920  -27.3600 C   0  0  0  0  0  0  0  0  0  0  0  0
   -2.3920   20.9510  -27.2170 O   0  0  0  0  0  0  0  0  0  0  0  0
   -2.7440   22.0060  -28.0760 C   0  0  0  0  0  0  0  0  0  0  0  0
   -2.9740   23.2680  -27.5170 C   0  0  0  0  0  0  0  0  0  0  0  0
   -3.3450   24.3470  -28.3240 C   0  0  0  0  0  0  0  0  0  0  0  0
   -3.5010   24.1820  -29.7040 C   0  0  0  0  0  0  0  0  0  0  0  0
   -3.9060   25.2910  -30.4660 O   0  0  0  0  0  0  0  0  0  0  0  0
   -5.2600   25.6720  -30.7120 C   0  0  0  0  0  0  0  0  0  0  0  0
   -6.2210   24.7430  -29.9620 C   0  0  0  0  0  0  0  0  0  0  0  0
   -6.8430   23.7020  -30.9020 C   0  0  0  0  0  0  0  0  0  0  0  0
   -7.4900   22.5490  -30.1200 C   0  0  0  0  0  0  0  0  0  0  0  0
   -8.0680   21.5480  -31.0430 N   0  0  0  0  0  0  0  0  0  0  0  0
   -9.5000   21.8180  -31.2630 C   0  0  0  0  0  0  0  0  0  0  0  0
   -7.3420   21.5060  -32.3310 C   0  0  0  0  0  0  0  0  0  0  0  0
   -7.0910   20.0770  -32.7310 C   0  0  0  0  0  0  0  0  0  0  0  0
   -7.8510   19.0330  -32.1790 C   0  0  0  0  0  0  0  0  0  0  0  0
   -7.5890   17.7070  -32.5340 C   0  0  0  0  0  0  0  0  0  0  0  0
   -6.5690   17.4130  -33.4440 C   0  0  0  0  0  0  0  0  0  0  0  0
   -5.8090   18.4470  -33.9970 C   0  0  0  0  0  0  0  0  0  0  0  0
   -6.0620   19.7740  -33.6370 C   0  0  0  0  0  0  0  0  0  0  0  0
   -3.2470   22.9200  -30.2750 C   0  0  0  0  0  0  0  0  0  0  0  0
   -2.8680   21.8440  -29.4680 C   0  0  0  0  0  0  0  0  0  0  0  0
   -2.7998   19.6556  -25.2023 H   0  0  0  0  0  0  0  0  0  0  0  0
   -3.8481   18.3795  -25.9089 H   0  0  0  0  0  0  0  0  0  0  0  0
   -2.0633   18.1774  -25.9089 H   0  0  0  0  0  0  0  0  0  0  0  0
   -2.0830   19.0586  -27.9935 H   0  0  0  0  0  0  0  0  0  0  0  0
   -3.8053   19.5749  -27.8216 H   0  0  0  0  0  0  0  0  0  0  0  0
   -2.8617   23.4121  -26.4323 H   0  0  0  0  0  0  0  0  0  0  0  0
   -3.5157   25.3343  -27.8700 H   0  0  0  0  0  0  0  0  0  0  0  0
   -5.4137   26.7058  -30.3691 H   0  0  0  0  0  0  0  0  0  0  0  0
   -5.4612   25.5979  -31.7909 H   0  0  0  0  0  0  0  0  0  0  0  0
   -5.6673   24.2217  -29.1673 H   0  0  0  0  0  0  0  0  0  0  0  0
   -7.0316   25.3537  -29.5377 H   0  0  0  0  0  0  0  0  0  0  0  0
   -7.6119   24.1914  -31.5178 H   0  0  0  0  0  0  0  0  0  0  0  0
   -6.0428   23.2847  -31.5310 H   0  0  0  0  0  0  0  0  0  0  0  0
   -6.7261   22.0641  -29.4944 H   0  0  0  0  0  0  0  0  0  0  0  0
   -8.2960   22.9570  -29.4924 H   0  0  0  0  0  0  0  0  0  0  0  0
  -10.0084   21.9139  -30.2923 H   0  0  0  0  0  0  0  0  0  0  0  0
   -9.6138   22.7534  -31.8305 H   0  0  0  0  0  0  0  0  0  0  0  0
   -9.9466   20.9882  -31.8305 H   0  0  0  0  0  0  0  0  0  0  0  0
   -7.9453   22.0011  -33.1061 H   0  0  0  0  0  0  0  0  0  0  0  0
   -6.3789   22.0259  -32.2210 H   0  0  0  0  0  0  0  0  0  0  0  0
   -8.6558   19.2599  -31.4643 H   0  0  0  0  0  0  0  0  0  0  0  0
   -8.1862   16.8932  -32.0968 H   0  0  0  0  0  0  0  0  0  0  0  0
   -6.3651   16.3690  -33.7242 H   0  0  0  0  0  0  0  0  0  0  0  0
   -5.0100   18.2164  -34.7171 H   0  0  0  0  0  0  0  0  0  0  0  0
   -5.4527   20.5836  -34.0651 H   0  0  0  0  0  0  0  0  0  0  0  0
   -3.3474   22.7806  -31.3615 H   0  0  0  0  0  0  0  0  0  0  0  0
   -2.6653   20.8638  -29.9242 H   0  0  0  0  0  0  0  0  0  0  0  0
  1  2  1  0
  2  3  1  0
  3  4  1  0
  4  5  2  0
  5  6  1  0
  6  7  2  0
  7  8  1  0
  8  9  1  0
  9 10  1  0
 10 11  1  0
 11 12  1  0
 12 13  1  0
 13 14  1  0
 13 15  1  0
 15 16  1  0
 16 17  2  0
 17 18  1  0
 18 19  2  0
 19 20  1  0
 20 21  2  0
  7 22  1  0
 22 23  2  0
 23  4  1  0
 21 16  1  0
  1 24  1  0
  1 25  1  0
  1 26  1  0
  2 27  1  0
  2 28  1  0
  5 29  1  0
  6 30  1  0
  9 31  1  0
  9 32  1  0
 10 33  1  0
 10 34  1  0
 11 35  1  0
 11 36  1  0
 12 37  1  0
 12 38  1  0
 14 39  1  0
 14 40  1  0
 14 41  1  0
 15 42  1  0
 15 43  1  0
 17 44  1  0
 18 45  1  0
 19 46  1  0
 20 47  1  0
 21 48  1  0
 22 49  1  0
 23 50  1  0
M  END
>  <UniqueID>  (14) 
12

>  <SMILES>  (14) 
CCOc1ccc(OCCCCN(C)Cc2ccccc2)cc1

>  <Energy>  (14) 
40.89961607259748

>  <Genealogy>  (14) 
CCOc1ccc(OCCCCN(C)Cc2ccccc2)cc1 (3D coordinates assigned)
CCOc1ccc(OCCCCN(C)Cc2ccccc2)cc1 (optimized conformer: 40.89961607259748 kcal/mol)

>  <smiles>  (14) 
CCOc1ccc(OCCCCN(C)Cc2ccccc2)cc1

>  <score_type>  (14) 
oracle

>  <origin>  (14) 
adg

>  <m_score__min__energy>  (14) 
-8.1300000000000008

>  <m_primary>  (14) 
energy

$$$$
14:0
     RDKit          3D

 46 47  0  0  0  0  0  0  0  0999 V2000
   -3.6630   23.7190  -28.7830 O   0  0  0  0  0  0  0  0  0  0  0  0
   -3.1540   24.5890  -29.5430 C   0  0  0  0  0  0  0  0  0  0  0  0
   -3.9020   25.1030  -30.6440 N   0  0  0  0  0  0  0  0  0  0  0  0
   -5.2360   25.6780  -30.5130 C   0  0  0  0  0  0  0  0  0  0  0  0
   -6.3010   24.6240  -30.8370 C   0  0  0  0  0  0  0  0  0  0  0  0
   -5.7240   23.2680  -30.8980 N   0  0  0  0  0  0  0  0  0  0  0  0
   -5.5350   22.7760  -32.2740 C   0  0  0  0  0  0  0  0  0  0  0  0
   -4.1500   22.1150  -32.4950 C   0  0  1  0  0  0  0  0  0  0  0  0
   -3.3600   22.2620  -31.3420 O   0  0  0  0  0  0  0  0  0  0  0  0
   -4.3060   20.6210  -32.7960 C   0  0  0  0  0  0  0  0  0  0  0  0
   -5.5280   20.4050  -33.5030 O   0  0  0  0  0  0  0  0  0  0  0  0
   -6.6790   19.8280  -32.9500 C   0  0  0  0  0  0  0  0  0  0  0  0
   -7.8550   20.5670  -32.7090 C   0  0  0  0  0  0  0  0  0  0  0  0
   -8.9810   19.9370  -32.1700 C   0  0  0  0  0  0  0  0  0  0  0  0
   -8.9450   18.5730  -31.8670 C   0  0  0  0  0  0  0  0  0  0  0  0
   -7.7800   17.8360  -32.0990 C   0  0  0  0  0  0  0  0  0  0  0  0
   -6.6510   18.4640  -32.6340 C   0  0  0  0  0  0  0  0  0  0  0  0
   -1.8440   25.1100  -29.2860 N   0  0  0  0  0  0  0  0  0  0  0  0
   -0.8790   24.5020  -28.4100 C   0  0  0  0  0  0  0  0  0  0  0  0
   -0.3510   25.1920  -27.3010 C   0  0  0  0  0  0  0  0  0  0  0  0
    0.5670   24.5640  -26.4530 C   0  0  0  0  0  0  0  0  0  0  0  0
    0.9540   23.2440  -26.6910 C   0  0  0  0  0  0  0  0  0  0  0  0
    0.4160   22.5440  -27.7740 C   0  0  0  0  0  0  0  0  0  0  0  0
   -0.5010   23.1670  -28.6250 C   0  0  0  0  0  0  0  0  0  0  0  0
   -5.3787   26.0337  -29.4819 H   0  0  0  0  0  0  0  0  0  0  0  0
   -5.3358   26.5173  -31.2170 H   0  0  0  0  0  0  0  0  0  0  0  0
   -7.0752   24.6474  -30.0560 H   0  0  0  0  0  0  0  0  0  0  0  0
   -6.7289   24.8598  -31.8225 H   0  0  0  0  0  0  0  0  0  0  0  0
   -4.8010   23.2700  -30.4060 H   0  0  0  0  0  0  0  0  0  0  0  0
   -6.3168   22.0333  -32.4914 H   0  0  0  0  0  0  0  0  0  0  0  0
   -5.5965   23.6448  -32.9459 H   0  0  0  0  0  0  0  0  0  0  0  0
   -3.6670   22.6106  -33.3500 H   0  0  0  0  0  0  0  0  0  0  0  0
   -3.6390   23.1100  -30.9080 H   0  0  0  0  0  0  0  0  0  0  0  0
   -3.4605   20.2804  -33.4118 H   0  0  0  0  0  0  0  0  0  0  0  0
   -4.3223   20.0557  -31.8525 H   0  0  0  0  0  0  0  0  0  0  0  0
   -7.8869   21.6408  -32.9453 H   0  0  0  0  0  0  0  0  0  0  0  0
   -9.8974   20.5163  -31.9840 H   0  0  0  0  0  0  0  0  0  0  0  0
   -9.8334   18.0795  -31.4460 H   0  0  0  0  0  0  0  0  0  0  0  0
   -7.7514   16.7625  -31.8608 H   0  0  0  0  0  0  0  0  0  0  0  0
   -5.7338   17.8822  -32.8080 H   0  0  0  0  0  0  0  0  0  0  0  0
   -1.6040   26.0300  -29.7190 H   0  0  0  0  0  0  0  0  0  0  0  0
   -0.6618   26.2281  -27.1014 H   0  0  0  0  0  0  0  0  0  0  0  0
    0.9854   25.1119  -25.5958 H   0  0  0  0  0  0  0  0  0  0  0  0
    1.6818   22.7554  -26.0265 H   0  0  0  0  0  0  0  0  0  0  0  0
    0.7146   21.5012  -27.9570 H   0  0  0  0  0  0  0  0  0  0  0  0
   -0.9297   22.6074  -29.4694 H   0  0  0  0  0  0  0  0  0  0  0  0
  1  2  2  0
  2  3  1  0
  3  4  1  0
  4  5  1  0
  5  6  1  0
  6  7  1  0
  7  8  1  0
  8  9  1  0
  8 10  1  0
 10 11  1  0
 11 12  1  0
 12 13  2  0
 13 14  1  0
 14 15  2  0
 15 16  1  0
 16 17  2  0
  2 18  1  0
 18 19  1  0
 19 20  2  0
 20 21  1  0
 21 22  2  0
 22 23  1  0
 23 24  2  0
 17 12  1  0
 24 19  1  0
  4 25  1  0
  4 26  1  0
  5 27  1  0
  5 28  1  0
  6 29  1  0
  7 30  1  0
  7 31  1  0
  8 32  1  6
  9 33  1  0
 10 34  1  0
 10 35  1  0
 13 36  1  0
 14 37  1  0
 15 38  1  0
 16 39  1  0
 17 40  1  0
 18 41  1  0
 20 42  1  0
 21 43  1  0
 22 44  1  0
 23 45  1  0
 24 46  1  0
M  CHG  1   3  -1
M  END
>  <UniqueID>  (15) 
13

>  <SMILES>  (15) 
O=C([N-]CCNC[C@@H](O)COc1ccccc1)Nc1ccccc1

>  <Energy>  (15) 
43.81986040847033

>  <Genealogy>  (15) 
O=C([N-]CCNCC(O)COc1ccccc1)Nc1ccccc1 (protonated)
O=C([N-]CCNC[C@@H](O)COc1ccccc1)Nc1ccccc1 (chirality)
O=C([N-]CCNC[C@@H](O)COc1ccccc1)Nc1ccccc1 (3D coordinates assigned)
O=C([N-]CCNC[C@@H](O)COc1ccccc1)Nc1ccccc1 (optimized conformer: 43.81986040847033 kcal/mol)

>  <smiles>  (15) 
O=C(NCCNCC(O)COc1ccccc1)Nc1ccccc1

>  <score_type>  (15) 
oracle

>  <origin>  (15) 
adg

>  <m_score__min__energy>  (15) 
-8.2200000000000006

>  <m_primary>  (15) 
energy

$$$$
15:0
     RDKit          3D

 45 47  0  0  0  0  0  0  0  0999 V2000
   -8.3568   20.5391  -31.5524 H   0  0  0  0  0  0  0  0  0  0  0  0
   -7.4730   20.5190  -32.2070 C   0  0  0  0  0  0  0  0  0  0  0  0
   -7.0330   21.6820  -32.7130 C   0  0  0  0  0  0  0  0  0  0  0  0
   -7.4396   22.0221  -33.6768 H   0  0  0  0  0  0  0  0  0  0  0  0
   -6.0220   22.5310  -32.0310 C   0  0  0  0  0  0  0  0  0  0  0  0
   -6.3670   23.7840  -31.4900 C   0  0  0  0  0  0  0  0  0  0  0  0
   -7.4007   24.1489  -31.5818 H   0  0  0  0  0  0  0  0  0  0  0  0
   -5.4080   24.5750  -30.8340 C   0  0  0  0  0  0  0  0  0  0  0  0
   -5.7240   25.8320  -30.2910 O   0  0  0  0  0  0  0  0  0  0  0  0
   -6.4790   26.0320  -29.1000 C   0  0  0  0  0  0  0  0  0  0  0  0
   -5.8350   25.8614  -28.2247 H   0  0  0  0  0  0  0  0  0  0  0  0
   -6.8626   27.0627  -29.0777 H   0  0  0  0  0  0  0  0  0  0  0  0
   -7.3225   25.3263  -29.0777 H   0  0  0  0  0  0  0  0  0  0  0  0
   -4.0950   24.1090  -30.7030 C   0  0  0  0  0  0  0  0  0  0  0  0
   -3.1610   24.9250  -30.0430 O   0  0  0  0  0  0  0  0  0  0  0  0
   -2.4490   24.5540  -28.8670 C   0  0  0  0  0  0  0  0  0  0  0  0
   -3.0252   24.8543  -27.9794 H   0  0  0  0  0  0  0  0  0  0  0  0
   -2.3009   23.4641  -28.8565 H   0  0  0  0  0  0  0  0  0  0  0  0
   -1.4708   25.0571  -28.8565 H   0  0  0  0  0  0  0  0  0  0  0  0
   -3.7480   22.8490  -31.2250 C   0  0  0  0  0  0  0  0  0  0  0  0
   -2.7175   22.4803  -31.1152 H   0  0  0  0  0  0  0  0  0  0  0  0
   -4.7040   22.0550  -31.8860 C   0  0  0  0  0  0  0  0  0  0  0  0
   -4.3740   20.7950  -32.4180 O   0  0  0  0  0  0  0  0  0  0  0  0
   -3.3020   20.5510  -33.3230 C   0  0  0  0  0  0  0  0  0  0  0  0
   -2.3833   20.3419  -32.7553 H   0  0  0  0  0  0  0  0  0  0  0  0
   -3.5466   19.6856  -33.9564 H   0  0  0  0  0  0  0  0  0  0  0  0
   -3.1480   21.4371  -33.9564 H   0  0  0  0  0  0  0  0  0  0  0  0
   -6.8340   19.2070  -32.4810 C   0  0  0  0  0  0  0  0  0  0  0  0
   -6.4310   18.8130  -33.7690 C   0  0  0  0  0  0  0  0  0  0  0  0
   -6.5795   19.4944  -34.6196 H   0  0  0  0  0  0  0  0  0  0  0  0
   -5.8430   17.5620  -33.9770 C   0  0  0  0  0  0  0  0  0  0  0  0
   -5.5283   17.2712  -34.9901 H   0  0  0  0  0  0  0  0  0  0  0  0
   -5.6490   16.6710  -32.9070 C   0  0  0  0  0  0  0  0  0  0  0  0
   -5.0230   15.3430  -33.1380 C   0  0  0  0  0  0  0  0  0  0  0  0
   -4.5860   14.2410  -31.9370 S   0  0  0  0  0  0  0  0  0  0  0  0
   -3.9820   13.0530  -32.9580 C   0  0  0  0  0  0  0  0  0  0  0  0
   -3.5549   12.0885  -32.6460 H   0  0  0  0  0  0  0  0  0  0  0  0
   -4.1160   13.5010  -34.2640 C   0  0  0  0  0  0  0  0  0  0  0  0
   -3.7968   12.9120  -35.1365 H   0  0  0  0  0  0  0  0  0  0  0  0
   -4.6950   14.7720  -34.3700 C   0  0  0  0  0  0  0  0  0  0  0  0
   -4.8745   15.2732  -35.3326 H   0  0  0  0  0  0  0  0  0  0  0  0
   -6.0730   17.0600  -31.6230 C   0  0  0  0  0  0  0  0  0  0  0  0
   -5.9404   16.3728  -30.7744 H   0  0  0  0  0  0  0  0  0  0  0  0
   -6.6610   18.3110  -31.4150 C   0  0  0  0  0  0  0  0  0  0  0  0
   -6.9915   18.5960  -30.4053 H   0  0  0  0  0  0  0  0  0  0  0  0
  1  2  1  0
  2  3  2  0
  3  4  1  0
  3  5  1  0
  5  6  2  0
  6  7  1  0
  6  8  1  0
  8  9  1  0
  9 10  1  0
 10 11  1  0
 10 12  1  0
 10 13  1  0
  8 14  2  0
 14 15  1  0
 15 16  1  0
 16 17  1  0
 16 18  1  0
 16 19  1  0
 14 20  1  0
 20 21  1  0
 20 22  2  0
 22 23  1  0
 23 24  1  0
 24 25  1  0
 24 26  1  0
 24 27  1  0
  2 28  1  0
 28 29  2  0
 29 30  1  0
 29 31  1  0
 31 32  1  0
 31 33  2  0
 33 34  1  0
 34 35  1  0
 35 36  1  0
 36 37  1  0
 36 38  2  0
 38 39  1  0
 38 40  1  0
 40 41  1  0
 33 42  1  0
 42 43  1  0
 42 44  2  0
 44 45  1  0
 22  5  1  0
 44 28  1  0
 40 34  2  0
M  END
>  <UniqueID>  (16) 
14

>  <SMILES>  (16) 
COc1cc(OC)c(OC)cc1/C=C/c1ccc(-c2cccs2)cc1

>  <Energy>  (16) 
80.13454441231406

>  <Genealogy>  (16) 
COc1cc(OC)c(OC)cc1/C=C/c1ccc(-c2cccs2)cc1 (cis-trans isomerization)
COc1cc(OC)c(OC)cc1/C=C/c1ccc(-c2cccs2)cc1 (3D coordinates assigned)
COc1cc(OC)c(OC)cc1/C=C/c1ccc(-c2cccs2)cc1 (optimized conformer: 80.13454441231406 kcal/mol)

>  <smiles>  (16) 
COc1cc(OC)c(OC)cc1C=Cc1ccc(-c2cccs2)cc1

>  <score_type>  (16) 
oracle

>  <origin>  (16) 
adg

>  <m_score__min__energy>  (16) 
-7.7199999999999998

>  <m_primary>  (16) 
energy

$$$$
16:0
     RDKit          3D

 43 44  0  0  0  0  0  0  0  0999 V2000
   -7.2130   23.8480  -30.8260 C   0  0  0  0  0  0  0  0  0  0  0  0
   -6.4150   24.9340  -30.1060 C   0  0  0  0  0  0  0  0  0  0  0  0
   -4.9280   24.7490  -30.2720 C   0  0  0  0  0  0  0  0  0  0  0  0
   -4.2550   25.6550  -30.8370 O   0  0  0  0  0  0  0  0  0  0  0  0
   -4.2320   23.5590  -29.7190 C   0  0  0  0  0  0  0  0  0  0  0  0
   -3.6530   23.6160  -28.4360 C   0  0  0  0  0  0  0  0  0  0  0  0
   -2.9810   22.5140  -27.9090 C   0  0  0  0  0  0  0  0  0  0  0  0
   -2.8740   21.3400  -28.6530 C   0  0  0  0  0  0  0  0  0  0  0  0
   -3.4390   21.2630  -29.9260 C   0  0  0  0  0  0  0  0  0  0  0  0
   -4.1230   22.3670  -30.4750 C   0  0  0  0  0  0  0  0  0  0  0  0
   -4.7220   22.3100  -31.7470 O   0  0  0  0  0  0  0  0  0  0  0  0
   -4.2830   21.5100  -32.8450 C   0  0  0  0  0  0  0  0  0  0  0  0
   -5.3130   20.4110  -33.1630 C   0  0  0  0  0  0  0  0  0  0  0  0
   -6.3030   20.2270  -32.0740 N   0  0  0  0  0  0  0  0  0  0  0  0
   -7.6280   20.8030  -32.4450 C   0  0  0  0  0  0  0  0  0  0  0  0
   -8.7850   20.1510  -31.6790 C   0  0  0  0  0  0  0  0  0  0  0  0
   -8.8810   18.6510  -32.0040 C   0  0  0  0  0  0  0  0  0  0  0  0
   -7.5160   18.0370  -32.3620 C   0  0  0  0  0  0  0  0  0  0  0  0
   -6.3750   18.7910  -31.6660 C   0  0  0  0  0  0  0  0  0  0  0  0
   -7.6939   23.1936  -30.0841 H   0  0  0  0  0  0  0  0  0  0  0  0
   -7.9836   24.3161  -31.4561 H   0  0  0  0  0  0  0  0  0  0  0  0
   -6.5361   23.2525  -31.4561 H   0  0  0  0  0  0  0  0  0  0  0  0
   -6.6986   25.9141  -30.5171 H   0  0  0  0  0  0  0  0  0  0  0  0
   -6.6467   24.8694  -29.0326 H   0  0  0  0  0  0  0  0  0  0  0  0
   -3.7319   24.5396  -27.8438 H   0  0  0  0  0  0  0  0  0  0  0  0
   -2.5348   22.5710  -26.9052 H   0  0  0  0  0  0  0  0  0  0  0  0
   -2.3427   20.4722  -28.2352 H   0  0  0  0  0  0  0  0  0  0  0  0
   -3.3502   20.3329  -30.5066 H   0  0  0  0  0  0  0  0  0  0  0  0
   -4.1537   22.1507  -33.7297 H   0  0  0  0  0  0  0  0  0  0  0  0
   -3.3287   21.0335  -32.5764 H   0  0  0  0  0  0  0  0  0  0  0  0
   -5.8486   20.6855  -34.0838 H   0  0  0  0  0  0  0  0  0  0  0  0
   -4.7655   19.4641  -33.2800 H   0  0  0  0  0  0  0  0  0  0  0  0
   -5.9500   20.7570  -31.2410 H   0  0  0  0  0  0  0  0  0  0  0  0
   -7.6196   21.8802  -32.2222 H   0  0  0  0  0  0  0  0  0  0  0  0
   -7.7872   20.6138  -33.5169 H   0  0  0  0  0  0  0  0  0  0  0  0
   -8.6176   20.2756  -30.5990 H   0  0  0  0  0  0  0  0  0  0  0  0
   -9.7246   20.6371  -31.9804 H   0  0  0  0  0  0  0  0  0  0  0  0
   -9.2851   18.1251  -31.1265 H   0  0  0  0  0  0  0  0  0  0  0  0
   -9.5374   18.5401  -32.8797 H   0  0  0  0  0  0  0  0  0  0  0  0
   -7.4997   16.9847  -32.0420 H   0  0  0  0  0  0  0  0  0  0  0  0
   -7.3727   18.1109  -33.4501 H   0  0  0  0  0  0  0  0  0  0  0  0
   -6.5315   18.7411  -30.5783 H   0  0  0  0  0  0  0  0  0  0  0  0
   -5.4298   18.3125  -31.9619 H   0  0  0  0  0  0  0  0  0  0  0  0
  1  2  1  0
  2  3  1  0
  3  4  2  0
  3  5  1  0
  5  6  2  0
  6  7  1  0
  7  8  2  0
  8  9  1  0
  9 10  2  0
 10 11  1  0
 11 12  1  0
 12 13  1  0
 13 14  1  0
 14 15  1  0
 15 16  1  0
 16 17  1  0
 17 18  1  0
 18 19  1  0
 10  5  1  0
 19 14  1  0
  1 20  1  0
  1 21  1  0
  1 22  1  0
  2 23  1  0
  2 24  1  0
  6 25  1  0
  7 26  1  0
  8 27  1  0
  9 28  1  0
 12 29  1  0
 12 30  1  0
 13 31  1  0
 13 32  1  0
 14 33  1  0
 15 34  1  0
 15 35  1  0
 16 36  1  0
 16 37  1  0
 17 38  1  0
 17 39  1  0
 18 40  1  0
 18 41  1  0
 19 42  1  0
 19 43  1  0
M  CHG  1  14   1
M  END
>  <UniqueID>  (17) 
15

>  <SMILES>  (17) 
CCC(=O)c1ccccc1OCC[NH+]1CCCCC1

>  <Energy>  (17) 
50.643832797271216

>  <Genealogy>  (17) 
CCC(=O)c1ccccc1OCC[NH+]1CCCCC1 (protonated)
CCC(=O)c1ccccc1OCC[NH+]1CCCCC1 (3D coordinates assigned)
CCC(=O)c1ccccc1OCC[NH+]1CCCCC1 (nonaromatic ring conformer: 50.643832797271216 kcal/mol)

>  <smiles>  (17) 
CCC(=O)c1ccccc1OCCN1CCCCC1

>  <score_type>  (17) 
oracle

>  <origin>  (17) 
adg

>  <m_score__min__energy>  (17) 
-6.4900000000000002

>  <m_primary>  (17) 
energy

$$$$
17:0
     RDKit          3D

 49 52  0  0  0  0  0  0  0  0999 V2000
   -8.7410   18.5990  -31.6490 C   0  0  0  0  0  0  0  0  0  0  0  0
   -7.4060   17.8600  -31.6030 C   0  0  0  0  0  0  0  0  0  0  0  0
   -7.1870   17.0340  -32.8800 C   0  0  0  0  0  0  0  0  0  0  0  0
   -5.7230   16.6000  -33.0630 C   0  0  0  0  0  0  0  0  0  0  0  0
   -5.2360   16.8610  -34.4300 N   0  0  0  0  0  0  0  0  0  0  0  0
   -5.7090   18.1610  -34.9410 C   0  0  0  0  0  0  0  0  0  0  0  0
   -5.3820   19.2930  -33.9960 C   0  0  0  0  0  0  0  0  0  0  0  0
   -6.3940   20.1570  -33.5540 C   0  0  0  0  0  0  0  0  0  0  0  0
   -6.0950   21.2180  -32.6950 C   0  0  0  0  0  0  0  0  0  0  0  0
   -4.7740   21.4380  -32.2610 C   0  0  0  0  0  0  0  0  0  0  0  0
   -4.4420   22.5650  -31.3510 C   0  0  0  0  0  0  0  0  0  0  0  0
   -5.1520   23.7590  -31.2040 C   0  0  0  0  0  0  0  0  0  0  0  0
   -4.5930   24.6360  -30.2640 C   0  0  0  0  0  0  0  0  0  0  0  0
   -3.4430   24.1400  -29.6640 C   0  0  0  0  0  0  0  0  0  0  0  0
   -2.6380   24.8220  -28.6450 C   0  0  0  0  0  0  0  0  0  0  0  0
   -1.6170   25.6640  -28.9580 N   0  0  0  0  0  0  0  0  0  0  0  0
   -1.1760   26.0470  -27.7510 C   0  0  0  0  0  0  0  0  0  0  0  0
   -0.1290   26.9190  -27.4630 C   0  0  0  0  0  0  0  0  0  0  0  0
    0.1550   27.1730  -26.1080 C   0  0  0  0  0  0  0  0  0  0  0  0
   -0.6080   26.5560  -25.0900 C   0  0  0  0  0  0  0  0  0  0  0  0
   -1.6590   25.6800  -25.4200 C   0  0  0  0  0  0  0  0  0  0  0  0
   -1.9100   25.4530  -26.7720 C   0  0  0  0  0  0  0  0  0  0  0  0
   -2.8510   24.6640  -27.3110 N   0  0  0  0  0  0  0  0  0  0  0  0
   -3.1220   22.6180  -30.2990 S   0  0  0  0  0  0  0  0  0  0  0  0
   -3.7620   20.5710  -32.7140 C   0  0  0  0  0  0  0  0  0  0  0  0
   -4.0630   19.5100  -33.5720 C   0  0  0  0  0  0  0  0  0  0  0  0
   -9.0890   18.7916  -30.6234 H   0  0  0  0  0  0  0  0  0  0  0  0
   -8.6130   19.5547  -32.1784 H   0  0  0  0  0  0  0  0  0  0  0  0
   -9.4830   17.9831  -32.1784 H   0  0  0  0  0  0  0  0  0  0  0  0
   -6.5923   18.5938  -31.5057 H   0  0  0  0  0  0  0  0  0  0  0  0
   -7.4147   17.1760  -30.7415 H   0  0  0  0  0  0  0  0  0  0  0  0
   -7.8171   16.1338  -32.8291 H   0  0  0  0  0  0  0  0  0  0  0  0
   -7.4543   17.6700  -33.7367 H   0  0  0  0  0  0  0  0  0  0  0  0
   -5.0961   17.1561  -32.3505 H   0  0  0  0  0  0  0  0  0  0  0  0
   -5.6649   15.5164  -32.8829 H   0  0  0  0  0  0  0  0  0  0  0  0
   -5.6020   16.1220  -35.0710 H   0  0  0  0  0  0  0  0  0  0  0  0
   -4.1900   16.8290  -34.4530 H   0  0  0  0  0  0  0  0  0  0  0  0
   -5.2283   18.3577  -35.9107 H   0  0  0  0  0  0  0  0  0  0  0  0
   -6.8030   18.1085  -35.0428 H   0  0  0  0  0  0  0  0  0  0  0  0
   -7.4307   19.9985  -33.8858 H   0  0  0  0  0  0  0  0  0  0  0  0
   -6.8991   21.8872  -32.3549 H   0  0  0  0  0  0  0  0  0  0  0  0
   -6.0648   23.9896  -31.7729 H   0  0  0  0  0  0  0  0  0  0  0  0
   -5.0229   25.6200  -30.0252 H   0  0  0  0  0  0  0  0  0  0  0  0
    0.4552   27.3924  -28.2659 H   0  0  0  0  0  0  0  0  0  0  0  0
    0.9750   27.8553  -25.8396 H   0  0  0  0  0  0  0  0  0  0  0  0
   -0.3788   26.7618  -24.0340 H   0  0  0  0  0  0  0  0  0  0  0  0
   -2.2606   25.1921  -24.6390 H   0  0  0  0  0  0  0  0  0  0  0  0
   -2.7232   20.7303  -32.3892 H   0  0  0  0  0  0  0  0  0  0  0  0
   -3.2607   18.8411  -33.9168 H   0  0  0  0  0  0  0  0  0  0  0  0
  1  2  1  0
  2  3  1  0
  3  4  1  0
  4  5  1  0
  5  6  1  0
  6  7  1  0
  7  8  2  0
  8  9  1  0
  9 10  2  0
 10 11  1  0
 11 12  2  0
 12 13  1  0
 13 14  2  0
 14 15  1  0
 15 16  2  0
 16 17  1  0
 17 18  2  0
 18 19  1  0
 19 20  2  0
 20 21  1  0
 21 22  2  0
 22 23  1  0
 14 24  1  0
 10 25  1  0
 25 26  2  0
 26  7  1  0
 24 11  1  0
 23 15  1  0
 22 17  1  0
  1 27  1  0
  1 28  1  0
  1 29  1  0
  2 30  1  0
  2 31  1  0
  3 32  1  0
  3 33  1  0
  4 34  1  0
  4 35  1  0
  5 36  1  0
  5 37  1  0
  6 38  1  0
  6 39  1  0
  8 40  1  0
  9 41  1  0
 12 42  1  0
 13 43  1  0
 18 44  1  0
 19 45  1  0
 20 46  1  0
 21 47  1  0
 25 48  1  0
 26 49  1  0
M  CHG  2   5   1  23  -1
M  END
>  <UniqueID>  (18) 
16

>  <SMILES>  (18) 
CCCC[NH2+]Cc1ccc(-c2ccc(-c3nc4ccccc4[n-]3)s2)cc1

>  <Energy>  (18) 
109.19765334927008

>  <Genealogy>  (18) 
CCCC[NH2+]Cc1ccc(-c2ccc(-c3nc4ccccc4[n-]3)s2)cc1 (protonated)
CCCC[NH2+]Cc1ccc(-c2ccc(-c3nc4ccccc4[n-]3)s2)cc1 (3D coordinates assigned)
CCCC[NH2+]Cc1ccc(-c2ccc(-c3nc4ccccc4[n-]3)s2)cc1 (optimized conformer: 109.19765334927008 kcal/mol)

>  <smiles>  (18) 
CCCCNCc1ccc(-c2ccc(-c3nc4ccccc4[nH]3)s2)cc1

>  <score_type>  (18) 
oracle

>  <origin>  (18) 
adg

>  <m_score__min__energy>  (18) 
-8.9299999999999997

>  <m_primary>  (18) 
energy

$$$$
18:0
     RDKit          3D

 52 55  0  0  0  0  0  0  0  0999 V2000
    0.3130   21.1140  -34.9830 C   0  0  0  0  0  0  0  0  0  0  0  0
   -0.2190   21.0790  -33.6620 O   0  0  0  0  0  0  0  0  0  0  0  0
   -1.5710   20.8620  -33.3590 C   0  0  0  0  0  0  0  0  0  0  0  0
   -2.2830   21.6820  -32.4430 C   0  0  0  0  0  0  0  0  0  0  0  0
   -3.6350   21.4300  -32.1570 C   0  0  0  0  0  0  0  0  0  0  0  0
   -4.2590   20.3730  -32.8170 C   0  0  0  0  0  0  0  0  0  0  0  0
   -5.5350   19.8540  -32.7030 C   0  0  0  0  0  0  0  0  0  0  0  0
   -5.5640   18.7320  -33.5210 C   0  0  0  0  0  0  0  0  0  0  0  0
   -4.3690   18.5640  -34.1430 N   0  0  0  0  0  0  0  0  0  0  0  0
   -3.9530   17.4200  -34.9530 C   0  0  0  0  0  0  0  0  0  0  0  0
   -3.5780   19.5680  -33.6990 C   0  0  0  0  0  0  0  0  0  0  0  0
   -2.2280   19.7860  -33.9860 C   0  0  0  0  0  0  0  0  0  0  0  0
   -6.6690   17.7090  -33.4730 C   0  0  0  0  0  0  0  0  0  0  0  0
   -7.9110   18.2300  -32.7220 C   0  0  0  0  0  0  0  0  0  0  0  0
   -7.5390   19.0650  -31.4770 C   0  0  0  0  0  0  0  0  0  0  0  0
   -6.6850   20.3060  -31.8400 C   0  0  2  0  0  0  0  0  0  0  0  0
   -7.5520   21.3730  -32.5640 C   0  0  0  0  0  0  0  0  0  0  0  0
   -6.8950   22.6880  -32.7070 N   0  0  0  0  0  0  0  0  0  0  0  0
   -7.1250   23.6080  -31.5760 C   0  0  0  0  0  0  0  0  0  0  0  0
   -5.9100   23.7370  -30.6870 C   0  0  0  0  0  0  0  0  0  0  0  0
   -5.0110   24.8030  -30.8640 C   0  0  0  0  0  0  0  0  0  0  0  0
   -3.8760   24.9070  -30.0530 C   0  0  0  0  0  0  0  0  0  0  0  0
   -3.6310   23.9520  -29.0640 C   0  0  0  0  0  0  0  0  0  0  0  0
   -4.5190   22.8870  -28.8840 C   0  0  0  0  0  0  0  0  0  0  0  0
   -5.6540   22.7790  -29.6930 C   0  0  0  0  0  0  0  0  0  0  0  0
    1.4096   21.1861  -34.9349 H   0  0  0  0  0  0  0  0  0  0  0  0
    0.0291   20.1952  -35.5171 H   0  0  0  0  0  0  0  0  0  0  0  0
   -0.0888   21.9876  -35.5171 H   0  0  0  0  0  0  0  0  0  0  0  0
   -1.7704   22.5228  -31.9528 H   0  0  0  0  0  0  0  0  0  0  0  0
   -4.1853   22.0490  -31.4331 H   0  0  0  0  0  0  0  0  0  0  0  0
   -3.6523   16.5932  -34.2927 H   0  0  0  0  0  0  0  0  0  0  0  0
   -4.7909   17.0961  -35.5878 H   0  0  0  0  0  0  0  0  0  0  0  0
   -3.1028   17.7100  -35.5878 H   0  0  0  0  0  0  0  0  0  0  0  0
   -1.6899   19.1309  -34.6869 H   0  0  0  0  0  0  0  0  0  0  0  0
   -6.9591   17.4520  -34.5025 H   0  0  0  0  0  0  0  0  0  0  0  0
   -6.2915   16.8284  -32.9325 H   0  0  0  0  0  0  0  0  0  0  0  0
   -8.4995   18.8589  -33.4062 H   0  0  0  0  0  0  0  0  0  0  0  0
   -8.4871   17.3573  -32.3806 H   0  0  0  0  0  0  0  0  0  0  0  0
   -8.4643   19.4024  -30.9870 H   0  0  0  0  0  0  0  0  0  0  0  0
   -6.9421   18.4275  -30.8081 H   0  0  0  0  0  0  0  0  0  0  0  0
   -6.2919   20.7763  -30.9266 H   0  0  0  0  0  0  0  0  0  0  0  0
   -7.7947   20.9970  -33.5689 H   0  0  0  0  0  0  0  0  0  0  0  0
   -8.4455   21.5308  -31.9421 H   0  0  0  0  0  0  0  0  0  0  0  0
   -5.8680   22.5600  -32.8450 H   0  0  0  0  0  0  0  0  0  0  0  0
   -7.2550   23.1400  -33.5800 H   0  0  0  0  0  0  0  0  0  0  0  0
   -7.3795   24.6014  -31.9739 H   0  0  0  0  0  0  0  0  0  0  0  0
   -7.9449   23.1971  -30.9686 H   0  0  0  0  0  0  0  0  0  0  0  0
   -5.2004   25.5572  -31.6420 H   0  0  0  0  0  0  0  0  0  0  0  0
   -3.1750   25.7428  -30.1946 H   0  0  0  0  0  0  0  0  0  0  0  0
   -2.7389   24.0376  -28.4262 H   0  0  0  0  0  0  0  0  0  0  0  0
   -4.3245   22.1342  -28.1059 H   0  0  0  0  0  0  0  0  0  0  0  0
   -6.3500   21.9393  -29.5501 H   0  0  0  0  0  0  0  0  0  0  0  0
  1  2  1  0
  2  3  1  0
  3  4  2  0
  4  5  1  0
  5  6  2  0
  6  7  1  0
  7  8  2  0
  8  9  1  0
  9 10  1  0
  9 11  1  0
 11 12  2  0
  8 13  1  0
 13 14  1  0
 14 15  1  0
 15 16  1  0
 16 17  1  0
 17 18  1  0
 18 19  1  0
 19 20  1  0
 20 21  2  0
 21 22  1  0
 22 23  2  0
 23 24  1  0
 24 25  2  0
 12  3  1  0
 25 20  1  0
 11  6  1  0
 16  7  1  0
  1 26  1  0
  1 27  1  0
  1 28  1  0
  4 29  1  0
  5 30  1  0
 10 31  1  0
 10 32  1  0
 10 33  1  0
 12 34  1  0
 13 35  1  0
 13 36  1  0
 14 37  1  0
 14 38  1  0
 15 39  1  0
 15 40  1  0
 16 41  1  1
 17 42  1  0
 17 43  1  0
 18 44  1  0
 18 45  1  0
 19 46  1  0
 19 47  1  0
 21 48  1  0
 22 49  1  0
 23 50  1  0
 24 51  1  0
 25 52  1  0
M  CHG  1  18   1
M  END
>  <UniqueID>  (19) 
17

>  <SMILES>  (19) 
COc1ccc2c3c(n(C)c2c1)CCC[C@@H]3C[NH2+]Cc1ccccc1

>  <Energy>  (19) 
90.04479335075187

>  <Genealogy>  (19) 
COc1ccc2c3c(n(C)c2c1)CCCC3C[NH2+]Cc1ccccc1 (protonated)
COc1ccc2c3c(n(C)c2c1)CCC[C@@H]3C[NH2+]Cc1ccccc1 (chirality)
COc1ccc2c3c(n(C)c2c1)CCC[C@@H]3C[NH2+]Cc1ccccc1 (3D coordinates assigned)
COc1ccc2c3c(n(C)c2c1)CCC[C@@H]3C[NH2+]Cc1ccccc1 (nonaromatic ring conformer: 90.04479335075187 kcal/mol)

>  <smiles>  (19) 
COc1ccc2c3c(n(C)c2c1)CCCC3CNCc1ccccc1

>  <score_type>  (19) 
oracle

>  <origin>  (19) 
adg

>  <m_score__min__energy>  (19) 
-7.7400000000000002

>  <m_primary>  (19) 
energy

$$$$
19:0
     RDKit          3D

 62 65  0  0  0  0  0  0  0  0999 V2000
   -5.6246   26.0654  -31.2012 H   0  0  0  0  0  0  0  0  0  0  0  0
   -5.0580   25.1690  -30.9090 C   0  0  0  0  0  0  0  0  0  0  0  0
   -3.8770   25.3010  -30.2630 N   0  0  0  0  0  0  0  0  0  0  0  0
   -3.1130   24.2300  -29.9330 C   0  0  0  0  0  0  0  0  0  0  0  0
   -1.8760   24.4430  -29.3210 C   0  0  0  0  0  0  0  0  0  0  0  0
   -1.5773   25.4615  -29.0322 H   0  0  0  0  0  0  0  0  0  0  0  0
   -1.0180   23.3740  -29.0740 C   0  0  0  0  0  0  0  0  0  0  0  0
   -0.0641   23.5475  -28.5544 H   0  0  0  0  0  0  0  0  0  0  0  0
   -1.3630   22.0770  -29.4840 C   0  0  0  0  0  0  0  0  0  0  0  0
   -0.4180   20.9450  -29.2880 C   0  0  0  0  0  0  0  0  0  0  0  0
    0.1640   20.7070  -28.0320 C   0  0  0  0  0  0  0  0  0  0  0  0
   -0.0794   21.3652  -27.1849 H   0  0  0  0  0  0  0  0  0  0  0  0
    1.0490   19.6420  -27.8490 C   0  0  0  0  0  0  0  0  0  0  0  0
    1.4971   19.4727  -26.8588 H   0  0  0  0  0  0  0  0  0  0  0  0
    1.3730   18.7880  -28.9080 C   0  0  0  0  0  0  0  0  0  0  0  0
    2.2650   17.7330  -28.6450 O   0  0  0  0  0  0  0  0  0  0  0  0
    2.0200   16.5810  -27.8340 C   0  0  0  0  0  0  0  0  0  0  0  0
    1.2075   16.8072  -27.1278 H   0  0  0  0  0  0  0  0  0  0  0  0
    2.9476   16.3331  -27.2973 H   0  0  0  0  0  0  0  0  0  0  0  0
    1.6160   15.3640  -28.6890 C   0  0  0  0  0  0  0  0  0  0  0  0
    0.5918   15.0695  -28.4166 H   0  0  0  0  0  0  0  0  0  0  0  0
    2.3431   14.5643  -28.4848 H   0  0  0  0  0  0  0  0  0  0  0  0
    1.6570   15.6380  -30.1550 N   0  0  1  0  0  0  0  0  0  0  0  0
    1.9020   16.6440  -30.3070 H   0  0  0  0  0  0  0  0  0  0  0  0
    2.7380   14.8780  -30.8150 C   0  0  0  0  0  0  0  0  0  0  0  0
    3.3854   14.4228  -30.0510 H   0  0  0  0  0  0  0  0  0  0  0  0
    2.3002   14.0879  -31.4427 H   0  0  0  0  0  0  0  0  0  0  0  0
    3.3334   15.5573  -31.4427 H   0  0  0  0  0  0  0  0  0  0  0  0
    0.3410   15.4250  -30.8150 C   0  0  0  0  0  0  0  0  0  0  0  0
   -0.4491   15.6257  -30.0765 H   0  0  0  0  0  0  0  0  0  0  0  0
    0.3403   14.3868  -31.1785 H   0  0  0  0  0  0  0  0  0  0  0  0
    0.0860   16.3150  -32.0430 C   0  0  0  0  0  0  0  0  0  0  0  0
   -0.2029   17.3233  -31.7114 H   0  0  0  0  0  0  0  0  0  0  0  0
    1.0027   16.3765  -32.6479 H   0  0  0  0  0  0  0  0  0  0  0  0
   -0.7242   15.8818  -32.6479 H   0  0  0  0  0  0  0  0  0  0  0  0
    0.8050   19.0290  -30.1750 C   0  0  0  0  0  0  0  0  0  0  0  0
    1.0616   18.3771  -31.0231 H   0  0  0  0  0  0  0  0  0  0  0  0
   -0.0840   20.0940  -30.3590 C   0  0  0  0  0  0  0  0  0  0  0  0
   -0.5266   20.2682  -31.3509 H   0  0  0  0  0  0  0  0  0  0  0  0
   -2.6110   21.8650  -30.0980 C   0  0  0  0  0  0  0  0  0  0  0  0
   -2.8652   20.8614  -30.4696 H   0  0  0  0  0  0  0  0  0  0  0  0
   -3.5450   22.9160  -30.2470 C   0  0  0  0  0  0  0  0  0  0  0  0
   -4.8560   22.7490  -30.7980 C   0  0  0  0  0  0  0  0  0  0  0  0
   -5.4780   21.5970  -30.9010 N   0  0  0  0  0  0  0  0  0  0  0  0
   -5.3670   20.5750  -31.9040 C   0  0  0  0  0  0  0  0  0  0  0  0
   -4.1040   20.1720  -32.3710 C   0  0  0  0  0  0  0  0  0  0  0  0
   -3.1978   20.6567  -31.9786 H   0  0  0  0  0  0  0  0  0  0  0  0
   -3.9880   19.1540  -33.3360 C   0  0  0  0  0  0  0  0  0  0  0  0
   -2.7470   18.7650  -33.8650 O   0  0  0  0  0  0  0  0  0  0  0  0
   -1.5660   19.5580  -33.8200 C   0  0  0  0  0  0  0  0  0  0  0  0
   -1.2890   19.7440  -32.7718 H   0  0  0  0  0  0  0  0  0  0  0  0
   -0.7475   19.0258  -34.3267 H   0  0  0  0  0  0  0  0  0  0  0  0
   -1.7488   20.5171  -34.3267 H   0  0  0  0  0  0  0  0  0  0  0  0
   -5.1480   18.5120  -33.7950 C   0  0  0  0  0  0  0  0  0  0  0  0
   -5.0430   17.2480  -35.0110 Cl  0  0  0  0  0  0  0  0  0  0  0  0
   -6.4030   18.8790  -33.2960 C   0  0  0  0  0  0  0  0  0  0  0  0
   -7.3060   18.3612  -33.6517 H   0  0  0  0  0  0  0  0  0  0  0  0
   -6.5150   19.9000  -32.3480 C   0  0  0  0  0  0  0  0  0  0  0  0
   -8.1090   20.3440  -31.7480 Cl  0  0  0  0  0  0  0  0  0  0  0  0
   -5.5620   23.9020  -31.2070 C   0  0  0  0  0  0  0  0  0  0  0  0
   -6.8590   23.8070  -31.8380 C   0  0  0  0  0  0  0  0  0  0  0  0
   -7.8980   23.7310  -32.3430 N   0  0  0  0  0  0  0  0  0  0  0  0
  1  2  1  0
  2  3  1  0
  3  4  1  0
  4  5  2  0
  5  6  1  0
  5  7  1  0
  7  8  1  0
  7  9  2  0
  9 10  1  0
 10 11  2  0
 11 12  1  0
 11 13  1  0
 13 14  1  0
 13 15  2  0
 15 16  1  0
 16 17  1  0
 17 18  1  0
 17 19  1  0
 17 20  1  0
 20 21  1  0
 20 22  1  0
 20 23  1  0
 23 24  1  1
 23 25  1  0
 25 26  1  0
 25 27  1  0
 25 28  1  0
 23 29  1  0
 29 30  1  0
 29 31  1  0
 29 32  1  0
 32 33  1  0
 32 34  1  0
 32 35  1  0
 15 36  1  0
 36 37  1  0
 36 38  2  0
 38 39  1  0
  9 40  1  0
 40 41  1  0
 40 42  2  0
 42 43  1  0
 43 44  2  0
 44 45  1  0
 45 46  2  0
 46 47  1  0
 46 48  1  0
 48 49  1  0
 49 50  1  0
 50 51  1  0
 50 52  1  0
 50 53  1  0
 48 54  2  0
 54 55  1  0
 54 56  1  0
 56 57  1  0
 56 58  2  0
 58 59  1  0
 43 60  1  0
 60 61  1  0
 61 62  3  0
 60  2  2  0
 42  4  1  0
 58 45  1  0
 38 10  1  0
M  CHG  2   3  -1  23   1
M  END
>  <UniqueID>  (20) 
18

>  <SMILES>  (20) 
CC[N@H+](C)CCOc1ccc(-c2ccc3[n-]cc(C#N)/c(=N/c4cc(OC)c(Cl)cc4Cl)c3c2)cc1

>  <Energy>  (20) 
99.49990734118167

>  <Genealogy>  (20) 
CC[NH+](C)CCOc1ccc(-c2ccc3[n-]cc(C#N)c(=Nc4cc(OC)c(Cl)cc4Cl)c3c2)cc1 (protonated)
CC[N@H+](C)CCOc1ccc(-c2ccc3[n-]cc(C#N)c(=Nc4cc(OC)c(Cl)cc4Cl)c3c2)cc1 (chirality)
CC[N@H+](C)CCOc1ccc(-c2ccc3[n-]cc(C#N)/c(=N/c4cc(OC)c(Cl)cc4Cl)c3c2)cc1 (cis-trans isomerization)
CC[N@H+](C)CCOc1ccc(-c2ccc3[n-]cc(C#N)/c(=N/c4cc(OC)c(Cl)cc4Cl)c3c2)cc1 (3D coordinates assigned)
CC[N@H+](C)CCOc1ccc(-c2ccc3[n-]cc(C#N)/c(=N/c4cc(OC)c(Cl)cc4Cl)c3c2)cc1 (optimized conformer: 99.49990734118167 kcal/mol)

>  <smiles>  (20) 
CCN(C)CCOc1ccc(-c2ccc3[nH]cc(C#N)c(=Nc4cc(OC)c(Cl)cc4Cl)c3c2)cc1

>  <score_type>  (20) 
oracle

>  <origin>  (20) 
adg

>  <m_score__min__energy>  (20) 
-10.09

>  <m_primary>  (20) 
energy

$$$$
20:0
     RDKit          3D

 74 77  0  0  0  0  0  0  0  0999 V2000
   -7.9114   17.3113  -33.1083 H   0  0  0  0  0  0  0  0  0  0  0  0
   -7.9790   18.3340  -32.7090 C   0  0  0  0  0  0  0  0  0  0  0  0
   -9.2240   18.9360  -32.5490 C   0  0  0  0  0  0  0  0  0  0  0  0
  -10.1404   18.3850  -32.8072 H   0  0  0  0  0  0  0  0  0  0  0  0
   -9.3060   20.2380  -32.0610 C   0  0  0  0  0  0  0  0  0  0  0  0
  -10.2932   20.7055  -31.9308 H   0  0  0  0  0  0  0  0  0  0  0  0
   -8.1480   20.9650  -31.7320 C   0  0  0  0  0  0  0  0  0  0  0  0
   -6.8630   20.3550  -31.8620 C   0  0  0  0  0  0  0  0  0  0  0  0
   -6.8230   19.0210  -32.3660 C   0  0  0  0  0  0  0  0  0  0  0  0
   -5.8494   18.5234  -32.4860 H   0  0  0  0  0  0  0  0  0  0  0  0
   -5.5390   21.0190  -31.5350 C   0  0  0  0  0  0  0  0  0  0  0  0
   -4.4620   20.3540  -31.8710 N   0  0  0  0  0  0  0  0  0  0  0  0
   -3.9550   20.2880  -33.1490 O   0  0  0  0  0  0  0  0  0  0  0  0
   -3.8160   19.0400  -33.8190 C   0  0  0  0  0  0  0  0  0  0  0  0
   -4.4040   18.2754  -33.2901 H   0  0  0  0  0  0  0  0  0  0  0  0
   -4.1798   19.1430  -34.8520 H   0  0  0  0  0  0  0  0  0  0  0  0
   -2.3440   18.6190  -33.8450 C   0  0  0  0  0  0  0  0  0  0  0  0
   -2.2764   17.5990  -34.2512 H   0  0  0  0  0  0  0  0  0  0  0  0
   -1.8017   19.3421  -34.4719 H   0  0  0  0  0  0  0  0  0  0  0  0
   -1.6990   18.6370  -32.4490 C   0  0  0  0  0  0  0  0  0  0  0  0
   -2.4087   19.0682  -31.7277 H   0  0  0  0  0  0  0  0  0  0  0  0
   -1.4452   17.6063  -32.1606 H   0  0  0  0  0  0  0  0  0  0  0  0
   -0.4570   19.4530  -32.4610 N   0  0  0  0  0  0  0  0  0  0  0  0
   -0.1730   20.1330  -31.1720 C   0  0  0  0  0  0  0  0  0  0  0  0
   -0.6688   19.5715  -30.3664 H   0  0  0  0  0  0  0  0  0  0  0  0
    0.9205   20.1570  -31.0549 H   0  0  0  0  0  0  0  0  0  0  0  0
   -0.6660   21.5990  -31.1210 C   0  0  0  0  0  0  0  0  0  0  0  0
   -0.9876   21.8316  -30.0951 H   0  0  0  0  0  0  0  0  0  0  0  0
    0.1638   22.2511  -31.4310 H   0  0  0  0  0  0  0  0  0  0  0  0
   -1.7890   21.8240  -32.0330 N   0  0  0  0  0  0  0  0  0  0  0  0
   -2.5930   21.2200  -31.7430 H   0  0  0  0  0  0  0  0  0  0  0  0
   -1.4340   21.5440  -33.4380 C   0  0  0  0  0  0  0  0  0  0  0  0
   -2.3484   21.2616  -33.9803 H   0  0  0  0  0  0  0  0  0  0  0  0
   -0.9763   22.4563  -33.8482 H   0  0  0  0  0  0  0  0  0  0  0  0
   -0.4010   20.4030  -33.5880 C   0  0  0  0  0  0  0  0  0  0  0  0
   -0.6066   19.8586  -34.5215 H   0  0  0  0  0  0  0  0  0  0  0  0
    0.6023   20.8537  -33.6020 H   0  0  0  0  0  0  0  0  0  0  0  0
   -5.3860   22.4050  -30.9520 C   0  0  0  0  0  0  0  0  0  0  0  0
   -4.2930   22.7010  -30.1080 C   0  0  0  0  0  0  0  0  0  0  0  0
   -3.7335   21.8775  -29.6403 H   0  0  0  0  0  0  0  0  0  0  0  0
   -3.9060   24.0320  -29.8540 C   0  0  0  0  0  0  0  0  0  0  0  0
   -2.7090   24.3310  -29.0450 C   0  0  0  0  0  0  0  0  0  0  0  0
   -1.9680   25.3030  -29.3400 O   0  0  0  0  0  0  0  0  0  0  0  0
   -2.4040   23.5200  -27.9460 O   0  0  0  0  0  0  0  0  0  0  0  0
   -1.7840   22.2460  -28.0620 C   0  0  0  0  0  0  0  0  0  0  0  0
   -0.9065   22.2050  -27.3999 H   0  0  0  0  0  0  0  0  0  0  0  0
   -1.4689   22.0883  -29.1041 H   0  0  0  0  0  0  0  0  0  0  0  0
   -2.7760   21.1490  -27.6610 C   0  0  0  0  0  0  0  0  0  0  0  0
   -3.5970   21.1205  -28.3925 H   0  0  0  0  0  0  0  0  0  0  0  0
   -3.1647   21.3754  -26.6572 H   0  0  0  0  0  0  0  0  0  0  0  0
   -2.1110   19.8240  -27.6250 N   0  0  0  0  0  0  0  0  0  0  0  0
   -2.3620   19.1210  -26.3440 C   0  0  0  0  0  0  0  0  0  0  0  0
   -2.2107   19.8198  -25.5081 H   0  0  0  0  0  0  0  0  0  0  0  0
   -1.6646   18.2754  -26.2509 H   0  0  0  0  0  0  0  0  0  0  0  0
   -3.7950   18.5980  -26.3140 C   0  0  0  0  0  0  0  0  0  0  0  0
   -4.1202   18.4793  -25.2699 H   0  0  0  0  0  0  0  0  0  0  0  0
   -4.4569   19.3125  -26.8252 H   0  0  0  0  0  0  0  0  0  0  0  0
   -3.8410   17.6251  -26.8252 H   0  0  0  0  0  0  0  0  0  0  0  0
   -0.6580   19.9340  -27.8890 C   0  0  0  0  0  0  0  0  0  0  0  0
   -0.5045   20.4462  -28.8503 H   0  0  0  0  0  0  0  0  0  0  0  0
   -0.1947   20.5049  -27.0708 H   0  0  0  0  0  0  0  0  0  0  0  0
   -0.0080   18.5530  -27.9490 C   0  0  0  0  0  0  0  0  0  0  0  0
    0.1654   18.1846  -26.9271 H   0  0  0  0  0  0  0  0  0  0  0  0
   -0.6733   17.8574  -28.4815 H   0  0  0  0  0  0  0  0  0  0  0  0
    0.9520   18.6224  -28.4815 H   0  0  0  0  0  0  0  0  0  0  0  0
   -4.6520   25.0740  -30.4200 C   0  0  0  0  0  0  0  0  0  0  0  0
   -4.3281   26.1160  -30.2808 H   0  0  0  0  0  0  0  0  0  0  0  0
   -5.8030   24.7990  -31.1590 C   0  0  0  0  0  0  0  0  0  0  0  0
   -6.3984   25.6248  -31.5756 H   0  0  0  0  0  0  0  0  0  0  0  0
   -6.2010   23.4750  -31.3710 C   0  0  0  0  0  0  0  0  0  0  0  0
   -7.4670   23.2500  -31.8920 O   0  0  0  0  0  0  0  0  0  0  0  0
   -8.3460   22.3540  -31.2280 C   0  0  0  0  0  0  0  0  0  0  0  0
   -9.3857   22.6622  -31.4128 H   0  0  0  0  0  0  0  0  0  0  0  0
   -8.1318   22.3768  -30.1493 H   0  0  0  0  0  0  0  0  0  0  0  0
  1  2  1  0
  2  3  2  0
  3  4  1  0
  3  5  1  0
  5  6  1  0
  5  7  2  0
  7  8  1  0
  8  9  2  0
  9 10  1  0
  8 11  1  0
 11 12  2  0
 12 13  1  0
 13 14  1  0
 14 15  1  0
 14 16  1  0
 14 17  1  0
 17 18  1  0
 17 19  1  0
 17 20  1  0
 20 21  1  0
 20 22  1  0
 20 23  1  0
 23 24  1  0
 24 25  1  0
 24 26  1  0
 24 27  1  0
 27 28  1  0
 27 29  1  0
 27 30  1  0
 30 31  1  0
 30 32  1  0
 32 33  1  0
 32 34  1  0
 32 35  1  0
 35 36  1  0
 35 37  1  0
 11 38  1  0
 38 39  2  0
 39 40  1  0
 39 41  1  0
 41 42  1  0
 42 43  2  0
 42 44  1  0
 44 45  1  0
 45 46  1  0
 45 47  1  0
 45 48  1  0
 48 49  1  0
 48 50  1  0
 48 51  1  0
 51 52  1  0
 52 53  1  0
 52 54  1  0
 52 55  1  0
 55 56  1  0
 55 57  1  0
 55 58  1  0
 51 59  1  0
 59 60  1  0
 59 61  1  0
 59 62  1  0
 62 63  1  0
 62 64  1  0
 62 65  1  0
 41 66  2  0
 66 67  1  0
 66 68  1  0
 68 69  1  0
 68 70  2  0
 70 71  1  0
 71 72  1  0
 72 73  1  0
 72 74  1  0
  9  2  1  0
 35 23  1  0
 70 38  1  0
 72  7  1  0
M  END
>  <UniqueID>  (21) 
19

>  <SMILES>  (21) 
CCN(CC)CCOC(=O)c1ccc2c(c1)/C(=N\OCCCN1CCNCC1)c1ccccc1CO2

>  <Energy>  (21) 
105.17947743530274

>  <Genealogy>  (21) 
CCN(CC)CCOC(=O)c1ccc2c(c1)/C(=N\OCCCN1CCNCC1)c1ccccc1CO2 (cis-trans isomerization)
CCN(CC)CCOC(=O)c1ccc2c(c1)/C(=N\OCCCN1CCNCC1)c1ccccc1CO2 (3D coordinates assigned)
CCN(CC)CCOC(=O)c1ccc2c(c1)/C(=N\OCCCN1CCNCC1)c1ccccc1CO2 (nonaromatic ring conformer: 105.17947743530274 kcal/mol)

>  <smiles>  (21) 
CCN(CC)CCOC(=O)c1ccc2c(c1)C(=NOCCCN1CCNCC1)c1ccccc1CO2

>  <score_type>  (21) 
oracle

>  <origin>  (21) 
adg

>  <m_score__min__energy>  (21) 
-10.4

>  <m_primary>  (21) 
energy

$$$$
21:0
     RDKit          3D

 35 36  0  0  0  0  0  0  0  0999 V2000
   -1.4100   21.1350  -29.4570 C   0  0  0  0  0  0  0  0  0  0  0  0
   -1.4800   21.9600  -30.7390 C   0  0  0  0  0  0  0  0  0  0  0  0
   -2.8590   22.3970  -31.0090 N   0  0  0  0  0  0  0  0  0  0  0  0
   -3.6170   23.0960  -29.9640 C   0  0  0  0  0  0  0  0  0  0  0  0
   -3.4200   24.5840  -30.0730 C   0  0  0  0  0  0  0  0  0  0  0  0
   -4.1710   25.2420  -30.8400 O   0  0  0  0  0  0  0  0  0  0  0  0
   -2.4090   25.2840  -29.3360 N   0  0  0  0  0  0  0  0  0  0  0  0
   -1.2420   24.6670  -28.7230 C   0  0  0  0  0  0  0  0  0  0  0  0
   -3.5230   22.0070  -32.2260 C   0  0  0  0  0  0  0  0  0  0  0  0
   -2.8560   21.9040  -33.2910 O   0  0  0  0  0  0  0  0  0  0  0  0
   -4.9710   21.7290  -32.2640 C   0  0  0  0  0  0  0  0  0  0  0  0
   -5.9180   22.7650  -32.2430 C   0  0  0  0  0  0  0  0  0  0  0  0
   -7.2430   22.4670  -32.2550 N   0  0  0  0  0  0  0  0  0  0  0  0
   -7.6750   21.1790  -32.2780 C   0  0  0  0  0  0  0  0  0  0  0  0
   -9.0430   20.8830  -32.2930 C   0  0  0  0  0  0  0  0  0  0  0  0
   -9.4660   19.5490  -32.3090 C   0  0  0  0  0  0  0  0  0  0  0  0
   -8.5240   18.5120  -32.3100 C   0  0  0  0  0  0  0  0  0  0  0  0
   -7.1560   18.8030  -32.2950 C   0  0  0  0  0  0  0  0  0  0  0  0
   -6.7280   20.1350  -32.2800 C   0  0  0  0  0  0  0  0  0  0  0  0
   -5.4040   20.4380  -32.2670 N   0  0  0  0  0  0  0  0  0  0  0  0
   -1.4668   21.8049  -28.5863 H   0  0  0  0  0  0  0  0  0  0  0  0
   -2.2513   20.4268  -29.4303 H   0  0  0  0  0  0  0  0  0  0  0  0
   -0.4614   20.5787  -29.4303 H   0  0  0  0  0  0  0  0  0  0  0  0
   -0.8361   22.8455  -30.6328 H   0  0  0  0  0  0  0  0  0  0  0  0
   -1.1394   21.3349  -31.5776 H   0  0  0  0  0  0  0  0  0  0  0  0
   -4.6863   22.8636  -30.0762 H   0  0  0  0  0  0  0  0  0  0  0  0
   -3.2564   22.7614  -28.9801 H   0  0  0  0  0  0  0  0  0  0  0  0
   -1.3342   24.7157  -27.6279 H   0  0  0  0  0  0  0  0  0  0  0  0
   -1.1747   23.6155  -29.0389 H   0  0  0  0  0  0  0  0  0  0  0  0
   -0.3351   25.2035  -29.0389 H   0  0  0  0  0  0  0  0  0  0  0  0
   -5.5882   23.8141  -32.2169 H   0  0  0  0  0  0  0  0  0  0  0  0
   -9.7834   21.6965  -32.2922 H   0  0  0  0  0  0  0  0  0  0  0  0
  -10.5406   19.3142  -32.3208 H   0  0  0  0  0  0  0  0  0  0  0  0
   -8.8615   17.4651  -32.3226 H   0  0  0  0  0  0  0  0  0  0  0  0
   -6.4186   17.9868  -32.2950 H   0  0  0  0  0  0  0  0  0  0  0  0
  1  2  1  0
  2  3  1  0
  3  4  1  0
  4  5  1  0
  5  6  2  0
  5  7  1  0
  7  8  1  0
  3  9  1  0
  9 10  2  0
  9 11  1  0
 11 12  2  0
 12 13  1  0
 13 14  2  0
 14 15  1  0
 15 16  2  0
 16 17  1  0
 17 18  2  0
 18 19  1  0
 19 20  2  0
 20 11  1  0
 19 14  1  0
  1 21  1  0
  1 22  1  0
  1 23  1  0
  2 24  1  0
  2 25  1  0
  4 26  1  0
  4 27  1  0
  8 28  1  0
  8 29  1  0
  8 30  1  0
 12 31  1  0
 15 32  1  0
 16 33  1  0
 17 34  1  0
 18 35  1  0
M  CHG  1   7  -1
M  END
>  <UniqueID>  (22) 
20

>  <SMILES>  (22) 
CCN(CC(=O)[N-]C)C(=O)c1cnc2ccccc2n1

>  <Energy>  (22) 
37.19377325350227

>  <Genealogy>  (22) 
CCN(CC(=O)[N-]C)C(=O)c1cnc2ccccc2n1 (protonated)
CCN(CC(=O)[N-]C)C(=O)c1cnc2ccccc2n1 (3D coordinates assigned)
CCN(CC(=O)[N-]C)C(=O)c1cnc2ccccc2n1 (optimized conformer: 37.19377325350227 kcal/mol)

>  <smiles>  (22) 
CCN(CC(=O)NC)C(=O)c1cnc2ccccc2n1

>  <score_type>  (22) 
oracle

>  <origin>  (22) 
adg

>  <m_score__min__energy>  (22) 
-9.2400000000000002

>  <m_primary>  (22) 
energy

$$$$
22:0
     RDKit          3D

 55 58  0  0  0  0  0  0  0  0999 V2000
   -1.0840   20.8030  -34.1480 C   0  0  0  0  0  0  0  0  0  0  0  0
   -1.9980   20.9260  -33.0640 O   0  0  0  0  0  0  0  0  0  0  0  0
   -1.6410   21.2980  -31.7590 C   0  0  0  0  0  0  0  0  0  0  0  0
   -0.5440   20.6650  -31.1700 C   0  0  0  0  0  0  0  0  0  0  0  0
   -0.1310   21.0110  -29.8840 C   0  0  0  0  0  0  0  0  0  0  0  0
   -0.8160   21.9930  -29.1630 C   0  0  0  0  0  0  0  0  0  0  0  0
   -0.3750   22.3360  -27.9260 N   0  0  0  0  0  0  0  0  0  0  0  0
   -0.9840   23.2970  -27.1890 C   0  0  0  0  0  0  0  0  0  0  0  0
   -2.1040   23.9570  -27.6870 C   0  0  0  0  0  0  0  0  0  0  0  0
   -2.6290   23.6180  -28.9490 C   0  0  0  0  0  0  0  0  0  0  0  0
   -3.8590   24.3620  -29.4610 C   0  0  1  0  0  0  0  0  0  0  0  0
   -3.5130   25.2880  -30.4610 O   0  0  0  0  0  0  0  0  0  0  0  0
   -4.8780   23.3650  -30.0250 C   0  0  0  0  0  0  0  0  0  0  0  0
   -5.7930   24.0580  -30.9640 N   0  0  0  0  0  0  0  0  0  0  0  0
   -7.1850   24.1110  -30.4720 C   0  0  0  0  0  0  0  0  0  0  0  0
   -7.8560   22.7180  -30.4700 C   0  0  0  0  0  0  0  0  0  0  0  0
   -7.0700   21.7310  -31.2380 N   0  0  0  0  0  0  0  0  0  0  0  0
   -7.8300   20.4760  -31.4050 C   0  0  0  0  0  0  0  0  0  0  0  0
   -6.9830   19.4480  -32.1070 C   0  0  0  0  0  0  0  0  0  0  0  0
   -7.5950   18.3790  -32.7820 C   0  0  0  0  0  0  0  0  0  0  0  0
   -6.8160   17.4080  -33.4180 C   0  0  0  0  0  0  0  0  0  0  0  0
   -5.4210   17.4980  -33.3850 C   0  0  0  0  0  0  0  0  0  0  0  0
   -4.8040   18.5580  -32.7130 C   0  0  0  0  0  0  0  0  0  0  0  0
   -5.5800   19.5300  -32.0750 C   0  0  0  0  0  0  0  0  0  0  0  0
   -6.6730   22.2980  -32.5400 C   0  0  0  0  0  0  0  0  0  0  0  0
   -5.7350   23.5080  -32.3380 C   0  0  0  0  0  0  0  0  0  0  0  0
   -1.9490   22.6360  -29.7240 C   0  0  0  0  0  0  0  0  0  0  0  0
   -2.3420   22.2830  -31.0360 C   0  0  0  0  0  0  0  0  0  0  0  0
   -0.0657   20.6660  -33.7552 H   0  0  0  0  0  0  0  0  0  0  0  0
   -1.3597   19.9339  -34.7633 H   0  0  0  0  0  0  0  0  0  0  0  0
   -1.1202   21.7141  -34.7633 H   0  0  0  0  0  0  0  0  0  0  0  0
   -0.0010   19.8864  -31.7258 H   0  0  0  0  0  0  0  0  0  0  0  0
    0.7383   20.5086  -29.4347 H   0  0  0  0  0  0  0  0  0  0  0  0
   -0.5920   23.5561  -26.1944 H   0  0  0  0  0  0  0  0  0  0  0  0
   -2.5820   24.7484  -27.0909 H   0  0  0  0  0  0  0  0  0  0  0  0
   -4.3003   24.9079  -28.6141 H   0  0  0  0  0  0  0  0  0  0  0  0
   -3.8460   24.9200  -31.3210 H   0  0  0  0  0  0  0  0  0  0  0  0
   -4.3471   22.5625  -30.5581 H   0  0  0  0  0  0  0  0  0  0  0  0
   -5.4630   22.9369  -29.1977 H   0  0  0  0  0  0  0  0  0  0  0  0
   -7.1832   24.5050  -29.4450 H   0  0  0  0  0  0  0  0  0  0  0  0
   -7.7583   24.7616  -31.1488 H   0  0  0  0  0  0  0  0  0  0  0  0
   -7.9490   22.3688  -29.4311 H   0  0  0  0  0  0  0  0  0  0  0  0
   -8.8439   22.8130  -30.9443 H   0  0  0  0  0  0  0  0  0  0  0  0
   -8.1219   20.0930  -30.4160 H   0  0  0  0  0  0  0  0  0  0  0  0
   -8.7276   20.6761  -32.0086 H   0  0  0  0  0  0  0  0  0  0  0  0
   -8.6922   18.3056  -32.8103 H   0  0  0  0  0  0  0  0  0  0  0  0
   -7.3007   16.5727  -33.9447 H   0  0  0  0  0  0  0  0  0  0  0  0
   -4.8087   16.7349  -33.8877 H   0  0  0  0  0  0  0  0  0  0  0  0
   -3.7065   18.6270  -32.6865 H   0  0  0  0  0  0  0  0  0  0  0  0
   -5.0913   20.3616  -31.5463 H   0  0  0  0  0  0  0  0  0  0  0  0
   -6.1499   21.5280  -33.1261 H   0  0  0  0  0  0  0  0  0  0  0  0
   -7.5753   22.6317  -33.0734 H   0  0  0  0  0  0  0  0  0  0  0  0
   -4.7025   23.1905  -32.5459 H   0  0  0  0  0  0  0  0  0  0  0  0
   -6.0653   24.3006  -33.0255 H   0  0  0  0  0  0  0  0  0  0  0  0
   -3.2058   22.7838  -31.4976 H   0  0  0  0  0  0  0  0  0  0  0  0
  1  2  1  0
  2  3  1  0
  3  4  2  0
  4  5  1  0
  5  6  2  0
  6  7  1  0
  7  8  2  0
  8  9  1  0
  9 10  2  0
 10 11  1  0
 11 12  1  0
 11 13  1  0
 13 14  1  0
 14 15  1  0
 15 16  1  0
 16 17  1  0
 17 18  1  0
 18 19  1  0
 19 20  2  0
 20 21  1  0
 21 22  2  0
 22 23  1  0
 23 24  2  0
 17 25  1  0
 25 26  1  0
 10 27  1  0
 27 28  2  0
 28  3  1  0
 27  6  1  0
 26 14  1  0
 24 19  1  0
  1 29  1  0
  1 30  1  0
  1 31  1  0
  4 32  1  0
  5 33  1  0
  8 34  1  0
  9 35  1  0
 11 36  1  1
 12 37  1  0
 13 38  1  0
 13 39  1  0
 15 40  1  0
 15 41  1  0
 16 42  1  0
 16 43  1  0
 18 44  1  0
 18 45  1  0
 20 46  1  0
 21 47  1  0
 22 48  1  0
 23 49  1  0
 24 50  1  0
 25 51  1  0
 25 52  1  0
 26 53  1  0
 26 54  1  0
 28 55  1  0
M  END
>  <UniqueID>  (23) 
21

>  <SMILES>  (23) 
COc1ccc2nccc([C@@H](O)CN3CCN(Cc4ccccc4)CC3)c2c1

>  <Energy>  (23) 
74.77708961084899

>  <Genealogy>  (23) 
COc1ccc2nccc([C@@H](O)CN3CCN(Cc4ccccc4)CC3)c2c1 (chirality)
COc1ccc2nccc([C@@H](O)CN3CCN(Cc4ccccc4)CC3)c2c1 (3D coordinates assigned)
COc1ccc2nccc([C@@H](O)CN3CCN(Cc4ccccc4)CC3)c2c1 (nonaromatic ring conformer: 74.77708961084899 kcal/mol)

>  <smiles>  (23) 
COc1ccc2nccc(C(O)CN3CCN(Cc4ccccc4)CC3)c2c1

>  <score_type>  (23) 
oracle

>  <origin>  (23) 
adg

>  <m_score__min__energy>  (23) 
-9.6099999999999994

>  <m_primary>  (23) 
energy

$$$$
23:0
     RDKit          3D

 37 39  0  0  0  0  0  0  0  0999 V2000
   -4.5890   25.9900  -30.8280 O   0  0  0  0  0  0  0  0  0  0  0  0
   -4.1570   24.9140  -30.3360 C   0  0  0  0  0  0  0  0  0  0  0  0
   -2.8890   24.9360  -29.6620 N   0  0  0  0  0  0  0  0  0  0  0  0
   -2.6390   24.5520  -28.2760 C   0  0  0  0  0  0  0  0  0  0  0  0
   -1.1840   24.2720  -28.0610 C   0  0  0  0  0  0  0  0  0  0  0  0
   -0.6490   23.2740  -27.2750 C   0  0  0  0  0  0  0  0  0  0  0  0
    0.7120   23.4480  -27.4080 C   0  0  0  0  0  0  0  0  0  0  0  0
    0.9510   24.4890  -28.2300 N   0  0  0  0  0  0  0  0  0  0  0  0
   -0.2050   24.9560  -28.6020 O   0  0  0  0  0  0  0  0  0  0  0  0
   -4.9620   23.6440  -30.5170 C   0  0  0  0  0  0  0  0  0  0  0  0
   -6.4290   23.9510  -30.9260 C   0  0  0  0  0  0  0  0  0  0  0  0
   -7.0000   22.9760  -31.9730 C   0  0  0  0  0  0  0  0  0  0  0  0
   -6.4800   21.6110  -31.7780 N   0  0  0  0  0  0  0  0  0  0  0  0
   -7.3490   20.4630  -31.8820 C   0  0  0  0  0  0  0  0  0  0  0  0
   -6.8720   19.2160  -31.6110 N   0  0  0  0  0  0  0  0  0  0  0  0
   -7.6690   18.1200  -31.7030 C   0  0  0  0  0  0  0  0  0  0  0  0
   -9.0020   18.2600  -32.0830 C   0  0  0  0  0  0  0  0  0  0  0  0
   -9.4810   19.5390  -32.3600 C   0  0  0  0  0  0  0  0  0  0  0  0
   -8.6520   20.6100  -32.2560 N   0  0  0  0  0  0  0  0  0  0  0  0
   -5.0310   21.3960  -31.6310 C   0  0  0  0  0  0  0  0  0  0  0  0
   -4.2650   22.7200  -31.5260 C   0  0  0  0  0  0  0  0  0  0  0  0
   -2.9515   25.3713  -27.6119 H   0  0  0  0  0  0  0  0  0  0  0  0
   -3.2125   23.6405  -28.0516 H   0  0  0  0  0  0  0  0  0  0  0  0
   -1.1825   22.5170  -26.6814 H   0  0  0  0  0  0  0  0  0  0  0  0
    1.4825   22.8333  -26.9196 H   0  0  0  0  0  0  0  0  0  0  0  0
   -5.0117   23.1201  -29.5511 H   0  0  0  0  0  0  0  0  0  0  0  0
   -7.0581   23.8998  -30.0251 H   0  0  0  0  0  0  0  0  0  0  0  0
   -6.4309   24.9507  -31.3849 H   0  0  0  0  0  0  0  0  0  0  0  0
   -8.0962   22.9573  -31.8840 H   0  0  0  0  0  0  0  0  0  0  0  0
   -6.6948   23.3229  -32.9712 H   0  0  0  0  0  0  0  0  0  0  0  0
   -7.2624   17.1230  -31.4777 H   0  0  0  0  0  0  0  0  0  0  0  0
   -9.6604   17.3824  -32.1625 H   0  0  0  0  0  0  0  0  0  0  0  0
  -10.5290   19.6811  -32.6625 H   0  0  0  0  0  0  0  0  0  0  0  0
   -4.8494   20.8067  -30.7201 H   0  0  0  0  0  0  0  0  0  0  0  0
   -4.6725   20.8644  -32.5248 H   0  0  0  0  0  0  0  0  0  0  0  0
   -3.2366   22.5215  -31.1899 H   0  0  0  0  0  0  0  0  0  0  0  0
   -4.2445   23.2075  -32.5118 H   0  0  0  0  0  0  0  0  0  0  0  0
  1  2  2  0
  2  3  1  0
  3  4  1  0
  4  5  1  0
  5  6  2  0
  6  7  1  0
  7  8  2  0
  8  9  1  0
  2 10  1  0
 10 11  1  0
 11 12  1  0
 12 13  1  0
 13 14  1  0
 14 15  2  0
 15 16  1  0
 16 17  2  0
 17 18  1  0
 18 19  2  0
 13 20  1  0
 20 21  1  0
  9  5  1  0
 21 10  1  0
 19 14  1  0
  4 22  1  0
  4 23  1  0
  6 24  1  0
  7 25  1  0
 10 26  1  0
 11 27  1  0
 11 28  1  0
 12 29  1  0
 12 30  1  0
 16 31  1  0
 17 32  1  0
 18 33  1  0
 20 34  1  0
 20 35  1  0
 21 36  1  0
 21 37  1  0
M  CHG  1   3  -1
M  END
>  <UniqueID>  (24) 
22

>  <SMILES>  (24) 
O=C([N-]Cc1ccno1)C1CCN(c2ncccn2)CC1

>  <Energy>  (24) 
69.02803210975641

>  <Genealogy>  (24) 
O=C([N-]Cc1ccno1)C1CCN(c2ncccn2)CC1 (protonated)
O=C([N-]Cc1ccno1)C1CCN(c2ncccn2)CC1 (3D coordinates assigned)
O=C([N-]Cc1ccno1)C1CCN(c2ncccn2)CC1 (nonaromatic ring conformer: 69.02803210975641 kcal/mol)

>  <smiles>  (24) 
O=C(NCc1ccno1)C1CCN(c2ncccn2)CC1

>  <score_type>  (24) 
oracle

>  <origin>  (24) 
adg

>  <m_score__min__energy>  (24) 
-9.8200000000000003

>  <m_primary>  (24) 
energy

$$$$
24:0
     RDKit          3D

 50 53  0  0  0  0  0  0  0  0999 V2000
   -4.0900   24.5760  -30.5770 O   0  0  0  0  0  0  0  0  0  0  0  0
   -3.0090   24.2970  -29.9950 C   0  0  0  0  0  0  0  0  0  0  0  0
   -2.3010   25.3050  -29.3490 O   0  0  0  0  0  0  0  0  0  0  0  0
   -2.4920   22.9110  -30.0040 C   0  0  0  0  0  0  0  0  0  0  0  0
   -1.5280   22.4810  -29.0530 C   0  0  0  0  0  0  0  0  0  0  0  0
   -1.0510   23.3320  -27.9430 C   0  0  0  0  0  0  0  0  0  0  0  0
   -1.7740   23.7260  -26.8180 C   0  0  0  0  0  0  0  0  0  0  0  0
   -1.0120   24.4520  -25.8960 C   0  0  0  0  0  0  0  0  0  0  0  0
    0.3150   24.6140  -26.2720 C   0  0  0  0  0  0  0  0  0  0  0  0
    0.5380   23.8490  -27.7510 S   0  0  0  0  0  0  0  0  0  0  0  0
   -1.0330   21.2160  -29.1260 N   0  0  0  0  0  0  0  0  0  0  0  0
   -1.4440   20.3220  -30.0580 C   0  0  0  0  0  0  0  0  0  0  0  0
   -2.3970   20.6900  -31.0090 C   0  0  0  0  0  0  0  0  0  0  0  0
   -2.9140   21.9910  -30.9980 C   0  0  0  0  0  0  0  0  0  0  0  0
   -3.8680   22.3450  -32.1080 C   0  0  0  0  0  0  0  0  0  0  0  0
   -3.3750   21.6910  -33.4040 C   0  0  0  0  0  0  0  0  0  0  0  0
   -3.3020   20.2030  -33.3190 N   0  0  2  0  0  0  0  0  0  0  0  0
   -4.5470   19.5920  -33.8500 C   0  0  0  0  0  0  0  0  0  0  0  0
   -5.3400   18.8360  -32.7680 C   0  0  0  0  0  0  0  0  0  0  0  0
   -5.7800   19.7370  -31.7520 O   0  0  0  0  0  0  0  0  0  0  0  0
   -6.9400   20.5330  -31.8060 C   0  0  0  0  0  0  0  0  0  0  0  0
   -6.8790   21.9410  -31.8220 C   0  0  0  0  0  0  0  0  0  0  0  0
   -8.0500   22.6990  -31.8760 C   0  0  0  0  0  0  0  0  0  0  0  0
   -9.2920   22.0680  -31.9110 C   0  0  0  0  0  0  0  0  0  0  0  0
   -9.3700   20.6740  -31.8910 C   0  0  0  0  0  0  0  0  0  0  0  0
   -8.2000   19.8920  -31.8370 C   0  0  0  0  0  0  0  0  0  0  0  0
   -8.2780   18.3830  -31.8180 C   0  0  0  0  0  0  0  0  0  0  0  0
   -9.5460   17.9360  -31.4850 F   0  0  0  0  0  0  0  0  0  0  0  0
   -7.9550   17.8880  -33.0690 F   0  0  0  0  0  0  0  0  0  0  0  0
   -7.3820   17.8840  -30.8890 F   0  0  0  0  0  0  0  0  0  0  0  0
   -2.9740   19.6670  -31.9590 C   0  0  0  0  0  0  0  0  0  0  0  0
   -2.8380   23.4896  -26.6699 H   0  0  0  0  0  0  0  0  0  0  0  0
   -1.4255   24.8567  -24.9605 H   0  0  0  0  0  0  0  0  0  0  0  0
    1.0866   25.1504  -25.7003 H   0  0  0  0  0  0  0  0  0  0  0  0
   -1.0258   19.3046  -30.0650 H   0  0  0  0  0  0  0  0  0  0  0  0
   -4.8741   21.9729  -31.8646 H   0  0  0  0  0  0  0  0  0  0  0  0
   -3.9122   23.4372  -32.2315 H   0  0  0  0  0  0  0  0  0  0  0  0
   -4.0649   21.9616  -34.2169 H   0  0  0  0  0  0  0  0  0  0  0  0
   -2.3550   22.0589  -33.5891 H   0  0  0  0  0  0  0  0  0  0  0  0
   -2.5250   19.9170  -33.9620 H   0  0  0  0  0  0  0  0  0  0  0  0
   -5.1835   20.3891  -34.2618 H   0  0  0  0  0  0  0  0  0  0  0  0
   -4.2592   18.8646  -34.6234 H   0  0  0  0  0  0  0  0  0  0  0  0
   -6.2150   18.3552  -33.2296 H   0  0  0  0  0  0  0  0  0  0  0  0
   -4.6873   18.0765  -32.3128 H   0  0  0  0  0  0  0  0  0  0  0  0
   -5.9022   22.4459  -31.7917 H   0  0  0  0  0  0  0  0  0  0  0  0
   -7.9922   23.7974  -31.8910 H   0  0  0  0  0  0  0  0  0  0  0  0
  -10.2123   22.6690  -31.9544 H   0  0  0  0  0  0  0  0  0  0  0  0
  -10.3537   20.1824  -31.9177 H   0  0  0  0  0  0  0  0  0  0  0  0
   -3.8973   19.2668  -31.5148 H   0  0  0  0  0  0  0  0  0  0  0  0
   -2.1998   18.8987  -32.1020 H   0  0  0  0  0  0  0  0  0  0  0  0
  1  2  2  0
  2  3  1  0
  2  4  1  0
  4  5  2  0
  5  6  1  0
  6  7  2  0
  7  8  1  0
  8  9  2  0
  9 10  1  0
  5 11  1  0
 11 12  2  0
 12 13  1  0
 13 14  2  0
 14 15  1  0
 15 16  1  0
 16 17  1  0
 17 18  1  0
 18 19  1  0
 19 20  1  0
 20 21  1  0
 21 22  2  0
 22 23  1  0
 23 24  2  0
 24 25  1  0
 25 26  2  0
 26 27  1  0
 27 28  1  0
 27 29  1  0
 27 30  1  0
 17 31  1  0
 14  4  1  0
 26 21  1  0
 10  6  1  0
 31 13  1  0
  7 32  1  0
  8 33  1  0
  9 34  1  0
 12 35  1  0
 15 36  1  0
 15 37  1  0
 16 38  1  0
 16 39  1  0
 17 40  1  6
 18 41  1  0
 18 42  1  0
 19 43  1  0
 19 44  1  0
 22 45  1  0
 23 46  1  0
 24 47  1  0
 25 48  1  0
 31 49  1  0
 31 50  1  0
M  CHG  2   3  -1  17   1
M  END
>  <UniqueID>  (25) 
23

>  <SMILES>  (25) 
O=C([O-])c1c(-c2cccs2)ncc2c1CC[N@H+](CCOc1ccccc1C(F)(F)F)C2

>  <Energy>  (25) 
107.01763821872062

>  <Genealogy>  (25) 
O=C([O-])c1c(-c2cccs2)ncc2c1CC[NH+](CCOc1ccccc1C(F)(F)F)C2 (protonated)
O=C([O-])c1c(-c2cccs2)ncc2c1CC[N@H+](CCOc1ccccc1C(F)(F)F)C2 (chirality)
O=C([O-])c1c(-c2cccs2)ncc2c1CC[N@H+](CCOc1ccccc1C(F)(F)F)C2 (3D coordinates assigned)
O=C([O-])c1c(-c2cccs2)ncc2c1CC[N@H+](CCOc1ccccc1C(F)(F)F)C2 (nonaromatic ring conformer: 107.01763821872062 kcal/mol)

>  <smiles>  (25) 
O=C(O)c1c(-c2cccs2)ncc2c1CCN(CCOc1ccccc1C(F)(F)F)C2

>  <score_type>  (25) 
oracle

>  <origin>  (25) 
adg

>  <m_score__min__energy>  (25) 
-9.9000000000000004

>  <m_primary>  (25) 
energy

$$$$
25:0
     RDKit          3D

 35 38  0  0  0  0  0  0  0  0999 V2000
    0.9520   23.9490  -27.2440 C   0  0  0  0  0  0  0  0  0  0  0  0
    0.4960   24.1960  -28.5710 O   0  0  0  0  0  0  0  0  0  0  0  0
   -0.8080   23.9390  -29.0210 C   0  0  0  0  0  0  0  0  0  0  0  0
   -1.8420   24.7620  -28.5650 C   0  0  0  0  0  0  0  0  0  0  0  0
   -3.1590   24.5490  -28.9840 C   0  0  0  0  0  0  0  0  0  0  0  0
   -3.4640   23.5020  -29.8720 C   0  0  0  0  0  0  0  0  0  0  0  0
   -4.8620   23.2730  -30.3180 C   0  0  0  0  0  0  0  0  0  0  0  0
   -5.8110   24.3260  -30.3190 C   0  0  0  0  0  0  0  0  0  0  0  0
   -7.0960   24.1120  -30.7300 N   0  0  0  0  0  0  0  0  0  0  0  0
   -7.4600   22.8730  -31.1410 C   0  0  0  0  0  0  0  0  0  0  0  0
   -8.7010   22.5330  -31.5740 N   0  0  0  0  0  0  0  0  0  0  0  0
   -8.5440   21.2190  -31.8600 C   0  0  0  0  0  0  0  0  0  0  0  0
   -9.5060   20.3390  -32.3520 C   0  0  0  0  0  0  0  0  0  0  0  0
   -9.1200   19.0040  -32.5790 C   0  0  0  0  0  0  0  0  0  0  0  0
   -7.7960   18.5840  -32.3130 C   0  0  0  0  0  0  0  0  0  0  0  0
   -6.8430   19.4940  -31.8170 C   0  0  0  0  0  0  0  0  0  0  0  0
   -7.2610   20.8070  -31.6050 C   0  0  0  0  0  0  0  0  0  0  0  0
   -6.5730   21.8590  -31.1460 N   0  0  0  0  0  0  0  0  0  0  0  0
   -5.2850   22.0010  -30.7520 C   0  0  0  0  0  0  0  0  0  0  0  0
   -2.4220   22.6740  -30.3290 C   0  0  0  0  0  0  0  0  0  0  0  0
   -1.1070   22.8890  -29.9090 C   0  0  0  0  0  0  0  0  0  0  0  0
    0.2200   24.3455  -26.5250 H   0  0  0  0  0  0  0  0  0  0  0  0
    1.0663   22.8657  -27.0912 H   0  0  0  0  0  0  0  0  0  0  0  0
    1.9218   24.4451  -27.0912 H   0  0  0  0  0  0  0  0  0  0  0  0
   -1.6175   25.5847  -27.8702 H   0  0  0  0  0  0  0  0  0  0  0  0
   -3.9620   25.2049  -28.6165 H   0  0  0  0  0  0  0  0  0  0  0  0
   -5.5085   25.3292  -29.9842 H   0  0  0  0  0  0  0  0  0  0  0  0
   -7.7880   24.8940  -30.7240 H   0  0  0  0  0  0  0  0  0  0  0  0
  -10.5330   20.6761  -32.5563 H   0  0  0  0  0  0  0  0  0  0  0  0
   -9.8541   18.2821  -32.9663 H   0  0  0  0  0  0  0  0  0  0  0  0
   -7.5085   17.5380  -32.4951 H   0  0  0  0  0  0  0  0  0  0  0  0
   -5.8098   19.1814  -31.6052 H   0  0  0  0  0  0  0  0  0  0  0  0
   -4.5899   21.1487  -30.7703 H   0  0  0  0  0  0  0  0  0  0  0  0
   -2.6448   21.8502  -31.0231 H   0  0  0  0  0  0  0  0  0  0  0  0
   -0.3017   22.2346  -30.2741 H   0  0  0  0  0  0  0  0  0  0  0  0
  1  2  1  0
  2  3  1  0
  3  4  2  0
  4  5  1  0
  5  6  2  0
  6  7  1  0
  7  8  1  0
  8  9  2  0
  9 10  1  0
 10 11  2  0
 11 12  1  0
 12 13  2  0
 13 14  1  0
 14 15  2  0
 15 16  1  0
 16 17  2  0
 17 18  1  0
 18 19  1  0
  6 20  1  0
 20 21  2  0
 21  3  1  0
 19  7  2  0
 18 10  1  0
 17 12  1  0
  1 22  1  0
  1 23  1  0
  1 24  1  0
  4 25  1  0
  5 26  1  0
  8 27  1  0
  9 28  1  0
 13 29  1  0
 14 30  1  0
 15 31  1  0
 16 32  1  0
 19 33  1  0
 20 34  1  0
 21 35  1  0
M  CHG  1   9   1
M  END
>  <UniqueID>  (26) 
24

>  <SMILES>  (26) 
COc1ccc(-c2c[nH+]c3nc4ccccc4n3c2)cc1

>  <Energy>  (26) 
87.6736523833661

>  <Genealogy>  (26) 
COc1ccc(-c2c[nH+]c3nc4ccccc4n3c2)cc1 (protonated)
COc1ccc(-c2c[nH+]c3nc4ccccc4n3c2)cc1 (3D coordinates assigned)
COc1ccc(-c2c[nH+]c3nc4ccccc4n3c2)cc1 (optimized conformer: 87.6736523833661 kcal/mol)

>  <smiles>  (26) 
COc1ccc(-c2cnc3nc4ccccc4n3c2)cc1

>  <score_type>  (26) 
oracle

>  <origin>  (26) 
adg

>  <m_score__min__energy>  (26) 
-7

>  <m_primary>  (26) 
energy

$$$$
26:0
     RDKit          3D

 62 67  0  0  0  0  0  0  0  0999 V2000
    2.6880   19.1830  -33.0250 C   0  0  0  0  0  0  0  0  0  0  0  0
    1.6980   19.8290  -33.8180 O   0  0  0  0  0  0  0  0  0  0  0  0
    0.4070   20.1470  -33.3710 C   0  0  0  0  0  0  0  0  0  0  0  0
   -0.0600   19.7830  -32.0930 C   0  0  0  0  0  0  0  0  0  0  0  0
   -1.3550   20.1260  -31.6920 C   0  0  0  0  0  0  0  0  0  0  0  0
   -2.1920   20.8540  -32.5480 C   0  0  0  0  0  0  0  0  0  0  0  0
   -3.5280   21.1760  -32.1370 N   0  0  0  0  0  0  0  0  0  0  0  0
   -4.6010   20.5760  -32.6350 N   0  0  0  0  0  0  0  0  0  0  0  0
   -5.6900   21.1180  -32.0460 C   0  0  0  0  0  0  0  0  0  0  0  0
   -7.0300   20.6790  -32.3200 N   0  0  0  0  0  0  0  0  0  0  0  0
   -8.1900   21.1890  -31.8580 C   0  0  0  0  0  0  0  0  0  0  0  0
   -9.2240   20.4150  -32.3430 C   0  0  0  0  0  0  0  0  0  0  0  0
   -8.7060   19.4270  -33.0940 N   0  0  0  0  0  0  0  0  0  0  0  0
   -7.3720   19.6040  -33.0590 C   0  0  0  0  0  0  0  0  0  0  0  0
   -5.2900   22.1090  -31.1600 C   0  0  0  0  0  0  0  0  0  0  0  0
   -3.9240   22.0960  -31.2290 C   0  0  0  0  0  0  0  0  0  0  0  0
   -3.1210   22.9000  -30.3030 C   0  0  0  0  0  0  0  0  0  0  0  0
   -1.8700   22.7670  -30.2360 O   0  0  0  0  0  0  0  0  0  0  0  0
   -3.8190   23.8250  -29.4390 N   0  0  0  0  0  0  0  0  0  0  0  0
   -3.1160   24.5280  -28.3950 C   0  0  0  0  0  0  0  0  0  0  0  0
   -1.8820   25.1370  -28.6580 C   0  0  0  0  0  0  0  0  0  0  0  0
   -1.1960   25.8190  -27.6500 C   0  0  0  0  0  0  0  0  0  0  0  0
   -1.7220   25.9100  -26.3400 C   0  0  0  0  0  0  0  0  0  0  0  0
   -1.0100   26.6290  -25.2850 N   0  0  0  0  0  0  0  0  0  0  0  0
   -0.8000   25.9740  -23.9760 C   0  0  0  0  0  0  0  0  0  0  0  0
   -0.0910   26.8620  -22.9490 C   0  0  0  0  0  0  0  0  0  0  0  0
    0.8980   27.6530  -23.5600 O   0  0  0  0  0  0  0  0  0  0  0  0
    0.2620   28.6040  -24.3800 C   0  0  0  0  0  0  0  0  0  0  0  0
   -0.3830   27.9320  -25.5940 C   0  0  0  0  0  0  0  0  0  0  0  0
   -2.9680   25.2860  -26.0900 C   0  0  0  0  0  0  0  0  0  0  0  0
   -3.6490   24.6050  -27.1020 C   0  0  0  0  0  0  0  0  0  0  0  0
   -5.2200   24.1810  -29.7550 C   0  0  0  0  0  0  0  0  0  0  0  0
   -6.0560   22.9560  -30.1860 C   0  0  0  0  0  0  0  0  0  0  0  0
   -1.7360   21.1960  -33.8290 C   0  0  0  0  0  0  0  0  0  0  0  0
   -0.4430   20.8500  -34.2320 C   0  0  0  0  0  0  0  0  0  0  0  0
    2.4592   19.3323  -31.9595 H   0  0  0  0  0  0  0  0  0  0  0  0
    2.6941   18.1066  -33.2514 H   0  0  0  0  0  0  0  0  0  0  0  0
    3.6758   19.6109  -33.2514 H   0  0  0  0  0  0  0  0  0  0  0  0
    0.5965   19.2268  -31.4077 H   0  0  0  0  0  0  0  0  0  0  0  0
   -1.7186   19.8226  -30.6991 H   0  0  0  0  0  0  0  0  0  0  0  0
   -8.2937   22.0697  -31.2071 H   0  0  0  0  0  0  0  0  0  0  0  0
  -10.2941   20.5788  -32.1479 H   0  0  0  0  0  0  0  0  0  0  0  0
   -9.2290   18.6720  -33.5910 H   0  0  0  0  0  0  0  0  0  0  0  0
   -6.6492   18.9515  -33.5707 H   0  0  0  0  0  0  0  0  0  0  0  0
   -1.4492   25.0776  -29.6675 H   0  0  0  0  0  0  0  0  0  0  0  0
   -0.2303   26.2933  -27.8789 H   0  0  0  0  0  0  0  0  0  0  0  0
   -1.7814   25.6885  -23.5693 H   0  0  0  0  0  0  0  0  0  0  0  0
   -0.1493   25.1048  -24.1526 H   0  0  0  0  0  0  0  0  0  0  0  0
   -0.8318   27.5194  -22.4704 H   0  0  0  0  0  0  0  0  0  0  0  0
    0.3918   26.2148  -22.2020 H   0  0  0  0  0  0  0  0  0  0  0  0
   -0.5160   29.1193  -23.7976 H   0  0  0  0  0  0  0  0  0  0  0  0
    1.0152   29.3231  -24.7345 H   0  0  0  0  0  0  0  0  0  0  0  0
   -1.1566   28.6042  -25.9936 H   0  0  0  0  0  0  0  0  0  0  0  0
    0.4198   27.7397  -26.3210 H   0  0  0  0  0  0  0  0  0  0  0  0
   -3.4069   25.3382  -25.0827 H   0  0  0  0  0  0  0  0  0  0  0  0
   -4.6135   24.1244  -26.8812 H   0  0  0  0  0  0  0  0  0  0  0  0
   -5.6813   24.6268  -28.8614 H   0  0  0  0  0  0  0  0  0  0  0  0
   -5.2044   24.8892  -30.5965 H   0  0  0  0  0  0  0  0  0  0  0  0
   -6.3000   22.3545  -29.2980 H   0  0  0  0  0  0  0  0  0  0  0  0
   -6.9776   23.3091  -30.6718 H   0  0  0  0  0  0  0  0  0  0  0  0
   -2.3983   21.7387  -34.5195 H   0  0  0  0  0  0  0  0  0  0  0  0
   -0.0906   21.1329  -35.2349 H   0  0  0  0  0  0  0  0  0  0  0  0
  1  2  1  0
  2  3  1  0
  3  4  2  0
  4  5  1  0
  5  6  2  0
  6  7  1  0
  7  8  1  0
  8  9  2  0
  9 10  1  0
 10 11  1  0
 11 12  2  0
 12 13  1  0
 13 14  2  0
  9 15  1  0
 15 16  2  0
 16 17  1  0
 17 18  2  0
 17 19  1  0
 19 20  1  0
 20 21  2  0
 21 22  1  0
 22 23  2  0
 23 24  1  0
 24 25  1  0
 25 26  1  0
 26 27  1  0
 27 28  1  0
 28 29  1  0
 23 30  1  0
 30 31  2  0
 19 32  1  0
 32 33  1  0
  6 34  1  0
 34 35  2  0
 35  3  1  0
 16  7  1  0
 31 20  1  0
 14 10  1  0
 33 15  1  0
 29 24  1  0
  1 36  1  0
  1 37  1  0
  1 38  1  0
  4 39  1  0
  5 40  1  0
 11 41  1  0
 12 42  1  0
 13 43  1  0
 14 44  1  0
 21 45  1  0
 22 46  1  0
 25 47  1  0
 25 48  1  0
 26 49  1  0
 26 50  1  0
 28 51  1  0
 28 52  1  0
 29 53  1  0
 29 54  1  0
 30 55  1  0
 31 56  1  0
 32 57  1  0
 32 58  1  0
 33 59  1  0
 33 60  1  0
 34 61  1  0
 35 62  1  0
M  CHG  1  13   1
M  END
>  <UniqueID>  (27) 
25

>  <SMILES>  (27) 
COc1ccc(-n2nc(-n3cc[nH+]c3)c3c2C(=O)N(c2ccc(N4CCOCC4)cc2)CC3)cc1

>  <Energy>  (27) 
155.47074578907436

>  <Genealogy>  (27) 
COc1ccc(-n2nc(-n3cc[nH+]c3)c3c2C(=O)N(c2ccc(N4CCOCC4)cc2)CC3)cc1 (protonated)
COc1ccc(-n2nc(-n3cc[nH+]c3)c3c2C(=O)N(c2ccc(N4CCOCC4)cc2)CC3)cc1 (3D coordinates assigned)
COc1ccc(-n2nc(-n3cc[nH+]c3)c3c2C(=O)N(c2ccc(N4CCOCC4)cc2)CC3)cc1 (nonaromatic ring conformer: 155.47074578907436 kcal/mol)

>  <smiles>  (27) 
COc1ccc(-n2nc(-n3ccnc3)c3c2C(=O)N(c2ccc(N4CCOCC4)cc2)CC3)cc1

>  <score_type>  (27) 
oracle

>  <origin>  (27) 
adg

>  <m_score__min__energy>  (27) 
-8.4600000000000009

>  <m_primary>  (27) 
energy

$$$$
27:0
     RDKit          3D

 52 56  0  0  0  0  0  0  0  0999 V2000
   -3.1010   24.6230  -27.3990 O   0  0  0  0  0  0  0  0  0  0  0  0
   -2.2980   24.9170  -28.3250 C   0  0  0  0  0  0  0  0  0  0  0  0
   -0.9020   25.3510  -27.9930 C   0  0  0  0  0  0  0  0  0  0  0  0
    0.0480   24.5120  -28.6250 O   0  0  0  0  0  0  0  0  0  0  0  0
    0.4990   23.4770  -27.7640 C   0  0  0  0  0  0  0  0  0  0  0  0
   -0.2730   22.1630  -28.0300 C   0  0  1  0  0  0  0  0  0  0  0  0
   -0.8490   22.1860  -29.4750 C   0  0  0  0  0  0  0  0  0  0  0  0
   -1.6230   20.8800  -29.7610 C   0  0  2  0  0  0  0  0  0  0  0  0
   -2.7860   20.7420  -28.7550 C   0  0  0  0  0  0  0  0  0  0  0  0
   -2.2250   20.7000  -27.3180 C   0  0  1  0  0  0  0  0  0  0  0  0
   -1.2700   19.4950  -27.1730 C   0  0  0  0  0  0  0  0  0  0  0  0
   -0.1060   19.6320  -28.1790 C   0  0  1  0  0  0  0  0  0  0  0  0
   -0.6690   19.6750  -29.6150 C   0  0  0  0  0  0  0  0  0  0  0  0
    0.6720   20.9360  -27.8910 C   0  0  0  0  0  0  0  0  0  0  0  0
   -1.4520   22.0070  -27.0290 C   0  0  0  0  0  0  0  0  0  0  0  0
   -2.7350   24.9330  -29.6900 N   0  0  0  0  0  0  0  0  0  0  0  0
   -3.9650   24.3930  -30.1910 C   0  0  0  0  0  0  0  0  0  0  0  0
   -5.1330   25.1550  -30.0660 C   0  0  0  0  0  0  0  0  0  0  0  0
   -6.3530   24.6750  -30.5500 C   0  0  0  0  0  0  0  0  0  0  0  0
   -6.4170   23.4270  -31.1850 C   0  0  0  0  0  0  0  0  0  0  0  0
   -7.6370   22.9350  -31.6770 C   0  0  0  0  0  0  0  0  0  0  0  0
   -7.6840   21.6940  -32.3170 C   0  0  0  0  0  0  0  0  0  0  0  0
   -6.5200   20.9360  -32.4720 C   0  0  0  0  0  0  0  0  0  0  0  0
   -5.3000   21.4150  -31.9880 C   0  0  0  0  0  0  0  0  0  0  0  0
   -5.2380   22.6590  -31.3400 C   0  0  0  0  0  0  0  0  0  0  0  0
   -4.0180   23.1500  -30.8480 C   0  0  0  0  0  0  0  0  0  0  0  0
   -0.7545   26.3856  -28.3362 H   0  0  0  0  0  0  0  0  0  0  0  0
   -0.7615   25.2858  -26.9040 H   0  0  0  0  0  0  0  0  0  0  0  0
    1.5717   23.3060  -27.9373 H   0  0  0  0  0  0  0  0  0  0  0  0
    0.3226   23.7840  -26.7225 H   0  0  0  0  0  0  0  0  0  0  0  0
   -0.0225   22.2836  -30.1942 H   0  0  0  0  0  0  0  0  0  0  0  0
   -1.5357   23.0396  -29.5744 H   0  0  0  0  0  0  0  0  0  0  0  0
   -2.0249   20.9069  -30.7846 H   0  0  0  0  0  0  0  0  0  0  0  0
   -3.3387   19.8132  -28.9595 H   0  0  0  0  0  0  0  0  0  0  0  0
   -3.4624   21.6033  -28.8581 H   0  0  0  0  0  0  0  0  0  0  0  0
   -3.0548   20.5983  -26.6031 H   0  0  0  0  0  0  0  0  0  0  0  0
   -1.8211   18.5648  -27.3754 H   0  0  0  0  0  0  0  0  0  0  0  0
   -0.8672   19.4694  -26.1497 H   0  0  0  0  0  0  0  0  0  0  0  0
    0.5706   18.7708  -28.0767 H   0  0  0  0  0  0  0  0  0  0  0  0
   -1.2196   18.7451  -29.8204 H   0  0  0  0  0  0  0  0  0  0  0  0
    0.1607   19.7771  -30.3299 H   0  0  0  0  0  0  0  0  0  0  0  0
    1.5004   21.0315  -28.6084 H   0  0  0  0  0  0  0  0  0  0  0  0
    1.0678   20.9004  -26.8653 H   0  0  0  0  0  0  0  0  0  0  0  0
   -2.1339   22.8637  -27.1338 H   0  0  0  0  0  0  0  0  0  0  0  0
   -1.0522   21.9698  -26.0049 H   0  0  0  0  0  0  0  0  0  0  0  0
   -5.0899   26.1418  -29.5818 H   0  0  0  0  0  0  0  0  0  0  0  0
   -7.2654   25.2781  -30.4323 H   0  0  0  0  0  0  0  0  0  0  0  0
   -8.5563   23.5273  -31.5583 H   0  0  0  0  0  0  0  0  0  0  0  0
   -8.6414   21.3117  -32.7007 H   0  0  0  0  0  0  0  0  0  0  0  0
   -6.5645   19.9595  -32.9765 H   0  0  0  0  0  0  0  0  0  0  0  0
   -4.3861   20.8162  -32.1149 H   0  0  0  0  0  0  0  0  0  0  0  0
   -3.0988   22.5597  -30.9769 H   0  0  0  0  0  0  0  0  0  0  0  0
  1  2  2  0
  2  3  1  0
  3  4  1  0
  4  5  1  0
  6  5  1  1
  6  7  1  0
  7  8  1  0
  8  9  1  0
  9 10  1  0
 10 11  1  0
 11 12  1  0
 12 13  1  0
 12 14  1  0
 10 15  1  0
  2 16  1  0
 16 17  1  0
 17 18  2  0
 18 19  1  0
 19 20  2  0
 20 21  1  0
 21 22  2  0
 22 23  1  0
 23 24  2  0
 24 25  1  0
 25 26  2  0
 14  6  1  0
 26 17  1  0
 15  6  1  0
 25 20  1  0
 13  8  1  0
  3 27  1  0
  3 28  1  0
  5 29  1  0
  5 30  1  0
  7 31  1  0
  7 32  1  0
  8 33  1  6
  9 34  1  0
  9 35  1  0
 10 36  1  1
 11 37  1  0
 11 38  1  0
 12 39  1  6
 13 40  1  0
 13 41  1  0
 14 42  1  0
 14 43  1  0
 15 44  1  0
 15 45  1  0
 18 46  1  0
 19 47  1  0
 21 48  1  0
 22 49  1  0
 23 50  1  0
 24 51  1  0
 26 52  1  0
M  CHG  1  16  -1
M  END
>  <UniqueID>  (28) 
26

>  <SMILES>  (28) 
O=C(COCC12CC3CC(CC(C3)C1)C2)[N-]c1ccc2ccccc2c1

>  <Energy>  (28) 
62.52710786829188

>  <Genealogy>  (28) 
O=C(COCC12CC3CC(CC(C3)C1)C2)[N-]c1ccc2ccccc2c1 (protonated)
O=C(COCC12CC3CC(CC(C3)C1)C2)[N-]c1ccc2ccccc2c1 (3D coordinates assigned)
O=C(COCC12CC3CC(CC(C3)C1)C2)[N-]c1ccc2ccccc2c1 (nonaromatic ring conformer: 62.52710786829188 kcal/mol)

>  <smiles>  (28) 
O=C(COCC12CC3CC(CC(C3)C1)C2)Nc1ccc2ccccc2c1

>  <score_type>  (28) 
oracle

>  <origin>  (28) 
adg

>  <m_score__min__energy>  (28) 
-11.039999999999999

>  <m_primary>  (28) 
energy

$$$$
28:0
     RDKit          3D

 52 54  0  0  0  0  0  0  0  0999 V2000
   -0.2390   23.4080  -28.5850 C   0  0  0  0  0  0  0  0  0  0  0  0
    0.3830   24.6900  -28.2180 N   0  0  0  0  0  0  0  0  0  0  0  0
    1.1730   24.5200  -26.9910 C   0  0  0  0  0  0  0  0  0  0  0  0
   -0.6390   25.7400  -28.0430 C   0  0  0  0  0  0  0  0  0  0  0  0
   -2.0520   25.1430  -28.0410 C   0  0  0  0  0  0  0  0  0  0  0  0
   -2.6690   25.2910  -29.3220 O   0  0  0  0  0  0  0  0  0  0  0  0
   -3.5890   24.4050  -29.9030 C   0  0  0  0  0  0  0  0  0  0  0  0
   -3.1020   23.2050  -30.4320 C   0  0  0  0  0  0  0  0  0  0  0  0
   -3.9700   22.2760  -31.0070 C   0  0  0  0  0  0  0  0  0  0  0  0
   -5.3490   22.5340  -31.0750 C   0  0  0  0  0  0  0  0  0  0  0  0
   -6.2710   21.5400  -31.6770 C   0  0  0  0  0  0  0  0  0  0  0  0
   -7.6520   21.7940  -31.7430 C   0  0  0  0  0  0  0  0  0  0  0  0
   -8.5140   20.8640  -32.3290 C   0  0  0  0  0  0  0  0  0  0  0  0
   -8.0140   19.6700  -32.8500 C   0  0  0  0  0  0  0  0  0  0  0  0
   -6.6370   19.3880  -32.7870 C   0  0  0  0  0  0  0  0  0  0  0  0
   -6.1050   18.1150  -33.3300 C   0  0  0  0  0  0  0  0  0  0  0  0
   -6.8980   16.9520  -33.3290 C   0  0  0  0  0  0  0  0  0  0  0  0
   -6.4010   15.7520  -33.8470 C   0  0  0  0  0  0  0  0  0  0  0  0
   -5.0960   15.6890  -34.3600 C   0  0  0  0  0  0  0  0  0  0  0  0
   -4.5700   14.4020  -34.9500 C   0  0  0  0  0  0  0  0  0  0  0  0
   -3.3410   14.6340  -35.7010 N   0  0  0  0  0  0  0  0  0  0  0  0
   -4.3030   16.8490  -34.3700 C   0  0  0  0  0  0  0  0  0  0  0  0
   -4.8020   18.0500  -33.8590 C   0  0  0  0  0  0  0  0  0  0  0  0
   -5.7730   20.3310  -32.1990 C   0  0  0  0  0  0  0  0  0  0  0  0
   -5.8370   23.7490  -30.5650 C   0  0  0  0  0  0  0  0  0  0  0  0
   -4.9660   24.6780  -29.9850 C   0  0  0  0  0  0  0  0  0  0  0  0
   -0.5069   22.8558  -27.6721 H   0  0  0  0  0  0  0  0  0  0  0  0
   -1.1456   23.5970  -29.1786 H   0  0  0  0  0  0  0  0  0  0  0  0
    0.4705   22.8128  -29.1786 H   0  0  0  0  0  0  0  0  0  0  0  0
    0.5234   24.6598  -26.1144 H   0  0  0  0  0  0  0  0  0  0  0  0
    1.6046   23.5084  -26.9700 H   0  0  0  0  0  0  0  0  0  0  0  0
    1.9825   25.2645  -26.9700 H   0  0  0  0  0  0  0  0  0  0  0  0
   -0.4652   26.2541  -27.0862 H   0  0  0  0  0  0  0  0  0  0  0  0
   -0.5602   26.4465  -28.8824 H   0  0  0  0  0  0  0  0  0  0  0  0
   -1.9909   24.0733  -27.7919 H   0  0  0  0  0  0  0  0  0  0  0  0
   -2.6585   25.6767  -27.2945 H   0  0  0  0  0  0  0  0  0  0  0  0
   -2.0236   22.9915  -30.3943 H   0  0  0  0  0  0  0  0  0  0  0  0
   -3.5709   21.3337  -31.4104 H   0  0  0  0  0  0  0  0  0  0  0  0
   -8.0562   22.7304  -31.3309 H   0  0  0  0  0  0  0  0  0  0  0  0
   -9.5926   21.0740  -32.3800 H   0  0  0  0  0  0  0  0  0  0  0  0
   -8.7002   18.9452  -33.3125 H   0  0  0  0  0  0  0  0  0  0  0  0
   -7.9174   16.9875  -32.9172 H   0  0  0  0  0  0  0  0  0  0  0  0
   -7.0355   14.8535  -33.8525 H   0  0  0  0  0  0  0  0  0  0  0  0
   -4.3653   13.6907  -34.1363 H   0  0  0  0  0  0  0  0  0  0  0  0
   -5.3280   13.9959  -35.6359 H   0  0  0  0  0  0  0  0  0  0  0  0
   -3.4880   15.4480  -36.3430 H   0  0  0  0  0  0  0  0  0  0  0  0
   -3.1450   13.7950  -36.2990 H   0  0  0  0  0  0  0  0  0  0  0  0
   -3.2839   16.8114  -34.7823 H   0  0  0  0  0  0  0  0  0  0  0  0
   -4.1719   18.9516  -33.8702 H   0  0  0  0  0  0  0  0  0  0  0  0
   -4.6946   20.1205  -32.1467 H   0  0  0  0  0  0  0  0  0  0  0  0
   -6.9127   23.9717  -30.6222 H   0  0  0  0  0  0  0  0  0  0  0  0
   -5.3604   25.6264  -29.5913 H   0  0  0  0  0  0  0  0  0  0  0  0
  1  2  1  0
  2  3  1  0
  2  4  1  0
  4  5  1  0
  5  6  1  0
  6  7  1  0
  7  8  2  0
  8  9  1  0
  9 10  2  0
 10 11  1  0
 11 12  2  0
 12 13  1  0
 13 14  2  0
 14 15  1  0
 15 16  1  0
 16 17  2  0
 17 18  1  0
 18 19  2  0
 19 20  1  0
 20 21  1  0
 19 22  1  0
 22 23  2  0
 15 24  2  0
 10 25  1  0
 25 26  2  0
 26  7  1  0
 24 11  1  0
 23 16  1  0
  1 27  1  0
  1 28  1  0
  1 29  1  0
  3 30  1  0
  3 31  1  0
  3 32  1  0
  4 33  1  0
  4 34  1  0
  5 35  1  0
  5 36  1  0
  8 37  1  0
  9 38  1  0
 12 39  1  0
 13 40  1  0
 14 41  1  0
 17 42  1  0
 18 43  1  0
 20 44  1  0
 20 45  1  0
 21 46  1  0
 21 47  1  0
 22 48  1  0
 23 49  1  0
 24 50  1  0
 25 51  1  0
 26 52  1  0
M  END
>  <UniqueID>  (29) 
27

>  <SMILES>  (29) 
CN(C)CCOc1ccc(-c2cccc(-c3ccc(CN)cc3)c2)cc1

>  <Energy>  (29) 
63.509639406720865

>  <Genealogy>  (29) 
CN(C)CCOc1ccc(-c2cccc(-c3ccc(CN)cc3)c2)cc1 (3D coordinates assigned)
CN(C)CCOc1ccc(-c2cccc(-c3ccc(CN)cc3)c2)cc1 (optimized conformer: 63.509639406720865 kcal/mol)

>  <smiles>  (29) 
CN(C)CCOc1ccc(-c2cccc(-c3ccc(CN)cc3)c2)cc1

>  <score_type>  (29) 
oracle

>  <origin>  (29) 
adg

>  <m_score__min__energy>  (29) 
-8.4900000000000002

>  <m_primary>  (29) 
energy

$$$$
29:0
     RDKit          3D

 44 47  0  0  0  0  0  0  0  0999 V2000
   -1.9130   20.4720  -29.2630 C   0  0  0  0  0  0  0  0  0  0  0  0
   -1.4200   21.2840  -30.3230 O   0  0  0  0  0  0  0  0  0  0  0  0
   -1.1850   20.8300  -31.6300 C   0  0  0  0  0  0  0  0  0  0  0  0
    0.0470   20.2670  -32.0180 C   0  0  0  0  0  0  0  0  0  0  0  0
    0.2350   19.8080  -33.3240 C   0  0  0  0  0  0  0  0  0  0  0  0
   -0.8010   19.9020  -34.2560 C   0  0  0  0  0  0  0  0  0  0  0  0
   -2.0260   20.4600  -33.8850 C   0  0  0  0  0  0  0  0  0  0  0  0
   -2.2220   20.9330  -32.5790 C   0  0  0  0  0  0  0  0  0  0  0  0
   -3.4910   21.5030  -32.2090 N   0  0  0  0  0  0  0  0  0  0  0  0
   -3.5050   22.7470  -31.6510 C   0  0  0  0  0  0  0  0  0  0  0  0
   -4.7080   23.3800  -31.3180 C   0  0  0  0  0  0  0  0  0  0  0  0
   -4.6480   24.7780  -30.8290 C   0  0  0  0  0  0  0  0  0  0  0  0
   -5.6210   25.5460  -31.0500 O   0  0  0  0  0  0  0  0  0  0  0  0
   -3.5120   25.2870  -30.1140 N   0  0  0  0  0  0  0  0  0  0  0  0
   -2.7690   24.5970  -29.1000 C   0  0  0  0  0  0  0  0  0  0  0  0
   -1.3770   24.7330  -28.9720 C   0  0  0  0  0  0  0  0  0  0  0  0
   -0.6980   24.0390  -27.9690 C   0  0  0  0  0  0  0  0  0  0  0  0
   -1.4140   23.1990  -27.1140 C   0  0  0  0  0  0  0  0  0  0  0  0
   -2.7580   23.0560  -27.2690 N   0  0  0  0  0  0  0  0  0  0  0  0
   -3.4400   23.7230  -28.2380 C   0  0  0  0  0  0  0  0  0  0  0  0
   -5.9240   22.6820  -31.5070 C   0  0  0  0  0  0  0  0  0  0  0  0
   -7.1670   23.2230  -31.1110 C   0  0  0  0  0  0  0  0  0  0  0  0
   -8.3510   22.5190  -31.3290 C   0  0  0  0  0  0  0  0  0  0  0  0
   -8.3190   21.2610  -31.9270 C   0  0  0  0  0  0  0  0  0  0  0  0
   -7.1010   20.6940  -32.3000 C   0  0  0  0  0  0  0  0  0  0  0  0
   -5.8940   21.3890  -32.0880 C   0  0  0  0  0  0  0  0  0  0  0  0
   -4.6540   20.8170  -32.4340 C   0  0  0  0  0  0  0  0  0  0  0  0
   -4.6160   19.6610  -32.9440 O   0  0  0  0  0  0  0  0  0  0  0  0
   -1.6392   20.9230  -28.2978 H   0  0  0  0  0  0  0  0  0  0  0  0
   -3.0081   20.3989  -29.3360 H   0  0  0  0  0  0  0  0  0  0  0  0
   -1.4727   19.4666  -29.3360 H   0  0  0  0  0  0  0  0  0  0  0  0
    0.8660   20.1884  -31.2879 H   0  0  0  0  0  0  0  0  0  0  0  0
    1.2008   19.3717  -33.6189 H   0  0  0  0  0  0  0  0  0  0  0  0
   -0.6518   19.5363  -35.2827 H   0  0  0  0  0  0  0  0  0  0  0  0
   -2.8412   20.5290  -34.6203 H   0  0  0  0  0  0  0  0  0  0  0  0
   -2.5527   23.2629  -31.4589 H   0  0  0  0  0  0  0  0  0  0  0  0
   -0.8221   25.3860  -29.6617 H   0  0  0  0  0  0  0  0  0  0  0  0
    0.3900   24.1528  -27.8535 H   0  0  0  0  0  0  0  0  0  0  0  0
   -0.8914   22.6528  -26.3150 H   0  0  0  0  0  0  0  0  0  0  0  0
   -4.5247   23.5746  -28.3446 H   0  0  0  0  0  0  0  0  0  0  0  0
   -7.2016   24.2096  -30.6257 H   0  0  0  0  0  0  0  0  0  0  0  0
   -9.3134   22.9584  -31.0278 H   0  0  0  0  0  0  0  0  0  0  0  0
   -9.2566   20.7140  -32.1052 H   0  0  0  0  0  0  0  0  0  0  0  0
   -7.0824   19.6965  -32.7633 H   0  0  0  0  0  0  0  0  0  0  0  0
  1  2  1  0
  2  3  1  0
  3  4  2  0
  4  5  1  0
  5  6  2  0
  6  7  1  0
  7  8  2  0
  8  9  1  0
  9 10  1  0
 10 11  2  0
 11 12  1  0
 12 13  2  0
 12 14  1  0
 14 15  1  0
 15 16  2  0
 16 17  1  0
 17 18  2  0
 18 19  1  0
 19 20  2  0
 11 21  1  0
 21 22  2  0
 22 23  1  0
 23 24  2  0
 24 25  1  0
 25 26  2  0
 26 27  1  0
 27 28  2  0
  8  3  1  0
 27  9  1  0
 20 15  1  0
 26 21  1  0
  1 29  1  0
  1 30  1  0
  1 31  1  0
  4 32  1  0
  5 33  1  0
  6 34  1  0
  7 35  1  0
 10 36  1  0
 16 37  1  0
 17 38  1  0
 18 39  1  0
 20 40  1  0
 22 41  1  0
 23 42  1  0
 24 43  1  0
 25 44  1  0
M  CHG  1  14  -1
M  END
>  <UniqueID>  (30) 
28

>  <SMILES>  (30) 
COc1ccccc1-n1cc(C(=O)[N-]c2cccnc2)c2ccccc2c1=O

>  <Energy>  (30) 
72.91531043692447

>  <Genealogy>  (30) 
COc1ccccc1-n1cc(C(=O)[N-]c2cccnc2)c2ccccc2c1=O (protonated)
COc1ccccc1-n1cc(C(=O)[N-]c2cccnc2)c2ccccc2c1=O (3D coordinates assigned)
COc1ccccc1-n1cc(C(=O)[N-]c2cccnc2)c2ccccc2c1=O (optimized conformer: 72.91531043692447 kcal/mol)

>  <smiles>  (30) 
COc1ccccc1-n1cc(C(=O)Nc2cccnc2)c2ccccc2c1=O

>  <score_type>  (30) 
oracle

>  <origin>  (30) 
adg

>  <m_score__min__energy>  (30) 
-9.6899999999999995

>  <m_primary>  (30) 
energy

$$$$
30:0
     RDKit          3D

 72 75  0  0  0  0  0  0  0  0999 V2000
    0.7490   22.7870  -36.0580 C   0  0  0  0  0  0  0  0  0  0  0  0
    0.3210   22.2900  -34.8090 O   0  0  0  0  0  0  0  0  0  0  0  0
    1.1840   21.2540  -34.3950 C   0  0  0  0  0  0  0  0  0  0  0  0
    0.6270   20.5850  -33.1360 C   0  0  0  0  0  0  0  0  0  0  0  0
   -0.8260   20.9860  -32.8150 C   0  0  0  0  0  0  0  0  0  0  0  0
   -1.7570   20.7480  -33.9350 N   0  0  0  0  0  0  0  0  0  0  0  0
   -3.1550   20.5570  -33.5140 C   0  0  0  0  0  0  0  0  0  0  0  0
   -3.8370   21.9130  -33.3080 C   0  0  0  0  0  0  0  0  0  0  0  0
   -4.5580   21.9750  -32.0230 N   0  0  0  0  0  0  0  0  0  0  0  0
   -6.0040   21.9200  -31.9690 C   0  0  0  0  0  0  0  0  0  0  0  0
   -6.6670   20.6800  -32.0600 C   0  0  0  0  0  0  0  0  0  0  0  0
   -8.0610   20.6110  -31.9950 C   0  0  0  0  0  0  0  0  0  0  0  0
   -8.8120   21.7770  -31.8380 C   0  0  0  0  0  0  0  0  0  0  0  0
   -8.1710   23.0130  -31.7450 C   0  0  0  0  0  0  0  0  0  0  0  0
   -6.7770   23.0880  -31.8130 C   0  0  0  0  0  0  0  0  0  0  0  0
   -3.8010   22.0150  -30.7940 C   0  0  0  0  0  0  0  0  0  0  0  0
   -3.4670   20.8210  -30.1300 C   0  0  0  0  0  0  0  0  0  0  0  0
   -2.7450   20.8490  -28.9330 C   0  0  0  0  0  0  0  0  0  0  0  0
   -2.3500   22.0740  -28.3820 C   0  0  0  0  0  0  0  0  0  0  0  0
   -1.6470   22.1290  -27.2160 N   0  0  0  0  0  0  0  0  0  0  0  0
   -1.2690   23.3200  -26.6790 C   0  0  0  0  0  0  0  0  0  0  0  0
   -1.6040   24.5220  -27.3300 C   0  0  0  0  0  0  0  0  0  0  0  0
   -1.2120   25.8460  -26.7850 C   0  0  0  0  0  0  0  0  0  0  0  0
   -1.4380   26.1800  -25.4420 C   0  0  0  0  0  0  0  0  0  0  0  0
   -1.0790   27.4360  -24.9460 C   0  0  0  0  0  0  0  0  0  0  0  0
   -0.4790   28.4160  -25.7810 C   0  0  0  0  0  0  0  0  0  0  0  0
   -0.0850   29.7550  -25.2970 N   0  0  0  0  0  0  0  0  0  0  0  0
   -1.2370   30.5780  -24.8450 C   0  0  0  0  0  0  0  0  0  0  0  0
    0.5920   30.4980  -26.3890 C   0  0  0  0  0  0  0  0  0  0  0  0
    0.8430   29.6120  -24.1490 C   0  0  0  0  0  0  0  0  0  0  0  0
   -0.2620   28.0560  -27.1350 C   0  0  0  0  0  0  0  0  0  0  0  0
   -0.6290   26.8020  -27.6260 C   0  0  0  0  0  0  0  0  0  0  0  0
   -2.2980   24.4590  -28.5000 N   0  0  0  0  0  0  0  0  0  0  0  0
   -2.6800   23.2740  -29.0410 C   0  0  0  0  0  0  0  0  0  0  0  0
   -3.4000   23.2430  -30.2400 C   0  0  0  0  0  0  0  0  0  0  0  0
    1.4594   23.6119  -35.9005 H   0  0  0  0  0  0  0  0  0  0  0  0
    1.2412   21.9822  -36.6237 H   0  0  0  0  0  0  0  0  0  0  0  0
   -0.1199   23.1544  -36.6237 H   0  0  0  0  0  0  0  0  0  0  0  0
    1.2689   20.5070  -35.1980 H   0  0  0  0  0  0  0  0  0  0  0  0
    2.1757   21.6752  -34.1732 H   0  0  0  0  0  0  0  0  0  0  0  0
    0.6638   19.4946  -33.2765 H   0  0  0  0  0  0  0  0  0  0  0  0
    1.2477   20.9195  -32.2917 H   0  0  0  0  0  0  0  0  0  0  0  0
   -1.1663   20.4014  -31.9476 H   0  0  0  0  0  0  0  0  0  0  0  0
   -0.8290   22.0672  -32.6123 H   0  0  0  0  0  0  0  0  0  0  0  0
   -1.6950   21.5200  -34.6400 H   0  0  0  0  0  0  0  0  0  0  0  0
   -3.6941   19.9936  -34.2899 H   0  0  0  0  0  0  0  0  0  0  0  0
   -3.1706   20.0003  -32.5654 H   0  0  0  0  0  0  0  0  0  0  0  0
   -3.0714   22.7026  -33.3249 H   0  0  0  0  0  0  0  0  0  0  0  0
   -4.5687   22.0536  -34.1172 H   0  0  0  0  0  0  0  0  0  0  0  0
   -6.0813   19.7571  -32.1834 H   0  0  0  0  0  0  0  0  0  0  0  0
   -8.5670   19.6370  -32.0676 H   0  0  0  0  0  0  0  0  0  0  0  0
   -9.9094   21.7216  -31.7876 H   0  0  0  0  0  0  0  0  0  0  0  0
   -8.7643   23.9305  -31.6179 H   0  0  0  0  0  0  0  0  0  0  0  0
   -6.2793   24.0665  -31.7442 H   0  0  0  0  0  0  0  0  0  0  0  0
   -3.7769   19.8556  -30.5566 H   0  0  0  0  0  0  0  0  0  0  0  0
   -2.4873   19.9085  -28.4241 H   0  0  0  0  0  0  0  0  0  0  0  0
   -1.3860   21.2480  -26.7160 H   0  0  0  0  0  0  0  0  0  0  0  0
   -0.7020   23.3438  -25.7367 H   0  0  0  0  0  0  0  0  0  0  0  0
   -1.9038   25.4439  -24.7704 H   0  0  0  0  0  0  0  0  0  0  0  0
   -1.2648   27.6706  -23.8875 H   0  0  0  0  0  0  0  0  0  0  0  0
   -1.2646   30.5977  -23.7455 H   0  0  0  0  0  0  0  0  0  0  0  0
   -1.1274   31.6035  -25.2275 H   0  0  0  0  0  0  0  0  0  0  0  0
   -2.1716   30.1419  -25.2275 H   0  0  0  0  0  0  0  0  0  0  0  0
    1.2732   31.2456  -25.9564 H   0  0  0  0  0  0  0  0  0  0  0  0
    1.1662   29.7946  -27.0100 H   0  0  0  0  0  0  0  0  0  0  0  0
   -0.1616   31.0045  -27.0100 H   0  0  0  0  0  0  0  0  0  0  0  0
    0.2790   29.6989  -23.2086 H   0  0  0  0  0  0  0  0  0  0  0  0
    1.3324   28.6278  -24.1935 H   0  0  0  0  0  0  0  0  0  0  0  0
    1.6059   30.4032  -24.1935 H   0  0  0  0  0  0  0  0  0  0  0  0
    0.2069   28.7825  -27.8150 H   0  0  0  0  0  0  0  0  0  0  0  0
   -0.4583   26.5619  -28.6858 H   0  0  0  0  0  0  0  0  0  0  0  0
   -3.6534   24.1834  -30.7513 H   0  0  0  0  0  0  0  0  0  0  0  0
  1  2  1  0
  2  3  1  0
  3  4  1  0
  4  5  1  0
  5  6  1  0
  6  7  1  0
  7  8  1  0
  8  9  1  0
  9 10  1  0
 10 11  2  0
 11 12  1  0
 12 13  2  0
 13 14  1  0
 14 15  2  0
  9 16  1  0
 16 17  2  0
 17 18  1  0
 18 19  2  0
 19 20  1  0
 20 21  2  0
 21 22  1  0
 22 23  1  0
 23 24  2  0
 24 25  1  0
 25 26  2  0
 26 27  1  0
 27 28  1  0
 27 29  1  0
 27 30  1  0
 26 31  1  0
 31 32  2  0
 22 33  2  0
 33 34  1  0
 34 35  2  0
 15 10  1  0
 35 16  1  0
 34 19  1  0
 32 23  1  0
  1 36  1  0
  1 37  1  0
  1 38  1  0
  3 39  1  0
  3 40  1  0
  4 41  1  0
  4 42  1  0
  5 43  1  0
  5 44  1  0
  6 45  1  0
  7 46  1  0
  7 47  1  0
  8 48  1  0
  8 49  1  0
 11 50  1  0
 12 51  1  0
 13 52  1  0
 14 53  1  0
 15 54  1  0
 17 55  1  0
 18 56  1  0
 20 57  1  0
 21 58  1  0
 24 59  1  0
 25 60  1  0
 28 61  1  0
 28 62  1  0
 28 63  1  0
 29 64  1  0
 29 65  1  0
 29 66  1  0
 30 67  1  0
 30 68  1  0
 30 69  1  0
 31 70  1  0
 32 71  1  0
 35 72  1  0
M  CHG  2  20   1  27   1
M  END
>  <UniqueID>  (31) 
29

>  <SMILES>  (31) 
COCCCNCCN(c1ccccc1)c1ccc2[nH+]cc(-c3ccc([N+](C)(C)C)cc3)nc2c1

>  <Energy>  (31) 
102.28548790048312

>  <Genealogy>  (31) 
COCCCNCCN(c1ccccc1)c1ccc2[nH+]cc(-c3ccc([N+](C)(C)C)cc3)nc2c1 (protonated)
COCCCNCCN(c1ccccc1)c1ccc2[nH+]cc(-c3ccc([N+](C)(C)C)cc3)nc2c1 (3D coordinates assigned)
COCCCNCCN(c1ccccc1)c1ccc2[nH+]cc(-c3ccc([N+](C)(C)C)cc3)nc2c1 (optimized conformer: 102.28548790048312 kcal/mol)

>  <smiles>  (31) 
COCCCNCCN(c1ccccc1)c1ccc2ncc(-c3ccc([N+](C)(C)C)cc3)nc2c1

>  <score_type>  (31) 
oracle

>  <origin>  (31) 
adg

>  <m_score__min__energy>  (31) 
-7.79

>  <m_primary>  (31) 
energy

$$$$
31:0
     RDKit          3D

 52 55  0  0  0  0  0  0  0  0999 V2000
   -5.7240   26.0670  -30.1370 C   0  0  0  0  0  0  0  0  0  0  0  0
   -5.1710   25.2840  -31.1910 O   0  0  0  0  0  0  0  0  0  0  0  0
   -5.5800   23.9800  -31.5110 C   0  0  0  0  0  0  0  0  0  0  0  0
   -6.8960   23.6870  -31.9170 C   0  0  0  0  0  0  0  0  0  0  0  0
   -7.2660   22.3780  -32.2260 C   0  0  0  0  0  0  0  0  0  0  0  0
   -6.3310   21.3390  -32.1370 C   0  0  0  0  0  0  0  0  0  0  0  0
   -6.7160   19.9910  -32.4520 N   0  0  0  0  0  0  0  0  0  0  0  0
   -7.9330   19.4030  -32.2770 C   0  0  0  0  0  0  0  0  0  0  0  0
   -9.1330   20.0860  -31.6940 C   0  0  0  0  0  0  0  0  0  0  0  0
   -7.9470   18.1090  -32.6790 N   0  0  0  0  0  0  0  0  0  0  0  0
   -6.7010   17.8860  -33.1300 C   0  0  0  0  0  0  0  0  0  0  0  0
   -6.1720   16.7060  -33.6450 C   0  0  0  0  0  0  0  0  0  0  0  0
   -4.8160   16.7060  -34.0440 C   0  0  0  0  0  0  0  0  0  0  0  0
   -4.2080   15.4710  -34.5890 C   0  0  0  0  0  0  0  0  0  0  0  0
   -3.5670   15.5340  -35.6730 O   0  0  0  0  0  0  0  0  0  0  0  0
   -4.3200   14.2070  -33.9070 N   0  0  0  0  0  0  0  0  0  0  0  0
   -4.5190   12.9670  -34.6650 C   0  0  0  0  0  0  0  0  0  0  0  0
   -3.6820   11.8460  -34.0410 C   0  0  0  0  0  0  0  0  0  0  0  0
   -3.9370   11.7390  -32.6530 O   0  0  0  0  0  0  0  0  0  0  0  0
   -3.5080   12.9160  -31.9930 C   0  0  0  0  0  0  0  0  0  0  0  0
   -4.3350   14.1240  -32.4430 C   0  0  0  0  0  0  0  0  0  0  0  0
   -4.0360   17.8810  -33.8770 C   0  0  0  0  0  0  0  0  0  0  0  0
   -4.6040   19.0550  -33.3490 C   0  0  0  0  0  0  0  0  0  0  0  0
   -5.9540   19.0220  -32.9980 C   0  0  0  0  0  0  0  0  0  0  0  0
   -5.0190   21.6260  -31.7370 C   0  0  0  0  0  0  0  0  0  0  0  0
   -4.6370   22.9430  -31.4200 C   0  0  0  0  0  0  0  0  0  0  0  0
   -3.3320   23.2640  -31.0140 O   0  0  0  0  0  0  0  0  0  0  0  0
   -2.3920   22.3220  -30.5050 C   0  0  0  0  0  0  0  0  0  0  0  0
   -5.4237   25.6418  -29.1680 H   0  0  0  0  0  0  0  0  0  0  0  0
   -5.3540   27.1000  -30.2146 H   0  0  0  0  0  0  0  0  0  0  0  0
   -6.8213   26.0637  -30.2146 H   0  0  0  0  0  0  0  0  0  0  0  0
   -7.6376   24.4961  -31.9910 H   0  0  0  0  0  0  0  0  0  0  0  0
   -8.2972   22.1607  -32.5411 H   0  0  0  0  0  0  0  0  0  0  0  0
   -9.0760   20.0535  -30.5960 H   0  0  0  0  0  0  0  0  0  0  0  0
   -9.1576   21.1334  -32.0291 H   0  0  0  0  0  0  0  0  0  0  0  0
  -10.0461   19.5723  -32.0291 H   0  0  0  0  0  0  0  0  0  0  0  0
   -8.7440   17.4340  -32.6440 H   0  0  0  0  0  0  0  0  0  0  0  0
   -6.7904   15.8011  -33.7386 H   0  0  0  0  0  0  0  0  0  0  0  0
   -5.5827   12.6881  -34.6388 H   0  0  0  0  0  0  0  0  0  0  0  0
   -4.2054   13.1210  -35.7080 H   0  0  0  0  0  0  0  0  0  0  0  0
   -3.9356   10.8930  -34.5284 H   0  0  0  0  0  0  0  0  0  0  0  0
   -2.6170   12.0798  -34.1860 H   0  0  0  0  0  0  0  0  0  0  0  0
   -3.6245   12.7835  -30.9072 H   0  0  0  0  0  0  0  0  0  0  0  0
   -2.4528   13.0972  -32.2456 H   0  0  0  0  0  0  0  0  0  0  0  0
   -5.3715   14.0102  -32.0926 H   0  0  0  0  0  0  0  0  0  0  0  0
   -3.9040   15.0428  -32.0187 H   0  0  0  0  0  0  0  0  0  0  0  0
   -2.9742   17.8732  -34.1641 H   0  0  0  0  0  0  0  0  0  0  0  0
   -4.0042   19.9677  -33.2174 H   0  0  0  0  0  0  0  0  0  0  0  0
   -4.2802   20.8138  -31.6701 H   0  0  0  0  0  0  0  0  0  0  0  0
   -2.4118   22.3418  -29.4054 H   0  0  0  0  0  0  0  0  0  0  0  0
   -2.6550   21.3140  -30.8583 H   0  0  0  0  0  0  0  0  0  0  0  0
   -1.3835   22.5829  -30.8583 H   0  0  0  0  0  0  0  0  0  0  0  0
  1  2  1  0
  2  3  1  0
  3  4  2  0
  4  5  1  0
  5  6  2  0
  6  7  1  0
  7  8  1  0
  8  9  1  0
  8 10  2  0
 10 11  1  0
 11 12  2  0
 12 13  1  0
 13 14  1  0
 14 15  2  0
 14 16  1  0
 16 17  1  0
 17 18  1  0
 18 19  1  0
 19 20  1  0
 20 21  1  0
 13 22  2  0
 22 23  1  0
 23 24  2  0
  6 25  1  0
 25 26  2  0
 26 27  1  0
 27 28  1  0
 26  3  1  0
 24  7  1  0
 24 11  1  0
 21 16  1  0
  1 29  1  0
  1 30  1  0
  1 31  1  0
  4 32  1  0
  5 33  1  0
  9 34  1  0
  9 35  1  0
  9 36  1  0
 10 37  1  0
 12 38  1  0
 17 39  1  0
 17 40  1  0
 18 41  1  0
 18 42  1  0
 20 43  1  0
 20 44  1  0
 21 45  1  0
 21 46  1  0
 22 47  1  0
 23 48  1  0
 25 49  1  0
 28 50  1  0
 28 51  1  0
 28 52  1  0
M  CHG  1  10   1
M  END
>  <UniqueID>  (32) 
30

>  <SMILES>  (32) 
COc1ccc(-n2c(C)[nH+]c3cc(C(=O)N4CCOCC4)ccc32)cc1OC

>  <Energy>  (32) 
104.16797854011966

>  <Genealogy>  (32) 
COc1ccc(-n2c(C)[nH+]c3cc(C(=O)N4CCOCC4)ccc32)cc1OC (protonated)
COc1ccc(-n2c(C)[nH+]c3cc(C(=O)N4CCOCC4)ccc32)cc1OC (3D coordinates assigned)
COc1ccc(-n2c(C)[nH+]c3cc(C(=O)N4CCOCC4)ccc32)cc1OC (nonaromatic ring conformer: 104.16797854011966 kcal/mol)

>  <smiles>  (32) 
COc1ccc(-n2c(C)nc3cc(C(=O)N4CCOCC4)ccc32)cc1OC

>  <score_type>  (32) 
oracle

>  <origin>  (32) 
adg

>  <m_score__min__energy>  (32) 
-8.0099999999999998

>  <m_primary>  (32) 
energy

$$$$
32:0
     RDKit          3D

 42 44  0  0  0  0  0  0  0  0999 V2000
    0.6150   26.2290  -27.0730 C   0  0  0  0  0  0  0  0  0  0  0  0
   -0.1280   25.4020  -28.0400 N   0  0  0  0  0  0  0  0  0  0  0  0
    0.3930   24.0250  -28.0060 C   0  0  0  0  0  0  0  0  0  0  0  0
   -1.5790   25.3970  -27.7480 C   0  0  0  0  0  0  0  0  0  0  0  0
   -2.2640   24.1220  -28.2740 C   0  0  0  0  0  0  0  0  0  0  0  0
   -2.6600   24.2510  -29.6790 N   0  0  0  0  0  0  0  0  0  0  0  0
   -3.9970   23.9980  -30.1500 C   0  0  0  0  0  0  0  0  0  0  0  0
   -5.0750   24.6390  -29.5260 C   0  0  0  0  0  0  0  0  0  0  0  0
   -6.3820   24.4210  -29.9690 C   0  0  0  0  0  0  0  0  0  0  0  0
   -6.6430   23.5360  -31.0260 C   0  0  0  0  0  0  0  0  0  0  0  0
   -5.5690   22.8840  -31.6550 C   0  0  0  0  0  0  0  0  0  0  0  0
   -4.2550   23.1250  -31.2230 C   0  0  0  0  0  0  0  0  0  0  0  0
   -5.7850   21.9900  -32.7480 N   0  0  0  0  0  0  0  0  0  0  0  0
   -6.6030   20.8320  -32.5610 C   0  0  0  0  0  0  0  0  0  0  0  0
   -6.0470   19.5670  -32.8130 C   0  0  0  0  0  0  0  0  0  0  0  0
   -6.8030   18.4100  -32.6260 C   0  0  0  0  0  0  0  0  0  0  0  0
   -8.1250   18.5050  -32.1970 C   0  0  0  0  0  0  0  0  0  0  0  0
   -8.6960   19.7570  -31.9650 C   0  0  0  0  0  0  0  0  0  0  0  0
   -7.9460   20.9370  -32.1420 C   0  0  0  0  0  0  0  0  0  0  0  0
   -8.6330   22.2430  -31.9940 C   0  0  0  0  0  0  0  0  0  0  0  0
   -9.8630   22.3070  -32.2700 O   0  0  0  0  0  0  0  0  0  0  0  0
   -7.9870   23.4350  -31.5210 N   0  0  0  0  0  0  0  0  0  0  0  0
    0.3450   25.9285  -26.0499 H   0  0  0  0  0  0  0  0  0  0  0  0
    1.6954   26.0877  -27.2236 H   0  0  0  0  0  0  0  0  0  0  0  0
    0.3592   27.2882  -27.2236 H   0  0  0  0  0  0  0  0  0  0  0  0
    0.5142   23.7045  -26.9607 H   0  0  0  0  0  0  0  0  0  0  0  0
   -0.3131   23.3531  -28.5159 H   0  0  0  0  0  0  0  0  0  0  0  0
    1.3670   23.9888  -28.5159 H   0  0  0  0  0  0  0  0  0  0  0  0
   -1.7232   25.4553  -26.6591 H   0  0  0  0  0  0  0  0  0  0  0  0
   -2.0325   26.2622  -28.2538 H   0  0  0  0  0  0  0  0  0  0  0  0
   -1.5650   23.2781  -28.1781 H   0  0  0  0  0  0  0  0  0  0  0  0
   -3.1738   23.9549  -27.6787 H   0  0  0  0  0  0  0  0  0  0  0  0
   -1.9440   24.5450  -30.3830 H   0  0  0  0  0  0  0  0  0  0  0  0
   -4.8911   25.3189  -28.6811 H   0  0  0  0  0  0  0  0  0  0  0  0
   -7.2159   24.9492  -29.4836 H   0  0  0  0  0  0  0  0  0  0  0  0
   -3.4165   22.6250  -31.7298 H   0  0  0  0  0  0  0  0  0  0  0  0
   -5.0310   21.9290  -33.4690 H   0  0  0  0  0  0  0  0  0  0  0  0
   -5.0064   19.4882  -33.1608 H   0  0  0  0  0  0  0  0  0  0  0  0
   -6.3558   17.4233  -32.8171 H   0  0  0  0  0  0  0  0  0  0  0  0
   -8.7192   17.5925  -32.0410 H   0  0  0  0  0  0  0  0  0  0  0  0
   -9.7447   19.8237  -31.6399 H   0  0  0  0  0  0  0  0  0  0  0  0
   -8.6050   24.2670  -31.3800 H   0  0  0  0  0  0  0  0  0  0  0  0
  1  2  1  0
  2  3  1  0
  2  4  1  0
  4  5  1  0
  5  6  1  0
  6  7  1  0
  7  8  2  0
  8  9  1  0
  9 10  2  0
 10 11  1  0
 11 12  2  0
 11 13  1  0
 13 14  1  0
 14 15  2  0
 15 16  1  0
 16 17  2  0
 17 18  1  0
 18 19  2  0
 19 20  1  0
 20 21  2  0
 20 22  1  0
 12  7  1  0
 19 14  1  0
 22 10  1  0
  1 23  1  0
  1 24  1  0
  1 25  1  0
  3 26  1  0
  3 27  1  0
  3 28  1  0
  4 29  1  0
  4 30  1  0
  5 31  1  0
  5 32  1  0
  6 33  1  0
  8 34  1  0
  9 35  1  0
 12 36  1  0
 13 37  1  0
 15 38  1  0
 16 39  1  0
 17 40  1  0
 18 41  1  0
 22 42  1  0
M  END
>  <UniqueID>  (33) 
31

>  <SMILES>  (33) 
CN(C)CCNc1ccc2c(c1)Nc1ccccc1C(=O)N2

>  <Energy>  (33) 
63.05777304751099

>  <Genealogy>  (33) 
CN(C)CCNc1ccc2c(c1)Nc1ccccc1C(=O)N2 (3D coordinates assigned)
CN(C)CCNc1ccc2c(c1)Nc1ccccc1C(=O)N2 (nonaromatic ring conformer: 63.05777304751099 kcal/mol)

>  <smiles>  (33) 
CN(C)CCNc1ccc2c(c1)Nc1ccccc1C(=O)N2

>  <score_type>  (33) 
oracle

>  <origin>  (33) 
adg

>  <m_score__min__energy>  (33) 
-8.7799999999999994

>  <m_primary>  (33) 
energy

$$$$
33:0
     RDKit          3D

 52 54  0  0  0  0  0  0  0  0999 V2000
   -4.0450   23.6690  -28.6640 C   0  0  0  0  0  0  0  0  0  0  0  0
   -3.1200   24.2880  -29.7060 C   0  0  0  0  0  0  0  0  0  0  0  0
   -3.8250   25.2330  -30.4910 O   0  0  0  0  0  0  0  0  0  0  0  0
   -5.1700   25.3170  -30.0710 C   0  0  0  0  0  0  0  0  0  0  0  0
   -6.0780   24.8330  -31.2010 C   0  0  0  0  0  0  0  0  0  0  0  0
   -5.5050   23.6090  -31.9290 C   0  0  0  0  0  0  0  0  0  0  0  0
   -6.4730   22.4580  -31.9590 C   0  0  0  0  0  0  0  0  0  0  0  0
   -7.8410   22.6070  -31.7640 C   0  0  0  0  0  0  0  0  0  0  0  0
   -8.4790   21.4410  -31.9930 N   0  0  0  0  0  0  0  0  0  0  0  0
   -9.9250   21.2340  -31.9650 C   0  0  0  0  0  0  0  0  0  0  0  0
   -7.5350   20.5520  -32.3590 C   0  0  0  0  0  0  0  0  0  0  0  0
   -7.7420   19.2360  -32.7750 C   0  0  0  0  0  0  0  0  0  0  0  0
   -6.6300   18.4860  -33.1780 C   0  0  0  0  0  0  0  0  0  0  0  0
   -5.3420   19.0510  -33.1510 C   0  0  0  0  0  0  0  0  0  0  0  0
   -5.1390   20.3770  -32.7150 C   0  0  0  0  0  0  0  0  0  0  0  0
   -3.7590   20.8820  -32.6500 C   0  0  0  0  0  0  0  0  0  0  0  0
   -3.0870   20.9640  -33.7140 O   0  0  0  0  0  0  0  0  0  0  0  0
   -3.1440   21.1590  -31.3840 N   0  0  0  0  0  0  0  0  0  0  0  0
   -1.7530   21.5930  -31.2630 C   0  0  0  0  0  0  0  0  0  0  0  0
   -1.0150   20.7210  -30.2810 C   0  0  0  0  0  0  0  0  0  0  0  0
    0.1840   20.0880  -30.6500 C   0  0  0  0  0  0  0  0  0  0  0  0
    0.9030   19.3410  -29.7120 C   0  0  0  0  0  0  0  0  0  0  0  0
    0.4320   19.2210  -28.4020 C   0  0  0  0  0  0  0  0  0  0  0  0
    1.1380   18.5030  -27.4930 F   0  0  0  0  0  0  0  0  0  0  0  0
   -0.7640   19.8420  -28.0290 C   0  0  0  0  0  0  0  0  0  0  0  0
   -1.2200   19.7320  -26.7570 F   0  0  0  0  0  0  0  0  0  0  0  0
   -1.4870   20.5890  -28.9660 C   0  0  0  0  0  0  0  0  0  0  0  0
   -6.2770   21.1250  -32.3360 C   0  0  0  0  0  0  0  0  0  0  0  0
   -3.6784   23.9143  -27.6563 H   0  0  0  0  0  0  0  0  0  0  0  0
   -5.0615   24.0695  -28.7919 H   0  0  0  0  0  0  0  0  0  0  0  0
   -4.0625   22.5766  -28.7919 H   0  0  0  0  0  0  0  0  0  0  0  0
   -2.2847   24.7907  -29.1966 H   0  0  0  0  0  0  0  0  0  0  0  0
   -2.7377   23.4923  -30.3623 H   0  0  0  0  0  0  0  0  0  0  0  0
   -5.3187   24.6853  -29.1828 H   0  0  0  0  0  0  0  0  0  0  0  0
   -5.4152   26.3594  -29.8193 H   0  0  0  0  0  0  0  0  0  0  0  0
   -7.0572   24.5655  -30.7773 H   0  0  0  0  0  0  0  0  0  0  0  0
   -6.1650   25.6487  -31.9339 H   0  0  0  0  0  0  0  0  0  0  0  0
   -5.2622   23.8941  -32.9633 H   0  0  0  0  0  0  0  0  0  0  0  0
   -4.6088   23.2810  -31.3819 H   0  0  0  0  0  0  0  0  0  0  0  0
   -8.3339   23.5438  -31.4650 H   0  0  0  0  0  0  0  0  0  0  0  0
  -10.2682   21.1849  -30.9211 H   0  0  0  0  0  0  0  0  0  0  0  0
  -10.4250   22.0697  -32.4764 H   0  0  0  0  0  0  0  0  0  0  0  0
  -10.1705   20.2916  -32.4764 H   0  0  0  0  0  0  0  0  0  0  0  0
   -8.7516   18.7995  -32.7861 H   0  0  0  0  0  0  0  0  0  0  0  0
   -6.7646   17.4485  -33.5178 H   0  0  0  0  0  0  0  0  0  0  0  0
   -4.4799   18.4495  -33.4749 H   0  0  0  0  0  0  0  0  0  0  0  0
   -3.6990   21.0120  -30.5100 H   0  0  0  0  0  0  0  0  0  0  0  0
   -1.2651   21.5248  -32.2465 H   0  0  0  0  0  0  0  0  0  0  0  0
   -1.7332   22.6322  -30.9029 H   0  0  0  0  0  0  0  0  0  0  0  0
    0.5582   20.1805  -31.6803 H   0  0  0  0  0  0  0  0  0  0  0  0
    1.8409   18.8470  -30.0058 H   0  0  0  0  0  0  0  0  0  0  0  0
   -2.4288   21.0745  -28.6706 H   0  0  0  0  0  0  0  0  0  0  0  0
  1  2  1  0
  2  3  1  0
  3  4  1  0
  4  5  1  0
  5  6  1  0
  6  7  1  0
  7  8  2  0
  8  9  1  0
  9 10  1  0
  9 11  1  0
 11 12  2  0
 12 13  1  0
 13 14  2  0
 14 15  1  0
 15 16  1  0
 16 17  2  0
 16 18  1  0
 18 19  1  0
 19 20  1  0
 20 21  2  0
 21 22  1  0
 22 23  2  0
 23 24  1  0
 23 25  1  0
 25 26  1  0
 25 27  2  0
 15 28  2  0
 28  7  1  0
 28 11  1  0
 27 20  1  0
  1 29  1  0
  1 30  1  0
  1 31  1  0
  2 32  1  0
  2 33  1  0
  4 34  1  0
  4 35  1  0
  5 36  1  0
  5 37  1  0
  6 38  1  0
  6 39  1  0
  8 40  1  0
 10 41  1  0
 10 42  1  0
 10 43  1  0
 12 44  1  0
 13 45  1  0
 14 46  1  0
 18 47  1  0
 19 48  1  0
 19 49  1  0
 21 50  1  0
 22 51  1  0
 27 52  1  0
M  END
>  <UniqueID>  (34) 
32

>  <SMILES>  (34) 
CCOCCCc1cn(C)c2cccc(C(=O)NCc3ccc(F)c(F)c3)c12

>  <Energy>  (34) 
83.65397877874719

>  <Genealogy>  (34) 
CCOCCCc1cn(C)c2cccc(C(=O)NCc3ccc(F)c(F)c3)c12 (3D coordinates assigned)
CCOCCCc1cn(C)c2cccc(C(=O)NCc3ccc(F)c(F)c3)c12 (optimized conformer: 83.65397877874719 kcal/mol)

>  <smiles>  (34) 
CCOCCCc1cn(C)c2cccc(C(=O)NCc3ccc(F)c(F)c3)c12

>  <score_type>  (34) 
oracle

>  <origin>  (34) 
adg

>  <m_score__min__energy>  (34) 
-8.6099999999999994

>  <m_primary>  (34) 
energy

$$$$
34:0
     RDKit          3D

 63 67  0  0  0  0  0  0  0  0999 V2000
   -8.9850   19.4250  -32.0030 C   0  0  0  0  0  0  0  0  0  0  0  0
   -7.9910   20.5080  -31.7080 C   0  0  0  0  0  0  0  0  0  0  0  0
   -6.6830   20.4350  -32.2140 C   0  0  0  0  0  0  0  0  0  0  0  0
   -5.7530   21.4310  -31.9080 C   0  0  0  0  0  0  0  0  0  0  0  0
   -6.1210   22.5170  -31.0990 C   0  0  0  0  0  0  0  0  0  0  0  0
   -5.1550   23.5260  -30.7730 N   0  0  0  0  0  0  0  0  0  0  0  0
   -5.3000   24.9050  -31.2390 C   0  0  0  0  0  0  0  0  0  0  0  0
   -4.2220   25.6540  -30.6180 N   0  0  0  0  0  0  0  0  0  0  0  0
   -3.4950   24.7590  -29.7970 C   0  0  0  0  0  0  0  0  0  0  0  0
   -2.5070   25.1260  -29.1080 O   0  0  0  0  0  0  0  0  0  0  0  0
   -4.0340   23.3670  -29.8340 C   0  0  2  0  0  0  0  0  0  0  0  0
   -2.9610   22.3940  -30.3900 C   0  0  0  0  0  0  0  0  0  0  0  0
   -3.1460   20.9730  -29.8310 C   0  0  0  0  0  0  0  0  0  0  0  0
   -3.0640   20.9140  -28.3390 N   0  0  1  0  0  0  0  0  0  0  0  0
   -1.7230   20.4710  -27.8790 C   0  0  0  0  0  0  0  0  0  0  0  0
   -0.6440   20.6600  -28.9620 C   0  0  0  0  0  0  0  0  0  0  0  0
   -0.0530   19.3270  -29.3630 C   0  0  0  0  0  0  0  0  0  0  0  0
    0.5570   18.5360  -28.3730 C   0  0  0  0  0  0  0  0  0  0  0  0
    1.0470   17.2670  -28.6790 C   0  0  0  0  0  0  0  0  0  0  0  0
    0.9230   16.7600  -29.9730 C   0  0  0  0  0  0  0  0  0  0  0  0
    0.3080   17.5230  -30.9660 C   0  0  0  0  0  0  0  0  0  0  0  0
   -0.1800   18.8090  -30.6790 C   0  0  0  0  0  0  0  0  0  0  0  0
   -0.8320   19.5720  -31.7630 C   0  0  0  0  0  0  0  0  0  0  0  0
   -2.0110   19.0880  -32.3530 C   0  0  0  0  0  0  0  0  0  0  0  0
   -2.6260   19.8030  -33.3840 C   0  0  0  0  0  0  0  0  0  0  0  0
   -2.0650   21.0010  -33.8390 C   0  0  0  0  0  0  0  0  0  0  0  0
   -0.8830   21.4800  -33.2670 C   0  0  0  0  0  0  0  0  0  0  0  0
   -0.2630   20.7660  -32.2360 C   0  0  0  0  0  0  0  0  0  0  0  0
   -3.4300   22.1950  -27.6720 C   0  0  0  0  0  0  0  0  0  0  0  0
   -4.5360   22.9400  -28.4290 C   0  0  0  0  0  0  0  0  0  0  0  0
   -7.4150   22.5730  -30.5650 C   0  0  0  0  0  0  0  0  0  0  0  0
   -8.3460   21.5750  -30.8690 C   0  0  0  0  0  0  0  0  0  0  0  0
   -9.3661   19.0098  -31.0583 H   0  0  0  0  0  0  0  0  0  0  0  0
   -9.8208   19.8426  -32.5836 H   0  0  0  0  0  0  0  0  0  0  0  0
   -8.4974   18.6280  -32.5836 H   0  0  0  0  0  0  0  0  0  0  0  0
   -6.3897   19.5898  -32.8540 H   0  0  0  0  0  0  0  0  0  0  0  0
   -4.7284   21.3640  -32.3025 H   0  0  0  0  0  0  0  0  0  0  0  0
   -5.2139   24.9490  -32.3347 H   0  0  0  0  0  0  0  0  0  0  0  0
   -6.2835   25.3188  -30.9717 H   0  0  0  0  0  0  0  0  0  0  0  0
   -3.0426   22.3604  -31.4865 H   0  0  0  0  0  0  0  0  0  0  0  0
   -1.9703   22.7599  -30.0825 H   0  0  0  0  0  0  0  0  0  0  0  0
   -4.1329   20.6001  -30.1423 H   0  0  0  0  0  0  0  0  0  0  0  0
   -2.3277   20.3550  -30.2290 H   0  0  0  0  0  0  0  0  0  0  0  0
   -3.7680   20.2060  -28.0170 H   0  0  0  0  0  0  0  0  0  0  0  0
   -1.4412   21.0576  -26.9921 H   0  0  0  0  0  0  0  0  0  0  0  0
   -1.7835   19.3975  -27.6467 H   0  0  0  0  0  0  0  0  0  0  0  0
   -1.0971   21.1348  -29.8448 H   0  0  0  0  0  0  0  0  0  0  0  0
    0.1572   21.2957  -28.5571 H   0  0  0  0  0  0  0  0  0  0  0  0
    0.6484   18.9223  -27.3471 H   0  0  0  0  0  0  0  0  0  0  0  0
    1.5328   16.6637  -27.8979 H   0  0  0  0  0  0  0  0  0  0  0  0
    1.3103   15.7582  -30.2103 H   0  0  0  0  0  0  0  0  0  0  0  0
    0.2043   17.1144  -31.9820 H   0  0  0  0  0  0  0  0  0  0  0  0
   -2.4517   18.1431  -32.0024 H   0  0  0  0  0  0  0  0  0  0  0  0
   -3.5529   19.4232  -33.8386 H   0  0  0  0  0  0  0  0  0  0  0  0
   -2.5538   21.5658  -34.6465 H   0  0  0  0  0  0  0  0  0  0  0  0
   -0.4397   22.4197  -33.6280 H   0  0  0  0  0  0  0  0  0  0  0  0
    0.6724   21.1405  -31.7947 H   0  0  0  0  0  0  0  0  0  0  0  0
   -3.7817   21.9771  -26.6528 H   0  0  0  0  0  0  0  0  0  0  0  0
   -2.5371   22.8372  -27.6554 H   0  0  0  0  0  0  0  0  0  0  0  0
   -5.4079   22.2787  -28.5408 H   0  0  0  0  0  0  0  0  0  0  0  0
   -4.8152   23.8393  -27.8604 H   0  0  0  0  0  0  0  0  0  0  0  0
   -7.6996   23.4051  -29.9042 H   0  0  0  0  0  0  0  0  0  0  0  0
   -9.3611   21.6267  -30.4485 H   0  0  0  0  0  0  0  0  0  0  0  0
  1  2  1  0
  2  3  2  0
  3  4  1  0
  4  5  2  0
  5  6  1  0
  6  7  1  0
  7  8  1  0
  8  9  1  0
  9 10  2  0
  9 11  1  0
 11 12  1  0
 12 13  1  0
 13 14  1  0
 14 15  1  0
 15 16  1  0
 16 17  1  0
 17 18  2  0
 18 19  1  0
 19 20  2  0
 20 21  1  0
 21 22  2  0
 22 23  1  0
 23 24  2  0
 24 25  1  0
 25 26  2  0
 26 27  1  0
 27 28  2  0
 14 29  1  0
 29 30  1  0
  5 31  1  0
 31 32  2  0
 32  2  1  0
 11  6  1  6
 22 17  1  0
 28 23  1  0
 30 11  1  0
  1 33  1  0
  1 34  1  0
  1 35  1  0
  3 36  1  0
  4 37  1  0
  7 38  1  0
  7 39  1  0
 12 40  1  0
 12 41  1  0
 13 42  1  0
 13 43  1  0
 14 44  1  1
 15 45  1  0
 15 46  1  0
 16 47  1  0
 16 48  1  0
 18 49  1  0
 19 50  1  0
 20 51  1  0
 21 52  1  0
 24 53  1  0
 25 54  1  0
 26 55  1  0
 27 56  1  0
 28 57  1  0
 29 58  1  0
 29 59  1  0
 30 60  1  0
 30 61  1  0
 31 62  1  0
 32 63  1  0
M  CHG  2   8  -1  14   1
M  END
>  <UniqueID>  (35) 
33

>  <SMILES>  (35) 
Cc1ccc(N2C[N-]C(=O)C23CC[NH+](CCc2ccccc2-c2ccccc2)CC3)cc1

>  <Energy>  (35) 
100.33001499171694

>  <Genealogy>  (35) 
Cc1ccc(N2C[N-]C(=O)C23CC[NH+](CCc2ccccc2-c2ccccc2)CC3)cc1 (protonated)
Cc1ccc(N2C[N-]C(=O)C23CC[NH+](CCc2ccccc2-c2ccccc2)CC3)cc1 (3D coordinates assigned)
Cc1ccc(N2C[N-]C(=O)C23CC[NH+](CCc2ccccc2-c2ccccc2)CC3)cc1 (nonaromatic ring conformer: 100.33001499171694 kcal/mol)

>  <smiles>  (35) 
Cc1ccc(N2CNC(=O)C23CCN(CCc2ccccc2-c2ccccc2)CC3)cc1

>  <score_type>  (35) 
oracle

>  <origin>  (35) 
adg

>  <m_score__min__energy>  (35) 
-11.1

>  <m_primary>  (35) 
energy

$$$$
35:0
     RDKit          3D

 46 47  0  0  0  0  0  0  0  0999 V2000
   -5.6610   16.6260  -34.1650 C   0  0  0  0  0  0  0  0  0  0  0  0
   -6.9370   17.0610  -33.4360 C   0  0  0  0  0  0  0  0  0  0  0  0
   -6.7360   18.1680  -32.4770 N   0  0  0  0  0  0  0  0  0  0  0  0
   -7.5970   18.0700  -31.2820 C   0  0  0  0  0  0  0  0  0  0  0  0
   -9.0640   18.2500  -31.6600 C   0  0  0  0  0  0  0  0  0  0  0  0
   -6.7550   19.7550  -33.2340 S   0  0  0  0  0  0  0  0  0  0  0  0
   -8.1770   20.1890  -33.4620 O   0  0  0  0  0  0  0  0  0  0  0  0
   -6.0960   19.6540  -34.5820 O   0  0  0  0  0  0  0  0  0  0  0  0
   -5.9180   21.0070  -32.3040 C   0  0  0  0  0  0  0  0  0  0  0  0
   -4.6020   20.8060  -31.8610 C   0  0  0  0  0  0  0  0  0  0  0  0
   -3.9490   21.7870  -31.1090 C   0  0  0  0  0  0  0  0  0  0  0  0
   -4.6080   22.9850  -30.7740 C   0  0  0  0  0  0  0  0  0  0  0  0
   -3.9380   24.0380  -29.9740 C   0  0  0  0  0  0  0  0  0  0  0  0
   -3.8170   25.1920  -30.4660 O   0  0  0  0  0  0  0  0  0  0  0  0
   -3.4360   23.7650  -28.6510 N   0  0  0  0  0  0  0  0  0  0  0  0
   -2.6880   24.7110  -27.8680 C   0  0  0  0  0  0  0  0  0  0  0  0
   -1.5420   25.3430  -28.3800 C   0  0  0  0  0  0  0  0  0  0  0  0
   -0.8150   26.2380  -27.5880 C   0  0  0  0  0  0  0  0  0  0  0  0
   -1.2220   26.5220  -26.2740 C   0  0  0  0  0  0  0  0  0  0  0  0
   -0.4100   27.4490  -25.4080 C   0  0  0  0  0  0  0  0  0  0  0  0
    0.9260   27.3340  -25.7440 F   0  0  0  0  0  0  0  0  0  0  0  0
   -0.8090   28.7620  -25.5900 F   0  0  0  0  0  0  0  0  0  0  0  0
   -0.5660   27.1330  -24.0690 F   0  0  0  0  0  0  0  0  0  0  0  0
   -2.3390   25.8490  -25.7480 C   0  0  0  0  0  0  0  0  0  0  0  0
   -3.0630   24.9530  -26.5400 C   0  0  0  0  0  0  0  0  0  0  0  0
   -5.9410   23.1620  -31.1820 C   0  0  0  0  0  0  0  0  0  0  0  0
   -6.5890   22.1800  -31.9350 C   0  0  0  0  0  0  0  0  0  0  0  0
   -4.8888   16.3628  -33.4272 H   0  0  0  0  0  0  0  0  0  0  0  0
   -5.8790   15.7514  -34.7955 H   0  0  0  0  0  0  0  0  0  0  0  0
   -5.2994   17.4516  -34.7955 H   0  0  0  0  0  0  0  0  0  0  0  0
   -7.6715   17.3845  -34.1882 H   0  0  0  0  0  0  0  0  0  0  0  0
   -7.2806   16.1940  -32.8526 H   0  0  0  0  0  0  0  0  0  0  0  0
   -7.4618   17.0813  -30.8193 H   0  0  0  0  0  0  0  0  0  0  0  0
   -7.3134   18.8635  -30.5749 H   0  0  0  0  0  0  0  0  0  0  0  0
   -9.6716   18.3246  -30.7461 H   0  0  0  0  0  0  0  0  0  0  0  0
   -9.1797   19.1691  -32.2532 H   0  0  0  0  0  0  0  0  0  0  0  0
   -9.3984   17.3862  -32.2532 H   0  0  0  0  0  0  0  0  0  0  0  0
   -4.0802   19.8695  -32.1072 H   0  0  0  0  0  0  0  0  0  0  0  0
   -2.9134   21.6217  -30.7769 H   0  0  0  0  0  0  0  0  0  0  0  0
   -3.6580   22.8510  -28.2000 H   0  0  0  0  0  0  0  0  0  0  0  0
   -1.2149   25.1328  -29.4090 H   0  0  0  0  0  0  0  0  0  0  0  0
    0.0830   26.7235  -27.9977 H   0  0  0  0  0  0  0  0  0  0  0  0
   -2.6450   26.0287  -24.7068 H   0  0  0  0  0  0  0  0  0  0  0  0
   -3.9351   24.4332  -26.1166 H   0  0  0  0  0  0  0  0  0  0  0  0
   -6.4785   24.0813  -30.9062 H   0  0  0  0  0  0  0  0  0  0  0  0
   -7.6351   22.3291  -32.2408 H   0  0  0  0  0  0  0  0  0  0  0  0
  1  2  1  0
  2  3  1  0
  3  4  1  0
  4  5  1  0
  3  6  1  0
  6  7  2  0
  6  8  2  0
  6  9  1  0
  9 10  2  0
 10 11  1  0
 11 12  2  0
 12 13  1  0
 13 14  2  0
 13 15  1  0
 15 16  1  0
 16 17  2  0
 17 18  1  0
 18 19  2  0
 19 20  1  0
 20 21  1  0
 20 22  1  0
 20 23  1  0
 19 24  1  0
 24 25  2  0
 12 26  1  0
 26 27  2  0
 27  9  1  0
 25 16  1  0
  1 28  1  0
  1 29  1  0
  1 30  1  0
  2 31  1  0
  2 32  1  0
  4 33  1  0
  4 34  1  0
  5 35  1  0
  5 36  1  0
  5 37  1  0
 10 38  1  0
 11 39  1  0
 15 40  1  0
 17 41  1  0
 18 42  1  0
 24 43  1  0
 25 44  1  0
 26 45  1  0
 27 46  1  0
M  END
>  <UniqueID>  (36) 
34

>  <SMILES>  (36) 
CCN(CC)S(=O)(=O)c1ccc(C(=O)Nc2ccc(C(F)(F)F)cc2)cc1

>  <Energy>  (36) 
54.412095971751214

>  <Genealogy>  (36) 
CCN(CC)S(=O)(=O)c1ccc(C(=O)Nc2ccc(C(F)(F)F)cc2)cc1 (3D coordinates assigned)
CCN(CC)S(=O)(=O)c1ccc(C(=O)Nc2ccc(C(F)(F)F)cc2)cc1 (optimized conformer: 54.412095971751214 kcal/mol)

>  <smiles>  (36) 
CCN(CC)S(=O)(=O)c1ccc(C(=O)Nc2ccc(C(F)(F)F)cc2)cc1

>  <score_type>  (36) 
oracle

>  <origin>  (36) 
adg

>  <m_score__min__energy>  (36) 
-8.1799999999999997

>  <m_primary>  (36) 
energy

$$$$
36:0
     RDKit          3D

 48 50  0  0  0  0  0  0  0  0999 V2000
   -3.7610   21.1100  -33.2020 C   0  0  0  0  0  0  0  0  0  0  0  0
   -4.5910   20.1320  -33.8200 O   0  0  0  0  0  0  0  0  0  0  0  0
   -5.8720   19.7700  -33.3680 C   0  0  0  0  0  0  0  0  0  0  0  0
   -6.7230   20.7010  -32.7440 C   0  0  0  0  0  0  0  0  0  0  0  0
   -8.0010   20.3210  -32.3040 C   0  0  0  0  0  0  0  0  0  0  0  0
   -8.9760   21.3690  -31.8270 C   0  0  0  0  0  0  0  0  0  0  0  0
   -8.5490   21.9650  -30.4740 C   0  0  0  0  0  0  0  0  0  0  0  0
   -7.2870   22.7860  -30.5910 C   0  0  0  0  0  0  0  0  0  0  0  0
   -6.2770   22.6710  -29.6200 C   0  0  0  0  0  0  0  0  0  0  0  0
   -5.1580   23.5070  -29.6620 C   0  0  0  0  0  0  0  0  0  0  0  0
   -5.0390   24.4700  -30.6730 C   0  0  0  0  0  0  0  0  0  0  0  0
   -3.9340   25.3180  -30.7190 O   0  0  0  0  0  0  0  0  0  0  0  0
   -6.0410   24.5870  -31.6440 C   0  0  0  0  0  0  0  0  0  0  0  0
   -7.1610   23.7510  -31.6030 C   0  0  0  0  0  0  0  0  0  0  0  0
   -8.4130   18.9920  -32.4510 C   0  0  0  0  0  0  0  0  0  0  0  0
   -7.5740   18.0610  -33.0630 C   0  0  0  0  0  0  0  0  0  0  0  0
   -6.3190   18.4460  -33.5630 C   0  0  0  0  0  0  0  0  0  0  0  0
   -5.4630   17.4300  -34.3000 C   0  0  0  0  0  0  0  0  0  0  0  0
   -5.4340   16.0810  -33.6910 N   0  0  0  0  0  0  0  0  0  0  0  0
   -4.6090   15.0900  -34.3840 C   0  0  0  0  0  0  0  0  0  0  0  0
   -4.3250   13.9860  -33.3700 C   0  0  0  0  0  0  0  0  0  0  0  0
   -4.7260   14.5610  -32.0150 C   0  0  0  0  0  0  0  0  0  0  0  0
   -5.0340   16.0210  -32.2860 C   0  0  0  0  0  0  0  0  0  0  0  0
   -3.8385   21.0187  -32.1085 H   0  0  0  0  0  0  0  0  0  0  0  0
   -2.7168   20.9523  -33.5100 H   0  0  0  0  0  0  0  0  0  0  0  0
   -4.0864   22.1146  -33.5100 H   0  0  0  0  0  0  0  0  0  0  0  0
   -6.3834   21.7372  -32.5995 H   0  0  0  0  0  0  0  0  0  0  0  0
   -9.0261   22.1760  -32.5728 H   0  0  0  0  0  0  0  0  0  0  0  0
   -9.9588   20.8919  -31.6983 H   0  0  0  0  0  0  0  0  0  0  0  0
   -9.3580   22.6087  -30.0982 H   0  0  0  0  0  0  0  0  0  0  0  0
   -8.3500   21.1323  -29.7833 H   0  0  0  0  0  0  0  0  0  0  0  0
   -6.3680   21.9187  -28.8226 H   0  0  0  0  0  0  0  0  0  0  0  0
   -4.3699   23.4090  -28.9008 H   0  0  0  0  0  0  0  0  0  0  0  0
   -3.5470   25.6330  -31.6000 H   0  0  0  0  0  0  0  0  0  0  0  0
   -5.9468   25.3388  -32.4414 H   0  0  0  0  0  0  0  0  0  0  0  0
   -7.9465   23.8497  -32.3667 H   0  0  0  0  0  0  0  0  0  0  0  0
   -9.4016   18.6805  -32.0828 H   0  0  0  0  0  0  0  0  0  0  0  0
   -7.8985   17.0140  -33.1551 H   0  0  0  0  0  0  0  0  0  0  0  0
   -5.8521   17.3342  -35.3244 H   0  0  0  0  0  0  0  0  0  0  0  0
   -4.4311   17.8089  -34.2600 H   0  0  0  0  0  0  0  0  0  0  0  0
   -5.1507   14.6818  -35.2500 H   0  0  0  0  0  0  0  0  0  0  0  0
   -3.6771   15.5375  -34.7598 H   0  0  0  0  0  0  0  0  0  0  0  0
   -4.9221   13.0911  -33.5993 H   0  0  0  0  0  0  0  0  0  0  0  0
   -3.2684   13.6803  -33.3861 H   0  0  0  0  0  0  0  0  0  0  0  0
   -5.6145   14.0444  -31.6230 H   0  0  0  0  0  0  0  0  0  0  0  0
   -3.9335   14.4379  -31.2622 H   0  0  0  0  0  0  0  0  0  0  0  0
   -5.8524   16.3681  -31.6380 H   0  0  0  0  0  0  0  0  0  0  0  0
   -4.1671   16.6662  -32.0803 H   0  0  0  0  0  0  0  0  0  0  0  0
  1  2  1  0
  2  3  1  0
  3  4  2  0
  4  5  1  0
  5  6  1  0
  6  7  1  0
  7  8  1  0
  8  9  2  0
  9 10  1  0
 10 11  2  0
 11 12  1  0
 11 13  1  0
 13 14  2  0
  5 15  2  0
 15 16  1  0
 16 17  2  0
 17 18  1  0
 18 19  1  0
 19 20  1  0
 20 21  1  0
 21 22  1  0
 22 23  1  0
 17  3  1  0
 23 19  1  0
 14  8  1  0
  1 24  1  0
  1 25  1  0
  1 26  1  0
  4 27  1  0
  6 28  1  0
  6 29  1  0
  7 30  1  0
  7 31  1  0
  9 32  1  0
 10 33  1  0
 12 34  1  0
 13 35  1  0
 14 36  1  0
 15 37  1  0
 16 38  1  0
 18 39  1  0
 18 40  1  0
 20 41  1  0
 20 42  1  0
 21 43  1  0
 21 44  1  0
 22 45  1  0
 22 46  1  0
 23 47  1  0
 23 48  1  0
M  END
>  <UniqueID>  (37) 
35

>  <SMILES>  (37) 
COc1cc(CCc2ccc(O)cc2)ccc1CN1CCCC1

>  <Energy>  (37) 
49.4144061832349

>  <Genealogy>  (37) 
COc1cc(CCc2ccc(O)cc2)ccc1CN1CCCC1 (3D coordinates assigned)
COc1cc(CCc2ccc(O)cc2)ccc1CN1CCCC1 (nonaromatic ring conformer: 49.4144061832349 kcal/mol)

>  <smiles>  (37) 
COc1cc(CCc2ccc(O)cc2)ccc1CN1CCCC1

>  <score_type>  (37) 
oracle

>  <origin>  (37) 
adg

>  <m_score__min__energy>  (37) 
-9.4600000000000009

>  <m_primary>  (37) 
energy

$$$$
37:0
     RDKit          3D

 34 34  0  0  0  0  0  0  0  0999 V2000
   -9.5927   21.5650  -31.8100 H   0  0  0  0  0  0  0  0  0  0  0  0
   -8.5460   21.4440  -32.1260 C   0  0  0  0  0  0  0  0  0  0  0  0
   -7.8010   22.4890  -32.3080 N   0  0  0  0  0  0  0  0  0  0  0  0
   -7.6040   23.4960  -31.2720 C   0  0  0  0  0  0  0  0  0  0  0  0
   -8.4389   23.4520  -30.5571 H   0  0  0  0  0  0  0  0  0  0  0  0
   -7.5653   24.4919  -31.7375 H   0  0  0  0  0  0  0  0  0  0  0  0
   -6.2880   23.2330  -30.5330 C   0  0  0  0  0  0  0  0  0  0  0  0
   -6.1083   22.1483  -30.4987 H   0  0  0  0  0  0  0  0  0  0  0  0
   -6.3737   23.6488  -29.5182 H   0  0  0  0  0  0  0  0  0  0  0  0
   -5.1440   23.8890  -31.2080 N   0  0  0  0  0  0  0  0  0  0  0  0
   -5.0090   25.3140  -30.8070 C   0  0  0  0  0  0  0  0  0  0  0  0
   -5.1856   25.9585  -31.6808 H   0  0  0  0  0  0  0  0  0  0  0  0
   -3.9949   25.4897  -30.4188 H   0  0  0  0  0  0  0  0  0  0  0  0
   -6.0300   25.6390  -29.7220 C   0  0  0  0  0  0  0  0  0  0  0  0
   -5.5723   25.4933  -28.7324 H   0  0  0  0  0  0  0  0  0  0  0  0
   -6.3547   26.6849  -29.8255 H   0  0  0  0  0  0  0  0  0  0  0  0
   -6.8995   24.9732  -29.8255 H   0  0  0  0  0  0  0  0  0  0  0  0
   -3.8910   23.1260  -30.9880 C   0  0  0  0  0  0  0  0  0  0  0  0
   -3.0386   23.8209  -31.0129 H   0  0  0  0  0  0  0  0  0  0  0  0
   -3.9548   22.6256  -30.0105 H   0  0  0  0  0  0  0  0  0  0  0  0
   -3.6960   22.0550  -32.0710 C   0  0  0  0  0  0  0  0  0  0  0  0
   -2.7319   22.2248  -32.5727 H   0  0  0  0  0  0  0  0  0  0  0  0
   -3.7163   21.0669  -31.5881 H   0  0  0  0  0  0  0  0  0  0  0  0
   -4.7630   22.1020  -33.0650 N   0  0  0  0  0  0  0  0  0  0  0  0
   -5.6710   22.2480  -32.5650 H   0  0  0  0  0  0  0  0  0  0  0  0
   -4.6100   22.9500  -33.6570 H   0  0  0  0  0  0  0  0  0  0  0  0
   -7.9980   20.1020  -32.3400 C   0  0  0  0  0  0  0  0  0  0  0  0
   -6.8120   19.6890  -33.4640 S   0  0  0  0  0  0  0  0  0  0  0  0
   -6.7800   18.0540  -33.0770 C   0  0  0  0  0  0  0  0  0  0  0  0
   -5.6590   16.7540  -33.9040 Br  0  0  0  0  0  0  0  0  0  0  0  0
   -7.6970   17.8090  -32.0640 C   0  0  0  0  0  0  0  0  0  0  0  0
   -7.8686   16.8129  -31.6300 H   0  0  0  0  0  0  0  0  0  0  0  0
   -8.3810   18.9580  -31.6510 C   0  0  0  0  0  0  0  0  0  0  0  0
   -9.1454   18.9556  -30.8600 H   0  0  0  0  0  0  0  0  0  0  0  0
  1  2  1  0
  2  3  2  0
  3  4  1  0
  4  5  1  0
  4  6  1  0
  4  7  1  0
  7  8  1  0
  7  9  1  0
  7 10  1  0
 10 11  1  0
 11 12  1  0
 11 13  1  0
 11 14  1  0
 14 15  1  0
 14 16  1  0
 14 17  1  0
 10 18  1  0
 18 19  1  0
 18 20  1  0
 18 21  1  0
 21 22  1  0
 21 23  1  0
 21 24  1  0
 24 25  1  0
 24 26  1  0
  2 27  1  0
 27 28  1  0
 28 29  1  0
 29 30  1  0
 29 31  2  0
 31 32  1  0
 31 33  1  0
 33 34  1  0
 33 27  2  0
M  END
>  <UniqueID>  (38) 
36

>  <SMILES>  (38) 
CCN(CCN)CC/N=C/c1ccc(Br)s1

>  <Energy>  (38) 
52.27961432520155

>  <Genealogy>  (38) 
CCN(CCN)CC/N=C/c1ccc(Br)s1 (cis-trans isomerization)
CCN(CCN)CC/N=C/c1ccc(Br)s1 (3D coordinates assigned)
CCN(CCN)CC/N=C/c1ccc(Br)s1 (optimized conformer: 52.27961432520155 kcal/mol)

>  <smiles>  (38) 
CCN(CCN)CCN=Cc1ccc(Br)s1

>  <score_type>  (38) 
oracle

>  <origin>  (38) 
adg

>  <m_score__min__energy>  (38) 
-6.7000000000000002

>  <m_primary>  (38) 
energy

$$$$
38:0
     RDKit          3D

 38 39  0  0  0  0  0  0  0  0999 V2000
   -5.3160   16.7660  -34.2400 C   0  0  0  0  0  0  0  0  0  0  0  0
   -5.5980   18.1890  -34.7340 C   0  0  0  0  0  0  0  0  0  0  0  0
   -6.4860   18.9340  -33.8180 N   0  0  0  0  0  0  0  0  0  0  0  0
   -6.8790   18.1560  -32.6260 C   0  0  0  0  0  0  0  0  0  0  0  0
   -8.3870   18.2680  -32.3330 C   0  0  0  0  0  0  0  0  0  0  0  0
   -8.8720   19.7200  -32.2530 C   0  0  0  0  0  0  0  0  0  0  0  0
   -7.8960   20.6230  -32.7810 O   0  0  0  0  0  0  0  0  0  0  0  0
   -7.3650   21.7550  -32.1370 C   0  0  0  0  0  0  0  0  0  0  0  0
   -8.1690   22.7560  -31.5550 C   0  0  0  0  0  0  0  0  0  0  0  0
   -7.5820   23.8580  -30.9290 C   0  0  0  0  0  0  0  0  0  0  0  0
   -6.1930   23.9770  -30.8680 C   0  0  0  0  0  0  0  0  0  0  0  0
   -5.3800   22.9890  -31.4420 C   0  0  0  0  0  0  0  0  0  0  0  0
   -5.9700   21.8900  -32.0920 C   0  0  0  0  0  0  0  0  0  0  0  0
   -5.1570   20.9160  -32.6880 O   0  0  0  0  0  0  0  0  0  0  0  0
   -3.7750   21.1540  -32.9670 C   0  0  0  0  0  0  0  0  0  0  0  0
   -3.0940   21.8590  -31.7890 C   0  0  0  0  0  0  0  0  0  0  0  0
   -3.9060   23.0440  -31.3510 C   0  0  0  0  0  0  0  0  0  0  0  0
   -3.3270   24.0480  -30.8540 O   0  0  0  0  0  0  0  0  0  0  0  0
   -5.3135   16.7535  -33.1401 H   0  0  0  0  0  0  0  0  0  0  0  0
   -6.0970   16.0870  -34.6127 H   0  0  0  0  0  0  0  0  0  0  0  0
   -4.3350   16.4362  -34.6127 H   0  0  0  0  0  0  0  0  0  0  0  0
   -4.6438   18.7296  -34.8194 H   0  0  0  0  0  0  0  0  0  0  0  0
   -6.1049   18.1134  -35.7073 H   0  0  0  0  0  0  0  0  0  0  0  0
   -6.0040   19.8140  -33.5210 H   0  0  0  0  0  0  0  0  0  0  0  0
   -7.3510   19.2260  -34.3320 H   0  0  0  0  0  0  0  0  0  0  0  0
   -6.6278   17.0983  -32.7940 H   0  0  0  0  0  0  0  0  0  0  0  0
   -6.3345   18.5627  -31.7611 H   0  0  0  0  0  0  0  0  0  0  0  0
   -8.9395   17.7569  -33.1352 H   0  0  0  0  0  0  0  0  0  0  0  0
   -8.5684   17.8044  -31.3521 H   0  0  0  0  0  0  0  0  0  0  0  0
   -9.8024   19.8196  -32.8313 H   0  0  0  0  0  0  0  0  0  0  0  0
   -9.0425   19.9718  -31.1959 H   0  0  0  0  0  0  0  0  0  0  0  0
   -9.2648   22.6687  -31.5941 H   0  0  0  0  0  0  0  0  0  0  0  0
   -8.2180   24.6361  -30.4817 H   0  0  0  0  0  0  0  0  0  0  0  0
   -5.7362   24.8450  -30.3701 H   0  0  0  0  0  0  0  0  0  0  0  0
   -3.2735   20.1922  -33.1501 H   0  0  0  0  0  0  0  0  0  0  0  0
   -3.7013   21.8001  -33.8542 H   0  0  0  0  0  0  0  0  0  0  0  0
   -2.9990   21.1541  -30.9499 H   0  0  0  0  0  0  0  0  0  0  0  0
   -2.0987   22.2044  -32.1055 H   0  0  0  0  0  0  0  0  0  0  0  0
  1  2  1  0
  2  3  1  0
  3  4  1  0
  4  5  1  0
  5  6  1  0
  6  7  1  0
  7  8  1  0
  8  9  2  0
  9 10  1  0
 10 11  2  0
 11 12  1  0
 12 13  2  0
 13 14  1  0
 14 15  1  0
 15 16  1  0
 16 17  1  0
 17 18  2  0
 13  8  1  0
 17 12  1  0
  1 19  1  0
  1 20  1  0
  1 21  1  0
  2 22  1  0
  2 23  1  0
  3 24  1  0
  3 25  1  0
  4 26  1  0
  4 27  1  0
  5 28  1  0
  5 29  1  0
  6 30  1  0
  6 31  1  0
  9 32  1  0
 10 33  1  0
 11 34  1  0
 15 35  1  0
 15 36  1  0
 16 37  1  0
 16 38  1  0
M  CHG  1   3   1
M  END
>  <UniqueID>  (39) 
37

>  <SMILES>  (39) 
CC[NH2+]CCCOc1cccc2c1OCCC2=O

>  <Energy>  (39) 
36.16926426785937

>  <Genealogy>  (39) 
CC[NH2+]CCCOc1cccc2c1OCCC2=O (protonated)
CC[NH2+]CCCOc1cccc2c1OCCC2=O (3D coordinates assigned)
CC[NH2+]CCCOc1cccc2c1OCCC2=O (nonaromatic ring conformer: 36.16926426785937 kcal/mol)

>  <smiles>  (39) 
CCNCCCOc1cccc2c1OCCC2=O

>  <score_type>  (39) 
oracle

>  <origin>  (39) 
adg

>  <m_score__min__energy>  (39) 
-5.4299999999999997

>  <m_primary>  (39) 
energy

$$$$
39:0
     RDKit          3D

 44 45  0  0  0  0  0  0  0  0999 V2000
   -2.3420   19.5420  -26.7760 C   0  0  0  0  0  0  0  0  0  0  0  0
   -2.1880   20.4190  -27.9480 N   0  0  0  0  0  0  0  0  0  0  0  0
   -3.2010   21.4840  -27.9730 C   0  0  0  0  0  0  0  0  0  0  0  0
   -0.8040   20.8950  -28.1810 C   0  0  0  0  0  0  0  0  0  0  0  0
   -0.6390   22.0820  -29.1630 C   0  0  0  0  0  0  0  0  0  0  0  0
    0.2020   23.2480  -28.6000 C   0  0  0  0  0  0  0  0  0  0  0  0
   -0.3330   24.5680  -28.9800 N   0  0  0  0  0  0  0  0  0  0  0  0
   -1.2530   25.1230  -27.9780 C   0  0  0  0  0  0  0  0  0  0  0  0
   -2.6740   24.8690  -28.3950 C   0  0  0  0  0  0  0  0  0  0  0  0
   -3.5000   24.4820  -27.5280 O   0  0  0  0  0  0  0  0  0  0  0  0
   -3.0880   24.9250  -29.7680 N   0  0  0  0  0  0  0  0  0  0  0  0
   -4.3500   24.4890  -30.2910 C   0  0  0  0  0  0  0  0  0  0  0  0
   -5.5280   25.1830  -29.9700 C   0  0  0  0  0  0  0  0  0  0  0  0
   -6.7630   24.7470  -30.4510 C   0  0  0  0  0  0  0  0  0  0  0  0
   -6.8450   23.6050  -31.2480 C   0  0  0  0  0  0  0  0  0  0  0  0
   -5.6860   22.8820  -31.5630 C   0  0  0  0  0  0  0  0  0  0  0  0
   -5.7640   21.7430  -32.3780 C   0  0  0  0  0  0  0  0  0  0  0  0
   -4.6040   21.0360  -32.7180 C   0  0  0  0  0  0  0  0  0  0  0  0
   -4.6740   19.9170  -33.5430 O   0  0  0  0  0  0  0  0  0  0  0  0
   -3.3650   21.4580  -32.2310 C   0  0  0  0  0  0  0  0  0  0  0  0
   -3.2720   22.5870  -31.4130 C   0  0  0  0  0  0  0  0  0  0  0  0
   -4.4270   23.3170  -31.0730 C   0  0  0  0  0  0  0  0  0  0  0  0
   -2.2375   20.1369  -25.8566 H   0  0  0  0  0  0  0  0  0  0  0  0
   -3.3364   19.0722  -26.7977 H   0  0  0  0  0  0  0  0  0  0  0  0
   -1.5672   18.7615  -26.7977 H   0  0  0  0  0  0  0  0  0  0  0  0
   -3.4658   21.7624  -26.9423 H   0  0  0  0  0  0  0  0  0  0  0  0
   -2.7968   22.3622  -28.4977 H   0  0  0  0  0  0  0  0  0  0  0  0
   -4.0984   21.1243  -28.4977 H   0  0  0  0  0  0  0  0  0  0  0  0
   -0.3886   21.2036  -27.2104 H   0  0  0  0  0  0  0  0  0  0  0  0
   -0.2806   20.0506  -28.6533 H   0  0  0  0  0  0  0  0  0  0  0  0
   -0.1494   21.7110  -30.0755 H   0  0  0  0  0  0  0  0  0  0  0  0
   -1.6465   22.4792  -29.3557 H   0  0  0  0  0  0  0  0  0  0  0  0
    0.2144   23.1756  -27.5025 H   0  0  0  0  0  0  0  0  0  0  0  0
    1.2137   23.1640  -29.0236 H   0  0  0  0  0  0  0  0  0  0  0  0
   -0.8230   24.5050  -29.9040 H   0  0  0  0  0  0  0  0  0  0  0  0
   -1.0665   24.6433  -27.0058 H   0  0  0  0  0  0  0  0  0  0  0  0
   -1.0875   26.2073  -27.8944 H   0  0  0  0  0  0  0  0  0  0  0  0
   -5.4765   26.0786  -29.3334 H   0  0  0  0  0  0  0  0  0  0  0  0
   -7.6764   25.3064  -30.2006 H   0  0  0  0  0  0  0  0  0  0  0  0
   -7.8210   23.2712  -31.6300 H   0  0  0  0  0  0  0  0  0  0  0  0
   -6.7412   21.4035  -32.7519 H   0  0  0  0  0  0  0  0  0  0  0  0
   -5.1930   19.0890  -33.2730 H   0  0  0  0  0  0  0  0  0  0  0  0
   -2.4556   20.8975  -32.4933 H   0  0  0  0  0  0  0  0  0  0  0  0
   -2.2909   22.9073  -31.0325 H   0  0  0  0  0  0  0  0  0  0  0  0
  1  2  1  0
  2  3  1  0
  2  4  1  0
  4  5  1  0
  5  6  1  0
  6  7  1  0
  7  8  1  0
  8  9  1  0
  9 10  2  0
  9 11  1  0
 11 12  1  0
 12 13  2  0
 13 14  1  0
 14 15  2  0
 15 16  1  0
 16 17  2  0
 17 18  1  0
 18 19  1  0
 18 20  2  0
 20 21  1  0
 21 22  2  0
 22 12  1  0
 22 16  1  0
  1 23  1  0
  1 24  1  0
  1 25  1  0
  3 26  1  0
  3 27  1  0
  3 28  1  0
  4 29  1  0
  4 30  1  0
  5 31  1  0
  5 32  1  0
  6 33  1  0
  6 34  1  0
  7 35  1  0
  8 36  1  0
  8 37  1  0
 13 38  1  0
 14 39  1  0
 15 40  1  0
 17 41  1  0
 19 42  1  0
 20 43  1  0
 21 44  1  0
M  CHG  1  11  -1
M  END
>  <UniqueID>  (40) 
38

>  <SMILES>  (40) 
CN(C)CCCNCC(=O)[N-]c1cccc2cc(O)ccc12

>  <Energy>  (40) 
53.01985132585942

>  <Genealogy>  (40) 
CN(C)CCCNCC(=O)[N-]c1cccc2cc(O)ccc12 (protonated)
CN(C)CCCNCC(=O)[N-]c1cccc2cc(O)ccc12 (3D coordinates assigned)
CN(C)CCCNCC(=O)[N-]c1cccc2cc(O)ccc12 (optimized conformer: 53.01985132585942 kcal/mol)

>  <smiles>  (40) 
CN(C)CCCNCC(=O)Nc1cccc2cc(O)ccc12

>  <score_type>  (40) 
oracle

>  <origin>  (40) 
adg

>  <m_score__min__energy>  (40) 
-8.7599999999999998

>  <m_primary>  (40) 
energy

$$$$
40:0
     RDKit          3D

 49 51  0  0  0  0  0  0  0  0999 V2000
   -7.9680   19.6560  -31.6610 C   0  0  0  0  0  0  0  0  0  0  0  0
   -7.8140   20.9450  -32.3520 N   0  0  0  0  0  0  0  0  0  0  0  0
   -8.5090   22.0180  -31.6040 C   0  0  0  0  0  0  0  0  0  0  0  0
   -7.9500   23.4020  -31.9660 C   0  0  0  0  0  0  0  0  0  0  0  0
   -6.5100   23.5310  -31.6260 N   0  0  0  0  0  0  0  0  0  0  0  0
   -6.3160   24.2620  -30.3550 C   0  0  0  0  0  0  0  0  0  0  0  0
   -5.1970   25.2650  -30.4830 C   0  0  0  0  0  0  0  0  0  0  0  0
   -5.4760   26.4920  -30.4680 O   0  0  0  0  0  0  0  0  0  0  0  0
   -3.8480   24.8680  -30.7640 N   0  0  0  0  0  0  0  0  0  0  0  0
   -3.1200   23.8310  -30.0960 C   0  0  0  0  0  0  0  0  0  0  0  0
   -2.8370   23.9080  -28.7240 C   0  0  0  0  0  0  0  0  0  0  0  0
   -2.1050   22.8950  -28.1000 C   0  0  0  0  0  0  0  0  0  0  0  0
   -1.6380   21.7910  -28.8370 C   0  0  0  0  0  0  0  0  0  0  0  0
   -0.8680   20.7250  -28.1550 C   0  0  0  0  0  0  0  0  0  0  0  0
   -1.1530   20.4350  -26.9610 O   0  0  0  0  0  0  0  0  0  0  0  0
    0.1950   20.0260  -28.8310 N   0  0  0  0  0  0  0  0  0  0  0  0
    0.8840   18.8870  -28.2840 C   0  0  0  0  0  0  0  0  0  0  0  0
    2.2690   18.9150  -28.0360 C   0  0  0  0  0  0  0  0  0  0  0  0
    2.9050   17.8050  -27.4710 C   0  0  0  0  0  0  0  0  0  0  0  0
    2.1670   16.6680  -27.1360 C   0  0  0  0  0  0  0  0  0  0  0  0
    2.7870   15.5940  -26.5860 F   0  0  0  0  0  0  0  0  0  0  0  0
    0.7870   16.6400  -27.3590 C   0  0  0  0  0  0  0  0  0  0  0  0
    0.1470   17.7480  -27.9240 C   0  0  0  0  0  0  0  0  0  0  0  0
   -1.8870   21.7450  -30.2210 C   0  0  0  0  0  0  0  0  0  0  0  0
   -2.6160   22.7630  -30.8430 C   0  0  0  0  0  0  0  0  0  0  0  0
   -5.7930   22.2300  -31.6130 C   0  0  0  0  0  0  0  0  0  0  0  0
   -6.3870   21.2450  -32.6300 C   0  0  0  0  0  0  0  0  0  0  0  0
   -7.9486   19.8185  -30.5732 H   0  0  0  0  0  0  0  0  0  0  0  0
   -8.9271   19.1992  -31.9465 H   0  0  0  0  0  0  0  0  0  0  0  0
   -7.1435   18.9861  -31.9465 H   0  0  0  0  0  0  0  0  0  0  0  0
   -9.5810   21.9892  -31.8489 H   0  0  0  0  0  0  0  0  0  0  0  0
   -8.3512   21.8500  -30.5284 H   0  0  0  0  0  0  0  0  0  0  0  0
   -8.0747   23.5629  -33.0470 H   0  0  0  0  0  0  0  0  0  0  0  0
   -8.5035   24.1531  -31.3834 H   0  0  0  0  0  0  0  0  0  0  0  0
   -7.2459   24.7894  -30.0961 H   0  0  0  0  0  0  0  0  0  0  0  0
   -6.0554   23.5396  -29.5675 H   0  0  0  0  0  0  0  0  0  0  0  0
   -3.1925   24.7684  -28.1381 H   0  0  0  0  0  0  0  0  0  0  0  0
   -1.8917   22.9609  -27.0229 H   0  0  0  0  0  0  0  0  0  0  0  0
    0.5240   20.3740  -29.7580 H   0  0  0  0  0  0  0  0  0  0  0  0
    2.8530   19.8126  -28.2873 H   0  0  0  0  0  0  0  0  0  0  0  0
    3.9898   17.8277  -27.2900 H   0  0  0  0  0  0  0  0  0  0  0  0
    0.2045   15.7465  -27.0901 H   0  0  0  0  0  0  0  0  0  0  0  0
   -0.9406   17.7266  -28.0872 H   0  0  0  0  0  0  0  0  0  0  0  0
   -1.5058   20.9029  -30.8173 H   0  0  0  0  0  0  0  0  0  0  0  0
   -2.7940   22.7230  -31.9278 H   0  0  0  0  0  0  0  0  0  0  0  0
   -4.7352   22.4033  -31.8602 H   0  0  0  0  0  0  0  0  0  0  0  0
   -5.8961   21.7912  -30.6096 H   0  0  0  0  0  0  0  0  0  0  0  0
   -6.3064   21.6827  -33.6359 H   0  0  0  0  0  0  0  0  0  0  0  0
   -5.8234   20.3032  -32.5571 H   0  0  0  0  0  0  0  0  0  0  0  0
  1  2  1  0
  2  3  1  0
  3  4  1  0
  4  5  1  0
  5  6  1  0
  6  7  1  0
  7  8  2  0
  7  9  1  0
  9 10  1  0
 10 11  2  0
 11 12  1  0
 12 13  2  0
 13 14  1  0
 14 15  2  0
 14 16  1  0
 16 17  1  0
 17 18  2  0
 18 19  1  0
 19 20  2  0
 20 21  1  0
 20 22  1  0
 22 23  2  0
 13 24  1  0
 24 25  2  0
  5 26  1  0
 26 27  1  0
 27  2  1  0
 25 10  1  0
 23 17  1  0
  1 28  1  0
  1 29  1  0
  1 30  1  0
  3 31  1  0
  3 32  1  0
  4 33  1  0
  4 34  1  0
  6 35  1  0
  6 36  1  0
 11 37  1  0
 12 38  1  0
 16 39  1  0
 18 40  1  0
 19 41  1  0
 22 42  1  0
 23 43  1  0
 24 44  1  0
 25 45  1  0
 26 46  1  0
 26 47  1  0
 27 48  1  0
 27 49  1  0
M  CHG  1   9  -1
M  END
>  <UniqueID>  (41) 
39

>  <SMILES>  (41) 
CN1CCN(CC(=O)[N-]c2ccc(C(=O)Nc3ccc(F)cc3)cc2)CC1

>  <Energy>  (41) 
74.10025867174424

>  <Genealogy>  (41) 
CN1CCN(CC(=O)[N-]c2ccc(C(=O)Nc3ccc(F)cc3)cc2)CC1 (protonated)
CN1CCN(CC(=O)[N-]c2ccc(C(=O)Nc3ccc(F)cc3)cc2)CC1 (3D coordinates assigned)
CN1CCN(CC(=O)[N-]c2ccc(C(=O)Nc3ccc(F)cc3)cc2)CC1 (nonaromatic ring conformer: 74.10025867174424 kcal/mol)

>  <smiles>  (41) 
CN1CCN(CC(=O)Nc2ccc(C(=O)Nc3ccc(F)cc3)cc2)CC1

>  <score_type>  (41) 
oracle

>  <origin>  (41) 
adg

>  <m_score__min__energy>  (41) 
-9.2699999999999996

>  <m_primary>  (41) 
energy

$$$$
41:0
     RDKit          3D

 36 37  0  0  0  0  0  0  0  0999 V2000
  -10.1560   21.1720  -31.9680 C   0  0  0  0  0  0  0  0  0  0  0  0
   -9.2160   21.5220  -31.2990 C   0  0  0  0  0  0  0  0  0  0  0  0
   -8.0700   21.9470  -30.4880 C   0  0  0  0  0  0  0  0  0  0  0  0
   -6.9200   22.2360  -31.3550 N   0  0  0  0  0  0  0  0  0  0  0  0
   -6.8470   21.6670  -32.7070 C   0  0  0  0  0  0  0  0  0  0  0  0
   -6.4930   20.2080  -32.6310 C   0  0  0  0  0  0  0  0  0  0  0  0
   -5.1500   19.8030  -32.7090 C   0  0  0  0  0  0  0  0  0  0  0  0
   -4.8220   18.4450  -32.6900 C   0  0  0  0  0  0  0  0  0  0  0  0
   -5.8310   17.4820  -32.6050 C   0  0  0  0  0  0  0  0  0  0  0  0
   -7.1700   17.8760  -32.5420 C   0  0  0  0  0  0  0  0  0  0  0  0
   -7.5030   19.2340  -32.5600 C   0  0  0  0  0  0  0  0  0  0  0  0
   -5.8240   23.0270  -30.8570 C   0  0  0  0  0  0  0  0  0  0  0  0
   -5.9500   24.4190  -30.7320 C   0  0  0  0  0  0  0  0  0  0  0  0
   -4.8910   25.1830  -30.2310 C   0  0  0  0  0  0  0  0  0  0  0  0
   -3.6880   24.5630  -29.8490 C   0  0  0  0  0  0  0  0  0  0  0  0
   -2.5960   25.2850  -29.3420 O   0  0  0  0  0  0  0  0  0  0  0  0
   -1.8870   24.9420  -28.1560 C   0  0  0  0  0  0  0  0  0  0  0  0
   -3.5650   23.1740  -29.9750 C   0  0  0  0  0  0  0  0  0  0  0  0
   -4.6240   22.4100  -30.4740 C   0  0  0  0  0  0  0  0  0  0  0  0
  -11.0136   20.8527  -32.5784 H   0  0  0  0  0  0  0  0  0  0  0  0
   -8.3383   22.8530  -29.9249 H   0  0  0  0  0  0  0  0  0  0  0  0
   -7.8022   21.1396  -29.7905 H   0  0  0  0  0  0  0  0  0  0  0  0
   -7.8222   21.7801  -33.2032 H   0  0  0  0  0  0  0  0  0  0  0  0
   -6.0731   22.1974  -33.2813 H   0  0  0  0  0  0  0  0  0  0  0  0
   -4.3536   20.5580  -32.7853 H   0  0  0  0  0  0  0  0  0  0  0  0
   -3.7683   18.1336  -32.7420 H   0  0  0  0  0  0  0  0  0  0  0  0
   -5.5710   16.4133  -32.5877 H   0  0  0  0  0  0  0  0  0  0  0  0
   -7.9634   17.1168  -32.4781 H   0  0  0  0  0  0  0  0  0  0  0  0
   -8.5586   19.5405  -32.5185 H   0  0  0  0  0  0  0  0  0  0  0  0
   -6.8871   24.9122  -31.0298 H   0  0  0  0  0  0  0  0  0  0  0  0
   -4.9996   26.2734  -30.1354 H   0  0  0  0  0  0  0  0  0  0  0  0
   -2.4821   25.2299  -27.2768 H   0  0  0  0  0  0  0  0  0  0  0  0
   -1.7067   23.8570  -28.1374 H   0  0  0  0  0  0  0  0  0  0  0  0
   -0.9244   25.4740  -28.1374 H   0  0  0  0  0  0  0  0  0  0  0  0
   -2.6278   22.6801  -29.6790 H   0  0  0  0  0  0  0  0  0  0  0  0
   -4.5157   21.3193  -30.5668 H   0  0  0  0  0  0  0  0  0  0  0  0
  1  2  3  0
  2  3  1  0
  3  4  1  0
  4  5  1  0
  5  6  1  0
  6  7  2  0
  7  8  1  0
  8  9  2  0
  9 10  1  0
 10 11  2  0
  4 12  1  0
 12 13  2  0
 13 14  1  0
 14 15  2  0
 15 16  1  0
 16 17  1  0
 15 18  1  0
 18 19  2  0
 11  6  1  0
 19 12  1  0
  1 20  1  0
  3 21  1  0
  3 22  1  0
  5 23  1  0
  5 24  1  0
  7 25  1  0
  8 26  1  0
  9 27  1  0
 10 28  1  0
 11 29  1  0
 13 30  1  0
 14 31  1  0
 17 32  1  0
 17 33  1  0
 17 34  1  0
 18 35  1  0
 19 36  1  0
M  END
>  <UniqueID>  (42) 
40

>  <SMILES>  (42) 
C#CCN(Cc1ccccc1)c1ccc(OC)cc1

>  <Energy>  (42) 
34.868309806617134

>  <Genealogy>  (42) 
C#CCN(Cc1ccccc1)c1ccc(OC)cc1 (3D coordinates assigned)
C#CCN(Cc1ccccc1)c1ccc(OC)cc1 (optimized conformer: 34.868309806617134 kcal/mol)

>  <smiles>  (42) 
C#CCN(Cc1ccccc1)c1ccc(OC)cc1

>  <score_type>  (42) 
oracle

>  <origin>  (42) 
adg

>  <m_score__min__energy>  (42) 
-6.9199999999999999

>  <m_primary>  (42) 
energy

$$$$
42:0
     RDKit          3D

 45 48  0  0  0  0  0  0  0  0999 V2000
   -6.3660   16.0890  -33.8350 C   0  0  0  0  0  0  0  0  0  0  0  0
   -6.8470   17.4250  -33.9170 O   0  0  0  0  0  0  0  0  0  0  0  0
   -6.1000   18.5530  -33.5480 C   0  0  0  0  0  0  0  0  0  0  0  0
   -4.7350   18.7220  -33.8860 C   0  0  0  0  0  0  0  0  0  0  0  0
   -4.0400   19.8750  -33.4550 C   0  0  0  0  0  0  0  0  0  0  0  0
   -4.6740   20.8400  -32.7220 N   0  0  0  0  0  0  0  0  0  0  0  0
   -5.9940   20.6850  -32.4350 C   0  0  0  0  0  0  0  0  0  0  0  0
   -6.6930   19.5740  -32.8090 C   0  0  0  0  0  0  0  0  0  0  0  0
   -7.9490   19.7440  -32.2560 C   0  0  0  0  0  0  0  0  0  0  0  0
   -9.1000   18.7970  -32.3340 C   0  0  0  0  0  0  0  0  0  0  0  0
   -7.9740   20.9160  -31.5760 N   0  0  0  0  0  0  0  0  0  0  0  0
   -6.7820   21.4930  -31.6950 N   0  0  0  0  0  0  0  0  0  0  0  0
   -6.4570   22.7650  -31.1120 C   0  0  0  0  0  0  0  0  0  0  0  0
   -7.4810   23.6080  -30.6590 C   0  0  0  0  0  0  0  0  0  0  0  0
   -7.1780   24.8630  -30.1280 C   0  0  0  0  0  0  0  0  0  0  0  0
   -5.8500   25.2880  -30.0490 C   0  0  0  0  0  0  0  0  0  0  0  0
   -4.8120   24.4600  -30.4930 C   0  0  0  0  0  0  0  0  0  0  0  0
   -3.4640   24.9460  -30.4230 N   0  0  0  0  0  0  0  0  0  0  0  0
   -2.5310   24.7180  -29.3570 C   0  0  0  0  0  0  0  0  0  0  0  0
   -1.7870   25.6550  -28.9570 O   0  0  0  0  0  0  0  0  0  0  0  0
   -2.4020   23.3680  -28.7610 C   0  0  0  0  0  0  0  0  0  0  0  0
   -3.4730   22.7970  -28.0480 C   0  0  0  0  0  0  0  0  0  0  0  0
   -3.3520   21.5220  -27.4870 C   0  0  0  0  0  0  0  0  0  0  0  0
   -2.1640   20.8020  -27.6300 C   0  0  0  0  0  0  0  0  0  0  0  0
   -2.0150   19.2020  -26.9250 Cl  0  0  0  0  0  0  0  0  0  0  0  0
   -1.0940   21.3580  -28.3360 C   0  0  0  0  0  0  0  0  0  0  0  0
   -1.2100   22.6330  -28.8990 C   0  0  0  0  0  0  0  0  0  0  0  0
   -5.1240   23.2080  -31.0540 C   0  0  0  0  0  0  0  0  0  0  0  0
   -6.2623   15.8008  -32.7785 H   0  0  0  0  0  0  0  0  0  0  0  0
   -7.0769   15.4122  -34.3315 H   0  0  0  0  0  0  0  0  0  0  0  0
   -5.3868   16.0207  -34.3315 H   0  0  0  0  0  0  0  0  0  0  0  0
   -4.2165   17.9572  -34.4829 H   0  0  0  0  0  0  0  0  0  0  0  0
   -2.9775   19.9974  -33.7120 H   0  0  0  0  0  0  0  0  0  0  0  0
   -4.1320   21.6620  -32.3780 H   0  0  0  0  0  0  0  0  0  0  0  0
   -9.4246   18.5299  -31.3175 H   0  0  0  0  0  0  0  0  0  0  0  0
   -9.9325   19.2751  -32.8710 H   0  0  0  0  0  0  0  0  0  0  0  0
   -8.7912   17.8880  -32.8710 H   0  0  0  0  0  0  0  0  0  0  0  0
   -8.5288   23.2790  -30.7222 H   0  0  0  0  0  0  0  0  0  0  0  0
   -7.9864   25.5181  -29.7713 H   0  0  0  0  0  0  0  0  0  0  0  0
   -5.6179   26.2803  -29.6350 H   0  0  0  0  0  0  0  0  0  0  0  0
   -4.4120   23.3580  -27.9313 H   0  0  0  0  0  0  0  0  0  0  0  0
   -4.1948   21.0849  -26.9315 H   0  0  0  0  0  0  0  0  0  0  0  0
   -0.1580   20.7914  -28.4493 H   0  0  0  0  0  0  0  0  0  0  0  0
   -0.3635   23.0642  -29.4535 H   0  0  0  0  0  0  0  0  0  0  0  0
   -4.3192   22.5712  -31.4500 H   0  0  0  0  0  0  0  0  0  0  0  0
  1  2  1  0
  2  3  1  0
  3  4  2  0
  4  5  1  0
  5  6  2  0
  6  7  1  0
  7  8  2  0
  8  9  1  0
  9 10  1  0
  9 11  2  0
 11 12  1  0
 12 13  1  0
 13 14  2  0
 14 15  1  0
 15 16  2  0
 16 17  1  0
 17 18  1  0
 18 19  1  0
 19 20  2  0
 19 21  1  0
 21 22  2  0
 22 23  1  0
 23 24  2  0
 24 25  1  0
 24 26  1  0
 26 27  2  0
 17 28  2  0
  8  3  1  0
 28 13  1  0
 12  7  1  0
 27 21  1  0
  1 29  1  0
  1 30  1  0
  1 31  1  0
  4 32  1  0
  5 33  1  0
  6 34  1  0
 10 35  1  0
 10 36  1  0
 10 37  1  0
 14 38  1  0
 15 39  1  0
 16 40  1  0
 22 41  1  0
 23 42  1  0
 26 43  1  0
 27 44  1  0
 28 45  1  0
M  CHG  2   6   1  18  -1
M  END
>  <UniqueID>  (43) 
41

>  <SMILES>  (43) 
COc1cc[nH+]c2c1c(C)nn2-c1cccc([N-]C(=O)c2ccc(Cl)cc2)c1

>  <Energy>  (43) 
97.28778843951093

>  <Genealogy>  (43) 
COc1cc[nH+]c2c1c(C)nn2-c1cccc([N-]C(=O)c2ccc(Cl)cc2)c1 (protonated)
COc1cc[nH+]c2c1c(C)nn2-c1cccc([N-]C(=O)c2ccc(Cl)cc2)c1 (3D coordinates assigned)
COc1cc[nH+]c2c1c(C)nn2-c1cccc([N-]C(=O)c2ccc(Cl)cc2)c1 (optimized conformer: 97.28778843951093 kcal/mol)

>  <smiles>  (43) 
COc1ccnc2c1c(C)nn2-c1cccc(NC(=O)c2ccc(Cl)cc2)c1

>  <score_type>  (43) 
oracle

>  <origin>  (43) 
adg

>  <m_score__min__energy>  (43) 
-11.25

>  <m_primary>  (43) 
energy

$$$$
43:0
     RDKit          3D

 50 52  0  0  1  0  0  0  0  0999 V2000
   -6.1850   17.0570  -32.7410 C   0  0  0  0  0  0  0  0  0  0  0  0
   -6.0110   18.5230  -32.8110 C   0  0  0  0  0  0  0  0  0  0  0  0
   -7.0980   19.3290  -32.5620 C   0  0  0  0  0  0  0  0  0  0  0  0
   -6.9290   20.6920  -32.6260 C   0  0  0  0  0  0  0  0  0  0  0  0
   -7.9000   21.4680  -32.4030 N   0  0  0  0  0  0  0  0  0  0  0  0
   -7.8080   23.1350  -32.0810 S   0  0  0  0  0  0  0  0  0  0  0  0
   -9.1450   23.8080  -31.9350 O   0  0  0  0  0  0  0  0  0  0  0  0
   -7.2160   23.7610  -33.3490 O   0  0  0  0  0  0  0  0  0  0  0  0
   -6.7280   23.5860  -30.8070 C   0  0  0  0  0  0  0  0  0  0  0  0
   -6.6690   24.8690  -30.2670 C   0  0  0  0  0  0  0  0  0  0  0  0
   -5.8040   25.2040  -29.2490 C   0  0  0  0  0  0  0  0  0  0  0  0
   -4.9640   24.2480  -28.7380 C   0  0  0  0  0  0  0  0  0  0  0  0
   -4.0340   24.5020  -27.6840 N   0  0  0  0  0  0  0  0  0  0  0  0
   -2.7200   24.8740  -28.0720 C   0  0  0  0  0  0  0  0  0  0  0  0
   -2.5170   24.9400  -29.3330 O   0  0  0  0  0  0  0  0  0  0  0  0
   -1.6640   25.1650  -27.1320 C   0  0  0  0  0  0  0  0  0  0  0  0
   -1.9120   25.7610  -25.9120 C   0  0  0  0  0  0  0  0  0  0  0  0
   -0.8880   26.0330  -25.0190 C   0  0  0  0  0  0  0  0  0  0  0  0
    0.4160   25.6930  -25.3730 C   0  0  0  0  0  0  0  0  0  0  0  0
    1.5170   25.9780  -24.4290 C   0  0  0  0  0  0  0  0  0  0  0  0
    0.6930   25.0970  -26.5840 C   0  0  0  0  0  0  0  0  0  0  0  0
    2.0020   24.7310  -26.9920 N   0  0  0  0  0  0  0  0  0  0  0  0
    2.3490   24.9100  -28.1730 O   0  0  0  0  0  0  0  0  0  0  0  0
    2.9340   24.1790  -26.1450 O   0  0  0  0  0  0  0  0  0  0  0  0
   -0.3690   24.8400  -27.4530 C   0  0  0  0  0  0  0  0  0  0  0  0
   -4.9810   22.9520  -29.2400 C   0  0  0  0  0  0  0  0  0  0  0  0
   -5.8630   22.6640  -30.2580 C   0  0  0  0  0  0  0  0  0  0  0  0
   -5.7310   21.2250  -32.9260 N   0  0  0  0  0  0  0  0  0  0  0  0
   -4.6630   20.4290  -33.1720 C   0  0  0  0  0  0  0  0  0  0  0  0
   -3.3200   21.0110  -33.5070 C   0  0  0  0  0  0  0  0  0  0  0  0
   -4.8150   19.0940  -33.1110 N   0  0  0  0  0  0  0  0  0  0  0  0
   -6.2224   16.7421  -31.6877 H   0  0  0  0  0  0  0  0  0  0  0  0
   -7.1229   16.7748  -33.2416 H   0  0  0  0  0  0  0  0  0  0  0  0
   -5.3392   16.5630  -33.2416 H   0  0  0  0  0  0  0  0  0  0  0  0
   -8.0782   18.8936  -32.3177 H   0  0  0  0  0  0  0  0  0  0  0  0
   -7.3386   25.6437  -30.6689 H   0  0  0  0  0  0  0  0  0  0  0  0
   -5.7871   26.2288  -28.8496 H   0  0  0  0  0  0  0  0  0  0  0  0
   -4.2830   24.4250  -26.6880 H   0  0  0  0  0  0  0  0  0  0  0  0
   -2.9451   26.0258  -25.6427 H   0  0  0  0  0  0  0  0  0  0  0  0
   -1.1004   26.5079  -24.0498 H   0  0  0  0  0  0  0  0  0  0  0  0
    1.1489   25.8827  -23.3968 H   0  0  0  0  0  0  0  0  0  0  0  0
    2.3358   25.2622  -24.5938 H   0  0  0  0  0  0  0  0  0  0  0  0
    1.8857   27.0012  -24.5938 H   0  0  0  0  0  0  0  0  0  0  0  0
   -0.1625   24.3635  -28.4227 H   0  0  0  0  0  0  0  0  0  0  0  0
   -4.3101   22.1794  -28.8363 H   0  0  0  0  0  0  0  0  0  0  0  0
   -5.8779   21.6386  -30.6560 H   0  0  0  0  0  0  0  0  0  0  0  0
   -5.5870   22.2560  -32.9790 H   0  0  0  0  0  0  0  0  0  0  0  0
   -2.7797   21.2451  -32.5779 H   0  0  0  0  0  0  0  0  0  0  0  0
   -2.7411   20.2830  -34.0943 H   0  0  0  0  0  0  0  0  0  0  0  0
   -3.4553   21.9312  -34.0943 H   0  0  0  0  0  0  0  0  0  0  0  0
  1  2  1  0
  2  3  2  0
  3  4  1  0
  4  5  2  0
  5  6  1  0
  6  7  2  0
  6  8  2  0
  6  9  1  0
  9 10  2  0
 10 11  1  0
 11 12  2  0
 12 13  1  0
 13 14  1  0
 14 15  2  0
 14 16  1  0
 16 17  2  0
 17 18  1  0
 18 19  2  0
 19 20  1  0
 19 21  1  0
 21 22  1  0
 22 23  2  0
 22 24  1  0
 21 25  2  0
 12 26  1  0
 26 27  2  0
  4 28  1  0
 28 29  1  0
 29 30  1  0
 29 31  2  0
 31  2  1  0
 27  9  1  0
 25 16  1  0
  1 32  1  0
  1 33  1  0
  1 34  1  0
  3 35  1  0
 10 36  1  0
 11 37  1  0
 13 38  1  0
 17 39  1  0
 18 40  1  0
 20 41  1  0
 20 42  1  0
 20 43  1  0
 25 44  1  0
 26 45  1  0
 27 46  1  0
 28 47  1  0
 30 48  1  0
 30 49  1  0
 30 50  1  0
M  CHG  2  22   1  24  -1
M  END
>  <smiles>  (44) 
Cc1cc(=NS(=O)(=O)c2ccc(NC(=O)c3ccc(C)c([N+](=O)[O-])c3)cc2)[nH]c(C)n1

>  <score_type>  (44) 
oracle

>  <origin>  (44) 
adg

>  <m_score__min__energy>  (44) 
-9.5

>  <m_primary>  (44) 
energy

$$$$
44:0
     RDKit          3D

 51 54  0  0  0  0  0  0  0  0999 V2000
   -9.4800   21.5680  -30.5180 C   0  0  0  0  0  0  0  0  0  0  0  0
   -9.1170   20.9010  -31.4550 C   0  0  0  0  0  0  0  0  0  0  0  0
   -8.6780   20.0870  -32.5940 C   0  0  0  0  0  0  0  0  0  0  0  0
   -7.2190   20.1820  -32.7500 N   0  0  0  0  0  0  0  0  0  0  0  0
   -6.4610   19.0800  -33.2980 C   0  0  0  0  0  0  0  0  0  0  0  0
   -7.0350   17.8050  -33.4420 C   0  0  0  0  0  0  0  0  0  0  0  0
   -6.2880   16.7360  -33.9720 C   0  0  0  0  0  0  0  0  0  0  0  0
   -6.8240   15.4490  -34.1290 O   0  0  0  0  0  0  0  0  0  0  0  0
   -6.0480   14.2580  -34.2180 C   0  0  0  0  0  0  0  0  0  0  0  0
   -4.9610   16.9520  -34.3590 C   0  0  0  0  0  0  0  0  0  0  0  0
   -4.3710   18.2210  -34.2200 C   0  0  0  0  0  0  0  0  0  0  0  0
   -3.0450   18.4780  -34.5960 O   0  0  0  0  0  0  0  0  0  0  0  0
   -2.1610   19.3430  -33.8890 C   0  0  0  0  0  0  0  0  0  0  0  0
   -5.1260   19.2730  -33.6920 C   0  0  0  0  0  0  0  0  0  0  0  0
   -6.5280   21.3350  -32.2280 C   0  0  0  0  0  0  0  0  0  0  0  0
   -6.8460   22.6210  -32.7020 C   0  0  0  0  0  0  0  0  0  0  0  0
   -6.1840   23.7470  -32.2010 C   0  0  0  0  0  0  0  0  0  0  0  0
   -5.2020   23.5970  -31.2190 C   0  0  0  0  0  0  0  0  0  0  0  0
   -4.5510   24.6800  -30.7200 N   0  0  0  0  0  0  0  0  0  0  0  0
   -3.5960   24.5490  -29.7610 C   0  0  0  0  0  0  0  0  0  0  0  0
   -3.2710   23.2710  -29.2720 C   0  0  0  0  0  0  0  0  0  0  0  0
   -2.2430   23.0740  -28.2310 C   0  0  0  0  0  0  0  0  0  0  0  0
   -1.2670   22.0910  -28.1560 C   0  0  0  0  0  0  0  0  0  0  0  0
   -0.5260   22.2850  -27.0470 N   0  0  0  0  0  0  0  0  0  0  0  0
   -1.0120   23.3440  -26.4200 N   0  0  0  0  0  0  0  0  0  0  0  0
   -0.4330   23.9100  -25.2090 C   0  0  0  0  0  0  0  0  0  0  0  0
   -2.0450   23.8580  -27.1120 C   0  0  0  0  0  0  0  0  0  0  0  0
   -3.9270   22.1880  -29.7750 N   0  0  0  0  0  0  0  0  0  0  0  0
   -4.8800   22.3160  -30.7340 C   0  0  0  0  0  0  0  0  0  0  0  0
   -5.5410   21.1900  -31.2370 C   0  0  0  0  0  0  0  0  0  0  0  0
   -9.8111   22.1763  -29.6634 H   0  0  0  0  0  0  0  0  0  0  0  0
   -8.9578   19.0374  -32.4205 H   0  0  0  0  0  0  0  0  0  0  0  0
   -9.1630   20.4571  -33.5093 H   0  0  0  0  0  0  0  0  0  0  0  0
   -8.0791   17.6408  -33.1373 H   0  0  0  0  0  0  0  0  0  0  0  0
   -5.8129   13.8971  -33.2058 H   0  0  0  0  0  0  0  0  0  0  0  0
   -6.6184   13.4882  -34.7584 H   0  0  0  0  0  0  0  0  0  0  0  0
   -5.1134   14.4688  -34.7584 H   0  0  0  0  0  0  0  0  0  0  0  0
   -4.3733   16.1210  -34.7761 H   0  0  0  0  0  0  0  0  0  0  0  0
   -2.3013   19.2057  -32.8067 H   0  0  0  0  0  0  0  0  0  0  0  0
   -1.1214   19.1037  -34.1572 H   0  0  0  0  0  0  0  0  0  0  0  0
   -2.3777   20.3876  -34.1572 H   0  0  0  0  0  0  0  0  0  0  0  0
   -4.6677   20.2671  -33.5834 H   0  0  0  0  0  0  0  0  0  0  0  0
   -7.6214   22.7420  -33.4728 H   0  0  0  0  0  0  0  0  0  0  0  0
   -6.4363   24.7485  -32.5796 H   0  0  0  0  0  0  0  0  0  0  0  0
   -3.0801   25.4382  -29.3696 H   0  0  0  0  0  0  0  0  0  0  0  0
   -1.1210   21.2813  -28.8861 H   0  0  0  0  0  0  0  0  0  0  0  0
   -0.9038   23.4498  -24.3278 H   0  0  0  0  0  0  0  0  0  0  0  0
    0.6488   23.7115  -25.1924 H   0  0  0  0  0  0  0  0  0  0  0  0
   -0.6068   24.9960  -25.1924 H   0  0  0  0  0  0  0  0  0  0  0  0
   -2.6297   24.7475  -26.8346 H   0  0  0  0  0  0  0  0  0  0  0  0
   -5.2880   20.1894  -30.8565 H   0  0  0  0  0  0  0  0  0  0  0  0
  1  2  3  0
  2  3  1  0
  3  4  1  0
  4  5  1  0
  5  6  2  0
  6  7  1  0
  7  8  1  0
  8  9  1  0
  7 10  2  0
 10 11  1  0
 11 12  1  0
 12 13  1  0
 11 14  2  0
  4 15  1  0
 15 16  2  0
 16 17  1  0
 17 18  2  0
 18 19  1  0
 19 20  2  0
 20 21  1  0
 21 22  1  0
 22 23  1  0
 23 24  2  0
 24 25  1  0
 25 26  1  0
 25 27  1  0
 21 28  2  0
 28 29  1  0
 29 30  2  0
 14  5  1  0
 30 15  1  0
 29 18  1  0
 27 22  2  0
  1 31  1  0
  3 32  1  0
  3 33  1  0
  6 34  1  0
  9 35  1  0
  9 36  1  0
  9 37  1  0
 10 38  1  0
 13 39  1  0
 13 40  1  0
 13 41  1  0
 14 42  1  0
 16 43  1  0
 17 44  1  0
 20 45  1  0
 23 46  1  0
 26 47  1  0
 26 48  1  0
 26 49  1  0
 27 50  1  0
 30 51  1  0
M  END
>  <UniqueID>  (45) 
42

>  <SMILES>  (45) 
C#CCN(c1cc(OC)cc(OC)c1)c1ccc2ncc(-c3cnn(C)c3)nc2c1

>  <Energy>  (45) 
93.22013746557312

>  <Genealogy>  (45) 
C#CCN(c1cc(OC)cc(OC)c1)c1ccc2ncc(-c3cnn(C)c3)nc2c1 (3D coordinates assigned)
C#CCN(c1cc(OC)cc(OC)c1)c1ccc2ncc(-c3cnn(C)c3)nc2c1 (optimized conformer: 93.22013746557312 kcal/mol)

>  <smiles>  (45) 
C#CCN(c1cc(OC)cc(OC)c1)c1ccc2ncc(-c3cnn(C)c3)nc2c1

>  <score_type>  (45) 
oracle

>  <origin>  (45) 
adg

>  <m_score__min__energy>  (45) 
-7.96

>  <m_primary>  (45) 
energy

$$$$
45:0
     RDKit          3D

 40 42  0  0  0  0  0  0  0  0999 V2000
   -0.3880   25.7120  -27.5760 C   0  0  0  0  0  0  0  0  0  0  0  0
    0.2860   24.5620  -28.2060 N   0  0  0  0  0  0  0  0  0  0  0  0
    1.7040   24.5500  -27.8080 C   0  0  0  0  0  0  0  0  0  0  0  0
   -0.3620   23.2880  -27.8230 C   0  0  0  0  0  0  0  0  0  0  0  0
   -1.3490   22.8230  -28.9020 C   0  0  0  0  0  0  0  0  0  0  0  0
   -1.8540   23.9520  -29.6870 N   0  0  0  0  0  0  0  0  0  0  0  0
   -3.1620   23.9800  -30.2820 C   0  0  0  0  0  0  0  0  0  0  0  0
   -3.7470   22.8350  -30.8460 C   0  0  0  0  0  0  0  0  0  0  0  0
   -5.0300   22.9340  -31.4050 C   0  0  0  0  0  0  0  0  0  0  0  0
   -5.6600   21.7890  -32.0120 N   0  0  0  0  0  0  0  0  0  0  0  0
   -5.0410   20.8490  -32.7700 C   0  0  0  0  0  0  0  0  0  0  0  0
   -5.9540   19.9110  -33.2350 C   0  0  0  0  0  0  0  0  0  0  0  0
   -7.1720   20.3080  -32.7320 C   0  0  0  0  0  0  0  0  0  0  0  0
   -8.4320   19.7280  -32.8700 C   0  0  0  0  0  0  0  0  0  0  0  0
   -9.5120   20.3430  -32.2160 C   0  0  0  0  0  0  0  0  0  0  0  0
   -9.3110   21.5060  -31.4410 C   0  0  0  0  0  0  0  0  0  0  0  0
   -8.0280   22.0690  -31.3190 C   0  0  0  0  0  0  0  0  0  0  0  0
   -6.9680   21.4480  -31.9940 C   0  0  0  0  0  0  0  0  0  0  0  0
   -5.6670   24.1350  -31.3930 N   0  0  0  0  0  0  0  0  0  0  0  0
   -5.0910   25.2350  -30.8450 C   0  0  0  0  0  0  0  0  0  0  0  0
   -3.8520   25.1520  -30.2970 N   0  0  0  0  0  0  0  0  0  0  0  0
   -0.3315   25.6157  -26.4817 H   0  0  0  0  0  0  0  0  0  0  0  0
    0.1072   26.6433  -27.8881 H   0  0  0  0  0  0  0  0  0  0  0  0
   -1.4425   25.7350  -27.8881 H   0  0  0  0  0  0  0  0  0  0  0  0
    1.7768   24.5494  -26.7104 H   0  0  0  0  0  0  0  0  0  0  0  0
    2.1895   23.6477  -28.2082 H   0  0  0  0  0  0  0  0  0  0  0  0
    2.2047   25.4439  -28.2082 H   0  0  0  0  0  0  0  0  0  0  0  0
    0.4118   22.5179  -27.6882 H   0  0  0  0  0  0  0  0  0  0  0  0
   -0.9175   23.4466  -26.8869 H   0  0  0  0  0  0  0  0  0  0  0  0
   -0.8377   22.1192  -29.5753 H   0  0  0  0  0  0  0  0  0  0  0  0
   -2.2020   22.3380  -28.4049 H   0  0  0  0  0  0  0  0  0  0  0  0
   -1.2420   24.7870  -29.8340 H   0  0  0  0  0  0  0  0  0  0  0  0
   -3.2082   21.8760  -30.8495 H   0  0  0  0  0  0  0  0  0  0  0  0
   -3.9627   20.8321  -32.9868 H   0  0  0  0  0  0  0  0  0  0  0  0
   -5.7474   19.0369  -33.8701 H   0  0  0  0  0  0  0  0  0  0  0  0
   -8.5757   18.8183  -33.4715 H   0  0  0  0  0  0  0  0  0  0  0  0
  -10.5214   19.9157  -32.3082 H   0  0  0  0  0  0  0  0  0  0  0  0
  -10.1641   21.9751  -30.9289 H   0  0  0  0  0  0  0  0  0  0  0  0
   -7.8611   22.9707  -30.7114 H   0  0  0  0  0  0  0  0  0  0  0  0
   -5.6287   26.1946  -30.8450 H   0  0  0  0  0  0  0  0  0  0  0  0
  1  2  1  0
  2  3  1  0
  2  4  1  0
  4  5  1  0
  5  6  1  0
  6  7  1  0
  7  8  2  0
  8  9  1  0
  9 10  1  0
 10 11  1  0
 11 12  2  0
 12 13  1  0
 13 14  2  0
 14 15  1  0
 15 16  2  0
 16 17  1  0
 17 18  2  0
  9 19  2  0
 19 20  1  0
 20 21  2  0
 21  7  1  0
 18 10  1  0
 18 13  1  0
  1 22  1  0
  1 23  1  0
  1 24  1  0
  3 25  1  0
  3 26  1  0
  3 27  1  0
  4 28  1  0
  4 29  1  0
  5 30  1  0
  5 31  1  0
  6 32  1  0
  8 33  1  0
 11 34  1  0
 12 35  1  0
 14 36  1  0
 15 37  1  0
 16 38  1  0
 17 39  1  0
 20 40  1  0
M  END
>  <UniqueID>  (46) 
43

>  <SMILES>  (46) 
CN(C)CCNc1cc(-n2ccc3ccccc32)ncn1

>  <Energy>  (46) 
78.9055895340919

>  <Genealogy>  (46) 
CN(C)CCNc1cc(-n2ccc3ccccc32)ncn1 (3D coordinates assigned)
CN(C)CCNc1cc(-n2ccc3ccccc32)ncn1 (optimized conformer: 78.9055895340919 kcal/mol)

>  <smiles>  (46) 
CN(C)CCNc1cc(-n2ccc3ccccc32)ncn1

>  <score_type>  (46) 
oracle

>  <origin>  (46) 
adg

>  <m_score__min__energy>  (46) 
-7.9400000000000004

>  <m_primary>  (46) 
energy

$$$$
46:0
     RDKit          3D

 58 59  0  0  0  0  0  0  0  0999 V2000
   -3.8530   24.2230  -27.3480 C   0  0  0  0  0  0  0  0  0  0  0  0
   -2.6260   24.9020  -27.9350 C   0  0  0  0  0  0  0  0  0  0  0  0
   -2.7280   24.9210  -29.3570 O   0  0  0  0  0  0  0  0  0  0  0  0
   -3.4670   24.0140  -30.1290 C   0  0  0  0  0  0  0  0  0  0  0  0
   -4.8340   24.2310  -30.4150 C   0  0  0  0  0  0  0  0  0  0  0  0
   -5.5560   23.3220  -31.2020 C   0  0  0  0  0  0  0  0  0  0  0  0
   -7.0180   23.5590  -31.5120 C   0  0  0  0  0  0  0  0  0  0  0  0
   -7.8850   22.5260  -30.9150 N   0  0  0  0  0  0  0  0  0  0  0  0
   -8.7060   21.8370  -31.9230 C   0  0  0  0  0  0  0  0  0  0  0  0
   -8.1580   20.4580  -32.1900 C   0  0  0  0  0  0  0  0  0  0  0  0
   -7.0950   20.2760  -33.0850 C   0  0  0  0  0  0  0  0  0  0  0  0
   -6.6280   18.9880  -33.3600 C   0  0  0  0  0  0  0  0  0  0  0  0
   -7.2380   17.8920  -32.7460 C   0  0  0  0  0  0  0  0  0  0  0  0
   -8.2830   18.0830  -31.8970 N   0  0  0  0  0  0  0  0  0  0  0  0
   -8.7560   19.3270  -31.6120 C   0  0  0  0  0  0  0  0  0  0  0  0
   -4.9050   22.1920  -31.7150 C   0  0  0  0  0  0  0  0  0  0  0  0
   -3.5520   21.9780  -31.4520 C   0  0  0  0  0  0  0  0  0  0  0  0
   -2.8270   22.8700  -30.6530 C   0  0  0  0  0  0  0  0  0  0  0  0
   -1.4790   22.5630  -30.4160 O   0  0  0  0  0  0  0  0  0  0  0  0
   -0.8980   21.2670  -30.2600 C   0  0  0  0  0  0  0  0  0  0  0  0
   -0.0940   21.1480  -28.9780 C   0  0  0  0  0  0  0  0  0  0  0  0
    0.8780   20.3510  -28.9520 O   0  0  0  0  0  0  0  0  0  0  0  0
   -0.4560   21.8530  -27.7600 N   0  0  0  0  0  0  0  0  0  0  0  0
   -1.7880   21.6330  -27.1730 C   0  0  0  0  0  0  0  0  0  0  0  0
   -2.0970   20.1420  -27.0850 C   0  0  0  0  0  0  0  0  0  0  0  0
    0.4820   22.7190  -27.0340 C   0  0  0  0  0  0  0  0  0  0  0  0
    0.4020   24.1590  -27.5390 C   0  0  0  0  0  0  0  0  0  0  0  0
    0.2370   24.1850  -28.9290 O   0  0  0  0  0  0  0  0  0  0  0  0
   -3.7986   24.2531  -26.2498 H   0  0  0  0  0  0  0  0  0  0  0  0
   -4.7590   24.7481  -27.6848 H   0  0  0  0  0  0  0  0  0  0  0  0
   -3.8893   23.1764  -27.6848 H   0  0  0  0  0  0  0  0  0  0  0  0
   -2.5622   25.9335  -27.5581 H   0  0  0  0  0  0  0  0  0  0  0  0
   -1.7233   24.3472  -27.6395 H   0  0  0  0  0  0  0  0  0  0  0  0
   -5.3377   25.1236  -30.0155 H   0  0  0  0  0  0  0  0  0  0  0  0
   -7.3106   24.5416  -31.1134 H   0  0  0  0  0  0  0  0  0  0  0  0
   -7.1442   23.5183  -32.6040 H   0  0  0  0  0  0  0  0  0  0  0  0
   -8.5230   22.9960  -30.2250 H   0  0  0  0  0  0  0  0  0  0  0  0
   -7.3020   21.8350  -30.3890 H   0  0  0  0  0  0  0  0  0  0  0  0
   -9.7386   21.7519  -31.5536 H   0  0  0  0  0  0  0  0  0  0  0  0
   -8.6869   22.4169  -32.8575 H   0  0  0  0  0  0  0  0  0  0  0  0
   -6.6288   21.1461  -33.5704 H   0  0  0  0  0  0  0  0  0  0  0  0
   -5.7875   18.8387  -34.0538 H   0  0  0  0  0  0  0  0  0  0  0  0
   -6.8732   16.8743  -32.9491 H   0  0  0  0  0  0  0  0  0  0  0  0
   -9.6086   19.4464  -30.9273 H   0  0  0  0  0  0  0  0  0  0  0  0
   -5.4640   21.4699  -32.3283 H   0  0  0  0  0  0  0  0  0  0  0  0
   -3.0485   21.0975  -31.8777 H   0  0  0  0  0  0  0  0  0  0  0  0
   -1.7032   20.5177  -30.2437 H   0  0  0  0  0  0  0  0  0  0  0  0
   -0.2127   21.1010  -31.1043 H   0  0  0  0  0  0  0  0  0  0  0  0
   -1.8140   22.0677  -26.1629 H   0  0  0  0  0  0  0  0  0  0  0  0
   -2.5416   22.1138  -27.8141 H   0  0  0  0  0  0  0  0  0  0  0  0
   -2.1591   19.8422  -26.0285 H   0  0  0  0  0  0  0  0  0  0  0  0
   -3.0568   19.9365  -27.5815 H   0  0  0  0  0  0  0  0  0  0  0  0
   -1.2979   19.5720  -27.5815 H   0  0  0  0  0  0  0  0  0  0  0  0
    0.2338   22.6994  -25.9625 H   0  0  0  0  0  0  0  0  0  0  0  0
    1.5033   22.3459  -27.2003 H   0  0  0  0  0  0  0  0  0  0  0  0
   -0.4533   24.6618  -27.0639 H   0  0  0  0  0  0  0  0  0  0  0  0
    1.3380   24.6772  -27.2831 H   0  0  0  0  0  0  0  0  0  0  0  0
   -0.7360   24.0730  -29.0930 H   0  0  0  0  0  0  0  0  0  0  0  0
  1  2  1  0
  2  3  1  0
  3  4  1  0
  4  5  2  0
  5  6  1  0
  6  7  1  0
  7  8  1  0
  8  9  1  0
  9 10  1  0
 10 11  2  0
 11 12  1  0
 12 13  2  0
 13 14  1  0
 14 15  2  0
  6 16  2  0
 16 17  1  0
 17 18  2  0
 18 19  1  0
 19 20  1  0
 20 21  1  0
 21 22  2  0
 21 23  1  0
 23 24  1  0
 24 25  1  0
 23 26  1  0
 26 27  1  0
 27 28  1  0
 18  4  1  0
 15 10  1  0
  1 29  1  0
  1 30  1  0
  1 31  1  0
  2 32  1  0
  2 33  1  0
  5 34  1  0
  7 35  1  0
  7 36  1  0
  8 37  1  0
  8 38  1  0
  9 39  1  0
  9 40  1  0
 11 41  1  0
 12 42  1  0
 13 43  1  0
 15 44  1  0
 16 45  1  0
 17 46  1  0
 20 47  1  0
 20 48  1  0
 24 49  1  0
 24 50  1  0
 25 51  1  0
 25 52  1  0
 25 53  1  0
 26 54  1  0
 26 55  1  0
 27 56  1  0
 27 57  1  0
 28 58  1  0
M  CHG  1   8   1
M  END
>  <UniqueID>  (47) 
44

>  <SMILES>  (47) 
CCOc1cc(C[NH2+]Cc2cccnc2)ccc1OCC(=O)N(CC)CCO

>  <Energy>  (47) 
54.644662786064124

>  <Genealogy>  (47) 
CCOc1cc(C[NH2+]Cc2cccnc2)ccc1OCC(=O)N(CC)CCO (protonated)
CCOc1cc(C[NH2+]Cc2cccnc2)ccc1OCC(=O)N(CC)CCO (3D coordinates assigned)
CCOc1cc(C[NH2+]Cc2cccnc2)ccc1OCC(=O)N(CC)CCO (optimized conformer: 54.644662786064124 kcal/mol)

>  <smiles>  (47) 
CCOc1cc(CNCc2cccnc2)ccc1OCC(=O)N(CC)CCO

>  <score_type>  (47) 
oracle

>  <origin>  (47) 
adg

>  <m_score__min__energy>  (47) 
-7.75

>  <m_primary>  (47) 
energy

$$$$
