0:0
     RDKit          3D

 53 56  0  0  0  0  0  0  0  0999 V2000
   -2.7300   20.1150  -27.6700 C   0  0  0  0  0  0  0  0  0  0  0  0
   -2.4080   21.3780  -28.2550 O   0  0  0  0  0  0  0  0  0  0  0  0
   -2.0690   22.5310  -27.5240 C   0  0  0  0  0  0  0  0  0  0  0  0
   -1.2000   22.4840  -26.4100 C   0  0  0  0  0  0  0  0  0  0  0  0
   -0.9040   23.6490  -25.6890 C   0  0  0  0  0  0  0  0  0  0  0  0
   -1.4720   24.8690  -26.0690 C   0  0  0  0  0  0  0  0  0  0  0  0
   -2.3250   24.9310  -27.1780 C   0  0  0  0  0  0  0  0  0  0  0  0
   -2.6240   23.7690  -27.9150 C   0  0  0  0  0  0  0  0  0  0  0  0
   -3.4850   23.8490  -29.0690 N   0  0  0  0  0  0  0  0  0  0  0  0
   -2.9710   23.4670  -30.3860 C   0  0  0  0  0  0  0  0  0  0  0  0
   -4.0440   22.7060  -31.1990 C   0  0  0  0  0  0  0  0  0  0  0  0
   -5.4410   23.0850  -30.8540 N   0  0  0  0  0  0  0  0  0  0  0  0
   -6.3510   22.9240  -32.0100 C   0  0  0  0  0  0  0  0  0  0  0  0
   -6.7730   21.4710  -32.1790 C   0  0  0  0  0  0  0  0  0  0  0  0
   -7.9960   20.9740  -31.6220 C   0  0  0  0  0  0  0  0  0  0  0  0
   -8.9340   21.8470  -30.8350 C   0  0  0  0  0  0  0  0  0  0  0  0
   -8.3310   19.6580  -31.7690 N   0  0  0  0  0  0  0  0  0  0  0  0
   -7.5030   18.8300  -32.4440 C   0  0  0  0  0  0  0  0  0  0  0  0
   -7.7050   17.5160  -32.6470 N   0  0  0  0  0  0  0  0  0  0  0  0
   -6.5760   17.1850  -33.3310 C   0  0  0  0  0  0  0  0  0  0  0  0
   -6.2970   15.8070  -33.8440 C   0  0  0  0  0  0  0  0  0  0  0  0
   -5.7470   18.2360  -33.5400 N   0  0  0  0  0  0  0  0  0  0  0  0
   -6.3560   19.2610  -32.9630 N   0  0  0  0  0  0  0  0  0  0  0  0
   -5.9260   20.5460  -32.8600 C   0  0  0  0  0  0  0  0  0  0  0  0
   -4.5990   20.9510  -33.4610 C   0  0  0  0  0  0  0  0  0  0  0  0
   -5.5400   24.4460  -30.2960 C   0  0  0  0  0  0  0  0  0  0  0  0
   -4.8050   24.4880  -28.9570 C   0  0  0  0  0  0  0  0  0  0  0  0
   -2.7077   20.2024  -26.5737 H   0  0  0  0  0  0  0  0  0  0  0  0
   -3.7354   19.8070  -27.9929 H   0  0  0  0  0  0  0  0  0  0  0  0
   -1.9948   19.3632  -27.9929 H   0  0  0  0  0  0  0  0  0  0  0  0
   -0.7527   21.5259  -26.1067 H   0  0  0  0  0  0  0  0  0  0  0  0
   -0.2252   23.6036  -24.8246 H   0  0  0  0  0  0  0  0  0  0  0  0
   -1.2485   25.7811  -25.4962 H   0  0  0  0  0  0  0  0  0  0  0  0
   -2.7646   25.8944  -27.4755 H   0  0  0  0  0  0  0  0  0  0  0  0
   -2.6793   24.3742  -30.9355 H   0  0  0  0  0  0  0  0  0  0  0  0
   -2.1029   22.8062  -30.2457 H   0  0  0  0  0  0  0  0  0  0  0  0
   -3.8820   22.9141  -32.2669 H   0  0  0  0  0  0  0  0  0  0  0  0
   -3.9326   21.6390  -30.9559 H   0  0  0  0  0  0  0  0  0  0  0  0
   -7.2470   23.5418  -31.8503 H   0  0  0  0  0  0  0  0  0  0  0  0
   -5.8191   23.2407  -32.9193 H   0  0  0  0  0  0  0  0  0  0  0  0
   -8.7654   21.6901  -29.7594 H   0  0  0  0  0  0  0  0  0  0  0  0
   -8.7495   22.9022  -31.0850 H   0  0  0  0  0  0  0  0  0  0  0  0
   -9.9733   21.5873  -31.0850 H   0  0  0  0  0  0  0  0  0  0  0  0
   -6.1581   15.1210  -32.9954 H   0  0  0  0  0  0  0  0  0  0  0  0
   -7.1442   15.4654  -34.4568 H   0  0  0  0  0  0  0  0  0  0  0  0
   -5.3836   15.8218  -34.4568 H   0  0  0  0  0  0  0  0  0  0  0  0
   -3.8829   21.1695  -32.6551 H   0  0  0  0  0  0  0  0  0  0  0  0
   -4.2122   20.1300  -34.0826 H   0  0  0  0  0  0  0  0  0  0  0  0
   -4.7365   21.8481  -34.0826 H   0  0  0  0  0  0  0  0  0  0  0  0
   -5.0813   25.1642  -30.9915 H   0  0  0  0  0  0  0  0  0  0  0  0
   -6.5972   24.7119  -30.1487 H   0  0  0  0  0  0  0  0  0  0  0  0
   -4.6741   25.5360  -28.6495 H   0  0  0  0  0  0  0  0  0  0  0  0
   -5.3999   23.9428  -28.2094 H   0  0  0  0  0  0  0  0  0  0  0  0
  1  2  1  0
  2  3  1  0
  3  4  2  0
  4  5  1  0
  5  6  2  0
  6  7  1  0
  7  8  2  0
  8  9  1  0
  9 10  1  0
 10 11  1  0
 11 12  1  0
 12 13  1  0
 13 14  1  0
 14 15  1  0
 15 16  1  0
 15 17  2  0
 17 18  1  0
 18 19  2  0
 19 20  1  0
 20 21  1  0
 20 22  2  0
 22 23  1  0
 23 24  1  0
 24 25  1  0
 12 26  1  0
 26 27  1  0
  8  3  1  0
 27  9  1  0
 24 14  2  0
 23 18  1  0
  1 28  1  0
  1 29  1  0
  1 30  1  0
  4 31  1  0
  5 32  1  0
  6 33  1  0
  7 34  1  0
 10 35  1  0
 10 36  1  0
 11 37  1  0
 11 38  1  0
 13 39  1  0
 13 40  1  0
 16 41  1  0
 16 42  1  0
 16 43  1  0
 21 44  1  0
 21 45  1  0
 21 46  1  0
 25 47  1  0
 25 48  1  0
 25 49  1  0
 26 50  1  0
 26 51  1  0
 27 52  1  0
 27 53  1  0
M  END
>  <UniqueID>  (1) 
1

>  <SMILES>  (1) 
COc1ccccc1N1CCN(Cc2c(C)nc3nc(C)nn3c2C)CC1

>  <Energy>  (1) 
105.89640324116176

>  <Genealogy>  (1) 
COc1ccccc1N1CCN(Cc2c(C)nc3nc(C)nn3c2C)CC1 (3D coordinates assigned)
COc1ccccc1N1CCN(Cc2c(C)nc3nc(C)nn3c2C)CC1 (nonaromatic ring conformer: 105.89640324116176 kcal/mol)

>  <smiles>  (1) 
COc1ccccc1N1CCN(Cc2c(C)nc3nc(C)nn3c2C)CC1

>  <score_type>  (1) 
oracle

>  <origin>  (1) 
adg

>  <m_score__min__energy>  (1) 
-8.8900000000000006

>  <m_primary>  (1) 
energy

$$$$
1:0
     RDKit          3D

 38 39  0  0  0  0  0  0  0  0999 V2000
   -2.0040   25.6710  -29.7250 H   0  0  0  0  0  0  0  0  0  0  0  0
   -1.1990   26.0860  -29.3190 O   0  0  0  0  0  0  0  0  0  0  0  0
   -0.9270   25.3740  -28.1430 C   0  0  0  0  0  0  0  0  0  0  0  0
   -1.2923   25.9491  -27.2794 H   0  0  0  0  0  0  0  0  0  0  0  0
    0.1593   25.2195  -28.0649 H   0  0  0  0  0  0  0  0  0  0  0  0
   -1.6200   24.0080  -28.1680 C   0  0  0  0  0  0  0  0  0  0  0  0
   -2.5804   24.0833  -27.6371 H   0  0  0  0  0  0  0  0  0  0  0  0
   -0.9620   23.2751  -27.6783 H   0  0  0  0  0  0  0  0  0  0  0  0
   -1.8670   23.5640  -29.5400 N   0  0  0  0  0  0  0  0  0  0  0  0
   -2.9960   23.5980  -30.1930 C   0  0  0  0  0  0  0  0  0  0  0  0
   -3.7410   24.7300  -30.1340 N   0  0  0  0  0  0  0  0  0  0  0  0
   -4.9170   24.8180  -30.8000 C   0  0  0  0  0  0  0  0  0  0  0  0
   -5.7440   26.0560  -30.6960 C   0  0  0  0  0  0  0  0  0  0  0  0
   -5.9070   26.3001  -29.6359 H   0  0  0  0  0  0  0  0  0  0  0  0
   -5.2204   26.8891  -31.1877 H   0  0  0  0  0  0  0  0  0  0  0  0
   -6.7141   25.8913  -31.1877 H   0  0  0  0  0  0  0  0  0  0  0  0
   -5.3690   23.7570  -31.5120 N   0  0  0  0  0  0  0  0  0  0  0  0
   -4.6440   22.6140  -31.5820 C   0  0  0  0  0  0  0  0  0  0  0  0
   -5.1170   21.6220  -32.2870 N   0  0  0  0  0  0  0  0  0  0  0  0
   -6.5010   21.4220  -32.7300 C   0  0  0  0  0  0  0  0  0  0  0  0
   -6.7820   22.1910  -33.4646 H   0  0  0  0  0  0  0  0  0  0  0  0
   -7.4340   21.5530  -31.5040 C   0  0  0  0  0  0  0  0  0  0  0  0
   -6.9338   21.1187  -30.6258 H   0  0  0  0  0  0  0  0  0  0  0  0
   -7.6473   22.6203  -31.3444 H   0  0  0  0  0  0  0  0  0  0  0  0
   -8.7630   20.8250  -31.7310 C   0  0  0  0  0  0  0  0  0  0  0  0
   -9.4090   20.9802  -30.8543 H   0  0  0  0  0  0  0  0  0  0  0  0
   -9.2278   21.2345  -32.6400 H   0  0  0  0  0  0  0  0  0  0  0  0
   -8.5550   19.3110  -31.9370 C   0  0  0  0  0  0  0  0  0  0  0  0
   -8.6615   18.8088  -30.9641 H   0  0  0  0  0  0  0  0  0  0  0  0
   -9.3101   18.9752  -32.6630 H   0  0  0  0  0  0  0  0  0  0  0  0
   -7.1730   18.9570  -32.5210 C   0  0  0  0  0  0  0  0  0  0  0  0
   -6.4592   18.8263  -31.6943 H   0  0  0  0  0  0  0  0  0  0  0  0
   -7.2736   18.0297  -33.1041 H   0  0  0  0  0  0  0  0  0  0  0  0
   -6.6560   20.0560  -33.4550 C   0  0  0  0  0  0  0  0  0  0  0  0
   -5.6754   19.7520  -33.8501 H   0  0  0  0  0  0  0  0  0  0  0  0
   -7.3920   20.1852  -34.2622 H   0  0  0  0  0  0  0  0  0  0  0  0
   -3.4480   22.5320  -30.9210 N   0  0  0  0  0  0  0  0  0  0  0  0
   -2.8900   21.6550  -30.9640 H   0  0  0  0  0  0  0  0  0  0  0  0
  1  2  1  0
  2  3  1  0
  3  4  1  0
  3  5  1  0
  3  6  1  0
  6  7  1  0
  6  8  1  0
  6  9  1  0
  9 10  2  0
 10 11  1  0
 11 12  1  0
 12 13  1  0
 13 14  1  0
 13 15  1  0
 13 16  1  0
 12 17  2  0
 17 18  1  0
 18 19  2  0
 19 20  1  0
 20 21  1  0
 20 22  1  0
 22 23  1  0
 22 24  1  0
 22 25  1  0
 25 26  1  0
 25 27  1  0
 25 28  1  0
 28 29  1  0
 28 30  1  0
 28 31  1  0
 31 32  1  0
 31 33  1  0
 31 34  1  0
 34 35  1  0
 34 36  1  0
 18 37  1  0
 37 38  1  0
 37 10  1  0
 34 20  1  0
M  CHG  1  11  -1
M  END
>  <UniqueID>  (2) 
2

>  <SMILES>  (2) 
Cc1n/c(=N/C2CCCCC2)[nH]/c(=N\CCO)[n-]1

>  <Energy>  (2) 
38.5318872493018

>  <Genealogy>  (2) 
Cc1nc(=NC2CCCCC2)[nH]c(=NCCO)[n-]1 (protonated)
Cc1n/c(=N/C2CCCCC2)[nH]/c(=N\CCO)[n-]1 (cis-trans isomerization)
Cc1n/c(=N/C2CCCCC2)[nH]/c(=N\CCO)[n-]1 (3D coordinates assigned)
Cc1n/c(=N/C2CCCCC2)[nH]/c(=N\CCO)[n-]1 (nonaromatic ring conformer: 38.5318872493018 kcal/mol)

>  <smiles>  (2) 
Cc1nc(=NC2CCCCC2)[nH]c(=NCCO)[nH]1

>  <score_type>  (2) 
oracle

>  <origin>  (2) 
adg

>  <m_score__min__energy>  (2) 
-8.1300000000000008

>  <m_primary>  (2) 
energy

$$$$
2:0
     RDKit          3D

 44 47  0  0  0  0  0  0  0  0999 V2000
    2.2480   28.3240  -22.5700 C   0  0  0  0  0  0  0  0  0  0  0  0
    2.1370   27.1380  -23.3500 O   0  0  0  0  0  0  0  0  0  0  0  0
    0.9730   26.7370  -24.0220 C   0  0  0  0  0  0  0  0  0  0  0  0
   -0.1230   27.5980  -24.2120 C   0  0  0  0  0  0  0  0  0  0  0  0
   -1.2620   27.1520  -24.8890 C   0  0  0  0  0  0  0  0  0  0  0  0
   -1.3310   25.8390  -25.3880 C   0  0  0  0  0  0  0  0  0  0  0  0
   -2.5400   25.3640  -26.1060 C   0  0  0  0  0  0  0  0  0  0  0  0
   -2.6030   24.8110  -27.3720 C   0  0  0  0  0  0  0  0  0  0  0  0
   -3.9030   24.5320  -27.6140 N   0  0  0  0  0  0  0  0  0  0  0  0
   -4.4820   23.9450  -28.7980 C   0  0  0  0  0  0  0  0  0  0  0  0
   -4.0090   22.7240  -29.3200 C   0  0  0  0  0  0  0  0  0  0  0  0
   -4.5850   22.1710  -30.4660 C   0  0  0  0  0  0  0  0  0  0  0  0
   -5.6560   22.8160  -31.1060 C   0  0  0  0  0  0  0  0  0  0  0  0
   -6.2500   22.2970  -32.2660 O   0  0  0  0  0  0  0  0  0  0  0  0
   -7.1910   21.2580  -32.3030 C   0  0  0  0  0  0  0  0  0  0  0  0
   -6.8300   19.9370  -32.6320 C   0  0  0  0  0  0  0  0  0  0  0  0
   -7.7970   18.9260  -32.6420 C   0  0  0  0  0  0  0  0  0  0  0  0
   -9.1230   19.2210  -32.3150 C   0  0  0  0  0  0  0  0  0  0  0  0
   -9.4830   20.5260  -31.9670 C   0  0  0  0  0  0  0  0  0  0  0  0
   -8.5190   21.5390  -31.9560 C   0  0  0  0  0  0  0  0  0  0  0  0
   -6.1170   24.0360  -30.6040 C   0  0  0  0  0  0  0  0  0  0  0  0
   -5.5430   24.5930  -29.4570 C   0  0  0  0  0  0  0  0  0  0  0  0
   -4.6040   24.9000  -26.5510 N   0  0  0  0  0  0  0  0  0  0  0  0
   -3.8020   25.4020  -25.6280 N   0  0  0  0  0  0  0  0  0  0  0  0
   -0.2320   24.9830  -25.1920 C   0  0  0  0  0  0  0  0  0  0  0  0
    0.9070   25.4320  -24.5160 C   0  0  0  0  0  0  0  0  0  0  0  0
    2.2236   28.0638  -21.5015 H   0  0  0  0  0  0  0  0  0  0  0  0
    3.1973   28.8286  -22.8029 H   0  0  0  0  0  0  0  0  0  0  0  0
    1.4088   28.9959  -22.8029 H   0  0  0  0  0  0  0  0  0  0  0  0
   -0.0837   28.6273  -23.8260 H   0  0  0  0  0  0  0  0  0  0  0  0
   -2.1124   27.8347  -25.0327 H   0  0  0  0  0  0  0  0  0  0  0  0
   -1.7569   24.6324  -28.0519 H   0  0  0  0  0  0  0  0  0  0  0  0
   -3.1793   22.2023  -28.8206 H   0  0  0  0  0  0  0  0  0  0  0  0
   -4.1973   21.2241  -30.8699 H   0  0  0  0  0  0  0  0  0  0  0  0
   -5.7853   19.6996  -32.8817 H   0  0  0  0  0  0  0  0  0  0  0  0
   -7.5129   17.8971  -32.9078 H   0  0  0  0  0  0  0  0  0  0  0  0
   -9.8835   18.4264  -32.3314 H   0  0  0  0  0  0  0  0  0  0  0  0
  -10.5254   20.7563  -31.7016 H   0  0  0  0  0  0  0  0  0  0  0  0
   -8.8051   22.5628  -31.6732 H   0  0  0  0  0  0  0  0  0  0  0  0
   -6.9372   24.5618  -31.1147 H   0  0  0  0  0  0  0  0  0  0  0  0
   -5.9248   25.5476  -29.0659 H   0  0  0  0  0  0  0  0  0  0  0  0
   -4.1280   25.7740  -24.7100 H   0  0  0  0  0  0  0  0  0  0  0  0
   -0.2688   23.9520  -25.5736 H   0  0  0  0  0  0  0  0  0  0  0  0
    1.7589   24.7512  -24.3719 H   0  0  0  0  0  0  0  0  0  0  0  0
  1  2  1  0
  2  3  1  0
  3  4  2  0
  4  5  1  0
  5  6  2  0
  6  7  1  0
  7  8  2  0
  8  9  1  0
  9 10  1  0
 10 11  2  0
 11 12  1  0
 12 13  2  0
 13 14  1  0
 14 15  1  0
 15 16  2  0
 16 17  1  0
 17 18  2  0
 18 19  1  0
 19 20  2  0
 13 21  1  0
 21 22  2  0
  9 23  1  0
 23 24  2  0
  6 25  1  0
 25 26  2  0
 26  3  1  0
 24  7  1  0
 22 10  1  0
 20 15  1  0
  1 27  1  0
  1 28  1  0
  1 29  1  0
  4 30  1  0
  5 31  1  0
  8 32  1  0
 11 33  1  0
 12 34  1  0
 16 35  1  0
 17 36  1  0
 18 37  1  0
 19 38  1  0
 20 39  1  0
 21 40  1  0
 22 41  1  0
 24 42  1  0
 25 43  1  0
 26 44  1  0
M  CHG  1  24   1
M  END
>  <UniqueID>  (3) 
3

>  <SMILES>  (3) 
COc1ccc(-c2cn(-c3ccc(Oc4ccccc4)cc3)n[nH+]2)cc1

>  <Energy>  (3) 
94.84076911174853

>  <Genealogy>  (3) 
COc1ccc(-c2cn(-c3ccc(Oc4ccccc4)cc3)n[nH+]2)cc1 (protonated)
COc1ccc(-c2cn(-c3ccc(Oc4ccccc4)cc3)n[nH+]2)cc1 (3D coordinates assigned)
COc1ccc(-c2cn(-c3ccc(Oc4ccccc4)cc3)n[nH+]2)cc1 (optimized conformer: 94.84076911174853 kcal/mol)

>  <smiles>  (3) 
COc1ccc(-c2cn(-c3ccc(Oc4ccccc4)cc3)nn2)cc1

>  <score_type>  (3) 
oracle

>  <origin>  (3) 
adg

>  <m_score__min__energy>  (3) 
-7.5499999999999998

>  <m_primary>  (3) 
energy

$$$$
3:0
     RDKit          3D

 24 24  0  0  0  0  0  0  0  0999 V2000
  -10.0139   19.1257  -32.6016 H   0  0  0  0  0  0  0  0  0  0  0  0
   -8.9650   19.2670  -32.3020 C   0  0  0  0  0  0  0  0  0  0  0  0
   -8.2390   18.1720  -32.0290 C   0  0  0  0  0  0  0  0  0  0  0  0
   -8.7342   17.2829  -31.6116 H   0  0  0  0  0  0  0  0  0  0  0  0
   -6.8150   18.1450  -32.2760 N   0  0  0  0  0  0  0  0  0  0  0  0
   -6.4400   19.1240  -32.2890 H   0  0  0  0  0  0  0  0  0  0  0  0
   -6.1280   17.4150  -31.1980 C   0  0  0  0  0  0  0  0  0  0  0  0
   -6.4774   17.7862  -30.2233 H   0  0  0  0  0  0  0  0  0  0  0  0
   -6.3507   16.3411  -31.2826 H   0  0  0  0  0  0  0  0  0  0  0  0
   -5.0426   17.5722  -31.2826 H   0  0  0  0  0  0  0  0  0  0  0  0
   -6.5440   17.5110  -33.5750 C   0  0  0  0  0  0  0  0  0  0  0  0
   -6.1164   16.5106  -33.4126 H   0  0  0  0  0  0  0  0  0  0  0  0
   -7.4823   17.4211  -34.1420 H   0  0  0  0  0  0  0  0  0  0  0  0
   -5.8306   18.1271  -34.1420 H   0  0  0  0  0  0  0  0  0  0  0  0
   -8.4490   20.6520  -32.2270 C   0  0  0  0  0  0  0  0  0  0  0  0
   -7.1120   20.8450  -32.4000 N   0  0  0  0  0  0  0  0  0  0  0  0
   -6.5410   22.0770  -32.3380 C   0  0  0  0  0  0  0  0  0  0  0  0
   -5.4570   22.1890  -32.4880 H   0  0  0  0  0  0  0  0  0  0  0  0
   -7.3300   23.2000  -32.0840 C   0  0  0  0  0  0  0  0  0  0  0  0
   -6.8757   24.2008  -32.0390 H   0  0  0  0  0  0  0  0  0  0  0  0
   -8.7010   23.0380  -31.8880 C   0  0  0  0  0  0  0  0  0  0  0  0
   -9.3344   23.9133  -31.6814 H   0  0  0  0  0  0  0  0  0  0  0  0
   -9.2700   21.7640  -31.9540 C   0  0  0  0  0  0  0  0  0  0  0  0
  -10.3500   21.6300  -31.7942 H   0  0  0  0  0  0  0  0  0  0  0  0
  1  2  1  0
  2  3  2  0
  3  4  1  0
  3  5  1  0
  5  6  1  0
  5  7  1  0
  7  8  1  0
  7  9  1  0
  7 10  1  0
  5 11  1  0
 11 12  1  0
 11 13  1  0
 11 14  1  0
  2 15  1  0
 15 16  2  0
 16 17  1  0
 17 18  1  0
 17 19  2  0
 19 20  1  0
 19 21  1  0
 21 22  1  0
 21 23  2  0
 23 24  1  0
 23 15  1  0
M  CHG  1   5   1
M  END
>  <UniqueID>  (4) 
4

>  <SMILES>  (4) 
C[NH+](C)/C=C/c1ccccn1

>  <Energy>  (4) 
24.1428911663429

>  <Genealogy>  (4) 
C[NH+](C)C=Cc1ccccn1 (protonated)
C[NH+](C)/C=C/c1ccccn1 (cis-trans isomerization)
C[NH+](C)/C=C/c1ccccn1 (3D coordinates assigned)
C[NH+](C)/C=C/c1ccccn1 (optimized conformer: 24.1428911663429 kcal/mol)

>  <smiles>  (4) 
CN(C)C=Cc1ccccn1

>  <score_type>  (4) 
oracle

>  <origin>  (4) 
adg

>  <m_score__min__energy>  (4) 
-3.79

>  <m_primary>  (4) 
energy

$$$$
4:0
     RDKit          3D

 52 55  0  0  0  0  0  0  0  0999 V2000
   -0.4150   26.8370  -22.9810 C   0  0  0  0  0  0  0  0  0  0  0  0
   -1.2050   27.2560  -24.0890 O   0  0  0  0  0  0  0  0  0  0  0  0
   -1.3190   26.5440  -25.2930 C   0  0  0  0  0  0  0  0  0  0  0  0
   -0.3220   26.7100  -26.2600 C   0  0  0  0  0  0  0  0  0  0  0  0
   -0.3890   26.0210  -27.4750 C   0  0  0  0  0  0  0  0  0  0  0  0
   -1.4490   25.1420  -27.7360 C   0  0  0  0  0  0  0  0  0  0  0  0
   -1.5100   24.4640  -29.0020 N   0  0  0  0  0  0  0  0  0  0  0  0
   -2.1340   23.1850  -29.2060 C   0  0  0  0  0  0  0  0  0  0  0  0
   -1.9840   22.0170  -28.0550 S   0  0  0  0  0  0  0  0  0  0  0  0
   -2.6140   22.8270  -30.6040 C   0  0  1  0  0  0  0  0  0  0  0  0
   -1.6170   21.9110  -31.3190 C   0  0  0  0  0  0  0  0  0  0  0  0
   -2.2800   20.5470  -31.3930 C   0  0  0  0  0  0  0  0  0  0  0  0
   -3.6400   20.7020  -30.7240 C   0  0  0  0  0  0  0  0  0  0  0  0
   -3.9220   22.1390  -30.5870 N   0  0  2  0  0  0  0  0  0  0  0  0
   -4.9800   22.6950  -31.8750 S   0  0  0  0  0  0  0  0  0  0  0  0
   -5.2320   24.1650  -31.6680 O   0  0  0  0  0  0  0  0  0  0  0  0
   -4.2810   22.5660  -33.1990 O   0  0  0  0  0  0  0  0  0  0  0  0
   -6.5590   21.8590  -31.8710 C   0  0  0  0  0  0  0  0  0  0  0  0
   -7.6530   22.5990  -31.3860 C   0  0  0  0  0  0  0  0  0  0  0  0
   -8.9200   22.0350  -31.2790 C   0  0  0  0  0  0  0  0  0  0  0  0
   -9.1350   20.7160  -31.6560 C   0  0  0  0  0  0  0  0  0  0  0  0
   -8.0800   19.9470  -32.1630 C   0  0  0  0  0  0  0  0  0  0  0  0
   -8.3210   18.6180  -32.5450 C   0  0  0  0  0  0  0  0  0  0  0  0
   -7.2920   17.8360  -33.0610 C   0  0  0  0  0  0  0  0  0  0  0  0
   -6.0160   18.3730  -33.2080 C   0  0  0  0  0  0  0  0  0  0  0  0
   -5.7570   19.6940  -32.8340 C   0  0  0  0  0  0  0  0  0  0  0  0
   -6.7750   20.5100  -32.2910 C   0  0  0  0  0  0  0  0  0  0  0  0
   -2.4640   24.9900  -26.7750 C   0  0  0  0  0  0  0  0  0  0  0  0
   -2.3980   25.6790  -25.5600 C   0  0  0  0  0  0  0  0  0  0  0  0
   -0.9245   27.1072  -22.0443 H   0  0  0  0  0  0  0  0  0  0  0  0
   -0.2759   25.7466  -23.0213 H   0  0  0  0  0  0  0  0  0  0  0  0
    0.5658   27.3335  -23.0213 H   0  0  0  0  0  0  0  0  0  0  0  0
    0.5215   27.3880  -26.0631 H   0  0  0  0  0  0  0  0  0  0  0  0
    0.3958   26.1699  -28.2313 H   0  0  0  0  0  0  0  0  0  0  0  0
   -1.0650   24.9270  -29.8270 H   0  0  0  0  0  0  0  0  0  0  0  0
   -2.7084   23.7833  -31.1394 H   0  0  0  0  0  0  0  0  0  0  0  0
   -1.4077   22.2895  -32.3304 H   0  0  0  0  0  0  0  0  0  0  0  0
   -0.6575   21.8639  -30.7832 H   0  0  0  0  0  0  0  0  0  0  0  0
   -2.4032   20.2387  -32.4417 H   0  0  0  0  0  0  0  0  0  0  0  0
   -1.6724   19.7770  -30.8950 H   0  0  0  0  0  0  0  0  0  0  0  0
   -4.4159   20.2273  -31.3426 H   0  0  0  0  0  0  0  0  0  0  0  0
   -3.6352   20.2192  -29.7356 H   0  0  0  0  0  0  0  0  0  0  0  0
   -4.4320   22.3110  -29.6880 H   0  0  0  0  0  0  0  0  0  0  0  0
   -7.5031   23.6463  -31.0849 H   0  0  0  0  0  0  0  0  0  0  0  0
   -9.7561   22.6371  -30.8937 H   0  0  0  0  0  0  0  0  0  0  0  0
  -10.1372   20.2737  -31.5561 H   0  0  0  0  0  0  0  0  0  0  0  0
   -9.3293   18.1921  -32.4358 H   0  0  0  0  0  0  0  0  0  0  0  0
   -7.4869   16.7935  -33.3528 H   0  0  0  0  0  0  0  0  0  0  0  0
   -5.2066   17.7533  -33.6212 H   0  0  0  0  0  0  0  0  0  0  0  0
   -4.7451   20.1052  -32.9642 H   0  0  0  0  0  0  0  0  0  0  0  0
   -3.3156   24.3247  -26.9803 H   0  0  0  0  0  0  0  0  0  0  0  0
   -3.1915   25.5450  -24.8101 H   0  0  0  0  0  0  0  0  0  0  0  0
  1  2  1  0
  2  3  1  0
  3  4  2  0
  4  5  1  0
  5  6  2  0
  6  7  1  0
  7  8  1  0
  8  9  2  0
  8 10  1  0
 10 11  1  0
 11 12  1  0
 12 13  1  0
 13 14  1  0
 14 15  1  0
 15 16  2  0
 15 17  2  0
 15 18  1  0
 18 19  2  0
 19 20  1  0
 20 21  2  0
 21 22  1  0
 22 23  2  0
 23 24  1  0
 24 25  2  0
 25 26  1  0
 26 27  2  0
  6 28  1  0
 28 29  2  0
 29  3  1  0
 14 10  1  0
 27 18  1  0
 27 22  1  0
  1 30  1  0
  1 31  1  0
  1 32  1  0
  4 33  1  0
  5 34  1  0
  7 35  1  0
 10 36  1  6
 11 37  1  0
 11 38  1  0
 12 39  1  0
 12 40  1  0
 13 41  1  0
 13 42  1  0
 14 43  1  1
 19 44  1  0
 20 45  1  0
 21 46  1  0
 23 47  1  0
 24 48  1  0
 25 49  1  0
 26 50  1  0
 28 51  1  0
 29 52  1  0
M  CHG  1  14   1
M  END
>  <UniqueID>  (5) 
5

>  <SMILES>  (5) 
COc1ccc(NC(=S)[C@H]2CCC[N@@H+]2S(=O)(=O)c2cccc3ccccc23)cc1

>  <Energy>  (5) 
72.0576799268764

>  <Genealogy>  (5) 
COc1ccc(NC(=S)C2CCC[NH+]2S(=O)(=O)c2cccc3ccccc23)cc1 (protonated)
COc1ccc(NC(=S)[C@H]2CCC[N@@H+]2S(=O)(=O)c2cccc3ccccc23)cc1 (chirality)
COc1ccc(NC(=S)[C@H]2CCC[N@@H+]2S(=O)(=O)c2cccc3ccccc23)cc1 (3D coordinates assigned)
COc1ccc(NC(=S)[C@H]2CCC[N@@H+]2S(=O)(=O)c2cccc3ccccc23)cc1 (nonaromatic ring conformer: 72.0576799268764 kcal/mol)

>  <smiles>  (5) 
COc1ccc(NC(=S)C2CCCN2S(=O)(=O)c2cccc3ccccc23)cc1

>  <score_type>  (5) 
oracle

>  <origin>  (5) 
adg

>  <m_score__min__energy>  (5) 
-9.6199999999999992

>  <m_primary>  (5) 
energy

$$$$
5:0
     RDKit          3D

 38 40  0  0  1  0  0  0  0  0999 V2000
   -5.6480   15.7200  -33.7970 C   0  0  0  0  0  0  0  0  0  0  0  0
   -6.2070   17.0420  -33.4440 C   0  0  0  0  0  0  0  0  0  0  0  0
   -5.4890   18.1780  -33.7390 C   0  0  0  0  0  0  0  0  0  0  0  0
   -6.0370   19.3980  -33.3960 C   0  0  0  0  0  0  0  0  0  0  0  0
   -5.4020   20.4780  -33.6540 N   0  0  0  0  0  0  0  0  0  0  0  0
   -4.8450   21.4010  -32.7020 C   0  0  0  0  0  0  0  0  0  0  0  0
   -5.7500   22.5640  -32.4130 C   0  0  0  0  0  0  0  0  0  0  0  0
   -5.2190   23.5180  -31.4990 N   0  0  0  0  0  0  0  0  0  0  0  0
   -4.3330   23.0150  -30.5020 C   0  0  0  0  0  0  0  0  0  0  0  0
   -3.4620   24.0790  -29.9160 C   0  0  0  0  0  0  0  0  0  0  0  0
   -3.8540   25.3190  -30.4470 O   0  0  0  0  0  0  0  0  0  0  0  0
   -5.2220   25.4190  -30.0980 C   0  0  0  0  0  0  0  0  0  0  0  0
   -6.0590   24.5520  -31.0360 C   0  0  0  0  0  0  0  0  0  0  0  0
   -7.2300   19.5060  -32.7930 N   0  0  0  0  0  0  0  0  0  0  0  0
   -7.9490   20.4970  -32.3770 N   0  0  0  0  0  0  0  0  0  0  0  0
   -9.1080   20.1060  -31.8200 C   0  0  0  0  0  0  0  0  0  0  0  0
   -9.0920   18.7200  -31.9060 C   0  0  0  0  0  0  0  0  0  0  0  0
   -7.9030   18.3770  -32.5200 C   0  0  0  0  0  0  0  0  0  0  0  0
   -7.4100   17.1540  -32.8350 N   0  0  0  0  0  0  0  0  0  0  0  0
   -5.4129   15.1639  -32.8775 H   0  0  0  0  0  0  0  0  0  0  0  0
   -6.3848   15.1563  -34.3881 H   0  0  0  0  0  0  0  0  0  0  0  0
   -4.7303   15.8559  -34.3881 H   0  0  0  0  0  0  0  0  0  0  0  0
   -4.5082   18.1161  -34.2331 H   0  0  0  0  0  0  0  0  0  0  0  0
   -4.6551   20.8626  -31.7617 H   0  0  0  0  0  0  0  0  0  0  0  0
   -3.9196   21.8050  -33.1383 H   0  0  0  0  0  0  0  0  0  0  0  0
   -5.9602   23.0788  -33.3621 H   0  0  0  0  0  0  0  0  0  0  0  0
   -6.6504   22.1467  -31.9385 H   0  0  0  0  0  0  0  0  0  0  0  0
   -4.9300   22.5647  -29.6952 H   0  0  0  0  0  0  0  0  0  0  0  0
   -3.6764   22.2751  -30.9831 H   0  0  0  0  0  0  0  0  0  0  0  0
   -3.5762   24.0911  -28.8220 H   0  0  0  0  0  0  0  0  0  0  0  0
   -2.4082   23.8805  -30.1610 H   0  0  0  0  0  0  0  0  0  0  0  0
   -5.3608   25.0758  -29.0622 H   0  0  0  0  0  0  0  0  0  0  0  0
   -5.5443   26.4669  -30.1872 H   0  0  0  0  0  0  0  0  0  0  0  0
   -6.9170   24.1278  -30.4938 H   0  0  0  0  0  0  0  0  0  0  0  0
   -6.4508   25.1456  -31.8751 H   0  0  0  0  0  0  0  0  0  0  0  0
   -9.8953   20.7431  -31.3908 H   0  0  0  0  0  0  0  0  0  0  0  0
   -9.8733   18.0302  -31.5541 H   0  0  0  0  0  0  0  0  0  0  0  0
   -7.9450   16.2820  -32.6170 H   0  0  0  0  0  0  0  0  0  0  0  0
  1  2  1  0
  2  3  2  0
  3  4  1  0
  4  5  2  0
  5  6  1  0
  6  7  1  0
  7  8  1  0
  8  9  1  0
  9 10  1  0
 10 11  1  0
 11 12  1  0
 12 13  1  0
  4 14  1  0
 14 15  1  0
 15 16  2  0
 16 17  1  0
 17 18  2  0
 18 19  1  0
 19  2  1  0
 13  8  1  0
 18 14  1  0
  1 20  1  0
  1 21  1  0
  1 22  1  0
  3 23  1  0
  6 24  1  0
  6 25  1  0
  7 26  1  0
  7 27  1  0
  9 28  1  0
  9 29  1  0
 10 30  1  0
 10 31  1  0
 12 32  1  0
 12 33  1  0
 13 34  1  0
 13 35  1  0
 16 36  1  0
 17 37  1  0
 19 38  1  0
M  END
>  <smiles>  (6) 
Cc1cc(=NCCN2CCOCC2)n2nccc2[nH]1

>  <score_type>  (6) 
oracle

>  <origin>  (6) 
adg

>  <m_score__min__energy>  (6) 
-7.6600000000000001

>  <m_primary>  (6) 
energy

$$$$
6:0
     RDKit          3D

 43 45  0  0  0  0  0  0  0  0999 V2000
    0.0210   23.3970  -28.3320 C   0  0  0  0  0  0  0  0  0  0  0  0
   -0.0900   24.5800  -27.4100 C   0  0  0  0  0  0  0  0  0  0  0  0
    0.6490   24.6080  -26.2160 C   0  0  0  0  0  0  0  0  0  0  0  0
    0.5760   25.7130  -25.3650 C   0  0  0  0  0  0  0  0  0  0  0  0
   -0.2340   26.7990  -25.6970 C   0  0  0  0  0  0  0  0  0  0  0  0
   -0.9650   26.7890  -26.8860 C   0  0  0  0  0  0  0  0  0  0  0  0
   -0.8840   25.6910  -27.7620 C   0  0  0  0  0  0  0  0  0  0  0  0
   -1.6260   25.6770  -28.9940 N   0  0  0  0  0  0  0  0  0  0  0  0
   -2.7880   24.8790  -29.2520 C   0  0  0  0  0  0  0  0  0  0  0  0
   -3.0570   23.9200  -28.4850 O   0  0  0  0  0  0  0  0  0  0  0  0
   -3.6520   25.1470  -30.3650 N   0  0  0  0  0  0  0  0  0  0  0  0
   -4.6600   24.2500  -30.8490 C   0  0  0  0  0  0  0  0  0  0  0  0
   -6.0240   24.4920  -30.6170 C   0  0  0  0  0  0  0  0  0  0  0  0
   -6.9850   23.5950  -31.0850 C   0  0  0  0  0  0  0  0  0  0  0  0
   -6.5940   22.4510  -31.7840 C   0  0  0  0  0  0  0  0  0  0  0  0
   -5.2390   22.1930  -32.0220 C   0  0  0  0  0  0  0  0  0  0  0  0
   -4.8980   21.0080  -32.6940 O   0  0  0  0  0  0  0  0  0  0  0  0
   -4.8480   19.7080  -32.1030 C   0  0  0  0  0  0  0  0  0  0  0  0
   -5.7000   18.7070  -32.8900 C   0  0  0  0  0  0  0  0  0  0  0  0
   -7.1140   18.8520  -32.5490 N   0  0  0  0  0  0  0  0  0  0  0  0
   -7.7930   18.1720  -31.6110 C   0  0  0  0  0  0  0  0  0  0  0  0
   -9.0770   18.6670  -31.5790 C   0  0  0  0  0  0  0  0  0  0  0  0
   -9.2020   19.6590  -32.4850 N   0  0  0  0  0  0  0  0  0  0  0  0
   -7.9830   19.7480  -33.0540 C   0  0  0  0  0  0  0  0  0  0  0  0
   -4.2740   23.1170  -31.5740 C   0  0  0  0  0  0  0  0  0  0  0  0
    0.1075   22.4756  -27.7374 H   0  0  0  0  0  0  0  0  0  0  0  0
   -0.8759   23.3412  -28.9665 H   0  0  0  0  0  0  0  0  0  0  0  0
    0.9126   23.5090  -28.9665 H   0  0  0  0  0  0  0  0  0  0  0  0
    1.2893   23.7542  -25.9494 H   0  0  0  0  0  0  0  0  0  0  0  0
    1.1580   25.7269  -24.4317 H   0  0  0  0  0  0  0  0  0  0  0  0
   -0.2967   27.6644  -25.0209 H   0  0  0  0  0  0  0  0  0  0  0  0
   -1.6082   27.6446  -27.1396 H   0  0  0  0  0  0  0  0  0  0  0  0
   -6.3355   25.3910  -30.0649 H   0  0  0  0  0  0  0  0  0  0  0  0
   -8.0523   23.7893  -30.9030 H   0  0  0  0  0  0  0  0  0  0  0  0
   -7.3563   21.7476  -32.1502 H   0  0  0  0  0  0  0  0  0  0  0  0
   -3.8048   19.3594  -32.0911 H   0  0  0  0  0  0  0  0  0  0  0  0
   -5.2468   19.7755  -31.0801 H   0  0  0  0  0  0  0  0  0  0  0  0
   -5.5678   18.8884  -33.9669 H   0  0  0  0  0  0  0  0  0  0  0  0
   -5.3767   17.6877  -32.6322 H   0  0  0  0  0  0  0  0  0  0  0  0
   -7.3942   17.3636  -30.9806 H   0  0  0  0  0  0  0  0  0  0  0  0
   -9.8785   18.3087  -30.9163 H   0  0  0  0  0  0  0  0  0  0  0  0
   -7.7271   20.4713  -33.8422 H   0  0  0  0  0  0  0  0  0  0  0  0
   -3.2101   22.9465  -31.7957 H   0  0  0  0  0  0  0  0  0  0  0  0
  1  2  1  0
  2  3  2  0
  3  4  1  0
  4  5  2  0
  5  6  1  0
  6  7  2  0
  7  8  1  0
  8  9  1  0
  9 10  2  0
  9 11  1  0
 11 12  1  0
 12 13  2  0
 13 14  1  0
 14 15  2  0
 15 16  1  0
 16 17  1  0
 17 18  1  0
 18 19  1  0
 19 20  1  0
 20 21  1  0
 21 22  2  0
 22 23  1  0
 23 24  2  0
 16 25  2  0
  7  2  1  0
 25 12  1  0
 24 20  1  0
  1 26  1  0
  1 27  1  0
  1 28  1  0
  3 29  1  0
  4 30  1  0
  5 31  1  0
  6 32  1  0
 13 33  1  0
 14 34  1  0
 15 35  1  0
 18 36  1  0
 18 37  1  0
 19 38  1  0
 19 39  1  0
 21 40  1  0
 22 41  1  0
 24 42  1  0
 25 43  1  0
M  CHG  2   8  -1  11  -1
M  END
>  <UniqueID>  (7) 
6

>  <SMILES>  (7) 
Cc1ccccc1[N-]C(=O)[N-]c1cccc(OCCn2ccnc2)c1

>  <Energy>  (7) 
76.24388718029952

>  <Genealogy>  (7) 
Cc1ccccc1[N-]C(=O)[N-]c1cccc(OCCn2ccnc2)c1 (protonated)
Cc1ccccc1[N-]C(=O)[N-]c1cccc(OCCn2ccnc2)c1 (3D coordinates assigned)
Cc1ccccc1[N-]C(=O)[N-]c1cccc(OCCn2ccnc2)c1 (optimized conformer: 76.24388718029952 kcal/mol)

>  <smiles>  (7) 
Cc1ccccc1NC(=O)Nc1cccc(OCCn2ccnc2)c1

>  <score_type>  (7) 
oracle

>  <origin>  (7) 
adg

>  <m_score__min__energy>  (7) 
-10.640000000000001

>  <m_primary>  (7) 
energy

$$$$
7:0
     RDKit          3D

 46 48  0  0  0  0  0  0  0  0999 V2000
   -9.1050   20.0720  -32.4530 C   0  0  0  0  0  0  0  0  0  0  0  0
   -7.9840   19.4060  -31.6540 C   0  0  0  0  0  0  0  0  0  0  0  0
   -7.3010   18.3570  -32.4470 N   0  0  0  0  0  0  0  0  0  0  0  0
   -6.4790   17.5010  -31.5600 C   0  0  0  0  0  0  0  0  0  0  0  0
   -5.6500   16.5060  -32.3710 C   0  0  0  0  0  0  0  0  0  0  0  0
   -6.4910   18.9390  -33.5510 C   0  0  0  0  0  0  0  0  0  0  0  0
   -5.3510   19.7790  -32.9770 C   0  0  0  0  0  0  0  0  0  0  0  0
   -5.5620   21.1540  -33.2850 O   0  0  0  0  0  0  0  0  0  0  0  0
   -5.6100   22.1850  -32.3360 C   0  0  0  0  0  0  0  0  0  0  0  0
   -6.7330   23.0180  -32.3240 C   0  0  0  0  0  0  0  0  0  0  0  0
   -6.8310   24.0580  -31.3980 C   0  0  0  0  0  0  0  0  0  0  0  0
   -5.8060   24.2780  -30.4750 C   0  0  0  0  0  0  0  0  0  0  0  0
   -4.6650   23.4540  -30.4680 C   0  0  0  0  0  0  0  0  0  0  0  0
   -3.5750   23.6870  -29.4870 C   0  0  0  0  0  0  0  0  0  0  0  0
   -3.2330   22.7150  -28.5940 N   0  0  0  0  0  0  0  0  0  0  0  0
   -2.2420   22.8970  -27.6840 C   0  0  0  0  0  0  0  0  0  0  0  0
   -1.9620   21.9700  -26.8790 O   0  0  0  0  0  0  0  0  0  0  0  0
   -1.5450   24.1150  -27.6530 C   0  0  0  0  0  0  0  0  0  0  0  0
   -0.5090   24.3810  -26.7450 C   0  0  0  0  0  0  0  0  0  0  0  0
    0.1380   25.6180  -26.7770 C   0  0  0  0  0  0  0  0  0  0  0  0
   -0.2560   26.5760  -27.7150 C   0  0  0  0  0  0  0  0  0  0  0  0
   -1.2620   26.3050  -28.5890 N   0  0  0  0  0  0  0  0  0  0  0  0
   -1.9090   25.1090  -28.5810 C   0  0  0  0  0  0  0  0  0  0  0  0
   -2.9090   24.8740  -29.4690 N   0  0  0  0  0  0  0  0  0  0  0  0
   -4.5760   22.4060  -31.4060 C   0  0  0  0  0  0  0  0  0  0  0  0
   -9.8396   20.5085  -31.7603 H   0  0  0  0  0  0  0  0  0  0  0  0
   -8.6821   20.8655  -33.0867 H   0  0  0  0  0  0  0  0  0  0  0  0
   -9.5996   19.3212  -33.0867 H   0  0  0  0  0  0  0  0  0  0  0  0
   -7.2484   20.1709  -31.3644 H   0  0  0  0  0  0  0  0  0  0  0  0
   -8.4276   18.9329  -30.7655 H   0  0  0  0  0  0  0  0  0  0  0  0
   -5.8018   18.1382  -30.9723 H   0  0  0  0  0  0  0  0  0  0  0  0
   -7.1515   16.9372  -30.8967 H   0  0  0  0  0  0  0  0  0  0  0  0
   -5.0987   15.8444  -31.6866 H   0  0  0  0  0  0  0  0  0  0  0  0
   -6.3173   15.9038  -33.0051 H   0  0  0  0  0  0  0  0  0  0  0  0
   -4.9372   17.0536  -33.0051 H   0  0  0  0  0  0  0  0  0  0  0  0
   -6.0723   18.1264  -34.1629 H   0  0  0  0  0  0  0  0  0  0  0  0
   -7.1345   19.5801  -34.1714 H   0  0  0  0  0  0  0  0  0  0  0  0
   -5.3167   19.6505  -31.8851 H   0  0  0  0  0  0  0  0  0  0  0  0
   -4.3991   19.4498  -33.4191 H   0  0  0  0  0  0  0  0  0  0  0  0
   -7.5440   22.8528  -33.0485 H   0  0  0  0  0  0  0  0  0  0  0  0
   -7.7192   24.7070  -31.3952 H   0  0  0  0  0  0  0  0  0  0  0  0
   -5.8910   25.1002  -29.7492 H   0  0  0  0  0  0  0  0  0  0  0  0
   -0.2079   23.6187  -26.0114 H   0  0  0  0  0  0  0  0  0  0  0  0
    0.9514   25.8366  -26.0695 H   0  0  0  0  0  0  0  0  0  0  0  0
    0.2493   27.5526  -27.7465 H   0  0  0  0  0  0  0  0  0  0  0  0
   -3.6900   21.7541  -31.4117 H   0  0  0  0  0  0  0  0  0  0  0  0
  1  2  1  0
  2  3  1  0
  3  4  1  0
  4  5  1  0
  3  6  1  0
  6  7  1  0
  7  8  1  0
  8  9  1  0
  9 10  2  0
 10 11  1  0
 11 12  2  0
 12 13  1  0
 13 14  1  0
 14 15  2  0
 15 16  1  0
 16 17  2  0
 16 18  1  0
 18 19  2  0
 19 20  1  0
 20 21  2  0
 21 22  1  0
 22 23  2  0
 23 24  1  0
 13 25  2  0
 25  9  1  0
 24 14  1  0
 23 18  1  0
  1 26  1  0
  1 27  1  0
  1 28  1  0
  2 29  1  0
  2 30  1  0
  4 31  1  0
  4 32  1  0
  5 33  1  0
  5 34  1  0
  5 35  1  0
  6 36  1  0
  6 37  1  0
  7 38  1  0
  7 39  1  0
 10 40  1  0
 11 41  1  0
 12 42  1  0
 19 43  1  0
 20 44  1  0
 21 45  1  0
 25 46  1  0
M  CHG  1  24  -1
M  END
>  <UniqueID>  (8) 
7

>  <SMILES>  (8) 
CCN(CC)CCOc1cccc(-c2nc(=O)c3cccnc3[n-]2)c1

>  <Energy>  (8) 
52.23740106190772

>  <Genealogy>  (8) 
CCN(CC)CCOc1cccc(-c2nc(=O)c3cccnc3[n-]2)c1 (protonated)
CCN(CC)CCOc1cccc(-c2nc(=O)c3cccnc3[n-]2)c1 (3D coordinates assigned)
CCN(CC)CCOc1cccc(-c2nc(=O)c3cccnc3[n-]2)c1 (optimized conformer: 52.23740106190772 kcal/mol)

>  <smiles>  (8) 
CCN(CC)CCOc1cccc(-c2nc(=O)c3cccnc3[nH]2)c1

>  <score_type>  (8) 
oracle

>  <origin>  (8) 
adg

>  <m_score__min__energy>  (8) 
-8.5999999999999996

>  <m_primary>  (8) 
energy

$$$$
8:0
     RDKit          3D

 40 42  0  0  0  0  0  0  0  0999 V2000
   -5.3530   17.4230  -34.7590 C   0  0  0  0  0  0  0  0  0  0  0  0
   -4.8820   18.7570  -34.5950 O   0  0  0  0  0  0  0  0  0  0  0  0
   -5.3840   19.6640  -33.6500 C   0  0  0  0  0  0  0  0  0  0  0  0
   -4.4770   20.4750  -32.9630 C   0  0  0  0  0  0  0  0  0  0  0  0
   -4.9230   21.3940  -32.0120 C   0  0  0  0  0  0  0  0  0  0  0  0
   -6.2960   21.5340  -31.7430 C   0  0  0  0  0  0  0  0  0  0  0  0
   -7.2200   20.7060  -32.4220 C   0  0  0  0  0  0  0  0  0  0  0  0
   -6.7580   19.7770  -33.3680 C   0  0  0  0  0  0  0  0  0  0  0  0
   -8.6920   20.7300  -32.0750 C   0  0  0  0  0  0  0  0  0  0  0  0
   -9.1030   21.9810  -31.2840 C   0  0  0  0  0  0  0  0  0  0  0  0
   -8.0920   22.2640  -30.1760 C   0  0  0  0  0  0  0  0  0  0  0  0
   -6.7770   22.4940  -30.7790 N   0  0  0  0  0  0  0  0  0  0  0  0
   -5.9320   23.9900  -30.4790 S   0  0  0  0  0  0  0  0  0  0  0  0
   -6.8400   24.9710  -29.7910 O   0  0  0  0  0  0  0  0  0  0  0  0
   -5.4850   24.5760  -31.7890 O   0  0  0  0  0  0  0  0  0  0  0  0
   -4.5470   23.7230  -29.4210 C   0  0  0  0  0  0  0  0  0  0  0  0
   -4.5680   22.6560  -28.5160 C   0  0  0  0  0  0  0  0  0  0  0  0
   -3.4710   22.4170  -27.6870 C   0  0  0  0  0  0  0  0  0  0  0  0
   -2.3440   23.2400  -27.7580 C   0  0  0  0  0  0  0  0  0  0  0  0
   -2.3050   24.3140  -28.6670 C   0  0  0  0  0  0  0  0  0  0  0  0
   -1.1120   25.1860  -28.7500 C   0  0  0  0  0  0  0  0  0  0  0  0
   -1.2310   26.4100  -29.0240 O   0  0  0  0  0  0  0  0  0  0  0  0
    0.1580   24.6660  -28.5280 O   0  0  0  0  0  0  0  0  0  0  0  0
   -3.4150   24.5470  -29.4980 C   0  0  0  0  0  0  0  0  0  0  0  0
   -5.5140   16.9669  -33.7710 H   0  0  0  0  0  0  0  0  0  0  0  0
   -6.3013   17.4349  -35.3163 H   0  0  0  0  0  0  0  0  0  0  0  0
   -4.6075   16.8368  -35.3163 H   0  0  0  0  0  0  0  0  0  0  0  0
   -3.4009   20.3883  -33.1738 H   0  0  0  0  0  0  0  0  0  0  0  0
   -4.1946   22.0137  -31.4686 H   0  0  0  0  0  0  0  0  0  0  0  0
   -7.4769   19.1314  -33.8937 H   0  0  0  0  0  0  0  0  0  0  0  0
   -9.2726   20.6995  -33.0088 H   0  0  0  0  0  0  0  0  0  0  0  0
   -8.8934   19.8569  -31.4369 H   0  0  0  0  0  0  0  0  0  0  0  0
   -9.1452   22.8434  -31.9655 H   0  0  0  0  0  0  0  0  0  0  0  0
  -10.0907   21.8092  -30.8313 H   0  0  0  0  0  0  0  0  0  0  0  0
   -8.4014   23.1573  -29.6136 H   0  0  0  0  0  0  0  0  0  0  0  0
   -8.0418   21.4056  -29.4900 H   0  0  0  0  0  0  0  0  0  0  0  0
   -5.4518   22.0036  -28.4578 H   0  0  0  0  0  0  0  0  0  0  0  0
   -3.4936   21.5783  -26.9756 H   0  0  0  0  0  0  0  0  0  0  0  0
   -1.4833   23.0477  -27.1005 H   0  0  0  0  0  0  0  0  0  0  0  0
   -3.3953   25.3819  -30.2139 H   0  0  0  0  0  0  0  0  0  0  0  0
  1  2  1  0
  2  3  1  0
  3  4  2  0
  4  5  1  0
  5  6  2  0
  6  7  1  0
  7  8  2  0
  7  9  1  0
  9 10  1  0
 10 11  1  0
 11 12  1  0
 12 13  1  0
 13 14  2  0
 13 15  2  0
 13 16  1  0
 16 17  2  0
 17 18  1  0
 18 19  2  0
 19 20  1  0
 20 21  1  0
 21 22  2  0
 21 23  1  0
 20 24  2  0
  8  3  1  0
 24 16  1  0
 12  6  1  0
  1 25  1  0
  1 26  1  0
  1 27  1  0
  4 28  1  0
  5 29  1  0
  8 30  1  0
  9 31  1  0
  9 32  1  0
 10 33  1  0
 10 34  1  0
 11 35  1  0
 11 36  1  0
 17 37  1  0
 18 38  1  0
 19 39  1  0
 24 40  1  0
M  CHG  1  23  -1
M  END
>  <UniqueID>  (9) 
8

>  <SMILES>  (9) 
COc1ccc2c(c1)CCCN2S(=O)(=O)c1cccc(C(=O)[O-])c1

>  <Energy>  (9) 
45.80353336585323

>  <Genealogy>  (9) 
COc1ccc2c(c1)CCCN2S(=O)(=O)c1cccc(C(=O)[O-])c1 (protonated)
COc1ccc2c(c1)CCCN2S(=O)(=O)c1cccc(C(=O)[O-])c1 (3D coordinates assigned)
COc1ccc2c(c1)CCCN2S(=O)(=O)c1cccc(C(=O)[O-])c1 (nonaromatic ring conformer: 45.80353336585323 kcal/mol)

>  <smiles>  (9) 
COc1ccc2c(c1)CCCN2S(=O)(=O)c1cccc(C(=O)O)c1

>  <score_type>  (9) 
oracle

>  <origin>  (9) 
adg

>  <m_score__min__energy>  (9) 
-11.01

>  <m_primary>  (9) 
energy

$$$$
9:0
     RDKit          3D

 51 53  0  0  0  0  0  0  0  0999 V2000
    3.6320   25.9740  -35.0810 C   0  0  0  0  0  0  0  0  0  0  0  0
    3.5160   24.8590  -35.9570 O   0  0  0  0  0  0  0  0  0  0  0  0
    2.5850   23.8200  -35.7980 C   0  0  0  0  0  0  0  0  0  0  0  0
    2.9620   22.5240  -35.3990 C   0  0  0  0  0  0  0  0  0  0  0  0
    1.9990   21.5220  -35.2540 C   0  0  0  0  0  0  0  0  0  0  0  0
    0.6460   21.7970  -35.5070 C   0  0  0  0  0  0  0  0  0  0  0  0
   -0.4020   20.7230  -35.3220 C   0  0  0  0  0  0  0  0  0  0  0  0
   -1.2780   20.9990  -34.1580 N   0  0  0  0  0  0  0  0  0  0  0  0
   -0.4820   21.1760  -32.9160 C   0  0  0  0  0  0  0  0  0  0  0  0
   -1.3550   21.1370  -31.6440 C   0  0  0  0  0  0  0  0  0  0  0  0
   -2.7740   21.3020  -31.9980 N   0  0  0  0  0  0  0  0  0  0  0  0
   -3.6490   21.5710  -30.8350 C   0  0  0  0  0  0  0  0  0  0  0  0
   -5.0240   22.0990  -31.2030 C   0  0  0  0  0  0  0  0  0  0  0  0
   -6.0480   21.1910  -31.5290 C   0  0  0  0  0  0  0  0  0  0  0  0
   -7.3190   21.6490  -31.8800 C   0  0  0  0  0  0  0  0  0  0  0  0
   -8.6920   20.4010  -32.3330 Br  0  0  0  0  0  0  0  0  0  0  0  0
   -7.5870   23.0180  -31.8990 C   0  0  0  0  0  0  0  0  0  0  0  0
   -6.5870   23.9320  -31.5610 C   0  0  0  0  0  0  0  0  0  0  0  0
   -5.2990   23.4850  -31.2060 C   0  0  0  0  0  0  0  0  0  0  0  0
   -4.2790   24.3830  -30.8520 O   0  0  0  0  0  0  0  0  0  0  0  0
   -3.7610   24.5440  -29.5350 C   0  0  0  0  0  0  0  0  0  0  0  0
   -3.2410   20.1820  -32.8380 C   0  0  0  0  0  0  0  0  0  0  0  0
   -2.2580   19.9030  -33.9970 C   0  0  0  0  0  0  0  0  0  0  0  0
    0.2700   23.0900  -35.8980 C   0  0  0  0  0  0  0  0  0  0  0  0
    1.2330   24.0930  -36.0450 C   0  0  0  0  0  0  0  0  0  0  0  0
    0.8490   25.3370  -36.4270 F   0  0  0  0  0  0  0  0  0  0  0  0
    3.5958   25.6262  -34.0381 H   0  0  0  0  0  0  0  0  0  0  0  0
    4.5883   26.4860  -35.2638 H   0  0  0  0  0  0  0  0  0  0  0  0
    2.8016   26.6719  -35.2638 H   0  0  0  0  0  0  0  0  0  0  0  0
    4.0202   22.2988  -35.2003 H   0  0  0  0  0  0  0  0  0  0  0  0
    2.3028   20.5125  -34.9400 H   0  0  0  0  0  0  0  0  0  0  0  0
   -1.0220   20.6713  -36.2292 H   0  0  0  0  0  0  0  0  0  0  0  0
    0.1157   19.7696  -35.1402 H   0  0  0  0  0  0  0  0  0  0  0  0
   -1.8090   21.8830  -34.3510 H   0  0  0  0  0  0  0  0  0  0  0  0
    0.2637   20.3695  -32.8570 H   0  0  0  0  0  0  0  0  0  0  0  0
   -0.0043   22.1657  -32.9633 H   0  0  0  0  0  0  0  0  0  0  0  0
   -1.2166   20.1704  -31.1375 H   0  0  0  0  0  0  0  0  0  0  0  0
   -1.0534   21.9570  -30.9756 H   0  0  0  0  0  0  0  0  0  0  0  0
   -3.7776   20.6329  -30.2751 H   0  0  0  0  0  0  0  0  0  0  0  0
   -3.1562   22.3555  -30.2419 H   0  0  0  0  0  0  0  0  0  0  0  0
   -5.8451   20.1101  -31.5071 H   0  0  0  0  0  0  0  0  0  0  0  0
   -8.5876   23.3779  -32.1807 H   0  0  0  0  0  0  0  0  0  0  0  0
   -6.8066   25.0098  -31.5720 H   0  0  0  0  0  0  0  0  0  0  0  0
   -4.5434   24.3008  -28.8010 H   0  0  0  0  0  0  0  0  0  0  0  0
   -2.9032   23.8701  -29.3934 H   0  0  0  0  0  0  0  0  0  0  0  0
   -3.4364   25.5854  -29.3934 H   0  0  0  0  0  0  0  0  0  0  0  0
   -3.3273   19.2790  -32.2159 H   0  0  0  0  0  0  0  0  0  0  0  0
   -4.2168   20.4528  -33.2674 H   0  0  0  0  0  0  0  0  0  0  0  0
   -1.7167   18.9684  -33.7884 H   0  0  0  0  0  0  0  0  0  0  0  0
   -2.8387   19.8224  -34.9277 H   0  0  0  0  0  0  0  0  0  0  0  0
   -0.7891   23.3167  -36.0903 H   0  0  0  0  0  0  0  0  0  0  0  0
  1  2  1  0
  2  3  1  0
  3  4  2  0
  4  5  1  0
  5  6  2  0
  6  7  1  0
  7  8  1  0
  8  9  1  0
  9 10  1  0
 10 11  1  0
 11 12  1  0
 12 13  1  0
 13 14  2  0
 14 15  1  0
 15 16  1  0
 15 17  2  0
 17 18  1  0
 18 19  2  0
 19 20  1  0
 20 21  1  0
 11 22  1  0
 22 23  1  0
  6 24  1  0
 24 25  2  0
 25 26  1  0
 25  3  1  0
 23  8  1  0
 19 13  1  0
  1 27  1  0
  1 28  1  0
  1 29  1  0
  4 30  1  0
  5 31  1  0
  7 32  1  0
  7 33  1  0
  8 34  1  0
  9 35  1  0
  9 36  1  0
 10 37  1  0
 10 38  1  0
 12 39  1  0
 12 40  1  0
 14 41  1  0
 17 42  1  0
 18 43  1  0
 21 44  1  0
 21 45  1  0
 21 46  1  0
 22 47  1  0
 22 48  1  0
 23 49  1  0
 23 50  1  0
 24 51  1  0
M  CHG  1   8   1
M  END
>  <UniqueID>  (10) 
9

>  <SMILES>  (10) 
COc1ccc(C[NH+]2CCN(Cc3cc(Br)ccc3OC)CC2)cc1F

>  <Energy>  (10) 
63.1103237005249

>  <Genealogy>  (10) 
COc1ccc(C[NH+]2CCN(Cc3cc(Br)ccc3OC)CC2)cc1F (protonated)
COc1ccc(C[NH+]2CCN(Cc3cc(Br)ccc3OC)CC2)cc1F (3D coordinates assigned)
COc1ccc(C[NH+]2CCN(Cc3cc(Br)ccc3OC)CC2)cc1F (nonaromatic ring conformer: 63.1103237005249 kcal/mol)

>  <smiles>  (10) 
COc1ccc(CN2CCN(Cc3cc(Br)ccc3OC)CC2)cc1F

>  <score_type>  (10) 
oracle

>  <origin>  (10) 
adg

>  <m_score__min__energy>  (10) 
-7.8300000000000001

>  <m_primary>  (10) 
energy

$$$$
10:0
     RDKit          3D

 41 43  0  0  0  0  0  0  0  0999 V2000
   -0.2527   20.5462  -33.5088 H   0  0  0  0  0  0  0  0  0  0  0  0
   -1.3410   20.5260  -33.3500 C   0  0  0  0  0  0  0  0  0  0  0  0
   -2.1000   19.4920  -33.8850 C   0  0  0  0  0  0  0  0  0  0  0  0
   -1.6086   18.6747  -34.4333 H   0  0  0  0  0  0  0  0  0  0  0  0
   -3.4830   19.4920  -33.7260 C   0  0  0  0  0  0  0  0  0  0  0  0
   -4.0844   18.6878  -34.1750 H   0  0  0  0  0  0  0  0  0  0  0  0
   -4.1160   20.5120  -32.9960 C   0  0  0  0  0  0  0  0  0  0  0  0
   -3.3460   21.5160  -32.3520 C   0  0  0  0  0  0  0  0  0  0  0  0
   -1.9560   21.5400  -32.6110 C   0  0  0  0  0  0  0  0  0  0  0  0
   -1.3484   22.3713  -32.2240 H   0  0  0  0  0  0  0  0  0  0  0  0
   -4.0260   22.4780  -31.5400 C   0  0  0  0  0  0  0  0  0  0  0  0
   -3.4650   23.1500  -30.5600 N   0  0  0  0  0  0  0  0  0  0  0  0
   -3.3770   22.9700  -29.1100 C   0  0  0  0  0  0  0  0  0  0  0  0
   -2.5877   22.2360  -28.8903 H   0  0  0  0  0  0  0  0  0  0  0  0
   -4.3561   22.6203  -28.7506 H   0  0  0  0  0  0  0  0  0  0  0  0
   -3.0470   24.2860  -28.3860 C   0  0  0  0  0  0  0  0  0  0  0  0
   -2.8671   24.0773  -27.3211 H   0  0  0  0  0  0  0  0  0  0  0  0
   -3.8959   24.9760  -28.5009 H   0  0  0  0  0  0  0  0  0  0  0  0
   -1.8400   24.9140  -28.9690 N   0  0  0  0  0  0  0  0  0  0  0  0
   -0.8500   23.8830  -29.3190 C   0  0  0  0  0  0  0  0  0  0  0  0
   -0.4325   23.4482  -28.3989 H   0  0  0  0  0  0  0  0  0  0  0  0
   -1.3366   23.0930  -29.9099 H   0  0  0  0  0  0  0  0  0  0  0  0
   -0.0409   24.3371  -29.9099 H   0  0  0  0  0  0  0  0  0  0  0  0
   -1.2390   25.8760  -28.0290 C   0  0  0  0  0  0  0  0  0  0  0  0
   -1.4400   25.5542  -26.9965 H   0  0  0  0  0  0  0  0  0  0  0  0
   -0.1524   25.9202  -28.1943 H   0  0  0  0  0  0  0  0  0  0  0  0
   -1.6758   26.8719  -28.1943 H   0  0  0  0  0  0  0  0  0  0  0  0
   -5.4380   22.5970  -31.6740 C   0  0  0  0  0  0  0  0  0  0  0  0
   -6.1860   23.6740  -31.1040 C   0  0  0  0  0  0  0  0  0  0  0  0
   -5.5530   24.8620  -30.6030 N   0  0  0  0  0  0  0  0  0  0  0  0
   -4.5800   25.3580  -31.2080 O   0  0  0  0  0  0  0  0  0  0  0  0
   -5.8440   25.3080  -29.3330 O   0  0  0  0  0  0  0  0  0  0  0  0
   -7.5900   23.6290  -31.1190 C   0  0  0  0  0  0  0  0  0  0  0  0
   -8.1642   24.4377  -30.6433 H   0  0  0  0  0  0  0  0  0  0  0  0
   -8.2630   22.5760  -31.7270 C   0  0  0  0  0  0  0  0  0  0  0  0
   -9.3627   22.5497  -31.7200 H   0  0  0  0  0  0  0  0  0  0  0  0
   -7.5480   21.5560  -32.3440 C   0  0  0  0  0  0  0  0  0  0  0  0
   -8.0875   20.7407  -32.8482 H   0  0  0  0  0  0  0  0  0  0  0  0
   -6.1450   21.5560  -32.3300 C   0  0  0  0  0  0  0  0  0  0  0  0
   -5.4740   20.5380  -32.9290 N   0  0  0  0  0  0  0  0  0  0  0  0
   -6.0180   19.7760  -33.3960 H   0  0  0  0  0  0  0  0  0  0  0  0
  1  2  1  0
  2  3  2  0
  3  4  1  0
  3  5  1  0
  5  6  1  0
  5  7  2  0
  7  8  1  0
  8  9  2  0
  9 10  1  0
  8 11  1  0
 11 12  2  0
 12 13  1  0
 13 14  1  0
 13 15  1  0
 13 16  1  0
 16 17  1  0
 16 18  1  0
 16 19  1  0
 19 20  1  0
 20 21  1  0
 20 22  1  0
 20 23  1  0
 19 24  1  0
 24 25  1  0
 24 26  1  0
 24 27  1  0
 11 28  1  0
 28 29  2  0
 29 30  1  0
 30 31  2  0
 30 32  1  0
 29 33  1  0
 33 34  1  0
 33 35  2  0
 35 36  1  0
 35 37  1  0
 37 38  1  0
 37 39  2  0
 39 40  1  0
 40 41  1  0
  9  2  1  0
 39 28  1  0
 40  7  1  0
M  CHG  2  30   1  32  -1
M  END
>  <UniqueID>  (11) 
10

>  <SMILES>  (11) 
CN(C)CC/N=c1\c2ccccc2[nH]c2cccc([N+](=O)[O-])c12

>  <Energy>  (11) 
79.49594229017872

>  <Genealogy>  (11) 
CN(C)CC/N=c1\c2ccccc2[nH]c2cccc([N+](=O)[O-])c12 (cis-trans isomerization)
CN(C)CC/N=c1\c2ccccc2[nH]c2cccc([N+](=O)[O-])c12 (3D coordinates assigned)
CN(C)CC/N=c1\c2ccccc2[nH]c2cccc([N+](=O)[O-])c12 (optimized conformer: 79.49594229017872 kcal/mol)

>  <smiles>  (11) 
CN(C)CCN=c1c2ccccc2[nH]c2cccc([N+](=O)[O-])c12

>  <score_type>  (11) 
oracle

>  <origin>  (11) 
adg

>  <m_score__min__energy>  (11) 
-7.9299999999999997

>  <m_primary>  (11) 
energy

$$$$
11:0
     RDKit          3D

 48 50  0  0  0  0  0  0  0  0999 V2000
   -6.4520   17.8060  -31.4380 C   0  0  0  0  0  0  0  0  0  0  0  0
   -7.6940   17.9130  -32.3320 C   0  0  0  0  0  0  0  0  0  0  0  0
   -8.0050   19.3190  -32.6950 N   0  0  0  0  0  0  0  0  0  0  0  0
   -9.4830   19.5580  -32.7160 C   0  0  0  0  0  0  0  0  0  0  0  0
   -9.8530   20.8960  -32.0730 C   0  0  0  0  0  0  0  0  0  0  0  0
   -7.3250   20.2380  -31.7480 C   0  0  0  0  0  0  0  0  0  0  0  0
   -6.6530   21.4270  -32.4620 C   0  0  0  0  0  0  0  0  0  0  0  0
   -5.1890   21.2300  -32.5220 N   0  0  0  0  0  0  0  0  0  0  0  0
   -4.3290   22.0830  -31.8600 C   0  0  0  0  0  0  0  0  0  0  0  0
   -4.8120   23.1940  -31.0170 C   0  0  0  0  0  0  0  0  0  0  0  0
   -5.6490   24.1790  -31.5630 C   0  0  0  0  0  0  0  0  0  0  0  0
   -6.1170   25.2240  -30.7610 C   0  0  0  0  0  0  0  0  0  0  0  0
   -5.7620   25.2850  -29.4110 C   0  0  0  0  0  0  0  0  0  0  0  0
   -4.9440   24.2950  -28.8570 C   0  0  0  0  0  0  0  0  0  0  0  0
   -4.4730   23.2460  -29.6540 C   0  0  0  0  0  0  0  0  0  0  0  0
   -3.6830   22.2910  -29.1030 F   0  0  0  0  0  0  0  0  0  0  0  0
   -2.9850   21.9300  -31.9820 N   0  0  0  0  0  0  0  0  0  0  0  0
   -2.4450   20.9500  -32.7410 C   0  0  0  0  0  0  0  0  0  0  0  0
   -1.0530   20.8240  -32.8360 C   0  0  0  0  0  0  0  0  0  0  0  0
   -0.4950   19.8150  -33.6240 C   0  0  0  0  0  0  0  0  0  0  0  0
   -1.3230   18.9310  -34.3230 C   0  0  0  0  0  0  0  0  0  0  0  0
   -2.7130   19.0530  -34.2340 C   0  0  0  0  0  0  0  0  0  0  0  0
   -3.2850   20.0650  -33.4390 C   0  0  0  0  0  0  0  0  0  0  0  0
   -4.6740   20.2350  -33.3200 C   0  0  0  0  0  0  0  0  0  0  0  0
   -5.4510   19.4670  -33.9580 O   0  0  0  0  0  0  0  0  0  0  0  0
   -6.7573   17.8323  -30.3815 H   0  0  0  0  0  0  0  0  0  0  0  0
   -5.9311   16.8597  -31.6457 H   0  0  0  0  0  0  0  0  0  0  0  0
   -5.7770   18.6493  -31.6457 H   0  0  0  0  0  0  0  0  0  0  0  0
   -7.5170   17.3400  -33.2541 H   0  0  0  0  0  0  0  0  0  0  0  0
   -8.5502   17.5124  -31.7695 H   0  0  0  0  0  0  0  0  0  0  0  0
   -7.5890   19.4910  -33.6420 H   0  0  0  0  0  0  0  0  0  0  0  0
   -9.8287   19.5575  -33.7603 H   0  0  0  0  0  0  0  0  0  0  0  0
   -9.9665   18.7565  -32.1382 H   0  0  0  0  0  0  0  0  0  0  0  0
   -9.8255   20.7966  -30.9779 H   0  0  0  0  0  0  0  0  0  0  0  0
   -9.1341   21.6661  -32.3894 H   0  0  0  0  0  0  0  0  0  0  0  0
  -10.8654   21.1873  -32.3894 H   0  0  0  0  0  0  0  0  0  0  0  0
   -8.0694   20.6275  -31.0379 H   0  0  0  0  0  0  0  0  0  0  0  0
   -6.5374   19.6671  -31.2344 H   0  0  0  0  0  0  0  0  0  0  0  0
   -7.0503   21.5076  -33.4846 H   0  0  0  0  0  0  0  0  0  0  0  0
   -6.8669   22.3483  -31.9004 H   0  0  0  0  0  0  0  0  0  0  0  0
   -5.9372   24.1288  -32.6234 H   0  0  0  0  0  0  0  0  0  0  0  0
   -6.7660   25.9997  -31.1936 H   0  0  0  0  0  0  0  0  0  0  0  0
   -6.1260   26.1120  -28.7836 H   0  0  0  0  0  0  0  0  0  0  0  0
   -4.6704   24.3412  -27.7926 H   0  0  0  0  0  0  0  0  0  0  0  0
   -0.3993   21.5200  -32.2898 H   0  0  0  0  0  0  0  0  0  0  0  0
    0.5982   19.7154  -33.6950 H   0  0  0  0  0  0  0  0  0  0  0  0
   -0.8800   18.1384  -34.9439 H   0  0  0  0  0  0  0  0  0  0  0  0
   -3.3614   18.3568  -34.7863 H   0  0  0  0  0  0  0  0  0  0  0  0
  1  2  1  0
  2  3  1  0
  3  4  1  0
  4  5  1  0
  3  6  1  0
  6  7  1  0
  7  8  1  0
  8  9  1  0
  9 10  1  0
 10 11  2  0
 11 12  1  0
 12 13  2  0
 13 14  1  0
 14 15  2  0
 15 16  1  0
  9 17  2  0
 17 18  1  0
 18 19  2  0
 19 20  1  0
 20 21  2  0
 21 22  1  0
 22 23  2  0
 23 24  1  0
 24 25  2  0
 24  8  1  0
 15 10  1  0
 23 18  1  0
  1 26  1  0
  1 27  1  0
  1 28  1  0
  2 29  1  0
  2 30  1  0
  3 31  1  0
  4 32  1  0
  4 33  1  0
  5 34  1  0
  5 35  1  0
  5 36  1  0
  6 37  1  0
  6 38  1  0
  7 39  1  0
  7 40  1  0
 11 41  1  0
 12 42  1  0
 13 43  1  0
 14 44  1  0
 19 45  1  0
 20 46  1  0
 21 47  1  0
 22 48  1  0
M  CHG  1   3   1
M  END
>  <UniqueID>  (12) 
11

>  <SMILES>  (12) 
CC[NH+](CC)CCn1c(-c2ccccc2F)nc2ccccc2c1=O

>  <Energy>  (12) 
66.78540883905869

>  <Genealogy>  (12) 
CC[NH+](CC)CCn1c(-c2ccccc2F)nc2ccccc2c1=O (protonated)
CC[NH+](CC)CCn1c(-c2ccccc2F)nc2ccccc2c1=O (3D coordinates assigned)
CC[NH+](CC)CCn1c(-c2ccccc2F)nc2ccccc2c1=O (optimized conformer: 66.78540883905869 kcal/mol)

>  <smiles>  (12) 
CCN(CC)CCn1c(-c2ccccc2F)nc2ccccc2c1=O

>  <score_type>  (12) 
oracle

>  <origin>  (12) 
adg

>  <m_score__min__energy>  (12) 
-7.0300000000000002

>  <m_primary>  (12) 
energy

$$$$
12:0
     RDKit          3D

 41 43  0  0  0  0  0  0  0  0999 V2000
   -6.6020   23.6360  -30.7510 C   0  0  0  0  0  0  0  0  0  0  0  0
   -5.4420   22.8170  -31.2440 C   0  0  0  0  0  0  0  0  0  0  0  0
   -4.0980   23.0720  -30.9580 C   0  0  0  0  0  0  0  0  0  0  0  0
   -3.5570   24.1080  -30.0570 C   0  0  0  0  0  0  0  0  0  0  0  0
   -3.4850   25.3020  -30.4560 O   0  0  0  0  0  0  0  0  0  0  0  0
   -3.0650   23.7630  -28.6820 C   0  0  0  0  0  0  0  0  0  0  0  0
   -1.7470   24.4270  -28.4250 C   0  0  0  0  0  0  0  0  0  0  0  0
   -1.5970   25.8350  -28.6130 N   0  0  0  0  0  0  0  0  0  0  0  0
   -0.7550   23.7330  -28.0750 O   0  0  0  0  0  0  0  0  0  0  0  0
   -3.3750   22.1780  -31.7270 C   0  0  0  0  0  0  0  0  0  0  0  0
   -2.0000   21.9560  -31.8190 C   0  0  0  0  0  0  0  0  0  0  0  0
   -1.5490   20.9630  -32.7040 C   0  0  0  0  0  0  0  0  0  0  0  0
    0.3220   20.6200  -32.8730 Br  0  0  0  0  0  0  0  0  0  0  0  0
   -2.4710   20.2150  -33.4650 C   0  0  0  0  0  0  0  0  0  0  0  0
   -3.8510   20.4470  -33.3430 C   0  0  0  0  0  0  0  0  0  0  0  0
   -4.2800   21.4400  -32.4510 C   0  0  0  0  0  0  0  0  0  0  0  0
   -5.5460   21.8220  -32.1690 N   0  0  0  0  0  0  0  0  0  0  0  0
   -6.7800   21.3430  -32.8080 C   0  0  0  0  0  0  0  0  0  0  0  0
   -6.8250   19.8390  -32.8010 C   0  0  0  0  0  0  0  0  0  0  0  0
   -6.4630   19.1070  -33.9460 C   0  0  0  0  0  0  0  0  0  0  0  0
   -6.4900   17.7100  -33.9270 C   0  0  0  0  0  0  0  0  0  0  0  0
   -6.8770   17.0320  -32.7690 C   0  0  0  0  0  0  0  0  0  0  0  0
   -7.2380   17.7500  -31.6260 C   0  0  0  0  0  0  0  0  0  0  0  0
   -7.2120   19.1480  -31.6400 C   0  0  0  0  0  0  0  0  0  0  0  0
   -6.6071   23.6396  -29.6510 H   0  0  0  0  0  0  0  0  0  0  0  0
   -6.5059   24.6676  -31.1206 H   0  0  0  0  0  0  0  0  0  0  0  0
   -7.5419   23.2002  -31.1206 H   0  0  0  0  0  0  0  0  0  0  0  0
   -3.7972   24.1071  -27.9367 H   0  0  0  0  0  0  0  0  0  0  0  0
   -2.9393   22.6727  -28.6077 H   0  0  0  0  0  0  0  0  0  0  0  0
   -0.6750   26.2920  -28.4400 H   0  0  0  0  0  0  0  0  0  0  0  0
   -2.3950   26.4170  -28.9510 H   0  0  0  0  0  0  0  0  0  0  0  0
   -1.2904   22.5416  -31.2160 H   0  0  0  0  0  0  0  0  0  0  0  0
   -2.1066   19.4438  -34.1596 H   0  0  0  0  0  0  0  0  0  0  0  0
   -4.5757   19.8652  -33.9315 H   0  0  0  0  0  0  0  0  0  0  0  0
   -7.6484   21.7341  -32.2577 H   0  0  0  0  0  0  0  0  0  0  0  0
   -6.8023   21.6957  -33.8497 H   0  0  0  0  0  0  0  0  0  0  0  0
   -6.1573   19.6364  -34.8605 H   0  0  0  0  0  0  0  0  0  0  0  0
   -6.2059   17.1432  -34.8259 H   0  0  0  0  0  0  0  0  0  0  0  0
   -6.8976   15.9323  -32.7567 H   0  0  0  0  0  0  0  0  0  0  0  0
   -7.5429   17.2151  -30.7145 H   0  0  0  0  0  0  0  0  0  0  0  0
   -7.4959   19.7097  -30.7378 H   0  0  0  0  0  0  0  0  0  0  0  0
  1  2  1  0
  2  3  2  0
  3  4  1  0
  4  5  2  0
  4  6  1  0
  6  7  1  0
  7  8  1  0
  7  9  2  0
  3 10  1  0
 10 11  2  0
 11 12  1  0
 12 13  1  0
 12 14  2  0
 14 15  1  0
 15 16  2  0
 16 17  1  0
 17 18  1  0
 18 19  1  0
 19 20  2  0
 20 21  1  0
 21 22  2  0
 22 23  1  0
 23 24  2  0
 17  2  1  0
 24 19  1  0
 16 10  1  0
  1 25  1  0
  1 26  1  0
  1 27  1  0
  6 28  1  0
  6 29  1  0
  8 30  1  0
  8 31  1  0
 11 32  1  0
 14 33  1  0
 15 34  1  0
 18 35  1  0
 18 36  1  0
 20 37  1  0
 21 38  1  0
 22 39  1  0
 23 40  1  0
 24 41  1  0
M  END
>  <UniqueID>  (13) 
12

>  <SMILES>  (13) 
Cc1c(C(=O)CC(N)=O)c2cc(Br)ccc2n1Cc1ccccc1

>  <Energy>  (13) 
76.86563779777836

>  <Genealogy>  (13) 
Cc1c(C(=O)CC(N)=O)c2cc(Br)ccc2n1Cc1ccccc1 (3D coordinates assigned)
Cc1c(C(=O)CC(N)=O)c2cc(Br)ccc2n1Cc1ccccc1 (optimized conformer: 76.86563779777836 kcal/mol)

>  <smiles>  (13) 
Cc1c(C(=O)CC(N)=O)c2cc(Br)ccc2n1Cc1ccccc1

>  <score_type>  (13) 
oracle

>  <origin>  (13) 
adg

>  <m_score__min__energy>  (13) 
-9.5399999999999991

>  <m_primary>  (13) 
energy

$$$$
13:0
     RDKit          3D

 33 35  0  0  0  0  0  0  0  0999 V2000
   -1.5920   25.2570  -27.6840 C   0  0  0  0  0  0  0  0  0  0  0  0
   -2.0880   25.2980  -29.0190 O   0  0  0  0  0  0  0  0  0  0  0  0
   -2.6320   24.1970  -29.6990 C   0  0  0  0  0  0  0  0  0  0  0  0
   -2.0480   22.9190  -29.6380 C   0  0  0  0  0  0  0  0  0  0  0  0
   -2.6170   21.8480  -30.3300 C   0  0  0  0  0  0  0  0  0  0  0  0
   -3.7720   22.0320  -31.1020 C   0  0  0  0  0  0  0  0  0  0  0  0
   -4.3540   20.9180  -31.8050 N   0  0  0  0  0  0  0  0  0  0  0  0
   -5.9050   20.3410  -31.5860 S   0  0  0  0  0  0  0  0  0  0  0  0
   -5.8620   19.0950  -32.6920 C   0  0  0  0  0  0  0  0  0  0  0  0
   -6.8390   18.1690  -33.0410 C   0  0  0  0  0  0  0  0  0  0  0  0
   -6.5140   17.2110  -34.0140 C   0  0  0  0  0  0  0  0  0  0  0  0
   -5.2340   17.1990  -34.6060 C   0  0  0  0  0  0  0  0  0  0  0  0
   -4.2650   18.1480  -34.2300 C   0  0  0  0  0  0  0  0  0  0  0  0
   -4.5970   19.1020  -33.2620 C   0  0  0  0  0  0  0  0  0  0  0  0
   -3.7690   20.1240  -32.7500 C   0  0  0  0  0  0  0  0  0  0  0  0
   -2.5710   20.2710  -33.1150 O   0  0  0  0  0  0  0  0  0  0  0  0
   -4.3640   23.3060  -31.1530 C   0  0  0  0  0  0  0  0  0  0  0  0
   -3.7970   24.3910  -30.4580 C   0  0  0  0  0  0  0  0  0  0  0  0
   -4.3610   25.6760  -30.4930 O   0  0  0  0  0  0  0  0  0  0  0  0
   -5.7210   25.9700  -30.1860 C   0  0  0  0  0  0  0  0  0  0  0  0
   -2.4328   25.3265  -26.9782 H   0  0  0  0  0  0  0  0  0  0  0  0
   -1.0541   24.3113  -27.5216 H   0  0  0  0  0  0  0  0  0  0  0  0
   -0.9061   26.1015  -27.5216 H   0  0  0  0  0  0  0  0  0  0  0  0
   -1.1373   22.7622  -29.0414 H   0  0  0  0  0  0  0  0  0  0  0  0
   -2.1549   20.8517  -30.2687 H   0  0  0  0  0  0  0  0  0  0  0  0
   -7.8331   18.1867  -32.5704 H   0  0  0  0  0  0  0  0  0  0  0  0
   -7.2629   16.4644  -34.3169 H   0  0  0  0  0  0  0  0  0  0  0  0
   -4.9913   16.4426  -35.3669 H   0  0  0  0  0  0  0  0  0  0  0  0
   -3.2652   18.1398  -34.6887 H   0  0  0  0  0  0  0  0  0  0  0  0
   -5.2804   23.4568  -31.7425 H   0  0  0  0  0  0  0  0  0  0  0  0
   -5.8526   25.9984  -29.0943 H   0  0  0  0  0  0  0  0  0  0  0  0
   -5.9904   26.9471  -30.6134 H   0  0  0  0  0  0  0  0  0  0  0  0
   -6.3699   25.1914  -30.6134 H   0  0  0  0  0  0  0  0  0  0  0  0
  1  2  1  0
  2  3  1  0
  3  4  2  0
  4  5  1  0
  5  6  2  0
  6  7  1  0
  7  8  1  0
  8  9  1  0
  9 10  2  0
 10 11  1  0
 11 12  2  0
 12 13  1  0
 13 14  2  0
 14 15  1  0
 15 16  2  0
  6 17  1  0
 17 18  2  0
 18 19  1  0
 19 20  1  0
 18  3  1  0
 15  7  1  0
 14  9  1  0
  1 21  1  0
  1 22  1  0
  1 23  1  0
  4 24  1  0
  5 25  1  0
 10 26  1  0
 11 27  1  0
 12 28  1  0
 13 29  1  0
 17 30  1  0
 20 31  1  0
 20 32  1  0
 20 33  1  0
M  END
>  <UniqueID>  (14) 
13

>  <SMILES>  (14) 
COc1ccc(-n2sc3ccccc3c2=O)cc1OC

>  <Energy>  (14) 
79.2562650446136

>  <Genealogy>  (14) 
COc1ccc(-n2sc3ccccc3c2=O)cc1OC (3D coordinates assigned)
COc1ccc(-n2sc3ccccc3c2=O)cc1OC (optimized conformer: 79.2562650446136 kcal/mol)

>  <smiles>  (14) 
COc1ccc(-n2sc3ccccc3c2=O)cc1OC

>  <score_type>  (14) 
oracle

>  <origin>  (14) 
adg

>  <m_score__min__energy>  (14) 
-7.5700000000000003

>  <m_primary>  (14) 
energy

$$$$
14:0
     RDKit          3D

 45 46  0  0  0  0  0  0  0  0999 V2000
   -9.4880   19.4180  -32.7060 C   0  0  0  0  0  0  0  0  0  0  0  0
   -8.4120   19.0850  -31.6730 C   0  0  0  0  0  0  0  0  0  0  0  0
   -7.0640   19.4900  -32.1310 N   0  0  0  0  0  0  0  0  0  0  0  0
   -6.2230   18.3770  -32.6460 C   0  0  0  0  0  0  0  0  0  0  0  0
   -5.9680   18.4090  -34.1620 C   0  0  0  0  0  0  0  0  0  0  0  0
   -7.1290   20.6400  -33.0600 C   0  0  0  0  0  0  0  0  0  0  0  0
   -7.1610   21.9400  -32.3000 C   0  0  0  0  0  0  0  0  0  0  0  0
   -8.2460   22.5820  -32.2610 O   0  0  0  0  0  0  0  0  0  0  0  0
   -5.9900   22.4610  -31.6310 N   0  0  0  0  0  0  0  0  0  0  0  0
   -6.1080   23.6310  -30.7450 C   0  0  0  0  0  0  0  0  0  0  0  0
   -5.2400   23.4400  -29.4970 C   0  0  0  0  0  0  0  0  0  0  0  0
   -3.8770   23.0130  -29.8460 N   0  0  0  0  0  0  0  0  0  0  0  0
   -2.8550   23.0070  -28.8290 C   0  0  0  0  0  0  0  0  0  0  0  0
   -2.6570   21.8640  -28.0350 C   0  0  0  0  0  0  0  0  0  0  0  0
   -1.6670   21.8490  -27.0500 C   0  0  0  0  0  0  0  0  0  0  0  0
   -0.8670   22.9740  -26.8430 C   0  0  0  0  0  0  0  0  0  0  0  0
   -1.0560   24.1190  -27.6210 C   0  0  0  0  0  0  0  0  0  0  0  0
   -2.0470   24.1410  -28.6100 C   0  0  0  0  0  0  0  0  0  0  0  0
   -2.2320   25.2760  -29.3280 F   0  0  0  0  0  0  0  0  0  0  0  0
   -3.5390   22.6990  -31.2400 C   0  0  0  0  0  0  0  0  0  0  0  0
   -4.6600   21.8790  -31.8890 C   0  0  0  0  0  0  0  0  0  0  0  0
  -10.4158   19.7051  -32.1895 H   0  0  0  0  0  0  0  0  0  0  0  0
   -9.1458   20.2523  -33.3360 H   0  0  0  0  0  0  0  0  0  0  0  0
   -9.6769   18.5363  -33.3360 H   0  0  0  0  0  0  0  0  0  0  0  0
   -8.6429   19.6129  -30.7360 H   0  0  0  0  0  0  0  0  0  0  0  0
   -8.4084   17.9952  -31.5232 H   0  0  0  0  0  0  0  0  0  0  0  0
   -5.2500   18.4184  -32.1345 H   0  0  0  0  0  0  0  0  0  0  0  0
   -6.7800   17.4499  -32.4454 H   0  0  0  0  0  0  0  0  0  0  0  0
   -4.8926   18.5439  -34.3502 H   0  0  0  0  0  0  0  0  0  0  0  0
   -6.3026   17.4618  -34.6102 H   0  0  0  0  0  0  0  0  0  0  0  0
   -6.5263   19.2441  -34.6102 H   0  0  0  0  0  0  0  0  0  0  0  0
   -6.2444   20.6260  -33.7137 H   0  0  0  0  0  0  0  0  0  0  0  0
   -8.0484   20.5585  -33.6584 H   0  0  0  0  0  0  0  0  0  0  0  0
   -5.7757   24.5302  -31.2845 H   0  0  0  0  0  0  0  0  0  0  0  0
   -7.1582   23.7438  -30.4377 H   0  0  0  0  0  0  0  0  0  0  0  0
   -5.1865   24.3929  -28.9501 H   0  0  0  0  0  0  0  0  0  0  0  0
   -5.6979   22.6559  -28.8761 H   0  0  0  0  0  0  0  0  0  0  0  0
   -3.2862   20.9752  -28.1906 H   0  0  0  0  0  0  0  0  0  0  0  0
   -1.5174   20.9487  -26.4360 H   0  0  0  0  0  0  0  0  0  0  0  0
   -0.0875   22.9591  -26.0670 H   0  0  0  0  0  0  0  0  0  0  0  0
   -0.4251   25.0049  -27.4563 H   0  0  0  0  0  0  0  0  0  0  0  0
   -3.4041   23.6359  -31.8003 H   0  0  0  0  0  0  0  0  0  0  0  0
   -2.6096   22.1109  -31.2585 H   0  0  0  0  0  0  0  0  0  0  0  0
   -4.4918   21.8450  -32.9755 H   0  0  0  0  0  0  0  0  0  0  0  0
   -4.6399   20.8699  -31.4517 H   0  0  0  0  0  0  0  0  0  0  0  0
  1  2  1  0
  2  3  1  0
  3  4  1  0
  4  5  1  0
  3  6  1  0
  6  7  1  0
  7  8  2  0
  7  9  1  0
  9 10  1  0
 10 11  1  0
 11 12  1  0
 12 13  1  0
 13 14  2  0
 14 15  1  0
 15 16  2  0
 16 17  1  0
 17 18  2  0
 18 19  1  0
 12 20  1  0
 20 21  1  0
 21  9  1  0
 18 13  1  0
  1 22  1  0
  1 23  1  0
  1 24  1  0
  2 25  1  0
  2 26  1  0
  4 27  1  0
  4 28  1  0
  5 29  1  0
  5 30  1  0
  5 31  1  0
  6 32  1  0
  6 33  1  0
 10 34  1  0
 10 35  1  0
 11 36  1  0
 11 37  1  0
 14 38  1  0
 15 39  1  0
 16 40  1  0
 17 41  1  0
 20 42  1  0
 20 43  1  0
 21 44  1  0
 21 45  1  0
M  END
>  <UniqueID>  (15) 
14

>  <SMILES>  (15) 
CCN(CC)CC(=O)N1CCN(c2ccccc2F)CC1

>  <Energy>  (15) 
50.212168279299114

>  <Genealogy>  (15) 
CCN(CC)CC(=O)N1CCN(c2ccccc2F)CC1 (3D coordinates assigned)
CCN(CC)CC(=O)N1CCN(c2ccccc2F)CC1 (nonaromatic ring conformer: 50.212168279299114 kcal/mol)

>  <smiles>  (15) 
CCN(CC)CC(=O)N1CCN(c2ccccc2F)CC1

>  <score_type>  (15) 
oracle

>  <origin>  (15) 
adg

>  <m_score__min__energy>  (15) 
-7.1799999999999997

>  <m_primary>  (15) 
energy

$$$$
15:0
     RDKit          3D

 57 59  0  0  0  0  0  0  0  0999 V2000
   -6.3540   17.9580  -31.6100 C   0  0  0  0  0  0  0  0  0  0  0  0
   -7.5590   18.0130  -32.5480 C   0  0  0  0  0  0  0  0  0  0  0  0
   -8.8290   18.5540  -31.8680 C   0  0  0  0  0  0  0  0  0  0  0  0
   -9.0200   20.0630  -32.0480 C   0  0  0  0  0  0  0  0  0  0  0  0
   -7.8980   20.6220  -32.7260 O   0  0  0  0  0  0  0  0  0  0  0  0
   -7.1330   21.6940  -32.2450 C   0  0  0  0  0  0  0  0  0  0  0  0
   -7.7600   22.6480  -31.4370 C   0  0  0  0  0  0  0  0  0  0  0  0
   -7.0420   23.7350  -30.9310 C   0  0  0  0  0  0  0  0  0  0  0  0
   -5.6730   23.8790  -31.2160 C   0  0  0  0  0  0  0  0  0  0  0  0
   -4.9020   25.0260  -30.6840 C   0  0  0  0  0  0  0  0  0  0  0  0
   -5.5070   26.0870  -30.3730 O   0  0  0  0  0  0  0  0  0  0  0  0
   -3.4870   24.9520  -30.4600 N   0  0  0  0  0  0  0  0  0  0  0  0
   -2.8450   24.2310  -29.4000 C   0  0  0  0  0  0  0  0  0  0  0  0
   -2.7390   22.8210  -29.4250 C   0  0  0  0  0  0  0  0  0  0  0  0
   -2.0960   22.1400  -28.3810 C   0  0  0  0  0  0  0  0  0  0  0  0
   -1.5710   22.8780  -27.3190 C   0  0  0  0  0  0  0  0  0  0  0  0
   -1.6760   24.2460  -27.2870 C   0  0  0  0  0  0  0  0  0  0  0  0
   -2.2780   24.9480  -28.3350 C   0  0  0  0  0  0  0  0  0  0  0  0
   -1.0240   24.8230  -26.0800 C   0  0  1  0  0  0  0  0  0  0  0  0
   -1.9380   25.7520  -25.2250 C   0  0  0  0  0  0  0  0  0  0  0  0
   -1.2560   26.8700  -24.5170 N   0  0  0  0  0  0  0  0  0  0  0  0
   -0.5650   27.7240  -25.5020 C   0  0  0  0  0  0  0  0  0  0  0  0
   -0.2800   26.3960  -23.5190 C   0  0  0  0  0  0  0  0  0  0  0  0
   -0.4740   23.5880  -25.3210 C   0  0  0  0  0  0  0  0  0  0  0  0
   -0.8280   22.3410  -26.1550 C   0  0  0  0  0  0  0  0  0  0  0  0
   -5.0460   22.9290  -32.0400 C   0  0  0  0  0  0  0  0  0  0  0  0
   -5.7660   21.8430  -32.5460 C   0  0  0  0  0  0  0  0  0  0  0  0
   -6.7008   17.9738  -30.5662 H   0  0  0  0  0  0  0  0  0  0  0  0
   -5.7878   17.0331  -31.7943 H   0  0  0  0  0  0  0  0  0  0  0  0
   -5.7059   18.8275  -31.7943 H   0  0  0  0  0  0  0  0  0  0  0  0
   -7.3116   18.6661  -33.3978 H   0  0  0  0  0  0  0  0  0  0  0  0
   -7.7722   16.9827  -32.8689 H   0  0  0  0  0  0  0  0  0  0  0  0
   -9.7008   18.0386  -32.2973 H   0  0  0  0  0  0  0  0  0  0  0  0
   -8.7245   18.3665  -30.7892 H   0  0  0  0  0  0  0  0  0  0  0  0
   -9.9300   20.2466  -32.6381 H   0  0  0  0  0  0  0  0  0  0  0  0
   -9.1137   20.5343  -31.0585 H   0  0  0  0  0  0  0  0  0  0  0  0
   -8.8283   22.5417  -31.1975 H   0  0  0  0  0  0  0  0  0  0  0  0
   -7.5515   24.4828  -30.3056 H   0  0  0  0  0  0  0  0  0  0  0  0
   -3.1631   22.2554  -30.2677 H   0  0  0  0  0  0  0  0  0  0  0  0
   -2.0070   21.0437  -28.3989 H   0  0  0  0  0  0  0  0  0  0  0  0
   -2.3070   26.0476  -28.3252 H   0  0  0  0  0  0  0  0  0  0  0  0
   -0.2231   25.5264  -26.3515 H   0  0  0  0  0  0  0  0  0  0  0  0
   -2.6932   26.1892  -25.8947 H   0  0  0  0  0  0  0  0  0  0  0  0
   -2.3535   25.1108  -24.4337 H   0  0  0  0  0  0  0  0  0  0  0  0
   -1.9570   27.4770  -24.0330 H   0  0  0  0  0  0  0  0  0  0  0  0
    0.0422   28.4744  -24.9746 H   0  0  0  0  0  0  0  0  0  0  0  0
    0.0872   27.1022  -26.1329 H   0  0  0  0  0  0  0  0  0  0  0  0
   -1.3092   28.2321  -26.1329 H   0  0  0  0  0  0  0  0  0  0  0  0
   -0.6688   26.5848  -22.5075 H   0  0  0  0  0  0  0  0  0  0  0  0
   -0.1138   25.3168  -23.6524 H   0  0  0  0  0  0  0  0  0  0  0  0
    0.6709   26.9327  -23.6524 H   0  0  0  0  0  0  0  0  0  0  0  0
    0.6174   23.6695  -25.2107 H   0  0  0  0  0  0  0  0  0  0  0  0
   -0.9148   23.5214  -24.3154 H   0  0  0  0  0  0  0  0  0  0  0  0
    0.0835   21.8190  -26.4816 H   0  0  0  0  0  0  0  0  0  0  0  0
   -1.4150   21.6064  -25.5842 H   0  0  0  0  0  0  0  0  0  0  0  0
   -3.9803   23.0408  -32.2888 H   0  0  0  0  0  0  0  0  0  0  0  0
   -5.2618   21.1010  -33.1826 H   0  0  0  0  0  0  0  0  0  0  0  0
  1  2  1  0
  2  3  1  0
  3  4  1  0
  4  5  1  0
  5  6  1  0
  6  7  2  0
  7  8  1  0
  8  9  2  0
  9 10  1  0
 10 11  2  0
 10 12  1  0
 12 13  1  0
 13 14  2  0
 14 15  1  0
 15 16  2  0
 16 17  1  0
 17 18  2  0
 17 19  1  0
 19 20  1  0
 20 21  1  0
 21 22  1  0
 21 23  1  0
 19 24  1  0
 24 25  1  0
  9 26  1  0
 26 27  2  0
 27  6  1  0
 18 13  1  0
 25 16  1  0
  1 28  1  0
  1 29  1  0
  1 30  1  0
  2 31  1  0
  2 32  1  0
  3 33  1  0
  3 34  1  0
  4 35  1  0
  4 36  1  0
  7 37  1  0
  8 38  1  0
 14 39  1  0
 15 40  1  0
 18 41  1  0
 19 42  1  6
 20 43  1  0
 20 44  1  0
 21 45  1  0
 22 46  1  0
 22 47  1  0
 22 48  1  0
 23 49  1  0
 23 50  1  0
 23 51  1  0
 24 52  1  0
 24 53  1  0
 25 54  1  0
 25 55  1  0
 26 56  1  0
 27 57  1  0
M  CHG  2  12  -1  21   1
M  END
>  <UniqueID>  (16) 
15

>  <SMILES>  (16) 
CCCCOc1ccc(C(=O)[N-]c2ccc3c(c2)[C@@H](C[NH+](C)C)CC3)cc1

>  <Energy>  (16) 
70.28145808694718

>  <Genealogy>  (16) 
CCCCOc1ccc(C(=O)[N-]c2ccc3c(c2)C(C[NH+](C)C)CC3)cc1 (protonated)
CCCCOc1ccc(C(=O)[N-]c2ccc3c(c2)[C@@H](C[NH+](C)C)CC3)cc1 (chirality)
CCCCOc1ccc(C(=O)[N-]c2ccc3c(c2)[C@@H](C[NH+](C)C)CC3)cc1 (3D coordinates assigned)
CCCCOc1ccc(C(=O)[N-]c2ccc3c(c2)[C@@H](C[NH+](C)C)CC3)cc1 (nonaromatic ring conformer: 70.28145808694718 kcal/mol)

>  <smiles>  (16) 
CCCCOc1ccc(C(=O)Nc2ccc3c(c2)C(CN(C)C)CC3)cc1

>  <score_type>  (16) 
oracle

>  <origin>  (16) 
adg

>  <m_score__min__energy>  (16) 
-10.869999999999999

>  <m_primary>  (16) 
energy

$$$$
16:0
     RDKit          3D

 40 41  0  0  0  0  0  0  0  0999 V2000
   -2.0770   24.8440  -28.1570 C   0  0  0  0  0  0  0  0  0  0  0  0
   -2.6920   25.2930  -29.3610 O   0  0  0  0  0  0  0  0  0  0  0  0
   -3.7550   24.6390  -30.0000 C   0  0  0  0  0  0  0  0  0  0  0  0
   -4.8940   25.3260  -30.4650 C   0  0  0  0  0  0  0  0  0  0  0  0
   -5.9310   24.6320  -31.0950 C   0  0  0  0  0  0  0  0  0  0  0  0
   -5.8440   23.2470  -31.2690 C   0  0  0  0  0  0  0  0  0  0  0  0
   -6.8540   22.5720  -31.8790 N   0  0  0  0  0  0  0  0  0  0  0  0
   -6.8060   21.2260  -32.0620 C   0  0  0  0  0  0  0  0  0  0  0  0
   -5.6970   20.4890  -31.6190 C   0  0  0  0  0  0  0  0  0  0  0  0
   -5.6650   18.9920  -31.7950 C   0  0  0  0  0  0  0  0  0  0  0  0
   -6.7910   18.5440  -32.6450 N   0  0  0  0  0  0  0  0  0  0  0  0
   -6.3550   17.4290  -33.5210 C   0  0  0  0  0  0  0  0  0  0  0  0
   -5.9030   17.9320  -34.8930 C   0  0  0  0  0  0  0  0  0  0  0  0
   -6.1980   19.2950  -35.0240 O   0  0  0  0  0  0  0  0  0  0  0  0
   -7.9800   18.1760  -31.8290 C   0  0  0  0  0  0  0  0  0  0  0  0
   -9.2070   18.9630  -32.2950 C   0  0  0  0  0  0  0  0  0  0  0  0
   -8.9020   19.7470  -33.4160 O   0  0  0  0  0  0  0  0  0  0  0  0
   -4.6420   21.1630  -30.9890 C   0  0  0  0  0  0  0  0  0  0  0  0
   -4.7070   22.5510  -30.8080 C   0  0  0  0  0  0  0  0  0  0  0  0
   -3.6700   23.2520  -30.1750 C   0  0  0  0  0  0  0  0  0  0  0  0
   -2.6266   25.2453  -27.2928 H   0  0  0  0  0  0  0  0  0  0  0  0
   -2.0943   23.7446  -28.1243 H   0  0  0  0  0  0  0  0  0  0  0  0
   -1.0352   25.1954  -28.1243 H   0  0  0  0  0  0  0  0  0  0  0  0
   -4.9676   26.4154  -30.3314 H   0  0  0  0  0  0  0  0  0  0  0  0
   -6.8169   25.1760  -31.4545 H   0  0  0  0  0  0  0  0  0  0  0  0
   -7.6410   20.7116  -32.5601 H   0  0  0  0  0  0  0  0  0  0  0  0
   -4.7159   18.7040  -32.2707 H   0  0  0  0  0  0  0  0  0  0  0  0
   -5.7548   18.5164  -30.8072 H   0  0  0  0  0  0  0  0  0  0  0  0
   -5.5167   16.9042  -33.0396 H   0  0  0  0  0  0  0  0  0  0  0  0
   -7.2104   16.7532  -33.6679 H   0  0  0  0  0  0  0  0  0  0  0  0
   -4.8182   17.7824  -34.9967 H   0  0  0  0  0  0  0  0  0  0  0  0
   -6.4333   17.3706  -35.6763 H   0  0  0  0  0  0  0  0  0  0  0  0
   -7.0890   19.4250  -34.6070 H   0  0  0  0  0  0  0  0  0  0  0  0
   -8.1763   17.0992  -31.9385 H   0  0  0  0  0  0  0  0  0  0  0  0
   -7.7793   18.4167  -30.7746 H   0  0  0  0  0  0  0  0  0  0  0  0
  -10.0095   18.2575  -32.5564 H   0  0  0  0  0  0  0  0  0  0  0  0
   -9.5296   19.6266  -31.4792 H   0  0  0  0  0  0  0  0  0  0  0  0
   -8.1100   19.3310  -33.8470 H   0  0  0  0  0  0  0  0  0  0  0  0
   -3.7634   20.6027  -30.6368 H   0  0  0  0  0  0  0  0  0  0  0  0
   -2.7843   22.7089  -29.8137 H   0  0  0  0  0  0  0  0  0  0  0  0
  1  2  1  0
  2  3  1  0
  3  4  2  0
  4  5  1  0
  5  6  2  0
  6  7  1  0
  7  8  2  0
  8  9  1  0
  9 10  1  0
 10 11  1  0
 11 12  1  0
 12 13  1  0
 13 14  1  0
 11 15  1  0
 15 16  1  0
 16 17  1  0
  9 18  2  0
 18 19  1  0
 19 20  2  0
 20  3  1  0
 19  6  1  0
  1 21  1  0
  1 22  1  0
  1 23  1  0
  4 24  1  0
  5 25  1  0
  8 26  1  0
 10 27  1  0
 10 28  1  0
 12 29  1  0
 12 30  1  0
 13 31  1  0
 13 32  1  0
 14 33  1  0
 15 34  1  0
 15 35  1  0
 16 36  1  0
 16 37  1  0
 17 38  1  0
 18 39  1  0
 20 40  1  0
M  END
>  <UniqueID>  (17) 
16

>  <SMILES>  (17) 
COc1ccc2ncc(CN(CCO)CCO)cc2c1

>  <Energy>  (17) 
41.28144532059035

>  <Genealogy>  (17) 
COc1ccc2ncc(CN(CCO)CCO)cc2c1 (3D coordinates assigned)
COc1ccc2ncc(CN(CCO)CCO)cc2c1 (optimized conformer: 41.28144532059035 kcal/mol)

>  <smiles>  (17) 
COc1ccc2ncc(CN(CCO)CCO)cc2c1

>  <score_type>  (17) 
oracle

>  <origin>  (17) 
adg

>  <m_score__min__energy>  (17) 
-6.8899999999999997

>  <m_primary>  (17) 
energy

$$$$
17:0
     RDKit          3D

 45 47  0  0  0  0  0  0  0  0999 V2000
   -6.1270   25.4110  -30.1490 C   0  0  0  0  0  0  0  0  0  0  0  0
   -6.2600   24.0340  -30.7280 C   0  0  0  0  0  0  0  0  0  0  0  0
   -7.1600   23.1130  -30.1900 C   0  0  0  0  0  0  0  0  0  0  0  0
   -7.2910   21.8860  -30.7530 N   0  0  0  0  0  0  0  0  0  0  0  0
   -6.5710   21.5230  -31.8500 C   0  0  0  0  0  0  0  0  0  0  0  0
   -6.7510   20.2060  -32.4260 N   0  0  0  0  0  0  0  0  0  0  0  0
   -7.0730   20.0410  -33.8510 C   0  0  0  0  0  0  0  0  0  0  0  0
   -6.1150   19.0290  -34.5090 C   0  0  0  0  0  0  0  0  0  0  0  0
   -5.6860   17.9220  -33.6110 N   0  0  0  0  0  0  0  0  0  0  0  0
   -4.2680   18.0340  -33.1930 C   0  0  0  0  0  0  0  0  0  0  0  0
   -3.5800   19.1790  -33.9350 C   0  0  0  0  0  0  0  0  0  0  0  0
   -3.8040   20.4140  -33.2590 O   0  0  0  0  0  0  0  0  0  0  0  0
   -3.0700   20.8580  -32.1500 C   0  0  0  0  0  0  0  0  0  0  0  0
   -1.8140   21.4850  -32.2760 C   0  0  0  0  0  0  0  0  0  0  0  0
   -1.1230   21.9090  -31.1360 C   0  0  0  0  0  0  0  0  0  0  0  0
   -1.6750   21.7120  -29.8680 C   0  0  0  0  0  0  0  0  0  0  0  0
   -2.9200   21.0910  -29.7370 C   0  0  0  0  0  0  0  0  0  0  0  0
   -3.6140   20.6660  -30.8740 C   0  0  0  0  0  0  0  0  0  0  0  0
   -6.5930   17.7340  -32.4590 C   0  0  0  0  0  0  0  0  0  0  0  0
   -6.6630   19.0000  -31.5920 C   0  0  0  0  0  0  0  0  0  0  0  0
   -5.6980   22.4200  -32.4000 N   0  0  0  0  0  0  0  0  0  0  0  0
   -5.5380   23.6600  -31.8640 C   0  0  0  0  0  0  0  0  0  0  0  0
   -6.1330   25.3491  -29.0508 H   0  0  0  0  0  0  0  0  0  0  0  0
   -5.1812   25.8606  -30.4858 H   0  0  0  0  0  0  0  0  0  0  0  0
   -6.9692   26.0333  -30.4858 H   0  0  0  0  0  0  0  0  0  0  0  0
   -7.7627   23.3820  -29.3100 H   0  0  0  0  0  0  0  0  0  0  0  0
   -8.1064   19.6769  -33.9485 H   0  0  0  0  0  0  0  0  0  0  0  0
   -6.9633   21.0128  -34.3546 H   0  0  0  0  0  0  0  0  0  0  0  0
   -6.6228   18.5894  -35.3801 H   0  0  0  0  0  0  0  0  0  0  0  0
   -5.2060   19.5853  -34.7814 H   0  0  0  0  0  0  0  0  0  0  0  0
   -4.2237   18.2257  -32.1107 H   0  0  0  0  0  0  0  0  0  0  0  0
   -3.7511   17.0932  -33.4330 H   0  0  0  0  0  0  0  0  0  0  0  0
   -2.4987   18.9825  -33.9823 H   0  0  0  0  0  0  0  0  0  0  0  0
   -3.9962   19.2473  -34.9509 H   0  0  0  0  0  0  0  0  0  0  0  0
   -1.3762   21.6413  -33.2729 H   0  0  0  0  0  0  0  0  0  0  0  0
   -0.1432   22.3984  -31.2382 H   0  0  0  0  0  0  0  0  0  0  0  0
   -1.1298   22.0456  -28.9728 H   0  0  0  0  0  0  0  0  0  0  0  0
   -3.3545   20.9364  -28.7383 H   0  0  0  0  0  0  0  0  0  0  0  0
   -4.5937   20.1777  -30.7655 H   0  0  0  0  0  0  0  0  0  0  0  0
   -7.6009   17.4983  -32.8311 H   0  0  0  0  0  0  0  0  0  0  0  0
   -6.2041   16.9110  -31.8414 H   0  0  0  0  0  0  0  0  0  0  0  0
   -7.5512   18.9444  -30.9455 H   0  0  0  0  0  0  0  0  0  0  0  0
   -5.7474   19.0599  -30.9854 H   0  0  0  0  0  0  0  0  0  0  0  0
   -5.1260   22.1750  -33.2370 H   0  0  0  0  0  0  0  0  0  0  0  0
   -4.8376   24.3708  -32.3267 H   0  0  0  0  0  0  0  0  0  0  0  0
  1  2  1  0
  2  3  2  0
  3  4  1  0
  4  5  2  0
  5  6  1  0
  6  7  1  0
  7  8  1  0
  8  9  1  0
  9 10  1  0
 10 11  1  0
 11 12  1  0
 12 13  1  0
 13 14  2  0
 14 15  1  0
 15 16  2  0
 16 17  1  0
 17 18  2  0
  9 19  1  0
 19 20  1  0
  5 21  1  0
 21 22  2  0
 22  2  1  0
 20  6  1  0
 18 13  1  0
  1 23  1  0
  1 24  1  0
  1 25  1  0
  3 26  1  0
  7 27  1  0
  7 28  1  0
  8 29  1  0
  8 30  1  0
 10 31  1  0
 10 32  1  0
 11 33  1  0
 11 34  1  0
 14 35  1  0
 15 36  1  0
 16 37  1  0
 17 38  1  0
 18 39  1  0
 19 40  1  0
 19 41  1  0
 20 42  1  0
 20 43  1  0
 21 44  1  0
 22 45  1  0
M  CHG  1  21   1
M  END
>  <UniqueID>  (18) 
17

>  <SMILES>  (18) 
Cc1cnc(N2CCN(CCOc3ccccc3)CC2)[nH+]c1

>  <Energy>  (18) 
54.60607035902907

>  <Genealogy>  (18) 
Cc1cnc(N2CCN(CCOc3ccccc3)CC2)[nH+]c1 (protonated)
Cc1cnc(N2CCN(CCOc3ccccc3)CC2)[nH+]c1 (3D coordinates assigned)
Cc1cnc(N2CCN(CCOc3ccccc3)CC2)[nH+]c1 (nonaromatic ring conformer: 54.60607035902907 kcal/mol)

>  <smiles>  (18) 
Cc1cnc(N2CCN(CCOc3ccccc3)CC2)nc1

>  <score_type>  (18) 
oracle

>  <origin>  (18) 
adg

>  <m_score__min__energy>  (18) 
-6.71

>  <m_primary>  (18) 
energy

$$$$
18:0
     RDKit          3D

 54 58  0  0  0  0  0  0  0  0999 V2000
   -3.9230   18.1160  -33.9540 O   0  0  0  0  0  0  0  0  0  0  0  0
   -3.5650   19.2910  -33.6520 C   0  0  0  0  0  0  0  0  0  0  0  0
   -2.2520   19.7090  -33.9240 C   0  0  0  0  0  0  0  0  0  0  0  0
   -1.3050   18.8670  -34.5390 C   0  0  0  0  0  0  0  0  0  0  0  0
   -0.0080   19.3330  -34.7800 C   0  0  0  0  0  0  0  0  0  0  0  0
    0.3530   20.6320  -34.4140 C   0  0  0  0  0  0  0  0  0  0  0  0
   -0.5820   21.4730  -33.8040 C   0  0  0  0  0  0  0  0  0  0  0  0
   -1.8820   21.0140  -33.5580 C   0  0  0  0  0  0  0  0  0  0  0  0
   -2.7880   21.8300  -32.9720 N   0  0  0  0  0  0  0  0  0  0  0  0
   -4.0630   21.4300  -32.7230 C   0  0  0  0  0  0  0  0  0  0  0  0
   -5.0090   22.4490  -32.1060 C   0  0  0  0  0  0  0  0  0  0  0  0
   -4.5600   22.9570  -30.7920 N   0  0  0  0  0  0  0  0  0  0  0  0
   -5.6070   23.6710  -30.0420 C   0  0  0  0  0  0  0  0  0  0  0  0
   -4.9370   24.5410  -28.9730 C   0  0  0  0  0  0  0  0  0  0  0  0
   -3.7440   23.8760  -28.4290 N   0  0  0  0  0  0  0  0  0  0  0  0
   -2.7520   24.6440  -27.7200 C   0  0  0  0  0  0  0  0  0  0  0  0
   -1.5760   25.0600  -28.3710 C   0  0  0  0  0  0  0  0  0  0  0  0
   -0.6190   25.8160  -27.6860 C   0  0  0  0  0  0  0  0  0  0  0  0
   -0.8270   26.1670  -26.3500 C   0  0  0  0  0  0  0  0  0  0  0  0
   -1.9960   25.7660  -25.6970 C   0  0  0  0  0  0  0  0  0  0  0  0
   -2.9560   25.0110  -26.3780 C   0  0  0  0  0  0  0  0  0  0  0  0
   -3.6320   22.4140  -28.5240 C   0  0  0  0  0  0  0  0  0  0  0  0
   -3.9000   21.9250  -29.9630 C   0  0  0  0  0  0  0  0  0  0  0  0
   -4.4540   20.1490  -33.0510 N   0  0  0  0  0  0  0  0  0  0  0  0
   -5.7780   19.6680  -32.7450 C   0  0  0  0  0  0  0  0  0  0  0  0
   -5.9490   18.5770  -31.8780 C   0  0  0  0  0  0  0  0  0  0  0  0
   -7.2320   18.0990  -31.5950 C   0  0  0  0  0  0  0  0  0  0  0  0
   -8.3490   18.6960  -32.1870 C   0  0  0  0  0  0  0  0  0  0  0  0
   -9.5920   18.2310  -31.9110 F   0  0  0  0  0  0  0  0  0  0  0  0
   -8.1830   19.7700  -33.0680 C   0  0  0  0  0  0  0  0  0  0  0  0
   -6.9020   20.2500  -33.3530 C   0  0  0  0  0  0  0  0  0  0  0  0
   -1.5850   17.8437  -34.8296 H   0  0  0  0  0  0  0  0  0  0  0  0
    0.7305   18.6738  -35.2596 H   0  0  0  0  0  0  0  0  0  0  0  0
    1.3741   20.9933  -34.6061 H   0  0  0  0  0  0  0  0  0  0  0  0
   -0.2966   22.4958  -33.5170 H   0  0  0  0  0  0  0  0  0  0  0  0
   -5.0992   23.3013  -32.7955 H   0  0  0  0  0  0  0  0  0  0  0  0
   -5.9694   21.9384  -31.9423 H   0  0  0  0  0  0  0  0  0  0  0  0
   -6.1856   24.3071  -30.7280 H   0  0  0  0  0  0  0  0  0  0  0  0
   -6.2867   22.9487  -29.5663 H   0  0  0  0  0  0  0  0  0  0  0  0
   -4.6413   25.5004  -29.4225 H   0  0  0  0  0  0  0  0  0  0  0  0
   -5.6525   24.7055  -28.1539 H   0  0  0  0  0  0  0  0  0  0  0  0
   -1.4084   24.7893  -29.4239 H   0  0  0  0  0  0  0  0  0  0  0  0
    0.2995   26.1348  -28.2005 H   0  0  0  0  0  0  0  0  0  0  0  0
   -0.0714   26.7585  -25.8123 H   0  0  0  0  0  0  0  0  0  0  0  0
   -2.1610   26.0448  -24.6458 H   0  0  0  0  0  0  0  0  0  0  0  0
   -3.8764   24.7023  -25.8607 H   0  0  0  0  0  0  0  0  0  0  0  0
   -2.6172   22.1120  -28.2258 H   0  0  0  0  0  0  0  0  0  0  0  0
   -4.3828   21.9636  -27.8581 H   0  0  0  0  0  0  0  0  0  0  0  0
   -2.9409   21.6562  -30.4298 H   0  0  0  0  0  0  0  0  0  0  0  0
   -4.5746   21.0581  -29.9040 H   0  0  0  0  0  0  0  0  0  0  0  0
   -5.0714   18.0971  -31.4203 H   0  0  0  0  0  0  0  0  0  0  0  0
   -7.3628   17.2519  -30.9055 H   0  0  0  0  0  0  0  0  0  0  0  0
   -9.0617   20.2370  -33.5368 H   0  0  0  0  0  0  0  0  0  0  0  0
   -6.7737   21.0864  -34.0558 H   0  0  0  0  0  0  0  0  0  0  0  0
  1  2  2  0
  2  3  1  0
  3  4  2  0
  4  5  1  0
  5  6  2  0
  6  7  1  0
  7  8  2  0
  8  9  1  0
  9 10  2  0
 10 11  1  0
 11 12  1  0
 12 13  1  0
 13 14  1  0
 14 15  1  0
 15 16  1  0
 16 17  2  0
 17 18  1  0
 18 19  2  0
 19 20  1  0
 20 21  2  0
 15 22  1  0
 22 23  1  0
 10 24  1  0
 24 25  1  0
 25 26  2  0
 26 27  1  0
 27 28  2  0
 28 29  1  0
 28 30  1  0
 30 31  2  0
 24  2  1  0
 31 25  1  0
  8  3  1  0
 23 12  1  0
 21 16  1  0
  4 32  1  0
  5 33  1  0
  6 34  1  0
  7 35  1  0
 11 36  1  0
 11 37  1  0
 13 38  1  0
 13 39  1  0
 14 40  1  0
 14 41  1  0
 17 42  1  0
 18 43  1  0
 19 44  1  0
 20 45  1  0
 21 46  1  0
 22 47  1  0
 22 48  1  0
 23 49  1  0
 23 50  1  0
 26 51  1  0
 27 52  1  0
 30 53  1  0
 31 54  1  0
M  END
>  <UniqueID>  (19) 
18

>  <SMILES>  (19) 
O=c1c2ccccc2nc(CN2CCN(c3ccccc3)CC2)n1-c1ccc(F)cc1

>  <Energy>  (19) 
87.12373228554388

>  <Genealogy>  (19) 
O=c1c2ccccc2nc(CN2CCN(c3ccccc3)CC2)n1-c1ccc(F)cc1 (3D coordinates assigned)
O=c1c2ccccc2nc(CN2CCN(c3ccccc3)CC2)n1-c1ccc(F)cc1 (nonaromatic ring conformer: 87.12373228554388 kcal/mol)

>  <smiles>  (19) 
O=c1c2ccccc2nc(CN2CCN(c3ccccc3)CC2)n1-c1ccc(F)cc1

>  <score_type>  (19) 
oracle

>  <origin>  (19) 
adg

>  <m_score__min__energy>  (19) 
-9.0700000000000003

>  <m_primary>  (19) 
energy

$$$$
19:0
     RDKit          3D

 49 51  0  0  0  0  0  0  0  0999 V2000
   -9.1170   18.1930  -31.6070 C   0  0  0  0  0  0  0  0  0  0  0  0
   -7.9140   18.6760  -32.4290 C   0  0  0  0  0  0  0  0  0  0  0  0
   -8.1620   19.9790  -33.0970 N   0  0  0  0  0  0  0  0  0  0  0  0
   -9.1050   20.8650  -32.3560 C   0  0  0  0  0  0  0  0  0  0  0  0
   -8.4960   21.6050  -31.1530 C   0  0  0  0  0  0  0  0  0  0  0  0
   -6.8790   20.6650  -33.4170 C   0  0  0  0  0  0  0  0  0  0  0  0
   -5.6290   19.8070  -33.1000 C   0  0  0  0  0  0  0  0  0  0  0  0
   -4.3320   20.6300  -32.9780 C   0  0  0  0  0  0  0  0  0  0  0  0
   -4.1500   21.1270  -31.6120 N   0  0  0  0  0  0  0  0  0  0  0  0
   -4.3540   22.5050  -31.2540 C   0  0  0  0  0  0  0  0  0  0  0  0
   -5.5240   23.1480  -31.6950 C   0  0  0  0  0  0  0  0  0  0  0  0
   -5.7780   24.4770  -31.3650 C   0  0  0  0  0  0  0  0  0  0  0  0
   -4.8740   25.1880  -30.5820 C   0  0  0  0  0  0  0  0  0  0  0  0
   -3.7010   24.5790  -30.1290 C   0  0  0  0  0  0  0  0  0  0  0  0
   -2.8530   25.2940  -29.3480 N   0  0  0  0  0  0  0  0  0  0  0  0
   -1.7040   24.7700  -28.8540 C   0  0  0  0  0  0  0  0  0  0  0  0
   -0.8750   25.5550  -28.0440 C   0  0  0  0  0  0  0  0  0  0  0  0
    0.3060   25.0200  -27.5230 C   0  0  0  0  0  0  0  0  0  0  0  0
    0.6630   23.7010  -27.8110 C   0  0  0  0  0  0  0  0  0  0  0  0
   -0.1570   22.9100  -28.6200 C   0  0  0  0  0  0  0  0  0  0  0  0
   -1.3520   23.4360  -29.1510 C   0  0  0  0  0  0  0  0  0  0  0  0
   -2.2050   22.6670  -29.9670 C   0  0  0  0  0  0  0  0  0  0  0  0
   -1.8850   21.4760  -30.2350 O   0  0  0  0  0  0  0  0  0  0  0  0
   -3.4080   23.2300  -30.4680 C   0  0  0  0  0  0  0  0  0  0  0  0
   -8.8890   18.2846  -30.5348 H   0  0  0  0  0  0  0  0  0  0  0  0
   -9.9967   18.8076  -31.8486 H   0  0  0  0  0  0  0  0  0  0  0  0
   -9.3274   17.1407  -31.8486 H   0  0  0  0  0  0  0  0  0  0  0  0
   -7.0495   18.7838  -31.7575 H   0  0  0  0  0  0  0  0  0  0  0  0
   -7.7279   17.9297  -33.2154 H   0  0  0  0  0  0  0  0  0  0  0  0
   -8.6240   19.7440  -34.0010 H   0  0  0  0  0  0  0  0  0  0  0  0
   -9.4898   21.6177  -33.0599 H   0  0  0  0  0  0  0  0  0  0  0  0
   -9.8864   20.2073  -31.9475 H   0  0  0  0  0  0  0  0  0  0  0  0
   -8.8663   21.1551  -30.2200 H   0  0  0  0  0  0  0  0  0  0  0  0
   -7.3996   21.5238  -31.1893 H   0  0  0  0  0  0  0  0  0  0  0  0
   -8.7866   22.6653  -31.1893 H   0  0  0  0  0  0  0  0  0  0  0  0
   -6.8719   20.9092  -34.4895 H   0  0  0  0  0  0  0  0  0  0  0  0
   -6.8248   21.5646  -32.7863 H   0  0  0  0  0  0  0  0  0  0  0  0
   -5.7992   19.2826  -32.1481 H   0  0  0  0  0  0  0  0  0  0  0  0
   -5.4925   19.1118  -33.9414 H   0  0  0  0  0  0  0  0  0  0  0  0
   -3.4759   19.9934  -33.2458 H   0  0  0  0  0  0  0  0  0  0  0  0
   -4.3998   21.4922  -33.6577 H   0  0  0  0  0  0  0  0  0  0  0  0
   -3.7670   20.4670  -30.8990 H   0  0  0  0  0  0  0  0  0  0  0  0
   -6.2489   22.5937  -32.3092 H   0  0  0  0  0  0  0  0  0  0  0  0
   -6.6956   24.9658  -31.7243 H   0  0  0  0  0  0  0  0  0  0  0  0
   -5.0839   26.2351  -30.3182 H   0  0  0  0  0  0  0  0  0  0  0  0
   -1.1537   26.5947  -27.8173 H   0  0  0  0  0  0  0  0  0  0  0  0
    0.9550   25.6383  -26.8855 H   0  0  0  0  0  0  0  0  0  0  0  0
    1.5935   23.2830  -27.3993 H   0  0  0  0  0  0  0  0  0  0  0  0
    0.1314   21.8722  -28.8434 H   0  0  0  0  0  0  0  0  0  0  0  0
  1  2  1  0
  2  3  1  0
  3  4  1  0
  4  5  1  0
  3  6  1  0
  6  7  1  0
  7  8  1  0
  8  9  1  0
  9 10  1  0
 10 11  2  0
 11 12  1  0
 12 13  2  0
 13 14  1  0
 14 15  1  0
 15 16  1  0
 16 17  2  0
 17 18  1  0
 18 19  2  0
 19 20  1  0
 20 21  2  0
 21 22  1  0
 22 23  2  0
 22 24  1  0
 24 10  1  0
 24 14  2  0
 21 16  1  0
  1 25  1  0
  1 26  1  0
  1 27  1  0
  2 28  1  0
  2 29  1  0
  3 30  1  0
  4 31  1  0
  4 32  1  0
  5 33  1  0
  5 34  1  0
  5 35  1  0
  6 36  1  0
  6 37  1  0
  7 38  1  0
  7 39  1  0
  8 40  1  0
  8 41  1  0
  9 42  1  0
 11 43  1  0
 12 44  1  0
 13 45  1  0
 17 46  1  0
 18 47  1  0
 19 48  1  0
 20 49  1  0
M  CHG  2   3   1  15  -1
M  END
>  <UniqueID>  (20) 
19

>  <SMILES>  (20) 
CC[NH+](CC)CCCNc1cccc2[n-]c3ccccc3c(=O)c12

>  <Energy>  (20) 
66.77248680569184

>  <Genealogy>  (20) 
CC[NH+](CC)CCCNc1cccc2[n-]c3ccccc3c(=O)c12 (protonated)
CC[NH+](CC)CCCNc1cccc2[n-]c3ccccc3c(=O)c12 (3D coordinates assigned)
CC[NH+](CC)CCCNc1cccc2[n-]c3ccccc3c(=O)c12 (optimized conformer: 66.77248680569184 kcal/mol)

>  <smiles>  (20) 
CCN(CC)CCCNc1cccc2[nH]c3ccccc3c(=O)c12

>  <score_type>  (20) 
oracle

>  <origin>  (20) 
adg

>  <m_score__min__energy>  (20) 
-8.8100000000000005

>  <m_primary>  (20) 
energy

$$$$
20:0
     RDKit          3D

 65 69  0  0  0  0  0  0  0  0999 V2000
   -6.9550   13.9400  -34.5930 C   0  0  0  0  0  0  0  0  0  0  0  0
   -5.9170   14.7380  -34.0380 O   0  0  0  0  0  0  0  0  0  0  0  0
   -5.9950   16.1250  -33.8370 C   0  0  0  0  0  0  0  0  0  0  0  0
   -6.8450   16.6900  -32.8720 C   0  0  0  0  0  0  0  0  0  0  0  0
   -6.9240   18.0800  -32.7180 C   0  0  0  0  0  0  0  0  0  0  0  0
   -6.1180   18.9190  -33.5160 C   0  0  0  0  0  0  0  0  0  0  0  0
   -5.2540   18.3520  -34.4630 C   0  0  0  0  0  0  0  0  0  0  0  0
   -5.1860   16.9560  -34.6250 C   0  0  0  0  0  0  0  0  0  0  0  0
   -4.3240   16.3560  -35.5570 O   0  0  0  0  0  0  0  0  0  0  0  0
   -3.3810   15.3360  -35.2450 C   0  0  0  0  0  0  0  0  0  0  0  0
   -6.2490   20.4270  -33.4520 C   0  0  0  0  0  0  0  0  0  0  0  0
   -7.0080   20.8870  -32.2700 N   0  0  0  0  0  0  0  0  0  0  0  0
   -7.1970   22.3630  -32.2400 C   0  0  0  0  0  0  0  0  0  0  0  0
   -6.1420   23.1530  -31.4720 C   0  0  0  0  0  0  0  0  0  0  0  0
   -6.4730   24.2920  -30.7070 C   0  0  0  0  0  0  0  0  0  0  0  0
   -5.4910   24.9870  -29.9700 C   0  0  0  0  0  0  0  0  0  0  0  0
   -4.1330   24.6020  -30.0360 C   0  0  0  0  0  0  0  0  0  0  0  0
   -3.1080   25.2590  -29.3350 O   0  0  0  0  0  0  0  0  0  0  0  0
   -2.2560   24.6280  -28.3890 C   0  0  0  0  0  0  0  0  0  0  0  0
   -3.8150   23.5290  -30.8650 C   0  0  0  0  0  0  0  0  0  0  0  0
   -2.6210   23.0530  -31.1200 O   0  0  0  0  0  0  0  0  0  0  0  0
   -2.7530   22.0730  -31.9930 C   0  0  0  0  0  0  0  0  0  0  0  0
   -1.5960   21.3460  -32.5570 C   0  0  0  0  0  0  0  0  0  0  0  0
   -0.4740   21.4850  -31.9960 O   0  0  0  0  0  0  0  0  0  0  0  0
   -1.7120   20.5350  -33.7590 N   0  0  0  0  0  0  0  0  0  0  0  0
   -2.2170   19.1830  -33.4190 C   0  0  0  0  0  0  0  0  0  0  0  0
   -1.9520   18.1990  -34.5770 C   0  0  0  0  0  0  0  0  0  0  0  0
   -0.5880   18.0890  -34.9720 O   0  0  0  0  0  0  0  0  0  0  0  0
    0.2460   19.1150  -34.4530 C   0  0  0  0  0  0  0  0  0  0  0  0
   -0.4180   20.5000  -34.4980 C   0  0  0  0  0  0  0  0  0  0  0  0
   -4.0980   21.8840  -32.3030 C   0  0  0  0  0  0  0  0  0  0  0  0
   -4.7730   22.8360  -31.5620 C   0  0  0  0  0  0  0  0  0  0  0  0
   -8.2250   20.0890  -32.0120 C   0  0  0  0  0  0  0  0  0  0  0  0
   -7.8220   18.6610  -31.6570 C   0  0  0  0  0  0  0  0  0  0  0  0
   -7.5435   13.4876  -33.7813 H   0  0  0  0  0  0  0  0  0  0  0  0
   -7.6096   14.5696  -35.2135 H   0  0  0  0  0  0  0  0  0  0  0  0
   -6.5148   13.1455  -35.2135 H   0  0  0  0  0  0  0  0  0  0  0  0
   -7.4540   16.0351  -32.2315 H   0  0  0  0  0  0  0  0  0  0  0  0
   -4.6235   19.0043  -35.0851 H   0  0  0  0  0  0  0  0  0  0  0  0
   -3.2924   15.2402  -34.1528 H   0  0  0  0  0  0  0  0  0  0  0  0
   -3.7205   14.3802  -35.6706 H   0  0  0  0  0  0  0  0  0  0  0  0
   -2.4015   15.5996  -35.6706 H   0  0  0  0  0  0  0  0  0  0  0  0
   -5.2411   20.8660  -33.4149 H   0  0  0  0  0  0  0  0  0  0  0  0
   -6.8022   20.7493  -34.3465 H   0  0  0  0  0  0  0  0  0  0  0  0
   -7.1986   22.7240  -33.2791 H   0  0  0  0  0  0  0  0  0  0  0  0
   -8.1436   22.5317  -31.7056 H   0  0  0  0  0  0  0  0  0  0  0  0
   -7.5149   24.6440  -30.6850 H   0  0  0  0  0  0  0  0  0  0  0  0
   -5.7856   25.8374  -29.3375 H   0  0  0  0  0  0  0  0  0  0  0  0
   -2.5910   24.8761  -27.3711 H   0  0  0  0  0  0  0  0  0  0  0  0
   -2.2932   23.5379  -28.5318 H   0  0  0  0  0  0  0  0  0  0  0  0
   -1.2242   24.9815  -28.5318 H   0  0  0  0  0  0  0  0  0  0  0  0
   -2.4130   20.9660  -34.4010 H   0  0  0  0  0  0  0  0  0  0  0  0
   -1.7058   18.8229  -32.5141 H   0  0  0  0  0  0  0  0  0  0  0  0
   -3.3014   19.2424  -33.2444 H   0  0  0  0  0  0  0  0  0  0  0  0
   -2.2984   17.2028  -34.2646 H   0  0  0  0  0  0  0  0  0  0  0  0
   -2.4938   18.5958  -35.4482 H   0  0  0  0  0  0  0  0  0  0  0  0
    0.4891   18.8753  -33.4073 H   0  0  0  0  0  0  0  0  0  0  0  0
    1.1479   19.1589  -35.0812 H   0  0  0  0  0  0  0  0  0  0  0  0
    0.2659   21.2343  -34.0474 H   0  0  0  0  0  0  0  0  0  0  0  0
   -0.6274   20.7371  -35.5515 H   0  0  0  0  0  0  0  0  0  0  0  0
   -4.5291   21.1393  -32.9883 H   0  0  0  0  0  0  0  0  0  0  0  0
   -8.7851   20.5321  -31.1754 H   0  0  0  0  0  0  0  0  0  0  0  0
   -8.8597   20.0816  -32.9104 H   0  0  0  0  0  0  0  0  0  0  0  0
   -7.2882   18.6653  -30.6952 H   0  0  0  0  0  0  0  0  0  0  0  0
   -8.7306   18.0448  -31.5874 H   0  0  0  0  0  0  0  0  0  0  0  0
  1  2  1  0
  2  3  1  0
  3  4  2  0
  4  5  1  0
  5  6  2  0
  6  7  1  0
  7  8  2  0
  8  9  1  0
  9 10  1  0
  6 11  1  0
 11 12  1  0
 12 13  1  0
 13 14  1  0
 14 15  2  0
 15 16  1  0
 16 17  2  0
 17 18  1  0
 18 19  1  0
 17 20  1  0
 20 21  1  0
 21 22  1  0
 22 23  1  0
 23 24  2  0
 23 25  1  0
 25 26  1  0
 26 27  1  0
 27 28  1  0
 28 29  1  0
 29 30  1  0
 22 31  2  0
 31 32  1  0
 12 33  1  0
 33 34  1  0
  8  3  1  0
 32 14  1  0
 34  5  1  0
 32 20  2  0
 30 25  1  0
  1 35  1  0
  1 36  1  0
  1 37  1  0
  4 38  1  0
  7 39  1  0
 10 40  1  0
 10 41  1  0
 10 42  1  0
 11 43  1  0
 11 44  1  0
 13 45  1  0
 13 46  1  0
 15 47  1  0
 16 48  1  0
 19 49  1  0
 19 50  1  0
 19 51  1  0
 25 52  1  0
 26 53  1  0
 26 54  1  0
 27 55  1  0
 27 56  1  0
 29 57  1  0
 29 58  1  0
 30 59  1  0
 30 60  1  0
 31 61  1  0
 33 62  1  0
 33 63  1  0
 34 64  1  0
 34 65  1  0
M  CHG  1  25   1
M  END
>  <UniqueID>  (21) 
20

>  <SMILES>  (21) 
COc1cc2c(cc1OC)CN(Cc1ccc(OC)c3oc(C(=O)[NH+]4CCOCC4)cc13)CC2

>  <Energy>  (21) 
130.71736749894401

>  <Genealogy>  (21) 
COc1cc2c(cc1OC)CN(Cc1ccc(OC)c3oc(C(=O)[NH+]4CCOCC4)cc13)CC2 (protonated)
COc1cc2c(cc1OC)CN(Cc1ccc(OC)c3oc(C(=O)[NH+]4CCOCC4)cc13)CC2 (3D coordinates assigned)
COc1cc2c(cc1OC)CN(Cc1ccc(OC)c3oc(C(=O)[NH+]4CCOCC4)cc13)CC2 (nonaromatic ring conformer: 130.71736749894401 kcal/mol)

>  <smiles>  (21) 
COc1cc2c(cc1OC)CN(Cc1ccc(OC)c3oc(C(=O)N4CCOCC4)cc13)CC2

>  <score_type>  (21) 
oracle

>  <origin>  (21) 
adg

>  <m_score__min__energy>  (21) 
-9.0999999999999996

>  <m_primary>  (21) 
energy

$$$$
21:0
     RDKit          3D

 54 57  0  0  0  0  0  0  0  0999 V2000
   -8.9530   18.5790  -31.9800 C   0  0  0  0  0  0  0  0  0  0  0  0
   -9.4170   20.0310  -31.9930 C   0  0  0  0  0  0  0  0  0  0  0  0
   -8.2370   20.9670  -31.9490 C   0  0  0  0  0  0  0  0  0  0  0  0
   -8.4100   22.3400  -32.1340 C   0  0  0  0  0  0  0  0  0  0  0  0
   -7.3540   23.1820  -32.0060 N   0  0  0  0  0  0  0  0  0  0  0  0
   -6.0890   22.7500  -31.7460 C   0  0  0  0  0  0  0  0  0  0  0  0
   -5.8470   21.3460  -31.7010 C   0  0  0  0  0  0  0  0  0  0  0  0
   -6.9480   20.4790  -31.7110 C   0  0  0  0  0  0  0  0  0  0  0  0
   -4.6670   20.8030  -31.7940 N   0  0  0  0  0  0  0  0  0  0  0  0
   -3.4230   21.4750  -32.1320 C   0  0  0  0  0  0  0  0  0  0  0  0
   -3.0530   22.4700  -31.0890 C   0  0  0  0  0  0  0  0  0  0  0  0
   -1.8010   22.4000  -30.4590 C   0  0  0  0  0  0  0  0  0  0  0  0
   -1.3820   23.4020  -29.5620 C   0  0  0  0  0  0  0  0  0  0  0  0
   -0.1570   23.3030  -28.8870 O   0  0  0  0  0  0  0  0  0  0  0  0
    0.2040   22.2530  -27.9950 C   0  0  0  0  0  0  0  0  0  0  0  0
   -2.2290   24.5130  -29.3340 C   0  0  0  0  0  0  0  0  0  0  0  0
   -1.9030   25.5960  -28.4950 O   0  0  0  0  0  0  0  0  0  0  0  0
   -0.8870   25.6430  -27.4870 C   0  0  2  0  0  0  0  0  0  0  0  0
   -1.3530   24.8010  -26.2820 C   0  0  0  0  0  0  0  0  0  0  0  0
   -2.1500   25.6540  -25.2840 C   0  0  0  0  0  0  0  0  0  0  0  0
   -1.3470   26.7790  -24.7230 N   0  0  1  0  0  0  0  0  0  0  0  0
   -0.8300   26.4410  -23.3850 C   0  0  0  0  0  0  0  0  0  0  0  0
   -0.2320   27.2210  -25.5990 C   0  0  0  0  0  0  0  0  0  0  0  0
   -0.5990   27.1110  -27.0850 C   0  0  0  0  0  0  0  0  0  0  0  0
   -3.4810   24.5570  -29.9550 C   0  0  0  0  0  0  0  0  0  0  0  0
   -3.9100   23.5410  -30.8150 C   0  0  0  0  0  0  0  0  0  0  0  0
   -5.2260   23.6590  -31.3830 N   0  0  0  0  0  0  0  0  0  0  0  0
   -8.8441   18.2382  -30.9398 H   0  0  0  0  0  0  0  0  0  0  0  0
   -9.6956   17.9521  -32.4954 H   0  0  0  0  0  0  0  0  0  0  0  0
   -7.9845   18.4989  -32.4954 H   0  0  0  0  0  0  0  0  0  0  0  0
   -9.9924   20.2181  -32.9116 H   0  0  0  0  0  0  0  0  0  0  0  0
  -10.0440   20.2101  -31.1071 H   0  0  0  0  0  0  0  0  0  0  0  0
   -9.4039   22.7396  -32.3839 H   0  0  0  0  0  0  0  0  0  0  0  0
   -6.7970   19.4046  -31.5300 H   0  0  0  0  0  0  0  0  0  0  0  0
   -2.6212   20.7266  -32.2155 H   0  0  0  0  0  0  0  0  0  0  0  0
   -3.5587   22.0032  -33.0873 H   0  0  0  0  0  0  0  0  0  0  0  0
   -1.1362   21.5491  -30.6690 H   0  0  0  0  0  0  0  0  0  0  0  0
    0.0858   22.5969  -26.9569 H   0  0  0  0  0  0  0  0  0  0  0  0
   -0.4468   21.3835  -28.1696 H   0  0  0  0  0  0  0  0  0  0  0  0
    1.2519   21.9676  -28.1696 H   0  0  0  0  0  0  0  0  0  0  0  0
    0.0542   25.2226  -27.8711 H   0  0  0  0  0  0  0  0  0  0  0  0
   -1.9910   23.9807  -26.6426 H   0  0  0  0  0  0  0  0  0  0  0  0
   -0.4642   24.4043  -25.7695 H   0  0  0  0  0  0  0  0  0  0  0  0
   -3.0284   26.0703  -25.7989 H   0  0  0  0  0  0  0  0  0  0  0  0
   -2.4419   25.0026  -24.4470 H   0  0  0  0  0  0  0  0  0  0  0  0
   -1.9940   27.5940  -24.5990 H   0  0  0  0  0  0  0  0  0  0  0  0
   -1.4895   26.8722  -22.6174 H   0  0  0  0  0  0  0  0  0  0  0  0
   -0.7988   25.3475  -23.2694 H   0  0  0  0  0  0  0  0  0  0  0  0
    0.1842   26.8510  -23.2694 H   0  0  0  0  0  0  0  0  0  0  0  0
    0.0087   28.2692  -25.3680 H   0  0  0  0  0  0  0  0  0  0  0  0
    0.6321   26.5670  -25.4101 H   0  0  0  0  0  0  0  0  0  0  0  0
   -1.4958   27.7179  -27.2784 H   0  0  0  0  0  0  0  0  0  0  0  0
    0.2521   27.4732  -27.6803 H   0  0  0  0  0  0  0  0  0  0  0  0
   -4.1453   25.4123  -29.7623 H   0  0  0  0  0  0  0  0  0  0  0  0
  1  2  1  0
  2  3  1  0
  3  4  1  0
  4  5  2  0
  5  6  1  0
  6  7  1  0
  7  8  1  0
  7  9  2  0
  9 10  1  0
 10 11  1  0
 11 12  2  0
 12 13  1  0
 13 14  1  0
 14 15  1  0
 13 16  2  0
 16 17  1  0
 17 18  1  0
 18 19  1  0
 19 20  1  0
 20 21  1  0
 21 22  1  0
 21 23  1  0
 23 24  1  0
 16 25  1  0
 25 26  2  0
 26 27  1  0
  8  3  2  0
 26 11  1  0
 27  6  2  0
 24 18  1  0
  1 28  1  0
  1 29  1  0
  1 30  1  0
  2 31  1  0
  2 32  1  0
  4 33  1  0
  8 34  1  0
 10 35  1  0
 10 36  1  0
 12 37  1  0
 15 38  1  0
 15 39  1  0
 15 40  1  0
 18 41  1  6
 19 42  1  0
 19 43  1  0
 20 44  1  0
 20 45  1  0
 21 46  1  1
 22 47  1  0
 22 48  1  0
 22 49  1  0
 23 50  1  0
 23 51  1  0
 24 52  1  0
 24 53  1  0
 25 54  1  0
M  CHG  1  21   1
M  END
>  <UniqueID>  (22) 
21

>  <SMILES>  (22) 
CCc1cnc2c(c1)=NCc1cc(OC)c(OC3CC[NH+](C)CC3)cc1N=2

>  <Energy>  (22) 
86.67023048478967

>  <Genealogy>  (22) 
CCc1cnc2c(c1)=NCc1cc(OC)c(OC3CC[NH+](C)CC3)cc1N=2 (protonated)
CCc1cnc2c(c1)=NCc1cc(OC)c(OC3CC[NH+](C)CC3)cc1N=2 (3D coordinates assigned)
CCc1cnc2c(c1)=NCc1cc(OC)c(OC3CC[NH+](C)CC3)cc1N=2 (nonaromatic ring conformer: 86.67023048478967 kcal/mol)

>  <smiles>  (22) 
CCc1cnc2c(c1)=NCc1cc(OC)c(OC3CCN(C)CC3)cc1N=2

>  <score_type>  (22) 
oracle

>  <origin>  (22) 
adg

>  <m_score__min__energy>  (22) 
-8.6099999999999994

>  <m_primary>  (22) 
energy

$$$$
22:0
     RDKit          3D

 31 32  0  0  0  0  0  0  0  0999 V2000
   -6.4060   17.6540  -33.8530 C   0  0  0  0  0  0  0  0  0  0  0  0
   -5.7560   18.8990  -34.4450 C   0  0  0  0  0  0  0  0  0  0  0  0
   -5.7040   19.9770  -33.4440 N   0  0  0  0  0  0  0  0  0  0  0  0
   -6.8350   20.2910  -32.7450 C   0  0  0  0  0  0  0  0  0  0  0  0
   -6.8190   21.2900  -31.7710 C   0  0  0  0  0  0  0  0  0  0  0  0
   -8.4570   21.7550  -30.8950 Br  0  0  0  0  0  0  0  0  0  0  0  0
   -5.6100   21.9530  -31.5160 C   0  0  0  0  0  0  0  0  0  0  0  0
   -5.5110   22.9820  -30.5180 N   0  0  0  0  0  0  0  0  0  0  0  0
   -4.3650   23.0030  -29.6000 C   0  0  0  0  0  0  0  0  0  0  0  0
   -3.9660   24.4490  -29.2680 C   0  0  0  0  0  0  0  0  0  0  0  0
   -4.0740   25.2980  -30.4620 N   0  0  0  0  0  0  0  0  0  0  0  0
   -5.4630   25.4140  -30.9510 C   0  0  0  0  0  0  0  0  0  0  0  0
   -6.3390   24.1850  -30.6340 C   0  0  0  0  0  0  0  0  0  0  0  0
   -4.5050   21.6130  -32.2280 N   0  0  0  0  0  0  0  0  0  0  0  0
   -4.5360   20.6390  -33.1750 C   0  0  0  0  0  0  0  0  0  0  0  0
   -3.4740   20.3560  -33.7940 O   0  0  0  0  0  0  0  0  0  0  0  0
   -6.3759   17.7116  -32.7549 H   0  0  0  0  0  0  0  0  0  0  0  0
   -7.4518   17.5916  -34.1884 H   0  0  0  0  0  0  0  0  0  0  0  0
   -5.8594   16.7603  -34.1884 H   0  0  0  0  0  0  0  0  0  0  0  0
   -4.7332   18.6549  -34.7681 H   0  0  0  0  0  0  0  0  0  0  0  0
   -6.3532   19.2387  -35.3040 H   0  0  0  0  0  0  0  0  0  0  0  0
   -7.7698   19.7496  -32.9526 H   0  0  0  0  0  0  0  0  0  0  0  0
   -4.6361   22.4802  -28.6709 H   0  0  0  0  0  0  0  0  0  0  0  0
   -3.5135   22.5017  -30.0834 H   0  0  0  0  0  0  0  0  0  0  0  0
   -4.6334   24.8383  -28.4851 H   0  0  0  0  0  0  0  0  0  0  0  0
   -2.9238   24.4594  -28.9164 H   0  0  0  0  0  0  0  0  0  0  0  0
   -3.4820   24.8820  -31.2190 H   0  0  0  0  0  0  0  0  0  0  0  0
   -5.9226   26.2974  -30.4836 H   0  0  0  0  0  0  0  0  0  0  0  0
   -5.4111   25.4965  -32.0467 H   0  0  0  0  0  0  0  0  0  0  0  0
   -6.8687   24.3530  -29.6847 H   0  0  0  0  0  0  0  0  0  0  0  0
   -7.0617   24.0425  -31.4509 H   0  0  0  0  0  0  0  0  0  0  0  0
  1  2  1  0
  2  3  1  0
  3  4  1  0
  4  5  2  0
  5  6  1  0
  5  7  1  0
  7  8  1  0
  8  9  1  0
  9 10  1  0
 10 11  1  0
 11 12  1  0
 12 13  1  0
  7 14  2  0
 14 15  1  0
 15 16  2  0
 15  3  1  0
 13  8  1  0
  1 17  1  0
  1 18  1  0
  1 19  1  0
  2 20  1  0
  2 21  1  0
  4 22  1  0
  9 23  1  0
  9 24  1  0
 10 25  1  0
 10 26  1  0
 11 27  1  0
 12 28  1  0
 12 29  1  0
 13 30  1  0
 13 31  1  0
M  END
>  <UniqueID>  (23) 
22

>  <SMILES>  (23) 
CCn1cc(Br)c(N2CCNCC2)nc1=O

>  <Energy>  (23) 
40.15008152384224

>  <Genealogy>  (23) 
CCn1cc(Br)c(N2CCNCC2)nc1=O (3D coordinates assigned)
CCn1cc(Br)c(N2CCNCC2)nc1=O (nonaromatic ring conformer: 40.15008152384224 kcal/mol)

>  <smiles>  (23) 
CCn1cc(Br)c(N2CCNCC2)nc1=O

>  <score_type>  (23) 
oracle

>  <origin>  (23) 
adg

>  <m_score__min__energy>  (23) 
-6.9800000000000004

>  <m_primary>  (23) 
energy

$$$$
23:0
     RDKit          3D

 55 57  0  0  0  0  0  0  0  0999 V2000
   -5.9610   15.7730  -34.1430 C   0  0  0  0  0  0  0  0  0  0  0  0
   -5.9370   16.9910  -33.3140 N   0  0  0  0  0  0  0  0  0  0  0  0
   -7.2730   17.2450  -32.7450 C   0  0  0  0  0  0  0  0  0  0  0  0
   -7.2200   18.4690  -31.8310 C   0  0  0  0  0  0  0  0  0  0  0  0
   -6.6420   19.6220  -32.5330 N   0  0  0  0  0  0  0  0  0  0  0  0
   -6.7670   20.9390  -31.9540 C   0  0  0  0  0  0  0  0  0  0  0  0
   -7.6280   21.1620  -30.8640 C   0  0  0  0  0  0  0  0  0  0  0  0
   -7.7290   22.4320  -30.2880 C   0  0  0  0  0  0  0  0  0  0  0  0
   -6.9820   23.5040  -30.8030 C   0  0  0  0  0  0  0  0  0  0  0  0
   -7.0560   24.8610  -30.1550 C   0  0  0  0  0  0  0  0  0  0  0  0
   -5.7750   25.6570  -30.4250 C   0  0  0  0  0  0  0  0  0  0  0  0
   -4.5850   24.9570  -29.8360 C   0  0  0  0  0  0  0  0  0  0  0  0
   -3.4950   24.9500  -30.4720 O   0  0  0  0  0  0  0  0  0  0  0  0
   -4.6790   24.3380  -28.5410 N   0  0  0  0  0  0  0  0  0  0  0  0
   -3.5670   23.6110  -27.9320 C   0  0  0  0  0  0  0  0  0  0  0  0
   -3.6800   22.1090  -28.2210 C   0  0  0  0  0  0  0  0  0  0  0  0
   -3.0620   21.7770  -29.5530 C   0  0  0  0  0  0  0  0  0  0  0  0
   -1.7850   22.2690  -29.8830 C   0  0  0  0  0  0  0  0  0  0  0  0
   -1.1990   21.9360  -31.1080 C   0  0  0  0  0  0  0  0  0  0  0  0
   -1.8780   21.1050  -32.0070 C   0  0  0  0  0  0  0  0  0  0  0  0
   -3.1410   20.6000  -31.6790 C   0  0  0  0  0  0  0  0  0  0  0  0
   -3.7310   20.9290  -30.4550 C   0  0  0  0  0  0  0  0  0  0  0  0
   -6.1170   23.2840  -31.8860 C   0  0  0  0  0  0  0  0  0  0  0  0
   -6.0110   22.0120  -32.4570 C   0  0  0  0  0  0  0  0  0  0  0  0
   -6.1610   19.4580  -33.9100 C   0  0  0  0  0  0  0  0  0  0  0  0
   -5.3680   18.1460  -34.0660 C   0  0  0  0  0  0  0  0  0  0  0  0
   -5.9785   14.8866  -33.4919 H   0  0  0  0  0  0  0  0  0  0  0  0
   -6.8592   15.7793  -34.7780 H   0  0  0  0  0  0  0  0  0  0  0  0
   -5.0633   15.7439  -34.7780 H   0  0  0  0  0  0  0  0  0  0  0  0
   -7.9887   17.4281  -33.5600 H   0  0  0  0  0  0  0  0  0  0  0  0
   -7.5930   16.3688  -32.1620 H   0  0  0  0  0  0  0  0  0  0  0  0
   -8.2403   18.7199  -31.5054 H   0  0  0  0  0  0  0  0  0  0  0  0
   -6.5872   18.2325  -30.9629 H   0  0  0  0  0  0  0  0  0  0  0  0
   -8.2262   20.3310  -30.4619 H   0  0  0  0  0  0  0  0  0  0  0  0
   -8.3961   22.5921  -29.4282 H   0  0  0  0  0  0  0  0  0  0  0  0
   -7.9164   25.4108  -30.5642 H   0  0  0  0  0  0  0  0  0  0  0  0
   -7.1703   24.7300  -29.0688 H   0  0  0  0  0  0  0  0  0  0  0  0
   -5.6341   25.7580  -31.5113 H   0  0  0  0  0  0  0  0  0  0  0  0
   -5.8691   26.6494  -29.9600 H   0  0  0  0  0  0  0  0  0  0  0  0
   -5.5580   24.4500  -27.9850 H   0  0  0  0  0  0  0  0  0  0  0  0
   -2.6196   23.9881  -28.3446 H   0  0  0  0  0  0  0  0  0  0  0  0
   -3.5967   23.7655  -26.8433 H   0  0  0  0  0  0  0  0  0  0  0  0
   -3.1585   21.5487  -27.4310 H   0  0  0  0  0  0  0  0  0  0  0  0
   -4.7443   21.8319  -28.2453 H   0  0  0  0  0  0  0  0  0  0  0  0
   -1.2469   22.9169  -29.1755 H   0  0  0  0  0  0  0  0  0  0  0  0
   -0.2037   22.3273  -31.3655 H   0  0  0  0  0  0  0  0  0  0  0  0
   -1.4179   20.8487  -32.9727 H   0  0  0  0  0  0  0  0  0  0  0  0
   -3.6704   19.9433  -32.3851 H   0  0  0  0  0  0  0  0  0  0  0  0
   -4.7205   20.5240  -30.1964 H   0  0  0  0  0  0  0  0  0  0  0  0
   -5.5197   24.1159  -32.2875 H   0  0  0  0  0  0  0  0  0  0  0  0
   -5.3309   21.8498  -33.3062 H   0  0  0  0  0  0  0  0  0  0  0  0
   -7.0235   19.4402  -34.5925 H   0  0  0  0  0  0  0  0  0  0  0  0
   -5.4957   20.3001  -34.1512 H   0  0  0  0  0  0  0  0  0  0  0  0
   -5.3437   17.8833  -35.1339 H   0  0  0  0  0  0  0  0  0  0  0  0
   -4.3676   18.3315  -33.6480 H   0  0  0  0  0  0  0  0  0  0  0  0
  1  2  1  0
  2  3  1  0
  3  4  1  0
  4  5  1  0
  5  6  1  0
  6  7  2  0
  7  8  1  0
  8  9  2  0
  9 10  1  0
 10 11  1  0
 11 12  1  0
 12 13  2  0
 12 14  1  0
 14 15  1  0
 15 16  1  0
 16 17  1  0
 17 18  2  0
 18 19  1  0
 19 20  2  0
 20 21  1  0
 21 22  2  0
  9 23  1  0
 23 24  2  0
  5 25  1  0
 25 26  1  0
 26  2  1  0
 24  6  1  0
 22 17  1  0
  1 27  1  0
  1 28  1  0
  1 29  1  0
  3 30  1  0
  3 31  1  0
  4 32  1  0
  4 33  1  0
  7 34  1  0
  8 35  1  0
 10 36  1  0
 10 37  1  0
 11 38  1  0
 11 39  1  0
 14 40  1  0
 15 41  1  0
 15 42  1  0
 16 43  1  0
 16 44  1  0
 18 45  1  0
 19 46  1  0
 20 47  1  0
 21 48  1  0
 22 49  1  0
 23 50  1  0
 24 51  1  0
 25 52  1  0
 25 53  1  0
 26 54  1  0
 26 55  1  0
M  END
>  <UniqueID>  (24) 
23

>  <SMILES>  (24) 
CN1CCN(c2ccc(CCC(=O)NCCc3ccccc3)cc2)CC1

>  <Energy>  (24) 
56.406844830813235

>  <Genealogy>  (24) 
CN1CCN(c2ccc(CCC(=O)NCCc3ccccc3)cc2)CC1 (3D coordinates assigned)
CN1CCN(c2ccc(CCC(=O)NCCc3ccccc3)cc2)CC1 (nonaromatic ring conformer: 56.406844830813235 kcal/mol)

>  <smiles>  (24) 
CN1CCN(c2ccc(CCC(=O)NCCc3ccccc3)cc2)CC1

>  <score_type>  (24) 
oracle

>  <origin>  (24) 
adg

>  <m_score__min__energy>  (24) 
-9.3900000000000006

>  <m_primary>  (24) 
energy

$$$$
24:0
     RDKit          3D

 55 57  0  0  0  0  0  0  0  0999 V2000
    0.5010   23.6190  -27.0140 C   0  0  0  0  0  0  0  0  0  0  0  0
    0.9130   24.7830  -27.8130 N   0  0  0  0  0  0  0  0  0  0  0  0
    2.3750   24.9390  -27.8170 C   0  0  0  0  0  0  0  0  0  0  0  0
    0.1990   26.0240  -27.4370 C   0  0  0  0  0  0  0  0  0  0  0  0
   -1.3350   25.9480  -27.5840 C   0  0  0  0  0  0  0  0  0  0  0  0
   -1.6890   25.6430  -28.9650 N   0  0  0  0  0  0  0  0  0  0  0  0
   -1.9570   24.3190  -29.4430 C   0  0  0  0  0  0  0  0  0  0  0  0
   -1.0270   23.4680  -29.4820 O   0  0  0  0  0  0  0  0  0  0  0  0
   -3.3220   23.9470  -29.8850 C   0  0  0  0  0  0  0  0  0  0  0  0
   -3.7230   22.5980  -29.9130 C   0  0  0  0  0  0  0  0  0  0  0  0
   -5.0140   22.2510  -30.3220 C   0  0  0  0  0  0  0  0  0  0  0  0
   -5.9300   23.2430  -30.7040 C   0  0  0  0  0  0  0  0  0  0  0  0
   -7.3130   22.8630  -31.1650 C   0  0  0  0  0  0  0  0  0  0  0  0
   -7.3020   22.5070  -32.5920 N   0  0  0  0  0  0  0  0  0  0  0  0
   -6.9950   21.1060  -32.7490 C   0  0  0  0  0  0  0  0  0  0  0  0
   -5.7340   20.7050  -33.2190 C   0  0  0  0  0  0  0  0  0  0  0  0
   -5.4220   19.3490  -33.3430 C   0  0  0  0  0  0  0  0  0  0  0  0
   -6.3660   18.3640  -32.9950 C   0  0  0  0  0  0  0  0  0  0  0  0
   -6.0340   16.9220  -33.1260 C   0  0  0  0  0  0  0  0  0  0  0  0
   -5.0780   16.3270  -32.2810 C   0  0  0  0  0  0  0  0  0  0  0  0
   -4.7680   14.9700  -32.4070 C   0  0  0  0  0  0  0  0  0  0  0  0
   -5.4050   14.1920  -33.3780 C   0  0  0  0  0  0  0  0  0  0  0  0
   -6.3570   14.7700  -34.2210 C   0  0  0  0  0  0  0  0  0  0  0  0
   -6.6730   16.1260  -34.0960 C   0  0  0  0  0  0  0  0  0  0  0  0
   -7.6240   18.7690  -32.5130 C   0  0  0  0  0  0  0  0  0  0  0  0
   -7.9320   20.1260  -32.3850 C   0  0  0  0  0  0  0  0  0  0  0  0
   -5.5260   24.5880  -30.7000 C   0  0  0  0  0  0  0  0  0  0  0  0
   -4.2370   24.9370  -30.2870 C   0  0  0  0  0  0  0  0  0  0  0  0
    0.5863   23.8599  -25.9441 H   0  0  0  0  0  0  0  0  0  0  0  0
   -0.5424   23.3629  -27.2502 H   0  0  0  0  0  0  0  0  0  0  0  0
    1.1510   22.7636  -27.2502 H   0  0  0  0  0  0  0  0  0  0  0  0
    2.7424   24.9782  -26.7809 H   0  0  0  0  0  0  0  0  0  0  0  0
    2.8335   24.0847  -28.3365 H   0  0  0  0  0  0  0  0  0  0  0  0
    2.6429   25.8708  -28.3365 H   0  0  0  0  0  0  0  0  0  0  0  0
    0.4328   26.2502  -26.3862 H   0  0  0  0  0  0  0  0  0  0  0  0
    0.5419   26.8053  -28.1312 H   0  0  0  0  0  0  0  0  0  0  0  0
   -1.7254   25.1585  -26.9250 H   0  0  0  0  0  0  0  0  0  0  0  0
   -1.7730   26.9176  -27.3046 H   0  0  0  0  0  0  0  0  0  0  0  0
   -3.0157   21.8115  -29.6110 H   0  0  0  0  0  0  0  0  0  0  0  0
   -5.3139   21.1929  -30.3445 H   0  0  0  0  0  0  0  0  0  0  0  0
   -7.6652   22.0008  -30.5798 H   0  0  0  0  0  0  0  0  0  0  0  0
   -7.9847   23.7216  -31.0183 H   0  0  0  0  0  0  0  0  0  0  0  0
   -8.2360   22.7160  -33.0160 H   0  0  0  0  0  0  0  0  0  0  0  0
   -6.5840   23.0800  -33.0930 H   0  0  0  0  0  0  0  0  0  0  0  0
   -4.9863   21.4643  -33.4916 H   0  0  0  0  0  0  0  0  0  0  0  0
   -4.4315   19.0485  -33.7153 H   0  0  0  0  0  0  0  0  0  0  0  0
   -4.5715   16.9343  -31.5163 H   0  0  0  0  0  0  0  0  0  0  0  0
   -4.0213   14.5133  -31.7408 H   0  0  0  0  0  0  0  0  0  0  0  0
   -5.1567   13.1251  -33.4782 H   0  0  0  0  0  0  0  0  0  0  0  0
   -6.8588   14.1573  -34.9844 H   0  0  0  0  0  0  0  0  0  0  0  0
   -7.4264   16.5745  -34.7603 H   0  0  0  0  0  0  0  0  0  0  0  0
   -8.3713   18.0113  -32.2346 H   0  0  0  0  0  0  0  0  0  0  0  0
   -8.9156   20.4285  -31.9963 H   0  0  0  0  0  0  0  0  0  0  0  0
   -6.2276   25.3710  -31.0236 H   0  0  0  0  0  0  0  0  0  0  0  0
   -3.9355   25.9948  -30.2762 H   0  0  0  0  0  0  0  0  0  0  0  0
  1  2  1  0
  2  3  1  0
  2  4  1  0
  4  5  1  0
  5  6  1  0
  6  7  1  0
  7  8  2  0
  7  9  1  0
  9 10  2  0
 10 11  1  0
 11 12  2  0
 12 13  1  0
 13 14  1  0
 14 15  1  0
 15 16  2  0
 16 17  1  0
 17 18  2  0
 18 19  1  0
 19 20  2  0
 20 21  1  0
 21 22  2  0
 22 23  1  0
 23 24  2  0
 18 25  1  0
 25 26  2  0
 12 27  1  0
 27 28  2  0
 28  9  1  0
 26 15  1  0
 24 19  1  0
  1 29  1  0
  1 30  1  0
  1 31  1  0
  3 32  1  0
  3 33  1  0
  3 34  1  0
  4 35  1  0
  4 36  1  0
  5 37  1  0
  5 38  1  0
 10 39  1  0
 11 40  1  0
 13 41  1  0
 13 42  1  0
 14 43  1  0
 14 44  1  0
 16 45  1  0
 17 46  1  0
 20 47  1  0
 21 48  1  0
 22 49  1  0
 23 50  1  0
 24 51  1  0
 25 52  1  0
 26 53  1  0
 27 54  1  0
 28 55  1  0
M  CHG  2   6  -1  14   1
M  END
>  <UniqueID>  (25) 
24

>  <SMILES>  (25) 
CN(C)CC[N-]C(=O)c1ccc(C[NH2+]c2ccc(-c3ccccc3)cc2)cc1

>  <Energy>  (25) 
62.817119378467595

>  <Genealogy>  (25) 
CN(C)CC[N-]C(=O)c1ccc(C[NH2+]c2ccc(-c3ccccc3)cc2)cc1 (protonated)
CN(C)CC[N-]C(=O)c1ccc(C[NH2+]c2ccc(-c3ccccc3)cc2)cc1 (3D coordinates assigned)
CN(C)CC[N-]C(=O)c1ccc(C[NH2+]c2ccc(-c3ccccc3)cc2)cc1 (optimized conformer: 62.817119378467595 kcal/mol)

>  <smiles>  (25) 
CN(C)CCNC(=O)c1ccc(CNc2ccc(-c3ccccc3)cc2)cc1

>  <score_type>  (25) 
oracle

>  <origin>  (25) 
adg

>  <m_score__min__energy>  (25) 
-10.77

>  <m_primary>  (25) 
energy

$$$$
25:0
     RDKit          3D

 66 69  0  0  0  0  0  0  0  0999 V2000
   -1.4500   25.9190  -24.9800 C   0  0  0  0  0  0  0  0  0  0  0  0
   -1.9660   25.4580  -26.3110 C   0  0  0  0  0  0  0  0  0  0  0  0
   -3.2520   24.9090  -26.4160 C   0  0  0  0  0  0  0  0  0  0  0  0
   -3.7240   24.4540  -27.6510 C   0  0  0  0  0  0  0  0  0  0  0  0
   -2.9130   24.5340  -28.7940 C   0  0  0  0  0  0  0  0  0  0  0  0
   -3.4460   24.1160  -30.1380 C   0  0  0  0  0  0  0  0  0  0  0  0
   -5.0770   24.8770  -30.4720 S   0  0  0  0  0  0  0  0  0  0  0  0
   -5.7720   23.4250  -31.2680 C   0  0  0  0  0  0  0  0  0  0  0  0
   -7.1130   23.1090  -31.0900 C   0  0  0  0  0  0  0  0  0  0  0  0
   -7.6330   21.9390  -31.6470 C   0  0  0  0  0  0  0  0  0  0  0  0
   -8.9750   21.5930  -31.4240 C   0  0  0  0  0  0  0  0  0  0  0  0
   -9.4920   20.4140  -31.9560 C   0  0  0  0  0  0  0  0  0  0  0  0
   -8.6780   19.5700  -32.7080 C   0  0  0  0  0  0  0  0  0  0  0  0
   -7.3400   19.9000  -32.9400 C   0  0  0  0  0  0  0  0  0  0  0  0
   -6.7880   21.0970  -32.4190 C   0  0  0  0  0  0  0  0  0  0  0  0
   -5.4690   21.4590  -32.6280 N   0  0  0  0  0  0  0  0  0  0  0  0
   -4.5350   20.6410  -33.4270 C   0  0  0  0  0  0  0  0  0  0  0  0
   -3.3390   20.2030  -32.5700 C   0  0  0  0  0  0  0  0  0  0  0  0
   -2.0180   20.8600  -33.0030 C   0  0  0  0  0  0  0  0  0  0  0  0
   -0.9120   20.7830  -31.9300 C   0  0  0  0  0  0  0  0  0  0  0  0
   -1.1220   21.8120  -30.8040 C   0  0  0  0  0  0  0  0  0  0  0  0
   -1.3000   21.1430  -29.4230 C   0  0  0  0  0  0  0  0  0  0  0  0
   -2.8000   20.9420  -29.0680 C   0  0  0  0  0  0  0  0  0  0  0  0
   -3.0830   20.9400  -27.5510 C   0  0  0  0  0  0  0  0  0  0  0  0
   -1.8920   20.4000  -26.7560 C   0  0  0  0  0  0  0  0  0  0  0  0
   -0.6320   21.2650  -26.9620 C   0  0  0  0  0  0  0  0  0  0  0  0
   -0.5880   21.9690  -28.3330 C   0  0  0  0  0  0  0  0  0  0  0  0
   -4.9670   22.5940  -32.0460 C   0  0  0  0  0  0  0  0  0  0  0  0
   -1.6190   25.0660  -28.6830 C   0  0  0  0  0  0  0  0  0  0  0  0
   -1.1450   25.5170  -27.4470 C   0  0  0  0  0  0  0  0  0  0  0  0
   -2.0101   25.4186  -24.1763 H   0  0  0  0  0  0  0  0  0  0  0  0
   -0.3824   25.6684  -24.8938 H   0  0  0  0  0  0  0  0  0  0  0  0
   -1.5792   27.0080  -24.8938 H   0  0  0  0  0  0  0  0  0  0  0  0
   -3.8915   24.8361  -25.5240 H   0  0  0  0  0  0  0  0  0  0  0  0
   -4.7365   24.0310  -27.7274 H   0  0  0  0  0  0  0  0  0  0  0  0
   -2.7372   24.4305  -30.9182 H   0  0  0  0  0  0  0  0  0  0  0  0
   -3.5660   23.0226  -30.1394 H   0  0  0  0  0  0  0  0  0  0  0  0
   -7.7645   23.7799  -30.5108 H   0  0  0  0  0  0  0  0  0  0  0  0
   -9.6202   22.2547  -30.8275 H   0  0  0  0  0  0  0  0  0  0  0  0
  -10.5453   20.1489  -31.7819 H   0  0  0  0  0  0  0  0  0  0  0  0
   -9.0909   18.6381  -33.1217 H   0  0  0  0  0  0  0  0  0  0  0  0
   -6.7081   19.2231  -33.5337 H   0  0  0  0  0  0  0  0  0  0  0  0
   -5.0609   19.7490  -33.7981 H   0  0  0  0  0  0  0  0  0  0  0  0
   -4.1674   21.2421  -34.2717 H   0  0  0  0  0  0  0  0  0  0  0  0
   -3.5394   20.4751  -31.5232 H   0  0  0  0  0  0  0  0  0  0  0  0
   -3.2235   19.1164  -32.6966 H   0  0  0  0  0  0  0  0  0  0  0  0
   -1.6583   20.3535  -33.9108 H   0  0  0  0  0  0  0  0  0  0  0  0
   -2.2279   21.9259  -33.1755 H   0  0  0  0  0  0  0  0  0  0  0  0
   -0.9125   19.7738  -31.4924 H   0  0  0  0  0  0  0  0  0  0  0  0
    0.0481   21.0071  -32.4178 H   0  0  0  0  0  0  0  0  0  0  0  0
   -0.2464   22.4767  -30.7647 H   0  0  0  0  0  0  0  0  0  0  0  0
   -2.0422   22.3718  -31.0275 H   0  0  0  0  0  0  0  0  0  0  0  0
   -0.8390   20.1455  -29.4721 H   0  0  0  0  0  0  0  0  0  0  0  0
   -3.3781   21.7569  -29.5281 H   0  0  0  0  0  0  0  0  0  0  0  0
   -3.0915   19.9529  -29.4509 H   0  0  0  0  0  0  0  0  0  0  0  0
   -3.2919   21.9698  -27.2256 H   0  0  0  0  0  0  0  0  0  0  0  0
   -3.9469   20.2855  -27.3632 H   0  0  0  0  0  0  0  0  0  0  0  0
   -2.1499   20.3941  -25.6867 H   0  0  0  0  0  0  0  0  0  0  0  0
   -1.6729   19.3829  -27.1132 H   0  0  0  0  0  0  0  0  0  0  0  0
   -0.6042   22.0330  -26.1750 H   0  0  0  0  0  0  0  0  0  0  0  0
    0.2354   20.5901  -26.9164 H   0  0  0  0  0  0  0  0  0  0  0  0
   -1.0833   22.9474  -28.2471 H   0  0  0  0  0  0  0  0  0  0  0  0
    0.4663   22.0843  -28.6249 H   0  0  0  0  0  0  0  0  0  0  0  0
   -3.9087   22.8542  -32.1956 H   0  0  0  0  0  0  0  0  0  0  0  0
   -0.9746   25.1285  -29.5723 H   0  0  0  0  0  0  0  0  0  0  0  0
   -0.1246   25.9195  -27.3653 H   0  0  0  0  0  0  0  0  0  0  0  0
  1  2  1  0
  2  3  2  0
  3  4  1  0
  4  5  2  0
  5  6  1  0
  6  7  1  0
  7  8  1  0
  8  9  2  0
  9 10  1  0
 10 11  2  0
 11 12  1  0
 12 13  2  0
 13 14  1  0
 14 15  2  0
 15 16  1  0
 16 17  1  0
 17 18  1  0
 18 19  1  0
 19 20  1  0
 20 21  1  0
 21 22  1  0
 22 23  1  0
 23 24  1  0
 24 25  1  0
 25 26  1  0
 26 27  1  0
 16 28  2  0
  5 29  1  0
 29 30  2  0
 30  2  1  0
 28  8  1  0
 15 10  1  0
 27 22  1  0
  1 31  1  0
  1 32  1  0
  1 33  1  0
  3 34  1  0
  4 35  1  0
  6 36  1  0
  6 37  1  0
  9 38  1  0
 11 39  1  0
 12 40  1  0
 13 41  1  0
 14 42  1  0
 17 43  1  0
 17 44  1  0
 18 45  1  0
 18 46  1  0
 19 47  1  0
 19 48  1  0
 20 49  1  0
 20 50  1  0
 21 51  1  0
 21 52  1  0
 22 53  1  0
 23 54  1  0
 23 55  1  0
 24 56  1  0
 24 57  1  0
 25 58  1  0
 25 59  1  0
 26 60  1  0
 26 61  1  0
 27 62  1  0
 27 63  1  0
 28 64  1  0
 29 65  1  0
 30 66  1  0
M  CHG  1  16   1
M  END
>  <UniqueID>  (26) 
25

>  <SMILES>  (26) 
Cc1ccc(CSc2cc3ccccc3[n+](CCCCCC3CCCCC3)c2)cc1

>  <Energy>  (26) 
64.53439751032938

>  <Genealogy>  (26) 
Cc1ccc(CSc2cc3ccccc3[n+](CCCCCC3CCCCC3)c2)cc1 (3D coordinates assigned)
Cc1ccc(CSc2cc3ccccc3[n+](CCCCCC3CCCCC3)c2)cc1 (nonaromatic ring conformer: 64.53439751032938 kcal/mol)

>  <smiles>  (26) 
Cc1ccc(CSc2cc3ccccc3[n+](CCCCCC3CCCCC3)c2)cc1

>  <score_type>  (26) 
oracle

>  <origin>  (26) 
adg

>  <m_score__min__energy>  (26) 
-9.4399999999999995

>  <m_primary>  (26) 
energy

$$$$
26:0
     RDKit          3D

 56 57  0  0  0  0  0  0  0  0999 V2000
   -9.4960   20.6590  -32.0180 C   0  0  0  0  0  0  0  0  0  0  0  0
   -9.0720   19.1860  -31.9940 C   0  0  0  0  0  0  0  0  0  0  0  0
   -7.7210   18.9680  -32.5670 N   0  0  0  0  0  0  0  0  0  0  0  0
   -6.6840   18.5530  -31.5780 C   0  0  0  0  0  0  0  0  0  0  0  0
   -6.1800   17.1050  -31.7080 C   0  0  0  0  0  0  0  0  0  0  0  0
   -7.2850   20.0690  -33.4730 C   0  0  0  0  0  0  0  0  0  0  0  0
   -6.0430   20.8170  -33.0290 C   0  0  0  0  0  0  0  0  0  0  0  0
   -5.9910   22.0550  -32.3980 C   0  0  0  0  0  0  0  0  0  0  0  0
   -7.1470   22.8760  -31.9240 C   0  0  0  0  0  0  0  0  0  0  0  0
   -4.7090   22.4120  -32.1980 N   0  0  0  0  0  0  0  0  0  0  0  0
   -3.9380   21.4410  -32.6630 N   0  0  0  0  0  0  0  0  0  0  0  0
   -2.4780   21.5390  -32.6820 C   0  0  0  0  0  0  0  0  0  0  0  0
   -1.9180   21.6220  -31.2570 C   0  0  0  0  0  0  0  0  0  0  0  0
   -2.3550   22.8600  -30.5960 N   0  0  0  0  0  0  0  0  0  0  0  0
   -2.9700   22.5680  -29.2950 C   0  0  0  0  0  0  0  0  0  0  0  0
   -4.4300   23.0470  -29.2570 C   0  0  0  0  0  0  0  0  0  0  0  0
   -4.6130   24.5350  -29.6170 C   0  0  0  0  0  0  0  0  0  0  0  0
   -3.8610   24.9200  -30.8120 N   0  0  0  0  0  0  0  0  0  0  0  0
   -4.7100   20.4420  -33.1560 C   0  0  0  0  0  0  0  0  0  0  0  0
   -4.2060   19.1280  -33.6010 C   0  0  0  0  0  0  0  0  0  0  0  0
   -3.0340   18.5070  -33.1850 C   0  0  0  0  0  0  0  0  0  0  0  0
   -2.8170   17.2650  -33.7950 C   0  0  0  0  0  0  0  0  0  0  0  0
   -3.8150   16.9010  -34.6890 C   0  0  0  0  0  0  0  0  0  0  0  0
   -4.9660   18.1250  -34.7190 S   0  0  0  0  0  0  0  0  0  0  0  0
   -9.6019   21.0269  -30.9868 H   0  0  0  0  0  0  0  0  0  0  0  0
   -8.7321   21.2520  -32.5422 H   0  0  0  0  0  0  0  0  0  0  0  0
  -10.4583   20.7551  -32.5422 H   0  0  0  0  0  0  0  0  0  0  0  0
   -9.0720   18.8371  -30.9508 H   0  0  0  0  0  0  0  0  0  0  0  0
   -9.7886   18.6246  -32.6116 H   0  0  0  0  0  0  0  0  0  0  0  0
   -7.8190   18.1460  -33.2110 H   0  0  0  0  0  0  0  0  0  0  0  0
   -5.8196   19.2234  -31.6932 H   0  0  0  0  0  0  0  0  0  0  0  0
   -7.1680   18.6148  -30.5921 H   0  0  0  0  0  0  0  0  0  0  0  0
   -6.0311   16.6772  -30.7056 H   0  0  0  0  0  0  0  0  0  0  0  0
   -6.9225   16.5061  -32.2557 H   0  0  0  0  0  0  0  0  0  0  0  0
   -5.2261   17.0966  -32.2557 H   0  0  0  0  0  0  0  0  0  0  0  0
   -7.0850   19.6352  -34.4639 H   0  0  0  0  0  0  0  0  0  0  0  0
   -8.1016   20.8060  -33.4726 H   0  0  0  0  0  0  0  0  0  0  0  0
   -7.1624   22.8870  -30.8242 H   0  0  0  0  0  0  0  0  0  0  0  0
   -7.0445   23.9048  -32.2995 H   0  0  0  0  0  0  0  0  0  0  0  0
   -8.0846   22.4403  -32.2995 H   0  0  0  0  0  0  0  0  0  0  0  0
   -2.0636   20.6505  -33.1809 H   0  0  0  0  0  0  0  0  0  0  0  0
   -2.1935   22.4519  -33.2258 H   0  0  0  0  0  0  0  0  0  0  0  0
   -2.2762   20.7581  -30.6778 H   0  0  0  0  0  0  0  0  0  0  0  0
   -0.8192   21.6189  -31.3091 H   0  0  0  0  0  0  0  0  0  0  0  0
   -3.0890   23.3000  -31.1980 H   0  0  0  0  0  0  0  0  0  0  0  0
   -2.9427   21.4824  -29.1196 H   0  0  0  0  0  0  0  0  0  0  0  0
   -2.4063   23.0985  -28.5135 H   0  0  0  0  0  0  0  0  0  0  0  0
   -5.0101   22.4447  -29.9716 H   0  0  0  0  0  0  0  0  0  0  0  0
   -4.7770   22.9261  -28.2202 H   0  0  0  0  0  0  0  0  0  0  0  0
   -5.6814   24.7256  -29.7962 H   0  0  0  0  0  0  0  0  0  0  0  0
   -4.2308   25.1315  -28.7755 H   0  0  0  0  0  0  0  0  0  0  0  0
   -3.9980   24.1930  -31.5510 H   0  0  0  0  0  0  0  0  0  0  0  0
   -2.8420   24.9620  -30.5830 H   0  0  0  0  0  0  0  0  0  0  0  0
   -2.3450   18.9475  -32.4493 H   0  0  0  0  0  0  0  0  0  0  0  0
   -1.9385   16.6370  -33.5855 H   0  0  0  0  0  0  0  0  0  0  0  0
   -3.8468   15.9715  -35.2764 H   0  0  0  0  0  0  0  0  0  0  0  0
  1  2  1  0
  2  3  1  0
  3  4  1  0
  4  5  1  0
  3  6  1  0
  6  7  1  0
  7  8  1  0
  8  9  1  0
  8 10  2  0
 10 11  1  0
 11 12  1  0
 12 13  1  0
 13 14  1  0
 14 15  1  0
 15 16  1  0
 16 17  1  0
 17 18  1  0
 11 19  1  0
 19 20  1  0
 20 21  2  0
 21 22  1  0
 22 23  2  0
 23 24  1  0
 19  7  2  0
 24 20  1  0
  1 25  1  0
  1 26  1  0
  1 27  1  0
  2 28  1  0
  2 29  1  0
  3 30  1  0
  4 31  1  0
  4 32  1  0
  5 33  1  0
  5 34  1  0
  5 35  1  0
  6 36  1  0
  6 37  1  0
  9 38  1  0
  9 39  1  0
  9 40  1  0
 12 41  1  0
 12 42  1  0
 13 43  1  0
 13 44  1  0
 14 45  1  0
 15 46  1  0
 15 47  1  0
 16 48  1  0
 16 49  1  0
 17 50  1  0
 17 51  1  0
 18 52  1  0
 18 53  1  0
 21 54  1  0
 22 55  1  0
 23 56  1  0
M  CHG  1   3   1
M  END
>  <UniqueID>  (27) 
26

>  <SMILES>  (27) 
CC[NH+](CC)Cc1c(C)nn(CCNCCCN)c1-c1cccs1

>  <Energy>  (27) 
111.31279004695757

>  <Genealogy>  (27) 
CC[NH+](CC)Cc1c(C)nn(CCNCCCN)c1-c1cccs1 (protonated)
CC[NH+](CC)Cc1c(C)nn(CCNCCCN)c1-c1cccs1 (3D coordinates assigned)
CC[NH+](CC)Cc1c(C)nn(CCNCCCN)c1-c1cccs1 (optimized conformer: 111.31279004695757 kcal/mol)

>  <smiles>  (27) 
CCN(CC)Cc1c(C)nn(CCNCCCN)c1-c1cccs1

>  <score_type>  (27) 
oracle

>  <origin>  (27) 
adg

>  <m_score__min__energy>  (27) 
-7.7300000000000004

>  <m_primary>  (27) 
energy

$$$$
27:0
     RDKit          3D

 34 35  0  0  0  0  0  0  0  0999 V2000
   -3.8980   19.7220  -32.5300 C   0  0  0  0  0  0  0  0  0  0  0  0
   -4.4830   19.6750  -33.8260 O   0  0  0  0  0  0  0  0  0  0  0  0
   -5.7220   19.0770  -34.0750 C   0  0  0  0  0  0  0  0  0  0  0  0
   -5.8630   18.3050  -35.0640 O   0  0  0  0  0  0  0  0  0  0  0  0
   -6.8650   19.3490  -33.1770 C   0  0  0  0  0  0  0  0  0  0  0  0
   -7.6360   18.2960  -32.6640 C   0  0  0  0  0  0  0  0  0  0  0  0
   -8.7040   18.5620  -31.8120 C   0  0  0  0  0  0  0  0  0  0  0  0
   -9.0040   19.8830  -31.4760 C   0  0  0  0  0  0  0  0  0  0  0  0
   -8.2640   20.9130  -31.9860 N   0  0  0  0  0  0  0  0  0  0  0  0
   -8.5770   22.2940  -31.5970 C   0  0  0  0  0  0  0  0  0  0  0  0
   -7.6420   23.2710  -32.3130 C   0  0  0  0  0  0  0  0  0  0  0  0
   -6.4330   23.5670  -31.4670 C   0  0  0  0  0  0  0  0  0  0  0  0
   -6.4860   24.5660  -30.4820 C   0  0  0  0  0  0  0  0  0  0  0  0
   -5.3520   24.8640  -29.7180 C   0  0  0  0  0  0  0  0  0  0  0  0
   -4.1570   24.1730  -29.9390 C   0  0  0  0  0  0  0  0  0  0  0  0
   -2.7360   24.5490  -28.9830 Cl  0  0  0  0  0  0  0  0  0  0  0  0
   -4.0930   23.1870  -30.9290 C   0  0  0  0  0  0  0  0  0  0  0  0
   -5.2260   22.8860  -31.6940 C   0  0  0  0  0  0  0  0  0  0  0  0
   -7.2030   20.6660  -32.8130 C   0  0  0  0  0  0  0  0  0  0  0  0
   -4.6889   19.6585  -31.7682 H   0  0  0  0  0  0  0  0  0  0  0  0
   -3.2044   18.8767  -32.4099 H   0  0  0  0  0  0  0  0  0  0  0  0
   -3.3483   20.6672  -32.4099 H   0  0  0  0  0  0  0  0  0  0  0  0
   -7.3962   17.2574  -32.9356 H   0  0  0  0  0  0  0  0  0  0  0  0
   -9.3075   17.7367  -31.4062 H   0  0  0  0  0  0  0  0  0  0  0  0
   -9.8418   20.0968  -30.7960 H   0  0  0  0  0  0  0  0  0  0  0  0
   -9.6180   22.5212  -31.8704 H   0  0  0  0  0  0  0  0  0  0  0  0
   -8.4418   22.3996  -30.5105 H   0  0  0  0  0  0  0  0  0  0  0  0
   -7.3164   22.8271  -33.2653 H   0  0  0  0  0  0  0  0  0  0  0  0
   -8.1845   24.2103  -32.4956 H   0  0  0  0  0  0  0  0  0  0  0  0
   -7.4226   25.1167  -30.3101 H   0  0  0  0  0  0  0  0  0  0  0  0
   -5.4010   25.6428  -28.9427 H   0  0  0  0  0  0  0  0  0  0  0  0
   -3.1511   22.6474  -31.1067 H   0  0  0  0  0  0  0  0  0  0  0  0
   -5.1707   22.1137  -32.4753 H   0  0  0  0  0  0  0  0  0  0  0  0
   -6.6069   21.5064  -33.1982 H   0  0  0  0  0  0  0  0  0  0  0  0
  1  2  1  0
  2  3  1  0
  3  4  2  0
  3  5  1  0
  5  6  2  0
  6  7  1  0
  7  8  2  0
  8  9  1  0
  9 10  1  0
 10 11  1  0
 11 12  1  0
 12 13  2  0
 13 14  1  0
 14 15  2  0
 15 16  1  0
 15 17  1  0
 17 18  2  0
  9 19  2  0
 19  5  1  0
 18 12  1  0
  1 20  1  0
  1 21  1  0
  1 22  1  0
  6 23  1  0
  7 24  1  0
  8 25  1  0
 10 26  1  0
 10 27  1  0
 11 28  1  0
 11 29  1  0
 13 30  1  0
 14 31  1  0
 17 32  1  0
 18 33  1  0
 19 34  1  0
M  CHG  1   9   1
M  END
>  <UniqueID>  (28) 
27

>  <SMILES>  (28) 
COC(=O)c1ccc[n+](CCc2ccc(Cl)cc2)c1

>  <Energy>  (28) 
30.090620429029986

>  <Genealogy>  (28) 
COC(=O)c1ccc[n+](CCc2ccc(Cl)cc2)c1 (3D coordinates assigned)
COC(=O)c1ccc[n+](CCc2ccc(Cl)cc2)c1 (optimized conformer: 30.090620429029986 kcal/mol)

>  <smiles>  (28) 
COC(=O)c1ccc[n+](CCc2ccc(Cl)cc2)c1

>  <score_type>  (28) 
oracle

>  <origin>  (28) 
adg

>  <m_score__min__energy>  (28) 
-6.5999999999999996

>  <m_primary>  (28) 
energy

$$$$
28:0
     RDKit          3D

 43 46  0  0  0  0  0  0  0  0999 V2000
   -6.4310   25.8080  -29.0270 C   0  0  0  0  0  0  0  0  0  0  0  0
   -6.2400   25.4610  -30.3960 O   0  0  0  0  0  0  0  0  0  0  0  0
   -5.6250   24.2790  -30.8380 C   0  0  0  0  0  0  0  0  0  0  0  0
   -6.3630   23.1830  -31.3150 C   0  0  0  0  0  0  0  0  0  0  0  0
   -5.7120   22.0180  -31.7430 C   0  0  0  0  0  0  0  0  0  0  0  0
   -4.3070   21.9050  -31.6380 C   0  0  0  0  0  0  0  0  0  0  0  0
   -3.5670   23.0400  -31.2280 C   0  0  0  0  0  0  0  0  0  0  0  0
   -2.1770   23.0510  -31.2680 O   0  0  0  0  0  0  0  0  0  0  0  0
   -4.2300   24.2030  -30.8120 C   0  0  0  0  0  0  0  0  0  0  0  0
   -3.4890   25.2980  -30.3790 O   0  0  0  0  0  0  0  0  0  0  0  0
   -3.6650   20.6150  -32.0570 C   0  0  0  0  0  0  0  0  0  0  0  0
   -2.4290   20.1950  -31.5400 C   0  0  0  0  0  0  0  0  0  0  0  0
   -1.8250   19.0170  -31.9840 C   0  0  0  0  0  0  0  0  0  0  0  0
   -0.5980   18.6660  -31.4340 O   0  0  0  0  0  0  0  0  0  0  0  0
   -2.4590   18.2150  -32.9600 C   0  0  0  0  0  0  0  0  0  0  0  0
   -1.8940   17.0310  -33.4730 O   0  0  0  0  0  0  0  0  0  0  0  0
   -1.1300   16.0750  -32.7480 C   0  0  0  0  0  0  0  0  0  0  0  0
   -3.7270   18.5990  -33.4450 C   0  0  0  0  0  0  0  0  0  0  0  0
   -4.3560   19.7580  -32.9400 C   0  0  0  0  0  0  0  0  0  0  0  0
   -5.7470   20.1520  -33.4090 C   0  0  2  0  0  0  0  0  0  0  0  0
   -6.5180   20.8610  -32.2720 C   0  0  0  0  0  0  0  0  0  0  0  0
   -6.5080   19.0160  -33.9900 N   0  0  0  0  0  0  0  0  0  0  0  0
   -7.0160   18.0510  -32.9920 C   0  0  0  0  0  0  0  0  0  0  0  0
   -5.7000   18.3490  -35.0290 C   0  0  0  0  0  0  0  0  0  0  0  0
   -4.4290   17.7100  -34.4480 C   0  0  0  0  0  0  0  0  0  0  0  0
   -5.9997   25.0245  -28.3865 H   0  0  0  0  0  0  0  0  0  0  0  0
   -5.9335   26.7667  -28.8189 H   0  0  0  0  0  0  0  0  0  0  0  0
   -7.5072   25.9006  -28.8189 H   0  0  0  0  0  0  0  0  0  0  0  0
   -7.4609   23.2396  -31.3529 H   0  0  0  0  0  0  0  0  0  0  0  0
   -1.9284   20.8039  -30.7727 H   0  0  0  0  0  0  0  0  0  0  0  0
   -1.2631   16.2415  -31.6688 H   0  0  0  0  0  0  0  0  0  0  0  0
   -1.4697   15.0614  -33.0072 H   0  0  0  0  0  0  0  0  0  0  0  0
   -0.0664   16.1828  -33.0072 H   0  0  0  0  0  0  0  0  0  0  0  0
   -5.6258   20.8676  -34.2356 H   0  0  0  0  0  0  0  0  0  0  0  0
   -7.4775   21.2334  -32.6602 H   0  0  0  0  0  0  0  0  0  0  0  0
   -6.6967   20.1443  -31.4569 H   0  0  0  0  0  0  0  0  0  0  0  0
   -6.8159   18.4312  -31.9794 H   0  0  0  0  0  0  0  0  0  0  0  0
   -8.0998   17.9202  -33.1270 H   0  0  0  0  0  0  0  0  0  0  0  0
   -6.5103   17.0835  -33.1270 H   0  0  0  0  0  0  0  0  0  0  0  0
   -6.3079   17.5637  -35.5020 H   0  0  0  0  0  0  0  0  0  0  0  0
   -5.3932   19.1101  -35.7615 H   0  0  0  0  0  0  0  0  0  0  0  0
   -4.7058   16.7693  -33.9495 H   0  0  0  0  0  0  0  0  0  0  0  0
   -3.7332   17.5422  -35.2833 H   0  0  0  0  0  0  0  0  0  0  0  0
  1  2  1  0
  2  3  1  0
  3  4  2  0
  4  5  1  0
  5  6  2  0
  6  7  1  0
  7  8  1  0
  7  9  2  0
  9 10  1  0
  6 11  1  0
 11 12  2  0
 12 13  1  0
 13 14  1  0
 13 15  2  0
 15 16  1  0
 16 17  1  0
 15 18  1  0
 18 19  2  0
 19 20  1  0
 20 21  1  0
 20 22  1  0
 22 23  1  0
 22 24  1  0
 24 25  1  0
  9  3  1  0
 19 11  1  0
 21  5  1  0
 25 18  1  0
  1 26  1  0
  1 27  1  0
  1 28  1  0
  4 29  1  0
 12 30  1  0
 17 31  1  0
 17 32  1  0
 17 33  1  0
 20 34  1  6
 21 35  1  0
 21 36  1  0
 23 37  1  0
 23 38  1  0
 23 39  1  0
 24 40  1  0
 24 41  1  0
 25 42  1  0
 25 43  1  0
M  CHG  3   8  -1  10  -1  14  -1
M  END
>  <UniqueID>  (29) 
28

>  <SMILES>  (29) 
COc1cc2c(c([O-])c1[O-])-c1cc([O-])c(OC)c3c1[C@H](C2)N(C)CC3

>  <Energy>  (29) 
68.20133771673521

>  <Genealogy>  (29) 
COc1cc2c(c([O-])c1[O-])-c1cc([O-])c(OC)c3c1C(C2)N(C)CC3 (protonated)
COc1cc2c(c([O-])c1[O-])-c1cc([O-])c(OC)c3c1[C@H](C2)N(C)CC3 (chirality)
COc1cc2c(c([O-])c1[O-])-c1cc([O-])c(OC)c3c1[C@H](C2)N(C)CC3 (3D coordinates assigned)
COc1cc2c(c([O-])c1[O-])-c1cc([O-])c(OC)c3c1[C@H](C2)N(C)CC3 (nonaromatic ring conformer: 68.20133771673521 kcal/mol)

>  <smiles>  (29) 
COc1cc2c(c(O)c1O)-c1cc(O)c(OC)c3c1C(C2)N(C)CC3

>  <score_type>  (29) 
oracle

>  <origin>  (29) 
adg

>  <m_score__min__energy>  (29) 
-10.6

>  <m_primary>  (29) 
energy

$$$$
29:0
     RDKit          3D

 53 57  0  0  0  0  0  0  0  0999 V2000
   -3.7470   23.5450  -28.1400 H   0  0  0  0  0  0  0  0  0  0  0  0
   -3.8310   23.5300  -27.1500 O   0  0  0  0  0  0  0  0  0  0  0  0
   -3.9490   24.8650  -26.7340 C   0  0  0  0  0  0  0  0  0  0  0  0
   -4.8520   24.9691  -26.1145 H   0  0  0  0  0  0  0  0  0  0  0  0
   -4.0152   25.5032  -27.6275 H   0  0  0  0  0  0  0  0  0  0  0  0
   -2.7140   25.3070  -25.9060 C   0  0  0  0  0  0  0  0  0  0  0  0
   -2.5697   24.5638  -25.1080 H   0  0  0  0  0  0  0  0  0  0  0  0
   -2.9559   26.3244  -25.5648 H   0  0  0  0  0  0  0  0  0  0  0  0
   -1.4190   25.4470  -26.6230 N   0  0  0  0  0  0  0  0  0  0  0  0
   -0.8230   24.2090  -27.1400 C   0  0  0  0  0  0  0  0  0  0  0  0
   -1.4286   23.3135  -26.9365 H   0  0  0  0  0  0  0  0  0  0  0  0
    0.1498   23.8825  -26.7438 H   0  0  0  0  0  0  0  0  0  0  0  0
   -0.9070   24.6830  -28.5900 C   0  0  0  0  0  0  0  0  0  0  0  0
   -0.0380   24.7025  -29.2641 H   0  0  0  0  0  0  0  0  0  0  0  0
   -1.8300   23.8770  -29.4620 C   0  0  0  0  0  0  0  0  0  0  0  0
   -3.0530   24.2890  -29.8520 N   0  0  0  0  0  0  0  0  0  0  0  0
   -3.6130   23.3110  -30.5480 N   0  0  0  0  0  0  0  0  0  0  0  0
   -4.9980   23.3560  -30.9200 C   0  0  0  0  0  0  0  0  0  0  0  0
   -5.3730   23.4290  -32.2710 C   0  0  0  0  0  0  0  0  0  0  0  0
   -4.5998   23.4754  -33.0521 H   0  0  0  0  0  0  0  0  0  0  0  0
   -6.7240   23.4430  -32.6280 C   0  0  0  0  0  0  0  0  0  0  0  0
   -7.0107   23.5303  -33.6864 H   0  0  0  0  0  0  0  0  0  0  0  0
   -7.7160   23.3460  -31.6400 C   0  0  0  0  0  0  0  0  0  0  0  0
   -9.1670   23.3980  -32.0190 C   0  0  0  0  0  0  0  0  0  0  0  0
   -9.7833   23.4201  -31.1081 H   0  0  0  0  0  0  0  0  0  0  0  0
   -9.3585   24.3036  -32.6133 H   0  0  0  0  0  0  0  0  0  0  0  0
   -9.4228   22.5084  -32.6133 H   0  0  0  0  0  0  0  0  0  0  0  0
   -7.3410   23.2590  -30.2910 C   0  0  0  0  0  0  0  0  0  0  0  0
   -8.1136   23.2000  -29.5102 H   0  0  0  0  0  0  0  0  0  0  0  0
   -5.9880   23.2470  -29.9350 C   0  0  0  0  0  0  0  0  0  0  0  0
   -5.7006   23.1516  -28.8775 H   0  0  0  0  0  0  0  0  0  0  0  0
   -2.7490   22.2630  -30.5890 C   0  0  0  0  0  0  0  0  0  0  0  0
   -2.9080   21.1350  -31.2230 N   0  0  0  0  0  0  0  0  0  0  0  0
   -3.2250   20.9480  -32.6060 C   0  0  0  0  0  0  0  0  0  0  0  0
   -2.6660   21.6560  -33.4870 O   0  0  0  0  0  0  0  0  0  0  0  0
   -4.1450   19.8770  -33.0120 C   0  0  0  0  0  0  0  0  0  0  0  0
   -3.8980   18.8330  -33.9010 C   0  0  0  0  0  0  0  0  0  0  0  0
   -2.9423   18.6557  -34.4161 H   0  0  0  0  0  0  0  0  0  0  0  0
   -5.0100   18.0670  -34.0380 N   0  0  0  0  0  0  0  0  0  0  0  0
   -5.9380   18.6040  -33.2640 N   0  0  0  0  0  0  0  0  0  0  0  0
   -7.2120   18.1750  -33.0950 C   0  0  0  0  0  0  0  0  0  0  0  0
   -7.5850   17.2834  -33.6203 H   0  0  0  0  0  0  0  0  0  0  0  0
   -8.0390   18.9030  -32.2300 C   0  0  0  0  0  0  0  0  0  0  0  0
   -9.0801   18.5926  -32.0577 H   0  0  0  0  0  0  0  0  0  0  0  0
   -7.5130   20.0410  -31.5840 C   0  0  0  0  0  0  0  0  0  0  0  0
   -8.1496   20.6259  -30.9037 H   0  0  0  0  0  0  0  0  0  0  0  0
   -6.2190   20.4220  -31.7970 N   0  0  0  0  0  0  0  0  0  0  0  0
   -5.4550   19.6840  -32.6400 C   0  0  0  0  0  0  0  0  0  0  0  0
   -1.6150   22.5740  -29.8720 C   0  0  0  0  0  0  0  0  0  0  0  0
   -0.7421   21.9351  -29.6722 H   0  0  0  0  0  0  0  0  0  0  0  0
   -1.5400   25.9420  -28.0010 C   0  0  0  0  0  0  0  0  0  0  0  0
   -2.5810   26.0989  -28.3200 H   0  0  0  0  0  0  0  0  0  0  0  0
   -1.1077   26.9215  -28.2532 H   0  0  0  0  0  0  0  0  0  0  0  0
  1  2  1  0
  2  3  1  0
  3  4  1  0
  3  5  1  0
  3  6  1  0
  6  7  1  0
  6  8  1  0
  6  9  1  0
  9 10  1  0
 10 11  1  0
 10 12  1  0
 10 13  1  0
 13 14  1  0
 13 15  1  0
 15 16  1  0
 16 17  1  0
 17 18  1  0
 18 19  2  0
 19 20  1  0
 19 21  1  0
 21 22  1  0
 21 23  2  0
 23 24  1  0
 24 25  1  0
 24 26  1  0
 24 27  1  0
 23 28  1  0
 28 29  1  0
 28 30  2  0
 30 31  1  0
 17 32  1  0
 32 33  2  0
 33 34  1  0
 34 35  2  0
 34 36  1  0
 36 37  1  0
 37 38  1  0
 37 39  2  0
 39 40  1  0
 40 41  1  0
 41 42  1  0
 41 43  2  0
 43 44  1  0
 43 45  1  0
 45 46  1  0
 45 47  2  0
 47 48  1  0
 32 49  1  0
 49 50  1  0
 13 51  1  0
 51 52  1  0
 51 53  1  0
 51  9  1  0
 49 15  2  0
 30 18  1  0
 48 36  2  0
 48 40  1  0
M  CHG  1  16  -1
M  END
>  <UniqueID>  (30) 
29

>  <SMILES>  (30) 
Cc1ccc(-n2[n-]c(C3CN(CCO)C3)c/c2=N/C(=O)c2cnn3cccnc23)cc1

>  <Energy>  (30) 
217.49526119267244

>  <Genealogy>  (30) 
Cc1ccc(-n2[n-]c(C3CN(CCO)C3)cc2=NC(=O)c2cnn3cccnc23)cc1 (protonated)
Cc1ccc(-n2[n-]c(C3CN(CCO)C3)c/c2=N/C(=O)c2cnn3cccnc23)cc1 (cis-trans isomerization)
Cc1ccc(-n2[n-]c(C3CN(CCO)C3)c/c2=N/C(=O)c2cnn3cccnc23)cc1 (3D coordinates assigned)
Cc1ccc(-n2[n-]c(C3CN(CCO)C3)c/c2=N/C(=O)c2cnn3cccnc23)cc1 (nonaromatic ring conformer: 217.49526119267244 kcal/mol)

>  <smiles>  (30) 
Cc1ccc(-n2[nH]c(C3CN(CCO)C3)cc2=NC(=O)c2cnn3cccnc23)cc1

>  <score_type>  (30) 
oracle

>  <origin>  (30) 
adg

>  <m_score__min__energy>  (30) 
-10.16

>  <m_primary>  (30) 
energy

$$$$
30:0
     RDKit          3D

 49 51  0  0  0  0  0  0  0  0999 V2000
   -5.5090   24.9900  -30.3690 C   0  0  0  0  0  0  0  0  0  0  0  0
   -4.2930   24.5410  -30.9610 O   0  0  0  0  0  0  0  0  0  0  0  0
   -3.9720   23.1950  -31.1950 C   0  0  0  0  0  0  0  0  0  0  0  0
   -4.4810   22.4870  -32.3030 C   0  0  0  0  0  0  0  0  0  0  0  0
   -4.1210   21.1540  -32.5150 C   0  0  0  0  0  0  0  0  0  0  0  0
   -3.2530   20.5130  -31.6290 C   0  0  0  0  0  0  0  0  0  0  0  0
   -2.7460   21.2020  -30.5260 C   0  0  0  0  0  0  0  0  0  0  0  0
   -3.1040   22.5400  -30.2990 C   0  0  0  0  0  0  0  0  0  0  0  0
   -2.5790   23.2360  -29.1570 N   0  0  0  0  0  0  0  0  0  0  0  0
   -3.1990   23.0340  -27.8430 C   0  0  0  0  0  0  0  0  0  0  0  0
   -2.5510   23.9140  -26.7650 C   0  0  0  0  0  0  0  0  0  0  0  0
   -1.0840   23.8790  -26.8740 N   0  0  0  0  0  0  0  0  0  0  0  0
   -0.2480   23.9070  -25.7000 C   0  0  0  0  0  0  0  0  0  0  0  0
    0.9230   23.4420  -25.7610 O   0  0  0  0  0  0  0  0  0  0  0  0
   -0.7430   24.4630  -24.3910 C   0  0  0  0  0  0  0  0  0  0  0  0
   -0.3440   25.8620  -24.2460 N   0  0  0  0  0  0  0  0  0  0  0  0
    0.5390   26.2930  -23.3590 N   0  0  0  0  0  0  0  0  0  0  0  0
    0.7270   27.6140  -23.5490 C   0  0  0  0  0  0  0  0  0  0  0  0
    1.7290   28.4400  -22.8030 C   0  0  0  0  0  0  0  0  0  0  0  0
    1.3450   28.5410  -21.4800 F   0  0  0  0  0  0  0  0  0  0  0  0
    2.9780   27.8500  -22.8720 F   0  0  0  0  0  0  0  0  0  0  0  0
    1.8020   29.7060  -23.3550 F   0  0  0  0  0  0  0  0  0  0  0  0
   -0.0420   28.0360  -24.6200 C   0  0  0  0  0  0  0  0  0  0  0  0
   -0.7130   26.8980  -25.0330 C   0  0  0  0  0  0  0  0  0  0  0  0
   -1.6410   26.8050  -26.2030 C   0  0  0  0  0  0  0  0  0  0  0  0
   -0.4360   23.9270  -28.1950 C   0  0  0  0  0  0  0  0  0  0  0  0
   -1.4520   24.1600  -29.3130 C   0  0  0  0  0  0  0  0  0  0  0  0
   -5.4177   24.9563  -29.2733 H   0  0  0  0  0  0  0  0  0  0  0  0
   -5.7129   26.0227  -30.6884 H   0  0  0  0  0  0  0  0  0  0  0  0
   -6.3351   24.3376  -30.6884 H   0  0  0  0  0  0  0  0  0  0  0  0
   -5.1653   22.9870  -33.0043 H   0  0  0  0  0  0  0  0  0  0  0  0
   -4.5222   20.6083  -33.3817 H   0  0  0  0  0  0  0  0  0  0  0  0
   -2.9685   19.4643  -31.8003 H   0  0  0  0  0  0  0  0  0  0  0  0
   -2.0620   20.6934  -29.8307 H   0  0  0  0  0  0  0  0  0  0  0  0
   -4.2680   23.2842  -27.9115 H   0  0  0  0  0  0  0  0  0  0  0  0
   -3.0566   21.9817  -27.5561 H   0  0  0  0  0  0  0  0  0  0  0  0
   -2.8972   24.9506  -26.8896 H   0  0  0  0  0  0  0  0  0  0  0  0
   -2.8402   23.5299  -25.7756 H   0  0  0  0  0  0  0  0  0  0  0  0
   -1.8404   24.3944  -24.3603 H   0  0  0  0  0  0  0  0  0  0  0  0
   -0.3037   23.8804  -23.5678 H   0  0  0  0  0  0  0  0  0  0  0  0
    1.0230   25.6900  -22.6560 H   0  0  0  0  0  0  0  0  0  0  0  0
   -0.1055   29.0479  -25.0467 H   0  0  0  0  0  0  0  0  0  0  0  0
   -2.6753   26.7013  -25.8433 H   0  0  0  0  0  0  0  0  0  0  0  0
   -1.5545   27.7163  -26.8129 H   0  0  0  0  0  0  0  0  0  0  0  0
   -1.3754   25.9290  -26.8129 H   0  0  0  0  0  0  0  0  0  0  0  0
    0.2976   24.7466  -28.2030 H   0  0  0  0  0  0  0  0  0  0  0  0
    0.0544   22.9585  -28.3726 H   0  0  0  0  0  0  0  0  0  0  0  0
   -1.8189   25.1958  -29.2636 H   0  0  0  0  0  0  0  0  0  0  0  0
   -0.9695   23.9850  -30.2859 H   0  0  0  0  0  0  0  0  0  0  0  0
  1  2  1  0
  2  3  1  0
  3  4  2  0
  4  5  1  0
  5  6  2  0
  6  7  1  0
  7  8  2  0
  8  9  1  0
  9 10  1  0
 10 11  1  0
 11 12  1  0
 12 13  1  0
 13 14  2  0
 13 15  1  0
 15 16  1  0
 16 17  1  0
 17 18  2  0
 18 19  1  0
 19 20  1  0
 19 21  1  0
 19 22  1  0
 18 23  1  0
 23 24  2  0
 24 25  1  0
 12 26  1  0
 26 27  1  0
  8  3  1  0
 27  9  1  0
 24 16  1  0
  1 28  1  0
  1 29  1  0
  1 30  1  0
  4 31  1  0
  5 32  1  0
  6 33  1  0
  7 34  1  0
 10 35  1  0
 10 36  1  0
 11 37  1  0
 11 38  1  0
 15 39  1  0
 15 40  1  0
 17 41  1  0
 23 42  1  0
 25 43  1  0
 25 44  1  0
 25 45  1  0
 26 46  1  0
 26 47  1  0
 27 48  1  0
 27 49  1  0
M  CHG  1  17   1
M  END
>  <UniqueID>  (31) 
30

>  <SMILES>  (31) 
COc1ccccc1N1CCN(C(=O)Cn2[nH+]c(C(F)(F)F)cc2C)CC1

>  <Energy>  (31) 
82.08728019803225

>  <Genealogy>  (31) 
COc1ccccc1N1CCN(C(=O)Cn2[nH+]c(C(F)(F)F)cc2C)CC1 (protonated)
COc1ccccc1N1CCN(C(=O)Cn2[nH+]c(C(F)(F)F)cc2C)CC1 (3D coordinates assigned)
COc1ccccc1N1CCN(C(=O)Cn2[nH+]c(C(F)(F)F)cc2C)CC1 (nonaromatic ring conformer: 82.08728019803225 kcal/mol)

>  <smiles>  (31) 
COc1ccccc1N1CCN(C(=O)Cn2nc(C(F)(F)F)cc2C)CC1

>  <score_type>  (31) 
oracle

>  <origin>  (31) 
adg

>  <m_score__min__energy>  (31) 
-7.96

>  <m_primary>  (31) 
energy

$$$$
31:0
     RDKit          3D

 29 31  0  0  0  0  0  0  0  0999 V2000
   -5.7420   25.8320  -30.4670 C   0  0  0  0  0  0  0  0  0  0  0  0
   -4.9700   24.5720  -30.6780 C   0  0  0  0  0  0  0  0  0  0  0  0
   -3.6410   24.4400  -30.4560 N   0  0  0  0  0  0  0  0  0  0  0  0
   -3.3540   23.1720  -30.8450 C   0  0  0  0  0  0  0  0  0  0  0  0
   -1.9780   22.5890  -30.7810 C   0  0  0  0  0  0  0  0  0  0  0  0
   -4.4470   22.5230  -31.3110 N   0  0  0  0  0  0  0  0  0  0  0  0
   -4.6500   21.2870  -31.8260 C   0  0  0  0  0  0  0  0  0  0  0  0
   -3.6920   20.4780  -31.9580 O   0  0  0  0  0  0  0  0  0  0  0  0
   -5.9230   20.9570  -32.2270 N   0  0  0  0  0  0  0  0  0  0  0  0
   -6.2410   19.6650  -32.7770 C   0  0  0  0  0  0  0  0  0  0  0  0
   -6.9710   18.7370  -32.0120 C   0  0  0  0  0  0  0  0  0  0  0  0
   -7.2680   17.4730  -32.5290 C   0  0  0  0  0  0  0  0  0  0  0  0
   -6.8280   17.1170  -33.8060 C   0  0  0  0  0  0  0  0  0  0  0  0
   -6.0860   18.0250  -34.5680 C   0  0  0  0  0  0  0  0  0  0  0  0
   -5.7890   19.2910  -34.0550 C   0  0  0  0  0  0  0  0  0  0  0  0
   -6.9050   21.8680  -32.1250 N   0  0  0  0  0  0  0  0  0  0  0  0
   -6.6880   23.0890  -31.6240 N   0  0  0  0  0  0  0  0  0  0  0  0
   -5.4410   23.3970  -31.2100 C   0  0  0  0  0  0  0  0  0  0  0  0
   -5.8550   26.0165  -29.3885 H   0  0  0  0  0  0  0  0  0  0  0  0
   -5.2041   26.6732  -30.9285 H   0  0  0  0  0  0  0  0  0  0  0  0
   -6.7358   25.7348  -30.9285 H   0  0  0  0  0  0  0  0  0  0  0  0
   -1.6816   22.4634  -29.7292 H   0  0  0  0  0  0  0  0  0  0  0  0
   -1.9706   21.6105  -31.2834 H   0  0  0  0  0  0  0  0  0  0  0  0
   -1.2699   23.2644  -31.2834 H   0  0  0  0  0  0  0  0  0  0  0  0
   -7.3099   19.0078  -31.0012 H   0  0  0  0  0  0  0  0  0  0  0  0
   -7.8493   16.7572  -31.9292 H   0  0  0  0  0  0  0  0  0  0  0  0
   -7.0651   16.1226  -34.2122 H   0  0  0  0  0  0  0  0  0  0  0  0
   -5.7358   17.7428  -35.5718 H   0  0  0  0  0  0  0  0  0  0  0  0
   -5.1981   19.9990  -34.6547 H   0  0  0  0  0  0  0  0  0  0  0  0
  1  2  1  0
  2  3  1  0
  3  4  2  0
  4  5  1  0
  4  6  1  0
  6  7  1  0
  7  8  2  0
  7  9  1  0
  9 10  1  0
 10 11  2  0
 11 12  1  0
 12 13  2  0
 13 14  1  0
 14 15  2  0
  9 16  1  0
 16 17  2  0
 17 18  1  0
 18  2  2  0
 18  6  1  0
 15 10  1  0
  1 19  1  0
  1 20  1  0
  1 21  1  0
  5 22  1  0
  5 23  1  0
  5 24  1  0
 11 25  1  0
 12 26  1  0
 13 27  1  0
 14 28  1  0
 15 29  1  0
M  END
>  <UniqueID>  (32) 
31

>  <SMILES>  (32) 
Cc1nc(C)n2c(=O)n(-c3ccccc3)nnc12

>  <Energy>  (32) 
76.65566902936973

>  <Genealogy>  (32) 
Cc1nc(C)n2c(=O)n(-c3ccccc3)nnc12 (3D coordinates assigned)
Cc1nc(C)n2c(=O)n(-c3ccccc3)nnc12 (optimized conformer: 76.65566902936973 kcal/mol)

>  <smiles>  (32) 
Cc1nc(C)n2c(=O)n(-c3ccccc3)nnc12

>  <score_type>  (32) 
oracle

>  <origin>  (32) 
adg

>  <m_score__min__energy>  (32) 
-6.96

>  <m_primary>  (32) 
energy

$$$$
32:0
     RDKit          3D

 54 56  0  0  0  0  0  0  0  0999 V2000
   -2.7990   20.5570  -27.7940 C   0  0  0  0  0  0  0  0  0  0  0  0
   -1.6770   21.3090  -27.0850 C   0  0  0  0  0  0  0  0  0  0  0  0
   -1.5600   22.6950  -27.6000 N   0  0  0  0  0  0  0  0  0  0  0  0
   -0.4340   23.4040  -26.9490 C   0  0  0  0  0  0  0  0  0  0  0  0
   -0.4890   23.2000  -25.4380 C   0  0  0  0  0  0  0  0  0  0  0  0
   -2.8310   23.4340  -27.4250 C   0  0  0  0  0  0  0  0  0  0  0  0
   -2.7190   24.8760  -27.9520 C   0  0  0  0  0  0  0  0  0  0  0  0
   -2.5270   24.9090  -29.4000 N   0  0  0  0  0  0  0  0  0  0  0  0
   -3.5740   24.6900  -30.3520 C   0  0  0  0  0  0  0  0  0  0  0  0
   -4.2100   25.6690  -30.8260 O   0  0  0  0  0  0  0  0  0  0  0  0
   -3.8750   23.3160  -30.8340 C   0  0  0  0  0  0  0  0  0  0  0  0
   -5.2060   22.9710  -31.1860 C   0  0  0  0  0  0  0  0  0  0  0  0
   -6.2990   24.0230  -31.2000 C   0  0  0  0  0  0  0  0  0  0  0  0
   -5.5000   21.6330  -31.5430 C   0  0  0  0  0  0  0  0  0  0  0  0
   -6.8870   21.1770  -31.8020 C   0  0  0  0  0  0  0  0  0  0  0  0
   -7.1430   20.2550  -32.8310 C   0  0  0  0  0  0  0  0  0  0  0  0
   -8.4460   19.8030  -33.0630 C   0  0  0  0  0  0  0  0  0  0  0  0
   -9.4980   20.2570  -32.2630 C   0  0  0  0  0  0  0  0  0  0  0  0
   -9.2490   21.1640  -31.2290 C   0  0  0  0  0  0  0  0  0  0  0  0
   -7.9480   21.6170  -30.9920 C   0  0  0  0  0  0  0  0  0  0  0  0
   -4.4950   20.7200  -31.6450 N   0  0  0  0  0  0  0  0  0  0  0  0
   -3.2010   21.0280  -31.3640 C   0  0  0  0  0  0  0  0  0  0  0  0
   -2.2100   20.0370  -31.4720 C   0  0  0  0  0  0  0  0  0  0  0  0
   -0.8840   20.3220  -31.1470 C   0  0  0  0  0  0  0  0  0  0  0  0
   -0.5360   21.5960  -30.7060 C   0  0  0  0  0  0  0  0  0  0  0  0
   -1.5080   22.5930  -30.5930 C   0  0  0  0  0  0  0  0  0  0  0  0
   -2.8550   22.3330  -30.9330 C   0  0  0  0  0  0  0  0  0  0  0  0
   -3.4691   20.1079  -27.0461 H   0  0  0  0  0  0  0  0  0  0  0  0
   -3.3685   21.2565  -28.4236 H   0  0  0  0  0  0  0  0  0  0  0  0
   -2.3684   19.7644  -28.4236 H   0  0  0  0  0  0  0  0  0  0  0  0
   -1.8914   21.3425  -26.0066 H   0  0  0  0  0  0  0  0  0  0  0  0
   -0.7290   20.7835  -27.2724 H   0  0  0  0  0  0  0  0  0  0  0  0
    0.5170   23.0083  -27.3351 H   0  0  0  0  0  0  0  0  0  0  0  0
   -0.5096   24.4789  -27.1700 H   0  0  0  0  0  0  0  0  0  0  0  0
   -0.2348   24.1427  -24.9313 H   0  0  0  0  0  0  0  0  0  0  0  0
   -1.5031   22.8889  -25.1467 H   0  0  0  0  0  0  0  0  0  0  0  0
    0.2313   22.4213  -25.1467 H   0  0  0  0  0  0  0  0  0  0  0  0
   -3.6272   22.9123  -27.9762 H   0  0  0  0  0  0  0  0  0  0  0  0
   -3.0627   23.4750  -26.3505 H   0  0  0  0  0  0  0  0  0  0  0  0
   -3.6422   25.4194  -27.7024 H   0  0  0  0  0  0  0  0  0  0  0  0
   -1.8443   25.3467  -27.4794 H   0  0  0  0  0  0  0  0  0  0  0  0
   -6.5701   24.2839  -30.1663 H   0  0  0  0  0  0  0  0  0  0  0  0
   -5.9369   24.9210  -31.7219 H   0  0  0  0  0  0  0  0  0  0  0  0
   -7.1826   23.6268  -31.7219 H   0  0  0  0  0  0  0  0  0  0  0  0
   -6.3158   19.8875  -33.4561 H   0  0  0  0  0  0  0  0  0  0  0  0
   -8.6430   19.0891  -33.8763 H   0  0  0  0  0  0  0  0  0  0  0  0
  -10.5222   19.9005  -32.4470 H   0  0  0  0  0  0  0  0  0  0  0  0
  -10.0781   21.5218  -30.6008 H   0  0  0  0  0  0  0  0  0  0  0  0
   -7.7539   22.3203  -30.1687 H   0  0  0  0  0  0  0  0  0  0  0  0
   -4.7330   19.7400  -31.9270 H   0  0  0  0  0  0  0  0  0  0  0  0
   -2.4826   19.0283  -31.8157 H   0  0  0  0  0  0  0  0  0  0  0  0
   -0.1143   19.5415  -31.2389 H   0  0  0  0  0  0  0  0  0  0  0  0
    0.5093   21.8185  -30.4453 H   0  0  0  0  0  0  0  0  0  0  0  0
   -1.2215   23.5928  -30.2350 H   0  0  0  0  0  0  0  0  0  0  0  0
  1  2  1  0
  2  3  1  0
  3  4  1  0
  4  5  1  0
  3  6  1  0
  6  7  1  0
  7  8  1  0
  8  9  1  0
  9 10  2  0
  9 11  1  0
 11 12  2  0
 12 13  1  0
 12 14  1  0
 14 15  1  0
 15 16  2  0
 16 17  1  0
 17 18  2  0
 18 19  1  0
 19 20  2  0
 14 21  2  0
 21 22  1  0
 22 23  2  0
 23 24  1  0
 24 25  2  0
 25 26  1  0
 26 27  2  0
 27 11  1  0
 20 15  1  0
 27 22  1  0
  1 28  1  0
  1 29  1  0
  1 30  1  0
  2 31  1  0
  2 32  1  0
  4 33  1  0
  4 34  1  0
  5 35  1  0
  5 36  1  0
  5 37  1  0
  6 38  1  0
  6 39  1  0
  7 40  1  0
  7 41  1  0
 13 42  1  0
 13 43  1  0
 13 44  1  0
 16 45  1  0
 17 46  1  0
 18 47  1  0
 19 48  1  0
 20 49  1  0
 21 50  1  0
 23 51  1  0
 24 52  1  0
 25 53  1  0
 26 54  1  0
M  CHG  2   8  -1  21   1
M  END
>  <UniqueID>  (33) 
32

>  <SMILES>  (33) 
CCN(CC)CC[N-]C(=O)c1c(C)c(-c2ccccc2)[nH+]c2ccccc12

>  <Energy>  (33) 
70.4302372211035

>  <Genealogy>  (33) 
CCN(CC)CC[N-]C(=O)c1c(C)c(-c2ccccc2)[nH+]c2ccccc12 (protonated)
CCN(CC)CC[N-]C(=O)c1c(C)c(-c2ccccc2)[nH+]c2ccccc12 (3D coordinates assigned)
CCN(CC)CC[N-]C(=O)c1c(C)c(-c2ccccc2)[nH+]c2ccccc12 (optimized conformer: 70.4302372211035 kcal/mol)

>  <smiles>  (33) 
CCN(CC)CCNC(=O)c1c(C)c(-c2ccccc2)nc2ccccc12

>  <score_type>  (33) 
oracle

>  <origin>  (33) 
adg

>  <m_score__min__energy>  (33) 
-9.5700000000000003

>  <m_primary>  (33) 
energy

$$$$
33:0
     RDKit          3D

 34 36  0  0  0  0  0  0  0  0999 V2000
   -5.8730   18.6330  -33.9550 C   0  0  0  0  0  0  0  0  0  0  0  0
   -6.9010   19.3120  -33.1000 C   0  0  0  0  0  0  0  0  0  0  0  0
   -7.8400   18.5520  -32.3860 C   0  0  0  0  0  0  0  0  0  0  0  0
   -8.7770   19.1830  -31.5650 C   0  0  0  0  0  0  0  0  0  0  0  0
   -8.7750   20.5740  -31.4360 C   0  0  0  0  0  0  0  0  0  0  0  0
   -7.8300   21.3480  -32.1320 C   0  0  0  0  0  0  0  0  0  0  0  0
   -7.8560   22.8490  -32.0370 C   0  0  0  0  0  0  0  0  0  0  0  0
   -7.2390   23.4120  -30.4110 S   0  0  0  0  0  0  0  0  0  0  0  0
   -5.5110   23.2760  -30.8630 C   0  0  0  0  0  0  0  0  0  0  0  0
   -4.6190   24.2760  -30.7540 N   0  0  0  0  0  0  0  0  0  0  0  0
   -3.4730   23.7950  -31.2120 N   0  0  0  0  0  0  0  0  0  0  0  0
   -3.7150   22.5210  -31.5830 C   0  0  0  0  0  0  0  0  0  0  0  0
   -2.7140   21.6160  -32.1770 C   0  0  0  0  0  0  0  0  0  0  0  0
   -3.0510   20.8250  -33.2890 C   0  0  0  0  0  0  0  0  0  0  0  0
   -2.1020   19.9710  -33.8610 C   0  0  0  0  0  0  0  0  0  0  0  0
   -0.8120   19.9010  -33.3300 C   0  0  0  0  0  0  0  0  0  0  0  0
   -0.4680   20.6840  -32.2260 C   0  0  0  0  0  0  0  0  0  0  0  0
   -1.4120   21.5400  -31.6500 C   0  0  0  0  0  0  0  0  0  0  0  0
   -4.9660   22.1950  -31.3640 O   0  0  0  0  0  0  0  0  0  0  0  0
   -6.8900   20.7090  -32.9570 C   0  0  0  0  0  0  0  0  0  0  0  0
   -5.1283   18.1411  -33.3120 H   0  0  0  0  0  0  0  0  0  0  0  0
   -6.3633   17.8805  -34.5901 H   0  0  0  0  0  0  0  0  0  0  0  0
   -5.3733   19.3793  -34.5901 H   0  0  0  0  0  0  0  0  0  0  0  0
   -7.8380   17.4555  -32.4733 H   0  0  0  0  0  0  0  0  0  0  0  0
   -9.5191   18.5828  -31.0181 H   0  0  0  0  0  0  0  0  0  0  0  0
   -9.5154   21.0654  -30.7876 H   0  0  0  0  0  0  0  0  0  0  0  0
   -7.2199   23.2708  -32.8291 H   0  0  0  0  0  0  0  0  0  0  0  0
   -8.8950   23.1902  -32.1553 H   0  0  0  0  0  0  0  0  0  0  0  0
   -4.0653   20.8777  -33.7113 H   0  0  0  0  0  0  0  0  0  0  0  0
   -2.3722   19.3536  -34.7304 H   0  0  0  0  0  0  0  0  0  0  0  0
   -0.0671   19.2292  -33.7814 H   0  0  0  0  0  0  0  0  0  0  0  0
    0.5481   20.6273  -31.8084 H   0  0  0  0  0  0  0  0  0  0  0  0
   -1.1354   22.1561  -30.7817 H   0  0  0  0  0  0  0  0  0  0  0  0
   -6.1398   21.3071  -33.4950 H   0  0  0  0  0  0  0  0  0  0  0  0
  1  2  1  0
  2  3  2  0
  3  4  1  0
  4  5  2  0
  5  6  1  0
  6  7  1  0
  7  8  1  0
  8  9  1  0
  9 10  2  0
 10 11  1  0
 11 12  2  0
 12 13  1  0
 13 14  2  0
 14 15  1  0
 15 16  2  0
 16 17  1  0
 17 18  2  0
 12 19  1  0
  6 20  2  0
 20  2  1  0
 19  9  1  0
 18 13  1  0
  1 21  1  0
  1 22  1  0
  1 23  1  0
  3 24  1  0
  4 25  1  0
  5 26  1  0
  7 27  1  0
  7 28  1  0
 14 29  1  0
 15 30  1  0
 16 31  1  0
 17 32  1  0
 18 33  1  0
 20 34  1  0
M  END
>  <UniqueID>  (34) 
33

>  <SMILES>  (34) 
Cc1cccc(CSc2nnc(-c3ccccc3)o2)c1

>  <Energy>  (34) 
65.08372518720995

>  <Genealogy>  (34) 
Cc1cccc(CSc2nnc(-c3ccccc3)o2)c1 (3D coordinates assigned)
Cc1cccc(CSc2nnc(-c3ccccc3)o2)c1 (optimized conformer: 65.08372518720995 kcal/mol)

>  <smiles>  (34) 
Cc1cccc(CSc2nnc(-c3ccccc3)o2)c1

>  <score_type>  (34) 
oracle

>  <origin>  (34) 
adg

>  <m_score__min__energy>  (34) 
-8.1899999999999995

>  <m_primary>  (34) 
energy

$$$$
34:0
     RDKit          3D

 51 51  0  0  0  0  0  0  0  0999 V2000
   -3.1090   21.5280  -32.7710 C   0  0  0  0  0  0  0  0  0  0  0  0
   -2.0630   21.8740  -31.7180 C   0  0  0  0  0  0  0  0  0  0  0  0
   -2.7020   22.3800  -30.4870 N   0  0  0  0  0  0  0  0  0  0  0  0
   -3.2520   21.3030  -29.6370 C   0  0  0  0  0  0  0  0  0  0  0  0
   -3.0960   21.5720  -28.1350 C   0  0  0  0  0  0  0  0  0  0  0  0
   -1.8660   23.3460  -29.7410 C   0  0  0  0  0  0  0  0  0  0  0  0
   -2.7010   24.5730  -29.3530 C   0  0  0  0  0  0  0  0  0  0  0  0
   -3.5490   25.0010  -30.4640 N   0  0  0  0  0  0  0  0  0  0  0  0
   -4.9580   25.2700  -30.4210 C   0  0  0  0  0  0  0  0  0  0  0  0
   -5.3340   26.4710  -30.4780 O   0  0  0  0  0  0  0  0  0  0  0  0
   -6.0000   24.1830  -30.3760 C   0  0  0  0  0  0  0  0  0  0  0  0
   -5.5170   22.9960  -31.0930 N   0  0  0  0  0  0  0  0  0  0  0  0
   -6.2620   22.7610  -32.3390 C   0  0  0  0  0  0  0  0  0  0  0  0
   -6.9560   21.4190  -32.3490 C   0  0  0  0  0  0  0  0  0  0  0  0
   -8.1980   21.2550  -31.7160 C   0  0  0  0  0  0  0  0  0  0  0  0
   -8.8370   20.0170  -31.7430 C   0  0  0  0  0  0  0  0  0  0  0  0
   -8.2530   18.9370  -32.4010 C   0  0  0  0  0  0  0  0  0  0  0  0
   -7.0060   19.0730  -33.0500 C   0  0  0  0  0  0  0  0  0  0  0  0
   -6.4010   17.9540  -33.7610 N   0  0  0  0  0  0  0  0  0  0  0  0
   -5.6450   18.1750  -35.0050 C   0  0  0  0  0  0  0  0  0  0  0  0
   -6.5180   16.5910  -33.2390 C   0  0  0  0  0  0  0  0  0  0  0  0
   -6.3620   20.3290  -33.0020 C   0  0  0  0  0  0  0  0  0  0  0  0
   -4.0410   21.2197  -32.2746 H   0  0  0  0  0  0  0  0  0  0  0  0
   -3.3026   22.4100  -33.3992 H   0  0  0  0  0  0  0  0  0  0  0  0
   -2.7384   20.7046  -33.3992 H   0  0  0  0  0  0  0  0  0  0  0  0
   -1.4820   20.9715  -31.4774 H   0  0  0  0  0  0  0  0  0  0  0  0
   -1.4052   22.6584  -32.1205 H   0  0  0  0  0  0  0  0  0  0  0  0
   -4.3232   21.1939  -29.8622 H   0  0  0  0  0  0  0  0  0  0  0  0
   -2.6840   20.3887  -29.8636 H   0  0  0  0  0  0  0  0  0  0  0  0
   -3.5682   20.7578  -27.5657 H   0  0  0  0  0  0  0  0  0  0  0  0
   -2.0270   21.6250  -27.8811 H   0  0  0  0  0  0  0  0  0  0  0  0
   -3.5809   22.5261  -27.8811 H   0  0  0  0  0  0  0  0  0  0  0  0
   -1.4794   22.8657  -28.8301 H   0  0  0  0  0  0  0  0  0  0  0  0
   -1.0285   23.6662  -30.3783 H   0  0  0  0  0  0  0  0  0  0  0  0
   -3.3369   24.3181  -28.4924 H   0  0  0  0  0  0  0  0  0  0  0  0
   -2.0174   25.3957  -29.0962 H   0  0  0  0  0  0  0  0  0  0  0  0
   -6.2050   23.9177  -29.3283 H   0  0  0  0  0  0  0  0  0  0  0  0
   -6.9213   24.5452  -30.8556 H   0  0  0  0  0  0  0  0  0  0  0  0
   -4.5000   23.1150  -31.3120 H   0  0  0  0  0  0  0  0  0  0  0  0
   -7.0187   23.5512  -32.4529 H   0  0  0  0  0  0  0  0  0  0  0  0
   -5.5404   22.7724  -33.1692 H   0  0  0  0  0  0  0  0  0  0  0  0
   -8.6673   22.1045  -31.1982 H   0  0  0  0  0  0  0  0  0  0  0  0
   -9.8082   19.8918  -31.2418 H   0  0  0  0  0  0  0  0  0  0  0  0
   -8.7696   17.9660  -32.4153 H   0  0  0  0  0  0  0  0  0  0  0  0
   -4.6157   18.4759  -34.7600 H   0  0  0  0  0  0  0  0  0  0  0  0
   -5.6252   17.2450  -35.5922 H   0  0  0  0  0  0  0  0  0  0  0  0
   -6.1293   18.9692  -35.5922 H   0  0  0  0  0  0  0  0  0  0  0  0
   -6.5157   16.6181  -32.1393 H   0  0  0  0  0  0  0  0  0  0  0  0
   -7.4580   16.1423  -33.5928 H   0  0  0  0  0  0  0  0  0  0  0  0
   -5.6683   15.9887  -33.5928 H   0  0  0  0  0  0  0  0  0  0  0  0
   -5.3809   20.4542  -33.4834 H   0  0  0  0  0  0  0  0  0  0  0  0
  1  2  1  0
  2  3  1  0
  3  4  1  0
  4  5  1  0
  3  6  1  0
  6  7  1  0
  7  8  1  0
  8  9  1  0
  9 10  2  0
  9 11  1  0
 11 12  1  0
 12 13  1  0
 13 14  1  0
 14 15  2  0
 15 16  1  0
 16 17  2  0
 17 18  1  0
 18 19  1  0
 19 20  1  0
 19 21  1  0
 18 22  2  0
 22 14  1  0
  1 23  1  0
  1 24  1  0
  1 25  1  0
  2 26  1  0
  2 27  1  0
  4 28  1  0
  4 29  1  0
  5 30  1  0
  5 31  1  0
  5 32  1  0
  6 33  1  0
  6 34  1  0
  7 35  1  0
  7 36  1  0
 11 37  1  0
 11 38  1  0
 12 39  1  0
 13 40  1  0
 13 41  1  0
 15 42  1  0
 16 43  1  0
 17 44  1  0
 20 45  1  0
 20 46  1  0
 20 47  1  0
 21 48  1  0
 21 49  1  0
 21 50  1  0
 22 51  1  0
M  CHG  1   8  -1
M  END
>  <UniqueID>  (35) 
34

>  <SMILES>  (35) 
CCN(CC)CC[N-]C(=O)CNCc1cccc(N(C)C)c1

>  <Energy>  (35) 
43.10039844911688

>  <Genealogy>  (35) 
CCN(CC)CC[N-]C(=O)CNCc1cccc(N(C)C)c1 (protonated)
CCN(CC)CC[N-]C(=O)CNCc1cccc(N(C)C)c1 (3D coordinates assigned)
CCN(CC)CC[N-]C(=O)CNCc1cccc(N(C)C)c1 (optimized conformer: 43.10039844911688 kcal/mol)

>  <smiles>  (35) 
CCN(CC)CCNC(=O)CNCc1cccc(N(C)C)c1

>  <score_type>  (35) 
oracle

>  <origin>  (35) 
adg

>  <m_score__min__energy>  (35) 
-8.9600000000000009

>  <m_primary>  (35) 
energy

$$$$
35:0
     RDKit          3D

 47 49  0  0  0  0  0  0  0  0999 V2000
   -9.0150   18.4250  -31.9450 C   0  0  0  0  0  0  0  0  0  0  0  0
   -7.8860   19.2560  -32.4240 N   0  0  0  0  0  0  0  0  0  0  0  0
   -6.7940   18.6540  -33.0230 C   0  0  0  0  0  0  0  0  0  0  0  0
   -6.8280   17.3010  -33.4500 C   0  0  0  0  0  0  0  0  0  0  0  0
   -5.6890   16.6760  -33.9550 C   0  0  0  0  0  0  0  0  0  0  0  0
   -4.4930   17.3770  -34.0530 C   0  0  0  0  0  0  0  0  0  0  0  0
   -4.4430   18.7210  -33.6950 C   0  0  0  0  0  0  0  0  0  0  0  0
   -5.5970   19.3900  -33.2330 C   0  0  0  0  0  0  0  0  0  0  0  0
   -5.5740   20.7720  -32.9590 C   0  0  0  0  0  0  0  0  0  0  0  0
   -4.4000   21.5560  -33.2500 N   0  0  0  0  0  0  0  0  0  0  0  0
   -3.2540   21.6210  -32.3400 C   0  0  0  0  0  0  0  0  0  0  0  0
   -2.0990   20.7320  -32.8230 C   0  0  0  0  0  0  0  0  0  0  0  0
   -0.8700   21.5260  -33.3140 C   0  0  0  0  0  0  0  0  0  0  0  0
   -0.4850   21.1840  -34.7150 N   0  0  0  0  0  0  0  0  0  0  0  0
   -0.4480   19.7240  -34.9130 C   0  0  0  0  0  0  0  0  0  0  0  0
    0.8270   21.7620  -35.0600 C   0  0  0  0  0  0  0  0  0  0  0  0
   -6.7280   21.3940  -32.4450 C   0  0  0  0  0  0  0  0  0  0  0  0
   -6.7460   22.7810  -32.1750 C   0  0  0  0  0  0  0  0  0  0  0  0
   -7.9120   23.4100  -31.7460 C   0  0  0  0  0  0  0  0  0  0  0  0
   -9.0810   22.6760  -31.5910 C   0  0  0  0  0  0  0  0  0  0  0  0
   -9.0860   21.3050  -31.8360 C   0  0  0  0  0  0  0  0  0  0  0  0
   -7.9030   20.6230  -32.2290 C   0  0  0  0  0  0  0  0  0  0  0  0
   -9.0244   18.4181  -30.8451 H   0  0  0  0  0  0  0  0  0  0  0  0
   -9.9619   18.8433  -32.3171 H   0  0  0  0  0  0  0  0  0  0  0  0
   -8.8971   17.3966  -32.3171 H   0  0  0  0  0  0  0  0  0  0  0  0
   -7.7692   16.7359  -33.3813 H   0  0  0  0  0  0  0  0  0  0  0  0
   -5.7369   15.6252  -34.2768 H   0  0  0  0  0  0  0  0  0  0  0  0
   -3.5860   16.8697  -34.4135 H   0  0  0  0  0  0  0  0  0  0  0  0
   -3.4923   19.2688  -33.7730 H   0  0  0  0  0  0  0  0  0  0  0  0
   -4.2740   21.9270  -34.2190 H   0  0  0  0  0  0  0  0  0  0  0  0
   -2.9031   22.6619  -32.2813 H   0  0  0  0  0  0  0  0  0  0  0  0
   -3.5772   21.2597  -31.3526 H   0  0  0  0  0  0  0  0  0  0  0  0
   -1.7853   20.0865  -31.9894 H   0  0  0  0  0  0  0  0  0  0  0  0
   -2.4738   20.1554  -33.6815 H   0  0  0  0  0  0  0  0  0  0  0  0
   -1.1025   22.6000  -33.2652 H   0  0  0  0  0  0  0  0  0  0  0  0
   -0.0230   21.2630  -32.6632 H   0  0  0  0  0  0  0  0  0  0  0  0
   -1.1840   21.5620  -35.3970 H   0  0  0  0  0  0  0  0  0  0  0  0
   -0.4353   19.2215  -33.9346 H   0  0  0  0  0  0  0  0  0  0  0  0
   -1.3384   19.4077  -35.4761 H   0  0  0  0  0  0  0  0  0  0  0  0
    0.4573   19.4532  -35.4761 H   0  0  0  0  0  0  0  0  0  0  0  0
    1.3753   22.0035  -34.1375 H   0  0  0  0  0  0  0  0  0  0  0  0
    1.4043   21.0349  -35.6499 H   0  0  0  0  0  0  0  0  0  0  0  0
    0.6801   22.6787  -35.6499 H   0  0  0  0  0  0  0  0  0  0  0  0
   -5.8271   23.3714  -32.3054 H   0  0  0  0  0  0  0  0  0  0  0  0
   -7.9073   24.4885  -31.5298 H   0  0  0  0  0  0  0  0  0  0  0  0
  -10.0061   23.1794  -31.2736 H   0  0  0  0  0  0  0  0  0  0  0  0
  -10.0229   20.7398  -31.7232 H   0  0  0  0  0  0  0  0  0  0  0  0
  1  2  1  0
  2  3  2  0
  3  4  1  0
  4  5  2  0
  5  6  1  0
  6  7  2  0
  7  8  1  0
  8  9  2  0
  9 10  1  0
 10 11  1  0
 11 12  1  0
 12 13  1  0
 13 14  1  0
 14 15  1  0
 14 16  1  0
  9 17  1  0
 17 18  2  0
 18 19  1  0
 19 20  2  0
 20 21  1  0
 21 22  2  0
 22  2  1  0
  8  3  1  0
 22 17  1  0
  1 23  1  0
  1 24  1  0
  1 25  1  0
  4 26  1  0
  5 27  1  0
  6 28  1  0
  7 29  1  0
 10 30  1  0
 11 31  1  0
 11 32  1  0
 12 33  1  0
 12 34  1  0
 13 35  1  0
 13 36  1  0
 14 37  1  0
 15 38  1  0
 15 39  1  0
 15 40  1  0
 16 41  1  0
 16 42  1  0
 16 43  1  0
 18 44  1  0
 19 45  1  0
 20 46  1  0
 21 47  1  0
M  CHG  2   2   1  14   1
M  END
>  <UniqueID>  (36) 
35

>  <SMILES>  (36) 
C[n+]1c2ccccc2c(NCCC[NH+](C)C)c2ccccc21

>  <Energy>  (36) 
74.96357759911774

>  <Genealogy>  (36) 
C[n+]1c2ccccc2c(NCCC[NH+](C)C)c2ccccc21 (protonated)
C[n+]1c2ccccc2c(NCCC[NH+](C)C)c2ccccc21 (3D coordinates assigned)
C[n+]1c2ccccc2c(NCCC[NH+](C)C)c2ccccc21 (optimized conformer: 74.96357759911774 kcal/mol)

>  <smiles>  (36) 
CN(C)CCCNc1c2ccccc2[n+](C)c2ccccc12

>  <score_type>  (36) 
oracle

>  <origin>  (36) 
adg

>  <m_score__min__energy>  (36) 
-6.9500000000000002

>  <m_primary>  (36) 
energy

$$$$
36:0
     RDKit          3D

 73 75  0  0  1  0  0  0  0  0999 V2000
   -4.6160   23.1780  -28.3620 C   0  0  0  0  0  0  0  0  0  0  0  0
   -4.6710   24.5290  -28.9840 C   0  0  0  0  0  0  0  0  0  0  0  0
   -4.1440   24.5240  -30.3430 N   0  0  0  0  0  0  0  0  0  0  0  0
   -3.5380   23.2710  -30.6750 C   0  0  0  0  0  0  0  0  0  0  0  0
   -2.1240   23.1580  -30.1290 C   0  0  0  0  0  0  0  0  0  0  0  0
   -5.3380   24.6900  -31.1920 C   0  0  0  0  0  0  0  0  0  0  0  0
   -6.1750   23.4740  -31.3140 C   0  0  0  0  0  0  0  0  0  0  0  0
   -5.9060   22.7690  -32.5530 N   0  0  0  0  0  0  0  0  0  0  0  0
   -5.9140   21.3710  -32.7080 C   0  0  0  0  0  0  0  0  0  0  0  0
   -6.9730   20.5340  -32.5370 C   0  0  0  0  0  0  0  0  0  0  0  0
   -8.1660   21.0610  -32.1030 C   0  0  0  0  0  0  0  0  0  0  0  0
   -9.2830   20.2840  -31.8890 C   0  0  0  0  0  0  0  0  0  0  0  0
   -9.1560   18.9330  -32.1310 C   0  0  0  0  0  0  0  0  0  0  0  0
   -7.9440   18.3890  -32.5710 C   0  0  0  0  0  0  0  0  0  0  0  0
   -6.8340   19.1770  -32.7820 C   0  0  0  0  0  0  0  0  0  0  0  0
   -5.6850   18.6160  -33.1880 N   0  0  0  0  0  0  0  0  0  0  0  0
   -5.5030   17.2150  -33.4570 C   0  0  0  0  0  0  0  0  0  0  0  0
   -4.6020   19.4310  -33.3660 C   0  0  0  0  0  0  0  0  0  0  0  0
   -3.3780   18.9210  -33.7790 C   0  0  0  0  0  0  0  0  0  0  0  0
   -2.2590   19.6860  -33.9710 C   0  0  0  0  0  0  0  0  0  0  0  0
   -0.9940   19.2260  -34.3790 N   0  0  0  0  0  0  0  0  0  0  0  0
   -0.0940   19.9070  -35.2300 C   0  0  0  0  0  0  0  0  0  0  0  0
   -0.3240   21.0270  -35.7320 O   0  0  0  0  0  0  0  0  0  0  0  0
    1.2010   19.2630  -35.5490 C   0  0  0  0  0  0  0  0  0  0  0  0
    1.8250   19.7350  -36.8190 C   0  0  0  0  0  0  0  0  0  0  0  0
    3.2470   20.1710  -36.7210 C   0  0  0  0  0  0  0  0  0  0  0  0
    3.4830   21.2450  -35.6940 C   0  0  0  0  0  0  0  0  0  0  0  0
    3.3120   22.6490  -36.2480 C   0  0  0  0  0  0  0  0  0  0  0  0
    1.9290   23.0820  -35.8770 C   0  0  0  0  0  0  0  0  0  0  0  0
    1.3710   22.5900  -34.6990 O   0  0  0  0  0  0  0  0  0  0  0  0
    1.2460   23.8930  -36.6150 N   0  0  0  0  0  0  0  0  0  0  0  0
   -0.1170   23.9680  -36.4310 O   0  0  0  0  0  0  0  0  0  0  0  0
   -2.3930   21.0450  -33.7290 C   0  0  0  0  0  0  0  0  0  0  0  0
   -3.6000   21.5690  -33.3180 C   0  0  0  0  0  0  0  0  0  0  0  0
   -4.7170   20.7840  -33.1310 C   0  0  0  0  0  0  0  0  0  0  0  0
   -4.6201   23.2782  -27.2666 H   0  0  0  0  0  0  0  0  0  0  0  0
   -5.4910   22.5921  -28.6799 H   0  0  0  0  0  0  0  0  0  0  0  0
   -3.6962   22.6652  -28.6799 H   0  0  0  0  0  0  0  0  0  0  0  0
   -5.7177   24.8662  -29.0098 H   0  0  0  0  0  0  0  0  0  0  0  0
   -4.0503   25.2075  -28.3804 H   0  0  0  0  0  0  0  0  0  0  0  0
   -4.1476   22.4589  -30.2521 H   0  0  0  0  0  0  0  0  0  0  0  0
   -3.4847   23.2001  -31.7714 H   0  0  0  0  0  0  0  0  0  0  0  0
   -2.1543   23.1604  -29.0294 H   0  0  0  0  0  0  0  0  0  0  0  0
   -1.6688   22.2206  -30.4812 H   0  0  0  0  0  0  0  0  0  0  0  0
   -1.5257   24.0112  -30.4812 H   0  0  0  0  0  0  0  0  0  0  0  0
   -5.9566   25.4920  -30.7629 H   0  0  0  0  0  0  0  0  0  0  0  0
   -4.9744   24.9240  -32.2034 H   0  0  0  0  0  0  0  0  0  0  0  0
   -5.9601   22.8051  -30.4676 H   0  0  0  0  0  0  0  0  0  0  0  0
   -7.2318   23.7792  -31.3115 H   0  0  0  0  0  0  0  0  0  0  0  0
   -5.6870   23.3400  -33.4070 H   0  0  0  0  0  0  0  0  0  0  0  0
   -8.2311   22.1437  -31.9197 H   0  0  0  0  0  0  0  0  0  0  0  0
  -10.2310   20.7207  -31.5416 H   0  0  0  0  0  0  0  0  0  0  0  0
  -10.0213   18.2718  -31.9758 H   0  0  0  0  0  0  0  0  0  0  0  0
   -7.8761   17.3062  -32.7527 H   0  0  0  0  0  0  0  0  0  0  0  0
   -5.4316   16.6654  -32.5068 H   0  0  0  0  0  0  0  0  0  0  0  0
   -6.3598   16.8383  -34.0350 H   0  0  0  0  0  0  0  0  0  0  0  0
   -4.5784   17.0697  -34.0350 H   0  0  0  0  0  0  0  0  0  0  0  0
   -3.3033   17.8390  -33.9626 H   0  0  0  0  0  0  0  0  0  0  0  0
   -0.6650   18.2840  -34.0270 H   0  0  0  0  0  0  0  0  0  0  0  0
    1.9000   19.4680  -34.7248 H   0  0  0  0  0  0  0  0  0  0  0  0
    0.9957   18.1901  -35.6786 H   0  0  0  0  0  0  0  0  0  0  0  0
    1.7740   18.9114  -37.5464 H   0  0  0  0  0  0  0  0  0  0  0  0
    1.2582   20.6299  -37.1154 H   0  0  0  0  0  0  0  0  0  0  0  0
    3.8603   19.2971  -36.4562 H   0  0  0  0  0  0  0  0  0  0  0  0
    3.5200   20.5962  -37.6981 H   0  0  0  0  0  0  0  0  0  0  0  0
    2.7678   21.1045  -34.8702 H   0  0  0  0  0  0  0  0  0  0  0  0
    4.5255   21.1512  -35.3558 H   0  0  0  0  0  0  0  0  0  0  0  0
    4.0554   23.3269  -35.8033 H   0  0  0  0  0  0  0  0  0  0  0  0
    3.4579   22.6689  -37.3381 H   0  0  0  0  0  0  0  0  0  0  0  0
    0.3660   22.6600  -34.5480 H   0  0  0  0  0  0  0  0  0  0  0  0
   -0.5640   23.1690  -35.9860 H   0  0  0  0  0  0  0  0  0  0  0  0
   -1.5283   21.7109  -33.8663 H   0  0  0  0  0  0  0  0  0  0  0  0
   -3.6740   22.6508  -33.1330 H   0  0  0  0  0  0  0  0  0  0  0  0
  1  2  1  0
  2  3  1  0
  3  4  1  0
  4  5  1  0
  3  6  1  0
  6  7  1  0
  7  8  1  0
  8  9  1  0
  9 10  2  0
 10 11  1  0
 11 12  2  0
 12 13  1  0
 13 14  2  0
 14 15  1  0
 15 16  2  0
 16 17  1  0
 16 18  1  0
 18 19  2  0
 19 20  1  0
 20 21  1  0
 21 22  1  0
 22 23  2  0
 22 24  1  0
 24 25  1  0
 25 26  1  0
 26 27  1  0
 27 28  1  0
 28 29  1  0
 29 30  1  0
 29 31  2  0
 31 32  1  0
 20 33  2  0
 33 34  1  0
 34 35  2  0
 35  9  1  0
 15 10  1  0
 35 18  1  0
  1 36  1  0
  1 37  1  0
  1 38  1  0
  2 39  1  0
  2 40  1  0
  4 41  1  0
  4 42  1  0
  5 43  1  0
  5 44  1  0
  5 45  1  0
  6 46  1  0
  6 47  1  0
  7 48  1  0
  7 49  1  0
  8 50  1  0
 11 51  1  0
 12 52  1  0
 13 53  1  0
 14 54  1  0
 17 55  1  0
 17 56  1  0
 17 57  1  0
 19 58  1  0
 21 59  1  0
 24 60  1  0
 24 61  1  0
 25 62  1  0
 25 63  1  0
 26 64  1  0
 26 65  1  0
 27 66  1  0
 27 67  1  0
 28 68  1  0
 28 69  1  0
 30 70  1  0
 32 71  1  0
 33 72  1  0
 34 73  1  0
M  CHG  1  16   1
M  END
>  <smiles>  (37) 
CCN(CC)CCNc1c2ccccc2[n+](C)c2cc(NC(=O)CCCCCC(O)=NO)ccc12

>  <score_type>  (37) 
oracle

>  <origin>  (37) 
adg

>  <m_score__min__energy>  (37) 
-9.0600000000000005

>  <m_primary>  (37) 
energy

$$$$
37:0
     RDKit          3D

 28 30  0  0  1  0  0  0  0  0999 V2000
   -6.5730   16.9820  -32.6690 N   0  0  0  0  0  0  0  0  0  0  0  0
   -7.0690   18.1440  -32.4680 C   0  0  0  0  0  0  0  0  0  0  0  0
   -8.3720   18.2740  -32.1520 N   0  0  0  0  0  0  0  0  0  0  0  0
   -8.9210   19.4970  -31.9340 C   0  0  0  0  0  0  0  0  0  0  0  0
   -8.1760   20.6230  -32.0260 N   0  0  0  0  0  0  0  0  0  0  0  0
   -6.8670   20.5550  -32.3390 C   0  0  0  0  0  0  0  0  0  0  0  0
   -6.3260   19.3000  -32.5580 C   0  0  0  0  0  0  0  0  0  0  0  0
   -5.0280   19.4520  -32.8510 N   0  0  0  0  0  0  0  0  0  0  0  0
   -4.7780   20.7710  -32.8140 C   0  0  0  0  0  0  0  0  0  0  0  0
   -5.8950   21.4620  -32.5010 N   0  0  0  0  0  0  0  0  0  0  0  0
   -6.0090   22.8970  -32.3700 C   0  0  1  0  0  0  0  0  0  0  0  0
   -7.3410   23.3130  -31.8490 C   0  0  0  0  0  0  0  0  0  0  0  0
   -7.1320   24.0470  -30.7610 C   0  0  0  0  0  0  0  0  0  0  0  0
   -5.6670   24.1410  -30.5280 C   0  0  2  0  0  0  0  0  0  0  0  0
   -5.2790   25.5840  -30.3780 C   0  0  0  0  0  0  0  0  0  0  0  0
   -3.8840   25.6280  -30.5890 O   0  0  0  0  0  0  0  0  0  0  0  0
   -5.0640   23.4750  -31.5620 O   0  0  0  0  0  0  0  0  0  0  0  0
   -5.5900   16.7440  -32.8510 H   0  0  0  0  0  0  0  0  0  0  0  0
   -8.9380   17.3920  -32.0830 H   0  0  0  0  0  0  0  0  0  0  0  0
   -9.9882   19.5735  -31.6786 H   0  0  0  0  0  0  0  0  0  0  0  0
   -3.7965   21.2266  -33.0118 H   0  0  0  0  0  0  0  0  0  0  0  0
   -5.8558   23.2514  -33.4000 H   0  0  0  0  0  0  0  0  0  0  0  0
   -8.3185   23.0592  -32.2849 H   0  0  0  0  0  0  0  0  0  0  0  0
   -7.9123   24.5077  -30.1374 H   0  0  0  0  0  0  0  0  0  0  0  0
   -5.3361   23.6667  -29.5923 H   0  0  0  0  0  0  0  0  0  0  0  0
   -5.7996   26.2009  -31.1253 H   0  0  0  0  0  0  0  0  0  0  0  0
   -5.5526   25.9773  -29.3878 H   0  0  0  0  0  0  0  0  0  0  0  0
   -3.6380   24.9220  -31.2240 H   0  0  0  0  0  0  0  0  0  0  0  0
  1  2  2  3
  2  3  1  0
  3  4  1  0
  4  5  2  0
  5  6  1  0
  6  7  2  0
  7  8  1  0
  8  9  2  0
  9 10  1  0
 10 11  1  0
 11 12  1  0
 12 13  2  0
 13 14  1  0
 14 15  1  0
 15 16  1  0
 14 17  1  0
  7  2  1  0
 17 11  1  0
 10  6  1  0
  1 18  1  0
  3 19  1  0
  4 20  1  0
  9 21  1  0
 11 22  1  6
 12 23  1  0
 13 24  1  0
 14 25  1  1
 15 26  1  0
 15 27  1  0
 16 28  1  0
M  END
>  <smiles>  (38) 
N=c1[nH]cnc2c1ncn2C1C=CC(CO)O1

>  <score_type>  (38) 
oracle

>  <origin>  (38) 
adg

>  <m_score__min__energy>  (38) 
-6.9500000000000002

>  <m_primary>  (38) 
energy

$$$$
38:0
     RDKit          3D

 55 57  0  0  0  0  0  0  0  0999 V2000
   -0.6920   22.1440  -26.4970 C   0  0  0  0  0  0  0  0  0  0  0  0
   -0.1040   22.2040  -27.9050 C   0  0  0  0  0  0  0  0  0  0  0  0
    0.4750   23.5930  -28.2020 C   0  0  0  0  0  0  0  0  0  0  0  0
   -0.5480   24.5520  -28.6630 N   0  0  0  0  0  0  0  0  0  0  0  0
   -0.7090   25.7870  -27.8500 C   0  0  0  0  0  0  0  0  0  0  0  0
   -1.2970   25.6140  -26.4300 C   0  0  0  0  0  0  0  0  0  0  0  0
   -1.2020   26.8710  -25.5680 C   0  0  0  0  0  0  0  0  0  0  0  0
   -1.7210   23.9630  -29.3420 C   0  0  0  0  0  0  0  0  0  0  0  0
   -2.9520   24.8540  -29.1570 C   0  0  0  0  0  0  0  0  0  0  0  0
   -3.4880   25.2520  -30.4540 N   0  0  0  0  0  0  0  0  0  0  0  0
   -4.8640   25.1070  -30.8270 C   0  0  0  0  0  0  0  0  0  0  0  0
   -5.6190   26.1180  -30.8400 O   0  0  0  0  0  0  0  0  0  0  0  0
   -5.4000   23.7750  -31.1880 C   0  0  0  0  0  0  0  0  0  0  0  0
   -4.5390   22.6690  -31.3170 C   0  0  0  0  0  0  0  0  0  0  0  0
   -5.0450   21.4120  -31.6590 C   0  0  0  0  0  0  0  0  0  0  0  0
   -6.4190   21.2360  -31.8830 C   0  0  0  0  0  0  0  0  0  0  0  0
   -6.9350   19.9360  -32.2160 N   0  0  0  0  0  0  0  0  0  0  0  0
   -8.0990   19.4070  -31.7660 C   0  0  0  0  0  0  0  0  0  0  0  0
   -8.3030   18.1380  -32.2990 C   0  0  0  0  0  0  0  0  0  0  0  0
   -7.2040   17.8980  -33.0930 C   0  0  0  0  0  0  0  0  0  0  0  0
   -6.8630   16.7700  -33.8400 C   0  0  0  0  0  0  0  0  0  0  0  0
   -5.6390   16.7860  -34.5320 C   0  0  0  0  0  0  0  0  0  0  0  0
   -4.7870   17.9080  -34.4500 C   0  0  0  0  0  0  0  0  0  0  0  0
   -5.1520   19.0280  -33.6820 C   0  0  0  0  0  0  0  0  0  0  0  0
   -6.3880   19.0000  -33.0240 C   0  0  0  0  0  0  0  0  0  0  0  0
   -7.2830   22.3310  -31.7360 C   0  0  0  0  0  0  0  0  0  0  0  0
   -6.7790   23.5900  -31.3990 C   0  0  0  0  0  0  0  0  0  0  0  0
    0.1181   22.2267  -25.7575 H   0  0  0  0  0  0  0  0  0  0  0  0
   -1.4000   22.9746  -26.3596 H   0  0  0  0  0  0  0  0  0  0  0  0
   -1.2177   21.1875  -26.3596 H   0  0  0  0  0  0  0  0  0  0  0  0
    0.6966   21.4547  -27.9924 H   0  0  0  0  0  0  0  0  0  0  0  0
   -0.9067   21.9977  -28.6283 H   0  0  0  0  0  0  0  0  0  0  0  0
    0.9362   23.9853  -27.2836 H   0  0  0  0  0  0  0  0  0  0  0  0
    1.2111   23.4790  -29.0114 H   0  0  0  0  0  0  0  0  0  0  0  0
    0.2840   26.2486  -27.7453 H   0  0  0  0  0  0  0  0  0  0  0  0
   -1.4450   26.3968  -28.3945 H   0  0  0  0  0  0  0  0  0  0  0  0
   -2.3574   25.3374  -26.5247 H   0  0  0  0  0  0  0  0  0  0  0  0
   -0.7029   24.8355  -25.9291 H   0  0  0  0  0  0  0  0  0  0  0  0
   -1.2233   26.5891  -24.5050 H   0  0  0  0  0  0  0  0  0  0  0  0
   -0.2615   27.3970  -25.7891 H   0  0  0  0  0  0  0  0  0  0  0  0
   -2.0527   27.5324  -25.7891 H   0  0  0  0  0  0  0  0  0  0  0  0
   -1.5049   23.8628  -30.4159 H   0  0  0  0  0  0  0  0  0  0  0  0
   -1.9274   22.9759  -28.9026 H   0  0  0  0  0  0  0  0  0  0  0  0
   -3.7218   24.2986  -28.6011 H   0  0  0  0  0  0  0  0  0  0  0  0
   -2.6606   25.7556  -28.5982 H   0  0  0  0  0  0  0  0  0  0  0  0
   -3.4595   22.7950  -31.1473 H   0  0  0  0  0  0  0  0  0  0  0  0
   -4.3618   20.5551  -31.7532 H   0  0  0  0  0  0  0  0  0  0  0  0
   -8.7885   19.9122  -31.0737 H   0  0  0  0  0  0  0  0  0  0  0  0
   -9.1589   17.4697  -32.1236 H   0  0  0  0  0  0  0  0  0  0  0  0
   -7.5300   15.8965  -33.8861 H   0  0  0  0  0  0  0  0  0  0  0  0
   -5.3438   15.9187  -35.1409 H   0  0  0  0  0  0  0  0  0  0  0  0
   -3.8294   17.9064  -34.9913 H   0  0  0  0  0  0  0  0  0  0  0  0
   -4.4866   19.9001  -33.6005 H   0  0  0  0  0  0  0  0  0  0  0  0
   -8.3644   22.1979  -31.8870 H   0  0  0  0  0  0  0  0  0  0  0  0
   -7.4657   24.4433  -31.2978 H   0  0  0  0  0  0  0  0  0  0  0  0
  1  2  1  0
  2  3  1  0
  3  4  1  0
  4  5  1  0
  5  6  1  0
  6  7  1  0
  4  8  1  0
  8  9  1  0
  9 10  1  0
 10 11  1  0
 11 12  2  0
 11 13  1  0
 13 14  2  0
 14 15  1  0
 15 16  2  0
 16 17  1  0
 17 18  1  0
 18 19  2  0
 19 20  1  0
 20 21  2  0
 21 22  1  0
 22 23  2  0
 23 24  1  0
 24 25  2  0
 16 26  1  0
 26 27  2  0
 27 13  1  0
 25 17  1  0
 25 20  1  0
  1 28  1  0
  1 29  1  0
  1 30  1  0
  2 31  1  0
  2 32  1  0
  3 33  1  0
  3 34  1  0
  5 35  1  0
  5 36  1  0
  6 37  1  0
  6 38  1  0
  7 39  1  0
  7 40  1  0
  7 41  1  0
  8 42  1  0
  8 43  1  0
  9 44  1  0
  9 45  1  0
 14 46  1  0
 15 47  1  0
 18 48  1  0
 19 49  1  0
 21 50  1  0
 22 51  1  0
 23 52  1  0
 24 53  1  0
 26 54  1  0
 27 55  1  0
M  CHG  1  10  -1
M  END
>  <UniqueID>  (39) 
36

>  <SMILES>  (39) 
CCCN(CCC)CC[N-]C(=O)c1ccc(-n2ccc3ccccc32)cc1

>  <Energy>  (39) 
99.58719662360824

>  <Genealogy>  (39) 
CCCN(CCC)CC[N-]C(=O)c1ccc(-n2ccc3ccccc32)cc1 (protonated)
CCCN(CCC)CC[N-]C(=O)c1ccc(-n2ccc3ccccc32)cc1 (3D coordinates assigned)
CCCN(CCC)CC[N-]C(=O)c1ccc(-n2ccc3ccccc32)cc1 (optimized conformer: 99.58719662360824 kcal/mol)

>  <smiles>  (39) 
CCCN(CCC)CCNC(=O)c1ccc(-n2ccc3ccccc32)cc1

>  <score_type>  (39) 
oracle

>  <origin>  (39) 
adg

>  <m_score__min__energy>  (39) 
-10.710000000000001

>  <m_primary>  (39) 
energy

$$$$
39:0
     RDKit          3D

 47 48  0  0  0  0  0  0  0  0999 V2000
   -6.2010   17.4370  -31.2200 C   0  0  0  0  0  0  0  0  0  0  0  0
   -5.7600   18.8220  -31.7080 C   0  0  0  0  0  0  0  0  0  0  0  0
   -6.8370   19.5360  -32.4470 N   0  0  0  0  0  0  0  0  0  0  0  0
   -6.4590   19.7150  -33.8750 C   0  0  0  0  0  0  0  0  0  0  0  0
   -5.7430   18.4830  -34.4430 C   0  0  0  0  0  0  0  0  0  0  0  0
   -8.1140   18.7760  -32.3390 C   0  0  0  0  0  0  0  0  0  0  0  0
   -9.3530   19.7030  -32.3520 C   0  0  0  0  0  0  0  0  0  0  0  0
   -9.2010   20.9160  -31.4230 C   0  0  0  0  0  0  0  0  0  0  0  0
   -8.4860   22.0150  -32.0990 N   0  0  0  0  0  0  0  0  0  0  0  0
   -7.9760   23.0260  -31.1610 C   0  0  0  0  0  0  0  0  0  0  0  0
   -6.4850   23.1130  -31.2420 C   0  0  0  0  0  0  0  0  0  0  0  0
   -5.7240   24.2200  -30.9480 C   0  0  0  0  0  0  0  0  0  0  0  0
   -4.4780   23.9200  -31.2160 O   0  0  0  0  0  0  0  0  0  0  0  0
   -4.4620   22.6830  -31.6670 C   0  0  0  0  0  0  0  0  0  0  0  0
   -3.2340   21.9860  -32.0970 C   0  0  0  0  0  0  0  0  0  0  0  0
   -3.1520   21.3990  -33.3730 C   0  0  0  0  0  0  0  0  0  0  0  0
   -1.9830   20.7460  -33.7760 C   0  0  0  0  0  0  0  0  0  0  0  0
   -0.8870   20.6730  -32.9120 C   0  0  0  0  0  0  0  0  0  0  0  0
    0.7090   19.7820  -33.4650 Br  0  0  0  0  0  0  0  0  0  0  0  0
   -0.9590   21.2560  -31.6430 C   0  0  0  0  0  0  0  0  0  0  0  0
   -2.1260   21.9100  -31.2360 C   0  0  0  0  0  0  0  0  0  0  0  0
   -5.6930   22.1290  -31.7080 N   0  0  0  0  0  0  0  0  0  0  0  0
   -6.2063   17.4203  -30.1201 H   0  0  0  0  0  0  0  0  0  0  0  0
   -7.2123   17.2210  -31.5949 H   0  0  0  0  0  0  0  0  0  0  0  0
   -5.5007   16.6760  -31.5949 H   0  0  0  0  0  0  0  0  0  0  0  0
   -5.4694   19.4270  -30.8365 H   0  0  0  0  0  0  0  0  0  0  0  0
   -4.9175   18.6795  -32.4007 H   0  0  0  0  0  0  0  0  0  0  0  0
   -6.9640   20.4810  -32.0140 H   0  0  0  0  0  0  0  0  0  0  0  0
   -7.3708   19.8973  -34.4627 H   0  0  0  0  0  0  0  0  0  0  0  0
   -5.7661   20.5671  -33.9370 H   0  0  0  0  0  0  0  0  0  0  0  0
   -5.3789   17.8565  -33.6154 H   0  0  0  0  0  0  0  0  0  0  0  0
   -6.4449   17.9032  -35.0605 H   0  0  0  0  0  0  0  0  0  0  0  0
   -4.8918   18.8058  -35.0605 H   0  0  0  0  0  0  0  0  0  0  0  0
   -8.1842   18.0801  -33.1880 H   0  0  0  0  0  0  0  0  0  0  0  0
   -8.1057   18.2394  -31.3788 H   0  0  0  0  0  0  0  0  0  0  0  0
   -9.5100   20.0648  -33.3789 H   0  0  0  0  0  0  0  0  0  0  0  0
  -10.2092   19.1150  -31.9899 H   0  0  0  0  0  0  0  0  0  0  0  0
  -10.1996   21.2671  -31.1240 H   0  0  0  0  0  0  0  0  0  0  0  0
   -8.6191   20.6104  -30.5410 H   0  0  0  0  0  0  0  0  0  0  0  0
   -9.1600   22.4970  -32.7380 H   0  0  0  0  0  0  0  0  0  0  0  0
   -8.4097   24.0049  -31.4133 H   0  0  0  0  0  0  0  0  0  0  0  0
   -8.2598   22.7369  -30.1383 H   0  0  0  0  0  0  0  0  0  0  0  0
   -6.0938   25.1803  -30.5594 H   0  0  0  0  0  0  0  0  0  0  0  0
   -4.0117   21.4540  -34.0570 H   0  0  0  0  0  0  0  0  0  0  0  0
   -1.9260   20.2889  -34.7749 H   0  0  0  0  0  0  0  0  0  0  0  0
   -0.0958   21.2000  -30.9635 H   0  0  0  0  0  0  0  0  0  0  0  0
   -2.1770   22.3673  -30.2369 H   0  0  0  0  0  0  0  0  0  0  0  0
  1  2  1  0
  2  3  1  0
  3  4  1  0
  4  5  1  0
  3  6  1  0
  6  7  1  0
  7  8  1  0
  8  9  1  0
  9 10  1  0
 10 11  1  0
 11 12  2  0
 12 13  1  0
 13 14  1  0
 14 15  1  0
 15 16  2  0
 16 17  1  0
 17 18  2  0
 18 19  1  0
 18 20  1  0
 20 21  2  0
 14 22  2  0
 22 11  1  0
 21 15  1  0
  1 23  1  0
  1 24  1  0
  1 25  1  0
  2 26  1  0
  2 27  1  0
  3 28  1  0
  4 29  1  0
  4 30  1  0
  5 31  1  0
  5 32  1  0
  5 33  1  0
  6 34  1  0
  6 35  1  0
  7 36  1  0
  7 37  1  0
  8 38  1  0
  8 39  1  0
  9 40  1  0
 10 41  1  0
 10 42  1  0
 12 43  1  0
 16 44  1  0
 17 45  1  0
 20 46  1  0
 21 47  1  0
M  CHG  1   3   1
M  END
>  <UniqueID>  (40) 
37

>  <SMILES>  (40) 
CC[NH+](CC)CCCNCc1coc(-c2ccc(Br)cc2)n1

>  <Energy>  (40) 
73.67810648399994

>  <Genealogy>  (40) 
CC[NH+](CC)CCCNCc1coc(-c2ccc(Br)cc2)n1 (protonated)
CC[NH+](CC)CCCNCc1coc(-c2ccc(Br)cc2)n1 (3D coordinates assigned)
CC[NH+](CC)CCCNCc1coc(-c2ccc(Br)cc2)n1 (optimized conformer: 73.67810648399994 kcal/mol)

>  <smiles>  (40) 
CCN(CC)CCCNCc1coc(-c2ccc(Br)cc2)n1

>  <score_type>  (40) 
oracle

>  <origin>  (40) 
adg

>  <m_score__min__energy>  (40) 
-6.7400000000000002

>  <m_primary>  (40) 
energy

$$$$
40:0
     RDKit          3D

 38 39  0  0  0  0  0  0  0  0999 V2000
   -6.1900   14.1650  -34.2210 C   0  0  0  0  0  0  0  0  0  0  0  0
   -6.8760   15.4060  -34.3480 O   0  0  0  0  0  0  0  0  0  0  0  0
   -6.3830   16.6380  -33.8910 C   0  0  0  0  0  0  0  0  0  0  0  0
   -5.8280   16.7900  -32.6070 C   0  0  0  0  0  0  0  0  0  0  0  0
   -5.3560   18.0400  -32.2050 C   0  0  0  0  0  0  0  0  0  0  0  0
   -5.4480   19.1320  -33.0710 C   0  0  0  0  0  0  0  0  0  0  0  0
   -4.8410   20.7480  -32.5760 S   0  0  0  0  0  0  0  0  0  0  0  0
   -6.4670   21.3520  -32.0860 C   0  0  0  0  0  0  0  0  0  0  0  0
   -7.4820   20.4130  -31.8460 C   0  0  0  0  0  0  0  0  0  0  0  0
   -8.7580   20.8300  -31.4660 C   0  0  0  0  0  0  0  0  0  0  0  0
   -9.0380   22.1910  -31.3380 C   0  0  0  0  0  0  0  0  0  0  0  0
   -8.0460   23.1380  -31.5970 C   0  0  0  0  0  0  0  0  0  0  0  0
   -6.7540   22.7340  -31.9770 C   0  0  0  0  0  0  0  0  0  0  0  0
   -5.7230   23.7860  -32.3110 C   0  0  0  0  0  0  0  0  0  0  0  0
   -5.0290   24.2460  -31.0900 N   0  0  0  0  0  0  0  0  0  0  0  0
   -5.7660   25.3500  -30.4520 C   0  0  0  0  0  0  0  0  0  0  0  0
   -4.8870   23.1320  -30.1400 C   0  0  0  0  0  0  0  0  0  0  0  0
   -5.9870   18.9410  -34.3470 C   0  0  0  0  0  0  0  0  0  0  0  0
   -6.4430   17.7150  -34.7230 N   0  0  0  0  0  0  0  0  0  0  0  0
   -6.0581   13.9263  -33.1553 H   0  0  0  0  0  0  0  0  0  0  0  0
   -6.7770   13.3704  -34.7048 H   0  0  0  0  0  0  0  0  0  0  0  0
   -5.2049   14.2394  -34.7048 H   0  0  0  0  0  0  0  0  0  0  0  0
   -5.7666   15.9293  -31.9248 H   0  0  0  0  0  0  0  0  0  0  0  0
   -4.9117   18.1654  -31.2066 H   0  0  0  0  0  0  0  0  0  0  0  0
   -7.2698   19.3395  -31.9584 H   0  0  0  0  0  0  0  0  0  0  0  0
   -9.5434   20.0859  -31.2673 H   0  0  0  0  0  0  0  0  0  0  0  0
  -10.0427   22.5182  -31.0323 H   0  0  0  0  0  0  0  0  0  0  0  0
   -8.2769   24.2094  -31.5031 H   0  0  0  0  0  0  0  0  0  0  0  0
   -4.9850   23.3599  -33.0066 H   0  0  0  0  0  0  0  0  0  0  0  0
   -6.2321   24.6450  -32.7724 H   0  0  0  0  0  0  0  0  0  0  0  0
   -5.7000   25.2512  -29.3584 H   0  0  0  0  0  0  0  0  0  0  0  0
   -5.3272   26.3104  -30.7605 H   0  0  0  0  0  0  0  0  0  0  0  0
   -6.8212   25.3130  -30.7605 H   0  0  0  0  0  0  0  0  0  0  0  0
   -4.9363   23.5187  -29.1114 H   0  0  0  0  0  0  0  0  0  0  0  0
   -5.7002   22.4085  -30.2991 H   0  0  0  0  0  0  0  0  0  0  0  0
   -3.9183   22.6357  -30.2991 H   0  0  0  0  0  0  0  0  0  0  0  0
   -6.0427   19.7853  -35.0499 H   0  0  0  0  0  0  0  0  0  0  0  0
   -6.8490   17.6000  -35.6790 H   0  0  0  0  0  0  0  0  0  0  0  0
  1  2  1  0
  2  3  1  0
  3  4  2  0
  4  5  1  0
  5  6  2  0
  6  7  1  0
  7  8  1  0
  8  9  2  0
  9 10  1  0
 10 11  2  0
 11 12  1  0
 12 13  2  0
 13 14  1  0
 14 15  1  0
 15 16  1  0
 15 17  1  0
  6 18  1  0
 18 19  2  0
 19  3  1  0
 13  8  1  0
  1 20  1  0
  1 21  1  0
  1 22  1  0
  4 23  1  0
  5 24  1  0
  9 25  1  0
 10 26  1  0
 11 27  1  0
 12 28  1  0
 14 29  1  0
 14 30  1  0
 16 31  1  0
 16 32  1  0
 16 33  1  0
 17 34  1  0
 17 35  1  0
 17 36  1  0
 18 37  1  0
 19 38  1  0
M  CHG  1  19   1
M  END
>  <UniqueID>  (41) 
38

>  <SMILES>  (41) 
COc1ccc(Sc2ccccc2CN(C)C)c[nH+]1

>  <Energy>  (41) 
33.88726964548798

>  <Genealogy>  (41) 
COc1ccc(Sc2ccccc2CN(C)C)c[nH+]1 (protonated)
COc1ccc(Sc2ccccc2CN(C)C)c[nH+]1 (3D coordinates assigned)
COc1ccc(Sc2ccccc2CN(C)C)c[nH+]1 (optimized conformer: 33.88726964548798 kcal/mol)

>  <smiles>  (41) 
COc1ccc(Sc2ccccc2CN(C)C)cn1

>  <score_type>  (41) 
oracle

>  <origin>  (41) 
adg

>  <m_score__min__energy>  (41) 
-6.3200000000000003

>  <m_primary>  (41) 
energy

$$$$
41:0
     RDKit          3D

 33 34  0  0  0  0  0  0  0  0999 V2000
   -2.4410   19.9820  -33.4220 O   0  0  0  0  0  0  0  0  0  0  0  0
   -3.3150   20.5930  -32.7500 C   0  0  0  0  0  0  0  0  0  0  0  0
   -4.6880   20.7870  -33.3170 C   0  0  0  0  0  0  0  0  0  0  0  0
   -5.4090   21.8230  -32.5660 N   0  0  0  0  0  0  0  0  0  0  0  0
   -6.7850   21.4300  -32.3800 C   0  0  0  0  0  0  0  0  0  0  0  0
   -7.2180   20.1530  -32.7860 C   0  0  0  0  0  0  0  0  0  0  0  0
   -8.5550   19.7760  -32.6330 C   0  0  0  0  0  0  0  0  0  0  0  0
   -9.4750   20.6710  -32.0840 C   0  0  0  0  0  0  0  0  0  0  0  0
   -9.0630   21.9470  -31.6900 C   0  0  0  0  0  0  0  0  0  0  0  0
   -7.7260   22.3310  -31.8400 C   0  0  0  0  0  0  0  0  0  0  0  0
   -7.3470   23.5790  -31.4640 F   0  0  0  0  0  0  0  0  0  0  0  0
   -3.0330   21.0510  -31.4610 O   0  0  0  0  0  0  0  0  0  0  0  0
   -2.3730   22.2890  -31.2120 C   0  0  0  0  0  0  0  0  0  0  0  0
   -3.3470   23.3120  -30.7030 C   0  0  0  0  0  0  0  0  0  0  0  0
   -4.2470   23.7550  -31.4660 O   0  0  0  0  0  0  0  0  0  0  0  0
   -3.2720   23.8020  -29.3160 C   0  0  0  0  0  0  0  0  0  0  0  0
   -4.2170   23.5980  -28.3120 C   0  0  0  0  0  0  0  0  0  0  0  0
   -3.8670   24.1900  -27.0930 C   0  0  0  0  0  0  0  0  0  0  0  0
   -2.6530   24.8570  -27.1390 C   0  0  0  0  0  0  0  0  0  0  0  0
   -1.9030   25.7110  -25.8070 Cl  0  0  0  0  0  0  0  0  0  0  0  0
   -2.0070   24.7180  -28.6840 S   0  0  0  0  0  0  0  0  0  0  0  0
   -4.6055   21.0937  -34.3702 H   0  0  0  0  0  0  0  0  0  0  0  0
   -5.2427   19.8400  -33.2421 H   0  0  0  0  0  0  0  0  0  0  0  0
   -5.3660   22.7320  -33.0820 H   0  0  0  0  0  0  0  0  0  0  0  0
   -4.9530   21.9630  -31.6330 H   0  0  0  0  0  0  0  0  0  0  0  0
   -6.4987   19.4471  -33.2268 H   0  0  0  0  0  0  0  0  0  0  0  0
   -8.8826   18.7734  -32.9453 H   0  0  0  0  0  0  0  0  0  0  0  0
  -10.5263   20.3713  -31.9613 H   0  0  0  0  0  0  0  0  0  0  0  0
   -9.7914   22.6509  -31.2611 H   0  0  0  0  0  0  0  0  0  0  0  0
   -1.5850   22.1342  -30.4603 H   0  0  0  0  0  0  0  0  0  0  0  0
   -1.9341   22.6532  -32.1526 H   0  0  0  0  0  0  0  0  0  0  0  0
   -5.1458   23.0282  -28.4627 H   0  0  0  0  0  0  0  0  0  0  0  0
   -4.4922   24.1318  -26.1898 H   0  0  0  0  0  0  0  0  0  0  0  0
  1  2  2  0
  2  3  1  0
  3  4  1  0
  4  5  1  0
  5  6  2  0
  6  7  1  0
  7  8  2  0
  8  9  1  0
  9 10  2  0
 10 11  1  0
  2 12  1  0
 12 13  1  0
 13 14  1  0
 14 15  2  0
 14 16  1  0
 16 17  2  0
 17 18  1  0
 18 19  2  0
 19 20  1  0
 19 21  1  0
 10  5  1  0
 21 16  1  0
  3 22  1  0
  3 23  1  0
  4 24  1  0
  4 25  1  0
  6 26  1  0
  7 27  1  0
  8 28  1  0
  9 29  1  0
 13 30  1  0
 13 31  1  0
 17 32  1  0
 18 33  1  0
M  CHG  1   4   1
M  END
>  <UniqueID>  (42) 
39

>  <SMILES>  (42) 
O=C(C[NH2+]c1ccccc1F)OCC(=O)c1ccc(Cl)s1

>  <Energy>  (42) 
56.716721674111504

>  <Genealogy>  (42) 
O=C(C[NH2+]c1ccccc1F)OCC(=O)c1ccc(Cl)s1 (protonated)
O=C(C[NH2+]c1ccccc1F)OCC(=O)c1ccc(Cl)s1 (3D coordinates assigned)
O=C(C[NH2+]c1ccccc1F)OCC(=O)c1ccc(Cl)s1 (optimized conformer: 56.716721674111504 kcal/mol)

>  <smiles>  (42) 
O=C(CNc1ccccc1F)OCC(=O)c1ccc(Cl)s1

>  <score_type>  (42) 
oracle

>  <origin>  (42) 
adg

>  <m_score__min__energy>  (42) 
-7.5999999999999996

>  <m_primary>  (42) 
energy

$$$$
42:0
     RDKit          3D

 43 45  0  0  0  0  0  0  0  0999 V2000
    0.8720   25.0130  -26.9910 C   0  0  0  0  0  0  0  0  0  0  0  0
    0.5220   24.4790  -28.2530 O   0  0  0  0  0  0  0  0  0  0  0  0
   -0.8570   24.1650  -28.2850 C   0  0  0  0  0  0  0  0  0  0  0  0
   -1.6320   25.2560  -28.9580 C   0  0  0  0  0  0  0  0  0  0  0  0
   -1.2360   26.4490  -28.8730 O   0  0  0  0  0  0  0  0  0  0  0  0
   -2.8250   24.9350  -29.6800 N   0  0  0  0  0  0  0  0  0  0  0  0
   -3.9230   24.1490  -29.1280 C   0  0  1  0  0  0  0  0  0  0  0  0
   -5.2810   24.8430  -29.3990 C   0  0  0  0  0  0  0  0  0  0  0  0
   -5.7110   24.7120  -30.8770 C   0  0  0  0  0  0  0  0  0  0  0  0
   -5.8830   23.2370  -31.2970 C   0  0  0  0  0  0  0  0  0  0  0  0
   -4.7170   22.4140  -30.8180 C   0  0  0  0  0  0  0  0  0  0  0  0
   -3.9140   22.7950  -29.7710 C   0  0  0  0  0  0  0  0  0  0  0  0
   -3.1250   21.6970  -29.4920 C   0  0  0  0  0  0  0  0  0  0  0  0
   -3.4800   20.6850  -30.3140 N   0  0  0  0  0  0  0  0  0  0  0  0
   -4.4450   21.1230  -31.1150 N   0  0  0  0  0  0  0  0  0  0  0  0
   -5.1040   20.2890  -32.0810 C   0  0  0  0  0  0  0  0  0  0  0  0
   -4.3650   19.6050  -33.0610 C   0  0  0  0  0  0  0  0  0  0  0  0
   -5.0150   18.7880  -33.9870 C   0  0  0  0  0  0  0  0  0  0  0  0
   -6.4030   18.6350  -33.9350 C   0  0  0  0  0  0  0  0  0  0  0  0
   -7.1530   19.2890  -32.9490 C   0  0  0  0  0  0  0  0  0  0  0  0
   -8.5440   19.0950  -32.9310 O   0  0  0  0  0  0  0  0  0  0  0  0
   -9.4740   19.9980  -32.3370 C   0  0  0  0  0  0  0  0  0  0  0  0
   -6.4950   20.1130  -32.0150 C   0  0  0  0  0  0  0  0  0  0  0  0
    0.4555   24.3775  -26.1956 H   0  0  0  0  0  0  0  0  0  0  0  0
    1.9676   25.0461  -26.8979 H   0  0  0  0  0  0  0  0  0  0  0  0
    0.4652   26.0308  -26.8979 H   0  0  0  0  0  0  0  0  0  0  0  0
   -1.0008   23.2254  -28.8385 H   0  0  0  0  0  0  0  0  0  0  0  0
   -1.2199   24.0583  -27.2521 H   0  0  0  0  0  0  0  0  0  0  0  0
   -3.7922   24.0564  -28.0397 H   0  0  0  0  0  0  0  0  0  0  0  0
   -6.0499   24.3803  -28.7628 H   0  0  0  0  0  0  0  0  0  0  0  0
   -5.1681   25.9131  -29.1707 H   0  0  0  0  0  0  0  0  0  0  0  0
   -6.6682   25.2356  -31.0168 H   0  0  0  0  0  0  0  0  0  0  0  0
   -4.9220   25.1551  -31.5024 H   0  0  0  0  0  0  0  0  0  0  0  0
   -6.8105   22.8411  -30.8577 H   0  0  0  0  0  0  0  0  0  0  0  0
   -5.9305   23.1824  -32.3946 H   0  0  0  0  0  0  0  0  0  0  0  0
   -2.3366   21.6532  -28.7261 H   0  0  0  0  0  0  0  0  0  0  0  0
   -3.2710   19.7138  -33.0984 H   0  0  0  0  0  0  0  0  0  0  0  0
   -4.4335   18.2634  -34.7594 H   0  0  0  0  0  0  0  0  0  0  0  0
   -6.9102   17.9966  -34.6734 H   0  0  0  0  0  0  0  0  0  0  0  0
   -9.4032   19.9292  -31.2414 H   0  0  0  0  0  0  0  0  0  0  0  0
   -9.2425   21.0251  -32.6557 H   0  0  0  0  0  0  0  0  0  0  0  0
  -10.4938   19.7363  -32.6557 H   0  0  0  0  0  0  0  0  0  0  0  0
   -7.0742   20.6211  -31.2299 H   0  0  0  0  0  0  0  0  0  0  0  0
  1  2  1  0
  2  3  1  0
  3  4  1  0
  4  5  2  0
  4  6  1  0
  6  7  1  0
  7  8  1  0
  8  9  1  0
  9 10  1  0
 10 11  1  0
 11 12  2  0
 12 13  1  0
 13 14  2  0
 14 15  1  0
 15 16  1  0
 16 17  2  0
 17 18  1  0
 18 19  2  0
 19 20  1  0
 20 21  1  0
 21 22  1  0
 20 23  2  0
 12  7  1  0
 23 16  1  0
 15 11  1  0
  1 24  1  0
  1 25  1  0
  1 26  1  0
  3 27  1  0
  3 28  1  0
  7 29  1  1
  8 30  1  0
  8 31  1  0
  9 32  1  0
  9 33  1  0
 10 34  1  0
 10 35  1  0
 13 36  1  0
 17 37  1  0
 18 38  1  0
 19 39  1  0
 22 40  1  0
 22 41  1  0
 22 42  1  0
 23 43  1  0
M  CHG  1   6  -1
M  END
>  <UniqueID>  (43) 
40

>  <SMILES>  (43) 
COCC(=O)[N-][C@H]1CCCc2c1cnn2-c1cccc(OC)c1

>  <Energy>  (43) 
79.00440580566975

>  <Genealogy>  (43) 
COCC(=O)[N-]C1CCCc2c1cnn2-c1cccc(OC)c1 (protonated)
COCC(=O)[N-][C@H]1CCCc2c1cnn2-c1cccc(OC)c1 (chirality)
COCC(=O)[N-][C@H]1CCCc2c1cnn2-c1cccc(OC)c1 (3D coordinates assigned)
COCC(=O)[N-][C@H]1CCCc2c1cnn2-c1cccc(OC)c1 (nonaromatic ring conformer: 79.00440580566975 kcal/mol)

>  <smiles>  (43) 
COCC(=O)NC1CCCc2c1cnn2-c1cccc(OC)c1

>  <score_type>  (43) 
oracle

>  <origin>  (43) 
adg

>  <m_score__min__energy>  (43) 
-9.2699999999999996

>  <m_primary>  (43) 
energy

$$$$
43:0
     RDKit          3D

 33 34  0  0  0  0  0  0  0  0999 V2000
   -7.0474   24.5261  -29.4190 H   0  0  0  0  0  0  0  0  0  0  0  0
   -6.2890   24.3330  -30.1920 C   0  0  0  0  0  0  0  0  0  0  0  0
   -3.8280   24.9240  -30.4790 N   0  0  0  0  0  0  0  0  0  0  0  0
   -7.0950   23.1550  -32.1480 C   0  0  0  0  0  0  0  0  0  0  0  0
   -7.3616   24.1661  -32.4894 H   0  0  0  0  0  0  0  0  0  0  0  0
   -6.4677   22.6595  -32.9036 H   0  0  0  0  0  0  0  0  0  0  0  0
   -8.3720   22.3370  -31.9400 C   0  0  0  0  0  0  0  0  0  0  0  0
   -8.7242   22.4810  -30.9079 H   0  0  0  0  0  0  0  0  0  0  0  0
   -9.1246   22.6835  -32.6635 H   0  0  0  0  0  0  0  0  0  0  0  0
   -8.1330   20.8670  -32.1750 C   0  0  0  0  0  0  0  0  0  0  0  0
   -9.0240   19.9130  -31.6560 C   0  0  0  0  0  0  0  0  0  0  0  0
   -9.9182   20.2400  -31.1051 H   0  0  0  0  0  0  0  0  0  0  0  0
   -8.7770   18.5480  -31.8380 C   0  0  0  0  0  0  0  0  0  0  0  0
   -9.4798   17.8041  -31.4346 H   0  0  0  0  0  0  0  0  0  0  0  0
   -7.6380   18.1280  -32.5320 C   0  0  0  0  0  0  0  0  0  0  0  0
   -7.4464   17.0544  -32.6758 H   0  0  0  0  0  0  0  0  0  0  0  0
   -6.7430   19.0720  -33.0430 C   0  0  0  0  0  0  0  0  0  0  0  0
   -5.8449   18.7408  -33.5850 H   0  0  0  0  0  0  0  0  0  0  0  0
   -6.9880   20.4360  -32.8660 C   0  0  0  0  0  0  0  0  0  0  0  0
   -6.2812   21.1760  -33.2695 H   0  0  0  0  0  0  0  0  0  0  0  0
   -5.2110   25.3110  -30.4160 C   0  0  0  0  0  0  0  0  0  0  0  0
   -5.5030   26.5340  -30.4670 O   0  0  0  0  0  0  0  0  0  0  0  0
   -6.3530   23.2480  -30.8960 N   0  0  0  0  0  0  0  0  0  0  0  0
   -3.0880   24.5580  -29.4730 C   0  0  0  0  0  0  0  0  0  0  0  0
   -2.0140   25.3000  -29.0790 N   0  0  0  0  0  0  0  0  0  0  0  0
   -1.2310   24.9350  -28.0290 C   0  0  0  0  0  0  0  0  0  0  0  0
   -0.3706   25.5572  -27.7417 H   0  0  0  0  0  0  0  0  0  0  0  0
   -1.5200   23.7690  -27.3150 C   0  0  0  0  0  0  0  0  0  0  0  0
   -0.5100   23.2810  -25.9670 Cl  0  0  0  0  0  0  0  0  0  0  0  0
   -2.6240   22.9970  -27.6880 C   0  0  0  0  0  0  0  0  0  0  0  0
   -2.8676   22.0788  -27.1335 H   0  0  0  0  0  0  0  0  0  0  0  0
   -3.4170   23.3950  -28.7670 C   0  0  0  0  0  0  0  0  0  0  0  0
   -4.2938   22.7987  -29.0597 H   0  0  0  0  0  0  0  0  0  0  0  0
  1  2  1  0
  2  3  2  0
  3  4  1  0
  4  5  1  0
  4  6  1  0
  4  7  1  0
  7  8  1  0
  7  9  1  0
  7 10  1  0
 10 11  2  0
 11 12  1  0
 11 13  1  0
 13 14  1  0
 13 15  2  0
 15 16  1  0
 15 17  1  0
 17 18  1  0
 17 19  2  0
 19 20  1  0
  2 21  1  0
 21 22  2  0
 21 23  1  0
 23 24  2  0
 24 25  1  0
 25 26  1  0
 26 27  1  0
 26 28  2  0
 28 29  1  0
 28 30  1  0
 30 31  1  0
 30 32  2  0
 32 33  1  0
 19 10  1  0
 32 24  1  0
M  CHG  1  25  -1
M  END
>  <UniqueID>  (44) 
41

>  <SMILES>  (44) 
O=C(/C=N/CCc1ccccc1)/N=c1/ccc(Cl)c[n-]1

>  <Energy>  (44) 
32.53877899487165

>  <Genealogy>  (44) 
O=C(C=NCCc1ccccc1)N=c1ccc(Cl)c[n-]1 (protonated)
O=C(/C=N/CCc1ccccc1)/N=c1/ccc(Cl)c[n-]1 (cis-trans isomerization)
O=C(/C=N/CCc1ccccc1)/N=c1/ccc(Cl)c[n-]1 (3D coordinates assigned)
O=C(/C=N/CCc1ccccc1)/N=c1/ccc(Cl)c[n-]1 (optimized conformer: 32.53877899487165 kcal/mol)

>  <smiles>  (44) 
O=C(C=NCCc1ccccc1)N=c1ccc(Cl)c[nH]1

>  <score_type>  (44) 
oracle

>  <origin>  (44) 
adg

>  <m_score__min__energy>  (44) 
-9.5600000000000005

>  <m_primary>  (44) 
energy

$$$$
44:0
     RDKit          3D

 44 46  0  0  0  0  0  0  0  0999 V2000
   -1.7070   22.7480  -30.0980 C   0  0  0  0  0  0  0  0  0  0  0  0
   -1.7790   23.9000  -29.1010 C   0  0  0  0  0  0  0  0  0  0  0  0
   -2.7220   24.9180  -29.5540 N   0  0  0  0  0  0  0  0  0  0  0  0
   -4.0140   24.6880  -30.1320 C   0  0  0  0  0  0  0  0  0  0  0  0
   -4.3150   25.2950  -31.1940 O   0  0  0  0  0  0  0  0  0  0  0  0
   -5.0370   23.7810  -29.5000 C   0  0  0  0  0  0  0  0  0  0  0  0
   -5.8840   23.1760  -30.5290 N   0  0  0  0  0  0  0  0  0  0  0  0
   -7.0700   23.6570  -30.9730 C   0  0  0  0  0  0  0  0  0  0  0  0
   -7.5720   22.8540  -31.9920 C   0  0  0  0  0  0  0  0  0  0  0  0
   -6.6350   21.8570  -32.1650 C   0  0  0  0  0  0  0  0  0  0  0  0
   -6.6080   20.7900  -33.0580 C   0  0  0  0  0  0  0  0  0  0  0  0
   -5.4970   19.9240  -33.0230 C   0  0  0  0  0  0  0  0  0  0  0  0
   -5.4140   18.5750  -34.1520 S   0  0  0  0  0  0  0  0  0  0  0  0
   -6.1130   18.9340  -35.4350 O   0  0  0  0  0  0  0  0  0  0  0  0
   -3.9680   18.2950  -34.4560 O   0  0  0  0  0  0  0  0  0  0  0  0
   -6.1530   17.1590  -33.4380 N   0  0  0  0  0  0  0  0  0  0  0  0
   -5.4710   16.7710  -32.1970 C   0  0  0  0  0  0  0  0  0  0  0  0
   -6.2070   17.4320  -31.0390 C   0  0  0  0  0  0  0  0  0  0  0  0
   -7.5560   17.8530  -31.5980 C   0  0  0  0  0  0  0  0  0  0  0  0
   -7.5470   17.4250  -33.0600 C   0  0  0  0  0  0  0  0  0  0  0  0
   -4.4470   20.1570  -32.1000 C   0  0  0  0  0  0  0  0  0  0  0  0
   -4.5040   21.2450  -31.2110 C   0  0  0  0  0  0  0  0  0  0  0  0
   -5.6220   22.0790  -31.2680 C   0  0  0  0  0  0  0  0  0  0  0  0
   -1.6474   21.7945  -29.5528 H   0  0  0  0  0  0  0  0  0  0  0  0
   -2.6072   22.7533  -30.7301 H   0  0  0  0  0  0  0  0  0  0  0  0
   -0.8144   22.8654  -30.7301 H   0  0  0  0  0  0  0  0  0  0  0  0
   -2.1073   23.5127  -28.1252 H   0  0  0  0  0  0  0  0  0  0  0  0
   -0.7815   24.3558  -29.0155 H   0  0  0  0  0  0  0  0  0  0  0  0
   -4.5213   22.9863  -28.9410 H   0  0  0  0  0  0  0  0  0  0  0  0
   -5.6675   24.3720  -28.8195 H   0  0  0  0  0  0  0  0  0  0  0  0
   -7.5669   24.5572  -30.5822 H   0  0  0  0  0  0  0  0  0  0  0  0
   -8.5152   22.9861  -32.5424 H   0  0  0  0  0  0  0  0  0  0  0  0
   -7.4301   20.6274  -33.7705 H   0  0  0  0  0  0  0  0  0  0  0  0
   -6.1110   16.3770  -34.1340 H   0  0  0  0  0  0  0  0  0  0  0  0
   -5.4962   15.6774  -32.0817 H   0  0  0  0  0  0  0  0  0  0  0  0
   -4.4190   17.0918  -32.2186 H   0  0  0  0  0  0  0  0  0  0  0  0
   -6.3398   16.7192  -30.2118 H   0  0  0  0  0  0  0  0  0  0  0  0
   -5.6473   18.2899  -30.6381 H   0  0  0  0  0  0  0  0  0  0  0  0
   -8.3700   17.3496  -31.0558 H   0  0  0  0  0  0  0  0  0  0  0  0
   -7.7197   18.9356  -31.4925 H   0  0  0  0  0  0  0  0  0  0  0  0
   -8.1503   16.5141  -33.1876 H   0  0  0  0  0  0  0  0  0  0  0  0
   -7.9749   18.2143  -33.6955 H   0  0  0  0  0  0  0  0  0  0  0  0
   -3.5797   19.4807  -32.0789 H   0  0  0  0  0  0  0  0  0  0  0  0
   -3.6925   21.4332  -30.4927 H   0  0  0  0  0  0  0  0  0  0  0  0
  1  2  1  0
  2  3  1  0
  3  4  1  0
  4  5  2  0
  4  6  1  0
  6  7  1  0
  7  8  1  0
  8  9  2  0
  9 10  1  0
 10 11  2  0
 11 12  1  0
 12 13  1  0
 13 14  2  0
 13 15  2  0
 13 16  1  0
 16 17  1  0
 17 18  1  0
 18 19  1  0
 19 20  1  0
 12 21  2  0
 21 22  1  0
 22 23  2  0
 23  7  1  0
 23 10  1  0
 20 16  1  0
  1 24  1  0
  1 25  1  0
  1 26  1  0
  2 27  1  0
  2 28  1  0
  6 29  1  0
  6 30  1  0
  8 31  1  0
  9 32  1  0
 11 33  1  0
 16 34  1  0
 17 35  1  0
 17 36  1  0
 18 37  1  0
 18 38  1  0
 19 39  1  0
 19 40  1  0
 20 41  1  0
 20 42  1  0
 21 43  1  0
 22 44  1  0
M  CHG  2   3  -1  16   1
M  END
>  <UniqueID>  (45) 
42

>  <SMILES>  (45) 
CC[N-]C(=O)Cn1ccc2cc(S(=O)(=O)[NH+]3CCCC3)ccc21

>  <Energy>  (45) 
74.21558731714944

>  <Genealogy>  (45) 
CC[N-]C(=O)Cn1ccc2cc(S(=O)(=O)[NH+]3CCCC3)ccc21 (protonated)
CC[N-]C(=O)Cn1ccc2cc(S(=O)(=O)[NH+]3CCCC3)ccc21 (3D coordinates assigned)
CC[N-]C(=O)Cn1ccc2cc(S(=O)(=O)[NH+]3CCCC3)ccc21 (nonaromatic ring conformer: 74.21558731714944 kcal/mol)

>  <smiles>  (45) 
CCNC(=O)Cn1ccc2cc(S(=O)(=O)N3CCCC3)ccc21

>  <score_type>  (45) 
oracle

>  <origin>  (45) 
adg

>  <m_score__min__energy>  (45) 
-9.3900000000000006

>  <m_primary>  (45) 
energy

$$$$
45:0
     RDKit          3D

 35 35  0  0  0  0  0  0  0  0999 V2000
   -4.5020   18.8830  -34.1490 C   0  0  0  0  0  0  0  0  0  0  0  0
   -5.3170   19.9690  -33.6270 N   0  0  0  0  0  0  0  0  0  0  0  0
   -6.2420   19.7910  -32.5490 C   0  0  0  0  0  0  0  0  0  0  0  0
   -5.8100   19.6460  -31.3710 O   0  0  0  0  0  0  0  0  0  0  0  0
   -7.6650   19.7720  -32.8240 N   0  0  2  0  0  0  0  0  0  0  0  0
   -8.3880   20.7750  -32.0020 C   0  0  0  0  0  0  0  0  0  0  0  0
   -7.5010   21.9470  -31.6460 C   0  0  0  0  0  0  0  0  0  0  0  0
   -7.3060   22.3000  -30.3020 C   0  0  0  0  0  0  0  0  0  0  0  0
   -6.5140   23.4030  -29.9680 C   0  0  0  0  0  0  0  0  0  0  0  0
   -5.9070   24.1770  -30.9720 C   0  0  0  0  0  0  0  0  0  0  0  0
   -5.0950   25.3130  -30.6260 N   0  0  0  0  0  0  0  0  0  0  0  0
   -3.8570   25.2810  -30.7760 O   0  0  0  0  0  0  0  0  0  0  0  0
   -5.6710   26.4560  -30.1200 O   0  0  0  0  0  0  0  0  0  0  0  0
   -6.1130   23.8250  -32.3200 C   0  0  0  0  0  0  0  0  0  0  0  0
   -6.9040   22.7220  -32.6530 C   0  0  0  0  0  0  0  0  0  0  0  0
   -8.2550   18.4060  -32.7020 C   0  0  0  0  0  0  0  0  0  0  0  0
   -9.1220   18.2040  -31.4410 C   0  0  0  0  0  0  0  0  0  0  0  0
   -7.1700   17.3150  -32.7720 C   0  0  0  0  0  0  0  0  0  0  0  0
   -4.0732   18.3116  -33.3126 H   0  0  0  0  0  0  0  0  0  0  0  0
   -5.1266   18.2190  -34.7646 H   0  0  0  0  0  0  0  0  0  0  0  0
   -3.6899   19.2972  -34.7646 H   0  0  0  0  0  0  0  0  0  0  0  0
   -7.7940   20.0600  -33.8240 H   0  0  0  0  0  0  0  0  0  0  0  0
   -9.2554   21.1432  -32.5695 H   0  0  0  0  0  0  0  0  0  0  0  0
   -8.7070   20.2889  -31.0682 H   0  0  0  0  0  0  0  0  0  0  0  0
   -7.7790   21.7055  -29.5064 H   0  0  0  0  0  0  0  0  0  0  0  0
   -6.3648   23.6671  -28.9107 H   0  0  0  0  0  0  0  0  0  0  0  0
   -5.6475   24.4231  -33.1173 H   0  0  0  0  0  0  0  0  0  0  0  0
   -7.0597   22.4596  -33.7098 H   0  0  0  0  0  0  0  0  0  0  0  0
   -8.9289   18.3111  -33.5662 H   0  0  0  0  0  0  0  0  0  0  0  0
   -8.5028   18.3483  -30.5433 H   0  0  0  0  0  0  0  0  0  0  0  0
   -9.9443   18.9346  -31.4405 H   0  0  0  0  0  0  0  0  0  0  0  0
   -9.5367   17.1852  -31.4405 H   0  0  0  0  0  0  0  0  0  0  0  0
   -6.8785   17.0219  -31.7526 H   0  0  0  0  0  0  0  0  0  0  0  0
   -7.5652   16.4387  -33.3067 H   0  0  0  0  0  0  0  0  0  0  0  0
   -6.2915   17.7053  -33.3067 H   0  0  0  0  0  0  0  0  0  0  0  0
  1  2  1  0
  2  3  1  0
  3  4  2  0
  3  5  1  0
  5  6  1  0
  6  7  1  0
  7  8  2  0
  8  9  1  0
  9 10  2  0
 10 11  1  0
 11 12  2  0
 11 13  1  0
 10 14  1  0
 14 15  2  0
  5 16  1  0
 16 17  1  0
 16 18  1  0
 15  7  1  0
  1 19  1  0
  1 20  1  0
  1 21  1  0
  5 22  1  6
  6 23  1  0
  6 24  1  0
  8 25  1  0
  9 26  1  0
 14 27  1  0
 15 28  1  0
 16 29  1  0
 17 30  1  0
 17 31  1  0
 17 32  1  0
 18 33  1  0
 18 34  1  0
 18 35  1  0
M  CHG  4   2  -1   5   1  11   1  13  -1
M  END
>  <UniqueID>  (46) 
43

>  <SMILES>  (46) 
C[N-]C(=O)[N@H+](Cc1ccc([N+](=O)[O-])cc1)C(C)C

>  <Energy>  (46) 
35.06098224961371

>  <Genealogy>  (46) 
C[N-]C(=O)[NH+](Cc1ccc([N+](=O)[O-])cc1)C(C)C (protonated)
C[N-]C(=O)[N@H+](Cc1ccc([N+](=O)[O-])cc1)C(C)C (chirality)
C[N-]C(=O)[N@H+](Cc1ccc([N+](=O)[O-])cc1)C(C)C (3D coordinates assigned)
C[N-]C(=O)[N@H+](Cc1ccc([N+](=O)[O-])cc1)C(C)C (optimized conformer: 35.06098224961371 kcal/mol)

>  <smiles>  (46) 
CNC(=O)N(Cc1ccc([N+](=O)[O-])cc1)C(C)C

>  <score_type>  (46) 
oracle

>  <origin>  (46) 
adg

>  <m_score__min__energy>  (46) 
-6.8499999999999996

>  <m_primary>  (46) 
energy

$$$$
46:0
     RDKit          3D

 64 63  0  0  0  0  0  0  0  0999 V2000
   -5.1810   17.6990  -34.6390 C   0  0  0  0  0  0  0  0  0  0  0  0
   -6.0350   18.9200  -34.2960 C   0  0  0  0  0  0  0  0  0  0  0  0
   -5.5600   19.6460  -33.0260 C   0  0  0  0  0  0  0  0  0  0  0  0
   -6.1750   19.1260  -31.7100 C   0  0  0  0  0  0  0  0  0  0  0  0
   -7.2660   18.0540  -31.8790 C   0  0  0  0  0  0  0  0  0  0  0  0
   -8.6860   18.6390  -31.8660 C   0  0  0  0  0  0  0  0  0  0  0  0
   -8.7640   19.9110  -32.7190 C   0  0  0  0  0  0  0  0  0  0  0  0
   -9.8270   20.8750  -32.1730 C   0  0  0  0  0  0  0  0  0  0  0  0
   -9.4050   21.5570  -30.8580 C   0  0  0  0  0  0  0  0  0  0  0  0
   -7.9490   22.0580  -30.8200 C   0  0  0  0  0  0  0  0  0  0  0  0
   -7.7580   23.3970  -31.5480 C   0  0  0  0  0  0  0  0  0  0  0  0
   -6.3840   23.5240  -32.2310 C   0  0  0  0  0  0  0  0  0  0  0  0
   -5.1970   23.5450  -31.2510 C   0  0  0  0  0  0  0  0  0  0  0  0
   -4.8130   24.9340  -30.8390 C   0  0  0  0  0  0  0  0  0  0  0  0
   -5.6830   25.8480  -30.8340 O   0  0  0  0  0  0  0  0  0  0  0  0
   -3.5040   25.1940  -30.4180 O   0  0  0  0  0  0  0  0  0  0  0  0
   -2.8770   24.5020  -29.3390 C   0  0  0  0  0  0  0  0  0  0  0  0
   -2.3110   23.1440  -29.7850 C   0  0  0  0  0  0  0  0  0  0  0  0
   -3.2540   22.0390  -29.4810 N   0  0  0  0  0  0  0  0  0  0  0  0
   -2.9760   20.8320  -30.3000 C   0  0  0  0  0  0  0  0  0  0  0  0
   -2.6730   21.2440  -31.7360 C   0  0  0  0  0  0  0  0  0  0  0  0
   -3.2450   21.7320  -28.0320 C   0  0  0  0  0  0  0  0  0  0  0  0
   -2.7010   20.3280  -27.7730 C   0  0  0  0  0  0  0  0  0  0  0  0
   -4.8429   17.2155  -33.7106 H   0  0  0  0  0  0  0  0  0  0  0  0
   -5.7789   16.9867  -35.2266 H   0  0  0  0  0  0  0  0  0  0  0  0
   -4.3069   18.0163  -35.2266 H   0  0  0  0  0  0  0  0  0  0  0  0
   -5.9938   19.6250  -35.1393 H   0  0  0  0  0  0  0  0  0  0  0  0
   -7.0589   18.5642  -34.1090 H   0  0  0  0  0  0  0  0  0  0  0  0
   -4.4675   19.5369  -32.9588 H   0  0  0  0  0  0  0  0  0  0  0  0
   -5.8887   20.6908  -33.1276 H   0  0  0  0  0  0  0  0  0  0  0  0
   -5.3655   18.6957  -31.1021 H   0  0  0  0  0  0  0  0  0  0  0  0
   -6.6649   19.9903  -31.2379 H   0  0  0  0  0  0  0  0  0  0  0  0
   -7.1071   17.5397  -32.8383 H   0  0  0  0  0  0  0  0  0  0  0  0
   -7.1855   17.3639  -31.0262 H   0  0  0  0  0  0  0  0  0  0  0  0
   -9.3864   17.8924  -32.2686 H   0  0  0  0  0  0  0  0  0  0  0  0
   -8.9500   18.8954  -30.8294 H   0  0  0  0  0  0  0  0  0  0  0  0
   -7.7847   20.4119  -32.7084 H   0  0  0  0  0  0  0  0  0  0  0  0
   -9.0411   19.6284  -33.7453 H   0  0  0  0  0  0  0  0  0  0  0  0
  -10.0139   21.6537  -32.9271 H   0  0  0  0  0  0  0  0  0  0  0  0
  -10.7292   20.2826  -31.9607 H   0  0  0  0  0  0  0  0  0  0  0  0
  -10.0668   22.4202  -30.6941 H   0  0  0  0  0  0  0  0  0  0  0  0
   -9.4852   20.7887  -30.0749 H   0  0  0  0  0  0  0  0  0  0  0  0
   -7.6485   22.1838  -29.7693 H   0  0  0  0  0  0  0  0  0  0  0  0
   -7.3292   21.3103  -31.3365 H   0  0  0  0  0  0  0  0  0  0  0  0
   -8.5403   23.4927  -32.3154 H   0  0  0  0  0  0  0  0  0  0  0  0
   -7.8225   24.1931  -30.7916 H   0  0  0  0  0  0  0  0  0  0  0  0
   -6.2557   22.6693  -32.9114 H   0  0  0  0  0  0  0  0  0  0  0  0
   -6.3787   24.4895  -32.7580 H   0  0  0  0  0  0  0  0  0  0  0  0
   -5.4726   22.9745  -30.3518 H   0  0  0  0  0  0  0  0  0  0  0  0
   -4.3328   23.0996  -31.7655 H   0  0  0  0  0  0  0  0  0  0  0  0
   -2.0547   25.1200  -28.9494 H   0  0  0  0  0  0  0  0  0  0  0  0
   -3.6351   24.3188  -28.5633 H   0  0  0  0  0  0  0  0  0  0  0  0
   -2.1286   23.1709  -30.8694 H   0  0  0  0  0  0  0  0  0  0  0  0
   -1.3751   22.9616  -29.2365 H   0  0  0  0  0  0  0  0  0  0  0  0
   -2.1097   20.2982  -29.8822 H   0  0  0  0  0  0  0  0  0  0  0  0
   -3.8567   20.1731  -30.2882 H   0  0  0  0  0  0  0  0  0  0  0  0
   -2.0213   22.1302  -31.7335 H   0  0  0  0  0  0  0  0  0  0  0  0
   -2.1660   20.4175  -32.2554 H   0  0  0  0  0  0  0  0  0  0  0  0
   -3.6131   21.4817  -32.2554 H   0  0  0  0  0  0  0  0  0  0  0  0
   -2.6101   22.4652  -27.5129 H   0  0  0  0  0  0  0  0  0  0  0  0
   -4.2778   21.7823  -27.6567 H   0  0  0  0  0  0  0  0  0  0  0  0
   -2.6340   20.1550  -26.6888 H   0  0  0  0  0  0  0  0  0  0  0  0
   -3.3762   19.5846  -28.2219 H   0  0  0  0  0  0  0  0  0  0  0  0
   -1.7012   20.2336  -28.2219 H   0  0  0  0  0  0  0  0  0  0  0  0
  1  2  1  0
  2  3  1  0
  3  4  1  0
  4  5  1  0
  5  6  1  0
  6  7  1  0
  7  8  1  0
  8  9  1  0
  9 10  1  0
 10 11  1  0
 11 12  1  0
 12 13  1  0
 13 14  1  0
 14 15  2  0
 14 16  1  0
 16 17  1  0
 17 18  1  0
 18 19  1  0
 19 20  1  0
 20 21  1  0
 19 22  1  0
 22 23  1  0
  1 24  1  0
  1 25  1  0
  1 26  1  0
  2 27  1  0
  2 28  1  0
  3 29  1  0
  3 30  1  0
  4 31  1  0
  4 32  1  0
  5 33  1  0
  5 34  1  0
  6 35  1  0
  6 36  1  0
  7 37  1  0
  7 38  1  0
  8 39  1  0
  8 40  1  0
  9 41  1  0
  9 42  1  0
 10 43  1  0
 10 44  1  0
 11 45  1  0
 11 46  1  0
 12 47  1  0
 12 48  1  0
 13 49  1  0
 13 50  1  0
 17 51  1  0
 17 52  1  0
 18 53  1  0
 18 54  1  0
 20 55  1  0
 20 56  1  0
 21 57  1  0
 21 58  1  0
 21 59  1  0
 22 60  1  0
 22 61  1  0
 23 62  1  0
 23 63  1  0
 23 64  1  0
M  END
>  <UniqueID>  (47) 
44

>  <SMILES>  (47) 
CCCCCCCCCCCCCC(=O)OCCN(CC)CC

>  <Energy>  (47) 
35.15063965347205

>  <Genealogy>  (47) 
CCCCCCCCCCCCCC(=O)OCCN(CC)CC (3D coordinates assigned)
CCCCCCCCCCCCCC(=O)OCCN(CC)CC (optimized conformer: 35.15063965347205 kcal/mol)

>  <smiles>  (47) 
CCCCCCCCCCCCCC(=O)OCCN(CC)CC

>  <score_type>  (47) 
oracle

>  <origin>  (47) 
adg

>  <m_score__min__energy>  (47) 
-7.1299999999999999

>  <m_primary>  (47) 
energy

$$$$
47:0
     RDKit          3D

 51 54  0  0  0  0  0  0  0  0999 V2000
   -4.8000   14.9090  -32.7230 C   0  0  0  0  0  0  0  0  0  0  0  0
   -6.2290   15.1730  -33.8170 S   0  0  0  0  0  0  0  0  0  0  0  0
   -6.2070   16.9490  -33.6030 C   0  0  0  0  0  0  0  0  0  0  0  0
   -5.1670   17.6780  -34.0890 N   0  0  0  0  0  0  0  0  0  0  0  0
   -5.1300   19.0280  -33.9390 C   0  0  0  0  0  0  0  0  0  0  0  0
   -6.1680   19.6800  -33.2670 C   0  0  0  0  0  0  0  0  0  0  0  0
   -7.2290   18.9140  -32.7810 C   0  0  0  0  0  0  0  0  0  0  0  0
   -7.2340   17.5670  -32.9640 N   0  0  0  0  0  0  0  0  0  0  0  0
   -8.3850   19.6040  -32.1260 C   0  0  0  0  0  0  0  0  0  0  0  0
   -7.9020   20.7410  -31.2080 C   0  0  0  0  0  0  0  0  0  0  0  0
   -6.7820   21.5140  -31.7810 N   0  0  0  0  0  0  0  0  0  0  0  0
   -6.3430   22.6950  -31.0830 C   0  0  0  0  0  0  0  0  0  0  0  0
   -7.2430   23.7200  -30.7550 C   0  0  0  0  0  0  0  0  0  0  0  0
   -6.7750   24.8610  -30.1040 C   0  0  0  0  0  0  0  0  0  0  0  0
   -5.4230   24.9780  -29.7860 C   0  0  0  0  0  0  0  0  0  0  0  0
   -4.5430   23.9370  -30.1190 C   0  0  0  0  0  0  0  0  0  0  0  0
   -3.1000   24.0080  -29.8110 C   0  0  0  0  0  0  0  0  0  0  0  0
   -2.3860   22.9880  -29.9970 O   0  0  0  0  0  0  0  0  0  0  0  0
   -2.4760   25.2030  -29.3170 N   0  0  0  0  0  0  0  0  0  0  0  0
   -1.9210   25.3850  -28.0070 C   0  0  0  0  0  0  0  0  0  0  0  0
   -0.5860   25.7920  -27.9080 C   0  0  0  0  0  0  0  0  0  0  0  0
   -0.0040   26.0270  -26.6620 C   0  0  0  0  0  0  0  0  0  0  0  0
   -0.7500   25.8550  -25.4910 C   0  0  0  0  0  0  0  0  0  0  0  0
   -0.1150   26.0850  -24.1510 C   0  0  0  0  0  0  0  0  0  0  0  0
   -2.0700   25.3910  -25.5770 C   0  0  0  0  0  0  0  0  0  0  0  0
   -2.6610   25.1300  -26.8250 C   0  0  0  0  0  0  0  0  0  0  0  0
   -4.0620   24.5780  -26.8580 C   0  0  0  0  0  0  0  0  0  0  0  0
   -5.0250   22.8420  -30.7710 N   0  0  0  0  0  0  0  0  0  0  0  0
   -6.2030   21.1710  -33.0930 C   0  0  0  0  0  0  0  0  0  0  0  0
   -5.1253   14.9691  -31.6739 H   0  0  0  0  0  0  0  0  0  0  0  0
   -4.3684   13.9159  -32.9167 H   0  0  0  0  0  0  0  0  0  0  0  0
   -4.0421   15.6823  -32.9167 H   0  0  0  0  0  0  0  0  0  0  0  0
   -4.2864   19.6056  -34.3448 H   0  0  0  0  0  0  0  0  0  0  0  0
   -9.0407   20.0235  -32.9033 H   0  0  0  0  0  0  0  0  0  0  0  0
   -8.9309   18.8695  -31.5157 H   0  0  0  0  0  0  0  0  0  0  0  0
   -8.7435   21.4260  -31.0273 H   0  0  0  0  0  0  0  0  0  0  0  0
   -7.5389   20.2790  -30.2781 H   0  0  0  0  0  0  0  0  0  0  0  0
   -8.3089   23.6245  -31.0092 H   0  0  0  0  0  0  0  0  0  0  0  0
   -7.4733   25.6693  -29.8413 H   0  0  0  0  0  0  0  0  0  0  0  0
   -5.0489   25.8791  -29.2781 H   0  0  0  0  0  0  0  0  0  0  0  0
    0.0108   25.9281  -28.8220 H   0  0  0  0  0  0  0  0  0  0  0  0
    1.0460   26.3489  -26.6000 H   0  0  0  0  0  0  0  0  0  0  0  0
   -0.8306   25.8258  -23.3568 H   0  0  0  0  0  0  0  0  0  0  0  0
    0.7814   25.4544  -24.0570 H   0  0  0  0  0  0  0  0  0  0  0  0
    0.1697   27.1434  -24.0570 H   0  0  0  0  0  0  0  0  0  0  0  0
   -2.6502   25.2293  -24.6565 H   0  0  0  0  0  0  0  0  0  0  0  0
   -4.4242   24.4353  -25.8292 H   0  0  0  0  0  0  0  0  0  0  0  0
   -4.7217   25.2834  -27.3845 H   0  0  0  0  0  0  0  0  0  0  0  0
   -4.0633   23.6122  -27.3845 H   0  0  0  0  0  0  0  0  0  0  0  0
   -6.8174   21.6160  -33.8895 H   0  0  0  0  0  0  0  0  0  0  0  0
   -5.1772   21.5643  -33.1480 H   0  0  0  0  0  0  0  0  0  0  0  0
  1  2  1  0
  2  3  1  0
  3  4  2  0
  4  5  1  0
  5  6  2  0
  6  7  1  0
  7  8  2  0
  7  9  1  0
  9 10  1  0
 10 11  1  0
 11 12  1  0
 12 13  2  0
 13 14  1  0
 14 15  2  0
 15 16  1  0
 16 17  1  0
 17 18  2  0
 17 19  1  0
 19 20  1  0
 20 21  2  0
 21 22  1  0
 22 23  2  0
 23 24  1  0
 23 25  1  0
 25 26  2  0
 26 27  1  0
 16 28  2  0
 11 29  1  0
  8  3  1  0
 28 12  1  0
 29  6  1  0
 26 20  1  0
  1 30  1  0
  1 31  1  0
  1 32  1  0
  5 33  1  0
  9 34  1  0
  9 35  1  0
 10 36  1  0
 10 37  1  0
 13 38  1  0
 14 39  1  0
 15 40  1  0
 21 41  1  0
 22 42  1  0
 24 43  1  0
 24 44  1  0
 24 45  1  0
 25 46  1  0
 27 47  1  0
 27 48  1  0
 27 49  1  0
 29 50  1  0
 29 51  1  0
M  CHG  1  19  -1
M  END
>  <UniqueID>  (48) 
45

>  <SMILES>  (48) 
CSc1ncc2c(n1)CCN(c1cccc(C(=O)[N-]c3ccc(C)cc3C)n1)C2

>  <Energy>  (48) 
66.46176108127868

>  <Genealogy>  (48) 
CSc1ncc2c(n1)CCN(c1cccc(C(=O)[N-]c3ccc(C)cc3C)n1)C2 (protonated)
CSc1ncc2c(n1)CCN(c1cccc(C(=O)[N-]c3ccc(C)cc3C)n1)C2 (3D coordinates assigned)
CSc1ncc2c(n1)CCN(c1cccc(C(=O)[N-]c3ccc(C)cc3C)n1)C2 (nonaromatic ring conformer: 66.46176108127868 kcal/mol)

>  <smiles>  (48) 
CSc1ncc2c(n1)CCN(c1cccc(C(=O)Nc3ccc(C)cc3C)n1)C2

>  <score_type>  (48) 
oracle

>  <origin>  (48) 
adg

>  <m_score__min__energy>  (48) 
-11.050000000000001

>  <m_primary>  (48) 
energy

$$$$
48:0
     RDKit          3D

 49 52  0  0  0  0  0  0  0  0999 V2000
    0.6580   24.1000  -28.8340 O   0  0  0  0  0  0  0  0  0  0  0  0
   -0.5340   24.3030  -28.4740 C   0  0  0  0  0  0  0  0  0  0  0  0
   -1.5800   23.9530  -29.3310 C   0  0  0  0  0  0  0  0  0  0  0  0
   -2.9080   24.1830  -28.9270 C   0  0  0  0  0  0  0  0  0  0  0  0
   -4.0610   23.8330  -29.7940 C   0  0  0  0  0  0  0  0  0  0  0  0
   -5.2990   24.4940  -29.6810 C   0  0  0  0  0  0  0  0  0  0  0  0
   -6.3640   24.1490  -30.5170 C   0  0  0  0  0  0  0  0  0  0  0  0
   -6.2180   23.1500  -31.4840 C   0  0  0  0  0  0  0  0  0  0  0  0
   -7.3190   22.8430  -32.2970 O   0  0  0  0  0  0  0  0  0  0  0  0
   -8.6720   23.1650  -31.9780 C   0  0  0  0  0  0  0  0  0  0  0  0
   -9.4880   21.8830  -31.8110 C   0  0  0  0  0  0  0  0  0  0  0  0
   -8.5950   20.7000  -31.3740 C   0  0  0  0  0  0  0  0  0  0  0  0
   -8.3720   19.6760  -32.4240 N   0  0  0  0  0  0  0  0  0  0  0  0
   -7.1550   19.8930  -33.2150 C   0  0  0  0  0  0  0  0  0  0  0  0
   -6.1170   18.8670  -32.7810 C   0  0  0  0  0  0  0  0  0  0  0  0
   -6.8620   17.8440  -31.9430 C   0  0  0  0  0  0  0  0  0  0  0  0
   -8.3140   18.3030  -31.9080 C   0  0  0  0  0  0  0  0  0  0  0  0
   -4.9800   22.4950  -31.6100 C   0  0  0  0  0  0  0  0  0  0  0  0
   -3.9120   22.8380  -30.7750 C   0  0  0  0  0  0  0  0  0  0  0  0
   -3.1450   24.7400  -27.7390 O   0  0  0  0  0  0  0  0  0  0  0  0
   -2.1820   25.0890  -26.8930 C   0  0  0  0  0  0  0  0  0  0  0  0
   -2.5150   25.6660  -25.6620 C   0  0  0  0  0  0  0  0  0  0  0  0
   -1.5080   26.0350  -24.7650 C   0  0  0  0  0  0  0  0  0  0  0  0
   -0.1660   25.8290  -25.0930 C   0  0  0  0  0  0  0  0  0  0  0  0
    0.1800   25.2540  -26.3200 C   0  0  0  0  0  0  0  0  0  0  0  0
   -0.8260   24.8790  -27.2290 C   0  0  0  0  0  0  0  0  0  0  0  0
   -1.3677   23.5022  -30.3117 H   0  0  0  0  0  0  0  0  0  0  0  0
   -5.4286   25.2870  -28.9298 H   0  0  0  0  0  0  0  0  0  0  0  0
   -7.3277   24.6690  -30.4132 H   0  0  0  0  0  0  0  0  0  0  0  0
   -8.6986   23.7388  -31.0399 H   0  0  0  0  0  0  0  0  0  0  0  0
   -9.1030   23.7642  -32.7936 H   0  0  0  0  0  0  0  0  0  0  0  0
  -10.2622   22.0483  -31.0473 H   0  0  0  0  0  0  0  0  0  0  0  0
   -9.9436   21.6335  -32.7806 H   0  0  0  0  0  0  0  0  0  0  0  0
   -7.6163   21.1015  -31.0725 H   0  0  0  0  0  0  0  0  0  0  0  0
   -9.1248   20.1952  -30.5527 H   0  0  0  0  0  0  0  0  0  0  0  0
   -7.3786   19.7671  -34.2846 H   0  0  0  0  0  0  0  0  0  0  0  0
   -6.7732   20.9119  -33.0535 H   0  0  0  0  0  0  0  0  0  0  0  0
   -5.6659   18.3845  -33.6606 H   0  0  0  0  0  0  0  0  0  0  0  0
   -5.3014   19.3363  -32.2113 H   0  0  0  0  0  0  0  0  0  0  0  0
   -6.7877   16.8473  -32.4023 H   0  0  0  0  0  0  0  0  0  0  0  0
   -6.4395   17.7700  -30.9301 H   0  0  0  0  0  0  0  0  0  0  0  0
   -8.9289   17.6423  -32.5368 H   0  0  0  0  0  0  0  0  0  0  0  0
   -8.6999   18.2667  -30.8786 H   0  0  0  0  0  0  0  0  0  0  0  0
   -4.8511   21.7092  -32.3689 H   0  0  0  0  0  0  0  0  0  0  0  0
   -2.9460   22.3240  -30.8872 H   0  0  0  0  0  0  0  0  0  0  0  0
   -3.5707   25.8294  -25.3999 H   0  0  0  0  0  0  0  0  0  0  0  0
   -1.7732   26.4886  -23.7986 H   0  0  0  0  0  0  0  0  0  0  0  0
    0.6222   26.1203  -24.3831 H   0  0  0  0  0  0  0  0  0  0  0  0
    1.2384   25.0950  -26.5742 H   0  0  0  0  0  0  0  0  0  0  0  0
  1  2  2  0
  2  3  1  0
  3  4  2  0
  4  5  1  0
  5  6  2  0
  6  7  1  0
  7  8  2  0
  8  9  1  0
  9 10  1  0
 10 11  1  0
 11 12  1  0
 12 13  1  0
 13 14  1  0
 14 15  1  0
 15 16  1  0
 16 17  1  0
  8 18  1  0
 18 19  2  0
  4 20  1  0
 20 21  1  0
 21 22  2  0
 22 23  1  0
 23 24  2  0
 24 25  1  0
 25 26  2  0
 26  2  1  0
 19  5  1  0
 26 21  1  0
 17 13  1  0
  3 27  1  0
  6 28  1  0
  7 29  1  0
 10 30  1  0
 10 31  1  0
 11 32  1  0
 11 33  1  0
 12 34  1  0
 12 35  1  0
 14 36  1  0
 14 37  1  0
 15 38  1  0
 15 39  1  0
 16 40  1  0
 16 41  1  0
 17 42  1  0
 17 43  1  0
 18 44  1  0
 19 45  1  0
 22 46  1  0
 23 47  1  0
 24 48  1  0
 25 49  1  0
M  END
>  <UniqueID>  (49) 
46

>  <SMILES>  (49) 
O=c1cc(-c2ccc(OCCCN3CCCC3)cc2)oc2ccccc12

>  <Energy>  (49) 
62.630876947887586

>  <Genealogy>  (49) 
O=c1cc(-c2ccc(OCCCN3CCCC3)cc2)oc2ccccc12 (3D coordinates assigned)
O=c1cc(-c2ccc(OCCCN3CCCC3)cc2)oc2ccccc12 (nonaromatic ring conformer: 62.630876947887586 kcal/mol)

>  <smiles>  (49) 
O=c1cc(-c2ccc(OCCCN3CCCC3)cc2)oc2ccccc12

>  <score_type>  (49) 
oracle

>  <origin>  (49) 
adg

>  <m_score__min__energy>  (49) 
-8.5600000000000005

>  <m_primary>  (49) 
energy

$$$$
