0:0
     RDKit          3D

 45 48  0  0  1  0  0  0  0  0999 V2000
    1.6500   19.5450  -33.3910 C   0  0  0  0  0  0  0  0  0  0  0  0
    0.3220   19.5070  -33.8420 O   0  0  0  0  0  0  0  0  0  0  0  0
   -0.7330   20.2280  -33.3270 C   0  0  0  0  0  0  0  0  0  0  0  0
   -0.5660   20.8940  -32.1250 C   0  0  0  0  0  0  0  0  0  0  0  0
   -1.5870   21.6320  -31.5620 C   0  0  0  0  0  0  0  0  0  0  0  0
   -2.8200   21.7450  -32.1620 C   0  0  0  0  0  0  0  0  0  0  0  0
   -3.9260   22.5120  -31.6070 C   0  0  0  0  0  0  0  0  0  0  0  0
   -5.2020   22.0170  -31.4570 C   0  0  0  0  0  0  0  0  0  0  0  0
   -6.2390   22.7900  -30.9160 C   0  0  0  0  0  0  0  0  0  0  0  0
   -7.3620   22.2550  -30.8200 N   0  0  0  0  0  0  0  0  0  0  0  0
   -8.3700   22.2740  -31.8350 C   0  0  0  0  0  0  0  0  0  0  0  0
   -8.9790   20.8420  -31.7290 C   0  0  0  0  0  0  0  0  0  0  0  0
   -7.9600   19.8910  -32.2360 C   0  0  0  0  0  0  0  0  0  0  0  0
   -7.8210   18.6650  -31.5850 C   0  0  0  0  0  0  0  0  0  0  0  0
   -6.8640   17.8100  -32.0870 C   0  0  0  0  0  0  0  0  0  0  0  0
   -6.0840   18.0960  -33.1400 N   0  0  0  0  0  0  0  0  0  0  0  0
   -6.2230   19.2780  -33.7610 C   0  0  0  0  0  0  0  0  0  0  0  0
   -7.1570   20.1890  -33.3220 C   0  0  0  0  0  0  0  0  0  0  0  0
   -6.0020   24.0370  -30.5330 N   0  0  0  0  0  0  0  0  0  0  0  0
   -6.7780   24.9720  -30.0040 C   0  0  0  0  0  0  0  0  0  0  0  0
   -5.9320   26.0770  -29.8270 C   0  0  0  0  0  0  0  0  0  0  0  0
   -4.6950   25.7880  -30.2460 N   0  0  0  0  0  0  0  0  0  0  0  0
   -4.7550   24.5150  -30.6820 C   0  0  0  0  0  0  0  0  0  0  0  0
   -3.7370   23.7900  -31.2010 N   0  0  0  0  0  0  0  0  0  0  0  0
   -2.9970   21.0850  -33.3600 C   0  0  0  0  0  0  0  0  0  0  0  0
   -1.9660   20.3370  -33.9350 C   0  0  0  0  0  0  0  0  0  0  0  0
    1.6638   19.5454  -32.2911 H   0  0  0  0  0  0  0  0  0  0  0  0
    2.1894   18.6619  -33.7642 H   0  0  0  0  0  0  0  0  0  0  0  0
    2.1380   20.4575  -33.7642 H   0  0  0  0  0  0  0  0  0  0  0  0
    0.4025   20.8335  -31.6070 H   0  0  0  0  0  0  0  0  0  0  0  0
   -1.4099   22.1451  -30.6053 H   0  0  0  0  0  0  0  0  0  0  0  0
   -5.4141   20.9843  -31.7710 H   0  0  0  0  0  0  0  0  0  0  0  0
   -9.1274   23.0448  -31.6293 H   0  0  0  0  0  0  0  0  0  0  0  0
   -7.9815   22.5134  -32.8359 H   0  0  0  0  0  0  0  0  0  0  0  0
   -9.2200   20.6120  -30.6806 H   0  0  0  0  0  0  0  0  0  0  0  0
   -9.9064   20.7687  -32.3159 H   0  0  0  0  0  0  0  0  0  0  0  0
   -8.4418   18.3954  -30.7178 H   0  0  0  0  0  0  0  0  0  0  0  0
   -6.7319   16.8351  -31.5950 H   0  0  0  0  0  0  0  0  0  0  0  0
   -5.5871   19.5199  -34.6254 H   0  0  0  0  0  0  0  0  0  0  0  0
   -7.2649   21.1556  -33.8358 H   0  0  0  0  0  0  0  0  0  0  0  0
   -7.8477   24.8981  -29.7583 H   0  0  0  0  0  0  0  0  0  0  0  0
   -6.2419   27.0439  -29.4037 H   0  0  0  0  0  0  0  0  0  0  0  0
   -3.8650   26.4210  -30.2320 H   0  0  0  0  0  0  0  0  0  0  0  0
   -3.9682   21.1486  -33.8727 H   0  0  0  0  0  0  0  0  0  0  0  0
   -2.1416   19.8246  -34.8924 H   0  0  0  0  0  0  0  0  0  0  0  0
  1  2  1  0
  2  3  1  0
  3  4  2  0
  4  5  1  0
  5  6  2  0
  6  7  1  0
  7  8  2  0
  8  9  1  0
  9 10  2  0
 10 11  1  0
 11 12  1  0
 12 13  1  0
 13 14  2  0
 14 15  1  0
 15 16  2  0
 16 17  1  0
 17 18  2  0
  9 19  1  0
 19 20  1  0
 20 21  2  0
 21 22  1  0
 22 23  1  0
 23 24  2  0
  6 25  1  0
 25 26  2  0
 26  3  1  0
 24  7  1  0
 18 13  1  0
 23 19  1  0
  1 27  1  0
  1 28  1  0
  1 29  1  0
  4 30  1  0
  5 31  1  0
  8 32  1  0
 11 33  1  0
 11 34  1  0
 12 35  1  0
 12 36  1  0
 14 37  1  0
 15 38  1  0
 17 39  1  0
 18 40  1  0
 20 41  1  0
 21 42  1  0
 22 43  1  0
 25 44  1  0
 26 45  1  0
M  END
>  <smiles>  (1) 
COc1ccc(-c2cc(=NCCc3ccncc3)n3cc[nH]c3n2)cc1

>  <score_type>  (1) 
oracle

>  <origin>  (1) 
adg

>  <m_score__min__energy>  (1) 
-8.3000000000000007

>  <m_primary>  (1) 
energy

$$$$
1:0
     RDKit          3D

 36 39  0  0  0  0  0  0  0  0999 V2000
   -1.8080   25.2850  -26.7540 C   0  0  0  0  0  0  0  0  0  0  0  0
   -1.2450   25.1400  -28.1340 C   0  0  0  0  0  0  0  0  0  0  0  0
   -0.0150   24.9100  -28.2690 O   0  0  0  0  0  0  0  0  0  0  0  0
   -2.0530   25.2960  -29.3070 N   0  0  0  0  0  0  0  0  0  0  0  0
   -3.1030   24.4230  -29.7470 C   0  0  0  0  0  0  0  0  0  0  0  0
   -2.8530   23.0870  -30.1000 C   0  0  0  0  0  0  0  0  0  0  0  0
   -3.8920   22.2700  -30.5530 C   0  0  0  0  0  0  0  0  0  0  0  0
   -5.1970   22.7780  -30.6800 C   0  0  0  0  0  0  0  0  0  0  0  0
   -6.3070   21.9210  -31.1580 C   0  0  0  0  0  0  0  0  0  0  0  0
   -6.1020   20.7250  -31.7850 N   0  0  0  0  0  0  0  0  0  0  0  0
   -7.2680   20.1800  -32.0890 N   0  0  0  0  0  0  0  0  0  0  0  0
   -7.6960   19.1330  -32.8060 C   0  0  0  0  0  0  0  0  0  0  0  0
   -6.8560   18.0830  -33.4290 C   0  0  0  0  0  0  0  0  0  0  0  0
   -7.2110   16.7300  -33.2820 C   0  0  0  0  0  0  0  0  0  0  0  0
   -6.4300   15.7250  -33.8600 C   0  0  0  0  0  0  0  0  0  0  0  0
   -5.2840   16.0580  -34.5850 C   0  0  0  0  0  0  0  0  0  0  0  0
   -4.9140   17.3970  -34.7290 C   0  0  0  0  0  0  0  0  0  0  0  0
   -5.6930   18.4060  -34.1530 C   0  0  0  0  0  0  0  0  0  0  0  0
   -9.0510   19.2120  -32.9210 N   0  0  0  0  0  0  0  0  0  0  0  0
   -9.4640   20.3140  -32.2850 N   0  0  0  0  0  0  0  0  0  0  0  0
   -8.3410   20.8630  -31.7940 C   0  0  0  0  0  0  0  0  0  0  0  0
   -7.9890   22.3140  -31.0400 S   0  0  0  0  0  0  0  0  0  0  0  0
   -5.4340   24.1250  -30.3550 C   0  0  0  0  0  0  0  0  0  0  0  0
   -4.3930   24.9410  -29.9030 C   0  0  0  0  0  0  0  0  0  0  0  0
   -1.0203   25.0821  -26.0135 H   0  0  0  0  0  0  0  0  0  0  0  0
   -2.1846   26.3095  -26.6174 H   0  0  0  0  0  0  0  0  0  0  0  0
   -2.6326   24.5699  -26.6174 H   0  0  0  0  0  0  0  0  0  0  0  0
   -1.8337   22.6815  -30.0194 H   0  0  0  0  0  0  0  0  0  0  0  0
   -3.6874   21.2208  -30.8124 H   0  0  0  0  0  0  0  0  0  0  0  0
   -8.1099   16.4607  -32.7080 H   0  0  0  0  0  0  0  0  0  0  0  0
   -6.7187   14.6700  -33.7435 H   0  0  0  0  0  0  0  0  0  0  0  0
   -4.6729   15.2660  -35.0425 H   0  0  0  0  0  0  0  0  0  0  0  0
   -4.0086   17.6586  -35.2963 H   0  0  0  0  0  0  0  0  0  0  0  0
   -5.3947   19.4587  -34.2666 H   0  0  0  0  0  0  0  0  0  0  0  0
   -6.4474   24.5404  -30.4573 H   0  0  0  0  0  0  0  0  0  0  0  0
   -4.5895   25.9976  -29.6684 H   0  0  0  0  0  0  0  0  0  0  0  0
  1  2  1  0
  2  3  2  0
  2  4  1  0
  4  5  1  0
  5  6  2  0
  6  7  1  0
  7  8  2  0
  8  9  1  0
  9 10  2  0
 10 11  1  0
 11 12  1  0
 12 13  1  0
 13 14  2  0
 14 15  1  0
 15 16  2  0
 16 17  1  0
 17 18  2  0
 12 19  2  0
 19 20  1  0
 20 21  2  0
 21 22  1  0
  8 23  1  0
 23 24  2  0
 24  5  1  0
 22  9  1  0
 21 11  1  0
 18 13  1  0
  1 25  1  0
  1 26  1  0
  1 27  1  0
  6 28  1  0
  7 29  1  0
 14 30  1  0
 15 31  1  0
 16 32  1  0
 17 33  1  0
 18 34  1  0
 23 35  1  0
 24 36  1  0
M  CHG  1   4  -1
M  END
>  <UniqueID>  (2) 
1

>  <SMILES>  (2) 
CC(=O)[N-]c1ccc(-c2nn3c(-c4ccccc4)nnc3s2)cc1

>  <Energy>  (2) 
140.0922071446258

>  <Genealogy>  (2) 
CC(=O)[N-]c1ccc(-c2nn3c(-c4ccccc4)nnc3s2)cc1 (protonated)
CC(=O)[N-]c1ccc(-c2nn3c(-c4ccccc4)nnc3s2)cc1 (3D coordinates assigned)
CC(=O)[N-]c1ccc(-c2nn3c(-c4ccccc4)nnc3s2)cc1 (optimized conformer: 140.0922071446258 kcal/mol)

>  <smiles>  (2) 
CC(=O)Nc1ccc(-c2nn3c(-c4ccccc4)nnc3s2)cc1

>  <score_type>  (2) 
oracle

>  <origin>  (2) 
adg

>  <m_score__min__energy>  (2) 
-11.06

>  <m_primary>  (2) 
energy

$$$$
2:0
     RDKit          3D

 41 44  0  0  0  0  0  0  0  0999 V2000
   -6.5520   17.1550  -33.5740 C   0  0  0  0  0  0  0  0  0  0  0  0
   -6.0740   17.9640  -34.6960 N   0  0  0  0  0  0  0  0  0  0  0  0
   -4.6110   17.8940  -34.7900 C   0  0  0  0  0  0  0  0  0  0  0  0
   -3.9510   18.1850  -33.4330 C   0  0  0  0  0  0  0  0  0  0  0  0
   -3.1070   19.3880  -33.4790 N   0  0  0  0  0  0  0  0  0  0  0  0
   -3.4480   20.6700  -33.1530 C   0  0  0  0  0  0  0  0  0  0  0  0
   -4.7790   21.1340  -32.7110 C   0  0  0  0  0  0  0  0  0  0  0  0
   -4.9810   22.4170  -32.1770 C   0  0  0  0  0  0  0  0  0  0  0  0
   -6.2320   22.8090  -31.8170 N   0  0  0  0  0  0  0  0  0  0  0  0
   -7.3000   21.9840  -31.9730 C   0  0  0  0  0  0  0  0  0  0  0  0
   -8.5830   22.3970  -31.5970 C   0  0  0  0  0  0  0  0  0  0  0  0
   -9.6710   21.5340  -31.7760 C   0  0  0  0  0  0  0  0  0  0  0  0
   -9.4790   20.2630  -32.3300 C   0  0  0  0  0  0  0  0  0  0  0  0
   -8.1970   19.8460  -32.7080 C   0  0  0  0  0  0  0  0  0  0  0  0
   -7.1070   20.7040  -32.5290 C   0  0  0  0  0  0  0  0  0  0  0  0
   -5.8540   20.3190  -32.8890 N   0  0  0  0  0  0  0  0  0  0  0  0
   -2.4030   21.5450  -33.4360 C   0  0  0  0  0  0  0  0  0  0  0  0
   -1.3980   20.7610  -33.9490 C   0  0  0  0  0  0  0  0  0  0  0  0
   -0.1430   21.1190  -34.4370 C   0  0  0  0  0  0  0  0  0  0  0  0
    0.6680   20.1040  -34.9740 C   0  0  0  0  0  0  0  0  0  0  0  0
    1.8960   20.4090  -35.4600 F   0  0  0  0  0  0  0  0  0  0  0  0
    0.2020   18.7730  -35.0280 C   0  0  0  0  0  0  0  0  0  0  0  0
   -1.0740   18.4440  -34.5370 C   0  0  0  0  0  0  0  0  0  0  0  0
   -1.8520   19.4660  -33.9780 C   0  0  0  0  0  0  0  0  0  0  0  0
   -6.2673   17.6368  -32.6270 H   0  0  0  0  0  0  0  0  0  0  0  0
   -7.6472   17.0669  -33.6258 H   0  0  0  0  0  0  0  0  0  0  0  0
   -6.1007   16.1532  -33.6258 H   0  0  0  0  0  0  0  0  0  0  0  0
   -6.3410   18.9570  -34.4960 H   0  0  0  0  0  0  0  0  0  0  0  0
   -4.3208   16.8859  -35.1210 H   0  0  0  0  0  0  0  0  0  0  0  0
   -4.2722   18.6523  -35.5112 H   0  0  0  0  0  0  0  0  0  0  0  0
   -4.7384   18.3320  -32.6791 H   0  0  0  0  0  0  0  0  0  0  0  0
   -3.3097   17.3290  -33.1760 H   0  0  0  0  0  0  0  0  0  0  0  0
   -4.1300   23.1024  -32.0504 H   0  0  0  0  0  0  0  0  0  0  0  0
   -8.7363   23.3958  -31.1625 H   0  0  0  0  0  0  0  0  0  0  0  0
  -10.6803   21.8561  -31.4802 H   0  0  0  0  0  0  0  0  0  0  0  0
  -10.3378   19.5898  -32.4688 H   0  0  0  0  0  0  0  0  0  0  0  0
   -8.0476   18.8473  -33.1441 H   0  0  0  0  0  0  0  0  0  0  0  0
   -2.3855   22.6340  -33.2816 H   0  0  0  0  0  0  0  0  0  0  0  0
    0.2023   22.1628  -34.4032 H   0  0  0  0  0  0  0  0  0  0  0  0
    0.8413   17.9875  -35.4571 H   0  0  0  0  0  0  0  0  0  0  0  0
   -1.4510   17.4120  -34.5904 H   0  0  0  0  0  0  0  0  0  0  0  0
  1  2  1  0
  2  3  1  0
  3  4  1  0
  4  5  1  0
  5  6  1  0
  6  7  1  0
  7  8  2  0
  8  9  1  0
  9 10  2  0
 10 11  1  0
 11 12  2  0
 12 13  1  0
 13 14  2  0
 14 15  1  0
 15 16  2  0
  6 17  2  0
 17 18  1  0
 18 19  2  0
 19 20  1  0
 20 21  1  0
 20 22  2  0
 22 23  1  0
 23 24  2  0
 24  5  1  0
 16  7  1  0
 24 18  1  0
 15 10  1  0
  1 25  1  0
  1 26  1  0
  1 27  1  0
  2 28  1  0
  3 29  1  0
  3 30  1  0
  4 31  1  0
  4 32  1  0
  8 33  1  0
 11 34  1  0
 12 35  1  0
 13 36  1  0
 14 37  1  0
 17 38  1  0
 19 39  1  0
 22 40  1  0
 23 41  1  0
M  END
>  <UniqueID>  (3) 
2

>  <SMILES>  (3) 
CNCCn1c(-c2cnc3ccccc3n2)cc2cc(F)ccc21

>  <Energy>  (3) 
85.24985770102626

>  <Genealogy>  (3) 
CNCCn1c(-c2cnc3ccccc3n2)cc2cc(F)ccc21 (3D coordinates assigned)
CNCCn1c(-c2cnc3ccccc3n2)cc2cc(F)ccc21 (optimized conformer: 85.24985770102626 kcal/mol)

>  <smiles>  (3) 
CNCCn1c(-c2cnc3ccccc3n2)cc2cc(F)ccc21

>  <score_type>  (3) 
oracle

>  <origin>  (3) 
adg

>  <m_score__min__energy>  (3) 
-7.3499999999999996

>  <m_primary>  (3) 
energy

$$$$
3:0
     RDKit          3D

 38 39  0  0  0  0  0  0  0  0999 V2000
   -8.7440   18.5820  -31.4350 C   0  0  0  0  0  0  0  0  0  0  0  0
   -8.5160   19.5030  -32.6410 C   0  0  0  0  0  0  0  0  0  0  0  0
   -7.0460   19.4430  -33.0790 C   0  0  0  0  0  0  0  0  0  0  0  0
   -8.9500   20.9460  -32.3010 C   0  0  0  0  0  0  0  0  0  0  0  0
   -8.1440   21.5460  -31.1210 C   0  0  0  0  0  0  0  0  0  0  0  0
   -7.3300   22.7350  -31.4730 N   0  0  0  0  0  0  0  0  0  0  0  0
   -6.0980   22.4520  -32.2260 C   0  0  0  0  0  0  0  0  0  0  0  0
   -7.1480   23.7160  -30.3800 C   0  0  0  0  0  0  0  0  0  0  0  0
   -5.7300   24.1850  -30.2310 C   0  0  0  0  0  0  0  0  0  0  0  0
   -5.1740   25.3020  -30.8120 C   0  0  0  0  0  0  0  0  0  0  0  0
   -3.8990   25.3060  -30.5130 O   0  0  0  0  0  0  0  0  0  0  0  0
   -3.6690   24.2370  -29.7840 C   0  0  0  0  0  0  0  0  0  0  0  0
   -2.3430   23.8660  -29.2830 C   0  0  0  0  0  0  0  0  0  0  0  0
   -1.7730   22.6000  -29.3400 C   0  0  0  0  0  0  0  0  0  0  0  0
   -0.4790   22.5550  -28.8070 C   0  0  0  0  0  0  0  0  0  0  0  0
   -0.0290   23.7810  -28.3340 C   0  0  0  0  0  0  0  0  0  0  0  0
   -1.2410   24.9220  -28.5810 S   0  0  0  0  0  0  0  0  0  0  0  0
   -4.7770   23.4980  -29.5710 N   0  0  0  0  0  0  0  0  0  0  0  0
   -8.6026   19.1531  -30.5056 H   0  0  0  0  0  0  0  0  0  0  0  0
   -9.7682   18.1822  -31.4674 H   0  0  0  0  0  0  0  0  0  0  0  0
   -8.0246   17.7505  -31.4674 H   0  0  0  0  0  0  0  0  0  0  0  0
   -9.1334   19.1583  -33.4836 H   0  0  0  0  0  0  0  0  0  0  0  0
   -6.3992   19.4166  -32.1896 H   0  0  0  0  0  0  0  0  0  0  0  0
   -6.8793   18.5373  -33.6806 H   0  0  0  0  0  0  0  0  0  0  0  0
   -6.8061   20.3321  -33.6806 H   0  0  0  0  0  0  0  0  0  0  0  0
   -8.7993   21.5780  -33.1886 H   0  0  0  0  0  0  0  0  0  0  0  0
  -10.0080   20.9149  -32.0014 H   0  0  0  0  0  0  0  0  0  0  0  0
   -8.8540   21.8369  -30.3328 H   0  0  0  0  0  0  0  0  0  0  0  0
   -7.4371   20.7678  -30.7976 H   0  0  0  0  0  0  0  0  0  0  0  0
   -5.2737   22.2627  -31.5227 H   0  0  0  0  0  0  0  0  0  0  0  0
   -6.2507   21.5655  -32.8591 H   0  0  0  0  0  0  0  0  0  0  0  0
   -5.8485   23.3162  -32.8591 H   0  0  0  0  0  0  0  0  0  0  0  0
   -7.7845   24.5893  -30.5855 H   0  0  0  0  0  0  0  0  0  0  0  0
   -7.4241   23.2124  -29.4419 H   0  0  0  0  0  0  0  0  0  0  0  0
   -5.7033   26.0533  -31.4164 H   0  0  0  0  0  0  0  0  0  0  0  0
   -2.2860   21.7227  -29.7609 H   0  0  0  0  0  0  0  0  0  0  0  0
    0.1240   21.6359  -28.7667 H   0  0  0  0  0  0  0  0  0  0  0  0
    0.9524   23.9733  -27.8760 H   0  0  0  0  0  0  0  0  0  0  0  0
  1  2  1  0
  2  3  1  0
  2  4  1  0
  4  5  1  0
  5  6  1  0
  6  7  1  0
  6  8  1  0
  8  9  1  0
  9 10  2  0
 10 11  1  0
 11 12  1  0
 12 13  1  0
 13 14  2  0
 14 15  1  0
 15 16  2  0
 16 17  1  0
 12 18  2  0
 18  9  1  0
 17 13  1  0
  1 19  1  0
  1 20  1  0
  1 21  1  0
  2 22  1  0
  3 23  1  0
  3 24  1  0
  3 25  1  0
  4 26  1  0
  4 27  1  0
  5 28  1  0
  5 29  1  0
  7 30  1  0
  7 31  1  0
  7 32  1  0
  8 33  1  0
  8 34  1  0
 10 35  1  0
 14 36  1  0
 15 37  1  0
 16 38  1  0
M  END
>  <UniqueID>  (4) 
3

>  <SMILES>  (4) 
CC(C)CCN(C)Cc1coc(-c2cccs2)n1

>  <Energy>  (4) 
90.76496692600296

>  <Genealogy>  (4) 
CC(C)CCN(C)Cc1coc(-c2cccs2)n1 (3D coordinates assigned)
CC(C)CCN(C)Cc1coc(-c2cccs2)n1 (optimized conformer: 90.76496692600296 kcal/mol)

>  <smiles>  (4) 
CC(C)CCN(C)Cc1coc(-c2cccs2)n1

>  <score_type>  (4) 
oracle

>  <origin>  (4) 
adg

>  <m_score__min__energy>  (4) 
-7.2199999999999998

>  <m_primary>  (4) 
energy

$$$$
4:0
     RDKit          3D

 47 49  0  0  0  0  0  0  0  0999 V2000
    2.3650   24.1580  -27.0970 C   0  0  0  0  0  0  0  0  0  0  0  0
    1.4470   23.1460  -27.4960 O   0  0  0  0  0  0  0  0  0  0  0  0
    0.1870   23.3960  -28.0570 C   0  0  0  0  0  0  0  0  0  0  0  0
   -0.4840   22.4510  -28.8580 C   0  0  0  0  0  0  0  0  0  0  0  0
   -1.7400   22.7470  -29.3970 C   0  0  0  0  0  0  0  0  0  0  0  0
   -2.3470   23.9900  -29.1460 C   0  0  0  0  0  0  0  0  0  0  0  0
   -3.6720   24.3090  -29.7140 C   0  0  0  0  0  0  0  0  0  0  0  0
   -4.7920   23.6000  -29.4500 N   0  0  0  0  0  0  0  0  0  0  0  0
   -5.7330   24.2410  -30.1700 C   0  0  0  0  0  0  0  0  0  0  0  0
   -7.1670   23.8140  -30.2480 C   0  0  0  0  0  0  0  0  0  0  0  0
   -7.2750   22.4550  -30.8220 N   0  0  0  0  0  0  0  0  0  0  0  0
   -8.6120   21.8880  -30.5500 C   0  0  0  0  0  0  0  0  0  0  0  0
   -7.0190   22.4930  -32.2770 C   0  0  0  0  0  0  0  0  0  0  0  0
   -6.2480   21.2700  -32.7170 C   0  0  0  0  0  0  0  0  0  0  0  0
   -4.8440   21.3160  -32.7160 C   0  0  0  0  0  0  0  0  0  0  0  0
   -4.0990   20.1990  -33.0970 C   0  0  0  0  0  0  0  0  0  0  0  0
   -4.7460   19.0230  -33.4760 C   0  0  0  0  0  0  0  0  0  0  0  0
   -6.1410   18.9590  -33.4740 C   0  0  0  0  0  0  0  0  0  0  0  0
   -6.9070   20.0780  -33.0910 C   0  0  0  0  0  0  0  0  0  0  0  0
   -8.3120   20.0360  -33.0650 O   0  0  0  0  0  0  0  0  0  0  0  0
   -9.0790   19.0660  -32.3600 C   0  0  0  0  0  0  0  0  0  0  0  0
   -5.1640   25.2960  -30.8430 C   0  0  0  0  0  0  0  0  0  0  0  0
   -3.8900   25.3120  -30.5380 O   0  0  0  0  0  0  0  0  0  0  0  0
   -1.6760   24.9290  -28.3480 C   0  0  0  0  0  0  0  0  0  0  0  0
   -0.4200   24.6320  -27.8090 C   0  0  0  0  0  0  0  0  0  0  0  0
    2.4062   24.2034  -25.9987 H   0  0  0  0  0  0  0  0  0  0  0  0
    3.3644   23.9229  -27.4920 H   0  0  0  0  0  0  0  0  0  0  0  0
    2.0339   25.1298  -27.4920 H   0  0  0  0  0  0  0  0  0  0  0  0
   -0.0177   21.4755  -29.0604 H   0  0  0  0  0  0  0  0  0  0  0  0
   -2.2562   22.0027  -30.0212 H   0  0  0  0  0  0  0  0  0  0  0  0
   -7.6000   23.8148  -29.2368 H   0  0  0  0  0  0  0  0  0  0  0  0
   -7.7116   24.5168  -30.8956 H   0  0  0  0  0  0  0  0  0  0  0  0
   -8.7680   21.8218  -29.4631 H   0  0  0  0  0  0  0  0  0  0  0  0
   -9.3823   22.5369  -30.9922 H   0  0  0  0  0  0  0  0  0  0  0  0
   -8.6810   20.8832  -30.9922 H   0  0  0  0  0  0  0  0  0  0  0  0
   -7.9797   22.5256  -32.8117 H   0  0  0  0  0  0  0  0  0  0  0  0
   -6.4227   23.3882  -32.5074 H   0  0  0  0  0  0  0  0  0  0  0  0
   -4.3281   22.2390  -32.4128 H   0  0  0  0  0  0  0  0  0  0  0  0
   -3.0000   20.2462  -33.0984 H   0  0  0  0  0  0  0  0  0  0  0  0
   -4.1565   18.1445  -33.7770 H   0  0  0  0  0  0  0  0  0  0  0  0
   -6.6454   18.0285  -33.7735 H   0  0  0  0  0  0  0  0  0  0  0  0
   -8.9580   19.2190  -31.2774 H   0  0  0  0  0  0  0  0  0  0  0  0
  -10.1404   19.1718  -32.6289 H   0  0  0  0  0  0  0  0  0  0  0  0
   -8.7314   18.0576  -32.6289 H   0  0  0  0  0  0  0  0  0  0  0  0
   -5.6825   25.9971  -31.5136 H   0  0  0  0  0  0  0  0  0  0  0  0
   -2.1408   25.9051  -28.1450 H   0  0  0  0  0  0  0  0  0  0  0  0
    0.0952   25.3768  -27.1846 H   0  0  0  0  0  0  0  0  0  0  0  0
  1  2  1  0
  2  3  1  0
  3  4  2  0
  4  5  1  0
  5  6  2  0
  6  7  1  0
  7  8  2  0
  8  9  1  0
  9 10  1  0
 10 11  1  0
 11 12  1  0
 11 13  1  0
 13 14  1  0
 14 15  2  0
 15 16  1  0
 16 17  2  0
 17 18  1  0
 18 19  2  0
 19 20  1  0
 20 21  1  0
  9 22  2  0
 22 23  1  0
  6 24  1  0
 24 25  2  0
 25  3  1  0
 23  7  1  0
 19 14  1  0
  1 26  1  0
  1 27  1  0
  1 28  1  0
  4 29  1  0
  5 30  1  0
 10 31  1  0
 10 32  1  0
 12 33  1  0
 12 34  1  0
 12 35  1  0
 13 36  1  0
 13 37  1  0
 15 38  1  0
 16 39  1  0
 17 40  1  0
 18 41  1  0
 21 42  1  0
 21 43  1  0
 21 44  1  0
 22 45  1  0
 24 46  1  0
 25 47  1  0
M  END
>  <UniqueID>  (5) 
4

>  <SMILES>  (5) 
COc1ccc(-c2nc(CN(C)Cc3ccccc3OC)co2)cc1

>  <Energy>  (5) 
78.37944354933303

>  <Genealogy>  (5) 
COc1ccc(-c2nc(CN(C)Cc3ccccc3OC)co2)cc1 (3D coordinates assigned)
COc1ccc(-c2nc(CN(C)Cc3ccccc3OC)co2)cc1 (optimized conformer: 78.37944354933303 kcal/mol)

>  <smiles>  (5) 
COc1ccc(-c2nc(CN(C)Cc3ccccc3OC)co2)cc1

>  <score_type>  (5) 
oracle

>  <origin>  (5) 
adg

>  <m_score__min__energy>  (5) 
-7.7800000000000002

>  <m_primary>  (5) 
energy

$$$$
5:0
     RDKit          3D

 43 45  0  0  0  0  0  0  0  0999 V2000
   -6.1960   25.3640  -29.5110 C   0  0  0  0  0  0  0  0  0  0  0  0
   -5.3460   25.5890  -30.7550 C   0  0  0  0  0  0  0  0  0  0  0  0
   -3.9390   25.2940  -30.4590 N   0  0  0  0  0  0  0  0  0  0  0  0
   -3.8070   24.2360  -29.4470 C   0  0  0  0  0  0  0  0  0  0  0  0
   -3.7880   22.8470  -30.0970 C   0  0  0  0  0  0  0  0  0  0  0  0
   -4.3190   22.8850  -31.4620 N   0  0  0  0  0  0  0  0  0  0  0  0
   -4.9850   21.7560  -32.0540 C   0  0  0  0  0  0  0  0  0  0  0  0
   -4.2500   20.7580  -32.7170 C   0  0  0  0  0  0  0  0  0  0  0  0
   -2.8750   20.9310  -32.9870 C   0  0  0  0  0  0  0  0  0  0  0  0
   -2.1560   19.9540  -33.6710 C   0  0  0  0  0  0  0  0  0  0  0  0
   -2.7960   18.8040  -34.1200 C   0  0  0  0  0  0  0  0  0  0  0  0
   -4.1570   18.6200  -33.8810 C   0  0  0  0  0  0  0  0  0  0  0  0
   -4.9110   19.5800  -33.1590 C   0  0  0  0  0  0  0  0  0  0  0  0
   -6.2570   19.4040  -32.9030 N   0  0  0  0  0  0  0  0  0  0  0  0
   -6.8820   18.0760  -33.0920 C   0  0  0  0  0  0  0  0  0  0  0  0
   -7.0200   20.4710  -32.4620 C   0  0  0  0  0  0  0  0  0  0  0  0
   -8.4380   20.4250  -32.4600 C   0  0  0  0  0  0  0  0  0  0  0  0
   -9.1910   21.4900  -31.9690 C   0  0  0  0  0  0  0  0  0  0  0  0
   -8.5600   22.6300  -31.4850 C   0  0  0  0  0  0  0  0  0  0  0  0
   -7.1710   22.7210  -31.5090 C   0  0  0  0  0  0  0  0  0  0  0  0
   -6.3860   21.6580  -32.0050 C   0  0  0  0  0  0  0  0  0  0  0  0
   -5.5819   25.5266  -28.6130 H   0  0  0  0  0  0  0  0  0  0  0  0
   -7.0398   26.0697  -29.5109 H   0  0  0  0  0  0  0  0  0  0  0  0
   -6.5801   24.3332  -29.5109 H   0  0  0  0  0  0  0  0  0  0  0  0
   -5.6959   24.9266  -31.5605 H   0  0  0  0  0  0  0  0  0  0  0  0
   -5.4372   26.6388  -31.0708 H   0  0  0  0  0  0  0  0  0  0  0  0
   -3.4960   24.9450  -31.3430 H   0  0  0  0  0  0  0  0  0  0  0  0
   -2.8692   24.3853  -28.8918 H   0  0  0  0  0  0  0  0  0  0  0  0
   -4.6716   24.2920  -28.7693 H   0  0  0  0  0  0  0  0  0  0  0  0
   -2.7512   22.4807  -30.1270 H   0  0  0  0  0  0  0  0  0  0  0  0
   -4.4231   22.1774  -29.4984 H   0  0  0  0  0  0  0  0  0  0  0  0
   -4.2760   23.7830  -31.9950 H   0  0  0  0  0  0  0  0  0  0  0  0
   -2.3662   21.8474  -32.6535 H   0  0  0  0  0  0  0  0  0  0  0  0
   -1.0806   20.0921  -33.8563 H   0  0  0  0  0  0  0  0  0  0  0  0
   -2.2265   18.0371  -34.6655 H   0  0  0  0  0  0  0  0  0  0  0  0
   -4.6547   17.7147  -34.2589 H   0  0  0  0  0  0  0  0  0  0  0  0
   -7.0933   17.6271  -32.1102 H   0  0  0  0  0  0  0  0  0  0  0  0
   -7.8213   18.1893  -33.6531 H   0  0  0  0  0  0  0  0  0  0  0  0
   -6.1960   17.4244  -33.6531 H   0  0  0  0  0  0  0  0  0  0  0  0
   -8.9512   19.5346  -32.8522 H   0  0  0  0  0  0  0  0  0  0  0  0
  -10.2893   21.4282  -31.9645 H   0  0  0  0  0  0  0  0  0  0  0  0
   -9.1584   23.4607  -31.0828 H   0  0  0  0  0  0  0  0  0  0  0  0
   -6.6795   23.6321  -31.1370 H   0  0  0  0  0  0  0  0  0  0  0  0
  1  2  1  0
  2  3  1  0
  3  4  1  0
  4  5  1  0
  5  6  1  0
  6  7  1  0
  7  8  2  0
  8  9  1  0
  9 10  2  0
 10 11  1  0
 11 12  2  0
 12 13  1  0
 13 14  2  0
 14 15  1  0
 14 16  1  0
 16 17  2  0
 17 18  1  0
 18 19  2  0
 19 20  1  0
 20 21  2  0
 21  7  1  0
 13  8  1  0
 21 16  1  0
  1 22  1  0
  1 23  1  0
  1 24  1  0
  2 25  1  0
  2 26  1  0
  3 27  1  0
  4 28  1  0
  4 29  1  0
  5 30  1  0
  5 31  1  0
  6 32  1  0
  9 33  1  0
 10 34  1  0
 11 35  1  0
 12 36  1  0
 15 37  1  0
 15 38  1  0
 15 39  1  0
 17 40  1  0
 18 41  1  0
 19 42  1  0
 20 43  1  0
M  CHG  1  14   1
M  END
>  <UniqueID>  (6) 
5

>  <SMILES>  (6) 
CCNCCNc1c2ccccc2[n+](C)c2ccccc12

>  <Energy>  (6) 
65.24823387213722

>  <Genealogy>  (6) 
CCNCCNc1c2ccccc2[n+](C)c2ccccc12 (3D coordinates assigned)
CCNCCNc1c2ccccc2[n+](C)c2ccccc12 (optimized conformer: 65.24823387213722 kcal/mol)

>  <smiles>  (6) 
CCNCCNc1c2ccccc2[n+](C)c2ccccc12

>  <score_type>  (6) 
oracle

>  <origin>  (6) 
adg

>  <m_score__min__energy>  (6) 
-8.4900000000000002

>  <m_primary>  (6) 
energy

$$$$
6:0
     RDKit          3D

 20 20  0  0  0  0  0  0  0  0999 V2000
   -5.7330   17.9600  -34.9270 C   0  0  0  0  0  0  0  0  0  0  0  0
   -6.1150   19.3120  -34.5100 N   0  0  0  0  0  0  0  0  0  0  0  0
   -6.1110   19.4540  -33.0460 C   0  0  0  0  0  0  0  0  0  0  0  0
   -7.1180   20.4690  -32.5720 C   0  0  0  0  0  0  0  0  0  0  0  0
   -6.7880   22.1030  -32.3480 S   0  0  0  0  0  0  0  0  0  0  0  0
   -8.3350   22.5480  -31.8620 C   0  0  0  0  0  0  0  0  0  0  0  0
   -9.1370   21.4150  -31.8710 C   0  0  0  0  0  0  0  0  0  0  0  0
   -8.4650   20.2480  -32.2710 C   0  0  0  0  0  0  0  0  0  0  0  0
   -9.1330   18.9090  -32.3380 C   0  0  0  0  0  0  0  0  0  0  0  0
   -5.5572   17.3378  -34.0371 H   0  0  0  0  0  0  0  0  0  0  0  0
   -6.5419   17.5195  -35.5284 H   0  0  0  0  0  0  0  0  0  0  0  0
   -4.8132   18.0079  -35.5284 H   0  0  0  0  0  0  0  0  0  0  0  0
   -7.0730   19.5160  -34.8800 H   0  0  0  0  0  0  0  0  0  0  0  0
   -6.3500   18.4798  -32.5946 H   0  0  0  0  0  0  0  0  0  0  0  0
   -5.1122   19.8006  -32.7422 H   0  0  0  0  0  0  0  0  0  0  0  0
   -8.6563   23.5628  -31.5846 H   0  0  0  0  0  0  0  0  0  0  0  0
  -10.2006   21.4296  -31.5908 H   0  0  0  0  0  0  0  0  0  0  0  0
   -9.3172   18.5397  -31.3183 H   0  0  0  0  0  0  0  0  0  0  0  0
  -10.0899   19.0029  -32.8724 H   0  0  0  0  0  0  0  0  0  0  0  0
   -8.4825   18.2010  -32.8724 H   0  0  0  0  0  0  0  0  0  0  0  0
  1  2  1  0
  2  3  1  0
  3  4  1  0
  4  5  1  0
  5  6  1  0
  6  7  2  0
  7  8  1  0
  8  9  1  0
  8  4  2  0
  1 10  1  0
  1 11  1  0
  1 12  1  0
  2 13  1  0
  3 14  1  0
  3 15  1  0
  6 16  1  0
  7 17  1  0
  9 18  1  0
  9 19  1  0
  9 20  1  0
M  END
>  <UniqueID>  (7) 
6

>  <SMILES>  (7) 
CNCc1sccc1C

>  <Energy>  (7) 
41.257607172756394

>  <Genealogy>  (7) 
CNCc1sccc1C (3D coordinates assigned)
CNCc1sccc1C (optimized conformer: 41.257607172756394 kcal/mol)

>  <smiles>  (7) 
CNCc1sccc1C

>  <score_type>  (7) 
oracle

>  <origin>  (7) 
adg

>  <m_score__min__energy>  (7) 
-4.7000000000000002

>  <m_primary>  (7) 
energy

$$$$
7:0
     RDKit          3D

 26 27  0  0  0  0  0  0  0  0999 V2000
   -3.8980   24.1690  -28.3010 C   0  0  0  0  0  0  0  0  0  0  0  0
   -2.9640   24.4690  -29.4670 C   0  0  0  0  0  0  0  0  0  0  0  0
   -3.6200   25.2780  -30.4420 O   0  0  0  0  0  0  0  0  0  0  0  0
   -4.9950   25.2130  -30.7000 C   0  0  0  0  0  0  0  0  0  0  0  0
   -5.7340   26.2120  -30.4820 O   0  0  0  0  0  0  0  0  0  0  0  0
   -5.5690   23.9620  -31.2250 C   0  0  0  0  0  0  0  0  0  0  0  0
   -6.9340   23.6660  -31.0740 C   0  0  0  0  0  0  0  0  0  0  0  0
   -7.4410   22.4650  -31.5880 C   0  0  0  0  0  0  0  0  0  0  0  0
   -8.7990   22.1400  -31.4550 C   0  0  0  0  0  0  0  0  0  0  0  0
   -9.2870   20.9370  -31.9740 C   0  0  0  0  0  0  0  0  0  0  0  0
   -8.4250   20.0520  -32.6270 C   0  0  0  0  0  0  0  0  0  0  0  0
   -7.0690   20.3640  -32.7670 C   0  0  0  0  0  0  0  0  0  0  0  0
   -6.5710   21.5690  -32.2500 C   0  0  0  0  0  0  0  0  0  0  0  0
   -5.2180   21.9050  -32.3770 C   0  0  0  0  0  0  0  0  0  0  0  0
   -4.7570   23.0790  -31.8670 N   0  0  0  0  0  0  0  0  0  0  0  0
   -3.3672   24.3395  -27.3528 H   0  0  0  0  0  0  0  0  0  0  0  0
   -4.7752   24.8306  -28.3543 H   0  0  0  0  0  0  0  0  0  0  0  0
   -4.2259   23.1204  -28.3543 H   0  0  0  0  0  0  0  0  0  0  0  0
   -2.0779   25.0022  -29.0922 H   0  0  0  0  0  0  0  0  0  0  0  0
   -2.6672   23.5195  -29.9364 H   0  0  0  0  0  0  0  0  0  0  0  0
   -7.6000   24.3719  -30.5561 H   0  0  0  0  0  0  0  0  0  0  0  0
   -9.4815   22.8331  -30.9413 H   0  0  0  0  0  0  0  0  0  0  0  0
  -10.3528   20.6864  -31.8680 H   0  0  0  0  0  0  0  0  0  0  0  0
   -8.8145   19.1065  -33.0324 H   0  0  0  0  0  0  0  0  0  0  0  0
   -6.3936   19.6651  -33.2821 H   0  0  0  0  0  0  0  0  0  0  0  0
   -4.5271   21.2194  -32.8895 H   0  0  0  0  0  0  0  0  0  0  0  0
  1  2  1  0
  2  3  1  0
  3  4  1  0
  4  5  2  0
  4  6  1  0
  6  7  2  0
  7  8  1  0
  8  9  2  0
  9 10  1  0
 10 11  2  0
 11 12  1  0
 12 13  2  0
 13 14  1  0
 14 15  2  0
 15  6  1  0
 13  8  1  0
  1 16  1  0
  1 17  1  0
  1 18  1  0
  2 19  1  0
  2 20  1  0
  7 21  1  0
  9 22  1  0
 10 23  1  0
 11 24  1  0
 12 25  1  0
 14 26  1  0
M  END
>  <UniqueID>  (8) 
7

>  <SMILES>  (8) 
CCOC(=O)c1cc2ccccc2cn1

>  <Energy>  (8) 
25.876835727185387

>  <Genealogy>  (8) 
CCOC(=O)c1cc2ccccc2cn1 (3D coordinates assigned)
CCOC(=O)c1cc2ccccc2cn1 (optimized conformer: 25.876835727185387 kcal/mol)

>  <smiles>  (8) 
CCOC(=O)c1cc2ccccc2cn1

>  <score_type>  (8) 
oracle

>  <origin>  (8) 
adg

>  <m_score__min__energy>  (8) 
-7.2300000000000004

>  <m_primary>  (8) 
energy

$$$$
8:0
     RDKit          3D

 45 47  0  0  0  0  0  0  0  0999 V2000
   -3.2390   24.1590  -27.5630 C   0  0  0  0  0  0  0  0  0  0  0  0
   -2.7100   24.4180  -28.8590 O   0  0  0  0  0  0  0  0  0  0  0  0
   -2.5520   23.4470  -29.8610 C   0  0  0  0  0  0  0  0  0  0  0  0
   -1.4880   22.5250  -29.8470 C   0  0  0  0  0  0  0  0  0  0  0  0
   -1.3620   21.5760  -30.8630 C   0  0  0  0  0  0  0  0  0  0  0  0
   -2.2880   21.5330  -31.9120 C   0  0  0  0  0  0  0  0  0  0  0  0
   -2.1560   20.5100  -33.0100 C   0  0  0  0  0  0  0  0  0  0  0  0
   -2.7520   19.2360  -32.6050 N   0  0  0  0  0  0  0  0  0  0  0  0
   -4.1390   18.8900  -32.7920 C   0  0  0  0  0  0  0  0  0  0  0  0
   -4.5320   17.6190  -33.2480 C   0  0  0  0  0  0  0  0  0  0  0  0
   -5.8830   17.3180  -33.4200 C   0  0  0  0  0  0  0  0  0  0  0  0
   -6.8590   18.2750  -33.1380 C   0  0  0  0  0  0  0  0  0  0  0  0
   -6.4920   19.5510  -32.6760 C   0  0  0  0  0  0  0  0  0  0  0  0
   -7.5280   20.5720  -32.3770 C   0  0  0  0  0  0  0  0  0  0  0  0
   -8.8850   20.2070  -32.2780 C   0  0  0  0  0  0  0  0  0  0  0  0
   -9.8580   21.1710  -31.9960 C   0  0  0  0  0  0  0  0  0  0  0  0
   -9.4910   22.5050  -31.8120 C   0  0  0  0  0  0  0  0  0  0  0  0
   -8.1500   22.8800  -31.9090 C   0  0  0  0  0  0  0  0  0  0  0  0
   -7.1710   21.9210  -32.1890 C   0  0  0  0  0  0  0  0  0  0  0  0
   -5.1270   19.8460  -32.5030 C   0  0  0  0  0  0  0  0  0  0  0  0
   -3.3570   22.4420  -31.9230 C   0  0  0  0  0  0  0  0  0  0  0  0
   -3.4910   23.4050  -30.9030 C   0  0  0  0  0  0  0  0  0  0  0  0
   -4.5420   24.3360  -30.8920 O   0  0  0  0  0  0  0  0  0  0  0  0
   -5.6650   24.2750  -30.0190 C   0  0  0  0  0  0  0  0  0  0  0  0
   -2.5273   24.5075  -26.8001 H   0  0  0  0  0  0  0  0  0  0  0  0
   -4.1942   24.6914  -27.4437 H   0  0  0  0  0  0  0  0  0  0  0  0
   -3.4043   23.0781  -27.4437 H   0  0  0  0  0  0  0  0  0  0  0  0
   -0.7515   22.5526  -29.0304 H   0  0  0  0  0  0  0  0  0  0  0  0
   -0.5296   20.8573  -30.8392 H   0  0  0  0  0  0  0  0  0  0  0  0
   -2.6692   20.8786  -33.9104 H   0  0  0  0  0  0  0  0  0  0  0  0
   -1.0877   20.3503  -33.2178 H   0  0  0  0  0  0  0  0  0  0  0  0
   -2.1350   18.5630  -32.0960 H   0  0  0  0  0  0  0  0  0  0  0  0
   -3.7696   16.8579  -33.4703 H   0  0  0  0  0  0  0  0  0  0  0  0
   -6.1806   16.3219  -33.7795 H   0  0  0  0  0  0  0  0  0  0  0  0
   -7.9220   18.0293  -33.2781 H   0  0  0  0  0  0  0  0  0  0  0  0
   -9.1810   19.1576  -32.4234 H   0  0  0  0  0  0  0  0  0  0  0  0
  -10.9152   20.8772  -31.9190 H   0  0  0  0  0  0  0  0  0  0  0  0
  -10.2587   23.2610  -31.5905 H   0  0  0  0  0  0  0  0  0  0  0  0
   -7.8625   23.9319  -31.7649 H   0  0  0  0  0  0  0  0  0  0  0  0
   -6.1157   22.2226  -32.2628 H   0  0  0  0  0  0  0  0  0  0  0  0
   -4.8293   20.8394  -32.1362 H   0  0  0  0  0  0  0  0  0  0  0  0
   -4.0974   22.4024  -32.7356 H   0  0  0  0  0  0  0  0  0  0  0  0
   -5.3192   24.2938  -28.9749 H   0  0  0  0  0  0  0  0  0  0  0  0
   -6.3204   25.1389  -30.2038 H   0  0  0  0  0  0  0  0  0  0  0  0
   -6.2230   23.3452  -30.2038 H   0  0  0  0  0  0  0  0  0  0  0  0
  1  2  1  0
  2  3  1  0
  3  4  2  0
  4  5  1  0
  5  6  2  0
  6  7  1  0
  7  8  1  0
  8  9  1  0
  9 10  2  0
 10 11  1  0
 11 12  2  0
 12 13  1  0
 13 14  1  0
 14 15  2  0
 15 16  1  0
 16 17  2  0
 17 18  1  0
 18 19  2  0
 13 20  2  0
  6 21  1  0
 21 22  2  0
 22 23  1  0
 23 24  1  0
 22  3  1  0
 20  9  1  0
 19 14  1  0
  1 25  1  0
  1 26  1  0
  1 27  1  0
  4 28  1  0
  5 29  1  0
  7 30  1  0
  7 31  1  0
  8 32  1  0
 10 33  1  0
 11 34  1  0
 12 35  1  0
 15 36  1  0
 16 37  1  0
 17 38  1  0
 18 39  1  0
 19 40  1  0
 20 41  1  0
 21 42  1  0
 24 43  1  0
 24 44  1  0
 24 45  1  0
M  END
>  <UniqueID>  (9) 
8

>  <SMILES>  (9) 
COc1ccc(CNc2cccc(-c3ccccc3)c2)cc1OC

>  <Energy>  (9) 
50.69341757077031

>  <Genealogy>  (9) 
COc1ccc(CNc2cccc(-c3ccccc3)c2)cc1OC (3D coordinates assigned)
COc1ccc(CNc2cccc(-c3ccccc3)c2)cc1OC (optimized conformer: 50.69341757077031 kcal/mol)

>  <smiles>  (9) 
COc1ccc(CNc2cccc(-c3ccccc3)c2)cc1OC

>  <score_type>  (9) 
oracle

>  <origin>  (9) 
adg

>  <m_score__min__energy>  (9) 
-9

>  <m_primary>  (9) 
energy

$$$$
9:0
     RDKit          3D

 52 55  0  0  0  0  0  0  0  0999 V2000
   -4.2220   24.9230  -26.3810 C   0  0  0  0  0  0  0  0  0  0  0  0
   -2.9900   24.5270  -26.7340 C   0  0  0  0  0  0  0  0  0  0  0  0
   -2.3570   24.9470  -28.0450 C   0  0  0  0  0  0  0  0  0  0  0  0
   -2.6620   24.0200  -29.1520 N   0  0  0  0  0  0  0  0  0  0  0  0
   -4.0650   24.0950  -29.5960 C   0  0  0  0  0  0  0  0  0  0  0  0
   -4.2040   23.3550  -30.9290 C   0  0  0  0  0  0  0  0  0  0  0  0
   -3.5750   22.0260  -30.8680 N   0  0  0  0  0  0  0  0  0  0  0  0
   -3.5380   21.1630  -32.0330 C   0  0  0  0  0  0  0  0  0  0  0  0
   -2.7300   20.1920  -32.0660 O   0  0  0  0  0  0  0  0  0  0  0  0
   -4.4300   21.3820  -33.2310 C   0  0  0  0  0  0  0  0  0  0  0  0
   -5.7330   20.7010  -33.1070 N   0  0  0  0  0  0  0  0  0  0  0  0
   -5.9670   19.3670  -33.2900 C   0  0  0  0  0  0  0  0  0  0  0  0
   -4.9580   18.3650  -33.7010 C   0  0  0  0  0  0  0  0  0  0  0  0
   -5.0470   17.7720  -34.9710 C   0  0  0  0  0  0  0  0  0  0  0  0
   -4.0790   16.8480  -35.3670 C   0  0  0  0  0  0  0  0  0  0  0  0
   -3.0230   16.5380  -34.5070 C   0  0  0  0  0  0  0  0  0  0  0  0
   -2.9460   17.1680  -33.2640 C   0  0  0  0  0  0  0  0  0  0  0  0
   -3.8990   18.0670  -32.8910 N   0  0  0  0  0  0  0  0  0  0  0  0
   -7.2660   19.0290  -32.9190 C   0  0  0  0  0  0  0  0  0  0  0  0
   -7.8290   20.1980  -32.4700 C   0  0  0  0  0  0  0  0  0  0  0  0
   -9.0930   20.4240  -31.9270 C   0  0  0  0  0  0  0  0  0  0  0  0
   -9.3900   21.7180  -31.4690 C   0  0  0  0  0  0  0  0  0  0  0  0
   -8.4190   22.7400  -31.5450 C   0  0  0  0  0  0  0  0  0  0  0  0
   -7.1450   22.4800  -32.0890 C   0  0  0  0  0  0  0  0  0  0  0  0
   -6.8800   21.1890  -32.5690 C   0  0  0  0  0  0  0  0  0  0  0  0
   -3.0480   21.5540  -29.5790 C   0  0  0  0  0  0  0  0  0  0  0  0
   -2.1710   22.6400  -28.9130 C   0  0  0  0  0  0  0  0  0  0  0  0
   -4.6501   24.5985  -25.4211 H   0  0  0  0  0  0  0  0  0  0  0  0
   -4.8042   25.5722  -27.0514 H   0  0  0  0  0  0  0  0  0  0  0  0
   -2.4222   23.8779  -26.0512 H   0  0  0  0  0  0  0  0  0  0  0  0
   -2.7308   25.9467  -28.3111 H   0  0  0  0  0  0  0  0  0  0  0  0
   -1.2664   24.9431  -27.9016 H   0  0  0  0  0  0  0  0  0  0  0  0
   -4.7159   23.6257  -28.8436 H   0  0  0  0  0  0  0  0  0  0  0  0
   -4.3603   25.1472  -29.7215 H   0  0  0  0  0  0  0  0  0  0  0  0
   -5.2721   23.2360  -31.1637 H   0  0  0  0  0  0  0  0  0  0  0  0
   -3.6989   23.9440  -31.7087 H   0  0  0  0  0  0  0  0  0  0  0  0
   -4.6073   22.4617  -33.3442 H   0  0  0  0  0  0  0  0  0  0  0  0
   -3.9173   20.9581  -34.1070 H   0  0  0  0  0  0  0  0  0  0  0  0
   -5.8733   18.0338  -35.6483 H   0  0  0  0  0  0  0  0  0  0  0  0
   -4.1474   16.3655  -36.3531 H   0  0  0  0  0  0  0  0  0  0  0  0
   -2.2597   15.8047  -34.8064 H   0  0  0  0  0  0  0  0  0  0  0  0
   -2.1131   16.9378  -32.5834 H   0  0  0  0  0  0  0  0  0  0  0  0
   -3.7890   18.5520  -31.9750 H   0  0  0  0  0  0  0  0  0  0  0  0
   -7.7396   18.0377  -32.9739 H   0  0  0  0  0  0  0  0  0  0  0  0
   -9.8344   19.6142  -31.8594 H   0  0  0  0  0  0  0  0  0  0  0  0
  -10.3832   21.9361  -31.0494 H   0  0  0  0  0  0  0  0  0  0  0  0
   -8.6589   23.7483  -31.1764 H   0  0  0  0  0  0  0  0  0  0  0  0
   -6.3792   23.2683  -32.1359 H   0  0  0  0  0  0  0  0  0  0  0  0
   -3.8890   21.3111  -28.9128 H   0  0  0  0  0  0  0  0  0  0  0  0
   -2.4298   20.6617  -29.7565 H   0  0  0  0  0  0  0  0  0  0  0  0
   -2.1544   22.4584  -27.8282 H   0  0  0  0  0  0  0  0  0  0  0  0
   -1.1688   22.5689  -29.3609 H   0  0  0  0  0  0  0  0  0  0  0  0
  1  2  2  0
  2  3  1  0
  3  4  1  0
  4  5  1  0
  5  6  1  0
  6  7  1  0
  7  8  1  0
  8  9  2  0
  8 10  1  0
 10 11  1  0
 11 12  1  0
 12 13  1  0
 13 14  2  0
 14 15  1  0
 15 16  2  0
 16 17  1  0
 17 18  2  0
 12 19  2  0
 19 20  1  0
 20 21  2  0
 21 22  1  0
 22 23  2  0
 23 24  1  0
 24 25  2  0
  7 26  1  0
 26 27  1  0
 27  4  1  0
 25 11  1  0
 18 13  1  0
 25 20  1  0
  1 28  1  0
  1 29  1  0
  2 30  1  0
  3 31  1  0
  3 32  1  0
  5 33  1  0
  5 34  1  0
  6 35  1  0
  6 36  1  0
 10 37  1  0
 10 38  1  0
 14 39  1  0
 15 40  1  0
 16 41  1  0
 17 42  1  0
 18 43  1  0
 19 44  1  0
 21 45  1  0
 22 46  1  0
 23 47  1  0
 24 48  1  0
 26 49  1  0
 26 50  1  0
 27 51  1  0
 27 52  1  0
M  CHG  1  18   1
M  END
>  <UniqueID>  (10) 
9

>  <SMILES>  (10) 
C=CCN1CCN(C(=O)Cn2c(-c3cccc[nH+]3)cc3ccccc32)CC1

>  <Energy>  (10) 
103.10946471897799

>  <Genealogy>  (10) 
C=CCN1CCN(C(=O)Cn2c(-c3cccc[nH+]3)cc3ccccc32)CC1 (protonated)
C=CCN1CCN(C(=O)Cn2c(-c3cccc[nH+]3)cc3ccccc32)CC1 (3D coordinates assigned)
C=CCN1CCN(C(=O)Cn2c(-c3cccc[nH+]3)cc3ccccc32)CC1 (nonaromatic ring conformer: 103.10946471897799 kcal/mol)

>  <smiles>  (10) 
C=CCN1CCN(C(=O)Cn2c(-c3ccccn3)cc3ccccc32)CC1

>  <score_type>  (10) 
oracle

>  <origin>  (10) 
adg

>  <m_score__min__energy>  (10) 
-7.9800000000000004

>  <m_primary>  (10) 
energy

$$$$
10:0
     RDKit          3D

 49 50  0  0  0  0  0  0  0  0999 V2000
   -3.5680   18.5510  -26.0220 C   0  0  0  0  0  0  0  0  0  0  0  0
   -2.2850   19.3200  -26.2980 C   0  0  0  0  0  0  0  0  0  0  0  0
   -2.3080   19.8020  -27.6260 O   0  0  0  0  0  0  0  0  0  0  0  0
   -1.3400   20.8220  -27.8160 C   0  0  1  0  0  0  0  0  0  0  0  0
   -0.1700   20.2690  -28.6410 C   0  0  0  0  0  0  0  0  0  0  0  0
   -0.6550   19.3470  -29.5970 O   0  0  0  0  0  0  0  0  0  0  0  0
    0.3930   18.9150  -30.4430 C   0  0  0  0  0  0  0  0  0  0  0  0
    0.3720   19.6790  -31.7390 C   0  0  0  0  0  0  0  0  0  0  0  0
   -0.7420   20.4580  -32.0900 C   0  0  0  0  0  0  0  0  0  0  0  0
   -0.7690   21.1440  -33.3070 C   0  0  0  0  0  0  0  0  0  0  0  0
    0.3160   21.0640  -34.1960 C   0  0  0  0  0  0  0  0  0  0  0  0
    0.2830   21.7710  -35.4500 N   0  0  0  0  0  0  0  0  0  0  0  0
   -0.0810   21.1940  -36.4960 O   0  0  0  0  0  0  0  0  0  0  0  0
    0.6370   23.1000  -35.5140 O   0  0  0  0  0  0  0  0  0  0  0  0
    1.4300   20.2780  -33.8430 C   0  0  0  0  0  0  0  0  0  0  0  0
    1.4530   19.5880  -32.6270 C   0  0  0  0  0  0  0  0  0  0  0  0
   -1.9910   21.9820  -28.5430 C   0  0  0  0  0  0  0  0  0  0  0  0
   -3.1360   21.7740  -29.3270 C   0  0  0  0  0  0  0  0  0  0  0  0
   -3.7450   22.8420  -29.9860 C   0  0  0  0  0  0  0  0  0  0  0  0
   -3.2270   24.1440  -29.8650 C   0  0  0  0  0  0  0  0  0  0  0  0
   -3.8160   25.2430  -30.5110 O   0  0  0  0  0  0  0  0  0  0  0  0
   -5.2110   25.5250  -30.5150 C   0  0  0  0  0  0  0  0  0  0  0  0
   -2.0910   24.3670  -29.0720 C   0  0  0  0  0  0  0  0  0  0  0  0
   -1.6040   25.6790  -28.9590 O   0  0  0  0  0  0  0  0  0  0  0  0
   -0.8240   26.1610  -27.8680 C   0  0  0  0  0  0  0  0  0  0  0  0
   -1.4770   23.2840  -28.4140 C   0  0  0  0  0  0  0  0  0  0  0  0
   -3.7159   18.4624  -24.9356 H   0  0  0  0  0  0  0  0  0  0  0  0
   -4.4197   19.0876  -26.4654 H   0  0  0  0  0  0  0  0  0  0  0  0
   -3.4962   17.5469  -26.4654 H   0  0  0  0  0  0  0  0  0  0  0  0
   -2.2067   20.1671  -25.6006 H   0  0  0  0  0  0  0  0  0  0  0  0
   -1.4194   18.6552  -26.1614 H   0  0  0  0  0  0  0  0  0  0  0  0
   -0.9559   21.1672  -26.8448 H   0  0  0  0  0  0  0  0  0  0  0  0
    0.3376   21.0975  -29.1567 H   0  0  0  0  0  0  0  0  0  0  0  0
    0.5396   19.7605  -27.9717 H   0  0  0  0  0  0  0  0  0  0  0  0
    1.3568   19.0820  -29.9398 H   0  0  0  0  0  0  0  0  0  0  0  0
    0.2585   17.8447  -30.6584 H   0  0  0  0  0  0  0  0  0  0  0  0
   -1.5983   20.5287  -31.4032 H   0  0  0  0  0  0  0  0  0  0  0  0
   -1.6470   21.7517  -33.5712 H   0  0  0  0  0  0  0  0  0  0  0  0
    2.2875   20.2064  -34.5282 H   0  0  0  0  0  0  0  0  0  0  0  0
    2.3246   18.9700  -32.3656 H   0  0  0  0  0  0  0  0  0  0  0  0
   -3.5562   20.7619  -29.4226 H   0  0  0  0  0  0  0  0  0  0  0  0
   -4.6369   22.6646  -30.6049 H   0  0  0  0  0  0  0  0  0  0  0  0
   -5.5732   25.5982  -29.4789 H   0  0  0  0  0  0  0  0  0  0  0  0
   -5.3910   26.4777  -31.0346 H   0  0  0  0  0  0  0  0  0  0  0  0
   -5.7469   24.7170  -31.0346 H   0  0  0  0  0  0  0  0  0  0  0  0
   -1.2987   25.8677  -26.9201 H   0  0  0  0  0  0  0  0  0  0  0  0
    0.1865   25.7297  -27.9209 H   0  0  0  0  0  0  0  0  0  0  0  0
   -0.7578   27.2577  -27.9209 H   0  0  0  0  0  0  0  0  0  0  0  0
   -0.5862   23.4586  -27.7928 H   0  0  0  0  0  0  0  0  0  0  0  0
  1  2  1  0
  2  3  1  0
  3  4  1  0
  4  5  1  0
  5  6  1  0
  6  7  1  0
  7  8  1  0
  8  9  2  0
  9 10  1  0
 10 11  2  0
 11 12  1  0
 12 13  2  0
 12 14  1  0
 11 15  1  0
 15 16  2  0
  4 17  1  0
 17 18  2  0
 18 19  1  0
 19 20  2  0
 20 21  1  0
 21 22  1  0
 20 23  1  0
 23 24  1  0
 24 25  1  0
 23 26  2  0
 16  8  1  0
 26 17  1  0
  1 27  1  0
  1 28  1  0
  1 29  1  0
  2 30  1  0
  2 31  1  0
  4 32  1  1
  5 33  1  0
  5 34  1  0
  7 35  1  0
  7 36  1  0
  9 37  1  0
 10 38  1  0
 15 39  1  0
 16 40  1  0
 18 41  1  0
 19 42  1  0
 22 43  1  0
 22 44  1  0
 22 45  1  0
 25 46  1  0
 25 47  1  0
 25 48  1  0
 26 49  1  0
M  CHG  2  12   1  14  -1
M  END
>  <UniqueID>  (11) 
10

>  <SMILES>  (11) 
CCO[C@@H](COCc1ccc([N+](=O)[O-])cc1)c1ccc(OC)c(OC)c1

>  <Energy>  (11) 
48.691264229528684

>  <Genealogy>  (11) 
CCO[C@@H](COCc1ccc([N+](=O)[O-])cc1)c1ccc(OC)c(OC)c1 (chirality)
CCO[C@@H](COCc1ccc([N+](=O)[O-])cc1)c1ccc(OC)c(OC)c1 (3D coordinates assigned)
CCO[C@@H](COCc1ccc([N+](=O)[O-])cc1)c1ccc(OC)c(OC)c1 (optimized conformer: 48.691264229528684 kcal/mol)

>  <smiles>  (11) 
CCOC(COCc1ccc([N+](=O)[O-])cc1)c1ccc(OC)c(OC)c1

>  <score_type>  (11) 
oracle

>  <origin>  (11) 
adg

>  <m_score__min__energy>  (11) 
-8.2300000000000004

>  <m_primary>  (11) 
energy

$$$$
11:0
     RDKit          3D

 36 39  0  0  0  0  0  0  0  0999 V2000
   -8.4620   19.6810  -33.0580 C   0  0  0  0  0  0  0  0  0  0  0  0
   -8.3230   20.7070  -31.9800 C   0  0  0  0  0  0  0  0  0  0  0  0
   -9.3780   21.1470  -31.2610 N   0  0  0  0  0  0  0  0  0  0  0  0
   -8.9330   22.0930  -30.4450 N   0  0  0  0  0  0  0  0  0  0  0  0
   -7.6150   22.2140  -30.6860 C   0  0  0  0  0  0  0  0  0  0  0  0
   -7.1880   21.3520  -31.6200 N   0  0  0  0  0  0  0  0  0  0  0  0
   -5.8160   21.2970  -32.0550 C   0  0  0  0  0  0  0  0  0  0  0  0
   -5.2860   20.2180  -32.7860 C   0  0  0  0  0  0  0  0  0  0  0  0
   -3.9340   20.2000  -33.1330 C   0  0  0  0  0  0  0  0  0  0  0  0
   -3.0900   21.2360  -32.7300 C   0  0  0  0  0  0  0  0  0  0  0  0
   -1.2340   21.1840  -33.1780 Br  0  0  0  0  0  0  0  0  0  0  0  0
   -3.5960   22.2970  -31.9770 C   0  0  0  0  0  0  0  0  0  0  0  0
   -4.9630   22.3480  -31.6480 C   0  0  0  0  0  0  0  0  0  0  0  0
   -5.5110   23.4280  -30.8440 N   0  0  0  0  0  0  0  0  0  0  0  0
   -4.9270   24.7450  -30.8470 C   0  0  0  0  0  0  0  0  0  0  0  0
   -5.6220   25.7360  -31.2000 O   0  0  0  0  0  0  0  0  0  0  0  0
   -3.5630   24.9260  -30.4400 N   0  0  0  0  0  0  0  0  0  0  0  0
   -2.9040   24.2910  -29.3360 C   0  0  0  0  0  0  0  0  0  0  0  0
   -1.5860   23.8120  -29.4200 C   0  0  0  0  0  0  0  0  0  0  0  0
   -1.0040   23.1790  -28.3190 C   0  0  0  0  0  0  0  0  0  0  0  0
   -1.7480   23.0190  -27.1490 C   0  0  0  0  0  0  0  0  0  0  0  0
   -3.0290   23.4670  -27.0900 N   0  0  0  0  0  0  0  0  0  0  0  0
   -3.6180   24.0860  -28.1490 C   0  0  0  0  0  0  0  0  0  0  0  0
   -6.6970   23.1800  -30.0040 C   0  0  0  0  0  0  0  0  0  0  0  0
   -8.5965   18.6881  -32.6040 H   0  0  0  0  0  0  0  0  0  0  0  0
   -9.3359   19.9205  -33.6816 H   0  0  0  0  0  0  0  0  0  0  0  0
   -7.5559   19.6793  -33.6816 H   0  0  0  0  0  0  0  0  0  0  0  0
   -5.9396   19.3853  -33.0852 H   0  0  0  0  0  0  0  0  0  0  0  0
   -3.5321   19.3657  -33.7266 H   0  0  0  0  0  0  0  0  0  0  0  0
   -2.9220   23.0979  -31.6389 H   0  0  0  0  0  0  0  0  0  0  0  0
   -1.0133   23.9351  -30.3510 H   0  0  0  0  0  0  0  0  0  0  0  0
    0.0309   22.8102  -28.3737 H   0  0  0  0  0  0  0  0  0  0  0  0
   -1.2964   22.5295  -26.2735 H   0  0  0  0  0  0  0  0  0  0  0  0
   -4.6609   24.4273  -28.0722 H   0  0  0  0  0  0  0  0  0  0  0  0
   -6.3782   22.7599  -29.0387 H   0  0  0  0  0  0  0  0  0  0  0  0
   -7.2285   24.1291  -29.8408 H   0  0  0  0  0  0  0  0  0  0  0  0
  1  2  1  0
  2  3  2  0
  3  4  1  0
  4  5  2  0
  5  6  1  0
  6  7  1  0
  7  8  2  0
  8  9  1  0
  9 10  2  0
 10 11  1  0
 10 12  1  0
 12 13  2  0
 13 14  1  0
 14 15  1  0
 15 16  2  0
 15 17  1  0
 17 18  1  0
 18 19  2  0
 19 20  1  0
 20 21  2  0
 21 22  1  0
 22 23  2  0
 14 24  1  0
  6  2  1  0
 13  7  1  0
 23 18  1  0
 24  5  1  0
  1 25  1  0
  1 26  1  0
  1 27  1  0
  8 28  1  0
  9 29  1  0
 12 30  1  0
 19 31  1  0
 20 32  1  0
 21 33  1  0
 23 34  1  0
 24 35  1  0
 24 36  1  0
M  CHG  1  17  -1
M  END
>  <UniqueID>  (12) 
11

>  <SMILES>  (12) 
Cc1nnc2n1-c1ccc(Br)cc1N(C(=O)[N-]c1cccnc1)C2

>  <Energy>  (12) 
92.22194176933156

>  <Genealogy>  (12) 
Cc1nnc2n1-c1ccc(Br)cc1N(C(=O)[N-]c1cccnc1)C2 (protonated)
Cc1nnc2n1-c1ccc(Br)cc1N(C(=O)[N-]c1cccnc1)C2 (3D coordinates assigned)
Cc1nnc2n1-c1ccc(Br)cc1N(C(=O)[N-]c1cccnc1)C2 (nonaromatic ring conformer: 92.22194176933156 kcal/mol)

>  <smiles>  (12) 
Cc1nnc2n1-c1ccc(Br)cc1N(C(=O)Nc1cccnc1)C2

>  <score_type>  (12) 
oracle

>  <origin>  (12) 
adg

>  <m_score__min__energy>  (12) 
-9.4399999999999995

>  <m_primary>  (12) 
energy

$$$$
12:0
     RDKit          3D

 52 55  0  0  1  0  0  0  0  0999 V2000
   -1.9920   24.9340  -28.2500 C   0  0  0  0  0  0  0  0  0  0  0  0
   -2.7910   25.2910  -29.3570 O   0  0  0  0  0  0  0  0  0  0  0  0
   -3.8420   24.5350  -29.8330 C   0  0  0  0  0  0  0  0  0  0  0  0
   -5.1350   24.7950  -29.4650 C   0  0  0  0  0  0  0  0  0  0  0  0
   -6.2370   24.0960  -29.8900 C   0  0  0  0  0  0  0  0  0  0  0  0
   -6.0330   23.0240  -30.7770 C   0  0  0  0  0  0  0  0  0  0  0  0
   -7.1600   22.2590  -31.2950 C   0  0  0  0  0  0  0  0  0  0  0  0
   -8.3500   22.9450  -31.4570 C   0  0  0  0  0  0  0  0  0  0  0  0
   -9.4900   22.3090  -31.9650 C   0  0  0  0  0  0  0  0  0  0  0  0
   -9.4210   20.9590  -32.3140 C   0  0  0  0  0  0  0  0  0  0  0  0
   -8.2190   20.3270  -32.1330 C   0  0  0  0  0  0  0  0  0  0  0  0
   -8.1330   19.0270  -32.4530 N   0  0  0  0  0  0  0  0  0  0  0  0
   -6.9980   18.3220  -32.3040 C   0  0  0  0  0  0  0  0  0  0  0  0
   -6.9700   17.0720  -32.5990 N   0  0  0  0  0  0  0  0  0  0  0  0
   -6.3570   16.5420  -33.8320 C   0  0  0  0  0  0  0  0  0  0  0  0
   -5.7670   17.6920  -34.5570 C   0  0  0  0  0  0  0  0  0  0  0  0
   -4.3040   17.9050  -34.5060 C   0  0  0  0  0  0  0  0  0  0  0  0
   -3.7580   18.6820  -33.4480 N   0  0  0  0  0  0  0  0  0  0  0  0
   -2.3380   18.3280  -33.3760 C   0  0  0  0  0  0  0  0  0  0  0  0
   -1.6840   19.5500  -32.7430 C   0  0  0  0  0  0  0  0  0  0  0  0
   -2.4070   20.6340  -33.5080 C   0  0  0  0  0  0  0  0  0  0  0  0
   -3.8200   20.0980  -33.5770 C   0  0  0  0  0  0  0  0  0  0  0  0
   -5.8860   18.9400  -31.8100 N   0  0  0  0  0  0  0  0  0  0  0  0
   -5.9470   20.2430  -31.4810 N   0  0  0  0  0  0  0  0  0  0  0  0
   -7.0870   20.9280  -31.6370 C   0  0  0  0  0  0  0  0  0  0  0  0
   -4.7350   22.7670  -31.1450 C   0  0  0  0  0  0  0  0  0  0  0  0
   -3.6400   23.4730  -30.7120 C   0  0  0  0  0  0  0  0  0  0  0  0
   -2.5272   25.1731  -27.3192 H   0  0  0  0  0  0  0  0  0  0  0  0
   -1.7794   23.8553  -28.2839 H   0  0  0  0  0  0  0  0  0  0  0  0
   -1.0466   25.4953  -28.2839 H   0  0  0  0  0  0  0  0  0  0  0  0
   -5.3043   25.6325  -28.7722 H   0  0  0  0  0  0  0  0  0  0  0  0
   -7.2471   24.3656  -29.5479 H   0  0  0  0  0  0  0  0  0  0  0  0
   -8.4021   24.0088  -31.1821 H   0  0  0  0  0  0  0  0  0  0  0  0
  -10.4298   22.8674  -32.0877 H   0  0  0  0  0  0  0  0  0  0  0  0
  -10.2944   20.4255  -32.7171 H   0  0  0  0  0  0  0  0  0  0  0  0
   -5.5729   15.8129  -33.5798 H   0  0  0  0  0  0  0  0  0  0  0  0
   -7.1078   16.0320  -34.4535 H   0  0  0  0  0  0  0  0  0  0  0  0
   -6.0380   17.5767  -35.6168 H   0  0  0  0  0  0  0  0  0  0  0  0
   -6.1768   18.5685  -34.0338 H   0  0  0  0  0  0  0  0  0  0  0  0
   -3.8351   16.9114  -34.4517 H   0  0  0  0  0  0  0  0  0  0  0  0
   -4.0919   18.4993  -35.4070 H   0  0  0  0  0  0  0  0  0  0  0  0
   -2.1888   17.4363  -32.7494 H   0  0  0  0  0  0  0  0  0  0  0  0
   -1.9127   18.0830  -34.3604 H   0  0  0  0  0  0  0  0  0  0  0  0
   -1.8799   19.6083  -31.6622 H   0  0  0  0  0  0  0  0  0  0  0  0
   -0.5862   19.5819  -32.8045 H   0  0  0  0  0  0  0  0  0  0  0  0
   -2.3711   21.5924  -32.9693 H   0  0  0  0  0  0  0  0  0  0  0  0
   -1.9679   20.8421  -34.4948 H   0  0  0  0  0  0  0  0  0  0  0  0
   -4.4208   20.5218  -32.7588 H   0  0  0  0  0  0  0  0  0  0  0  0
   -4.2885   20.3753  -34.5328 H   0  0  0  0  0  0  0  0  0  0  0  0
   -4.9860   18.4300  -31.6790 H   0  0  0  0  0  0  0  0  0  0  0  0
   -4.5594   21.9321  -31.8394 H   0  0  0  0  0  0  0  0  0  0  0  0
   -2.6279   23.2067  -31.0508 H   0  0  0  0  0  0  0  0  0  0  0  0
  1  2  1  0
  2  3  1  0
  3  4  2  0
  4  5  1  0
  5  6  2  0
  6  7  1  0
  7  8  2  0
  8  9  1  0
  9 10  2  0
 10 11  1  0
 11 12  2  0
 12 13  1  0
 13 14  2  0
 14 15  1  0
 15 16  1  0
 16 17  1  0
 17 18  1  0
 18 19  1  0
 19 20  1  0
 20 21  1  0
 21 22  1  0
 13 23  1  0
 23 24  1  0
 24 25  2  0
  6 26  1  0
 26 27  2  0
 27  3  1  0
 25  7  1  0
 25 11  1  0
 22 18  1  0
  1 28  1  0
  1 29  1  0
  1 30  1  0
  4 31  1  0
  5 32  1  0
  8 33  1  0
  9 34  1  0
 10 35  1  0
 15 36  1  0
 15 37  1  0
 16 38  1  0
 16 39  1  0
 17 40  1  0
 17 41  1  0
 19 42  1  0
 19 43  1  0
 20 44  1  0
 20 45  1  0
 21 46  1  0
 21 47  1  0
 22 48  1  0
 22 49  1  0
 23 50  1  0
 26 51  1  0
 27 52  1  0
M  END
>  <smiles>  (13) 
COc1ccc(-c2cccc3nc(=NCCCN4CCCC4)[nH]nc23)cc1

>  <score_type>  (13) 
oracle

>  <origin>  (13) 
adg

>  <m_score__min__energy>  (13) 
-9.2699999999999996

>  <m_primary>  (13) 
energy

$$$$
13:0
     RDKit          3D

 44 46  0  0  0  0  0  0  0  0999 V2000
   -0.0330   20.6060  -27.5020 C   0  0  0  0  0  0  0  0  0  0  0  0
   -0.4630   21.9670  -27.9740 C   0  0  0  0  0  0  0  0  0  0  0  0
   -1.6980   22.1470  -28.6070 C   0  0  0  0  0  0  0  0  0  0  0  0
   -2.0750   23.3800  -29.0530 N   0  0  0  0  0  0  0  0  0  0  0  0
   -3.3240   23.5330  -29.6830 N   0  0  0  0  0  0  0  0  0  0  0  0
   -3.3760   23.4500  -31.1500 C   0  0  0  0  0  0  0  0  0  0  0  0
   -4.4590   22.5030  -31.6840 C   0  0  0  0  0  0  0  0  0  0  0  0
   -5.8360   23.1780  -31.8000 C   0  0  0  0  0  0  0  0  0  0  0  0
   -6.4050   23.5700  -30.4980 N   0  0  0  0  0  0  0  0  0  0  0  0
   -7.4600   22.7270  -29.9040 C   0  0  0  0  0  0  0  0  0  0  0  0
   -7.9990   21.7030  -30.8680 C   0  0  0  0  0  0  0  0  0  0  0  0
   -7.2050   20.6120  -31.2610 C   0  0  0  0  0  0  0  0  0  0  0  0
   -7.7090   19.6600  -32.1530 C   0  0  0  0  0  0  0  0  0  0  0  0
   -9.0010   19.7950  -32.6660 C   0  0  0  0  0  0  0  0  0  0  0  0
   -9.7930   20.8840  -32.2890 C   0  0  0  0  0  0  0  0  0  0  0  0
   -9.2930   21.8380  -31.3980 C   0  0  0  0  0  0  0  0  0  0  0  0
   -5.6180   24.4440  -29.6080 C   0  0  0  0  0  0  0  0  0  0  0  0
   -4.5180   23.6970  -28.8470 C   0  0  0  0  0  0  0  0  0  0  0  0
   -1.2450   24.4530  -28.8870 C   0  0  0  0  0  0  0  0  0  0  0  0
   -1.5930   25.5970  -29.2850 O   0  0  0  0  0  0  0  0  0  0  0  0
   -0.0390   24.2950  -28.2850 N   0  0  0  0  0  0  0  0  0  0  0  0
    0.3710   23.0840  -27.8310 C   0  0  0  0  0  0  0  0  0  0  0  0
    1.5020   22.9770  -27.2860 O   0  0  0  0  0  0  0  0  0  0  0  0
   -0.0262   20.5845  -26.4022 H   0  0  0  0  0  0  0  0  0  0  0  0
   -0.7355   19.8482  -27.8792 H   0  0  0  0  0  0  0  0  0  0  0  0
    0.9773   20.3894  -27.8792 H   0  0  0  0  0  0  0  0  0  0  0  0
   -2.3702   21.2875  -28.7461 H   0  0  0  0  0  0  0  0  0  0  0  0
   -3.5712   24.4573  -31.5467 H   0  0  0  0  0  0  0  0  0  0  0  0
   -2.4081   23.0447  -31.4801 H   0  0  0  0  0  0  0  0  0  0  0  0
   -4.1561   22.1488  -32.6804 H   0  0  0  0  0  0  0  0  0  0  0  0
   -4.5559   21.6733  -30.9683 H   0  0  0  0  0  0  0  0  0  0  0  0
   -5.7315   24.0799  -32.4210 H   0  0  0  0  0  0  0  0  0  0  0  0
   -6.5220   22.4437  -32.2474 H   0  0  0  0  0  0  0  0  0  0  0  0
   -7.0421   22.2031  -29.0317 H   0  0  0  0  0  0  0  0  0  0  0  0
   -8.2930   23.3877  -29.6218 H   0  0  0  0  0  0  0  0  0  0  0  0
   -6.1839   20.5065  -30.8658 H   0  0  0  0  0  0  0  0  0  0  0  0
   -7.0867   18.8033  -32.4511 H   0  0  0  0  0  0  0  0  0  0  0  0
   -9.3956   19.0445  -33.3667 H   0  0  0  0  0  0  0  0  0  0  0  0
  -10.8103   20.9900  -32.6939 H   0  0  0  0  0  0  0  0  0  0  0  0
   -9.9155   22.6982  -31.1106 H   0  0  0  0  0  0  0  0  0  0  0  0
   -5.1492   25.2315  -30.2164 H   0  0  0  0  0  0  0  0  0  0  0  0
   -6.3104   24.8571  -28.8597 H   0  0  0  0  0  0  0  0  0  0  0  0
   -4.2513   24.2686  -27.9458 H   0  0  0  0  0  0  0  0  0  0  0  0
   -4.8946   22.7008  -28.5717 H   0  0  0  0  0  0  0  0  0  0  0  0
  1  2  1  0
  2  3  2  0
  3  4  1  0
  4  5  1  0
  5  6  1  0
  6  7  1  0
  7  8  1  0
  8  9  1  0
  9 10  1  0
 10 11  1  0
 11 12  2  0
 12 13  1  0
 13 14  2  0
 14 15  1  0
 15 16  2  0
  9 17  1  0
 17 18  1  0
  4 19  1  0
 19 20  2  0
 19 21  1  0
 21 22  1  0
 22 23  2  0
 22  2  1  0
 18  5  1  0
 16 11  1  0
  1 24  1  0
  1 25  1  0
  1 26  1  0
  3 27  1  0
  6 28  1  0
  6 29  1  0
  7 30  1  0
  7 31  1  0
  8 32  1  0
  8 33  1  0
 10 34  1  0
 10 35  1  0
 12 36  1  0
 13 37  1  0
 14 38  1  0
 15 39  1  0
 16 40  1  0
 17 41  1  0
 17 42  1  0
 18 43  1  0
 18 44  1  0
M  CHG  1  21  -1
M  END
>  <UniqueID>  (14) 
12

>  <SMILES>  (14) 
Cc1cn(N2CCCN(Cc3ccccc3)CC2)c(=O)[n-]c1=O

>  <Energy>  (14) 
65.61987270065725

>  <Genealogy>  (14) 
Cc1cn(N2CCCN(Cc3ccccc3)CC2)c(=O)[n-]c1=O (protonated)
Cc1cn(N2CCCN(Cc3ccccc3)CC2)c(=O)[n-]c1=O (3D coordinates assigned)
Cc1cn(N2CCCN(Cc3ccccc3)CC2)c(=O)[n-]c1=O (nonaromatic ring conformer: 65.61987270065725 kcal/mol)

>  <smiles>  (14) 
Cc1cn(N2CCCN(Cc3ccccc3)CC2)c(=O)[nH]c1=O

>  <score_type>  (14) 
oracle

>  <origin>  (14) 
adg

>  <m_score__min__energy>  (14) 
-7.5999999999999996

>  <m_primary>  (14) 
energy

$$$$
14:0
     RDKit          3D

 49 51  0  0  0  0  0  0  0  0999 V2000
   -0.9250   21.8570  -30.4810 C   0  0  0  0  0  0  0  0  0  0  0  0
   -1.7700   20.5980  -30.2960 C   0  0  0  0  0  0  0  0  0  0  0  0
   -2.1080   19.9180  -31.6310 C   0  0  0  0  0  0  0  0  0  0  0  0
   -2.8250   20.8260  -32.5420 N   0  0  0  0  0  0  0  0  0  0  0  0
   -2.2220   21.1690  -33.8390 C   0  0  0  0  0  0  0  0  0  0  0  0
   -0.7250   20.8860  -33.8320 C   0  0  0  0  0  0  0  0  0  0  0  0
   -3.9580   21.5820  -32.0710 C   0  0  0  0  0  0  0  0  0  0  0  0
   -3.7800   22.8820  -31.7030 N   0  0  0  0  0  0  0  0  0  0  0  0
   -4.7920   23.6200  -31.1860 C   0  0  0  0  0  0  0  0  0  0  0  0
   -4.5850   24.9130  -30.8180 N   0  0  0  0  0  0  0  0  0  0  0  0
   -5.5860   25.6650  -30.2840 C   0  0  0  0  0  0  0  0  0  0  0  0
   -6.8600   25.1160  -30.1000 C   0  0  0  0  0  0  0  0  0  0  0  0
   -7.0960   23.7900  -30.4700 C   0  0  0  0  0  0  0  0  0  0  0  0
   -6.0560   23.0330  -31.0170 C   0  0  0  0  0  0  0  0  0  0  0  0
   -6.2510   21.7460  -31.4020 N   0  0  0  0  0  0  0  0  0  0  0  0
   -5.2440   21.0040  -31.9410 C   0  0  0  0  0  0  0  0  0  0  0  0
   -5.5310   19.6760  -32.4040 N   0  0  0  0  0  0  0  0  0  0  0  0
   -5.0780   19.2350  -33.7290 C   0  0  0  0  0  0  0  0  0  0  0  0
   -6.1130   18.2910  -34.3550 C   0  0  0  0  0  0  0  0  0  0  0  0
   -6.4540   17.1360  -33.4840 N   0  0  0  0  0  0  0  0  0  0  0  0
   -5.7450   15.9180  -33.9070 C   0  0  0  0  0  0  0  0  0  0  0  0
   -6.2580   17.3690  -32.0310 C   0  0  0  0  0  0  0  0  0  0  0  0
   -6.4630   18.8370  -31.6480 C   0  0  0  0  0  0  0  0  0  0  0  0
   -0.6522   22.2635  -29.4960 H   0  0  0  0  0  0  0  0  0  0  0  0
   -0.0114   21.6065  -31.0401 H   0  0  0  0  0  0  0  0  0  0  0  0
   -1.5029   22.6076  -31.0401 H   0  0  0  0  0  0  0  0  0  0  0  0
   -1.2120   19.8871  -29.6688 H   0  0  0  0  0  0  0  0  0  0  0  0
   -2.7170   20.8964  -29.8225 H   0  0  0  0  0  0  0  0  0  0  0  0
   -1.1732   19.5955  -32.1129 H   0  0  0  0  0  0  0  0  0  0  0  0
   -2.7618   19.0587  -31.4207 H   0  0  0  0  0  0  0  0  0  0  0  0
   -2.6987   20.5690  -34.6282 H   0  0  0  0  0  0  0  0  0  0  0  0
   -2.3769   22.2417  -34.0269 H   0  0  0  0  0  0  0  0  0  0  0  0
   -0.3694   20.8188  -32.7932 H   0  0  0  0  0  0  0  0  0  0  0  0
   -0.5292   19.9349  -34.3489 H   0  0  0  0  0  0  0  0  0  0  0  0
   -0.1955   21.7000  -34.3489 H   0  0  0  0  0  0  0  0  0  0  0  0
   -5.3927   26.7088  -29.9958 H   0  0  0  0  0  0  0  0  0  0  0  0
   -7.6687   25.7236  -29.6677 H   0  0  0  0  0  0  0  0  0  0  0  0
   -8.0924   23.3449  -30.3320 H   0  0  0  0  0  0  0  0  0  0  0  0
   -4.9466   20.1127  -34.3789 H   0  0  0  0  0  0  0  0  0  0  0  0
   -4.1225   18.7006  -33.6225 H   0  0  0  0  0  0  0  0  0  0  0  0
   -7.0318   18.8621  -34.5541 H   0  0  0  0  0  0  0  0  0  0  0  0
   -5.6705   17.8858  -35.2770 H   0  0  0  0  0  0  0  0  0  0  0  0
   -5.4183   15.3568  -33.0191 H   0  0  0  0  0  0  0  0  0  0  0  0
   -6.4195   15.2915  -34.5091 H   0  0  0  0  0  0  0  0  0  0  0  0
   -4.8671   16.1952  -34.5091 H   0  0  0  0  0  0  0  0  0  0  0  0
   -6.9789   16.7533  -31.4731 H   0  0  0  0  0  0  0  0  0  0  0  0
   -5.2218   17.0965  -31.7820 H   0  0  0  0  0  0  0  0  0  0  0  0
   -7.4958   19.1354  -31.8808 H   0  0  0  0  0  0  0  0  0  0  0  0
   -6.2775   18.9632  -30.5711 H   0  0  0  0  0  0  0  0  0  0  0  0
  1  2  1  0
  2  3  1  0
  3  4  1  0
  4  5  1  0
  5  6  1  0
  4  7  1  0
  7  8  2  0
  8  9  1  0
  9 10  2  0
 10 11  1  0
 11 12  2  0
 12 13  1  0
 13 14  2  0
 14 15  1  0
 15 16  2  0
 16 17  1  0
 17 18  1  0
 18 19  1  0
 19 20  1  0
 20 21  1  0
 20 22  1  0
 22 23  1  0
 16  7  1  0
 23 17  1  0
 14  9  1  0
  1 24  1  0
  1 25  1  0
  1 26  1  0
  2 27  1  0
  2 28  1  0
  3 29  1  0
  3 30  1  0
  5 31  1  0
  5 32  1  0
  6 33  1  0
  6 34  1  0
  6 35  1  0
 11 36  1  0
 12 37  1  0
 13 38  1  0
 18 39  1  0
 18 40  1  0
 19 41  1  0
 19 42  1  0
 21 43  1  0
 21 44  1  0
 21 45  1  0
 22 46  1  0
 22 47  1  0
 23 48  1  0
 23 49  1  0
M  END
>  <UniqueID>  (15) 
13

>  <SMILES>  (15) 
CCCN(CC)c1nc2ncccc2nc1N1CCN(C)CC1

>  <Energy>  (15) 
58.572072691180665

>  <Genealogy>  (15) 
CCCN(CC)c1nc2ncccc2nc1N1CCN(C)CC1 (3D coordinates assigned)
CCCN(CC)c1nc2ncccc2nc1N1CCN(C)CC1 (nonaromatic ring conformer: 58.572072691180665 kcal/mol)

>  <smiles>  (15) 
CCCN(CC)c1nc2ncccc2nc1N1CCN(C)CC1

>  <score_type>  (15) 
oracle

>  <origin>  (15) 
adg

>  <m_score__min__energy>  (15) 
-6.96

>  <m_primary>  (15) 
energy

$$$$
15:0
     RDKit          3D

 44 44  0  0  0  0  0  0  0  0999 V2000
   -6.4022   25.4909  -31.1361 H   0  0  0  0  0  0  0  0  0  0  0  0
   -5.8350   24.5520  -31.2190 C   0  0  0  0  0  0  0  0  0  0  0  0
   -4.7950   24.3060  -30.1990 C   0  0  0  0  0  0  0  0  0  0  0  0
   -5.0930   23.6290  -29.1790 O   0  0  0  0  0  0  0  0  0  0  0  0
   -3.4900   24.8760  -30.3190 N   0  0  0  0  0  0  0  0  0  0  0  0
   -2.4300   24.6510  -29.3460 C   0  0  0  0  0  0  0  0  0  0  0  0
   -2.8615   24.6705  -28.3344 H   0  0  0  0  0  0  0  0  0  0  0  0
   -1.6768   25.4443  -29.4618 H   0  0  0  0  0  0  0  0  0  0  0  0
   -1.7460   23.2940  -29.5730 C   0  0  0  0  0  0  0  0  0  0  0  0
   -1.4047   22.9225  -28.5955 H   0  0  0  0  0  0  0  0  0  0  0  0
   -0.9360   23.4891  -30.2912 H   0  0  0  0  0  0  0  0  0  0  0  0
   -2.5840   22.2310  -30.1960 N   0  0  0  0  0  0  0  0  0  0  0  0
   -3.5030   22.7130  -30.3410 H   0  0  0  0  0  0  0  0  0  0  0  0
   -2.1210   21.8520  -31.5570 C   0  0  0  0  0  0  0  0  0  0  0  0
   -1.4934   20.9520  -31.4792 H   0  0  0  0  0  0  0  0  0  0  0  0
   -1.5563   22.7014  -31.9689 H   0  0  0  0  0  0  0  0  0  0  0  0
   -3.2870   21.5590  -32.5080 C   0  0  0  0  0  0  0  0  0  0  0  0
   -4.1899   21.3321  -31.9221 H   0  0  0  0  0  0  0  0  0  0  0  0
   -3.4728   22.4384  -33.1422 H   0  0  0  0  0  0  0  0  0  0  0  0
   -3.0350   20.6963  -33.1422 H   0  0  0  0  0  0  0  0  0  0  0  0
   -2.8900   21.0930  -29.2780 C   0  0  0  0  0  0  0  0  0  0  0  0
   -3.9327   20.7893  -29.4528 H   0  0  0  0  0  0  0  0  0  0  0  0
   -2.1514   20.3125  -29.5131 H   0  0  0  0  0  0  0  0  0  0  0  0
   -2.7280   21.3830  -27.7740 C   0  0  0  0  0  0  0  0  0  0  0  0
   -3.1833   20.5679  -27.1923 H   0  0  0  0  0  0  0  0  0  0  0  0
   -1.6584   21.4561  -27.5278 H   0  0  0  0  0  0  0  0  0  0  0  0
   -3.2266   22.3321  -27.5278 H   0  0  0  0  0  0  0  0  0  0  0  0
   -6.1530   23.7370  -32.2380 C   0  0  0  0  0  0  0  0  0  0  0  0
   -5.7057   23.9637  -33.2171 H   0  0  0  0  0  0  0  0  0  0  0  0
   -7.0490   22.5630  -32.1650 C   0  0  0  0  0  0  0  0  0  0  0  0
   -8.3300   22.7160  -31.6170 C   0  0  0  0  0  0  0  0  0  0  0  0
   -8.6695   23.7098  -31.2897 H   0  0  0  0  0  0  0  0  0  0  0  0
   -9.1780   21.6140  -31.4840 C   0  0  0  0  0  0  0  0  0  0  0  0
  -10.1844   21.7431  -31.0592 H   0  0  0  0  0  0  0  0  0  0  0  0
   -8.7490   20.3480  -31.8900 C   0  0  0  0  0  0  0  0  0  0  0  0
   -9.4246   19.4855  -31.7914 H   0  0  0  0  0  0  0  0  0  0  0  0
   -7.4670   20.1680  -32.4210 C   0  0  0  0  0  0  0  0  0  0  0  0
   -7.0880   18.8810  -32.8280 O   0  0  0  0  0  0  0  0  0  0  0  0
   -6.1070   18.6100  -33.8230 C   0  0  0  0  0  0  0  0  0  0  0  0
   -5.1555   18.3471  -33.3378 H   0  0  0  0  0  0  0  0  0  0  0  0
   -6.4428   17.7710  -34.4501 H   0  0  0  0  0  0  0  0  0  0  0  0
   -5.9645   19.5024  -34.4501 H   0  0  0  0  0  0  0  0  0  0  0  0
   -6.6080   21.2790  -32.5330 C   0  0  0  0  0  0  0  0  0  0  0  0
   -5.5843   21.1413  -32.9112 H   0  0  0  0  0  0  0  0  0  0  0  0
  1  2  1  0
  2  3  1  0
  3  4  2  0
  3  5  1  0
  5  6  1  0
  6  7  1  0
  6  8  1  0
  6  9  1  0
  9 10  1  0
  9 11  1  0
  9 12  1  0
 12 13  1  0
 12 14  1  0
 14 15  1  0
 14 16  1  0
 14 17  1  0
 17 18  1  0
 17 19  1  0
 17 20  1  0
 12 21  1  0
 21 22  1  0
 21 23  1  0
 21 24  1  0
 24 25  1  0
 24 26  1  0
 24 27  1  0
  2 28  2  0
 28 29  1  0
 28 30  1  0
 30 31  2  0
 31 32  1  0
 31 33  1  0
 33 34  1  0
 33 35  2  0
 35 36  1  0
 35 37  1  0
 37 38  1  0
 38 39  1  0
 39 40  1  0
 39 41  1  0
 39 42  1  0
 37 43  2  0
 43 44  1  0
 43 30  1  0
M  CHG  2   5  -1  12   1
M  END
>  <UniqueID>  (16) 
14

>  <SMILES>  (16) 
CC[NH+](CC)CC[N-]C(=O)/C=C\c1cccc(OC)c1

>  <Energy>  (16) 
49.69328432654217

>  <Genealogy>  (16) 
CC[NH+](CC)CC[N-]C(=O)C=Cc1cccc(OC)c1 (protonated)
CC[NH+](CC)CC[N-]C(=O)/C=C\c1cccc(OC)c1 (cis-trans isomerization)
CC[NH+](CC)CC[N-]C(=O)/C=C\c1cccc(OC)c1 (3D coordinates assigned)
CC[NH+](CC)CC[N-]C(=O)/C=C\c1cccc(OC)c1 (optimized conformer: 49.69328432654217 kcal/mol)

>  <smiles>  (16) 
CCN(CC)CCNC(=O)C=Cc1cccc(OC)c1

>  <score_type>  (16) 
oracle

>  <origin>  (16) 
adg

>  <m_score__min__energy>  (16) 
-6.9800000000000004

>  <m_primary>  (16) 
energy

$$$$
16:0
     RDKit          3D

 35 36  0  0  0  0  0  0  0  0999 V2000
    1.1068   23.7715  -26.1583 H   0  0  0  0  0  0  0  0  0  0  0  0
    0.2540   23.7850  -26.8530 C   0  0  0  0  0  0  0  0  0  0  0  0
   -0.5920   22.6770  -26.9430 C   0  0  0  0  0  0  0  0  0  0  0  0
   -0.4007   21.7885  -26.3233 H   0  0  0  0  0  0  0  0  0  0  0  0
   -1.6800   22.6950  -27.8180 C   0  0  0  0  0  0  0  0  0  0  0  0
   -2.3370   21.8157  -27.8893 H   0  0  0  0  0  0  0  0  0  0  0  0
   -1.9430   23.8280  -28.6090 C   0  0  0  0  0  0  0  0  0  0  0  0
   -3.1110   23.8170  -29.5210 C   0  0  0  0  0  0  0  0  0  0  0  0
   -3.4620   24.9590  -30.1730 N   0  0  0  0  0  0  0  0  0  0  0  0
   -4.4940   24.9970  -31.0180 N   0  0  0  0  0  0  0  0  0  0  0  0
   -5.2440   23.8910  -31.2790 C   0  0  0  0  0  0  0  0  0  0  0  0
   -6.2510   23.9390  -32.1020 N   0  0  0  0  0  0  0  0  0  0  0  0
   -7.5580   23.3270  -31.8650 C   0  0  0  0  0  0  0  0  0  0  0  0
   -8.3238   23.8818  -32.4269 H   0  0  0  0  0  0  0  0  0  0  0  0
   -7.7752   23.3626  -30.7872 H   0  0  0  0  0  0  0  0  0  0  0  0
   -7.5610   21.8620  -32.3210 C   0  0  0  0  0  0  0  0  0  0  0  0
   -6.8479   21.2916  -31.7078 H   0  0  0  0  0  0  0  0  0  0  0  0
   -7.2709   21.8212  -33.3813 H   0  0  0  0  0  0  0  0  0  0  0  0
   -8.9090   21.2710  -32.1740 N   0  0  0  0  0  0  0  0  0  0  0  0
   -8.8500   19.8130  -32.3590 C   0  0  0  0  0  0  0  0  0  0  0  0
   -8.8300   19.3192  -31.3763 H   0  0  0  0  0  0  0  0  0  0  0  0
   -9.7353   19.4784  -32.9195 H   0  0  0  0  0  0  0  0  0  0  0  0
   -7.9405   19.5510  -32.9195 H   0  0  0  0  0  0  0  0  0  0  0  0
   -9.4770   21.5710  -30.8470 C   0  0  0  0  0  0  0  0  0  0  0  0
   -8.7928   21.2097  -30.0651 H   0  0  0  0  0  0  0  0  0  0  0  0
   -9.6115   22.6578  -30.7429 H   0  0  0  0  0  0  0  0  0  0  0  0
  -10.4504   21.0694  -30.7429 H   0  0  0  0  0  0  0  0  0  0  0  0
   -4.9220   22.6900  -30.6470 C   0  0  0  0  0  0  0  0  0  0  0  0
   -5.5140   21.7838  -30.8430 H   0  0  0  0  0  0  0  0  0  0  0  0
   -3.8450   22.6480  -29.7660 C   0  0  0  0  0  0  0  0  0  0  0  0
   -3.5725   21.7064  -29.2668 H   0  0  0  0  0  0  0  0  0  0  0  0
   -1.0690   24.9360  -28.5290 C   0  0  0  0  0  0  0  0  0  0  0  0
   -1.2500   26.0520  -29.3390 O   0  0  0  0  0  0  0  0  0  0  0  0
    0.0160   24.9100  -27.6460 C   0  0  0  0  0  0  0  0  0  0  0  0
    0.6852   25.7802  -27.5759 H   0  0  0  0  0  0  0  0  0  0  0  0
  1  2  1  0
  2  3  2  0
  3  4  1  0
  3  5  1  0
  5  6  1  0
  5  7  2  0
  7  8  1  0
  8  9  2  0
  9 10  1  0
 10 11  1  0
 11 12  2  0
 12 13  1  0
 13 14  1  0
 13 15  1  0
 13 16  1  0
 16 17  1  0
 16 18  1  0
 16 19  1  0
 19 20  1  0
 20 21  1  0
 20 22  1  0
 20 23  1  0
 19 24  1  0
 24 25  1  0
 24 26  1  0
 24 27  1  0
 11 28  1  0
 28 29  1  0
 28 30  2  0
 30 31  1  0
  7 32  1  0
 32 33  1  0
 32 34  2  0
 34 35  1  0
 34  2  1  0
 30  8  1  0
M  CHG  2  10  -1  33  -1
M  END
>  <UniqueID>  (17) 
15

>  <SMILES>  (17) 
CN(C)CC/N=c1/ccc(-c2ccccc2[O-])n[n-]1

>  <Energy>  (17) 
41.33595459220761

>  <Genealogy>  (17) 
CN(C)CCN=c1ccc(-c2ccccc2[O-])n[n-]1 (protonated)
CN(C)CC/N=c1/ccc(-c2ccccc2[O-])n[n-]1 (cis-trans isomerization)
CN(C)CC/N=c1/ccc(-c2ccccc2[O-])n[n-]1 (3D coordinates assigned)
CN(C)CC/N=c1/ccc(-c2ccccc2[O-])n[n-]1 (optimized conformer: 41.33595459220761 kcal/mol)

>  <smiles>  (17) 
CN(C)CCN=c1ccc(-c2ccccc2O)n[nH]1

>  <score_type>  (17) 
oracle

>  <origin>  (17) 
adg

>  <m_score__min__energy>  (17) 
-11.050000000000001

>  <m_primary>  (17) 
energy

$$$$
17:0
     RDKit          3D

 40 43  0  0  0  0  0  0  0  0999 V2000
   -0.1590   29.8460  -26.3190 C   0  0  0  0  0  0  0  0  0  0  0  0
   -0.5640   28.4140  -26.1270 C   0  0  0  0  0  0  0  0  0  0  0  0
   -0.9620   27.9580  -24.8620 C   0  0  0  0  0  0  0  0  0  0  0  0
   -1.3040   26.6180  -24.6750 C   0  0  0  0  0  0  0  0  0  0  0  0
   -1.2390   25.7200  -25.7430 C   0  0  0  0  0  0  0  0  0  0  0  0
   -0.8240   26.1530  -27.0150 C   0  0  0  0  0  0  0  0  0  0  0  0
   -0.7480   25.1980  -28.1460 C   0  0  0  0  0  0  0  0  0  0  0  0
    0.0830   24.2490  -28.1120 O   0  0  0  0  0  0  0  0  0  0  0  0
   -1.5820   25.3820  -29.3000 N   0  0  0  0  0  0  0  0  0  0  0  0
   -2.6370   24.5150  -29.7400 C   0  0  0  0  0  0  0  0  0  0  0  0
   -3.9840   24.9160  -29.7350 C   0  0  0  0  0  0  0  0  0  0  0  0
   -4.9790   24.0480  -30.1950 C   0  0  0  0  0  0  0  0  0  0  0  0
   -4.6480   22.7710  -30.6800 C   0  0  0  0  0  0  0  0  0  0  0  0
   -5.7100   21.8600  -31.1640 C   0  0  0  0  0  0  0  0  0  0  0  0
   -7.0130   22.2290  -31.2710 N   0  0  0  0  0  0  0  0  0  0  0  0
   -7.7820   21.2120  -31.7370 C   0  0  0  0  0  0  0  0  0  0  0  0
   -9.1580   21.2960  -31.9500 C   0  0  0  0  0  0  0  0  0  0  0  0
   -9.8370   20.1650  -32.4380 C   0  0  0  0  0  0  0  0  0  0  0  0
   -9.1350   18.9720  -32.7050 C   0  0  0  0  0  0  0  0  0  0  0  0
   -7.7500   18.9000  -32.4870 C   0  0  0  0  0  0  0  0  0  0  0  0
   -7.1040   20.0340  -32.0040 C   0  0  0  0  0  0  0  0  0  0  0  0
   -5.4790   20.2470  -31.6500 S   0  0  0  0  0  0  0  0  0  0  0  0
   -3.2960   22.3860  -30.7050 C   0  0  0  0  0  0  0  0  0  0  0  0
   -2.3020   23.2550  -30.2460 C   0  0  0  0  0  0  0  0  0  0  0  0
   -0.4820   27.5070  -27.1950 C   0  0  0  0  0  0  0  0  0  0  0  0
   -0.0239   30.3236  -25.3374 H   0  0  0  0  0  0  0  0  0  0  0  0
    0.7862   29.8877  -26.8802 H   0  0  0  0  0  0  0  0  0  0  0  0
   -0.9423   30.3765  -26.8802 H   0  0  0  0  0  0  0  0  0  0  0  0
   -1.0047   28.6584  -24.0149 H   0  0  0  0  0  0  0  0  0  0  0  0
   -1.6259   26.2677  -23.6832 H   0  0  0  0  0  0  0  0  0  0  0  0
   -1.5145   24.6664  -25.5879 H   0  0  0  0  0  0  0  0  0  0  0  0
   -4.2565   25.9165  -29.3678 H   0  0  0  0  0  0  0  0  0  0  0  0
   -6.0314   24.3677  -30.1771 H   0  0  0  0  0  0  0  0  0  0  0  0
   -9.7017   22.2290  -31.7403 H   0  0  0  0  0  0  0  0  0  0  0  0
  -10.9221   20.2116  -32.6123 H   0  0  0  0  0  0  0  0  0  0  0  0
   -9.6753   18.0929  -33.0862 H   0  0  0  0  0  0  0  0  0  0  0  0
   -7.1919   17.9745  -32.6919 H   0  0  0  0  0  0  0  0  0  0  0  0
   -3.0183   21.3932  -31.0887 H   0  0  0  0  0  0  0  0  0  0  0  0
   -1.2472   22.9451  -30.2831 H   0  0  0  0  0  0  0  0  0  0  0  0
   -0.1472   27.8574  -28.1825 H   0  0  0  0  0  0  0  0  0  0  0  0
  1  2  1  0
  2  3  2  0
  3  4  1  0
  4  5  2  0
  5  6  1  0
  6  7  1  0
  7  8  2  0
  7  9  1  0
  9 10  1  0
 10 11  2  0
 11 12  1  0
 12 13  2  0
 13 14  1  0
 14 15  2  0
 15 16  1  0
 16 17  2  0
 17 18  1  0
 18 19  2  0
 19 20  1  0
 20 21  2  0
 21 22  1  0
 13 23  1  0
 23 24  2  0
  6 25  2  0
 25  2  1  0
 24 10  1  0
 22 14  1  0
 21 16  1  0
  1 26  1  0
  1 27  1  0
  1 28  1  0
  3 29  1  0
  4 30  1  0
  5 31  1  0
 11 32  1  0
 12 33  1  0
 17 34  1  0
 18 35  1  0
 19 36  1  0
 20 37  1  0
 23 38  1  0
 24 39  1  0
 25 40  1  0
M  CHG  1   9  -1
M  END
>  <UniqueID>  (18) 
16

>  <SMILES>  (18) 
Cc1cccc(C(=O)[N-]c2ccc(-c3nc4ccccc4s3)cc2)c1

>  <Energy>  (18) 
83.9669574761245

>  <Genealogy>  (18) 
Cc1cccc(C(=O)[N-]c2ccc(-c3nc4ccccc4s3)cc2)c1 (protonated)
Cc1cccc(C(=O)[N-]c2ccc(-c3nc4ccccc4s3)cc2)c1 (3D coordinates assigned)
Cc1cccc(C(=O)[N-]c2ccc(-c3nc4ccccc4s3)cc2)c1 (optimized conformer: 83.9669574761245 kcal/mol)

>  <smiles>  (18) 
Cc1cccc(C(=O)Nc2ccc(-c3nc4ccccc4s3)cc2)c1

>  <score_type>  (18) 
oracle

>  <origin>  (18) 
adg

>  <m_score__min__energy>  (18) 
-10.869999999999999

>  <m_primary>  (18) 
energy

$$$$
18:0
     RDKit          3D

 66 70  0  0  0  0  0  0  0  0999 V2000
    3.6490   19.2430  -33.3730 C   0  0  0  0  0  0  0  0  0  0  0  0
    2.3360   19.7400  -33.6040 O   0  0  0  0  0  0  0  0  0  0  0  0
    2.0330   20.8010  -34.4790 C   0  0  0  0  0  0  0  0  0  0  0  0
    3.0180   21.4370  -35.2700 C   0  0  0  0  0  0  0  0  0  0  0  0
    2.6670   22.5000  -36.1080 C   0  0  0  0  0  0  0  0  0  0  0  0
    1.3370   22.9240  -36.1820 C   0  0  0  0  0  0  0  0  0  0  0  0
    0.3590   22.3000  -35.4070 C   0  0  0  0  0  0  0  0  0  0  0  0
    0.6990   21.2460  -34.5520 C   0  0  0  0  0  0  0  0  0  0  0  0
   -0.3160   20.6550  -33.7270 N   0  0  0  0  0  0  0  0  0  0  0  0
   -0.8530   21.4170  -32.5950 C   0  0  0  0  0  0  0  0  0  0  0  0
   -2.2510   20.8930  -32.2160 C   0  0  0  0  0  0  0  0  0  0  0  0
   -3.0040   20.5550  -33.4410 N   0  0  0  0  0  0  0  0  0  0  0  0
   -4.4110   20.3050  -33.1890 C   0  0  0  0  0  0  0  0  0  0  0  0
   -4.8290   19.1130  -33.1450 O   0  0  0  0  0  0  0  0  0  0  0  0
   -5.3850   21.3810  -32.9410 C   0  0  0  0  0  0  0  0  0  0  0  0
   -5.0640   22.6680  -32.5270 C   0  0  0  0  0  0  0  0  0  0  0  0
   -6.1240   23.2610  -31.9290 N   0  0  0  0  0  0  0  0  0  0  0  0
   -6.0820   24.5180  -31.1750 C   0  0  0  0  0  0  0  0  0  0  0  0
   -5.4730   24.3200  -29.7770 C   0  0  0  0  0  0  0  0  0  0  0  0
   -4.1180   23.7280  -29.8460 N   0  0  0  0  0  0  0  0  0  0  0  0
   -4.1380   22.3170  -29.3950 C   0  0  0  0  0  0  0  0  0  0  0  0
   -2.7190   21.8110  -29.0560 C   0  0  0  0  0  0  0  0  0  0  0  0
   -1.7380   22.5810  -29.7200 O   0  0  0  0  0  0  0  0  0  0  0  0
   -1.7380   23.9120  -29.2270 C   0  0  0  0  0  0  0  0  0  0  0  0
   -3.1530   24.4890  -29.0260 C   0  0  0  0  0  0  0  0  0  0  0  0
   -7.1200   22.3440  -31.9420 C   0  0  0  0  0  0  0  0  0  0  0  0
   -8.3540   22.4000  -31.2830 C   0  0  0  0  0  0  0  0  0  0  0  0
   -9.1700   21.2510  -31.2980 C   0  0  0  0  0  0  0  0  0  0  0  0
   -8.7370   20.0780  -31.9540 C   0  0  0  0  0  0  0  0  0  0  0  0
   -7.4860   20.0400  -32.5910 C   0  0  0  0  0  0  0  0  0  0  0  0
   -6.6980   21.1880  -32.5590 C   0  0  0  0  0  0  0  0  0  0  0  0
   -2.4010   19.4120  -34.1860 C   0  0  0  0  0  0  0  0  0  0  0  0
   -0.8640   19.3360  -34.0440 C   0  0  0  0  0  0  0  0  0  0  0  0
    3.8299   19.1745  -32.2901 H   0  0  0  0  0  0  0  0  0  0  0  0
    3.7482   18.2451  -33.8251 H   0  0  0  0  0  0  0  0  0  0  0  0
    4.3841   19.9251  -33.8251 H   0  0  0  0  0  0  0  0  0  0  0  0
    4.0625   21.0947  -35.2259 H   0  0  0  0  0  0  0  0  0  0  0  0
    3.4383   23.0031  -36.7096 H   0  0  0  0  0  0  0  0  0  0  0  0
    1.0610   23.7512  -36.8525 H   0  0  0  0  0  0  0  0  0  0  0  0
   -0.6857   22.6387  -35.4685 H   0  0  0  0  0  0  0  0  0  0  0  0
   -0.1788   21.3100  -31.7325 H   0  0  0  0  0  0  0  0  0  0  0  0
   -0.9322   22.4763  -32.8808 H   0  0  0  0  0  0  0  0  0  0  0  0
   -2.1475   19.9941  -31.5905 H   0  0  0  0  0  0  0  0  0  0  0  0
   -2.7929   21.6706  -31.6577 H   0  0  0  0  0  0  0  0  0  0  0  0
   -2.9690   21.4020  -34.0600 H   0  0  0  0  0  0  0  0  0  0  0  0
   -4.0809   23.1413  -32.6664 H   0  0  0  0  0  0  0  0  0  0  0  0
   -5.4727   25.2467  -31.7297 H   0  0  0  0  0  0  0  0  0  0  0  0
   -7.1134   24.8802  -31.0526 H   0  0  0  0  0  0  0  0  0  0  0  0
   -5.4096   25.2966  -29.2747 H   0  0  0  0  0  0  0  0  0  0  0  0
   -6.1199   23.6285  -29.2172 H   0  0  0  0  0  0  0  0  0  0  0  0
   -4.7696   22.2374  -28.4980 H   0  0  0  0  0  0  0  0  0  0  0  0
   -4.5386   21.6992  -30.2122 H   0  0  0  0  0  0  0  0  0  0  0  0
   -2.5603   21.8842  -27.9700 H   0  0  0  0  0  0  0  0  0  0  0  0
   -2.6297   20.7659  -29.3874 H   0  0  0  0  0  0  0  0  0  0  0  0
   -1.2149   23.9257  -28.2594 H   0  0  0  0  0  0  0  0  0  0  0  0
   -1.2355   24.5376  -29.9794 H   0  0  0  0  0  0  0  0  0  0  0  0
   -3.4328   24.4118  -27.9650 H   0  0  0  0  0  0  0  0  0  0  0  0
   -3.1646   25.5452  -29.3332 H   0  0  0  0  0  0  0  0  0  0  0  0
   -8.6779   23.3161  -30.7674 H   0  0  0  0  0  0  0  0  0  0  0  0
  -10.1488   21.2681  -30.7963 H   0  0  0  0  0  0  0  0  0  0  0  0
   -9.3837   19.1883  -31.9662 H   0  0  0  0  0  0  0  0  0  0  0  0
   -7.1383   19.1294  -33.1008 H   0  0  0  0  0  0  0  0  0  0  0  0
   -2.8343   18.4767  -33.8019 H   0  0  0  0  0  0  0  0  0  0  0  0
   -2.6237   19.5630  -35.2526 H   0  0  0  0  0  0  0  0  0  0  0  0
   -0.6087   18.6337  -33.2367 H   0  0  0  0  0  0  0  0  0  0  0  0
   -0.4341   18.9899  -34.9955 H   0  0  0  0  0  0  0  0  0  0  0  0
  1  2  1  0
  2  3  1  0
  3  4  2  0
  4  5  1  0
  5  6  2  0
  6  7  1  0
  7  8  2  0
  8  9  1  0
  9 10  1  0
 10 11  1  0
 11 12  1  0
 12 13  1  0
 13 14  2  0
 13 15  1  0
 15 16  2  0
 16 17  1  0
 17 18  1  0
 18 19  1  0
 19 20  1  0
 20 21  1  0
 21 22  1  0
 22 23  1  0
 23 24  1  0
 24 25  1  0
 17 26  1  0
 26 27  2  0
 27 28  1  0
 28 29  2  0
 29 30  1  0
 30 31  2  0
 12 32  1  0
 32 33  1  0
  8  3  1  0
 33  9  1  0
 31 15  1  0
 25 20  1  0
 31 26  1  0
  1 34  1  0
  1 35  1  0
  1 36  1  0
  4 37  1  0
  5 38  1  0
  6 39  1  0
  7 40  1  0
 10 41  1  0
 10 42  1  0
 11 43  1  0
 11 44  1  0
 12 45  1  0
 16 46  1  0
 18 47  1  0
 18 48  1  0
 19 49  1  0
 19 50  1  0
 21 51  1  0
 21 52  1  0
 22 53  1  0
 22 54  1  0
 24 55  1  0
 24 56  1  0
 25 57  1  0
 25 58  1  0
 27 59  1  0
 28 60  1  0
 29 61  1  0
 30 62  1  0
 32 63  1  0
 32 64  1  0
 33 65  1  0
 33 66  1  0
M  CHG  1  12   1
M  END
>  <UniqueID>  (19) 
17

>  <SMILES>  (19) 
COc1ccccc1N1CC[NH+](C(=O)c2cn(CCN3CCOCC3)c3ccccc23)CC1

>  <Energy>  (19) 
137.08225952083626

>  <Genealogy>  (19) 
COc1ccccc1N1CC[NH+](C(=O)c2cn(CCN3CCOCC3)c3ccccc23)CC1 (protonated)
COc1ccccc1N1CC[NH+](C(=O)c2cn(CCN3CCOCC3)c3ccccc23)CC1 (3D coordinates assigned)
COc1ccccc1N1CC[NH+](C(=O)c2cn(CCN3CCOCC3)c3ccccc23)CC1 (nonaromatic ring conformer: 137.08225952083626 kcal/mol)

>  <smiles>  (19) 
COc1ccccc1N1CCN(C(=O)c2cn(CCN3CCOCC3)c3ccccc23)CC1

>  <score_type>  (19) 
oracle

>  <origin>  (19) 
adg

>  <m_score__min__energy>  (19) 
-9.0099999999999998

>  <m_primary>  (19) 
energy

$$$$
19:0
     RDKit          3D

 49 52  0  0  0  0  0  0  0  0999 V2000
   -3.6970   17.5720  -34.0760 O   0  0  0  0  0  0  0  0  0  0  0  0
   -3.5890   18.8020  -33.8120 C   0  0  0  0  0  0  0  0  0  0  0  0
   -4.8160   19.5920  -33.4110 C   0  0  0  0  0  0  0  0  0  0  0  0
   -6.1340   19.1960  -34.0700 C   0  0  0  0  0  0  0  0  0  0  0  0
   -6.7320   18.7740  -32.7980 N   0  0  0  0  0  0  0  0  0  0  0  0
   -8.0080   19.8670  -32.2960 S   0  0  0  0  0  0  0  0  0  0  0  0
   -8.9640   20.0530  -33.4400 O   0  0  0  0  0  0  0  0  0  0  0  0
   -8.7630   19.2370  -31.1590 O   0  0  0  0  0  0  0  0  0  0  0  0
   -7.4170   21.4550  -31.7800 C   0  0  0  0  0  0  0  0  0  0  0  0
   -6.6300   22.2340  -32.6440 C   0  0  0  0  0  0  0  0  0  0  0  0
   -6.1650   23.4870  -32.2360 C   0  0  0  0  0  0  0  0  0  0  0  0
   -6.4720   23.9670  -30.9600 C   0  0  0  0  0  0  0  0  0  0  0  0
   -7.2380   23.1900  -30.0870 C   0  0  0  0  0  0  0  0  0  0  0  0
   -7.7040   21.9350  -30.4930 C   0  0  0  0  0  0  0  0  0  0  0  0
   -5.4630   19.0900  -32.1290 C   0  0  0  0  0  0  0  0  0  0  0  0
   -2.2870   19.4280  -33.8510 N   0  0  0  0  0  0  0  0  0  0  0  0
   -2.0770   20.7300  -33.1920 C   0  0  0  0  0  0  0  0  0  0  0  0
   -0.5950   21.1050  -33.1440 C   0  0  0  0  0  0  0  0  0  0  0  0
   -0.0020   20.9150  -34.4740 N   0  0  0  0  0  0  0  0  0  0  0  0
    0.8430   21.9170  -35.0710 C   0  0  0  0  0  0  0  0  0  0  0  0
    2.2370   21.7490  -35.1400 C   0  0  0  0  0  0  0  0  0  0  0  0
    3.0230   22.7530  -35.7090 C   0  0  0  0  0  0  0  0  0  0  0  0
    2.4220   23.9150  -36.1940 C   0  0  0  0  0  0  0  0  0  0  0  0
    1.0390   24.0610  -36.0950 C   0  0  0  0  0  0  0  0  0  0  0  0
    0.2880   23.0720  -35.5380 N   0  0  0  0  0  0  0  0  0  0  0  0
   -0.2140   19.6460  -35.1860 C   0  0  0  0  0  0  0  0  0  0  0  0
   -1.1360   18.6970  -34.4070 C   0  0  0  0  0  0  0  0  0  0  0  0
   -4.3843   20.5951  -33.5427 H   0  0  0  0  0  0  0  0  0  0  0  0
   -6.6585   20.0406  -34.5408 H   0  0  0  0  0  0  0  0  0  0  0  0
   -6.1143   18.4839  -34.9081 H   0  0  0  0  0  0  0  0  0  0  0  0
   -6.3786   21.8562  -33.6460 H   0  0  0  0  0  0  0  0  0  0  0  0
   -5.5564   24.0964  -32.9203 H   0  0  0  0  0  0  0  0  0  0  0  0
   -6.1107   24.9564  -30.6428 H   0  0  0  0  0  0  0  0  0  0  0  0
   -7.4746   23.5652  -29.0804 H   0  0  0  0  0  0  0  0  0  0  0  0
   -8.2983   21.3214  -29.8000 H   0  0  0  0  0  0  0  0  0  0  0  0
   -5.5587   19.8660  -31.3553 H   0  0  0  0  0  0  0  0  0  0  0  0
   -4.9565   18.2995  -31.5558 H   0  0  0  0  0  0  0  0  0  0  0  0
   -2.6232   21.5047  -33.7502 H   0  0  0  0  0  0  0  0  0  0  0  0
   -2.4464   20.6558  -32.1586 H   0  0  0  0  0  0  0  0  0  0  0  0
   -0.4922   22.1580  -32.8430 H   0  0  0  0  0  0  0  0  0  0  0  0
   -0.0767   20.4647  -32.4150 H   0  0  0  0  0  0  0  0  0  0  0  0
    2.7050   20.8336  -34.7487 H   0  0  0  0  0  0  0  0  0  0  0  0
    4.1139   22.6281  -35.7748 H   0  0  0  0  0  0  0  0  0  0  0  0
    3.0331   24.7079  -36.6499 H   0  0  0  0  0  0  0  0  0  0  0  0
    0.5547   24.9758  -36.4672 H   0  0  0  0  0  0  0  0  0  0  0  0
   -0.6689   19.8594  -36.1645 H   0  0  0  0  0  0  0  0  0  0  0  0
    0.7627   19.1531  -35.3005 H   0  0  0  0  0  0  0  0  0  0  0  0
   -1.5008   17.9111  -35.0848 H   0  0  0  0  0  0  0  0  0  0  0  0
   -0.5660   18.2523  -33.5779 H   0  0  0  0  0  0  0  0  0  0  0  0
  1  2  2  0
  2  3  1  0
  3  4  1  0
  4  5  1  0
  5  6  1  0
  6  7  2  0
  6  8  2  0
  6  9  1  0
  9 10  2  0
 10 11  1  0
 11 12  2  0
 12 13  1  0
 13 14  2  0
  5 15  1  0
  2 16  1  0
 16 17  1  0
 17 18  1  0
 18 19  1  0
 19 20  1  0
 20 21  2  0
 21 22  1  0
 22 23  2  0
 23 24  1  0
 24 25  2  0
 19 26  1  0
 26 27  1  0
 15  3  1  0
 27 16  1  0
 14  9  1  0
 25 20  1  0
  3 28  1  0
  4 29  1  0
  4 30  1  0
 10 31  1  0
 11 32  1  0
 12 33  1  0
 13 34  1  0
 14 35  1  0
 15 36  1  0
 15 37  1  0
 17 38  1  0
 17 39  1  0
 18 40  1  0
 18 41  1  0
 21 42  1  0
 22 43  1  0
 23 44  1  0
 24 45  1  0
 26 46  1  0
 26 47  1  0
 27 48  1  0
 27 49  1  0
M  END
>  <UniqueID>  (20) 
18

>  <SMILES>  (20) 
O=C(C1CN(S(=O)(=O)c2ccccc2)C1)N1CCN(c2ccccn2)CC1

>  <Energy>  (20) 
126.26717715968334

>  <Genealogy>  (20) 
O=C(C1CN(S(=O)(=O)c2ccccc2)C1)N1CCN(c2ccccn2)CC1 (3D coordinates assigned)
O=C(C1CN(S(=O)(=O)c2ccccc2)C1)N1CCN(c2ccccn2)CC1 (nonaromatic ring conformer: 126.26717715968334 kcal/mol)

>  <smiles>  (20) 
O=C(C1CN(S(=O)(=O)c2ccccc2)C1)N1CCN(c2ccccn2)CC1

>  <score_type>  (20) 
oracle

>  <origin>  (20) 
adg

>  <m_score__min__energy>  (20) 
-8.9900000000000002

>  <m_primary>  (20) 
energy

$$$$
20:0
     RDKit          3D

 46 48  0  0  0  0  0  0  0  0999 V2000
   -1.7010   21.4930  -31.5680 C   0  0  0  0  0  0  0  0  0  0  0  0
   -2.0170   21.5340  -32.9420 O   0  0  0  0  0  0  0  0  0  0  0  0
   -0.9290   21.0540  -33.7140 C   0  0  0  0  0  0  0  0  0  0  0  0
   -1.2220   19.6480  -34.2460 C   0  0  0  0  0  0  0  0  0  0  0  0
   -2.5500   19.1980  -33.8320 N   0  0  0  0  0  0  0  0  0  0  0  0
   -3.0900   17.9240  -34.2230 C   0  0  0  0  0  0  0  0  0  0  0  0
   -2.3710   17.1160  -34.8710 O   0  0  0  0  0  0  0  0  0  0  0  0
   -4.4750   17.5350  -33.8650 C   0  0  0  0  0  0  0  0  0  0  0  0
   -4.9560   16.2600  -34.2120 C   0  0  0  0  0  0  0  0  0  0  0  0
   -6.2630   15.8830  -33.8930 C   0  0  0  0  0  0  0  0  0  0  0  0
   -7.1070   16.7730  -33.2260 C   0  0  0  0  0  0  0  0  0  0  0  0
   -6.6460   18.0480  -32.8670 C   0  0  0  0  0  0  0  0  0  0  0  0
   -7.5700   19.0250  -32.1990 C   0  0  0  0  0  0  0  0  0  0  0  0
   -7.4610   20.2880  -32.8490 O   0  0  0  0  0  0  0  0  0  0  0  0
   -6.8170   21.4080  -32.3030 C   0  0  0  0  0  0  0  0  0  0  0  0
   -7.4480   22.2560  -31.3610 C   0  0  0  0  0  0  0  0  0  0  0  0
   -6.7430   23.3530  -30.8620 C   0  0  0  0  0  0  0  0  0  0  0  0
   -5.4610   23.6100  -31.2730 C   0  0  0  0  0  0  0  0  0  0  0  0
   -4.8090   22.7990  -32.1980 C   0  0  0  0  0  0  0  0  0  0  0  0
   -5.4970   21.6890  -32.7150 C   0  0  0  0  0  0  0  0  0  0  0  0
   -4.8840   20.8840  -33.6170 F   0  0  0  0  0  0  0  0  0  0  0  0
   -4.9850   24.7920  -30.6010 C   0  0  0  0  0  0  0  0  0  0  0  0
   -3.8420   25.2990  -30.7570 O   0  0  0  0  0  0  0  0  0  0  0  0
   -6.0380   25.3340  -29.6920 C   0  0  0  0  0  0  0  0  0  0  0  0
   -7.2280   24.3610  -29.8670 C   0  0  0  0  0  0  0  0  0  0  0  0
   -5.3370   18.4310  -33.2040 C   0  0  0  0  0  0  0  0  0  0  0  0
   -2.6207   21.6123  -30.9765 H   0  0  0  0  0  0  0  0  0  0  0  0
   -1.2335   20.5267  -31.3280 H   0  0  0  0  0  0  0  0  0  0  0  0
   -1.0023   22.3080  -31.3280 H   0  0  0  0  0  0  0  0  0  0  0  0
   -0.7607   21.7334  -34.5626 H   0  0  0  0  0  0  0  0  0  0  0  0
   -0.0339   21.0115  -33.0760 H   0  0  0  0  0  0  0  0  0  0  0  0
   -1.1730   19.6616  -35.3448 H   0  0  0  0  0  0  0  0  0  0  0  0
   -0.4730   18.9546  -33.8357 H   0  0  0  0  0  0  0  0  0  0  0  0
   -3.1020   19.8330  -33.2140 H   0  0  0  0  0  0  0  0  0  0  0  0
   -4.2978   15.5536  -34.7390 H   0  0  0  0  0  0  0  0  0  0  0  0
   -6.6280   14.8824  -34.1681 H   0  0  0  0  0  0  0  0  0  0  0  0
   -8.1367   16.4733  -32.9813 H   0  0  0  0  0  0  0  0  0  0  0  0
   -8.6056   18.6614  -32.2716 H   0  0  0  0  0  0  0  0  0  0  0  0
   -7.2963   19.1288  -31.1387 H   0  0  0  0  0  0  0  0  0  0  0  0
   -8.4767   22.0539  -31.0278 H   0  0  0  0  0  0  0  0  0  0  0  0
   -3.7800   23.0222  -32.5162 H   0  0  0  0  0  0  0  0  0  0  0  0
   -5.6883   25.3390  -28.6491 H   0  0  0  0  0  0  0  0  0  0  0  0
   -6.3056   26.3740  -29.9302 H   0  0  0  0  0  0  0  0  0  0  0  0
   -7.4776   23.8759  -28.9118 H   0  0  0  0  0  0  0  0  0  0  0  0
   -8.1422   24.8733  -30.2014 H   0  0  0  0  0  0  0  0  0  0  0  0
   -4.9821   19.4405  -32.9491 H   0  0  0  0  0  0  0  0  0  0  0  0
  1  2  1  0
  2  3  1  0
  3  4  1  0
  4  5  1  0
  5  6  1  0
  6  7  2  0
  6  8  1  0
  8  9  2  0
  9 10  1  0
 10 11  2  0
 11 12  1  0
 12 13  1  0
 13 14  1  0
 14 15  1  0
 15 16  2  0
 16 17  1  0
 17 18  2  0
 18 19  1  0
 19 20  2  0
 20 21  1  0
 18 22  1  0
 22 23  2  0
 22 24  1  0
 24 25  1  0
 12 26  2  0
 26  8  1  0
 20 15  1  0
 25 17  1  0
  1 27  1  0
  1 28  1  0
  1 29  1  0
  3 30  1  0
  3 31  1  0
  4 32  1  0
  4 33  1  0
  5 34  1  0
  9 35  1  0
 10 36  1  0
 11 37  1  0
 13 38  1  0
 13 39  1  0
 16 40  1  0
 19 41  1  0
 24 42  1  0
 24 43  1  0
 25 44  1  0
 25 45  1  0
 26 46  1  0
M  END
>  <UniqueID>  (21) 
19

>  <SMILES>  (21) 
COCCNC(=O)c1cccc(COc2cc3c(cc2F)C(=O)CC3)c1

>  <Energy>  (21) 
60.74213178686185

>  <Genealogy>  (21) 
COCCNC(=O)c1cccc(COc2cc3c(cc2F)C(=O)CC3)c1 (3D coordinates assigned)
COCCNC(=O)c1cccc(COc2cc3c(cc2F)C(=O)CC3)c1 (nonaromatic ring conformer: 60.74213178686185 kcal/mol)

>  <smiles>  (21) 
COCCNC(=O)c1cccc(COc2cc3c(cc2F)C(=O)CC3)c1

>  <score_type>  (21) 
oracle

>  <origin>  (21) 
adg

>  <m_score__min__energy>  (21) 
-8.5399999999999991

>  <m_primary>  (21) 
energy

$$$$
21:0
     RDKit          3D

 62 65  0  0  0  0  0  0  0  0999 V2000
   -5.6490   25.3140  -29.9880 C   0  0  0  0  0  0  0  0  0  0  0  0
   -6.4600   24.2020  -30.5850 C   0  0  0  0  0  0  0  0  0  0  0  0
   -6.7500   24.2000  -31.9580 C   0  0  0  0  0  0  0  0  0  0  0  0
   -7.4730   23.1460  -32.5230 C   0  0  0  0  0  0  0  0  0  0  0  0
   -7.9030   22.0720  -31.7280 C   0  0  0  0  0  0  0  0  0  0  0  0
   -8.6870   20.9330  -32.3460 C   0  0  0  0  0  0  0  0  0  0  0  0
   -7.8070   19.9450  -33.0280 N   0  0  2  0  0  0  0  0  0  0  0  0
   -7.9390   18.6340  -32.3430 C   0  0  0  0  0  0  0  0  0  0  0  0
   -7.3170   17.4580  -33.1150 C   0  0  0  0  0  0  0  0  0  0  0  0
   -5.8250   17.1910  -32.8590 C   0  0  0  0  0  0  0  0  0  0  0  0
   -4.9360   18.3620  -33.0520 N   0  0  0  0  0  0  0  0  0  0  0  0
   -3.5040   18.0540  -32.8500 C   0  0  0  0  0  0  0  0  0  0  0  0
   -2.6640   19.2970  -32.9890 C   0  0  0  0  0  0  0  0  0  0  0  0
   -2.0210   19.5760  -34.2060 C   0  0  0  0  0  0  0  0  0  0  0  0
   -1.2220   20.7140  -34.3350 C   0  0  0  0  0  0  0  0  0  0  0  0
   -1.0620   21.5840  -33.2550 C   0  0  0  0  0  0  0  0  0  0  0  0
   -1.7150   21.3270  -32.0350 C   0  0  0  0  0  0  0  0  0  0  0  0
   -1.5590   22.1910  -30.9010 N   0  0  0  0  0  0  0  0  0  0  0  0
   -2.5080   23.1660  -30.4440 C   0  0  0  0  0  0  0  0  0  0  0  0
   -3.5190   23.4020  -31.1580 O   0  0  0  0  0  0  0  0  0  0  0  0
   -2.3060   23.9340  -29.1930 C   0  0  0  0  0  0  0  0  0  0  0  0
   -3.2990   23.9680  -28.1980 C   0  0  0  0  0  0  0  0  0  0  0  0
   -3.0990   24.6970  -27.0210 C   0  0  0  0  0  0  0  0  0  0  0  0
   -1.9010   25.3880  -26.8210 C   0  0  0  0  0  0  0  0  0  0  0  0
   -1.6280   26.3820  -25.2130 Br  0  0  0  0  0  0  0  0  0  0  0  0
   -0.8990   25.3460  -27.7960 C   0  0  0  0  0  0  0  0  0  0  0  0
   -1.0980   24.6190  -28.9740 C   0  0  0  0  0  0  0  0  0  0  0  0
   -2.4960   20.1720  -31.9040 C   0  0  0  0  0  0  0  0  0  0  0  0
   -5.3360   19.6310  -32.3880 C   0  0  0  0  0  0  0  0  0  0  0  0
   -6.4050   20.4610  -33.1380 C   0  0  0  0  0  0  0  0  0  0  0  0
   -7.6030   22.0720  -30.3560 C   0  0  0  0  0  0  0  0  0  0  0  0
   -6.8780   23.1250  -29.7910 C   0  0  0  0  0  0  0  0  0  0  0  0
   -5.6940   25.2523  -28.8907 H   0  0  0  0  0  0  0  0  0  0  0  0
   -4.6035   25.2233  -30.3178 H   0  0  0  0  0  0  0  0  0  0  0  0
   -6.0548   26.2817  -30.3178 H   0  0  0  0  0  0  0  0  0  0  0  0
   -6.4070   25.0311  -32.5918 H   0  0  0  0  0  0  0  0  0  0  0  0
   -7.7067   23.1581  -33.5978 H   0  0  0  0  0  0  0  0  0  0  0  0
   -9.2479   20.4181  -31.5521 H   0  0  0  0  0  0  0  0  0  0  0  0
   -9.3615   21.3607  -33.1024 H   0  0  0  0  0  0  0  0  0  0  0  0
   -8.1740   19.8090  -34.0000 H   0  0  0  0  0  0  0  0  0  0  0  0
   -7.4442   18.7046  -31.3631 H   0  0  0  0  0  0  0  0  0  0  0  0
   -9.0159   18.4257  -32.2603 H   0  0  0  0  0  0  0  0  0  0  0  0
   -7.8721   16.5478  -32.8442 H   0  0  0  0  0  0  0  0  0  0  0  0
   -7.3886   17.7329  -34.1777 H   0  0  0  0  0  0  0  0  0  0  0  0
   -5.7136   16.8456  -31.8206 H   0  0  0  0  0  0  0  0  0  0  0  0
   -5.5145   16.4436  -33.6040 H   0  0  0  0  0  0  0  0  0  0  0  0
   -3.3640   17.6350  -31.8426 H   0  0  0  0  0  0  0  0  0  0  0  0
   -3.1885   17.3283  -33.6141 H   0  0  0  0  0  0  0  0  0  0  0  0
   -2.1472   18.8955  -35.0609 H   0  0  0  0  0  0  0  0  0  0  0  0
   -0.7177   20.9253  -35.2895 H   0  0  0  0  0  0  0  0  0  0  0  0
   -0.4232   22.4736  -33.3579 H   0  0  0  0  0  0  0  0  0  0  0  0
   -4.2397   23.4175  -28.3462 H   0  0  0  0  0  0  0  0  0  0  0  0
   -3.8853   24.7263  -26.2523 H   0  0  0  0  0  0  0  0  0  0  0  0
    0.0463   25.8852  -27.6361 H   0  0  0  0  0  0  0  0  0  0  0  0
   -0.3039   24.5829  -29.7344 H   0  0  0  0  0  0  0  0  0  0  0  0
   -2.9820   19.9484  -30.9428 H   0  0  0  0  0  0  0  0  0  0  0  0
   -5.7345   19.3831  -31.3931 H   0  0  0  0  0  0  0  0  0  0  0  0
   -4.4316   20.2564  -32.3571 H   0  0  0  0  0  0  0  0  0  0  0  0
   -6.3864   21.4840  -32.7342 H   0  0  0  0  0  0  0  0  0  0  0  0
   -6.1420   20.4044  -34.2046 H   0  0  0  0  0  0  0  0  0  0  0  0
   -7.9405   21.2385  -29.7224 H   0  0  0  0  0  0  0  0  0  0  0  0
   -6.6343   23.1085  -28.7185 H   0  0  0  0  0  0  0  0  0  0  0  0
  1  2  1  0
  2  3  2  0
  3  4  1  0
  4  5  2  0
  5  6  1  0
  6  7  1  0
  7  8  1  0
  8  9  1  0
  9 10  1  0
 10 11  1  0
 11 12  1  0
 12 13  1  0
 13 14  2  0
 14 15  1  0
 15 16  2  0
 16 17  1  0
 17 18  1  0
 18 19  1  0
 19 20  2  0
 19 21  1  0
 21 22  2  0
 22 23  1  0
 23 24  2  0
 24 25  1  0
 24 26  1  0
 26 27  2  0
 17 28  2  0
 11 29  1  0
 29 30  1  0
  5 31  1  0
 31 32  2  0
 32  2  1  0
 30  7  1  0
 28 13  1  0
 27 21  1  0
  1 33  1  0
  1 34  1  0
  1 35  1  0
  3 36  1  0
  4 37  1  0
  6 38  1  0
  6 39  1  0
  7 40  1  6
  8 41  1  0
  8 42  1  0
  9 43  1  0
  9 44  1  0
 10 45  1  0
 10 46  1  0
 12 47  1  0
 12 48  1  0
 14 49  1  0
 15 50  1  0
 16 51  1  0
 22 52  1  0
 23 53  1  0
 26 54  1  0
 27 55  1  0
 28 56  1  0
 29 57  1  0
 29 58  1  0
 30 59  1  0
 30 60  1  0
 31 61  1  0
 32 62  1  0
M  CHG  2   7   1  18  -1
M  END
>  <UniqueID>  (22) 
20

>  <SMILES>  (22) 
Cc1ccc(C[N@@H+]2CCCN(Cc3cccc([N-]C(=O)c4ccc(Br)cc4)c3)CC2)cc1

>  <Energy>  (22) 
95.6728365447967

>  <Genealogy>  (22) 
Cc1ccc(C[NH+]2CCCN(Cc3cccc([N-]C(=O)c4ccc(Br)cc4)c3)CC2)cc1 (protonated)
Cc1ccc(C[N@@H+]2CCCN(Cc3cccc([N-]C(=O)c4ccc(Br)cc4)c3)CC2)cc1 (chirality)
Cc1ccc(C[N@@H+]2CCCN(Cc3cccc([N-]C(=O)c4ccc(Br)cc4)c3)CC2)cc1 (3D coordinates assigned)
Cc1ccc(C[N@@H+]2CCCN(Cc3cccc([N-]C(=O)c4ccc(Br)cc4)c3)CC2)cc1 (nonaromatic ring conformer: 95.6728365447967 kcal/mol)

>  <smiles>  (22) 
Cc1ccc(CN2CCCN(Cc3cccc(NC(=O)c4ccc(Br)cc4)c3)CC2)cc1

>  <score_type>  (22) 
oracle

>  <origin>  (22) 
adg

>  <m_score__min__energy>  (22) 
-9.7599999999999998

>  <m_primary>  (22) 
energy

$$$$
22:0
     RDKit          3D

 44 47  0  0  0  0  0  0  0  0999 V2000
   -3.6110   24.3770  -27.1050 C   0  0  0  0  0  0  0  0  0  0  0  0
   -2.2760   24.6370  -27.6430 N   0  0  0  0  0  0  0  0  0  0  0  0
   -1.2520   25.2780  -27.0440 C   0  0  0  0  0  0  0  0  0  0  0  0
   -1.2840   25.9420  -25.3750 S   0  0  0  0  0  0  0  0  0  0  0  0
    0.1310   24.9510  -24.7800 C   0  0  0  0  0  0  0  0  0  0  0  0
   -0.0540   23.5040  -25.1160 C   0  0  0  0  0  0  0  0  0  0  0  0
   -0.4710   22.7170  -24.2240 O   0  0  0  0  0  0  0  0  0  0  0  0
    0.1570   23.0450  -26.4620 N   0  0  0  0  0  0  0  0  0  0  0  0
   -0.1110   21.7050  -26.9060 C   0  0  0  0  0  0  0  0  0  0  0  0
    0.7940   21.0770  -27.7760 C   0  0  0  0  0  0  0  0  0  0  0  0
    0.5640   19.7710  -28.2170 C   0  0  0  0  0  0  0  0  0  0  0  0
   -0.5640   19.0730  -27.7770 C   0  0  0  0  0  0  0  0  0  0  0  0
   -0.7860   17.8060  -28.2030 F   0  0  0  0  0  0  0  0  0  0  0  0
   -1.4580   19.6800  -26.8900 C   0  0  0  0  0  0  0  0  0  0  0  0
   -1.2310   20.9880  -26.4490 C   0  0  0  0  0  0  0  0  0  0  0  0
   -0.1710   25.3370  -27.8420 N   0  0  0  0  0  0  0  0  0  0  0  0
   -0.4940   24.7290  -28.9740 N   0  0  0  0  0  0  0  0  0  0  0  0
   -1.7720   24.3220  -28.8560 C   0  0  0  0  0  0  0  0  0  0  0  0
   -2.4750   23.5610  -29.9090 C   0  0  0  0  0  0  0  0  0  0  0  0
   -2.0600   22.2580  -30.2070 C   0  0  0  0  0  0  0  0  0  0  0  0
   -2.7400   21.5210  -31.1800 C   0  0  0  0  0  0  0  0  0  0  0  0
   -2.3780   20.2010  -31.4870 C   0  0  0  0  0  0  0  0  0  0  0  0
   -3.0870   19.4920  -32.4620 C   0  0  0  0  0  0  0  0  0  0  0  0
   -4.1560   20.0980  -33.1330 C   0  0  0  0  0  0  0  0  0  0  0  0
   -4.5220   21.4130  -32.8310 C   0  0  0  0  0  0  0  0  0  0  0  0
   -3.8190   22.1300  -31.8560 C   0  0  0  0  0  0  0  0  0  0  0  0
   -4.1660   23.3810  -31.5710 O   0  0  0  0  0  0  0  0  0  0  0  0
   -3.5430   24.1090  -30.6480 C   0  0  0  0  0  0  0  0  0  0  0  0
   -3.9060   25.3000  -30.4620 O   0  0  0  0  0  0  0  0  0  0  0  0
   -3.5712   24.3847  -26.0057 H   0  0  0  0  0  0  0  0  0  0  0  0
   -4.3046   25.1569  -27.4523 H   0  0  0  0  0  0  0  0  0  0  0  0
   -3.9612   23.3938  -27.4523 H   0  0  0  0  0  0  0  0  0  0  0  0
    1.0528   25.3167  -25.2560 H   0  0  0  0  0  0  0  0  0  0  0  0
    0.1978   25.0531  -23.6868 H   0  0  0  0  0  0  0  0  0  0  0  0
    0.3600   23.7640  -27.1930 H   0  0  0  0  0  0  0  0  0  0  0  0
    1.6911   21.6169  -28.1132 H   0  0  0  0  0  0  0  0  0  0  0  0
    1.2710   19.2923  -28.9106 H   0  0  0  0  0  0  0  0  0  0  0  0
   -2.3419   19.1278  -26.5381 H   0  0  0  0  0  0  0  0  0  0  0  0
   -1.9311   21.4573  -25.7422 H   0  0  0  0  0  0  0  0  0  0  0  0
   -1.2027   21.8163  -29.6778 H   0  0  0  0  0  0  0  0  0  0  0  0
   -1.5375   19.7241  -30.9615 H   0  0  0  0  0  0  0  0  0  0  0  0
   -2.8043   18.4564  -32.7021 H   0  0  0  0  0  0  0  0  0  0  0  0
   -4.7098   19.5375  -33.9005 H   0  0  0  0  0  0  0  0  0  0  0  0
   -5.3632   21.8846  -33.3601 H   0  0  0  0  0  0  0  0  0  0  0  0
  1  2  1  0
  2  3  1  0
  3  4  1  0
  4  5  1  0
  5  6  1  0
  6  7  2  0
  6  8  1  0
  8  9  1  0
  9 10  2  0
 10 11  1  0
 11 12  2  0
 12 13  1  0
 12 14  1  0
 14 15  2  0
  3 16  2  0
 16 17  1  0
 17 18  2  0
 18 19  1  0
 19 20  2  0
 20 21  1  0
 21 22  2  0
 22 23  1  0
 23 24  2  0
 24 25  1  0
 25 26  2  0
 26 27  1  0
 27 28  1  0
 28 29  2  0
 18  2  1  0
 28 19  1  0
 15  9  1  0
 26 21  1  0
  1 30  1  0
  1 31  1  0
  1 32  1  0
  5 33  1  0
  5 34  1  0
  8 35  1  0
 10 36  1  0
 11 37  1  0
 14 38  1  0
 15 39  1  0
 20 40  1  0
 22 41  1  0
 23 42  1  0
 24 43  1  0
 25 44  1  0
M  END
>  <UniqueID>  (23) 
21

>  <SMILES>  (23) 
Cn1c(SCC(=O)Nc2ccc(F)cc2)nnc1-c1cc2ccccc2oc1=O

>  <Energy>  (23) 
88.93580984428073

>  <Genealogy>  (23) 
Cn1c(SCC(=O)Nc2ccc(F)cc2)nnc1-c1cc2ccccc2oc1=O (3D coordinates assigned)
Cn1c(SCC(=O)Nc2ccc(F)cc2)nnc1-c1cc2ccccc2oc1=O (optimized conformer: 88.93580984428073 kcal/mol)

>  <smiles>  (23) 
Cn1c(SCC(=O)Nc2ccc(F)cc2)nnc1-c1cc2ccccc2oc1=O

>  <score_type>  (23) 
oracle

>  <origin>  (23) 
adg

>  <m_score__min__energy>  (23) 
-9.7799999999999994

>  <m_primary>  (23) 
energy

$$$$
23:0
     RDKit          3D

 51 54  0  0  0  0  0  0  0  0999 V2000
   -9.4880   18.5080  -31.9650 C   0  0  0  0  0  0  0  0  0  0  0  0
   -8.4490   19.5860  -31.8600 C   0  0  0  0  0  0  0  0  0  0  0  0
   -7.1430   19.3550  -32.3160 C   0  0  0  0  0  0  0  0  0  0  0  0
   -6.1650   20.3460  -32.1840 C   0  0  0  0  0  0  0  0  0  0  0  0
   -6.4780   21.5790  -31.5870 C   0  0  0  0  0  0  0  0  0  0  0  0
   -5.4680   22.5960  -31.4380 N   0  0  0  0  0  0  0  0  0  0  0  0
   -4.0480   22.2090  -31.3870 C   0  0  0  0  0  0  0  0  0  0  0  0
   -3.1610   23.3900  -30.9770 C   0  0  0  0  0  0  0  0  0  0  0  0
   -3.7900   24.1250  -29.8710 N   0  0  0  0  0  0  0  0  0  0  0  0
   -3.0440   24.5060  -28.6990 C   0  0  0  0  0  0  0  0  0  0  0  0
   -3.6360   24.5280  -27.4300 C   0  0  0  0  0  0  0  0  0  0  0  0
   -2.8800   24.9230  -26.3310 C   0  0  0  0  0  0  0  0  0  0  0  0
   -1.5440   25.2980  -26.5100 C   0  0  0  0  0  0  0  0  0  0  0  0
   -0.7480   25.7290  -25.3900 N   0  0  0  0  0  0  0  0  0  0  0  0
   -1.2580   26.7370  -24.4510 C   0  0  0  0  0  0  0  0  0  0  0  0
   -0.1240   27.6740  -23.9700 C   0  0  0  0  0  0  0  0  0  0  0  0
    1.1710   27.2500  -24.3600 O   0  0  0  0  0  0  0  0  0  0  0  0
    1.3360   25.8740  -24.0900 C   0  0  0  0  0  0  0  0  0  0  0  0
    0.5230   25.0570  -25.0960 C   0  0  0  0  0  0  0  0  0  0  0  0
   -1.0210   25.2870  -27.7700 N   0  0  0  0  0  0  0  0  0  0  0  0
   -1.7490   24.9040  -28.8220 N   0  0  0  0  0  0  0  0  0  0  0  0
   -5.1900   24.5630  -29.9930 C   0  0  0  0  0  0  0  0  0  0  0  0
   -5.8420   24.0060  -31.2650 C   0  0  0  0  0  0  0  0  0  0  0  0
   -7.7810   21.7960  -31.1100 C   0  0  0  0  0  0  0  0  0  0  0  0
   -8.7580   20.8060  -31.2410 C   0  0  0  0  0  0  0  0  0  0  0  0
   -9.7922   18.1924  -30.9561 H   0  0  0  0  0  0  0  0  0  0  0  0
  -10.3633   18.8940  -32.5079 H   0  0  0  0  0  0  0  0  0  0  0  0
   -9.0700   17.6475  -32.5079 H   0  0  0  0  0  0  0  0  0  0  0  0
   -6.8869   18.3907  -32.7792 H   0  0  0  0  0  0  0  0  0  0  0  0
   -5.1446   20.1591  -32.5497 H   0  0  0  0  0  0  0  0  0  0  0  0
   -3.9243   21.3974  -30.6549 H   0  0  0  0  0  0  0  0  0  0  0  0
   -3.7428   21.8789  -32.3909 H   0  0  0  0  0  0  0  0  0  0  0  0
   -2.1790   23.0142  -30.6538 H   0  0  0  0  0  0  0  0  0  0  0  0
   -3.0352   24.0650  -31.8364 H   0  0  0  0  0  0  0  0  0  0  0  0
   -4.6889   24.2357  -27.3034 H   0  0  0  0  0  0  0  0  0  0  0  0
   -3.3299   24.9404  -25.3274 H   0  0  0  0  0  0  0  0  0  0  0  0
   -2.0313   27.3370  -24.9530 H   0  0  0  0  0  0  0  0  0  0  0  0
   -1.6781   26.2190  -23.5763 H   0  0  0  0  0  0  0  0  0  0  0  0
   -0.3014   28.6762  -24.3874 H   0  0  0  0  0  0  0  0  0  0  0  0
   -0.1464   27.6666  -22.8703 H   0  0  0  0  0  0  0  0  0  0  0  0
    2.3999   25.6082  -24.1761 H   0  0  0  0  0  0  0  0  0  0  0  0
    0.9853   25.6553  -23.0706 H   0  0  0  0  0  0  0  0  0  0  0  0
    1.1000   24.9491  -26.0263 H   0  0  0  0  0  0  0  0  0  0  0  0
    0.3127   24.0668  -24.6656 H   0  0  0  0  0  0  0  0  0  0  0  0
   -0.0290   25.5640  -27.9310 H   0  0  0  0  0  0  0  0  0  0  0  0
   -5.7535   24.2085  -29.1173 H   0  0  0  0  0  0  0  0  0  0  0  0
   -5.2054   25.6615  -30.0486 H   0  0  0  0  0  0  0  0  0  0  0  0
   -6.9358   24.0861  -31.1801 H   0  0  0  0  0  0  0  0  0  0  0  0
   -5.4950   24.5836  -32.1344 H   0  0  0  0  0  0  0  0  0  0  0  0
   -8.0342   22.7526  -30.6296 H   0  0  0  0  0  0  0  0  0  0  0  0
   -9.7734   20.9840  -30.8572 H   0  0  0  0  0  0  0  0  0  0  0  0
  1  2  1  0
  2  3  2  0
  3  4  1  0
  4  5  2  0
  5  6  1  0
  6  7  1  0
  7  8  1  0
  8  9  1  0
  9 10  1  0
 10 11  2  0
 11 12  1  0
 12 13  2  0
 13 14  1  0
 14 15  1  0
 15 16  1  0
 16 17  1  0
 17 18  1  0
 18 19  1  0
 13 20  1  0
 20 21  2  0
  9 22  1  0
 22 23  1  0
  5 24  1  0
 24 25  2  0
 25  2  1  0
 23  6  1  0
 21 10  1  0
 19 14  1  0
  1 26  1  0
  1 27  1  0
  1 28  1  0
  3 29  1  0
  4 30  1  0
  7 31  1  0
  7 32  1  0
  8 33  1  0
  8 34  1  0
 11 35  1  0
 12 36  1  0
 15 37  1  0
 15 38  1  0
 16 39  1  0
 16 40  1  0
 18 41  1  0
 18 42  1  0
 19 43  1  0
 19 44  1  0
 20 45  1  0
 22 46  1  0
 22 47  1  0
 23 48  1  0
 23 49  1  0
 24 50  1  0
 25 51  1  0
M  CHG  1  20   1
M  END
>  <UniqueID>  (24) 
22

>  <SMILES>  (24) 
Cc1ccc(N2CCN(c3ccc(N4CCOCC4)[nH+]n3)CC2)cc1

>  <Energy>  (24) 
71.2382174412213

>  <Genealogy>  (24) 
Cc1ccc(N2CCN(c3ccc(N4CCOCC4)[nH+]n3)CC2)cc1 (protonated)
Cc1ccc(N2CCN(c3ccc(N4CCOCC4)[nH+]n3)CC2)cc1 (3D coordinates assigned)
Cc1ccc(N2CCN(c3ccc(N4CCOCC4)[nH+]n3)CC2)cc1 (nonaromatic ring conformer: 71.2382174412213 kcal/mol)

>  <smiles>  (24) 
Cc1ccc(N2CCN(c3ccc(N4CCOCC4)nn3)CC2)cc1

>  <score_type>  (24) 
oracle

>  <origin>  (24) 
adg

>  <m_score__min__energy>  (24) 
-7.4199999999999999

>  <m_primary>  (24) 
energy

$$$$
24:0
     RDKit          3D

 53 55  0  0  0  0  0  0  0  0999 V2000
   -7.4360   23.4360  -31.8240 C   0  0  0  0  0  0  0  0  0  0  0  0
   -6.8930   23.4540  -30.3950 C   0  0  0  0  0  0  0  0  0  0  0  0
   -5.8800   24.5900  -30.2010 C   0  0  0  0  0  0  0  0  0  0  0  0
   -4.4950   24.2170  -30.7480 C   0  0  0  0  0  0  0  0  0  0  0  0
   -3.4790   25.1610  -30.2920 N   0  0  0  0  0  0  0  0  0  0  0  0
   -2.4730   24.8370  -29.3270 C   0  0  0  0  0  0  0  0  0  0  0  0
   -1.9430   25.7480  -28.6340 O   0  0  0  0  0  0  0  0  0  0  0  0
   -2.0100   23.4090  -29.1940 C   0  0  1  0  0  0  0  0  0  0  0  0
   -3.1670   22.4920  -28.7380 C   0  0  0  0  0  0  0  0  0  0  0  0
   -2.7440   21.2760  -27.8970 C   0  0  0  0  0  0  0  0  0  0  0  0
   -2.0730   20.1180  -28.6720 C   0  0  0  0  0  0  0  0  0  0  0  0
   -1.6720   20.4780  -30.0440 N   0  0  0  0  0  0  0  0  0  0  0  0
   -2.5330   20.0800  -31.1210 C   0  0  0  0  0  0  0  0  0  0  0  0
   -3.8550   20.4050  -31.0790 N   0  0  0  0  0  0  0  0  0  0  0  0
   -4.7040   20.0500  -32.0840 C   0  0  0  0  0  0  0  0  0  0  0  0
   -6.0660   20.3850  -32.0390 C   0  0  0  0  0  0  0  0  0  0  0  0
   -6.9160   20.0040  -33.0830 C   0  0  0  0  0  0  0  0  0  0  0  0
   -6.4130   19.2870  -34.1740 C   0  0  0  0  0  0  0  0  0  0  0  0
   -5.0560   18.9490  -34.2280 C   0  0  0  0  0  0  0  0  0  0  0  0
   -4.2010   19.3270  -33.1860 C   0  0  0  0  0  0  0  0  0  0  0  0
   -2.8840   18.9990  -33.2220 N   0  0  0  0  0  0  0  0  0  0  0  0
   -2.0340   19.3520  -32.2200 C   0  0  0  0  0  0  0  0  0  0  0  0
   -0.5920   18.9530  -32.3080 C   0  0  0  0  0  0  0  0  0  0  0  0
   -0.6760   21.5250  -30.3390 C   0  0  0  0  0  0  0  0  0  0  0  0
   -1.2780   22.9330  -30.4710 C   0  0  0  0  0  0  0  0  0  0  0  0
   -8.5351   23.3996  -31.7982 H   0  0  0  0  0  0  0  0  0  0  0  0
   -7.1116   24.3454  -32.3510 H   0  0  0  0  0  0  0  0  0  0  0  0
   -7.0520   22.5501  -32.3510 H   0  0  0  0  0  0  0  0  0  0  0  0
   -7.7296   23.5957  -29.6950 H   0  0  0  0  0  0  0  0  0  0  0  0
   -6.3848   22.4974  -30.2032 H   0  0  0  0  0  0  0  0  0  0  0  0
   -6.2424   25.4845  -30.7288 H   0  0  0  0  0  0  0  0  0  0  0  0
   -5.7820   24.7808  -29.1221 H   0  0  0  0  0  0  0  0  0  0  0  0
   -4.2305   23.2079  -30.3989 H   0  0  0  0  0  0  0  0  0  0  0  0
   -4.5330   24.2479  -31.8469 H   0  0  0  0  0  0  0  0  0  0  0  0
   -1.2568   23.3491  -28.3946 H   0  0  0  0  0  0  0  0  0  0  0  0
   -3.8637   23.0956  -28.1377 H   0  0  0  0  0  0  0  0  0  0  0  0
   -3.6168   22.0872  -29.6566 H   0  0  0  0  0  0  0  0  0  0  0  0
   -2.0344   21.6255  -27.1326 H   0  0  0  0  0  0  0  0  0  0  0  0
   -3.6760   20.8590  -27.4876 H   0  0  0  0  0  0  0  0  0  0  0  0
   -1.1756   19.8039  -28.1189 H   0  0  0  0  0  0  0  0  0  0  0  0
   -2.8176   19.3126  -28.7553 H   0  0  0  0  0  0  0  0  0  0  0  0
   -4.2180   20.9400  -30.2570 H   0  0  0  0  0  0  0  0  0  0  0  0
   -6.4656   20.9475  -31.1823 H   0  0  0  0  0  0  0  0  0  0  0  0
   -7.9830   20.2690  -33.0459 H   0  0  0  0  0  0  0  0  0  0  0  0
   -7.0858   18.9882  -34.9914 H   0  0  0  0  0  0  0  0  0  0  0  0
   -4.6619   18.3873  -35.0878 H   0  0  0  0  0  0  0  0  0  0  0  0
   -0.1805   18.8391  -31.2942 H   0  0  0  0  0  0  0  0  0  0  0  0
   -0.5081   17.9979  -32.8472 H   0  0  0  0  0  0  0  0  0  0  0  0
   -0.0290   19.7291  -32.8472 H   0  0  0  0  0  0  0  0  0  0  0  0
    0.0641   21.5390  -29.5254 H   0  0  0  0  0  0  0  0  0  0  0  0
   -0.2270   21.2756  -31.3117 H   0  0  0  0  0  0  0  0  0  0  0  0
   -0.4653   23.6407  -30.6916 H   0  0  0  0  0  0  0  0  0  0  0  0
   -2.0244   22.8933  -31.2781 H   0  0  0  0  0  0  0  0  0  0  0  0
  1  2  1  0
  2  3  1  0
  3  4  1  0
  4  5  1  0
  5  6  1  0
  6  7  2  0
  6  8  1  0
  8  9  1  0
  9 10  1  0
 10 11  1  0
 11 12  1  0
 12 13  1  0
 13 14  2  0
 14 15  1  0
 15 16  2  0
 16 17  1  0
 17 18  2  0
 18 19  1  0
 19 20  2  0
 20 21  1  0
 21 22  2  0
 22 23  1  0
 12 24  1  0
 24 25  1  0
 25  8  1  0
 22 13  1  0
 20 15  1  0
  1 26  1  0
  1 27  1  0
  1 28  1  0
  2 29  1  0
  2 30  1  0
  3 31  1  0
  3 32  1  0
  4 33  1  0
  4 34  1  0
  8 35  1  1
  9 36  1  0
  9 37  1  0
 10 38  1  0
 10 39  1  0
 11 40  1  0
 11 41  1  0
 14 42  1  0
 16 43  1  0
 17 44  1  0
 18 45  1  0
 19 46  1  0
 23 47  1  0
 23 48  1  0
 23 49  1  0
 24 50  1  0
 24 51  1  0
 25 52  1  0
 25 53  1  0
M  CHG  2   5  -1  14   1
M  END
>  <UniqueID>  (25) 
23

>  <SMILES>  (25) 
CCCC[N-]C(=O)[C@H]1CCCN(c2[nH+]c3ccccc3nc2C)CC1

>  <Energy>  (25) 
59.10379372484482

>  <Genealogy>  (25) 
CCCC[N-]C(=O)C1CCCN(c2[nH+]c3ccccc3nc2C)CC1 (protonated)
CCCC[N-]C(=O)[C@H]1CCCN(c2[nH+]c3ccccc3nc2C)CC1 (chirality)
CCCC[N-]C(=O)[C@H]1CCCN(c2[nH+]c3ccccc3nc2C)CC1 (3D coordinates assigned)
CCCC[N-]C(=O)[C@H]1CCCN(c2[nH+]c3ccccc3nc2C)CC1 (nonaromatic ring conformer: 59.10379372484482 kcal/mol)

>  <smiles>  (25) 
CCCCNC(=O)C1CCCN(c2nc3ccccc3nc2C)CC1

>  <score_type>  (25) 
oracle

>  <origin>  (25) 
adg

>  <m_score__min__energy>  (25) 
-7.8899999999999997

>  <m_primary>  (25) 
energy

$$$$
25:0
     RDKit          3D

 51 53  0  0  0  0  0  0  0  0999 V2000
   -9.4550   18.1670  -31.6050 C   0  0  0  0  0  0  0  0  0  0  0  0
   -8.4510   19.2570  -31.8360 C   0  0  0  0  0  0  0  0  0  0  0  0
   -7.0940   18.9450  -32.0040 C   0  0  0  0  0  0  0  0  0  0  0  0
   -6.1520   19.9630  -32.1770 C   0  0  0  0  0  0  0  0  0  0  0  0
   -6.5550   21.3080  -32.1740 C   0  0  0  0  0  0  0  0  0  0  0  0
   -5.5390   22.4150  -32.3210 C   0  0  0  0  0  0  0  0  0  0  0  0
   -4.1690   21.9470  -31.9950 N   0  0  0  0  0  0  0  0  0  0  0  0
   -3.4020   21.6950  -33.2430 C   0  0  0  0  0  0  0  0  0  0  0  0
   -1.8870   21.5610  -32.9940 C   0  0  0  0  0  0  0  0  0  0  0  0
   -1.5880   21.1510  -31.6080 N   0  0  0  0  0  0  0  0  0  0  0  0
   -2.0360   19.7730  -31.2950 C   0  0  0  0  0  0  0  0  0  0  0  0
   -2.1840   18.9460  -32.5400 C   0  0  0  0  0  0  0  0  0  0  0  0
   -1.0580   18.4210  -33.1890 C   0  0  0  0  0  0  0  0  0  0  0  0
   -1.2270   17.6800  -34.3600 C   0  0  0  0  0  0  0  0  0  0  0  0
   -2.5080   17.4740  -34.8740 C   0  0  0  0  0  0  0  0  0  0  0  0
   -3.6090   18.0170  -34.2030 C   0  0  0  0  0  0  0  0  0  0  0  0
   -5.3730   17.7620  -34.8810 Br  0  0  0  0  0  0  0  0  0  0  0  0
   -3.4240   18.7350  -33.0640 N   0  0  0  0  0  0  0  0  0  0  0  0
   -2.1090   22.1430  -30.6360 C   0  0  0  0  0  0  0  0  0  0  0  0
   -3.4050   22.8690  -31.1100 C   0  0  2  0  0  0  0  0  0  0  0  0
   -4.2190   23.3750  -29.8830 C   0  0  0  0  0  0  0  0  0  0  0  0
   -4.7730   24.8010  -30.0460 C   0  0  0  0  0  0  0  0  0  0  0  0
   -3.8790   25.6110  -30.7600 O   0  0  0  0  0  0  0  0  0  0  0  0
   -7.9100   21.6200  -31.9860 C   0  0  0  0  0  0  0  0  0  0  0  0
   -8.8510   20.6020  -31.8120 C   0  0  0  0  0  0  0  0  0  0  0  0
   -9.5922   18.0180  -30.5238 H   0  0  0  0  0  0  0  0  0  0  0  0
  -10.4152   18.4503  -32.0609 H   0  0  0  0  0  0  0  0  0  0  0  0
   -9.0940   17.2333  -32.0609 H   0  0  0  0  0  0  0  0  0  0  0  0
   -6.7694   17.8940  -31.9996 H   0  0  0  0  0  0  0  0  0  0  0  0
   -5.0907   19.7094  -32.3160 H   0  0  0  0  0  0  0  0  0  0  0  0
   -5.5545   22.7780  -33.3593 H   0  0  0  0  0  0  0  0  0  0  0  0
   -5.8034   23.2197  -31.6191 H   0  0  0  0  0  0  0  0  0  0  0  0
   -3.7675   20.7628  -33.6984 H   0  0  0  0  0  0  0  0  0  0  0  0
   -3.5542   22.5591  -33.9064 H   0  0  0  0  0  0  0  0  0  0  0  0
   -1.4793   20.8068  -33.6831 H   0  0  0  0  0  0  0  0  0  0  0  0
   -1.4267   22.5456  -33.1636 H   0  0  0  0  0  0  0  0  0  0  0  0
   -1.2949   19.2973  -30.6359 H   0  0  0  0  0  0  0  0  0  0  0  0
   -3.0174   19.8329  -30.8018 H   0  0  0  0  0  0  0  0  0  0  0  0
   -0.0513   18.5912  -32.7797 H   0  0  0  0  0  0  0  0  0  0  0  0
   -0.3519   17.2592  -34.8767 H   0  0  0  0  0  0  0  0  0  0  0  0
   -2.6504   16.8914  -35.7961 H   0  0  0  0  0  0  0  0  0  0  0  0
   -2.3290   21.6216  -29.6927 H   0  0  0  0  0  0  0  0  0  0  0  0
   -1.3340   22.9149  -30.5200 H   0  0  0  0  0  0  0  0  0  0  0  0
   -3.1631   23.7667  -31.6980 H   0  0  0  0  0  0  0  0  0  0  0  0
   -5.0655   22.6910  -29.7233 H   0  0  0  0  0  0  0  0  0  0  0  0
   -3.5266   23.3978  -29.0286 H   0  0  0  0  0  0  0  0  0  0  0  0
   -5.7286   24.7553  -30.5889 H   0  0  0  0  0  0  0  0  0  0  0  0
   -4.9169   25.2364  -29.0461 H   0  0  0  0  0  0  0  0  0  0  0  0
   -4.2340   25.6800  -31.6840 H   0  0  0  0  0  0  0  0  0  0  0  0
   -8.2331   22.6714  -31.9756 H   0  0  0  0  0  0  0  0  0  0  0  0
   -9.9098   20.8558  -31.6555 H   0  0  0  0  0  0  0  0  0  0  0  0
  1  2  1  0
  2  3  2  0
  3  4  1  0
  4  5  2  0
  5  6  1  0
  6  7  1  0
  7  8  1  0
  8  9  1  0
  9 10  1  0
 10 11  1  0
 11 12  1  0
 12 13  2  0
 13 14  1  0
 14 15  2  0
 15 16  1  0
 16 17  1  0
 16 18  2  0
 10 19  1  0
 19 20  1  0
 20 21  1  0
 21 22  1  0
 22 23  1  0
  5 24  1  0
 24 25  2  0
 25  2  1  0
 20  7  1  0
 18 12  1  0
  1 26  1  0
  1 27  1  0
  1 28  1  0
  3 29  1  0
  4 30  1  0
  6 31  1  0
  6 32  1  0
  8 33  1  0
  8 34  1  0
  9 35  1  0
  9 36  1  0
 11 37  1  0
 11 38  1  0
 13 39  1  0
 14 40  1  0
 15 41  1  0
 19 42  1  0
 19 43  1  0
 20 44  1  6
 21 45  1  0
 21 46  1  0
 22 47  1  0
 22 48  1  0
 23 49  1  0
 24 50  1  0
 25 51  1  0
M  END
>  <UniqueID>  (26) 
24

>  <SMILES>  (26) 
Cc1ccc(CN2CCN(Cc3cccc(Br)n3)C[C@@H]2CCO)cc1

>  <Energy>  (26) 
66.21039902531955

>  <Genealogy>  (26) 
Cc1ccc(CN2CCN(Cc3cccc(Br)n3)C[C@@H]2CCO)cc1 (chirality)
Cc1ccc(CN2CCN(Cc3cccc(Br)n3)C[C@@H]2CCO)cc1 (3D coordinates assigned)
Cc1ccc(CN2CCN(Cc3cccc(Br)n3)C[C@@H]2CCO)cc1 (nonaromatic ring conformer: 66.21039902531955 kcal/mol)

>  <smiles>  (26) 
Cc1ccc(CN2CCN(Cc3cccc(Br)n3)CC2CCO)cc1

>  <score_type>  (26) 
oracle

>  <origin>  (26) 
adg

>  <m_score__min__energy>  (26) 
-9.1999999999999993

>  <m_primary>  (26) 
energy

$$$$
26:0
     RDKit          3D

 49 52  0  0  0  0  0  0  0  0999 V2000
    1.8670   21.0700  -35.7540 C   0  0  0  0  0  0  0  0  0  0  0  0
    0.8880   20.0540  -35.5690 O   0  0  0  0  0  0  0  0  0  0  0  0
   -0.2130   20.1630  -34.7070 C   0  0  0  0  0  0  0  0  0  0  0  0
   -1.1620   19.1330  -34.5610 C   0  0  0  0  0  0  0  0  0  0  0  0
   -2.2470   19.2920  -33.6940 C   0  0  0  0  0  0  0  0  0  0  0  0
   -2.4150   20.4900  -32.9790 C   0  0  0  0  0  0  0  0  0  0  0  0
   -3.5290   20.6520  -32.0260 C   0  0  0  0  0  0  0  0  0  0  0  0
   -4.8010   20.4980  -32.4500 N   0  0  0  0  0  0  0  0  0  0  0  0
   -5.5350   21.1120  -31.5090 C   0  0  0  0  0  0  0  0  0  0  0  0
   -6.9220   21.3020  -31.5750 C   0  0  0  0  0  0  0  0  0  0  0  0
   -7.7430   20.6970  -32.6780 C   0  0  0  0  0  0  0  0  0  0  0  0
   -7.5040   22.1650  -30.6340 C   0  0  0  0  0  0  0  0  0  0  0  0
   -6.7010   22.8250  -29.6940 C   0  0  0  0  0  0  0  0  0  0  0  0
   -5.3210   22.5900  -29.6740 C   0  0  0  0  0  0  0  0  0  0  0  0
   -4.7900   21.6700  -30.5330 N   0  0  0  0  0  0  0  0  0  0  0  0
   -3.5050   21.2840  -30.7690 C   0  0  0  0  0  0  0  0  0  0  0  0
   -2.2620   21.5680  -29.8920 C   0  0  2  0  0  0  0  0  0  0  0  0
   -2.3900   21.4200  -28.3680 C   0  0  0  0  0  0  0  0  0  0  0  0
   -3.2270   20.4450  -27.6060 C   0  0  0  0  0  0  0  0  0  0  0  0
   -1.5810   22.1880  -27.7160 N   0  0  0  0  0  0  0  0  0  0  0  0
   -0.9700   23.0580  -28.6400 C   0  0  0  0  0  0  0  0  0  0  0  0
   -0.0410   23.9000  -28.3090 N   0  0  0  0  0  0  0  0  0  0  0  0
   -1.6120   22.9840  -29.9730 C   0  0  2  0  0  0  0  0  0  0  0  0
   -2.5910   24.1360  -30.0360 C   0  0  0  0  0  0  0  0  0  0  0  0
   -2.4180   25.2900  -29.2140 N   0  0  0  0  0  0  0  0  0  0  0  0
   -3.5360   24.1050  -30.8700 O   0  0  0  0  0  0  0  0  0  0  0  0
   -1.4470   21.4990  -33.0960 C   0  0  0  0  0  0  0  0  0  0  0  0
   -0.3640   21.3400  -33.9650 C   0  0  0  0  0  0  0  0  0  0  0  0
    2.2128   21.4289  -34.7734 H   0  0  0  0  0  0  0  0  0  0  0  0
    2.7192   20.6601  -36.3158 H   0  0  0  0  0  0  0  0  0  0  0  0
    1.4257   21.9064  -36.3158 H   0  0  0  0  0  0  0  0  0  0  0  0
   -1.0491   18.1993  -35.1316 H   0  0  0  0  0  0  0  0  0  0  0  0
   -2.9731   18.4750  -33.5708 H   0  0  0  0  0  0  0  0  0  0  0  0
   -8.5564   20.0976  -32.2432 H   0  0  0  0  0  0  0  0  0  0  0  0
   -8.1697   21.4982  -33.2993 H   0  0  0  0  0  0  0  0  0  0  0  0
   -7.1041   20.0522  -33.2993 H   0  0  0  0  0  0  0  0  0  0  0  0
   -8.5925   22.3238  -30.6341 H   0  0  0  0  0  0  0  0  0  0  0  0
   -7.1529   23.5244  -28.9752 H   0  0  0  0  0  0  0  0  0  0  0  0
   -4.6725   23.1392  -28.9755 H   0  0  0  0  0  0  0  0  0  0  0  0
   -1.6668   20.7729  -30.3647 H   0  0  0  0  0  0  0  0  0  0  0  0
   -3.0879   20.6071  -26.5269 H   0  0  0  0  0  0  0  0  0  0  0  0
   -4.2862   20.5900  -27.8650 H   0  0  0  0  0  0  0  0  0  0  0  0
   -2.9232   19.4200  -27.8650 H   0  0  0  0  0  0  0  0  0  0  0  0
   -0.2250   24.9280  -28.3360 H   0  0  0  0  0  0  0  0  0  0  0  0
    0.9010   23.5640  -28.0100 H   0  0  0  0  0  0  0  0  0  0  0  0
   -0.9881   23.0793  -30.8739 H   0  0  0  0  0  0  0  0  0  0  0  0
   -1.6100   25.9350  -29.3590 H   0  0  0  0  0  0  0  0  0  0  0  0
   -1.5409   22.4194  -32.5010 H   0  0  0  0  0  0  0  0  0  0  0  0
    0.3763   22.1472  -34.0667 H   0  0  0  0  0  0  0  0  0  0  0  0
  1  2  1  0
  2  3  1  0
  3  4  2  0
  4  5  1  0
  5  6  2  0
  6  7  1  0
  7  8  1  0
  8  9  2  0
  9 10  1  0
 10 11  1  0
 10 12  2  0
 12 13  1  0
 13 14  2  0
 14 15  1  0
 15 16  1  0
 16 17  1  0
 17 18  1  0
 18 19  1  0
 18 20  2  0
 20 21  1  0
 21 22  2  0
 21 23  1  0
 23 24  1  0
 24 25  1  0
 24 26  2  0
  6 27  1  0
 27 28  2  0
 28  3  1  0
 16  7  2  0
 23 17  1  0
 15  9  1  0
  1 29  1  0
  1 30  1  0
  1 31  1  0
  4 32  1  0
  5 33  1  0
 11 34  1  0
 11 35  1  0
 11 36  1  0
 12 37  1  0
 13 38  1  0
 14 39  1  0
 17 40  1  6
 19 41  1  0
 19 42  1  0
 19 43  1  0
 22 44  1  0
 22 45  1  0
 23 46  1  6
 25 47  1  0
 27 48  1  0
 28 49  1  0
M  CHG  2  22   1  25  -1
M  END
>  <UniqueID>  (27) 
25

>  <SMILES>  (27) 
COc1ccc(-c2nc3c(C)cccn3c2[C@@H]2C(C)=NC(=[NH2+])[C@@H]2C([NH-])=O)cc1

>  <Energy>  (27) 
124.93499372091598

>  <Genealogy>  (27) 
COc1ccc(-c2nc3c(C)cccn3c2C2C(C)=NC(=[NH2+])C2C([NH-])=O)cc1 (protonated)
COc1ccc(-c2nc3c(C)cccn3c2[C@@H]2C(C)=NC(=[NH2+])[C@@H]2C([NH-])=O)cc1 (chirality)
COc1ccc(-c2nc3c(C)cccn3c2[C@@H]2C(C)=NC(=[NH2+])[C@@H]2C([NH-])=O)cc1 (3D coordinates assigned)
COc1ccc(-c2nc3c(C)cccn3c2[C@@H]2C(C)=NC(=[NH2+])[C@@H]2C([NH-])=O)cc1 (nonaromatic ring conformer: 124.93499372091598 kcal/mol)

>  <smiles>  (27) 
COc1ccc(-c2nc3c(C)cccn3c2C2C(C)=NC(=N)C2C(N)=O)cc1

>  <score_type>  (27) 
oracle

>  <origin>  (27) 
adg

>  <m_score__min__energy>  (27) 
-9.5299999999999994

>  <m_primary>  (27) 
energy

$$$$
27:0
     RDKit          3D

 30 31  0  0  0  0  0  0  0  0999 V2000
   -3.9350   22.2520  -28.5610 C   0  0  0  0  0  0  0  0  0  0  0  0
   -4.8220   23.4210  -28.6460 N   0  0  0  0  0  0  0  0  0  0  0  0
   -4.2650   24.5490  -27.8870 C   0  0  0  0  0  0  0  0  0  0  0  0
   -5.1370   23.8540  -30.3200 S   0  0  0  0  0  0  0  0  0  0  0  0
   -3.9330   24.5900  -30.8390 O   0  0  0  0  0  0  0  0  0  0  0  0
   -6.3050   24.7970  -30.4290 O   0  0  0  0  0  0  0  0  0  0  0  0
   -5.4210   22.4360  -31.3670 C   0  0  0  0  0  0  0  0  0  0  0  0
   -4.3090   21.8810  -32.0150 C   0  0  0  0  0  0  0  0  0  0  0  0
   -4.4440   20.7960  -32.8740 C   0  0  0  0  0  0  0  0  0  0  0  0
   -5.6940   20.2280  -33.1100 C   0  0  0  0  0  0  0  0  0  0  0  0
   -5.7630   18.7370  -34.3230 Br  0  0  0  0  0  0  0  0  0  0  0  0
   -6.8370   20.7460  -32.4630 C   0  0  0  0  0  0  0  0  0  0  0  0
   -8.1090   20.1780  -32.6780 C   0  0  0  0  0  0  0  0  0  0  0  0
   -9.2310   20.6810  -32.0210 C   0  0  0  0  0  0  0  0  0  0  0  0
   -9.1040   21.7490  -31.1390 C   0  0  0  0  0  0  0  0  0  0  0  0
   -7.8580   22.3300  -30.9130 C   0  0  0  0  0  0  0  0  0  0  0  0
   -6.7040   21.8550  -31.5730 C   0  0  0  0  0  0  0  0  0  0  0  0
   -3.7500   22.0082  -27.5044 H   0  0  0  0  0  0  0  0  0  0  0  0
   -4.4111   21.3936  -29.0575 H   0  0  0  0  0  0  0  0  0  0  0  0
   -2.9801   22.4794  -29.0575 H   0  0  0  0  0  0  0  0  0  0  0  0
   -5.7370   23.1610  -28.2080 H   0  0  0  0  0  0  0  0  0  0  0  0
   -4.3632   24.3501  -26.8096 H   0  0  0  0  0  0  0  0  0  0  0  0
   -3.2021   24.6730  -28.1416 H   0  0  0  0  0  0  0  0  0  0  0  0
   -4.8127   25.4684  -28.1416 H   0  0  0  0  0  0  0  0  0  0  0  0
   -3.3118   22.3114  -31.8409 H   0  0  0  0  0  0  0  0  0  0  0  0
   -3.5550   20.3820  -33.3722 H   0  0  0  0  0  0  0  0  0  0  0  0
   -8.2173   19.3302  -33.3704 H   0  0  0  0  0  0  0  0  0  0  0  0
  -10.2191   20.2322  -32.2006 H   0  0  0  0  0  0  0  0  0  0  0  0
   -9.9915   22.1367  -30.6174 H   0  0  0  0  0  0  0  0  0  0  0  0
   -7.7722   23.1715  -30.2097 H   0  0  0  0  0  0  0  0  0  0  0  0
  1  2  1  0
  2  3  1  0
  2  4  1  0
  4  5  2  0
  4  6  2  0
  4  7  1  0
  7  8  2  0
  8  9  1  0
  9 10  2  0
 10 11  1  0
 10 12  1  0
 12 13  2  0
 13 14  1  0
 14 15  2  0
 15 16  1  0
 16 17  2  0
 17  7  1  0
 17 12  1  0
  1 18  1  0
  1 19  1  0
  1 20  1  0
  2 21  1  0
  3 22  1  0
  3 23  1  0
  3 24  1  0
  8 25  1  0
  9 26  1  0
 13 27  1  0
 14 28  1  0
 15 29  1  0
 16 30  1  0
M  CHG  1   2   1
M  END
>  <UniqueID>  (28) 
26

>  <SMILES>  (28) 
C[NH+](C)S(=O)(=O)c1ccc(Br)c2ccccc12

>  <Energy>  (28) 
39.96780150774712

>  <Genealogy>  (28) 
C[NH+](C)S(=O)(=O)c1ccc(Br)c2ccccc12 (protonated)
C[NH+](C)S(=O)(=O)c1ccc(Br)c2ccccc12 (3D coordinates assigned)
C[NH+](C)S(=O)(=O)c1ccc(Br)c2ccccc12 (optimized conformer: 39.96780150774712 kcal/mol)

>  <smiles>  (28) 
CN(C)S(=O)(=O)c1ccc(Br)c2ccccc12

>  <score_type>  (28) 
oracle

>  <origin>  (28) 
adg

>  <m_score__min__energy>  (28) 
-7.7199999999999998

>  <m_primary>  (28) 
energy

$$$$
28:0
     RDKit          3D

 35 37  0  0  0  0  0  0  0  0999 V2000
   -1.1440   24.6530  -28.5830 C   0  0  0  0  0  0  0  0  0  0  0  0
   -1.6020   23.6220  -29.5100 N   0  0  0  0  0  0  0  0  0  0  0  0
   -0.8870   22.5370  -29.8700 C   0  0  0  0  0  0  0  0  0  0  0  0
   -1.6350   21.7370  -30.7100 C   0  0  0  0  0  0  0  0  0  0  0  0
   -2.8610   22.3550  -30.8580 C   0  0  0  0  0  0  0  0  0  0  0  0
   -2.8180   23.5050  -30.0930 C   0  0  0  0  0  0  0  0  0  0  0  0
   -3.9750   24.4590  -29.9160 C   0  0  0  0  0  0  0  0  0  0  0  0
   -4.6300   24.8020  -31.1910 N   0  0  0  0  0  0  0  0  0  0  0  0
   -6.0980   24.8700  -31.1100 C   0  0  0  0  0  0  0  0  0  0  0  0
   -6.7610   23.5890  -31.5360 C   0  0  0  0  0  0  0  0  0  0  0  0
   -8.1180   23.3760  -31.6650 C   0  0  0  0  0  0  0  0  0  0  0  0
   -8.2910   22.1440  -32.0850 O   0  0  0  0  0  0  0  0  0  0  0  0
   -7.1000   21.6010  -32.2090 C   0  0  0  0  0  0  0  0  0  0  0  0
   -6.8710   20.2350  -32.6930 C   0  0  0  0  0  0  0  0  0  0  0  0
   -5.8580   19.8410  -33.5560 C   0  0  0  0  0  0  0  0  0  0  0  0
   -5.8690   18.4660  -33.8250 C   0  0  0  0  0  0  0  0  0  0  0  0
   -6.8840   17.7770  -33.1730 C   0  0  0  0  0  0  0  0  0  0  0  0
   -7.7700   18.8790  -32.2610 S   0  0  0  0  0  0  0  0  0  0  0  0
   -6.1170   22.4540  -31.8620 N   0  0  0  0  0  0  0  0  0  0  0  0
   -1.2963   24.3102  -27.5489 H   0  0  0  0  0  0  0  0  0  0  0  0
   -0.0745   24.8481  -28.7509 H   0  0  0  0  0  0  0  0  0  0  0  0
   -1.7161   25.5774  -28.7509 H   0  0  0  0  0  0  0  0  0  0  0  0
    0.1407   22.3213  -29.5426 H   0  0  0  0  0  0  0  0  0  0  0  0
   -1.3164   20.7909  -31.1719 H   0  0  0  0  0  0  0  0  0  0  0  0
   -3.7066   22.0010  -31.4660 H   0  0  0  0  0  0  0  0  0  0  0  0
   -4.7182   23.9916  -29.2532 H   0  0  0  0  0  0  0  0  0  0  0  0
   -3.5754   25.3897  -29.4870 H   0  0  0  0  0  0  0  0  0  0  0  0
   -4.2360   25.6810  -31.5960 H   0  0  0  0  0  0  0  0  0  0  0  0
   -6.3838   25.0856  -30.0699 H   0  0  0  0  0  0  0  0  0  0  0  0
   -6.4330   25.6624  -31.7955 H   0  0  0  0  0  0  0  0  0  0  0  0
   -8.9124   24.1070  -31.4539 H   0  0  0  0  0  0  0  0  0  0  0  0
   -5.1219   20.5369  -33.9849 H   0  0  0  0  0  0  0  0  0  0  0  0
   -5.1418   17.9776  -34.4904 H   0  0  0  0  0  0  0  0  0  0  0  0
   -7.0757   16.6960  -33.2413 H   0  0  0  0  0  0  0  0  0  0  0  0
   -5.0870   22.2790  -31.8640 H   0  0  0  0  0  0  0  0  0  0  0  0
  1  2  1  0
  2  3  1  0
  3  4  2  0
  4  5  1  0
  5  6  2  0
  6  7  1  0
  7  8  1  0
  8  9  1  0
  9 10  1  0
 10 11  2  0
 11 12  1  0
 12 13  1  0
 13 14  1  0
 14 15  2  0
 15 16  1  0
 16 17  2  0
 17 18  1  0
 13 19  2  0
  6  2  1  0
 19 10  1  0
 18 14  1  0
  1 20  1  0
  1 21  1  0
  1 22  1  0
  3 23  1  0
  4 24  1  0
  5 25  1  0
  7 26  1  0
  7 27  1  0
  8 28  1  0
  9 29  1  0
  9 30  1  0
 11 31  1  0
 15 32  1  0
 16 33  1  0
 17 34  1  0
 19 35  1  0
M  CHG  1  19   1
M  END
>  <UniqueID>  (29) 
27

>  <SMILES>  (29) 
Cn1cccc1CNCc1coc(-c2cccs2)[nH+]1

>  <Energy>  (29) 
115.79149217848764

>  <Genealogy>  (29) 
Cn1cccc1CNCc1coc(-c2cccs2)[nH+]1 (protonated)
Cn1cccc1CNCc1coc(-c2cccs2)[nH+]1 (3D coordinates assigned)
Cn1cccc1CNCc1coc(-c2cccs2)[nH+]1 (optimized conformer: 115.79149217848764 kcal/mol)

>  <smiles>  (29) 
Cn1cccc1CNCc1coc(-c2cccs2)n1

>  <score_type>  (29) 
oracle

>  <origin>  (29) 
adg

>  <m_score__min__energy>  (29) 
-6.2599999999999998

>  <m_primary>  (29) 
energy

$$$$
29:0
     RDKit          3D

 37 39  0  0  0  0  0  0  0  0999 V2000
   -6.2030   24.6690  -29.9280 C   0  0  0  0  0  0  0  0  0  0  0  0
   -4.7150   24.8170  -30.0110 C   0  0  0  0  0  0  0  0  0  0  0  0
   -4.2310   25.6310  -30.8430 O   0  0  0  0  0  0  0  0  0  0  0  0
   -3.7990   24.0030  -29.1740 C   0  0  0  0  0  0  0  0  0  0  0  0
   -3.4100   24.5180  -27.9260 C   0  0  0  0  0  0  0  0  0  0  0  0
   -2.4930   23.8340  -27.1260 C   0  0  0  0  0  0  0  0  0  0  0  0
   -1.9540   22.6250  -27.5600 C   0  0  0  0  0  0  0  0  0  0  0  0
   -2.3440   22.0840  -28.7860 C   0  0  0  0  0  0  0  0  0  0  0  0
   -3.2770   22.7520  -29.5990 C   0  0  0  0  0  0  0  0  0  0  0  0
   -3.7330   22.0820  -30.8380 C   0  0  0  0  0  0  0  0  0  0  0  0
   -2.8590   21.9390  -31.9260 C   0  0  0  0  0  0  0  0  0  0  0  0
   -3.2900   21.3090  -33.0950 C   0  0  0  0  0  0  0  0  0  0  0  0
   -4.5920   20.8110  -33.1860 C   0  0  0  0  0  0  0  0  0  0  0  0
   -5.4790   20.9320  -32.1020 C   0  0  0  0  0  0  0  0  0  0  0  0
   -6.8630   20.4020  -32.1970 C   0  0  0  0  0  0  0  0  0  0  0  0
   -7.9660   21.2770  -32.1960 C   0  0  0  0  0  0  0  0  0  0  0  0
   -9.2680   20.7750  -32.2830 C   0  0  0  0  0  0  0  0  0  0  0  0
   -9.4850   19.3980  -32.3720 C   0  0  0  0  0  0  0  0  0  0  0  0
   -8.4000   18.5200  -32.3740 C   0  0  0  0  0  0  0  0  0  0  0  0
   -7.0950   19.0160  -32.2860 C   0  0  0  0  0  0  0  0  0  0  0  0
   -5.0360   21.5640  -30.9270 C   0  0  0  0  0  0  0  0  0  0  0  0
   -6.5101   24.6385  -28.8722 H   0  0  0  0  0  0  0  0  0  0  0  0
   -6.6848   25.5237  -30.4254 H   0  0  0  0  0  0  0  0  0  0  0  0
   -6.5070   23.7362  -30.4254 H   0  0  0  0  0  0  0  0  0  0  0  0
   -3.8328   25.4710  -27.5753 H   0  0  0  0  0  0  0  0  0  0  0  0
   -2.1958   24.2501  -26.1521 H   0  0  0  0  0  0  0  0  0  0  0  0
   -1.2195   22.0957  -26.9352 H   0  0  0  0  0  0  0  0  0  0  0  0
   -1.9177   21.1263  -29.1194 H   0  0  0  0  0  0  0  0  0  0  0  0
   -1.8310   22.3244  -31.8579 H   0  0  0  0  0  0  0  0  0  0  0  0
   -2.6022   21.2044  -33.9471 H   0  0  0  0  0  0  0  0  0  0  0  0
   -4.9256   20.3207  -34.1124 H   0  0  0  0  0  0  0  0  0  0  0  0
   -7.8024   22.3625  -32.1263 H   0  0  0  0  0  0  0  0  0  0  0  0
  -10.1237   21.4662  -32.2814 H   0  0  0  0  0  0  0  0  0  0  0  0
  -10.5104   19.0058  -32.4405 H   0  0  0  0  0  0  0  0  0  0  0  0
   -8.5715   17.4358  -32.4449 H   0  0  0  0  0  0  0  0  0  0  0  0
   -6.2443   18.3186  -32.2863 H   0  0  0  0  0  0  0  0  0  0  0  0
   -5.7170   21.6540  -30.0678 H   0  0  0  0  0  0  0  0  0  0  0  0
  1  2  1  0
  2  3  2  0
  2  4  1  0
  4  5  2  0
  5  6  1  0
  6  7  2  0
  7  8  1  0
  8  9  2  0
  9 10  1  0
 10 11  2  0
 11 12  1  0
 12 13  2  0
 13 14  1  0
 14 15  1  0
 15 16  2  0
 16 17  1  0
 17 18  2  0
 18 19  1  0
 19 20  2  0
 14 21  2  0
  9  4  1  0
 21 10  1  0
 20 15  1  0
  1 22  1  0
  1 23  1  0
  1 24  1  0
  5 25  1  0
  6 26  1  0
  7 27  1  0
  8 28  1  0
 11 29  1  0
 12 30  1  0
 13 31  1  0
 16 32  1  0
 17 33  1  0
 18 34  1  0
 19 35  1  0
 20 36  1  0
 21 37  1  0
M  END
>  <UniqueID>  (30) 
28

>  <SMILES>  (30) 
CC(=O)c1ccccc1-c1cccc(-c2ccccc2)c1

>  <Energy>  (30) 
55.4842770336976

>  <Genealogy>  (30) 
CC(=O)c1ccccc1-c1cccc(-c2ccccc2)c1 (3D coordinates assigned)
CC(=O)c1ccccc1-c1cccc(-c2ccccc2)c1 (optimized conformer: 55.4842770336976 kcal/mol)

>  <smiles>  (30) 
CC(=O)c1ccccc1-c1cccc(-c2ccccc2)c1

>  <score_type>  (30) 
oracle

>  <origin>  (30) 
adg

>  <m_score__min__energy>  (30) 
-8.8900000000000006

>  <m_primary>  (30) 
energy

$$$$
30:0
     RDKit          3D

 55 59  0  0  0  0  0  0  0  0999 V2000
   -1.9000   20.6160  -33.7610 C   0  0  0  0  0  0  0  0  0  0  0  0
   -1.7310   20.9100  -32.3780 O   0  0  0  0  0  0  0  0  0  0  0  0
   -2.6810   21.5760  -31.5900 C   0  0  0  0  0  0  0  0  0  0  0  0
   -2.6480   21.5460  -30.1740 C   0  0  0  0  0  0  0  0  0  0  0  0
   -3.6120   22.2380  -29.4290 C   0  0  0  0  0  0  0  0  0  0  0  0
   -4.6050   22.9490  -30.1050 C   0  0  0  0  0  0  0  0  0  0  0  0
   -4.6540   22.9700  -31.4750 C   0  0  0  0  0  0  0  0  0  0  0  0
   -3.6960   22.2990  -32.2400 C   0  0  0  0  0  0  0  0  0  0  0  0
   -5.7860   23.7940  -31.9870 C   0  0  1  0  0  0  0  0  0  0  0  0
   -6.7750   22.9500  -32.6860 N   0  0  0  0  0  0  0  0  0  0  0  0
   -7.8690   22.5240  -31.7950 C   0  0  0  0  0  0  0  0  0  0  0  0
   -8.5120   21.1990  -32.2670 C   0  0  0  0  0  0  0  0  0  0  0  0
   -7.5290   20.0070  -32.4570 C   0  0  1  0  0  0  0  0  0  0  0  0
   -6.8650   20.0350  -33.8670 C   0  0  0  0  0  0  0  0  0  0  0  0
   -5.8490   18.8770  -34.0020 C   0  0  2  0  0  0  0  0  0  0  0  0
   -6.5770   17.5280  -33.8080 C   0  0  0  0  0  0  0  0  0  0  0  0
   -7.2180   17.4820  -32.4010 C   0  0  1  0  0  0  0  0  0  0  0  0
   -6.1170   17.6320  -31.3300 C   0  0  0  0  0  0  0  0  0  0  0  0
   -5.3890   18.9790  -31.5260 C   0  0  1  0  0  0  0  0  0  0  0  0
   -4.7500   19.0250  -32.9290 C   0  0  0  0  0  0  0  0  0  0  0  0
   -6.4030   20.1340  -31.3860 C   0  0  0  0  0  0  0  0  0  0  0  0
   -8.2370   18.6350  -32.2630 C   0  0  0  0  0  0  0  0  0  0  0  0
   -6.3970   24.4000  -30.6990 C   0  0  0  0  0  0  0  0  0  0  0  0
   -5.6850   23.7540  -29.4930 C   0  0  0  0  0  0  0  0  0  0  0  0
   -2.4455   19.6670  -33.8701 H   0  0  0  0  0  0  0  0  0  0  0  0
   -2.4712   21.4245  -34.2406 H   0  0  0  0  0  0  0  0  0  0  0  0
   -0.9139   20.5293  -34.2406 H   0  0  0  0  0  0  0  0  0  0  0  0
   -1.8617   20.9766  -29.6569 H   0  0  0  0  0  0  0  0  0  0  0  0
   -3.5867   22.2213  -28.3294 H   0  0  0  0  0  0  0  0  0  0  0  0
   -3.7359   22.3363  -33.3386 H   0  0  0  0  0  0  0  0  0  0  0  0
   -5.4693   24.5552  -32.7152 H   0  0  0  0  0  0  0  0  0  0  0  0
   -7.1790   23.4600  -33.5080 H   0  0  0  0  0  0  0  0  0  0  0  0
   -7.4676   22.3833  -30.7806 H   0  0  0  0  0  0  0  0  0  0  0  0
   -8.6444   23.3041  -31.8090 H   0  0  0  0  0  0  0  0  0  0  0  0
   -9.2638   20.9025  -31.5208 H   0  0  0  0  0  0  0  0  0  0  0  0
   -8.9323   21.4052  -33.2624 H   0  0  0  0  0  0  0  0  0  0  0  0
   -6.3435   20.9938  -34.0040 H   0  0  0  0  0  0  0  0  0  0  0  0
   -7.6453   19.9190  -34.6336 H   0  0  0  0  0  0  0  0  0  0  0  0
   -5.3912   18.9082  -35.0017 H   0  0  0  0  0  0  0  0  0  0  0  0
   -5.8547   16.7045  -33.9083 H   0  0  0  0  0  0  0  0  0  0  0  0
   -7.3626   17.4238  -34.5709 H   0  0  0  0  0  0  0  0  0  0  0  0
   -7.7336   16.5204  -32.2619 H   0  0  0  0  0  0  0  0  0  0  0  0
   -5.3954   16.8075  -31.4279 H   0  0  0  0  0  0  0  0  0  0  0  0
   -6.5726   17.6035  -30.3292 H   0  0  0  0  0  0  0  0  0  0  0  0
   -4.6024   19.0829  -30.7641 H   0  0  0  0  0  0  0  0  0  0  0  0
   -4.0269   18.2022  -33.0293 H   0  0  0  0  0  0  0  0  0  0  0  0
   -4.2336   19.9868  -33.0645 H   0  0  0  0  0  0  0  0  0  0  0  0
   -5.8806   21.0924  -31.5222 H   0  0  0  0  0  0  0  0  0  0  0  0
   -6.8578   20.0880  -30.3855 H   0  0  0  0  0  0  0  0  0  0  0  0
   -9.0208   18.5199  -33.0261 H   0  0  0  0  0  0  0  0  0  0  0  0
   -8.6822   18.6009  -31.2577 H   0  0  0  0  0  0  0  0  0  0  0  0
   -6.2411   25.4888  -30.6868 H   0  0  0  0  0  0  0  0  0  0  0  0
   -7.4788   24.2051  -30.6573 H   0  0  0  0  0  0  0  0  0  0  0  0
   -5.2692   24.5236  -28.8260 H   0  0  0  0  0  0  0  0  0  0  0  0
   -6.3644   23.1502  -28.8735 H   0  0  0  0  0  0  0  0  0  0  0  0
  1  2  1  0
  2  3  1  0
  3  4  1  0
  4  5  2  0
  5  6  1  0
  6  7  2  0
  7  8  1  0
  7  9  1  0
  9 10  1  0
 10 11  1  0
 11 12  1  0
 13 12  1  6
 13 14  1  0
 14 15  1  0
 15 16  1  0
 16 17  1  0
 17 18  1  0
 18 19  1  0
 19 20  1  0
 19 21  1  0
 17 22  1  0
  9 23  1  0
 23 24  1  0
  8  3  2  0
 21 13  1  0
 24  6  1  0
 22 13  1  0
 20 15  1  0
  1 25  1  0
  1 26  1  0
  1 27  1  0
  4 28  1  0
  5 29  1  0
  8 30  1  0
  9 31  1  6
 10 32  1  0
 11 33  1  0
 11 34  1  0
 12 35  1  0
 12 36  1  0
 14 37  1  0
 14 38  1  0
 15 39  1  6
 16 40  1  0
 16 41  1  0
 17 42  1  1
 18 43  1  0
 18 44  1  0
 19 45  1  1
 20 46  1  0
 20 47  1  0
 21 48  1  0
 21 49  1  0
 22 50  1  0
 22 51  1  0
 23 52  1  0
 23 53  1  0
 24 54  1  0
 24 55  1  0
M  END
>  <UniqueID>  (31) 
29

>  <SMILES>  (31) 
COc1ccc2c(c1)[C@@H](NCCC13CC4CC(CC(C4)C1)C3)CC2

>  <Energy>  (31) 
63.982061953191725

>  <Genealogy>  (31) 
COc1ccc2c(c1)[C@@H](NCCC13CC4CC(CC(C4)C1)C3)CC2 (chirality)
COc1ccc2c(c1)[C@@H](NCCC13CC4CC(CC(C4)C1)C3)CC2 (3D coordinates assigned)
COc1ccc2c(c1)[C@@H](NCCC13CC4CC(CC(C4)C1)C3)CC2 (nonaromatic ring conformer: 63.982061953191725 kcal/mol)

>  <smiles>  (31) 
COc1ccc2c(c1)C(NCCC13CC4CC(CC(C4)C1)C3)CC2

>  <score_type>  (31) 
oracle

>  <origin>  (31) 
adg

>  <m_score__min__energy>  (31) 
-8.8000000000000007

>  <m_primary>  (31) 
energy

$$$$
31:0
     RDKit          3D

 36 36  0  0  0  0  0  0  0  0999 V2000
   -9.0710   21.6730  -31.5650 C   0  0  0  0  0  0  0  0  0  0  0  0
   -7.9170   22.6220  -31.8750 C   0  0  0  0  0  0  0  0  0  0  0  0
   -6.6950   21.8670  -32.3370 C   0  0  0  0  0  0  0  0  0  0  0  0
   -6.8520   20.6050  -32.9390 C   0  0  0  0  0  0  0  0  0  0  0  0
   -5.7300   19.8760  -33.3520 C   0  0  0  0  0  0  0  0  0  0  0  0
   -4.4410   20.4020  -33.1810 C   0  0  0  0  0  0  0  0  0  0  0  0
   -4.2770   21.6660  -32.6120 C   0  0  0  0  0  0  0  0  0  0  0  0
   -5.4000   22.4130  -32.2060 C   0  0  0  0  0  0  0  0  0  0  0  0
   -5.2190   23.6910  -31.6700 O   0  0  0  0  0  0  0  0  0  0  0  0
   -5.6190   24.0140  -30.3450 C   0  0  0  0  0  0  0  0  0  0  0  0
   -4.5870   24.9420  -29.6920 C   0  0  2  0  0  0  0  0  0  0  0  0
   -3.8700   25.6230  -30.6910 O   0  0  0  0  0  0  0  0  0  0  0  0
   -3.6120   24.1470  -28.8020 C   0  0  0  0  0  0  0  0  0  0  0  0
   -2.3670   23.8590  -29.5180 N   0  0  0  0  0  0  0  0  0  0  0  0
   -2.4330   23.1620  -30.6840 O   0  0  0  0  0  0  0  0  0  0  0  0
   -1.0870   24.2550  -28.9880 C   0  0  0  0  0  0  0  0  0  0  0  0
   -0.0410   23.2980  -28.8400 N   0  0  0  0  0  0  0  0  0  0  0  0
   -0.8720   25.4590  -28.6720 O   0  0  0  0  0  0  0  0  0  0  0  0
   -9.1856   21.5788  -30.4750 H   0  0  0  0  0  0  0  0  0  0  0  0
  -10.0001   22.0718  -31.9982 H   0  0  0  0  0  0  0  0  0  0  0  0
   -8.8592   20.6843  -31.9982 H   0  0  0  0  0  0  0  0  0  0  0  0
   -8.2288   23.3183  -32.6674 H   0  0  0  0  0  0  0  0  0  0  0  0
   -7.6603   23.1684  -30.9554 H   0  0  0  0  0  0  0  0  0  0  0  0
   -7.8599   20.1895  -33.0858 H   0  0  0  0  0  0  0  0  0  0  0  0
   -5.8602   18.8857  -33.8129 H   0  0  0  0  0  0  0  0  0  0  0  0
   -3.5618   19.8200  -33.4944 H   0  0  0  0  0  0  0  0  0  0  0  0
   -3.2666   22.0804  -32.4801 H   0  0  0  0  0  0  0  0  0  0  0  0
   -6.5957   24.5193  -30.3732 H   0  0  0  0  0  0  0  0  0  0  0  0
   -5.6924   23.0878  -29.7562 H   0  0  0  0  0  0  0  0  0  0  0  0
   -5.1207   25.6647  -29.0573 H   0  0  0  0  0  0  0  0  0  0  0  0
   -3.4820   24.9220  -31.2720 H   0  0  0  0  0  0  0  0  0  0  0  0
   -3.3820   24.7375  -27.9029 H   0  0  0  0  0  0  0  0  0  0  0  0
   -4.0865   23.1941  -28.5249 H   0  0  0  0  0  0  0  0  0  0  0  0
   -3.1780   23.5800  -31.1890 H   0  0  0  0  0  0  0  0  0  0  0  0
   -0.1390   22.3210  -29.1940 H   0  0  0  0  0  0  0  0  0  0  0  0
    0.8860   23.5960  -28.4620 H   0  0  0  0  0  0  0  0  0  0  0  0
  1  2  1  0
  2  3  1  0
  3  4  2  0
  4  5  1  0
  5  6  2  0
  6  7  1  0
  7  8  2  0
  8  9  1  0
  9 10  1  0
 10 11  1  0
 11 12  1  0
 11 13  1  0
 13 14  1  0
 14 15  1  0
 14 16  1  0
 16 17  1  0
 16 18  2  0
  8  3  1  0
  1 19  1  0
  1 20  1  0
  1 21  1  0
  2 22  1  0
  2 23  1  0
  4 24  1  0
  5 25  1  0
  6 26  1  0
  7 27  1  0
 10 28  1  0
 10 29  1  0
 11 30  1  1
 12 31  1  0
 13 32  1  0
 13 33  1  0
 15 34  1  0
 17 35  1  0
 17 36  1  0
M  END
>  <UniqueID>  (32) 
30

>  <SMILES>  (32) 
CCc1ccccc1OC[C@H](O)CN(O)C(N)=O

>  <Energy>  (32) 
28.771259761005656

>  <Genealogy>  (32) 
CCc1ccccc1OC[C@H](O)CN(O)C(N)=O (chirality)
CCc1ccccc1OC[C@H](O)CN(O)C(N)=O (3D coordinates assigned)
CCc1ccccc1OC[C@H](O)CN(O)C(N)=O (optimized conformer: 28.771259761005656 kcal/mol)

>  <smiles>  (32) 
CCc1ccccc1OCC(O)CN(O)C(N)=O

>  <score_type>  (32) 
oracle

>  <origin>  (32) 
adg

>  <m_score__min__energy>  (32) 
-7.0199999999999996

>  <m_primary>  (32) 
energy

$$$$
32:0
     RDKit          3D

 44 46  0  0  0  0  0  0  0  0999 V2000
   -1.2850   22.0760  -26.7980 C   0  0  0  0  0  0  0  0  0  0  0  0
   -1.7490   23.3640  -27.1840 O   0  0  0  0  0  0  0  0  0  0  0  0
   -2.7950   23.6400  -28.0840 C   0  0  0  0  0  0  0  0  0  0  0  0
   -3.8750   22.7470  -28.0850 C   0  0  0  0  0  0  0  0  0  0  0  0
   -4.9610   22.9360  -28.9370 C   0  0  0  0  0  0  0  0  0  0  0  0
   -4.9860   24.0240  -29.8080 C   0  0  0  0  0  0  0  0  0  0  0  0
   -6.3930   24.2810  -30.8900 S   0  0  0  0  0  0  0  0  0  0  0  0
   -6.1140   22.7280  -31.7500 C   0  0  0  0  0  0  0  0  0  0  0  0
   -4.8580   22.4650  -32.1950 N   0  0  0  0  0  0  0  0  0  0  0  0
   -4.5690   21.3340  -32.8930 C   0  0  0  0  0  0  0  0  0  0  0  0
   -3.1680   21.0830  -33.3820 C   0  0  0  0  0  0  0  0  0  0  0  0
   -2.9800   19.6030  -33.7280 C   0  0  0  0  0  0  0  0  0  0  0  0
   -2.1430   21.5360  -32.3360 C   0  0  0  0  0  0  0  0  0  0  0  0
   -5.5500   20.4300  -33.1500 N   0  0  0  0  0  0  0  0  0  0  0  0
   -6.8220   20.6330  -32.7220 C   0  0  0  0  0  0  0  0  0  0  0  0
   -7.8120   19.6840  -33.0020 C   0  0  0  0  0  0  0  0  0  0  0  0
   -9.1220   19.8880  -32.5650 C   0  0  0  0  0  0  0  0  0  0  0  0
   -9.4500   21.0410  -31.8460 C   0  0  0  0  0  0  0  0  0  0  0  0
   -8.4700   21.9950  -31.5580 C   0  0  0  0  0  0  0  0  0  0  0  0
   -7.1460   21.8030  -31.9990 C   0  0  0  0  0  0  0  0  0  0  0  0
   -3.9150   24.9220  -29.8300 C   0  0  0  0  0  0  0  0  0  0  0  0
   -2.8110   24.7500  -28.9690 C   0  0  0  0  0  0  0  0  0  0  0  0
   -1.7420   25.6600  -28.9770 O   0  0  0  0  0  0  0  0  0  0  0  0
   -1.0050   26.0610  -27.8270 C   0  0  0  0  0  0  0  0  0  0  0  0
   -1.2608   22.0088  -25.7003 H   0  0  0  0  0  0  0  0  0  0  0  0
   -1.9627   21.3072  -27.1976 H   0  0  0  0  0  0  0  0  0  0  0  0
   -0.2727   21.9160  -27.1976 H   0  0  0  0  0  0  0  0  0  0  0  0
   -3.8651   21.8840  -27.4030 H   0  0  0  0  0  0  0  0  0  0  0  0
   -5.8004   22.2252  -28.9223 H   0  0  0  0  0  0  0  0  0  0  0  0
   -3.0048   21.6727  -34.2961 H   0  0  0  0  0  0  0  0  0  0  0  0
   -2.9055   19.0162  -32.8006 H   0  0  0  0  0  0  0  0  0  0  0  0
   -3.8407   19.2517  -34.3160 H   0  0  0  0  0  0  0  0  0  0  0  0
   -2.0588   19.4781  -34.3160 H   0  0  0  0  0  0  0  0  0  0  0  0
   -2.5451   21.3583  -31.3277 H   0  0  0  0  0  0  0  0  0  0  0  0
   -1.2111   20.9659  -32.4649 H   0  0  0  0  0  0  0  0  0  0  0  0
   -1.9373   22.6089  -32.4649 H   0  0  0  0  0  0  0  0  0  0  0  0
   -7.5572   18.7756  -33.5676 H   0  0  0  0  0  0  0  0  0  0  0  0
   -9.8975   19.1401  -32.7868 H   0  0  0  0  0  0  0  0  0  0  0  0
  -10.4840   21.1982  -31.5053 H   0  0  0  0  0  0  0  0  0  0  0  0
   -8.7330   22.8971  -30.9861 H   0  0  0  0  0  0  0  0  0  0  0  0
   -3.9333   25.7728  -30.5270 H   0  0  0  0  0  0  0  0  0  0  0  0
   -1.5511   25.7639  -26.9195 H   0  0  0  0  0  0  0  0  0  0  0  0
   -0.0179   25.5756  -27.8364 H   0  0  0  0  0  0  0  0  0  0  0  0
   -0.8765   27.1534  -27.8364 H   0  0  0  0  0  0  0  0  0  0  0  0
  1  2  1  0
  2  3  1  0
  3  4  2  0
  4  5  1  0
  5  6  2  0
  6  7  1  0
  7  8  1  0
  8  9  2  0
  9 10  1  0
 10 11  1  0
 11 12  1  0
 11 13  1  0
 10 14  2  0
 14 15  1  0
 15 16  2  0
 16 17  1  0
 17 18  2  0
 18 19  1  0
 19 20  2  0
  6 21  1  0
 21 22  2  0
 22 23  1  0
 23 24  1  0
 22  3  1  0
 20  8  1  0
 20 15  1  0
  1 25  1  0
  1 26  1  0
  1 27  1  0
  4 28  1  0
  5 29  1  0
 11 30  1  0
 12 31  1  0
 12 32  1  0
 12 33  1  0
 13 34  1  0
 13 35  1  0
 13 36  1  0
 16 37  1  0
 17 38  1  0
 18 39  1  0
 19 40  1  0
 21 41  1  0
 24 42  1  0
 24 43  1  0
 24 44  1  0
M  END
>  <UniqueID>  (33) 
31

>  <SMILES>  (33) 
COc1ccc(Sc2nc(C(C)C)nc3ccccc23)cc1OC

>  <Energy>  (33) 
41.82083273642821

>  <Genealogy>  (33) 
COc1ccc(Sc2nc(C(C)C)nc3ccccc23)cc1OC (3D coordinates assigned)
COc1ccc(Sc2nc(C(C)C)nc3ccccc23)cc1OC (optimized conformer: 41.82083273642821 kcal/mol)

>  <smiles>  (33) 
COc1ccc(Sc2nc(C(C)C)nc3ccccc23)cc1OC

>  <score_type>  (33) 
oracle

>  <origin>  (33) 
adg

>  <m_score__min__energy>  (33) 
-8.5399999999999991

>  <m_primary>  (33) 
energy

$$$$
33:0
     RDKit          3D

 46 48  0  0  0  0  0  0  0  0999 V2000
   -1.2430   26.0250  -28.4420 C   0  0  0  0  0  0  0  0  0  0  0  0
   -2.1360   25.2980  -29.3370 N   0  0  0  0  0  0  0  0  0  0  0  0
   -3.1300   24.2080  -28.4190 S   0  0  0  0  0  0  0  0  0  0  0  0
   -2.4160   22.8960  -28.2400 O   0  0  0  0  0  0  0  0  0  0  0  0
   -3.3830   24.7990  -27.0600 O   0  0  0  0  0  0  0  0  0  0  0  0
   -4.6700   23.9520  -29.2320 C   0  0  0  0  0  0  0  0  0  0  0  0
   -5.6370   24.9880  -29.2500 C   0  0  0  0  0  0  0  0  0  0  0  0
   -6.8690   24.8120  -29.9070 C   0  0  0  0  0  0  0  0  0  0  0  0
   -7.1020   23.5950  -30.5390 C   0  0  0  0  0  0  0  0  0  0  0  0
   -8.1800   23.2290  -31.2060 O   0  0  0  0  0  0  0  0  0  0  0  0
   -7.9580   22.0010  -31.6310 C   0  0  0  0  0  0  0  0  0  0  0  0
   -8.8110   21.1970  -32.3800 C   0  0  0  0  0  0  0  0  0  0  0  0
   -8.3680   19.9060  -32.7260 C   0  0  0  0  0  0  0  0  0  0  0  0
   -7.0860   19.4410  -32.3240 C   0  0  0  0  0  0  0  0  0  0  0  0
   -6.6300   18.0830  -32.6870 C   0  0  0  0  0  0  0  0  0  0  0  0
   -7.4260   17.1050  -32.6220 O   0  0  0  0  0  0  0  0  0  0  0  0
   -5.3090   17.8850  -33.1010 O   0  0  0  0  0  0  0  0  0  0  0  0
   -4.9550   17.5850  -34.4470 C   0  0  0  0  0  0  0  0  0  0  0  0
   -4.6630   16.0810  -34.6050 C   0  0  0  0  0  0  0  0  0  0  0  0
   -5.3190   15.1990  -33.6070 N   0  0  0  0  0  0  0  0  0  0  0  0
   -6.2060   14.1940  -34.2180 C   0  0  0  0  0  0  0  0  0  0  0  0
   -4.3550   14.5620  -32.6910 C   0  0  0  0  0  0  0  0  0  0  0  0
   -6.2450   20.2860  -31.5620 C   0  0  0  0  0  0  0  0  0  0  0  0
   -6.7160   21.5540  -31.2370 C   0  0  0  0  0  0  0  0  0  0  0  0
   -6.1600   22.5880  -30.5260 C   0  0  0  0  0  0  0  0  0  0  0  0
   -4.9330   22.7290  -29.8850 C   0  0  0  0  0  0  0  0  0  0  0  0
   -1.5121   25.8060  -27.3981 H   0  0  0  0  0  0  0  0  0  0  0  0
   -0.2047   25.7122  -28.6264 H   0  0  0  0  0  0  0  0  0  0  0  0
   -1.3387   27.1052  -28.6264 H   0  0  0  0  0  0  0  0  0  0  0  0
   -5.4220   25.9410  -28.7444 H   0  0  0  0  0  0  0  0  0  0  0  0
   -7.6241   25.6118  -29.9203 H   0  0  0  0  0  0  0  0  0  0  0  0
   -9.8017   21.5588  -32.6925 H   0  0  0  0  0  0  0  0  0  0  0  0
   -9.0231   19.2479  -33.3157 H   0  0  0  0  0  0  0  0  0  0  0  0
   -5.7865   17.8641  -35.1109 H   0  0  0  0  0  0  0  0  0  0  0  0
   -4.0511   18.1529  -34.7124 H   0  0  0  0  0  0  0  0  0  0  0  0
   -5.0009   15.7725  -35.6053 H   0  0  0  0  0  0  0  0  0  0  0  0
   -3.5804   15.9634  -34.4498 H   0  0  0  0  0  0  0  0  0  0  0  0
   -5.9260   15.8190  -33.0200 H   0  0  0  0  0  0  0  0  0  0  0  0
   -6.7114   13.6214  -33.4264 H   0  0  0  0  0  0  0  0  0  0  0  0
   -6.9578   14.6994  -34.8419 H   0  0  0  0  0  0  0  0  0  0  0  0
   -5.6111   13.5108  -34.8419 H   0  0  0  0  0  0  0  0  0  0  0  0
   -4.6528   14.7588  -31.6505 H   0  0  0  0  0  0  0  0  0  0  0  0
   -4.3417   13.4767  -32.8696 H   0  0  0  0  0  0  0  0  0  0  0  0
   -3.3514   14.9753  -32.8696 H   0  0  0  0  0  0  0  0  0  0  0  0
   -5.2492   19.9506  -31.2365 H   0  0  0  0  0  0  0  0  0  0  0  0
   -4.1933   21.9149  -29.8872 H   0  0  0  0  0  0  0  0  0  0  0  0
  1  2  1  0
  2  3  1  0
  3  4  2  0
  3  5  2  0
  3  6  1  0
  6  7  2  0
  7  8  1  0
  8  9  2  0
  9 10  1  0
 10 11  1  0
 11 12  2  0
 12 13  1  0
 13 14  2  0
 14 15  1  0
 15 16  2  0
 15 17  1  0
 17 18  1  0
 18 19  1  0
 19 20  1  0
 20 21  1  0
 20 22  1  0
 14 23  1  0
 23 24  2  0
 24 25  1  0
 25 26  2  0
 26  6  1  0
 25  9  1  0
 24 11  1  0
  1 27  1  0
  1 28  1  0
  1 29  1  0
  7 30  1  0
  8 31  1  0
 12 32  1  0
 13 33  1  0
 18 34  1  0
 18 35  1  0
 19 36  1  0
 19 37  1  0
 20 38  1  0
 21 39  1  0
 21 40  1  0
 21 41  1  0
 22 42  1  0
 22 43  1  0
 22 44  1  0
 23 45  1  0
 26 46  1  0
M  CHG  2   2  -1  20   1
M  END
>  <UniqueID>  (34) 
32

>  <SMILES>  (34) 
C[N-]S(=O)(=O)c1ccc2oc3ccc(C(=O)OCC[NH+](C)C)cc3c2c1

>  <Energy>  (34) 
87.19771276841615

>  <Genealogy>  (34) 
C[N-]S(=O)(=O)c1ccc2oc3ccc(C(=O)OCC[NH+](C)C)cc3c2c1 (protonated)
C[N-]S(=O)(=O)c1ccc2oc3ccc(C(=O)OCC[NH+](C)C)cc3c2c1 (3D coordinates assigned)
C[N-]S(=O)(=O)c1ccc2oc3ccc(C(=O)OCC[NH+](C)C)cc3c2c1 (optimized conformer: 87.19771276841615 kcal/mol)

>  <smiles>  (34) 
CNS(=O)(=O)c1ccc2oc3ccc(C(=O)OCCN(C)C)cc3c2c1

>  <score_type>  (34) 
oracle

>  <origin>  (34) 
adg

>  <m_score__min__energy>  (34) 
-8.6400000000000006

>  <m_primary>  (34) 
energy

$$$$
34:0
     RDKit          3D

 44 45  0  0  0  0  0  0  0  0999 V2000
   -6.7360   24.9150  -29.9160 C   0  0  0  0  0  0  0  0  0  0  0  0
   -5.7270   24.0320  -30.5380 C   0  0  0  0  0  0  0  0  0  0  0  0
   -4.4060   24.2420  -30.2330 C   0  0  0  0  0  0  0  0  0  0  0  0
   -3.4810   23.4100  -30.8200 C   0  0  0  0  0  0  0  0  0  0  0  0
   -3.8110   22.3940  -31.6830 C   0  0  0  0  0  0  0  0  0  0  0  0
   -5.1370   22.2110  -31.9660 C   0  0  0  0  0  0  0  0  0  0  0  0
   -6.1440   23.0120  -31.4110 C   0  0  0  0  0  0  0  0  0  0  0  0
   -7.3830   22.8300  -31.6840 O   0  0  0  0  0  0  0  0  0  0  0  0
   -8.6380   22.6450  -31.9620 C   0  0  0  0  0  0  0  0  0  0  0  0
   -9.3000   21.3970  -31.3370 C   0  0  0  0  0  0  0  0  0  0  0  0
   -9.3740   20.3630  -32.4020 C   0  0  0  0  0  0  0  0  0  0  0  0
   -8.3620   19.2520  -32.2550 C   0  0  0  0  0  0  0  0  0  0  0  0
   -7.0040   19.7250  -32.3940 N   0  0  0  0  0  0  0  0  0  0  0  0
   -6.0510   18.9950  -31.5770 C   0  0  0  0  0  0  0  0  0  0  0  0
   -5.8300   17.5950  -32.0500 C   0  0  0  0  0  0  0  0  0  0  0  0
   -5.1310   17.6930  -33.4120 C   0  0  0  0  0  0  0  0  0  0  0  0
   -6.0900   18.4440  -34.3040 C   0  0  0  0  0  0  0  0  0  0  0  0
   -6.5150   19.7570  -33.7360 C   0  0  0  0  0  0  0  0  0  0  0  0
   -6.6579   24.8466  -28.8209 H   0  0  0  0  0  0  0  0  0  0  0  0
   -6.5590   25.9536  -30.2321 H   0  0  0  0  0  0  0  0  0  0  0  0
   -7.7420   24.6019  -30.2321 H   0  0  0  0  0  0  0  0  0  0  0  0
   -4.0985   25.0442  -29.5460 H   0  0  0  0  0  0  0  0  0  0  0  0
   -2.4180   23.5673  -30.5851 H   0  0  0  0  0  0  0  0  0  0  0  0
   -3.0382   21.7514  -32.1300 H   0  0  0  0  0  0  0  0  0  0  0  0
   -5.4238   21.4037  -32.6560 H   0  0  0  0  0  0  0  0  0  0  0  0
   -9.1925   23.5287  -31.6133 H   0  0  0  0  0  0  0  0  0  0  0  0
   -8.6773   22.4846  -33.0495 H   0  0  0  0  0  0  0  0  0  0  0  0
   -8.6940   21.0296  -30.4957 H   0  0  0  0  0  0  0  0  0  0  0  0
  -10.3026   21.6362  -30.9527 H   0  0  0  0  0  0  0  0  0  0  0  0
  -10.3800   19.9185  -32.3824 H   0  0  0  0  0  0  0  0  0  0  0  0
   -9.1517   20.8704  -33.3523 H   0  0  0  0  0  0  0  0  0  0  0  0
   -8.4780   18.7972  -31.2602 H   0  0  0  0  0  0  0  0  0  0  0  0
   -8.5470   18.5204  -33.0554 H   0  0  0  0  0  0  0  0  0  0  0  0
   -6.9820   20.7260  -32.0460 H   0  0  0  0  0  0  0  0  0  0  0  0
   -5.0893   19.5285  -31.5987 H   0  0  0  0  0  0  0  0  0  0  0  0
   -6.4651   18.9376  -30.5596 H   0  0  0  0  0  0  0  0  0  0  0  0
   -5.1945   17.0500  -31.3365 H   0  0  0  0  0  0  0  0  0  0  0  0
   -6.7826   17.0513  -32.1332 H   0  0  0  0  0  0  0  0  0  0  0  0
   -4.1824   18.2421  -33.3187 H   0  0  0  0  0  0  0  0  0  0  0  0
   -4.8878   16.7002  -33.8184 H   0  0  0  0  0  0  0  0  0  0  0  0
   -5.5992   18.6241  -35.2719 H   0  0  0  0  0  0  0  0  0  0  0  0
   -6.9932   17.8248  -34.4078 H   0  0  0  0  0  0  0  0  0  0  0  0
   -5.6477   20.4330  -33.7631 H   0  0  0  0  0  0  0  0  0  0  0  0
   -7.3615   20.0901  -34.3545 H   0  0  0  0  0  0  0  0  0  0  0  0
  1  2  1  0
  2  3  2  0
  3  4  1  0
  4  5  2  0
  5  6  1  0
  6  7  2  0
  7  8  1  0
  8  9  1  0
  9 10  1  0
 10 11  1  0
 11 12  1  0
 12 13  1  0
 13 14  1  0
 14 15  1  0
 15 16  1  0
 16 17  1  0
 17 18  1  0
  7  2  1  0
 18 13  1  0
  1 19  1  0
  1 20  1  0
  1 21  1  0
  3 22  1  0
  4 23  1  0
  5 24  1  0
  6 25  1  0
  9 26  1  0
  9 27  1  0
 10 28  1  0
 10 29  1  0
 11 30  1  0
 11 31  1  0
 12 32  1  0
 12 33  1  0
 13 34  1  0
 14 35  1  0
 14 36  1  0
 15 37  1  0
 15 38  1  0
 16 39  1  0
 16 40  1  0
 17 41  1  0
 17 42  1  0
 18 43  1  0
 18 44  1  0
M  CHG  1  13   1
M  END
>  <UniqueID>  (35) 
33

>  <SMILES>  (35) 
Cc1ccccc1OCCCC[NH+]1CCCCC1

>  <Energy>  (35) 
144.76787839304762

>  <Genealogy>  (35) 
Cc1ccccc1OCCCC[NH+]1CCCCC1 (protonated)
Cc1ccccc1OCCCC[NH+]1CCCCC1 (3D coordinates assigned)
Cc1ccccc1OCCCC[NH+]1CCCCC1 (nonaromatic ring conformer: 144.76787839304762 kcal/mol)

>  <smiles>  (35) 
Cc1ccccc1OCCCCN1CCCCC1

>  <score_type>  (35) 
oracle

>  <origin>  (35) 
adg

>  <m_score__min__energy>  (35) 
-5.6399999999999997

>  <m_primary>  (35) 
energy

$$$$
35:0
     RDKit          3D

 28 29  0  0  0  0  0  0  0  0999 V2000
   -8.7250   18.5290  -31.6610 C   0  0  0  0  0  0  0  0  0  0  0  0
   -8.9520   19.7880  -32.2840 O   0  0  0  0  0  0  0  0  0  0  0  0
   -8.0990   20.8960  -32.1650 C   0  0  0  0  0  0  0  0  0  0  0  0
   -6.7410   20.7230  -32.4500 C   0  0  0  0  0  0  0  0  0  0  0  0
   -5.8490   21.7960  -32.3460 C   0  0  0  0  0  0  0  0  0  0  0  0
   -6.3100   23.0650  -31.9470 C   0  0  0  0  0  0  0  0  0  0  0  0
   -5.4590   24.1760  -31.8220 O   0  0  0  0  0  0  0  0  0  0  0  0
   -5.4380   25.0780  -30.7160 C   0  0  0  0  0  0  0  0  0  0  0  0
   -4.4060   24.6620  -29.7170 C   0  0  0  0  0  0  0  0  0  0  0  0
   -4.6470   23.8230  -28.7720 N   0  0  0  0  0  0  0  0  0  0  0  0
   -3.4350   23.6380  -27.9860 C   0  0  0  0  0  0  0  0  0  0  0  0
   -2.3950   24.5480  -28.6550 C   0  0  0  0  0  0  0  0  0  0  0  0
   -3.1120   25.1420  -29.7210 O   0  0  0  0  0  0  0  0  0  0  0  0
   -7.6700   23.2380  -31.6650 C   0  0  0  0  0  0  0  0  0  0  0  0
   -8.5610   22.1650  -31.7700 C   0  0  0  0  0  0  0  0  0  0  0  0
   -8.7471   18.6514  -30.5681 H   0  0  0  0  0  0  0  0  0  0  0  0
   -9.5101   17.8218  -31.9667 H   0  0  0  0  0  0  0  0  0  0  0  0
   -7.7423   18.1405  -31.9667 H   0  0  0  0  0  0  0  0  0  0  0  0
   -6.3706   19.7343  -32.7588 H   0  0  0  0  0  0  0  0  0  0  0  0
   -4.7838   21.6475  -32.5768 H   0  0  0  0  0  0  0  0  0  0  0  0
   -5.2028   26.0895  -31.0788 H   0  0  0  0  0  0  0  0  0  0  0  0
   -6.4253   25.0676  -30.2312 H   0  0  0  0  0  0  0  0  0  0  0  0
   -3.6001   23.9400  -26.9413 H   0  0  0  0  0  0  0  0  0  0  0  0
   -3.1126   22.5867  -27.9589 H   0  0  0  0  0  0  0  0  0  0  0  0
   -2.0310   25.3119  -27.9522 H   0  0  0  0  0  0  0  0  0  0  0  0
   -1.5015   24.0018  -28.9917 H   0  0  0  0  0  0  0  0  0  0  0  0
   -8.0415   24.2268  -31.3580 H   0  0  0  0  0  0  0  0  0  0  0  0
   -9.6270   22.3137  -31.5429 H   0  0  0  0  0  0  0  0  0  0  0  0
  1  2  1  0
  2  3  1  0
  3  4  2  0
  4  5  1  0
  5  6  2  0
  6  7  1  0
  7  8  1  0
  8  9  1  0
  9 10  2  0
 10 11  1  0
 11 12  1  0
 12 13  1  0
  6 14  1  0
 14 15  2  0
 15  3  1  0
 13  9  1  0
  1 16  1  0
  1 17  1  0
  1 18  1  0
  4 19  1  0
  5 20  1  0
  8 21  1  0
  8 22  1  0
 11 23  1  0
 11 24  1  0
 12 25  1  0
 12 26  1  0
 14 27  1  0
 15 28  1  0
M  END
>  <UniqueID>  (36) 
34

>  <SMILES>  (36) 
COc1ccc(OCC2=NCCO2)cc1

>  <Energy>  (36) 
39.07689245086562

>  <Genealogy>  (36) 
COc1ccc(OCC2=NCCO2)cc1 (3D coordinates assigned)
COc1ccc(OCC2=NCCO2)cc1 (nonaromatic ring conformer: 39.07689245086562 kcal/mol)

>  <smiles>  (36) 
COc1ccc(OCC2=NCCO2)cc1

>  <score_type>  (36) 
oracle

>  <origin>  (36) 
adg

>  <m_score__min__energy>  (36) 
-5.7599999999999998

>  <m_primary>  (36) 
energy

$$$$
36:0
     RDKit          3D

 59 62  0  0  0  0  0  0  0  0999 V2000
   -0.6920   15.1680  -36.7420 C   0  0  0  0  0  0  0  0  0  0  0  0
   -0.3550   16.1870  -35.8070 O   0  0  0  0  0  0  0  0  0  0  0  0
   -1.2880   17.0230  -35.1750 C   0  0  0  0  0  0  0  0  0  0  0  0
   -2.6430   16.6410  -35.0110 C   0  0  0  0  0  0  0  0  0  0  0  0
   -3.4990   17.5290  -34.3710 C   0  0  0  0  0  0  0  0  0  0  0  0
   -4.7960   17.3550  -34.0680 N   0  0  0  0  0  0  0  0  0  0  0  0
   -5.1480   18.4930  -33.4150 C   0  0  0  0  0  0  0  0  0  0  0  0
   -6.5200   18.7370  -32.9150 C   0  0  0  0  0  0  0  0  0  0  0  0
   -7.0570   17.9590  -31.8730 C   0  0  0  0  0  0  0  0  0  0  0  0
   -8.3510   18.2040  -31.4050 C   0  0  0  0  0  0  0  0  0  0  0  0
   -9.1150   19.2340  -31.9600 C   0  0  0  0  0  0  0  0  0  0  0  0
   -8.5830   20.0240  -32.9820 C   0  0  0  0  0  0  0  0  0  0  0  0
   -7.2900   19.7810  -33.4560 C   0  0  0  0  0  0  0  0  0  0  0  0
   -4.1060   19.3670  -33.3030 N   0  0  0  0  0  0  0  0  0  0  0  0
   -4.0500   20.6000  -32.5670 C   0  0  0  0  0  0  0  0  0  0  0  0
   -2.9780   20.8580  -31.7030 C   0  0  0  0  0  0  0  0  0  0  0  0
   -2.9060   22.0710  -31.0120 C   0  0  0  0  0  0  0  0  0  0  0  0
   -3.9070   23.0470  -31.1840 C   0  0  0  0  0  0  0  0  0  0  0  0
   -3.8700   24.2950  -30.5410 O   0  0  0  0  0  0  0  0  0  0  0  0
   -4.2590   24.5460  -29.1890 C   0  0  0  0  0  0  0  0  0  0  0  0
   -3.0590   24.4130  -28.2430 C   0  0  0  0  0  0  0  0  0  0  0  0
   -1.8560   25.0490  -28.8210 N   0  0  0  0  0  0  0  0  0  0  0  0
   -0.8710   24.0360  -29.2380 C   0  0  0  0  0  0  0  0  0  0  0  0
   -1.2370   25.9710  -27.8550 C   0  0  0  0  0  0  0  0  0  0  0  0
   -4.9930   22.7690  -32.0240 C   0  0  0  0  0  0  0  0  0  0  0  0
   -5.0610   21.5590  -32.7190 C   0  0  0  0  0  0  0  0  0  0  0  0
   -3.0770   18.7400  -33.9100 C   0  0  0  0  0  0  0  0  0  0  0  0
   -1.7490   19.1490  -34.0330 C   0  0  0  0  0  0  0  0  0  0  0  0
   -0.8410   18.2780  -34.6840 C   0  0  0  0  0  0  0  0  0  0  0  0
    0.5090   18.6170  -34.8630 O   0  0  0  0  0  0  0  0  0  0  0  0
    1.0520   19.1490  -36.0680 C   0  0  0  0  0  0  0  0  0  0  0  0
   -0.9927   14.2587  -36.2009 H   0  0  0  0  0  0  0  0  0  0  0  0
   -1.5246   15.5109  -37.3738 H   0  0  0  0  0  0  0  0  0  0  0  0
    0.1809   14.9469  -37.3738 H   0  0  0  0  0  0  0  0  0  0  0  0
   -3.0063   15.6703  -35.3795 H   0  0  0  0  0  0  0  0  0  0  0  0
   -5.3950   16.5310  -34.2950 H   0  0  0  0  0  0  0  0  0  0  0  0
   -6.4558   17.1543  -31.4246 H   0  0  0  0  0  0  0  0  0  0  0  0
   -8.7690   17.5845  -30.5978 H   0  0  0  0  0  0  0  0  0  0  0  0
  -10.1345   19.4226  -31.5925 H   0  0  0  0  0  0  0  0  0  0  0  0
   -9.1823   20.8387  -33.4147 H   0  0  0  0  0  0  0  0  0  0  0  0
   -6.8734   20.4102  -34.2564 H   0  0  0  0  0  0  0  0  0  0  0  0
   -2.1896   20.1029  -31.5677 H   0  0  0  0  0  0  0  0  0  0  0  0
   -2.0640   22.2642  -30.3310 H   0  0  0  0  0  0  0  0  0  0  0  0
   -4.6659   25.5652  -29.1142 H   0  0  0  0  0  0  0  0  0  0  0  0
   -5.0205   23.8073  -28.8984 H   0  0  0  0  0  0  0  0  0  0  0  0
   -3.2992   24.9003  -27.2865 H   0  0  0  0  0  0  0  0  0  0  0  0
   -2.8507   23.3439  -28.0891 H   0  0  0  0  0  0  0  0  0  0  0  0
   -0.4212   23.5734  -28.3471 H   0  0  0  0  0  0  0  0  0  0  0  0
   -1.3721   23.2630  -29.8391 H   0  0  0  0  0  0  0  0  0  0  0  0
   -0.0842   24.5152  -29.8391 H   0  0  0  0  0  0  0  0  0  0  0  0
   -1.4622   25.6356  -26.8319 H   0  0  0  0  0  0  0  0  0  0  0  0
   -0.1474   25.9826  -28.0056 H   0  0  0  0  0  0  0  0  0  0  0  0
   -1.6388   26.9839  -28.0056 H   0  0  0  0  0  0  0  0  0  0  0  0
   -5.7987   23.5093  -32.1373 H   0  0  0  0  0  0  0  0  0  0  0  0
   -5.9109   21.3581  -33.3878 H   0  0  0  0  0  0  0  0  0  0  0  0
   -1.4166   20.1195  -33.6361 H   0  0  0  0  0  0  0  0  0  0  0  0
    1.8183   19.8998  -35.8248 H   0  0  0  0  0  0  0  0  0  0  0  0
    1.5070   18.3374  -36.6548 H   0  0  0  0  0  0  0  0  0  0  0  0
    0.2499   19.6205  -36.6548 H   0  0  0  0  0  0  0  0  0  0  0  0
  1  2  1  0
  2  3  1  0
  3  4  2  0
  4  5  1  0
  5  6  1  0
  6  7  2  0
  7  8  1  0
  8  9  2  0
  9 10  1  0
 10 11  2  0
 11 12  1  0
 12 13  2  0
  7 14  1  0
 14 15  1  0
 15 16  2  0
 16 17  1  0
 17 18  2  0
 18 19  1  0
 19 20  1  0
 20 21  1  0
 21 22  1  0
 22 23  1  0
 22 24  1  0
 18 25  1  0
 25 26  2  0
 14 27  1  0
 27 28  1  0
 28 29  2  0
 29 30  1  0
 30 31  1  0
 29  3  1  0
 27  5  2  0
 13  8  1  0
 26 15  1  0
  1 32  1  0
  1 33  1  0
  1 34  1  0
  4 35  1  0
  6 36  1  0
  9 37  1  0
 10 38  1  0
 11 39  1  0
 12 40  1  0
 13 41  1  0
 16 42  1  0
 17 43  1  0
 20 44  1  0
 20 45  1  0
 21 46  1  0
 21 47  1  0
 23 48  1  0
 23 49  1  0
 23 50  1  0
 24 51  1  0
 24 52  1  0
 24 53  1  0
 25 54  1  0
 26 55  1  0
 28 56  1  0
 31 57  1  0
 31 58  1  0
 31 59  1  0
M  CHG  1   6   1
M  END
>  <UniqueID>  (37) 
35

>  <SMILES>  (37) 
COc1cc2[nH+]c(-c3ccccc3)n(-c3ccc(OCCN(C)C)cc3)c2cc1OC

>  <Energy>  (37) 
109.75532561269753

>  <Genealogy>  (37) 
COc1cc2[nH+]c(-c3ccccc3)n(-c3ccc(OCCN(C)C)cc3)c2cc1OC (protonated)
COc1cc2[nH+]c(-c3ccccc3)n(-c3ccc(OCCN(C)C)cc3)c2cc1OC (3D coordinates assigned)
COc1cc2[nH+]c(-c3ccccc3)n(-c3ccc(OCCN(C)C)cc3)c2cc1OC (optimized conformer: 109.75532561269753 kcal/mol)

>  <smiles>  (37) 
COc1cc2nc(-c3ccccc3)n(-c3ccc(OCCN(C)C)cc3)c2cc1OC

>  <score_type>  (37) 
oracle

>  <origin>  (37) 
adg

>  <m_score__min__energy>  (37) 
-7.3300000000000001

>  <m_primary>  (37) 
energy

$$$$
37:0
     RDKit          3D

 56 59  0  0  0  0  0  0  0  0999 V2000
   -0.1340   23.0940  -24.4230 C   0  0  0  0  0  0  0  0  0  0  0  0
   -0.7150   23.8650  -25.6170 C   0  0  0  0  0  0  0  0  0  0  0  0
   -1.3330   25.1680  -25.2640 N   0  0  0  0  0  0  0  0  0  0  0  0
   -0.3770   26.1720  -24.7390 C   0  0  0  0  0  0  0  0  0  0  0  0
   -0.8520   26.7900  -23.4240 C   0  0  0  0  0  0  0  0  0  0  0  0
   -2.1290   25.7190  -26.3830 C   0  0  0  0  0  0  0  0  0  0  0  0
   -1.2530   26.0160  -27.5750 C   0  0  0  0  0  0  0  0  0  0  0  0
   -0.8400   27.1920  -27.7530 O   0  0  0  0  0  0  0  0  0  0  0  0
   -1.0130   25.0390  -28.5960 N   0  0  0  0  0  0  0  0  0  0  0  0
   -2.0180   24.2720  -29.2650 C   0  0  0  0  0  0  0  0  0  0  0  0
   -1.9320   22.8740  -29.3470 C   0  0  0  0  0  0  0  0  0  0  0  0
   -2.9340   22.1620  -30.0060 C   0  0  0  0  0  0  0  0  0  0  0  0
   -4.0120   22.8450  -30.5830 C   0  0  0  0  0  0  0  0  0  0  0  0
   -5.0890   22.1180  -31.2090 N   0  0  0  0  0  0  0  0  0  0  0  0
   -4.8240   21.0820  -32.0780 C   0  0  0  0  0  0  0  0  0  0  0  0
   -3.4470   20.7340  -32.4980 C   0  0  0  0  0  0  0  0  0  0  0  0
   -2.7370   21.5530  -33.3940 C   0  0  0  0  0  0  0  0  0  0  0  0
   -1.4370   21.2170  -33.7790 C   0  0  0  0  0  0  0  0  0  0  0  0
   -0.8420   20.0510  -33.2880 C   0  0  0  0  0  0  0  0  0  0  0  0
   -1.5490   19.2180  -32.4160 C   0  0  0  0  0  0  0  0  0  0  0  0
   -2.8500   19.5540  -32.0260 C   0  0  0  0  0  0  0  0  0  0  0  0
   -5.8470   20.3470  -32.5870 N   0  0  0  0  0  0  0  0  0  0  0  0
   -7.1390   20.6170  -32.2860 C   0  0  0  0  0  0  0  0  0  0  0  0
   -8.1640   19.8380  -32.8370 C   0  0  0  0  0  0  0  0  0  0  0  0
   -9.4980   20.1210  -32.5330 C   0  0  0  0  0  0  0  0  0  0  0  0
   -9.8120   21.1810  -31.6770 C   0  0  0  0  0  0  0  0  0  0  0  0
   -8.7940   21.9630  -31.1230 C   0  0  0  0  0  0  0  0  0  0  0  0
   -7.4470   21.6850  -31.4250 C   0  0  0  0  0  0  0  0  0  0  0  0
   -6.3860   22.4300  -30.8850 C   0  0  0  0  0  0  0  0  0  0  0  0
   -6.6290   23.3800  -30.0880 O   0  0  0  0  0  0  0  0  0  0  0  0
   -4.0380   24.2450  -30.5200 C   0  0  0  0  0  0  0  0  0  0  0  0
   -3.0490   24.9170  -29.8740 N   0  0  0  0  0  0  0  0  0  0  0  0
   -0.4806   23.5540  -23.4858 H   0  0  0  0  0  0  0  0  0  0  0  0
   -0.4699   22.0473  -24.4639 H   0  0  0  0  0  0  0  0  0  0  0  0
    0.9647   23.1284  -24.4639 H   0  0  0  0  0  0  0  0  0  0  0  0
    0.0981   24.0528  -26.3337 H   0  0  0  0  0  0  0  0  0  0  0  0
   -1.5181   23.2394  -26.0337 H   0  0  0  0  0  0  0  0  0  0  0  0
    0.5935   25.6825  -24.5701 H   0  0  0  0  0  0  0  0  0  0  0  0
   -0.2945   26.9798  -25.4811 H   0  0  0  0  0  0  0  0  0  0  0  0
   -0.4223   26.2309  -22.5798 H   0  0  0  0  0  0  0  0  0  0  0  0
   -0.5257   27.8392  -23.3730 H   0  0  0  0  0  0  0  0  0  0  0  0
   -1.9499   26.7446  -23.3730 H   0  0  0  0  0  0  0  0  0  0  0  0
   -2.8959   24.9861  -26.6739 H   0  0  0  0  0  0  0  0  0  0  0  0
   -2.5983   26.6567  -26.0507 H   0  0  0  0  0  0  0  0  0  0  0  0
   -1.0809   22.3436  -28.8950 H   0  0  0  0  0  0  0  0  0  0  0  0
   -2.8777   21.0655  -30.0725 H   0  0  0  0  0  0  0  0  0  0  0  0
   -3.2079   22.4631  -33.7938 H   0  0  0  0  0  0  0  0  0  0  0  0
   -0.8814   21.8697  -34.4684 H   0  0  0  0  0  0  0  0  0  0  0  0
    0.1833   19.7889  -33.5881 H   0  0  0  0  0  0  0  0  0  0  0  0
   -1.0820   18.2974  -32.0360 H   0  0  0  0  0  0  0  0  0  0  0  0
   -3.4071   18.8915  -31.3473 H   0  0  0  0  0  0  0  0  0  0  0  0
   -7.9187   19.0028  -33.5095 H   0  0  0  0  0  0  0  0  0  0  0  0
  -10.3022   19.5091  -32.9676 H   0  0  0  0  0  0  0  0  0  0  0  0
  -10.8632   21.4004  -31.4387 H   0  0  0  0  0  0  0  0  0  0  0  0
   -9.0456   22.7963  -30.4505 H   0  0  0  0  0  0  0  0  0  0  0  0
   -4.8603   24.8008  -30.9943 H   0  0  0  0  0  0  0  0  0  0  0  0
  1  2  1  0
  2  3  1  0
  3  4  1  0
  4  5  1  0
  3  6  1  0
  6  7  1  0
  7  8  2  0
  7  9  1  0
  9 10  1  0
 10 11  2  0
 11 12  1  0
 12 13  2  0
 13 14  1  0
 14 15  1  0
 15 16  1  0
 16 17  2  0
 17 18  1  0
 18 19  2  0
 19 20  1  0
 20 21  2  0
 15 22  2  0
 22 23  1  0
 23 24  2  0
 24 25  1  0
 25 26  2  0
 26 27  1  0
 27 28  2  0
 28 29  1  0
 29 30  2  0
 13 31  1  0
 31 32  2  0
 32 10  1  0
 29 14  1  0
 21 16  1  0
 28 23  1  0
  1 33  1  0
  1 34  1  0
  1 35  1  0
  2 36  1  0
  2 37  1  0
  4 38  1  0
  4 39  1  0
  5 40  1  0
  5 41  1  0
  5 42  1  0
  6 43  1  0
  6 44  1  0
 11 45  1  0
 12 46  1  0
 17 47  1  0
 18 48  1  0
 19 49  1  0
 20 50  1  0
 21 51  1  0
 24 52  1  0
 25 53  1  0
 26 54  1  0
 27 55  1  0
 31 56  1  0
M  CHG  1   9  -1
M  END
>  <UniqueID>  (38) 
36

>  <SMILES>  (38) 
CCN(CC)CC(=O)[N-]c1ccc(-n2c(-c3ccccc3)nc3ccccc3c2=O)cn1

>  <Energy>  (38) 
87.01174999378763

>  <Genealogy>  (38) 
CCN(CC)CC(=O)[N-]c1ccc(-n2c(-c3ccccc3)nc3ccccc3c2=O)cn1 (protonated)
CCN(CC)CC(=O)[N-]c1ccc(-n2c(-c3ccccc3)nc3ccccc3c2=O)cn1 (3D coordinates assigned)
CCN(CC)CC(=O)[N-]c1ccc(-n2c(-c3ccccc3)nc3ccccc3c2=O)cn1 (optimized conformer: 87.01174999378763 kcal/mol)

>  <smiles>  (38) 
CCN(CC)CC(=O)Nc1ccc(-n2c(-c3ccccc3)nc3ccccc3c2=O)cn1

>  <score_type>  (38) 
oracle

>  <origin>  (38) 
adg

>  <m_score__min__energy>  (38) 
-11.08

>  <m_primary>  (38) 
energy

$$$$
38:0
     RDKit          3D

 53 55  0  0  0  0  0  0  0  0999 V2000
   -3.8460   19.6620  -33.4890 C   0  0  0  0  0  0  0  0  0  0  0  0
   -4.5770   18.3580  -33.1760 C   0  0  0  0  0  0  0  0  0  0  0  0
   -5.6890   18.0360  -34.1870 C   0  0  0  0  0  0  0  0  0  0  0  0
   -6.8500   17.2170  -33.5830 C   0  0  0  0  0  0  0  0  0  0  0  0
   -7.4550   17.8940  -32.3410 C   0  0  0  0  0  0  0  0  0  0  0  0
   -8.4850   18.9740  -32.7030 C   0  0  0  0  0  0  0  0  0  0  0  0
   -8.0360   20.3470  -32.2740 C   0  0  0  0  0  0  0  0  0  0  0  0
   -6.8330   20.8850  -32.7600 C   0  0  0  0  0  0  0  0  0  0  0  0
   -6.3750   22.1210  -32.2970 C   0  0  0  0  0  0  0  0  0  0  0  0
   -7.1100   22.8350  -31.3390 C   0  0  0  0  0  0  0  0  0  0  0  0
   -6.5360   24.0920  -30.7390 C   0  0  0  0  0  0  0  0  0  0  0  0
   -5.3050   23.7680  -30.0080 N   0  0  0  0  0  0  0  0  0  0  0  0
   -5.2800   22.6530  -29.2700 N   0  0  0  0  0  0  0  0  0  0  0  0
   -4.2170   22.3290  -28.4910 C   0  0  0  0  0  0  0  0  0  0  0  0
   -3.1340   23.1980  -28.4110 C   0  0  0  0  0  0  0  0  0  0  0  0
   -2.0880   22.9070  -27.6000 F   0  0  0  0  0  0  0  0  0  0  0  0
   -3.1560   24.3860  -29.1390 C   0  0  0  0  0  0  0  0  0  0  0  0
   -2.0870   25.2860  -29.0070 O   0  0  0  0  0  0  0  0  0  0  0  0
   -1.6160   25.8060  -27.7910 C   0  0  0  0  0  0  0  0  0  0  0  0
   -0.4680   26.6220  -27.7170 C   0  0  0  0  0  0  0  0  0  0  0  0
   -0.0310   27.1110  -26.4820 C   0  0  0  0  0  0  0  0  0  0  0  0
   -0.7470   26.8160  -25.3190 C   0  0  0  0  0  0  0  0  0  0  0  0
   -1.9010   26.0320  -25.3890 C   0  0  0  0  0  0  0  0  0  0  0  0
   -2.3350   25.5310  -26.6210 C   0  0  0  0  0  0  0  0  0  0  0  0
   -4.2430   24.6340  -29.9940 C   0  0  0  0  0  0  0  0  0  0  0  0
   -4.2360   25.6480  -30.7440 O   0  0  0  0  0  0  0  0  0  0  0  0
   -8.3200   22.3060  -30.8650 C   0  0  0  0  0  0  0  0  0  0  0  0
   -8.7810   21.0710  -31.3310 C   0  0  0  0  0  0  0  0  0  0  0  0
   -3.5666   20.1604  -32.5491 H   0  0  0  0  0  0  0  0  0  0  0  0
   -2.9390   19.4432  -34.0717 H   0  0  0  0  0  0  0  0  0  0  0  0
   -4.5059   20.3215  -34.0717 H   0  0  0  0  0  0  0  0  0  0  0  0
   -3.8464   17.5357  -33.1846 H   0  0  0  0  0  0  0  0  0  0  0  0
   -5.0516   18.4749  -32.1906 H   0  0  0  0  0  0  0  0  0  0  0  0
   -6.0943   18.9831  -34.5726 H   0  0  0  0  0  0  0  0  0  0  0  0
   -5.2379   17.4224  -34.9807 H   0  0  0  0  0  0  0  0  0  0  0  0
   -7.6368   17.1040  -34.3434 H   0  0  0  0  0  0  0  0  0  0  0  0
   -6.4489   16.2406  -33.2734 H   0  0  0  0  0  0  0  0  0  0  0  0
   -7.9492   17.1270  -31.7267 H   0  0  0  0  0  0  0  0  0  0  0  0
   -6.6354   18.3835  -31.7946 H   0  0  0  0  0  0  0  0  0  0  0  0
   -8.6329   18.9729  -33.7930 H   0  0  0  0  0  0  0  0  0  0  0  0
   -9.4215   18.7417  -32.1748 H   0  0  0  0  0  0  0  0  0  0  0  0
   -6.2486   20.3304  -33.5089 H   0  0  0  0  0  0  0  0  0  0  0  0
   -5.4334   22.5363  -32.6856 H   0  0  0  0  0  0  0  0  0  0  0  0
   -6.3081   24.8099  -31.5407 H   0  0  0  0  0  0  0  0  0  0  0  0
   -7.2674   24.5348  -30.0469 H   0  0  0  0  0  0  0  0  0  0  0  0
   -4.2120   21.3850  -27.9264 H   0  0  0  0  0  0  0  0  0  0  0  0
    0.0853   26.8745  -28.6336 H   0  0  0  0  0  0  0  0  0  0  0  0
    0.8775   27.7286  -26.4260 H   0  0  0  0  0  0  0  0  0  0  0  0
   -0.4019   27.2012  -24.3482 H   0  0  0  0  0  0  0  0  0  0  0  0
   -2.4693   25.8082  -24.4741 H   0  0  0  0  0  0  0  0  0  0  0  0
   -3.2465   24.9173  -26.6711 H   0  0  0  0  0  0  0  0  0  0  0  0
   -8.9088   22.8656  -30.1232 H   0  0  0  0  0  0  0  0  0  0  0  0
   -9.7323   20.6651  -30.9565 H   0  0  0  0  0  0  0  0  0  0  0  0
  1  2  1  0
  2  3  1  0
  3  4  1  0
  4  5  1  0
  5  6  1  0
  6  7  1  0
  7  8  2  0
  8  9  1  0
  9 10  2  0
 10 11  1  0
 11 12  1  0
 12 13  1  0
 13 14  2  0
 14 15  1  0
 15 16  1  0
 15 17  2  0
 17 18  1  0
 18 19  1  0
 19 20  2  0
 20 21  1  0
 21 22  2  0
 22 23  1  0
 23 24  2  0
 17 25  1  0
 25 26  2  0
 10 27  1  0
 27 28  2  0
 28  7  1  0
 25 12  1  0
 24 19  1  0
  1 29  1  0
  1 30  1  0
  1 31  1  0
  2 32  1  0
  2 33  1  0
  3 34  1  0
  3 35  1  0
  4 36  1  0
  4 37  1  0
  5 38  1  0
  5 39  1  0
  6 40  1  0
  6 41  1  0
  8 42  1  0
  9 43  1  0
 11 44  1  0
 11 45  1  0
 14 46  1  0
 20 47  1  0
 21 48  1  0
 22 49  1  0
 23 50  1  0
 24 51  1  0
 27 52  1  0
 28 53  1  0
M  END
>  <UniqueID>  (39) 
37

>  <SMILES>  (39) 
CCCCCCc1ccc(Cn2ncc(F)c(Oc3ccccc3)c2=O)cc1

>  <Energy>  (39) 
54.08492959517219

>  <Genealogy>  (39) 
CCCCCCc1ccc(Cn2ncc(F)c(Oc3ccccc3)c2=O)cc1 (3D coordinates assigned)
CCCCCCc1ccc(Cn2ncc(F)c(Oc3ccccc3)c2=O)cc1 (optimized conformer: 54.08492959517219 kcal/mol)

>  <smiles>  (39) 
CCCCCCc1ccc(Cn2ncc(F)c(Oc3ccccc3)c2=O)cc1

>  <score_type>  (39) 
oracle

>  <origin>  (39) 
adg

>  <m_score__min__energy>  (39) 
-9.6300000000000008

>  <m_primary>  (39) 
energy

$$$$
39:0
     RDKit          3D

 55 56  0  0  0  0  0  0  0  0999 V2000
   -4.6690   15.4090  -32.5100 C   0  0  0  0  0  0  0  0  0  0  0  0
   -3.3300   15.9630  -32.9920 C   0  0  0  0  0  0  0  0  0  0  0  0
   -3.5340   17.1770  -33.8150 N   0  0  0  0  0  0  0  0  0  0  0  0
   -2.2590   17.8960  -34.0400 C   0  0  0  0  0  0  0  0  0  0  0  0
   -2.1170   19.0530  -33.0550 C   0  0  0  0  0  0  0  0  0  0  0  0
   -4.2240   16.8660  -35.0940 C   0  0  0  0  0  0  0  0  0  0  0  0
   -5.4110   17.8120  -35.3010 C   0  0  0  0  0  0  0  0  0  0  0  0
   -6.4010   17.7730  -34.1280 C   0  0  0  0  0  0  0  0  0  0  0  0
   -6.3560   19.0690  -33.3520 C   0  0  0  0  0  0  0  0  0  0  0  0
   -5.2610   19.9260  -33.5470 C   0  0  0  0  0  0  0  0  0  0  0  0
   -5.1840   21.1490  -32.8820 C   0  0  0  0  0  0  0  0  0  0  0  0
   -6.2040   21.5500  -32.0070 C   0  0  0  0  0  0  0  0  0  0  0  0
   -6.1190   22.8530  -31.2980 C   0  0  0  0  0  0  0  0  0  0  0  0
   -7.2800   23.4820  -30.8180 C   0  0  0  0  0  0  0  0  0  0  0  0
   -7.1970   24.7060  -30.1520 C   0  0  0  0  0  0  0  0  0  0  0  0
   -5.9570   25.3180  -29.9560 C   0  0  0  0  0  0  0  0  0  0  0  0
   -4.7830   24.7040  -30.4260 C   0  0  0  0  0  0  0  0  0  0  0  0
   -3.4880   25.2940  -30.2530 N   0  0  0  0  0  0  0  0  0  0  0  0
   -2.2950   24.8050  -29.0940 S   0  0  0  0  0  0  0  0  0  0  0  0
   -3.0750   24.3960  -27.5470 C   0  0  0  0  0  0  0  0  0  0  0  0
   -1.2850   25.9010  -28.8990 O   0  0  0  0  0  0  0  0  0  0  0  0
   -1.5880   23.5850  -29.6150 O   0  0  0  0  0  0  0  0  0  0  0  0
   -4.8740   23.4770  -31.0960 C   0  0  0  0  0  0  0  0  0  0  0  0
   -7.3070   20.7030  -31.8150 C   0  0  0  0  0  0  0  0  0  0  0  0
   -7.4040   19.4720  -32.4870 C   0  0  0  0  0  0  0  0  0  0  0  0
   -8.6080   18.5990  -32.2430 C   0  0  0  0  0  0  0  0  0  0  0  0
   -4.6880   15.4011  -31.4102 H   0  0  0  0  0  0  0  0  0  0  0  0
   -5.4851   16.0433  -32.8863 H   0  0  0  0  0  0  0  0  0  0  0  0
   -4.7984   14.3835  -32.8863 H   0  0  0  0  0  0  0  0  0  0  0  0
   -2.7092   16.2173  -32.1203 H   0  0  0  0  0  0  0  0  0  0  0  0
   -2.8302   15.1988  -33.6053 H   0  0  0  0  0  0  0  0  0  0  0  0
   -1.4203   17.1978  -33.9017 H   0  0  0  0  0  0  0  0  0  0  0  0
   -2.2529   18.2977  -35.0640 H   0  0  0  0  0  0  0  0  0  0  0  0
   -2.1644   18.6666  -32.0262 H   0  0  0  0  0  0  0  0  0  0  0  0
   -1.1507   19.5538  -33.2144 H   0  0  0  0  0  0  0  0  0  0  0  0
   -2.9336   19.7726  -33.2144 H   0  0  0  0  0  0  0  0  0  0  0  0
   -3.5154   16.9851  -35.9269 H   0  0  0  0  0  0  0  0  0  0  0  0
   -4.5934   15.8305  -35.0589 H   0  0  0  0  0  0  0  0  0  0  0  0
   -5.0303   18.8385  -35.4082 H   0  0  0  0  0  0  0  0  0  0  0  0
   -5.9474   17.4851  -36.2040 H   0  0  0  0  0  0  0  0  0  0  0  0
   -7.4181   17.6201  -34.5181 H   0  0  0  0  0  0  0  0  0  0  0  0
   -6.1234   16.9472  -33.4564 H   0  0  0  0  0  0  0  0  0  0  0  0
   -4.4540   19.6288  -34.2329 H   0  0  0  0  0  0  0  0  0  0  0  0
   -4.3160   21.8048  -33.0450 H   0  0  0  0  0  0  0  0  0  0  0  0
   -8.2607   23.0069  -30.9680 H   0  0  0  0  0  0  0  0  0  0  0  0
   -8.1119   25.1904  -29.7801 H   0  0  0  0  0  0  0  0  0  0  0  0
   -5.8988   26.2835  -29.4322 H   0  0  0  0  0  0  0  0  0  0  0  0
   -2.4375   24.7303  -26.7153 H   0  0  0  0  0  0  0  0  0  0  0  0
   -4.0518   24.8979  -27.4849 H   0  0  0  0  0  0  0  0  0  0  0  0
   -3.2177   23.3071  -27.4849 H   0  0  0  0  0  0  0  0  0  0  0  0
   -3.9589   22.9943  -31.4696 H   0  0  0  0  0  0  0  0  0  0  0  0
   -8.1092   21.0078  -31.1269 H   0  0  0  0  0  0  0  0  0  0  0  0
   -8.7650   18.4852  -31.1602 H   0  0  0  0  0  0  0  0  0  0  0  0
   -9.4961   19.0644  -32.6953 H   0  0  0  0  0  0  0  0  0  0  0  0
   -8.4417   17.6102  -32.6953 H   0  0  0  0  0  0  0  0  0  0  0  0
  1  2  1  0
  2  3  1  0
  3  4  1  0
  4  5  1  0
  3  6  1  0
  6  7  1  0
  7  8  1  0
  8  9  1  0
  9 10  2  0
 10 11  1  0
 11 12  2  0
 12 13  1  0
 13 14  2  0
 14 15  1  0
 15 16  2  0
 16 17  1  0
 17 18  1  0
 18 19  1  0
 19 20  1  0
 19 21  2  0
 19 22  2  0
 17 23  2  0
 12 24  1  0
 24 25  2  0
 25 26  1  0
 25  9  1  0
 23 13  1  0
  1 27  1  0
  1 28  1  0
  1 29  1  0
  2 30  1  0
  2 31  1  0
  4 32  1  0
  4 33  1  0
  5 34  1  0
  5 35  1  0
  5 36  1  0
  6 37  1  0
  6 38  1  0
  7 39  1  0
  7 40  1  0
  8 41  1  0
  8 42  1  0
 10 43  1  0
 11 44  1  0
 14 45  1  0
 15 46  1  0
 16 47  1  0
 20 48  1  0
 20 49  1  0
 20 50  1  0
 23 51  1  0
 24 52  1  0
 26 53  1  0
 26 54  1  0
 26 55  1  0
M  CHG  1  18  -1
M  END
>  <UniqueID>  (40) 
38

>  <SMILES>  (40) 
CCN(CC)CCCc1ccc(-c2cccc([N-]S(C)(=O)=O)c2)cc1C

>  <Energy>  (40) 
55.32471113153743

>  <Genealogy>  (40) 
CCN(CC)CCCc1ccc(-c2cccc([N-]S(C)(=O)=O)c2)cc1C (protonated)
CCN(CC)CCCc1ccc(-c2cccc([N-]S(C)(=O)=O)c2)cc1C (3D coordinates assigned)
CCN(CC)CCCc1ccc(-c2cccc([N-]S(C)(=O)=O)c2)cc1C (optimized conformer: 55.32471113153743 kcal/mol)

>  <smiles>  (40) 
CCN(CC)CCCc1ccc(-c2cccc(NS(C)(=O)=O)c2)cc1C

>  <score_type>  (40) 
oracle

>  <origin>  (40) 
adg

>  <m_score__min__energy>  (40) 
-10.789999999999999

>  <m_primary>  (40) 
energy

$$$$
40:0
     RDKit          3D

 51 53  0  0  0  0  0  0  0  0999 V2000
    2.3360   24.0020  -26.9120 C   0  0  0  0  0  0  0  0  0  0  0  0
    1.0160   23.8450  -27.5980 C   0  0  0  0  0  0  0  0  0  0  0  0
    0.4940   22.5800  -27.8500 C   0  0  0  0  0  0  0  0  0  0  0  0
   -0.7410   22.4680  -28.5020 C   0  0  0  0  0  0  0  0  0  0  0  0
   -1.2790   21.0850  -28.7810 C   0  0  0  0  0  0  0  0  0  0  0  0
   -1.4260   23.6070  -28.8750 N   0  0  0  0  0  0  0  0  0  0  0  0
   -2.7530   23.5110  -29.5270 C   0  0  0  0  0  0  0  0  0  0  0  0
   -3.8450   23.7200  -28.5490 N   0  0  0  0  0  0  0  0  0  0  0  0
   -4.1270   22.4570  -27.8470 C   0  0  0  0  0  0  0  0  0  0  0  0
   -5.0720   24.2480  -29.1890 C   0  0  0  0  0  0  0  0  0  0  0  0
   -4.7510   24.7480  -30.5710 C   0  0  0  0  0  0  0  0  0  0  0  0
   -3.9020   25.6700  -30.7020 O   0  0  0  0  0  0  0  0  0  0  0  0
   -5.3360   24.1810  -31.7500 N   0  0  0  0  0  0  0  0  0  0  0  0
   -5.4810   22.7870  -32.0520 C   0  0  0  0  0  0  0  0  0  0  0  0
   -6.7390   22.1630  -32.0690 C   0  0  0  0  0  0  0  0  0  0  0  0
   -6.8480   20.8060  -32.3850 C   0  0  0  0  0  0  0  0  0  0  0  0
   -5.7050   20.0550  -32.7110 C   0  0  0  0  0  0  0  0  0  0  0  0
   -5.8240   18.6130  -33.0420 C   0  0  0  0  0  0  0  0  0  0  0  0
   -5.3900   17.6340  -32.1290 C   0  0  0  0  0  0  0  0  0  0  0  0
   -5.5170   16.2840  -32.4540 C   0  0  0  0  0  0  0  0  0  0  0  0
   -6.0690   15.9130  -33.6790 C   0  0  0  0  0  0  0  0  0  0  0  0
   -6.4900   16.9040  -34.5660 C   0  0  0  0  0  0  0  0  0  0  0  0
   -6.3630   18.2190  -34.2370 N   0  0  0  0  0  0  0  0  0  0  0  0
   -4.4530   20.6950  -32.7270 C   0  0  0  0  0  0  0  0  0  0  0  0
   -4.3470   22.0520  -32.4120 C   0  0  0  0  0  0  0  0  0  0  0  0
   -0.8680   24.8410  -28.6270 C   0  0  0  0  0  0  0  0  0  0  0  0
   -1.4590   25.9010  -28.9670 O   0  0  0  0  0  0  0  0  0  0  0  0
    0.3310   24.9410  -28.0020 N   0  0  0  0  0  0  0  0  0  0  0  0
    2.1873   23.9843  -25.8222 H   0  0  0  0  0  0  0  0  0  0  0  0
    3.0018   23.1767  -27.2047 H   0  0  0  0  0  0  0  0  0  0  0  0
    2.7896   24.9604  -27.2047 H   0  0  0  0  0  0  0  0  0  0  0  0
    1.0442   21.6790  -27.5411 H   0  0  0  0  0  0  0  0  0  0  0  0
   -1.4791   20.5706  -27.8295 H   0  0  0  0  0  0  0  0  0  0  0  0
   -2.2119   21.1641  -29.3584 H   0  0  0  0  0  0  0  0  0  0  0  0
   -0.5379   20.5128  -29.3584 H   0  0  0  0  0  0  0  0  0  0  0  0
   -2.8232   24.2775  -30.3129 H   0  0  0  0  0  0  0  0  0  0  0  0
   -2.8582   22.5043  -29.9576 H   0  0  0  0  0  0  0  0  0  0  0  0
   -4.0895   22.6251  -26.7606 H   0  0  0  0  0  0  0  0  0  0  0  0
   -5.1277   22.0968  -28.1280 H   0  0  0  0  0  0  0  0  0  0  0  0
   -3.3746   21.7054  -28.1280 H   0  0  0  0  0  0  0  0  0  0  0  0
   -5.8228   23.4468  -29.2557 H   0  0  0  0  0  0  0  0  0  0  0  0
   -5.4682   25.0779  -28.5854 H   0  0  0  0  0  0  0  0  0  0  0  0
   -7.6422   22.7447  -31.8326 H   0  0  0  0  0  0  0  0  0  0  0  0
   -7.8357   20.3218  -32.3786 H   0  0  0  0  0  0  0  0  0  0  0  0
   -4.9531   17.9320  -31.1645 H   0  0  0  0  0  0  0  0  0  0  0  0
   -5.1820   15.5129  -31.7447 H   0  0  0  0  0  0  0  0  0  0  0  0
   -6.1715   14.8502  -33.9435 H   0  0  0  0  0  0  0  0  0  0  0  0
   -6.9265   16.6217  -35.5354 H   0  0  0  0  0  0  0  0  0  0  0  0
   -6.6690   18.9320  -34.9360 H   0  0  0  0  0  0  0  0  0  0  0  0
   -3.5507   20.1232  -32.9894 H   0  0  0  0  0  0  0  0  0  0  0  0
   -3.3647   22.5458  -32.4474 H   0  0  0  0  0  0  0  0  0  0  0  0
  1  2  1  0
  2  3  1  0
  3  4  2  0
  4  5  1  0
  4  6  1  0
  6  7  1  0
  7  8  1  0
  8  9  1  0
  8 10  1  0
 10 11  1  0
 11 12  2  0
 11 13  1  0
 13 14  1  0
 14 15  2  0
 15 16  1  0
 16 17  2  0
 17 18  1  0
 18 19  2  0
 19 20  1  0
 20 21  2  0
 21 22  1  0
 22 23  2  0
 17 24  1  0
 24 25  2  0
  6 26  1  0
 26 27  2  0
 26 28  1  0
 28  2  2  0
 25 14  1  0
 23 18  1  0
  1 29  1  0
  1 30  1  0
  1 31  1  0
  3 32  1  0
  5 33  1  0
  5 34  1  0
  5 35  1  0
  7 36  1  0
  7 37  1  0
  9 38  1  0
  9 39  1  0
  9 40  1  0
 10 41  1  0
 10 42  1  0
 15 43  1  0
 16 44  1  0
 19 45  1  0
 20 46  1  0
 21 47  1  0
 22 48  1  0
 23 49  1  0
 24 50  1  0
 25 51  1  0
M  CHG  2  13  -1  23   1
M  END
>  <UniqueID>  (41) 
39

>  <SMILES>  (41) 
Cc1cc(C)n(CN(C)CC(=O)[N-]c2ccc(-c3cccc[nH+]3)cc2)c(=O)n1

>  <Energy>  (41) 
65.15219346359474

>  <Genealogy>  (41) 
Cc1cc(C)n(CN(C)CC(=O)[N-]c2ccc(-c3cccc[nH+]3)cc2)c(=O)n1 (protonated)
Cc1cc(C)n(CN(C)CC(=O)[N-]c2ccc(-c3cccc[nH+]3)cc2)c(=O)n1 (3D coordinates assigned)
Cc1cc(C)n(CN(C)CC(=O)[N-]c2ccc(-c3cccc[nH+]3)cc2)c(=O)n1 (optimized conformer: 65.15219346359474 kcal/mol)

>  <smiles>  (41) 
Cc1cc(C)n(CN(C)CC(=O)Nc2ccc(-c3ccccn3)cc2)c(=O)n1

>  <score_type>  (41) 
oracle

>  <origin>  (41) 
adg

>  <m_score__min__energy>  (41) 
-10.01

>  <m_primary>  (41) 
energy

$$$$
41:0
     RDKit          3D

 43 45  0  0  0  0  0  0  0  0999 V2000
   -1.3000   21.1730  -33.1570 C   0  0  0  0  0  0  0  0  0  0  0  0
   -2.6050   20.4700  -32.7830 C   0  0  0  0  0  0  0  0  0  0  0  0
   -3.5380   21.3520  -31.9320 C   0  0  0  0  0  0  0  0  0  0  0  0
   -4.4150   22.3020  -32.7630 C   0  0  0  0  0  0  0  0  0  0  0  0
   -5.8160   22.2660  -32.3340 N   0  0  0  0  0  0  0  0  0  0  0  0
   -6.5860   23.2860  -31.8440 C   0  0  0  0  0  0  0  0  0  0  0  0
   -6.0980   24.6840  -31.5830 C   0  0  0  0  0  0  0  0  0  0  0  0
   -4.6780   24.6920  -31.1970 N   0  0  0  0  0  0  0  0  0  0  0  0
   -4.4790   24.7170  -29.7370 C   0  0  0  0  0  0  0  0  0  0  0  0
   -3.5340   23.6240  -29.3060 C   0  0  0  0  0  0  0  0  0  0  0  0
   -3.9920   22.5570  -28.5150 C   0  0  0  0  0  0  0  0  0  0  0  0
   -3.1240   21.5200  -28.1600 C   0  0  0  0  0  0  0  0  0  0  0  0
   -1.7910   21.5480  -28.5780 C   0  0  0  0  0  0  0  0  0  0  0  0
   -1.3210   22.6190  -29.3410 C   0  0  0  0  0  0  0  0  0  0  0  0
   -2.1850   23.6590  -29.6970 C   0  0  0  0  0  0  0  0  0  0  0  0
   -7.8670   22.8300  -31.4990 C   0  0  0  0  0  0  0  0  0  0  0  0
   -7.8190   21.4920  -31.7870 C   0  0  0  0  0  0  0  0  0  0  0  0
   -8.7590   20.1230  -31.5890 S   0  0  0  0  0  0  0  0  0  0  0  0
   -7.5270   19.0890  -32.1760 C   0  0  0  0  0  0  0  0  0  0  0  0
   -6.3820   19.8310  -32.5020 C   0  0  0  0  0  0  0  0  0  0  0  0
   -6.6100   21.1830  -32.2670 C   0  0  0  0  0  0  0  0  0  0  0  0
   -0.7636   21.4619  -32.2411 H   0  0  0  0  0  0  0  0  0  0  0  0
   -0.6727   20.4907  -33.7495 H   0  0  0  0  0  0  0  0  0  0  0  0
   -1.5246   22.0722  -33.7495 H   0  0  0  0  0  0  0  0  0  0  0  0
   -3.1317   20.1922  -33.7079 H   0  0  0  0  0  0  0  0  0  0  0  0
   -2.3438   19.5878  -32.1801 H   0  0  0  0  0  0  0  0  0  0  0  0
   -4.1967   20.6955  -31.3445 H   0  0  0  0  0  0  0  0  0  0  0  0
   -2.8965   21.9794  -31.2957 H   0  0  0  0  0  0  0  0  0  0  0  0
   -4.0345   23.3279  -32.6500 H   0  0  0  0  0  0  0  0  0  0  0  0
   -4.3709   21.9768  -33.8129 H   0  0  0  0  0  0  0  0  0  0  0  0
   -6.2243   25.2838  -32.4964 H   0  0  0  0  0  0  0  0  0  0  0  0
   -6.6850   25.1074  -30.7547 H   0  0  0  0  0  0  0  0  0  0  0  0
   -4.2610   25.5720  -31.5850 H   0  0  0  0  0  0  0  0  0  0  0  0
   -4.0593   25.6916  -29.4470 H   0  0  0  0  0  0  0  0  0  0  0  0
   -5.4503   24.5567  -29.2462 H   0  0  0  0  0  0  0  0  0  0  0  0
   -5.0375   22.5374  -28.1737 H   0  0  0  0  0  0  0  0  0  0  0  0
   -3.4910   20.6809  -27.5508 H   0  0  0  0  0  0  0  0  0  0  0  0
   -1.1119   20.7265  -28.3061 H   0  0  0  0  0  0  0  0  0  0  0  0
   -0.2693   22.6444  -29.6625 H   0  0  0  0  0  0  0  0  0  0  0  0
   -1.8071   24.5080  -30.2855 H   0  0  0  0  0  0  0  0  0  0  0  0
   -8.7096   23.4093  -31.0936 H   0  0  0  0  0  0  0  0  0  0  0  0
   -7.6201   17.9981  -32.2824 H   0  0  0  0  0  0  0  0  0  0  0  0
   -5.4429   19.4066  -32.8865 H   0  0  0  0  0  0  0  0  0  0  0  0
  1  2  1  0
  2  3  1  0
  3  4  1  0
  4  5  1  0
  5  6  1  0
  6  7  1  0
  7  8  1  0
  8  9  1  0
  9 10  1  0
 10 11  2  0
 11 12  1  0
 12 13  2  0
 13 14  1  0
 14 15  2  0
  6 16  2  0
 16 17  1  0
 17 18  1  0
 18 19  1  0
 19 20  2  0
 20 21  1  0
 21  5  1  0
 15 10  1  0
 21 17  2  0
  1 22  1  0
  1 23  1  0
  1 24  1  0
  2 25  1  0
  2 26  1  0
  3 27  1  0
  3 28  1  0
  4 29  1  0
  4 30  1  0
  7 31  1  0
  7 32  1  0
  8 33  1  0
  9 34  1  0
  9 35  1  0
 11 36  1  0
 12 37  1  0
 13 38  1  0
 14 39  1  0
 15 40  1  0
 16 41  1  0
 19 42  1  0
 20 43  1  0
M  END
>  <UniqueID>  (42) 
40

>  <SMILES>  (42) 
CCCCn1c(CNCc2ccccc2)cc2sccc21

>  <Energy>  (42) 
108.02175614606071

>  <Genealogy>  (42) 
CCCCn1c(CNCc2ccccc2)cc2sccc21 (3D coordinates assigned)
CCCCn1c(CNCc2ccccc2)cc2sccc21 (optimized conformer: 108.02175614606071 kcal/mol)

>  <smiles>  (42) 
CCCCn1c(CNCc2ccccc2)cc2sccc21

>  <score_type>  (42) 
oracle

>  <origin>  (42) 
adg

>  <m_score__min__energy>  (42) 
-7.6600000000000001

>  <m_primary>  (42) 
energy

$$$$
42:0
     RDKit          3D

 63 66  0  0  0  0  0  0  0  0999 V2000
   -0.8770   26.0910  -27.4990 C   0  0  0  0  0  0  0  0  0  0  0  0
   -1.3460   26.4080  -26.0800 C   0  0  0  0  0  0  0  0  0  0  0  0
   -2.4200   25.4180  -25.6200 C   0  0  0  0  0  0  0  0  0  0  0  0
   -2.8670   24.5660  -26.7660 C   0  0  0  0  0  0  0  0  0  0  0  0
   -3.9360   24.8430  -27.5400 N   0  0  0  0  0  0  0  0  0  0  0  0
   -3.9900   23.8310  -28.4250 C   0  0  0  0  0  0  0  0  0  0  0  0
   -5.0230   23.7110  -29.4780 C   0  0  0  0  0  0  0  0  0  0  0  0
   -5.9940   22.6950  -29.4330 C   0  0  0  0  0  0  0  0  0  0  0  0
   -6.9610   22.5940  -30.4390 C   0  0  0  0  0  0  0  0  0  0  0  0
   -6.9620   23.5000  -31.5020 C   0  0  0  0  0  0  0  0  0  0  0  0
   -5.9900   24.5030  -31.5670 C   0  0  0  0  0  0  0  0  0  0  0  0
   -5.0210   24.6060  -30.5640 C   0  0  0  0  0  0  0  0  0  0  0  0
   -2.9520   22.9550  -28.1340 C   0  0  0  0  0  0  0  0  0  0  0  0
   -2.6110   21.6610  -28.8060 C   0  0  0  0  0  0  0  0  0  0  0  0
   -1.5710   21.8940  -29.8170 N   0  0  0  0  0  0  0  0  0  0  0  0
   -2.1150   21.9380  -31.1850 C   0  0  0  0  0  0  0  0  0  0  0  0
   -1.4710   20.8830  -32.1080 C   0  0  0  0  0  0  0  0  0  0  0  0
   -2.3540   20.5630  -33.2540 N   0  0  0  0  0  0  0  0  0  0  0  0
   -3.3770   21.6220  -33.4660 C   0  0  0  0  0  0  0  0  0  0  0  0
   -4.6920   21.3330  -32.7260 C   0  0  0  0  0  0  0  0  0  0  0  0
   -5.2010   20.0040  -33.0850 N   0  0  0  0  0  0  0  0  0  0  0  0
   -6.5260   19.6110  -32.6910 C   0  0  0  0  0  0  0  0  0  0  0  0
   -7.6270   20.4150  -33.0290 C   0  0  0  0  0  0  0  0  0  0  0  0
   -8.9200   20.0350  -32.6520 C   0  0  0  0  0  0  0  0  0  0  0  0
   -9.1220   18.8540  -31.9350 C   0  0  0  0  0  0  0  0  0  0  0  0
   -8.0300   18.0500  -31.5910 C   0  0  0  0  0  0  0  0  0  0  0  0
   -6.7340   18.4250  -31.9660 C   0  0  0  0  0  0  0  0  0  0  0  0
   -5.6830   17.6490  -31.5970 F   0  0  0  0  0  0  0  0  0  0  0  0
   -4.3120   19.0510  -33.7550 C   0  0  0  0  0  0  0  0  0  0  0  0
   -2.9050   19.1810  -33.1650 C   0  0  0  0  0  0  0  0  0  0  0  0
   -2.2810   23.4430  -27.1140 O   0  0  0  0  0  0  0  0  0  0  0  0
    0.0336   25.4755  -27.4553 H   0  0  0  0  0  0  0  0  0  0  0  0
   -1.6664   25.5405  -28.0317 H   0  0  0  0  0  0  0  0  0  0  0  0
   -0.6605   27.0287  -28.0317 H   0  0  0  0  0  0  0  0  0  0  0  0
   -0.4865   26.3491  -25.3960 H   0  0  0  0  0  0  0  0  0  0  0  0
   -1.7775   27.4198  -26.0726 H   0  0  0  0  0  0  0  0  0  0  0  0
   -2.0058   24.7747  -24.8297 H   0  0  0  0  0  0  0  0  0  0  0  0
   -3.2832   25.9805  -25.2347 H   0  0  0  0  0  0  0  0  0  0  0  0
   -4.5710   25.6700  -27.4700 H   0  0  0  0  0  0  0  0  0  0  0  0
   -5.9933   21.9749  -28.6014 H   0  0  0  0  0  0  0  0  0  0  0  0
   -7.7212   21.8003  -30.3927 H   0  0  0  0  0  0  0  0  0  0  0  0
   -7.7276   23.4244  -32.2882 H   0  0  0  0  0  0  0  0  0  0  0  0
   -5.9875   25.2119  -32.4081 H   0  0  0  0  0  0  0  0  0  0  0  0
   -4.2529   25.3911  -30.6243 H   0  0  0  0  0  0  0  0  0  0  0  0
   -2.2408   20.9453  -28.0572 H   0  0  0  0  0  0  0  0  0  0  0  0
   -3.5093   21.2518  -29.2913 H   0  0  0  0  0  0  0  0  0  0  0  0
   -0.8470   21.1390  -29.7490 H   0  0  0  0  0  0  0  0  0  0  0  0
   -3.1986   21.7541  -31.1404 H   0  0  0  0  0  0  0  0  0  0  0  0
   -1.8916   22.9306  -31.6031 H   0  0  0  0  0  0  0  0  0  0  0  0
   -0.5163   21.2746  -32.4891 H   0  0  0  0  0  0  0  0  0  0  0  0
   -1.3087   19.9637  -31.5261 H   0  0  0  0  0  0  0  0  0  0  0  0
   -2.9728   22.5791  -33.1045 H   0  0  0  0  0  0  0  0  0  0  0  0
   -3.6020   21.6558  -34.5422 H   0  0  0  0  0  0  0  0  0  0  0  0
   -4.5133   21.3716  -31.6413 H   0  0  0  0  0  0  0  0  0  0  0  0
   -5.4367   22.0896  -33.0141 H   0  0  0  0  0  0  0  0  0  0  0  0
   -7.4723   21.3471  -33.5923 H   0  0  0  0  0  0  0  0  0  0  0  0
   -9.7787   20.6678  -32.9210 H   0  0  0  0  0  0  0  0  0  0  0  0
  -10.1392   18.5559  -31.6408 H   0  0  0  0  0  0  0  0  0  0  0  0
   -8.1899   17.1208  -31.0244 H   0  0  0  0  0  0  0  0  0  0  0  0
   -4.6840   18.0276  -33.5992 H   0  0  0  0  0  0  0  0  0  0  0  0
   -4.2836   19.2649  -34.8336 H   0  0  0  0  0  0  0  0  0  0  0  0
   -2.9421   18.8875  -32.1055 H   0  0  0  0  0  0  0  0  0  0  0  0
   -2.2434   18.5279  -33.7530 H   0  0  0  0  0  0  0  0  0  0  0  0
  1  2  1  0
  2  3  1  0
  3  4  1  0
  4  5  2  0
  5  6  1  0
  6  7  1  0
  7  8  2  0
  8  9  1  0
  9 10  2  0
 10 11  1  0
 11 12  2  0
  6 13  2  0
 13 14  1  0
 14 15  1  0
 15 16  1  0
 16 17  1  0
 17 18  1  0
 18 19  1  0
 19 20  1  0
 20 21  1  0
 21 22  1  0
 22 23  2  0
 23 24  1  0
 24 25  2  0
 25 26  1  0
 26 27  2  0
 27 28  1  0
 21 29  1  0
 29 30  1  0
 13 31  1  0
 31  4  1  0
 12  7  1  0
 30 18  1  0
 27 22  1  0
  1 32  1  0
  1 33  1  0
  1 34  1  0
  2 35  1  0
  2 36  1  0
  3 37  1  0
  3 38  1  0
  5 39  1  0
  8 40  1  0
  9 41  1  0
 10 42  1  0
 11 43  1  0
 12 44  1  0
 14 45  1  0
 14 46  1  0
 15 47  1  0
 16 48  1  0
 16 49  1  0
 17 50  1  0
 17 51  1  0
 19 52  1  0
 19 53  1  0
 20 54  1  0
 20 55  1  0
 23 56  1  0
 24 57  1  0
 25 58  1  0
 26 59  1  0
 29 60  1  0
 29 61  1  0
 30 62  1  0
 30 63  1  0
M  CHG  1   5   1
M  END
>  <UniqueID>  (43) 
41

>  <SMILES>  (43) 
CCCc1[nH+]c(-c2ccccc2)c(CNCCN2CCN(c3ccccc3F)CC2)o1

>  <Energy>  (43) 
106.79011218558949

>  <Genealogy>  (43) 
CCCc1[nH+]c(-c2ccccc2)c(CNCCN2CCN(c3ccccc3F)CC2)o1 (protonated)
CCCc1[nH+]c(-c2ccccc2)c(CNCCN2CCN(c3ccccc3F)CC2)o1 (3D coordinates assigned)
CCCc1[nH+]c(-c2ccccc2)c(CNCCN2CCN(c3ccccc3F)CC2)o1 (nonaromatic ring conformer: 106.79011218558949 kcal/mol)

>  <smiles>  (43) 
CCCc1nc(-c2ccccc2)c(CNCCN2CCN(c3ccccc3F)CC2)o1

>  <score_type>  (43) 
oracle

>  <origin>  (43) 
adg

>  <m_score__min__energy>  (43) 
-8.8699999999999992

>  <m_primary>  (43) 
energy

$$$$
43:0
     RDKit          3D

 50 53  0  0  0  0  0  0  0  0999 V2000
   -4.1870   24.8700  -26.5380 C   0  0  0  0  0  0  0  0  0  0  0  0
   -3.6690   24.2050  -27.8120 C   0  0  0  0  0  0  0  0  0  0  0  0
   -4.4660   22.9410  -28.1780 C   0  0  0  0  0  0  0  0  0  0  0  0
   -5.0450   23.0110  -29.5380 N   0  0  0  0  0  0  0  0  0  0  0  0
   -4.1840   22.3190  -30.5320 C   0  0  0  0  0  0  0  0  0  0  0  0
   -4.5030   22.7130  -31.9900 C   0  0  0  0  0  0  0  0  0  0  0  0
   -5.9220   23.2850  -32.1440 C   0  0  0  0  0  0  0  0  0  0  0  0
   -6.9660   22.2050  -31.9380 C   0  0  0  0  0  0  0  0  0  0  0  0
   -8.1700   22.2890  -31.2350 C   0  0  0  0  0  0  0  0  0  0  0  0
   -8.7910   21.0900  -31.2090 N   0  0  0  0  0  0  0  0  0  0  0  0
   -7.9930   20.2390  -31.8800 C   0  0  0  0  0  0  0  0  0  0  0  0
   -8.2020   18.8750  -32.1120 C   0  0  0  0  0  0  0  0  0  0  0  0
   -9.4280   18.1790  -31.5990 C   0  0  0  0  0  0  0  0  0  0  0  0
   -7.2100   18.1750  -32.8300 C   0  0  0  0  0  0  0  0  0  0  0  0
   -6.0430   18.8350  -33.3020 C   0  0  0  0  0  0  0  0  0  0  0  0
   -5.0370   18.1070  -34.0310 N   0  0  0  0  0  0  0  0  0  0  0  0
   -5.0800   17.7140  -35.3200 C   0  0  0  0  0  0  0  0  0  0  0  0
   -3.9580   17.0510  -35.6730 N   0  0  0  0  0  0  0  0  0  0  0  0
   -3.2350   17.0610  -34.5320 C   0  0  0  0  0  0  0  0  0  0  0  0
   -3.8800   17.6980  -33.5410 N   0  0  0  0  0  0  0  0  0  0  0  0
   -5.8760   20.2140  -33.0460 C   0  0  0  0  0  0  0  0  0  0  0  0
   -6.8720   20.8830  -32.3340 C   0  0  0  0  0  0  0  0  0  0  0  0
   -6.1120   24.5070  -31.2130 C   0  0  0  0  0  0  0  0  0  0  0  0
   -5.2730   24.4180  -29.9230 C   0  0  0  0  0  0  0  0  0  0  0  0
   -3.7798   24.3473  -25.6599 H   0  0  0  0  0  0  0  0  0  0  0  0
   -3.8685   25.9227  -26.5183 H   0  0  0  0  0  0  0  0  0  0  0  0
   -5.2856   24.8189  -26.5183 H   0  0  0  0  0  0  0  0  0  0  0  0
   -3.7449   24.9233  -28.6416 H   0  0  0  0  0  0  0  0  0  0  0  0
   -2.6259   23.9046  -27.6339 H   0  0  0  0  0  0  0  0  0  0  0  0
   -3.7935   22.0721  -28.1250 H   0  0  0  0  0  0  0  0  0  0  0  0
   -5.2982   22.8519  -27.4643 H   0  0  0  0  0  0  0  0  0  0  0  0
   -3.1344   22.5730  -30.3226 H   0  0  0  0  0  0  0  0  0  0  0  0
   -4.3746   21.2400  -30.4353 H   0  0  0  0  0  0  0  0  0  0  0  0
   -3.7781   23.4727  -32.3176 H   0  0  0  0  0  0  0  0  0  0  0  0
   -4.4386   21.8036  -32.6056 H   0  0  0  0  0  0  0  0  0  0  0  0
   -6.0591   23.6475  -33.1735 H   0  0  0  0  0  0  0  0  0  0  0  0
   -8.5588   23.2054  -30.7670 H   0  0  0  0  0  0  0  0  0  0  0  0
   -9.7020   20.8750  -30.7470 H   0  0  0  0  0  0  0  0  0  0  0  0
   -9.4192   18.1840  -30.4990 H   0  0  0  0  0  0  0  0  0  0  0  0
  -10.3253   18.7024  -31.9609 H   0  0  0  0  0  0  0  0  0  0  0  0
   -9.4384   17.1403  -31.9609 H   0  0  0  0  0  0  0  0  0  0  0  0
   -7.3417   17.1010  -33.0279 H   0  0  0  0  0  0  0  0  0  0  0  0
   -5.9233   17.9090  -35.9988 H   0  0  0  0  0  0  0  0  0  0  0  0
   -2.2401   16.6036  -34.4273 H   0  0  0  0  0  0  0  0  0  0  0  0
   -3.5460   17.8200  -32.5600 H   0  0  0  0  0  0  0  0  0  0  0  0
   -4.9817   20.7479  -33.3997 H   0  0  0  0  0  0  0  0  0  0  0  0
   -5.8173   25.4142  -31.7609 H   0  0  0  0  0  0  0  0  0  0  0  0
   -7.1707   24.5324  -30.9156 H   0  0  0  0  0  0  0  0  0  0  0  0
   -4.3021   24.9073  -30.0905 H   0  0  0  0  0  0  0  0  0  0  0  0
   -5.8215   24.9195  -29.1121 H   0  0  0  0  0  0  0  0  0  0  0  0
  1  2  1  0
  2  3  1  0
  3  4  1  0
  4  5  1  0
  5  6  1  0
  6  7  1  0
  7  8  1  0
  8  9  2  0
  9 10  1  0
 10 11  1  0
 11 12  2  0
 12 13  1  0
 12 14  1  0
 14 15  2  0
 15 16  1  0
 16 17  1  0
 17 18  2  0
 18 19  1  0
 19 20  2  0
 15 21  1  0
 21 22  2  0
  7 23  1  0
 23 24  1  0
 24  4  1  0
 22  8  1  0
 22 11  1  0
 20 16  1  0
  1 25  1  0
  1 26  1  0
  1 27  1  0
  2 28  1  0
  2 29  1  0
  3 30  1  0
  3 31  1  0
  5 32  1  0
  5 33  1  0
  6 34  1  0
  6 35  1  0
  7 36  1  0
  9 37  1  0
 10 38  1  0
 13 39  1  0
 13 40  1  0
 13 41  1  0
 14 42  1  0
 17 43  1  0
 19 44  1  0
 20 45  1  0
 21 46  1  0
 23 47  1  0
 23 48  1  0
 24 49  1  0
 24 50  1  0
M  CHG  1  20   1
M  END
>  <UniqueID>  (44) 
42

>  <SMILES>  (44) 
CCCN1CCC(c2c[nH]c3c(C)cc(-n4cnc[nH+]4)cc23)CC1

>  <Energy>  (44) 
123.9485088991093

>  <Genealogy>  (44) 
CCCN1CCC(c2c[nH]c3c(C)cc(-n4cnc[nH+]4)cc23)CC1 (protonated)
CCCN1CCC(c2c[nH]c3c(C)cc(-n4cnc[nH+]4)cc23)CC1 (3D coordinates assigned)
CCCN1CCC(c2c[nH]c3c(C)cc(-n4cnc[nH+]4)cc23)CC1 (nonaromatic ring conformer: 123.9485088991093 kcal/mol)

>  <smiles>  (44) 
CCCN1CCC(c2c[nH]c3c(C)cc(-n4cncn4)cc23)CC1

>  <score_type>  (44) 
oracle

>  <origin>  (44) 
adg

>  <m_score__min__energy>  (44) 
-7.8799999999999999

>  <m_primary>  (44) 
energy

$$$$
44:0
     RDKit          3D

 48 50  0  0  0  0  0  0  0  0999 V2000
   -3.9070   25.3020  -30.8440 O   0  0  0  0  0  0  0  0  0  0  0  0
   -3.3380   24.7040  -29.8930 C   0  0  0  0  0  0  0  0  0  0  0  0
   -3.9280   23.4210  -29.3680 C   0  0  0  0  0  0  0  0  0  0  0  0
   -4.9060   22.8070  -30.3770 C   0  0  0  0  0  0  0  0  0  0  0  0
   -6.0480   23.7260  -30.5930 N   0  0  0  0  0  0  0  0  0  0  0  0
   -6.4560   23.8080  -32.0180 C   0  0  0  0  0  0  0  0  0  0  0  0
   -7.5590   22.7960  -32.3950 C   0  0  0  0  0  0  0  0  0  0  0  0
   -7.5370   21.6600  -31.4620 N   0  0  0  0  0  0  0  0  0  0  0  0
   -8.3130   20.4890  -31.9280 C   0  0  0  0  0  0  0  0  0  0  0  0
   -7.4770   19.4300  -32.6180 C   0  0  0  0  0  0  0  0  0  0  0  0
   -7.6580   18.0690  -32.3140 C   0  0  0  0  0  0  0  0  0  0  0  0
   -6.8880   17.0940  -32.9550 C   0  0  0  0  0  0  0  0  0  0  0  0
   -5.9380   17.4670  -33.9080 C   0  0  0  0  0  0  0  0  0  0  0  0
   -5.7600   18.8160  -34.2270 C   0  0  0  0  0  0  0  0  0  0  0  0
   -6.5290   19.7940  -33.5890 C   0  0  0  0  0  0  0  0  0  0  0  0
   -7.8740   22.0780  -30.0860 C   0  0  0  0  0  0  0  0  0  0  0  0
   -7.1960   23.4160  -29.7170 C   0  0  0  0  0  0  0  0  0  0  0  0
   -2.1690   25.2950  -29.3080 N   0  0  0  0  0  0  0  0  0  0  0  0
   -1.5510   24.9110  -28.0720 C   0  0  0  0  0  0  0  0  0  0  0  0
   -1.9790   25.4380  -26.8400 C   0  0  0  0  0  0  0  0  0  0  0  0
   -1.3760   25.0210  -25.6500 C   0  0  0  0  0  0  0  0  0  0  0  0
   -0.3580   24.0640  -25.6780 C   0  0  0  0  0  0  0  0  0  0  0  0
    0.0530   23.5170  -26.8970 C   0  0  0  0  0  0  0  0  0  0  0  0
    1.0320   22.5800  -26.9230 F   0  0  0  0  0  0  0  0  0  0  0  0
   -0.5490   23.9320  -28.0890 C   0  0  0  0  0  0  0  0  0  0  0  0
   -3.1155   22.7052  -29.1745 H   0  0  0  0  0  0  0  0  0  0  0  0
   -4.4774   23.6437  -28.4414 H   0  0  0  0  0  0  0  0  0  0  0  0
   -4.3872   22.6386  -31.3322 H   0  0  0  0  0  0  0  0  0  0  0  0
   -5.2796   21.8499  -29.9840 H   0  0  0  0  0  0  0  0  0  0  0  0
   -6.8305   24.8231  -32.2164 H   0  0  0  0  0  0  0  0  0  0  0  0
   -5.5709   23.5675  -32.6253 H   0  0  0  0  0  0  0  0  0  0  0  0
   -8.5403   23.2905  -32.3443 H   0  0  0  0  0  0  0  0  0  0  0  0
   -7.3795   22.4289  -33.4163 H   0  0  0  0  0  0  0  0  0  0  0  0
   -8.8026   20.0296  -31.0566 H   0  0  0  0  0  0  0  0  0  0  0  0
   -9.0332   20.8603  -32.6719 H   0  0  0  0  0  0  0  0  0  0  0  0
   -8.4092   17.7701  -31.5681 H   0  0  0  0  0  0  0  0  0  0  0  0
   -7.0307   16.0316  -32.7083 H   0  0  0  0  0  0  0  0  0  0  0  0
   -5.3296   16.6989  -34.4078 H   0  0  0  0  0  0  0  0  0  0  0  0
   -5.0142   19.1086  -34.9807 H   0  0  0  0  0  0  0  0  0  0  0  0
   -6.3911   20.8540  -33.8486 H   0  0  0  0  0  0  0  0  0  0  0  0
   -8.9647   22.1962  -30.0057 H   0  0  0  0  0  0  0  0  0  0  0  0
   -7.5109   21.3051  -29.3926 H   0  0  0  0  0  0  0  0  0  0  0  0
   -7.9370   24.2240  -29.8066 H   0  0  0  0  0  0  0  0  0  0  0  0
   -6.8182   23.3278  -28.6877 H   0  0  0  0  0  0  0  0  0  0  0  0
   -2.7904   26.1802  -26.8131 H   0  0  0  0  0  0  0  0  0  0  0  0
   -1.7032   25.4468  -24.6900 H   0  0  0  0  0  0  0  0  0  0  0  0
    0.1197   23.7413  -24.7412 H   0  0  0  0  0  0  0  0  0  0  0  0
   -0.2343   23.4876  -29.0447 H   0  0  0  0  0  0  0  0  0  0  0  0
  1  2  2  0
  2  3  1  0
  3  4  1  0
  4  5  1  0
  5  6  1  0
  6  7  1  0
  7  8  1  0
  8  9  1  0
  9 10  1  0
 10 11  2  0
 11 12  1  0
 12 13  2  0
 13 14  1  0
 14 15  2  0
  8 16  1  0
 16 17  1  0
  2 18  1  0
 18 19  1  0
 19 20  2  0
 20 21  1  0
 21 22  2  0
 22 23  1  0
 23 24  1  0
 23 25  2  0
 17  5  1  0
 25 19  1  0
 15 10  1  0
  3 26  1  0
  3 27  1  0
  4 28  1  0
  4 29  1  0
  6 30  1  0
  6 31  1  0
  7 32  1  0
  7 33  1  0
  9 34  1  0
  9 35  1  0
 11 36  1  0
 12 37  1  0
 13 38  1  0
 14 39  1  0
 15 40  1  0
 16 41  1  0
 16 42  1  0
 17 43  1  0
 17 44  1  0
 20 45  1  0
 21 46  1  0
 22 47  1  0
 25 48  1  0
M  CHG  1  18  -1
M  END
>  <UniqueID>  (45) 
43

>  <SMILES>  (45) 
O=C(CCN1CCN(Cc2ccccc2)CC1)[N-]c1cccc(F)c1

>  <Energy>  (45) 
66.38355956790335

>  <Genealogy>  (45) 
O=C(CCN1CCN(Cc2ccccc2)CC1)[N-]c1cccc(F)c1 (protonated)
O=C(CCN1CCN(Cc2ccccc2)CC1)[N-]c1cccc(F)c1 (3D coordinates assigned)
O=C(CCN1CCN(Cc2ccccc2)CC1)[N-]c1cccc(F)c1 (nonaromatic ring conformer: 66.38355956790335 kcal/mol)

>  <smiles>  (45) 
O=C(CCN1CCN(Cc2ccccc2)CC1)Nc1cccc(F)c1

>  <score_type>  (45) 
oracle

>  <origin>  (45) 
adg

>  <m_score__min__energy>  (45) 
-10.619999999999999

>  <m_primary>  (45) 
energy

$$$$
45:0
     RDKit          3D

 65 67  0  0  0  0  0  0  0  0999 V2000
   -2.5800   18.4140  -33.3140 C   0  0  0  0  0  0  0  0  0  0  0  0
   -1.1880   18.8580  -33.7640 C   0  0  0  0  0  0  0  0  0  0  0  0
   -0.6560   19.9560  -32.9230 N   0  0  0  0  0  0  0  0  0  0  0  0
    0.4760   20.6460  -33.5830 C   0  0  0  0  0  0  0  0  0  0  0  0
   -0.0320   21.5230  -34.7240 C   0  0  0  0  0  0  0  0  0  0  0  0
   -0.3310   19.5540  -31.5310 C   0  0  0  0  0  0  0  0  0  0  0  0
   -0.5990   20.6490  -30.4780 C   0  0  0  0  0  0  0  0  0  0  0  0
   -1.0530   21.8860  -31.1190 N   0  0  0  0  0  0  0  0  0  0  0  0
   -2.4470   22.1790  -31.3440 C   0  0  0  0  0  0  0  0  0  0  0  0
   -3.1860   21.4210  -32.2670 C   0  0  0  0  0  0  0  0  0  0  0  0
   -4.5610   21.6130  -32.4410 C   0  0  0  0  0  0  0  0  0  0  0  0
   -5.2200   22.6250  -31.7020 C   0  0  0  0  0  0  0  0  0  0  0  0
   -4.4760   23.4010  -30.7970 C   0  0  0  0  0  0  0  0  0  0  0  0
   -3.0980   23.1940  -30.6080 C   0  0  0  0  0  0  0  0  0  0  0  0
   -2.3500   24.0510  -29.7190 N   0  0  0  0  0  0  0  0  0  0  0  0
   -2.8870   24.5410  -28.4470 C   0  0  0  0  0  0  0  0  0  0  0  0
   -1.7420   24.8900  -27.4730 C   0  0  0  0  0  0  0  0  0  0  0  0
   -0.4150   25.0290  -28.1130 N   0  0  0  0  0  0  0  0  0  0  0  0
    0.2830   23.7440  -28.2780 C   0  0  0  0  0  0  0  0  0  0  0  0
    0.4440   26.0190  -27.4430 C   0  0  0  0  0  0  0  0  0  0  0  0
   -6.6580   22.9500  -31.8780 C   0  0  0  0  0  0  0  0  0  0  0  0
   -7.0310   24.1520  -31.7890 O   0  0  0  0  0  0  0  0  0  0  0  0
   -7.6420   21.9280  -32.0890 N   0  0  0  0  0  0  0  0  0  0  0  0
   -9.0710   22.1780  -32.0040 C   0  0  0  0  0  0  0  0  0  0  0  0
   -9.7220   20.8050  -31.9220 C   0  0  0  0  0  0  0  0  0  0  0  0
   -8.6730   19.8180  -32.4250 C   0  0  0  0  0  0  0  0  0  0  0  0
   -7.3240   20.5230  -32.2440 C   0  0  1  0  0  0  0  0  0  0  0  0
   -6.4140   20.3380  -33.4250 C   0  0  0  0  0  0  0  0  0  0  0  0
   -5.2070   20.8160  -33.4480 N   0  0  0  0  0  0  0  0  0  0  0  0
   -2.6230   18.4003  -32.2149 H   0  0  0  0  0  0  0  0  0  0  0  0
   -3.3322   19.1168  -33.7016 H   0  0  0  0  0  0  0  0  0  0  0  0
   -2.7863   17.4055  -33.7016 H   0  0  0  0  0  0  0  0  0  0  0  0
   -0.5037   17.9990  -33.7010 H   0  0  0  0  0  0  0  0  0  0  0  0
   -1.2673   19.2290  -34.7965 H   0  0  0  0  0  0  0  0  0  0  0  0
    0.9972   21.2748  -32.8462 H   0  0  0  0  0  0  0  0  0  0  0  0
    1.1663   19.8926  -33.9903 H   0  0  0  0  0  0  0  0  0  0  0  0
   -0.5427   22.4046  -34.3094 H   0  0  0  0  0  0  0  0  0  0  0  0
    0.8174   21.8484  -35.3425 H   0  0  0  0  0  0  0  0  0  0  0  0
   -0.7369   20.9481  -35.3425 H   0  0  0  0  0  0  0  0  0  0  0  0
   -0.9386   18.6734  -31.2754 H   0  0  0  0  0  0  0  0  0  0  0  0
    0.7493   19.3482  -31.5053 H   0  0  0  0  0  0  0  0  0  0  0  0
   -1.3747   20.2978  -29.7816 H   0  0  0  0  0  0  0  0  0  0  0  0
    0.3362   20.8546  -29.9366 H   0  0  0  0  0  0  0  0  0  0  0  0
   -0.3350   22.5740  -31.4420 H   0  0  0  0  0  0  0  0  0  0  0  0
   -2.6709   20.6573  -32.8682 H   0  0  0  0  0  0  0  0  0  0  0  0
   -4.9839   24.1896  -30.2224 H   0  0  0  0  0  0  0  0  0  0  0  0
   -1.3840   24.3430  -29.9930 H   0  0  0  0  0  0  0  0  0  0  0  0
   -3.4911   25.4414  -28.6324 H   0  0  0  0  0  0  0  0  0  0  0  0
   -3.5079   23.7525  -27.9967 H   0  0  0  0  0  0  0  0  0  0  0  0
   -1.9877   25.8424  -26.9805 H   0  0  0  0  0  0  0  0  0  0  0  0
   -1.6634   24.0497  -26.7675 H   0  0  0  0  0  0  0  0  0  0  0  0
    0.5124   23.3217  -27.2886 H   0  0  0  0  0  0  0  0  0  0  0  0
   -0.3601   23.0462  -28.8344 H   0  0  0  0  0  0  0  0  0  0  0  0
    1.2184   23.9036  -28.8344 H   0  0  0  0  0  0  0  0  0  0  0  0
    0.3486   25.9091  -26.3527 H   0  0  0  0  0  0  0  0  0  0  0  0
    1.4910   25.8553  -27.7378 H   0  0  0  0  0  0  0  0  0  0  0  0
    0.1343   27.0325  -27.7378 H   0  0  0  0  0  0  0  0  0  0  0  0
   -9.3049   22.7682  -31.1057 H   0  0  0  0  0  0  0  0  0  0  0  0
   -9.4363   22.7509  -32.8691 H   0  0  0  0  0  0  0  0  0  0  0  0
   -9.9988   20.5736  -30.8829 H   0  0  0  0  0  0  0  0  0  0  0  0
  -10.6436   20.7570  -32.5207 H   0  0  0  0  0  0  0  0  0  0  0  0
   -8.7039   18.8905  -31.8344 H   0  0  0  0  0  0  0  0  0  0  0  0
   -8.8481   19.5371  -33.4740 H   0  0  0  0  0  0  0  0  0  0  0  0
   -6.7885   20.1037  -31.3795 H   0  0  0  0  0  0  0  0  0  0  0  0
   -6.7821   19.7796  -34.2983 H   0  0  0  0  0  0  0  0  0  0  0  0
  1  2  1  0
  2  3  1  0
  3  4  1  0
  4  5  1  0
  3  6  1  0
  6  7  1  0
  7  8  1  0
  8  9  1  0
  9 10  2  0
 10 11  1  0
 11 12  2  0
 12 13  1  0
 13 14  2  0
 14 15  1  0
 15 16  1  0
 16 17  1  0
 17 18  1  0
 18 19  1  0
 18 20  1  0
 12 21  1  0
 21 22  2  0
 21 23  1  0
 23 24  1  0
 24 25  1  0
 25 26  1  0
 26 27  1  0
 27 28  1  0
 28 29  2  0
 14  9  1  0
 27 23  1  0
 29 11  1  0
  1 30  1  0
  1 31  1  0
  1 32  1  0
  2 33  1  0
  2 34  1  0
  4 35  1  0
  4 36  1  0
  5 37  1  0
  5 38  1  0
  5 39  1  0
  6 40  1  0
  6 41  1  0
  7 42  1  0
  7 43  1  0
  8 44  1  0
 10 45  1  0
 13 46  1  0
 15 47  1  0
 16 48  1  0
 16 49  1  0
 17 50  1  0
 17 51  1  0
 19 52  1  0
 19 53  1  0
 19 54  1  0
 20 55  1  0
 20 56  1  0
 20 57  1  0
 24 58  1  0
 24 59  1  0
 25 60  1  0
 25 61  1  0
 26 62  1  0
 26 63  1  0
 27 64  1  1
 28 65  1  0
M  END
>  <UniqueID>  (46) 
44

>  <SMILES>  (46) 
CCN(CC)CCNc1cc2c(cc1NCCN(C)C)C(=O)N1CCC[C@H]1C=N2

>  <Energy>  (46) 
81.53861397013645

>  <Genealogy>  (46) 
CCN(CC)CCNc1cc2c(cc1NCCN(C)C)C(=O)N1CCC[C@H]1C=N2 (chirality)
CCN(CC)CCNc1cc2c(cc1NCCN(C)C)C(=O)N1CCC[C@H]1C=N2 (3D coordinates assigned)
CCN(CC)CCNc1cc2c(cc1NCCN(C)C)C(=O)N1CCC[C@H]1C=N2 (nonaromatic ring conformer: 81.53861397013645 kcal/mol)

>  <smiles>  (46) 
CCN(CC)CCNc1cc2c(cc1NCCN(C)C)C(=O)N1CCCC1C=N2

>  <score_type>  (46) 
oracle

>  <origin>  (46) 
adg

>  <m_score__min__energy>  (46) 
-6.2400000000000002

>  <m_primary>  (46) 
energy

$$$$
46:0
     RDKit          3D

 60 62  0  0  0  0  0  0  0  0999 V2000
   -4.5530   14.5460  -32.4160 C   0  0  0  0  0  0  0  0  0  0  0  0
   -4.4580   15.9340  -32.8820 N   0  0  0  0  0  0  0  0  0  0  0  0
   -5.6930   16.3600  -33.5010 C   0  0  0  0  0  0  0  0  0  0  0  0
   -6.6490   15.2310  -34.2240 S   0  0  0  0  0  0  0  0  0  0  0  0
   -6.1970   17.7050  -33.3080 N   0  0  0  0  0  0  0  0  0  0  0  0
   -6.9970   18.0180  -32.1030 C   0  0  0  0  0  0  0  0  0  0  0  0
   -8.3920   18.5720  -32.4360 C   0  0  0  0  0  0  0  0  0  0  0  0
   -8.3840   20.0770  -32.7670 C   0  0  0  0  0  0  0  0  0  0  0  0
   -8.7720   20.9360  -31.6260 N   0  0  0  0  0  0  0  0  0  0  0  0
   -9.8120   21.9440  -31.9260 C   0  0  0  0  0  0  0  0  0  0  0  0
   -9.2280   23.3230  -32.3300 C   0  0  0  0  0  0  0  0  0  0  0  0
   -7.8370   23.4460  -32.0970 O   0  0  0  0  0  0  0  0  0  0  0  0
   -7.5180   22.9520  -30.8180 C   0  0  0  0  0  0  0  0  0  0  0  0
   -7.6430   21.4220  -30.8010 C   0  0  0  0  0  0  0  0  0  0  0  0
   -5.5770   18.8160  -34.0620 C   0  0  0  0  0  0  0  0  0  0  0  0
   -4.6740   19.6680  -33.1970 C   0  0  0  0  0  0  0  0  0  0  0  0
   -5.0400   20.9900  -32.8960 C   0  0  0  0  0  0  0  0  0  0  0  0
   -4.2400   21.7720  -32.0560 C   0  0  0  0  0  0  0  0  0  0  0  0
   -4.6080   23.0810  -31.7160 C   0  0  0  0  0  0  0  0  0  0  0  0
   -3.8050   23.8400  -30.8430 C   0  0  0  0  0  0  0  0  0  0  0  0
   -4.1400   25.1550  -30.4780 O   0  0  0  0  0  0  0  0  0  0  0  0
   -5.4710   25.6270  -30.2920 C   0  0  0  0  0  0  0  0  0  0  0  0
   -2.6300   23.2820  -30.3110 C   0  0  0  0  0  0  0  0  0  0  0  0
   -1.8640   24.0590  -29.4260 O   0  0  0  0  0  0  0  0  0  0  0  0
   -2.1410   24.2150  -28.0410 C   0  0  0  0  0  0  0  0  0  0  0  0
   -2.2530   21.9720  -30.6720 C   0  0  0  0  0  0  0  0  0  0  0  0
   -3.0510   21.2220  -31.5400 C   0  0  0  0  0  0  0  0  0  0  0  0
   -2.6800   19.9620  -31.8920 N   0  0  0  0  0  0  0  0  0  0  0  0
   -3.4410   19.1870  -32.7110 C   0  0  0  0  0  0  0  0  0  0  0  0
   -3.0240   18.0440  -33.0330 O   0  0  0  0  0  0  0  0  0  0  0  0
   -4.5542   14.5278  -31.3162 H   0  0  0  0  0  0  0  0  0  0  0  0
   -5.4840   14.0961  -32.7912 H   0  0  0  0  0  0  0  0  0  0  0  0
   -3.6919   13.9735  -32.7912 H   0  0  0  0  0  0  0  0  0  0  0  0
   -4.2330   16.5390  -32.0570 H   0  0  0  0  0  0  0  0  0  0  0  0
   -3.6720   16.0380  -33.5590 H   0  0  0  0  0  0  0  0  0  0  0  0
   -7.1170   17.0974  -31.5129 H   0  0  0  0  0  0  0  0  0  0  0  0
   -6.4584   18.7969  -31.5433 H   0  0  0  0  0  0  0  0  0  0  0  0
   -8.7872   18.0250  -33.3047 H   0  0  0  0  0  0  0  0  0  0  0  0
   -9.0193   18.4370  -31.5426 H   0  0  0  0  0  0  0  0  0  0  0  0
   -7.3690   20.3580  -33.0846 H   0  0  0  0  0  0  0  0  0  0  0  0
   -9.1295   20.2372  -33.5599 H   0  0  0  0  0  0  0  0  0  0  0  0
  -10.4321   21.5707  -32.7544 H   0  0  0  0  0  0  0  0  0  0  0  0
  -10.3971   22.0935  -31.0066 H   0  0  0  0  0  0  0  0  0  0  0  0
   -9.4147   23.4776  -33.4030 H   0  0  0  0  0  0  0  0  0  0  0  0
   -9.7254   24.0773  -31.7026 H   0  0  0  0  0  0  0  0  0  0  0  0
   -6.4860   23.2362  -30.5645 H   0  0  0  0  0  0  0  0  0  0  0  0
   -8.2139   23.3798  -30.0813 H   0  0  0  0  0  0  0  0  0  0  0  0
   -6.7099   20.9875  -31.1891 H   0  0  0  0  0  0  0  0  0  0  0  0
   -7.8314   21.1137  -29.7620 H   0  0  0  0  0  0  0  0  0  0  0  0
   -4.9821   18.3949  -34.8859 H   0  0  0  0  0  0  0  0  0  0  0  0
   -6.3866   19.4595  -34.4367 H   0  0  0  0  0  0  0  0  0  0  0  0
   -5.9611   21.4131  -33.3232 H   0  0  0  0  0  0  0  0  0  0  0  0
   -5.5278   23.5172  -32.1328 H   0  0  0  0  0  0  0  0  0  0  0  0
   -5.6860   25.7032  -29.2159 H   0  0  0  0  0  0  0  0  0  0  0  0
   -5.5773   26.6176  -30.7582 H   0  0  0  0  0  0  0  0  0  0  0  0
   -6.1776   24.9246  -30.7582 H   0  0  0  0  0  0  0  0  0  0  0  0
   -1.3317   23.7592  -27.4516 H   0  0  0  0  0  0  0  0  0  0  0  0
   -2.2121   25.2858  -27.7996 H   0  0  0  0  0  0  0  0  0  0  0  0
   -3.0936   23.7207  -27.7996 H   0  0  0  0  0  0  0  0  0  0  0  0
   -1.3262   21.5384  -30.2683 H   0  0  0  0  0  0  0  0  0  0  0  0
  1  2  1  0
  2  3  1  0
  3  4  2  0
  3  5  1  0
  5  6  1  0
  6  7  1  0
  7  8  1  0
  8  9  1  0
  9 10  1  0
 10 11  1  0
 11 12  1  0
 12 13  1  0
 13 14  1  0
  5 15  1  0
 15 16  1  0
 16 17  2  0
 17 18  1  0
 18 19  2  0
 19 20  1  0
 20 21  1  0
 21 22  1  0
 20 23  2  0
 23 24  1  0
 24 25  1  0
 23 26  1  0
 26 27  2  0
 27 28  1  0
 28 29  1  0
 29 30  2  0
 14  9  1  0
 29 16  1  0
 27 18  1  0
  1 31  1  0
  1 32  1  0
  1 33  1  0
  2 34  1  0
  2 35  1  0
  6 36  1  0
  6 37  1  0
  7 38  1  0
  7 39  1  0
  8 40  1  0
  8 41  1  0
 10 42  1  0
 10 43  1  0
 11 44  1  0
 11 45  1  0
 13 46  1  0
 13 47  1  0
 14 48  1  0
 14 49  1  0
 15 50  1  0
 15 51  1  0
 17 52  1  0
 19 53  1  0
 22 54  1  0
 22 55  1  0
 22 56  1  0
 25 57  1  0
 25 58  1  0
 25 59  1  0
 26 60  1  0
M  CHG  2   2   1  28  -1
M  END
>  <UniqueID>  (47) 
45

>  <SMILES>  (47) 
C[NH2+]C(=S)N(CCCN1CCOCC1)Cc1cc2cc(OC)c(OC)cc2[n-]c1=O

>  <Energy>  (47) 
80.25245770338363

>  <Genealogy>  (47) 
C[NH2+]C(=S)N(CCCN1CCOCC1)Cc1cc2cc(OC)c(OC)cc2[n-]c1=O (protonated)
C[NH2+]C(=S)N(CCCN1CCOCC1)Cc1cc2cc(OC)c(OC)cc2[n-]c1=O (3D coordinates assigned)
C[NH2+]C(=S)N(CCCN1CCOCC1)Cc1cc2cc(OC)c(OC)cc2[n-]c1=O (nonaromatic ring conformer: 80.25245770338363 kcal/mol)

>  <smiles>  (47) 
CNC(=S)N(CCCN1CCOCC1)Cc1cc2cc(OC)c(OC)cc2[nH]c1=O

>  <score_type>  (47) 
oracle

>  <origin>  (47) 
adg

>  <m_score__min__energy>  (47) 
-9.3599999999999994

>  <m_primary>  (47) 
energy

$$$$
47:0
     RDKit          3D

 42 44  0  0  0  0  0  0  0  0999 V2000
   -5.0190   18.8050  -33.8180 C   0  0  0  0  0  0  0  0  0  0  0  0
   -6.5300   18.8530  -33.6210 C   0  0  0  0  0  0  0  0  0  0  0  0
   -6.9100   19.9470  -32.6590 C   0  0  0  0  0  0  0  0  0  0  0  0
   -5.9580   20.8410  -32.2810 N   0  0  0  0  0  0  0  0  0  0  0  0
   -6.2370   21.8720  -31.4370 C   0  0  0  0  0  0  0  0  0  0  0  0
   -5.2010   22.8050  -31.0660 N   0  0  0  0  0  0  0  0  0  0  0  0
   -5.3680   24.2290  -31.4080 C   0  0  0  0  0  0  0  0  0  0  0  0
   -5.1060   25.1780  -30.2200 C   0  0  0  0  0  0  0  0  0  0  0  0
   -3.7810   25.1440  -29.7130 O   0  0  0  0  0  0  0  0  0  0  0  0
   -3.5810   24.2650  -28.6120 C   0  0  2  0  0  0  0  0  0  0  0  0
   -2.1160   24.3120  -28.2120 C   0  0  0  0  0  0  0  0  0  0  0  0
   -1.1520   23.7710  -29.0880 C   0  0  0  0  0  0  0  0  0  0  0  0
    0.2060   23.8140  -28.7680 C   0  0  0  0  0  0  0  0  0  0  0  0
    0.6270   24.4040  -27.5770 C   0  0  0  0  0  0  0  0  0  0  0  0
   -0.3090   24.9580  -26.7040 C   0  0  0  0  0  0  0  0  0  0  0  0
   -1.6760   24.9220  -27.0110 C   0  0  0  0  0  0  0  0  0  0  0  0
   -2.7860   25.6640  -25.8610 Cl  0  0  0  0  0  0  0  0  0  0  0  0
   -3.9960   22.7880  -28.8620 C   0  0  0  0  0  0  0  0  0  0  0  0
   -3.9990   22.3460  -30.3430 C   0  0  0  0  0  0  0  0  0  0  0  0
   -7.5050   22.0210  -30.9660 N   0  0  0  0  0  0  0  0  0  0  0  0
   -8.4940   21.1630  -31.3210 C   0  0  0  0  0  0  0  0  0  0  0  0
   -8.2240   20.1000  -32.1840 C   0  0  0  0  0  0  0  0  0  0  0  0
   -9.5300   19.0120  -32.6410 Cl  0  0  0  0  0  0  0  0  0  0  0  0
   -4.5216   18.7892  -32.8370 H   0  0  0  0  0  0  0  0  0  0  0  0
   -4.7511   17.8979  -34.3796 H   0  0  0  0  0  0  0  0  0  0  0  0
   -4.6940   19.6933  -34.3796 H   0  0  0  0  0  0  0  0  0  0  0  0
   -7.0142   19.0413  -34.5906 H   0  0  0  0  0  0  0  0  0  0  0  0
   -6.8621   17.8893  -33.2075 H   0  0  0  0  0  0  0  0  0  0  0  0
   -4.6643   24.4787  -32.2158 H   0  0  0  0  0  0  0  0  0  0  0  0
   -6.4158   24.3698  -31.7119 H   0  0  0  0  0  0  0  0  0  0  0  0
   -5.3204   26.2055  -30.5489 H   0  0  0  0  0  0  0  0  0  0  0  0
   -5.7594   24.8391  -29.4026 H   0  0  0  0  0  0  0  0  0  0  0  0
   -4.2446   24.6244  -27.8118 H   0  0  0  0  0  0  0  0  0  0  0  0
   -1.4738   23.3102  -30.0336 H   0  0  0  0  0  0  0  0  0  0  0  0
    0.9460   23.3812  -29.4573 H   0  0  0  0  0  0  0  0  0  0  0  0
    1.6976   24.4326  -27.3258 H   0  0  0  0  0  0  0  0  0  0  0  0
    0.0281   25.4266  -25.7677 H   0  0  0  0  0  0  0  0  0  0  0  0
   -3.2948   22.1405  -28.3152 H   0  0  0  0  0  0  0  0  0  0  0  0
   -5.0365   22.7009  -28.5158 H   0  0  0  0  0  0  0  0  0  0  0  0
   -3.1091   22.7625  -30.8375 H   0  0  0  0  0  0  0  0  0  0  0  0
   -3.9951   21.2462  -30.3642 H   0  0  0  0  0  0  0  0  0  0  0  0
   -9.5113   21.3055  -30.9276 H   0  0  0  0  0  0  0  0  0  0  0  0
  1  2  1  0
  2  3  1  0
  3  4  2  0
  4  5  1  0
  5  6  1  0
  6  7  1  0
  7  8  1  0
  8  9  1  0
  9 10  1  0
 10 11  1  0
 11 12  2  0
 12 13  1  0
 13 14  2  0
 14 15  1  0
 15 16  2  0
 16 17  1  0
 10 18  1  0
 18 19  1  0
  5 20  2  0
 20 21  1  0
 21 22  2  0
 22 23  1  0
 22  3  1  0
 19  6  1  0
 16 11  1  0
  1 24  1  0
  1 25  1  0
  1 26  1  0
  2 27  1  0
  2 28  1  0
  7 29  1  0
  7 30  1  0
  8 31  1  0
  8 32  1  0
 10 33  1  1
 12 34  1  0
 13 35  1  0
 14 36  1  0
 15 37  1  0
 18 38  1  0
 18 39  1  0
 19 40  1  0
 19 41  1  0
 21 42  1  0
M  END
>  <UniqueID>  (48) 
46

>  <SMILES>  (48) 
CCc1nc(N2CCO[C@H](c3ccccc3Cl)CC2)ncc1Cl

>  <Energy>  (48) 
60.00096055077758

>  <Genealogy>  (48) 
CCc1nc(N2CCO[C@H](c3ccccc3Cl)CC2)ncc1Cl (chirality)
CCc1nc(N2CCO[C@H](c3ccccc3Cl)CC2)ncc1Cl (3D coordinates assigned)
CCc1nc(N2CCO[C@H](c3ccccc3Cl)CC2)ncc1Cl (nonaromatic ring conformer: 60.00096055077758 kcal/mol)

>  <smiles>  (48) 
CCc1nc(N2CCOC(c3ccccc3Cl)CC2)ncc1Cl

>  <score_type>  (48) 
oracle

>  <origin>  (48) 
adg

>  <m_score__min__energy>  (48) 
-5.79

>  <m_primary>  (48) 
energy

$$$$
