0:0
     RDKit          3D

 52 54  0  0  0  0  0  0  0  0999 V2000
   -9.4490   22.6980  -32.0060 C   0  0  0  0  0  0  0  0  0  0  0  0
   -9.6430   21.1890  -31.8800 C   0  0  0  0  0  0  0  0  0  0  0  0
   -8.4240   20.4540  -32.3370 C   0  0  0  0  0  0  0  0  0  0  0  0
   -7.2420   21.0620  -32.5920 N   0  0  0  0  0  0  0  0  0  0  0  0
   -6.2900   20.1650  -32.9690 C   0  0  0  0  0  0  0  0  0  0  0  0
   -4.9740   20.5060  -33.2950 C   0  0  0  0  0  0  0  0  0  0  0  0
   -4.5600   21.8950  -33.2430 N   0  0  0  0  0  0  0  0  0  0  0  0
   -3.5030   22.0760  -32.2350 C   0  0  0  0  0  0  0  0  0  0  0  0
   -4.0720   22.6550  -30.9280 C   0  0  0  0  0  0  0  0  0  0  0  0
   -4.9680   23.8000  -31.2030 N   0  0  0  0  0  0  0  0  0  0  0  0
   -4.5700   25.0940  -30.5950 C   0  0  0  0  0  0  0  0  0  0  0  0
   -5.7500   25.9390  -30.1070 C   0  0  0  0  0  0  0  0  0  0  0  0
   -6.4250   23.5100  -31.2260 C   0  0  0  0  0  0  0  0  0  0  0  0
   -6.9570   22.8140  -29.9630 C   0  0  0  0  0  0  0  0  0  0  0  0
   -4.0780   19.4490  -33.6270 C   0  0  0  0  0  0  0  0  0  0  0  0
   -2.7170   19.6980  -33.9120 C   0  0  0  0  0  0  0  0  0  0  0  0
   -1.8480   18.6570  -34.2260 C   0  0  0  0  0  0  0  0  0  0  0  0
   -2.3090   17.3450  -34.2630 C   0  0  0  0  0  0  0  0  0  0  0  0
   -3.6450   17.0620  -33.9830 C   0  0  0  0  0  0  0  0  0  0  0  0
   -4.5580   18.0940  -33.6520 C   0  0  0  0  0  0  0  0  0  0  0  0
   -5.8800   17.8110  -33.3510 N   0  0  0  0  0  0  0  0  0  0  0  0
   -6.3980   16.4310  -33.4020 C   0  0  0  0  0  0  0  0  0  0  0  0
   -6.7060   18.8450  -33.0060 C   0  0  0  0  0  0  0  0  0  0  0  0
   -8.3320   18.7820  -32.5460 S   0  0  0  0  0  0  0  0  0  0  0  0
   -9.3915   23.1453  -31.0027 H   0  0  0  0  0  0  0  0  0  0  0  0
   -8.5170   22.9035  -32.5530 H   0  0  0  0  0  0  0  0  0  0  0  0
  -10.2987   23.1325  -32.5530 H   0  0  0  0  0  0  0  0  0  0  0  0
   -9.8413   20.9381  -30.8275 H   0  0  0  0  0  0  0  0  0  0  0  0
  -10.4915   20.8899  -32.5129 H   0  0  0  0  0  0  0  0  0  0  0  0
   -5.3710   22.5070  -33.0050 H   0  0  0  0  0  0  0  0  0  0  0  0
   -4.2390   22.2110  -34.1860 H   0  0  0  0  0  0  0  0  0  0  0  0
   -3.0388   21.1015  -32.0233 H   0  0  0  0  0  0  0  0  0  0  0  0
   -2.7596   22.7821  -32.6335 H   0  0  0  0  0  0  0  0  0  0  0  0
   -4.6393   21.8716  -30.4041 H   0  0  0  0  0  0  0  0  0  0  0  0
   -3.2354   23.0053  -30.3056 H   0  0  0  0  0  0  0  0  0  0  0  0
   -3.9143   24.8862  -29.7366 H   0  0  0  0  0  0  0  0  0  0  0  0
   -4.0651   25.6744  -31.3812 H   0  0  0  0  0  0  0  0  0  0  0  0
   -5.7638   25.9489  -29.0071 H   0  0  0  0  0  0  0  0  0  0  0  0
   -5.6440   26.9678  -30.4816 H   0  0  0  0  0  0  0  0  0  0  0  0
   -6.6898   25.5073  -30.4816 H   0  0  0  0  0  0  0  0  0  0  0  0
   -6.9628   24.4620  -31.3459 H   0  0  0  0  0  0  0  0  0  0  0  0
   -6.5919   22.8132  -32.0607 H   0  0  0  0  0  0  0  0  0  0  0  0
   -6.5664   23.3250  -29.0706 H   0  0  0  0  0  0  0  0  0  0  0  0
   -8.0562   22.8549  -29.9572 H   0  0  0  0  0  0  0  0  0  0  0  0
   -6.6291   21.7640  -29.9572 H   0  0  0  0  0  0  0  0  0  0  0  0
   -2.3382   20.7304  -33.8854 H   0  0  0  0  0  0  0  0  0  0  0  0
   -0.7920   18.8727  -34.4459 H   0  0  0  0  0  0  0  0  0  0  0  0
   -1.6168   16.5278  -34.5141 H   0  0  0  0  0  0  0  0  0  0  0  0
   -3.9963   16.0203  -34.0196 H   0  0  0  0  0  0  0  0  0  0  0  0
   -6.5394   16.0544  -32.3782 H   0  0  0  0  0  0  0  0  0  0  0  0
   -7.3613   16.4203  -33.9329 H   0  0  0  0  0  0  0  0  0  0  0  0
   -5.6796   15.7891  -33.9329 H   0  0  0  0  0  0  0  0  0  0  0  0
  1  2  1  0
  2  3  1  0
  3  4  2  0
  4  5  1  0
  5  6  2  0
  6  7  1  0
  7  8  1  0
  8  9  1  0
  9 10  1  0
 10 11  1  0
 11 12  1  0
 10 13  1  0
 13 14  1  0
  6 15  1  0
 15 16  2  0
 16 17  1  0
 17 18  2  0
 18 19  1  0
 19 20  2  0
 20 21  1  0
 21 22  1  0
 21 23  2  0
 23 24  1  0
 24  3  1  0
 23  5  1  0
 20 15  1  0
  1 25  1  0
  1 26  1  0
  1 27  1  0
  2 28  1  0
  2 29  1  0
  7 30  1  0
  7 31  1  0
  8 32  1  0
  8 33  1  0
  9 34  1  0
  9 35  1  0
 11 36  1  0
 11 37  1  0
 12 38  1  0
 12 39  1  0
 12 40  1  0
 13 41  1  0
 13 42  1  0
 14 43  1  0
 14 44  1  0
 14 45  1  0
 16 46  1  0
 17 47  1  0
 18 48  1  0
 19 49  1  0
 22 50  1  0
 22 51  1  0
 22 52  1  0
M  CHG  2   7   1  21   1
M  END
>  <UniqueID>  (1) 
1

>  <SMILES>  (1) 
CCc1nc2c([NH2+]CCN(CC)CC)c3ccccc3[n+](C)c2s1

>  <Energy>  (1) 
101.41632333368123

>  <Genealogy>  (1) 
CCc1nc2c([NH2+]CCN(CC)CC)c3ccccc3[n+](C)c2s1 (protonated)
CCc1nc2c([NH2+]CCN(CC)CC)c3ccccc3[n+](C)c2s1 (3D coordinates assigned)
CCc1nc2c([NH2+]CCN(CC)CC)c3ccccc3[n+](C)c2s1 (optimized conformer: 101.41632333368123 kcal/mol)

>  <smiles>  (1) 
CCc1nc2c(NCCN(CC)CC)c3ccccc3[n+](C)c2s1

>  <score_type>  (1) 
oracle

>  <origin>  (1) 
adg

>  <m_score__min__energy>  (1) 
-7.8600000000000003

>  <m_primary>  (1) 
energy

$$$$
1:0
     RDKit          3D

 66 69  0  0  0  0  0  0  0  0999 V2000
   -0.0860   19.5490  -35.1410 C   0  0  0  0  0  0  0  0  0  0  0  0
   -0.5300   20.8750  -34.6820 N   0  0  0  0  0  0  0  0  0  0  0  0
    0.3270   21.9110  -35.2840 C   0  0  0  0  0  0  0  0  0  0  0  0
   -0.4890   20.9410  -33.2030 C   0  0  0  0  0  0  0  0  0  0  0  0
   -1.8770   20.7170  -32.5910 C   0  0  0  0  0  0  0  0  0  0  0  0
   -2.9310   20.8560  -33.5950 N   0  0  0  0  0  0  0  0  0  0  0  0
   -4.2720   20.4420  -33.2990 C   0  0  0  0  0  0  0  0  0  0  0  0
   -4.7170   19.1720  -33.6990 C   0  0  0  0  0  0  0  0  0  0  0  0
   -3.8710   18.3070  -34.4260 C   0  0  0  0  0  0  0  0  0  0  0  0
   -4.3290   17.0670  -34.8630 C   0  0  0  0  0  0  0  0  0  0  0  0
   -5.6360   16.6740  -34.5960 C   0  0  0  0  0  0  0  0  0  0  0  0
   -6.4840   17.5050  -33.8630 C   0  0  0  0  0  0  0  0  0  0  0  0
   -6.0340   18.7560  -33.3680 C   0  0  0  0  0  0  0  0  0  0  0  0
   -6.8420   19.5680  -32.5940 N   0  0  0  0  0  0  0  0  0  0  0  0
   -8.0860   19.0250  -32.0050 C   0  0  0  0  0  0  0  0  0  0  0  0
   -6.4750   20.8780  -32.3490 C   0  0  0  0  0  0  0  0  0  0  0  0
   -7.3830   21.8160  -31.7990 C   0  0  0  0  0  0  0  0  0  0  0  0
   -6.9860   23.1190  -31.5130 C   0  0  0  0  0  0  0  0  0  0  0  0
   -5.6860   23.5440  -31.7730 C   0  0  0  0  0  0  0  0  0  0  0  0
   -5.3420   24.8610  -31.4250 O   0  0  0  0  0  0  0  0  0  0  0  0
   -5.1330   25.3480  -30.1010 C   0  0  0  0  0  0  0  0  0  0  0  0
   -5.2840   24.2440  -29.0220 C   0  0  0  0  0  0  0  0  0  0  0  0
   -4.0510   23.8770  -28.2440 N   0  0  0  0  0  0  0  0  0  0  0  0
   -3.9980   24.5810  -26.9400 C   0  0  0  0  0  0  0  0  0  0  0  0
   -2.8560   24.2190  -29.0550 C   0  0  0  0  0  0  0  0  0  0  0  0
   -2.5790   23.0360  -29.9780 C   0  0  0  0  0  0  0  0  0  0  0  0
   -3.2700   21.8520  -29.3230 C   0  0  0  0  0  0  0  0  0  0  0  0
   -3.9140   22.4130  -28.0620 C   0  0  0  0  0  0  0  0  0  0  0  0
   -4.7830   22.6500  -32.3720 C   0  0  0  0  0  0  0  0  0  0  0  0
   -5.1650   21.3240  -32.6680 C   0  0  0  0  0  0  0  0  0  0  0  0
    0.1273   18.9120  -34.2700 H   0  0  0  0  0  0  0  0  0  0  0  0
   -0.8784   19.0868  -35.7480 H   0  0  0  0  0  0  0  0  0  0  0  0
    0.8249   19.6572  -35.7480 H   0  0  0  0  0  0  0  0  0  0  0  0
    0.8104   22.4954  -34.4873 H   0  0  0  0  0  0  0  0  0  0  0  0
    1.0973   21.4331  -35.9071 H   0  0  0  0  0  0  0  0  0  0  0  0
   -0.2868   22.5781  -35.9071 H   0  0  0  0  0  0  0  0  0  0  0  0
    0.1956   20.1652  -32.8296 H   0  0  0  0  0  0  0  0  0  0  0  0
   -0.1416   21.9433  -32.9121 H   0  0  0  0  0  0  0  0  0  0  0  0
   -1.9207   19.7042  -32.1639 H   0  0  0  0  0  0  0  0  0  0  0  0
   -2.0386   21.4763  -31.8117 H   0  0  0  0  0  0  0  0  0  0  0  0
   -2.6940   21.0940  -34.5860 H   0  0  0  0  0  0  0  0  0  0  0  0
   -2.8392   18.6158  -34.6496 H   0  0  0  0  0  0  0  0  0  0  0  0
   -3.6566   16.3977  -35.4198 H   0  0  0  0  0  0  0  0  0  0  0  0
   -6.0027   15.7044  -34.9640 H   0  0  0  0  0  0  0  0  0  0  0  0
   -7.5178   17.1850  -33.6658 H   0  0  0  0  0  0  0  0  0  0  0  0
   -8.0159   19.0556  -30.9077 H   0  0  0  0  0  0  0  0  0  0  0  0
   -8.9428   19.6310  -32.3347 H   0  0  0  0  0  0  0  0  0  0  0  0
   -8.2242   17.9847  -32.3347 H   0  0  0  0  0  0  0  0  0  0  0  0
   -8.4194   21.5094  -31.5945 H   0  0  0  0  0  0  0  0  0  0  0  0
   -7.7094   23.8227  -31.0755 H   0  0  0  0  0  0  0  0  0  0  0  0
   -4.1173   25.7654  -30.0366 H   0  0  0  0  0  0  0  0  0  0  0  0
   -5.9014   26.1100  -29.9040 H   0  0  0  0  0  0  0  0  0  0  0  0
   -6.0416   24.5857  -28.3014 H   0  0  0  0  0  0  0  0  0  0  0  0
   -5.5514   23.3342  -29.5795 H   0  0  0  0  0  0  0  0  0  0  0  0
   -4.0534   23.8456  -26.1238 H   0  0  0  0  0  0  0  0  0  0  0  0
   -3.0551   25.1424  -26.8644 H   0  0  0  0  0  0  0  0  0  0  0  0
   -4.8463   25.2772  -26.8644 H   0  0  0  0  0  0  0  0  0  0  0  0
   -3.0515   25.1230  -29.6504 H   0  0  0  0  0  0  0  0  0  0  0  0
   -1.9898   24.4178  -28.4068 H   0  0  0  0  0  0  0  0  0  0  0  0
   -2.9962   23.2212  -30.9788 H   0  0  0  0  0  0  0  0  0  0  0  0
   -1.5012   22.8615  -30.1119 H   0  0  0  0  0  0  0  0  0  0  0  0
   -4.0350   21.4328  -29.9931 H   0  0  0  0  0  0  0  0  0  0  0  0
   -2.5654   21.0380  -29.0975 H   0  0  0  0  0  0  0  0  0  0  0  0
   -4.9047   21.9590  -27.9126 H   0  0  0  0  0  0  0  0  0  0  0  0
   -3.2966   22.1889  -27.1796 H   0  0  0  0  0  0  0  0  0  0  0  0
   -3.7645   22.9880  -32.6136 H   0  0  0  0  0  0  0  0  0  0  0  0
  1  2  1  0
  2  3  1  0
  2  4  1  0
  4  5  1  0
  5  6  1  0
  6  7  1  0
  7  8  2  0
  8  9  1  0
  9 10  2  0
 10 11  1  0
 11 12  2  0
 12 13  1  0
 13 14  2  0
 14 15  1  0
 14 16  1  0
 16 17  2  0
 17 18  1  0
 18 19  2  0
 19 20  1  0
 20 21  1  0
 21 22  1  0
 22 23  1  0
 23 24  1  0
 23 25  1  0
 25 26  1  0
 26 27  1  0
 27 28  1  0
 19 29  1  0
 29 30  2  0
 30  7  1  0
 13  8  1  0
 30 16  1  0
 28 23  1  0
  1 31  1  0
  1 32  1  0
  1 33  1  0
  3 34  1  0
  3 35  1  0
  3 36  1  0
  4 37  1  0
  4 38  1  0
  5 39  1  0
  5 40  1  0
  6 41  1  0
  9 42  1  0
 10 43  1  0
 11 44  1  0
 12 45  1  0
 15 46  1  0
 15 47  1  0
 15 48  1  0
 17 49  1  0
 18 50  1  0
 21 51  1  0
 21 52  1  0
 22 53  1  0
 22 54  1  0
 24 55  1  0
 24 56  1  0
 24 57  1  0
 25 58  1  0
 25 59  1  0
 26 60  1  0
 26 61  1  0
 27 62  1  0
 27 63  1  0
 28 64  1  0
 28 65  1  0
 29 66  1  0
M  CHG  2  14   1  23   1
M  END
>  <UniqueID>  (2) 
2

>  <SMILES>  (2) 
CN(C)CCNc1c2ccccc2[n+](C)c2ccc(OCC[N+]3(C)CCCC3)cc12

>  <Energy>  (2) 
103.29830004659453

>  <Genealogy>  (2) 
CN(C)CCNc1c2ccccc2[n+](C)c2ccc(OCC[N+]3(C)CCCC3)cc12 (3D coordinates assigned)
CN(C)CCNc1c2ccccc2[n+](C)c2ccc(OCC[N+]3(C)CCCC3)cc12 (nonaromatic ring conformer: 103.29830004659453 kcal/mol)

>  <smiles>  (2) 
CN(C)CCNc1c2ccccc2[n+](C)c2ccc(OCC[N+]3(C)CCCC3)cc12

>  <score_type>  (2) 
oracle

>  <origin>  (2) 
adg

>  <m_score__min__energy>  (2) 
-7.5999999999999996

>  <m_primary>  (2) 
energy

$$$$
2:0
     RDKit          3D

 71 75  0  0  0  0  0  0  0  0999 V2000
   -6.1990   25.6780  -29.6900 C   0  0  0  0  0  0  0  0  0  0  0  0
   -4.9250   25.3170  -30.4710 C   0  0  0  0  0  0  0  0  0  0  0  0
   -5.0170   24.0850  -31.2990 N   0  0  0  0  0  0  0  0  0  0  0  0
   -6.3470   23.8520  -31.9060 C   0  0  0  0  0  0  0  0  0  0  0  0
   -7.2690   22.9770  -31.0530 C   0  0  0  0  0  0  0  0  0  0  0  0
   -4.3930   22.8630  -30.7470 C   0  0  0  0  0  0  0  0  0  0  0  0
   -3.1750   22.4450  -31.5780 C   0  0  0  0  0  0  0  0  0  0  0  0
   -3.5890   21.8940  -32.8680 N   0  0  0  0  0  0  0  0  0  0  0  0
   -3.1090   20.6200  -33.3220 C   0  0  0  0  0  0  0  0  0  0  0  0
   -1.8010   20.4770  -33.8290 C   0  0  0  0  0  0  0  0  0  0  0  0
   -0.8910   21.5520  -33.7790 C   0  0  0  0  0  0  0  0  0  0  0  0
    0.3770   21.4370  -34.3440 C   0  0  0  0  0  0  0  0  0  0  0  0
    0.7570   20.2570  -34.9750 C   0  0  0  0  0  0  0  0  0  0  0  0
   -0.1170   19.1700  -35.0220 C   0  0  0  0  0  0  0  0  0  0  0  0
   -1.4020   19.2370  -34.4250 C   0  0  0  0  0  0  0  0  0  0  0  0
   -2.2630   18.1470  -34.4310 N   0  0  0  0  0  0  0  0  0  0  0  0
   -1.7330   16.8050  -34.7210 C   0  0  0  0  0  0  0  0  0  0  0  0
   -3.5680   18.3400  -34.0260 C   0  0  0  0  0  0  0  0  0  0  0  0
   -3.9630   19.5230  -33.4220 C   0  0  0  0  0  0  0  0  0  0  0  0
   -5.2860   19.3610  -33.0590 C   0  0  0  0  0  0  0  0  0  0  0  0
   -6.1720   20.1850  -32.3580 C   0  0  0  0  0  0  0  0  0  0  0  0
   -7.4940   19.7450  -32.1890 C   0  0  0  0  0  0  0  0  0  0  0  0
   -7.9050   18.5050  -32.7140 C   0  0  0  0  0  0  0  0  0  0  0  0
   -6.9910   17.6820  -33.3930 C   0  0  0  0  0  0  0  0  0  0  0  0
   -5.6670   18.1230  -33.5290 C   0  0  0  0  0  0  0  0  0  0  0  0
   -4.6340   17.4770  -34.1330 N   0  0  0  0  0  0  0  0  0  0  0  0
   -4.7880   16.2470  -34.9290 C   0  0  0  0  0  0  0  0  0  0  0  0
   -4.7760   14.9950  -34.0340 C   0  0  0  0  0  0  0  0  0  0  0  0
   -4.1050   15.2850  -32.7460 N   0  0  0  0  0  0  0  0  0  0  0  0
   -4.9620   14.9390  -31.6000 C   0  0  0  0  0  0  0  0  0  0  0  0
   -4.6250   13.5190  -31.1650 C   0  0  0  0  0  0  0  0  0  0  0  0
   -3.3280   13.1740  -31.8700 C   0  0  0  0  0  0  0  0  0  0  0  0
   -2.9040   14.4550  -32.5690 C   0  0  0  0  0  0  0  0  0  0  0  0
   -5.9959   25.6205  -28.6104 H   0  0  0  0  0  0  0  0  0  0  0  0
   -6.5115   26.7000  -29.9504 H   0  0  0  0  0  0  0  0  0  0  0  0
   -7.0012   24.9718  -29.9504 H   0  0  0  0  0  0  0  0  0  0  0  0
   -4.6851   26.1581  -31.1381 H   0  0  0  0  0  0  0  0  0  0  0  0
   -4.1499   25.1198  -29.7158 H   0  0  0  0  0  0  0  0  0  0  0  0
   -6.8350   24.8262  -32.0571 H   0  0  0  0  0  0  0  0  0  0  0  0
   -6.1789   23.3151  -32.8512 H   0  0  0  0  0  0  0  0  0  0  0  0
   -7.0707   23.1652  -29.9875 H   0  0  0  0  0  0  0  0  0  0  0  0
   -8.3177   23.2200  -31.2793 H   0  0  0  0  0  0  0  0  0  0  0  0
   -7.0812   21.9170  -31.2793 H   0  0  0  0  0  0  0  0  0  0  0  0
   -4.0731   23.0581  -29.7128 H   0  0  0  0  0  0  0  0  0  0  0  0
   -5.1322   22.0489  -30.7745 H   0  0  0  0  0  0  0  0  0  0  0  0
   -2.5370   23.3244  -31.7498 H   0  0  0  0  0  0  0  0  0  0  0  0
   -2.6212   21.6712  -31.0262 H   0  0  0  0  0  0  0  0  0  0  0  0
   -4.3500   22.3680  -33.4030 H   0  0  0  0  0  0  0  0  0  0  0  0
   -1.1852   22.4917  -33.2887 H   0  0  0  0  0  0  0  0  0  0  0  0
    1.0797   22.2816  -34.2911 H   0  0  0  0  0  0  0  0  0  0  0  0
    1.7513   20.1803  -35.4392 H   0  0  0  0  0  0  0  0  0  0  0  0
    0.1958   18.2460  -35.5304 H   0  0  0  0  0  0  0  0  0  0  0  0
   -1.5259   16.2806  -33.7765 H   0  0  0  0  0  0  0  0  0  0  0  0
   -2.4738   16.2358  -35.3016 H   0  0  0  0  0  0  0  0  0  0  0  0
   -0.8031   16.8956  -35.3016 H   0  0  0  0  0  0  0  0  0  0  0  0
   -5.8418   21.1518  -31.9501 H   0  0  0  0  0  0  0  0  0  0  0  0
   -8.2135   20.3729  -31.6430 H   0  0  0  0  0  0  0  0  0  0  0  0
   -8.9483   18.1785  -32.5918 H   0  0  0  0  0  0  0  0  0  0  0  0
   -7.3069   16.7137  -33.8085 H   0  0  0  0  0  0  0  0  0  0  0  0
   -5.7434   16.2895  -35.4725 H   0  0  0  0  0  0  0  0  0  0  0  0
   -3.9432   16.1799  -35.6303 H   0  0  0  0  0  0  0  0  0  0  0  0
   -5.8115   14.6789  -33.8397 H   0  0  0  0  0  0  0  0  0  0  0  0
   -4.2257   14.1942  -34.5496 H   0  0  0  0  0  0  0  0  0  0  0  0
   -4.7744   15.6369  -30.7707 H   0  0  0  0  0  0  0  0  0  0  0  0
   -6.0224   15.0076  -31.8843 H   0  0  0  0  0  0  0  0  0  0  0  0
   -4.4931   13.4727  -30.0739 H   0  0  0  0  0  0  0  0  0  0  0  0
   -5.4284   12.8129  -31.4220 H   0  0  0  0  0  0  0  0  0  0  0  0
   -2.5648   12.8602  -31.1426 H   0  0  0  0  0  0  0  0  0  0  0  0
   -3.4525   12.3406  -32.5771 H   0  0  0  0  0  0  0  0  0  0  0  0
   -2.1655   14.9906  -31.9544 H   0  0  0  0  0  0  0  0  0  0  0  0
   -2.4442   14.2292  -33.5425 H   0  0  0  0  0  0  0  0  0  0  0  0
  1  2  1  0
  2  3  1  0
  3  4  1  0
  4  5  1  0
  3  6  1  0
  6  7  1  0
  7  8  1  0
  8  9  1  0
  9 10  2  0
 10 11  1  0
 11 12  2  0
 12 13  1  0
 13 14  2  0
 14 15  1  0
 15 16  2  0
 16 17  1  0
 16 18  1  0
 18 19  2  0
 19 20  1  0
 20 21  2  0
 21 22  1  0
 22 23  2  0
 23 24  1  0
 24 25  2  0
 25 26  1  0
 26 27  1  0
 27 28  1  0
 28 29  1  0
 29 30  1  0
 30 31  1  0
 31 32  1  0
 32 33  1  0
 19  9  1  0
 25 20  1  0
 33 29  1  0
 15 10  1  0
 26 18  1  0
  1 34  1  0
  1 35  1  0
  1 36  1  0
  2 37  1  0
  2 38  1  0
  4 39  1  0
  4 40  1  0
  5 41  1  0
  5 42  1  0
  5 43  1  0
  6 44  1  0
  6 45  1  0
  7 46  1  0
  7 47  1  0
  8 48  1  0
 11 49  1  0
 12 50  1  0
 13 51  1  0
 14 52  1  0
 17 53  1  0
 17 54  1  0
 17 55  1  0
 21 56  1  0
 22 57  1  0
 23 58  1  0
 24 59  1  0
 27 60  1  0
 27 61  1  0
 28 62  1  0
 28 63  1  0
 30 64  1  0
 30 65  1  0
 31 66  1  0
 31 67  1  0
 32 68  1  0
 32 69  1  0
 33 70  1  0
 33 71  1  0
M  CHG  1  16   1
M  END
>  <UniqueID>  (3) 
3

>  <SMILES>  (3) 
CCN(CC)CCNc1c2ccccc2[n+](C)c2c1c1ccccc1n2CCN1CCCC1

>  <Energy>  (3) 
147.23251169692398

>  <Genealogy>  (3) 
CCN(CC)CCNc1c2ccccc2[n+](C)c2c1c1ccccc1n2CCN1CCCC1 (3D coordinates assigned)
CCN(CC)CCNc1c2ccccc2[n+](C)c2c1c1ccccc1n2CCN1CCCC1 (nonaromatic ring conformer: 147.23251169692398 kcal/mol)

>  <smiles>  (3) 
CCN(CC)CCNc1c2ccccc2[n+](C)c2c1c1ccccc1n2CCN1CCCC1

>  <score_type>  (3) 
oracle

>  <origin>  (3) 
adg

>  <m_score__min__energy>  (3) 
-9.4900000000000002

>  <m_primary>  (3) 
energy

$$$$
3:0
     RDKit          3D

 45 46  0  0  0  0  0  0  0  0999 V2000
   -4.2390   25.6230  -30.7770 N   0  0  0  0  0  0  0  0  0  0  0  0
   -5.4840   24.9280  -30.7690 C   0  0  0  0  0  0  0  0  0  0  0  0
   -6.2890   25.0940  -29.8150 O   0  0  0  0  0  0  0  0  0  0  0  0
   -5.8470   24.0270  -31.9090 C   0  0  0  0  0  0  0  0  0  0  0  0
   -5.8210   22.5410  -31.5120 C   0  0  0  0  0  0  0  0  0  0  0  0
   -5.7840   21.5450  -32.7000 C   0  0  1  0  0  0  0  0  0  0  0  0
   -4.4230   20.8120  -32.8000 C   0  0  0  0  0  0  0  0  0  0  0  0
   -3.0220   21.8610  -32.4190 S   0  0  0  0  0  0  0  0  0  0  0  0
   -1.6900   21.5170  -33.3880 O   0  0  0  0  0  0  0  0  0  0  0  0
   -2.5940   21.9930  -30.7200 C   0  0  0  0  0  0  0  0  0  0  0  0
   -1.7520   21.0460  -30.1230 C   0  0  0  0  0  0  0  0  0  0  0  0
   -1.4570   21.1340  -28.7600 C   0  0  0  0  0  0  0  0  0  0  0  0
   -2.0080   22.1600  -27.9870 C   0  0  0  0  0  0  0  0  0  0  0  0
   -2.8520   23.1200  -28.5740 C   0  0  0  0  0  0  0  0  0  0  0  0
   -3.4630   24.1850  -27.7400 C   0  0  0  0  0  0  0  0  0  0  0  0
   -2.8270   24.5880  -26.5200 N   0  0  0  0  0  0  0  0  0  0  0  0
   -4.5720   24.7580  -28.1040 N   0  0  0  0  0  0  0  0  0  0  0  0
   -3.1310   23.0340  -29.9510 C   0  0  0  0  0  0  0  0  0  0  0  0
   -6.9530   20.5780  -32.5620 C   0  0  0  0  0  0  0  0  0  0  0  0
   -8.2070   21.0480  -32.1330 C   0  0  0  0  0  0  0  0  0  0  0  0
   -9.2800   20.1640  -31.9980 C   0  0  0  0  0  0  0  0  0  0  0  0
   -9.0890   18.8080  -32.2680 C   0  0  0  0  0  0  0  0  0  0  0  0
   -7.8630   18.3560  -32.6410 N   0  0  0  0  0  0  0  0  0  0  0  0
   -6.8020   19.1950  -32.7820 C   0  0  0  0  0  0  0  0  0  0  0  0
   -3.8560   26.0500  -29.9050 H   0  0  0  0  0  0  0  0  0  0  0  0
   -6.8598   24.2832  -32.2533 H   0  0  0  0  0  0  0  0  0  0  0  0
   -5.1019   24.1751  -32.7045 H   0  0  0  0  0  0  0  0  0  0  0  0
   -4.9273   22.3686  -30.8944 H   0  0  0  0  0  0  0  0  0  0  0  0
   -6.7641   22.3489  -30.9795 H   0  0  0  0  0  0  0  0  0  0  0  0
   -5.8881   22.1000  -33.6440 H   0  0  0  0  0  0  0  0  0  0  0  0
   -4.4287   19.9678  -32.0948 H   0  0  0  0  0  0  0  0  0  0  0  0
   -4.3076   20.4812  -33.8427 H   0  0  0  0  0  0  0  0  0  0  0  0
   -1.9010   21.9210  -34.2650 H   0  0  0  0  0  0  0  0  0  0  0  0
   -1.3230   20.2330  -30.7272 H   0  0  0  0  0  0  0  0  0  0  0  0
   -0.7895   20.3941  -28.2942 H   0  0  0  0  0  0  0  0  0  0  0  0
   -1.7800   22.2171  -26.9124 H   0  0  0  0  0  0  0  0  0  0  0  0
   -3.2210   25.3660  -25.9440 H   0  0  0  0  0  0  0  0  0  0  0  0
   -1.9900   24.0800  -26.1550 H   0  0  0  0  0  0  0  0  0  0  0  0
   -5.4950   24.3320  -27.8680 H   0  0  0  0  0  0  0  0  0  0  0  0
   -4.5780   25.6680  -28.6180 H   0  0  0  0  0  0  0  0  0  0  0  0
   -3.7747   23.7888  -30.4264 H   0  0  0  0  0  0  0  0  0  0  0  0
   -8.3433   22.1150  -31.9030 H   0  0  0  0  0  0  0  0  0  0  0  0
  -10.2667   20.5332  -31.6817 H   0  0  0  0  0  0  0  0  0  0  0  0
   -9.9307   18.1054  -32.1789 H   0  0  0  0  0  0  0  0  0  0  0  0
   -5.8201   18.7911  -33.0696 H   0  0  0  0  0  0  0  0  0  0  0  0
  1  2  1  0
  2  3  2  0
  2  4  1  0
  4  5  1  0
  5  6  1  0
  6  7  1  0
  7  8  1  0
  8  9  1  6
  8 10  1  0
 10 11  2  0
 11 12  1  0
 12 13  2  0
 13 14  1  0
 14 15  1  0
 15 16  1  0
 15 17  2  0
 14 18  2  0
  6 19  1  0
 19 20  2  0
 20 21  1  0
 21 22  2  0
 22 23  1  0
 23 24  2  0
 18 10  1  0
 24 19  1  0
  1 25  1  0
  4 26  1  0
  4 27  1  0
  5 28  1  0
  5 29  1  0
  6 30  1  6
  7 31  1  0
  7 32  1  0
  9 33  1  0
 11 34  1  0
 12 35  1  0
 13 36  1  0
 16 37  1  0
 16 38  1  0
 17 39  1  0
 17 40  1  0
 18 41  1  0
 20 42  1  0
 21 43  1  0
 22 44  1  0
 24 45  1  0
M  CHG  3   1  -1   8   1  17   1
M  END
>  <UniqueID>  (4) 
4

>  <SMILES>  (4) 
[NH-]C(=O)CC[C@@H](C[S@+](O)c1cccc(C(N)=[NH2+])c1)c1cccnc1

>  <Energy>  (4) 
38.951202752513375

>  <Genealogy>  (4) 
[NH-]C(=O)CCC(C[S+](O)c1cccc(C(N)=[NH2+])c1)c1cccnc1 (protonated)
[NH-]C(=O)CC[C@@H](C[S@+](O)c1cccc(C(N)=[NH2+])c1)c1cccnc1 (chirality)
[NH-]C(=O)CC[C@@H](C[S@+](O)c1cccc(C(N)=[NH2+])c1)c1cccnc1 (3D coordinates assigned)
[NH-]C(=O)CC[C@@H](C[S@+](O)c1cccc(C(N)=[NH2+])c1)c1cccnc1 (optimized conformer: 38.951202752513375 kcal/mol)

>  <smiles>  (4) 
N=C(N)c1cccc([S+]([O-])CC(CCC(N)=O)c2cccnc2)c1

>  <score_type>  (4) 
oracle

>  <origin>  (4) 
adg

>  <m_score__min__energy>  (4) 
-9.8900000000000006

>  <m_primary>  (4) 
energy

$$$$
4:0
     RDKit          3D

 51 52  0  0  0  0  0  0  0  0999 V2000
   -3.0210   25.2980  -26.0000 C   0  0  0  0  0  0  0  0  0  0  0  0
   -3.2650   24.4370  -27.2460 C   0  0  0  0  0  0  0  0  0  0  0  0
   -2.0830   24.3060  -28.1340 N   0  0  0  0  0  0  0  0  0  0  0  0
   -1.3100   25.5650  -28.2280 C   0  0  0  0  0  0  0  0  0  0  0  0
   -0.0450   25.4730  -27.3810 C   0  0  0  0  0  0  0  0  0  0  0  0
   -2.3890   23.7500  -29.4760 C   0  0  0  0  0  0  0  0  0  0  0  0
   -3.8940   23.7250  -29.7630 C   0  0  0  0  0  0  0  0  0  0  0  0
   -4.1950   24.6610  -30.7780 O   0  0  0  0  0  0  0  0  0  0  0  0
   -5.3690   25.3870  -30.4610 C   0  0  0  0  0  0  0  0  0  0  0  0
   -6.6130   24.5150  -30.6390 C   0  0  0  0  0  0  0  0  0  0  0  0
   -6.2800   23.3560  -31.4010 O   0  0  0  0  0  0  0  0  0  0  0  0
   -7.1760   22.3350  -31.7530 C   0  0  0  0  0  0  0  0  0  0  0  0
   -8.5410   22.4410  -31.4210 C   0  0  0  0  0  0  0  0  0  0  0  0
   -9.4320   21.4130  -31.7170 C   0  0  0  0  0  0  0  0  0  0  0  0
   -8.9820   20.2560  -32.3420 C   0  0  0  0  0  0  0  0  0  0  0  0
   -7.6380   20.1250  -32.6970 C   0  0  0  0  0  0  0  0  0  0  0  0
   -7.2320   18.9770  -33.3000 N   0  0  0  0  0  0  0  0  0  0  0  0
   -5.9480   18.7740  -33.6820 C   0  0  0  0  0  0  0  0  0  0  0  0
   -5.5590   17.4740  -34.3130 C   0  0  0  0  0  0  0  0  0  0  0  0
   -4.9930   19.7650  -33.4550 C   0  0  0  0  0  0  0  0  0  0  0  0
   -5.3570   20.9770  -32.8490 C   0  0  0  0  0  0  0  0  0  0  0  0
   -4.2830   22.0240  -32.6890 C   0  0  0  0  0  0  0  0  0  0  0  0
   -6.7090   21.1700  -32.4300 C   0  0  0  0  0  0  0  0  0  0  0  0
   -3.1923   24.6934  -25.0972 H   0  0  0  0  0  0  0  0  0  0  0  0
   -1.9837   25.6641  -26.0047 H   0  0  0  0  0  0  0  0  0  0  0  0
   -3.7120   26.1539  -26.0047 H   0  0  0  0  0  0  0  0  0  0  0  0
   -3.5631   23.4305  -26.9172 H   0  0  0  0  0  0  0  0  0  0  0  0
   -4.0471   24.9421  -27.8319 H   0  0  0  0  0  0  0  0  0  0  0  0
   -1.0321   25.7429  -29.2774 H   0  0  0  0  0  0  0  0  0  0  0  0
   -1.9299   26.3945  -27.8569 H   0  0  0  0  0  0  0  0  0  0  0  0
   -0.3153   25.4927  -26.3149 H   0  0  0  0  0  0  0  0  0  0  0  0
    0.4812   24.5342  -27.6086 H   0  0  0  0  0  0  0  0  0  0  0  0
    0.6115   26.3258  -27.6086 H   0  0  0  0  0  0  0  0  0  0  0  0
   -1.8934   24.3699  -30.2376 H   0  0  0  0  0  0  0  0  0  0  0  0
   -2.0228   22.7131  -29.5033 H   0  0  0  0  0  0  0  0  0  0  0  0
   -4.1876   22.7179  -30.0940 H   0  0  0  0  0  0  0  0  0  0  0  0
   -4.4464   23.9855  -28.8481 H   0  0  0  0  0  0  0  0  0  0  0  0
   -5.3124   25.7252  -29.4158 H   0  0  0  0  0  0  0  0  0  0  0  0
   -5.4436   26.2495  -31.1396 H   0  0  0  0  0  0  0  0  0  0  0  0
   -6.9894   24.2084  -29.6519 H   0  0  0  0  0  0  0  0  0  0  0  0
   -7.3888   25.0888  -31.1670 H   0  0  0  0  0  0  0  0  0  0  0  0
   -8.9082   23.3492  -30.9206 H   0  0  0  0  0  0  0  0  0  0  0  0
  -10.4954   21.5168  -31.4554 H   0  0  0  0  0  0  0  0  0  0  0  0
   -9.6876   19.4402  -32.5579 H   0  0  0  0  0  0  0  0  0  0  0  0
   -5.3383   16.7365  -33.5272 H   0  0  0  0  0  0  0  0  0  0  0  0
   -6.3868   17.1075  -34.9378 H   0  0  0  0  0  0  0  0  0  0  0  0
   -4.6659   17.6224  -34.9378 H   0  0  0  0  0  0  0  0  0  0  0  0
   -3.9478   19.5952  -33.7530 H   0  0  0  0  0  0  0  0  0  0  0  0
   -4.1007   22.2017  -31.6189 H   0  0  0  0  0  0  0  0  0  0  0  0
   -3.3556   21.6738  -33.1657 H   0  0  0  0  0  0  0  0  0  0  0  0
   -4.6095   22.9600  -33.1657 H   0  0  0  0  0  0  0  0  0  0  0  0
  1  2  1  0
  2  3  1  0
  3  4  1  0
  4  5  1  0
  3  6  1  0
  6  7  1  0
  7  8  1  0
  8  9  1  0
  9 10  1  0
 10 11  1  0
 11 12  1  0
 12 13  2  0
 13 14  1  0
 14 15  2  0
 15 16  1  0
 16 17  2  0
 17 18  1  0
 18 19  1  0
 18 20  2  0
 20 21  1  0
 21 22  1  0
 21 23  2  0
 23 12  1  0
 23 16  1  0
  1 24  1  0
  1 25  1  0
  1 26  1  0
  2 27  1  0
  2 28  1  0
  4 29  1  0
  4 30  1  0
  5 31  1  0
  5 32  1  0
  5 33  1  0
  6 34  1  0
  6 35  1  0
  7 36  1  0
  7 37  1  0
  9 38  1  0
  9 39  1  0
 10 40  1  0
 10 41  1  0
 13 42  1  0
 14 43  1  0
 15 44  1  0
 19 45  1  0
 19 46  1  0
 19 47  1  0
 20 48  1  0
 22 49  1  0
 22 50  1  0
 22 51  1  0
M  END
>  <UniqueID>  (5) 
5

>  <SMILES>  (5) 
CCN(CC)CCOCCOc1cccc2nc(C)cc(C)c12

>  <Energy>  (5) 
52.999232855052504

>  <Genealogy>  (5) 
CCN(CC)CCOCCOc1cccc2nc(C)cc(C)c12 (3D coordinates assigned)
CCN(CC)CCOCCOc1cccc2nc(C)cc(C)c12 (optimized conformer: 52.999232855052504 kcal/mol)

>  <smiles>  (5) 
CCN(CC)CCOCCOc1cccc2nc(C)cc(C)c12

>  <score_type>  (5) 
oracle

>  <origin>  (5) 
adg

>  <m_score__min__energy>  (5) 
-8.2400000000000002

>  <m_primary>  (5) 
energy

$$$$
5:0
     RDKit          3D

 59 58  0  0  0  0  0  0  0  0999 V2000
   -0.5980   22.4050  -25.9040 C   0  0  0  0  0  0  0  0  0  0  0  0
   -0.1140   23.7950  -26.2960 C   0  0  0  0  0  0  0  0  0  0  0  0
   -1.0700   24.8220  -25.8240 N   0  0  0  0  0  0  0  0  0  0  0  0
   -0.6430   25.3870  -24.5250 C   0  0  0  0  0  0  0  0  0  0  0  0
   -1.2120   26.7890  -24.3460 C   0  0  0  0  0  0  0  0  0  0  0  0
   -1.2710   25.8850  -26.8400 C   0  0  0  0  0  0  0  0  0  0  0  0
   -1.1160   25.3130  -28.2530 C   0  0  0  0  0  0  0  0  0  0  0  0
   -2.3810   25.0980  -28.8500 O   0  0  0  0  0  0  0  0  0  0  0  0
   -3.2830   24.5350  -27.9190 C   0  0  0  0  0  0  0  0  0  0  0  0
   -3.2850   23.0140  -28.0680 C   0  0  0  0  0  0  0  0  0  0  0  0
   -3.9270   22.6190  -29.2800 O   0  0  0  0  0  0  0  0  0  0  0  0
   -3.2490   22.4300  -30.4900 C   0  0  0  0  0  0  0  0  0  0  0  0
   -2.8420   23.4180  -31.1650 O   0  0  0  0  0  0  0  0  0  0  0  0
   -3.0340   21.0380  -31.0010 C   0  0  0  0  0  0  0  0  0  0  0  0
   -3.9870   20.7090  -32.1560 C   0  0  0  0  0  0  0  0  0  0  0  0
   -4.2570   21.9330  -33.0520 C   0  0  0  0  0  0  0  0  0  0  0  0
   -5.2450   22.8460  -32.4510 N   0  0  0  0  0  0  0  0  0  0  0  0
   -6.4470   22.1520  -31.9650 C   0  0  0  0  0  0  0  0  0  0  0  0
   -7.1990   23.0150  -30.9520 C   0  0  0  0  0  0  0  0  0  0  0  0
   -6.2400   23.7010  -30.0740 N   0  0  0  0  0  0  0  0  0  0  0  0
   -6.6150   25.1070  -29.8380 C   0  0  0  0  0  0  0  0  0  0  0  0
   -5.5690   26.0490  -30.4450 C   0  0  0  0  0  0  0  0  0  0  0  0
   -4.3550   25.3040  -30.7770 N   0  0  0  0  0  0  0  0  0  0  0  0
   -0.6267   22.3225  -24.8075 H   0  0  0  0  0  0  0  0  0  0  0  0
   -1.6066   22.2397  -26.3107 H   0  0  0  0  0  0  0  0  0  0  0  0
    0.0898   21.6490  -26.3107 H   0  0  0  0  0  0  0  0  0  0  0  0
    0.8704   23.9786  -25.8408 H   0  0  0  0  0  0  0  0  0  0  0  0
   -0.0380   23.8525  -27.3919 H   0  0  0  0  0  0  0  0  0  0  0  0
   -1.0058   24.7415  -23.7116 H   0  0  0  0  0  0  0  0  0  0  0  0
    0.4554   25.4408  -24.5017 H   0  0  0  0  0  0  0  0  0  0  0  0
   -1.3031   27.0135  -23.2730 H   0  0  0  0  0  0  0  0  0  0  0  0
   -0.5396   27.5206  -24.8179 H   0  0  0  0  0  0  0  0  0  0  0  0
   -2.2041   26.8451  -24.8179 H   0  0  0  0  0  0  0  0  0  0  0  0
   -2.2812   26.3058  -26.7286 H   0  0  0  0  0  0  0  0  0  0  0  0
   -0.5147   26.6693  -26.6887 H   0  0  0  0  0  0  0  0  0  0  0  0
   -0.5428   26.0222  -28.8682 H   0  0  0  0  0  0  0  0  0  0  0  0
   -0.5889   24.3497  -28.1874 H   0  0  0  0  0  0  0  0  0  0  0  0
   -2.9718   24.8031  -26.8986 H   0  0  0  0  0  0  0  0  0  0  0  0
   -4.2947   24.9234  -28.1075 H   0  0  0  0  0  0  0  0  0  0  0  0
   -2.2462   22.6522  -28.0768 H   0  0  0  0  0  0  0  0  0  0  0  0
   -3.8374   22.5800  -27.2216 H   0  0  0  0  0  0  0  0  0  0  0  0
   -1.9970   20.9438  -31.3556 H   0  0  0  0  0  0  0  0  0  0  0  0
   -3.2327   20.3345  -30.1790 H   0  0  0  0  0  0  0  0  0  0  0  0
   -3.5396   19.9127  -32.7689 H   0  0  0  0  0  0  0  0  0  0  0  0
   -4.9460   20.3885  -31.7228 H   0  0  0  0  0  0  0  0  0  0  0  0
   -3.3138   22.4787  -33.2025 H   0  0  0  0  0  0  0  0  0  0  0  0
   -4.6633   21.5725  -34.0086 H   0  0  0  0  0  0  0  0  0  0  0  0
   -4.8020   23.3780  -31.6630 H   0  0  0  0  0  0  0  0  0  0  0  0
   -7.1086   21.9367  -32.8170 H   0  0  0  0  0  0  0  0  0  0  0  0
   -6.1401   21.2172  -31.4732 H   0  0  0  0  0  0  0  0  0  0  0  0
   -7.8041   23.7621  -31.4865 H   0  0  0  0  0  0  0  0  0  0  0  0
   -7.8543   22.3740  -30.3440 H   0  0  0  0  0  0  0  0  0  0  0  0
   -5.3010   23.6880  -30.5430 H   0  0  0  0  0  0  0  0  0  0  0  0
   -7.5927   25.3040  -30.3021 H   0  0  0  0  0  0  0  0  0  0  0  0
   -6.6681   25.2846  -28.7537 H   0  0  0  0  0  0  0  0  0  0  0  0
   -5.9771   26.5056  -31.3588 H   0  0  0  0  0  0  0  0  0  0  0  0
   -5.3221   26.8325  -29.7135 H   0  0  0  0  0  0  0  0  0  0  0  0
   -4.1580   24.6530  -29.9910 H   0  0  0  0  0  0  0  0  0  0  0  0
   -4.5610   24.7050  -31.6070 H   0  0  0  0  0  0  0  0  0  0  0  0
  1  2  1  0
  2  3  1  0
  3  4  1  0
  4  5  1  0
  3  6  1  0
  6  7  1  0
  7  8  1  0
  8  9  1  0
  9 10  1  0
 10 11  1  0
 11 12  1  0
 12 13  2  0
 12 14  1  0
 14 15  1  0
 15 16  1  0
 16 17  1  0
 17 18  1  0
 18 19  1  0
 19 20  1  0
 20 21  1  0
 21 22  1  0
 22 23  1  0
  1 24  1  0
  1 25  1  0
  1 26  1  0
  2 27  1  0
  2 28  1  0
  4 29  1  0
  4 30  1  0
  5 31  1  0
  5 32  1  0
  5 33  1  0
  6 34  1  0
  6 35  1  0
  7 36  1  0
  7 37  1  0
  9 38  1  0
  9 39  1  0
 10 40  1  0
 10 41  1  0
 14 42  1  0
 14 43  1  0
 15 44  1  0
 15 45  1  0
 16 46  1  0
 16 47  1  0
 17 48  1  0
 18 49  1  0
 18 50  1  0
 19 51  1  0
 19 52  1  0
 20 53  1  0
 21 54  1  0
 21 55  1  0
 22 56  1  0
 22 57  1  0
 23 58  1  0
 23 59  1  0
M  END
>  <UniqueID>  (6) 
6

>  <SMILES>  (6) 
CCN(CC)CCOCCOC(=O)CCCNCCNCCN

>  <Energy>  (6) 
41.99324553143755

>  <Genealogy>  (6) 
CCN(CC)CCOCCOC(=O)CCCNCCNCCN (3D coordinates assigned)
CCN(CC)CCOCCOC(=O)CCCNCCNCCN (optimized conformer: 41.99324553143755 kcal/mol)

>  <smiles>  (6) 
CCN(CC)CCOCCOC(=O)CCCNCCNCCN

>  <score_type>  (6) 
oracle

>  <origin>  (6) 
adg

>  <m_score__min__energy>  (6) 
-4.8600000000000003

>  <m_primary>  (6) 
energy

$$$$
6:0
     RDKit          3D

 33 34  0  0  0  0  0  0  0  0999 V2000
   -6.0730   25.3130  -29.3940 C   0  0  0  0  0  0  0  0  0  0  0  0
   -5.2920   25.6120  -30.6680 C   0  0  0  0  0  0  0  0  0  0  0  0
   -3.8740   25.2900  -30.4710 N   0  0  0  0  0  0  0  0  0  0  0  0
   -3.6940   24.1860  -29.5170 C   0  0  0  0  0  0  0  0  0  0  0  0
   -3.6640   22.8300  -30.2350 C   0  0  0  0  0  0  0  0  0  0  0  0
   -4.2260   22.9210  -31.5450 O   0  0  0  0  0  0  0  0  0  0  0  0
   -4.8680   21.8480  -32.1740 C   0  0  0  0  0  0  0  0  0  0  0  0
   -4.0880   20.9310  -32.8890 C   0  0  0  0  0  0  0  0  0  0  0  0
   -4.6730   19.8090  -33.4790 C   0  0  0  0  0  0  0  0  0  0  0  0
   -6.0480   19.5970  -33.3740 C   0  0  0  0  0  0  0  0  0  0  0  0
   -6.8520   20.5220  -32.6930 C   0  0  0  0  0  0  0  0  0  0  0  0
   -8.2380   20.3340  -32.6030 C   0  0  0  0  0  0  0  0  0  0  0  0
   -9.0140   21.2520  -31.9660 N   0  0  0  0  0  0  0  0  0  0  0  0
   -8.4810   22.3720  -31.4120 C   0  0  0  0  0  0  0  0  0  0  0  0
   -7.1050   22.6060  -31.4750 C   0  0  0  0  0  0  0  0  0  0  0  0
   -6.2680   21.6670  -32.0990 C   0  0  0  0  0  0  0  0  0  0  0  0
   -5.4512   25.5510  -28.5184 H   0  0  0  0  0  0  0  0  0  0  0  0
   -6.9869   25.9248  -29.3720 H   0  0  0  0  0  0  0  0  0  0  0  0
   -6.3446   24.2473  -29.3720 H   0  0  0  0  0  0  0  0  0  0  0  0
   -5.6929   25.0045  -31.4928 H   0  0  0  0  0  0  0  0  0  0  0  0
   -5.3907   26.6802  -30.9113 H   0  0  0  0  0  0  0  0  0  0  0  0
   -3.4880   24.9790  -31.3950 H   0  0  0  0  0  0  0  0  0  0  0  0
   -2.7451   24.3280  -28.9791 H   0  0  0  0  0  0  0  0  0  0  0  0
   -4.5420   24.1899  -28.8164 H   0  0  0  0  0  0  0  0  0  0  0  0
   -2.6207   22.4910  -30.3160 H   0  0  0  0  0  0  0  0  0  0  0  0
   -4.2625   22.1157  -29.6506 H   0  0  0  0  0  0  0  0  0  0  0  0
   -3.0049   21.0960  -32.9867 H   0  0  0  0  0  0  0  0  0  0  0  0
   -4.0478   19.0898  -34.0284 H   0  0  0  0  0  0  0  0  0  0  0  0
   -6.5019   18.7029  -33.8262 H   0  0  0  0  0  0  0  0  0  0  0  0
   -8.7000   19.4409  -33.0491 H   0  0  0  0  0  0  0  0  0  0  0  0
  -10.0460   21.0950  -31.9080 H   0  0  0  0  0  0  0  0  0  0  0  0
   -9.1368   23.0991  -30.9107 H   0  0  0  0  0  0  0  0  0  0  0  0
   -6.6795   23.5213  -31.0379 H   0  0  0  0  0  0  0  0  0  0  0  0
  1  2  1  0
  2  3  1  0
  3  4  1  0
  4  5  1  0
  5  6  1  0
  6  7  1  0
  7  8  2  0
  8  9  1  0
  9 10  2  0
 10 11  1  0
 11 12  2  0
 12 13  1  0
 13 14  2  0
 14 15  1  0
 15 16  2  0
 16  7  1  0
 16 11  1  0
  1 17  1  0
  1 18  1  0
  1 19  1  0
  2 20  1  0
  2 21  1  0
  3 22  1  0
  4 23  1  0
  4 24  1  0
  5 25  1  0
  5 26  1  0
  8 27  1  0
  9 28  1  0
 10 29  1  0
 12 30  1  0
 13 31  1  0
 14 32  1  0
 15 33  1  0
M  CHG  1  13   1
M  END
>  <UniqueID>  (7) 
7

>  <SMILES>  (7) 
CCNCCOc1cccc2c[nH+]ccc12

>  <Energy>  (7) 
37.06822384289863

>  <Genealogy>  (7) 
CCNCCOc1cccc2c[nH+]ccc12 (protonated)
CCNCCOc1cccc2c[nH+]ccc12 (3D coordinates assigned)
CCNCCOc1cccc2c[nH+]ccc12 (optimized conformer: 37.06822384289863 kcal/mol)

>  <smiles>  (7) 
CCNCCOc1cccc2cnccc12

>  <score_type>  (7) 
oracle

>  <origin>  (7) 
adg

>  <m_score__min__energy>  (7) 
-6.0300000000000002

>  <m_primary>  (7) 
energy

$$$$
7:0
     RDKit          3D

 77 80  0  0  0  0  0  0  0  0999 V2000
    0.3560   23.9990  -28.1960 C   0  0  0  0  0  0  0  0  0  0  0  0
   -0.8760   24.2320  -29.0800 C   0  0  0  0  0  0  0  0  0  0  0  0
   -1.9620   24.9880  -28.4160 N   0  0  0  0  0  0  0  0  0  0  0  0
   -1.5570   25.8340  -27.2700 C   0  0  0  0  0  0  0  0  0  0  0  0
   -2.3530   25.5990  -25.9760 C   0  0  0  0  0  0  0  0  0  0  0  0
   -3.2520   24.2790  -28.2670 C   0  0  0  0  0  0  0  0  0  0  0  0
   -3.7210   23.6760  -29.5980 C   0  0  0  0  0  0  0  0  0  0  0  0
   -3.8520   24.6680  -30.6010 O   0  0  0  0  0  0  0  0  0  0  0  0
   -5.0780   25.3660  -30.4840 C   0  0  0  0  0  0  0  0  0  0  0  0
   -6.2610   24.4090  -30.3150 C   0  0  0  0  0  0  0  0  0  0  0  0
   -6.5830   23.7710  -31.5490 O   0  0  0  0  0  0  0  0  0  0  0  0
   -6.9480   22.4210  -31.7300 C   0  0  0  0  0  0  0  0  0  0  0  0
   -8.1180   21.8930  -31.1630 C   0  0  0  0  0  0  0  0  0  0  0  0
   -8.4630   20.5620  -31.3540 C   0  0  0  0  0  0  0  0  0  0  0  0
   -7.6550   19.7240  -32.1260 C   0  0  0  0  0  0  0  0  0  0  0  0
   -8.0290   18.3830  -32.3080 C   0  0  0  0  0  0  0  0  0  0  0  0
   -7.2450   17.5320  -33.0810 C   0  0  0  0  0  0  0  0  0  0  0  0
   -6.0800   18.0110  -33.6810 C   0  0  0  0  0  0  0  0  0  0  0  0
   -5.6930   19.3420  -33.5100 C   0  0  0  0  0  0  0  0  0  0  0  0
   -6.4700   20.2290  -32.7280 C   0  0  0  0  0  0  0  0  0  0  0  0
   -6.1140   21.5970  -32.5260 C   0  0  0  0  0  0  0  0  0  0  0  0
   -4.8380   22.2220  -33.0830 C   0  0  0  0  0  0  0  0  0  0  0  0
   -3.6690   21.9540  -32.2050 N   0  0  0  0  0  0  0  0  0  0  0  0
   -2.5140   21.4950  -33.0090 C   0  0  0  0  0  0  0  0  0  0  0  0
   -1.2680   21.2500  -32.1260 C   0  0  0  0  0  0  0  0  0  0  0  0
   -1.5940   21.3270  -30.6900 N   0  0  0  0  0  0  0  0  0  0  0  0
   -0.4320   20.9650  -29.8520 C   0  0  0  0  0  0  0  0  0  0  0  0
   -0.9190   20.4100  -28.5430 C   0  0  0  0  0  0  0  0  0  0  0  0
   -1.4910   21.2650  -27.5880 C   0  0  0  0  0  0  0  0  0  0  0  0
   -1.9880   20.7490  -26.3880 C   0  0  0  0  0  0  0  0  0  0  0  0
   -1.9400   19.3750  -26.1440 C   0  0  0  0  0  0  0  0  0  0  0  0
   -1.3910   18.5150  -27.0940 C   0  0  0  0  0  0  0  0  0  0  0  0
   -0.8760   19.0280  -28.2890 C   0  0  0  0  0  0  0  0  0  0  0  0
   -2.7540   20.4650  -30.3980 C   0  0  0  0  0  0  0  0  0  0  0  0
   -4.0020   20.9460  -31.1710 C   0  0  0  0  0  0  0  0  0  0  0  0
    0.0633   24.0544  -27.1371 H   0  0  0  0  0  0  0  0  0  0  0  0
    0.7771   23.0053  -28.4085 H   0  0  0  0  0  0  0  0  0  0  0  0
    1.1110   24.7703  -28.4085 H   0  0  0  0  0  0  0  0  0  0  0  0
   -0.5601   24.7928  -29.9720 H   0  0  0  0  0  0  0  0  0  0  0  0
   -1.2835   23.2399  -29.3242 H   0  0  0  0  0  0  0  0  0  0  0  0
   -0.4957   25.6367  -27.0584 H   0  0  0  0  0  0  0  0  0  0  0  0
   -1.7567   26.8735  -27.5694 H   0  0  0  0  0  0  0  0  0  0  0  0
   -1.7056   25.7901  -25.1075 H   0  0  0  0  0  0  0  0  0  0  0  0
   -3.2158   26.2808  -25.9473 H   0  0  0  0  0  0  0  0  0  0  0  0
   -2.7072   24.5580  -25.9473 H   0  0  0  0  0  0  0  0  0  0  0  0
   -3.1322   23.4703  -27.5310 H   0  0  0  0  0  0  0  0  0  0  0  0
   -4.0076   25.0051  -27.9325 H   0  0  0  0  0  0  0  0  0  0  0  0
   -2.9864   22.9275  -29.9297 H   0  0  0  0  0  0  0  0  0  0  0  0
   -4.7067   23.2143  -29.4390 H   0  0  0  0  0  0  0  0  0  0  0  0
   -5.0282   26.0294  -29.6080 H   0  0  0  0  0  0  0  0  0  0  0  0
   -5.2333   25.9432  -31.4075 H   0  0  0  0  0  0  0  0  0  0  0  0
   -5.9997   23.6420  -29.5710 H   0  0  0  0  0  0  0  0  0  0  0  0
   -7.1349   24.9878  -29.9814 H   0  0  0  0  0  0  0  0  0  0  0  0
   -8.7699   22.5419  -30.5597 H   0  0  0  0  0  0  0  0  0  0  0  0
   -9.3796   20.1643  -30.8939 H   0  0  0  0  0  0  0  0  0  0  0  0
   -8.9473   18.0028  -31.8367 H   0  0  0  0  0  0  0  0  0  0  0  0
   -7.5436   16.4823  -33.2189 H   0  0  0  0  0  0  0  0  0  0  0  0
   -5.4627   17.3363  -34.2923 H   0  0  0  0  0  0  0  0  0  0  0  0
   -4.7721   19.7055  -33.9895 H   0  0  0  0  0  0  0  0  0  0  0  0
   -4.6398   21.8009  -34.0797 H   0  0  0  0  0  0  0  0  0  0  0  0
   -4.9841   23.3108  -33.1385 H   0  0  0  0  0  0  0  0  0  0  0  0
   -3.3980   22.8490  -31.7310 H   0  0  0  0  0  0  0  0  0  0  0  0
   -2.7824   20.5565  -33.5162 H   0  0  0  0  0  0  0  0  0  0  0  0
   -2.2693   22.2800  -33.7397 H   0  0  0  0  0  0  0  0  0  0  0  0
   -0.8652   20.2506  -32.3471 H   0  0  0  0  0  0  0  0  0  0  0  0
   -0.5281   22.0319  -32.3522 H   0  0  0  0  0  0  0  0  0  0  0  0
    0.1733   20.2068  -30.3704 H   0  0  0  0  0  0  0  0  0  0  0  0
    0.1830   21.8583  -29.6682 H   0  0  0  0  0  0  0  0  0  0  0  0
   -1.5483   22.3457  -27.7849 H   0  0  0  0  0  0  0  0  0  0  0  0
   -2.4175   21.4260  -25.6349 H   0  0  0  0  0  0  0  0  0  0  0  0
   -2.3360   18.9706  -25.2008 H   0  0  0  0  0  0  0  0  0  0  0  0
   -1.3628   17.4320  -26.9036 H   0  0  0  0  0  0  0  0  0  0  0  0
   -0.4357   18.3476  -29.0328 H   0  0  0  0  0  0  0  0  0  0  0  0
   -2.5204   19.4324  -30.6966 H   0  0  0  0  0  0  0  0  0  0  0  0
   -2.9666   20.5125  -29.3198 H   0  0  0  0  0  0  0  0  0  0  0  0
   -4.4711   20.0794  -31.6598 H   0  0  0  0  0  0  0  0  0  0  0  0
   -4.6843   21.4177  -30.4485 H   0  0  0  0  0  0  0  0  0  0  0  0
  1  2  1  0
  2  3  1  0
  3  4  1  0
  4  5  1  0
  3  6  1  0
  6  7  1  0
  7  8  1  0
  8  9  1  0
  9 10  1  0
 10 11  1  0
 11 12  1  0
 12 13  2  0
 13 14  1  0
 14 15  2  0
 15 16  1  0
 16 17  2  0
 17 18  1  0
 18 19  2  0
 19 20  1  0
 20 21  2  0
 21 22  1  0
 22 23  1  0
 23 24  1  0
 24 25  1  0
 25 26  1  0
 26 27  1  0
 27 28  1  0
 28 29  2  0
 29 30  1  0
 30 31  2  0
 31 32  1  0
 32 33  2  0
 26 34  1  0
 34 35  1  0
 21 12  1  0
 35 23  1  0
 20 15  1  0
 33 28  1  0
  1 36  1  0
  1 37  1  0
  1 38  1  0
  2 39  1  0
  2 40  1  0
  4 41  1  0
  4 42  1  0
  5 43  1  0
  5 44  1  0
  5 45  1  0
  6 46  1  0
  6 47  1  0
  7 48  1  0
  7 49  1  0
  9 50  1  0
  9 51  1  0
 10 52  1  0
 10 53  1  0
 13 54  1  0
 14 55  1  0
 16 56  1  0
 17 57  1  0
 18 58  1  0
 19 59  1  0
 22 60  1  0
 22 61  1  0
 23 62  1  0
 24 63  1  0
 24 64  1  0
 25 65  1  0
 25 66  1  0
 27 67  1  0
 27 68  1  0
 29 69  1  0
 30 70  1  0
 31 71  1  0
 32 72  1  0
 33 73  1  0
 34 74  1  0
 34 75  1  0
 35 76  1  0
 35 77  1  0
M  CHG  1  23   1
M  END
>  <UniqueID>  (8) 
8

>  <SMILES>  (8) 
CCN(CC)CCOCCOc1ccc2ccccc2c1C[NH+]1CCN(Cc2ccccc2)CC1

>  <Energy>  (8) 
103.03692090055802

>  <Genealogy>  (8) 
CCN(CC)CCOCCOc1ccc2ccccc2c1C[NH+]1CCN(Cc2ccccc2)CC1 (protonated)
CCN(CC)CCOCCOc1ccc2ccccc2c1C[NH+]1CCN(Cc2ccccc2)CC1 (3D coordinates assigned)
CCN(CC)CCOCCOc1ccc2ccccc2c1C[NH+]1CCN(Cc2ccccc2)CC1 (nonaromatic ring conformer: 103.03692090055802 kcal/mol)

>  <smiles>  (8) 
CCN(CC)CCOCCOc1ccc2ccccc2c1CN1CCN(Cc2ccccc2)CC1

>  <score_type>  (8) 
oracle

>  <origin>  (8) 
adg

>  <m_score__min__energy>  (8) 
-9.0099999999999998

>  <m_primary>  (8) 
energy

$$$$
8:0
     RDKit          3D

 39 42  0  0  0  0  0  0  0  0999 V2000
    0.2100   21.0470  -34.1800 C   0  0  0  0  0  0  0  0  0  0  0  0
   -1.0060   21.1180  -33.3200 C   0  0  0  0  0  0  0  0  0  0  0  0
   -0.8870   21.4620  -31.9950 N   0  0  0  0  0  0  0  0  0  0  0  0
   -1.9810   21.5690  -31.1870 C   0  0  0  0  0  0  0  0  0  0  0  0
   -3.2250   21.3300  -31.7510 C   0  0  0  0  0  0  0  0  0  0  0  0
   -4.4990   21.3480  -31.2360 C   0  0  0  0  0  0  0  0  0  0  0  0
   -5.3110   21.0230  -32.3280 C   0  0  0  0  0  0  0  0  0  0  0  0
   -6.7820   20.8800  -32.3120 C   0  0  0  0  0  0  0  0  0  0  0  0
   -7.5420   21.8690  -31.6730 C   0  0  0  0  0  0  0  0  0  0  0  0
   -8.9330   21.8090  -31.6890 C   0  0  0  0  0  0  0  0  0  0  0  0
   -9.5640   20.7520  -32.3390 C   0  0  0  0  0  0  0  0  0  0  0  0
   -8.8250   19.7800  -32.9380 N   0  0  0  0  0  0  0  0  0  0  0  0
   -7.4600   19.8030  -32.9340 C   0  0  0  0  0  0  0  0  0  0  0  0
   -6.7460   18.6850  -33.4900 N   0  0  0  0  0  0  0  0  0  0  0  0
   -6.4890   17.4980  -32.6660 C   0  0  0  0  0  0  0  0  0  0  0  0
   -5.0010   17.0790  -32.7280 C   0  0  0  0  0  0  0  0  0  0  0  0
   -4.2500   17.7370  -33.7370 O   0  0  0  0  0  0  0  0  0  0  0  0
   -4.9820   17.7900  -34.9420 C   0  0  0  0  0  0  0  0  0  0  0  0
   -6.1000   18.8200  -34.8010 C   0  0  0  0  0  0  0  0  0  0  0  0
   -4.5750   20.8120  -33.4080 O   0  0  0  0  0  0  0  0  0  0  0  0
   -3.3270   21.0010  -33.0640 C   0  0  0  0  0  0  0  0  0  0  0  0
   -2.2400   20.8940  -33.8660 N   0  0  0  0  0  0  0  0  0  0  0  0
    1.1062   20.9947  -33.5443 H   0  0  0  0  0  0  0  0  0  0  0  0
    0.1581   20.1504  -34.8151 H   0  0  0  0  0  0  0  0  0  0  0  0
    0.2628   21.9436  -34.8151 H   0  0  0  0  0  0  0  0  0  0  0  0
   -1.8797   21.8357  -30.1246 H   0  0  0  0  0  0  0  0  0  0  0  0
   -4.8088   21.5673  -30.2036 H   0  0  0  0  0  0  0  0  0  0  0  0
   -7.0365   22.6978  -31.1556 H   0  0  0  0  0  0  0  0  0  0  0  0
   -9.5279   22.5898  -31.1925 H   0  0  0  0  0  0  0  0  0  0  0  0
  -10.6625   20.7028  -32.3682 H   0  0  0  0  0  0  0  0  0  0  0  0
   -9.3250   18.9790  -33.3860 H   0  0  0  0  0  0  0  0  0  0  0  0
   -6.7544   17.7225  -31.6224 H   0  0  0  0  0  0  0  0  0  0  0  0
   -7.0986   16.6687  -33.0541 H   0  0  0  0  0  0  0  0  0  0  0  0
   -4.5396   17.3019  -31.7547 H   0  0  0  0  0  0  0  0  0  0  0  0
   -4.9858   16.0067  -32.9730 H   0  0  0  0  0  0  0  0  0  0  0  0
   -4.3144   18.0812  -35.7663 H   0  0  0  0  0  0  0  0  0  0  0  0
   -5.4133   16.8014  -35.1580 H   0  0  0  0  0  0  0  0  0  0  0  0
   -5.6776   19.8312  -34.8963 H   0  0  0  0  0  0  0  0  0  0  0  0
   -6.8473   18.6513  -35.5903 H   0  0  0  0  0  0  0  0  0  0  0  0
  1  2  1  0
  2  3  2  0
  3  4  1  0
  4  5  2  0
  5  6  1  0
  6  7  2  0
  7  8  1  0
  8  9  2  0
  9 10  1  0
 10 11  2  0
 11 12  1  0
 12 13  2  0
 13 14  1  0
 14 15  1  0
 15 16  1  0
 16 17  1  0
 17 18  1  0
 18 19  1  0
  7 20  1  0
 20 21  1  0
 21 22  2  0
 22  2  1  0
 21  5  1  0
 13  8  1  0
 19 14  1  0
  1 23  1  0
  1 24  1  0
  1 25  1  0
  4 26  1  0
  6 27  1  0
  9 28  1  0
 10 29  1  0
 11 30  1  0
 12 31  1  0
 15 32  1  0
 15 33  1  0
 16 34  1  0
 16 35  1  0
 18 36  1  0
 18 37  1  0
 19 38  1  0
 19 39  1  0
M  CHG  1  12   1
M  END
>  <UniqueID>  (9) 
9

>  <SMILES>  (9) 
Cc1ncc2cc(-c3ccc[nH+]c3N3CCOCC3)oc2n1

>  <Energy>  (9) 
93.75682424333259

>  <Genealogy>  (9) 
Cc1ncc2cc(-c3ccc[nH+]c3N3CCOCC3)oc2n1 (protonated)
Cc1ncc2cc(-c3ccc[nH+]c3N3CCOCC3)oc2n1 (3D coordinates assigned)
Cc1ncc2cc(-c3ccc[nH+]c3N3CCOCC3)oc2n1 (nonaromatic ring conformer: 93.75682424333259 kcal/mol)

>  <smiles>  (9) 
Cc1ncc2cc(-c3cccnc3N3CCOCC3)oc2n1

>  <score_type>  (9) 
oracle

>  <origin>  (9) 
adg

>  <m_score__min__energy>  (9) 
-6.79

>  <m_primary>  (9) 
energy

$$$$
9:0
     RDKit          3D

 51 54  0  0  0  0  0  0  0  0999 V2000
   -6.5020   17.0720  -32.4180 C   0  0  0  0  0  0  0  0  0  0  0  0
   -6.3220   17.0090  -33.7400 C   0  0  0  0  0  0  0  0  0  0  0  0
   -5.7790   18.1830  -34.5280 C   0  0  0  0  0  0  0  0  0  0  0  0
   -4.3510   18.0350  -34.9010 N   0  0  0  0  0  0  0  0  0  0  0  0
   -3.8930   16.6390  -34.8040 C   0  0  0  0  0  0  0  0  0  0  0  0
   -3.4500   18.9500  -34.1610 C   0  0  0  0  0  0  0  0  0  0  0  0
   -4.1680   19.5800  -32.9590 C   0  0  0  0  0  0  0  0  0  0  0  0
   -4.3840   21.0990  -33.1420 C   0  0  0  0  0  0  0  0  0  0  0  0
   -5.2710   21.6600  -32.1080 N   0  0  0  0  0  0  0  0  0  0  0  0
   -6.7090   21.4950  -32.1760 C   0  0  0  0  0  0  0  0  0  0  0  0
   -7.2890   20.2640  -32.5420 C   0  0  0  0  0  0  0  0  0  0  0  0
   -8.6700   20.0740  -32.4400 C   0  0  0  0  0  0  0  0  0  0  0  0
   -9.4880   21.0970  -31.9550 C   0  0  0  0  0  0  0  0  0  0  0  0
   -8.9300   22.3260  -31.6020 C   0  0  0  0  0  0  0  0  0  0  0  0
   -7.5510   22.5330  -31.7290 C   0  0  0  0  0  0  0  0  0  0  0  0
   -6.8700   24.1640  -31.4350 S   0  0  0  0  0  0  0  0  0  0  0  0
   -5.4760   23.5340  -30.5030 C   0  0  0  0  0  0  0  0  0  0  0  0
   -5.0650   24.1960  -29.3360 C   0  0  0  0  0  0  0  0  0  0  0  0
   -3.8780   23.7970  -28.7220 C   0  0  0  0  0  0  0  0  0  0  0  0
   -3.1110   22.7900  -29.2460 C   0  0  0  0  0  0  0  0  0  0  0  0
   -3.5100   22.0970  -30.3920 C   0  0  0  0  0  0  0  0  0  0  0  0
   -4.7260   22.4500  -31.0210 C   0  0  0  0  0  0  0  0  0  0  0  0
   -1.8790   22.5580  -28.4590 C   0  0  0  0  0  0  0  0  0  0  0  0
   -1.9860   23.5610  -27.2930 C   0  0  0  0  0  0  0  0  0  0  0  0
   -3.2680   24.3890  -27.5090 C   0  0  0  0  0  0  0  0  0  0  0  0
   -6.8983   16.2015  -31.8748 H   0  0  0  0  0  0  0  0  0  0  0  0
   -6.2539   17.9944  -31.8725 H   0  0  0  0  0  0  0  0  0  0  0  0
   -6.5750   16.0793  -34.2708 H   0  0  0  0  0  0  0  0  0  0  0  0
   -6.3706   18.2874  -35.4495 H   0  0  0  0  0  0  0  0  0  0  0  0
   -5.8545   19.0696  -33.8813 H   0  0  0  0  0  0  0  0  0  0  0  0
   -3.8002   16.3563  -33.7450 H   0  0  0  0  0  0  0  0  0  0  0  0
   -4.6217   15.9789  -35.2973 H   0  0  0  0  0  0  0  0  0  0  0  0
   -2.9149   16.5389  -35.2973 H   0  0  0  0  0  0  0  0  0  0  0  0
   -2.5782   18.3833  -33.8021 H   0  0  0  0  0  0  0  0  0  0  0  0
   -3.1345   19.7551  -34.8409 H   0  0  0  0  0  0  0  0  0  0  0  0
   -5.1475   19.0946  -32.8366 H   0  0  0  0  0  0  0  0  0  0  0  0
   -3.5357   19.4322  -32.0711 H   0  0  0  0  0  0  0  0  0  0  0  0
   -3.4091   21.6054  -33.0861 H   0  0  0  0  0  0  0  0  0  0  0  0
   -4.8604   21.2585  -34.1206 H   0  0  0  0  0  0  0  0  0  0  0  0
   -6.6508   19.4473  -32.9104 H   0  0  0  0  0  0  0  0  0  0  0  0
   -9.1146   19.1146  -32.7430 H   0  0  0  0  0  0  0  0  0  0  0  0
  -10.5709   20.9338  -31.8515 H   0  0  0  0  0  0  0  0  0  0  0  0
   -9.5741   23.1333  -31.2235 H   0  0  0  0  0  0  0  0  0  0  0  0
   -5.6673   25.0138  -28.9136 H   0  0  0  0  0  0  0  0  0  0  0  0
   -2.8863   21.2876  -30.7993 H   0  0  0  0  0  0  0  0  0  0  0  0
   -1.8437   21.5246  -28.0837 H   0  0  0  0  0  0  0  0  0  0  0  0
   -0.9644   22.6970  -29.0541 H   0  0  0  0  0  0  0  0  0  0  0  0
   -2.0450   23.0203  -26.3369 H   0  0  0  0  0  0  0  0  0  0  0  0
   -1.1027   24.2159  -27.2635 H   0  0  0  0  0  0  0  0  0  0  0  0
   -3.9438   24.2953  -26.6462 H   0  0  0  0  0  0  0  0  0  0  0  0
   -3.0634   25.4641  -27.6201 H   0  0  0  0  0  0  0  0  0  0  0  0
  1  2  2  0
  2  3  1  0
  3  4  1  0
  4  5  1  0
  4  6  1  0
  6  7  1  0
  7  8  1  0
  8  9  1  0
  9 10  1  0
 10 11  2  0
 11 12  1  0
 12 13  2  0
 13 14  1  0
 14 15  2  0
 15 16  1  0
 16 17  1  0
 17 18  2  0
 18 19  1  0
 19 20  2  0
 20 21  1  0
 21 22  2  0
 20 23  1  0
 23 24  1  0
 24 25  1  0
 22  9  1  0
 15 10  1  0
 22 17  1  0
 25 19  1  0
  1 26  1  0
  1 27  1  0
  2 28  1  0
  3 29  1  0
  3 30  1  0
  5 31  1  0
  5 32  1  0
  5 33  1  0
  6 34  1  0
  6 35  1  0
  7 36  1  0
  7 37  1  0
  8 38  1  0
  8 39  1  0
 11 40  1  0
 12 41  1  0
 13 42  1  0
 14 43  1  0
 18 44  1  0
 21 45  1  0
 23 46  1  0
 23 47  1  0
 24 48  1  0
 24 49  1  0
 25 50  1  0
 25 51  1  0
M  END
>  <UniqueID>  (10) 
10

>  <SMILES>  (10) 
C=CCN(C)CCCN1c2ccccc2Sc2cc3c(cc21)CCC3

>  <Energy>  (10) 
79.86170410879654

>  <Genealogy>  (10) 
C=CCN(C)CCCN1c2ccccc2Sc2cc3c(cc21)CCC3 (3D coordinates assigned)
C=CCN(C)CCCN1c2ccccc2Sc2cc3c(cc21)CCC3 (nonaromatic ring conformer: 79.86170410879654 kcal/mol)

>  <smiles>  (10) 
C=CCN(C)CCCN1c2ccccc2Sc2cc3c(cc21)CCC3

>  <score_type>  (10) 
oracle

>  <origin>  (10) 
adg

>  <m_score__min__energy>  (10) 
-8.4600000000000009

>  <m_primary>  (10) 
energy

$$$$
10:0
     RDKit          3D

 57 60  0  0  0  0  0  0  0  0999 V2000
   -0.3250   15.7500  -33.0580 C   0  0  0  0  0  0  0  0  0  0  0  0
   -0.5470   14.3070  -33.4990 C   0  0  0  0  0  0  0  0  0  0  0  0
   -1.8260   14.1560  -34.1150 O   0  0  0  0  0  0  0  0  0  0  0  0
   -2.9600   14.9410  -33.8470 C   0  0  0  0  0  0  0  0  0  0  0  0
   -3.6370   14.9110  -32.6130 C   0  0  0  0  0  0  0  0  0  0  0  0
   -4.7580   15.7160  -32.4020 C   0  0  0  0  0  0  0  0  0  0  0  0
   -5.2190   16.5790  -33.4130 C   0  0  0  0  0  0  0  0  0  0  0  0
   -6.4120   17.4330  -33.2020 C   0  0  0  0  0  0  0  0  0  0  0  0
   -7.5610   16.9160  -33.2510 O   0  0  0  0  0  0  0  0  0  0  0  0
   -6.2960   18.8790  -32.9250 C   0  0  0  0  0  0  0  0  0  0  0  0
   -7.3190   19.7490  -32.5390 C   0  0  0  0  0  0  0  0  0  0  0  0
   -8.7560   19.3540  -32.3390 C   0  0  0  0  0  0  0  0  0  0  0  0
   -6.8430   21.0190  -32.4200 N   0  0  0  0  0  0  0  0  0  0  0  0
   -7.5880   22.2000  -31.9660 C   0  0  0  0  0  0  0  0  0  0  0  0
   -7.1600   22.5960  -30.5490 C   0  0  0  0  0  0  0  0  0  0  0  0
   -6.0630   23.5850  -30.6040 N   0  0  0  0  0  0  0  0  0  0  0  0
   -4.9600   23.2240  -29.6940 C   0  0  0  0  0  0  0  0  0  0  0  0
   -3.9400   24.3760  -29.5830 C   0  0  0  0  0  0  0  0  0  0  0  0
   -4.1240   25.3130  -30.6260 O   0  0  0  0  0  0  0  0  0  0  0  0
   -5.3810   25.9530  -30.4850 C   0  0  0  0  0  0  0  0  0  0  0  0
   -6.5380   24.9470  -30.3060 C   0  0  0  0  0  0  0  0  0  0  0  0
   -5.5240   20.9510  -32.7100 C   0  0  0  0  0  0  0  0  0  0  0  0
   -4.5890   21.9930  -32.7320 C   0  0  0  0  0  0  0  0  0  0  0  0
   -3.2640   21.6900  -33.0880 C   0  0  0  0  0  0  0  0  0  0  0  0
   -2.8990   20.3710  -33.4270 C   0  0  0  0  0  0  0  0  0  0  0  0
   -3.8540   19.3420  -33.4070 C   0  0  0  0  0  0  0  0  0  0  0  0
   -5.1600   19.6640  -33.0270 C   0  0  0  0  0  0  0  0  0  0  0  0
   -4.5470   16.5990  -34.6460 C   0  0  0  0  0  0  0  0  0  0  0  0
   -3.4260   15.7910  -34.8560 C   0  0  0  0  0  0  0  0  0  0  0  0
   -0.3172   15.8005  -31.9592 H   0  0  0  0  0  0  0  0  0  0  0  0
    0.6389   16.1086  -33.4484 H   0  0  0  0  0  0  0  0  0  0  0  0
   -1.1365   16.3817  -33.4484 H   0  0  0  0  0  0  0  0  0  0  0  0
    0.2355   14.0256  -34.2190 H   0  0  0  0  0  0  0  0  0  0  0  0
   -0.5037   13.6569  -32.6127 H   0  0  0  0  0  0  0  0  0  0  0  0
   -3.2805   14.2491  -31.8100 H   0  0  0  0  0  0  0  0  0  0  0  0
   -5.2851   15.6752  -31.4374 H   0  0  0  0  0  0  0  0  0  0  0  0
   -8.9734   19.2942  -31.2624 H   0  0  0  0  0  0  0  0  0  0  0  0
   -9.4110   20.1054  -32.8042 H   0  0  0  0  0  0  0  0  0  0  0  0
   -8.9349   18.3734  -32.8042 H   0  0  0  0  0  0  0  0  0  0  0  0
   -7.3898   23.0377  -32.6508 H   0  0  0  0  0  0  0  0  0  0  0  0
   -8.6616   21.9606  -31.9582 H   0  0  0  0  0  0  0  0  0  0  0  0
   -8.0185   23.0349  -30.0196 H   0  0  0  0  0  0  0  0  0  0  0  0
   -6.8085   21.6997  -30.0169 H   0  0  0  0  0  0  0  0  0  0  0  0
   -5.3713   23.0095  -28.6966 H   0  0  0  0  0  0  0  0  0  0  0  0
   -4.4475   22.3377  -30.0964 H   0  0  0  0  0  0  0  0  0  0  0  0
   -4.0724   24.8827  -28.6157 H   0  0  0  0  0  0  0  0  0  0  0  0
   -2.9258   23.9572  -29.6607 H   0  0  0  0  0  0  0  0  0  0  0  0
   -5.3455   26.6106  -29.6040 H   0  0  0  0  0  0  0  0  0  0  0  0
   -5.5720   26.5226  -31.4064 H   0  0  0  0  0  0  0  0  0  0  0  0
   -6.9013   24.9886  -29.2686 H   0  0  0  0  0  0  0  0  0  0  0  0
   -7.3556   25.2062  -30.9947 H   0  0  0  0  0  0  0  0  0  0  0  0
   -4.8840   23.0216  -32.4773 H   0  0  0  0  0  0  0  0  0  0  0  0
   -2.5063   22.4873  -33.1023 H   0  0  0  0  0  0  0  0  0  0  0  0
   -1.8596   20.1468  -33.7089 H   0  0  0  0  0  0  0  0  0  0  0  0
   -3.5823   18.3123  -33.6824 H   0  0  0  0  0  0  0  0  0  0  0  0
   -4.9056   17.2555  -35.4525 H   0  0  0  0  0  0  0  0  0  0  0  0
   -2.9049   15.8237  -35.8242 H   0  0  0  0  0  0  0  0  0  0  0  0
  1  2  1  0
  2  3  1  0
  3  4  1  0
  4  5  2  0
  5  6  1  0
  6  7  2  0
  7  8  1  0
  8  9  2  0
  8 10  1  0
 10 11  2  0
 11 12  1  0
 11 13  1  0
 13 14  1  0
 14 15  1  0
 15 16  1  0
 16 17  1  0
 17 18  1  0
 18 19  1  0
 19 20  1  0
 20 21  1  0
 13 22  1  0
 22 23  2  0
 23 24  1  0
 24 25  2  0
 25 26  1  0
 26 27  2  0
  7 28  1  0
 28 29  2  0
 29  4  1  0
 27 10  1  0
 21 16  1  0
 27 22  1  0
  1 30  1  0
  1 31  1  0
  1 32  1  0
  2 33  1  0
  2 34  1  0
  5 35  1  0
  6 36  1  0
 12 37  1  0
 12 38  1  0
 12 39  1  0
 14 40  1  0
 14 41  1  0
 15 42  1  0
 15 43  1  0
 17 44  1  0
 17 45  1  0
 18 46  1  0
 18 47  1  0
 20 48  1  0
 20 49  1  0
 21 50  1  0
 21 51  1  0
 23 52  1  0
 24 53  1  0
 25 54  1  0
 26 55  1  0
 28 56  1  0
 29 57  1  0
M  END
>  <UniqueID>  (11) 
11

>  <SMILES>  (11) 
CCOc1ccc(C(=O)c2c(C)n(CCN3CCOCC3)c3ccccc23)cc1

>  <Energy>  (11) 
103.45844077989179

>  <Genealogy>  (11) 
CCOc1ccc(C(=O)c2c(C)n(CCN3CCOCC3)c3ccccc23)cc1 (3D coordinates assigned)
CCOc1ccc(C(=O)c2c(C)n(CCN3CCOCC3)c3ccccc23)cc1 (nonaromatic ring conformer: 103.45844077989179 kcal/mol)

>  <smiles>  (11) 
CCOc1ccc(C(=O)c2c(C)n(CCN3CCOCC3)c3ccccc23)cc1

>  <score_type>  (11) 
oracle

>  <origin>  (11) 
adg

>  <m_score__min__energy>  (11) 
-9.3499999999999996

>  <m_primary>  (11) 
energy

$$$$
11:0
     RDKit          3D

 31 31  0  0  0  0  0  0  0  0999 V2000
   -2.2020   25.4260  -26.3880 C   0  0  0  0  0  0  0  0  0  0  0  0
   -1.5100   25.6570  -27.7260 C   0  0  0  0  0  0  0  0  0  0  0  0
   -2.3040   25.0700  -28.8140 N   0  0  0  0  0  0  0  0  0  0  0  0
   -2.5120   23.6290  -28.6120 C   0  0  0  0  0  0  0  0  0  0  0  0
   -3.9690   23.3200  -28.2480 C   0  0  0  0  0  0  0  0  0  0  0  0
   -4.8060   24.5210  -28.3850 N   0  0  0  0  0  0  0  0  0  0  0  0
   -5.2140   24.8550  -30.0460 S   0  0  0  0  0  0  0  0  0  0  0  0
   -3.9630   25.1270  -30.8330 O   0  0  0  0  0  0  0  0  0  0  0  0
   -6.0780   26.0830  -30.0990 O   0  0  0  0  0  0  0  0  0  0  0  0
   -6.1040   23.5130  -30.7660 C   0  0  0  0  0  0  0  0  0  0  0  0
   -5.6620   22.9520  -31.9730 C   0  0  0  0  0  0  0  0  0  0  0  0
   -6.3710   21.9010  -32.5600 C   0  0  0  0  0  0  0  0  0  0  0  0
   -7.5270   21.4060  -31.9470 C   0  0  0  0  0  0  0  0  0  0  0  0
   -8.2140   20.3880  -32.5190 F   0  0  0  0  0  0  0  0  0  0  0  0
   -7.9750   21.9660  -30.7470 C   0  0  0  0  0  0  0  0  0  0  0  0
   -7.2670   23.0170  -30.1560 C   0  0  0  0  0  0  0  0  0  0  0  0
   -1.5048   25.6587  -25.5696 H   0  0  0  0  0  0  0  0  0  0  0  0
   -3.0847   26.0782  -26.3143 H   0  0  0  0  0  0  0  0  0  0  0  0
   -2.5160   24.3743  -26.3143 H   0  0  0  0  0  0  0  0  0  0  0  0
   -1.4014   26.7381  -27.8974 H   0  0  0  0  0  0  0  0  0  0  0  0
   -0.5193   25.1795  -27.7057 H   0  0  0  0  0  0  0  0  0  0  0  0
   -3.2460   25.5310  -28.8010 H   0  0  0  0  0  0  0  0  0  0  0  0
   -2.2541   23.0967  -29.5394 H   0  0  0  0  0  0  0  0  0  0  0  0
   -1.8702   23.2995  -27.7816 H   0  0  0  0  0  0  0  0  0  0  0  0
   -4.3501   22.5361  -28.9190 H   0  0  0  0  0  0  0  0  0  0  0  0
   -4.0074   22.9802  -27.2025 H   0  0  0  0  0  0  0  0  0  0  0  0
   -5.7130   24.3450  -27.8920 H   0  0  0  0  0  0  0  0  0  0  0  0
   -4.7548   23.3405  -32.4588 H   0  0  0  0  0  0  0  0  0  0  0  0
   -6.0198   21.4621  -33.5055 H   0  0  0  0  0  0  0  0  0  0  0  0
   -8.8860   21.5792  -30.2669 H   0  0  0  0  0  0  0  0  0  0  0  0
   -7.6218   23.4558  -29.2118 H   0  0  0  0  0  0  0  0  0  0  0  0
  1  2  1  0
  2  3  1  0
  3  4  1  0
  4  5  1  0
  5  6  1  0
  6  7  1  0
  7  8  2  0
  7  9  2  0
  7 10  1  0
 10 11  2  0
 11 12  1  0
 12 13  2  0
 13 14  1  0
 13 15  1  0
 15 16  2  0
 16 10  1  0
  1 17  1  0
  1 18  1  0
  1 19  1  0
  2 20  1  0
  2 21  1  0
  3 22  1  0
  4 23  1  0
  4 24  1  0
  5 25  1  0
  5 26  1  0
  6 27  1  0
 11 28  1  0
 12 29  1  0
 15 30  1  0
 16 31  1  0
M  END
>  <UniqueID>  (12) 
12

>  <SMILES>  (12) 
CCNCCNS(=O)(=O)c1ccc(F)cc1

>  <Energy>  (12) 
23.240488643299855

>  <Genealogy>  (12) 
CCNCCNS(=O)(=O)c1ccc(F)cc1 (3D coordinates assigned)
CCNCCNS(=O)(=O)c1ccc(F)cc1 (optimized conformer: 23.240488643299855 kcal/mol)

>  <smiles>  (12) 
CCNCCNS(=O)(=O)c1ccc(F)cc1

>  <score_type>  (12) 
oracle

>  <origin>  (12) 
adg

>  <m_score__min__energy>  (12) 
-6.8300000000000001

>  <m_primary>  (12) 
energy

$$$$
12:0
     RDKit          3D

 45 47  0  0  0  0  0  0  0  0999 V2000
   -8.9640   22.6580  -31.9010 C   0  0  0  0  0  0  0  0  0  0  0  0
   -9.4230   21.2100  -31.7760 C   0  0  0  0  0  0  0  0  0  0  0  0
   -8.4010   20.3090  -32.3010 N   0  0  0  0  0  0  0  0  0  0  0  0
   -7.2740   20.6780  -32.9450 C   0  0  0  0  0  0  0  0  0  0  0  0
   -6.5400   19.5380  -33.2130 C   0  0  0  0  0  0  0  0  0  0  0  0
   -5.2100   19.4650  -33.9030 C   0  0  0  0  0  0  0  0  0  0  0  0
   -4.1170   19.6680  -32.9290 N   0  0  0  0  0  0  0  0  0  0  0  0
   -3.2710   20.8240  -33.2840 C   0  0  0  0  0  0  0  0  0  0  0  0
   -4.0280   22.1450  -33.0950 C   0  0  0  0  0  0  0  0  0  0  0  0
   -4.7170   22.1780  -31.8000 N   0  0  0  0  0  0  0  0  0  0  0  0
   -5.4680   23.3580  -31.4450 C   0  0  0  0  0  0  0  0  0  0  0  0
   -5.8030   24.1800  -32.3410 O   0  0  0  0  0  0  0  0  0  0  0  0
   -5.8950   23.6270  -30.0270 C   0  0  0  0  0  0  0  0  0  0  0  0
   -6.8000   24.8390  -29.8510 C   0  0  0  0  0  0  0  0  0  0  0  0
   -5.3430   24.9120  -29.4290 C   0  0  0  0  0  0  0  0  0  0  0  0
   -4.4930   21.0870  -30.8400 C   0  0  0  0  0  0  0  0  0  0  0  0
   -4.6070   19.7080  -31.5240 C   0  0  0  0  0  0  0  0  0  0  0  0
   -7.2890   18.4920  -32.6970 C   0  0  0  0  0  0  0  0  0  0  0  0
   -6.9000   17.0500  -32.6470 C   0  0  0  0  0  0  0  0  0  0  0  0
   -8.4040   18.9960  -32.1350 N   0  0  0  0  0  0  0  0  0  0  0  0
   -8.8279   23.0874  -30.8975 H   0  0  0  0  0  0  0  0  0  0  0  0
   -8.0103   22.6944  -32.4479 H   0  0  0  0  0  0  0  0  0  0  0  0
   -9.7226   23.2372  -32.4479 H   0  0  0  0  0  0  0  0  0  0  0  0
   -9.6035   20.9764  -30.7163 H   0  0  0  0  0  0  0  0  0  0  0  0
  -10.3496   21.0765  -32.3536 H   0  0  0  0  0  0  0  0  0  0  0  0
   -6.9892   21.7068  -33.2104 H   0  0  0  0  0  0  0  0  0  0  0  0
   -5.0986   18.4769  -34.3733 H   0  0  0  0  0  0  0  0  0  0  0  0
   -5.1593   20.2535  -34.6684 H   0  0  0  0  0  0  0  0  0  0  0  0
   -2.3788   20.8266  -32.6406 H   0  0  0  0  0  0  0  0  0  0  0  0
   -2.9858   20.7346  -34.3426 H   0  0  0  0  0  0  0  0  0  0  0  0
   -3.3125   22.9791  -33.1427 H   0  0  0  0  0  0  0  0  0  0  0  0
   -4.7796   22.2344  -33.8932 H   0  0  0  0  0  0  0  0  0  0  0  0
   -5.9327   22.5730  -29.7146 H   0  0  0  0  0  0  0  0  0  0  0  0
   -7.1462   25.3995  -30.7319 H   0  0  0  0  0  0  0  0  0  0  0  0
   -7.7638   25.0244  -29.3543 H   0  0  0  0  0  0  0  0  0  0  0  0
   -4.6343   25.5258  -30.0042 H   0  0  0  0  0  0  0  0  0  0  0  0
   -4.8153   25.1726  -28.4997 H   0  0  0  0  0  0  0  0  0  0  0  0
   -3.4869   21.1907  -30.4076 H   0  0  0  0  0  0  0  0  0  0  0  0
   -5.2614   21.1507  -30.0555 H   0  0  0  0  0  0  0  0  0  0  0  0
   -4.0223   18.9848  -30.9365 H   0  0  0  0  0  0  0  0  0  0  0  0
   -5.6798   19.4680  -31.5622 H   0  0  0  0  0  0  0  0  0  0  0  0
   -6.8136   16.7297  -31.5982 H   0  0  0  0  0  0  0  0  0  0  0  0
   -7.6672   16.4455  -33.1530 H   0  0  0  0  0  0  0  0  0  0  0  0
   -5.9329   16.9134  -33.1530 H   0  0  0  0  0  0  0  0  0  0  0  0
   -9.1440   18.4590  -31.6300 H   0  0  0  0  0  0  0  0  0  0  0  0
  1  2  1  0
  2  3  1  0
  3  4  1  0
  4  5  2  0
  5  6  1  0
  6  7  1  0
  7  8  1  0
  8  9  1  0
  9 10  1  0
 10 11  1  0
 11 12  2  0
 11 13  1  0
 13 14  1  0
 14 15  1  0
 10 16  1  0
 16 17  1  0
  5 18  1  0
 18 19  1  0
 18 20  2  0
 20  3  1  0
 17  7  1  0
 15 13  1  0
  1 21  1  0
  1 22  1  0
  1 23  1  0
  2 24  1  0
  2 25  1  0
  4 26  1  0
  6 27  1  0
  6 28  1  0
  8 29  1  0
  8 30  1  0
  9 31  1  0
  9 32  1  0
 13 33  1  0
 14 34  1  0
 14 35  1  0
 15 36  1  0
 15 37  1  0
 16 38  1  0
 16 39  1  0
 17 40  1  0
 17 41  1  0
 19 42  1  0
 19 43  1  0
 19 44  1  0
 20 45  1  0
M  CHG  1  20   1
M  END
>  <UniqueID>  (13) 
13

>  <SMILES>  (13) 
CCn1cc(CN2CCN(C(=O)C3CC3)CC2)c(C)[nH+]1

>  <Energy>  (13) 
340.0583329255475

>  <Genealogy>  (13) 
CCn1cc(CN2CCN(C(=O)C3CC3)CC2)c(C)[nH+]1 (protonated)
CCn1cc(CN2CCN(C(=O)C3CC3)CC2)c(C)[nH+]1 (3D coordinates assigned)
CCn1cc(CN2CCN(C(=O)C3CC3)CC2)c(C)[nH+]1 (nonaromatic ring conformer: 340.0583329255475 kcal/mol)

>  <smiles>  (13) 
CCn1cc(CN2CCN(C(=O)C3CC3)CC2)c(C)n1

>  <score_type>  (13) 
oracle

>  <origin>  (13) 
adg

>  <m_score__min__energy>  (13) 
-7.0599999999999996

>  <m_primary>  (13) 
energy

$$$$
13:0
     RDKit          3D

 36 39  0  0  0  0  0  0  0  0999 V2000
   -5.5310   18.1520  -34.7660 C   0  0  0  0  0  0  0  0  0  0  0  0
   -6.1050   19.1900  -33.8620 C   0  0  0  0  0  0  0  0  0  0  0  0
   -5.3930   20.2450  -33.3920 N   0  0  0  0  0  0  0  0  0  0  0  0
   -6.3020   20.8500  -32.6050 C   0  0  0  0  0  0  0  0  0  0  0  0
   -7.4590   20.1790  -32.5720 N   0  0  0  0  0  0  0  0  0  0  0  0
   -7.3620   19.1340  -33.3680 N   0  0  0  0  0  0  0  0  0  0  0  0
   -8.6520   20.5990  -31.8430 C   0  0  0  0  0  0  0  0  0  0  0  0
   -8.2740   21.6450  -30.7810 C   0  0  0  0  0  0  0  0  0  0  0  0
   -7.3560   22.6510  -31.3640 N   0  0  0  0  0  0  0  0  0  0  0  0
   -7.1950   23.8470  -30.5100 C   0  0  0  0  0  0  0  0  0  0  0  0
   -5.7580   24.2410  -30.2940 C   0  0  0  0  0  0  0  0  0  0  0  0
   -5.1120   25.3100  -30.8730 C   0  0  0  0  0  0  0  0  0  0  0  0
   -3.8740   25.2950  -30.4460 O   0  0  0  0  0  0  0  0  0  0  0  0
   -3.7540   24.2640  -29.6400 C   0  0  0  0  0  0  0  0  0  0  0  0
   -2.5050   23.9060  -28.9600 C   0  0  0  0  0  0  0  0  0  0  0  0
   -2.1650   22.6420  -28.4960 C   0  0  0  0  0  0  0  0  0  0  0  0
   -0.9060   22.6010  -27.8850 C   0  0  0  0  0  0  0  0  0  0  0  0
   -0.2550   23.8290  -27.8660 C   0  0  0  0  0  0  0  0  0  0  0  0
   -1.2460   24.9650  -28.6100 S   0  0  0  0  0  0  0  0  0  0  0  0
   -4.9010   23.5650  -29.5060 N   0  0  0  0  0  0  0  0  0  0  0  0
   -6.0580   22.0540  -31.7540 C   0  0  0  0  0  0  0  0  0  0  0  0
   -5.0857   17.3467  -34.1634 H   0  0  0  0  0  0  0  0  0  0  0  0
   -6.3280   17.7372  -35.4007 H   0  0  0  0  0  0  0  0  0  0  0  0
   -4.7560   18.6065  -35.4007 H   0  0  0  0  0  0  0  0  0  0  0  0
   -9.3741   21.0382  -32.5470 H   0  0  0  0  0  0  0  0  0  0  0  0
   -9.1007   19.7253  -31.3478 H   0  0  0  0  0  0  0  0  0  0  0  0
   -9.1852   22.1472  -30.4240 H   0  0  0  0  0  0  0  0  0  0  0  0
   -7.7717   21.1418  -29.9417 H   0  0  0  0  0  0  0  0  0  0  0  0
   -7.7190   24.6885  -30.9868 H   0  0  0  0  0  0  0  0  0  0  0  0
   -7.6147   23.5995  -29.5238 H   0  0  0  0  0  0  0  0  0  0  0  0
   -5.5538   26.0412  -31.5659 H   0  0  0  0  0  0  0  0  0  0  0  0
   -2.8182   21.7628  -28.5981 H   0  0  0  0  0  0  0  0  0  0  0  0
   -0.4728   21.6835  -27.4600 H   0  0  0  0  0  0  0  0  0  0  0  0
    0.7390   24.0242  -27.4373 H   0  0  0  0  0  0  0  0  0  0  0  0
   -5.4703   22.7912  -32.3207 H   0  0  0  0  0  0  0  0  0  0  0  0
   -5.5025   21.7599  -30.8513 H   0  0  0  0  0  0  0  0  0  0  0  0
  1  2  1  0
  2  3  1  0
  3  4  2  0
  4  5  1  0
  5  6  1  0
  5  7  1  0
  7  8  1  0
  8  9  1  0
  9 10  1  0
 10 11  1  0
 11 12  2  0
 12 13  1  0
 13 14  1  0
 14 15  1  0
 15 16  2  0
 16 17  1  0
 17 18  2  0
 18 19  1  0
 14 20  2  0
  9 21  1  0
  6  2  2  0
 20 11  1  0
 21  4  1  0
 19 15  1  0
  1 22  1  0
  1 23  1  0
  1 24  1  0
  7 25  1  0
  7 26  1  0
  8 27  1  0
  8 28  1  0
 10 29  1  0
 10 30  1  0
 12 31  1  0
 16 32  1  0
 17 33  1  0
 18 34  1  0
 21 35  1  0
 21 36  1  0
M  END
>  <UniqueID>  (14) 
14

>  <SMILES>  (14) 
Cc1nc2n(n1)CCN(Cc1coc(-c3cccs3)n1)C2

>  <Energy>  (14) 
129.671836631533

>  <Genealogy>  (14) 
Cc1nc2n(n1)CCN(Cc1coc(-c3cccs3)n1)C2 (3D coordinates assigned)
Cc1nc2n(n1)CCN(Cc1coc(-c3cccs3)n1)C2 (nonaromatic ring conformer: 129.671836631533 kcal/mol)

>  <smiles>  (14) 
Cc1nc2n(n1)CCN(Cc1coc(-c3cccs3)n1)C2

>  <score_type>  (14) 
oracle

>  <origin>  (14) 
adg

>  <m_score__min__energy>  (14) 
-8.0399999999999991

>  <m_primary>  (14) 
energy

$$$$
14:0
     RDKit          3D

 42 45  0  0  0  0  0  0  0  0999 V2000
   -0.1020   20.5030  -29.8030 C   0  0  0  0  0  0  0  0  0  0  0  0
   -0.9240   21.7460  -29.6900 C   0  0  0  0  0  0  0  0  0  0  0  0
   -0.4020   22.8880  -29.0430 C   0  0  0  0  0  0  0  0  0  0  0  0
   -1.2040   24.0370  -28.9370 C   0  0  0  0  0  0  0  0  0  0  0  0
   -0.7160   25.2600  -28.2180 C   0  0  0  0  0  0  0  0  0  0  0  0
   -2.4620   23.9790  -29.4500 N   0  0  0  0  0  0  0  0  0  0  0  0
   -3.3880   24.9220  -29.4090 N   0  0  0  0  0  0  0  0  0  0  0  0
   -4.4880   24.4180  -30.0170 C   0  0  0  0  0  0  0  0  0  0  0  0
   -4.2440   23.1170  -30.4570 C   0  0  0  0  0  0  0  0  0  0  0  0
   -5.2060   22.2250  -31.1380 C   0  0  0  0  0  0  0  0  0  0  0  0
   -6.5010   22.6200  -31.2440 N   0  0  0  0  0  0  0  0  0  0  0  0
   -7.4320   21.8410  -31.8470 C   0  0  0  0  0  0  0  0  0  0  0  0
   -7.0690   20.6060  -32.3920 C   0  0  0  0  0  0  0  0  0  0  0  0
   -5.7150   20.2180  -32.3170 C   0  0  0  0  0  0  0  0  0  0  0  0
   -5.2370   18.9230  -32.9180 C   0  0  0  0  0  0  0  0  0  0  0  0
   -4.8200   21.0330  -31.6820 N   0  0  0  0  0  0  0  0  0  0  0  0
   -8.1420   19.7990  -33.0850 C   0  0  0  0  0  0  0  0  0  0  0  0
   -9.4430   19.8040  -32.2620 C   0  0  0  0  0  0  0  0  0  0  0  0
   -9.8470   21.1920  -31.6990 C   0  0  0  0  0  0  0  0  0  0  0  0
   -8.8450   22.3220  -31.9940 C   0  0  0  0  0  0  0  0  0  0  0  0
   -2.9390   22.8890  -30.0640 C   0  0  0  0  0  0  0  0  0  0  0  0
   -2.1970   21.7610  -30.1850 N   0  0  0  0  0  0  0  0  0  0  0  0
    0.1429   20.1326  -28.7966 H   0  0  0  0  0  0  0  0  0  0  0  0
   -0.6711   19.7353  -30.3478 H   0  0  0  0  0  0  0  0  0  0  0  0
    0.8272   20.7262  -30.3478 H   0  0  0  0  0  0  0  0  0  0  0  0
    0.6168   22.8780  -28.6284 H   0  0  0  0  0  0  0  0  0  0  0  0
   -0.7809   25.0973  -27.1320 H   0  0  0  0  0  0  0  0  0  0  0  0
    0.3296   25.4569  -28.4974 H   0  0  0  0  0  0  0  0  0  0  0  0
   -1.3388   26.1226  -28.4974 H   0  0  0  0  0  0  0  0  0  0  0  0
   -5.4380   24.9574  -30.1455 H   0  0  0  0  0  0  0  0  0  0  0  0
   -4.9772   18.2192  -32.1135 H   0  0  0  0  0  0  0  0  0  0  0  0
   -6.0348   18.4908  -33.5398 H   0  0  0  0  0  0  0  0  0  0  0  0
   -4.3497   19.1128  -33.5398 H   0  0  0  0  0  0  0  0  0  0  0  0
   -3.8190   20.7440  -31.6430 H   0  0  0  0  0  0  0  0  0  0  0  0
   -8.3394   20.2355  -34.0752 H   0  0  0  0  0  0  0  0  0  0  0  0
   -7.7928   18.7611  -33.1884 H   0  0  0  0  0  0  0  0  0  0  0  0
  -10.2584   19.4452  -32.9073 H   0  0  0  0  0  0  0  0  0  0  0  0
   -9.2634   19.1554  -31.3919 H   0  0  0  0  0  0  0  0  0  0  0  0
  -10.8166   21.4706  -32.1376 H   0  0  0  0  0  0  0  0  0  0  0  0
   -9.8816   21.0853  -30.6047 H   0  0  0  0  0  0  0  0  0  0  0  0
   -8.9981   22.6786  -33.0233 H   0  0  0  0  0  0  0  0  0  0  0  0
   -9.0141   23.1364  -31.2742 H   0  0  0  0  0  0  0  0  0  0  0  0
  1  2  1  0
  2  3  1  0
  3  4  2  0
  4  5  1  0
  4  6  1  0
  6  7  1  0
  7  8  2  0
  8  9  1  0
  9 10  1  0
 10 11  2  0
 11 12  1  0
 12 13  2  0
 13 14  1  0
 14 15  1  0
 14 16  2  0
 13 17  1  0
 17 18  1  0
 18 19  1  0
 19 20  1  0
  9 21  2  0
 21 22  1  0
 22  2  2  0
 21  6  1  0
 16 10  1  0
 20 12  1  0
  1 23  1  0
  1 24  1  0
  1 25  1  0
  3 26  1  0
  5 27  1  0
  5 28  1  0
  5 29  1  0
  8 30  1  0
 15 31  1  0
 15 32  1  0
 15 33  1  0
 16 34  1  0
 17 35  1  0
 17 36  1  0
 18 37  1  0
 18 38  1  0
 19 39  1  0
 19 40  1  0
 20 41  1  0
 20 42  1  0
M  CHG  1  16   1
M  END
>  <UniqueID>  (15) 
15

>  <SMILES>  (15) 
Cc1cc(C)n2ncc(-c3nc4c(c(C)[nH+]3)CCCC4)c2n1

>  <Energy>  (15) 
87.74736397922298

>  <Genealogy>  (15) 
Cc1cc(C)n2ncc(-c3nc4c(c(C)[nH+]3)CCCC4)c2n1 (protonated)
Cc1cc(C)n2ncc(-c3nc4c(c(C)[nH+]3)CCCC4)c2n1 (3D coordinates assigned)
Cc1cc(C)n2ncc(-c3nc4c(c(C)[nH+]3)CCCC4)c2n1 (nonaromatic ring conformer: 87.74736397922298 kcal/mol)

>  <smiles>  (15) 
Cc1cc(C)n2ncc(-c3nc(C)c4c(n3)CCCC4)c2n1

>  <score_type>  (15) 
oracle

>  <origin>  (15) 
adg

>  <m_score__min__energy>  (15) 
-7.3300000000000001

>  <m_primary>  (15) 
energy

$$$$
15:0
     RDKit          3D

 49 52  0  0  0  0  0  0  0  0999 V2000
   -6.4820   25.6620  -29.3700 C   0  0  0  0  0  0  0  0  0  0  0  0
   -5.7000   25.6770  -30.6770 C   0  0  0  0  0  0  0  0  0  0  0  0
   -4.3430   25.1660  -30.4500 N   0  0  0  0  0  0  0  0  0  0  0  0
   -4.2000   23.7550  -30.8430 C   0  0  0  0  0  0  0  0  0  0  0  0
   -5.5510   23.1030  -31.2010 C   0  0  0  0  0  0  0  0  0  0  0  0
   -5.6200   22.6850  -32.6160 N   0  0  0  0  0  0  0  0  0  0  0  0
   -5.5960   21.2350  -32.7720 C   0  0  0  0  0  0  0  0  0  0  0  0
   -6.7790   20.4710  -32.5580 C   0  0  0  0  0  0  0  0  0  0  0  0
   -7.9910   21.0790  -32.1420 C   0  0  0  0  0  0  0  0  0  0  0  0
   -9.1420   20.3250  -31.9300 C   0  0  0  0  0  0  0  0  0  0  0  0
   -9.1220   18.9540  -32.1230 C   0  0  0  0  0  0  0  0  0  0  0  0
   -7.9500   18.3240  -32.5310 C   0  0  0  0  0  0  0  0  0  0  0  0
   -6.7580   19.0600  -32.7640 C   0  0  0  0  0  0  0  0  0  0  0  0
   -5.6030   18.4300  -33.1790 N   0  0  0  0  0  0  0  0  0  0  0  0
   -5.6070   16.9710  -33.4330 C   0  0  0  0  0  0  0  0  0  0  0  0
   -4.4390   19.1440  -33.3470 C   0  0  0  0  0  0  0  0  0  0  0  0
   -3.2940   18.4950  -33.7080 N   0  0  0  0  0  0  0  0  0  0  0  0
   -2.1070   19.1190  -33.8900 C   0  0  0  0  0  0  0  0  0  0  0  0
   -0.9750   18.3830  -34.2600 C   0  0  0  0  0  0  0  0  0  0  0  0
    0.2500   19.0320  -34.4410 C   0  0  0  0  0  0  0  0  0  0  0  0
    0.3460   20.4150  -34.2510 C   0  0  0  0  0  0  0  0  0  0  0  0
   -0.7830   21.1530  -33.8820 C   0  0  0  0  0  0  0  0  0  0  0  0
   -2.0160   20.5050  -33.7010 C   0  0  0  0  0  0  0  0  0  0  0  0
   -3.1630   21.2130  -33.3310 C   0  0  0  0  0  0  0  0  0  0  0  0
   -4.4040   20.5500  -33.1470 C   0  0  0  0  0  0  0  0  0  0  0  0
   -5.7805   25.6755  -28.5228 H   0  0  0  0  0  0  0  0  0  0  0  0
   -7.1324   26.5478  -29.3216 H   0  0  0  0  0  0  0  0  0  0  0  0
   -7.0979   24.7519  -29.3216 H   0  0  0  0  0  0  0  0  0  0  0  0
   -6.2108   25.0416  -31.4155 H   0  0  0  0  0  0  0  0  0  0  0  0
   -5.6414   26.7089  -31.0535 H   0  0  0  0  0  0  0  0  0  0  0  0
   -4.1010   25.2720  -29.4360 H   0  0  0  0  0  0  0  0  0  0  0  0
   -3.5374   23.6980  -31.7192 H   0  0  0  0  0  0  0  0  0  0  0  0
   -3.7820   23.2091  -29.9844 H   0  0  0  0  0  0  0  0  0  0  0  0
   -5.6952   22.2177  -30.5642 H   0  0  0  0  0  0  0  0  0  0  0  0
   -6.3384   23.8530  -31.0353 H   0  0  0  0  0  0  0  0  0  0  0  0
   -4.8890   23.1710  -33.1740 H   0  0  0  0  0  0  0  0  0  0  0  0
   -6.4960   23.0630  -33.0420 H   0  0  0  0  0  0  0  0  0  0  0  0
   -8.0222   22.1671  -31.9838 H   0  0  0  0  0  0  0  0  0  0  0  0
  -10.0702   20.8199  -31.6082 H   0  0  0  0  0  0  0  0  0  0  0  0
  -10.0336   18.3621  -31.9536 H   0  0  0  0  0  0  0  0  0  0  0  0
   -7.9469   17.2336  -32.6760 H   0  0  0  0  0  0  0  0  0  0  0  0
   -5.6085   16.4319  -32.4742 H   0  0  0  0  0  0  0  0  0  0  0  0
   -6.5059   16.7012  -34.0067 H   0  0  0  0  0  0  0  0  0  0  0  0
   -4.7096   16.6962  -34.0067 H   0  0  0  0  0  0  0  0  0  0  0  0
   -1.0493   17.2956  -34.4081 H   0  0  0  0  0  0  0  0  0  0  0  0
    1.1396   18.4547  -34.7332 H   0  0  0  0  0  0  0  0  0  0  0  0
    1.3116   20.9227  -34.3922 H   0  0  0  0  0  0  0  0  0  0  0  0
   -0.7056   22.2402  -33.7336 H   0  0  0  0  0  0  0  0  0  0  0  0
   -3.1027   22.3009  -33.1801 H   0  0  0  0  0  0  0  0  0  0  0  0
  1  2  1  0
  2  3  1  0
  3  4  1  0
  4  5  1  0
  5  6  1  0
  6  7  1  0
  7  8  2  0
  8  9  1  0
  9 10  2  0
 10 11  1  0
 11 12  2  0
 12 13  1  0
 13 14  2  0
 14 15  1  0
 14 16  1  0
 16 17  2  0
 17 18  1  0
 18 19  2  0
 19 20  1  0
 20 21  2  0
 21 22  1  0
 22 23  2  0
 23 24  1  0
 24 25  2  0
 25  7  1  0
 13  8  1  0
 25 16  1  0
 23 18  1  0
  1 26  1  0
  1 27  1  0
  1 28  1  0
  2 29  1  0
  2 30  1  0
  3 31  1  0
  4 32  1  0
  4 33  1  0
  5 34  1  0
  5 35  1  0
  6 36  1  0
  6 37  1  0
  9 38  1  0
 10 39  1  0
 11 40  1  0
 12 41  1  0
 15 42  1  0
 15 43  1  0
 15 44  1  0
 19 45  1  0
 20 46  1  0
 21 47  1  0
 22 48  1  0
 24 49  1  0
M  CHG  2   6   1  14   1
M  END
>  <UniqueID>  (16) 
16

>  <SMILES>  (16) 
CCNCC[NH2+]c1c2ccccc2[n+](C)c2nc3ccccc3cc12

>  <Energy>  (16) 
76.2667687778231

>  <Genealogy>  (16) 
CCNCC[NH2+]c1c2ccccc2[n+](C)c2nc3ccccc3cc12 (protonated)
CCNCC[NH2+]c1c2ccccc2[n+](C)c2nc3ccccc3cc12 (3D coordinates assigned)
CCNCC[NH2+]c1c2ccccc2[n+](C)c2nc3ccccc3cc12 (optimized conformer: 76.2667687778231 kcal/mol)

>  <smiles>  (16) 
CCNCCNc1c2ccccc2[n+](C)c2nc3ccccc3cc12

>  <score_type>  (16) 
oracle

>  <origin>  (16) 
adg

>  <m_score__min__energy>  (16) 
-8.6799999999999997

>  <m_primary>  (16) 
energy

$$$$
16:0
     RDKit          3D

 54 57  0  0  0  0  0  0  0  0999 V2000
   -6.8060   24.3470  -30.2200 C   0  0  0  0  0  0  0  0  0  0  0  0
   -5.7390   25.4400  -30.2400 C   0  0  0  0  0  0  0  0  0  0  0  0
   -4.4980   24.9270  -30.8380 N   0  0  0  0  0  0  0  0  0  0  0  0
   -4.2640   23.5250  -30.4440 C   0  0  0  0  0  0  0  0  0  0  0  0
   -3.8160   22.7070  -31.6590 C   0  0  0  0  0  0  0  0  0  0  0  0
   -4.9280   22.5120  -32.6040 N   0  0  0  0  0  0  0  0  0  0  0  0
   -5.1890   21.0860  -32.7840 C   0  0  0  0  0  0  0  0  0  0  0  0
   -6.4900   20.5660  -32.5210 C   0  0  0  0  0  0  0  0  0  0  0  0
   -7.6110   21.4120  -32.3160 C   0  0  0  0  0  0  0  0  0  0  0  0
   -8.8840   20.8880  -32.1050 C   0  0  0  0  0  0  0  0  0  0  0  0
   -9.0820   19.5140  -32.1070 C   0  0  0  0  0  0  0  0  0  0  0  0
   -7.9990   18.6570  -32.2720 C   0  0  0  0  0  0  0  0  0  0  0  0
   -6.6810   19.1580  -32.4430 C   0  0  0  0  0  0  0  0  0  0  0  0
   -5.6020   18.3080  -32.5370 N   0  0  0  0  0  0  0  0  0  0  0  0
   -5.7320   16.9000  -32.0960 C   0  0  0  0  0  0  0  0  0  0  0  0
   -4.4030   18.7690  -33.0420 C   0  0  0  0  0  0  0  0  0  0  0  0
   -3.4080   17.8620  -33.4850 C   0  0  0  0  0  0  0  0  0  0  0  0
   -2.1880   18.3040  -33.9850 C   0  0  0  0  0  0  0  0  0  0  0  0
   -1.9220   19.6710  -34.0890 C   0  0  0  0  0  0  0  0  0  0  0  0
   -0.6440   20.1300  -34.6850 C   0  0  0  0  0  0  0  0  0  0  0  0
   -0.2550   21.4800  -34.5920 C   0  0  0  0  0  0  0  0  0  0  0  0
    0.9300   21.9160  -35.1970 C   0  0  0  0  0  0  0  0  0  0  0  0
    1.7380   21.0140  -35.8900 C   0  0  0  0  0  0  0  0  0  0  0  0
    1.3610   19.6710  -35.9890 C   0  0  0  0  0  0  0  0  0  0  0  0
    0.1710   19.2330  -35.3950 C   0  0  0  0  0  0  0  0  0  0  0  0
   -2.8980   20.5940  -33.6830 C   0  0  0  0  0  0  0  0  0  0  0  0
   -4.1560   20.1690  -33.1610 C   0  0  0  0  0  0  0  0  0  0  0  0
   -7.0526   24.0944  -29.1782 H   0  0  0  0  0  0  0  0  0  0  0  0
   -7.7095   24.7072  -30.7337 H   0  0  0  0  0  0  0  0  0  0  0  0
   -6.4242   23.4524  -30.7337 H   0  0  0  0  0  0  0  0  0  0  0  0
   -6.1028   26.2922  -30.8328 H   0  0  0  0  0  0  0  0  0  0  0  0
   -5.5343   25.7607  -29.2079 H   0  0  0  0  0  0  0  0  0  0  0  0
   -4.6120   24.9500  -31.8780 H   0  0  0  0  0  0  0  0  0  0  0  0
   -3.4811   23.4894  -29.6722 H   0  0  0  0  0  0  0  0  0  0  0  0
   -5.1983   23.1006  -30.0477 H   0  0  0  0  0  0  0  0  0  0  0  0
   -2.9995   23.2389  -32.1693 H   0  0  0  0  0  0  0  0  0  0  0  0
   -3.4755   21.7207  -31.3107 H   0  0  0  0  0  0  0  0  0  0  0  0
   -5.7870   22.9990  -32.2690 H   0  0  0  0  0  0  0  0  0  0  0  0
   -4.6940   23.0140  -33.4790 H   0  0  0  0  0  0  0  0  0  0  0  0
   -7.4716   22.5031  -32.3239 H   0  0  0  0  0  0  0  0  0  0  0  0
   -9.7347   21.5646  -31.9363 H   0  0  0  0  0  0  0  0  0  0  0  0
  -10.0944   19.1034  -31.9782 H   0  0  0  0  0  0  0  0  0  0  0  0
   -8.1665   17.5698  -32.2700 H   0  0  0  0  0  0  0  0  0  0  0  0
   -5.7358   16.8589  -30.9968 H   0  0  0  0  0  0  0  0  0  0  0  0
   -6.6727   16.4803  -32.4819 H   0  0  0  0  0  0  0  0  0  0  0  0
   -4.8840   16.3151  -32.4819 H   0  0  0  0  0  0  0  0  0  0  0  0
   -3.6058   16.7812  -33.4320 H   0  0  0  0  0  0  0  0  0  0  0  0
   -1.4287   17.5732  -34.3002 H   0  0  0  0  0  0  0  0  0  0  0  0
   -0.8845   22.1949  -34.0419 H   0  0  0  0  0  0  0  0  0  0  0  0
    1.2250   22.9733  -35.1257 H   0  0  0  0  0  0  0  0  0  0  0  0
    2.6715   21.3592  -36.3584 H   0  0  0  0  0  0  0  0  0  0  0  0
    1.9989   18.9590  -36.5332 H   0  0  0  0  0  0  0  0  0  0  0  0
   -0.1279   18.1782  -35.4851 H   0  0  0  0  0  0  0  0  0  0  0  0
   -2.6882   21.6704  -33.7692 H   0  0  0  0  0  0  0  0  0  0  0  0
  1  2  1  0
  2  3  1  0
  3  4  1  0
  4  5  1  0
  5  6  1  0
  6  7  1  0
  7  8  2  0
  8  9  1  0
  9 10  2  0
 10 11  1  0
 11 12  2  0
 12 13  1  0
 13 14  2  0
 14 15  1  0
 14 16  1  0
 16 17  2  0
 17 18  1  0
 18 19  2  0
 19 20  1  0
 20 21  2  0
 21 22  1  0
 22 23  2  0
 23 24  1  0
 24 25  2  0
 19 26  1  0
 26 27  2  0
 27  7  1  0
 13  8  1  0
 27 16  1  0
 25 20  1  0
  1 28  1  0
  1 29  1  0
  1 30  1  0
  2 31  1  0
  2 32  1  0
  3 33  1  0
  4 34  1  0
  4 35  1  0
  5 36  1  0
  5 37  1  0
  6 38  1  0
  6 39  1  0
  9 40  1  0
 10 41  1  0
 11 42  1  0
 12 43  1  0
 15 44  1  0
 15 45  1  0
 15 46  1  0
 17 47  1  0
 18 48  1  0
 21 49  1  0
 22 50  1  0
 23 51  1  0
 24 52  1  0
 25 53  1  0
 26 54  1  0
M  CHG  2   6   1  14   1
M  END
>  <UniqueID>  (17) 
17

>  <SMILES>  (17) 
CCNCC[NH2+]c1c2ccccc2[n+](C)c2ccc(-c3ccccc3)cc12

>  <Energy>  (17) 
90.96420189242443

>  <Genealogy>  (17) 
CCNCC[NH2+]c1c2ccccc2[n+](C)c2ccc(-c3ccccc3)cc12 (protonated)
CCNCC[NH2+]c1c2ccccc2[n+](C)c2ccc(-c3ccccc3)cc12 (3D coordinates assigned)
CCNCC[NH2+]c1c2ccccc2[n+](C)c2ccc(-c3ccccc3)cc12 (optimized conformer: 90.96420189242443 kcal/mol)

>  <smiles>  (17) 
CCNCCNc1c2ccccc2[n+](C)c2ccc(-c3ccccc3)cc12

>  <score_type>  (17) 
oracle

>  <origin>  (17) 
adg

>  <m_score__min__energy>  (17) 
-8.9900000000000002

>  <m_primary>  (17) 
energy

$$$$
17:0
     RDKit          3D

 47 48  0  0  0  0  0  0  0  0999 V2000
    0.6490   24.6580  -36.1340 C   0  0  0  0  0  0  0  0  0  0  0  0
    1.4180   23.3860  -35.7360 C   0  0  0  0  0  0  0  0  0  0  0  0
    0.5470   22.2580  -35.3290 N   0  0  0  0  0  0  0  0  0  0  0  0
    0.1990   21.3630  -36.4580 C   0  0  0  0  0  0  0  0  0  0  0  0
    1.0040   20.0740  -36.3560 C   0  0  0  0  0  0  0  0  0  0  0  0
    1.0370   21.5440  -34.1280 C   0  0  0  0  0  0  0  0  0  0  0  0
   -0.1360   21.0150  -33.2880 C   0  0  0  0  0  0  0  0  0  0  0  0
   -1.4300   21.3360  -33.8920 N   0  0  0  0  0  0  0  0  0  0  0  0
   -2.6850   20.7390  -33.5110 C   0  0  0  0  0  0  0  0  0  0  0  0
   -2.8000   19.3490  -33.2240 C   0  0  0  0  0  0  0  0  0  0  0  0
   -4.0380   18.7880  -32.8620 C   0  0  0  0  0  0  0  0  0  0  0  0
   -5.1400   19.6380  -32.7860 C   0  0  0  0  0  0  0  0  0  0  0  0
   -5.0370   20.9720  -33.0580 C   0  0  0  0  0  0  0  0  0  0  0  0
   -3.8300   21.5620  -33.4210 C   0  0  0  0  0  0  0  0  0  0  0  0
   -6.2410   21.5540  -32.9380 N   0  0  0  0  0  0  0  0  0  0  0  0
   -7.0710   20.5390  -32.5920 C   0  0  0  0  0  0  0  0  0  0  0  0
   -8.5380   20.7250  -32.3580 C   0  0  0  0  0  0  0  0  0  0  0  0
   -6.4200   19.3490  -32.4750 N   0  0  0  0  0  0  0  0  0  0  0  0
   -6.9930   18.0330  -32.1830 C   0  0  0  0  0  0  0  0  0  0  0  0
   -6.8510   17.1120  -33.3890 C   0  0  0  0  0  0  0  0  0  0  0  0
    0.3270   25.1907  -35.2270 H   0  0  0  0  0  0  0  0  0  0  0  0
    1.3037   25.3110  -36.7297 H   0  0  0  0  0  0  0  0  0  0  0  0
   -0.2335   24.3817  -36.7297 H   0  0  0  0  0  0  0  0  0  0  0  0
    2.0222   23.0635  -36.5967 H   0  0  0  0  0  0  0  0  0  0  0  0
    2.0322   23.6458  -34.8612 H   0  0  0  0  0  0  0  0  0  0  0  0
   -0.8749   21.1277  -36.4209 H   0  0  0  0  0  0  0  0  0  0  0  0
    0.4336   21.8656  -37.4079 H   0  0  0  0  0  0  0  0  0  0  0  0
    1.1610   19.8226  -35.2967 H   0  0  0  0  0  0  0  0  0  0  0  0
    0.4544   19.2585  -36.8488 H   0  0  0  0  0  0  0  0  0  0  0  0
    1.9780   20.2100  -36.8488 H   0  0  0  0  0  0  0  0  0  0  0  0
    1.6648   20.6975  -34.4433 H   0  0  0  0  0  0  0  0  0  0  0  0
    1.6198   22.2469  -33.5146 H   0  0  0  0  0  0  0  0  0  0  0  0
   -0.0460   19.9222  -33.2004 H   0  0  0  0  0  0  0  0  0  0  0  0
   -0.0923   21.4976  -32.3005 H   0  0  0  0  0  0  0  0  0  0  0  0
   -1.4370   22.0670  -34.6400 H   0  0  0  0  0  0  0  0  0  0  0  0
   -1.9097   18.7060  -33.2862 H   0  0  0  0  0  0  0  0  0  0  0  0
   -4.1333   17.7136  -32.6460 H   0  0  0  0  0  0  0  0  0  0  0  0
   -3.7690   22.6398  -33.6321 H   0  0  0  0  0  0  0  0  0  0  0  0
   -6.4840   22.5580  -33.0910 H   0  0  0  0  0  0  0  0  0  0  0  0
   -8.7365   20.7502  -31.2763 H   0  0  0  0  0  0  0  0  0  0  0  0
   -8.8647   21.6718  -32.8129 H   0  0  0  0  0  0  0  0  0  0  0  0
   -9.0907   19.8897  -32.8129 H   0  0  0  0  0  0  0  0  0  0  0  0
   -6.4658   17.5905  -31.3250 H   0  0  0  0  0  0  0  0  0  0  0  0
   -8.0612   18.1529  -31.9495 H   0  0  0  0  0  0  0  0  0  0  0  0
   -6.6918   16.0794  -33.0450 H   0  0  0  0  0  0  0  0  0  0  0  0
   -7.7670   17.1591  -33.9962 H   0  0  0  0  0  0  0  0  0  0  0  0
   -5.9917   17.4328  -33.9962 H   0  0  0  0  0  0  0  0  0  0  0  0
  1  2  1  0
  2  3  1  0
  3  4  1  0
  4  5  1  0
  3  6  1  0
  6  7  1  0
  7  8  1  0
  8  9  1  0
  9 10  2  0
 10 11  1  0
 11 12  2  0
 12 13  1  0
 13 14  2  0
 13 15  1  0
 15 16  2  0
 16 17  1  0
 16 18  1  0
 18 19  1  0
 19 20  1  0
 14  9  1  0
 18 12  1  0
  1 21  1  0
  1 22  1  0
  1 23  1  0
  2 24  1  0
  2 25  1  0
  4 26  1  0
  4 27  1  0
  5 28  1  0
  5 29  1  0
  5 30  1  0
  6 31  1  0
  6 32  1  0
  7 33  1  0
  7 34  1  0
  8 35  1  0
 10 36  1  0
 11 37  1  0
 14 38  1  0
 15 39  1  0
 17 40  1  0
 17 41  1  0
 17 42  1  0
 19 43  1  0
 19 44  1  0
 20 45  1  0
 20 46  1  0
 20 47  1  0
M  CHG  1  15   1
M  END
>  <UniqueID>  (18) 
18

>  <SMILES>  (18) 
CCN(CC)CCNc1ccc2c(c1)[nH+]c(C)n2CC

>  <Energy>  (18) 
80.21635873708065

>  <Genealogy>  (18) 
CCN(CC)CCNc1ccc2c(c1)[nH+]c(C)n2CC (protonated)
CCN(CC)CCNc1ccc2c(c1)[nH+]c(C)n2CC (3D coordinates assigned)
CCN(CC)CCNc1ccc2c(c1)[nH+]c(C)n2CC (optimized conformer: 80.21635873708065 kcal/mol)

>  <smiles>  (18) 
CCN(CC)CCNc1ccc2c(c1)nc(C)n2CC

>  <score_type>  (18) 
oracle

>  <origin>  (18) 
adg

>  <m_score__min__energy>  (18) 
-6

>  <m_primary>  (18) 
energy

$$$$
18:0
     RDKit          3D

 71 73  0  0  0  0  0  0  0  0999 V2000
   -3.4170   23.9820  -28.0590 C   0  0  0  0  0  0  0  0  0  0  0  0
   -2.9800   24.5380  -29.4110 C   0  0  0  0  0  0  0  0  0  0  0  0
   -3.9750   24.1740  -30.4510 N   0  0  0  0  0  0  0  0  0  0  0  0
   -4.9630   25.2510  -30.6910 C   0  0  0  0  0  0  0  0  0  0  0  0
   -6.1500   25.2340  -29.7160 C   0  0  0  0  0  0  0  0  0  0  0  0
   -4.6290   22.8650  -30.2160 C   0  0  0  0  0  0  0  0  0  0  0  0
   -3.9360   21.7230  -30.9710 C   0  0  0  0  0  0  0  0  0  0  0  0
   -3.3950   22.1600  -32.3430 C   0  0  0  0  0  0  0  0  0  0  0  0
   -4.2810   21.7540  -33.4560 N   0  0  0  0  0  0  0  0  0  0  0  0
   -5.3830   20.9050  -33.0130 C   0  0  0  0  0  0  0  0  0  0  0  0
   -6.6090   21.5000  -32.5710 C   0  0  0  0  0  0  0  0  0  0  0  0
   -6.7910   22.9090  -32.4830 C   0  0  0  0  0  0  0  0  0  0  0  0
   -7.9710   23.4620  -31.9950 C   0  0  0  0  0  0  0  0  0  0  0  0
   -9.0030   22.6420  -31.5750 C   0  0  0  0  0  0  0  0  0  0  0  0
   -8.8730   21.2630  -31.6710 C   0  0  0  0  0  0  0  0  0  0  0  0
   -7.6990   20.6670  -32.2030 C   0  0  0  0  0  0  0  0  0  0  0  0
   -7.6120   19.3040  -32.3530 N   0  0  0  0  0  0  0  0  0  0  0  0
   -8.8470   18.4840  -32.3390 C   0  0  0  0  0  0  0  0  0  0  0  0
   -6.3890   18.7030  -32.5530 C   0  0  0  0  0  0  0  0  0  0  0  0
   -6.2490   17.3100  -32.3480 C   0  0  0  0  0  0  0  0  0  0  0  0
   -5.0710   16.6430  -32.6490 C   0  0  0  0  0  0  0  0  0  0  0  0
   -4.9830   15.1520  -32.4880 C   0  0  0  0  0  0  0  0  0  0  0  0
   -4.0050   17.3530  -33.1780 C   0  0  0  0  0  0  0  0  0  0  0  0
   -4.0480   18.7530  -33.3100 C   0  0  0  0  0  0  0  0  0  0  0  0
   -2.9120   19.4270  -33.7930 O   0  0  0  0  0  0  0  0  0  0  0  0
   -1.5760   18.9270  -33.8790 C   0  0  0  0  0  0  0  0  0  0  0  0
   -0.7060   19.7800  -34.8140 C   0  0  0  0  0  0  0  0  0  0  0  0
   -0.6130   21.1790  -34.3490 N   0  0  0  0  0  0  0  0  0  0  0  0
    0.2900   21.9660  -35.2080 C   0  0  0  0  0  0  0  0  0  0  0  0
   -0.1160   21.2070  -32.9630 C   0  0  0  0  0  0  0  0  0  0  0  0
   -5.2510   19.4680  -32.9610 C   0  0  0  0  0  0  0  0  0  0  0  0
   -2.9541   24.5709  -27.2534 H   0  0  0  0  0  0  0  0  0  0  0  0
   -4.5121   24.0421  -27.9744 H   0  0  0  0  0  0  0  0  0  0  0  0
   -3.0998   22.9321  -27.9744 H   0  0  0  0  0  0  0  0  0  0  0  0
   -2.9026   25.6334  -29.3474 H   0  0  0  0  0  0  0  0  0  0  0  0
   -2.0021   24.1118  -29.6796 H   0  0  0  0  0  0  0  0  0  0  0  0
   -4.4500   26.2194  -30.5956 H   0  0  0  0  0  0  0  0  0  0  0  0
   -5.3743   25.0890  -31.6983 H   0  0  0  0  0  0  0  0  0  0  0  0
   -5.7752   25.2394  -28.6819 H   0  0  0  0  0  0  0  0  0  0  0  0
   -6.7753   26.1233  -29.8840 H   0  0  0  0  0  0  0  0  0  0  0  0
   -6.7495   24.3272  -29.8840 H   0  0  0  0  0  0  0  0  0  0  0  0
   -4.6017   22.6444  -29.1387 H   0  0  0  0  0  0  0  0  0  0  0  0
   -5.6625   22.9343  -30.5862 H   0  0  0  0  0  0  0  0  0  0  0  0
   -3.0962   21.3573  -30.3619 H   0  0  0  0  0  0  0  0  0  0  0  0
   -4.6856   20.9369  -31.1447 H   0  0  0  0  0  0  0  0  0  0  0  0
   -3.2975   23.2556  -32.3512 H   0  0  0  0  0  0  0  0  0  0  0  0
   -2.4232   21.6667  -32.4920 H   0  0  0  0  0  0  0  0  0  0  0  0
   -4.5980   22.5940  -33.9800 H   0  0  0  0  0  0  0  0  0  0  0  0
   -3.7430   21.2760  -34.2080 H   0  0  0  0  0  0  0  0  0  0  0  0
   -5.9796   23.5766  -32.8085 H   0  0  0  0  0  0  0  0  0  0  0  0
   -8.0836   24.5550  -31.9430 H   0  0  0  0  0  0  0  0  0  0  0  0
   -9.9246   23.0816  -31.1659 H   0  0  0  0  0  0  0  0  0  0  0  0
   -9.6962   20.6190  -31.3280 H   0  0  0  0  0  0  0  0  0  0  0  0
   -9.1443   18.2866  -31.2985 H   0  0  0  0  0  0  0  0  0  0  0  0
   -9.6533   19.0267  -32.8541 H   0  0  0  0  0  0  0  0  0  0  0  0
   -8.6597   17.5302  -32.8541 H   0  0  0  0  0  0  0  0  0  0  0  0
   -7.0970   16.7411  -31.9391 H   0  0  0  0  0  0  0  0  0  0  0  0
   -4.9681   14.8990  -31.4176 H   0  0  0  0  0  0  0  0  0  0  0  0
   -5.8548   14.6797  -32.9643 H   0  0  0  0  0  0  0  0  0  0  0  0
   -4.0617   14.7855  -32.9643 H   0  0  0  0  0  0  0  0  0  0  0  0
   -3.1050   16.8098  -33.5020 H   0  0  0  0  0  0  0  0  0  0  0  0
   -1.1288   18.9317  -32.8740 H   0  0  0  0  0  0  0  0  0  0  0  0
   -1.6188   17.9069  -34.2884 H   0  0  0  0  0  0  0  0  0  0  0  0
    0.3053   19.3490  -34.8517 H   0  0  0  0  0  0  0  0  0  0  0  0
   -1.1720   19.7802  -35.8104 H   0  0  0  0  0  0  0  0  0  0  0  0
    0.9703   22.5589  -34.5789 H   0  0  0  0  0  0  0  0  0  0  0  0
    0.8769   21.2861  -35.8431 H   0  0  0  0  0  0  0  0  0  0  0  0
   -0.3033   22.6403  -35.8431 H   0  0  0  0  0  0  0  0  0  0  0  0
   -0.9668   21.1591  -32.2674 H   0  0  0  0  0  0  0  0  0  0  0  0
    0.5455   20.3447  -32.7932 H   0  0  0  0  0  0  0  0  0  0  0  0
    0.4445   22.1381  -32.7932 H   0  0  0  0  0  0  0  0  0  0  0  0
  1  2  1  0
  2  3  1  0
  3  4  1  0
  4  5  1  0
  3  6  1  0
  6  7  1  0
  7  8  1  0
  8  9  1  0
  9 10  1  0
 10 11  2  0
 11 12  1  0
 12 13  2  0
 13 14  1  0
 14 15  2  0
 15 16  1  0
 16 17  2  0
 17 18  1  0
 17 19  1  0
 19 20  2  0
 20 21  1  0
 21 22  1  0
 21 23  2  0
 23 24  1  0
 24 25  1  0
 25 26  1  0
 26 27  1  0
 27 28  1  0
 28 29  1  0
 28 30  1  0
 24 31  2  0
 31 10  1  0
 16 11  1  0
 31 19  1  0
  1 32  1  0
  1 33  1  0
  1 34  1  0
  2 35  1  0
  2 36  1  0
  4 37  1  0
  4 38  1  0
  5 39  1  0
  5 40  1  0
  5 41  1  0
  6 42  1  0
  6 43  1  0
  7 44  1  0
  7 45  1  0
  8 46  1  0
  8 47  1  0
  9 48  1  0
  9 49  1  0
 12 50  1  0
 13 51  1  0
 14 52  1  0
 15 53  1  0
 18 54  1  0
 18 55  1  0
 18 56  1  0
 20 57  1  0
 22 58  1  0
 22 59  1  0
 22 60  1  0
 23 61  1  0
 26 62  1  0
 26 63  1  0
 27 64  1  0
 27 65  1  0
 29 66  1  0
 29 67  1  0
 29 68  1  0
 30 69  1  0
 30 70  1  0
 30 71  1  0
M  CHG  2   9   1  17   1
M  END
>  <UniqueID>  (19) 
19

>  <SMILES>  (19) 
CCN(CC)CCC[NH2+]c1c2ccccc2[n+](C)c2cc(C)cc(OCCN(C)C)c12

>  <Energy>  (19) 
102.08279496071177

>  <Genealogy>  (19) 
CCN(CC)CCC[NH2+]c1c2ccccc2[n+](C)c2cc(C)cc(OCCN(C)C)c12 (protonated)
CCN(CC)CCC[NH2+]c1c2ccccc2[n+](C)c2cc(C)cc(OCCN(C)C)c12 (3D coordinates assigned)
CCN(CC)CCC[NH2+]c1c2ccccc2[n+](C)c2cc(C)cc(OCCN(C)C)c12 (optimized conformer: 102.08279496071177 kcal/mol)

>  <smiles>  (19) 
CCN(CC)CCCNc1c2ccccc2[n+](C)c2cc(C)cc(OCCN(C)C)c12

>  <score_type>  (19) 
oracle

>  <origin>  (19) 
adg

>  <m_score__min__energy>  (19) 
-8.7200000000000006

>  <m_primary>  (19) 
energy

$$$$
19:0
     RDKit          3D

 49 52  0  0  1  0  0  0  0  0999 V2000
   -6.4800   26.0140  -29.3480 C   0  0  0  0  0  0  0  0  0  0  0  0
   -5.7030   24.9100  -29.9600 C   0  0  0  0  0  0  0  0  0  0  0  0
   -6.3120   24.0810  -30.8680 C   0  0  0  0  0  0  0  0  0  0  0  0
   -5.5960   23.0280  -31.4600 C   0  0  0  0  0  0  0  0  0  0  0  0
   -6.1870   22.3180  -32.2650 N   0  0  0  0  0  0  0  0  0  0  0  0
   -7.2180   21.4370  -32.2070 C   0  0  0  0  0  0  0  0  0  0  0  0
   -7.3260   20.4200  -33.1770 C   0  0  0  0  0  0  0  0  0  0  0  0
   -8.2790   19.4500  -33.0880 C   0  0  0  0  0  0  0  0  0  0  0  0
   -9.1530   19.4880  -32.0060 C   0  0  0  0  0  0  0  0  0  0  0  0
   -9.0660   20.4710  -31.0480 C   0  0  0  0  0  0  0  0  0  0  0  0
   -8.1090   21.4650  -31.1150 C   0  0  0  0  0  0  0  0  0  0  0  0
   -4.3180   22.8180  -31.1520 N   0  0  0  0  0  0  0  0  0  0  0  0
   -3.4250   21.9140  -31.5580 C   0  0  0  0  0  0  0  0  0  0  0  0
   -3.4130   20.8730  -32.4060 O   0  0  0  0  0  0  0  0  0  0  0  0
   -4.0920   19.7680  -32.6410 C   0  0  0  0  0  0  0  0  0  0  0  0
   -4.9180   19.1580  -31.6870 C   0  0  0  0  0  0  0  0  0  0  0  0
   -5.6160   18.0010  -31.9580 C   0  0  0  0  0  0  0  0  0  0  0  0
   -5.4920   17.4310  -33.2080 C   0  0  0  0  0  0  0  0  0  0  0  0
   -6.2440   16.1740  -33.5150 C   0  0  0  0  0  0  0  0  0  0  0  0
   -4.6920   17.9890  -34.1840 C   0  0  0  0  0  0  0  0  0  0  0  0
   -4.6190   17.3060  -35.5010 C   0  0  0  0  0  0  0  0  0  0  0  0
   -4.0020   19.1470  -33.8960 C   0  0  0  0  0  0  0  0  0  0  0  0
   -2.2620   22.2520  -30.8450 C   0  0  0  0  0  0  0  0  0  0  0  0
   -0.9640   21.5370  -30.9460 C   0  0  0  0  0  0  0  0  0  0  0  0
   -2.4880   23.3080  -30.0650 N   0  0  0  0  0  0  0  0  0  0  0  0
   -3.7690   23.6590  -30.2580 C   0  0  0  0  0  0  0  0  0  0  0  0
   -4.4210   24.6760  -29.6700 N   0  0  0  0  0  0  0  0  0  0  0  0
   -6.4258   25.9369  -28.2520 H   0  0  0  0  0  0  0  0  0  0  0  0
   -6.0610   26.9791  -29.6689 H   0  0  0  0  0  0  0  0  0  0  0  0
   -7.5299   25.9453  -29.6689 H   0  0  0  0  0  0  0  0  0  0  0  0
   -7.3672   24.2422  -31.1337 H   0  0  0  0  0  0  0  0  0  0  0  0
   -6.6253   20.4091  -34.0249 H   0  0  0  0  0  0  0  0  0  0  0  0
   -8.3551   18.6599  -33.8495 H   0  0  0  0  0  0  0  0  0  0  0  0
   -9.9304   18.7151  -31.9148 H   0  0  0  0  0  0  0  0  0  0  0  0
   -9.7759   20.4656  -30.2078 H   0  0  0  0  0  0  0  0  0  0  0  0
   -8.0447   22.2485  -30.3456 H   0  0  0  0  0  0  0  0  0  0  0  0
   -5.0120   19.6167  -30.6916 H   0  0  0  0  0  0  0  0  0  0  0  0
   -6.2590   17.5413  -31.1930 H   0  0  0  0  0  0  0  0  0  0  0  0
   -6.5375   15.6835  -32.5752 H   0  0  0  0  0  0  0  0  0  0  0  0
   -7.1444   16.4184  -34.0977 H   0  0  0  0  0  0  0  0  0  0  0  0
   -5.6029   15.4962  -34.0977 H   0  0  0  0  0  0  0  0  0  0  0  0
   -4.5033   16.2231  -35.3465 H   0  0  0  0  0  0  0  0  0  0  0  0
   -5.5429   17.4991  -36.0659 H   0  0  0  0  0  0  0  0  0  0  0  0
   -3.7568   17.6900  -36.0659 H   0  0  0  0  0  0  0  0  0  0  0  0
   -3.3636   19.5964  -34.6709 H   0  0  0  0  0  0  0  0  0  0  0  0
   -0.5818   21.3265  -29.9362 H   0  0  0  0  0  0  0  0  0  0  0  0
   -1.1078   20.5908  -31.4883 H   0  0  0  0  0  0  0  0  0  0  0  0
   -0.2411   22.1642  -31.4883 H   0  0  0  0  0  0  0  0  0  0  0  0
   -3.9620   25.3090  -28.9800 H   0  0  0  0  0  0  0  0  0  0  0  0
  1  2  1  0
  2  3  2  0
  3  4  1  0
  4  5  2  0
  5  6  1  0
  6  7  2  0
  7  8  1  0
  8  9  2  0
  9 10  1  0
 10 11  2  0
  4 12  1  0
 12 13  1  0
 13 14  1  0
 14 15  1  0
 15 16  2  0
 16 17  1  0
 17 18  2  0
 18 19  1  0
 18 20  1  0
 20 21  1  0
 20 22  2  0
 13 23  2  0
 23 24  1  0
 23 25  1  0
 25 26  2  0
 26 27  1  0
 27  2  1  0
 11  6  1  0
 26 12  1  0
 22 15  1  0
  1 28  1  0
  1 29  1  0
  1 30  1  0
  3 31  1  0
  7 32  1  0
  8 33  1  0
  9 34  1  0
 10 35  1  0
 11 36  1  0
 16 37  1  0
 17 38  1  0
 19 39  1  0
 19 40  1  0
 19 41  1  0
 21 42  1  0
 21 43  1  0
 21 44  1  0
 22 45  1  0
 24 46  1  0
 24 47  1  0
 24 48  1  0
 27 49  1  0
M  END
>  <smiles>  (20) 
Cc1cc(=Nc2ccccc2)n2c(Oc3ccc(C)c(C)c3)c(C)nc2[nH]1

>  <score_type>  (20) 
oracle

>  <origin>  (20) 
adg

>  <m_score__min__energy>  (20) 
-9.0500000000000007

>  <m_primary>  (20) 
energy

$$$$
20:0
     RDKit          3D

 83 86  0  0  0  0  0  0  0  0999 V2000
    1.9890   24.5660  -36.5350 C   0  0  0  0  0  0  0  0  0  0  0  0
    0.5360   24.4100  -36.1020 C   0  0  0  0  0  0  0  0  0  0  0  0
    0.3240   23.0810  -35.5100 N   0  0  0  0  0  0  0  0  0  0  0  0
    0.8100   22.0050  -36.3900 C   0  0  0  0  0  0  0  0  0  0  0  0
    0.2960   20.6210  -35.9550 C   0  0  0  0  0  0  0  0  0  0  0  0
    0.0470   20.5240  -34.4400 C   0  0  0  0  0  0  0  0  0  0  0  0
   -1.1810   21.2160  -34.0050 N   0  0  0  0  0  0  0  0  0  0  0  0
   -1.2280   21.5160  -32.5630 C   0  0  0  0  0  0  0  0  0  0  0  0
   -2.6820   21.5120  -32.0870 C   0  0  0  0  0  0  0  0  0  0  0  0
   -3.5920   21.1870  -33.1860 N   0  0  0  0  0  0  0  0  0  0  0  0
   -4.9220   20.7180  -32.9140 C   0  0  0  0  0  0  0  0  0  0  0  0
   -5.8560   21.6050  -32.3440 C   0  0  0  0  0  0  0  0  0  0  0  0
   -5.4870   22.9280  -32.0060 C   0  0  0  0  0  0  0  0  0  0  0  0
   -6.4280   23.8280  -31.5110 C   0  0  0  0  0  0  0  0  0  0  0  0
   -7.7500   23.4330  -31.3530 C   0  0  0  0  0  0  0  0  0  0  0  0
   -8.1280   22.1230  -31.6390 C   0  0  0  0  0  0  0  0  0  0  0  0
   -7.1810   21.1680  -32.0980 C   0  0  0  0  0  0  0  0  0  0  0  0
   -7.5260   19.8520  -32.3150 N   0  0  0  0  0  0  0  0  0  0  0  0
   -8.8110   19.3350  -31.7840 C   0  0  0  0  0  0  0  0  0  0  0  0
   -6.6630   19.0050  -32.9880 C   0  0  0  0  0  0  0  0  0  0  0  0
   -7.0960   17.7370  -33.4480 C   0  0  0  0  0  0  0  0  0  0  0  0
   -6.2210   16.8560  -34.0650 C   0  0  0  0  0  0  0  0  0  0  0  0
   -4.8970   17.2100  -34.2620 C   0  0  0  0  0  0  0  0  0  0  0  0
   -4.4270   18.4740  -33.8800 C   0  0  0  0  0  0  0  0  0  0  0  0
   -3.0980   18.8170  -34.1630 O   0  0  0  0  0  0  0  0  0  0  0  0
   -1.9700   17.9890  -33.8550 C   0  0  0  0  0  0  0  0  0  0  0  0
   -1.7400   16.9350  -34.9660 C   0  0  0  0  0  0  0  0  0  0  0  0
   -1.2990   15.5640  -34.5250 N   0  0  0  0  0  0  0  0  0  0  0  0
    0.1830   15.4630  -34.6820 C   0  0  0  0  0  0  0  0  0  0  0  0
   -1.6070   15.2830  -33.0870 C   0  0  0  0  0  0  0  0  0  0  0  0
   -3.1050   15.1740  -32.7210 C   0  0  0  0  0  0  0  0  0  0  0  0
   -3.6480   13.7550  -32.9300 C   0  0  0  0  0  0  0  0  0  0  0  0
   -3.9900   13.4190  -34.3890 C   0  0  0  0  0  0  0  0  0  0  0  0
   -3.4140   14.3690  -35.4550 C   0  0  0  0  0  0  0  0  0  0  0  0
   -1.8690   14.5050  -35.4280 C   0  0  0  0  0  0  0  0  0  0  0  0
   -5.3190   19.4030  -33.2620 C   0  0  0  0  0  0  0  0  0  0  0  0
    2.6315   24.6350  -35.6448 H   0  0  0  0  0  0  0  0  0  0  0  0
    2.2880   23.6948  -37.1363 H   0  0  0  0  0  0  0  0  0  0  0  0
    2.0962   25.4808  -37.1363 H   0  0  0  0  0  0  0  0  0  0  0  0
    0.2935   25.1826  -35.3575 H   0  0  0  0  0  0  0  0  0  0  0  0
   -0.1151   24.5197  -36.9818 H   0  0  0  0  0  0  0  0  0  0  0  0
   -0.6980   22.9420  -35.3170 H   0  0  0  0  0  0  0  0  0  0  0  0
    0.4664   22.2041  -37.4158 H   0  0  0  0  0  0  0  0  0  0  0  0
    1.9083   21.9910  -36.3311 H   0  0  0  0  0  0  0  0  0  0  0  0
   -0.6489   20.4166  -36.4798 H   0  0  0  0  0  0  0  0  0  0  0  0
    1.0731   19.8852  -36.2096 H   0  0  0  0  0  0  0  0  0  0  0  0
   -0.0356   19.4616  -34.1671 H   0  0  0  0  0  0  0  0  0  0  0  0
    0.8933   21.0162  -33.9386 H   0  0  0  0  0  0  0  0  0  0  0  0
   -1.3260   22.0950  -34.5560 H   0  0  0  0  0  0  0  0  0  0  0  0
   -0.6597   20.7527  -32.0112 H   0  0  0  0  0  0  0  0  0  0  0  0
   -0.7858   22.5065  -32.3805 H   0  0  0  0  0  0  0  0  0  0  0  0
   -2.7978   20.7624  -31.2903 H   0  0  0  0  0  0  0  0  0  0  0  0
   -2.9307   22.5153  -31.7108 H   0  0  0  0  0  0  0  0  0  0  0  0
   -3.3530   21.4570  -34.1700 H   0  0  0  0  0  0  0  0  0  0  0  0
   -4.4433   23.2504  -32.1357 H   0  0  0  0  0  0  0  0  0  0  0  0
   -6.1240   24.8512  -31.2453 H   0  0  0  0  0  0  0  0  0  0  0  0
   -8.5004   24.1562  -31.0012 H   0  0  0  0  0  0  0  0  0  0  0  0
   -9.1779   21.8226  -31.5072 H   0  0  0  0  0  0  0  0  0  0  0  0
   -8.7842   19.3458  -30.6844 H   0  0  0  0  0  0  0  0  0  0  0  0
   -9.6361   19.9712  -32.1369 H   0  0  0  0  0  0  0  0  0  0  0  0
   -8.9656   18.3047  -32.1369 H   0  0  0  0  0  0  0  0  0  0  0  0
   -8.1480   17.4454  -33.3129 H   0  0  0  0  0  0  0  0  0  0  0  0
   -6.5802   15.8716  -34.3994 H   0  0  0  0  0  0  0  0  0  0  0  0
   -4.2053   16.4902  -34.7241 H   0  0  0  0  0  0  0  0  0  0  0  0
   -1.0734   18.6200  -33.7657 H   0  0  0  0  0  0  0  0  0  0  0  0
   -2.1661   17.4650  -32.9079 H   0  0  0  0  0  0  0  0  0  0  0  0
   -2.6862   16.8190  -35.5148 H   0  0  0  0  0  0  0  0  0  0  0  0
   -0.9035   17.3265  -35.5634 H   0  0  0  0  0  0  0  0  0  0  0  0
    0.6555   15.4308  -33.6892 H   0  0  0  0  0  0  0  0  0  0  0  0
    0.4313   14.5458  -35.2362 H   0  0  0  0  0  0  0  0  0  0  0  0
    0.5535   16.3380  -35.2362 H   0  0  0  0  0  0  0  0  0  0  0  0
   -1.1257   14.3306  -32.8201 H   0  0  0  0  0  0  0  0  0  0  0  0
   -1.2289   16.1520  -32.5286 H   0  0  0  0  0  0  0  0  0  0  0  0
   -3.2330   15.4507  -31.6641 H   0  0  0  0  0  0  0  0  0  0  0  0
   -3.6654   15.8519  -33.3816 H   0  0  0  0  0  0  0  0  0  0  0  0
   -2.8883   13.0403  -32.5806 H   0  0  0  0  0  0  0  0  0  0  0  0
   -4.5881   13.6902  -32.3626 H   0  0  0  0  0  0  0  0  0  0  0  0
   -3.6104   12.4082  -34.5991 H   0  0  0  0  0  0  0  0  0  0  0  0
   -5.0830   13.5155  -34.4664 H   0  0  0  0  0  0  0  0  0  0  0  0
   -3.7085   13.9927  -36.4458 H   0  0  0  0  0  0  0  0  0  0  0  0
   -3.8199   15.3677  -35.2362 H   0  0  0  0  0  0  0  0  0  0  0  0
   -1.4549   13.5371  -35.1091 H   0  0  0  0  0  0  0  0  0  0  0  0
   -1.5884   14.8123  -36.4463 H   0  0  0  0  0  0  0  0  0  0  0  0
  1  2  1  0
  2  3  1  0
  3  4  1  0
  4  5  1  0
  5  6  1  0
  6  7  1  0
  7  8  1  0
  8  9  1  0
  9 10  1  0
 10 11  1  0
 11 12  2  0
 12 13  1  0
 13 14  2  0
 14 15  1  0
 15 16  2  0
 16 17  1  0
 17 18  2  0
 18 19  1  0
 18 20  1  0
 20 21  2  0
 21 22  1  0
 22 23  2  0
 23 24  1  0
 24 25  1  0
 25 26  1  0
 26 27  1  0
 27 28  1  0
 28 29  1  0
 28 30  1  0
 30 31  1  0
 31 32  1  0
 32 33  1  0
 33 34  1  0
 34 35  1  0
 24 36  2  0
 36 11  1  0
 17 12  1  0
 36 20  1  0
 35 28  1  0
  1 37  1  0
  1 38  1  0
  1 39  1  0
  2 40  1  0
  2 41  1  0
  3 42  1  0
  4 43  1  0
  4 44  1  0
  5 45  1  0
  5 46  1  0
  6 47  1  0
  6 48  1  0
  7 49  1  0
  8 50  1  0
  8 51  1  0
  9 52  1  0
  9 53  1  0
 10 54  1  0
 13 55  1  0
 14 56  1  0
 15 57  1  0
 16 58  1  0
 19 59  1  0
 19 60  1  0
 19 61  1  0
 21 62  1  0
 22 63  1  0
 23 64  1  0
 26 65  1  0
 26 66  1  0
 27 67  1  0
 27 68  1  0
 29 69  1  0
 29 70  1  0
 29 71  1  0
 30 72  1  0
 30 73  1  0
 31 74  1  0
 31 75  1  0
 32 76  1  0
 32 77  1  0
 33 78  1  0
 33 79  1  0
 34 80  1  0
 34 81  1  0
 35 82  1  0
 35 83  1  0
M  CHG  2  18   1  28   1
M  END
>  <UniqueID>  (21) 
20

>  <SMILES>  (21) 
CCNCCCNCCNc1c2ccccc2[n+](C)c2cccc(OCC[N+]3(C)CCCCCC3)c12

>  <Energy>  (21) 
134.0745354087419

>  <Genealogy>  (21) 
CCNCCCNCCNc1c2ccccc2[n+](C)c2cccc(OCC[N+]3(C)CCCCCC3)c12 (3D coordinates assigned)
CCNCCCNCCNc1c2ccccc2[n+](C)c2cccc(OCC[N+]3(C)CCCCCC3)c12 (nonaromatic ring conformer: 134.0745354087419 kcal/mol)

>  <smiles>  (21) 
CCNCCCNCCNc1c2ccccc2[n+](C)c2cccc(OCC[N+]3(C)CCCCCC3)c12

>  <score_type>  (21) 
oracle

>  <origin>  (21) 
adg

>  <m_score__min__energy>  (21) 
-6.6399999999999997

>  <m_primary>  (21) 
energy

$$$$
21:0
     RDKit          3D

 60 59  0  0  0  0  0  0  0  0999 V2000
   -8.7320   20.7470  -31.4780 C   0  0  0  0  0  0  0  0  0  0  0  0
   -8.9660   22.2030  -31.8740 C   0  0  0  0  0  0  0  0  0  0  0  0
   -7.8680   23.1440  -31.3520 C   0  0  0  0  0  0  0  0  0  0  0  0
   -6.7370   23.3950  -32.3690 C   0  0  0  0  0  0  0  0  0  0  0  0
   -5.4730   23.7000  -31.6510 N   0  0  0  0  0  0  0  0  0  0  0  0
   -4.4490   22.6470  -31.8460 C   0  0  0  0  0  0  0  0  0  0  0  0
   -5.0960   21.2550  -31.7630 C   0  0  0  0  0  0  0  0  0  0  0  0
   -4.8610   20.4190  -33.0320 C   0  0  0  0  0  0  0  0  0  0  0  0
   -6.1080   19.6580  -33.4790 C   0  0  0  0  0  0  0  0  0  0  0  0
   -5.6880   23.9950  -30.2130 C   0  0  0  0  0  0  0  0  0  0  0  0
   -4.5840   24.9190  -29.6470 C   0  0  2  0  0  0  0  0  0  0  0  0
   -3.9340   25.6090  -30.6820 O   0  0  0  0  0  0  0  0  0  0  0  0
   -3.5360   24.1500  -28.8300 C   0  0  0  0  0  0  0  0  0  0  0  0
   -2.3520   23.9990  -29.5840 O   0  0  0  0  0  0  0  0  0  0  0  0
   -1.2310   23.8290  -28.7330 C   0  0  0  0  0  0  0  0  0  0  0  0
   -1.0230   22.3310  -28.4620 C   0  0  0  0  0  0  0  0  0  0  0  0
   -1.9370   21.4710  -29.2660 N   0  0  0  0  0  0  0  0  0  0  0  0
   -2.7260   20.5770  -28.3760 C   0  0  0  0  0  0  0  0  0  0  0  0
   -1.9280   20.1370  -27.1410 C   0  0  0  0  0  0  0  0  0  0  0  0
   -1.1500   20.6660  -30.2420 C   0  0  0  0  0  0  0  0  0  0  0  0
   -1.2240   21.2430  -31.6610 C   0  0  0  0  0  0  0  0  0  0  0  0
   -8.7185   20.6629  -30.3813 H   0  0  0  0  0  0  0  0  0  0  0  0
   -9.5412   20.1221  -31.8837 H   0  0  0  0  0  0  0  0  0  0  0  0
   -7.7677   20.4071  -31.8837 H   0  0  0  0  0  0  0  0  0  0  0  0
   -8.9934   22.2690  -32.9717 H   0  0  0  0  0  0  0  0  0  0  0  0
   -9.9177   22.5209  -31.4233 H   0  0  0  0  0  0  0  0  0  0  0  0
   -8.3291   24.1101  -31.0989 H   0  0  0  0  0  0  0  0  0  0  0  0
   -7.4134   22.6561  -30.4772 H   0  0  0  0  0  0  0  0  0  0  0  0
   -6.5973   22.4970  -32.9888 H   0  0  0  0  0  0  0  0  0  0  0  0
   -7.0065   24.2486  -33.0084 H   0  0  0  0  0  0  0  0  0  0  0  0
   -3.9825   22.7725  -32.8343 H   0  0  0  0  0  0  0  0  0  0  0  0
   -3.6877   22.7364  -31.0571 H   0  0  0  0  0  0  0  0  0  0  0  0
   -4.6688   20.7183  -30.9031 H   0  0  0  0  0  0  0  0  0  0  0  0
   -6.1812   21.3972  -31.6530 H   0  0  0  0  0  0  0  0  0  0  0  0
   -4.5505   21.0927  -33.8442 H   0  0  0  0  0  0  0  0  0  0  0  0
   -4.0847   19.6752  -32.7995 H   0  0  0  0  0  0  0  0  0  0  0  0
   -6.6663   19.3173  -32.5946 H   0  0  0  0  0  0  0  0  0  0  0  0
   -6.7456   20.3210  -34.0821 H   0  0  0  0  0  0  0  0  0  0  0  0
   -5.8099   18.7877  -34.0821 H   0  0  0  0  0  0  0  0  0  0  0  0
   -6.6631   24.4896  -30.0925 H   0  0  0  0  0  0  0  0  0  0  0  0
   -5.6567   23.0448  -29.6597 H   0  0  0  0  0  0  0  0  0  0  0  0
   -5.0904   25.6299  -28.9775 H   0  0  0  0  0  0  0  0  0  0  0  0
   -3.4770   24.9240  -31.2410 H   0  0  0  0  0  0  0  0  0  0  0  0
   -3.3123   24.7069  -27.9081 H   0  0  0  0  0  0  0  0  0  0  0  0
   -3.9330   23.1556  -28.5780 H   0  0  0  0  0  0  0  0  0  0  0  0
   -0.3348   24.2427  -29.2185 H   0  0  0  0  0  0  0  0  0  0  0  0
   -1.4060   24.3550  -27.7829 H   0  0  0  0  0  0  0  0  0  0  0  0
    0.0162   22.0690  -28.7100 H   0  0  0  0  0  0  0  0  0  0  0  0
   -1.2443   22.1506  -27.3997 H   0  0  0  0  0  0  0  0  0  0  0  0
   -2.6030   22.0850  -29.7960 H   0  0  0  0  0  0  0  0  0  0  0  0
   -3.6266   21.1137  -28.0431 H   0  0  0  0  0  0  0  0  0  0  0  0
   -2.9864   19.6747  -28.9488 H   0  0  0  0  0  0  0  0  0  0  0  0
   -2.4681   20.4348  -26.2302 H   0  0  0  0  0  0  0  0  0  0  0  0
   -1.8056   19.0439  -27.1538 H   0  0  0  0  0  0  0  0  0  0  0  0
   -0.9383   20.6169  -27.1538 H   0  0  0  0  0  0  0  0  0  0  0  0
   -0.0981   20.6490  -29.9208 H   0  0  0  0  0  0  0  0  0  0  0  0
   -1.5772   19.6526  -30.2665 H   0  0  0  0  0  0  0  0  0  0  0  0
   -1.3638   22.3327  -31.6069 H   0  0  0  0  0  0  0  0  0  0  0  0
   -0.2898   21.0193  -32.1970 H   0  0  0  0  0  0  0  0  0  0  0  0
   -2.0715   20.7908  -32.1970 H   0  0  0  0  0  0  0  0  0  0  0  0
  1  2  1  0
  2  3  1  0
  3  4  1  0
  4  5  1  0
  5  6  1  0
  6  7  1  0
  7  8  1  0
  8  9  1  0
  5 10  1  0
 10 11  1  0
 11 12  1  0
 11 13  1  0
 13 14  1  0
 14 15  1  0
 15 16  1  0
 16 17  1  0
 17 18  1  0
 18 19  1  0
 17 20  1  0
 20 21  1  0
  1 22  1  0
  1 23  1  0
  1 24  1  0
  2 25  1  0
  2 26  1  0
  3 27  1  0
  3 28  1  0
  4 29  1  0
  4 30  1  0
  6 31  1  0
  6 32  1  0
  7 33  1  0
  7 34  1  0
  8 35  1  0
  8 36  1  0
  9 37  1  0
  9 38  1  0
  9 39  1  0
 10 40  1  0
 10 41  1  0
 11 42  1  1
 12 43  1  0
 13 44  1  0
 13 45  1  0
 15 46  1  0
 15 47  1  0
 16 48  1  0
 16 49  1  0
 17 50  1  0
 18 51  1  0
 18 52  1  0
 19 53  1  0
 19 54  1  0
 19 55  1  0
 20 56  1  0
 20 57  1  0
 21 58  1  0
 21 59  1  0
 21 60  1  0
M  CHG  1  17   1
M  END
>  <UniqueID>  (22) 
21

>  <SMILES>  (22) 
CCCCN(CCCC)C[C@H](O)COCC[NH+](CC)CC

>  <Energy>  (22) 
51.39266041592474

>  <Genealogy>  (22) 
CCCCN(CCCC)CC(O)COCC[NH+](CC)CC (protonated)
CCCCN(CCCC)C[C@H](O)COCC[NH+](CC)CC (chirality)
CCCCN(CCCC)C[C@H](O)COCC[NH+](CC)CC (3D coordinates assigned)
CCCCN(CCCC)C[C@H](O)COCC[NH+](CC)CC (optimized conformer: 51.39266041592474 kcal/mol)

>  <smiles>  (22) 
CCCCN(CCCC)CC(O)COCCN(CC)CC

>  <score_type>  (22) 
oracle

>  <origin>  (22) 
adg

>  <m_score__min__energy>  (22) 
-5.7199999999999998

>  <m_primary>  (22) 
energy

$$$$
22:0
     RDKit          3D

 50 52  0  0  0  0  0  0  0  0999 V2000
   -6.4860   17.1240  -34.1610 C   0  0  0  0  0  0  0  0  0  0  0  0
   -6.4840   18.4720  -33.5120 C   0  0  0  0  0  0  0  0  0  0  0  0
   -7.8100   19.1280  -32.7200 S   0  0  0  0  0  0  0  0  0  0  0  0
   -7.0350   20.5420  -32.2240 C   0  0  0  0  0  0  0  0  0  0  0  0
   -5.7210   20.5330  -32.6840 C   0  0  0  0  0  0  0  0  0  0  0  0
   -5.3860   19.3320  -33.3720 C   0  0  0  0  0  0  0  0  0  0  0  0
   -4.0110   18.9540  -33.8550 C   0  0  0  0  0  0  0  0  0  0  0  0
   -4.8980   21.6420  -32.4160 C   0  0  0  0  0  0  0  0  0  0  0  0
   -3.6130   21.7790  -33.0400 N   0  0  0  0  0  0  0  0  0  0  0  0
   -2.3760   21.4850  -32.3130 C   0  0  0  0  0  0  0  0  0  0  0  0
   -1.4210   20.6280  -33.1620 C   0  0  0  0  0  0  0  0  0  0  0  0
   -1.2480   21.1590  -34.5360 N   0  0  0  0  0  0  0  0  0  0  0  0
    0.1110   20.9400  -35.0820 C   0  0  0  0  0  0  0  0  0  0  0  0
    1.0670   20.5070  -33.9600 C   0  0  0  0  0  0  0  0  0  0  0  0
    0.6590   22.2060  -35.7650 C   0  0  0  0  0  0  0  0  0  0  0  0
   -5.3960   22.6660  -31.5750 C   0  0  0  0  0  0  0  0  0  0  0  0
   -4.5860   23.7650  -31.2170 C   0  0  0  0  0  0  0  0  0  0  0  0
   -5.0810   24.7800  -30.4020 C   0  0  0  0  0  0  0  0  0  0  0  0
   -6.3850   24.7210  -29.9250 C   0  0  0  0  0  0  0  0  0  0  0  0
   -7.2100   23.6500  -30.2660 C   0  0  0  0  0  0  0  0  0  0  0  0
   -6.7450   22.6050  -31.1020 C   0  0  0  0  0  0  0  0  0  0  0  0
   -7.5630   21.5530  -31.4670 N   0  0  0  0  0  0  0  0  0  0  0  0
   -8.9710   21.5000  -31.0290 C   0  0  0  0  0  0  0  0  0  0  0  0
   -6.4872   16.3437  -33.3856 H   0  0  0  0  0  0  0  0  0  0  0  0
   -7.3843   17.0199  -34.7873 H   0  0  0  0  0  0  0  0  0  0  0  0
   -5.5880   17.0172  -34.7873 H   0  0  0  0  0  0  0  0  0  0  0  0
   -3.3553   18.7738  -32.9903 H   0  0  0  0  0  0  0  0  0  0  0  0
   -4.0746   18.0400  -34.4638 H   0  0  0  0  0  0  0  0  0  0  0  0
   -3.5985   19.7721  -34.4638 H   0  0  0  0  0  0  0  0  0  0  0  0
   -3.5660   21.8490  -34.0810 H   0  0  0  0  0  0  0  0  0  0  0  0
   -1.8770   22.4312  -32.0569 H   0  0  0  0  0  0  0  0  0  0  0  0
   -2.6324   20.9226  -31.4031 H   0  0  0  0  0  0  0  0  0  0  0  0
   -0.4384   20.6011  -32.6683 H   0  0  0  0  0  0  0  0  0  0  0  0
   -1.8602   19.6230  -33.2458 H   0  0  0  0  0  0  0  0  0  0  0  0
   -1.4250   22.1910  -34.4990 H   0  0  0  0  0  0  0  0  0  0  0  0
   -1.9510   20.7550  -35.1970 H   0  0  0  0  0  0  0  0  0  0  0  0
    0.0411   20.1448  -35.8389 H   0  0  0  0  0  0  0  0  0  0  0  0
    0.6052   20.7161  -32.9838 H   0  0  0  0  0  0  0  0  0  0  0  0
    1.2696   19.4293  -34.0464 H   0  0  0  0  0  0  0  0  0  0  0  0
    2.0107   21.0656  -34.0464 H   0  0  0  0  0  0  0  0  0  0  0  0
    0.9723   22.9298  -34.9983 H   0  0  0  0  0  0  0  0  0  0  0  0
    1.5224   21.9396  -36.3924 H   0  0  0  0  0  0  0  0  0  0  0  0
   -0.1261   22.6532  -36.3924 H   0  0  0  0  0  0  0  0  0  0  0  0
   -3.5513   23.8205  -31.5862 H   0  0  0  0  0  0  0  0  0  0  0  0
   -4.4377   25.6313  -30.1349 H   0  0  0  0  0  0  0  0  0  0  0  0
   -6.7677   25.5224  -29.2759 H   0  0  0  0  0  0  0  0  0  0  0  0
   -8.2393   23.6158  -29.8794 H   0  0  0  0  0  0  0  0  0  0  0  0
   -9.0132   21.4984  -29.9298 H   0  0  0  0  0  0  0  0  0  0  0  0
   -9.5085   22.3785  -31.4153 H   0  0  0  0  0  0  0  0  0  0  0  0
   -9.4409   20.5835  -31.4153 H   0  0  0  0  0  0  0  0  0  0  0  0
  1  2  1  0
  2  3  1  0
  3  4  1  0
  4  5  2  0
  5  6  1  0
  6  7  1  0
  5  8  1  0
  8  9  1  0
  9 10  1  0
 10 11  1  0
 11 12  1  0
 12 13  1  0
 13 14  1  0
 13 15  1  0
  8 16  2  0
 16 17  1  0
 17 18  2  0
 18 19  1  0
 19 20  2  0
 20 21  1  0
 21 22  2  0
 22 23  1  0
  6  2  2  0
 21 16  1  0
 22  4  1  0
  1 24  1  0
  1 25  1  0
  1 26  1  0
  7 27  1  0
  7 28  1  0
  7 29  1  0
  9 30  1  0
 10 31  1  0
 10 32  1  0
 11 33  1  0
 11 34  1  0
 12 35  1  0
 12 36  1  0
 13 37  1  0
 14 38  1  0
 14 39  1  0
 14 40  1  0
 15 41  1  0
 15 42  1  0
 15 43  1  0
 17 44  1  0
 18 45  1  0
 19 46  1  0
 20 47  1  0
 23 48  1  0
 23 49  1  0
 23 50  1  0
M  CHG  2  12   1  22   1
M  END
>  <UniqueID>  (23) 
22

>  <SMILES>  (23) 
Cc1sc2c(c1C)c(NCC[NH2+]C(C)C)c1ccccc1[n+]2C

>  <Energy>  (23) 
96.88135136729628

>  <Genealogy>  (23) 
Cc1sc2c(c1C)c(NCC[NH2+]C(C)C)c1ccccc1[n+]2C (protonated)
Cc1sc2c(c1C)c(NCC[NH2+]C(C)C)c1ccccc1[n+]2C (3D coordinates assigned)
Cc1sc2c(c1C)c(NCC[NH2+]C(C)C)c1ccccc1[n+]2C (optimized conformer: 96.88135136729628 kcal/mol)

>  <smiles>  (23) 
Cc1sc2c(c1C)c(NCCNC(C)C)c1ccccc1[n+]2C

>  <score_type>  (23) 
oracle

>  <origin>  (23) 
adg

>  <m_score__min__energy>  (23) 
-7.5700000000000003

>  <m_primary>  (23) 
energy

$$$$
23:0
     RDKit          3D

 36 38  0  0  0  0  0  0  0  0999 V2000
   -9.4290   22.3330  -31.5930 C   0  0  0  0  0  0  0  0  0  0  0  0
   -8.0050   22.1040  -31.8380 N   0  0  0  0  0  0  0  0  0  0  0  0
   -7.3870   20.9830  -32.3140 C   0  0  0  0  0  0  0  0  0  0  0  0
   -8.0860   19.7120  -32.7220 C   0  0  0  0  0  0  0  0  0  0  0  0
   -7.4390   18.4860  -32.0670 C   0  0  0  0  0  0  0  0  0  0  0  0
   -6.0400   18.3140  -32.5270 N   0  0  0  0  0  0  0  0  0  0  0  0
   -5.5450   16.9560  -32.2480 C   0  0  0  0  0  0  0  0  0  0  0  0
   -5.7650   16.1050  -33.4940 C   0  0  0  0  0  0  0  0  0  0  0  0
   -6.1250   17.0810  -34.5960 C   0  0  0  0  0  0  0  0  0  0  0  0
   -5.9320   18.4570  -33.9840 C   0  0  0  0  0  0  0  0  0  0  0  0
   -6.0350   21.0870  -32.2910 N   0  0  0  0  0  0  0  0  0  0  0  0
   -5.8060   22.3040  -31.7770 C   0  0  0  0  0  0  0  0  0  0  0  0
   -4.5890   22.9140  -31.4920 C   0  0  0  0  0  0  0  0  0  0  0  0
   -4.6140   24.1550  -30.9210 N   0  0  0  0  0  0  0  0  0  0  0  0
   -5.7900   24.7940  -30.6220 C   0  0  0  0  0  0  0  0  0  0  0  0
   -7.0260   24.1810  -30.8990 C   0  0  0  0  0  0  0  0  0  0  0  0
   -6.9880   22.9180  -31.4930 C   0  0  0  0  0  0  0  0  0  0  0  0
   -9.6144   22.3628  -30.5092 H   0  0  0  0  0  0  0  0  0  0  0  0
   -9.7290   23.2909  -32.0428 H   0  0  0  0  0  0  0  0  0  0  0  0
  -10.0142   21.5174  -32.0428 H   0  0  0  0  0  0  0  0  0  0  0  0
   -9.1405   19.7682  -32.4141 H   0  0  0  0  0  0  0  0  0  0  0  0
   -8.0047   19.6060  -33.8139 H   0  0  0  0  0  0  0  0  0  0  0  0
   -7.4451   18.6165  -30.9748 H   0  0  0  0  0  0  0  0  0  0  0  0
   -8.0138   17.5924  -32.3516 H   0  0  0  0  0  0  0  0  0  0  0  0
   -4.4725   16.9926  -32.0064 H   0  0  0  0  0  0  0  0  0  0  0  0
   -6.0830   16.5233  -31.3917 H   0  0  0  0  0  0  0  0  0  0  0  0
   -4.8468   15.5568  -33.7515 H   0  0  0  0  0  0  0  0  0  0  0  0
   -6.5550   15.3552  -33.3404 H   0  0  0  0  0  0  0  0  0  0  0  0
   -5.4609   16.9471  -35.4626 H   0  0  0  0  0  0  0  0  0  0  0  0
   -7.1525   16.9319  -34.9593 H   0  0  0  0  0  0  0  0  0  0  0  0
   -4.9395   18.8498  -34.2498 H   0  0  0  0  0  0  0  0  0  0  0  0
   -6.6920   19.1574  -34.3608 H   0  0  0  0  0  0  0  0  0  0  0  0
   -5.3310   20.3680  -32.5700 H   0  0  0  0  0  0  0  0  0  0  0  0
   -3.6364   22.4131  -31.7192 H   0  0  0  0  0  0  0  0  0  0  0  0
   -5.7669   25.7931  -30.1623 H   0  0  0  0  0  0  0  0  0  0  0  0
   -7.9791   24.6746  -30.6584 H   0  0  0  0  0  0  0  0  0  0  0  0
  1  2  1  0
  2  3  1  0
  3  4  1  0
  4  5  1  0
  5  6  1  0
  6  7  1  0
  7  8  1  0
  8  9  1  0
  9 10  1  0
  3 11  2  0
 11 12  1  0
 12 13  2  0
 13 14  1  0
 14 15  2  0
 15 16  1  0
 16 17  2  0
 17  2  1  0
 10  6  1  0
 17 12  1  0
  1 18  1  0
  1 19  1  0
  1 20  1  0
  4 21  1  0
  4 22  1  0
  5 23  1  0
  5 24  1  0
  7 25  1  0
  7 26  1  0
  8 27  1  0
  8 28  1  0
  9 29  1  0
  9 30  1  0
 10 31  1  0
 10 32  1  0
 11 33  1  0
 13 34  1  0
 15 35  1  0
 16 36  1  0
M  CHG  1  11   1
M  END
>  <UniqueID>  (24) 
23

>  <SMILES>  (24) 
Cn1c(CCN2CCCC2)[nH+]c2cnccc21

>  <Energy>  (24) 
77.63761069948798

>  <Genealogy>  (24) 
Cn1c(CCN2CCCC2)[nH+]c2cnccc21 (protonated)
Cn1c(CCN2CCCC2)[nH+]c2cnccc21 (3D coordinates assigned)
Cn1c(CCN2CCCC2)[nH+]c2cnccc21 (nonaromatic ring conformer: 77.63761069948798 kcal/mol)

>  <smiles>  (24) 
Cn1c(CCN2CCCC2)nc2cnccc21

>  <score_type>  (24) 
oracle

>  <origin>  (24) 
adg

>  <m_score__min__energy>  (24) 
-6.0300000000000002

>  <m_primary>  (24) 
energy

$$$$
24:0
     RDKit          3D

 39 41  0  0  0  0  0  0  0  0999 V2000
   -8.4232   23.6962  -31.3801 H   0  0  0  0  0  0  0  0  0  0  0  0
   -7.3310   23.6310  -31.2670 C   0  0  0  0  0  0  0  0  0  0  0  0
   -6.3070   24.8900  -30.8150 S   0  0  0  0  0  0  0  0  0  0  0  0
   -4.9200   23.9380  -30.9150 C   0  0  0  0  0  0  0  0  0  0  0  0
   -3.7020   24.3330  -30.6810 N   0  0  0  0  0  0  0  0  0  0  0  0
   -2.7420   23.6360  -29.8280 C   0  0  0  0  0  0  0  0  0  0  0  0
   -3.0821   22.6017  -29.6712 H   0  0  0  0  0  0  0  0  0  0  0  0
   -1.7590   23.6428  -30.3216 H   0  0  0  0  0  0  0  0  0  0  0  0
   -2.6200   24.3250  -28.4930 C   0  0  0  0  0  0  0  0  0  0  0  0
   -3.6860   24.3050  -27.5770 C   0  0  0  0  0  0  0  0  0  0  0  0
   -4.6179   23.7792  -27.8320 H   0  0  0  0  0  0  0  0  0  0  0  0
   -3.5660   24.9510  -26.3430 C   0  0  0  0  0  0  0  0  0  0  0  0
   -4.4037   24.9342  -25.6303 H   0  0  0  0  0  0  0  0  0  0  0  0
   -2.3830   25.6180  -26.0140 C   0  0  0  0  0  0  0  0  0  0  0  0
   -2.2909   26.1270  -25.0432 H   0  0  0  0  0  0  0  0  0  0  0  0
   -1.3170   25.6390  -26.9170 C   0  0  0  0  0  0  0  0  0  0  0  0
   -0.3860   26.1636  -26.6562 H   0  0  0  0  0  0  0  0  0  0  0  0
   -1.4330   24.9930  -28.1530 C   0  0  0  0  0  0  0  0  0  0  0  0
   -0.5910   25.0087  -28.8607 H   0  0  0  0  0  0  0  0  0  0  0  0
   -5.2160   22.6750  -31.2820 N   0  0  0  0  0  0  0  0  0  0  0  0
   -4.4940   21.9350  -31.4330 H   0  0  0  0  0  0  0  0  0  0  0  0
   -6.5530   22.4910  -31.4730 C   0  0  0  0  0  0  0  0  0  0  0  0
   -7.1250   21.1950  -31.9020 C   0  0  0  0  0  0  0  0  0  0  0  0
   -6.3930   20.4030  -32.8040 C   0  0  0  0  0  0  0  0  0  0  0  0
   -5.4266   20.7658  -33.1842 H   0  0  0  0  0  0  0  0  0  0  0  0
   -6.8780   19.1580  -33.2250 C   0  0  0  0  0  0  0  0  0  0  0  0
   -6.0620   18.3020  -34.1490 C   0  0  0  0  0  0  0  0  0  0  0  0
   -5.4221   17.6307  -33.5575 H   0  0  0  0  0  0  0  0  0  0  0  0
   -6.7330   17.7042  -34.7834 H   0  0  0  0  0  0  0  0  0  0  0  0
   -5.4328   18.9437  -34.7834 H   0  0  0  0  0  0  0  0  0  0  0  0
   -8.0920   18.6850  -32.7160 C   0  0  0  0  0  0  0  0  0  0  0  0
   -8.4607   17.6923  -33.0136 H   0  0  0  0  0  0  0  0  0  0  0  0
   -8.8380   19.4670  -31.8320 C   0  0  0  0  0  0  0  0  0  0  0  0
   -9.7938   19.0865  -31.4425 H   0  0  0  0  0  0  0  0  0  0  0  0
   -8.3810   20.7340  -31.4350 C   0  0  0  0  0  0  0  0  0  0  0  0
   -9.2430   21.5530  -30.5100 C   0  0  0  0  0  0  0  0  0  0  0  0
   -8.9912   21.3137  -29.4663 H   0  0  0  0  0  0  0  0  0  0  0  0
   -9.0650   22.6228  -30.6941 H   0  0  0  0  0  0  0  0  0  0  0  0
  -10.3023   21.3205  -30.6941 H   0  0  0  0  0  0  0  0  0  0  0  0
  1  2  1  0
  2  3  1  0
  3  4  1  0
  4  5  2  0
  5  6  1  0
  6  7  1  0
  6  8  1  0
  6  9  1  0
  9 10  2  0
 10 11  1  0
 10 12  1  0
 12 13  1  0
 12 14  2  0
 14 15  1  0
 14 16  1  0
 16 17  1  0
 16 18  2  0
 18 19  1  0
  4 20  1  0
 20 21  1  0
 20 22  1  0
 22 23  1  0
 23 24  2  0
 24 25  1  0
 24 26  1  0
 26 27  1  0
 27 28  1  0
 27 29  1  0
 27 30  1  0
 26 31  2  0
 31 32  1  0
 31 33  1  0
 33 34  1  0
 33 35  2  0
 35 36  1  0
 36 37  1  0
 36 38  1  0
 36 39  1  0
 22  2  2  0
 35 23  1  0
 18  9  1  0
M  END
>  <UniqueID>  (25) 
24

>  <SMILES>  (25) 
Cc1ccc(C)c(-c2cs/c(=N\Cc3ccccc3)[nH]2)c1

>  <Energy>  (25) 
75.78684674745325

>  <Genealogy>  (25) 
Cc1ccc(C)c(-c2cs/c(=N\Cc3ccccc3)[nH]2)c1 (cis-trans isomerization)
Cc1ccc(C)c(-c2cs/c(=N\Cc3ccccc3)[nH]2)c1 (3D coordinates assigned)
Cc1ccc(C)c(-c2cs/c(=N\Cc3ccccc3)[nH]2)c1 (optimized conformer: 75.78684674745325 kcal/mol)

>  <smiles>  (25) 
Cc1ccc(C)c(-c2csc(=NCc3ccccc3)[nH]2)c1

>  <score_type>  (25) 
oracle

>  <origin>  (25) 
adg

>  <m_score__min__energy>  (25) 
-8.4900000000000002

>  <m_primary>  (25) 
energy

$$$$
25:0
     RDKit          3D

 50 53  0  0  0  0  0  0  0  0999 V2000
   -2.9350   24.2160  -29.2940 C   0  0  0  0  0  0  0  0  0  0  0  0
   -4.1560   24.0780  -30.0750 N   0  0  0  0  0  0  0  0  0  0  0  0
   -4.9090   22.9680  -30.1670 C   0  0  0  0  0  0  0  0  0  0  0  0
   -5.9280   23.2210  -31.0600 C   0  0  0  0  0  0  0  0  0  0  0  0
   -7.0260   22.3030  -31.4300 C   0  0  0  0  0  0  0  0  0  0  0  0
   -8.3460   22.7560  -31.2700 C   0  0  0  0  0  0  0  0  0  0  0  0
   -9.4240   21.9390  -31.6150 C   0  0  0  0  0  0  0  0  0  0  0  0
   -9.1980   20.6580  -32.1140 C   0  0  0  0  0  0  0  0  0  0  0  0
   -7.8940   20.1830  -32.2590 C   0  0  0  0  0  0  0  0  0  0  0  0
   -6.7920   20.9880  -31.9150 C   0  0  0  0  0  0  0  0  0  0  0  0
   -5.3970   20.3910  -32.0070 C   0  0  0  0  0  0  0  0  0  0  0  0
   -4.9440   20.2450  -33.4170 N   0  0  1  0  0  0  0  0  0  0  0  0
   -3.4930   19.9200  -33.5110 C   0  0  0  0  0  0  0  0  0  0  0  0
   -3.2090   18.4240  -33.7540 C   0  0  0  0  0  0  0  0  0  0  0  0
   -4.2080   17.5830  -33.0730 N   0  0  0  0  0  0  0  0  0  0  0  0
   -3.7890   16.1590  -33.1070 C   0  0  0  0  0  0  0  0  0  0  0  0
   -4.9680   15.2120  -32.8600 C   0  0  0  0  0  0  0  0  0  0  0  0
   -6.0330   15.3600  -33.9610 C   0  0  0  0  0  0  0  0  0  0  0  0
   -6.0520   16.7650  -34.5870 C   0  0  0  0  0  0  0  0  0  0  0  0
   -5.5940   17.8290  -33.5700 C   0  0  2  0  0  0  0  0  0  0  0  0
   -5.7670   19.2570  -34.1470 C   0  0  0  0  0  0  0  0  0  0  0  0
   -5.7370   24.5300  -31.4670 C   0  0  0  0  0  0  0  0  0  0  0  0
   -4.6410   25.0270  -30.8610 N   0  0  0  0  0  0  0  0  0  0  0  0
   -3.1803   24.1883  -28.2221 H   0  0  0  0  0  0  0  0  0  0  0  0
   -2.2502   23.3895  -29.5349 H   0  0  0  0  0  0  0  0  0  0  0  0
   -2.4520   25.1745  -29.5349 H   0  0  0  0  0  0  0  0  0  0  0  0
   -4.7416   22.0252  -29.6256 H   0  0  0  0  0  0  0  0  0  0  0  0
   -8.5318   23.7634  -30.8693 H   0  0  0  0  0  0  0  0  0  0  0  0
  -10.4533   22.3071  -31.4927 H   0  0  0  0  0  0  0  0  0  0  0  0
  -10.0491   20.0199  -32.3942 H   0  0  0  0  0  0  0  0  0  0  0  0
   -7.7254   19.1675  -32.6467 H   0  0  0  0  0  0  0  0  0  0  0  0
   -4.6938   21.0482  -31.4745 H   0  0  0  0  0  0  0  0  0  0  0  0
   -5.4262   19.3888  -31.5544 H   0  0  0  0  0  0  0  0  0  0  0  0
   -5.0910   21.1590  -33.9070 H   0  0  0  0  0  0  0  0  0  0  0  0
   -3.0611   20.4954  -34.3431 H   0  0  0  0  0  0  0  0  0  0  0  0
   -3.0411   20.1806  -32.5426 H   0  0  0  0  0  0  0  0  0  0  0  0
   -3.2440   18.2215  -34.8346 H   0  0  0  0  0  0  0  0  0  0  0  0
   -2.2139   18.1847  -33.3508 H   0  0  0  0  0  0  0  0  0  0  0  0
   -3.3564   15.9388  -34.0941 H   0  0  0  0  0  0  0  0  0  0  0  0
   -3.0507   16.0010  -32.3071 H   0  0  0  0  0  0  0  0  0  0  0  0
   -4.6010   14.1751  -32.8513 H   0  0  0  0  0  0  0  0  0  0  0  0
   -5.4257   15.4664  -31.8926 H   0  0  0  0  0  0  0  0  0  0  0  0
   -5.8245   14.6253  -34.7527 H   0  0  0  0  0  0  0  0  0  0  0  0
   -7.0156   15.1912  -33.4961 H   0  0  0  0  0  0  0  0  0  0  0  0
   -5.3756   16.7816  -35.4543 H   0  0  0  0  0  0  0  0  0  0  0  0
   -7.0817   16.9967  -34.8970 H   0  0  0  0  0  0  0  0  0  0  0  0
   -6.2483   17.7455  -32.6897 H   0  0  0  0  0  0  0  0  0  0  0  0
   -5.4648   19.2532  -35.2047 H   0  0  0  0  0  0  0  0  0  0  0  0
   -6.8233   19.5445  -34.0400 H   0  0  0  0  0  0  0  0  0  0  0  0
   -6.3783   25.0777  -32.1732 H   0  0  0  0  0  0  0  0  0  0  0  0
  1  2  1  0
  2  3  1  0
  3  4  2  0
  4  5  1  0
  5  6  2  0
  6  7  1  0
  7  8  2  0
  8  9  1  0
  9 10  2  0
 10 11  1  0
 11 12  1  0
 12 13  1  0
 13 14  1  0
 14 15  1  0
 15 16  1  0
 16 17  1  0
 17 18  1  0
 18 19  1  0
 19 20  1  0
 20 21  1  0
  4 22  1  0
 22 23  2  0
 23  2  1  0
 10  5  1  0
 21 12  1  0
 20 15  1  0
  1 24  1  0
  1 25  1  0
  1 26  1  0
  3 27  1  0
  6 28  1  0
  7 29  1  0
  8 30  1  0
  9 31  1  0
 11 32  1  0
 11 33  1  0
 12 34  1  6
 13 35  1  0
 13 36  1  0
 14 37  1  0
 14 38  1  0
 16 39  1  0
 16 40  1  0
 17 41  1  0
 17 42  1  0
 18 43  1  0
 18 44  1  0
 19 45  1  0
 19 46  1  0
 20 47  1  1
 21 48  1  0
 21 49  1  0
 22 50  1  0
M  CHG  1  12   1
M  END
>  <UniqueID>  (26) 
25

>  <SMILES>  (26) 
Cn1cc(-c2ccccc2C[N@H+]2CCN3CCCC[C@@H]3C2)cn1

>  <Energy>  (26) 
105.63232947846109

>  <Genealogy>  (26) 
Cn1cc(-c2ccccc2C[NH+]2CCN3CCCCC3C2)cn1 (protonated)
Cn1cc(-c2ccccc2C[N@H+]2CCN3CCCC[C@@H]3C2)cn1 (chirality)
Cn1cc(-c2ccccc2C[N@H+]2CCN3CCCC[C@@H]3C2)cn1 (3D coordinates assigned)
Cn1cc(-c2ccccc2C[N@H+]2CCN3CCCC[C@@H]3C2)cn1 (nonaromatic ring conformer: 105.63232947846109 kcal/mol)

>  <smiles>  (26) 
Cn1cc(-c2ccccc2CN2CCN3CCCCC3C2)cn1

>  <score_type>  (26) 
oracle

>  <origin>  (26) 
adg

>  <m_score__min__energy>  (26) 
-8.4000000000000004

>  <m_primary>  (26) 
energy

$$$$
26:0
     RDKit          3D

 44 46  0  0  0  0  0  0  0  0999 V2000
   -0.5070   26.7770  -23.3500 C   0  0  0  0  0  0  0  0  0  0  0  0
   -0.8650   25.8680  -24.5190 C   0  0  0  0  0  0  0  0  0  0  0  0
   -1.8270   26.5430  -25.3980 N   0  0  0  0  0  0  0  0  0  0  0  0
   -2.6780   25.5980  -26.1390 C   0  0  0  0  0  0  0  0  0  0  0  0
   -1.8890   24.5690  -26.9710 C   0  0  0  0  0  0  0  0  0  0  0  0
   -1.4780   25.1160  -28.3020 C   0  0  0  0  0  0  0  0  0  0  0  0
   -0.2960   25.5210  -28.4710 O   0  0  0  0  0  0  0  0  0  0  0  0
   -2.4580   25.2600  -29.3380 N   0  0  0  0  0  0  0  0  0  0  0  0
   -3.1440   24.2010  -30.0220 C   0  0  0  0  0  0  0  0  0  0  0  0
   -2.4770   23.0580  -30.4780 C   0  0  0  0  0  0  0  0  0  0  0  0
   -3.1790   22.0420  -31.1280 C   0  0  0  0  0  0  0  0  0  0  0  0
   -4.5760   22.1380  -31.3460 C   0  0  0  0  0  0  0  0  0  0  0  0
   -5.2560   23.2630  -30.8090 C   0  0  0  0  0  0  0  0  0  0  0  0
   -4.5290   24.2850  -30.1650 C   0  0  0  0  0  0  0  0  0  0  0  0
   -6.6520   23.3380  -30.9120 C   0  0  0  0  0  0  0  0  0  0  0  0
   -7.2670   24.3480  -30.4660 O   0  0  0  0  0  0  0  0  0  0  0  0
   -7.3670   22.2740  -31.4800 C   0  0  0  0  0  0  0  0  0  0  0  0
   -8.7770   22.2960  -31.5130 C   0  0  0  0  0  0  0  0  0  0  0  0
   -9.4890   21.2150  -32.0280 C   0  0  0  0  0  0  0  0  0  0  0  0
   -8.8130   20.0970  -32.5020 C   0  0  0  0  0  0  0  0  0  0  0  0
   -7.4170   20.0620  -32.4900 C   0  0  0  0  0  0  0  0  0  0  0  0
   -6.6620   21.1630  -32.0120 C   0  0  0  0  0  0  0  0  0  0  0  0
   -5.2780   21.1660  -32.0370 N   0  0  0  0  0  0  0  0  0  0  0  0
   -4.5490   20.1500  -32.8270 C   0  0  0  0  0  0  0  0  0  0  0  0
   -0.7124   26.2553  -22.4036 H   0  0  0  0  0  0  0  0  0  0  0  0
    0.5606   27.0369  -23.4012 H   0  0  0  0  0  0  0  0  0  0  0  0
   -1.1107   27.6951  -23.4012 H   0  0  0  0  0  0  0  0  0  0  0  0
    0.0455   25.6301  -25.0886 H   0  0  0  0  0  0  0  0  0  0  0  0
   -1.3142   24.9409  -24.1334 H   0  0  0  0  0  0  0  0  0  0  0  0
   -2.4210   27.1910  -24.8310 H   0  0  0  0  0  0  0  0  0  0  0  0
   -3.3023   25.0532  -25.4155 H   0  0  0  0  0  0  0  0  0  0  0  0
   -3.2741   26.1922  -26.8472 H   0  0  0  0  0  0  0  0  0  0  0  0
   -0.9865   24.2790  -26.4129 H   0  0  0  0  0  0  0  0  0  0  0  0
   -2.5444   23.7036  -27.1486 H   0  0  0  0  0  0  0  0  0  0  0  0
   -1.3924   22.9600  -30.3230 H   0  0  0  0  0  0  0  0  0  0  0  0
   -2.6380   21.1503  -31.4776 H   0  0  0  0  0  0  0  0  0  0  0  0
   -5.0621   25.1620  -29.7693 H   0  0  0  0  0  0  0  0  0  0  0  0
   -9.3184   23.1733  -31.1292 H   0  0  0  0  0  0  0  0  0  0  0  0
  -10.5881   21.2464  -32.0595 H   0  0  0  0  0  0  0  0  0  0  0  0
   -9.3795   19.2367  -32.8879 H   0  0  0  0  0  0  0  0  0  0  0  0
   -6.8948   19.1662  -32.8572 H   0  0  0  0  0  0  0  0  0  0  0  0
   -4.0454   19.4481  -32.1461 H   0  0  0  0  0  0  0  0  0  0  0  0
   -5.2595   19.5996  -33.4612 H   0  0  0  0  0  0  0  0  0  0  0  0
   -3.8000   20.6468  -33.4612 H   0  0  0  0  0  0  0  0  0  0  0  0
  1  2  1  0
  2  3  1  0
  3  4  1  0
  4  5  1  0
  5  6  1  0
  6  7  2  0
  6  8  1  0
  8  9  1  0
  9 10  2  0
 10 11  1  0
 11 12  2  0
 12 13  1  0
 13 14  2  0
 13 15  1  0
 15 16  2  0
 15 17  1  0
 17 18  2  0
 18 19  1  0
 19 20  2  0
 20 21  1  0
 21 22  2  0
 22 23  1  0
 23 24  1  0
 14  9  1  0
 22 17  1  0
 23 12  1  0
  1 25  1  0
  1 26  1  0
  1 27  1  0
  2 28  1  0
  2 29  1  0
  3 30  1  0
  4 31  1  0
  4 32  1  0
  5 33  1  0
  5 34  1  0
 10 35  1  0
 11 36  1  0
 14 37  1  0
 18 38  1  0
 19 39  1  0
 20 40  1  0
 21 41  1  0
 24 42  1  0
 24 43  1  0
 24 44  1  0
M  CHG  1   8  -1
M  END
>  <UniqueID>  (27) 
26

>  <SMILES>  (27) 
CCNCCC(=O)[N-]c1ccc2c(c1)c(=O)c1ccccc1n2C

>  <Energy>  (27) 
65.6116323633792

>  <Genealogy>  (27) 
CCNCCC(=O)[N-]c1ccc2c(c1)c(=O)c1ccccc1n2C (protonated)
CCNCCC(=O)[N-]c1ccc2c(c1)c(=O)c1ccccc1n2C (3D coordinates assigned)
CCNCCC(=O)[N-]c1ccc2c(c1)c(=O)c1ccccc1n2C (optimized conformer: 65.6116323633792 kcal/mol)

>  <smiles>  (27) 
CCNCCC(=O)Nc1ccc2c(c1)c(=O)c1ccccc1n2C

>  <score_type>  (27) 
oracle

>  <origin>  (27) 
adg

>  <m_score__min__energy>  (27) 
-10.529999999999999

>  <m_primary>  (27) 
energy

$$$$
27:0
     RDKit          3D

 35 37  0  0  0  0  0  0  0  0999 V2000
   -6.4950   24.7790  -29.9650 C   0  0  0  0  0  0  0  0  0  0  0  0
   -5.8460   23.5590  -30.4760 N   0  0  0  0  0  0  0  0  0  0  0  0
   -6.5650   22.3820  -30.6020 C   0  0  0  0  0  0  0  0  0  0  0  0
   -8.3290   22.3000  -30.2180 S   0  0  0  0  0  0  0  0  0  0  0  0
   -8.8780   22.0410  -31.9470 C   0  0  0  0  0  0  0  0  0  0  0  0
   -9.3900   20.6160  -32.1850 C   0  0  0  0  0  0  0  0  0  0  0  0
   -8.2920   19.6600  -32.5790 C   0  0  0  0  0  0  0  0  0  0  0  0
   -8.2480   18.3640  -32.0340 C   0  0  0  0  0  0  0  0  0  0  0  0
   -7.2250   17.4820  -32.3950 C   0  0  0  0  0  0  0  0  0  0  0  0
   -6.2310   17.8880  -33.2900 C   0  0  0  0  0  0  0  0  0  0  0  0
   -4.8380   16.6790  -33.7820 Br  0  0  0  0  0  0  0  0  0  0  0  0
   -6.2610   19.1790  -33.8260 C   0  0  0  0  0  0  0  0  0  0  0  0
   -7.2840   20.0640  -33.4710 C   0  0  0  0  0  0  0  0  0  0  0  0
   -5.9510   21.2370  -31.0260 N   0  0  0  0  0  0  0  0  0  0  0  0
   -4.6480   21.2650  -31.3970 C   0  0  0  0  0  0  0  0  0  0  0  0
   -3.9150   20.1720  -31.8690 C   0  0  0  0  0  0  0  0  0  0  0  0
   -2.6030   20.5150  -32.1950 C   0  0  0  0  0  0  0  0  0  0  0  0
   -2.3700   22.1630  -31.8860 S   0  0  0  0  0  0  0  0  0  0  0  0
   -3.9350   22.4350  -31.3430 C   0  0  0  0  0  0  0  0  0  0  0  0
   -4.5300   23.5990  -30.8790 C   0  0  0  0  0  0  0  0  0  0  0  0
   -3.8620   24.6690  -30.8360 O   0  0  0  0  0  0  0  0  0  0  0  0
   -6.4876   24.7651  -28.8651 H   0  0  0  0  0  0  0  0  0  0  0  0
   -5.9481   25.6632  -30.3242 H   0  0  0  0  0  0  0  0  0  0  0  0
   -7.5339   24.8196  -30.3242 H   0  0  0  0  0  0  0  0  0  0  0  0
   -9.6881   22.7505  -32.1714 H   0  0  0  0  0  0  0  0  0  0  0  0
   -8.0108   22.2022  -32.6042 H   0  0  0  0  0  0  0  0  0  0  0  0
   -9.8583   20.2513  -31.2589 H   0  0  0  0  0  0  0  0  0  0  0  0
  -10.1089   20.6564  -33.0166 H   0  0  0  0  0  0  0  0  0  0  0  0
   -9.0216   18.0431  -31.3209 H   0  0  0  0  0  0  0  0  0  0  0  0
   -7.2023   16.4661  -31.9737 H   0  0  0  0  0  0  0  0  0  0  0  0
   -5.4778   19.4994  -34.5288 H   0  0  0  0  0  0  0  0  0  0  0  0
   -7.2997   21.0803  -33.8916 H   0  0  0  0  0  0  0  0  0  0  0  0
   -6.4830   20.3410  -31.0670 H   0  0  0  0  0  0  0  0  0  0  0  0
   -4.3263   19.1570  -31.9716 H   0  0  0  0  0  0  0  0  0  0  0  0
   -1.8420   19.8255  -32.5895 H   0  0  0  0  0  0  0  0  0  0  0  0
  1  2  1  0
  2  3  1  0
  3  4  1  0
  4  5  1  0
  5  6  1  0
  6  7  1  0
  7  8  2  0
  8  9  1  0
  9 10  2  0
 10 11  1  0
 10 12  1  0
 12 13  2  0
  3 14  2  0
 14 15  1  0
 15 16  1  0
 16 17  2  0
 17 18  1  0
 18 19  1  0
 19 20  1  0
 20 21  2  0
 20  2  1  0
 13  7  1  0
 19 15  2  0
  1 22  1  0
  1 23  1  0
  1 24  1  0
  5 25  1  0
  5 26  1  0
  6 27  1  0
  6 28  1  0
  8 29  1  0
  9 30  1  0
 12 31  1  0
 13 32  1  0
 14 33  1  0
 16 34  1  0
 17 35  1  0
M  CHG  1  14   1
M  END
>  <UniqueID>  (28) 
27

>  <SMILES>  (28) 
Cn1c(SCCc2ccc(Br)cc2)[nH+]c2ccsc2c1=O

>  <Energy>  (28) 
65.28884034283413

>  <Genealogy>  (28) 
Cn1c(SCCc2ccc(Br)cc2)[nH+]c2ccsc2c1=O (protonated)
Cn1c(SCCc2ccc(Br)cc2)[nH+]c2ccsc2c1=O (3D coordinates assigned)
Cn1c(SCCc2ccc(Br)cc2)[nH+]c2ccsc2c1=O (optimized conformer: 65.28884034283413 kcal/mol)

>  <smiles>  (28) 
Cn1c(SCCc2ccc(Br)cc2)nc2ccsc2c1=O

>  <score_type>  (28) 
oracle

>  <origin>  (28) 
adg

>  <m_score__min__energy>  (28) 
-7.75

>  <m_primary>  (28) 
energy

$$$$
28:0
     RDKit          3D

 64 64  0  0  0  0  0  0  0  0999 V2000
   -4.0900   24.9750  -26.3780 C   0  0  0  0  0  0  0  0  0  0  0  0
   -3.6040   24.1430  -27.5640 C   0  0  0  0  0  0  0  0  0  0  0  0
   -2.3860   24.7700  -28.2440 C   0  0  0  0  0  0  0  0  0  0  0  0
   -2.6250   24.9120  -29.6770 N   0  0  0  0  0  0  0  0  0  0  0  0
   -3.5680   24.1330  -30.4230 C   0  0  0  0  0  0  0  0  0  0  0  0
   -4.3500   24.7280  -31.2120 O   0  0  0  0  0  0  0  0  0  0  0  0
   -3.5920   22.6260  -30.3520 C   0  0  0  0  0  0  0  0  0  0  0  0
   -3.7060   22.0380  -31.6950 N   0  0  0  0  0  0  0  0  0  0  0  0
   -5.0150   22.0390  -32.3650 C   0  0  0  0  0  0  0  0  0  0  0  0
   -6.1490   21.9700  -31.3220 C   0  0  0  0  0  0  0  0  0  0  0  0
   -6.9890   23.1920  -31.2540 N   0  0  0  0  0  0  0  0  0  0  0  0
   -7.1500   23.6840  -29.8680 C   0  0  0  0  0  0  0  0  0  0  0  0
   -6.8220   25.1720  -29.7890 C   0  0  0  0  0  0  0  0  0  0  0  0
   -8.2950   23.0670  -31.9450 C   0  0  0  0  0  0  0  0  0  0  0  0
   -9.1700   21.9740  -31.3300 C   0  0  0  0  0  0  0  0  0  0  0  0
   -2.5150   21.5490  -32.3530 C   0  0  0  0  0  0  0  0  0  0  0  0
   -2.2760   21.8950  -33.5430 O   0  0  0  0  0  0  0  0  0  0  0  0
   -1.5280   20.6470  -31.6600 C   0  0  0  0  0  0  0  0  0  0  0  0
   -1.3070   19.3590  -32.4600 C   0  0  0  0  0  0  0  0  0  0  0  0
   -2.3110   19.2460  -33.5150 N   0  0  0  0  0  0  0  0  0  0  0  0
   -3.1450   18.0880  -33.6560 C   0  0  0  0  0  0  0  0  0  0  0  0
   -2.8590   17.0190  -33.0510 O   0  0  0  0  0  0  0  0  0  0  0  0
   -4.4000   18.1630  -34.4680 C   0  0  0  0  0  0  0  0  0  0  0  0
   -5.5660   18.4400  -33.5610 C   0  0  0  0  0  0  0  0  0  0  0  0
   -6.4820   19.4570  -33.8800 C   0  0  0  0  0  0  0  0  0  0  0  0
   -7.6070   19.6690  -33.0780 C   0  0  0  0  0  0  0  0  0  0  0  0
   -7.8290   18.8650  -31.9570 C   0  0  0  0  0  0  0  0  0  0  0  0
   -6.9260   17.8470  -31.6360 C   0  0  0  0  0  0  0  0  0  0  0  0
   -5.8010   17.6300  -32.4360 C   0  0  0  0  0  0  0  0  0  0  0  0
   -3.8006   24.4796  -25.4395 H   0  0  0  0  0  0  0  0  0  0  0  0
   -3.6341   25.9752  -26.4204 H   0  0  0  0  0  0  0  0  0  0  0  0
   -5.1851   25.0691  -26.4204 H   0  0  0  0  0  0  0  0  0  0  0  0
   -3.3329   23.1389  -27.2059 H   0  0  0  0  0  0  0  0  0  0  0  0
   -4.4182   24.0963  -28.3022 H   0  0  0  0  0  0  0  0  0  0  0  0
   -2.1967   25.7617  -27.8074 H   0  0  0  0  0  0  0  0  0  0  0  0
   -1.5136   24.1181  -28.0889 H   0  0  0  0  0  0  0  0  0  0  0  0
   -2.6621   22.2730  -29.8823 H   0  0  0  0  0  0  0  0  0  0  0  0
   -4.4647   22.3165  -29.7582 H   0  0  0  0  0  0  0  0  0  0  0  0
   -5.1201   22.9613  -32.9551 H   0  0  0  0  0  0  0  0  0  0  0  0
   -5.0807   21.1609  -33.0243 H   0  0  0  0  0  0  0  0  0  0  0  0
   -6.7984   21.1187  -31.5744 H   0  0  0  0  0  0  0  0  0  0  0  0
   -5.6677   21.8624  -30.3388 H   0  0  0  0  0  0  0  0  0  0  0  0
   -8.1895   23.5246  -29.5455 H   0  0  0  0  0  0  0  0  0  0  0  0
   -6.4611   23.1320  -29.2117 H   0  0  0  0  0  0  0  0  0  0  0  0
   -6.7547   25.4771  -28.7343 H   0  0  0  0  0  0  0  0  0  0  0  0
   -5.8603   25.3625  -30.2879 H   0  0  0  0  0  0  0  0  0  0  0  0
   -7.6145   25.7491  -30.2879 H   0  0  0  0  0  0  0  0  0  0  0  0
   -8.8264   24.0276  -31.8753 H   0  0  0  0  0  0  0  0  0  0  0  0
   -8.0988   22.7940  -32.9924 H   0  0  0  0  0  0  0  0  0  0  0  0
   -9.1191   22.0375  -30.2330 H   0  0  0  0  0  0  0  0  0  0  0  0
  -10.2113   22.1104  -31.6573 H   0  0  0  0  0  0  0  0  0  0  0  0
   -8.8090   20.9878  -31.6573 H   0  0  0  0  0  0  0  0  0  0  0  0
   -0.5688   21.1754  -31.5564 H   0  0  0  0  0  0  0  0  0  0  0  0
   -1.9298   20.3812  -30.6711 H   0  0  0  0  0  0  0  0  0  0  0  0
   -0.3044   19.3789  -32.9122 H   0  0  0  0  0  0  0  0  0  0  0  0
   -1.3953   18.4954  -31.7844 H   0  0  0  0  0  0  0  0  0  0  0  0
   -2.4680   20.0650  -34.1450 H   0  0  0  0  0  0  0  0  0  0  0  0
   -4.3105   18.9719  -35.2080 H   0  0  0  0  0  0  0  0  0  0  0  0
   -4.5585   17.2069  -34.9884 H   0  0  0  0  0  0  0  0  0  0  0  0
   -6.3129   20.0888  -34.7645 H   0  0  0  0  0  0  0  0  0  0  0  0
   -8.3182   20.4695  -33.3296 H   0  0  0  0  0  0  0  0  0  0  0  0
   -8.7147   19.0331  -31.3267 H   0  0  0  0  0  0  0  0  0  0  0  0
   -7.1014   17.2159  -30.7523 H   0  0  0  0  0  0  0  0  0  0  0  0
   -5.0970   16.8229  -32.1848 H   0  0  0  0  0  0  0  0  0  0  0  0
  1  2  1  0
  2  3  1  0
  3  4  1  0
  4  5  1  0
  5  6  2  0
  5  7  1  0
  7  8  1  0
  8  9  1  0
  9 10  1  0
 10 11  1  0
 11 12  1  0
 12 13  1  0
 11 14  1  0
 14 15  1  0
  8 16  1  0
 16 17  2  0
 16 18  1  0
 18 19  1  0
 19 20  1  0
 20 21  1  0
 21 22  2  0
 21 23  1  0
 23 24  1  0
 24 25  2  0
 25 26  1  0
 26 27  2  0
 27 28  1  0
 28 29  2  0
 29 24  1  0
  1 30  1  0
  1 31  1  0
  1 32  1  0
  2 33  1  0
  2 34  1  0
  3 35  1  0
  3 36  1  0
  7 37  1  0
  7 38  1  0
  9 39  1  0
  9 40  1  0
 10 41  1  0
 10 42  1  0
 12 43  1  0
 12 44  1  0
 13 45  1  0
 13 46  1  0
 13 47  1  0
 14 48  1  0
 14 49  1  0
 15 50  1  0
 15 51  1  0
 15 52  1  0
 18 53  1  0
 18 54  1  0
 19 55  1  0
 19 56  1  0
 20 57  1  0
 23 58  1  0
 23 59  1  0
 25 60  1  0
 26 61  1  0
 27 62  1  0
 28 63  1  0
 29 64  1  0
M  CHG  1   4  -1
M  END
>  <UniqueID>  (29) 
28

>  <SMILES>  (29) 
CCC[N-]C(=O)CN(CCN(CC)CC)C(=O)CCNC(=O)Cc1ccccc1

>  <Energy>  (29) 
43.96595310585987

>  <Genealogy>  (29) 
CCC[N-]C(=O)CN(CCN(CC)CC)C(=O)CCNC(=O)Cc1ccccc1 (protonated)
CCC[N-]C(=O)CN(CCN(CC)CC)C(=O)CCNC(=O)Cc1ccccc1 (3D coordinates assigned)
CCC[N-]C(=O)CN(CCN(CC)CC)C(=O)CCNC(=O)Cc1ccccc1 (optimized conformer: 43.96595310585987 kcal/mol)

>  <smiles>  (29) 
CCCNC(=O)CN(CCN(CC)CC)C(=O)CCNC(=O)Cc1ccccc1

>  <score_type>  (29) 
oracle

>  <origin>  (29) 
adg

>  <m_score__min__energy>  (29) 
-9.9399999999999995

>  <m_primary>  (29) 
energy

$$$$
29:0
     RDKit          3D

 57 59  0  0  0  0  0  0  0  0999 V2000
   -6.2210   25.0780  -29.7610 C   0  0  0  0  0  0  0  0  0  0  0  0
   -4.9930   25.6310  -30.4790 C   0  0  0  0  0  0  0  0  0  0  0  0
   -3.9340   24.5970  -30.5530 N   0  0  0  0  0  0  0  0  0  0  0  0
   -3.1540   24.5390  -29.2940 C   0  0  0  0  0  0  0  0  0  0  0  0
   -3.6140   23.3570  -28.4440 C   0  0  0  0  0  0  0  0  0  0  0  0
   -4.5010   23.2730  -30.8940 C   0  0  0  0  0  0  0  0  0  0  0  0
   -3.6740   22.6200  -32.0040 C   0  0  0  0  0  0  0  0  0  0  0  0
   -4.5480   22.0710  -33.0410 N   0  0  0  0  0  0  0  0  0  0  0  0
   -5.5580   21.1000  -32.7190 C   0  0  0  0  0  0  0  0  0  0  0  0
   -6.8530   21.5390  -32.3850 C   0  0  0  0  0  0  0  0  0  0  0  0
   -7.1330   22.9140  -32.2220 C   0  0  0  0  0  0  0  0  0  0  0  0
   -8.4280   23.3550  -31.9570 C   0  0  0  0  0  0  0  0  0  0  0  0
   -9.4670   22.4390  -31.8640 C   0  0  0  0  0  0  0  0  0  0  0  0
   -9.2150   21.0760  -32.0080 C   0  0  0  0  0  0  0  0  0  0  0  0
   -7.9000   20.5920  -32.2360 C   0  0  0  0  0  0  0  0  0  0  0  0
   -7.6340   19.2410  -32.3480 N   0  0  0  0  0  0  0  0  0  0  0  0
   -8.6600   18.2530  -31.9420 C   0  0  0  0  0  0  0  0  0  0  0  0
   -6.4000   18.8090  -32.7950 C   0  0  0  0  0  0  0  0  0  0  0  0
   -6.1930   17.4660  -33.1930 C   0  0  0  0  0  0  0  0  0  0  0  0
   -4.9310   17.0040  -33.5430 C   0  0  0  0  0  0  0  0  0  0  0  0
   -3.8360   17.8530  -33.4800 C   0  0  0  0  0  0  0  0  0  0  0  0
   -3.9960   19.2020  -33.1370 C   0  0  0  0  0  0  0  0  0  0  0  0
   -2.8110   19.9980  -32.9430 N   0  0  0  0  0  0  0  0  0  0  0  0
   -2.1460   19.9600  -31.6380 C   0  0  0  0  0  0  0  0  0  0  0  0
   -2.0210   20.4200  -34.1010 C   0  0  0  0  0  0  0  0  0  0  0  0
   -5.3040   19.7160  -32.8810 C   0  0  0  0  0  0  0  0  0  0  0  0
   -6.0712   25.1455  -28.6733 H   0  0  0  0  0  0  0  0  0  0  0  0
   -7.1072   25.6639  -30.0461 H   0  0  0  0  0  0  0  0  0  0  0  0
   -6.3697   24.0260  -30.0461 H   0  0  0  0  0  0  0  0  0  0  0  0
   -5.2745   25.9362  -31.4976 H   0  0  0  0  0  0  0  0  0  0  0  0
   -4.6101   26.4972  -29.9195 H   0  0  0  0  0  0  0  0  0  0  0  0
   -2.0866   24.4216  -29.5327 H   0  0  0  0  0  0  0  0  0  0  0  0
   -3.3120   25.4702  -28.7301 H   0  0  0  0  0  0  0  0  0  0  0  0
   -3.5151   23.6112  -27.3784 H   0  0  0  0  0  0  0  0  0  0  0  0
   -4.6662   23.1299  -28.6706 H   0  0  0  0  0  0  0  0  0  0  0  0
   -2.9922   22.4784  -28.6706 H   0  0  0  0  0  0  0  0  0  0  0  0
   -4.4861   22.6295  -30.0020 H   0  0  0  0  0  0  0  0  0  0  0  0
   -5.5361   23.4023  -31.2432 H   0  0  0  0  0  0  0  0  0  0  0  0
   -3.0106   23.3743  -32.4522 H   0  0  0  0  0  0  0  0  0  0  0  0
   -3.0806   21.8017  -31.5700 H   0  0  0  0  0  0  0  0  0  0  0  0
   -4.2550   22.1820  -34.0390 H   0  0  0  0  0  0  0  0  0  0  0  0
   -6.3171   23.6470  -32.3055 H   0  0  0  0  0  0  0  0  0  0  0  0
   -8.6269   24.4284  -31.8216 H   0  0  0  0  0  0  0  0  0  0  0  0
  -10.4924   22.7902  -31.6761 H   0  0  0  0  0  0  0  0  0  0  0  0
  -10.0498   20.3625  -31.9439 H   0  0  0  0  0  0  0  0  0  0  0  0
   -8.7092   18.2056  -30.8441 H   0  0  0  0  0  0  0  0  0  0  0  0
   -9.6394   18.5568  -32.3402 H   0  0  0  0  0  0  0  0  0  0  0  0
   -8.3934   17.2629  -32.3402 H   0  0  0  0  0  0  0  0  0  0  0  0
   -7.0484   16.7752  -33.2256 H   0  0  0  0  0  0  0  0  0  0  0  0
   -4.7995   15.9623  -33.8710 H   0  0  0  0  0  0  0  0  0  0  0  0
   -2.8316   17.4632  -33.7016 H   0  0  0  0  0  0  0  0  0  0  0  0
   -2.9018   20.0032  -30.8399 H   0  0  0  0  0  0  0  0  0  0  0  0
   -1.5697   19.0275  -31.5472 H   0  0  0  0  0  0  0  0  0  0  0  0
   -1.4672   20.8208  -31.5472 H   0  0  0  0  0  0  0  0  0  0  0  0
   -1.0996   20.9122  -33.7565 H   0  0  0  0  0  0  0  0  0  0  0  0
   -1.7617   19.5402  -34.7083 H   0  0  0  0  0  0  0  0  0  0  0  0
   -2.6081   21.1246  -34.7083 H   0  0  0  0  0  0  0  0  0  0  0  0
  1  2  1  0
  2  3  1  0
  3  4  1  0
  4  5  1  0
  3  6  1  0
  6  7  1  0
  7  8  1  0
  8  9  1  0
  9 10  2  0
 10 11  1  0
 11 12  2  0
 12 13  1  0
 13 14  2  0
 14 15  1  0
 15 16  2  0
 16 17  1  0
 16 18  1  0
 18 19  2  0
 19 20  1  0
 20 21  2  0
 21 22  1  0
 22 23  1  0
 23 24  1  0
 23 25  1  0
 22 26  2  0
 26  9  1  0
 15 10  1  0
 26 18  1  0
  1 27  1  0
  1 28  1  0
  1 29  1  0
  2 30  1  0
  2 31  1  0
  4 32  1  0
  4 33  1  0
  5 34  1  0
  5 35  1  0
  5 36  1  0
  6 37  1  0
  6 38  1  0
  7 39  1  0
  7 40  1  0
  8 41  1  0
 11 42  1  0
 12 43  1  0
 13 44  1  0
 14 45  1  0
 17 46  1  0
 17 47  1  0
 17 48  1  0
 19 49  1  0
 20 50  1  0
 21 51  1  0
 24 52  1  0
 24 53  1  0
 24 54  1  0
 25 55  1  0
 25 56  1  0
 25 57  1  0
M  CHG  1  16   1
M  END
>  <UniqueID>  (30) 
29

>  <SMILES>  (30) 
CCN(CC)CCNc1c2ccccc2[n+](C)c2cccc(N(C)C)c12

>  <Energy>  (30) 
88.45837291117638

>  <Genealogy>  (30) 
CCN(CC)CCNc1c2ccccc2[n+](C)c2cccc(N(C)C)c12 (3D coordinates assigned)
CCN(CC)CCNc1c2ccccc2[n+](C)c2cccc(N(C)C)c12 (optimized conformer: 88.45837291117638 kcal/mol)

>  <smiles>  (30) 
CCN(CC)CCNc1c2ccccc2[n+](C)c2cccc(N(C)C)c12

>  <score_type>  (30) 
oracle

>  <origin>  (30) 
adg

>  <m_score__min__energy>  (30) 
-8.5999999999999996

>  <m_primary>  (30) 
energy

$$$$
30:0
     RDKit          3D

 51 53  0  0  0  0  0  0  0  0999 V2000
   -5.7430   25.6640  -30.1530 C   0  0  0  0  0  0  0  0  0  0  0  0
   -4.8640   24.7130  -30.8550 N   0  0  0  0  0  0  0  0  0  0  0  0
   -3.9980   24.0340  -29.8790 C   0  0  0  0  0  0  0  0  0  0  0  0
   -5.6550   23.7200  -31.6150 C   0  0  0  0  0  0  0  0  0  0  0  0
   -7.0270   23.4660  -30.9680 C   0  0  0  0  0  0  0  0  0  0  0  0
   -8.1740   23.2830  -31.9800 C   0  0  0  0  0  0  0  0  0  0  0  0
   -9.0530   22.0470  -31.7200 C   0  0  0  0  0  0  0  0  0  0  0  0
   -8.2990   20.7580  -31.9250 C   0  0  0  0  0  0  0  0  0  0  0  0
   -8.7820   19.5560  -31.3870 C   0  0  0  0  0  0  0  0  0  0  0  0
   -8.0940   18.3580  -31.5990 C   0  0  0  0  0  0  0  0  0  0  0  0
   -6.9080   18.3380  -32.3570 C   0  0  0  0  0  0  0  0  0  0  0  0
   -6.1700   17.0710  -32.5860 C   0  0  0  0  0  0  0  0  0  0  0  0
   -5.6340   16.3000  -31.6070 N   0  0  0  0  0  0  0  0  0  0  0  0
   -5.0160   15.2080  -32.0500 N   0  0  0  0  0  0  0  0  0  0  0  0
   -5.0510   15.0920  -33.3940 C   0  0  0  0  0  0  0  0  0  0  0  0
   -4.2970   13.7460  -34.2960 S   0  0  0  0  0  0  0  0  0  0  0  0
   -2.7060   14.5810  -34.3800 C   0  0  0  0  0  0  0  0  0  0  0  0
   -2.3100   15.1400  -35.6020 C   0  0  0  0  0  0  0  0  0  0  0  0
   -1.0870   15.8060  -35.7120 C   0  0  0  0  0  0  0  0  0  0  0  0
   -0.2480   15.9140  -34.6010 C   0  0  0  0  0  0  0  0  0  0  0  0
   -0.6310   15.3560  -33.3780 C   0  0  0  0  0  0  0  0  0  0  0  0
   -1.8590   14.6850  -33.2540 C   0  0  0  0  0  0  0  0  0  0  0  0
   -2.2230   14.1220  -31.9870 N   0  0  0  0  0  0  0  0  0  0  0  0
   -5.8780   16.3750  -34.0990 S   0  0  0  0  0  0  0  0  0  0  0  0
   -6.4240   19.5480  -32.8870 C   0  0  0  0  0  0  0  0  0  0  0  0
   -7.1140   20.7440  -32.6760 C   0  0  0  0  0  0  0  0  0  0  0  0
   -5.6263   25.5378  -29.0665 H   0  0  0  0  0  0  0  0  0  0  0  0
   -5.4700   26.6918  -30.4341 H   0  0  0  0  0  0  0  0  0  0  0  0
   -6.7891   25.4726  -30.4341 H   0  0  0  0  0  0  0  0  0  0  0  0
   -4.3237   24.2893  -28.8598 H   0  0  0  0  0  0  0  0  0  0  0  0
   -4.0655   22.9456  -30.0236 H   0  0  0  0  0  0  0  0  0  0  0  0
   -2.9572   24.3592  -30.0236 H   0  0  0  0  0  0  0  0  0  0  0  0
   -5.8077   24.0942  -32.6381 H   0  0  0  0  0  0  0  0  0  0  0  0
   -5.0985   22.7712  -31.6198 H   0  0  0  0  0  0  0  0  0  0  0  0
   -6.9572   22.5546  -30.3561 H   0  0  0  0  0  0  0  0  0  0  0  0
   -7.2679   24.3591  -30.3728 H   0  0  0  0  0  0  0  0  0  0  0  0
   -8.8146   24.1764  -31.9407 H   0  0  0  0  0  0  0  0  0  0  0  0
   -7.7064   23.1370  -32.9649 H   0  0  0  0  0  0  0  0  0  0  0  0
   -9.4170   22.0832  -30.6826 H   0  0  0  0  0  0  0  0  0  0  0  0
   -9.8861   22.0684  -32.4379 H   0  0  0  0  0  0  0  0  0  0  0  0
   -9.7086   19.5562  -30.7942 H   0  0  0  0  0  0  0  0  0  0  0  0
   -8.4827   17.4227  -31.1698 H   0  0  0  0  0  0  0  0  0  0  0  0
   -5.7020   16.5070  -30.5860 H   0  0  0  0  0  0  0  0  0  0  0  0
   -2.9663   15.0539  -36.4805 H   0  0  0  0  0  0  0  0  0  0  0  0
   -0.7848   16.2455  -36.6740 H   0  0  0  0  0  0  0  0  0  0  0  0
    0.7149   16.4385  -34.6883 H   0  0  0  0  0  0  0  0  0  0  0  0
    0.0341   15.4429  -32.5061 H   0  0  0  0  0  0  0  0  0  0  0  0
   -3.2140   14.0720  -31.6660 H   0  0  0  0  0  0  0  0  0  0  0  0
   -1.4900   13.7410  -31.3470 H   0  0  0  0  0  0  0  0  0  0  0  0
   -5.4932   19.5522  -33.4732 H   0  0  0  0  0  0  0  0  0  0  0  0
   -6.7257   21.6811  -33.1015 H   0  0  0  0  0  0  0  0  0  0  0  0
  1  2  1  0
  2  3  1  0
  2  4  1  0
  4  5  1  0
  5  6  1  0
  6  7  1  0
  7  8  1  0
  8  9  2  0
  9 10  1  0
 10 11  2  0
 11 12  1  0
 12 13  2  0
 13 14  1  0
 14 15  2  0
 15 16  1  0
 16 17  1  0
 17 18  2  0
 18 19  1  0
 19 20  2  0
 20 21  1  0
 21 22  2  0
 22 23  1  0
 15 24  1  0
 11 25  1  0
 25 26  2  0
 26  8  1  0
 24 12  1  0
 22 17  1  0
  1 27  1  0
  1 28  1  0
  1 29  1  0
  3 30  1  0
  3 31  1  0
  3 32  1  0
  4 33  1  0
  4 34  1  0
  5 35  1  0
  5 36  1  0
  6 37  1  0
  6 38  1  0
  7 39  1  0
  7 40  1  0
  9 41  1  0
 10 42  1  0
 13 43  1  0
 18 44  1  0
 19 45  1  0
 20 46  1  0
 21 47  1  0
 23 48  1  0
 23 49  1  0
 25 50  1  0
 26 51  1  0
M  CHG  1  13   1
M  END
>  <UniqueID>  (31) 
30

>  <SMILES>  (31) 
CN(C)CCCCc1ccc(-c2[nH+]nc(Sc3ccccc3N)s2)cc1

>  <Energy>  (31) 
80.1167694197885

>  <Genealogy>  (31) 
CN(C)CCCCc1ccc(-c2[nH+]nc(Sc3ccccc3N)s2)cc1 (protonated)
CN(C)CCCCc1ccc(-c2[nH+]nc(Sc3ccccc3N)s2)cc1 (3D coordinates assigned)
CN(C)CCCCc1ccc(-c2[nH+]nc(Sc3ccccc3N)s2)cc1 (optimized conformer: 80.1167694197885 kcal/mol)

>  <smiles>  (31) 
CN(C)CCCCc1ccc(-c2nnc(Sc3ccccc3N)s2)cc1

>  <score_type>  (31) 
oracle

>  <origin>  (31) 
adg

>  <m_score__min__energy>  (31) 
-8.6699999999999999

>  <m_primary>  (31) 
energy

$$$$
31:0
     RDKit          3D

 30 31  0  0  1  0  0  0  0  0999 V2000
   -6.1190   25.6550  -29.7720 C   0  0  0  0  0  0  0  0  0  0  0  0
   -5.0750   24.6770  -30.2680 C   0  0  0  0  0  0  0  0  0  0  0  0
   -5.3610   24.2150  -31.6000 N   0  0  0  0  0  0  0  0  0  0  0  0
   -6.0540   23.1520  -31.8360 C   0  0  0  0  0  0  0  0  0  0  0  0
   -7.3760   23.1390  -31.4330 C   0  0  0  0  0  0  0  0  0  0  0  0
   -8.0880   21.9850  -31.7020 C   0  0  0  0  0  0  0  0  0  0  0  0
   -9.5210   21.9140  -31.2880 C   0  0  0  0  0  0  0  0  0  0  0  0
   -7.4770   20.9610  -32.3240 N   0  0  0  0  0  0  0  0  0  0  0  0
   -6.1780   20.9860  -32.7150 C   0  0  0  0  0  0  0  0  0  0  0  0
   -5.6470   19.8130  -33.3760 C   0  0  0  0  0  0  0  0  0  0  0  0
   -6.4460   18.7840  -33.8090 C   0  0  0  0  0  0  0  0  0  0  0  0
   -5.9280   17.6520  -34.4480 C   0  0  0  0  0  0  0  0  0  0  0  0
   -4.5510   17.5440  -34.6650 C   0  0  0  0  0  0  0  0  0  0  0  0
   -3.7910   18.5980  -34.2160 C   0  0  0  0  0  0  0  0  0  0  0  0
   -4.3100   19.6620  -33.6110 N   0  0  0  0  0  0  0  0  0  0  0  0
   -5.4940   22.0980  -32.4550 N   0  0  0  0  0  0  0  0  0  0  0  0
   -6.1239   25.6596  -28.6720 H   0  0  0  0  0  0  0  0  0  0  0  0
   -5.8818   26.6634  -30.1418 H   0  0  0  0  0  0  0  0  0  0  0  0
   -7.1098   25.3525  -30.1418 H   0  0  0  0  0  0  0  0  0  0  0  0
   -4.0937   25.1740  -30.2673 H   0  0  0  0  0  0  0  0  0  0  0  0
   -5.0792   23.8053  -29.5971 H   0  0  0  0  0  0  0  0  0  0  0  0
   -7.8364   23.9998  -30.9260 H   0  0  0  0  0  0  0  0  0  0  0  0
   -9.5857   21.9108  -30.1899 H   0  0  0  0  0  0  0  0  0  0  0  0
  -10.0609   22.7865  -31.6846 H   0  0  0  0  0  0  0  0  0  0  0  0
   -9.9720   20.9924  -31.6846 H   0  0  0  0  0  0  0  0  0  0  0  0
   -7.5320   18.8518  -33.6479 H   0  0  0  0  0  0  0  0  0  0  0  0
   -6.6028   16.8488  -34.7789 H   0  0  0  0  0  0  0  0  0  0  0  0
   -4.1041   16.6711  -35.1633 H   0  0  0  0  0  0  0  0  0  0  0  0
   -2.7017   18.5591  -34.3644 H   0  0  0  0  0  0  0  0  0  0  0  0
   -4.4950   22.1500  -32.7420 H   0  0  0  0  0  0  0  0  0  0  0  0
  1  2  1  0
  2  3  1  0
  3  4  2  0
  4  5  1  0
  5  6  2  0
  6  7  1  0
  6  8  1  0
  8  9  2  0
  9 10  1  0
 10 11  2  0
 11 12  1  0
 12 13  2  0
 13 14  1  0
 14 15  2  0
  9 16  1  0
 16  4  1  0
 15 10  1  0
  1 17  1  0
  1 18  1  0
  1 19  1  0
  2 20  1  0
  2 21  1  0
  5 22  1  0
  7 23  1  0
  7 24  1  0
  7 25  1  0
 11 26  1  0
 12 27  1  0
 13 28  1  0
 14 29  1  0
 16 30  1  0
M  END
>  <smiles>  (32) 
CCN=c1cc(C)nc(-c2ccccn2)[nH]1

>  <score_type>  (32) 
oracle

>  <origin>  (32) 
adg

>  <m_score__min__energy>  (32) 
-6.0499999999999998

>  <m_primary>  (32) 
energy

$$$$
32:0
     RDKit          3D

 50 52  0  0  0  0  0  0  0  0999 V2000
   -2.6650   24.9090  -26.7700 C   0  0  0  0  0  0  0  0  0  0  0  0
   -2.3450   24.6050  -28.2280 C   0  0  0  0  0  0  0  0  0  0  0  0
   -3.3870   23.7510  -28.8180 N   0  0  0  0  0  0  0  0  0  0  0  0
   -4.0040   22.6900  -28.0070 C   0  0  0  0  0  0  0  0  0  0  0  0
   -3.1090   21.4560  -27.9740 C   0  0  0  0  0  0  0  0  0  0  0  0
   -3.9060   24.0650  -30.1270 C   0  0  0  0  0  0  0  0  0  0  0  0
   -3.9090   25.2590  -30.5310 O   0  0  0  0  0  0  0  0  0  0  0  0
   -4.4760   23.0260  -31.0010 C   0  0  0  0  0  0  0  0  0  0  0  0
   -3.7710   21.9770  -31.4600 N   0  0  0  0  0  0  0  0  0  0  0  0
   -4.6380   21.2500  -32.1940 C   0  0  0  0  0  0  0  0  0  0  0  0
   -4.2370   20.0220  -32.9150 C   0  0  0  0  0  0  0  0  0  0  0  0
   -2.9420   19.8830  -33.4350 C   0  0  0  0  0  0  0  0  0  0  0  0
   -2.5660   18.7110  -34.0950 C   0  0  0  0  0  0  0  0  0  0  0  0
   -3.4760   17.6520  -34.2370 C   0  0  0  0  0  0  0  0  0  0  0  0
   -3.0570   16.3940  -34.9470 C   0  0  0  0  0  0  0  0  0  0  0  0
   -4.7720   17.7790  -33.6970 C   0  0  0  0  0  0  0  0  0  0  0  0
   -5.9540   16.4820  -33.8290 Cl  0  0  0  0  0  0  0  0  0  0  0  0
   -5.1420   18.9570  -33.0360 C   0  0  0  0  0  0  0  0  0  0  0  0
   -5.8880   21.7790  -32.1760 N   0  0  0  0  0  0  0  0  0  0  0  0
   -5.7850   22.9140  -31.4440 C   0  0  0  0  0  0  0  0  0  0  0  0
   -6.9450   23.7800  -31.0230 C   0  0  0  0  0  0  0  0  0  0  0  0
   -8.2290   23.4210  -31.7920 C   0  0  0  0  0  0  0  0  0  0  0  0
   -8.8700   22.2320  -31.3530 O   0  0  0  0  0  0  0  0  0  0  0  0
   -8.2220   21.0330  -31.7510 C   0  0  0  0  0  0  0  0  0  0  0  0
   -7.1020   21.2190  -32.7880 C   0  0  0  0  0  0  0  0  0  0  0  0
   -2.0224   24.2985  -26.1186 H   0  0  0  0  0  0  0  0  0  0  0  0
   -2.4832   25.9752  -26.5693 H   0  0  0  0  0  0  0  0  0  0  0  0
   -3.7204   24.6728  -26.5693 H   0  0  0  0  0  0  0  0  0  0  0  0
   -2.2892   25.5486  -28.7905 H   0  0  0  0  0  0  0  0  0  0  0  0
   -1.3819   24.0759  -28.2775 H   0  0  0  0  0  0  0  0  0  0  0  0
   -4.1516   23.0579  -26.9809 H   0  0  0  0  0  0  0  0  0  0  0  0
   -4.9712   22.4168  -28.4541 H   0  0  0  0  0  0  0  0  0  0  0  0
   -2.9070   21.1774  -26.9292 H   0  0  0  0  0  0  0  0  0  0  0  0
   -3.6142   20.6228  -28.4845 H   0  0  0  0  0  0  0  0  0  0  0  0
   -2.1601   21.6775  -28.4845 H   0  0  0  0  0  0  0  0  0  0  0  0
   -2.7560   21.7860  -31.3050 H   0  0  0  0  0  0  0  0  0  0  0  0
   -2.2173   20.7028  -33.3223 H   0  0  0  0  0  0  0  0  0  0  0  0
   -1.5501   18.6173  -34.5062 H   0  0  0  0  0  0  0  0  0  0  0  0
   -2.8002   15.6228  -34.2058 H   0  0  0  0  0  0  0  0  0  0  0  0
   -3.8843   16.0357  -35.5772 H   0  0  0  0  0  0  0  0  0  0  0  0
   -2.1801   16.6034  -35.5772 H   0  0  0  0  0  0  0  0  0  0  0  0
   -6.1512   19.0479  -32.6079 H   0  0  0  0  0  0  0  0  0  0  0  0
   -7.1227   23.6399  -29.9465 H   0  0  0  0  0  0  0  0  0  0  0  0
   -6.6916   24.8268  -31.2466 H   0  0  0  0  0  0  0  0  0  0  0  0
   -8.9389   24.2540  -31.6816 H   0  0  0  0  0  0  0  0  0  0  0  0
   -7.9278   23.2450  -32.8352 H   0  0  0  0  0  0  0  0  0  0  0  0
   -7.7853   20.5666  -30.8556 H   0  0  0  0  0  0  0  0  0  0  0  0
   -8.9905   20.4111  -32.2334 H   0  0  0  0  0  0  0  0  0  0  0  0
   -6.8603   20.2421  -33.2321 H   0  0  0  0  0  0  0  0  0  0  0  0
   -7.4566   21.9217  -33.5564 H   0  0  0  0  0  0  0  0  0  0  0  0
  1  2  1  0
  2  3  1  0
  3  4  1  0
  4  5  1  0
  3  6  1  0
  6  7  2  0
  6  8  1  0
  8  9  1  0
  9 10  2  0
 10 11  1  0
 11 12  2  0
 12 13  1  0
 13 14  2  0
 14 15  1  0
 14 16  1  0
 16 17  1  0
 16 18  2  0
 10 19  1  0
 19 20  1  0
 20 21  1  0
 21 22  1  0
 22 23  1  0
 23 24  1  0
 24 25  1  0
 20  8  2  0
 18 11  1  0
 25 19  1  0
  1 26  1  0
  1 27  1  0
  1 28  1  0
  2 29  1  0
  2 30  1  0
  4 31  1  0
  4 32  1  0
  5 33  1  0
  5 34  1  0
  5 35  1  0
  9 36  1  0
 12 37  1  0
 13 38  1  0
 15 39  1  0
 15 40  1  0
 15 41  1  0
 18 42  1  0
 21 43  1  0
 21 44  1  0
 22 45  1  0
 22 46  1  0
 24 47  1  0
 24 48  1  0
 25 49  1  0
 25 50  1  0
M  CHG  1   9   1
M  END
>  <UniqueID>  (33) 
31

>  <SMILES>  (33) 
CCN(CC)C(=O)c1[nH+]c(-c2ccc(C)c(Cl)c2)n2c1CCOCC2

>  <Energy>  (33) 
95.98297411775367

>  <Genealogy>  (33) 
CCN(CC)C(=O)c1[nH+]c(-c2ccc(C)c(Cl)c2)n2c1CCOCC2 (protonated)
CCN(CC)C(=O)c1[nH+]c(-c2ccc(C)c(Cl)c2)n2c1CCOCC2 (3D coordinates assigned)
CCN(CC)C(=O)c1[nH+]c(-c2ccc(C)c(Cl)c2)n2c1CCOCC2 (nonaromatic ring conformer: 95.98297411775367 kcal/mol)

>  <smiles>  (33) 
CCN(CC)C(=O)c1nc(-c2ccc(C)c(Cl)c2)n2c1CCOCC2

>  <score_type>  (33) 
oracle

>  <origin>  (33) 
adg

>  <m_score__min__energy>  (33) 
-6.1200000000000001

>  <m_primary>  (33) 
energy

$$$$
33:0
     RDKit          3D

 53 55  0  0  0  0  0  0  0  0999 V2000
   -0.6300   21.0430  -32.0690 C   0  0  0  0  0  0  0  0  0  0  0  0
   -1.8920   20.5610  -32.7750 C   0  0  0  0  0  0  0  0  0  0  0  0
   -2.8720   21.5980  -32.8260 O   0  0  0  0  0  0  0  0  0  0  0  0
   -4.2410   21.4530  -32.5370 C   0  0  0  0  0  0  0  0  0  0  0  0
   -5.0770   20.5900  -33.2730 C   0  0  0  0  0  0  0  0  0  0  0  0
   -6.4230   20.4440  -32.9270 C   0  0  0  0  0  0  0  0  0  0  0  0
   -6.9500   21.1470  -31.8420 C   0  0  0  0  0  0  0  0  0  0  0  0
   -8.6370   20.9520  -31.4050 Cl  0  0  0  0  0  0  0  0  0  0  0  0
   -6.1310   22.0060  -31.1050 C   0  0  0  0  0  0  0  0  0  0  0  0
   -4.7840   22.1760  -31.4570 C   0  0  0  0  0  0  0  0  0  0  0  0
   -3.9470   23.0970  -30.6680 C   0  0  0  0  0  0  0  0  0  0  0  0
   -2.7950   22.7470  -29.9960 C   0  0  0  0  0  0  0  0  0  0  0  0
   -2.3920   23.9200  -29.3780 C   0  0  0  0  0  0  0  0  0  0  0  0
   -1.1870   24.1150  -28.5520 C   0  0  0  0  0  0  0  0  0  0  0  0
   -0.0580   23.9370  -29.0830 O   0  0  0  0  0  0  0  0  0  0  0  0
   -1.2660   24.4960  -27.1650 N   0  0  0  0  0  0  0  0  0  0  0  0
   -0.2090   24.0480  -26.2450 C   0  0  0  0  0  0  0  0  0  0  0  0
   -0.6330   24.2310  -24.7830 C   0  0  0  0  0  0  0  0  0  0  0  0
   -1.0860   25.6810  -24.4620 C   0  0  0  0  0  0  0  0  0  0  0  0
    0.0190   26.4940  -23.7580 C   0  0  0  0  0  0  0  0  0  0  0  0
    1.2750   25.8850  -23.9030 O   0  0  0  0  0  0  0  0  0  0  0  0
   -1.6320   26.4360  -25.7000 C   0  0  0  0  0  0  0  0  0  0  0  0
   -2.2630   25.4780  -26.7110 C   0  0  0  0  0  0  0  0  0  0  0  0
   -3.2590   24.9110  -29.6690 N   0  0  0  0  0  0  0  0  0  0  0  0
   -4.1980   24.4080  -30.4550 N   0  0  0  0  0  0  0  0  0  0  0  0
   -5.3910   25.1570  -30.8470 C   0  0  0  0  0  0  0  0  0  0  0  0
   -6.3790   25.2180  -29.6880 C   0  0  0  0  0  0  0  0  0  0  0  0
   -0.7752   20.9876  -30.9800 H   0  0  0  0  0  0  0  0  0  0  0  0
    0.2184   20.4056  -32.3587 H   0  0  0  0  0  0  0  0  0  0  0  0
   -0.4225   22.0837  -32.3587 H   0  0  0  0  0  0  0  0  0  0  0  0
   -1.6371   20.2550  -33.8004 H   0  0  0  0  0  0  0  0  0  0  0  0
   -2.3071   19.7109  -32.2137 H   0  0  0  0  0  0  0  0  0  0  0  0
   -4.6676   20.0277  -34.1252 H   0  0  0  0  0  0  0  0  0  0  0  0
   -7.0695   19.7729  -33.5115 H   0  0  0  0  0  0  0  0  0  0  0  0
   -6.5447   22.5518  -30.2442 H   0  0  0  0  0  0  0  0  0  0  0  0
   -2.3073   21.7617  -29.9589 H   0  0  0  0  0  0  0  0  0  0  0  0
   -0.0015   22.9834  -26.4279 H   0  0  0  0  0  0  0  0  0  0  0  0
    0.6905   24.6548  -26.4256 H   0  0  0  0  0  0  0  0  0  0  0  0
   -1.4685   23.5474  -24.5717 H   0  0  0  0  0  0  0  0  0  0  0  0
    0.2436   24.0125  -24.1554 H   0  0  0  0  0  0  0  0  0  0  0  0
   -1.9257   25.5778  -23.7590 H   0  0  0  0  0  0  0  0  0  0  0  0
    0.0571   27.5016  -24.1977 H   0  0  0  0  0  0  0  0  0  0  0  0
   -0.2191   26.5446  -22.6853 H   0  0  0  0  0  0  0  0  0  0  0  0
    1.4190   25.3220  -23.1000 H   0  0  0  0  0  0  0  0  0  0  0  0
   -2.3928   27.1588  -25.3703 H   0  0  0  0  0  0  0  0  0  0  0  0
   -0.7902   26.9473  -26.1898 H   0  0  0  0  0  0  0  0  0  0  0  0
   -3.1040   24.9506  -26.2371 H   0  0  0  0  0  0  0  0  0  0  0  0
   -2.6231   26.0531  -27.5768 H   0  0  0  0  0  0  0  0  0  0  0  0
   -5.1010   26.1793  -31.1314 H   0  0  0  0  0  0  0  0  0  0  0  0
   -5.8684   24.6511  -31.6992 H   0  0  0  0  0  0  0  0  0  0  0  0
   -5.8296   25.1841  -28.7356 H   0  0  0  0  0  0  0  0  0  0  0  0
   -6.9549   26.1534  -29.7460 H   0  0  0  0  0  0  0  0  0  0  0  0
   -7.0656   24.3605  -29.7460 H   0  0  0  0  0  0  0  0  0  0  0  0
  1  2  1  0
  2  3  1  0
  3  4  1  0
  4  5  2  0
  5  6  1  0
  6  7  2  0
  7  8  1  0
  7  9  1  0
  9 10  2  0
 10 11  1  0
 11 12  2  0
 12 13  1  0
 13 14  1  0
 14 15  2  0
 14 16  1  0
 16 17  1  0
 17 18  1  0
 18 19  1  0
 19 20  1  0
 20 21  1  0
 19 22  1  0
 22 23  1  0
 13 24  2  0
 24 25  1  0
 25 26  1  0
 26 27  1  0
 10  4  1  0
 25 11  1  0
 23 16  1  0
  1 28  1  0
  1 29  1  0
  1 30  1  0
  2 31  1  0
  2 32  1  0
  5 33  1  0
  6 34  1  0
  9 35  1  0
 12 36  1  0
 17 37  1  0
 17 38  1  0
 18 39  1  0
 18 40  1  0
 19 41  1  0
 20 42  1  0
 20 43  1  0
 21 44  1  0
 22 45  1  0
 22 46  1  0
 23 47  1  0
 23 48  1  0
 26 49  1  0
 26 50  1  0
 27 51  1  0
 27 52  1  0
 27 53  1  0
M  END
>  <UniqueID>  (34) 
32

>  <SMILES>  (34) 
CCOc1ccc(Cl)cc1-c1cc(C(=O)N2CCC(CO)CC2)nn1CC

>  <Energy>  (34) 
87.48482951952059

>  <Genealogy>  (34) 
CCOc1ccc(Cl)cc1-c1cc(C(=O)N2CCC(CO)CC2)nn1CC (3D coordinates assigned)
CCOc1ccc(Cl)cc1-c1cc(C(=O)N2CCC(CO)CC2)nn1CC (nonaromatic ring conformer: 87.48482951952059 kcal/mol)

>  <smiles>  (34) 
CCOc1ccc(Cl)cc1-c1cc(C(=O)N2CCC(CO)CC2)nn1CC

>  <score_type>  (34) 
oracle

>  <origin>  (34) 
adg

>  <m_score__min__energy>  (34) 
-8.9000000000000004

>  <m_primary>  (34) 
energy

$$$$
34:0
     RDKit          3D

 40 41  0  0  0  0  0  0  0  0999 V2000
   -6.3110   25.3050  -29.6720 C   0  0  0  0  0  0  0  0  0  0  0  0
   -5.3370   25.6860  -30.7810 C   0  0  0  0  0  0  0  0  0  0  0  0
   -4.4620   24.5510  -31.0960 N   0  0  0  0  0  0  0  0  0  0  0  0
   -4.4410   23.6000  -29.9790 C   0  0  0  0  0  0  0  0  0  0  0  0
   -4.3600   22.1690  -30.5120 C   0  0  0  0  0  0  0  0  0  0  0  0
   -5.1170   22.0420  -31.7650 N   0  0  0  0  0  0  0  0  0  0  0  0
   -4.4240   21.6360  -32.9940 C   0  0  0  0  0  0  0  0  0  0  0  0
   -4.6790   20.1800  -33.2690 C   0  0  0  0  0  0  0  0  0  0  0  0
   -3.7230   19.2120  -32.9210 C   0  0  0  0  0  0  0  0  0  0  0  0
   -3.9840   17.8550  -33.1370 C   0  0  0  0  0  0  0  0  0  0  0  0
   -5.2040   17.4550  -33.6910 C   0  0  0  0  0  0  0  0  0  0  0  0
   -5.5610   15.6000  -33.9780 Br  0  0  0  0  0  0  0  0  0  0  0  0
   -6.1630   18.4130  -34.0320 C   0  0  0  0  0  0  0  0  0  0  0  0
   -5.9050   19.7710  -33.8190 C   0  0  0  0  0  0  0  0  0  0  0  0
   -6.5520   22.1660  -31.7660 C   0  0  0  0  0  0  0  0  0  0  0  0
   -7.3650   21.1370  -31.2670 C   0  0  0  0  0  0  0  0  0  0  0  0
   -8.7540   21.2780  -31.2810 C   0  0  0  0  0  0  0  0  0  0  0  0
   -9.3190   22.4470  -31.7910 C   0  0  0  0  0  0  0  0  0  0  0  0
   -8.5200   23.4370  -32.2700 N   0  0  0  0  0  0  0  0  0  0  0  0
   -7.1650   23.3240  -32.2710 C   0  0  0  0  0  0  0  0  0  0  0  0
   -5.8426   25.4882  -28.6937 H   0  0  0  0  0  0  0  0  0  0  0  0
   -7.2238   25.9124  -29.7610 H   0  0  0  0  0  0  0  0  0  0  0  0
   -6.5694   24.2395  -29.7610 H   0  0  0  0  0  0  0  0  0  0  0  0
   -5.9029   25.9697  -31.6806 H   0  0  0  0  0  0  0  0  0  0  0  0
   -4.7209   26.5326  -30.4438 H   0  0  0  0  0  0  0  0  0  0  0  0
   -3.4890   24.9210  -31.2180 H   0  0  0  0  0  0  0  0  0  0  0  0
   -3.5655   23.8025  -29.3446 H   0  0  0  0  0  0  0  0  0  0  0  0
   -5.3630   23.7143  -29.3900 H   0  0  0  0  0  0  0  0  0  0  0  0
   -3.3069   21.9111  -30.6978 H   0  0  0  0  0  0  0  0  0  0  0  0
   -4.7919   21.4866  -29.7651 H   0  0  0  0  0  0  0  0  0  0  0  0
   -4.7952   22.2368  -33.8373 H   0  0  0  0  0  0  0  0  0  0  0  0
   -3.3429   21.7968  -32.8698 H   0  0  0  0  0  0  0  0  0  0  0  0
   -2.7656   19.5221  -32.4770 H   0  0  0  0  0  0  0  0  0  0  0  0
   -3.2284   17.1013  -32.8707 H   0  0  0  0  0  0  0  0  0  0  0  0
   -7.1223   18.0983  -34.4687 H   0  0  0  0  0  0  0  0  0  0  0  0
   -6.6648   20.5213  -34.0831 H   0  0  0  0  0  0  0  0  0  0  0  0
   -6.9086   20.2203  -30.8653 H   0  0  0  0  0  0  0  0  0  0  0  0
   -9.3972   20.4743  -30.8932 H   0  0  0  0  0  0  0  0  0  0  0  0
  -10.4122   22.5679  -31.8056 H   0  0  0  0  0  0  0  0  0  0  0  0
   -6.5470   24.1424  -32.6687 H   0  0  0  0  0  0  0  0  0  0  0  0
  1  2  1  0
  2  3  1  0
  3  4  1  0
  4  5  1  0
  5  6  1  0
  6  7  1  0
  7  8  1  0
  8  9  2  0
  9 10  1  0
 10 11  2  0
 11 12  1  0
 11 13  1  0
 13 14  2  0
  6 15  1  0
 15 16  2  0
 16 17  1  0
 17 18  2  0
 18 19  1  0
 19 20  2  0
 14  8  1  0
 20 15  1  0
  1 21  1  0
  1 22  1  0
  1 23  1  0
  2 24  1  0
  2 25  1  0
  3 26  1  0
  4 27  1  0
  4 28  1  0
  5 29  1  0
  5 30  1  0
  7 31  1  0
  7 32  1  0
  9 33  1  0
 10 34  1  0
 13 35  1  0
 14 36  1  0
 16 37  1  0
 17 38  1  0
 18 39  1  0
 20 40  1  0
M  END
>  <UniqueID>  (35) 
33

>  <SMILES>  (35) 
CCNCCN(Cc1ccc(Br)cc1)c1cccnc1

>  <Energy>  (35) 
35.83528945420638

>  <Genealogy>  (35) 
CCNCCN(Cc1ccc(Br)cc1)c1cccnc1 (3D coordinates assigned)
CCNCCN(Cc1ccc(Br)cc1)c1cccnc1 (optimized conformer: 35.83528945420638 kcal/mol)

>  <smiles>  (35) 
CCNCCN(Cc1ccc(Br)cc1)c1cccnc1

>  <score_type>  (35) 
oracle

>  <origin>  (35) 
adg

>  <m_score__min__energy>  (35) 
-7.29

>  <m_primary>  (35) 
energy

$$$$
35:0
     RDKit          3D

 55 58  0  0  0  0  0  0  0  0999 V2000
    0.1150   19.4630  -32.7630 C   0  0  0  0  0  0  0  0  0  0  0  0
   -1.0770   19.4690  -31.9820 O   0  0  0  0  0  0  0  0  0  0  0  0
   -1.7780   20.6290  -31.6090 C   0  0  0  0  0  0  0  0  0  0  0  0
   -3.0360   20.9480  -32.1520 C   0  0  0  0  0  0  0  0  0  0  0  0
   -3.7010   22.1150  -31.7600 C   0  0  0  0  0  0  0  0  0  0  0  0
   -4.9110   22.4120  -32.2860 N   0  0  0  0  0  0  0  0  0  0  0  0
   -5.5960   23.5310  -31.9320 C   0  0  0  0  0  0  0  0  0  0  0  0
   -6.9270   23.7810  -32.6110 C   0  0  0  0  0  0  0  0  0  0  0  0
   -8.0420   23.6640  -31.6430 N   0  0  0  0  0  0  0  0  0  0  0  0
   -7.6070   23.0290  -30.3790 C   0  0  0  0  0  0  0  0  0  0  0  0
   -7.1800   21.5650  -30.5960 C   0  0  0  0  0  0  0  0  0  0  0  0
   -8.0150   20.9320  -31.6230 N   0  0  0  0  0  0  0  0  0  0  0  0
   -7.4930   19.8490  -32.4170 C   0  0  0  0  0  0  0  0  0  0  0  0
   -6.6250   20.1060  -33.4950 C   0  0  0  0  0  0  0  0  0  0  0  0
   -6.1030   19.0520  -34.2500 C   0  0  0  0  0  0  0  0  0  0  0  0
   -6.4350   17.7330  -33.9330 C   0  0  0  0  0  0  0  0  0  0  0  0
   -7.2840   17.4660  -32.8540 C   0  0  0  0  0  0  0  0  0  0  0  0
   -7.8090   18.5170  -32.0980 C   0  0  0  0  0  0  0  0  0  0  0  0
   -9.3440   21.4970  -31.8760 C   0  0  0  0  0  0  0  0  0  0  0  0
   -9.2320   22.9920  -32.2340 C   0  0  0  0  0  0  0  0  0  0  0  0
   -5.0360   24.4280  -31.0460 N   0  0  0  0  0  0  0  0  0  0  0  0
   -5.7470   25.6740  -30.7000 C   0  0  0  0  0  0  0  0  0  0  0  0
   -3.8210   24.1440  -30.4650 C   0  0  0  0  0  0  0  0  0  0  0  0
   -3.3220   24.9310  -29.6140 O   0  0  0  0  0  0  0  0  0  0  0  0
   -3.1200   22.9760  -30.8190 C   0  0  0  0  0  0  0  0  0  0  0  0
   -1.8650   22.6580  -30.2690 C   0  0  0  0  0  0  0  0  0  0  0  0
   -1.1890   21.4860  -30.6640 C   0  0  0  0  0  0  0  0  0  0  0  0
    0.0680   21.1390  -30.1470 O   0  0  0  0  0  0  0  0  0  0  0  0
    0.2850   20.1490  -29.1460 C   0  0  0  0  0  0  0  0  0  0  0  0
    0.9901   19.4586  -32.0965 H   0  0  0  0  0  0  0  0  0  0  0  0
    0.1330   18.5648  -33.3977 H   0  0  0  0  0  0  0  0  0  0  0  0
    0.1420   20.3610  -33.3977 H   0  0  0  0  0  0  0  0  0  0  0  0
   -3.4996   20.2759  -32.8892 H   0  0  0  0  0  0  0  0  0  0  0  0
   -6.9278   24.7934  -33.0412 H   0  0  0  0  0  0  0  0  0  0  0  0
   -7.0662   23.0287  -33.4014 H   0  0  0  0  0  0  0  0  0  0  0  0
   -6.7547   23.5925  -29.9715 H   0  0  0  0  0  0  0  0  0  0  0  0
   -8.4559   23.0391  -29.6796 H   0  0  0  0  0  0  0  0  0  0  0  0
   -6.1285   21.5387  -30.9179 H   0  0  0  0  0  0  0  0  0  0  0  0
   -7.3016   21.0156  -29.6508 H   0  0  0  0  0  0  0  0  0  0  0  0
   -6.3559   21.1429  -33.7447 H   0  0  0  0  0  0  0  0  0  0  0  0
   -5.4301   19.2615  -35.0946 H   0  0  0  0  0  0  0  0  0  0  0  0
   -6.0289   16.9044  -34.5317 H   0  0  0  0  0  0  0  0  0  0  0  0
   -7.5388   16.4265  -32.6002 H   0  0  0  0  0  0  0  0  0  0  0  0
   -8.4734   18.3009  -31.2483 H   0  0  0  0  0  0  0  0  0  0  0  0
   -9.8140   20.9582  -32.7119 H   0  0  0  0  0  0  0  0  0  0  0  0
   -9.9556   21.3920  -30.9677 H   0  0  0  0  0  0  0  0  0  0  0  0
   -9.1737   23.0830  -33.3287 H   0  0  0  0  0  0  0  0  0  0  0  0
  -10.1204   23.4887  -31.8169 H   0  0  0  0  0  0  0  0  0  0  0  0
   -5.8031   25.7724  -29.6058 H   0  0  0  0  0  0  0  0  0  0  0  0
   -5.2038   26.5343  -31.1181 H   0  0  0  0  0  0  0  0  0  0  0  0
   -6.7640   25.6441  -31.1181 H   0  0  0  0  0  0  0  0  0  0  0  0
   -1.4083   23.3282  -29.5259 H   0  0  0  0  0  0  0  0  0  0  0  0
    0.1848   20.6060  -28.1505 H   0  0  0  0  0  0  0  0  0  0  0  0
   -0.4584   19.3459  -29.2573 H   0  0  0  0  0  0  0  0  0  0  0  0
    1.2962   19.7305  -29.2573 H   0  0  0  0  0  0  0  0  0  0  0  0
  1  2  1  0
  2  3  1  0
  3  4  2  0
  4  5  1  0
  5  6  1  0
  6  7  2  0
  7  8  1  0
  8  9  1  0
  9 10  1  0
 10 11  1  0
 11 12  1  0
 12 13  1  0
 13 14  2  0
 14 15  1  0
 15 16  2  0
 16 17  1  0
 17 18  2  0
 12 19  1  0
 19 20  1  0
  7 21  1  0
 21 22  1  0
 21 23  1  0
 23 24  2  0
 23 25  1  0
 25 26  1  0
 26 27  2  0
 27 28  1  0
 28 29  1  0
 27  3  1  0
 25  5  2  0
 20  9  1  0
 18 13  1  0
  1 30  1  0
  1 31  1  0
  1 32  1  0
  4 33  1  0
  8 34  1  0
  8 35  1  0
 10 36  1  0
 10 37  1  0
 11 38  1  0
 11 39  1  0
 14 40  1  0
 15 41  1  0
 16 42  1  0
 17 43  1  0
 18 44  1  0
 19 45  1  0
 19 46  1  0
 20 47  1  0
 20 48  1  0
 22 49  1  0
 22 50  1  0
 22 51  1  0
 26 52  1  0
 29 53  1  0
 29 54  1  0
 29 55  1  0
M  END
>  <UniqueID>  (36) 
34

>  <SMILES>  (36) 
COc1cc2nc(CN3CCN(c4ccccc4)CC3)n(C)c(=O)c2cc1OC

>  <Energy>  (36) 
78.25785456537638

>  <Genealogy>  (36) 
COc1cc2nc(CN3CCN(c4ccccc4)CC3)n(C)c(=O)c2cc1OC (3D coordinates assigned)
COc1cc2nc(CN3CCN(c4ccccc4)CC3)n(C)c(=O)c2cc1OC (nonaromatic ring conformer: 78.25785456537638 kcal/mol)

>  <smiles>  (36) 
COc1cc2nc(CN3CCN(c4ccccc4)CC3)n(C)c(=O)c2cc1OC

>  <score_type>  (36) 
oracle

>  <origin>  (36) 
adg

>  <m_score__min__energy>  (36) 
-8.2200000000000006

>  <m_primary>  (36) 
energy

$$$$
36:0
     RDKit          3D

 40 40  0  0  0  0  0  0  0  0999 V2000
   -0.8040   26.5090  -26.7400 C   0  0  0  0  0  0  0  0  0  0  0  0
   -0.8860   25.7570  -28.0660 C   0  0  0  0  0  0  0  0  0  0  0  0
   -2.2160   25.1160  -28.2090 N   0  0  0  0  0  0  0  0  0  0  0  0
   -2.6800   24.5500  -26.9200 C   0  0  0  0  0  0  0  0  0  0  0  0
   -4.1490   24.9030  -26.6810 C   0  0  0  0  0  0  0  0  0  0  0  0
   -2.2180   24.0980  -29.2920 C   0  0  0  0  0  0  0  0  0  0  0  0
   -3.5940   24.0520  -29.9530 C   0  0  0  0  0  0  0  0  0  0  0  0
   -3.8800   25.2950  -30.5650 O   0  0  0  0  0  0  0  0  0  0  0  0
   -5.2740   25.4390  -30.7720 C   0  0  0  0  0  0  0  0  0  0  0  0
   -6.0310   24.2820  -30.1200 C   0  0  0  0  0  0  0  0  0  0  0  0
   -6.8910   23.6770  -31.0870 O   0  0  0  0  0  0  0  0  0  0  0  0
   -6.5940   22.5190  -31.8210 C   0  0  0  0  0  0  0  0  0  0  0  0
   -5.2970   22.2430  -32.3060 C   0  0  0  0  0  0  0  0  0  0  0  0
   -5.0400   21.0380  -32.9730 C   0  0  0  0  0  0  0  0  0  0  0  0
   -6.0640   20.1190  -33.1930 C   0  0  0  0  0  0  0  0  0  0  0  0
   -5.7100   18.4830  -34.1180 Br  0  0  0  0  0  0  0  0  0  0  0  0
   -7.3530   20.3920  -32.7290 C   0  0  0  0  0  0  0  0  0  0  0  0
   -7.6170   21.5780  -32.0350 C   0  0  0  0  0  0  0  0  0  0  0  0
   -9.2480   21.8880  -31.4530 Cl  0  0  0  0  0  0  0  0  0  0  0  0
   -0.8820   25.7941  -25.9076 H   0  0  0  0  0  0  0  0  0  0  0  0
    0.1574   27.0400  -26.6785 H   0  0  0  0  0  0  0  0  0  0  0  0
   -1.6283   27.2347  -26.6785 H   0  0  0  0  0  0  0  0  0  0  0  0
   -0.7321   26.4637  -28.8948 H   0  0  0  0  0  0  0  0  0  0  0  0
   -0.1083   24.9794  -28.0867 H   0  0  0  0  0  0  0  0  0  0  0  0
   -2.5693   23.4558  -26.9437 H   0  0  0  0  0  0  0  0  0  0  0  0
   -2.0740   24.9735  -26.1054 H   0  0  0  0  0  0  0  0  0  0  0  0
   -4.3436   24.9498  -25.5994 H   0  0  0  0  0  0  0  0  0  0  0  0
   -4.3701   25.8798  -27.1359 H   0  0  0  0  0  0  0  0  0  0  0  0
   -4.7898   24.1333  -27.1359 H   0  0  0  0  0  0  0  0  0  0  0  0
   -1.4599   24.3626  -30.0438 H   0  0  0  0  0  0  0  0  0  0  0  0
   -1.9861   23.1113  -28.8647 H   0  0  0  0  0  0  0  0  0  0  0  0
   -3.6051   23.2596  -30.7158 H   0  0  0  0  0  0  0  0  0  0  0  0
   -4.3553   23.8438  -29.1867 H   0  0  0  0  0  0  0  0  0  0  0  0
   -5.6103   26.3879  -30.3287 H   0  0  0  0  0  0  0  0  0  0  0  0
   -5.4769   25.4344  -31.8531 H   0  0  0  0  0  0  0  0  0  0  0  0
   -5.3131   23.5359  -29.7486 H   0  0  0  0  0  0  0  0  0  0  0  0
   -6.6304   24.6608  -29.2790 H   0  0  0  0  0  0  0  0  0  0  0  0
   -4.4882   22.9742  -32.1601 H   0  0  0  0  0  0  0  0  0  0  0  0
   -4.0221   20.8157  -33.3257 H   0  0  0  0  0  0  0  0  0  0  0  0
   -8.1641   19.6714  -32.9100 H   0  0  0  0  0  0  0  0  0  0  0  0
  1  2  1  0
  2  3  1  0
  3  4  1  0
  4  5  1  0
  3  6  1  0
  6  7  1  0
  7  8  1  0
  8  9  1  0
  9 10  1  0
 10 11  1  0
 11 12  1  0
 12 13  2  0
 13 14  1  0
 14 15  2  0
 15 16  1  0
 15 17  1  0
 17 18  2  0
 18 19  1  0
 18 12  1  0
  1 20  1  0
  1 21  1  0
  1 22  1  0
  2 23  1  0
  2 24  1  0
  4 25  1  0
  4 26  1  0
  5 27  1  0
  5 28  1  0
  5 29  1  0
  6 30  1  0
  6 31  1  0
  7 32  1  0
  7 33  1  0
  9 34  1  0
  9 35  1  0
 10 36  1  0
 10 37  1  0
 13 38  1  0
 14 39  1  0
 17 40  1  0
M  END
>  <UniqueID>  (37) 
35

>  <SMILES>  (37) 
CCN(CC)CCOCCOc1ccc(Br)cc1Cl

>  <Energy>  (37) 
35.24671548226142

>  <Genealogy>  (37) 
CCN(CC)CCOCCOc1ccc(Br)cc1Cl (3D coordinates assigned)
CCN(CC)CCOCCOc1ccc(Br)cc1Cl (optimized conformer: 35.24671548226142 kcal/mol)

>  <smiles>  (37) 
CCN(CC)CCOCCOc1ccc(Br)cc1Cl

>  <score_type>  (37) 
oracle

>  <origin>  (37) 
adg

>  <m_score__min__energy>  (37) 
-6.9299999999999997

>  <m_primary>  (37) 
energy

$$$$
