0:0
     RDKit          3D

 23 23  0  0  0  0  0  0  0  0999 V2000
   -8.3410   22.0260  -29.7860 F   0  0  0  0  0  0  0  0  0  0  0  0
   -7.9810   22.2870  -31.0950 C   0  0  0  0  0  0  0  0  0  0  0  0
   -7.3540   21.1660  -31.6120 F   0  0  0  0  0  0  0  0  0  0  0  0
   -9.1250   22.5430  -31.8270 F   0  0  0  0  0  0  0  0  0  0  0  0
   -7.0220   23.4900  -31.1270 C   0  0  0  0  0  0  0  0  0  0  0  0
   -6.4810   23.8290  -29.7800 N   0  0  0  0  0  0  0  0  0  0  0  0
   -5.1600   23.1860  -29.5160 C   0  0  0  0  0  0  0  0  0  0  0  0
   -3.9670   24.1620  -29.6030 C   0  0  0  0  0  0  0  0  0  0  0  0
   -4.1580   25.1430  -30.6750 N   0  0  0  0  0  0  0  0  0  0  0  0
   -5.3630   25.9670  -30.4710 C   0  0  0  0  0  0  0  0  0  0  0  0
   -6.4270   25.2940  -29.5750 C   0  0  0  0  0  0  0  0  0  0  0  0
   -6.1808   23.2521  -31.7946 H   0  0  0  0  0  0  0  0  0  0  0  0
   -7.5916   24.3601  -31.4855 H   0  0  0  0  0  0  0  0  0  0  0  0
   -7.1530   23.4710  -29.0590 H   0  0  0  0  0  0  0  0  0  0  0  0
   -5.1807   22.7519  -28.5055 H   0  0  0  0  0  0  0  0  0  0  0  0
   -5.0108   22.4252  -30.2963 H   0  0  0  0  0  0  0  0  0  0  0  0
   -3.8681   24.6931  -28.6448 H   0  0  0  0  0  0  0  0  0  0  0  0
   -3.0588   23.5812  -29.8219 H   0  0  0  0  0  0  0  0  0  0  0  0
   -4.2350   24.6320  -31.5860 H   0  0  0  0  0  0  0  0  0  0  0  0
   -5.0611   26.9145  -30.0008 H   0  0  0  0  0  0  0  0  0  0  0  0
   -5.8218   26.1185  -31.4592 H   0  0  0  0  0  0  0  0  0  0  0  0
   -6.1830   25.4961  -28.5216 H   0  0  0  0  0  0  0  0  0  0  0  0
   -7.4090   25.7103  -29.8439 H   0  0  0  0  0  0  0  0  0  0  0  0
  1  2  1  0
  2  3  1  0
  2  4  1  0
  2  5  1  0
  5  6  1  0
  6  7  1  0
  7  8  1  0
  8  9  1  0
  9 10  1  0
 10 11  1  0
 11  6  1  0
  5 12  1  0
  5 13  1  0
  6 14  1  0
  7 15  1  0
  7 16  1  0
  8 17  1  0
  8 18  1  0
  9 19  1  0
 10 20  1  0
 10 21  1  0
 11 22  1  0
 11 23  1  0
M  CHG  1   6   1
M  END
>  <UniqueID>  (1) 
1

>  <SMILES>  (1) 
FC(F)(F)C[NH+]1CCNCC1

>  <Energy>  (1) 
31.588912045225435

>  <Genealogy>  (1) 
FC(F)(F)C[NH+]1CCNCC1 (protonated)
FC(F)(F)C[NH+]1CCNCC1 (3D coordinates assigned)
FC(F)(F)C[NH+]1CCNCC1 (nonaromatic ring conformer: 31.588912045225435 kcal/mol)

>  <smiles>  (1) 
FC(F)(F)CN1CCNCC1

>  <score_type>  (1) 
oracle

>  <origin>  (1) 
adg

>  <m_score__min__energy>  (1) 
-3.27

>  <m_primary>  (1) 
energy

$$$$
1:0
     RDKit          3D

 53 56  0  0  0  0  0  0  0  0999 V2000
   -3.9920   23.8810  -28.0850 C   0  0  0  0  0  0  0  0  0  0  0  0
   -4.0930   24.4070  -29.4560 N   0  0  0  0  0  0  0  0  0  0  0  0
   -3.6290   23.4120  -30.4540 C   0  0  0  0  0  0  0  0  0  0  0  0
   -4.7940   22.7300  -31.1820 C   0  0  0  0  0  0  0  0  0  0  0  0
   -5.6240   23.7150  -31.9150 N   0  0  0  0  0  0  0  0  0  0  0  0
   -6.9430   23.1340  -32.2440 C   0  0  0  0  0  0  0  0  0  0  0  0
   -7.1830   21.8430  -31.4420 C   0  0  0  0  0  0  0  0  0  0  0  0
   -8.0340   20.8820  -32.1830 N   0  0  0  0  0  0  0  0  0  0  0  0
   -8.5190   19.7690  -31.3200 C   0  0  0  0  0  0  0  0  0  0  0  0
   -7.8480   18.4060  -31.6000 C   0  0  0  0  0  0  0  0  0  0  0  0
   -6.3700   18.5900  -31.9670 C   0  0  0  0  0  0  0  0  0  0  0  0
   -5.6940   17.2620  -32.1720 C   0  0  0  0  0  0  0  0  0  0  0  0
   -5.6240   16.2890  -31.2270 N   0  0  0  0  0  0  0  0  0  0  0  0
   -4.9670   15.2990  -31.8480 C   0  0  0  0  0  0  0  0  0  0  0  0
   -4.6220   14.0410  -31.3600 C   0  0  0  0  0  0  0  0  0  0  0  0
   -3.9360   13.1710  -32.2300 C   0  0  0  0  0  0  0  0  0  0  0  0
   -3.6200   13.5780  -33.5480 C   0  0  0  0  0  0  0  0  0  0  0  0
   -3.9860   14.8590  -34.0060 C   0  0  0  0  0  0  0  0  0  0  0  0
   -4.6640   15.6900  -33.1190 C   0  0  0  0  0  0  0  0  0  0  0  0
   -5.1180   16.9050  -33.3100 O   0  0  0  0  0  0  0  0  0  0  0  0
   -6.2090   19.4900  -33.2140 C   0  0  0  0  0  0  0  0  0  0  0  0
   -7.4300   20.4020  -33.4460 C   0  0  0  0  0  0  0  0  0  0  0  0
   -5.7390   25.0240  -31.2190 C   0  0  0  0  0  0  0  0  0  0  0  0
   -5.4600   24.9140  -29.7130 C   0  0  0  0  0  0  0  0  0  0  0  0
   -4.1490   24.6986  -27.3661 H   0  0  0  0  0  0  0  0  0  0  0  0
   -4.7578   23.1063  -27.9322 H   0  0  0  0  0  0  0  0  0  0  0  0
   -2.9937   23.4450  -27.9322 H   0  0  0  0  0  0  0  0  0  0  0  0
   -2.9988   23.9234  -31.1965 H   0  0  0  0  0  0  0  0  0  0  0  0
   -3.0666   22.6341  -29.9168 H   0  0  0  0  0  0  0  0  0  0  0  0
   -4.3900   21.9991  -31.8979 H   0  0  0  0  0  0  0  0  0  0  0  0
   -5.4274   22.2329  -30.4325 H   0  0  0  0  0  0  0  0  0  0  0  0
   -7.7299   23.8627  -31.9995 H   0  0  0  0  0  0  0  0  0  0  0  0
   -6.9662   22.8936  -33.3172 H   0  0  0  0  0  0  0  0  0  0  0  0
   -6.2126   21.3697  -31.2313 H   0  0  0  0  0  0  0  0  0  0  0  0
   -7.7036   22.1119  -30.5111 H   0  0  0  0  0  0  0  0  0  0  0  0
   -8.3267   20.0381  -30.2709 H   0  0  0  0  0  0  0  0  0  0  0  0
   -9.5892   19.6436  -31.5411 H   0  0  0  0  0  0  0  0  0  0  0  0
   -7.9203   17.7771  -30.7004 H   0  0  0  0  0  0  0  0  0  0  0  0
   -8.3636   17.9269  -32.4454 H   0  0  0  0  0  0  0  0  0  0  0  0
   -5.8779   19.0950  -31.1227 H   0  0  0  0  0  0  0  0  0  0  0  0
   -6.0020   16.2990  -30.2530 H   0  0  0  0  0  0  0  0  0  0  0  0
   -4.8757   13.7381  -30.3334 H   0  0  0  0  0  0  0  0  0  0  0  0
   -3.6441   12.1689  -31.8827 H   0  0  0  0  0  0  0  0  0  0  0  0
   -3.0852   12.8898  -34.2191 H   0  0  0  0  0  0  0  0  0  0  0  0
   -3.7448   15.1902  -35.0269 H   0  0  0  0  0  0  0  0  0  0  0  0
   -5.3178   20.1209  -33.0809 H   0  0  0  0  0  0  0  0  0  0  0  0
   -6.1120   18.8323  -34.0904 H   0  0  0  0  0  0  0  0  0  0  0  0
   -7.1109   21.2734  -34.0367 H   0  0  0  0  0  0  0  0  0  0  0  0
   -8.1916   19.8089  -33.9735 H   0  0  0  0  0  0  0  0  0  0  0  0
   -5.0154   25.7241  -31.6619 H   0  0  0  0  0  0  0  0  0  0  0  0
   -6.7725   25.3796  -31.3430 H   0  0  0  0  0  0  0  0  0  0  0  0
   -5.5655   25.9086  -29.2552 H   0  0  0  0  0  0  0  0  0  0  0  0
   -6.1809   24.2070  -29.2766 H   0  0  0  0  0  0  0  0  0  0  0  0
  1  2  1  0
  2  3  1  0
  3  4  1  0
  4  5  1  0
  5  6  1  0
  6  7  1  0
  7  8  1  0
  8  9  1  0
  9 10  1  0
 10 11  1  0
 11 12  1  0
 12 13  2  0
 13 14  1  0
 14 15  2  0
 15 16  1  0
 16 17  2  0
 17 18  1  0
 18 19  2  0
 19 20  1  0
 11 21  1  0
 21 22  1  0
  5 23  1  0
 23 24  1  0
 24  2  1  0
 22  8  1  0
 20 12  1  0
 19 14  1  0
  1 25  1  0
  1 26  1  0
  1 27  1  0
  3 28  1  0
  3 29  1  0
  4 30  1  0
  4 31  1  0
  6 32  1  0
  6 33  1  0
  7 34  1  0
  7 35  1  0
  9 36  1  0
  9 37  1  0
 10 38  1  0
 10 39  1  0
 11 40  1  0
 13 41  1  0
 15 42  1  0
 16 43  1  0
 17 44  1  0
 18 45  1  0
 21 46  1  0
 21 47  1  0
 22 48  1  0
 22 49  1  0
 23 50  1  0
 23 51  1  0
 24 52  1  0
 24 53  1  0
M  CHG  1  13   1
M  END
>  <UniqueID>  (2) 
2

>  <SMILES>  (2) 
CN1CCN(CCN2CCC(c3[nH+]c4ccccc4o3)CC2)CC1

>  <Energy>  (2) 
114.80360373151241

>  <Genealogy>  (2) 
CN1CCN(CCN2CCC(c3[nH+]c4ccccc4o3)CC2)CC1 (protonated)
CN1CCN(CCN2CCC(c3[nH+]c4ccccc4o3)CC2)CC1 (3D coordinates assigned)
CN1CCN(CCN2CCC(c3[nH+]c4ccccc4o3)CC2)CC1 (nonaromatic ring conformer: 114.80360373151241 kcal/mol)

>  <smiles>  (2) 
CN1CCN(CCN2CCC(c3nc4ccccc4o3)CC2)CC1

>  <score_type>  (2) 
oracle

>  <origin>  (2) 
adg

>  <m_score__min__energy>  (2) 
-8.0399999999999991

>  <m_primary>  (2) 
energy

$$$$
2:0
     RDKit          3D

 54 56  0  0  0  0  0  0  0  0999 V2000
   -6.6700   25.6370  -29.3410 C   0  0  0  0  0  0  0  0  0  0  0  0
   -5.6830   25.5750  -30.5060 C   0  0  0  0  0  0  0  0  0  0  0  0
   -5.1100   24.1660  -30.7230 C   0  0  0  0  0  0  0  0  0  0  0  0
   -3.5830   24.1250  -30.5940 C   0  0  0  0  0  0  0  0  0  0  0  0
   -3.1490   24.9350  -29.4580 N   0  0  0  0  0  0  0  0  0  0  0  0
   -1.8300   24.9560  -28.8950 C   0  0  0  0  0  0  0  0  0  0  0  0
   -1.0800   25.9270  -29.1790 O   0  0  0  0  0  0  0  0  0  0  0  0
   -1.3590   23.8950  -27.9140 C   0  0  0  0  0  0  0  0  0  0  0  0
   -0.0920   23.1730  -28.4360 C   0  0  0  0  0  0  0  0  0  0  0  0
   -0.3960   21.8420  -29.1470 C   0  0  0  0  0  0  0  0  0  0  0  0
   -1.7460   21.8780  -29.7360 N   0  0  0  0  0  0  0  0  0  0  0  0
   -1.9640   20.8240  -30.7480 C   0  0  0  0  0  0  0  0  0  0  0  0
   -3.2270   21.0120  -31.5430 C   0  0  0  0  0  0  0  0  0  0  0  0
   -4.4550   20.6970  -31.0930 N   0  0  0  0  0  0  0  0  0  0  0  0
   -5.2250   21.0240  -32.1540 C   0  0  0  0  0  0  0  0  0  0  0  0
   -6.7020   20.8680  -32.1960 C   0  0  0  0  0  0  0  0  0  0  0  0
   -7.5160   21.9430  -31.7900 C   0  0  0  0  0  0  0  0  0  0  0  0
   -8.9070   21.8340  -31.8130 C   0  0  0  0  0  0  0  0  0  0  0  0
   -9.5080   20.6530  -32.2430 C   0  0  0  0  0  0  0  0  0  0  0  0
   -8.7210   19.5750  -32.6520 C   0  0  0  0  0  0  0  0  0  0  0  0
   -7.3130   19.6670  -32.6360 C   0  0  0  0  0  0  0  0  0  0  0  0
   -6.5090   18.5930  -33.0530 O   0  0  0  0  0  0  0  0  0  0  0  0
   -5.8570   18.5080  -34.3160 C   0  0  0  0  0  0  0  0  0  0  0  0
   -4.4960   21.5110  -33.1780 N   0  0  0  0  0  0  0  0  0  0  0  0
   -3.2670   21.4860  -32.7620 O   0  0  0  0  0  0  0  0  0  0  0  0
   -2.7920   21.8880  -28.6900 C   0  0  0  0  0  0  0  0  0  0  0  0
   -2.4750   22.8880  -27.5540 C   0  0  0  0  0  0  0  0  0  0  0  0
   -6.1177   25.6023  -28.3903 H   0  0  0  0  0  0  0  0  0  0  0  0
   -7.2451   26.5730  -29.3970 H   0  0  0  0  0  0  0  0  0  0  0  0
   -7.3577   24.7803  -29.3970 H   0  0  0  0  0  0  0  0  0  0  0  0
   -6.2016   25.8892  -31.4238 H   0  0  0  0  0  0  0  0  0  0  0  0
   -4.8423   26.2422  -30.2652 H   0  0  0  0  0  0  0  0  0  0  0  0
   -5.5453   23.4892  -29.9731 H   0  0  0  0  0  0  0  0  0  0  0  0
   -5.3666   23.8557  -31.7466 H   0  0  0  0  0  0  0  0  0  0  0  0
   -3.2592   23.0846  -30.4428 H   0  0  0  0  0  0  0  0  0  0  0  0
   -3.1348   24.5288  -31.5138 H   0  0  0  0  0  0  0  0  0  0  0  0
   -1.0932   24.4163  -26.9826 H   0  0  0  0  0  0  0  0  0  0  0  0
    0.4209   23.8384  -29.1461 H   0  0  0  0  0  0  0  0  0  0  0  0
    0.5319   22.9386  -27.5609 H   0  0  0  0  0  0  0  0  0  0  0  0
    0.3442   21.6782  -29.9441 H   0  0  0  0  0  0  0  0  0  0  0  0
   -0.3452   21.0232  -28.4142 H   0  0  0  0  0  0  0  0  0  0  0  0
   -1.1111   20.8257  -31.4427 H   0  0  0  0  0  0  0  0  0  0  0  0
   -2.0586   19.8701  -30.2085 H   0  0  0  0  0  0  0  0  0  0  0  0
   -7.0498   22.8798  -31.4507 H   0  0  0  0  0  0  0  0  0  0  0  0
   -9.5298   22.6817  -31.4912 H   0  0  0  0  0  0  0  0  0  0  0  0
  -10.6047   20.5698  -32.2603 H   0  0  0  0  0  0  0  0  0  0  0  0
   -9.2027   18.6456  -32.9898 H   0  0  0  0  0  0  0  0  0  0  0  0
   -4.7769   18.3672  -34.1623 H   0  0  0  0  0  0  0  0  0  0  0  0
   -6.2613   17.6550  -34.8807 H   0  0  0  0  0  0  0  0  0  0  0  0
   -6.0291   19.4362  -34.8807 H   0  0  0  0  0  0  0  0  0  0  0  0
   -3.7507   22.1682  -29.1509 H   0  0  0  0  0  0  0  0  0  0  0  0
   -2.8376   20.8811  -28.2495 H   0  0  0  0  0  0  0  0  0  0  0  0
   -3.3904   23.4514  -27.3203 H   0  0  0  0  0  0  0  0  0  0  0  0
   -2.1168   22.3005  -26.6958 H   0  0  0  0  0  0  0  0  0  0  0  0
  1  2  1  0
  2  3  1  0
  3  4  1  0
  4  5  1  0
  5  6  1  0
  6  7  2  0
  6  8  1  0
  8  9  1  0
  9 10  1  0
 10 11  1  0
 11 12  1  0
 12 13  1  0
 13 14  2  0
 14 15  1  0
 15 16  1  0
 16 17  2  0
 17 18  1  0
 18 19  2  0
 19 20  1  0
 20 21  2  0
 21 22  1  0
 22 23  1  0
 15 24  2  0
 24 25  1  0
 11 26  1  0
 26 27  1  0
 27  8  1  0
 25 13  1  0
 21 16  1  0
  1 28  1  0
  1 29  1  0
  1 30  1  0
  2 31  1  0
  2 32  1  0
  3 33  1  0
  3 34  1  0
  4 35  1  0
  4 36  1  0
  8 37  1  0
  9 38  1  0
  9 39  1  0
 10 40  1  0
 10 41  1  0
 12 42  1  0
 12 43  1  0
 17 44  1  0
 18 45  1  0
 19 46  1  0
 20 47  1  0
 23 48  1  0
 23 49  1  0
 23 50  1  0
 26 51  1  0
 26 52  1  0
 27 53  1  0
 27 54  1  0
M  CHG  1   5  -1
M  END
>  <UniqueID>  (3) 
3

>  <SMILES>  (3) 
CCCC[N-]C(=O)C1CCN(Cc2nc(-c3ccccc3OC)no2)CC1

>  <Energy>  (3) 
91.0519538795331

>  <Genealogy>  (3) 
CCCC[N-]C(=O)C1CCN(Cc2nc(-c3ccccc3OC)no2)CC1 (protonated)
CCCC[N-]C(=O)C1CCN(Cc2nc(-c3ccccc3OC)no2)CC1 (3D coordinates assigned)
CCCC[N-]C(=O)C1CCN(Cc2nc(-c3ccccc3OC)no2)CC1 (nonaromatic ring conformer: 91.0519538795331 kcal/mol)

>  <smiles>  (3) 
CCCCNC(=O)C1CCN(Cc2nc(-c3ccccc3OC)no2)CC1

>  <score_type>  (3) 
oracle

>  <origin>  (3) 
adg

>  <m_score__min__energy>  (3) 
-10.06

>  <m_primary>  (3) 
energy

$$$$
3:0
     RDKit          3D

 26 26  0  0  0  0  0  0  0  0999 V2000
   -3.2510   25.6480  -31.5920 H   0  0  0  0  0  0  0  0  0  0  0  0
   -3.8320   25.4000  -30.8020 O   0  0  0  0  0  0  0  0  0  0  0  0
   -4.6460   24.2920  -30.8690 N   0  0  0  0  0  0  0  0  0  0  0  0
   -5.7520   24.2700  -31.5520 C   0  0  0  0  0  0  0  0  0  0  0  0
   -6.1412   25.2206  -31.9456 H   0  0  0  0  0  0  0  0  0  0  0  0
   -6.5140   23.0320  -31.8270 C   0  0  0  0  0  0  0  0  0  0  0  0
   -7.8560   22.9610  -31.4480 C   0  0  0  0  0  0  0  0  0  0  0  0
   -8.3343   23.8226  -30.9592 H   0  0  0  0  0  0  0  0  0  0  0  0
   -8.5900   21.8030  -31.6870 C   0  0  0  0  0  0  0  0  0  0  0  0
   -9.6518   21.7557  -31.4035 H   0  0  0  0  0  0  0  0  0  0  0  0
   -7.9730   20.6940  -32.2910 C   0  0  0  0  0  0  0  0  0  0  0  0
   -8.6940   19.5180  -32.5650 O   0  0  0  0  0  0  0  0  0  0  0  0
   -9.0520   18.5400  -31.5940 C   0  0  0  0  0  0  0  0  0  0  0  0
   -8.9011   18.9523  -30.5854 H   0  0  0  0  0  0  0  0  0  0  0  0
  -10.1092   18.2648  -31.7232 H   0  0  0  0  0  0  0  0  0  0  0  0
   -8.4223   17.6474  -31.7232 H   0  0  0  0  0  0  0  0  0  0  0  0
   -6.6390   20.7560  -32.6150 N   0  0  0  0  0  0  0  0  0  0  0  0
   -5.9730   19.6060  -33.2490 C   0  0  0  0  0  0  0  0  0  0  0  0
   -6.3480   19.4918  -34.2768 H   0  0  0  0  0  0  0  0  0  0  0  0
   -6.1912   18.7008  -32.6634 H   0  0  0  0  0  0  0  0  0  0  0  0
   -4.4640   19.8180  -33.2860 C   0  0  0  0  0  0  0  0  0  0  0  0
   -4.0761   19.8725  -32.2581 H   0  0  0  0  0  0  0  0  0  0  0  0
   -3.9885   18.9778  -33.8133 H   0  0  0  0  0  0  0  0  0  0  0  0
   -4.2384   20.7567  -33.8133 H   0  0  0  0  0  0  0  0  0  0  0  0
   -5.9170   21.8980  -32.3980 C   0  0  0  0  0  0  0  0  0  0  0  0
   -4.8529   21.9273  -32.6753 H   0  0  0  0  0  0  0  0  0  0  0  0
  1  2  1  0
  2  3  1  0
  3  4  2  0
  4  5  1  0
  4  6  1  0
  6  7  2  0
  7  8  1  0
  7  9  1  0
  9 10  1  0
  9 11  2  0
 11 12  1  0
 12 13  1  0
 13 14  1  0
 13 15  1  0
 13 16  1  0
 11 17  1  0
 17 18  1  0
 18 19  1  0
 18 20  1  0
 18 21  1  0
 21 22  1  0
 21 23  1  0
 21 24  1  0
 17 25  2  0
 25 26  1  0
 25  6  1  0
M  CHG  1  17   1
M  END
>  <UniqueID>  (4) 
4

>  <SMILES>  (4) 
CC[n+]1cc(/C=N\O)ccc1OC

>  <Energy>  (4) 
26.063405108410688

>  <Genealogy>  (4) 
CC[n+]1cc(/C=N\O)ccc1OC (cis-trans isomerization)
CC[n+]1cc(/C=N\O)ccc1OC (3D coordinates assigned)
CC[n+]1cc(/C=N\O)ccc1OC (optimized conformer: 26.063405108410688 kcal/mol)

>  <smiles>  (4) 
CC[n+]1cc(C=NO)ccc1OC

>  <score_type>  (4) 
oracle

>  <origin>  (4) 
adg

>  <m_score__min__energy>  (4) 
-6.0700000000000003

>  <m_primary>  (4) 
energy

$$$$
4:0
     RDKit          3D

 34 36  0  0  0  0  0  0  0  0999 V2000
   -9.4900   22.2240  -31.9360 C   0  0  0  0  0  0  0  0  0  0  0  0
   -8.1050   21.6600  -31.9370 C   0  0  0  0  0  0  0  0  0  0  0  0
   -7.8310   20.4580  -32.5880 C   0  0  0  0  0  0  0  0  0  0  0  0
   -6.5180   19.9670  -32.5790 C   0  0  0  0  0  0  0  0  0  0  0  0
   -6.1890   18.6850  -33.2550 C   0  0  0  0  0  0  0  0  0  0  0  0
   -5.2540   18.6450  -34.3070 C   0  0  0  0  0  0  0  0  0  0  0  0
   -4.9510   17.4360  -34.9390 C   0  0  0  0  0  0  0  0  0  0  0  0
   -5.5760   16.2560  -34.5300 C   0  0  0  0  0  0  0  0  0  0  0  0
   -6.5060   16.2830  -33.4870 C   0  0  0  0  0  0  0  0  0  0  0  0
   -6.8130   17.4900  -32.8520 C   0  0  0  0  0  0  0  0  0  0  0  0
   -5.5420   20.6820  -31.9440 N   0  0  0  0  0  0  0  0  0  0  0  0
   -5.8220   21.8680  -31.3280 C   0  0  0  0  0  0  0  0  0  0  0  0
   -4.7620   22.6500  -30.6430 C   0  0  0  0  0  0  0  0  0  0  0  0
   -3.4070   22.2740  -30.7310 C   0  0  0  0  0  0  0  0  0  0  0  0
   -2.4210   23.0270  -30.0860 C   0  0  0  0  0  0  0  0  0  0  0  0
   -2.7710   24.1640  -29.3530 C   0  0  0  0  0  0  0  0  0  0  0  0
   -1.5310   25.1060  -28.5450 Cl  0  0  0  0  0  0  0  0  0  0  0  0
   -4.1110   24.5530  -29.2680 C   0  0  0  0  0  0  0  0  0  0  0  0
   -5.1010   23.8040  -29.9130 C   0  0  0  0  0  0  0  0  0  0  0  0
   -7.0990   22.3380  -31.3280 N   0  0  0  0  0  0  0  0  0  0  0  0
   -9.8289   22.3620  -30.8987 H   0  0  0  0  0  0  0  0  0  0  0  0
   -9.4912   23.1942  -32.4543 H   0  0  0  0  0  0  0  0  0  0  0  0
  -10.1686   21.5306  -32.4543 H   0  0  0  0  0  0  0  0  0  0  0  0
   -8.6317   19.9042  -33.1001 H   0  0  0  0  0  0  0  0  0  0  0  0
   -4.7588   19.5714  -34.6335 H   0  0  0  0  0  0  0  0  0  0  0  0
   -4.2191   17.4138  -35.7599 H   0  0  0  0  0  0  0  0  0  0  0  0
   -5.3364   15.3053  -35.0287 H   0  0  0  0  0  0  0  0  0  0  0  0
   -6.9972   15.3529  -33.1652 H   0  0  0  0  0  0  0  0  0  0  0  0
   -7.5466   17.5056  -32.0325 H   0  0  0  0  0  0  0  0  0  0  0  0
   -4.5780   20.2860  -31.8900 H   0  0  0  0  0  0  0  0  0  0  0  0
   -3.1232   21.3831  -31.3104 H   0  0  0  0  0  0  0  0  0  0  0  0
   -1.3661   22.7232  -30.1559 H   0  0  0  0  0  0  0  0  0  0  0  0
   -4.3874   25.4492  -28.6932 H   0  0  0  0  0  0  0  0  0  0  0  0
   -6.1527   24.1198  -29.8489 H   0  0  0  0  0  0  0  0  0  0  0  0
  1  2  1  0
  2  3  2  0
  3  4  1  0
  4  5  1  0
  5  6  2  0
  6  7  1  0
  7  8  2  0
  8  9  1  0
  9 10  2  0
  4 11  2  0
 11 12  1  0
 12 13  1  0
 13 14  2  0
 14 15  1  0
 15 16  2  0
 16 17  1  0
 16 18  1  0
 18 19  2  0
 12 20  2  0
 20  2  1  0
 10  5  1  0
 19 13  1  0
  1 21  1  0
  1 22  1  0
  1 23  1  0
  3 24  1  0
  6 25  1  0
  7 26  1  0
  8 27  1  0
  9 28  1  0
 10 29  1  0
 11 30  1  0
 14 31  1  0
 15 32  1  0
 18 33  1  0
 19 34  1  0
M  CHG  1  11   1
M  END
>  <UniqueID>  (5) 
5

>  <SMILES>  (5) 
Cc1cc(-c2ccccc2)[nH+]c(-c2ccc(Cl)cc2)n1

>  <Energy>  (5) 
44.232118919055985

>  <Genealogy>  (5) 
Cc1cc(-c2ccccc2)[nH+]c(-c2ccc(Cl)cc2)n1 (protonated)
Cc1cc(-c2ccccc2)[nH+]c(-c2ccc(Cl)cc2)n1 (3D coordinates assigned)
Cc1cc(-c2ccccc2)[nH+]c(-c2ccc(Cl)cc2)n1 (optimized conformer: 44.232118919055985 kcal/mol)

>  <smiles>  (5) 
Cc1cc(-c2ccccc2)nc(-c2ccc(Cl)cc2)n1

>  <score_type>  (5) 
oracle

>  <origin>  (5) 
adg

>  <m_score__min__energy>  (5) 
-7.0800000000000001

>  <m_primary>  (5) 
energy

$$$$
5:0
     RDKit          3D

 45 48  0  0  0  0  0  0  0  0999 V2000
    0.8640   22.2020  -35.7410 C   0  0  0  0  0  0  0  0  0  0  0  0
    0.2590   21.7470  -34.5360 O   0  0  0  0  0  0  0  0  0  0  0  0
    0.4890   20.4900  -33.9500 C   0  0  0  0  0  0  0  0  0  0  0  0
    1.7600   19.8820  -33.9910 C   0  0  0  0  0  0  0  0  0  0  0  0
    1.9570   18.6130  -33.4440 C   0  0  0  0  0  0  0  0  0  0  0  0
    0.8920   17.9340  -32.8520 C   0  0  0  0  0  0  0  0  0  0  0  0
   -0.3700   18.5250  -32.7980 C   0  0  0  0  0  0  0  0  0  0  0  0
   -0.5830   19.8090  -33.3310 C   0  0  0  0  0  0  0  0  0  0  0  0
   -1.9340   20.4130  -33.2410 C   0  0  0  0  0  0  0  0  0  0  0  0
   -3.0060   19.9160  -32.5220 C   0  0  0  0  0  0  0  0  0  0  0  0
   -4.0170   20.8350  -32.7500 C   0  0  0  0  0  0  0  0  0  0  0  0
   -5.4040   20.7870  -32.2560 C   0  0  0  0  0  0  0  0  0  0  0  0
   -6.2170   19.7430  -32.5760 N   0  0  0  0  0  0  0  0  0  0  0  0
   -7.4300   19.8360  -31.9880 C   0  0  0  0  0  0  0  0  0  0  0  0
   -8.5390   18.8640  -32.2270 C   0  0  0  0  0  0  0  0  0  0  0  0
   -9.1490   18.5590  -31.0250 F   0  0  0  0  0  0  0  0  0  0  0  0
   -9.4740   19.4150  -33.0860 F   0  0  0  0  0  0  0  0  0  0  0  0
   -8.0370   17.7070  -32.7920 F   0  0  0  0  0  0  0  0  0  0  0  0
   -7.5700   21.2440  -31.0740 S   0  0  0  0  0  0  0  0  0  0  0  0
   -5.9970   21.7330  -31.4160 C   0  0  0  0  0  0  0  0  0  0  0  0
   -5.4470   23.0020  -31.0370 N   0  0  0  0  0  0  0  0  0  0  0  0
   -6.0410   24.2190  -31.5910 C   0  0  0  0  0  0  0  0  0  0  0  0
   -5.6470   25.4220  -30.7300 C   0  0  0  0  0  0  0  0  0  0  0  0
   -4.2420   25.4810  -30.5660 O   0  0  0  0  0  0  0  0  0  0  0  0
   -3.8010   24.3590  -29.8240 C   0  0  0  0  0  0  0  0  0  0  0  0
   -4.0510   23.0590  -30.5950 C   0  0  0  0  0  0  0  0  0  0  0  0
   -3.5570   21.7820  -33.5350 O   0  0  0  0  0  0  0  0  0  0  0  0
   -2.3140   21.5600  -33.8390 N   0  0  0  0  0  0  0  0  0  0  0  0
    1.7217   22.8471  -35.4998 H   0  0  0  0  0  0  0  0  0  0  0  0
    1.2088   21.3375  -36.3273 H   0  0  0  0  0  0  0  0  0  0  0  0
    0.1291   22.7731  -36.3273 H   0  0  0  0  0  0  0  0  0  0  0  0
    2.6034   20.4118  -34.4578 H   0  0  0  0  0  0  0  0  0  0  0  0
    2.9532   18.1479  -33.4798 H   0  0  0  0  0  0  0  0  0  0  0  0
    1.0477   16.9313  -32.4273 H   0  0  0  0  0  0  0  0  0  0  0  0
   -1.2066   17.9819  -32.3342 H   0  0  0  0  0  0  0  0  0  0  0  0
   -3.0463   19.0024  -31.9107 H   0  0  0  0  0  0  0  0  0  0  0  0
   -5.6768   24.3691  -32.6180 H   0  0  0  0  0  0  0  0  0  0  0  0
   -7.1364   24.1193  -31.5991 H   0  0  0  0  0  0  0  0  0  0  0  0
   -5.9926   26.3447  -31.2190 H   0  0  0  0  0  0  0  0  0  0  0  0
   -6.1146   25.3167  -29.7399 H   0  0  0  0  0  0  0  0  0  0  0  0
   -2.7234   24.4589  -29.6269 H   0  0  0  0  0  0  0  0  0  0  0  0
   -4.3633   24.3202  -28.8794 H   0  0  0  0  0  0  0  0  0  0  0  0
   -3.3888   23.0223  -31.4725 H   0  0  0  0  0  0  0  0  0  0  0  0
   -3.8441   22.2021  -29.9370 H   0  0  0  0  0  0  0  0  0  0  0  0
   -1.7280   22.1960  -34.4230 H   0  0  0  0  0  0  0  0  0  0  0  0
  1  2  1  0
  2  3  1  0
  3  4  2  0
  4  5  1  0
  5  6  2  0
  6  7  1  0
  7  8  2  0
  8  9  1  0
  9 10  1  0
 10 11  2  0
 11 12  1  0
 12 13  1  0
 13 14  2  0
 14 15  1  0
 15 16  1  0
 15 17  1  0
 15 18  1  0
 14 19  1  0
 19 20  1  0
 20 21  1  0
 21 22  1  0
 22 23  1  0
 23 24  1  0
 24 25  1  0
 25 26  1  0
 11 27  1  0
 27 28  1  0
  8  3  1  0
 28  9  2  0
 20 12  2  0
 26 21  1  0
  1 29  1  0
  1 30  1  0
  1 31  1  0
  4 32  1  0
  5 33  1  0
  6 34  1  0
  7 35  1  0
 10 36  1  0
 22 37  1  0
 22 38  1  0
 23 39  1  0
 23 40  1  0
 25 41  1  0
 25 42  1  0
 26 43  1  0
 26 44  1  0
 28 45  1  0
M  CHG  1  28   1
M  END
>  <UniqueID>  (6) 
6

>  <SMILES>  (6) 
COc1ccccc1-c1cc(-c2nc(C(F)(F)F)sc2N2CCOCC2)o[nH+]1

>  <Energy>  (6) 
117.07843123857653

>  <Genealogy>  (6) 
COc1ccccc1-c1cc(-c2nc(C(F)(F)F)sc2N2CCOCC2)o[nH+]1 (protonated)
COc1ccccc1-c1cc(-c2nc(C(F)(F)F)sc2N2CCOCC2)o[nH+]1 (3D coordinates assigned)
COc1ccccc1-c1cc(-c2nc(C(F)(F)F)sc2N2CCOCC2)o[nH+]1 (nonaromatic ring conformer: 117.07843123857653 kcal/mol)

>  <smiles>  (6) 
COc1ccccc1-c1cc(-c2nc(C(F)(F)F)sc2N2CCOCC2)on1

>  <score_type>  (6) 
oracle

>  <origin>  (6) 
adg

>  <m_score__min__energy>  (6) 
-7.79

>  <m_primary>  (6) 
energy

$$$$
6:0
     RDKit          3D

 46 48  0  0  0  0  0  0  0  0999 V2000
   -0.9430   20.2560  -31.1930 C   0  0  0  0  0  0  0  0  0  0  0  0
   -1.5560   21.0850  -32.1750 O   0  0  0  0  0  0  0  0  0  0  0  0
   -2.9360   21.3220  -32.2650 C   0  0  0  0  0  0  0  0  0  0  0  0
   -3.7750   20.5670  -33.1010 C   0  0  0  0  0  0  0  0  0  0  0  0
   -5.1400   20.8370  -33.1520 C   0  0  0  0  0  0  0  0  0  0  0  0
   -5.6900   21.8610  -32.3770 C   0  0  0  0  0  0  0  0  0  0  0  0
   -7.0260   22.0950  -32.4410 N   0  0  0  0  0  0  0  0  0  0  0  0
   -7.6190   23.0670  -31.7080 C   0  0  0  0  0  0  0  0  0  0  0  0
   -6.8600   23.8660  -30.8580 C   0  0  0  0  0  0  0  0  0  0  0  0
   -5.4680   23.6810  -30.7600 C   0  0  0  0  0  0  0  0  0  0  0  0
   -4.7090   24.5860  -29.7950 C   0  0  2  0  0  0  0  0  0  0  0  0
   -3.6690   25.2680  -30.4480 O   0  0  0  0  0  0  0  0  0  0  0  0
   -4.1610   23.7790  -28.6010 C   0  0  0  0  0  0  0  0  0  0  0  0
   -3.6060   24.6830  -27.4770 C   0  0  0  0  0  0  0  0  0  0  0  0
   -2.1420   24.3610  -27.0770 C   0  0  1  0  0  0  0  0  0  0  0  0
   -1.8180   22.8590  -27.3050 C   0  0  0  0  0  0  0  0  0  0  0  0
   -0.8730   22.6140  -28.4940 C   0  0  0  0  0  0  0  0  0  0  0  0
   -1.1750   23.5780  -29.6500 C   0  0  0  0  0  0  0  0  0  0  0  0
   -1.1150   25.0050  -29.2640 N   0  0  0  0  0  0  0  0  0  0  0  0
   -1.1120   25.2480  -27.8110 C   0  0  0  0  0  0  0  0  0  0  0  0
   -4.8630   22.6430  -31.5280 C   0  0  0  0  0  0  0  0  0  0  0  0
   -3.4820   22.3510  -31.4870 C   0  0  0  0  0  0  0  0  0  0  0  0
   -1.2104   20.6176  -30.1891 H   0  0  0  0  0  0  0  0  0  0  0  0
   -1.2947   19.2210  -31.3156 H   0  0  0  0  0  0  0  0  0  0  0  0
    0.1496   20.2890  -31.3156 H   0  0  0  0  0  0  0  0  0  0  0  0
   -3.3524   19.7599  -33.7174 H   0  0  0  0  0  0  0  0  0  0  0  0
   -5.7904   20.2394  -33.8076 H   0  0  0  0  0  0  0  0  0  0  0  0
   -8.7048   23.2257  -31.7847 H   0  0  0  0  0  0  0  0  0  0  0  0
   -7.3510   24.6471  -30.2589 H   0  0  0  0  0  0  0  0  0  0  0  0
   -5.4182   25.3344  -29.4118 H   0  0  0  0  0  0  0  0  0  0  0  0
   -3.1120   25.6880  -29.7410 H   0  0  0  0  0  0  0  0  0  0  0  0
   -4.9742   23.1636  -28.1888 H   0  0  0  0  0  0  0  0  0  0  0  0
   -3.3306   23.1595  -28.9707 H   0  0  0  0  0  0  0  0  0  0  0  0
   -3.6499   25.7275  -27.8191 H   0  0  0  0  0  0  0  0  0  0  0  0
   -4.2271   24.5038  -26.5870 H   0  0  0  0  0  0  0  0  0  0  0  0
   -2.0587   24.5869  -26.0037 H   0  0  0  0  0  0  0  0  0  0  0  0
   -1.3444   22.4619  -26.3950 H   0  0  0  0  0  0  0  0  0  0  0  0
   -2.7671   22.3520  -27.5333 H   0  0  0  0  0  0  0  0  0  0  0  0
    0.1656   22.7637  -28.1638 H   0  0  0  0  0  0  0  0  0  0  0  0
   -1.0215   21.5842  -28.8510 H   0  0  0  0  0  0  0  0  0  0  0  0
   -0.4399   23.4030  -30.4494 H   0  0  0  0  0  0  0  0  0  0  0  0
   -2.2057   23.3759  -29.9769 H   0  0  0  0  0  0  0  0  0  0  0  0
   -0.2400   25.4240  -29.6580 H   0  0  0  0  0  0  0  0  0  0  0  0
   -0.1089   25.0296  -27.4159 H   0  0  0  0  0  0  0  0  0  0  0  0
   -1.3848   26.2999  -27.6405 H   0  0  0  0  0  0  0  0  0  0  0  0
   -2.8237   22.9417  -30.8329 H   0  0  0  0  0  0  0  0  0  0  0  0
  1  2  1  0
  2  3  1  0
  3  4  2  0
  4  5  1  0
  5  6  2  0
  6  7  1  0
  7  8  2  0
  8  9  1  0
  9 10  2  0
 10 11  1  0
 11 12  1  0
 11 13  1  0
 13 14  1  0
 14 15  1  0
 15 16  1  0
 16 17  1  0
 17 18  1  0
 18 19  1  0
 19 20  1  0
 10 21  1  0
 21 22  2  0
 22  3  1  0
 21  6  1  0
 20 15  1  0
  1 23  1  0
  1 24  1  0
  1 25  1  0
  4 26  1  0
  5 27  1  0
  8 28  1  0
  9 29  1  0
 11 30  1  1
 12 31  1  0
 13 32  1  0
 13 33  1  0
 14 34  1  0
 14 35  1  0
 15 36  1  1
 16 37  1  0
 16 38  1  0
 17 39  1  0
 17 40  1  0
 18 41  1  0
 18 42  1  0
 19 43  1  0
 20 44  1  0
 20 45  1  0
 22 46  1  0
M  END
>  <UniqueID>  (7) 
7

>  <SMILES>  (7) 
COc1ccc2nccc([C@H](O)CC[C@H]3CCCNC3)c2c1

>  <Energy>  (7) 
59.656209387545495

>  <Genealogy>  (7) 
COc1ccc2nccc([C@H](O)CC[C@H]3CCCNC3)c2c1 (chirality)
COc1ccc2nccc([C@H](O)CC[C@H]3CCCNC3)c2c1 (3D coordinates assigned)
COc1ccc2nccc([C@H](O)CC[C@H]3CCCNC3)c2c1 (nonaromatic ring conformer: 59.656209387545495 kcal/mol)

>  <smiles>  (7) 
COc1ccc2nccc(C(O)CCC3CCCNC3)c2c1

>  <score_type>  (7) 
oracle

>  <origin>  (7) 
adg

>  <m_score__min__energy>  (7) 
-9.1999999999999993

>  <m_primary>  (7) 
energy

$$$$
7:0
     RDKit          3D

 29 29  0  0  0  0  0  0  0  0999 V2000
   -7.2220   17.8610  -32.3110 C   0  0  0  0  0  0  0  0  0  0  0  0
   -8.2120   18.7630  -31.5920 C   0  0  0  0  0  0  0  0  0  0  0  0
   -8.7850   20.0790  -32.7160 S   0  0  0  0  0  0  0  0  0  0  0  0
   -7.7600   21.3360  -31.9560 C   0  0  0  0  0  0  0  0  0  0  0  0
   -8.1330   21.9060  -30.7340 C   0  0  0  0  0  0  0  0  0  0  0  0
   -7.3180   22.8840  -30.1600 C   0  0  0  0  0  0  0  0  0  0  0  0
   -6.1430   23.2820  -30.8080 C   0  0  0  0  0  0  0  0  0  0  0  0
   -5.1230   24.5310  -30.0970 S   0  0  0  0  0  0  0  0  0  0  0  0
   -5.9700   25.5050  -29.3250 O   0  0  0  0  0  0  0  0  0  0  0  0
   -4.4320   25.2740  -31.2080 O   0  0  0  0  0  0  0  0  0  0  0  0
   -3.9360   23.8000  -29.0470 N   0  0  0  0  0  0  0  0  0  0  0  0
   -4.0190   22.3380  -29.1560 C   0  0  0  0  0  0  0  0  0  0  0  0
   -4.1890   24.2170  -27.6630 C   0  0  0  0  0  0  0  0  0  0  0  0
   -5.8110   22.6920  -32.0350 C   0  0  0  0  0  0  0  0  0  0  0  0
   -6.6200   21.7420  -32.5740 N   0  0  0  0  0  0  0  0  0  0  0  0
   -6.6206   17.3131  -31.5707 H   0  0  0  0  0  0  0  0  0  0  0  0
   -7.7694   17.1447  -32.9413 H   0  0  0  0  0  0  0  0  0  0  0  0
   -6.5596   18.4725  -32.9413 H   0  0  0  0  0  0  0  0  0  0  0  0
   -9.0743   18.1661  -31.2601 H   0  0  0  0  0  0  0  0  0  0  0  0
   -7.7183   19.2204  -30.7219 H   0  0  0  0  0  0  0  0  0  0  0  0
   -9.0579   21.5874  -30.2310 H   0  0  0  0  0  0  0  0  0  0  0  0
   -7.5992   23.3410  -29.1997 H   0  0  0  0  0  0  0  0  0  0  0  0
   -4.0441   21.8961  -28.1490 H   0  0  0  0  0  0  0  0  0  0  0  0
   -4.9342   22.0623  -29.7003 H   0  0  0  0  0  0  0  0  0  0  0  0
   -3.1408   21.9605  -29.7003 H   0  0  0  0  0  0  0  0  0  0  0  0
   -3.7449   23.4849  -26.9725 H   0  0  0  0  0  0  0  0  0  0  0  0
   -3.7380   25.2052  -27.4895 H   0  0  0  0  0  0  0  0  0  0  0  0
   -5.2738   24.2734  -27.4895 H   0  0  0  0  0  0  0  0  0  0  0  0
   -4.8953   22.9978  -32.5622 H   0  0  0  0  0  0  0  0  0  0  0  0
  1  2  1  0
  2  3  1  0
  3  4  1  0
  4  5  2  0
  5  6  1  0
  6  7  2  0
  7  8  1  0
  8  9  2  0
  8 10  2  0
  8 11  1  0
 11 12  1  0
 11 13  1  0
  7 14  1  0
 14 15  2  0
 15  4  1  0
  1 16  1  0
  1 17  1  0
  1 18  1  0
  2 19  1  0
  2 20  1  0
  5 21  1  0
  6 22  1  0
 12 23  1  0
 12 24  1  0
 12 25  1  0
 13 26  1  0
 13 27  1  0
 13 28  1  0
 14 29  1  0
M  END
>  <UniqueID>  (8) 
8

>  <SMILES>  (8) 
CCSc1ccc(S(=O)(=O)N(C)C)cn1

>  <Energy>  (8) 
18.37551936770105

>  <Genealogy>  (8) 
CCSc1ccc(S(=O)(=O)N(C)C)cn1 (3D coordinates assigned)
CCSc1ccc(S(=O)(=O)N(C)C)cn1 (optimized conformer: 18.37551936770105 kcal/mol)

>  <smiles>  (8) 
CCSc1ccc(S(=O)(=O)N(C)C)cn1

>  <score_type>  (8) 
oracle

>  <origin>  (8) 
adg

>  <m_score__min__energy>  (8) 
-6.54

>  <m_primary>  (8) 
energy

$$$$
8:0
     RDKit          3D

 58 60  0  0  0  0  0  0  0  0999 V2000
   -0.8880   21.2180  -29.7530 C   0  0  0  0  0  0  0  0  0  0  0  0
   -1.8970   21.2040  -30.9010 C   0  0  0  0  0  0  0  0  0  0  0  0
   -1.2260   21.2260  -32.2830 C   0  0  0  0  0  0  0  0  0  0  0  0
   -2.2440   21.1670  -33.4340 C   0  0  0  0  0  0  0  0  0  0  0  0
   -3.3610   20.1450  -33.1720 C   0  0  0  0  0  0  0  0  0  0  0  0
   -4.6360   20.8090  -32.8320 N   0  0  0  0  0  0  0  0  0  0  0  0
   -4.6180   22.1580  -32.6300 C   0  0  0  0  0  0  0  0  0  0  0  0
   -5.7820   22.8570  -32.2940 C   0  0  0  0  0  0  0  0  0  0  0  0
   -5.7780   24.2500  -32.0900 O   0  0  0  0  0  0  0  0  0  0  0  0
   -5.9610   24.9150  -30.8380 C   0  0  0  0  0  0  0  0  0  0  0  0
   -4.6130   25.2410  -30.1780 C   0  0  0  0  0  0  0  0  0  0  0  0
   -3.7930   24.0210  -29.9820 N   0  0  0  0  0  0  0  0  0  0  0  0
   -4.5430   22.9120  -29.3300 C   0  0  0  0  0  0  0  0  0  0  0  0
   -4.1540   22.6650  -27.8580 C   0  0  0  0  0  0  0  0  0  0  0  0
   -3.7970   23.9730  -27.1570 C   0  0  0  0  0  0  0  0  0  0  0  0
   -2.6240   24.6790  -27.8540 C   0  0  0  0  0  0  0  0  0  0  0  0
   -2.4870   24.2870  -29.3400 C   0  0  0  0  0  0  0  0  0  0  0  0
   -6.9840   22.1450  -32.1470 C   0  0  0  0  0  0  0  0  0  0  0  0
   -8.1630   22.8330  -31.8070 C   0  0  0  0  0  0  0  0  0  0  0  0
   -9.3640   22.1510  -31.6600 C   0  0  0  0  0  0  0  0  0  0  0  0
   -9.4150   20.7750  -31.8470 C   0  0  0  0  0  0  0  0  0  0  0  0
   -8.2620   20.0480  -32.1890 C   0  0  0  0  0  0  0  0  0  0  0  0
   -8.4160   18.5560  -32.3700 C   0  0  0  0  0  0  0  0  0  0  0  0
   -7.0160   20.7370  -32.3480 C   0  0  0  0  0  0  0  0  0  0  0  0
   -5.7980   20.0900  -32.6990 C   0  0  0  0  0  0  0  0  0  0  0  0
   -5.7710   18.8430  -32.8880 O   0  0  0  0  0  0  0  0  0  0  0  0
   -1.4248   21.2106  -28.7929 H   0  0  0  0  0  0  0  0  0  0  0  0
   -0.2441   20.3287  -29.8199 H   0  0  0  0  0  0  0  0  0  0  0  0
   -0.2690   22.1248  -29.8199 H   0  0  0  0  0  0  0  0  0  0  0  0
   -2.5077   20.2926  -30.8212 H   0  0  0  0  0  0  0  0  0  0  0  0
   -2.5092   22.1139  -30.8153 H   0  0  0  0  0  0  0  0  0  0  0  0
   -0.6415   22.1532  -32.3764 H   0  0  0  0  0  0  0  0  0  0  0  0
   -0.5859   20.3345  -32.3575 H   0  0  0  0  0  0  0  0  0  0  0  0
   -2.6966   22.1620  -33.5575 H   0  0  0  0  0  0  0  0  0  0  0  0
   -1.7078   20.8544  -34.3421 H   0  0  0  0  0  0  0  0  0  0  0  0
   -3.5060   19.5349  -34.0758 H   0  0  0  0  0  0  0  0  0  0  0  0
   -3.0611   19.5182  -32.3192 H   0  0  0  0  0  0  0  0  0  0  0  0
   -3.6701   22.7065  -32.7333 H   0  0  0  0  0  0  0  0  0  0  0  0
   -6.5133   25.8512  -31.0067 H   0  0  0  0  0  0  0  0  0  0  0  0
   -6.5232   24.2472  -30.1687 H   0  0  0  0  0  0  0  0  0  0  0  0
   -4.0612   25.9428  -30.8206 H   0  0  0  0  0  0  0  0  0  0  0  0
   -4.8110   25.6852  -29.1913 H   0  0  0  0  0  0  0  0  0  0  0  0
   -5.6158   23.1523  -29.3676 H   0  0  0  0  0  0  0  0  0  0  0  0
   -4.2921   21.9939  -29.8814 H   0  0  0  0  0  0  0  0  0  0  0  0
   -5.0019   22.1974  -27.3360 H   0  0  0  0  0  0  0  0  0  0  0  0
   -3.2743   22.0050  -27.8352 H   0  0  0  0  0  0  0  0  0  0  0  0
   -4.6737   24.6373  -27.1702 H   0  0  0  0  0  0  0  0  0  0  0  0
   -3.4983   23.7424  -26.1237 H   0  0  0  0  0  0  0  0  0  0  0  0
   -2.7803   25.7660  -27.7904 H   0  0  0  0  0  0  0  0  0  0  0  0
   -1.7004   24.3686  -27.3434 H   0  0  0  0  0  0  0  0  0  0  0  0
   -1.9917   25.1095  -29.8769 H   0  0  0  0  0  0  0  0  0  0  0  0
   -1.8983   23.3589  -29.3863 H   0  0  0  0  0  0  0  0  0  0  0  0
   -8.1334   23.9222  -31.6560 H   0  0  0  0  0  0  0  0  0  0  0  0
  -10.2782   22.7022  -31.3946 H   0  0  0  0  0  0  0  0  0  0  0  0
  -10.3722   20.2469  -31.7255 H   0  0  0  0  0  0  0  0  0  0  0  0
   -8.4661   18.0703  -31.3843 H   0  0  0  0  0  0  0  0  0  0  0  0
   -9.3404   18.3479  -32.9287 H   0  0  0  0  0  0  0  0  0  0  0  0
   -7.5536   18.1635  -32.9287 H   0  0  0  0  0  0  0  0  0  0  0  0
  1  2  1  0
  2  3  1  0
  3  4  1  0
  4  5  1  0
  5  6  1  0
  6  7  1  0
  7  8  2  0
  8  9  1  0
  9 10  1  0
 10 11  1  0
 11 12  1  0
 12 13  1  0
 13 14  1  0
 14 15  1  0
 15 16  1  0
 16 17  1  0
  8 18  1  0
 18 19  2  0
 19 20  1  0
 20 21  2  0
 21 22  1  0
 22 23  1  0
 22 24  2  0
 24 25  1  0
 25 26  2  0
 25  6  1  0
 17 12  1  0
 24 18  1  0
  1 27  1  0
  1 28  1  0
  1 29  1  0
  2 30  1  0
  2 31  1  0
  3 32  1  0
  3 33  1  0
  4 34  1  0
  4 35  1  0
  5 36  1  0
  5 37  1  0
  7 38  1  0
 10 39  1  0
 10 40  1  0
 11 41  1  0
 11 42  1  0
 13 43  1  0
 13 44  1  0
 14 45  1  0
 14 46  1  0
 15 47  1  0
 15 48  1  0
 16 49  1  0
 16 50  1  0
 17 51  1  0
 17 52  1  0
 19 53  1  0
 20 54  1  0
 21 55  1  0
 23 56  1  0
 23 57  1  0
 23 58  1  0
M  END
>  <UniqueID>  (9) 
9

>  <SMILES>  (9) 
CCCCCn1cc(OCCN2CCCCC2)c2cccc(C)c2c1=O

>  <Energy>  (9) 
71.0331279453482

>  <Genealogy>  (9) 
CCCCCn1cc(OCCN2CCCCC2)c2cccc(C)c2c1=O (3D coordinates assigned)
CCCCCn1cc(OCCN2CCCCC2)c2cccc(C)c2c1=O (nonaromatic ring conformer: 71.0331279453482 kcal/mol)

>  <smiles>  (9) 
CCCCCn1cc(OCCN2CCCCC2)c2cccc(C)c2c1=O

>  <score_type>  (9) 
oracle

>  <origin>  (9) 
adg

>  <m_score__min__energy>  (9) 
-8.4800000000000004

>  <m_primary>  (9) 
energy

$$$$
9:0
     RDKit          3D

 64 67  0  0  0  0  0  0  0  0999 V2000
   -1.6810   16.0040  -35.1630 C   0  0  0  0  0  0  0  0  0  0  0  0
   -2.8950   16.3210  -34.3790 N   0  0  2  0  0  0  0  0  0  0  0  0
   -4.0090   16.9750  -35.1380 C   0  0  0  0  0  0  0  0  0  0  0  0
   -5.1160   17.5670  -34.2870 C   0  0  0  0  0  0  0  0  0  0  0  0
   -6.1910   16.7720  -33.8640 C   0  0  0  0  0  0  0  0  0  0  0  0
   -7.1860   17.3100  -33.0450 C   0  0  0  0  0  0  0  0  0  0  0  0
   -7.1150   18.6430  -32.6360 C   0  0  0  0  0  0  0  0  0  0  0  0
   -6.0460   19.4590  -33.0510 C   0  0  0  0  0  0  0  0  0  0  0  0
   -5.9630   20.8730  -32.6070 C   0  0  0  0  0  0  0  0  0  0  0  0
   -4.7670   21.5970  -32.7560 C   0  0  0  0  0  0  0  0  0  0  0  0
   -4.6880   22.9300  -32.3420 C   0  0  0  0  0  0  0  0  0  0  0  0
   -5.8010   23.5620  -31.7680 C   0  0  0  0  0  0  0  0  0  0  0  0
   -5.7070   24.9980  -31.3070 C   0  0  0  0  0  0  0  0  0  0  0  0
   -4.5330   25.2380  -30.4510 N   0  0  0  0  0  0  0  0  0  0  0  0
   -4.5930   24.5330  -29.1590 C   0  0  0  0  0  0  0  0  0  0  0  0
   -3.4750   23.4920  -29.0300 C   0  0  0  0  0  0  0  0  0  0  0  0
   -2.2280   23.9840  -29.6600 N   0  0  0  0  0  0  0  0  0  0  0  0
   -1.3390   22.8830  -30.0980 C   0  0  0  0  0  0  0  0  0  0  0  0
   -0.3220   22.4770  -29.0090 C   0  0  0  0  0  0  0  0  0  0  0  0
   -0.8060   22.8110  -27.7260 O   0  0  0  0  0  0  0  0  0  0  0  0
   -0.8600   24.2180  -27.5780 C   0  0  0  0  0  0  0  0  0  0  0  0
   -1.5020   24.9310  -28.7930 C   0  0  0  0  0  0  0  0  0  0  0  0
   -6.9970   22.8430  -31.6180 C   0  0  0  0  0  0  0  0  0  0  0  0
   -7.0780   21.5110  -32.0360 C   0  0  0  0  0  0  0  0  0  0  0  0
   -5.0520   18.9110  -33.8810 C   0  0  0  0  0  0  0  0  0  0  0  0
   -2.5620   17.0380  -33.1200 C   0  0  0  0  0  0  0  0  0  0  0  0
   -2.0270   18.4310  -33.3390 C   0  0  0  0  0  0  0  0  0  0  0  0
   -2.0340   19.4150  -32.3540 C   0  0  0  0  0  0  0  0  0  0  0  0
   -1.3780   20.8090  -33.0230 S   0  0  0  0  0  0  0  0  0  0  0  0
   -1.1250   20.1140  -34.5320 C   0  0  0  0  0  0  0  0  0  0  0  0
   -1.5320   18.8270  -34.5440 N   0  0  0  0  0  0  0  0  0  0  0  0
   -0.8484   15.7866  -34.4778 H   0  0  0  0  0  0  0  0  0  0  0  0
   -1.8729   15.1259  -35.7971 H   0  0  0  0  0  0  0  0  0  0  0  0
   -1.4191   16.8639  -35.7971 H   0  0  0  0  0  0  0  0  0  0  0  0
   -3.2630   15.3890  -34.0680 H   0  0  0  0  0  0  0  0  0  0  0  0
   -3.5770   17.7848  -35.7442 H   0  0  0  0  0  0  0  0  0  0  0  0
   -4.4780   16.1785  -35.7343 H   0  0  0  0  0  0  0  0  0  0  0  0
   -6.2508   15.7197  -34.1788 H   0  0  0  0  0  0  0  0  0  0  0  0
   -8.0285   16.6814  -32.7210 H   0  0  0  0  0  0  0  0  0  0  0  0
   -7.8991   19.0579  -31.9856 H   0  0  0  0  0  0  0  0  0  0  0  0
   -3.8867   21.1109  -33.2017 H   0  0  0  0  0  0  0  0  0  0  0  0
   -3.7475   23.4865  -32.4671 H   0  0  0  0  0  0  0  0  0  0  0  0
   -5.6383   25.6489  -32.1911 H   0  0  0  0  0  0  0  0  0  0  0  0
   -6.6058   25.2185  -30.7124 H   0  0  0  0  0  0  0  0  0  0  0  0
   -3.6720   24.9270  -30.9590 H   0  0  0  0  0  0  0  0  0  0  0  0
   -4.4917   25.2678  -28.3467 H   0  0  0  0  0  0  0  0  0  0  0  0
   -5.5585   24.0094  -29.0980 H   0  0  0  0  0  0  0  0  0  0  0  0
   -3.2875   23.2933  -27.9645 H   0  0  0  0  0  0  0  0  0  0  0  0
   -3.7894   22.5695  -29.5400 H   0  0  0  0  0  0  0  0  0  0  0  0
   -1.9573   22.0081  -30.3474 H   0  0  0  0  0  0  0  0  0  0  0  0
   -0.7712   23.2382  -30.9706 H   0  0  0  0  0  0  0  0  0  0  0  0
   -0.1525   21.3913  -29.0598 H   0  0  0  0  0  0  0  0  0  0  0  0
    0.6193   23.0185  -29.1842 H   0  0  0  0  0  0  0  0  0  0  0  0
   -1.4515   24.4534  -26.6809 H   0  0  0  0  0  0  0  0  0  0  0  0
    0.1755   24.5795  -27.4944 H   0  0  0  0  0  0  0  0  0  0  0  0
   -2.2069   25.6925  -28.4279 H   0  0  0  0  0  0  0  0  0  0  0  0
   -0.6972   25.3907  -29.3855 H   0  0  0  0  0  0  0  0  0  0  0  0
   -7.8754   23.3299  -31.1692 H   0  0  0  0  0  0  0  0  0  0  0  0
   -8.0215   20.9581  -31.9171 H   0  0  0  0  0  0  0  0  0  0  0  0
   -4.2151   19.5412  -34.2162 H   0  0  0  0  0  0  0  0  0  0  0  0
   -3.4738   17.1083  -32.5088 H   0  0  0  0  0  0  0  0  0  0  0  0
   -1.7670   16.4627  -32.6230 H   0  0  0  0  0  0  0  0  0  0  0  0
   -2.4025   19.3002  -31.3239 H   0  0  0  0  0  0  0  0  0  0  0  0
   -0.6865   20.6376  -35.3943 H   0  0  0  0  0  0  0  0  0  0  0  0
  1  2  1  0
  2  3  1  0
  3  4  1  0
  4  5  2  0
  5  6  1  0
  6  7  2  0
  7  8  1  0
  8  9  1  0
  9 10  2  0
 10 11  1  0
 11 12  2  0
 12 13  1  0
 13 14  1  0
 14 15  1  0
 15 16  1  0
 16 17  1  0
 17 18  1  0
 18 19  1  0
 19 20  1  0
 20 21  1  0
 21 22  1  0
 12 23  1  0
 23 24  2  0
  8 25  2  0
  2 26  1  0
 26 27  1  0
 27 28  2  0
 28 29  1  0
 29 30  1  0
 30 31  2  0
 25  4  1  0
 31 27  1  0
 24  9  1  0
 22 17  1  0
  1 32  1  0
  1 33  1  0
  1 34  1  0
  2 35  1  1
  3 36  1  0
  3 37  1  0
  5 38  1  0
  6 39  1  0
  7 40  1  0
 10 41  1  0
 11 42  1  0
 13 43  1  0
 13 44  1  0
 14 45  1  0
 15 46  1  0
 15 47  1  0
 16 48  1  0
 16 49  1  0
 18 50  1  0
 18 51  1  0
 19 52  1  0
 19 53  1  0
 21 54  1  0
 21 55  1  0
 22 56  1  0
 22 57  1  0
 23 58  1  0
 24 59  1  0
 25 60  1  0
 26 61  1  0
 26 62  1  0
 28 63  1  0
 30 64  1  0
M  CHG  1   2   1
M  END
>  <UniqueID>  (10) 
10

>  <SMILES>  (10) 
C[N@H+](Cc1cccc(-c2ccc(CNCCN3CCOCC3)cc2)c1)Cc1cscn1

>  <Energy>  (10) 
122.35115483906583

>  <Genealogy>  (10) 
C[NH+](Cc1cccc(-c2ccc(CNCCN3CCOCC3)cc2)c1)Cc1cscn1 (protonated)
C[N@H+](Cc1cccc(-c2ccc(CNCCN3CCOCC3)cc2)c1)Cc1cscn1 (chirality)
C[N@H+](Cc1cccc(-c2ccc(CNCCN3CCOCC3)cc2)c1)Cc1cscn1 (3D coordinates assigned)
C[N@H+](Cc1cccc(-c2ccc(CNCCN3CCOCC3)cc2)c1)Cc1cscn1 (nonaromatic ring conformer: 122.35115483906583 kcal/mol)

>  <smiles>  (10) 
CN(Cc1cccc(-c2ccc(CNCCN3CCOCC3)cc2)c1)Cc1cscn1

>  <score_type>  (10) 
oracle

>  <origin>  (10) 
adg

>  <m_score__min__energy>  (10) 
-8.9299999999999997

>  <m_primary>  (10) 
energy

$$$$
10:0
     RDKit          3D

 30 31  0  0  0  0  0  0  0  0999 V2000
   -2.7270   24.5380  -29.3480 C   0  0  0  0  0  0  0  0  0  0  0  0
   -3.5670   24.8940  -30.4400 O   0  0  0  0  0  0  0  0  0  0  0  0
   -4.7310   24.2010  -30.8020 C   0  0  0  0  0  0  0  0  0  0  0  0
   -4.6040   23.0510  -31.5880 C   0  0  0  0  0  0  0  0  0  0  0  0
   -5.7330   22.3240  -31.9760 C   0  0  0  0  0  0  0  0  0  0  0  0
   -7.0120   22.7370  -31.5700 C   0  0  0  0  0  0  0  0  0  0  0  0
   -8.2280   21.9780  -32.0170 C   0  0  0  0  0  0  0  0  0  0  0  0
   -8.2420   20.3350  -31.2310 S   0  0  0  0  0  0  0  0  0  0  0  0
   -7.2970   19.5700  -32.5480 C   0  0  0  0  0  0  0  0  0  0  0  0
   -7.2360   20.0600  -33.8020 N   0  0  0  0  0  0  0  0  0  0  0  0
   -6.4760   19.2150  -34.4850 N   0  0  0  0  0  0  0  0  0  0  0  0
   -6.0870   18.2290  -33.6570 C   0  0  0  0  0  0  0  0  0  0  0  0
   -6.5790   18.4360  -32.4230 N   0  0  0  0  0  0  0  0  0  0  0  0
   -6.4640   17.5590  -31.2640 C   0  0  0  0  0  0  0  0  0  0  0  0
   -7.1470   23.8980  -30.7940 C   0  0  0  0  0  0  0  0  0  0  0  0
   -6.0150   24.6240  -30.4070 C   0  0  0  0  0  0  0  0  0  0  0  0
   -3.2433   24.7568  -28.4017 H   0  0  0  0  0  0  0  0  0  0  0  0
   -2.4946   23.4640  -29.3991 H   0  0  0  0  0  0  0  0  0  0  0  0
   -1.7937   25.1179  -29.3991 H   0  0  0  0  0  0  0  0  0  0  0  0
   -3.6053   22.7153  -31.9041 H   0  0  0  0  0  0  0  0  0  0  0  0
   -5.6191   21.4260  -32.6010 H   0  0  0  0  0  0  0  0  0  0  0  0
   -9.1330   22.5313  -31.7259 H   0  0  0  0  0  0  0  0  0  0  0  0
   -8.2054   21.8609  -33.1105 H   0  0  0  0  0  0  0  0  0  0  0  0
   -6.2430   19.3090  -35.4970 H   0  0  0  0  0  0  0  0  0  0  0  0
   -5.4567   17.3756  -33.9477 H   0  0  0  0  0  0  0  0  0  0  0  0
   -6.5423   18.1559  -30.3433 H   0  0  0  0  0  0  0  0  0  0  0  0
   -7.2720   16.8129  -31.2871 H   0  0  0  0  0  0  0  0  0  0  0  0
   -5.4910   17.0465  -31.2871 H   0  0  0  0  0  0  0  0  0  0  0  0
   -8.1471   24.2391  -30.4884 H   0  0  0  0  0  0  0  0  0  0  0  0
   -6.1285   25.5288  -29.7918 H   0  0  0  0  0  0  0  0  0  0  0  0
  1  2  1  0
  2  3  1  0
  3  4  2  0
  4  5  1  0
  5  6  2  0
  6  7  1  0
  7  8  1  0
  8  9  1  0
  9 10  2  0
 10 11  1  0
 11 12  2  0
 12 13  1  0
 13 14  1  0
  6 15  1  0
 15 16  2  0
 16  3  1  0
 13  9  1  0
  1 17  1  0
  1 18  1  0
  1 19  1  0
  4 20  1  0
  5 21  1  0
  7 22  1  0
  7 23  1  0
 11 24  1  0
 12 25  1  0
 14 26  1  0
 14 27  1  0
 14 28  1  0
 15 29  1  0
 16 30  1  0
M  CHG  1  11   1
M  END
>  <UniqueID>  (11) 
11

>  <SMILES>  (11) 
COc1ccc(CSc2n[nH+]cn2C)cc1

>  <Energy>  (11) 
58.99889309761398

>  <Genealogy>  (11) 
COc1ccc(CSc2n[nH+]cn2C)cc1 (protonated)
COc1ccc(CSc2n[nH+]cn2C)cc1 (3D coordinates assigned)
COc1ccc(CSc2n[nH+]cn2C)cc1 (optimized conformer: 58.99889309761398 kcal/mol)

>  <smiles>  (11) 
COc1ccc(CSc2nncn2C)cc1

>  <score_type>  (11) 
oracle

>  <origin>  (11) 
adg

>  <m_score__min__energy>  (11) 
-6.4800000000000004

>  <m_primary>  (11) 
energy

$$$$
11:0
     RDKit          3D

 53 57  0  0  0  0  0  0  0  0999 V2000
   -5.4120   13.4790  -34.6720 C   0  0  0  0  0  0  0  0  0  0  0  0
   -5.4810   14.5360  -33.6710 N   0  0  0  0  0  0  0  0  0  0  0  0
   -6.2440   15.6430  -33.7400 C   0  0  0  0  0  0  0  0  0  0  0  0
   -5.9580   16.4330  -32.6400 C   0  0  0  0  0  0  0  0  0  0  0  0
   -6.5670   17.7410  -32.3180 C   0  0  0  0  0  0  0  0  0  0  0  0
   -6.0000   18.9490  -32.7750 C   0  0  0  0  0  0  0  0  0  0  0  0
   -6.6120   20.1590  -32.4190 C   0  0  0  0  0  0  0  0  0  0  0  0
   -7.7840   20.1390  -31.6890 C   0  0  0  0  0  0  0  0  0  0  0  0
   -8.3320   18.9410  -31.2460 C   0  0  0  0  0  0  0  0  0  0  0  0
   -7.7100   17.7740  -31.5690 N   0  0  0  0  0  0  0  0  0  0  0  0
   -8.4060   21.7270  -31.3960 S   0  0  0  0  0  0  0  0  0  0  0  0
   -9.5590   22.0520  -32.3040 O   0  0  0  0  0  0  0  0  0  0  0  0
   -8.7560   21.9580  -29.9530 O   0  0  0  0  0  0  0  0  0  0  0  0
   -6.8990   22.5480  -31.9050 C   0  0  1  0  0  0  0  0  0  0  0  0
   -6.0380   22.8330  -30.6520 C   0  0  0  0  0  0  0  0  0  0  0  0
   -4.6320   23.0430  -31.0000 N   0  0  0  0  0  0  0  0  0  0  0  0
   -3.8300   23.9470  -30.2180 C   0  0  0  0  0  0  0  0  0  0  0  0
   -3.8650   25.1850  -30.4610 O   0  0  0  0  0  0  0  0  0  0  0  0
   -2.9950   23.4580  -29.1540 N   0  0  0  0  0  0  0  0  0  0  0  0
   -2.6700   24.3310  -28.0230 C   0  0  0  0  0  0  0  0  0  0  0  0
   -2.3430   23.4790  -26.7920 C   0  0  0  0  0  0  0  0  0  0  0  0
   -1.3530   22.5130  -27.0960 O   0  0  0  0  0  0  0  0  0  0  0  0
   -1.8550   21.5940  -28.0490 C   0  0  0  0  0  0  0  0  0  0  0  0
   -2.1330   22.2950  -29.3810 C   0  0  0  0  0  0  0  0  0  0  0  0
   -3.9780   21.9940  -31.7840 C   0  0  0  0  0  0  0  0  0  0  0  0
   -4.7230   21.8060  -33.1000 C   0  0  0  0  0  0  0  0  0  0  0  0
   -6.2280   21.5450  -32.8910 C   0  0  1  0  0  0  0  0  0  0  0  0
   -4.9840   15.7390  -31.9350 C   0  0  0  0  0  0  0  0  0  0  0  0
   -4.7150   14.5970  -32.5950 N   0  0  0  0  0  0  0  0  0  0  0  0
   -5.3482   12.5023  -34.1701 H   0  0  0  0  0  0  0  0  0  0  0  0
   -6.3141   13.5100  -35.3007 H   0  0  0  0  0  0  0  0  0  0  0  0
   -4.5216   13.6270  -35.3007 H   0  0  0  0  0  0  0  0  0  0  0  0
   -6.9690   15.8788  -34.5330 H   0  0  0  0  0  0  0  0  0  0  0  0
   -5.0943   18.9418  -33.3992 H   0  0  0  0  0  0  0  0  0  0  0  0
   -9.2529   18.9359  -30.6444 H   0  0  0  0  0  0  0  0  0  0  0  0
   -7.0530   23.5210  -32.3944 H   0  0  0  0  0  0  0  0  0  0  0  0
   -6.4210   23.7358  -30.1537 H   0  0  0  0  0  0  0  0  0  0  0  0
   -6.1006   21.9598  -29.9860 H   0  0  0  0  0  0  0  0  0  0  0  0
   -1.7997   24.9530  -28.2792 H   0  0  0  0  0  0  0  0  0  0  0  0
   -3.5323   24.9769  -27.8011 H   0  0  0  0  0  0  0  0  0  0  0  0
   -1.9734   24.1333  -25.9887 H   0  0  0  0  0  0  0  0  0  0  0  0
   -3.2571   22.9575  -26.4719 H   0  0  0  0  0  0  0  0  0  0  0  0
   -1.1135   20.7972  -28.2080 H   0  0  0  0  0  0  0  0  0  0  0  0
   -2.7959   21.1689  -27.6695 H   0  0  0  0  0  0  0  0  0  0  0  0
   -1.1828   22.6250  -29.8263 H   0  0  0  0  0  0  0  0  0  0  0  0
   -2.6364   21.5950  -30.0641 H   0  0  0  0  0  0  0  0  0  0  0  0
   -2.9373   22.2847  -31.9898 H   0  0  0  0  0  0  0  0  0  0  0  0
   -3.9895   21.0511  -31.2176 H   0  0  0  0  0  0  0  0  0  0  0  0
   -4.6031   22.7155  -33.7069 H   0  0  0  0  0  0  0  0  0  0  0  0
   -4.2967   20.9261  -33.6041 H   0  0  0  0  0  0  0  0  0  0  0  0
   -6.5987   21.6755  -33.9184 H   0  0  0  0  0  0  0  0  0  0  0  0
   -4.5123   16.0665  -30.9968 H   0  0  0  0  0  0  0  0  0  0  0  0
   -4.0100   13.8770  -32.3170 H   0  0  0  0  0  0  0  0  0  0  0  0
  1  2  1  0
  2  3  1  0
  3  4  2  0
  4  5  1  0
  5  6  2  0
  6  7  1  0
  7  8  2  0
  8  9  1  0
  9 10  2  0
  8 11  1  0
 11 12  2  0
 11 13  2  0
 11 14  1  0
 14 15  1  0
 15 16  1  0
 16 17  1  0
 17 18  2  0
 17 19  1  0
 19 20  1  0
 20 21  1  0
 21 22  1  0
 22 23  1  0
 23 24  1  0
 16 25  1  0
 25 26  1  0
 26 27  1  0
  4 28  1  0
 28 29  2  0
 29  2  1  0
 10  5  1  0
 27 14  1  0
 27  7  1  0
 24 19  1  0
  1 30  1  0
  1 31  1  0
  1 32  1  0
  3 33  1  0
  6 34  1  0
  9 35  1  0
 14 36  1  6
 15 37  1  0
 15 38  1  0
 20 39  1  0
 20 40  1  0
 21 41  1  0
 21 42  1  0
 23 43  1  0
 23 44  1  0
 24 45  1  0
 24 46  1  0
 25 47  1  0
 25 48  1  0
 26 49  1  0
 26 50  1  0
 27 51  1  6
 28 52  1  0
 29 53  1  0
M  CHG  1  29   1
M  END
>  <UniqueID>  (12) 
12

>  <SMILES>  (12) 
Cn1cc(-c2cc3c(cn2)S(=O)(=O)[C@H]2CN(C(=O)N4CCOCC4)CC[C@@H]32)c[nH+]1

>  <Energy>  (12) 
105.74231577097603

>  <Genealogy>  (12) 
Cn1cc(-c2cc3c(cn2)S(=O)(=O)C2CN(C(=O)N4CCOCC4)CCC32)c[nH+]1 (protonated)
Cn1cc(-c2cc3c(cn2)S(=O)(=O)[C@H]2CN(C(=O)N4CCOCC4)CC[C@@H]32)c[nH+]1 (chirality)
Cn1cc(-c2cc3c(cn2)S(=O)(=O)[C@H]2CN(C(=O)N4CCOCC4)CC[C@@H]32)c[nH+]1 (3D coordinates assigned)
Cn1cc(-c2cc3c(cn2)S(=O)(=O)[C@H]2CN(C(=O)N4CCOCC4)CC[C@@H]32)c[nH+]1 (nonaromatic ring conformer: 105.74231577097603 kcal/mol)

>  <smiles>  (12) 
Cn1cc(-c2cc3c(cn2)S(=O)(=O)C2CN(C(=O)N4CCOCC4)CCC32)cn1

>  <score_type>  (12) 
oracle

>  <origin>  (12) 
adg

>  <m_score__min__energy>  (12) 
-9.1099999999999994

>  <m_primary>  (12) 
energy

$$$$
12:0
     RDKit          3D

 29 30  0  0  0  0  0  0  0  0999 V2000
   -6.4280   24.9270  -30.1050 C   0  0  0  0  0  0  0  0  0  0  0  0
   -5.3450   23.9580  -31.1990 S   0  0  0  0  0  0  0  0  0  0  0  0
   -6.6410   22.8000  -31.6450 C   0  0  0  0  0  0  0  0  0  0  0  0
   -7.9810   23.1400  -31.4380 C   0  0  0  0  0  0  0  0  0  0  0  0
   -8.9800   22.2310  -31.7870 C   0  0  0  0  0  0  0  0  0  0  0  0
   -8.6330   20.9980  -32.3390 C   0  0  0  0  0  0  0  0  0  0  0  0
   -7.2800   20.6900  -32.5430 C   0  0  0  0  0  0  0  0  0  0  0  0
   -6.9010   19.4180  -33.0980 N   0  0  0  0  0  0  0  0  0  0  0  0
   -6.1070   19.4190  -34.2100 C   0  0  0  0  0  0  0  0  0  0  0  0
   -5.6850   18.2210  -34.7870 C   0  0  0  0  0  0  0  0  0  0  0  0
   -6.0840   17.0130  -34.2210 C   0  0  0  0  0  0  0  0  0  0  0  0
   -6.9060   17.0140  -33.0960 C   0  0  0  0  0  0  0  0  0  0  0  0
   -7.3310   18.2320  -32.5430 C   0  0  0  0  0  0  0  0  0  0  0  0
   -8.2380   18.2050  -31.3380 C   0  0  0  0  0  0  0  0  0  0  0  0
   -6.3190   21.5890  -32.1810 N   0  0  0  0  0  0  0  0  0  0  0  0
   -6.1815   24.7064  -29.0559 H   0  0  0  0  0  0  0  0  0  0  0  0
   -6.2799   25.9996  -30.2987 H   0  0  0  0  0  0  0  0  0  0  0  0
   -7.4776   24.6610  -30.2987 H   0  0  0  0  0  0  0  0  0  0  0  0
   -8.2453   24.1155  -31.0038 H   0  0  0  0  0  0  0  0  0  0  0  0
  -10.0381   22.4859  -31.6274 H   0  0  0  0  0  0  0  0  0  0  0  0
   -9.4140   20.2731  -32.6121 H   0  0  0  0  0  0  0  0  0  0  0  0
   -5.7969   20.3757  -34.6555 H   0  0  0  0  0  0  0  0  0  0  0  0
   -5.0433   18.2306  -35.6804 H   0  0  0  0  0  0  0  0  0  0  0  0
   -5.7514   16.0611  -34.6606 H   0  0  0  0  0  0  0  0  0  0  0  0
   -7.2211   16.0627  -32.6424 H   0  0  0  0  0  0  0  0  0  0  0  0
   -7.6304   18.2231  -30.4212 H   0  0  0  0  0  0  0  0  0  0  0  0
   -8.8992   19.0839  -31.3570 H   0  0  0  0  0  0  0  0  0  0  0  0
   -8.8458   17.2884  -31.3570 H   0  0  0  0  0  0  0  0  0  0  0  0
   -5.3140   21.3490  -32.3300 H   0  0  0  0  0  0  0  0  0  0  0  0
  1  2  1  0
  2  3  1  0
  3  4  2  0
  4  5  1  0
  5  6  2  0
  6  7  1  0
  7  8  1  0
  8  9  2  0
  9 10  1  0
 10 11  2  0
 11 12  1  0
 12 13  2  0
 13 14  1  0
  7 15  2  0
 15  3  1  0
 13  8  1  0
  1 16  1  0
  1 17  1  0
  1 18  1  0
  4 19  1  0
  5 20  1  0
  6 21  1  0
  9 22  1  0
 10 23  1  0
 11 24  1  0
 12 25  1  0
 14 26  1  0
 14 27  1  0
 14 28  1  0
 15 29  1  0
M  CHG  2   8   1  15   1
M  END
>  <UniqueID>  (13) 
13

>  <SMILES>  (13) 
CSc1cccc(-[n+]2ccccc2C)[nH+]1

>  <Energy>  (13) 
33.49171499609083

>  <Genealogy>  (13) 
CSc1cccc(-[n+]2ccccc2C)[nH+]1 (protonated)
CSc1cccc(-[n+]2ccccc2C)[nH+]1 (3D coordinates assigned)
CSc1cccc(-[n+]2ccccc2C)[nH+]1 (optimized conformer: 33.49171499609083 kcal/mol)

>  <smiles>  (13) 
CSc1cccc(-[n+]2ccccc2C)n1

>  <score_type>  (13) 
oracle

>  <origin>  (13) 
adg

>  <m_score__min__energy>  (13) 
-5.5599999999999996

>  <m_primary>  (13) 
energy

$$$$
13:0
     RDKit          3D

 41 44  0  0  0  0  0  0  0  0999 V2000
   -9.8420   18.3700  -31.9530 F   0  0  0  0  0  0  0  0  0  0  0  0
   -8.5370   18.6530  -32.1840 C   0  0  0  0  0  0  0  0  0  0  0  0
   -7.5370   17.8580  -31.6190 C   0  0  0  0  0  0  0  0  0  0  0  0
   -6.1900   18.1460  -31.8570 C   0  0  0  0  0  0  0  0  0  0  0  0
   -5.8280   19.2430  -32.6590 C   0  0  0  0  0  0  0  0  0  0  0  0
   -4.4090   19.5710  -32.9350 C   0  0  0  0  0  0  0  0  0  0  0  0
   -3.6130   18.7870  -33.7030 N   0  0  0  0  0  0  0  0  0  0  0  0
   -2.4550   19.4750  -33.7800 C   0  0  0  0  0  0  0  0  0  0  0  0
   -1.3340   19.0910  -34.5100 C   0  0  0  0  0  0  0  0  0  0  0  0
   -0.2440   19.9770  -34.5510 C   0  0  0  0  0  0  0  0  0  0  0  0
    1.1950   19.5520  -35.4590 Cl  0  0  0  0  0  0  0  0  0  0  0  0
   -0.3160   21.2170  -33.8890 C   0  0  0  0  0  0  0  0  0  0  0  0
   -1.4730   21.5520  -33.1720 C   0  0  0  0  0  0  0  0  0  0  0  0
   -2.4850   20.6470  -33.1200 N   0  0  0  0  0  0  0  0  0  0  0  0
   -3.7030   20.7110  -32.5550 C   0  0  0  0  0  0  0  0  0  0  0  0
   -4.2260   21.8540  -31.8670 N   0  0  0  0  0  0  0  0  0  0  0  0
   -5.4110   22.5560  -32.3660 C   0  0  0  0  0  0  0  0  0  0  0  0
   -5.6020   23.9180  -31.6880 C   0  0  1  0  0  0  0  0  0  0  0  0
   -6.8010   23.9410  -30.7530 C   0  0  0  0  0  0  0  0  0  0  0  0
   -6.3860   24.9350  -29.7160 C   0  0  0  0  0  0  0  0  0  0  0  0
   -4.8710   24.8420  -29.7380 C   0  0  0  0  0  0  0  0  0  0  0  0
   -4.4490   24.2360  -30.9390 O   0  0  0  0  0  0  0  0  0  0  0  0
   -6.8440   20.0260  -33.2380 C   0  0  0  0  0  0  0  0  0  0  0  0
   -8.1890   19.7350  -32.9970 C   0  0  0  0  0  0  0  0  0  0  0  0
   -7.8105   17.0021  -30.9844 H   0  0  0  0  0  0  0  0  0  0  0  0
   -5.4086   17.5108  -31.4144 H   0  0  0  0  0  0  0  0  0  0  0  0
   -1.3023   18.1261  -35.0373 H   0  0  0  0  0  0  0  0  0  0  0  0
    0.5300   21.9186  -33.9340 H   0  0  0  0  0  0  0  0  0  0  0  0
   -1.5594   22.5238  -32.6639 H   0  0  0  0  0  0  0  0  0  0  0  0
   -3.5460   22.4160  -31.3070 H   0  0  0  0  0  0  0  0  0  0  0  0
   -5.3014   22.7113  -33.4495 H   0  0  0  0  0  0  0  0  0  0  0  0
   -6.2920   21.9377  -32.1388 H   0  0  0  0  0  0  0  0  0  0  0  0
   -5.7759   24.6538  -32.4870 H   0  0  0  0  0  0  0  0  0  0  0  0
   -7.7087   24.2714  -31.2792 H   0  0  0  0  0  0  0  0  0  0  0  0
   -7.0513   22.9537  -30.3377 H   0  0  0  0  0  0  0  0  0  0  0  0
   -6.7235   25.9476  -29.9820 H   0  0  0  0  0  0  0  0  0  0  0  0
   -6.8176   24.7320  -28.7248 H   0  0  0  0  0  0  0  0  0  0  0  0
   -4.4417   25.8523  -29.6678 H   0  0  0  0  0  0  0  0  0  0  0  0
   -4.5311   24.2359  -28.8853 H   0  0  0  0  0  0  0  0  0  0  0  0
   -6.5769   20.8741  -33.8856 H   0  0  0  0  0  0  0  0  0  0  0  0
   -8.9752   20.3585  -33.4478 H   0  0  0  0  0  0  0  0  0  0  0  0
  1  2  1  0
  2  3  2  0
  3  4  1  0
  4  5  2  0
  5  6  1  0
  6  7  1  0
  7  8  2  0
  8  9  1  0
  9 10  2  0
 10 11  1  0
 10 12  1  0
 12 13  2  0
 13 14  1  0
 14 15  1  0
 15 16  1  0
 16 17  1  0
 17 18  1  0
 18 19  1  0
 19 20  1  0
 20 21  1  0
 21 22  1  0
  5 23  1  0
 23 24  2  0
 24  2  1  0
 15  6  2  0
 22 18  1  0
 14  8  1  0
  3 25  1  0
  4 26  1  0
  9 27  1  0
 12 28  1  0
 13 29  1  0
 16 30  1  0
 17 31  1  0
 17 32  1  0
 18 33  1  6
 19 34  1  0
 19 35  1  0
 20 36  1  0
 20 37  1  0
 21 38  1  0
 21 39  1  0
 23 40  1  0
 24 41  1  0
M  END
>  <UniqueID>  (14) 
14

>  <SMILES>  (14) 
Fc1ccc(-c2nc3cc(Cl)ccn3c2NC[C@H]2CCCO2)cc1

>  <Energy>  (14) 
88.67390670451647

>  <Genealogy>  (14) 
Fc1ccc(-c2nc3cc(Cl)ccn3c2NC[C@H]2CCCO2)cc1 (chirality)
Fc1ccc(-c2nc3cc(Cl)ccn3c2NC[C@H]2CCCO2)cc1 (3D coordinates assigned)
Fc1ccc(-c2nc3cc(Cl)ccn3c2NC[C@H]2CCCO2)cc1 (nonaromatic ring conformer: 88.67390670451647 kcal/mol)

>  <smiles>  (14) 
Fc1ccc(-c2nc3cc(Cl)ccn3c2NCC2CCCO2)cc1

>  <score_type>  (14) 
oracle

>  <origin>  (14) 
adg

>  <m_score__min__energy>  (14) 
-8.6999999999999993

>  <m_primary>  (14) 
energy

$$$$
14:0
     RDKit          3D

 57 61  0  0  0  0  0  0  0  0999 V2000
   -1.7020   22.0460  -30.8290 C   0  0  0  0  0  0  0  0  0  0  0  0
   -1.7350   21.0440  -31.8850 N   0  0  0  0  0  0  0  0  0  0  0  0
   -1.4960   19.7290  -31.7260 C   0  0  0  0  0  0  0  0  0  0  0  0
   -1.6100   19.1300  -32.9630 C   0  0  0  0  0  0  0  0  0  0  0  0
   -1.4120   17.6830  -33.2840 C   0  0  0  0  0  0  0  0  0  0  0  0
   -2.6870   16.9670  -33.1950 N   0  0  0  0  0  0  0  0  0  0  0  0
   -3.9650   17.6260  -32.9190 C   0  0  0  0  0  0  0  0  0  0  0  0
   -5.0210   16.4820  -32.7040 C   0  0  0  0  0  0  0  0  0  0  0  0
   -6.0740   16.4560  -33.8450 C   0  0  0  0  0  0  0  0  0  0  0  0
   -7.2180   17.4710  -33.6240 C   0  0  0  0  0  0  0  0  0  0  0  0
   -6.8510   18.4620  -32.5960 N   0  0  0  0  0  0  0  0  0  0  0  0
   -7.7560   19.6340  -32.5600 C   0  0  0  0  0  0  0  0  0  0  0  0
   -7.0770   20.9260  -32.1580 C   0  0  0  0  0  0  0  0  0  0  0  0
   -5.6980   21.0980  -32.3580 C   0  0  0  0  0  0  0  0  0  0  0  0
   -5.0750   22.2980  -32.0000 C   0  0  0  0  0  0  0  0  0  0  0  0
   -5.8270   23.3430  -31.4520 C   0  0  0  0  0  0  0  0  0  0  0  0
   -5.1950   24.5900  -31.1140 C   0  0  0  0  0  0  0  0  0  0  0  0
   -4.6910   25.5960  -30.8440 N   0  0  0  0  0  0  0  0  0  0  0  0
   -7.2040   23.1820  -31.2580 C   0  0  0  0  0  0  0  0  0  0  0  0
   -7.8260   21.9800  -31.6100 C   0  0  0  0  0  0  0  0  0  0  0  0
   -6.6770   17.8300  -31.2720 C   0  0  0  0  0  0  0  0  0  0  0  0
   -5.7270   16.6110  -31.3340 C   0  0  0  0  0  0  0  0  0  0  0  0
   -4.1650   15.2480  -32.7500 C   0  0  0  0  0  0  0  0  0  0  0  0
   -4.5360   13.9150  -32.5570 C   0  0  0  0  0  0  0  0  0  0  0  0
   -3.5460   12.9280  -32.6510 C   0  0  0  0  0  0  0  0  0  0  0  0
   -2.2200   13.3010  -32.9340 C   0  0  0  0  0  0  0  0  0  0  0  0
   -1.8950   14.6130  -33.1190 N   0  0  0  0  0  0  0  0  0  0  0  0
   -2.8640   15.5680  -33.0270 C   0  0  0  0  0  0  0  0  0  0  0  0
   -1.9040   20.1550  -33.8430 C   0  0  0  0  0  0  0  0  0  0  0  0
   -1.9780   21.3150  -33.1580 N   0  0  0  0  0  0  0  0  0  0  0  0
   -1.7184   21.5466  -29.8490 H   0  0  0  0  0  0  0  0  0  0  0  0
   -0.7837   22.6446  -30.9201 H   0  0  0  0  0  0  0  0  0  0  0  0
   -2.5790   22.7037  -30.9201 H   0  0  0  0  0  0  0  0  0  0  0  0
   -1.2534   19.2232  -30.7798 H   0  0  0  0  0  0  0  0  0  0  0  0
   -1.0124   17.5884  -34.3045 H   0  0  0  0  0  0  0  0  0  0  0  0
   -0.7046   17.2483  -32.5624 H   0  0  0  0  0  0  0  0  0  0  0  0
   -3.8855   18.2447  -32.0129 H   0  0  0  0  0  0  0  0  0  0  0  0
   -4.2584   18.2869  -33.7479 H   0  0  0  0  0  0  0  0  0  0  0  0
   -5.5708   16.6940  -34.7938 H   0  0  0  0  0  0  0  0  0  0  0  0
   -6.5204   15.4508  -33.8623 H   0  0  0  0  0  0  0  0  0  0  0  0
   -7.4241   17.9930  -34.5701 H   0  0  0  0  0  0  0  0  0  0  0  0
   -8.1106   16.9257  -33.2836 H   0  0  0  0  0  0  0  0  0  0  0  0
   -8.1880   19.7680  -33.5627 H   0  0  0  0  0  0  0  0  0  0  0  0
   -8.5175   19.4239  -31.7945 H   0  0  0  0  0  0  0  0  0  0  0  0
   -5.1039   20.2840  -32.7990 H   0  0  0  0  0  0  0  0  0  0  0  0
   -3.9921   22.4204  -32.1495 H   0  0  0  0  0  0  0  0  0  0  0  0
   -7.7976   24.0022  -30.8280 H   0  0  0  0  0  0  0  0  0  0  0  0
   -8.9086   21.8593  -31.4567 H   0  0  0  0  0  0  0  0  0  0  0  0
   -6.2582   18.5720  -30.5762 H   0  0  0  0  0  0  0  0  0  0  0  0
   -7.6616   17.4773  -30.9310 H   0  0  0  0  0  0  0  0  0  0  0  0
   -4.9618   16.7194  -30.5512 H   0  0  0  0  0  0  0  0  0  0  0  0
   -6.3332   15.7057  -31.1828 H   0  0  0  0  0  0  0  0  0  0  0  0
   -5.5798   13.6469  -32.3366 H   0  0  0  0  0  0  0  0  0  0  0  0
   -3.8042   11.8688  -32.5045 H   0  0  0  0  0  0  0  0  0  0  0  0
   -1.4393   12.5295  -33.0067 H   0  0  0  0  0  0  0  0  0  0  0  0
   -0.9050   14.8580  -33.3320 H   0  0  0  0  0  0  0  0  0  0  0  0
   -2.0535   20.0428  -34.9270 H   0  0  0  0  0  0  0  0  0  0  0  0
  1  2  1  0
  2  3  1  0
  3  4  2  0
  4  5  1  0
  5  6  1  0
  6  7  1  0
  7  8  1  0
  8  9  1  0
  9 10  1  0
 10 11  1  0
 11 12  1  0
 12 13  1  0
 13 14  2  0
 14 15  1  0
 15 16  2  0
 16 17  1  0
 17 18  3  0
 16 19  1  0
 19 20  2  0
 11 21  1  0
 21 22  1  0
  8 23  1  0
 23 24  2  0
 24 25  1  0
 25 26  2  0
 26 27  1  0
 27 28  2  0
  4 29  1  0
 29 30  2  0
 30  2  1  0
 28  6  1  0
 22  8  1  0
 28 23  1  0
 20 13  1  0
  1 31  1  0
  1 32  1  0
  1 33  1  0
  3 34  1  0
  5 35  1  0
  5 36  1  0
  7 37  1  0
  7 38  1  0
  9 39  1  0
  9 40  1  0
 10 41  1  0
 10 42  1  0
 12 43  1  0
 12 44  1  0
 14 45  1  0
 15 46  1  0
 19 47  1  0
 20 48  1  0
 21 49  1  0
 21 50  1  0
 22 51  1  0
 22 52  1  0
 24 53  1  0
 25 54  1  0
 26 55  1  0
 27 56  1  0
 29 57  1  0
M  CHG  1  27   1
M  END
>  <UniqueID>  (15) 
15

>  <SMILES>  (15) 
Cn1cc(CN2CC3(CCN(Cc4ccc(C#N)cc4)CC3)c3ccc[nH+]c32)cn1

>  <Energy>  (15) 
114.45527897858996

>  <Genealogy>  (15) 
Cn1cc(CN2CC3(CCN(Cc4ccc(C#N)cc4)CC3)c3ccc[nH+]c32)cn1 (protonated)
Cn1cc(CN2CC3(CCN(Cc4ccc(C#N)cc4)CC3)c3ccc[nH+]c32)cn1 (3D coordinates assigned)
Cn1cc(CN2CC3(CCN(Cc4ccc(C#N)cc4)CC3)c3ccc[nH+]c32)cn1 (nonaromatic ring conformer: 114.45527897858996 kcal/mol)

>  <smiles>  (15) 
Cn1cc(CN2CC3(CCN(Cc4ccc(C#N)cc4)CC3)c3cccnc32)cn1

>  <score_type>  (15) 
oracle

>  <origin>  (15) 
adg

>  <m_score__min__energy>  (15) 
-8.2300000000000004

>  <m_primary>  (15) 
energy

$$$$
15:0
     RDKit          3D

 45 48  0  0  0  0  0  0  0  0999 V2000
   -3.5840   20.1350  -33.5000 C   0  0  0  0  0  0  0  0  0  0  0  0
   -4.6220   20.2680  -32.5350 O   0  0  0  0  0  0  0  0  0  0  0  0
   -5.7400   19.4230  -32.4470 C   0  0  0  0  0  0  0  0  0  0  0  0
   -5.6550   18.0390  -32.6960 C   0  0  0  0  0  0  0  0  0  0  0  0
   -6.7960   17.2360  -32.6210 C   0  0  0  0  0  0  0  0  0  0  0  0
   -8.0310   17.8020  -32.3010 C   0  0  0  0  0  0  0  0  0  0  0  0
   -8.1280   19.1720  -32.0510 C   0  0  0  0  0  0  0  0  0  0  0  0
   -6.9870   19.9850  -32.1130 C   0  0  0  0  0  0  0  0  0  0  0  0
   -7.1040   21.3920  -31.8630 N   0  0  0  0  0  0  0  0  0  0  0  0
   -8.0590   21.8980  -30.8780 C   0  0  0  0  0  0  0  0  0  0  0  0
   -7.3410   22.8910  -29.9660 C   0  0  0  0  0  0  0  0  0  0  0  0
   -6.7030   24.0010  -30.7140 N   0  0  0  0  0  0  0  0  0  0  0  0
   -5.2400   24.5430  -29.9220 S   0  0  0  0  0  0  0  0  0  0  0  0
   -5.6020   25.3370  -28.6970 O   0  0  0  0  0  0  0  0  0  0  0  0
   -4.4780   25.4480  -30.8500 O   0  0  0  0  0  0  0  0  0  0  0  0
   -4.2130   23.1890  -29.4450 C   0  0  0  0  0  0  0  0  0  0  0  0
   -4.2580   22.6650  -28.1330 C   0  0  0  0  0  0  0  0  0  0  0  0
   -3.4550   21.5560  -27.7710 C   0  0  0  0  0  0  0  0  0  0  0  0
   -2.5920   20.9620  -28.7100 C   0  0  0  0  0  0  0  0  0  0  0  0
   -2.5660   21.5140  -29.9860 C   0  0  0  0  0  0  0  0  0  0  0  0
   -1.8550   21.1480  -31.0590 N   0  0  0  0  0  0  0  0  0  0  0  0
   -2.2020   21.9750  -32.0090 O   0  0  0  0  0  0  0  0  0  0  0  0
   -3.0930   22.8620  -31.6340 N   0  0  0  0  0  0  0  0  0  0  0  0
   -3.3320   22.5770  -30.3410 C   0  0  0  0  0  0  0  0  0  0  0  0
   -6.5020   23.7780  -32.1650 C   0  0  0  0  0  0  0  0  0  0  0  0
   -6.1830   22.3170  -32.5260 C   0  0  0  0  0  0  0  0  0  0  0  0
   -2.6193   20.0114  -32.9861 H   0  0  0  0  0  0  0  0  0  0  0  0
   -3.7795   19.2546  -34.1298 H   0  0  0  0  0  0  0  0  0  0  0  0
   -3.5512   21.0363  -34.1298 H   0  0  0  0  0  0  0  0  0  0  0  0
   -4.6847   17.5879  -32.9510 H   0  0  0  0  0  0  0  0  0  0  0  0
   -6.7208   16.1558  -32.8145 H   0  0  0  0  0  0  0  0  0  0  0  0
   -8.9284   17.1682  -32.2458 H   0  0  0  0  0  0  0  0  0  0  0  0
   -9.1038   19.6158  -31.8043 H   0  0  0  0  0  0  0  0  0  0  0  0
   -8.8900   22.4022  -31.3930 H   0  0  0  0  0  0  0  0  0  0  0  0
   -8.4608   21.0648  -30.2827 H   0  0  0  0  0  0  0  0  0  0  0  0
   -8.0732   23.3158  -29.2635 H   0  0  0  0  0  0  0  0  0  0  0  0
   -6.5436   22.3431  -29.4427 H   0  0  0  0  0  0  0  0  0  0  0  0
   -4.9231   23.1230  -27.3860 H   0  0  0  0  0  0  0  0  0  0  0  0
   -3.5065   21.1559  -26.7476 H   0  0  0  0  0  0  0  0  0  0  0  0
   -1.9646   20.0979  -28.4461 H   0  0  0  0  0  0  0  0  0  0  0  0
   -1.1680   20.3660  -31.1440 H   0  0  0  0  0  0  0  0  0  0  0  0
   -7.4207   24.0738  -32.6927 H   0  0  0  0  0  0  0  0  0  0  0  0
   -5.6331   24.3815  -32.4664 H   0  0  0  0  0  0  0  0  0  0  0  0
   -6.2698   22.1899  -33.6152 H   0  0  0  0  0  0  0  0  0  0  0  0
   -5.1609   22.0911  -32.1880 H   0  0  0  0  0  0  0  0  0  0  0  0
  1  2  1  0
  2  3  1  0
  3  4  2  0
  4  5  1  0
  5  6  2  0
  6  7  1  0
  7  8  2  0
  8  9  1  0
  9 10  1  0
 10 11  1  0
 11 12  1  0
 12 13  1  0
 13 14  2  0
 13 15  2  0
 13 16  1  0
 16 17  2  0
 17 18  1  0
 18 19  2  0
 19 20  1  0
 20 21  2  0
 21 22  1  0
 22 23  1  0
 23 24  2  0
 12 25  1  0
 25 26  1  0
  8  3  1  0
 26  9  1  0
 24 16  1  0
 24 20  1  0
  1 27  1  0
  1 28  1  0
  1 29  1  0
  4 30  1  0
  5 31  1  0
  6 32  1  0
  7 33  1  0
 10 34  1  0
 10 35  1  0
 11 36  1  0
 11 37  1  0
 17 38  1  0
 18 39  1  0
 19 40  1  0
 21 41  1  0
 25 42  1  0
 25 43  1  0
 26 44  1  0
 26 45  1  0
M  CHG  1  21   1
M  END
>  <UniqueID>  (16) 
16

>  <SMILES>  (16) 
COc1ccccc1N1CCN(S(=O)(=O)c2cccc3[nH+]onc23)CC1

>  <Energy>  (16) 
101.16722604998733

>  <Genealogy>  (16) 
COc1ccccc1N1CCN(S(=O)(=O)c2cccc3[nH+]onc23)CC1 (protonated)
COc1ccccc1N1CCN(S(=O)(=O)c2cccc3[nH+]onc23)CC1 (3D coordinates assigned)
COc1ccccc1N1CCN(S(=O)(=O)c2cccc3[nH+]onc23)CC1 (nonaromatic ring conformer: 101.16722604998733 kcal/mol)

>  <smiles>  (16) 
COc1ccccc1N1CCN(S(=O)(=O)c2cccc3nonc23)CC1

>  <score_type>  (16) 
oracle

>  <origin>  (16) 
adg

>  <m_score__min__energy>  (16) 
-9.3699999999999992

>  <m_primary>  (16) 
energy

$$$$
16:0
     RDKit          3D

 50 53  0  0  0  0  0  0  0  0999 V2000
   -0.8290   26.8540  -27.8380 C   0  0  0  0  0  0  0  0  0  0  0  0
   -0.8900   25.6200  -28.5460 O   0  0  0  0  0  0  0  0  0  0  0  0
   -0.7400   24.3540  -27.9580 C   0  0  0  0  0  0  0  0  0  0  0  0
    0.4290   23.9970  -27.2560 C   0  0  0  0  0  0  0  0  0  0  0  0
    0.5370   22.7430  -26.6520 C   0  0  0  0  0  0  0  0  0  0  0  0
   -0.5140   21.8310  -26.7400 C   0  0  0  0  0  0  0  0  0  0  0  0
   -1.6760   22.1680  -27.4370 C   0  0  0  0  0  0  0  0  0  0  0  0
   -1.7980   23.4230  -28.0570 C   0  0  0  0  0  0  0  0  0  0  0  0
   -3.0020   23.7480  -28.7790 N   0  0  0  0  0  0  0  0  0  0  0  0
   -3.0130   23.7800  -30.2460 C   0  0  0  0  0  0  0  0  0  0  0  0
   -4.3420   23.2160  -30.7630 C   0  0  0  0  0  0  0  0  0  0  0  0
   -5.5440   23.8610  -30.1590 N   0  0  0  0  0  0  0  0  0  0  0  0
   -6.3700   24.5860  -31.1530 C   0  0  0  0  0  0  0  0  0  0  0  0
   -6.4500   23.8040  -32.4700 C   0  0  0  0  0  0  0  0  0  0  0  0
   -6.8060   22.4050  -32.2480 N   0  0  0  0  0  0  0  0  0  0  0  0
   -8.0760   21.8960  -31.8330 C   0  0  0  0  0  0  0  0  0  0  0  0
   -9.0340   22.6110  -31.4380 O   0  0  0  0  0  0  0  0  0  0  0  0
   -8.0940   20.4420  -31.9620 C   0  0  0  0  0  0  0  0  0  0  0  0
   -9.1020   19.5180  -31.6960 C   0  0  0  0  0  0  0  0  0  0  0  0
   -8.8320   18.1590  -31.9410 C   0  0  0  0  0  0  0  0  0  0  0  0
   -7.5760   17.7580  -32.4450 C   0  0  0  0  0  0  0  0  0  0  0  0
   -6.5770   18.7120  -32.7110 C   0  0  0  0  0  0  0  0  0  0  0  0
   -6.8660   20.0500  -32.4550 C   0  0  0  0  0  0  0  0  0  0  0  0
   -6.0590   21.2510  -32.6420 C   0  0  0  0  0  0  0  0  0  0  0  0
   -4.8890   21.2870  -33.1040 O   0  0  0  0  0  0  0  0  0  0  0  0
   -5.2590   24.7120  -28.9810 C   0  0  0  0  0  0  0  0  0  0  0  0
   -4.2350   24.0590  -28.0480 C   0  0  0  0  0  0  0  0  0  0  0  0
   -0.8388   26.6567  -26.7559 H   0  0  0  0  0  0  0  0  0  0  0  0
    0.0965   27.3849  -28.1056 H   0  0  0  0  0  0  0  0  0  0  0  0
   -1.6976   27.4736  -28.1056 H   0  0  0  0  0  0  0  0  0  0  0  0
    1.2621   24.7116  -27.1836 H   0  0  0  0  0  0  0  0  0  0  0  0
    1.4530   22.4739  -26.1056 H   0  0  0  0  0  0  0  0  0  0  0  0
   -0.4277   20.8451  -26.2599 H   0  0  0  0  0  0  0  0  0  0  0  0
   -2.5026   21.4451  -27.5012 H   0  0  0  0  0  0  0  0  0  0  0  0
   -2.8973   24.8183  -30.5904 H   0  0  0  0  0  0  0  0  0  0  0  0
   -2.1828   23.1696  -30.6309 H   0  0  0  0  0  0  0  0  0  0  0  0
   -4.3805   23.3619  -31.8526 H   0  0  0  0  0  0  0  0  0  0  0  0
   -4.3716   22.1535  -30.4799 H   0  0  0  0  0  0  0  0  0  0  0  0
   -7.3850   24.7186  -30.7503 H   0  0  0  0  0  0  0  0  0  0  0  0
   -5.9056   25.5633  -31.3512 H   0  0  0  0  0  0  0  0  0  0  0  0
   -7.2118   24.2676  -33.1139 H   0  0  0  0  0  0  0  0  0  0  0  0
   -5.4591   23.8337  -32.9466 H   0  0  0  0  0  0  0  0  0  0  0  0
  -10.0788   19.8408  -31.3065 H   0  0  0  0  0  0  0  0  0  0  0  0
   -9.6054   17.4035  -31.7383 H   0  0  0  0  0  0  0  0  0  0  0  0
   -7.3770   16.6923  -32.6310 H   0  0  0  0  0  0  0  0  0  0  0  0
   -5.5970   18.4102  -33.1092 H   0  0  0  0  0  0  0  0  0  0  0  0
   -4.8622   25.6781  -29.3262 H   0  0  0  0  0  0  0  0  0  0  0  0
   -6.1959   24.8494  -28.4212 H   0  0  0  0  0  0  0  0  0  0  0  0
   -4.0033   24.7499  -27.2240 H   0  0  0  0  0  0  0  0  0  0  0  0
   -4.6592   23.1251  -27.6506 H   0  0  0  0  0  0  0  0  0  0  0  0
  1  2  1  0
  2  3  1  0
  3  4  2  0
  4  5  1  0
  5  6  2  0
  6  7  1  0
  7  8  2  0
  8  9  1  0
  9 10  1  0
 10 11  1  0
 11 12  1  0
 12 13  1  0
 13 14  1  0
 14 15  1  0
 15 16  1  0
 16 17  2  0
 16 18  1  0
 18 19  2  0
 19 20  1  0
 20 21  2  0
 21 22  1  0
 22 23  2  0
 23 24  1  0
 24 25  2  0
 12 26  1  0
 26 27  1  0
  8  3  1  0
 27  9  1  0
 24 15  1  0
 23 18  1  0
  1 28  1  0
  1 29  1  0
  1 30  1  0
  4 31  1  0
  5 32  1  0
  6 33  1  0
  7 34  1  0
 10 35  1  0
 10 36  1  0
 11 37  1  0
 11 38  1  0
 13 39  1  0
 13 40  1  0
 14 41  1  0
 14 42  1  0
 19 43  1  0
 20 44  1  0
 21 45  1  0
 22 46  1  0
 26 47  1  0
 26 48  1  0
 27 49  1  0
 27 50  1  0
M  END
>  <UniqueID>  (17) 
17

>  <SMILES>  (17) 
COc1ccccc1N1CCN(CCN2C(=O)c3ccccc3C2=O)CC1

>  <Energy>  (17) 
94.57957114012773

>  <Genealogy>  (17) 
COc1ccccc1N1CCN(CCN2C(=O)c3ccccc3C2=O)CC1 (3D coordinates assigned)
COc1ccccc1N1CCN(CCN2C(=O)c3ccccc3C2=O)CC1 (nonaromatic ring conformer: 94.57957114012773 kcal/mol)

>  <smiles>  (17) 
COc1ccccc1N1CCN(CCN2C(=O)c3ccccc3C2=O)CC1

>  <score_type>  (17) 
oracle

>  <origin>  (17) 
adg

>  <m_score__min__energy>  (17) 
-8.6099999999999994

>  <m_primary>  (17) 
energy

$$$$
17:0
     RDKit          3D

 38 40  0  0  0  0  0  0  0  0999 V2000
   -2.1800   21.1370  -28.5270 C   0  0  0  0  0  0  0  0  0  0  0  0
   -1.4640   21.7110  -27.3080 C   0  0  0  0  0  0  0  0  0  0  0  0
   -0.6890   22.8940  -27.6820 N   0  0  0  0  0  0  0  0  0  0  0  0
    0.6460   22.9750  -27.8250 C   0  0  0  0  0  0  0  0  0  0  0  0
    1.0160   24.1980  -28.2480 N   0  0  0  0  0  0  0  0  0  0  0  0
   -0.0910   24.9170  -28.3860 N   0  0  0  0  0  0  0  0  0  0  0  0
   -1.1210   24.1200  -28.0430 C   0  0  0  0  0  0  0  0  0  0  0  0
   -2.5560   24.5580  -28.0990 C   0  0  0  0  0  0  0  0  0  0  0  0
   -2.8270   25.2730  -29.3400 N   0  0  0  0  0  0  0  0  0  0  0  0
   -3.5140   24.6940  -30.4520 C   0  0  0  0  0  0  0  0  0  0  0  0
   -4.4700   25.3250  -30.9750 O   0  0  0  0  0  0  0  0  0  0  0  0
   -3.1190   23.4100  -30.9520 N   0  0  0  0  0  0  0  0  0  0  0  0
   -3.9490   22.4550  -31.6250 C   0  0  0  0  0  0  0  0  0  0  0  0
   -3.6990   21.9250  -32.8690 C   0  0  0  0  0  0  0  0  0  0  0  0
   -4.6910   21.0710  -33.1860 N   0  0  0  0  0  0  0  0  0  0  0  0
   -5.5480   21.0470  -32.1750 N   0  0  0  0  0  0  0  0  0  0  0  0
   -6.7670   20.2790  -32.1670 C   0  0  0  0  0  0  0  0  0  0  0  0
   -6.7080   18.8760  -32.2760 C   0  0  0  0  0  0  0  0  0  0  0  0
   -7.8760   18.1100  -32.2450 C   0  0  0  0  0  0  0  0  0  0  0  0
   -9.1170   18.7330  -32.1100 C   0  0  0  0  0  0  0  0  0  0  0  0
   -9.1940   20.1240  -32.0100 C   0  0  0  0  0  0  0  0  0  0  0  0
   -8.0300   20.9030  -32.0380 C   0  0  0  0  0  0  0  0  0  0  0  0
   -8.2070   22.6540  -31.9810 Cl  0  0  0  0  0  0  0  0  0  0  0  0
   -5.1350   21.8860  -31.2030 C   0  0  0  0  0  0  0  0  0  0  0  0
   -2.9985   20.4808  -28.1962 H   0  0  0  0  0  0  0  0  0  0  0  0
   -2.5906   21.9589  -29.1318 H   0  0  0  0  0  0  0  0  0  0  0  0
   -1.4670   20.5574  -29.1318 H   0  0  0  0  0  0  0  0  0  0  0  0
   -2.2089   21.9909  -26.5486 H   0  0  0  0  0  0  0  0  0  0  0  0
   -0.7804   20.9496  -26.9043 H   0  0  0  0  0  0  0  0  0  0  0  0
    1.3442   22.1495  -27.6227 H   0  0  0  0  0  0  0  0  0  0  0  0
   -3.2065   23.6727  -28.0426 H   0  0  0  0  0  0  0  0  0  0  0  0
   -2.7543   25.2311  -27.2518 H   0  0  0  0  0  0  0  0  0  0  0  0
   -2.8306   22.1601  -33.5019 H   0  0  0  0  0  0  0  0  0  0  0  0
   -5.7331   18.3787  -32.3866 H   0  0  0  0  0  0  0  0  0  0  0  0
   -7.8171   17.0147  -32.3271 H   0  0  0  0  0  0  0  0  0  0  0  0
  -10.0355   18.1283  -32.0823 H   0  0  0  0  0  0  0  0  0  0  0  0
  -10.1751   20.6110  -31.9086 H   0  0  0  0  0  0  0  0  0  0  0  0
   -5.6481   22.0812  -30.2498 H   0  0  0  0  0  0  0  0  0  0  0  0
  1  2  1  0
  2  3  1  0
  3  4  1  0
  4  5  2  0
  5  6  1  0
  6  7  2  0
  7  8  1  0
  8  9  1  0
  9 10  1  0
 10 11  2  0
 10 12  1  0
 12 13  1  0
 13 14  1  0
 14 15  2  0
 15 16  1  0
 16 17  1  0
 17 18  2  0
 18 19  1  0
 19 20  2  0
 20 21  1  0
 21 22  2  0
 22 23  1  0
 16 24  1  0
  7  3  1  0
 24 13  2  0
 22 17  1  0
  1 25  1  0
  1 26  1  0
  1 27  1  0
  2 28  1  0
  2 29  1  0
  4 30  1  0
  8 31  1  0
  8 32  1  0
 14 33  1  0
 18 34  1  0
 19 35  1  0
 20 36  1  0
 21 37  1  0
 24 38  1  0
M  CHG  2   9  -1  12  -1
M  END
>  <UniqueID>  (18) 
18

>  <SMILES>  (18) 
CCn1cnnc1C[N-]C(=O)[N-]c1cnn(-c2ccccc2Cl)c1

>  <Energy>  (18) 
105.54248275058279

>  <Genealogy>  (18) 
CCn1cnnc1C[N-]C(=O)[N-]c1cnn(-c2ccccc2Cl)c1 (protonated)
CCn1cnnc1C[N-]C(=O)[N-]c1cnn(-c2ccccc2Cl)c1 (3D coordinates assigned)
CCn1cnnc1C[N-]C(=O)[N-]c1cnn(-c2ccccc2Cl)c1 (optimized conformer: 105.54248275058279 kcal/mol)

>  <smiles>  (18) 
CCn1cnnc1CNC(=O)Nc1cnn(-c2ccccc2Cl)c1

>  <score_type>  (18) 
oracle

>  <origin>  (18) 
adg

>  <m_score__min__energy>  (18) 
-11.699999999999999

>  <m_primary>  (18) 
energy

$$$$
18:0
     RDKit          3D

 33 35  0  0  0  0  0  0  0  0999 V2000
   -6.8470   15.7990  -34.2210 C   0  0  0  0  0  0  0  0  0  0  0  0
   -6.3380   17.1100  -33.6960 C   0  0  0  0  0  0  0  0  0  0  0  0
   -4.9920   17.4630  -33.8690 C   0  0  0  0  0  0  0  0  0  0  0  0
   -4.5200   18.6970  -33.4130 C   0  0  0  0  0  0  0  0  0  0  0  0
   -5.3910   19.5980  -32.7930 C   0  0  0  0  0  0  0  0  0  0  0  0
   -4.9310   20.7680  -32.3640 O   0  0  0  0  0  0  0  0  0  0  0  0
   -5.6960   21.6790  -31.7630 C   0  0  0  0  0  0  0  0  0  0  0  0
   -5.1000   22.9220  -31.3310 N   0  0  0  0  0  0  0  0  0  0  0  0
   -3.6690   22.9470  -31.0070 C   0  0  0  0  0  0  0  0  0  0  0  0
   -3.3650   24.0720  -30.0140 C   0  0  0  0  0  0  0  0  0  0  0  0
   -3.8950   25.3010  -30.4720 O   0  0  0  0  0  0  0  0  0  0  0  0
   -5.3060   25.2290  -30.4830 C   0  0  0  0  0  0  0  0  0  0  0  0
   -5.7940   24.2040  -31.5130 C   0  0  0  0  0  0  0  0  0  0  0  0
   -7.0650   21.4130  -31.5750 C   0  0  0  0  0  0  0  0  0  0  0  0
   -7.5950   20.1970  -32.0090 C   0  0  0  0  0  0  0  0  0  0  0  0
   -8.8220   19.9580  -31.8420 O   0  0  0  0  0  0  0  0  0  0  0  0
   -6.7520   19.2610  -32.6280 C   0  0  0  0  0  0  0  0  0  0  0  0
   -7.2210   18.0180  -33.0890 C   0  0  0  0  0  0  0  0  0  0  0  0
   -7.1026   15.1407  -33.3776 H   0  0  0  0  0  0  0  0  0  0  0  0
   -7.7429   15.9729  -34.8350 H   0  0  0  0  0  0  0  0  0  0  0  0
   -6.0684   15.3228  -34.8350 H   0  0  0  0  0  0  0  0  0  0  0  0
   -4.3033   16.7644  -34.3667 H   0  0  0  0  0  0  0  0  0  0  0  0
   -3.4598   18.9602  -33.5423 H   0  0  0  0  0  0  0  0  0  0  0  0
   -3.3816   21.9832  -30.5616 H   0  0  0  0  0  0  0  0  0  0  0  0
   -3.0976   23.1227  -31.9304 H   0  0  0  0  0  0  0  0  0  0  0  0
   -3.8143   23.8255  -29.0407 H   0  0  0  0  0  0  0  0  0  0  0  0
   -2.2739   24.1721  -29.9167 H   0  0  0  0  0  0  0  0  0  0  0  0
   -5.6591   24.9321  -29.4844 H   0  0  0  0  0  0  0  0  0  0  0  0
   -5.7060   26.2172  -30.7542 H   0  0  0  0  0  0  0  0  0  0  0  0
   -6.8760   24.0511  -31.3870 H   0  0  0  0  0  0  0  0  0  0  0  0
   -5.5801   24.5844  -32.5227 H   0  0  0  0  0  0  0  0  0  0  0  0
   -7.7126   22.1580  -31.0896 H   0  0  0  0  0  0  0  0  0  0  0  0
   -8.2831   17.7559  -32.9738 H   0  0  0  0  0  0  0  0  0  0  0  0
  1  2  1  0
  2  3  2  0
  3  4  1  0
  4  5  2  0
  5  6  1  0
  6  7  1  0
  7  8  1  0
  8  9  1  0
  9 10  1  0
 10 11  1  0
 11 12  1  0
 12 13  1  0
  7 14  2  0
 14 15  1  0
 15 16  2  0
 15 17  1  0
 17 18  2  0
 18  2  1  0
 17  5  1  0
 13  8  1  0
  1 19  1  0
  1 20  1  0
  1 21  1  0
  3 22  1  0
  4 23  1  0
  9 24  1  0
  9 25  1  0
 10 26  1  0
 10 27  1  0
 12 28  1  0
 12 29  1  0
 13 30  1  0
 13 31  1  0
 14 32  1  0
 18 33  1  0
M  END
>  <UniqueID>  (19) 
19

>  <SMILES>  (19) 
Cc1ccc2oc(N3CCOCC3)cc(=O)c2c1

>  <Energy>  (19) 
42.33996789054337

>  <Genealogy>  (19) 
Cc1ccc2oc(N3CCOCC3)cc(=O)c2c1 (3D coordinates assigned)
Cc1ccc2oc(N3CCOCC3)cc(=O)c2c1 (nonaromatic ring conformer: 42.33996789054337 kcal/mol)

>  <smiles>  (19) 
Cc1ccc2oc(N3CCOCC3)cc(=O)c2c1

>  <score_type>  (19) 
oracle

>  <origin>  (19) 
adg

>  <m_score__min__energy>  (19) 
-7.4699999999999998

>  <m_primary>  (19) 
energy

$$$$
19:0
     RDKit          3D

 37 39  0  0  0  0  0  0  0  0999 V2000
   -6.2540   12.9880  -34.6900 C   0  0  0  0  0  0  0  0  0  0  0  0
   -5.3070   14.0520  -34.6650 O   0  0  0  0  0  0  0  0  0  0  0  0
   -5.5870   15.3510  -34.2150 C   0  0  0  0  0  0  0  0  0  0  0  0
   -6.8800   15.7580  -33.8400 C   0  0  0  0  0  0  0  0  0  0  0  0
   -7.1080   17.0640  -33.3970 C   0  0  0  0  0  0  0  0  0  0  0  0
   -6.0520   17.9890  -33.3240 C   0  0  0  0  0  0  0  0  0  0  0  0
   -6.2900   19.3780  -32.8560 C   0  0  0  0  0  0  0  0  0  0  0  0
   -7.5170   20.0310  -32.9940 C   0  0  0  0  0  0  0  0  0  0  0  0
   -7.3580   21.5710  -32.3420 S   0  0  0  0  0  0  0  0  0  0  0  0
   -5.7450   21.3650  -31.9040 C   0  0  0  0  0  0  0  0  0  0  0  0
   -4.9030   22.3900  -31.2400 C   0  0  0  0  0  0  0  0  0  0  0  0
   -5.4320   23.6590  -30.9420 C   0  0  0  0  0  0  0  0  0  0  0  0
   -4.6450   24.6300  -30.3160 C   0  0  0  0  0  0  0  0  0  0  0  0
   -3.3100   24.3490  -29.9710 C   0  0  0  0  0  0  0  0  0  0  0  0
   -2.4800   25.2890  -29.3430 O   0  0  0  0  0  0  0  0  0  0  0  0
   -1.7780   25.0540  -28.1260 C   0  0  0  0  0  0  0  0  0  0  0  0
   -2.7840   23.0860  -30.2610 C   0  0  0  0  0  0  0  0  0  0  0  0
   -3.5690   22.1140  -30.8880 C   0  0  0  0  0  0  0  0  0  0  0  0
   -5.3210   20.1270  -32.2540 N   0  0  0  0  0  0  0  0  0  0  0  0
   -4.7620   17.5770  -33.7010 C   0  0  0  0  0  0  0  0  0  0  0  0
   -4.5360   16.2700  -34.1410 C   0  0  0  0  0  0  0  0  0  0  0  0
   -6.5098   12.7006  -33.6595 H   0  0  0  0  0  0  0  0  0  0  0  0
   -7.1626   13.3181  -35.2149 H   0  0  0  0  0  0  0  0  0  0  0  0
   -5.8208   12.1238  -35.2149 H   0  0  0  0  0  0  0  0  0  0  0  0
   -7.7159   15.0451  -33.8956 H   0  0  0  0  0  0  0  0  0  0  0  0
   -8.1226   17.3706  -33.1029 H   0  0  0  0  0  0  0  0  0  0  0  0
   -8.4263   19.6112  -33.4490 H   0  0  0  0  0  0  0  0  0  0  0  0
   -6.4752   23.8894  -31.2042 H   0  0  0  0  0  0  0  0  0  0  0  0
   -5.0715   25.6189  -30.0919 H   0  0  0  0  0  0  0  0  0  0  0  0
   -2.4375   25.2748  -27.2738 H   0  0  0  0  0  0  0  0  0  0  0  0
   -1.4623   24.0012  -28.0822 H   0  0  0  0  0  0  0  0  0  0  0  0
   -0.8921   25.7046  -28.0822 H   0  0  0  0  0  0  0  0  0  0  0  0
   -1.7424   22.8552  -29.9931 H   0  0  0  0  0  0  0  0  0  0  0  0
   -3.1402   21.1252  -31.1080 H   0  0  0  0  0  0  0  0  0  0  0  0
   -4.3400   19.7940  -32.1260 H   0  0  0  0  0  0  0  0  0  0  0  0
   -3.9246   18.2884  -33.6493 H   0  0  0  0  0  0  0  0  0  0  0  0
   -3.5211   15.9612  -34.4320 H   0  0  0  0  0  0  0  0  0  0  0  0
  1  2  1  0
  2  3  1  0
  3  4  2  0
  4  5  1  0
  5  6  2  0
  6  7  1  0
  7  8  2  0
  8  9  1  0
  9 10  1  0
 10 11  1  0
 11 12  2  0
 12 13  1  0
 13 14  2  0
 14 15  1  0
 15 16  1  0
 14 17  1  0
 17 18  2  0
 10 19  2  0
  6 20  1  0
 20 21  2  0
 21  3  1  0
 19  7  1  0
 18 11  1  0
  1 22  1  0
  1 23  1  0
  1 24  1  0
  4 25  1  0
  5 26  1  0
  8 27  1  0
 12 28  1  0
 13 29  1  0
 16 30  1  0
 16 31  1  0
 16 32  1  0
 17 33  1  0
 18 34  1  0
 19 35  1  0
 20 36  1  0
 21 37  1  0
M  CHG  1  19   1
M  END
>  <UniqueID>  (20) 
20

>  <SMILES>  (20) 
COc1ccc(-c2csc(-c3ccc(OC)cc3)[nH+]2)cc1

>  <Energy>  (20) 
73.17613805056159

>  <Genealogy>  (20) 
COc1ccc(-c2csc(-c3ccc(OC)cc3)[nH+]2)cc1 (protonated)
COc1ccc(-c2csc(-c3ccc(OC)cc3)[nH+]2)cc1 (3D coordinates assigned)
COc1ccc(-c2csc(-c3ccc(OC)cc3)[nH+]2)cc1 (optimized conformer: 73.17613805056159 kcal/mol)

>  <smiles>  (20) 
COc1ccc(-c2csc(-c3ccc(OC)cc3)n2)cc1

>  <score_type>  (20) 
oracle

>  <origin>  (20) 
adg

>  <m_score__min__energy>  (20) 
-6.4500000000000002

>  <m_primary>  (20) 
energy

$$$$
20:0
     RDKit          3D

 52 53  0  0  0  0  0  0  0  0999 V2000
   -8.3790   19.0190  -31.5810 C   0  0  0  0  0  0  0  0  0  0  0  0
   -7.1000   18.3760  -32.0070 C   0  0  0  0  0  0  0  0  0  0  0  0
   -6.7800   17.0970  -31.7180 N   0  0  0  0  0  0  0  0  0  0  0  0
   -5.6450   16.8160  -32.3390 N   0  0  0  0  0  0  0  0  0  0  0  0
   -4.9930   15.5140  -32.2660 C   0  0  0  0  0  0  0  0  0  0  0  0
   -5.2430   17.8920  -33.0490 C   0  0  0  0  0  0  0  0  0  0  0  0
   -4.0890   17.9320  -33.9050 N   0  0  0  0  0  0  0  0  0  0  0  0
   -2.9270   18.7430  -33.5460 C   0  0  0  0  0  0  0  0  0  0  0  0
   -4.1760   17.3930  -35.2630 C   0  0  0  0  0  0  0  0  0  0  0  0
   -6.1440   18.9220  -32.8530 C   0  0  0  0  0  0  0  0  0  0  0  0
   -6.2080   20.2330  -33.5750 C   0  0  0  0  0  0  0  0  0  0  0  0
   -5.0380   21.0440  -33.2050 N   0  0  0  0  0  0  0  0  0  0  0  0
   -4.8010   21.0470  -31.7580 C   0  0  0  0  0  0  0  0  0  0  0  0
   -4.6580   22.4570  -31.2580 C   0  0  0  0  0  0  0  0  0  0  0  0
   -3.4980   23.1330  -30.8990 C   0  0  0  0  0  0  0  0  0  0  0  0
   -2.1050   22.5890  -30.9240 C   0  0  0  0  0  0  0  0  0  0  0  0
   -3.8090   24.3600  -30.4310 N   0  0  0  0  0  0  0  0  0  0  0  0
   -5.1260   24.4940  -30.4980 N   0  0  0  0  0  0  0  0  0  0  0  0
   -5.8410   25.6850  -30.0610 C   0  0  0  0  0  0  0  0  0  0  0  0
   -5.6670   23.3610  -30.9890 C   0  0  0  0  0  0  0  0  0  0  0  0
   -7.0750   23.1100  -31.1060 N   0  0  0  0  0  0  0  0  0  0  0  0
   -7.7620   23.4070  -32.3600 C   0  0  0  0  0  0  0  0  0  0  0  0
   -7.7590   22.3070  -30.0950 C   0  0  0  0  0  0  0  0  0  0  0  0
   -8.4287   19.0440  -30.4824 H   0  0  0  0  0  0  0  0  0  0  0  0
   -8.4217   20.0457  -31.9734 H   0  0  0  0  0  0  0  0  0  0  0  0
   -9.2286   18.4408  -31.9734 H   0  0  0  0  0  0  0  0  0  0  0  0
   -4.8523   15.2330  -31.2118 H   0  0  0  0  0  0  0  0  0  0  0  0
   -5.6205   14.7612  -32.7655 H   0  0  0  0  0  0  0  0  0  0  0  0
   -4.0143   15.5655  -32.7655 H   0  0  0  0  0  0  0  0  0  0  0  0
   -2.8444   18.8007  -32.4506 H   0  0  0  0  0  0  0  0  0  0  0  0
   -2.0171   18.2828  -33.9586 H   0  0  0  0  0  0  0  0  0  0  0  0
   -3.0451   19.7558  -33.9586 H   0  0  0  0  0  0  0  0  0  0  0  0
   -4.3511   16.3080  -35.2163 H   0  0  0  0  0  0  0  0  0  0  0  0
   -5.0078   17.8761  -35.7966 H   0  0  0  0  0  0  0  0  0  0  0  0
   -3.2345   17.5898  -35.7966 H   0  0  0  0  0  0  0  0  0  0  0  0
   -6.2051   20.0561  -34.6607 H   0  0  0  0  0  0  0  0  0  0  0  0
   -7.1301   20.7645  -33.2970 H   0  0  0  0  0  0  0  0  0  0  0  0
   -5.2120   22.0310  -33.5080 H   0  0  0  0  0  0  0  0  0  0  0  0
   -5.6496   20.5657  -31.2499 H   0  0  0  0  0  0  0  0  0  0  0  0
   -3.8735   20.4951  -31.5452 H   0  0  0  0  0  0  0  0  0  0  0  0
   -1.7474   22.4493  -29.8932 H   0  0  0  0  0  0  0  0  0  0  0  0
   -2.0983   21.6222  -31.4486 H   0  0  0  0  0  0  0  0  0  0  0  0
   -1.4449   23.2954  -31.4486 H   0  0  0  0  0  0  0  0  0  0  0  0
   -5.8608   25.7181  -28.9617 H   0  0  0  0  0  0  0  0  0  0  0  0
   -5.3311   26.5806  -30.4456 H   0  0  0  0  0  0  0  0  0  0  0  0
   -6.8712   25.6560  -30.4456 H   0  0  0  0  0  0  0  0  0  0  0  0
   -8.7519   23.8349  -32.1433 H   0  0  0  0  0  0  0  0  0  0  0  0
   -7.1694   24.1293  -32.9406 H   0  0  0  0  0  0  0  0  0  0  0  0
   -7.8822   22.4805  -32.9406 H   0  0  0  0  0  0  0  0  0  0  0  0
   -7.4653   22.6518  -29.0926 H   0  0  0  0  0  0  0  0  0  0  0  0
   -8.8470   22.4147  -30.2156 H   0  0  0  0  0  0  0  0  0  0  0  0
   -7.4796   21.2499  -30.2156 H   0  0  0  0  0  0  0  0  0  0  0  0
  1  2  1  0
  2  3  2  0
  3  4  1  0
  4  5  1  0
  4  6  1  0
  6  7  1  0
  7  8  1  0
  7  9  1  0
  6 10  2  0
 10 11  1  0
 11 12  1  0
 12 13  1  0
 13 14  1  0
 14 15  1  0
 15 16  1  0
 15 17  2  0
 17 18  1  0
 18 19  1  0
 18 20  1  0
 20 21  1  0
 21 22  1  0
 21 23  1  0
 10  2  1  0
 20 14  2  0
  1 24  1  0
  1 25  1  0
  1 26  1  0
  5 27  1  0
  5 28  1  0
  5 29  1  0
  8 30  1  0
  8 31  1  0
  8 32  1  0
  9 33  1  0
  9 34  1  0
  9 35  1  0
 11 36  1  0
 11 37  1  0
 12 38  1  0
 13 39  1  0
 13 40  1  0
 16 41  1  0
 16 42  1  0
 16 43  1  0
 19 44  1  0
 19 45  1  0
 19 46  1  0
 22 47  1  0
 22 48  1  0
 22 49  1  0
 23 50  1  0
 23 51  1  0
 23 52  1  0
M  END
>  <UniqueID>  (21) 
21

>  <SMILES>  (21) 
Cc1nn(C)c(N(C)C)c1CNCc1c(C)nn(C)c1N(C)C

>  <Energy>  (21) 
109.32029048786917

>  <Genealogy>  (21) 
Cc1nn(C)c(N(C)C)c1CNCc1c(C)nn(C)c1N(C)C (3D coordinates assigned)
Cc1nn(C)c(N(C)C)c1CNCc1c(C)nn(C)c1N(C)C (optimized conformer: 109.32029048786917 kcal/mol)

>  <smiles>  (21) 
Cc1nn(C)c(N(C)C)c1CNCc1c(C)nn(C)c1N(C)C

>  <score_type>  (21) 
oracle

>  <origin>  (21) 
adg

>  <m_score__min__energy>  (21) 
-7.0599999999999996

>  <m_primary>  (21) 
energy

$$$$
21:0
     RDKit          3D

 77 80  0  0  0  0  0  0  0  0999 V2000
   -0.5350   24.2000  -28.5530 C   0  0  0  0  0  0  0  0  0  0  0  0
   -0.5640   23.1490  -27.4500 C   0  0  0  0  0  0  0  0  0  0  0  0
   -2.0010   22.8280  -27.0260 C   0  0  0  0  0  0  0  0  0  0  0  0
   -2.7940   22.4150  -28.1920 N   0  0  0  0  0  0  0  0  0  0  0  0
   -2.6290   21.2810  -28.9150 C   0  0  0  0  0  0  0  0  0  0  0  0
   -1.6710   20.2000  -28.6080 C   0  0  0  0  0  0  0  0  0  0  0  0
   -0.5800   19.9480  -29.4570 C   0  0  0  0  0  0  0  0  0  0  0  0
    0.3310   18.9330  -29.1480 C   0  0  0  0  0  0  0  0  0  0  0  0
    0.1660   18.1730  -27.9880 C   0  0  0  0  0  0  0  0  0  0  0  0
   -0.9080   18.4310  -27.1290 C   0  0  0  0  0  0  0  0  0  0  0  0
   -1.8210   19.4470  -27.4340 C   0  0  0  0  0  0  0  0  0  0  0  0
   -3.4480   21.2900  -30.0260 C   0  0  0  0  0  0  0  0  0  0  0  0
   -4.1510   22.4800  -29.9890 C   0  0  0  0  0  0  0  0  0  0  0  0
   -5.1720   22.9190  -30.9710 C   0  0  0  0  0  0  0  0  0  0  0  0
   -5.0330   24.0270  -31.5580 O   0  0  0  0  0  0  0  0  0  0  0  0
   -6.3220   22.1050  -31.2510 N   0  0  0  0  0  0  0  0  0  0  0  0
   -7.2710   22.4160  -32.3190 C   0  0  0  0  0  0  0  0  0  0  0  0
   -8.6920   21.9980  -31.9250 C   0  0  0  0  0  0  0  0  0  0  0  0
   -8.7730   20.5050  -31.5710 C   0  0  0  0  0  0  0  0  0  0  0  0
   -8.5370   19.6290  -32.8120 C   0  0  0  0  0  0  0  0  0  0  0  0
   -7.6940   18.4480  -32.5080 N   0  0  0  0  0  0  0  0  0  0  0  0
   -6.8550   18.6480  -31.2930 C   0  0  0  0  0  0  0  0  0  0  0  0
   -5.3480   18.8360  -31.5830 C   0  0  0  0  0  0  0  0  0  0  0  0
   -5.1350   19.6330  -32.8810 C   0  0  0  0  0  0  0  0  0  0  0  0
   -3.6590   19.9160  -33.1330 C   0  0  0  0  0  0  0  0  0  0  0  0
   -3.2010   21.2480  -33.2040 C   0  0  0  0  0  0  0  0  0  0  0  0
   -1.8530   21.5280  -33.4300 C   0  0  0  0  0  0  0  0  0  0  0  0
   -0.9380   20.4870  -33.5800 C   0  0  0  0  0  0  0  0  0  0  0  0
   -1.3680   19.1610  -33.5050 C   0  0  0  0  0  0  0  0  0  0  0  0
   -2.7270   18.8590  -33.2810 C   0  0  0  0  0  0  0  0  0  0  0  0
   -3.1760   17.5280  -33.2020 O   0  0  0  0  0  0  0  0  0  0  0  0
   -3.1150   16.5860  -34.2690 C   0  0  0  0  0  0  0  0  0  0  0  0
   -5.7940   18.9220  -34.0900 C   0  0  0  0  0  0  0  0  0  0  0  0
   -6.9130   17.9520  -33.6660 C   0  0  0  0  0  0  0  0  0  0  0  0
   -3.7070   23.1660  -28.8590 C   0  0  0  0  0  0  0  0  0  0  0  0
   -4.1620   24.5400  -28.4420 C   0  0  0  0  0  0  0  0  0  0  0  0
   -0.5073   25.2033  -28.1028 H   0  0  0  0  0  0  0  0  0  0  0  0
    0.3594   24.0529  -29.1762 H   0  0  0  0  0  0  0  0  0  0  0  0
   -1.4362   24.1025  -29.1762 H   0  0  0  0  0  0  0  0  0  0  0  0
   -0.0850   22.2297  -27.8180 H   0  0  0  0  0  0  0  0  0  0  0  0
   -0.0245   23.5458  -26.5774 H   0  0  0  0  0  0  0  0  0  0  0  0
   -1.9884   22.0125  -26.2879 H   0  0  0  0  0  0  0  0  0  0  0  0
   -2.4542   23.7276  -26.5842 H   0  0  0  0  0  0  0  0  0  0  0  0
   -0.4422   20.5506  -30.3669 H   0  0  0  0  0  0  0  0  0  0  0  0
    1.1789   18.7329  -29.8196 H   0  0  0  0  0  0  0  0  0  0  0  0
    0.8805   17.3714  -27.7496 H   0  0  0  0  0  0  0  0  0  0  0  0
   -1.0348   17.8348  -26.2133 H   0  0  0  0  0  0  0  0  0  0  0  0
   -2.6581   19.6555  -26.7515 H   0  0  0  0  0  0  0  0  0  0  0  0
   -3.5261   20.5039  -30.7914 H   0  0  0  0  0  0  0  0  0  0  0  0
   -6.4410   21.1920  -30.7590 H   0  0  0  0  0  0  0  0  0  0  0  0
   -7.2543   23.4988  -32.5119 H   0  0  0  0  0  0  0  0  0  0  0  0
   -6.9785   21.8609  -33.2225 H   0  0  0  0  0  0  0  0  0  0  0  0
   -9.0070   22.5881  -31.0517 H   0  0  0  0  0  0  0  0  0  0  0  0
   -9.3519   22.1804  -32.7860 H   0  0  0  0  0  0  0  0  0  0  0  0
   -8.0073   20.2726  -30.8162 H   0  0  0  0  0  0  0  0  0  0  0  0
   -9.7787   20.2926  -31.1792 H   0  0  0  0  0  0  0  0  0  0  0  0
   -9.5094   19.2825  -33.1919 H   0  0  0  0  0  0  0  0  0  0  0  0
   -8.0101   20.2378  -33.5615 H   0  0  0  0  0  0  0  0  0  0  0  0
   -7.2187   19.5430  -30.7670 H   0  0  0  0  0  0  0  0  0  0  0  0
   -6.9477   17.7312  -30.6923 H   0  0  0  0  0  0  0  0  0  0  0  0
   -4.8852   19.3797  -30.7463 H   0  0  0  0  0  0  0  0  0  0  0  0
   -4.8857   17.8446  -31.6990 H   0  0  0  0  0  0  0  0  0  0  0  0
   -5.6328   20.6059  -32.7561 H   0  0  0  0  0  0  0  0  0  0  0  0
   -3.9148   22.0757  -33.0798 H   0  0  0  0  0  0  0  0  0  0  0  0
   -1.5116   22.5720  -33.4899 H   0  0  0  0  0  0  0  0  0  0  0  0
    0.1242   20.7107  -33.7577 H   0  0  0  0  0  0  0  0  0  0  0  0
   -0.6402   18.3445  -33.6217 H   0  0  0  0  0  0  0  0  0  0  0  0
   -3.0491   15.5684  -33.8564 H   0  0  0  0  0  0  0  0  0  0  0  0
   -4.0207   16.6731  -34.8872 H   0  0  0  0  0  0  0  0  0  0  0  0
   -2.2281   16.7892  -34.8872 H   0  0  0  0  0  0  0  0  0  0  0  0
   -6.2223   19.6846  -34.7571 H   0  0  0  0  0  0  0  0  0  0  0  0
   -5.0152   18.3329  -34.5963 H   0  0  0  0  0  0  0  0  0  0  0  0
   -7.5964   17.8104  -34.5163 H   0  0  0  0  0  0  0  0  0  0  0  0
   -6.4364   17.0076  -33.3643 H   0  0  0  0  0  0  0  0  0  0  0  0
   -4.1825   24.6019  -27.3439 H   0  0  0  0  0  0  0  0  0  0  0  0
   -3.4653   25.2931  -28.8388 H   0  0  0  0  0  0  0  0  0  0  0  0
   -5.1705   24.7284  -28.8388 H   0  0  0  0  0  0  0  0  0  0  0  0
  1  2  1  0
  2  3  1  0
  3  4  1  0
  4  5  1  0
  5  6  1  0
  6  7  2  0
  7  8  1  0
  8  9  2  0
  9 10  1  0
 10 11  2  0
  5 12  2  0
 12 13  1  0
 13 14  1  0
 14 15  2  0
 14 16  1  0
 16 17  1  0
 17 18  1  0
 18 19  1  0
 19 20  1  0
 20 21  1  0
 21 22  1  0
 22 23  1  0
 23 24  1  0
 24 25  1  0
 25 26  2  0
 26 27  1  0
 27 28  2  0
 28 29  1  0
 29 30  2  0
 30 31  1  0
 31 32  1  0
 24 33  1  0
 33 34  1  0
 13 35  2  0
 35 36  1  0
 35  4  1  0
 11  6  1  0
 34 21  1  0
 30 25  1  0
  1 37  1  0
  1 38  1  0
  1 39  1  0
  2 40  1  0
  2 41  1  0
  3 42  1  0
  3 43  1  0
  7 44  1  0
  8 45  1  0
  9 46  1  0
 10 47  1  0
 11 48  1  0
 12 49  1  0
 16 50  1  0
 17 51  1  0
 17 52  1  0
 18 53  1  0
 18 54  1  0
 19 55  1  0
 19 56  1  0
 20 57  1  0
 20 58  1  0
 22 59  1  0
 22 60  1  0
 23 61  1  0
 23 62  1  0
 24 63  1  0
 26 64  1  0
 27 65  1  0
 28 66  1  0
 29 67  1  0
 32 68  1  0
 32 69  1  0
 32 70  1  0
 33 71  1  0
 33 72  1  0
 34 73  1  0
 34 74  1  0
 36 75  1  0
 36 76  1  0
 36 77  1  0
M  END
>  <UniqueID>  (22) 
22

>  <SMILES>  (22) 
CCCn1c(-c2ccccc2)cc(C(=O)NCCCCN2CCC(c3ccccc3OC)CC2)c1C

>  <Energy>  (22) 
113.64113185440733

>  <Genealogy>  (22) 
CCCn1c(-c2ccccc2)cc(C(=O)NCCCCN2CCC(c3ccccc3OC)CC2)c1C (3D coordinates assigned)
CCCn1c(-c2ccccc2)cc(C(=O)NCCCCN2CCC(c3ccccc3OC)CC2)c1C (nonaromatic ring conformer: 113.64113185440733 kcal/mol)

>  <smiles>  (22) 
CCCn1c(-c2ccccc2)cc(C(=O)NCCCCN2CCC(c3ccccc3OC)CC2)c1C

>  <score_type>  (22) 
oracle

>  <origin>  (22) 
adg

>  <m_score__min__energy>  (22) 
-10.84

>  <m_primary>  (22) 
energy

$$$$
22:0
     RDKit          3D

 41 43  0  0  0  0  0  0  0  0999 V2000
   -9.3265   20.2544  -32.4206 H   0  0  0  0  0  0  0  0  0  0  0  0
   -8.4880   20.9080  -32.1380 C   0  0  0  0  0  0  0  0  0  0  0  0
   -8.6820   21.9240  -31.2050 C   0  0  0  0  0  0  0  0  0  0  0  0
   -9.6724   22.0693  -30.7490 H   0  0  0  0  0  0  0  0  0  0  0  0
   -7.6210   22.7580  -30.8480 C   0  0  0  0  0  0  0  0  0  0  0  0
   -7.7820   23.5586  -30.1111 H   0  0  0  0  0  0  0  0  0  0  0  0
   -6.3480   22.5850  -31.4210 C   0  0  0  0  0  0  0  0  0  0  0  0
   -5.2430   23.4900  -31.0240 C   0  0  0  0  0  0  0  0  0  0  0  0
   -5.2460   24.8250  -31.2220 N   0  0  0  0  0  0  0  0  0  0  0  0
   -4.1010   25.2830  -30.7400 N   0  0  0  0  0  0  0  0  0  0  0  0
   -3.4460   24.2050  -30.2660 C   0  0  0  0  0  0  0  0  0  0  0  0
   -2.2750   24.2330  -29.7040 N   0  0  0  0  0  0  0  0  0  0  0  0
   -1.9270   24.9550  -28.5130 C   0  0  0  0  0  0  0  0  0  0  0  0
   -1.5160   26.1460  -28.5660 O   0  0  0  0  0  0  0  0  0  0  0  0
   -2.1020   24.2950  -27.1820 C   0  0  0  0  0  0  0  0  0  0  0  0
   -3.0928   24.5492  -26.7773 H   0  0  0  0  0  0  0  0  0  0  0  0
   -1.3163   24.6492  -26.4984 H   0  0  0  0  0  0  0  0  0  0  0  0
   -1.9920   22.8020  -27.3270 C   0  0  0  0  0  0  0  0  0  0  0  0
   -3.1430   22.0250  -27.5290 C   0  0  0  0  0  0  0  0  0  0  0  0
   -4.1315   22.5066  -27.5591 H   0  0  0  0  0  0  0  0  0  0  0  0
   -3.0370   20.6410  -27.6920 C   0  0  0  0  0  0  0  0  0  0  0  0
   -3.9429   20.0349  -27.8403 H   0  0  0  0  0  0  0  0  0  0  0  0
   -1.7840   20.0260  -27.6670 C   0  0  0  0  0  0  0  0  0  0  0  0
   -1.7089   18.9356  -27.7913 H   0  0  0  0  0  0  0  0  0  0  0  0
   -0.6220   20.7860  -27.4850 C   0  0  0  0  0  0  0  0  0  0  0  0
    0.6140   20.1230  -27.4790 O   0  0  0  0  0  0  0  0  0  0  0  0
    0.8640   18.8820  -28.1310 C   0  0  0  0  0  0  0  0  0  0  0  0
    1.0222   18.0969  -27.3769 H   0  0  0  0  0  0  0  0  0  0  0  0
    0.0010   18.6178  -28.7599 H   0  0  0  0  0  0  0  0  0  0  0  0
    1.7619   18.9726  -28.7599 H   0  0  0  0  0  0  0  0  0  0  0  0
   -0.7330   22.1800  -27.3170 C   0  0  0  0  0  0  0  0  0  0  0  0
    0.1739   22.7865  -27.1768 H   0  0  0  0  0  0  0  0  0  0  0  0
   -4.1350   23.1040  -30.4350 O   0  0  0  0  0  0  0  0  0  0  0  0
   -6.1480   21.5500  -32.3650 C   0  0  0  0  0  0  0  0  0  0  0  0
   -4.8740   21.3700  -32.9320 O   0  0  0  0  0  0  0  0  0  0  0  0
   -3.8110   20.6450  -32.3250 C   0  0  0  0  0  0  0  0  0  0  0  0
   -3.9026   20.7075  -31.2306 H   0  0  0  0  0  0  0  0  0  0  0  0
   -3.8603   19.5915  -32.6375 H   0  0  0  0  0  0  0  0  0  0  0  0
   -2.8482   21.0755  -32.6375 H   0  0  0  0  0  0  0  0  0  0  0  0
   -7.2310   20.7180  -32.7150 C   0  0  0  0  0  0  0  0  0  0  0  0
   -7.0843   19.9121  -33.4491 H   0  0  0  0  0  0  0  0  0  0  0  0
  1  2  1  0
  2  3  2  0
  3  4  1  0
  3  5  1  0
  5  6  1  0
  5  7  2  0
  7  8  1  0
  8  9  2  0
  9 10  1  0
 10 11  1  0
 11 12  2  0
 12 13  1  0
 13 14  2  0
 13 15  1  0
 15 16  1  0
 15 17  1  0
 15 18  1  0
 18 19  2  0
 19 20  1  0
 19 21  1  0
 21 22  1  0
 21 23  2  0
 23 24  1  0
 23 25  1  0
 25 26  1  0
 26 27  1  0
 27 28  1  0
 27 29  1  0
 27 30  1  0
 25 31  2  0
 31 32  1  0
 11 33  1  0
  7 34  1  0
 34 35  1  0
 35 36  1  0
 36 37  1  0
 36 38  1  0
 36 39  1  0
 34 40  2  0
 40 41  1  0
 40  2  1  0
 33  8  1  0
 31 18  1  0
M  CHG  1  10  -1
M  END
>  <UniqueID>  (23) 
23

>  <SMILES>  (23) 
COc1cccc(CC(=O)/N=c2\[n-]nc(-c3ccccc3OC)o2)c1

>  <Energy>  (23) 
78.648957490845

>  <Genealogy>  (23) 
COc1cccc(CC(=O)N=c2[n-]nc(-c3ccccc3OC)o2)c1 (protonated)
COc1cccc(CC(=O)/N=c2\[n-]nc(-c3ccccc3OC)o2)c1 (cis-trans isomerization)
COc1cccc(CC(=O)/N=c2\[n-]nc(-c3ccccc3OC)o2)c1 (3D coordinates assigned)
COc1cccc(CC(=O)/N=c2\[n-]nc(-c3ccccc3OC)o2)c1 (optimized conformer: 78.648957490845 kcal/mol)

>  <smiles>  (23) 
COc1cccc(CC(=O)N=c2[nH]nc(-c3ccccc3OC)o2)c1

>  <score_type>  (23) 
oracle

>  <origin>  (23) 
adg

>  <m_score__min__energy>  (23) 
-9.3200000000000003

>  <m_primary>  (23) 
energy

$$$$
23:0
     RDKit          3D

 66 69  0  0  0  0  0  0  0  0999 V2000
   -7.5890   18.0011  -30.5314 H   0  0  0  0  0  0  0  0  0  0  0  0
   -6.8120   18.3510  -31.2270 C   0  0  0  0  0  0  0  0  0  0  0  0
   -6.8740   19.6070  -31.6950 C   0  0  0  0  0  0  0  0  0  0  0  0
   -7.6464   20.2819  -31.2976 H   0  0  0  0  0  0  0  0  0  0  0  0
   -5.9110   20.1370  -32.7610 C   0  0  2  0  0  0  0  0  0  0  0  0
   -6.4830   19.7350  -34.1420 C   0  0  0  0  0  0  0  0  0  0  0  0
   -7.3755   19.1077  -34.0007 H   0  0  0  0  0  0  0  0  0  0  0  0
   -6.7564   20.6406  -34.7033 H   0  0  0  0  0  0  0  0  0  0  0  0
   -5.7236   19.1710  -34.7033 H   0  0  0  0  0  0  0  0  0  0  0  0
   -4.5830   19.3950  -32.5360 C   0  0  0  0  0  0  0  0  0  0  0  0
   -3.4780   20.0100  -32.0750 C   0  0  0  0  0  0  0  0  0  0  0  0
   -2.6515   19.3952  -31.6892 H   0  0  0  0  0  0  0  0  0  0  0  0
   -3.3330   21.4950  -32.0680 C   0  0  0  0  0  0  0  0  0  0  0  0
   -2.9665   21.8132  -33.0551 H   0  0  0  0  0  0  0  0  0  0  0  0
   -2.6306   21.7466  -31.2597 H   0  0  0  0  0  0  0  0  0  0  0  0
   -4.6460   22.2410  -31.7730 C   0  0  1  0  0  0  0  0  0  0  0  0
   -4.3712   23.2971  -31.9111 H   0  0  0  0  0  0  0  0  0  0  0  0
   -5.7300   21.7190  -32.7580 C   0  0  2  0  0  0  0  0  0  0  0  0
   -5.3409   21.9131  -33.7684 H   0  0  0  0  0  0  0  0  0  0  0  0
   -7.0550   22.5390  -32.6680 C   0  0  0  0  0  0  0  0  0  0  0  0
   -7.8684   21.8555  -32.3829 H   0  0  0  0  0  0  0  0  0  0  0  0
   -7.2196   22.9959  -33.6550 H   0  0  0  0  0  0  0  0  0  0  0  0
   -7.0010   23.6820  -31.6460 C   0  0  0  0  0  0  0  0  0  0  0  0
   -8.0199   24.0741  -31.5116 H   0  0  0  0  0  0  0  0  0  0  0  0
   -6.3065   24.4348  -32.0473 H   0  0  0  0  0  0  0  0  0  0  0  0
   -6.4480   23.2580  -30.2440 C   0  0  2  0  0  0  0  0  0  0  0  0
   -7.5930   22.6400  -29.4050 C   0  0  0  0  0  0  0  0  0  0  0  0
   -7.3696   22.7606  -28.3347 H   0  0  0  0  0  0  0  0  0  0  0  0
   -8.5381   23.1505  -29.6421 H   0  0  0  0  0  0  0  0  0  0  0  0
   -7.6849   21.5698  -29.6421 H   0  0  0  0  0  0  0  0  0  0  0  0
   -5.9190   24.5290  -29.5070 C   0  0  0  0  0  0  0  0  0  0  0  0
   -6.4348   24.6509  -28.5431 H   0  0  0  0  0  0  0  0  0  0  0  0
   -6.1029   25.4367  -30.1006 H   0  0  0  0  0  0  0  0  0  0  0  0
   -4.4320   24.3140  -29.2820 C   0  0  0  0  0  0  0  0  0  0  0  0
   -4.1021   24.7960  -28.3499 H   0  0  0  0  0  0  0  0  0  0  0  0
   -3.8117   24.7485  -30.0798 H   0  0  0  0  0  0  0  0  0  0  0  0
   -4.3000   22.8050  -29.1880 C   0  0  2  0  0  0  0  0  0  0  0  0
   -4.6389   22.4308  -28.2107 H   0  0  0  0  0  0  0  0  0  0  0  0
   -2.8980   22.2220  -29.0360 C   0  0  0  0  0  0  0  0  0  0  0  0
   -1.3700   24.7290  -28.2360 C   0  0  0  0  0  0  0  0  0  0  0  0
   -1.2738   25.8080  -28.4270 H   0  0  0  0  0  0  0  0  0  0  0  0
   -1.0740   23.9210  -29.2680 C   0  0  0  0  0  0  0  0  0  0  0  0
   -0.1305   24.1133  -29.7998 H   0  0  0  0  0  0  0  0  0  0  0  0
   -1.9060   22.7920  -29.7550 C   0  0  0  0  0  0  0  0  0  0  0  0
   -1.7029   22.3959  -30.7609 H   0  0  0  0  0  0  0  0  0  0  0  0
   -1.8200   24.3400  -26.8410 C   0  0  0  0  0  0  0  0  0  0  0  0
   -2.2828   23.3481  -26.9500 H   0  0  0  0  0  0  0  0  0  0  0  0
   -0.6560   24.1470  -25.8620 C   0  0  0  0  0  0  0  0  0  0  0  0
   -1.0309   24.2092  -24.8297 H   0  0  0  0  0  0  0  0  0  0  0  0
   -0.1979   23.1606  -26.0269 H   0  0  0  0  0  0  0  0  0  0  0  0
    0.0960   24.9327  -26.0269 H   0  0  0  0  0  0  0  0  0  0  0  0
   -2.9190   25.2550  -26.2870 C   0  0  0  0  0  0  0  0  0  0  0  0
   -2.8938   25.2341  -25.1875 H   0  0  0  0  0  0  0  0  0  0  0  0
   -2.7510   26.2839  -26.6381 H   0  0  0  0  0  0  0  0  0  0  0  0
   -3.9004   24.9034  -26.6381 H   0  0  0  0  0  0  0  0  0  0  0  0
   -2.6390   20.9680  -28.2240 C   0  0  0  0  0  0  0  0  0  0  0  0
   -2.6887   21.2087  -27.1518 H   0  0  0  0  0  0  0  0  0  0  0  0
   -3.3998   20.2111  -28.4656 H   0  0  0  0  0  0  0  0  0  0  0  0
   -1.6406   20.5745  -28.4656 H   0  0  0  0  0  0  0  0  0  0  0  0
   -5.2200   22.2640  -30.3130 C   0  0  2  0  0  0  0  0  0  0  0  0
   -5.4222   21.1976  -30.1342 H   0  0  0  0  0  0  0  0  0  0  0  0
   -4.6280   17.8820  -32.5270 C   0  0  0  0  0  0  0  0  0  0  0  0
   -4.8147   17.5133  -33.5464 H   0  0  0  0  0  0  0  0  0  0  0  0
   -3.6668   17.4855  -32.1679 H   0  0  0  0  0  0  0  0  0  0  0  0
   -5.7330   17.4270  -31.6180 C   0  0  0  0  0  0  0  0  0  0  0  0
   -5.7490   16.2380  -31.2000 O   0  0  0  0  0  0  0  0  0  0  0  0
  1  2  1  0
  2  3  2  0
  3  4  1  0
  3  5  1  0
  5  6  1  6
  6  7  1  0
  6  8  1  0
  6  9  1  0
  5 10  1  0
 10 11  2  0
 11 12  1  0
 11 13  1  0
 13 14  1  0
 13 15  1  0
 13 16  1  0
 16 17  1  6
 16 18  1  0
 18 19  1  6
 18 20  1  0
 20 21  1  0
 20 22  1  0
 20 23  1  0
 23 24  1  0
 23 25  1  0
 23 26  1  0
 26 27  1  1
 27 28  1  0
 27 29  1  0
 27 30  1  0
 26 31  1  0
 31 32  1  0
 31 33  1  0
 31 34  1  0
 34 35  1  0
 34 36  1  0
 34 37  1  0
 37 38  1  1
 37 39  1  0
 39 40  2  0
 40 41  1  0
 40 42  1  0
 42 43  1  0
 42 44  2  3
 44 45  1  0
 44 46  1  0
 46 47  1  0
 46 48  1  0
 48 49  1  0
 48 50  1  0
 48 51  1  0
 46 52  1  0
 52 53  1  0
 52 54  1  0
 52 55  1  0
 39 56  1  0
 56 57  1  0
 56 58  1  0
 56 59  1  0
 37 60  1  0
 60 61  1  1
 10 62  1  0
 62 63  1  0
 62 64  1  0
 62 65  1  0
 65 66  2  0
 65  2  1  0
 18  5  1  0
 60 26  1  0
 60 16  1  0
M  END
>  <UniqueID>  (24) 
24

>  <SMILES>  (24) 
C/C(=C\C=CC(C)C)[C@H]1CC[C@@]2(C)CCC3C(CC=C4CC(=O)C=CC43C)C12

>  <Energy>  (24) 
99.97547176353342

>  <Genealogy>  (24) 
CC(=CC=CC(C)C)[C@H]1CC[C@@]2(C)CCC3C(CC=C4CC(=O)C=CC43C)C12 (chirality)
C/C(=C\C=CC(C)C)[C@H]1CC[C@@]2(C)CCC3C(CC=C4CC(=O)C=CC43C)C12 (cis-trans isomerization)
C/C(=C\C=CC(C)C)[C@H]1CC[C@@]2(C)CCC3C(CC=C4CC(=O)C=CC43C)C12 (3D coordinates assigned)
C/C(=C\C=CC(C)C)[C@H]1CC[C@@]2(C)CCC3C(CC=C4CC(=O)C=CC43C)C12 (nonaromatic ring conformer: 99.97547176353342 kcal/mol)

>  <smiles>  (24) 
CC(=CC=CC(C)C)C1CCC2(C)CCC3C(CC=C4CC(=O)C=CC43C)C12

>  <score_type>  (24) 
oracle

>  <origin>  (24) 
adg

>  <m_score__min__energy>  (24) 
-9.3399999999999999

>  <m_primary>  (24) 
energy

$$$$
24:0
     RDKit          3D

 46 46  0  0  0  0  0  0  0  0999 V2000
   -1.6010   25.6310  -27.1730 C   0  0  0  0  0  0  0  0  0  0  0  0
   -1.4170   25.2080  -28.6260 C   0  0  0  0  0  0  0  0  0  0  0  0
   -2.6540   25.2730  -29.3300 O   0  0  0  0  0  0  0  0  0  0  0  0
   -3.7530   24.4570  -29.0360 C   0  0  0  0  0  0  0  0  0  0  0  0
   -3.6490   23.5080  -28.2120 O   0  0  0  0  0  0  0  0  0  0  0  0
   -5.0590   24.6970  -29.7290 C   0  0  0  0  0  0  0  0  0  0  0  0
   -4.9740   24.3910  -31.1560 N   0  0  0  0  0  0  0  0  0  0  0  0
   -5.1150   23.2430  -31.7630 C   0  0  0  0  0  0  0  0  0  0  0  0
   -6.4270   22.8270  -32.3470 C   0  0  2  0  0  0  0  0  0  0  0  0
   -7.5920   23.1360  -31.3970 C   0  0  0  0  0  0  0  0  0  0  0  0
   -6.2160   21.3450  -32.4890 C   0  0  0  0  0  0  0  0  0  0  0  0
   -7.2150   20.4440  -33.1130 C   0  0  0  0  0  0  0  0  0  0  0  0
   -6.8540   19.6760  -34.0450 O   0  0  0  0  0  0  0  0  0  0  0  0
   -8.5460   20.4380  -32.6790 O   0  0  0  0  0  0  0  0  0  0  0  0
   -9.0190   19.6370  -31.5980 C   0  0  0  0  0  0  0  0  0  0  0  0
   -8.3750   18.2560  -31.6330 C   0  0  0  0  0  0  0  0  0  0  0  0
   -4.9920   20.9990  -32.0620 C   0  0  0  0  0  0  0  0  0  0  0  0
   -4.4410   19.5990  -32.0660 C   0  0  0  0  0  0  0  0  0  0  0  0
   -4.2120   22.1340  -31.6690 N   0  0  0  0  0  0  0  0  0  0  0  0
   -2.7620   22.1940  -31.9070 C   0  0  0  0  0  0  0  0  0  0  0  0
   -2.0820   22.6870  -30.7680 O   0  0  0  0  0  0  0  0  0  0  0  0
   -1.5890   21.6170  -29.9930 C   0  0  0  0  0  0  0  0  0  0  0  0
   -1.2510   24.8263  -26.5097 H   0  0  0  0  0  0  0  0  0  0  0  0
   -1.0188   26.5442  -26.9804 H   0  0  0  0  0  0  0  0  0  0  0  0
   -2.6660   25.8277  -26.9804 H   0  0  0  0  0  0  0  0  0  0  0  0
   -0.6913   25.8793  -29.1084 H   0  0  0  0  0  0  0  0  0  0  0  0
   -1.0512   24.1708  -28.6488 H   0  0  0  0  0  0  0  0  0  0  0  0
   -5.8287   24.0578  -29.2719 H   0  0  0  0  0  0  0  0  0  0  0  0
   -5.3168   25.7608  -29.6195 H   0  0  0  0  0  0  0  0  0  0  0  0
   -6.6912   23.3437  -33.2815 H   0  0  0  0  0  0  0  0  0  0  0  0
   -7.2498   23.0452  -30.3555 H   0  0  0  0  0  0  0  0  0  0  0  0
   -7.9504   24.1602  -31.5773 H   0  0  0  0  0  0  0  0  0  0  0  0
   -8.4109   22.4240  -31.5773 H   0  0  0  0  0  0  0  0  0  0  0  0
   -8.7683   20.1290  -30.6466 H   0  0  0  0  0  0  0  0  0  0  0  0
  -10.1091   19.5229  -31.6912 H   0  0  0  0  0  0  0  0  0  0  0  0
   -8.2100   17.9022  -30.6046 H   0  0  0  0  0  0  0  0  0  0  0  0
   -9.0391   17.5550  -32.1598 H   0  0  0  0  0  0  0  0  0  0  0  0
   -7.4111   18.3142  -32.1598 H   0  0  0  0  0  0  0  0  0  0  0  0
   -4.3057   19.2552  -31.0299 H   0  0  0  0  0  0  0  0  0  0  0  0
   -5.1430   18.9302  -32.5855 H   0  0  0  0  0  0  0  0  0  0  0  0
   -3.4715   19.5880  -32.5855 H   0  0  0  0  0  0  0  0  0  0  0  0
   -2.3930   21.1836  -32.1372 H   0  0  0  0  0  0  0  0  0  0  0  0
   -2.5727   22.8743  -32.7504 H   0  0  0  0  0  0  0  0  0  0  0  0
   -1.6993   21.8564  -28.9251 H   0  0  0  0  0  0  0  0  0  0  0  0
   -2.1573   20.7041  -30.2247 H   0  0  0  0  0  0  0  0  0  0  0  0
   -0.5258   21.4558  -30.2247 H   0  0  0  0  0  0  0  0  0  0  0  0
  1  2  1  0
  2  3  1  0
  3  4  1  0
  4  5  2  0
  4  6  1  0
  6  7  1  0
  7  8  2  3
  8  9  1  0
  9 10  1  0
  9 11  1  0
 11 12  1  0
 12 13  2  0
 12 14  1  0
 14 15  1  0
 15 16  1  0
 11 17  2  0
 17 18  1  0
 17 19  1  0
 19 20  1  0
 20 21  1  0
 21 22  1  0
 19  8  1  0
  1 23  1  0
  1 24  1  0
  1 25  1  0
  2 26  1  0
  2 27  1  0
  6 28  1  0
  6 29  1  0
  9 30  1  6
 10 31  1  0
 10 32  1  0
 10 33  1  0
 15 34  1  0
 15 35  1  0
 16 36  1  0
 16 37  1  0
 16 38  1  0
 18 39  1  0
 18 40  1  0
 18 41  1  0
 20 42  1  0
 20 43  1  0
 22 44  1  0
 22 45  1  0
 22 46  1  0
M  END
>  <UniqueID>  (25) 
25

>  <SMILES>  (25) 
CCOC(=O)CN=C1[C@H](C)C(C(=O)OCC)=C(C)N1COC

>  <Energy>  (25) 
56.11801083861089

>  <Genealogy>  (25) 
CCOC(=O)CN=C1[C@H](C)C(C(=O)OCC)=C(C)N1COC (chirality)
CCOC(=O)CN=C1[C@H](C)C(C(=O)OCC)=C(C)N1COC (3D coordinates assigned)
CCOC(=O)CN=C1[C@H](C)C(C(=O)OCC)=C(C)N1COC (nonaromatic ring conformer: 56.11801083861089 kcal/mol)

>  <smiles>  (25) 
CCOC(=O)CN=C1C(C)C(C(=O)OCC)=C(C)N1COC

>  <score_type>  (25) 
oracle

>  <origin>  (25) 
adg

>  <m_score__min__energy>  (25) 
-6.7000000000000002

>  <m_primary>  (25) 
energy

$$$$
25:0
     RDKit          3D

 42 45  0  0  0  0  0  0  0  0999 V2000
    0.9730   21.2540  -34.9840 C   0  0  0  0  0  0  0  0  0  0  0  0
   -0.3670   20.6120  -35.3360 C   0  0  0  0  0  0  0  0  0  0  0  0
   -0.8290   19.5980  -34.2800 C   0  0  0  0  0  0  0  0  0  0  0  0
   -2.0930   20.0190  -33.6360 N   0  0  0  0  0  0  0  0  0  0  0  0
   -2.1310   21.2020  -32.9320 C   0  0  0  0  0  0  0  0  0  0  0  0
   -1.0980   21.9140  -32.8190 O   0  0  0  0  0  0  0  0  0  0  0  0
   -3.2780   21.6280  -32.3430 N   0  0  0  0  0  0  0  0  0  0  0  0
   -4.4310   20.9180  -32.4180 C   0  0  0  0  0  0  0  0  0  0  0  0
   -5.5790   21.3650  -31.8210 N   0  0  0  0  0  0  0  0  0  0  0  0
   -5.5400   22.6160  -31.1060 C   0  0  0  0  0  0  0  0  0  0  0  0
   -4.8790   22.7020  -29.8720 C   0  0  0  0  0  0  0  0  0  0  0  0
   -4.8390   23.9170  -29.1820 C   0  0  0  0  0  0  0  0  0  0  0  0
   -5.4540   25.0500  -29.7220 C   0  0  0  0  0  0  0  0  0  0  0  0
   -6.1120   24.9700  -30.9540 C   0  0  0  0  0  0  0  0  0  0  0  0
   -6.1540   23.7560  -31.6470 C   0  0  0  0  0  0  0  0  0  0  0  0
   -6.7460   20.6320  -31.9100 C   0  0  0  0  0  0  0  0  0  0  0  0
   -7.9420   21.0670  -31.2880 C   0  0  0  0  0  0  0  0  0  0  0  0
   -9.1140   20.3150  -31.3880 C   0  0  0  0  0  0  0  0  0  0  0  0
   -9.1240   19.1190  -32.1030 C   0  0  0  0  0  0  0  0  0  0  0  0
   -7.9600   18.6630  -32.7210 C   0  0  0  0  0  0  0  0  0  0  0  0
   -6.7710   19.4060  -32.6320 C   0  0  0  0  0  0  0  0  0  0  0  0
   -5.6130   18.9290  -33.2530 C   0  0  0  0  0  0  0  0  0  0  0  0
   -4.4270   19.6560  -33.1660 C   0  0  0  0  0  0  0  0  0  0  0  0
   -3.2250   19.2470  -33.7610 C   0  0  0  0  0  0  0  0  0  0  0  0
   -3.1920   18.1670  -34.4150 O   0  0  0  0  0  0  0  0  0  0  0  0
    1.0792   21.3049  -33.8903 H   0  0  0  0  0  0  0  0  0  0  0  0
    1.7906   20.6498  -35.4041 H   0  0  0  0  0  0  0  0  0  0  0  0
    1.0145   22.2698  -35.4041 H   0  0  0  0  0  0  0  0  0  0  0  0
   -1.1260   21.4037  -35.4206 H   0  0  0  0  0  0  0  0  0  0  0  0
   -0.2391   20.0710  -36.2852 H   0  0  0  0  0  0  0  0  0  0  0  0
   -0.9831   18.6228  -34.7650 H   0  0  0  0  0  0  0  0  0  0  0  0
   -0.0527   19.5325  -33.5034 H   0  0  0  0  0  0  0  0  0  0  0  0
   -4.3915   21.8123  -29.4467 H   0  0  0  0  0  0  0  0  0  0  0  0
   -4.3228   23.9815  -28.2128 H   0  0  0  0  0  0  0  0  0  0  0  0
   -5.4206   26.0054  -29.1778 H   0  0  0  0  0  0  0  0  0  0  0  0
   -6.5964   25.8621  -31.3777 H   0  0  0  0  0  0  0  0  0  0  0  0
   -6.6688   23.6947  -32.6171 H   0  0  0  0  0  0  0  0  0  0  0  0
   -7.9474   22.0086  -30.7194 H   0  0  0  0  0  0  0  0  0  0  0  0
  -10.0342   20.6684  -30.8999 H   0  0  0  0  0  0  0  0  0  0  0  0
  -10.0519   18.5334  -32.1801 H   0  0  0  0  0  0  0  0  0  0  0  0
   -7.9729   17.7164  -33.2812 H   0  0  0  0  0  0  0  0  0  0  0  0
   -5.6378   17.9807  -33.8099 H   0  0  0  0  0  0  0  0  0  0  0  0
  1  2  1  0
  2  3  1  0
  3  4  1  0
  4  5  1  0
  5  6  2  0
  5  7  1  0
  7  8  2  0
  8  9  1  0
  9 10  1  0
 10 11  2  0
 11 12  1  0
 12 13  2  0
 13 14  1  0
 14 15  2  0
  9 16  1  0
 16 17  2  0
 17 18  1  0
 18 19  2  0
 19 20  1  0
 20 21  2  0
 21 22  1  0
 22 23  2  0
 23 24  1  0
 24 25  2  0
 24  4  1  0
 23  8  1  0
 15 10  1  0
 21 16  1  0
  1 26  1  0
  1 27  1  0
  1 28  1  0
  2 29  1  0
  2 30  1  0
  3 31  1  0
  3 32  1  0
 11 33  1  0
 12 34  1  0
 13 35  1  0
 14 36  1  0
 15 37  1  0
 17 38  1  0
 18 39  1  0
 19 40  1  0
 20 41  1  0
 22 42  1  0
M  END
>  <UniqueID>  (26) 
26

>  <SMILES>  (26) 
CCCn1c(=O)nc2n(-c3ccccc3)c3ccccc3cc-2c1=O

>  <Energy>  (26) 
64.02154582886547

>  <Genealogy>  (26) 
CCCn1c(=O)nc2n(-c3ccccc3)c3ccccc3cc-2c1=O (3D coordinates assigned)
CCCn1c(=O)nc2n(-c3ccccc3)c3ccccc3cc-2c1=O (optimized conformer: 64.02154582886547 kcal/mol)

>  <smiles>  (26) 
CCCn1c(=O)nc2n(-c3ccccc3)c3ccccc3cc-2c1=O

>  <score_type>  (26) 
oracle

>  <origin>  (26) 
adg

>  <m_score__min__energy>  (26) 
-8.3699999999999992

>  <m_primary>  (26) 
energy

$$$$
26:0
     RDKit          3D

 43 45  0  0  0  0  0  0  0  0999 V2000
   -8.3230   23.4120  -32.3450 C   0  0  0  0  0  0  0  0  0  0  0  0
   -8.8780   22.5220  -31.3090 N   0  0  0  0  0  0  0  0  0  0  0  0
   -7.8790   22.2060  -30.2670 C   0  0  0  0  0  0  0  0  0  0  0  0
   -6.7140   23.1560  -30.3470 C   0  0  0  0  0  0  0  0  0  0  0  0
   -5.4690   22.7020  -30.8140 C   0  0  0  0  0  0  0  0  0  0  0  0
   -4.3770   23.5750  -30.8710 C   0  0  0  0  0  0  0  0  0  0  0  0
   -4.5210   24.9030  -30.4570 C   0  0  0  0  0  0  0  0  0  0  0  0
   -5.7550   25.3600  -29.9850 C   0  0  0  0  0  0  0  0  0  0  0  0
   -6.8480   24.4890  -29.9270 C   0  0  0  0  0  0  0  0  0  0  0  0
   -9.4950   21.3060  -31.8900 C   0  0  0  0  0  0  0  0  0  0  0  0
   -8.4940   20.2290  -32.2530 C   0  0  0  0  0  0  0  0  0  0  0  0
   -7.4030   20.5240  -33.0860 C   0  0  0  0  0  0  0  0  0  0  0  0
   -6.4730   19.5340  -33.4120 C   0  0  0  0  0  0  0  0  0  0  0  0
   -6.6180   18.2260  -32.9160 C   0  0  0  0  0  0  0  0  0  0  0  0
   -5.6280   17.1740  -33.2620 C   0  0  0  0  0  0  0  0  0  0  0  0
   -5.3560   16.1240  -32.3650 C   0  0  0  0  0  0  0  0  0  0  0  0
   -4.4230   15.1350  -32.6920 C   0  0  0  0  0  0  0  0  0  0  0  0
   -3.7510   15.1830  -33.9160 C   0  0  0  0  0  0  0  0  0  0  0  0
   -4.0100   16.2210  -34.8140 C   0  0  0  0  0  0  0  0  0  0  0  0
   -4.9440   17.2110  -34.4930 C   0  0  0  0  0  0  0  0  0  0  0  0
   -7.7170   17.9310  -32.0910 C   0  0  0  0  0  0  0  0  0  0  0  0
   -8.6470   18.9220  -31.7650 C   0  0  0  0  0  0  0  0  0  0  0  0
   -7.7993   24.2518  -31.8648 H   0  0  0  0  0  0  0  0  0  0  0  0
   -7.6157   22.8489  -32.9716 H   0  0  0  0  0  0  0  0  0  0  0  0
   -9.1399   23.7994  -32.9716 H   0  0  0  0  0  0  0  0  0  0  0  0
   -8.3494   22.2929  -29.2765 H   0  0  0  0  0  0  0  0  0  0  0  0
   -7.5130   21.1807  -30.4248 H   0  0  0  0  0  0  0  0  0  0  0  0
   -5.3524   21.6566  -31.1359 H   0  0  0  0  0  0  0  0  0  0  0  0
   -3.4052   23.2167  -31.2415 H   0  0  0  0  0  0  0  0  0  0  0  0
   -3.6622   25.5889  -30.5028 H   0  0  0  0  0  0  0  0  0  0  0  0
   -5.8665   26.4047  -29.6592 H   0  0  0  0  0  0  0  0  0  0  0  0
   -7.8166   24.8499  -29.5507 H   0  0  0  0  0  0  0  0  0  0  0  0
  -10.2012   20.8905  -31.1561 H   0  0  0  0  0  0  0  0  0  0  0  0
   -9.9906   21.6117  -32.8232 H   0  0  0  0  0  0  0  0  0  0  0  0
   -7.2797   21.5418  -33.4847 H   0  0  0  0  0  0  0  0  0  0  0  0
   -5.6202   19.7795  -34.0620 H   0  0  0  0  0  0  0  0  0  0  0  0
   -5.8813   16.0810  -31.3995 H   0  0  0  0  0  0  0  0  0  0  0  0
   -4.2179   14.3181  -31.9845 H   0  0  0  0  0  0  0  0  0  0  0  0
   -3.0183   14.4037  -34.1724 H   0  0  0  0  0  0  0  0  0  0  0  0
   -3.4780   16.2598  -35.7760 H   0  0  0  0  0  0  0  0  0  0  0  0
   -5.1459   18.0238  -35.2062 H   0  0  0  0  0  0  0  0  0  0  0  0
   -7.8462   16.9115  -31.6986 H   0  0  0  0  0  0  0  0  0  0  0  0
   -9.5046   18.6760  -31.1216 H   0  0  0  0  0  0  0  0  0  0  0  0
  1  2  1  0
  2  3  1  0
  3  4  1  0
  4  5  2  0
  5  6  1  0
  6  7  2  0
  7  8  1  0
  8  9  2  0
  2 10  1  0
 10 11  1  0
 11 12  2  0
 12 13  1  0
 13 14  2  0
 14 15  1  0
 15 16  2  0
 16 17  1  0
 17 18  2  0
 18 19  1  0
 19 20  2  0
 14 21  1  0
 21 22  2  0
  9  4  1  0
 22 11  1  0
 20 15  1  0
  1 23  1  0
  1 24  1  0
  1 25  1  0
  3 26  1  0
  3 27  1  0
  5 28  1  0
  6 29  1  0
  7 30  1  0
  8 31  1  0
  9 32  1  0
 10 33  1  0
 10 34  1  0
 12 35  1  0
 13 36  1  0
 16 37  1  0
 17 38  1  0
 18 39  1  0
 19 40  1  0
 20 41  1  0
 21 42  1  0
 22 43  1  0
M  END
>  <UniqueID>  (27) 
27

>  <SMILES>  (27) 
CN(Cc1ccccc1)Cc1ccc(-c2ccccc2)cc1

>  <Energy>  (27) 
53.17612003610368

>  <Genealogy>  (27) 
CN(Cc1ccccc1)Cc1ccc(-c2ccccc2)cc1 (3D coordinates assigned)
CN(Cc1ccccc1)Cc1ccc(-c2ccccc2)cc1 (optimized conformer: 53.17612003610368 kcal/mol)

>  <smiles>  (27) 
CN(Cc1ccccc1)Cc1ccc(-c2ccccc2)cc1

>  <score_type>  (27) 
oracle

>  <origin>  (27) 
adg

>  <m_score__min__energy>  (27) 
-8.2799999999999994

>  <m_primary>  (27) 
energy

$$$$
27:0
     RDKit          3D

 41 43  0  0  0  0  0  0  0  0999 V2000
   -3.5350   12.9730  -31.2260 C   0  0  0  0  0  0  0  0  0  0  0  0
   -3.4840   13.8590  -32.3390 O   0  0  0  0  0  0  0  0  0  0  0  0
   -4.6090   14.4460  -32.9380 C   0  0  0  0  0  0  0  0  0  0  0  0
   -5.3040   13.7140  -33.9080 C   0  0  0  0  0  0  0  0  0  0  0  0
   -6.4310   14.2550  -34.5330 C   0  0  0  0  0  0  0  0  0  0  0  0
   -6.8740   15.5360  -34.1940 C   0  0  0  0  0  0  0  0  0  0  0  0
   -6.1880   16.2790  -33.2260 C   0  0  0  0  0  0  0  0  0  0  0  0
   -6.6450   17.5990  -32.8760 C   0  0  0  0  0  0  0  0  0  0  0  0
   -7.0260   18.7040  -32.5820 C   0  0  0  0  0  0  0  0  0  0  0  0
   -7.4790   20.0240  -32.2290 C   0  0  0  0  0  0  0  0  0  0  0  0
   -8.8350   20.3400  -32.3160 C   0  0  0  0  0  0  0  0  0  0  0  0
   -9.2760   21.6150  -31.9690 C   0  0  0  0  0  0  0  0  0  0  0  0
   -8.3660   22.5830  -31.5360 C   0  0  0  0  0  0  0  0  0  0  0  0
   -6.9820   22.2950  -31.4430 C   0  0  0  0  0  0  0  0  0  0  0  0
   -6.0270   23.3050  -30.9930 N   0  0  0  0  0  0  0  0  0  0  0  0
   -4.6020   22.9390  -30.8460 C   0  0  0  0  0  0  0  0  0  0  0  0
   -3.7310   24.0700  -30.2920 C   0  0  0  0  0  0  0  0  0  0  0  0
   -4.1290   25.3160  -30.8150 O   0  0  0  0  0  0  0  0  0  0  0  0
   -5.3910   25.6360  -30.2810 C   0  0  0  0  0  0  0  0  0  0  0  0
   -6.4740   24.7060  -30.8350 C   0  0  0  0  0  0  0  0  0  0  0  0
   -6.5600   20.9880  -31.7950 C   0  0  0  0  0  0  0  0  0  0  0  0
   -5.0580   15.7380  -32.5990 C   0  0  0  0  0  0  0  0  0  0  0  0
   -3.5015   13.5543  -30.2928 H   0  0  0  0  0  0  0  0  0  0  0  0
   -4.4681   12.3916  -31.2626 H   0  0  0  0  0  0  0  0  0  0  0  0
   -2.6748   12.2884  -31.2626 H   0  0  0  0  0  0  0  0  0  0  0  0
   -4.9604   12.7052  -34.1804 H   0  0  0  0  0  0  0  0  0  0  0  0
   -6.9703   13.6711  -35.2934 H   0  0  0  0  0  0  0  0  0  0  0  0
   -7.7610   15.9603  -34.6873 H   0  0  0  0  0  0  0  0  0  0  0  0
   -9.5556   19.5827  -32.6584 H   0  0  0  0  0  0  0  0  0  0  0  0
  -10.3460   21.8610  -32.0362 H   0  0  0  0  0  0  0  0  0  0  0  0
   -8.7300   23.5845  -31.2630 H   0  0  0  0  0  0  0  0  0  0  0  0
   -4.5326   22.0802  -30.1622 H   0  0  0  0  0  0  0  0  0  0  0  0
   -4.2242   22.7052  -31.8523 H   0  0  0  0  0  0  0  0  0  0  0  0
   -3.8254   24.0930  -29.1963 H   0  0  0  0  0  0  0  0  0  0  0  0
   -2.6871   23.8842  -30.5850 H   0  0  0  0  0  0  0  0  0  0  0  0
   -5.3547   25.5337  -29.1864 H   0  0  0  0  0  0  0  0  0  0  0  0
   -5.6390   26.6697  -30.5638 H   0  0  0  0  0  0  0  0  0  0  0  0
   -7.3316   24.7219  -30.1464 H   0  0  0  0  0  0  0  0  0  0  0  0
   -6.7355   25.0763  -31.8373 H   0  0  0  0  0  0  0  0  0  0  0  0
   -5.4937   20.7268  -31.7262 H   0  0  0  0  0  0  0  0  0  0  0  0
   -4.5194   16.3237  -31.8395 H   0  0  0  0  0  0  0  0  0  0  0  0
  1  2  1  0
  2  3  1  0
  3  4  2  0
  4  5  1  0
  5  6  2  0
  6  7  1  0
  7  8  1  0
  8  9  3  0
  9 10  1  0
 10 11  2  0
 11 12  1  0
 12 13  2  0
 13 14  1  0
 14 15  1  0
 15 16  1  0
 16 17  1  0
 17 18  1  0
 18 19  1  0
 19 20  1  0
 14 21  2  0
  7 22  2  0
 22  3  1  0
 21 10  1  0
 20 15  1  0
  1 23  1  0
  1 24  1  0
  1 25  1  0
  4 26  1  0
  5 27  1  0
  6 28  1  0
 11 29  1  0
 12 30  1  0
 13 31  1  0
 16 32  1  0
 16 33  1  0
 17 34  1  0
 17 35  1  0
 19 36  1  0
 19 37  1  0
 20 38  1  0
 20 39  1  0
 21 40  1  0
 22 41  1  0
M  END
>  <UniqueID>  (28) 
28

>  <SMILES>  (28) 
COc1cccc(C#Cc2cccc(N3CCOCC3)c2)c1

>  <Energy>  (28) 
45.800037378260505

>  <Genealogy>  (28) 
COc1cccc(C#Cc2cccc(N3CCOCC3)c2)c1 (3D coordinates assigned)
COc1cccc(C#Cc2cccc(N3CCOCC3)c2)c1 (nonaromatic ring conformer: 45.800037378260505 kcal/mol)

>  <smiles>  (28) 
COc1cccc(C#Cc2cccc(N3CCOCC3)c2)c1

>  <score_type>  (28) 
oracle

>  <origin>  (28) 
adg

>  <m_score__min__energy>  (28) 
-7.9699999999999998

>  <m_primary>  (28) 
energy

$$$$
28:0
     RDKit          3D

 40 42  0  0  0  0  0  0  0  0999 V2000
   -0.1580   23.9090  -28.9250 C   0  0  0  0  0  0  0  0  0  0  0  0
   -1.4580   24.0880  -28.1890 C   0  0  0  0  0  0  0  0  0  0  0  0
   -1.5780   25.1330  -27.2550 C   0  0  0  0  0  0  0  0  0  0  0  0
   -2.7750   25.3330  -26.5640 C   0  0  0  0  0  0  0  0  0  0  0  0
   -3.8640   24.4910  -26.7930 C   0  0  0  0  0  0  0  0  0  0  0  0
   -3.7540   23.4380  -27.7030 C   0  0  0  0  0  0  0  0  0  0  0  0
   -2.5520   23.2140  -28.3880 C   0  0  0  0  0  0  0  0  0  0  0  0
   -2.4630   21.8250  -29.5340 S   0  0  0  0  0  0  0  0  0  0  0  0
   -2.8740   22.7940  -31.0310 C   0  0  2  0  0  0  0  0  0  0  0  0
   -4.0400   23.7130  -30.7680 C   0  0  0  0  0  0  0  0  0  0  0  0
   -3.8430   24.8830  -30.4790 O   0  0  0  0  0  0  0  0  0  0  0  0
   -5.4460   23.1750  -30.8080 C   0  0  0  0  0  0  0  0  0  0  0  0
   -5.6620   22.3680  -32.1030 C   0  0  2  0  0  0  0  0  0  0  0  0
   -7.0660   21.7950  -32.1650 C   0  0  0  0  0  0  0  0  0  0  0  0
   -8.1800   22.5460  -31.7400 C   0  0  0  0  0  0  0  0  0  0  0  0
   -9.4660   22.0040  -31.8050 C   0  0  0  0  0  0  0  0  0  0  0  0
   -9.6580   20.7090  -32.2930 C   0  0  0  0  0  0  0  0  0  0  0  0
   -8.5610   19.9550  -32.7180 C   0  0  0  0  0  0  0  0  0  0  0  0
   -7.2720   20.4920  -32.6550 C   0  0  0  0  0  0  0  0  0  0  0  0
   -4.6010   21.2590  -32.2510 C   0  0  0  0  0  0  0  0  0  0  0  0
   -3.2140   21.8400  -32.1460 C   0  0  0  0  0  0  0  0  0  0  0  0
   -2.3430   21.4730  -32.9190 O   0  0  0  0  0  0  0  0  0  0  0  0
    0.6614   23.7962  -28.1998 H   0  0  0  0  0  0  0  0  0  0  0  0
   -0.2150   23.0102  -29.5566 H   0  0  0  0  0  0  0  0  0  0  0  0
    0.0300   24.7897  -29.5566 H   0  0  0  0  0  0  0  0  0  0  0  0
   -0.7221   25.7980  -27.0674 H   0  0  0  0  0  0  0  0  0  0  0  0
   -2.8595   26.1553  -25.8383 H   0  0  0  0  0  0  0  0  0  0  0  0
   -4.8096   24.6571  -26.2562 H   0  0  0  0  0  0  0  0  0  0  0  0
   -4.6166   22.7797  -27.8836 H   0  0  0  0  0  0  0  0  0  0  0  0
   -2.0088   23.4121  -31.3128 H   0  0  0  0  0  0  0  0  0  0  0  0
   -6.1581   24.0128  -30.7772 H   0  0  0  0  0  0  0  0  0  0  0  0
   -5.6072   22.5180  -29.9406 H   0  0  0  0  0  0  0  0  0  0  0  0
   -5.5453   23.0589  -32.9510 H   0  0  0  0  0  0  0  0  0  0  0  0
   -8.0361   23.5661  -31.3544 H   0  0  0  0  0  0  0  0  0  0  0  0
  -10.3294   22.5982  -31.4712 H   0  0  0  0  0  0  0  0  0  0  0  0
  -10.6712   20.2836  -32.3426 H   0  0  0  0  0  0  0  0  0  0  0  0
   -8.7123   18.9358  -33.1033 H   0  0  0  0  0  0  0  0  0  0  0  0
   -6.4131   19.8922  -32.9906 H   0  0  0  0  0  0  0  0  0  0  0  0
   -4.7176   20.7746  -33.2317 H   0  0  0  0  0  0  0  0  0  0  0  0
   -4.7407   20.5224  -31.4461 H   0  0  0  0  0  0  0  0  0  0  0  0
  1  2  1  0
  2  3  2  0
  3  4  1  0
  4  5  2  0
  5  6  1  0
  6  7  2  0
  7  8  1  0
  8  9  1  0
  9 10  1  0
 10 11  2  0
 10 12  1  0
 12 13  1  0
 13 14  1  0
 14 15  2  0
 15 16  1  0
 16 17  2  0
 17 18  1  0
 18 19  2  0
 13 20  1  0
 20 21  1  0
 21 22  2  0
  7  2  1  0
 21  9  1  0
 19 14  1  0
  1 23  1  0
  1 24  1  0
  1 25  1  0
  3 26  1  0
  4 27  1  0
  5 28  1  0
  6 29  1  0
  9 30  1  6
 12 31  1  0
 12 32  1  0
 13 33  1  6
 15 34  1  0
 16 35  1  0
 17 36  1  0
 18 37  1  0
 19 38  1  0
 20 39  1  0
 20 40  1  0
M  END
>  <UniqueID>  (29) 
29

>  <SMILES>  (29) 
Cc1ccccc1SC1C(=O)CC(c2ccccc2)CC1=O

>  <Energy>  (29) 
37.28610722313263

>  <Genealogy>  (29) 
Cc1ccccc1SC1C(=O)CC(c2ccccc2)CC1=O (3D coordinates assigned)
Cc1ccccc1SC1C(=O)CC(c2ccccc2)CC1=O (nonaromatic ring conformer: 37.28610722313263 kcal/mol)

>  <smiles>  (29) 
Cc1ccccc1SC1C(=O)CC(c2ccccc2)CC1=O

>  <score_type>  (29) 
oracle

>  <origin>  (29) 
adg

>  <m_score__min__energy>  (29) 
-8.8699999999999992

>  <m_primary>  (29) 
energy

$$$$
29:0
     RDKit          3D

 44 45  0  0  0  0  0  0  0  0999 V2000
   -9.1300   22.6400  -31.9640 C   0  0  0  0  0  0  0  0  0  0  0  0
   -9.3480   21.3220  -32.0170 C   0  0  0  0  0  0  0  0  0  0  0  0
   -8.5090   20.3510  -31.2330 C   0  0  0  0  0  0  0  0  0  0  0  0
   -7.5720   19.5940  -32.1420 C   0  0  0  0  0  0  0  0  0  0  0  0
   -7.7770   18.2210  -32.3620 C   0  0  0  0  0  0  0  0  0  0  0  0
   -6.9320   17.5080  -33.2170 C   0  0  0  0  0  0  0  0  0  0  0  0
   -5.8820   18.1590  -33.8630 C   0  0  0  0  0  0  0  0  0  0  0  0
   -5.6720   19.5260  -33.6620 C   0  0  0  0  0  0  0  0  0  0  0  0
   -6.5170   20.2580  -32.8030 C   0  0  0  0  0  0  0  0  0  0  0  0
   -6.3470   21.6360  -32.5860 O   0  0  0  0  0  0  0  0  0  0  0  0
   -5.1520   22.2560  -32.1090 C   0  0  2  0  0  0  0  0  0  0  0  0
   -4.7780   21.6200  -30.8920 O   0  0  0  0  0  0  0  0  0  0  0  0
   -3.7550   22.3040  -30.1850 C   0  0  1  0  0  0  0  0  0  0  0  0
   -2.3790   22.1890  -30.8850 C   0  0  0  0  0  0  0  0  0  0  0  0
   -2.3900   21.2290  -31.9050 O   0  0  0  0  0  0  0  0  0  0  0  0
   -4.1940   23.7380  -29.7410 C   0  0  1  0  0  0  0  0  0  0  0  0
   -3.1710   24.6940  -29.9850 O   0  0  0  0  0  0  0  0  0  0  0  0
   -2.2370   24.7070  -28.9270 C   0  0  0  0  0  0  0  0  0  0  0  0
   -5.4800   24.1700  -30.4770 C   0  0  1  0  0  0  0  0  0  0  0  0
   -5.6750   25.5560  -30.3510 O   0  0  0  0  0  0  0  0  0  0  0  0
   -5.3890   23.7870  -31.9570 C   0  0  2  0  0  0  0  0  0  0  0  0
   -6.5630   24.1740  -32.6280 O   0  0  0  0  0  0  0  0  0  0  0  0
   -9.7605   23.3257  -32.5490 H   0  0  0  0  0  0  0  0  0  0  0  0
   -8.3201   23.0387  -31.3354 H   0  0  0  0  0  0  0  0  0  0  0  0
  -10.1616   20.9382  -32.6500 H   0  0  0  0  0  0  0  0  0  0  0  0
   -7.9190   20.9046  -30.4877 H   0  0  0  0  0  0  0  0  0  0  0  0
   -9.1759   19.6307  -30.7366 H   0  0  0  0  0  0  0  0  0  0  0  0
   -8.6074   17.7046  -31.8583 H   0  0  0  0  0  0  0  0  0  0  0  0
   -7.0955   16.4325  -33.3803 H   0  0  0  0  0  0  0  0  0  0  0  0
   -5.2166   17.5949  -34.5331 H   0  0  0  0  0  0  0  0  0  0  0  0
   -4.8429   20.0336  -34.1768 H   0  0  0  0  0  0  0  0  0  0  0  0
   -4.3196   22.1385  -32.8184 H   0  0  0  0  0  0  0  0  0  0  0  0
   -3.5932   21.7862  -29.2281 H   0  0  0  0  0  0  0  0  0  0  0  0
   -2.1180   23.1656  -31.3187 H   0  0  0  0  0  0  0  0  0  0  0  0
   -1.6390   21.8784  -30.1328 H   0  0  0  0  0  0  0  0  0  0  0  0
   -3.2440   20.7340  -31.8090 H   0  0  0  0  0  0  0  0  0  0  0  0
   -4.3881   23.6966  -28.6590 H   0  0  0  0  0  0  0  0  0  0  0  0
   -2.7717   24.6996  -27.9657 H   0  0  0  0  0  0  0  0  0  0  0  0
   -1.5932   23.8177  -28.9953 H   0  0  0  0  0  0  0  0  0  0  0  0
   -1.6182   25.6138  -28.9953 H   0  0  0  0  0  0  0  0  0  0  0  0
   -6.3370   23.6513  -30.0225 H   0  0  0  0  0  0  0  0  0  0  0  0
   -4.9860   25.8840  -29.7160 H   0  0  0  0  0  0  0  0  0  0  0  0
   -4.5353   24.3143  -32.4077 H   0  0  0  0  0  0  0  0  0  0  0  0
   -6.6430   23.6000  -33.4340 H   0  0  0  0  0  0  0  0  0  0  0  0
  1  2  2  0
  2  3  1  0
  3  4  1  0
  4  5  2  0
  5  6  1  0
  6  7  2  0
  7  8  1  0
  8  9  2  0
  9 10  1  0
 10 11  1  0
 11 12  1  0
 12 13  1  0
 13 14  1  0
 14 15  1  0
 13 16  1  0
 16 17  1  0
 17 18  1  0
 16 19  1  0
 19 20  1  0
 19 21  1  0
 21 22  1  0
  9  4  1  0
 21 11  1  0
  1 23  1  0
  1 24  1  0
  2 25  1  0
  3 26  1  0
  3 27  1  0
  5 28  1  0
  6 29  1  0
  7 30  1  0
  8 31  1  0
 11 32  1  6
 13 33  1  1
 14 34  1  0
 14 35  1  0
 15 36  1  0
 16 37  1  1
 18 38  1  0
 18 39  1  0
 18 40  1  0
 19 41  1  1
 20 42  1  0
 21 43  1  6
 22 44  1  0
M  END
>  <UniqueID>  (30) 
30

>  <SMILES>  (30) 
C=CCc1ccccc1O[C@@H]1O[C@@H](CO)C(OC)C(O)C1O

>  <Energy>  (30) 
57.00350136862739

>  <Genealogy>  (30) 
C=CCc1ccccc1O[C@@H]1O[C@@H](CO)C(OC)C(O)C1O (chirality)
C=CCc1ccccc1O[C@@H]1O[C@@H](CO)C(OC)C(O)C1O (3D coordinates assigned)
C=CCc1ccccc1O[C@@H]1O[C@@H](CO)C(OC)C(O)C1O (nonaromatic ring conformer: 57.00350136862739 kcal/mol)

>  <smiles>  (30) 
C=CCc1ccccc1OC1OC(CO)C(OC)C(O)C1O

>  <score_type>  (30) 
oracle

>  <origin>  (30) 
adg

>  <m_score__min__energy>  (30) 
-6.9299999999999997

>  <m_primary>  (30) 
energy

$$$$
30:0
     RDKit          3D

 40 42  0  0  0  0  0  0  0  0999 V2000
   -8.4621   23.5930  -31.0655 H   0  0  0  0  0  0  0  0  0  0  0  0
   -7.4140   23.8940  -30.9210 C   0  0  0  0  0  0  0  0  0  0  0  0
   -6.3940   23.2820  -31.6580 C   0  0  0  0  0  0  0  0  0  0  0  0
   -6.7100   22.1840  -32.6220 C   0  0  0  0  0  0  0  0  0  0  0  0
   -6.9725   21.2720  -32.0658 H   0  0  0  0  0  0  0  0  0  0  0  0
   -7.5581   22.4844  -33.2548 H   0  0  0  0  0  0  0  0  0  0  0  0
   -5.8319   21.9876  -33.2548 H   0  0  0  0  0  0  0  0  0  0  0  0
   -5.1020   23.6590  -31.4610 N   0  0  0  0  0  0  0  0  0  0  0  0
   -4.7460   24.6380  -30.5840 C   0  0  0  0  0  0  0  0  0  0  0  0
   -3.4780   24.9220  -30.4680 N   0  0  0  0  0  0  0  0  0  0  0  0
   -2.4830   24.3360  -29.6120 C   0  0  0  0  0  0  0  0  0  0  0  0
   -1.7260   25.0520  -28.9010 O   0  0  0  0  0  0  0  0  0  0  0  0
   -2.2790   22.8440  -29.6360 C   0  0  0  0  0  0  0  0  0  0  0  0
   -2.6866   22.4237  -28.7048 H   0  0  0  0  0  0  0  0  0  0  0  0
   -1.1976   22.6712  -29.7395 H   0  0  0  0  0  0  0  0  0  0  0  0
   -2.9350   22.1660  -30.7810 N   0  0  2  0  0  0  0  0  0  0  0  0
   -3.6080   22.8660  -31.1810 H   0  0  0  0  0  0  0  0  0  0  0  0
   -3.7290   20.9880  -30.3490 C   0  0  0  0  0  0  0  0  0  0  0  0
   -4.5389   21.3196  -29.6826 H   0  0  0  0  0  0  0  0  0  0  0  0
   -3.0709   20.2854  -29.8168 H   0  0  0  0  0  0  0  0  0  0  0  0
   -4.3190   20.3000  -31.5420 C   0  0  0  0  0  0  0  0  0  0  0  0
   -5.3590   19.4400  -31.5020 N   0  0  0  0  0  0  0  0  0  0  0  0
   -5.4800   19.0420  -32.7880 C   0  0  0  0  0  0  0  0  0  0  0  0
   -6.5530   18.1270  -33.2780 C   0  0  0  0  0  0  0  0  0  0  0  0
   -7.0756   17.6814  -32.4187 H   0  0  0  0  0  0  0  0  0  0  0  0
   -7.2698   18.6961  -33.8882 H   0  0  0  0  0  0  0  0  0  0  0  0
   -6.1043   17.3293  -33.8882 H   0  0  0  0  0  0  0  0  0  0  0  0
   -4.5310   19.6620  -33.5760 C   0  0  0  0  0  0  0  0  0  0  0  0
   -4.4069   19.5454  -34.6627 H   0  0  0  0  0  0  0  0  0  0  0  0
   -3.7890   20.4330  -32.7680 N   0  0  0  0  0  0  0  0  0  0  0  0
   -2.7110   21.3500  -33.1260 C   0  0  0  0  0  0  0  0  0  0  0  0
   -3.1328   22.2258  -33.6407 H   0  0  0  0  0  0  0  0  0  0  0  0
   -2.0022   20.8343  -33.7906 H   0  0  0  0  0  0  0  0  0  0  0  0
   -1.9720   21.8110  -31.8550 C   0  0  0  0  0  0  0  0  0  0  0  0
   -1.3588   22.6923  -32.0946 H   0  0  0  0  0  0  0  0  0  0  0  0
   -1.3370   20.9863  -31.4991 H   0  0  0  0  0  0  0  0  0  0  0  0
   -5.7540   25.2670  -29.8220 C   0  0  0  0  0  0  0  0  0  0  0  0
   -5.4924   26.0479  -29.0928 H   0  0  0  0  0  0  0  0  0  0  0  0
   -7.0870   24.8890  -30.0020 C   0  0  0  0  0  0  0  0  0  0  0  0
   -7.8799   25.3779  -29.4170 H   0  0  0  0  0  0  0  0  0  0  0  0
  1  2  1  0
  2  3  2  0
  3  4  1  0
  4  5  1  0
  4  6  1  0
  4  7  1  0
  3  8  1  0
  8  9  1  0
  9 10  2  0
 10 11  1  0
 11 12  2  0
 11 13  1  0
 13 14  1  0
 13 15  1  0
 13 16  1  0
 16 17  1  6
 16 18  1  0
 18 19  1  0
 18 20  1  0
 18 21  1  0
 21 22  2  0
 22 23  1  0
 23 24  1  0
 24 25  1  0
 24 26  1  0
 24 27  1  0
 23 28  2  0
 28 29  1  0
 28 30  1  0
 30 31  1  0
 31 32  1  0
 31 33  1  0
 31 34  1  0
 34 35  1  0
 34 36  1  0
  9 37  1  0
 37 38  1  0
 37 39  2  0
 39 40  1  0
 39  2  1  0
 34 16  1  0
 30 21  1  0
M  CHG  2   8  -1  16   1
M  END
>  <UniqueID>  (31) 
31

>  <SMILES>  (31) 
Cc1cn2c(n1)C[N@@H+](CC(=O)/N=c1\cccc(C)[n-]1)CC2

>  <Energy>  (31) 
81.1415547690069

>  <Genealogy>  (31) 
Cc1cn2c(n1)C[NH+](CC(=O)N=c1cccc(C)[n-]1)CC2 (protonated)
Cc1cn2c(n1)C[N@@H+](CC(=O)N=c1cccc(C)[n-]1)CC2 (chirality)
Cc1cn2c(n1)C[N@@H+](CC(=O)/N=c1\cccc(C)[n-]1)CC2 (cis-trans isomerization)
Cc1cn2c(n1)C[N@@H+](CC(=O)/N=c1\cccc(C)[n-]1)CC2 (3D coordinates assigned)
Cc1cn2c(n1)C[N@@H+](CC(=O)/N=c1\cccc(C)[n-]1)CC2 (nonaromatic ring conformer: 81.1415547690069 kcal/mol)

>  <smiles>  (31) 
Cc1cn2c(n1)CN(CC(=O)N=c1cccc(C)[nH]1)CC2

>  <score_type>  (31) 
oracle

>  <origin>  (31) 
adg

>  <m_score__min__energy>  (31) 
-8.3699999999999992

>  <m_primary>  (31) 
energy

$$$$
31:0
     RDKit          3D

 63 66  0  0  1  0  0  0  0  0999 V2000
   -8.9350   19.1170  -31.7650 C   0  0  0  0  0  0  0  0  0  0  0  0
   -8.5560   20.0520  -32.8830 C   0  0  0  0  0  0  0  0  0  0  0  0
   -7.5710   21.0140  -32.4600 N   0  0  0  0  0  0  0  0  0  0  0  0
   -7.9780   22.2190  -31.9920 C   0  0  0  0  0  0  0  0  0  0  0  0
   -9.4330   22.5800  -31.9100 C   0  0  0  0  0  0  0  0  0  0  0  0
   -7.1230   23.1690  -31.5760 N   0  0  0  0  0  0  0  0  0  0  0  0
   -5.7930   22.9730  -31.6020 C   0  0  0  0  0  0  0  0  0  0  0  0
   -5.0040   23.8820  -31.2050 N   0  0  0  0  0  0  0  0  0  0  0  0
   -4.6660   24.1560  -29.8380 C   0  0  0  0  0  0  0  0  0  0  0  0
   -5.1020   23.1320  -28.8520 C   0  0  0  0  0  0  0  0  0  0  0  0
   -3.8870   22.9420  -27.9640 C   0  0  0  0  0  0  0  0  0  0  0  0
   -3.0930   24.2390  -28.0960 C   0  0  0  0  0  0  0  0  0  0  0  0
   -3.2110   24.4550  -29.6050 C   0  0  0  0  0  0  0  0  0  0  0  0
   -5.3520   21.7380  -32.0800 C   0  0  0  0  0  0  0  0  0  0  0  0
   -3.8960   21.5720  -32.0890 C   0  0  0  0  0  0  0  0  0  0  0  0
   -3.3300   21.3660  -33.3510 C   0  0  0  0  0  0  0  0  0  0  0  0
   -1.9660   21.1730  -33.5080 C   0  0  0  0  0  0  0  0  0  0  0  0
   -1.2180   21.1950  -32.3430 C   0  0  0  0  0  0  0  0  0  0  0  0
   -1.8240   21.4020  -31.1030 C   0  0  0  0  0  0  0  0  0  0  0  0
   -3.1470   21.5890  -30.9770 N   0  0  0  0  0  0  0  0  0  0  0  0
   -6.2300   20.7690  -32.5050 C   0  0  0  0  0  0  0  0  0  0  0  0
   -5.6950   19.5450  -32.9710 N   0  0  0  0  0  0  0  0  0  0  0  0
   -5.7760   19.2110  -34.3770 C   0  0  0  0  0  0  0  0  0  0  0  0
   -5.8150   17.7460  -34.6660 C   0  0  0  0  0  0  0  0  0  0  0  0
   -6.6910   16.9270  -33.7670 C   0  0  0  0  0  0  0  0  0  0  0  0
   -6.1910   16.6050  -32.4900 N   0  0  0  0  0  0  0  0  0  0  0  0
   -5.2610   15.5330  -32.4150 C   0  0  0  0  0  0  0  0  0  0  0  0
   -6.0470   17.6190  -31.5170 C   0  0  0  0  0  0  0  0  0  0  0  0
   -5.0870   18.6850  -31.9570 C   0  0  0  0  0  0  0  0  0  0  0  0
   -8.7380   19.6029  -30.7980 H   0  0  0  0  0  0  0  0  0  0  0  0
  -10.0043   18.8700  -31.8402 H   0  0  0  0  0  0  0  0  0  0  0  0
   -8.3395   18.1952  -31.8402 H   0  0  0  0  0  0  0  0  0  0  0  0
   -8.1450   19.4634  -33.7165 H   0  0  0  0  0  0  0  0  0  0  0  0
   -9.4583   20.5985  -33.1947 H   0  0  0  0  0  0  0  0  0  0  0  0
   -9.7334   22.6545  -30.8544 H   0  0  0  0  0  0  0  0  0  0  0  0
   -9.5996   23.5467  -32.4077 H   0  0  0  0  0  0  0  0  0  0  0  0
  -10.0321   21.8033  -32.4077 H   0  0  0  0  0  0  0  0  0  0  0  0
   -5.2539   25.0680  -29.6574 H   0  0  0  0  0  0  0  0  0  0  0  0
   -5.9616   23.4920  -28.2677 H   0  0  0  0  0  0  0  0  0  0  0  0
   -5.4305   22.1965  -29.3283 H   0  0  0  0  0  0  0  0  0  0  0  0
   -4.1930   22.7808  -26.9198 H   0  0  0  0  0  0  0  0  0  0  0  0
   -3.2941   22.0634  -28.2582 H   0  0  0  0  0  0  0  0  0  0  0  0
   -3.5520   25.0608  -27.5268 H   0  0  0  0  0  0  0  0  0  0  0  0
   -2.0645   24.1998  -27.7078 H   0  0  0  0  0  0  0  0  0  0  0  0
   -2.9640   25.4902  -29.8832 H   0  0  0  0  0  0  0  0  0  0  0  0
   -2.5249   23.8359  -30.2016 H   0  0  0  0  0  0  0  0  0  0  0  0
   -3.9806   21.3569  -34.2379 H   0  0  0  0  0  0  0  0  0  0  0  0
   -1.5074   21.0127  -34.4949 H   0  0  0  0  0  0  0  0  0  0  0  0
   -0.1293   21.0470  -32.3957 H   0  0  0  0  0  0  0  0  0  0  0  0
   -1.1968   21.4122  -30.1994 H   0  0  0  0  0  0  0  0  0  0  0  0
   -6.6903   19.6660  -34.7858 H   0  0  0  0  0  0  0  0  0  0  0  0
   -4.8572   19.5967  -34.8429 H   0  0  0  0  0  0  0  0  0  0  0  0
   -6.1737   17.6149  -35.6976 H   0  0  0  0  0  0  0  0  0  0  0  0
   -4.7909   17.3811  -34.4987 H   0  0  0  0  0  0  0  0  0  0  0  0
   -7.6284   17.4844  -33.6231 H   0  0  0  0  0  0  0  0  0  0  0  0
   -6.7934   15.9595  -34.2804 H   0  0  0  0  0  0  0  0  0  0  0  0
   -5.0569   15.2978  -31.3600 H   0  0  0  0  0  0  0  0  0  0  0  0
   -5.6815   14.6472  -32.9135 H   0  0  0  0  0  0  0  0  0  0  0  0
   -4.3247   15.8243  -32.9135 H   0  0  0  0  0  0  0  0  0  0  0  0
   -7.0295   18.0787  -31.3345 H   0  0  0  0  0  0  0  0  0  0  0  0
   -5.6482   17.1583  -30.6012 H   0  0  0  0  0  0  0  0  0  0  0  0
   -4.8043   19.2968  -31.0877 H   0  0  0  0  0  0  0  0  0  0  0  0
   -4.1988   18.2023  -32.3907 H   0  0  0  0  0  0  0  0  0  0  0  0
  1  2  1  0
  2  3  1  0
  3  4  1  0
  4  5  1  0
  4  6  2  0
  6  7  1  0
  7  8  2  0
  8  9  1  0
  9 10  1  0
 10 11  1  0
 11 12  1  0
 12 13  1  0
  7 14  1  0
 14 15  1  0
 15 16  2  0
 16 17  1  0
 17 18  2  0
 18 19  1  0
 19 20  2  0
 14 21  2  0
 21 22  1  0
 22 23  1  0
 23 24  1  0
 24 25  1  0
 25 26  1  0
 26 27  1  0
 26 28  1  0
 28 29  1  0
 21  3  1  0
 29 22  1  0
 13  9  1  0
 20 15  1  0
  1 30  1  0
  1 31  1  0
  1 32  1  0
  2 33  1  0
  2 34  1  0
  5 35  1  0
  5 36  1  0
  5 37  1  0
  9 38  1  0
 10 39  1  0
 10 40  1  0
 11 41  1  0
 11 42  1  0
 12 43  1  0
 12 44  1  0
 13 45  1  0
 13 46  1  0
 16 47  1  0
 17 48  1  0
 18 49  1  0
 19 50  1  0
 23 51  1  0
 23 52  1  0
 24 53  1  0
 24 54  1  0
 25 55  1  0
 25 56  1  0
 27 57  1  0
 27 58  1  0
 27 59  1  0
 28 60  1  0
 28 61  1  0
 29 62  1  0
 29 63  1  0
M  END
>  <smiles>  (32) 
CCn1c(C)nc(=NC2CCCC2)c(-c2ccccn2)c1N1CCCN(C)CC1

>  <score_type>  (32) 
oracle

>  <origin>  (32) 
adg

>  <m_score__min__energy>  (32) 
-7.5899999999999999

>  <m_primary>  (32) 
energy

$$$$
32:0
     RDKit          3D

 48 50  0  0  0  0  0  0  0  0999 V2000
   -8.1667   20.9344  -31.6671 H   0  0  0  0  0  0  0  0  0  0  0  0
   -7.2970   21.1110  -32.3170 C   0  0  0  0  0  0  0  0  0  0  0  0
   -7.2410   20.4020  -33.4610 C   0  0  0  0  0  0  0  0  0  0  0  0
   -7.8132   20.8171  -34.3038 H   0  0  0  0  0  0  0  0  0  0  0  0
   -6.4930   19.1010  -33.7510 C   0  0  1  0  0  0  0  0  0  0  0  0
   -6.9285   18.8591  -34.7317 H   0  0  0  0  0  0  0  0  0  0  0  0
   -4.9870   19.2430  -33.7820 C   0  0  0  0  0  0  0  0  0  0  0  0
   -4.6938   20.3031  -33.7707 H   0  0  0  0  0  0  0  0  0  0  0  0
   -4.5396   18.8138  -34.6906 H   0  0  0  0  0  0  0  0  0  0  0  0
   -4.5240   18.5380  -32.5090 C   0  0  0  0  0  0  0  0  0  0  0  0
   -3.9936   19.2557  -31.8659 H   0  0  0  0  0  0  0  0  0  0  0  0
   -3.8489   17.7114  -32.7756 H   0  0  0  0  0  0  0  0  0  0  0  0
   -5.6430   18.0230  -31.8150 O   0  0  0  0  0  0  0  0  0  0  0  0
   -6.7080   17.9570  -32.7380 C   0  0  0  0  0  0  0  0  0  0  0  0
   -8.0540   18.0360  -31.9910 C   0  0  0  0  0  0  0  0  0  0  0  0
   -7.8724   18.0253  -30.9061 H   0  0  0  0  0  0  0  0  0  0  0  0
   -8.5724   18.9661  -32.2669 H   0  0  0  0  0  0  0  0  0  0  0  0
   -8.6777   17.1729  -32.2669 H   0  0  0  0  0  0  0  0  0  0  0  0
   -6.6540   16.5840  -33.4510 C   0  0  0  0  0  0  0  0  0  0  0  0
   -6.6224   15.7815  -32.6993 H   0  0  0  0  0  0  0  0  0  0  0  0
   -7.5480   16.4621  -34.0802 H   0  0  0  0  0  0  0  0  0  0  0  0
   -5.7531   16.5327  -34.0802 H   0  0  0  0  0  0  0  0  0  0  0  0
   -6.3110   22.0980  -31.8500 C   0  0  0  0  0  0  0  0  0  0  0  0
   -5.0430   21.6930  -31.4090 C   0  0  0  0  0  0  0  0  0  0  0  0
   -4.7580   20.6318  -31.4603 H   0  0  0  0  0  0  0  0  0  0  0  0
   -4.1390   22.6340  -30.9040 C   0  0  0  0  0  0  0  0  0  0  0  0
   -3.1309   22.3151  -30.6008 H   0  0  0  0  0  0  0  0  0  0  0  0
   -4.5090   23.9790  -30.7820 C   0  0  0  0  0  0  0  0  0  0  0  0
   -3.5460   24.9220  -30.2920 N   0  0  0  0  0  0  0  0  0  0  0  0
   -2.7100   24.7470  -29.1430 C   0  0  0  0  0  0  0  0  0  0  0  0
   -3.2490   24.5440  -28.0210 O   0  0  0  0  0  0  0  0  0  0  0  0
   -1.2840   24.8770  -29.2430 N   0  0  0  0  0  0  0  0  0  0  0  0
   -0.8870   25.3870  -30.0630 H   0  0  0  0  0  0  0  0  0  0  0  0
   -0.4040   24.5430  -28.1600 C   0  0  0  0  0  0  0  0  0  0  0  0
   -0.0090   23.2040  -27.9680 C   0  0  0  0  0  0  0  0  0  0  0  0
   -0.5370   21.9350  -29.0640 Cl  0  0  0  0  0  0  0  0  0  0  0  0
    0.8390   22.8690  -26.9060 C   0  0  0  0  0  0  0  0  0  0  0  0
    1.1538   21.8245  -26.7647 H   0  0  0  0  0  0  0  0  0  0  0  0
    1.2870   23.8560  -26.0250 C   0  0  0  0  0  0  0  0  0  0  0  0
    1.9568   23.5882  -25.1946 H   0  0  0  0  0  0  0  0  0  0  0  0
    0.8860   25.1810  -26.1970 C   0  0  0  0  0  0  0  0  0  0  0  0
    1.2367   25.9541  -25.4975 H   0  0  0  0  0  0  0  0  0  0  0  0
    0.0390   25.5320  -27.2560 C   0  0  0  0  0  0  0  0  0  0  0  0
   -0.5010   27.2020  -27.3790 Cl  0  0  0  0  0  0  0  0  0  0  0  0
   -5.7910   24.3790  -31.1940 C   0  0  0  0  0  0  0  0  0  0  0  0
   -6.0862   25.4359  -31.1174 H   0  0  0  0  0  0  0  0  0  0  0  0
   -6.6930   23.4390  -31.7010 C   0  0  0  0  0  0  0  0  0  0  0  0
   -7.7083   23.7531  -31.9847 H   0  0  0  0  0  0  0  0  0  0  0  0
  1  2  1  0
  2  3  2  0
  3  4  1  0
  3  5  1  0
  5  6  1  6
  5  7  1  0
  7  8  1  0
  7  9  1  0
  7 10  1  0
 10 11  1  0
 10 12  1  0
 10 13  1  0
 13 14  1  0
 14 15  1  0
 15 16  1  0
 15 17  1  0
 15 18  1  0
 14 19  1  0
 19 20  1  0
 19 21  1  0
 19 22  1  0
  2 23  1  0
 23 24  2  0
 24 25  1  0
 24 26  1  0
 26 27  1  0
 26 28  2  0
 28 29  1  0
 29 30  1  0
 30 31  2  0
 30 32  1  0
 32 33  1  0
 32 34  1  0
 34 35  2  0
 35 36  1  0
 35 37  1  0
 37 38  1  0
 37 39  2  0
 39 40  1  0
 39 41  1  0
 41 42  1  0
 41 43  2  0
 43 44  1  0
 28 45  1  0
 45 46  1  0
 45 47  2  0
 47 48  1  0
 14  5  1  0
 47 23  1  0
 43 34  1  0
M  CHG  1  29  -1
M  END
>  <UniqueID>  (33) 
32

>  <SMILES>  (33) 
CC1(C)OCC[C@@H]1/C=C\c1ccc([N-]C(=O)Nc2c(Cl)cccc2Cl)cc1

>  <Energy>  (33) 
73.47479067116818

>  <Genealogy>  (33) 
CC1(C)OCCC1C=Cc1ccc([N-]C(=O)Nc2c(Cl)cccc2Cl)cc1 (protonated)
CC1(C)OCC[C@@H]1C=Cc1ccc([N-]C(=O)Nc2c(Cl)cccc2Cl)cc1 (chirality)
CC1(C)OCC[C@@H]1/C=C\c1ccc([N-]C(=O)Nc2c(Cl)cccc2Cl)cc1 (cis-trans isomerization)
CC1(C)OCC[C@@H]1/C=C\c1ccc([N-]C(=O)Nc2c(Cl)cccc2Cl)cc1 (3D coordinates assigned)
CC1(C)OCC[C@@H]1/C=C\c1ccc([N-]C(=O)Nc2c(Cl)cccc2Cl)cc1 (nonaromatic ring conformer: 73.47479067116818 kcal/mol)

>  <smiles>  (33) 
CC1(C)OCCC1C=Cc1ccc(NC(=O)Nc2c(Cl)cccc2Cl)cc1

>  <score_type>  (33) 
oracle

>  <origin>  (33) 
adg

>  <m_score__min__energy>  (33) 
-10.99

>  <m_primary>  (33) 
energy

$$$$
33:0
     RDKit          3D

 42 43  0  0  0  0  0  0  0  0999 V2000
   -5.2310   25.6830  -30.4760 C   0  0  0  0  0  0  0  0  0  0  0  0
   -3.8640   25.2830  -30.4830 O   0  0  0  0  0  0  0  0  0  0  0  0
   -3.4240   23.9580  -30.3410 C   0  0  0  0  0  0  0  0  0  0  0  0
   -2.4040   23.6930  -29.4210 C   0  0  0  0  0  0  0  0  0  0  0  0
   -1.9210   22.3930  -29.2540 C   0  0  0  0  0  0  0  0  0  0  0  0
   -2.4610   21.3430  -29.9980 C   0  0  0  0  0  0  0  0  0  0  0  0
   -3.5030   21.5810  -30.9080 C   0  0  0  0  0  0  0  0  0  0  0  0
   -4.0310   20.4870  -31.6760 N   0  0  0  0  0  0  0  0  0  0  0  0
   -3.9700   20.4120  -33.1100 C   0  0  0  0  0  0  0  0  0  0  0  0
   -3.5990   21.4060  -33.7910 O   0  0  0  0  0  0  0  0  0  0  0  0
   -4.3420   19.1410  -33.8080 C   0  0  0  0  0  0  0  0  0  0  0  0
   -4.7320   18.1360  -32.8120 N   0  0  0  0  0  0  0  0  0  0  0  0
   -6.1640   17.7980  -32.8800 C   0  0  0  0  0  0  0  0  0  0  0  0
   -6.9490   18.1350  -31.5980 C   0  0  0  0  0  0  0  0  0  0  0  0
   -8.6950   18.5900  -31.9160 S   0  0  0  0  0  0  0  0  0  0  0  0
   -8.4000   20.3570  -32.0050 C   0  0  0  0  0  0  0  0  0  0  0  0
   -9.4700   21.2550  -31.8950 C   0  0  0  0  0  0  0  0  0  0  0  0
   -9.2370   22.6330  -31.9480 C   0  0  0  0  0  0  0  0  0  0  0  0
   -7.9350   23.1180  -32.1020 C   0  0  0  0  0  0  0  0  0  0  0  0
   -6.8630   22.2240  -32.2030 C   0  0  0  0  0  0  0  0  0  0  0  0
   -7.0940   20.8450  -32.1510 C   0  0  0  0  0  0  0  0  0  0  0  0
   -3.9680   22.8960  -31.0920 C   0  0  0  0  0  0  0  0  0  0  0  0
   -5.5780   25.7845  -29.4371 H   0  0  0  0  0  0  0  0  0  0  0  0
   -5.3331   26.6487  -30.9927 H   0  0  0  0  0  0  0  0  0  0  0  0
   -5.8376   24.9247  -30.9927 H   0  0  0  0  0  0  0  0  0  0  0  0
   -1.9793   24.5142  -28.8249 H   0  0  0  0  0  0  0  0  0  0  0  0
   -1.1128   22.1964  -28.5341 H   0  0  0  0  0  0  0  0  0  0  0  0
   -2.0680   20.3235  -29.8707 H   0  0  0  0  0  0  0  0  0  0  0  0
   -4.5710   19.7480  -31.1700 H   0  0  0  0  0  0  0  0  0  0  0  0
   -5.1848   19.3292  -34.4894 H   0  0  0  0  0  0  0  0  0  0  0  0
   -3.4813   18.7725  -34.3853 H   0  0  0  0  0  0  0  0  0  0  0  0
   -4.4900   18.4820  -31.8550 H   0  0  0  0  0  0  0  0  0  0  0  0
   -6.6116   18.3552  -33.7162 H   0  0  0  0  0  0  0  0  0  0  0  0
   -6.2277   16.7082  -33.0149 H   0  0  0  0  0  0  0  0  0  0  0  0
   -6.9321   17.2559  -30.9370 H   0  0  0  0  0  0  0  0  0  0  0  0
   -6.4632   19.0084  -31.1386 H   0  0  0  0  0  0  0  0  0  0  0  0
  -10.4945   20.8757  -31.7668 H   0  0  0  0  0  0  0  0  0  0  0  0
  -10.0793   23.3360  -31.8684 H   0  0  0  0  0  0  0  0  0  0  0  0
   -7.7531   24.2021  -32.1438 H   0  0  0  0  0  0  0  0  0  0  0  0
   -5.8384   22.6056  -32.3233 H   0  0  0  0  0  0  0  0  0  0  0  0
   -6.2501   20.1432  -32.2247 H   0  0  0  0  0  0  0  0  0  0  0  0
   -4.7615   23.0970  -31.8269 H   0  0  0  0  0  0  0  0  0  0  0  0
  1  2  1  0
  2  3  1  0
  3  4  2  0
  4  5  1  0
  5  6  2  0
  6  7  1  0
  7  8  1  0
  8  9  1  0
  9 10  2  0
  9 11  1  0
 11 12  1  0
 12 13  1  0
 13 14  1  0
 14 15  1  0
 15 16  1  0
 16 17  2  0
 17 18  1  0
 18 19  2  0
 19 20  1  0
 20 21  2  0
  7 22  2  0
 22  3  1  0
 21 16  1  0
  1 23  1  0
  1 24  1  0
  1 25  1  0
  4 26  1  0
  5 27  1  0
  6 28  1  0
  8 29  1  0
 11 30  1  0
 11 31  1  0
 12 32  1  0
 13 33  1  0
 13 34  1  0
 14 35  1  0
 14 36  1  0
 17 37  1  0
 18 38  1  0
 19 39  1  0
 20 40  1  0
 21 41  1  0
 22 42  1  0
M  END
>  <UniqueID>  (34) 
33

>  <SMILES>  (34) 
COc1cccc(NC(=O)CNCCSc2ccccc2)c1

>  <Energy>  (34) 
39.36532380616178

>  <Genealogy>  (34) 
COc1cccc(NC(=O)CNCCSc2ccccc2)c1 (3D coordinates assigned)
COc1cccc(NC(=O)CNCCSc2ccccc2)c1 (optimized conformer: 39.36532380616178 kcal/mol)

>  <smiles>  (34) 
COc1cccc(NC(=O)CNCCSc2ccccc2)c1

>  <score_type>  (34) 
oracle

>  <origin>  (34) 
adg

>  <m_score__min__energy>  (34) 
-8.6600000000000001

>  <m_primary>  (34) 
energy

$$$$
34:0
     RDKit          3D

 47 48  0  0  0  0  0  0  0  0999 V2000
   -4.6580   13.6660  -32.6630 C   0  0  0  0  0  0  0  0  0  0  0  0
   -5.6280   14.4430  -33.5660 C   0  0  0  0  0  0  0  0  0  0  0  0
   -5.5650   15.9220  -33.4130 N   0  0  0  0  0  0  0  0  0  0  0  0
   -5.0910   16.2970  -32.0530 C   0  0  0  0  0  0  0  0  0  0  0  0
   -6.1110   17.1480  -31.2860 C   0  0  0  0  0  0  0  0  0  0  0  0
   -4.7530   16.5950  -34.4650 C   0  0  0  0  0  0  0  0  0  0  0  0
   -5.4580   17.8040  -35.1030 C   0  0  0  0  0  0  0  0  0  0  0  0
   -6.4360   18.3320  -34.2110 O   0  0  0  0  0  0  0  0  0  0  0  0
   -6.2960   19.5280  -33.4880 C   0  0  0  0  0  0  0  0  0  0  0  0
   -5.0920   20.2550  -33.4810 C   0  0  0  0  0  0  0  0  0  0  0  0
   -4.9820   21.4370  -32.7460 C   0  0  0  0  0  0  0  0  0  0  0  0
   -6.0700   21.9190  -32.0000 C   0  0  0  0  0  0  0  0  0  0  0  0
   -5.9490   23.1740  -31.2150 C   0  0  0  0  0  0  0  0  0  0  0  0
   -4.6920   23.7730  -31.0120 C   0  0  0  0  0  0  0  0  0  0  0  0
   -4.5820   24.9550  -30.2720 C   0  0  0  0  0  0  0  0  0  0  0  0
   -5.7220   25.5510  -29.7300 C   0  0  0  0  0  0  0  0  0  0  0  0
   -6.9760   24.9670  -29.9260 C   0  0  0  0  0  0  0  0  0  0  0  0
   -7.0920   23.7860  -30.6630 C   0  0  0  0  0  0  0  0  0  0  0  0
   -7.2740   21.1930  -32.0070 C   0  0  0  0  0  0  0  0  0  0  0  0
   -7.3950   20.0070  -32.7500 C   0  0  0  0  0  0  0  0  0  0  0  0
   -8.6820   19.2320  -32.7240 C   0  0  0  0  0  0  0  0  0  0  0  0
   -4.9023   13.8617  -31.6085 H   0  0  0  0  0  0  0  0  0  0  0  0
   -4.7501   12.5890  -32.8670 H   0  0  0  0  0  0  0  0  0  0  0  0
   -3.6271   13.9910  -32.8670 H   0  0  0  0  0  0  0  0  0  0  0  0
   -5.3956   14.1959  -34.6124 H   0  0  0  0  0  0  0  0  0  0  0  0
   -6.6427   14.1411  -33.2672 H   0  0  0  0  0  0  0  0  0  0  0  0
   -6.5530   16.2610  -33.5110 H   0  0  0  0  0  0  0  0  0  0  0  0
   -4.8986   15.3773  -31.4811 H   0  0  0  0  0  0  0  0  0  0  0  0
   -4.1782   16.8990  -32.1728 H   0  0  0  0  0  0  0  0  0  0  0  0
   -5.9566   17.0192  -30.2045 H   0  0  0  0  0  0  0  0  0  0  0  0
   -5.9785   18.2072  -31.5517 H   0  0  0  0  0  0  0  0  0  0  0  0
   -7.1293   16.8279  -31.5517 H   0  0  0  0  0  0  0  0  0  0  0  0
   -3.8121   16.9398  -34.0114 H   0  0  0  0  0  0  0  0  0  0  0  0
   -4.5847   15.8588  -35.2648 H   0  0  0  0  0  0  0  0  0  0  0  0
   -4.7133   18.5819  -35.3271 H   0  0  0  0  0  0  0  0  0  0  0  0
   -5.9552   17.4811  -36.0296 H   0  0  0  0  0  0  0  0  0  0  0  0
   -4.2304   19.8896  -34.0590 H   0  0  0  0  0  0  0  0  0  0  0  0
   -4.0345   21.9958  -32.7513 H   0  0  0  0  0  0  0  0  0  0  0  0
   -3.7902   23.3089  -31.4379 H   0  0  0  0  0  0  0  0  0  0  0  0
   -3.5952   25.4157  -30.1169 H   0  0  0  0  0  0  0  0  0  0  0  0
   -5.6330   26.4805  -29.1485 H   0  0  0  0  0  0  0  0  0  0  0  0
   -7.8737   25.4381  -29.4991 H   0  0  0  0  0  0  0  0  0  0  0  0
   -8.0820   23.3308  -30.8134 H   0  0  0  0  0  0  0  0  0  0  0  0
   -8.1319   21.5583  -31.4234 H   0  0  0  0  0  0  0  0  0  0  0  0
   -8.9807   19.0521  -31.6807 H   0  0  0  0  0  0  0  0  0  0  0  0
   -9.4671   19.8077  -33.2361 H   0  0  0  0  0  0  0  0  0  0  0  0
   -8.5404   18.2688  -33.2361 H   0  0  0  0  0  0  0  0  0  0  0  0
  1  2  1  0
  2  3  1  0
  3  4  1  0
  4  5  1  0
  3  6  1  0
  6  7  1  0
  7  8  1  0
  8  9  1  0
  9 10  2  0
 10 11  1  0
 11 12  2  0
 12 13  1  0
 13 14  2  0
 14 15  1  0
 15 16  2  0
 16 17  1  0
 17 18  2  0
 12 19  1  0
 19 20  2  0
 20 21  1  0
 20  9  1  0
 18 13  1  0
  1 22  1  0
  1 23  1  0
  1 24  1  0
  2 25  1  0
  2 26  1  0
  3 27  1  0
  4 28  1  0
  4 29  1  0
  5 30  1  0
  5 31  1  0
  5 32  1  0
  6 33  1  0
  6 34  1  0
  7 35  1  0
  7 36  1  0
 10 37  1  0
 11 38  1  0
 14 39  1  0
 15 40  1  0
 16 41  1  0
 17 42  1  0
 18 43  1  0
 19 44  1  0
 21 45  1  0
 21 46  1  0
 21 47  1  0
M  CHG  1   3   1
M  END
>  <UniqueID>  (35) 
34

>  <SMILES>  (35) 
CC[NH+](CC)CCOc1ccc(-c2ccccc2)cc1C

>  <Energy>  (35) 
52.746607678855966

>  <Genealogy>  (35) 
CC[NH+](CC)CCOc1ccc(-c2ccccc2)cc1C (protonated)
CC[NH+](CC)CCOc1ccc(-c2ccccc2)cc1C (3D coordinates assigned)
CC[NH+](CC)CCOc1ccc(-c2ccccc2)cc1C (optimized conformer: 52.746607678855966 kcal/mol)

>  <smiles>  (35) 
CCN(CC)CCOc1ccc(-c2ccccc2)cc1C

>  <score_type>  (35) 
oracle

>  <origin>  (35) 
adg

>  <m_score__min__energy>  (35) 
-6.9900000000000002

>  <m_primary>  (35) 
energy

$$$$
35:0
     RDKit          3D

 50 51  0  0  0  0  0  0  0  0999 V2000
   -3.9560   24.0610  -28.3500 C   0  0  0  0  0  0  0  0  0  0  0  0
   -2.9150   24.5630  -29.3390 C   0  0  0  0  0  0  0  0  0  0  0  0
   -3.5780   25.2100  -30.4650 N   0  0  0  0  0  0  0  0  0  0  0  0
   -4.9840   25.1300  -30.7230 C   0  0  0  0  0  0  0  0  0  0  0  0
   -5.7070   26.1310  -30.4860 O   0  0  0  0  0  0  0  0  0  0  0  0
   -5.6020   23.9150  -31.2880 C   0  0  0  0  0  0  0  0  0  0  0  0
   -6.9890   23.7770  -31.2560 C   0  0  0  0  0  0  0  0  0  0  0  0
   -7.6110   22.6650  -31.7590 N   0  0  0  0  0  0  0  0  0  0  0  0
   -9.0870   22.6310  -31.6860 C   0  0  0  0  0  0  0  0  0  0  0  0
   -9.5540   21.5540  -30.7080 C   0  0  0  0  0  0  0  0  0  0  0  0
   -6.8660   21.6530  -32.3380 C   0  0  0  0  0  0  0  0  0  0  0  0
   -7.4700   20.5040  -32.9040 C   0  0  0  0  0  0  0  0  0  0  0  0
   -6.6940   19.4880  -33.4620 C   0  0  0  0  0  0  0  0  0  0  0  0
   -5.3030   19.5930  -33.5000 C   0  0  0  0  0  0  0  0  0  0  0  0
   -4.3270   18.2890  -34.1870 S   0  0  0  0  0  0  0  0  0  0  0  0
   -2.9860   18.8460  -34.5850 O   0  0  0  0  0  0  0  0  0  0  0  0
   -4.9970   17.8080  -35.4440 O   0  0  0  0  0  0  0  0  0  0  0  0
   -4.1050   16.9230  -33.1020 N   0  0  0  0  0  0  0  0  0  0  0  0
   -5.3840   16.3000  -32.6900 C   0  0  0  0  0  0  0  0  0  0  0  0
   -6.0900   17.0110  -31.5280 C   0  0  0  0  0  0  0  0  0  0  0  0
   -3.1030   15.9490  -33.5780 C   0  0  0  0  0  0  0  0  0  0  0  0
   -1.6960   16.3450  -33.1390 C   0  0  0  0  0  0  0  0  0  0  0  0
   -4.6860   20.7150  -32.9440 C   0  0  0  0  0  0  0  0  0  0  0  0
   -5.4480   21.7500  -32.3710 C   0  0  0  0  0  0  0  0  0  0  0  0
   -4.8240   22.8870  -31.8290 C   0  0  0  0  0  0  0  0  0  0  0  0
   -3.5640   22.9810  -31.8170 O   0  0  0  0  0  0  0  0  0  0  0  0
   -3.5996   24.2329  -27.3236 H   0  0  0  0  0  0  0  0  0  0  0  0
   -4.9007   24.6025  -28.5056 H   0  0  0  0  0  0  0  0  0  0  0  0
   -4.1205   22.9846  -28.5056 H   0  0  0  0  0  0  0  0  0  0  0  0
   -2.2545   25.2866  -28.8388 H   0  0  0  0  0  0  0  0  0  0  0  0
   -2.3213   23.7127  -29.7057 H   0  0  0  0  0  0  0  0  0  0  0  0
   -7.5984   24.5803  -30.8163 H   0  0  0  0  0  0  0  0  0  0  0  0
   -9.4545   23.6108  -31.3469 H   0  0  0  0  0  0  0  0  0  0  0  0
   -9.4855   22.3990  -32.6847 H   0  0  0  0  0  0  0  0  0  0  0  0
   -9.4020   21.9046  -29.6765 H   0  0  0  0  0  0  0  0  0  0  0  0
  -10.6221   21.3483  -30.8717 H   0  0  0  0  0  0  0  0  0  0  0  0
   -8.9741   20.6337  -30.8717 H   0  0  0  0  0  0  0  0  0  0  0  0
   -8.5661   20.4114  -32.9036 H   0  0  0  0  0  0  0  0  0  0  0  0
   -7.1838   18.5945  -33.8765 H   0  0  0  0  0  0  0  0  0  0  0  0
   -6.0618   16.3005  -33.5564 H   0  0  0  0  0  0  0  0  0  0  0  0
   -5.1404   15.2871  -32.3368 H   0  0  0  0  0  0  0  0  0  0  0  0
   -5.7053   16.6236  -30.5731 H   0  0  0  0  0  0  0  0  0  0  0  0
   -5.8981   18.0924  -31.5889 H   0  0  0  0  0  0  0  0  0  0  0  0
   -7.1727   16.8267  -31.5889 H   0  0  0  0  0  0  0  0  0  0  0  0
   -3.3419   14.9578  -33.1653 H   0  0  0  0  0  0  0  0  0  0  0  0
   -3.1320   15.9288  -34.6774 H   0  0  0  0  0  0  0  0  0  0  0  0
   -1.6451   16.3593  -32.0403 H   0  0  0  0  0  0  0  0  0  0  0  0
   -0.9711   15.6160  -33.5302 H   0  0  0  0  0  0  0  0  0  0  0  0
   -1.4577   17.3451  -33.5302 H   0  0  0  0  0  0  0  0  0  0  0  0
   -3.5887   20.7911  -32.9539 H   0  0  0  0  0  0  0  0  0  0  0  0
  1  2  1  0
  2  3  1  0
  3  4  1  0
  4  5  2  0
  4  6  1  0
  6  7  2  0
  7  8  1  0
  8  9  1  0
  9 10  1  0
  8 11  1  0
 11 12  2  0
 12 13  1  0
 13 14  2  0
 14 15  1  0
 15 16  2  0
 15 17  2  0
 15 18  1  0
 18 19  1  0
 19 20  1  0
 18 21  1  0
 21 22  1  0
 14 23  1  0
 23 24  2  0
 24 25  1  0
 25 26  2  0
 25  6  1  0
 24 11  1  0
  1 27  1  0
  1 28  1  0
  1 29  1  0
  2 30  1  0
  2 31  1  0
  7 32  1  0
  9 33  1  0
  9 34  1  0
 10 35  1  0
 10 36  1  0
 10 37  1  0
 12 38  1  0
 13 39  1  0
 19 40  1  0
 19 41  1  0
 20 42  1  0
 20 43  1  0
 20 44  1  0
 21 45  1  0
 21 46  1  0
 22 47  1  0
 22 48  1  0
 22 49  1  0
 23 50  1  0
M  CHG  1   3  -1
M  END
>  <UniqueID>  (36) 
35

>  <SMILES>  (36) 
CC[N-]C(=O)c1cn(CC)c2ccc(S(=O)(=O)N(CC)CC)cc2c1=O

>  <Energy>  (36) 
59.843490208401406

>  <Genealogy>  (36) 
CC[N-]C(=O)c1cn(CC)c2ccc(S(=O)(=O)N(CC)CC)cc2c1=O (protonated)
CC[N-]C(=O)c1cn(CC)c2ccc(S(=O)(=O)N(CC)CC)cc2c1=O (3D coordinates assigned)
CC[N-]C(=O)c1cn(CC)c2ccc(S(=O)(=O)N(CC)CC)cc2c1=O (optimized conformer: 59.843490208401406 kcal/mol)

>  <smiles>  (36) 
CCNC(=O)c1cn(CC)c2ccc(S(=O)(=O)N(CC)CC)cc2c1=O

>  <score_type>  (36) 
oracle

>  <origin>  (36) 
adg

>  <m_score__min__energy>  (36) 
-10.380000000000001

>  <m_primary>  (36) 
energy

$$$$
36:0
     RDKit          3D

 34 35  0  0  0  0  0  0  0  0999 V2000
   -3.8541   22.2068  -29.3890 H   0  0  0  0  0  0  0  0  0  0  0  0
   -4.0930   23.2330  -29.0730 C   0  0  0  0  0  0  0  0  0  0  0  0
   -4.7740   24.1100  -30.0580 C   0  0  0  0  0  0  0  0  0  0  0  0
   -4.1040   24.9750  -30.6870 O   0  0  0  0  0  0  0  0  0  0  0  0
   -6.2110   24.0610  -30.2420 N   0  0  1  0  0  0  0  0  0  0  0  0
   -6.5800   23.2590  -29.6750 H   0  0  0  0  0  0  0  0  0  0  0  0
   -6.8380   25.2920  -29.7250 C   0  0  0  0  0  0  0  0  0  0  0  0
   -6.8289   25.2741  -28.6252 H   0  0  0  0  0  0  0  0  0  0  0  0
   -6.2760   26.1676  -30.0821 H   0  0  0  0  0  0  0  0  0  0  0  0
   -7.8767   25.3523  -30.0821 H   0  0  0  0  0  0  0  0  0  0  0  0
   -6.5360   23.8260  -31.6670 C   0  0  0  0  0  0  0  0  0  0  0  0
   -7.1305   24.6725  -32.0413 H   0  0  0  0  0  0  0  0  0  0  0  0
   -5.5915   23.7311  -32.2228 H   0  0  0  0  0  0  0  0  0  0  0  0
   -7.3250   22.5510  -31.8580 C   0  0  0  0  0  0  0  0  0  0  0  0
   -6.6940   21.3860  -32.3280 C   0  0  0  0  0  0  0  0  0  0  0  0
   -5.6150   21.3951  -32.5416 H   0  0  0  0  0  0  0  0  0  0  0  0
   -7.4340   20.2150  -32.5250 C   0  0  0  0  0  0  0  0  0  0  0  0
   -6.9356   19.3047  -32.8895 H   0  0  0  0  0  0  0  0  0  0  0  0
   -8.8060   20.2010  -32.2590 C   0  0  0  0  0  0  0  0  0  0  0  0
   -9.3863   19.2792  -32.4127 H   0  0  0  0  0  0  0  0  0  0  0  0
   -9.4410   21.3570  -31.7980 C   0  0  0  0  0  0  0  0  0  0  0  0
  -10.5213   21.3447  -31.5913 H   0  0  0  0  0  0  0  0  0  0  0  0
   -8.7060   22.5290  -31.5990 C   0  0  0  0  0  0  0  0  0  0  0  0
   -9.2104   23.4376  -31.2383 H   0  0  0  0  0  0  0  0  0  0  0  0
   -3.7460   23.5920  -27.8290 C   0  0  0  0  0  0  0  0  0  0  0  0
   -4.2916   23.1215  -26.9978 H   0  0  0  0  0  0  0  0  0  0  0  0
   -2.6940   24.5650  -27.4820 C   0  0  0  0  0  0  0  0  0  0  0  0
   -1.5900   25.1910  -28.5820 S   0  0  0  0  0  0  0  0  0  0  0  0
   -0.8710   26.2860  -27.5290 C   0  0  0  0  0  0  0  0  0  0  0  0
   -0.0366   26.9607  -27.7710 H   0  0  0  0  0  0  0  0  0  0  0  0
   -1.5120   26.1920  -26.3010 C   0  0  0  0  0  0  0  0  0  0  0  0
   -1.2372   26.8055  -25.4303 H   0  0  0  0  0  0  0  0  0  0  0  0
   -2.5410   25.2430  -26.2750 C   0  0  0  0  0  0  0  0  0  0  0  0
   -3.1659   25.0520  -25.3901 H   0  0  0  0  0  0  0  0  0  0  0  0
  1  2  1  0
  2  3  1  0
  3  4  2  0
  3  5  1  0
  5  6  1  1
  5  7  1  0
  7  8  1  0
  7  9  1  0
  7 10  1  0
  5 11  1  0
 11 12  1  0
 11 13  1  0
 11 14  1  0
 14 15  2  0
 15 16  1  0
 15 17  1  0
 17 18  1  0
 17 19  2  0
 19 20  1  0
 19 21  1  0
 21 22  1  0
 21 23  2  0
 23 24  1  0
  2 25  2  0
 25 26  1  0
 25 27  1  0
 27 28  1  0
 28 29  1  0
 29 30  1  0
 29 31  2  0
 31 32  1  0
 31 33  1  0
 33 34  1  0
 23 14  1  0
 33 27  2  0
M  CHG  1   5   1
M  END
>  <UniqueID>  (37) 
36

>  <SMILES>  (37) 
C[N@@H+](Cc1ccccc1)C(=O)/C=C\c1cccs1

>  <Energy>  (37) 
69.06450492109438

>  <Genealogy>  (37) 
C[NH+](Cc1ccccc1)C(=O)C=Cc1cccs1 (protonated)
C[N@@H+](Cc1ccccc1)C(=O)C=Cc1cccs1 (chirality)
C[N@@H+](Cc1ccccc1)C(=O)/C=C\c1cccs1 (cis-trans isomerization)
C[N@@H+](Cc1ccccc1)C(=O)/C=C\c1cccs1 (3D coordinates assigned)
C[N@@H+](Cc1ccccc1)C(=O)/C=C\c1cccs1 (optimized conformer: 69.06450492109438 kcal/mol)

>  <smiles>  (37) 
CN(Cc1ccccc1)C(=O)C=Cc1cccs1

>  <score_type>  (37) 
oracle

>  <origin>  (37) 
adg

>  <m_score__min__energy>  (37) 
-6.6900000000000004

>  <m_primary>  (37) 
energy

$$$$
37:0
     RDKit          3D

 59 62  0  0  1  0  0  0  0  0999 V2000
   -2.6290   24.5360  -28.9030 C   0  0  0  0  0  0  0  0  0  0  0  0
   -3.2460   24.8810  -30.1120 O   0  0  0  0  0  0  0  0  0  0  0  0
   -4.5520   24.5420  -30.3520 C   0  0  0  0  0  0  0  0  0  0  0  0
   -5.5220   25.4270  -29.8650 C   0  0  0  0  0  0  0  0  0  0  0  0
   -6.8620   25.1900  -30.0450 C   0  0  0  0  0  0  0  0  0  0  0  0
   -7.2080   24.0490  -30.7260 C   0  0  0  0  0  0  0  0  0  0  0  0
   -6.2370   23.1630  -31.2150 C   0  0  0  0  0  0  0  0  0  0  0  0
   -4.8870   23.3930  -31.0370 C   0  0  0  0  0  0  0  0  0  0  0  0
   -3.9230   22.4450  -31.5670 C   0  0  0  0  0  0  0  0  0  0  0  0
   -4.3240   21.4960  -32.5140 C   0  0  0  0  0  0  0  0  0  0  0  0
   -3.4230   20.5750  -33.0350 C   0  0  0  0  0  0  0  0  0  0  0  0
   -3.8040   19.7080  -33.9060 N   0  0  0  0  0  0  0  0  0  0  0  0
   -4.5250   18.4960  -33.6300 C   0  0  0  0  0  0  0  0  0  0  0  0
   -5.8900   18.7610  -33.0890 C   0  0  0  0  0  0  0  0  0  0  0  0
   -6.4440   17.9680  -32.0790 C   0  0  0  0  0  0  0  0  0  0  0  0
   -7.7060   18.2060  -31.5740 C   0  0  0  0  0  0  0  0  0  0  0  0
   -8.4720   19.2440  -32.0540 C   0  0  0  0  0  0  0  0  0  0  0  0
   -7.9600   20.0310  -33.0350 C   0  0  0  0  0  0  0  0  0  0  0  0
   -6.6900   19.7890  -33.5410 C   0  0  0  0  0  0  0  0  0  0  0  0
   -2.1400   20.5630  -32.6520 N   0  0  0  0  0  0  0  0  0  0  0  0
   -1.7620   21.4720  -31.7470 C   0  0  0  0  0  0  0  0  0  0  0  0
   -0.5220   21.4520  -31.3820 N   0  0  0  0  0  0  0  0  0  0  0  0
   -0.1760   21.0310  -30.0430 C   0  0  0  0  0  0  0  0  0  0  0  0
   -1.1830   20.0010  -29.5320 C   0  0  0  0  0  0  0  0  0  0  0  0
   -2.2040   20.5970  -28.6070 C   0  0  0  0  0  0  0  0  0  0  0  0
   -1.7600   20.6640  -27.1750 C   0  0  0  0  0  0  0  0  0  0  0  0
   -1.2890   19.3780  -26.6880 N   0  0  0  0  0  0  0  0  0  0  0  0
   -0.1070   19.0570  -27.4730 C   0  0  0  0  0  0  0  0  0  0  0  0
   -0.4560   18.8260  -28.9240 C   0  0  0  0  0  0  0  0  0  0  0  0
   -2.6310   22.3860  -31.2210 N   0  0  0  0  0  0  0  0  0  0  0  0
   -3.2489   24.8826  -28.0630 H   0  0  0  0  0  0  0  0  0  0  0  0
   -2.5151   23.4433  -28.8482 H   0  0  0  0  0  0  0  0  0  0  0  0
   -1.6384   25.0111  -28.8482 H   0  0  0  0  0  0  0  0  0  0  0  0
   -5.2031   26.3317  -29.3266 H   0  0  0  0  0  0  0  0  0  0  0  0
   -7.6247   25.8833  -29.6608 H   0  0  0  0  0  0  0  0  0  0  0  0
   -8.2720   23.8245  -30.8920 H   0  0  0  0  0  0  0  0  0  0  0  0
   -6.5595   22.2605  -31.7549 H   0  0  0  0  0  0  0  0  0  0  0  0
   -5.3707   21.4787  -32.8520 H   0  0  0  0  0  0  0  0  0  0  0  0
   -4.6195   17.9202  -34.5625 H   0  0  0  0  0  0  0  0  0  0  0  0
   -3.9634   17.9360  -32.8678 H   0  0  0  0  0  0  0  0  0  0  0  0
   -5.8566   17.1301  -31.6754 H   0  0  0  0  0  0  0  0  0  0  0  0
   -8.1044   17.5588  -30.7788 H   0  0  0  0  0  0  0  0  0  0  0  0
   -9.4782   19.4321  -31.6512 H   0  0  0  0  0  0  0  0  0  0  0  0
   -8.5558   20.8663  -33.4316 H   0  0  0  0  0  0  0  0  0  0  0  0
   -6.3058   20.4450  -34.3360 H   0  0  0  0  0  0  0  0  0  0  0  0
   -1.4510   19.8810  -33.0320 H   0  0  0  0  0  0  0  0  0  0  0  0
    0.8284   20.5825  -30.0521 H   0  0  0  0  0  0  0  0  0  0  0  0
   -0.1925   21.9070  -29.3778 H   0  0  0  0  0  0  0  0  0  0  0  0
   -1.7614   19.6333  -30.3924 H   0  0  0  0  0  0  0  0  0  0  0  0
   -2.4269   21.6185  -28.9489 H   0  0  0  0  0  0  0  0  0  0  0  0
   -3.0857   19.9400  -28.6380 H   0  0  0  0  0  0  0  0  0  0  0  0
   -0.9432   21.3960  -27.0907 H   0  0  0  0  0  0  0  0  0  0  0  0
   -2.6262   20.9606  -26.5653 H   0  0  0  0  0  0  0  0  0  0  0  0
   -2.0480   18.6750  -26.7970 H   0  0  0  0  0  0  0  0  0  0  0  0
    0.6057   19.8921  -27.4048 H   0  0  0  0  0  0  0  0  0  0  0  0
    0.3351   18.1331  -27.0717 H   0  0  0  0  0  0  0  0  0  0  0  0
    0.4725   18.6540  -29.4882 H   0  0  0  0  0  0  0  0  0  0  0  0
   -1.1242   17.9537  -28.9748 H   0  0  0  0  0  0  0  0  0  0  0  0
   -2.2080   23.0280  -30.5340 H   0  0  0  0  0  0  0  0  0  0  0  0
  1  2  1  0
  2  3  1  0
  3  4  2  0
  4  5  1  0
  5  6  2  0
  6  7  1  0
  7  8  2  0
  8  9  1  0
  9 10  2  0
 10 11  1  0
 11 12  2  0
 12 13  1  0
 13 14  1  0
 14 15  2  0
 15 16  1  0
 16 17  2  0
 17 18  1  0
 18 19  2  0
 11 20  1  0
 20 21  1  0
 21 22  2  0
 22 23  1  0
 23 24  1  0
 24 25  1  0
 25 26  1  0
 26 27  1  0
 27 28  1  0
 28 29  1  0
 21 30  1  0
  8  3  1  0
 30  9  1  0
 19 14  1  0
 29 24  1  0
  1 31  1  0
  1 32  1  0
  1 33  1  0
  4 34  1  0
  5 35  1  0
  6 36  1  0
  7 37  1  0
 10 38  1  0
 13 39  1  0
 13 40  1  0
 15 41  1  0
 16 42  1  0
 17 43  1  0
 18 44  1  0
 19 45  1  0
 20 46  1  0
 23 47  1  0
 23 48  1  0
 24 49  1  0
 25 50  1  0
 25 51  1  0
 26 52  1  0
 26 53  1  0
 27 54  1  0
 28 55  1  0
 28 56  1  0
 29 57  1  0
 29 58  1  0
 30 59  1  0
M  END
>  <smiles>  (38) 
COc1ccccc1-c1cc(=NCc2ccccc2)[nH]c(=NCC2CCNCC2)[nH]1

>  <score_type>  (38) 
oracle

>  <origin>  (38) 
adg

>  <m_score__min__energy>  (38) 
-9.9600000000000009

>  <m_primary>  (38) 
energy

$$$$
38:0
     RDKit          3D

 24 24  0  0  0  0  0  0  0  0999 V2000
   -5.2968   19.2532  -32.1887 H   0  0  0  0  0  0  0  0  0  0  0  0
   -6.0390   19.6640  -32.8890 C   0  0  0  0  0  0  0  0  0  0  0  0
   -5.9800   19.2970  -34.1810 C   0  0  0  0  0  0  0  0  0  0  0  0
   -5.8201   20.0743  -34.9427 H   0  0  0  0  0  0  0  0  0  0  0  0
   -6.1180   17.9220  -34.6120 N   0  0  0  0  0  0  0  0  0  0  0  0
   -6.8650   17.8950  -35.3460 H   0  0  0  0  0  0  0  0  0  0  0  0
   -6.5540   17.0530  -33.5060 C   0  0  0  0  0  0  0  0  0  0  0  0
   -6.3133   17.5328  -32.5459 H   0  0  0  0  0  0  0  0  0  0  0  0
   -7.6400   16.8913  -33.5730 H   0  0  0  0  0  0  0  0  0  0  0  0
   -6.0344   16.0857  -33.5730 H   0  0  0  0  0  0  0  0  0  0  0  0
   -4.8760   17.4240  -35.2270 C   0  0  0  0  0  0  0  0  0  0  0  0
   -4.1648   17.1388  -34.4378 H   0  0  0  0  0  0  0  0  0  0  0  0
   -5.1020   16.5470  -35.8513 H   0  0  0  0  0  0  0  0  0  0  0  0
   -4.4335   18.2142  -35.8513 H   0  0  0  0  0  0  0  0  0  0  0  0
   -7.0370   20.5750  -32.3850 N   0  0  0  0  0  0  0  0  0  0  0  0
   -8.3910   20.1880  -32.1740 C   0  0  0  0  0  0  0  0  0  0  0  0
   -8.7770   18.7080  -31.5900 S   0  0  0  0  0  0  0  0  0  0  0  0
   -9.5010   21.5520  -31.9180 S   0  0  0  0  0  0  0  0  0  0  0  0
   -8.0530   22.5540  -31.4460 C   0  0  0  0  0  0  0  0  0  0  0  0
   -7.8991   22.4946  -30.3584 H   0  0  0  0  0  0  0  0  0  0  0  0
   -8.2152   23.6058  -31.7244 H   0  0  0  0  0  0  0  0  0  0  0  0
   -6.8230   22.0020  -32.1730 C   0  0  0  0  0  0  0  0  0  0  0  0
   -5.9234   22.1589  -31.5597 H   0  0  0  0  0  0  0  0  0  0  0  0
   -6.6800   22.5173  -33.1343 H   0  0  0  0  0  0  0  0  0  0  0  0
  1  2  1  0
  2  3  2  0
  3  4  1  0
  3  5  1  0
  5  6  1  0
  5  7  1  0
  7  8  1  0
  7  9  1  0
  7 10  1  0
  5 11  1  0
 11 12  1  0
 11 13  1  0
 11 14  1  0
  2 15  1  0
 15 16  1  0
 16 17  2  0
 16 18  1  0
 18 19  1  0
 19 20  1  0
 19 21  1  0
 19 22  1  0
 22 23  1  0
 22 24  1  0
 22 15  1  0
M  CHG  1   5   1
M  END
>  <UniqueID>  (39) 
37

>  <SMILES>  (39) 
C[NH+](C)/C=C/N1CCSC1=S

>  <Energy>  (39) 
27.90959513941545

>  <Genealogy>  (39) 
C[NH+](C)C=CN1CCSC1=S (protonated)
C[NH+](C)/C=C/N1CCSC1=S (cis-trans isomerization)
C[NH+](C)/C=C/N1CCSC1=S (3D coordinates assigned)
C[NH+](C)/C=C/N1CCSC1=S (nonaromatic ring conformer: 27.90959513941545 kcal/mol)

>  <smiles>  (39) 
CN(C)C=CN1CCSC1=S

>  <score_type>  (39) 
oracle

>  <origin>  (39) 
adg

>  <m_score__min__energy>  (39) 
-4.2199999999999998

>  <m_primary>  (39) 
energy

$$$$
39:0
     RDKit          3D

 36 39  0  0  0  0  0  0  0  0999 V2000
   -4.7170   25.4900  -31.0810 O   0  0  0  0  0  0  0  0  0  0  0  0
   -4.0110   24.6280  -30.5040 C   0  0  0  0  0  0  0  0  0  0  0  0
   -3.1490   25.0150  -29.5620 N   0  0  0  0  0  0  0  0  0  0  0  0
   -2.3350   24.2230  -28.8630 C   0  0  0  0  0  0  0  0  0  0  0  0
   -1.4260   24.6700  -27.8660 C   0  0  0  0  0  0  0  0  0  0  0  0
   -0.0730   24.5490  -27.7930 C   0  0  0  0  0  0  0  0  0  0  0  0
    0.5700   25.0560  -26.7470 C   0  0  0  0  0  0  0  0  0  0  0  0
   -0.1750   25.6860  -25.7770 C   0  0  0  0  0  0  0  0  0  0  0  0
   -1.9060   25.5550  -26.3830 S   0  0  0  0  0  0  0  0  0  0  0  0
   -2.4020   22.8860  -29.1510 N   0  0  0  0  0  0  0  0  0  0  0  0
   -3.2610   22.4650  -30.0950 C   0  0  0  0  0  0  0  0  0  0  0  0
   -3.6000   20.7580  -30.7190 S   0  0  0  0  0  0  0  0  0  0  0  0
   -4.8200   21.2890  -31.8740 C   0  0  0  0  0  0  0  0  0  0  0  0
   -5.5790   20.4060  -32.7910 C   0  0  0  0  0  0  0  0  0  0  0  0
   -6.8200   20.0790  -32.1690 N   0  0  0  0  0  0  0  0  0  0  0  0
   -7.8760   21.0200  -32.3120 C   0  0  0  0  0  0  0  0  0  0  0  0
   -9.1130   20.2580  -31.8890 C   0  0  0  0  0  0  0  0  0  0  0  0
   -8.7410   18.7800  -31.9630 C   0  0  0  0  0  0  0  0  0  0  0  0
   -7.3030   18.7710  -32.4280 C   0  0  0  0  0  0  0  0  0  0  0  0
   -4.8970   22.6590  -31.7290 C   0  0  0  0  0  0  0  0  0  0  0  0
   -4.1120   23.2560  -30.8300 C   0  0  0  0  0  0  0  0  0  0  0  0
   -3.1010   26.0420  -29.3450 H   0  0  0  0  0  0  0  0  0  0  0  0
    0.4829   24.0366  -28.5920 H   0  0  0  0  0  0  0  0  0  0  0  0
    1.6635   24.9747  -26.6592 H   0  0  0  0  0  0  0  0  0  0  0  0
    0.1830   26.1596  -24.8510 H   0  0  0  0  0  0  0  0  0  0  0  0
   -5.7649   20.9277  -33.7414 H   0  0  0  0  0  0  0  0  0  0  0  0
   -5.0053   19.4908  -32.9988 H   0  0  0  0  0  0  0  0  0  0  0  0
   -7.7129   21.8913  -31.6606 H   0  0  0  0  0  0  0  0  0  0  0  0
   -7.9536   21.4134  -33.3363 H   0  0  0  0  0  0  0  0  0  0  0  0
   -9.3969   20.5299  -30.8616 H   0  0  0  0  0  0  0  0  0  0  0  0
   -9.9712   20.4908  -32.5365 H   0  0  0  0  0  0  0  0  0  0  0  0
   -8.8322   18.3067  -30.9742 H   0  0  0  0  0  0  0  0  0  0  0  0
   -9.4014   18.2172  -32.6392 H   0  0  0  0  0  0  0  0  0  0  0  0
   -6.7205   18.0264  -31.8657 H   0  0  0  0  0  0  0  0  0  0  0  0
   -7.2166   18.5041  -33.4916 H   0  0  0  0  0  0  0  0  0  0  0  0
   -5.5931   23.2487  -32.3436 H   0  0  0  0  0  0  0  0  0  0  0  0
  1  2  2  0
  2  3  1  0
  3  4  1  0
  4  5  1  0
  5  6  2  0
  6  7  1  0
  7  8  2  0
  8  9  1  0
  4 10  2  0
 10 11  1  0
 11 12  1  0
 12 13  1  0
 13 14  1  0
 14 15  1  0
 15 16  1  0
 16 17  1  0
 17 18  1  0
 18 19  1  0
 13 20  2  0
 20 21  1  0
 21  2  1  0
  9  5  1  0
 21 11  2  0
 19 15  1  0
  3 22  1  0
  6 23  1  0
  7 24  1  0
  8 25  1  0
 14 26  1  0
 14 27  1  0
 16 28  1  0
 16 29  1  0
 17 30  1  0
 17 31  1  0
 18 32  1  0
 18 33  1  0
 19 34  1  0
 19 35  1  0
 20 36  1  0
M  END
>  <smiles>  (40) 
O=c1[nH]c(-c2cccs2)nc2sc(CN3CCCC3)cc12

>  <score_type>  (40) 
oracle

>  <origin>  (40) 
adg

>  <m_score__min__energy>  (40) 
-7.9900000000000002

>  <m_primary>  (40) 
energy

$$$$
40:0
     RDKit          3D

 33 35  0  0  0  0  0  0  0  0999 V2000
   -1.4520   25.2670  -27.9120 C   0  0  0  0  0  0  0  0  0  0  0  0
   -2.0160   25.3180  -29.2180 O   0  0  0  0  0  0  0  0  0  0  0  0
   -2.9820   24.4210  -29.6980 C   0  0  0  0  0  0  0  0  0  0  0  0
   -2.7370   23.0420  -29.8240 C   0  0  0  0  0  0  0  0  0  0  0  0
   -3.7320   22.1870  -30.3070 C   0  0  0  0  0  0  0  0  0  0  0  0
   -4.9940   22.6930  -30.6750 C   0  0  0  0  0  0  0  0  0  0  0  0
   -6.0630   21.8030  -31.1890 C   0  0  0  0  0  0  0  0  0  0  0  0
   -7.3800   22.1580  -31.4680 C   0  0  0  0  0  0  0  0  0  0  0  0
   -7.9970   21.0530  -31.9080 N   0  0  0  0  0  0  0  0  0  0  0  0
   -9.2820   20.8760  -32.3080 C   0  0  0  0  0  0  0  0  0  0  0  0
   -9.6720   19.5970  -32.7270 C   0  0  0  0  0  0  0  0  0  0  0  0
   -8.7350   18.5470  -32.7220 C   0  0  0  0  0  0  0  0  0  0  0  0
   -7.4050   18.7770  -32.2970 C   0  0  0  0  0  0  0  0  0  0  0  0
   -6.4240   17.7750  -32.2670 O   0  0  0  0  0  0  0  0  0  0  0  0
   -6.1010   16.9430  -33.3760 C   0  0  0  0  0  0  0  0  0  0  0  0
   -7.0810   20.0720  -31.8920 C   0  0  0  0  0  0  0  0  0  0  0  0
   -5.8740   20.4860  -31.4560 N   0  0  0  0  0  0  0  0  0  0  0  0
   -5.2320   24.0730  -30.5460 C   0  0  0  0  0  0  0  0  0  0  0  0
   -4.2350   24.9250  -30.0630 C   0  0  0  0  0  0  0  0  0  0  0  0
   -2.2543   25.3396  -27.1630 H   0  0  0  0  0  0  0  0  0  0  0  0
   -0.9138   24.3165  -27.7819 H   0  0  0  0  0  0  0  0  0  0  0  0
   -0.7520   26.1055  -27.7819 H   0  0  0  0  0  0  0  0  0  0  0  0
   -1.7558   22.6333  -29.5406 H   0  0  0  0  0  0  0  0  0  0  0  0
   -3.5277   21.1102  -30.4004 H   0  0  0  0  0  0  0  0  0  0  0  0
   -7.8285   23.1554  -31.3498 H   0  0  0  0  0  0  0  0  0  0  0  0
   -9.9965   21.7124  -32.3034 H   0  0  0  0  0  0  0  0  0  0  0  0
  -10.7050   19.4147  -33.0581 H   0  0  0  0  0  0  0  0  0  0  0  0
   -9.0382   17.5419  -33.0503 H   0  0  0  0  0  0  0  0  0  0  0  0
   -5.7254   15.9755  -33.0114 H   0  0  0  0  0  0  0  0  0  0  0  0
   -7.0013   16.7802  -33.9868 H   0  0  0  0  0  0  0  0  0  0  0  0
   -5.3267   17.4303  -33.9868 H   0  0  0  0  0  0  0  0  0  0  0  0
   -6.2119   24.4856  -30.8279 H   0  0  0  0  0  0  0  0  0  0  0  0
   -4.4374   26.0021  -29.9689 H   0  0  0  0  0  0  0  0  0  0  0  0
  1  2  1  0
  2  3  1  0
  3  4  2  0
  4  5  1  0
  5  6  2  0
  6  7  1  0
  7  8  2  0
  8  9  1  0
  9 10  1  0
 10 11  2  0
 11 12  1  0
 12 13  2  0
 13 14  1  0
 14 15  1  0
 13 16  1  0
 16 17  2  0
  6 18  1  0
 18 19  2  0
 19  3  1  0
 17  7  1  0
 16  9  1  0
  1 20  1  0
  1 21  1  0
  1 22  1  0
  4 23  1  0
  5 24  1  0
  8 25  1  0
 10 26  1  0
 11 27  1  0
 12 28  1  0
 15 29  1  0
 15 30  1  0
 15 31  1  0
 18 32  1  0
 19 33  1  0
M  END
>  <UniqueID>  (41) 
38

>  <SMILES>  (41) 
COc1ccc(-c2cn3cccc(OC)c3n2)cc1

>  <Energy>  (41) 
69.85421210570665

>  <Genealogy>  (41) 
COc1ccc(-c2cn3cccc(OC)c3n2)cc1 (3D coordinates assigned)
COc1ccc(-c2cn3cccc(OC)c3n2)cc1 (optimized conformer: 69.85421210570665 kcal/mol)

>  <smiles>  (41) 
COc1ccc(-c2cn3cccc(OC)c3n2)cc1

>  <score_type>  (41) 
oracle

>  <origin>  (41) 
adg

>  <m_score__min__energy>  (41) 
-6.4699999999999998

>  <m_primary>  (41) 
energy

$$$$
41:0
     RDKit          3D

 68 70  0  0  0  0  0  0  0  0999 V2000
   -8.4810   20.1480  -32.6590 C   0  0  0  0  0  0  0  0  0  0  0  0
   -8.2240   21.5210  -32.1900 N   0  0  0  0  0  0  0  0  0  0  0  0
   -9.4620   22.0900  -31.6350 C   0  0  0  0  0  0  0  0  0  0  0  0
   -7.1500   21.5450  -31.1720 C   0  0  0  0  0  0  0  0  0  0  0  0
   -7.2260   22.8010  -30.2880 C   0  0  0  0  0  0  0  0  0  0  0  0
   -6.6410   24.0530  -30.9740 C   0  0  2  0  0  0  0  0  0  0  0  0
   -6.3930   23.8030  -32.3970 N   0  0  0  0  0  0  0  0  0  0  0  0
   -5.3750   24.4980  -30.2820 C   0  0  0  0  0  0  0  0  0  0  0  0
   -4.5650   25.2410  -30.9000 O   0  0  0  0  0  0  0  0  0  0  0  0
   -5.1130   24.1260  -28.9190 N   0  0  0  0  0  0  0  0  0  0  0  0
   -3.8290   24.2970  -28.2960 C   0  0  0  0  0  0  0  0  0  0  0  0
   -3.7740   24.7150  -26.9590 C   0  0  0  0  0  0  0  0  0  0  0  0
   -2.5430   24.8890  -26.3230 C   0  0  0  0  0  0  0  0  0  0  0  0
   -1.3590   24.6290  -27.0120 C   0  0  0  0  0  0  0  0  0  0  0  0
   -1.4010   24.1830  -28.3350 C   0  0  0  0  0  0  0  0  0  0  0  0
   -2.6350   24.0040  -28.9910 C   0  0  0  0  0  0  0  0  0  0  0  0
   -2.7200   23.5050  -30.3020 O   0  0  0  0  0  0  0  0  0  0  0  0
   -2.4480   22.1660  -30.7150 C   0  0  0  0  0  0  0  0  0  0  0  0
   -3.7540   21.4140  -31.0020 C   0  0  0  0  0  0  0  0  0  0  0  0
   -4.2820   21.5960  -32.4420 C   0  0  0  0  0  0  0  0  0  0  0  0
   -4.0580   20.4230  -33.4430 C   0  0  0  0  0  0  0  0  0  0  0  0
   -4.9700   19.2010  -33.2610 C   0  0  0  0  0  0  0  0  0  0  0  0
   -5.5380   18.5330  -34.3720 C   0  0  0  0  0  0  0  0  0  0  0  0
   -6.4170   17.4590  -34.1940 C   0  0  0  0  0  0  0  0  0  0  0  0
   -6.7920   17.0670  -32.9110 C   0  0  0  0  0  0  0  0  0  0  0  0
   -6.3100   17.7640  -31.8030 C   0  0  0  0  0  0  0  0  0  0  0  0
   -5.4300   18.8350  -31.9750 C   0  0  0  0  0  0  0  0  0  0  0  0
   -2.5670   20.1100  -33.5530 C   0  0  0  0  0  0  0  0  0  0  0  0
   -2.1300   18.7740  -33.4920 C   0  0  0  0  0  0  0  0  0  0  0  0
   -0.7740   18.4610  -33.6370 C   0  0  0  0  0  0  0  0  0  0  0  0
    0.1590   19.4770  -33.8570 C   0  0  0  0  0  0  0  0  0  0  0  0
   -0.2620   20.8060  -33.9360 C   0  0  0  0  0  0  0  0  0  0  0  0
   -1.6150   21.1220  -33.7900 C   0  0  0  0  0  0  0  0  0  0  0  0
   -8.6057   19.4819  -31.7926 H   0  0  0  0  0  0  0  0  0  0  0  0
   -9.3974   20.1338  -33.2673 H   0  0  0  0  0  0  0  0  0  0  0  0
   -7.6318   19.8033  -33.2673 H   0  0  0  0  0  0  0  0  0  0  0  0
   -9.4151   22.0684  -30.5362 H   0  0  0  0  0  0  0  0  0  0  0  0
   -9.5732   23.1296  -31.9769 H   0  0  0  0  0  0  0  0  0  0  0  0
  -10.3234   21.4974  -31.9769 H   0  0  0  0  0  0  0  0  0  0  0  0
   -7.2452   20.6544  -30.5335 H   0  0  0  0  0  0  0  0  0  0  0  0
   -6.1832   21.5552  -31.6965 H   0  0  0  0  0  0  0  0  0  0  0  0
   -8.2808   22.9951  -30.0435 H   0  0  0  0  0  0  0  0  0  0  0  0
   -6.6263   22.6074  -29.3864 H   0  0  0  0  0  0  0  0  0  0  0  0
   -7.3814   24.8626  -30.8942 H   0  0  0  0  0  0  0  0  0  0  0  0
   -6.5120   22.7860  -32.6050 H   0  0  0  0  0  0  0  0  0  0  0  0
   -5.4010   24.0550  -32.6140 H   0  0  0  0  0  0  0  0  0  0  0  0
   -5.9160   23.8420  -28.3150 H   0  0  0  0  0  0  0  0  0  0  0  0
   -4.7062   24.9071  -26.4075 H   0  0  0  0  0  0  0  0  0  0  0  0
   -2.5074   25.2313  -25.2782 H   0  0  0  0  0  0  0  0  0  0  0  0
   -0.3899   24.7754  -26.5126 H   0  0  0  0  0  0  0  0  0  0  0  0
   -0.4632   23.9698  -28.8690 H   0  0  0  0  0  0  0  0  0  0  0  0
   -1.8346   22.1867  -31.6279 H   0  0  0  0  0  0  0  0  0  0  0  0
   -1.9104   21.6478  -29.9072 H   0  0  0  0  0  0  0  0  0  0  0  0
   -3.5801   20.3414  -30.8306 H   0  0  0  0  0  0  0  0  0  0  0  0
   -4.5164   21.8331  -30.3288 H   0  0  0  0  0  0  0  0  0  0  0  0
   -5.3660   21.7706  -32.3760 H   0  0  0  0  0  0  0  0  0  0  0  0
   -3.6955   22.4312  -32.8525 H   0  0  0  0  0  0  0  0  0  0  0  0
   -4.3987   20.7772  -34.4271 H   0  0  0  0  0  0  0  0  0  0  0  0
   -5.2847   18.8630  -35.3903 H   0  0  0  0  0  0  0  0  0  0  0  0
   -6.8128   16.9230  -35.0692 H   0  0  0  0  0  0  0  0  0  0  0  0
   -7.4669   16.2096  -32.7719 H   0  0  0  0  0  0  0  0  0  0  0  0
   -6.6239   17.4693  -30.7908 H   0  0  0  0  0  0  0  0  0  0  0  0
   -5.0895   19.4025  -31.0964 H   0  0  0  0  0  0  0  0  0  0  0  0
   -2.8609   17.9683  -33.3289 H   0  0  0  0  0  0  0  0  0  0  0  0
   -0.4424   17.4139  -33.5777 H   0  0  0  0  0  0  0  0  0  0  0  0
    1.2252   19.2302  -33.9680 H   0  0  0  0  0  0  0  0  0  0  0  0
    0.4727   21.6052  -34.1134 H   0  0  0  0  0  0  0  0  0  0  0  0
   -1.9404   22.1704  -33.8607 H   0  0  0  0  0  0  0  0  0  0  0  0
  1  2  1  0
  2  3  1  0
  2  4  1  0
  4  5  1  0
  5  6  1  0
  6  7  1  0
  6  8  1  0
  8  9  2  0
  8 10  1  0
 10 11  1  0
 11 12  2  0
 12 13  1  0
 13 14  2  0
 14 15  1  0
 15 16  2  0
 16 17  1  0
 17 18  1  0
 18 19  1  0
 19 20  1  0
 20 21  1  0
 21 22  1  0
 22 23  2  0
 23 24  1  0
 24 25  2  0
 25 26  1  0
 26 27  2  0
 21 28  1  0
 28 29  2  0
 29 30  1  0
 30 31  2  0
 31 32  1  0
 32 33  2  0
 16 11  1  0
 27 22  1  0
 33 28  1  0
  1 34  1  0
  1 35  1  0
  1 36  1  0
  3 37  1  0
  3 38  1  0
  3 39  1  0
  4 40  1  0
  4 41  1  0
  5 42  1  0
  5 43  1  0
  6 44  1  6
  7 45  1  0
  7 46  1  0
 10 47  1  0
 12 48  1  0
 13 49  1  0
 14 50  1  0
 15 51  1  0
 18 52  1  0
 18 53  1  0
 19 54  1  0
 19 55  1  0
 20 56  1  0
 20 57  1  0
 21 58  1  0
 23 59  1  0
 24 60  1  0
 25 61  1  0
 26 62  1  0
 27 63  1  0
 29 64  1  0
 30 65  1  0
 31 66  1  0
 32 67  1  0
 33 68  1  0
M  END
>  <UniqueID>  (42) 
39

>  <SMILES>  (42) 
CN(C)CC[C@H](N)C(=O)Nc1ccccc1OCCCC(c1ccccc1)c1ccccc1

>  <Energy>  (42) 
77.59645828108071

>  <Genealogy>  (42) 
CN(C)CC[C@H](N)C(=O)Nc1ccccc1OCCCC(c1ccccc1)c1ccccc1 (chirality)
CN(C)CC[C@H](N)C(=O)Nc1ccccc1OCCCC(c1ccccc1)c1ccccc1 (3D coordinates assigned)
CN(C)CC[C@H](N)C(=O)Nc1ccccc1OCCCC(c1ccccc1)c1ccccc1 (optimized conformer: 77.59645828108071 kcal/mol)

>  <smiles>  (42) 
CN(C)CCC(N)C(=O)Nc1ccccc1OCCCC(c1ccccc1)c1ccccc1

>  <score_type>  (42) 
oracle

>  <origin>  (42) 
adg

>  <m_score__min__energy>  (42) 
-9.6500000000000004

>  <m_primary>  (42) 
energy

$$$$
42:0
     RDKit          3D

 46 48  0  0  1  0  0  0  0  0999 V2000
   -2.0600   25.2710  -26.7730 C   0  0  0  0  0  0  0  0  0  0  0  0
   -0.8420   25.8970  -27.4920 C   0  0  0  0  0  0  0  0  0  0  0  0
   -0.5060   25.1560  -28.5890 O   0  0  0  0  0  0  0  0  0  0  0  0
    0.1440   23.9860  -28.4080 C   0  0  0  0  0  0  0  0  0  0  0  0
   -0.6370   22.7480  -28.6620 C   0  0  0  0  0  0  0  0  0  0  0  0
   -0.9970   22.4930  -29.9860 O   0  0  0  0  0  0  0  0  0  0  0  0
   -2.3030   22.7860  -30.3970 C   0  0  0  0  0  0  0  0  0  0  0  0
   -3.0710   23.7000  -29.6920 C   0  0  0  0  0  0  0  0  0  0  0  0
   -4.3580   24.0210  -30.0550 C   0  0  0  0  0  0  0  0  0  0  0  0
   -5.0790   24.9110  -29.3510 N   0  0  0  0  0  0  0  0  0  0  0  0
   -6.3360   25.2200  -29.7120 C   0  0  0  0  0  0  0  0  0  0  0  0
   -6.8800   24.6180  -30.8100 N   0  0  0  0  0  0  0  0  0  0  0  0
   -6.1620   23.7180  -31.5290 C   0  0  0  0  0  0  0  0  0  0  0  0
   -6.7350   23.1700  -32.5730 N   0  0  0  0  0  0  0  0  0  0  0  0
   -7.4340   21.9330  -32.3310 C   0  0  0  0  0  0  0  0  0  0  0  0
   -8.7260   22.0120  -31.8100 C   0  0  0  0  0  0  0  0  0  0  0  0
   -9.4480   20.8630  -31.5550 C   0  0  0  0  0  0  0  0  0  0  0  0
   -8.8720   19.6450  -31.8260 C   0  0  0  0  0  0  0  0  0  0  0  0
   -7.5870   19.5650  -32.3450 C   0  0  0  0  0  0  0  0  0  0  0  0
   -6.8490   17.8290  -32.6960 Br  0  0  0  0  0  0  0  0  0  0  0  0
   -6.8520   20.7070  -32.6040 C   0  0  0  0  0  0  0  0  0  0  0  0
   -4.8720   23.3900  -31.1700 C   0  0  0  0  0  0  0  0  0  0  0  0
   -4.1420   22.4690  -31.9100 C   0  0  0  0  0  0  0  0  0  0  0  0
   -2.8430   22.1690  -31.5110 C   0  0  0  0  0  0  0  0  0  0  0  0
   -2.1120   21.2440  -32.2540 O   0  0  0  0  0  0  0  0  0  0  0  0
   -2.8140   20.5810  -33.3100 C   0  0  0  0  0  0  0  0  0  0  0  0
   -1.9200   25.3430  -25.6843 H   0  0  0  0  0  0  0  0  0  0  0  0
   -2.9737   25.8112  -27.0617 H   0  0  0  0  0  0  0  0  0  0  0  0
   -2.1526   24.2136  -27.0617 H   0  0  0  0  0  0  0  0  0  0  0  0
   -1.0939   26.9199  -27.8085 H   0  0  0  0  0  0  0  0  0  0  0  0
    0.0116   25.9162  -26.7984 H   0  0  0  0  0  0  0  0  0  0  0  0
    1.0122   23.9780  -29.0834 H   0  0  0  0  0  0  0  0  0  0  0  0
    0.3975   23.9561  -27.3380 H   0  0  0  0  0  0  0  0  0  0  0  0
   -0.0354   21.8968  -28.3106 H   0  0  0  0  0  0  0  0  0  0  0  0
   -1.5875   22.8918  -28.1273 H   0  0  0  0  0  0  0  0  0  0  0  0
   -2.6339   24.1873  -28.8080 H   0  0  0  0  0  0  0  0  0  0  0  0
   -4.6650   25.3760  -28.5070 H   0  0  0  0  0  0  0  0  0  0  0  0
   -6.9193   25.9488  -29.1301 H   0  0  0  0  0  0  0  0  0  0  0  0
   -9.1720   22.9956  -31.6012 H   0  0  0  0  0  0  0  0  0  0  0  0
  -10.4660   20.9215  -31.1423 H   0  0  0  0  0  0  0  0  0  0  0  0
   -9.4365   18.7216  -31.6291 H   0  0  0  0  0  0  0  0  0  0  0  0
   -5.8338   20.6432  -33.0153 H   0  0  0  0  0  0  0  0  0  0  0  0
   -4.5822   21.9858  -32.7947 H   0  0  0  0  0  0  0  0  0  0  0  0
   -3.5503   19.8856  -32.8808 H   0  0  0  0  0  0  0  0  0  0  0  0
   -3.3324   21.3268  -33.9305 H   0  0  0  0  0  0  0  0  0  0  0  0
   -2.0990   20.0209  -33.9305 H   0  0  0  0  0  0  0  0  0  0  0  0
  1  2  1  0
  2  3  1  0
  3  4  1  0
  4  5  1  0
  5  6  1  0
  6  7  1  0
  7  8  2  0
  8  9  1  0
  9 10  1  0
 10 11  1  0
 11 12  2  0
 12 13  1  0
 13 14  2  0
 14 15  1  0
 15 16  2  0
 16 17  1  0
 17 18  2  0
 18 19  1  0
 19 20  1  0
 19 21  2  0
 13 22  1  0
 22 23  1  0
 23 24  2  0
 24 25  1  0
 25 26  1  0
 24  7  1  0
 22  9  2  0
 21 15  1  0
  1 27  1  0
  1 28  1  0
  1 29  1  0
  2 30  1  0
  2 31  1  0
  4 32  1  0
  4 33  1  0
  5 34  1  0
  5 35  1  0
  8 36  1  0
 10 37  1  0
 11 38  1  0
 16 39  1  0
 17 40  1  0
 18 41  1  0
 21 42  1  0
 23 43  1  0
 26 44  1  0
 26 45  1  0
 26 46  1  0
M  END
>  <smiles>  (43) 
CCOCCOc1cc2[nH]cnc(=Nc3cccc(Br)c3)c2cc1OC

>  <score_type>  (43) 
oracle

>  <origin>  (43) 
adg

>  <m_score__min__energy>  (43) 
-8.4000000000000004

>  <m_primary>  (43) 
energy

$$$$
43:0
     RDKit          3D

 50 53  0  0  0  0  0  0  0  0999 V2000
   -4.6740   24.4580  -29.9110 C   0  0  0  0  0  0  0  0  0  0  0  0
   -3.2890   24.4930  -30.2430 O   0  0  0  0  0  0  0  0  0  0  0  0
   -2.2400   24.3010  -29.3290 C   0  0  0  0  0  0  0  0  0  0  0  0
   -1.9810   25.2360  -28.3070 C   0  0  0  0  0  0  0  0  0  0  0  0
   -0.9520   25.0180  -27.3890 C   0  0  0  0  0  0  0  0  0  0  0  0
   -0.1690   23.8690  -27.4770 C   0  0  0  0  0  0  0  0  0  0  0  0
    0.8310   23.6620  -26.5850 F   0  0  0  0  0  0  0  0  0  0  0  0
   -0.4100   22.9340  -28.4850 C   0  0  0  0  0  0  0  0  0  0  0  0
   -1.4390   23.1360  -29.4230 C   0  0  0  0  0  0  0  0  0  0  0  0
   -1.6680   22.1200  -30.4800 C   0  0  0  0  0  0  0  0  0  0  0  0
   -0.7130   21.2360  -30.9840 C   0  0  0  0  0  0  0  0  0  0  0  0
   -1.2090   20.3760  -31.9720 C   0  0  0  0  0  0  0  0  0  0  0  0
   -2.5580   20.5710  -32.2470 C   0  0  0  0  0  0  0  0  0  0  0  0
   -3.3650   19.8070  -33.2620 C   0  0  0  0  0  0  0  0  0  0  0  0
   -4.8570   19.8480  -33.0930 N   0  0  1  0  0  0  0  0  0  0  0  0
   -5.4860   21.1940  -32.9790 C   0  0  0  0  0  0  0  0  0  0  0  0
   -6.9000   21.2510  -32.4190 C   0  0  0  0  0  0  0  0  0  0  0  0
   -7.4920   22.5200  -32.2470 C   0  0  0  0  0  0  0  0  0  0  0  0
   -8.7370   22.6550  -31.6300 C   0  0  0  0  0  0  0  0  0  0  0  0
   -9.3910   21.5350  -31.1270 C   0  0  0  0  0  0  0  0  0  0  0  0
   -8.8040   20.2760  -31.2480 C   0  0  0  0  0  0  0  0  0  0  0  0
   -7.5760   20.1190  -31.9030 C   0  0  0  0  0  0  0  0  0  0  0  0
   -7.0680   18.8280  -32.0130 O   0  0  0  0  0  0  0  0  0  0  0  0
   -6.7810   18.2180  -33.2620 C   0  0  0  0  0  0  0  0  0  0  0  0
   -5.5790   18.8650  -33.9520 C   0  0  2  0  0  0  0  0  0  0  0  0
   -4.6460   17.7930  -34.5560 C   0  0  0  0  0  0  0  0  0  0  0  0
   -3.1190   21.8360  -31.2930 S   0  0  0  0  0  0  0  0  0  0  0  0
   -4.7888   24.4551  -28.8170 H   0  0  0  0  0  0  0  0  0  0  0  0
   -5.1740   25.3438  -30.3298 H   0  0  0  0  0  0  0  0  0  0  0  0
   -5.1286   23.5481  -30.3298 H   0  0  0  0  0  0  0  0  0  0  0  0
   -2.5950   26.1456  -28.2319 H   0  0  0  0  0  0  0  0  0  0  0  0
   -0.7592   25.7545  -26.5950 H   0  0  0  0  0  0  0  0  0  0  0  0
    0.2118   22.0287  -28.5467 H   0  0  0  0  0  0  0  0  0  0  0  0
    0.3310   21.2165  -30.6379 H   0  0  0  0  0  0  0  0  0  0  0  0
   -0.5920   19.6205  -32.4804 H   0  0  0  0  0  0  0  0  0  0  0  0
   -3.1288   20.2166  -34.2552 H   0  0  0  0  0  0  0  0  0  0  0  0
   -3.0833   18.7523  -33.1272 H   0  0  0  0  0  0  0  0  0  0  0  0
   -4.9890   19.4550  -32.1290 H   0  0  0  0  0  0  0  0  0  0  0  0
   -4.8457   21.8052  -32.3260 H   0  0  0  0  0  0  0  0  0  0  0  0
   -5.5739   21.5567  -34.0138 H   0  0  0  0  0  0  0  0  0  0  0  0
   -6.9646   23.4167  -32.6045 H   0  0  0  0  0  0  0  0  0  0  0  0
   -9.2014   23.6482  -31.5415 H   0  0  0  0  0  0  0  0  0  0  0  0
  -10.3689   21.6423  -30.6349 H   0  0  0  0  0  0  0  0  0  0  0  0
   -9.3109   19.3965  -30.8244 H   0  0  0  0  0  0  0  0  0  0  0  0
   -6.5640   17.1525  -33.0955 H   0  0  0  0  0  0  0  0  0  0  0  0
   -7.6578   18.3480  -33.9135 H   0  0  0  0  0  0  0  0  0  0  0  0
   -5.9749   19.4651  -34.7845 H   0  0  0  0  0  0  0  0  0  0  0  0
   -4.1581   17.2325  -33.7450 H   0  0  0  0  0  0  0  0  0  0  0  0
   -5.2351   17.1018  -35.1767 H   0  0  0  0  0  0  0  0  0  0  0  0
   -3.8801   18.2811  -35.1767 H   0  0  0  0  0  0  0  0  0  0  0  0
  1  2  1  0
  2  3  1  0
  3  4  2  0
  4  5  1  0
  5  6  2  0
  6  7  1  0
  6  8  1  0
  8  9  2  0
  9 10  1  0
 10 11  2  0
 11 12  1  0
 12 13  2  0
 13 14  1  0
 14 15  1  0
 15 16  1  0
 16 17  1  0
 17 18  2  0
 18 19  1  0
 19 20  2  0
 20 21  1  0
 21 22  2  0
 22 23  1  0
 23 24  1  0
 24 25  1  0
 25 26  1  0
 13 27  1  0
  9  3  1  0
 27 10  1  0
 25 15  1  0
 22 17  1  0
  1 28  1  0
  1 29  1  0
  1 30  1  0
  4 31  1  0
  5 32  1  0
  8 33  1  0
 11 34  1  0
 12 35  1  0
 14 36  1  0
 14 37  1  0
 15 38  1  1
 16 39  1  0
 16 40  1  0
 18 41  1  0
 19 42  1  0
 20 43  1  0
 21 44  1  0
 24 45  1  0
 24 46  1  0
 25 47  1  6
 26 48  1  0
 26 49  1  0
 26 50  1  0
M  CHG  1  15   1
M  END
>  <UniqueID>  (44) 
40

>  <SMILES>  (44) 
COc1ccc(F)cc1-c1ccc(C[N@H+]2Cc3ccccc3OC[C@@H]2C)s1

>  <Energy>  (44) 
105.21202216456837

>  <Genealogy>  (44) 
COc1ccc(F)cc1-c1ccc(C[NH+]2Cc3ccccc3OCC2C)s1 (protonated)
COc1ccc(F)cc1-c1ccc(C[N@H+]2Cc3ccccc3OC[C@@H]2C)s1 (chirality)
COc1ccc(F)cc1-c1ccc(C[N@H+]2Cc3ccccc3OC[C@@H]2C)s1 (3D coordinates assigned)
COc1ccc(F)cc1-c1ccc(C[N@H+]2Cc3ccccc3OC[C@@H]2C)s1 (nonaromatic ring conformer: 105.21202216456837 kcal/mol)

>  <smiles>  (44) 
COc1ccc(F)cc1-c1ccc(CN2Cc3ccccc3OCC2C)s1

>  <score_type>  (44) 
oracle

>  <origin>  (44) 
adg

>  <m_score__min__energy>  (44) 
-6

>  <m_primary>  (44) 
energy

$$$$
44:0
     RDKit          3D

 26 28  0  0  0  0  0  0  0  0999 V2000
   -5.3990   24.2400  -29.3600 C   0  0  0  0  0  0  0  0  0  0  0  0
   -6.2050   23.7640  -30.4740 N   0  0  0  0  0  0  0  0  0  0  0  0
   -6.0050   24.0260  -31.7770 C   0  0  0  0  0  0  0  0  0  0  0  0
   -6.9050   23.3680  -32.5280 N   0  0  0  0  0  0  0  0  0  0  0  0
   -7.6340   22.6860  -31.6210 C   0  0  0  0  0  0  0  0  0  0  0  0
   -8.8180   21.8400  -31.9610 C   0  0  0  0  0  0  0  0  0  0  0  0
   -8.4380   20.4310  -31.9550 N   0  0  0  0  0  0  0  0  0  0  0  0
   -9.1130   19.4050  -31.3660 C   0  0  0  0  0  0  0  0  0  0  0  0
   -8.5080   18.1750  -31.6580 C   0  0  0  0  0  0  0  0  0  0  0  0
   -7.4480   18.5190  -32.4600 C   0  0  0  0  0  0  0  0  0  0  0  0
   -6.2190   17.7880  -33.3270 S   0  0  0  0  0  0  0  0  0  0  0  0
   -5.6440   19.2840  -33.9350 C   0  0  0  0  0  0  0  0  0  0  0  0
   -6.4330   20.3400  -33.4550 C   0  0  0  0  0  0  0  0  0  0  0  0
   -7.4320   19.8460  -32.6240 C   0  0  0  0  0  0  0  0  0  0  0  0
   -7.2190   22.9210  -30.3590 N   0  0  0  0  0  0  0  0  0  0  0  0
   -5.8796   23.9562  -28.4121 H   0  0  0  0  0  0  0  0  0  0  0  0
   -4.3973   23.7885  -29.4129 H   0  0  0  0  0  0  0  0  0  0  0  0
   -5.3108   25.3352  -29.4129 H   0  0  0  0  0  0  0  0  0  0  0  0
   -5.2176   24.6846  -32.1723 H   0  0  0  0  0  0  0  0  0  0  0  0
   -7.0100   23.3840  -33.5660 H   0  0  0  0  0  0  0  0  0  0  0  0
   -9.6116   22.0072  -31.2178 H   0  0  0  0  0  0  0  0  0  0  0  0
   -9.1835   22.1129  -32.9620 H   0  0  0  0  0  0  0  0  0  0  0  0
  -10.0125   19.5256  -30.7444 H   0  0  0  0  0  0  0  0  0  0  0  0
   -8.8107   17.1717  -31.3238 H   0  0  0  0  0  0  0  0  0  0  0  0
   -4.7798   19.3995  -34.6057 H   0  0  0  0  0  0  0  0  0  0  0  0
   -6.2833   21.4019  -33.7000 H   0  0  0  0  0  0  0  0  0  0  0  0
  1  2  1  0
  2  3  1  0
  3  4  2  0
  4  5  1  0
  5  6  1  0
  6  7  1  0
  7  8  1  0
  8  9  2  0
  9 10  1  0
 10 11  1  0
 11 12  1  0
 12 13  2  0
 13 14  1  0
  5 15  2  0
 15  2  1  0
 14  7  1  0
 14 10  2  0
  1 16  1  0
  1 17  1  0
  1 18  1  0
  3 19  1  0
  4 20  1  0
  6 21  1  0
  6 22  1  0
  8 23  1  0
  9 24  1  0
 12 25  1  0
 13 26  1  0
M  CHG  1   4   1
M  END
>  <UniqueID>  (45) 
41

>  <SMILES>  (45) 
Cn1c[nH+]c(Cn2ccc3sccc32)n1

>  <Energy>  (45) 
132.89304383436746

>  <Genealogy>  (45) 
Cn1c[nH+]c(Cn2ccc3sccc32)n1 (protonated)
Cn1c[nH+]c(Cn2ccc3sccc32)n1 (3D coordinates assigned)
Cn1c[nH+]c(Cn2ccc3sccc32)n1 (optimized conformer: 132.89304383436746 kcal/mol)

>  <smiles>  (45) 
Cn1cnc(Cn2ccc3sccc32)n1

>  <score_type>  (45) 
oracle

>  <origin>  (45) 
adg

>  <m_score__min__energy>  (45) 
-5.6600000000000001

>  <m_primary>  (45) 
energy

$$$$
45:0
     RDKit          3D

 50 53  0  0  0  0  0  0  0  0999 V2000
   -5.5020   21.1450  -32.9950 C   0  0  0  0  0  0  0  0  0  0  0  0
   -6.6580   21.7450  -32.2540 C   0  0  0  0  0  0  0  0  0  0  0  0
   -6.6850   22.9720  -31.6160 C   0  0  0  0  0  0  0  0  0  0  0  0
   -5.5570   23.9420  -31.4290 C   0  0  0  0  0  0  0  0  0  0  0  0
   -4.2940   23.2100  -31.2170 N   0  0  0  0  0  0  0  0  0  0  0  0
   -4.4150   22.1710  -30.1800 C   0  0  0  0  0  0  0  0  0  0  0  0
   -3.4740   22.8960  -29.2200 C   0  0  0  0  0  0  0  0  0  0  0  0
   -2.1480   22.1310  -28.9410 C   0  0  0  0  0  0  0  0  0  0  0  0
   -1.5010   22.5540  -27.6110 C   0  0  0  0  0  0  0  0  0  0  0  0
   -1.8100   23.9570  -27.3060 N   0  0  0  0  0  0  0  0  0  0  0  0
   -0.7760   24.9570  -27.3840 C   0  0  0  0  0  0  0  0  0  0  0  0
    0.1700   24.8090  -28.2080 O   0  0  0  0  0  0  0  0  0  0  0  0
   -0.8020   26.1660  -26.5320 C   0  0  0  0  0  0  0  0  0  0  0  0
   -0.4870   27.4290  -27.0580 C   0  0  0  0  0  0  0  0  0  0  0  0
   -0.5260   28.5590  -26.2390 C   0  0  0  0  0  0  0  0  0  0  0  0
   -0.8910   28.4190  -24.8990 C   0  0  0  0  0  0  0  0  0  0  0  0
   -1.2100   27.1940  -24.4050 N   0  0  0  0  0  0  0  0  0  0  0  0
   -1.1790   26.0790  -25.1820 C   0  0  0  0  0  0  0  0  0  0  0  0
   -3.2210   24.3620  -27.1730 C   0  0  0  0  0  0  0  0  0  0  0  0
   -4.1590   23.4090  -27.9350 C   0  0  0  0  0  0  0  0  0  0  0  0
   -3.3850   23.9510  -30.3280 C   0  0  0  0  0  0  0  0  0  0  0  0
   -7.9730   23.0940  -31.1270 C   0  0  0  0  0  0  0  0  0  0  0  0
   -8.6880   22.0070  -31.4790 N   0  0  0  0  0  0  0  0  0  0  0  0
   -7.8910   21.2030  -32.1680 N   0  0  0  0  0  0  0  0  0  0  0  0
   -8.3180   19.9170  -32.7080 C   0  0  0  0  0  0  0  0  0  0  0  0
   -4.7640   20.7619  -32.2749 H   0  0  0  0  0  0  0  0  0  0  0  0
   -5.8605   20.3191  -33.6270 H   0  0  0  0  0  0  0  0  0  0  0  0
   -5.0330   21.9135  -33.6270 H   0  0  0  0  0  0  0  0  0  0  0  0
   -5.4665   24.5731  -32.3254 H   0  0  0  0  0  0  0  0  0  0  0  0
   -5.7626   24.5708  -30.5501 H   0  0  0  0  0  0  0  0  0  0  0  0
   -5.4374   22.0619  -29.7892 H   0  0  0  0  0  0  0  0  0  0  0  0
   -4.1919   21.1282  -30.4499 H   0  0  0  0  0  0  0  0  0  0  0  0
   -2.3624   21.0528  -28.9033 H   0  0  0  0  0  0  0  0  0  0  0  0
   -1.4431   22.3713  -29.7505 H   0  0  0  0  0  0  0  0  0  0  0  0
   -1.8868   21.9154  -26.8027 H   0  0  0  0  0  0  0  0  0  0  0  0
   -0.4100   22.4431  -27.6976 H   0  0  0  0  0  0  0  0  0  0  0  0
   -0.2089   27.5285  -28.1176 H   0  0  0  0  0  0  0  0  0  0  0  0
   -0.2718   29.5491  -26.6454 H   0  0  0  0  0  0  0  0  0  0  0  0
   -0.9204   29.3010  -24.2424 H   0  0  0  0  0  0  0  0  0  0  0  0
   -1.4505   25.1039  -24.7513 H   0  0  0  0  0  0  0  0  0  0  0  0
   -3.4950   24.3562  -26.1077 H   0  0  0  0  0  0  0  0  0  0  0  0
   -3.3315   25.3689  -27.6020 H   0  0  0  0  0  0  0  0  0  0  0  0
   -4.4084   22.5532  -27.2904 H   0  0  0  0  0  0  0  0  0  0  0  0
   -5.0745   23.9530  -28.2106 H   0  0  0  0  0  0  0  0  0  0  0  0
   -3.7745   24.9346  -30.0267 H   0  0  0  0  0  0  0  0  0  0  0  0
   -2.3928   24.2378  -30.7064 H   0  0  0  0  0  0  0  0  0  0  0  0
   -8.3540   23.9445  -30.5426 H   0  0  0  0  0  0  0  0  0  0  0  0
   -8.5463   19.2294  -31.8803 H   0  0  0  0  0  0  0  0  0  0  0  0
   -9.2172   20.0589  -33.3254 H   0  0  0  0  0  0  0  0  0  0  0  0
   -7.5125   19.4929  -33.3254 H   0  0  0  0  0  0  0  0  0  0  0  0
  1  2  1  0
  2  3  2  0
  3  4  1  0
  4  5  1  0
  5  6  1  0
  6  7  1  0
  7  8  1  0
  8  9  1  0
  9 10  1  0
 10 11  1  0
 11 12  2  0
 11 13  1  0
 13 14  2  0
 14 15  1  0
 15 16  2  0
 16 17  1  0
 17 18  2  0
 10 19  1  0
 19 20  1  0
  7 21  1  0
  3 22  1  0
 22 23  2  0
 23 24  1  0
 24 25  1  0
 24  2  1  0
 21  5  1  0
 20  7  1  0
 18 13  1  0
  1 26  1  0
  1 27  1  0
  1 28  1  0
  4 29  1  0
  4 30  1  0
  6 31  1  0
  6 32  1  0
  8 33  1  0
  8 34  1  0
  9 35  1  0
  9 36  1  0
 14 37  1  0
 15 38  1  0
 16 39  1  0
 18 40  1  0
 19 41  1  0
 19 42  1  0
 20 43  1  0
 20 44  1  0
 21 45  1  0
 21 46  1  0
 22 47  1  0
 25 48  1  0
 25 49  1  0
 25 50  1  0
M  END
>  <UniqueID>  (46) 
42

>  <SMILES>  (46) 
Cc1c(CN2CC3(CCN(C(=O)c4cccnc4)CC3)C2)cnn1C

>  <Energy>  (46) 
159.8936259055809

>  <Genealogy>  (46) 
Cc1c(CN2CC3(CCN(C(=O)c4cccnc4)CC3)C2)cnn1C (3D coordinates assigned)
Cc1c(CN2CC3(CCN(C(=O)c4cccnc4)CC3)C2)cnn1C (nonaromatic ring conformer: 159.8936259055809 kcal/mol)

>  <smiles>  (46) 
Cc1c(CN2CC3(CCN(C(=O)c4cccnc4)CC3)C2)cnn1C

>  <score_type>  (46) 
oracle

>  <origin>  (46) 
adg

>  <m_score__min__energy>  (46) 
-8.3300000000000001

>  <m_primary>  (46) 
energy

$$$$
46:0
     RDKit          3D

 37 39  0  0  0  0  0  0  0  0999 V2000
   -8.7610   20.4430  -32.7130 N   0  0  0  0  0  0  0  0  0  0  0  0
   -7.7000   20.6070  -32.2820 C   0  0  0  0  0  0  0  0  0  0  0  0
   -6.3730   20.8100  -31.7420 C   0  0  0  0  0  0  0  0  0  0  0  0
   -5.3290   19.9000  -32.0170 C   0  0  0  0  0  0  0  0  0  0  0  0
   -5.5560   18.6550  -32.7920 C   0  0  0  0  0  0  0  0  0  0  0  0
   -5.9020   17.4640  -32.1310 C   0  0  0  0  0  0  0  0  0  0  0  0
   -6.1300   16.2930  -32.8600 C   0  0  0  0  0  0  0  0  0  0  0  0
   -6.0250   16.3040  -34.2540 C   0  0  0  0  0  0  0  0  0  0  0  0
   -5.6930   17.4860  -34.9210 C   0  0  0  0  0  0  0  0  0  0  0  0
   -5.4640   18.6590  -34.1940 C   0  0  0  0  0  0  0  0  0  0  0  0
   -4.0370   20.1760  -31.5440 C   0  0  0  0  0  0  0  0  0  0  0  0
   -3.7960   21.3380  -30.7950 C   0  0  0  0  0  0  0  0  0  0  0  0
   -2.4550   21.6690  -30.2710 C   0  0  0  0  0  0  0  0  0  0  0  0
   -1.3440   20.8300  -30.1830 C   0  0  0  0  0  0  0  0  0  0  0  0
   -0.2150   21.4570  -29.6370 C   0  0  0  0  0  0  0  0  0  0  0  0
   -0.4230   22.7850  -29.2930 C   0  0  0  0  0  0  0  0  0  0  0  0
   -2.0120   23.1800  -29.6700 S   0  0  0  0  0  0  0  0  0  0  0  0
   -4.8290   22.1830  -30.5330 N   0  0  0  0  0  0  0  0  0  0  0  0
   -6.0930   21.9550  -30.9730 C   0  0  0  0  0  0  0  0  0  0  0  0
   -7.3720   23.1510  -30.5570 S   0  0  0  0  0  0  0  0  0  0  0  0
   -6.5010   24.5730  -31.3000 C   0  0  0  0  0  0  0  0  0  0  0  0
   -5.4580   25.1040  -30.3670 C   0  0  0  0  0  0  0  0  0  0  0  0
   -5.7300   25.2200  -28.9710 N   0  0  0  0  0  0  0  0  0  0  0  0
   -4.3250   25.4290  -30.8120 O   0  0  0  0  0  0  0  0  0  0  0  0
   -5.9939   17.4531  -31.0349 H   0  0  0  0  0  0  0  0  0  0  0  0
   -6.3923   15.3620  -32.3361 H   0  0  0  0  0  0  0  0  0  0  0  0
   -6.2038   15.3816  -34.8260 H   0  0  0  0  0  0  0  0  0  0  0  0
   -5.6117   17.4942  -36.0180 H   0  0  0  0  0  0  0  0  0  0  0  0
   -5.2105   19.5896  -34.7229 H   0  0  0  0  0  0  0  0  0  0  0  0
   -3.2124   19.4809  -31.7605 H   0  0  0  0  0  0  0  0  0  0  0  0
   -1.3528   19.7797  -30.5098 H   0  0  0  0  0  0  0  0  0  0  0  0
    0.7472   20.9433  -29.4945 H   0  0  0  0  0  0  0  0  0  0  0  0
    0.3228   23.4617  -28.8504 H   0  0  0  0  0  0  0  0  0  0  0  0
   -6.0187   24.2520  -32.2350 H   0  0  0  0  0  0  0  0  0  0  0  0
   -7.2330   25.3692  -31.5005 H   0  0  0  0  0  0  0  0  0  0  0  0
   -6.6600   24.9420  -28.5860 H   0  0  0  0  0  0  0  0  0  0  0  0
   -4.9950   25.5740  -28.3180 H   0  0  0  0  0  0  0  0  0  0  0  0
  1  2  3  0
  2  3  1  0
  3  4  2  0
  4  5  1  0
  5  6  2  0
  6  7  1  0
  7  8  2  0
  8  9  1  0
  9 10  2  0
  4 11  1  0
 11 12  2  0
 12 13  1  0
 13 14  2  0
 14 15  1  0
 15 16  2  0
 16 17  1  0
 12 18  1  0
 18 19  2  0
 19 20  1  0
 20 21  1  0
 21 22  1  0
 22 23  1  0
 22 24  2  0
 19  3  1  0
 10  5  1  0
 17 13  1  0
  6 25  1  0
  7 26  1  0
  8 27  1  0
  9 28  1  0
 10 29  1  0
 11 30  1  0
 14 31  1  0
 15 32  1  0
 16 33  1  0
 21 34  1  0
 21 35  1  0
 23 36  1  0
 23 37  1  0
M  END
>  <UniqueID>  (47) 
43

>  <SMILES>  (47) 
N#Cc1c(-c2ccccc2)cc(-c2cccs2)nc1SCC(N)=O

>  <Energy>  (47) 
67.91528336156112

>  <Genealogy>  (47) 
N#Cc1c(-c2ccccc2)cc(-c2cccs2)nc1SCC(N)=O (3D coordinates assigned)
N#Cc1c(-c2ccccc2)cc(-c2cccs2)nc1SCC(N)=O (optimized conformer: 67.91528336156112 kcal/mol)

>  <smiles>  (47) 
N#Cc1c(-c2ccccc2)cc(-c2cccs2)nc1SCC(N)=O

>  <score_type>  (47) 
oracle

>  <origin>  (47) 
adg

>  <m_score__min__energy>  (47) 
-8.6099999999999994

>  <m_primary>  (47) 
energy

$$$$
