0:0
     RDKit          3D

 29 31  0  0  1  0  0  0  0  0999 V2000
   -5.7910   25.6710  -30.0810 C   0  0  0  0  0  0  0  0  0  0  0  0
   -5.7590   24.4030  -30.8680 C   0  0  0  0  0  0  0  0  0  0  0  0
   -6.9290   23.8040  -31.2540 C   0  0  0  0  0  0  0  0  0  0  0  0
   -6.8850   22.6200  -31.9890 C   0  0  0  0  0  0  0  0  0  0  0  0
   -7.9810   22.1030  -32.3220 N   0  0  0  0  0  0  0  0  0  0  0  0
   -8.6780   21.0530  -31.6640 C   0  0  0  0  0  0  0  0  0  0  0  0
   -9.4740   20.0140  -32.3430 C   0  0  0  0  0  0  0  0  0  0  0  0
   -8.0830   19.6710  -32.0390 C   0  0  0  0  0  0  0  0  0  0  0  0
   -5.7440   22.0440  -32.3330 N   0  0  0  0  0  0  0  0  0  0  0  0
   -5.4410   20.9680  -32.9980 N   0  0  0  0  0  0  0  0  0  0  0  0
   -4.0720   20.8740  -33.0400 C   0  0  0  0  0  0  0  0  0  0  0  0
   -3.2500   19.8200  -33.6840 C   0  0  0  0  0  0  0  0  0  0  0  0
   -3.5210   21.9450  -32.3670 C   0  0  0  0  0  0  0  0  0  0  0  0
   -4.6060   22.6740  -31.9280 C   0  0  0  0  0  0  0  0  0  0  0  0
   -4.6130   23.8130  -31.2210 N   0  0  0  0  0  0  0  0  0  0  0  0
   -5.7851   25.4359  -29.0064 H   0  0  0  0  0  0  0  0  0  0  0  0
   -4.9079   26.2784  -30.3283 H   0  0  0  0  0  0  0  0  0  0  0  0
   -6.7036   26.2331  -30.3283 H   0  0  0  0  0  0  0  0  0  0  0  0
   -7.8963   24.2539  -30.9860 H   0  0  0  0  0  0  0  0  0  0  0  0
   -8.9256   21.6882  -30.8007 H   0  0  0  0  0  0  0  0  0  0  0  0
  -10.2854   19.5122  -31.7955 H   0  0  0  0  0  0  0  0  0  0  0  0
  -10.0702   20.0027  -33.2673 H   0  0  0  0  0  0  0  0  0  0  0  0
   -7.8524   18.9355  -31.2542 H   0  0  0  0  0  0  0  0  0  0  0  0
   -7.2155   19.3184  -32.6162 H   0  0  0  0  0  0  0  0  0  0  0  0
   -5.9900   20.2260  -33.4680 H   0  0  0  0  0  0  0  0  0  0  0  0
   -2.7700   19.2046  -32.9088 H   0  0  0  0  0  0  0  0  0  0  0  0
   -3.8935   19.1847  -34.3103 H   0  0  0  0  0  0  0  0  0  0  0  0
   -2.4770   20.2893  -34.3103 H   0  0  0  0  0  0  0  0  0  0  0  0
   -2.4546   22.1676  -32.2147 H   0  0  0  0  0  0  0  0  0  0  0  0
  1  2  1  0
  2  3  2  0
  3  4  1  0
  4  5  2  0
  5  6  1  0
  6  7  1  0
  7  8  1  0
  4  9  1  0
  9 10  1  0
 10 11  1  0
 11 12  1  0
 11 13  2  0
 13 14  1  0
 14 15  2  0
 15  2  1  0
  8  6  1  0
 14  9  1  0
  1 16  1  0
  1 17  1  0
  1 18  1  0
  3 19  1  0
  6 20  1  0
  7 21  1  0
  7 22  1  0
  8 23  1  0
  8 24  1  0
 10 25  1  0
 12 26  1  0
 12 27  1  0
 12 28  1  0
 13 29  1  0
M  END
>  <smiles>  (1) 
Cc1cc(=NC2CC2)n2[nH]c(C)cc2n1

>  <score_type>  (1) 
oracle

>  <origin>  (1) 
adg

>  <m_score__min__energy>  (1) 
-6.2699999999999996

>  <m_primary>  (1) 
energy

$$$$
1:0
     RDKit          3D

 65 68  0  0  0  0  0  0  0  0999 V2000
   -1.3030   19.2130  -34.6410 O   0  0  0  0  0  0  0  0  0  0  0  0
   -1.8610   18.0830  -34.5790 C   0  0  0  0  0  0  0  0  0  0  0  0
   -3.2740   17.9990  -34.3230 N   0  0  0  0  0  0  0  0  0  0  0  0
   -4.0670   19.1590  -33.8970 C   0  0  2  0  0  0  0  0  0  0  0  0
   -3.2360   19.9850  -32.9120 C   0  0  0  0  0  0  0  0  0  0  0  0
   -3.7950   21.3960  -32.6840 C   0  0  0  0  0  0  0  0  0  0  0  0
   -5.1010   21.4580  -31.8480 C   0  0  1  0  0  0  0  0  0  0  0  0
   -5.3400   22.8210  -31.2100 C   0  0  0  0  0  0  0  0  0  0  0  0
   -6.6580   23.2830  -31.0340 C   0  0  0  0  0  0  0  0  0  0  0  0
   -6.9020   24.5450  -30.4810 C   0  0  0  0  0  0  0  0  0  0  0  0
   -5.8370   25.3610  -30.1000 C   0  0  0  0  0  0  0  0  0  0  0  0
   -4.5240   24.9220  -30.2790 C   0  0  0  0  0  0  0  0  0  0  0  0
   -4.2730   23.6650  -30.8400 C   0  0  0  0  0  0  0  0  0  0  0  0
   -6.3730   20.9210  -32.5420 C   0  0  0  0  0  0  0  0  0  0  0  0
   -6.4090   19.4560  -32.6900 N   0  0  0  0  0  0  0  0  0  0  0  0
   -7.3930   18.7240  -31.8660 C   0  0  0  0  0  0  0  0  0  0  0  0
   -8.8050   19.2900  -32.0290 C   0  0  0  0  0  0  0  0  0  0  0  0
   -9.0760   20.1960  -31.0180 F   0  0  0  0  0  0  0  0  0  0  0  0
   -9.7200   18.2560  -31.9510 F   0  0  0  0  0  0  0  0  0  0  0  0
   -8.9420   19.9180  -33.2550 F   0  0  0  0  0  0  0  0  0  0  0  0
   -5.4370   18.6810  -33.4440 C   0  0  0  0  0  0  0  0  0  0  0  0
   -5.7350   17.4950  -33.7720 O   0  0  0  0  0  0  0  0  0  0  0  0
   -1.0710   16.8930  -34.7780 N   0  0  0  0  0  0  0  0  0  0  0  0
   -1.5150   15.5990  -34.2420 C   0  0  0  0  0  0  0  0  0  0  0  0
   -0.3120   14.7670  -33.7870 C   0  0  0  0  0  0  0  0  0  0  0  0
    0.7300   14.7760  -34.8160 N   0  0  0  0  0  0  0  0  0  0  0  0
    1.5980   13.6410  -34.9310 C   0  0  0  0  0  0  0  0  0  0  0  0
    2.5750   13.4590  -33.9980 N   0  0  0  0  0  0  0  0  0  0  0  0
    3.4100   12.3900  -34.0220 C   0  0  0  0  0  0  0  0  0  0  0  0
    3.2750   11.4270  -35.0180 C   0  0  0  0  0  0  0  0  0  0  0  0
    2.2930   11.5840  -35.9970 C   0  0  0  0  0  0  0  0  0  0  0  0
    1.4530   12.7110  -35.9890 C   0  0  0  0  0  0  0  0  0  0  0  0
    0.3980   12.8800  -37.0610 C   0  0  0  0  0  0  0  0  0  0  0  0
   -0.8690   12.8840  -36.4970 F   0  0  0  0  0  0  0  0  0  0  0  0
    0.5620   14.0780  -37.7410 F   0  0  0  0  0  0  0  0  0  0  0  0
    0.4930   11.8400  -37.9660 F   0  0  0  0  0  0  0  0  0  0  0  0
    1.1920   16.0760  -35.3050 C   0  0  0  0  0  0  0  0  0  0  0  0
   -0.0010   16.9030  -35.7860 C   0  0  0  0  0  0  0  0  0  0  0  0
   -3.7500   17.0680  -34.3680 H   0  0  0  0  0  0  0  0  0  0  0  0
   -4.2938   19.8642  -34.7102 H   0  0  0  0  0  0  0  0  0  0  0  0
   -3.2125   19.4581  -31.9467 H   0  0  0  0  0  0  0  0  0  0  0  0
   -2.2315   20.0976  -33.3459 H   0  0  0  0  0  0  0  0  0  0  0  0
   -3.0277   21.9866  -32.1621 H   0  0  0  0  0  0  0  0  0  0  0  0
   -4.0485   21.7902  -33.6791 H   0  0  0  0  0  0  0  0  0  0  0  0
   -4.9044   20.7380  -31.0399 H   0  0  0  0  0  0  0  0  0  0  0  0
   -7.5035   22.6464  -31.3338 H   0  0  0  0  0  0  0  0  0  0  0  0
   -7.9363   24.8944  -30.3464 H   0  0  0  0  0  0  0  0  0  0  0  0
   -6.0315   26.3497  -29.6588 H   0  0  0  0  0  0  0  0  0  0  0  0
   -3.6845   25.5660  -29.9782 H   0  0  0  0  0  0  0  0  0  0  0  0
   -3.2356   23.3329  -30.9935 H   0  0  0  0  0  0  0  0  0  0  0  0
   -7.2460   21.2290  -31.9478 H   0  0  0  0  0  0  0  0  0  0  0  0
   -6.3788   21.3410  -33.5587 H   0  0  0  0  0  0  0  0  0  0  0  0
   -7.3960   17.6670  -32.1704 H   0  0  0  0  0  0  0  0  0  0  0  0
   -7.1018   18.8312  -30.8107 H   0  0  0  0  0  0  0  0  0  0  0  0
   -2.1813   15.7717  -33.3840 H   0  0  0  0  0  0  0  0  0  0  0  0
   -2.0493   15.0506  -35.0318 H   0  0  0  0  0  0  0  0  0  0  0  0
    0.0927   15.1926  -32.8569 H   0  0  0  0  0  0  0  0  0  0  0  0
   -0.6377   13.7303  -33.6163 H   0  0  0  0  0  0  0  0  0  0  0  0
    4.1922   12.2845  -33.2558 H   0  0  0  0  0  0  0  0  0  0  0  0
    3.9374   10.5489  -35.0333 H   0  0  0  0  0  0  0  0  0  0  0  0
    2.1755   10.8206  -36.7803 H   0  0  0  0  0  0  0  0  0  0  0  0
    1.7031   16.6115  -34.4913 H   0  0  0  0  0  0  0  0  0  0  0  0
    1.8883   15.9221  -36.1426 H   0  0  0  0  0  0  0  0  0  0  0  0
    0.3232   17.9396  -35.9602 H   0  0  0  0  0  0  0  0  0  0  0  0
   -0.3856   16.4654  -36.7191 H   0  0  0  0  0  0  0  0  0  0  0  0
  1  2  2  0
  2  3  1  0
  3  4  1  0
  4  5  1  0
  5  6  1  0
  6  7  1  0
  7  8  1  0
  8  9  2  0
  9 10  1  0
 10 11  2  0
 11 12  1  0
 12 13  2  0
  7 14  1  0
 14 15  1  0
 15 16  1  0
 16 17  1  0
 17 18  1  0
 17 19  1  0
 17 20  1  0
 15 21  1  0
 21 22  2  0
  2 23  1  0
 23 24  1  0
 24 25  1  0
 25 26  1  0
 26 27  1  0
 27 28  2  0
 28 29  1  0
 29 30  2  0
 30 31  1  0
 31 32  2  0
 32 33  1  0
 33 34  1  0
 33 35  1  0
 33 36  1  0
 26 37  1  0
 37 38  1  0
 21  4  1  0
 38 23  1  0
 13  8  1  0
 32 27  1  0
  3 39  1  0
  4 40  1  6
  5 41  1  0
  5 42  1  0
  6 43  1  0
  6 44  1  0
  7 45  1  1
  9 46  1  0
 10 47  1  0
 11 48  1  0
 12 49  1  0
 13 50  1  0
 14 51  1  0
 14 52  1  0
 16 53  1  0
 16 54  1  0
 24 55  1  0
 24 56  1  0
 25 57  1  0
 25 58  1  0
 29 59  1  0
 30 60  1  0
 31 61  1  0
 37 62  1  0
 37 63  1  0
 38 64  1  0
 38 65  1  0
M  END
>  <UniqueID>  (2) 
1

>  <SMILES>  (2) 
O=C(N[C@@H]1CC[C@@H](c2ccccc2)CN(CC(F)(F)F)C1=O)N1CCN(c2ncccc2C(F)(F)F)CC1

>  <Energy>  (2) 
85.3836702809466

>  <Genealogy>  (2) 
O=C(N[C@@H]1CC[C@@H](c2ccccc2)CN(CC(F)(F)F)C1=O)N1CCN(c2ncccc2C(F)(F)F)CC1 (chirality)
O=C(N[C@@H]1CC[C@@H](c2ccccc2)CN(CC(F)(F)F)C1=O)N1CCN(c2ncccc2C(F)(F)F)CC1 (3D coordinates assigned)
O=C(N[C@@H]1CC[C@@H](c2ccccc2)CN(CC(F)(F)F)C1=O)N1CCN(c2ncccc2C(F)(F)F)CC1 (nonaromatic ring conformer: 85.3836702809466 kcal/mol)

>  <smiles>  (2) 
O=C(NC1CCC(c2ccccc2)CN(CC(F)(F)F)C1=O)N1CCN(c2ncccc2C(F)(F)F)CC1

>  <score_type>  (2) 
oracle

>  <origin>  (2) 
adg

>  <m_score__min__energy>  (2) 
-6.5099999999999998

>  <m_primary>  (2) 
energy

$$$$
2:0
     RDKit          3D

 31 33  0  0  0  0  0  0  0  0999 V2000
   -5.1392   23.3905  -28.3617 H   0  0  0  0  0  0  0  0  0  0  0  0
   -4.7830   24.0460  -29.1700 C   0  0  0  0  0  0  0  0  0  0  0  0
   -3.5080   24.5320  -29.3890 C   0  0  0  0  0  0  0  0  0  0  0  0
   -2.3130   24.2890  -28.5300 C   0  0  0  0  0  0  0  0  0  0  0  0
   -2.6045   24.3483  -27.4710 H   0  0  0  0  0  0  0  0  0  0  0  0
   -1.9056   23.2896  -28.7428 H   0  0  0  0  0  0  0  0  0  0  0  0
   -1.5476   25.0499  -28.7428 H   0  0  0  0  0  0  0  0  0  0  0  0
   -3.5060   25.2850  -30.4690 O   0  0  0  0  0  0  0  0  0  0  0  0
   -4.6940   25.3400  -31.0000 N   0  0  0  0  0  0  0  0  0  0  0  0
   -5.4960   24.5870  -30.2160 C   0  0  0  0  0  0  0  0  0  0  0  0
   -6.7740   24.3980  -30.4000 N   0  0  0  0  0  0  0  0  0  0  0  0
   -7.4280   23.4280  -31.2390 C   0  0  0  0  0  0  0  0  0  0  0  0
   -7.3940   23.6040  -32.4880 O   0  0  0  0  0  0  0  0  0  0  0  0
   -8.0970   22.1890  -30.7090 C   0  0  0  0  0  0  0  0  0  0  0  0
   -7.3302   21.4402  -30.4616 H   0  0  0  0  0  0  0  0  0  0  0  0
   -8.6727   22.4504  -29.8089 H   0  0  0  0  0  0  0  0  0  0  0  0
   -9.2350   21.4960  -31.9630 S   0  0  0  0  0  0  0  0  0  0  0  0
   -8.3660   19.9300  -32.1150 C   0  0  0  0  0  0  0  0  0  0  0  0
   -8.9280   18.7270  -31.8750 N   0  0  0  0  0  0  0  0  0  0  0  0
   -7.9810   17.8550  -32.1940 N   0  0  0  0  0  0  0  0  0  0  0  0
   -8.0850   16.8210  -32.1210 H   0  0  0  0  0  0  0  0  0  0  0  0
   -6.8880   18.4760  -32.6140 N   0  0  0  0  0  0  0  0  0  0  0  0
   -7.1000   19.7790  -32.5470 N   0  0  0  0  0  0  0  0  0  0  0  0
   -6.1900   20.8010  -33.0670 C   0  0  0  0  0  0  0  0  0  0  0  0
   -6.9145   21.3185  -33.7129 H   0  0  0  0  0  0  0  0  0  0  0  0
   -5.1230   21.2500  -32.0770 C   0  0  0  0  0  0  0  0  0  0  0  0
   -4.7640   22.2897  -32.0889 H   0  0  0  0  0  0  0  0  0  0  0  0
   -5.0178   21.2266  -30.9823 H   0  0  0  0  0  0  0  0  0  0  0  0
   -4.7600   20.3070  -33.2130 C   0  0  0  0  0  0  0  0  0  0  0  0
   -4.1374   20.6645  -34.0464 H   0  0  0  0  0  0  0  0  0  0  0  0
   -4.2824   19.3183  -33.2796 H   0  0  0  0  0  0  0  0  0  0  0  0
  1  2  1  0
  2  3  2  0
  3  4  1  0
  4  5  1  0
  4  6  1  0
  4  7  1  0
  3  8  1  0
  8  9  1  0
  9 10  1  0
 10 11  2  0
 11 12  1  0
 12 13  2  0
 12 14  1  0
 14 15  1  0
 14 16  1  0
 14 17  1  0
 17 18  1  0
 18 19  2  0
 19 20  1  0
 20 21  1  0
 20 22  2  0
 22 23  1  0
 23 24  1  0
 24 25  1  0
 24 26  1  0
 26 27  1  0
 26 28  1  0
 26 29  1  0
 29 30  1  0
 29 31  1  0
 10  2  1  0
 23 18  1  0
 29 24  1  0
M  CHG  2   9  -1  20   1
M  END
>  <UniqueID>  (3) 
2

>  <SMILES>  (3) 
Cc1c/c(=N/C(=O)CSc2n[nH+]nn2C2CC2)[n-]o1

>  <Energy>  (3) 
366.946734344943

>  <Genealogy>  (3) 
Cc1cc(=NC(=O)CSc2n[nH+]nn2C2CC2)[n-]o1 (protonated)
Cc1c/c(=N/C(=O)CSc2n[nH+]nn2C2CC2)[n-]o1 (cis-trans isomerization)
Cc1c/c(=N/C(=O)CSc2n[nH+]nn2C2CC2)[n-]o1 (3D coordinates assigned)
Cc1c/c(=N/C(=O)CSc2n[nH+]nn2C2CC2)[n-]o1 (nonaromatic ring conformer: 366.946734344943 kcal/mol)

>  <smiles>  (3) 
Cc1cc(=NC(=O)CSc2nnnn2C2CC2)[nH]o1

>  <score_type>  (3) 
oracle

>  <origin>  (3) 
adg

>  <m_score__min__energy>  (3) 
-9.2699999999999996

>  <m_primary>  (3) 
energy

$$$$
3:0
     RDKit          3D

 29 31  0  0  0  0  0  0  0  0999 V2000
    0.4490   23.8070  -26.7220 C   0  0  0  0  0  0  0  0  0  0  0  0
   -0.5580   24.3320  -27.6880 C   0  0  0  0  0  0  0  0  0  0  0  0
   -0.4850   25.5540  -28.2500 N   0  0  0  0  0  0  0  0  0  0  0  0
   -1.5620   25.6510  -28.9690 O   0  0  0  0  0  0  0  0  0  0  0  0
   -2.2690   24.5560  -28.8530 C   0  0  0  0  0  0  0  0  0  0  0  0
   -3.5480   24.3280  -29.5280 C   0  0  0  0  0  0  0  0  0  0  0  0
   -3.8840   24.9050  -30.7030 N   0  0  0  0  0  0  0  0  0  0  0  0
   -5.0980   24.5620  -31.1300 N   0  0  0  0  0  0  0  0  0  0  0  0
   -5.7340   23.7150  -30.2920 C   0  0  0  0  0  0  0  0  0  0  0  0
   -7.3810   23.0770  -30.5860 S   0  0  0  0  0  0  0  0  0  0  0  0
   -7.0940   22.7010  -32.3510 C   0  0  0  0  0  0  0  0  0  0  0  0
   -6.9910   21.2170  -32.5790 C   0  0  0  0  0  0  0  0  0  0  0  0
   -8.0950   20.3860  -32.3260 C   0  0  0  0  0  0  0  0  0  0  0  0
   -8.0120   19.0110  -32.5650 C   0  0  0  0  0  0  0  0  0  0  0  0
   -6.8270   18.4550  -33.0610 C   0  0  0  0  0  0  0  0  0  0  0  0
   -6.7280   16.7320  -33.3670 Cl  0  0  0  0  0  0  0  0  0  0  0  0
   -5.7250   19.2770  -33.3150 C   0  0  0  0  0  0  0  0  0  0  0  0
   -5.8040   20.6520  -33.0750 C   0  0  0  0  0  0  0  0  0  0  0  0
   -4.7840   23.3350  -28.9550 S   0  0  0  0  0  0  0  0  0  0  0  0
   -1.6790   23.6650  -28.0320 N   0  0  0  0  0  0  0  0  0  0  0  0
    0.1008   23.9885  -25.6945 H   0  0  0  0  0  0  0  0  0  0  0  0
    0.5794   22.7262  -26.8794 H   0  0  0  0  0  0  0  0  0  0  0  0
    1.4098   24.3190  -26.8794 H   0  0  0  0  0  0  0  0  0  0  0  0
   -7.9312   23.0983  -32.9437 H   0  0  0  0  0  0  0  0  0  0  0  0
   -6.1468   23.1683  -32.6582 H   0  0  0  0  0  0  0  0  0  0  0  0
   -9.0289   20.8190  -31.9382 H   0  0  0  0  0  0  0  0  0  0  0  0
   -8.8792   18.3651  -32.3630 H   0  0  0  0  0  0  0  0  0  0  0  0
   -4.7934   18.8408  -33.7047 H   0  0  0  0  0  0  0  0  0  0  0  0
   -4.9335   21.2940  -33.2752 H   0  0  0  0  0  0  0  0  0  0  0  0
  1  2  1  0
  2  3  2  0
  3  4  1  0
  4  5  1  0
  5  6  1  0
  6  7  2  0
  7  8  1  0
  8  9  2  0
  9 10  1  0
 10 11  1  0
 11 12  1  0
 12 13  2  0
 13 14  1  0
 14 15  2  0
 15 16  1  0
 15 17  1  0
 17 18  2  0
  9 19  1  0
  5 20  2  0
 20  2  1  0
 19  6  1  0
 18 12  1  0
  1 21  1  0
  1 22  1  0
  1 23  1  0
 11 24  1  0
 11 25  1  0
 13 26  1  0
 14 27  1  0
 17 28  1  0
 18 29  1  0
M  END
>  <UniqueID>  (4) 
3

>  <SMILES>  (4) 
Cc1noc(-c2nnc(SCc3ccc(Cl)cc3)s2)n1

>  <Energy>  (4) 
90.66390414481967

>  <Genealogy>  (4) 
Cc1noc(-c2nnc(SCc3ccc(Cl)cc3)s2)n1 (3D coordinates assigned)
Cc1noc(-c2nnc(SCc3ccc(Cl)cc3)s2)n1 (optimized conformer: 90.66390414481967 kcal/mol)

>  <smiles>  (4) 
Cc1noc(-c2nnc(SCc3ccc(Cl)cc3)s2)n1

>  <score_type>  (4) 
oracle

>  <origin>  (4) 
adg

>  <m_score__min__energy>  (4) 
-9.1500000000000004

>  <m_primary>  (4) 
energy

$$$$
4:0
     RDKit          3D

 48 50  0  0  0  0  0  0  0  0999 V2000
   -1.2530   25.7510  -27.7310 C   0  0  0  0  0  0  0  0  0  0  0  0
   -1.9880   25.6640  -28.9470 O   0  0  0  0  0  0  0  0  0  0  0  0
   -2.5900   24.4910  -29.4270 C   0  0  0  0  0  0  0  0  0  0  0  0
   -1.8310   23.3160  -29.4490 C   0  0  0  0  0  0  0  0  0  0  0  0
   -2.3870   22.1230  -29.9120 C   0  0  0  0  0  0  0  0  0  0  0  0
   -3.7090   22.0920  -30.3610 C   0  0  0  0  0  0  0  0  0  0  0  0
   -4.4870   23.2610  -30.3580 C   0  0  0  0  0  0  0  0  0  0  0  0
   -5.8550   23.2290  -30.8110 N   0  0  0  0  0  0  0  0  0  0  0  0
   -6.9660   23.4720  -29.8870 C   0  0  0  0  0  0  0  0  0  0  0  0
   -7.9840   22.3190  -29.9610 C   0  0  0  0  0  0  0  0  0  0  0  0
   -8.0270   21.6430  -31.2890 N   0  0  0  0  0  0  0  0  0  0  0  0
   -9.3550   21.0470  -31.5610 C   0  0  0  0  0  0  0  0  0  0  0  0
   -9.2440   19.7840  -32.4310 C   0  0  0  0  0  0  0  0  0  0  0  0
   -7.9330   19.6780  -33.0700 N   0  0  0  0  0  0  0  0  0  0  0  0
   -6.8120   19.0420  -32.4370 C   0  0  0  0  0  0  0  0  0  0  0  0
   -6.9750   18.4190  -31.3530 O   0  0  0  0  0  0  0  0  0  0  0  0
   -5.4670   19.1160  -33.0470 C   0  0  0  0  0  0  0  0  0  0  0  0
   -4.9750   18.0810  -33.8590 C   0  0  0  0  0  0  0  0  0  0  0  0
   -3.7290   18.1830  -34.3930 N   0  0  0  0  0  0  0  0  0  0  0  0
   -2.9470   19.2680  -34.1570 C   0  0  0  0  0  0  0  0  0  0  0  0
   -3.4300   20.2970  -33.3500 C   0  0  0  0  0  0  0  0  0  0  0  0
   -4.6750   20.1980  -32.8150 N   0  0  0  0  0  0  0  0  0  0  0  0
   -7.6320   22.5520  -32.3850 C   0  0  0  0  0  0  0  0  0  0  0  0
   -6.1600   22.9460  -32.2170 C   0  0  0  0  0  0  0  0  0  0  0  0
   -3.9230   24.4580  -29.8820 C   0  0  0  0  0  0  0  0  0  0  0  0
   -1.9434   25.6693  -26.8786 H   0  0  0  0  0  0  0  0  0  0  0  0
   -0.5182   24.9336  -27.6874 H   0  0  0  0  0  0  0  0  0  0  0  0
   -0.7294   26.7174  -27.6874 H   0  0  0  0  0  0  0  0  0  0  0  0
   -0.7884   23.3328  -29.0988 H   0  0  0  0  0  0  0  0  0  0  0  0
   -1.7823   21.2042  -29.9234 H   0  0  0  0  0  0  0  0  0  0  0  0
   -4.1432   21.1468  -30.7189 H   0  0  0  0  0  0  0  0  0  0  0  0
   -6.5755   23.5461  -28.8613 H   0  0  0  0  0  0  0  0  0  0  0  0
   -7.4667   24.4102  -30.1680 H   0  0  0  0  0  0  0  0  0  0  0  0
   -7.7183   21.5715  -29.1990 H   0  0  0  0  0  0  0  0  0  0  0  0
   -8.9787   22.7564  -29.7902 H   0  0  0  0  0  0  0  0  0  0  0  0
   -9.8289   20.7807  -30.6047 H   0  0  0  0  0  0  0  0  0  0  0  0
   -9.9580   21.7876  -32.1069 H   0  0  0  0  0  0  0  0  0  0  0  0
   -9.4034   18.8996  -31.7966 H   0  0  0  0  0  0  0  0  0  0  0  0
  -10.0058   19.8458  -33.2221 H   0  0  0  0  0  0  0  0  0  0  0  0
   -7.8360   20.0350  -34.0490 H   0  0  0  0  0  0  0  0  0  0  0  0
   -5.5935   17.1942  -34.0614 H   0  0  0  0  0  0  0  0  0  0  0  0
   -1.9417   19.3342  -34.5986 H   0  0  0  0  0  0  0  0  0  0  0  0
   -2.8083   21.1817  -33.1480 H   0  0  0  0  0  0  0  0  0  0  0  0
   -7.7673   22.0426  -33.3505 H   0  0  0  0  0  0  0  0  0  0  0  0
   -8.2589   23.4554  -32.3559 H   0  0  0  0  0  0  0  0  0  0  0  0
   -5.5232   22.1193  -32.5650 H   0  0  0  0  0  0  0  0  0  0  0  0
   -5.9674   23.8526  -32.8094 H   0  0  0  0  0  0  0  0  0  0  0  0
   -4.5279   25.3766  -29.8647 H   0  0  0  0  0  0  0  0  0  0  0  0
  1  2  1  0
  2  3  1  0
  3  4  2  0
  4  5  1  0
  5  6  2  0
  6  7  1  0
  7  8  1  0
  8  9  1  0
  9 10  1  0
 10 11  1  0
 11 12  1  0
 12 13  1  0
 13 14  1  0
 14 15  1  0
 15 16  2  0
 15 17  1  0
 17 18  2  0
 18 19  1  0
 19 20  2  0
 20 21  1  0
 21 22  2  0
 11 23  1  0
 23 24  1  0
  7 25  2  0
 25  3  1  0
 24  8  1  0
 22 17  1  0
  1 26  1  0
  1 27  1  0
  1 28  1  0
  4 29  1  0
  5 30  1  0
  6 31  1  0
  9 32  1  0
  9 33  1  0
 10 34  1  0
 10 35  1  0
 12 36  1  0
 12 37  1  0
 13 38  1  0
 13 39  1  0
 14 40  1  0
 18 41  1  0
 20 42  1  0
 21 43  1  0
 23 44  1  0
 23 45  1  0
 24 46  1  0
 24 47  1  0
 25 48  1  0
M  END
>  <UniqueID>  (5) 
4

>  <SMILES>  (5) 
COc1cccc(N2CCN(CCNC(=O)c3cnccn3)CC2)c1

>  <Energy>  (5) 
57.98067494531185

>  <Genealogy>  (5) 
COc1cccc(N2CCN(CCNC(=O)c3cnccn3)CC2)c1 (3D coordinates assigned)
COc1cccc(N2CCN(CCNC(=O)c3cnccn3)CC2)c1 (nonaromatic ring conformer: 57.98067494531185 kcal/mol)

>  <smiles>  (5) 
COc1cccc(N2CCN(CCNC(=O)c3cnccn3)CC2)c1

>  <score_type>  (5) 
oracle

>  <origin>  (5) 
adg

>  <m_score__min__energy>  (5) 
-8.1400000000000006

>  <m_primary>  (5) 
energy

$$$$
5:0
     RDKit          3D

 63 67  0  0  0  0  0  0  0  0999 V2000
   -5.4310   17.0040  -32.5900 C   0  0  0  0  0  0  0  0  0  0  0  0
   -6.2130   18.2490  -32.2870 C   0  0  0  0  0  0  0  0  0  0  0  0
   -7.5460   18.3770  -32.7100 C   0  0  0  0  0  0  0  0  0  0  0  0
   -8.2790   19.5190  -32.3800 C   0  0  0  0  0  0  0  0  0  0  0  0
   -7.6740   20.5250  -31.6120 C   0  0  0  0  0  0  0  0  0  0  0  0
   -8.6120   21.9370  -31.1320 S   0  0  0  0  0  0  0  0  0  0  0  0
   -9.8670   22.0200  -31.9580 O   0  0  0  0  0  0  0  0  0  0  0  0
   -8.9910   21.8170  -29.6810 O   0  0  0  0  0  0  0  0  0  0  0  0
   -7.6070   23.4020  -31.3770 C   0  0  2  0  0  0  0  0  0  0  0  0
   -6.8580   23.3870  -32.7150 C   0  0  0  0  0  0  0  0  0  0  0  0
   -5.3720   23.5630  -32.3850 C   0  0  2  0  0  0  0  0  0  0  0  0
   -4.6130   22.2880  -32.6980 C   0  0  0  0  0  0  0  0  0  0  0  0
   -5.2240   21.3130  -33.2110 O   0  0  0  0  0  0  0  0  0  0  0  0
   -3.1990   22.1740  -32.4850 N   0  0  0  0  0  0  0  0  0  0  0  0
   -2.3520   21.1340  -33.0570 C   0  0  0  0  0  0  0  0  0  0  0  0
   -1.1330   21.5470  -33.7720 C   0  0  0  0  0  0  0  0  0  0  0  0
   -0.1760   21.8820  -34.3330 N   0  0  0  0  0  0  0  0  0  0  0  0
   -2.2220   19.9020  -32.1870 C   0  0  0  0  0  0  0  0  0  0  0  0
   -3.0460   19.8500  -33.4720 C   0  0  0  0  0  0  0  0  0  0  0  0
   -5.3060   23.8710  -30.9590 N   0  0  0  0  0  0  0  0  0  0  0  0
   -4.0580   24.1960  -30.3030 C   0  0  0  0  0  0  0  0  0  0  0  0
   -3.5020   25.2880  -30.6000 O   0  0  0  0  0  0  0  0  0  0  0  0
   -3.3770   23.3050  -29.2540 C   0  0  0  0  0  0  0  0  0  0  0  0
   -2.8050   24.1490  -28.1050 C   0  0  0  0  0  0  0  0  0  0  0  0
   -3.6210   24.5280  -27.0150 C   0  0  0  0  0  0  0  0  0  0  0  0
   -3.1160   25.3450  -25.9940 C   0  0  0  0  0  0  0  0  0  0  0  0
   -1.8130   25.8440  -26.0760 C   0  0  0  0  0  0  0  0  0  0  0  0
   -1.1440   27.0020  -24.7190 Br  0  0  0  0  0  0  0  0  0  0  0  0
   -1.0130   25.5310  -27.1800 C   0  0  0  0  0  0  0  0  0  0  0  0
   -1.5070   24.7040  -28.1940 C   0  0  0  0  0  0  0  0  0  0  0  0
   -2.3570   22.3030  -29.8370 C   0  0  0  0  0  0  0  0  0  0  0  0
   -3.1520   21.1380  -29.2580 C   0  0  0  0  0  0  0  0  0  0  0  0
   -4.2140   22.1080  -28.7440 C   0  0  0  0  0  0  0  0  0  0  0  0
   -6.5520   23.5590  -30.2790 C   0  0  0  0  0  0  0  0  0  0  0  0
   -6.3830   20.3730  -31.1870 N   0  0  0  0  0  0  0  0  0  0  0  0
   -5.6520   19.2690  -31.5040 C   0  0  0  0  0  0  0  0  0  0  0  0
   -5.1286   16.5226  -31.6483 H   0  0  0  0  0  0  0  0  0  0  0  0
   -6.0562   16.3108  -33.1719 H   0  0  0  0  0  0  0  0  0  0  0  0
   -4.5351   17.2662  -33.1719 H   0  0  0  0  0  0  0  0  0  0  0  0
   -8.0135   17.5765  -33.3022 H   0  0  0  0  0  0  0  0  0  0  0  0
   -9.3198   19.6285  -32.7187 H   0  0  0  0  0  0  0  0  0  0  0  0
   -8.3205   24.2390  -31.3554 H   0  0  0  0  0  0  0  0  0  0  0  0
   -7.0216   22.4295  -33.2312 H   0  0  0  0  0  0  0  0  0  0  0  0
   -7.2151   24.1878  -33.3793 H   0  0  0  0  0  0  0  0  0  0  0  0
   -4.9151   24.3655  -32.9827 H   0  0  0  0  0  0  0  0  0  0  0  0
   -1.2614   19.3693  -32.1272 H   0  0  0  0  0  0  0  0  0  0  0  0
   -2.4147   19.6723  -31.1286 H   0  0  0  0  0  0  0  0  0  0  0  0
   -2.6794   19.2809  -34.3390 H   0  0  0  0  0  0  0  0  0  0  0  0
   -4.0786   19.5683  -33.7256 H   0  0  0  0  0  0  0  0  0  0  0  0
   -4.6629   24.1783  -26.9674 H   0  0  0  0  0  0  0  0  0  0  0  0
   -3.7460   25.5937  -25.1272 H   0  0  0  0  0  0  0  0  0  0  0  0
    0.0072   25.9363  -27.2508 H   0  0  0  0  0  0  0  0  0  0  0  0
   -0.8795   24.4828  -29.0700 H   0  0  0  0  0  0  0  0  0  0  0  0
   -2.3045   22.3065  -30.9357 H   0  0  0  0  0  0  0  0  0  0  0  0
   -1.2861   22.4088  -29.6090 H   0  0  0  0  0  0  0  0  0  0  0  0
   -3.5213   20.4285  -30.0131 H   0  0  0  0  0  0  0  0  0  0  0  0
   -2.6715   20.4269  -28.5699 H   0  0  0  0  0  0  0  0  0  0  0  0
   -5.1923   22.0033  -29.2360 H   0  0  0  0  0  0  0  0  0  0  0  0
   -4.5411   22.0671  -27.6945 H   0  0  0  0  0  0  0  0  0  0  0  0
   -6.4520   22.6235  -29.7091 H   0  0  0  0  0  0  0  0  0  0  0  0
   -6.8291   24.3489  -29.5654 H   0  0  0  0  0  0  0  0  0  0  0  0
   -5.9390   21.1080  -30.5910 H   0  0  0  0  0  0  0  0  0  0  0  0
   -4.6166   19.1763  -31.1445 H   0  0  0  0  0  0  0  0  0  0  0  0
  1  2  1  0
  2  3  2  0
  3  4  1  0
  4  5  2  0
  5  6  1  0
  6  7  2  0
  6  8  2  0
  6  9  1  0
  9 10  1  0
 10 11  1  0
 11 12  1  0
 12 13  2  0
 12 14  1  0
 14 15  1  0
 15 16  1  0
 16 17  3  0
 15 18  1  0
 18 19  1  0
 11 20  1  0
 20 21  1  0
 21 22  2  0
 21 23  1  0
 23 24  1  0
 24 25  2  0
 25 26  1  0
 26 27  2  0
 27 28  1  0
 27 29  1  0
 29 30  2  0
 23 31  1  0
 31 32  1  0
 32 33  1  0
 20 34  1  0
  5 35  1  0
 35 36  2  0
 36  2  1  0
 34  9  1  0
 19 15  1  0
 33 23  1  0
 30 24  1  0
  1 37  1  0
  1 38  1  0
  1 39  1  0
  3 40  1  0
  4 41  1  0
  9 42  1  6
 10 43  1  0
 10 44  1  0
 11 45  1  6
 18 46  1  0
 18 47  1  0
 19 48  1  0
 19 49  1  0
 25 50  1  0
 26 51  1  0
 29 52  1  0
 30 53  1  0
 31 54  1  0
 31 55  1  0
 32 56  1  0
 32 57  1  0
 33 58  1  0
 33 59  1  0
 34 60  1  0
 34 61  1  0
 35 62  1  0
 36 63  1  0
M  CHG  2  14  -1  35   1
M  END
>  <UniqueID>  (6) 
5

>  <SMILES>  (6) 
Cc1ccc(S(=O)(=O)[C@@H]2C[C@H](C(=O)[N-]C3(C#N)CC3)N(C(=O)C3(c4ccc(Br)cc4)CCC3)C2)[nH+]c1

>  <Energy>  (6) 
403.3700502335041

>  <Genealogy>  (6) 
Cc1ccc(S(=O)(=O)C2CC(C(=O)[N-]C3(C#N)CC3)N(C(=O)C3(c4ccc(Br)cc4)CCC3)C2)[nH+]c1 (protonated)
Cc1ccc(S(=O)(=O)[C@@H]2C[C@H](C(=O)[N-]C3(C#N)CC3)N(C(=O)C3(c4ccc(Br)cc4)CCC3)C2)[nH+]c1 (chirality)
Cc1ccc(S(=O)(=O)[C@@H]2C[C@H](C(=O)[N-]C3(C#N)CC3)N(C(=O)C3(c4ccc(Br)cc4)CCC3)C2)[nH+]c1 (3D coordinates assigned)
Cc1ccc(S(=O)(=O)[C@@H]2C[C@H](C(=O)[N-]C3(C#N)CC3)N(C(=O)C3(c4ccc(Br)cc4)CCC3)C2)[nH+]c1 (nonaromatic ring conformer: 403.3700502335041 kcal/mol)

>  <smiles>  (6) 
Cc1ccc(S(=O)(=O)C2CC(C(=O)NC3(C#N)CC3)N(C(=O)C3(c4ccc(Br)cc4)CCC3)C2)nc1

>  <score_type>  (6) 
oracle

>  <origin>  (6) 
adg

>  <m_score__min__energy>  (6) 
-12.18

>  <m_primary>  (6) 
energy

$$$$
6:0
     RDKit          3D

 40 42  0  0  0  0  0  0  0  0999 V2000
   -1.7290   24.9830  -28.1270 C   0  0  0  0  0  0  0  0  0  0  0  0
   -2.5030   25.3000  -29.2800 O   0  0  0  0  0  0  0  0  0  0  0  0
   -3.4370   24.4350  -29.8690 C   0  0  0  0  0  0  0  0  0  0  0  0
   -4.7560   24.8300  -30.1570 C   0  0  0  0  0  0  0  0  0  0  0  0
   -5.6490   23.9300  -30.7450 C   0  0  0  0  0  0  0  0  0  0  0  0
   -5.2440   22.6190  -31.0570 C   0  0  0  0  0  0  0  0  0  0  0  0
   -6.1930   21.6640  -31.6830 C   0  0  0  0  0  0  0  0  0  0  0  0
   -7.5640   21.9580  -31.7610 C   0  0  0  0  0  0  0  0  0  0  0  0
   -8.4270   21.0750  -32.3330 N   0  0  0  0  0  0  0  0  0  0  0  0
   -8.0010   19.8910  -32.8460 C   0  0  0  0  0  0  0  0  0  0  0  0
   -6.6420   19.5450  -32.8030 C   0  0  0  0  0  0  0  0  0  0  0  0
   -6.1650   18.2530  -33.3550 C   0  0  0  0  0  0  0  0  0  0  0  0
   -6.9290   17.0870  -33.1730 C   0  0  0  0  0  0  0  0  0  0  0  0
   -6.4940   15.8650  -33.6920 C   0  0  0  0  0  0  0  0  0  0  0  0
   -5.2830   15.7860  -34.4020 C   0  0  0  0  0  0  0  0  0  0  0  0
   -4.8040   14.5830  -34.9430 O   0  0  0  0  0  0  0  0  0  0  0  0
   -3.4710   14.3810  -35.4010 C   0  0  0  0  0  0  0  0  0  0  0  0
   -4.5180   16.9440  -34.5790 C   0  0  0  0  0  0  0  0  0  0  0  0
   -4.9500   18.1700  -34.0620 C   0  0  0  0  0  0  0  0  0  0  0  0
   -4.1600   19.2630  -34.2220 F   0  0  0  0  0  0  0  0  0  0  0  0
   -5.7420   20.4430  -32.2100 C   0  0  0  0  0  0  0  0  0  0  0  0
   -3.9250   22.2310  -30.7670 C   0  0  0  0  0  0  0  0  0  0  0  0
   -3.0330   23.1320  -30.1780 C   0  0  0  0  0  0  0  0  0  0  0  0
   -2.3066   25.2196  -27.2212 H   0  0  0  0  0  0  0  0  0  0  0  0
   -1.4817   23.9112  -28.1347 H   0  0  0  0  0  0  0  0  0  0  0  0
   -0.8009   25.5735  -28.1347 H   0  0  0  0  0  0  0  0  0  0  0  0
   -5.0860   25.8518  -29.9183 H   0  0  0  0  0  0  0  0  0  0  0  0
   -6.6781   24.2495  -30.9660 H   0  0  0  0  0  0  0  0  0  0  0  0
   -7.9428   22.9084  -31.3570 H   0  0  0  0  0  0  0  0  0  0  0  0
   -9.4440   21.3100  -32.3700 H   0  0  0  0  0  0  0  0  0  0  0  0
   -8.7267   19.1990  -33.2982 H   0  0  0  0  0  0  0  0  0  0  0  0
   -7.8771   17.1372  -32.6174 H   0  0  0  0  0  0  0  0  0  0  0  0
   -7.1019   14.9602  -33.5444 H   0  0  0  0  0  0  0  0  0  0  0  0
   -2.7979   14.2790  -34.5370 H   0  0  0  0  0  0  0  0  0  0  0  0
   -3.4272   13.4660  -36.0099 H   0  0  0  0  0  0  0  0  0  0  0  0
   -3.1581   15.2420  -36.0099 H   0  0  0  0  0  0  0  0  0  0  0  0
   -3.5675   16.8899  -35.1301 H   0  0  0  0  0  0  0  0  0  0  0  0
   -4.6732   20.1883  -32.1574 H   0  0  0  0  0  0  0  0  0  0  0  0
   -3.5916   21.2102  -31.0053 H   0  0  0  0  0  0  0  0  0  0  0  0
   -2.0040   22.8133  -29.9555 H   0  0  0  0  0  0  0  0  0  0  0  0
  1  2  1  0
  2  3  1  0
  3  4  2  0
  4  5  1  0
  5  6  2  0
  6  7  1  0
  7  8  2  0
  8  9  1  0
  9 10  2  0
 10 11  1  0
 11 12  1  0
 12 13  2  0
 13 14  1  0
 14 15  2  0
 15 16  1  0
 16 17  1  0
 15 18  1  0
 18 19  2  0
 19 20  1  0
 11 21  2  0
  6 22  1  0
 22 23  2  0
 23  3  1  0
 21  7  1  0
 19 12  1  0
  1 24  1  0
  1 25  1  0
  1 26  1  0
  4 27  1  0
  5 28  1  0
  8 29  1  0
  9 30  1  0
 10 31  1  0
 13 32  1  0
 14 33  1  0
 17 34  1  0
 17 35  1  0
 17 36  1  0
 18 37  1  0
 21 38  1  0
 22 39  1  0
 23 40  1  0
M  CHG  1   9   1
M  END
>  <UniqueID>  (7) 
6

>  <SMILES>  (7) 
COc1ccc(-c2c[nH+]cc(-c3ccc(OC)cc3F)c2)cc1

>  <Energy>  (7) 
52.640597290278336

>  <Genealogy>  (7) 
COc1ccc(-c2c[nH+]cc(-c3ccc(OC)cc3F)c2)cc1 (protonated)
COc1ccc(-c2c[nH+]cc(-c3ccc(OC)cc3F)c2)cc1 (3D coordinates assigned)
COc1ccc(-c2c[nH+]cc(-c3ccc(OC)cc3F)c2)cc1 (optimized conformer: 52.640597290278336 kcal/mol)

>  <smiles>  (7) 
COc1ccc(-c2cncc(-c3ccc(OC)cc3F)c2)cc1

>  <score_type>  (7) 
oracle

>  <origin>  (7) 
adg

>  <m_score__min__energy>  (7) 
-7.0099999999999998

>  <m_primary>  (7) 
energy

$$$$
7:0
     RDKit          3D

 17 17  0  0  0  0  0  0  0  0999 V2000
   -2.0800   25.2910  -28.8550 N   0  0  0  0  0  0  0  0  0  0  0  0
   -1.7070   23.8780  -28.8560 C   0  0  0  0  0  0  0  0  0  0  0  0
   -2.2690   23.1300  -30.0740 C   0  0  0  0  0  0  0  0  0  0  0  0
   -3.6150   23.6530  -30.4720 C   0  0  0  0  0  0  0  0  0  0  0  0
   -4.7130   22.8840  -30.8040 C   0  0  0  0  0  0  0  0  0  0  0  0
   -5.7170   23.7880  -31.0690 C   0  0  0  0  0  0  0  0  0  0  0  0
   -7.5060   23.3810  -31.5850 Br  0  0  0  0  0  0  0  0  0  0  0  0
   -5.1800   25.0450  -30.8810 C   0  0  0  0  0  0  0  0  0  0  0  0
   -3.9220   24.9300  -30.5220 O   0  0  0  0  0  0  0  0  0  0  0  0
   -2.0030   25.6670  -29.8270 H   0  0  0  0  0  0  0  0  0  0  0  0
   -3.0760   25.3830  -28.5530 H   0  0  0  0  0  0  0  0  0  0  0  0
   -0.6097   23.8014  -28.8686 H   0  0  0  0  0  0  0  0  0  0  0  0
   -2.1304   23.4165  -27.9517 H   0  0  0  0  0  0  0  0  0  0  0  0
   -1.5750   23.2519  -30.9187 H   0  0  0  0  0  0  0  0  0  0  0  0
   -2.3790   22.0692  -29.8045 H   0  0  0  0  0  0  0  0  0  0  0  0
   -4.7725   21.7865  -30.8473 H   0  0  0  0  0  0  0  0  0  0  0  0
   -5.7205   25.9941  -31.0113 H   0  0  0  0  0  0  0  0  0  0  0  0
  1  2  1  0
  2  3  1  0
  3  4  1  0
  4  5  2  0
  5  6  1  0
  6  7  1  0
  6  8  2  0
  8  9  1  0
  9  4  1  0
  1 10  1  0
  1 11  1  0
  2 12  1  0
  2 13  1  0
  3 14  1  0
  3 15  1  0
  5 16  1  0
  8 17  1  0
M  END
>  <UniqueID>  (8) 
7

>  <SMILES>  (8) 
NCCc1cc(Br)co1

>  <Energy>  (8) 
37.516600409380885

>  <Genealogy>  (8) 
NCCc1cc(Br)co1 (3D coordinates assigned)
NCCc1cc(Br)co1 (optimized conformer: 37.516600409380885 kcal/mol)

>  <smiles>  (8) 
NCCc1cc(Br)co1

>  <score_type>  (8) 
oracle

>  <origin>  (8) 
adg

>  <m_score__min__energy>  (8) 
-5.2999999999999998

>  <m_primary>  (8) 
energy

$$$$
8:0
     RDKit          3D

 25 25  0  0  0  0  0  0  0  0999 V2000
   -5.8110   16.2260  -33.3760 C   0  0  0  0  0  0  0  0  0  0  0  0
   -6.0970   17.6150  -33.7540 N   0  0  0  0  0  0  0  0  0  0  0  0
   -5.4970   18.1700  -34.9720 C   0  0  0  0  0  0  0  0  0  0  0  0
   -6.9410   18.4390  -32.9140 C   0  0  0  0  0  0  0  0  0  0  0  0
   -7.0970   18.0930  -31.3100 S   0  0  0  0  0  0  0  0  0  0  0  0
   -7.6920   19.5420  -33.4670 N   0  0  0  0  0  0  0  0  0  0  0  0
   -7.5220   20.7240  -32.6570 C   0  0  0  0  0  0  0  0  0  0  0  0
   -8.5390   21.1360  -31.7720 C   0  0  0  0  0  0  0  0  0  0  0  0
   -8.3690   22.2740  -30.9780 C   0  0  0  0  0  0  0  0  0  0  0  0
   -7.1810   23.0060  -31.0480 C   0  0  0  0  0  0  0  0  0  0  0  0
   -6.1580   22.5970  -31.9060 C   0  0  0  0  0  0  0  0  0  0  0  0
   -5.0000   23.3010  -31.9620 F   0  0  0  0  0  0  0  0  0  0  0  0
   -6.3220   21.4590  -32.7020 C   0  0  0  0  0  0  0  0  0  0  0  0
   -5.7934   16.1406  -32.2795 H   0  0  0  0  0  0  0  0  0  0  0  0
   -6.5923   15.5670  -33.7826 H   0  0  0  0  0  0  0  0  0  0  0  0
   -4.8329   15.9293  -33.7826 H   0  0  0  0  0  0  0  0  0  0  0  0
   -4.7148   18.8935  -34.6986 H   0  0  0  0  0  0  0  0  0  0  0  0
   -5.0532   17.3570  -35.5654 H   0  0  0  0  0  0  0  0  0  0  0  0
   -6.2730   18.6757  -35.5654 H   0  0  0  0  0  0  0  0  0  0  0  0
   -7.3620   19.7550  -34.4380 H   0  0  0  0  0  0  0  0  0  0  0  0
   -8.6990   19.2760  -33.5460 H   0  0  0  0  0  0  0  0  0  0  0  0
   -9.4726   20.5581  -31.7057 H   0  0  0  0  0  0  0  0  0  0  0  0
   -9.1717   22.5936  -30.2972 H   0  0  0  0  0  0  0  0  0  0  0  0
   -7.0515   23.9047  -30.4271 H   0  0  0  0  0  0  0  0  0  0  0  0
   -5.5081   21.1360  -33.3677 H   0  0  0  0  0  0  0  0  0  0  0  0
  1  2  1  0
  2  3  1  0
  2  4  1  0
  4  5  2  0
  4  6  1  0
  6  7  1  0
  7  8  2  0
  8  9  1  0
  9 10  2  0
 10 11  1  0
 11 12  1  0
 11 13  2  0
 13  7  1  0
  1 14  1  0
  1 15  1  0
  1 16  1  0
  3 17  1  0
  3 18  1  0
  3 19  1  0
  6 20  1  0
  6 21  1  0
  8 22  1  0
  9 23  1  0
 10 24  1  0
 13 25  1  0
M  CHG  1   6   1
M  END
>  <UniqueID>  (9) 
8

>  <SMILES>  (9) 
CN(C)C(=S)[NH2+]c1cccc(F)c1

>  <Energy>  (9) 
24.976384592732163

>  <Genealogy>  (9) 
CN(C)C(=S)[NH2+]c1cccc(F)c1 (protonated)
CN(C)C(=S)[NH2+]c1cccc(F)c1 (3D coordinates assigned)
CN(C)C(=S)[NH2+]c1cccc(F)c1 (optimized conformer: 24.976384592732163 kcal/mol)

>  <smiles>  (9) 
CN(C)C(=S)Nc1cccc(F)c1

>  <score_type>  (9) 
oracle

>  <origin>  (9) 
adg

>  <m_score__min__energy>  (9) 
-5.0499999999999998

>  <m_primary>  (9) 
energy

$$$$
9:0
     RDKit          3D

 28 29  0  0  0  0  0  0  0  0999 V2000
   -1.2802   24.7883  -25.0857 H   0  0  0  0  0  0  0  0  0  0  0  0
   -1.4760   24.9910  -26.1490 C   0  0  0  0  0  0  0  0  0  0  0  0
   -2.5520   24.4320  -26.7620 N   0  0  0  0  0  0  0  0  0  0  0  0
   -2.8150   24.6690  -28.0780 C   0  0  0  0  0  0  0  0  0  0  0  0
   -3.8430   24.1250  -28.6580 N   0  0  0  0  0  0  0  0  0  0  0  0
   -4.1510   24.2200  -30.3630 S   0  0  0  0  0  0  0  0  0  0  0  0
   -4.1130   25.6620  -30.7870 O   0  0  0  0  0  0  0  0  0  0  0  0
   -3.0830   23.4630  -31.1000 O   0  0  0  0  0  0  0  0  0  0  0  0
   -5.7180   23.5070  -30.7330 C   0  0  0  0  0  0  0  0  0  0  0  0
   -6.2370   23.5940  -32.0310 C   0  0  0  0  0  0  0  0  0  0  0  0
   -5.6662   24.1128  -32.8153 H   0  0  0  0  0  0  0  0  0  0  0  0
   -7.4760   23.0250  -32.3340 C   0  0  0  0  0  0  0  0  0  0  0  0
   -7.8798   23.1030  -33.3542 H   0  0  0  0  0  0  0  0  0  0  0  0
   -8.2080   22.3540  -31.3420 C   0  0  0  0  0  0  0  0  0  0  0  0
   -9.5560   21.7770  -31.6560 C   0  0  0  0  0  0  0  0  0  0  0  0
  -10.0853   21.5505  -30.7187 H   0  0  0  0  0  0  0  0  0  0  0  0
  -10.1392   22.5043  -32.2398 H   0  0  0  0  0  0  0  0  0  0  0  0
   -9.4324   20.8530  -32.2398 H   0  0  0  0  0  0  0  0  0  0  0  0
   -7.6980   22.2890  -30.0360 C   0  0  0  0  0  0  0  0  0  0  0  0
   -8.2772   21.7878  -29.2465 H   0  0  0  0  0  0  0  0  0  0  0  0
   -6.4580   22.8580  -29.7340 C   0  0  0  0  0  0  0  0  0  0  0  0
   -6.0612   22.7967  -28.7099 H   0  0  0  0  0  0  0  0  0  0  0  0
   -1.9870   25.4800  -28.7950 N   0  0  0  0  0  0  0  0  0  0  0  0
   -2.1820   25.6660  -29.8050 H   0  0  0  0  0  0  0  0  0  0  0  0
   -0.9020   26.0570  -28.2150 C   0  0  0  0  0  0  0  0  0  0  0  0
   -0.2444   26.7105  -28.8071 H   0  0  0  0  0  0  0  0  0  0  0  0
   -0.6220   25.8210  -26.8700 C   0  0  0  0  0  0  0  0  0  0  0  0
    0.2542   26.2803  -26.3891 H   0  0  0  0  0  0  0  0  0  0  0  0
  1  2  1  0
  2  3  2  0
  3  4  1  0
  4  5  2  0
  5  6  1  0
  6  7  2  0
  6  8  2  0
  6  9  1  0
  9 10  2  0
 10 11  1  0
 10 12  1  0
 12 13  1  0
 12 14  2  0
 14 15  1  0
 15 16  1  0
 15 17  1  0
 15 18  1  0
 14 19  1  0
 19 20  1  0
 19 21  2  0
 21 22  1  0
  4 23  1  0
 23 24  1  0
 23 25  1  0
 25 26  1  0
 25 27  2  0
 27 28  1  0
 27  2  1  0
 21  9  1  0
M  END
>  <UniqueID>  (10) 
9

>  <SMILES>  (10) 
Cc1ccc(S(=O)(=O)/N=c2\nccc[nH]2)cc1

>  <Energy>  (10) 
31.239695569086777

>  <Genealogy>  (10) 
Cc1ccc(S(=O)(=O)/N=c2\nccc[nH]2)cc1 (cis-trans isomerization)
Cc1ccc(S(=O)(=O)/N=c2\nccc[nH]2)cc1 (3D coordinates assigned)
Cc1ccc(S(=O)(=O)/N=c2\nccc[nH]2)cc1 (optimized conformer: 31.239695569086777 kcal/mol)

>  <smiles>  (10) 
Cc1ccc(S(=O)(=O)N=c2nccc[nH]2)cc1

>  <score_type>  (10) 
oracle

>  <origin>  (10) 
adg

>  <m_score__min__energy>  (10) 
-7.46

>  <m_primary>  (10) 
energy

$$$$
10:0
     RDKit          3D

 31 33  0  0  0  0  0  0  0  0999 V2000
   -4.3280   25.6760  -30.7450 O   0  0  0  0  0  0  0  0  0  0  0  0
   -3.8900   24.5780  -30.3120 C   0  0  0  0  0  0  0  0  0  0  0  0
   -3.6030   24.4320  -28.8410 C   0  0  0  0  0  0  0  0  0  0  0  0
   -2.1940   24.0870  -28.6200 N   0  0  0  0  0  0  0  0  0  0  0  0
   -1.1230   24.9200  -28.6830 C   0  0  0  0  0  0  0  0  0  0  0  0
   -1.2150   26.1410  -28.9790 O   0  0  0  0  0  0  0  0  0  0  0  0
    0.0630   24.3260  -28.3930 N   0  0  0  0  0  0  0  0  0  0  0  0
   -0.3020   23.0550  -28.1460 C   0  0  0  0  0  0  0  0  0  0  0  0
    0.5260   21.9960  -27.7790 C   0  0  0  0  0  0  0  0  0  0  0  0
   -0.0720   20.7410  -27.5600 C   0  0  0  0  0  0  0  0  0  0  0  0
   -1.4660   20.5750  -27.7170 C   0  0  0  0  0  0  0  0  0  0  0  0
   -2.2760   21.6630  -28.0910 C   0  0  0  0  0  0  0  0  0  0  0  0
   -1.6530   22.8990  -28.2890 C   0  0  0  0  0  0  0  0  0  0  0  0
   -3.7320   23.4860  -31.2260 N   0  0  0  0  0  0  0  0  0  0  0  0
   -4.7780   22.5860  -31.6060 C   0  0  0  0  0  0  0  0  0  0  0  0
   -6.0490   23.0930  -31.9070 C   0  0  0  0  0  0  0  0  0  0  0  0
   -6.2920   24.4250  -31.8190 F   0  0  0  0  0  0  0  0  0  0  0  0
   -7.0840   22.2240  -32.2650 C   0  0  0  0  0  0  0  0  0  0  0  0
   -6.8480   20.8480  -32.3490 C   0  0  0  0  0  0  0  0  0  0  0  0
   -5.5730   20.3410  -32.0820 C   0  0  0  0  0  0  0  0  0  0  0  0
   -4.5370   21.2050  -31.7130 C   0  0  0  0  0  0  0  0  0  0  0  0
   -3.2980   20.7020  -31.4830 F   0  0  0  0  0  0  0  0  0  0  0  0
   -3.8262   25.3820  -28.3334 H   0  0  0  0  0  0  0  0  0  0  0  0
   -4.2325   23.6261  -28.4358 H   0  0  0  0  0  0  0  0  0  0  0  0
    1.6110   22.1363  -27.6643 H   0  0  0  0  0  0  0  0  0  0  0  0
    0.5504   19.8835  -27.2645 H   0  0  0  0  0  0  0  0  0  0  0  0
   -1.9214   19.5884  -27.5457 H   0  0  0  0  0  0  0  0  0  0  0  0
   -3.3617   21.5453  -28.2230 H   0  0  0  0  0  0  0  0  0  0  0  0
   -8.0860   22.6233  -32.4810 H   0  0  0  0  0  0  0  0  0  0  0  0
   -7.6651   20.1653  -32.6250 H   0  0  0  0  0  0  0  0  0  0  0  0
   -5.3841   19.2603  -32.1623 H   0  0  0  0  0  0  0  0  0  0  0  0
  1  2  2  0
  2  3  1  0
  3  4  1  0
  4  5  1  0
  5  6  2  0
  5  7  1  0
  7  8  1  0
  8  9  2  0
  9 10  1  0
 10 11  2  0
 11 12  1  0
 12 13  2  0
  2 14  1  0
 14 15  1  0
 15 16  2  0
 16 17  1  0
 16 18  1  0
 18 19  2  0
 19 20  1  0
 20 21  2  0
 21 22  1  0
 13  4  1  0
 21 15  1  0
 13  8  1  0
  3 23  1  0
  3 24  1  0
  9 25  1  0
 10 26  1  0
 11 27  1  0
 12 28  1  0
 18 29  1  0
 19 30  1  0
 20 31  1  0
M  CHG  2   7  -1  14  -1
M  END
>  <UniqueID>  (11) 
10

>  <SMILES>  (11) 
O=C(Cn1c(=O)[n-]c2ccccc21)[N-]c1c(F)cccc1F

>  <Energy>  (11) 
75.30977042253667

>  <Genealogy>  (11) 
O=C(Cn1c(=O)[n-]c2ccccc21)[N-]c1c(F)cccc1F (protonated)
O=C(Cn1c(=O)[n-]c2ccccc21)[N-]c1c(F)cccc1F (3D coordinates assigned)
O=C(Cn1c(=O)[n-]c2ccccc21)[N-]c1c(F)cccc1F (optimized conformer: 75.30977042253667 kcal/mol)

>  <smiles>  (11) 
O=C(Cn1c(=O)[nH]c2ccccc21)Nc1c(F)cccc1F

>  <score_type>  (11) 
oracle

>  <origin>  (11) 
adg

>  <m_score__min__energy>  (11) 
-9.5399999999999991

>  <m_primary>  (11) 
energy

$$$$
11:0
     RDKit          3D

 39 40  0  0  0  0  0  0  0  0999 V2000
   -8.9090   18.5610  -31.7560 C   0  0  0  0  0  0  0  0  0  0  0  0
   -8.3460   19.3450  -32.7980 O   0  0  0  0  0  0  0  0  0  0  0  0
   -6.9900   19.6940  -32.9150 C   0  0  0  0  0  0  0  0  0  0  0  0
   -6.3800   20.9400  -32.7730 C   0  0  0  0  0  0  0  0  0  0  0  0
   -6.9630   22.2570  -32.3240 C   0  0  0  0  0  0  0  0  0  0  0  0
   -7.4180   22.2070  -30.9160 N   0  0  0  0  0  0  0  0  0  0  0  0
   -8.8320   21.8000  -30.8730 C   0  0  0  0  0  0  0  0  0  0  0  0
   -7.2400   23.5020  -30.2140 C   0  0  0  0  0  0  0  0  0  0  0  0
   -5.7760   23.8090  -30.0240 C   0  0  0  0  0  0  0  0  0  0  0  0
   -4.9780   23.0020  -29.1990 C   0  0  0  0  0  0  0  0  0  0  0  0
   -3.6180   23.2820  -29.0520 C   0  0  0  0  0  0  0  0  0  0  0  0
   -3.0720   24.3830  -29.7120 C   0  0  0  0  0  0  0  0  0  0  0  0
   -3.8620   25.1750  -30.4850 N   0  0  0  0  0  0  0  0  0  0  0  0
   -5.1880   24.9210  -30.6470 C   0  0  0  0  0  0  0  0  0  0  0  0
   -5.0360   20.6830  -33.0300 C   0  0  0  0  0  0  0  0  0  0  0  0
   -3.9210   21.6780  -33.0250 C   0  0  0  0  0  0  0  0  0  0  0  0
   -4.8580   19.3730  -33.2890 N   0  0  0  0  0  0  0  0  0  0  0  0
   -6.0400   18.7850  -33.2040 N   0  0  0  0  0  0  0  0  0  0  0  0
   -6.2540   17.3620  -33.4270 C   0  0  0  0  0  0  0  0  0  0  0  0
   -8.6105   18.9766  -30.7822 H   0  0  0  0  0  0  0  0  0  0  0  0
  -10.0058   18.5735  -31.8394 H   0  0  0  0  0  0  0  0  0  0  0  0
   -8.5467   17.5257  -31.8394 H   0  0  0  0  0  0  0  0  0  0  0  0
   -6.1947   23.0381  -32.4221 H   0  0  0  0  0  0  0  0  0  0  0  0
   -7.8352   22.4776  -32.9569 H   0  0  0  0  0  0  0  0  0  0  0  0
   -9.1551   21.7070  -29.8256 H   0  0  0  0  0  0  0  0  0  0  0  0
   -9.4472   22.5575  -31.3806 H   0  0  0  0  0  0  0  0  0  0  0  0
   -8.9503   20.8313  -31.3806 H   0  0  0  0  0  0  0  0  0  0  0  0
   -7.7023   24.3024  -30.8103 H   0  0  0  0  0  0  0  0  0  0  0  0
   -7.7187   23.4370  -29.2257 H   0  0  0  0  0  0  0  0  0  0  0  0
   -5.4240   22.1483  -28.6677 H   0  0  0  0  0  0  0  0  0  0  0  0
   -2.9836   22.6410  -28.4222 H   0  0  0  0  0  0  0  0  0  0  0  0
   -2.0010   24.6108  -29.6070 H   0  0  0  0  0  0  0  0  0  0  0  0
   -5.8021   25.5893  -31.2685 H   0  0  0  0  0  0  0  0  0  0  0  0
   -3.6500   21.9198  -31.9867 H   0  0  0  0  0  0  0  0  0  0  0  0
   -3.0481   21.2532  -33.5423 H   0  0  0  0  0  0  0  0  0  0  0  0
   -4.2441   22.5934  -33.5423 H   0  0  0  0  0  0  0  0  0  0  0  0
   -6.3315   16.8466  -32.4583 H   0  0  0  0  0  0  0  0  0  0  0  0
   -7.1842   17.2158  -33.9956 H   0  0  0  0  0  0  0  0  0  0  0  0
   -5.4079   16.9486  -33.9956 H   0  0  0  0  0  0  0  0  0  0  0  0
  1  2  1  0
  2  3  1  0
  3  4  2  0
  4  5  1  0
  5  6  1  0
  6  7  1  0
  6  8  1  0
  8  9  1  0
  9 10  2  0
 10 11  1  0
 11 12  2  0
 12 13  1  0
 13 14  2  0
  4 15  1  0
 15 16  1  0
 15 17  2  0
 17 18  1  0
 18 19  1  0
 18  3  1  0
 14  9  1  0
  1 20  1  0
  1 21  1  0
  1 22  1  0
  5 23  1  0
  5 24  1  0
  7 25  1  0
  7 26  1  0
  7 27  1  0
  8 28  1  0
  8 29  1  0
 10 30  1  0
 11 31  1  0
 12 32  1  0
 14 33  1  0
 16 34  1  0
 16 35  1  0
 16 36  1  0
 19 37  1  0
 19 38  1  0
 19 39  1  0
M  END
>  <UniqueID>  (12) 
11

>  <SMILES>  (12) 
COc1c(CN(C)Cc2cccnc2)c(C)nn1C

>  <Energy>  (12) 
67.57565887202507

>  <Genealogy>  (12) 
COc1c(CN(C)Cc2cccnc2)c(C)nn1C (3D coordinates assigned)
COc1c(CN(C)Cc2cccnc2)c(C)nn1C (optimized conformer: 67.57565887202507 kcal/mol)

>  <smiles>  (12) 
COc1c(CN(C)Cc2cccnc2)c(C)nn1C

>  <score_type>  (12) 
oracle

>  <origin>  (12) 
adg

>  <m_score__min__energy>  (12) 
-6.6299999999999999

>  <m_primary>  (12) 
energy

$$$$
12:0
     RDKit          3D

 33 34  0  0  0  0  0  0  0  0999 V2000
   -1.2260   21.1700  -33.4950 C   0  0  0  0  0  0  0  0  0  0  0  0
   -2.7110   21.2700  -33.1890 C   0  0  0  0  0  0  0  0  0  0  0  0
   -2.9040   21.3310  -31.7800 O   0  0  0  0  0  0  0  0  0  0  0  0
   -2.8220   22.5250  -31.0580 C   0  0  0  0  0  0  0  0  0  0  0  0
   -1.7930   22.7850  -30.3770 O   0  0  0  0  0  0  0  0  0  0  0  0
   -3.9590   23.4620  -31.0750 C   0  0  0  0  0  0  0  0  0  0  0  0
   -3.9970   24.7100  -30.4900 C   0  0  0  0  0  0  0  0  0  0  0  0
   -3.0020   25.2910  -29.7120 O   0  0  0  0  0  0  0  0  0  0  0  0
   -5.1900   25.2990  -30.8410 C   0  0  0  0  0  0  0  0  0  0  0  0
   -5.8690   24.4680  -31.6010 O   0  0  0  0  0  0  0  0  0  0  0  0
   -5.1720   23.3630  -31.7480 C   0  0  0  0  0  0  0  0  0  0  0  0
   -5.6450   22.2440  -32.5100 N   0  0  0  0  0  0  0  0  0  0  0  0
   -6.9310   21.6270  -32.3110 C   0  0  0  0  0  0  0  0  0  0  0  0
   -7.9630   22.3270  -31.6550 C   0  0  0  0  0  0  0  0  0  0  0  0
   -9.2170   21.7420  -31.4780 C   0  0  0  0  0  0  0  0  0  0  0  0
   -9.4650   20.4590  -31.9620 C   0  0  0  0  0  0  0  0  0  0  0  0
   -8.4590   19.7540  -32.6240 C   0  0  0  0  0  0  0  0  0  0  0  0
   -7.1850   20.3230  -32.8000 C   0  0  0  0  0  0  0  0  0  0  0  0
   -6.1160   19.5400  -33.5120 C   0  0  0  0  0  0  0  0  0  0  0  0
   -0.6593   21.1318  -32.5530 H   0  0  0  0  0  0  0  0  0  0  0  0
   -1.0322   20.2568  -34.0768 H   0  0  0  0  0  0  0  0  0  0  0  0
   -0.9115   22.0490  -34.0768 H   0  0  0  0  0  0  0  0  0  0  0  0
   -3.1205   22.1786  -33.6545 H   0  0  0  0  0  0  0  0  0  0  0  0
   -3.2277   20.3860  -33.5911 H   0  0  0  0  0  0  0  0  0  0  0  0
   -5.5219   26.3022  -30.5354 H   0  0  0  0  0  0  0  0  0  0  0  0
   -5.0900   21.9790  -33.3540 H   0  0  0  0  0  0  0  0  0  0  0  0
   -7.7782   23.3441  -31.2790 H   0  0  0  0  0  0  0  0  0  0  0  0
  -10.0116   22.2946  -30.9553 H   0  0  0  0  0  0  0  0  0  0  0  0
  -10.4554   20.0012  -31.8220 H   0  0  0  0  0  0  0  0  0  0  0  0
   -8.6641   18.7451  -33.0113 H   0  0  0  0  0  0  0  0  0  0  0  0
   -5.4594   19.0591  -32.7720 H   0  0  0  0  0  0  0  0  0  0  0  0
   -6.5842   18.7696  -34.1423 H   0  0  0  0  0  0  0  0  0  0  0  0
   -5.5227   20.2187  -34.1423 H   0  0  0  0  0  0  0  0  0  0  0  0
  1  2  1  0
  2  3  1  0
  3  4  1  0
  4  5  2  0
  4  6  1  0
  6  7  1  0
  7  8  1  0
  7  9  2  0
  9 10  1  0
 10 11  1  0
 11 12  1  0
 12 13  1  0
 13 14  2  0
 14 15  1  0
 15 16  2  0
 16 17  1  0
 17 18  2  0
 18 19  1  0
 11  6  2  0
 18 13  1  0
  1 20  1  0
  1 21  1  0
  1 22  1  0
  2 23  1  0
  2 24  1  0
  9 25  1  0
 12 26  1  0
 14 27  1  0
 15 28  1  0
 16 29  1  0
 17 30  1  0
 19 31  1  0
 19 32  1  0
 19 33  1  0
M  CHG  1   8  -1
M  END
>  <UniqueID>  (13) 
12

>  <SMILES>  (13) 
CCOC(=O)c1c([O-])coc1Nc1ccccc1C

>  <Energy>  (13) 
64.01611205462173

>  <Genealogy>  (13) 
CCOC(=O)c1c([O-])coc1Nc1ccccc1C (protonated)
CCOC(=O)c1c([O-])coc1Nc1ccccc1C (3D coordinates assigned)
CCOC(=O)c1c([O-])coc1Nc1ccccc1C (optimized conformer: 64.01611205462173 kcal/mol)

>  <smiles>  (13) 
CCOC(=O)c1c(O)coc1Nc1ccccc1C

>  <score_type>  (13) 
oracle

>  <origin>  (13) 
adg

>  <m_score__min__energy>  (13) 
-9.2100000000000009

>  <m_primary>  (13) 
energy

$$$$
13:0
     RDKit          3D

 34 35  0  0  0  0  0  0  0  0999 V2000
   -0.8420   26.0910  -27.7090 C   0  0  0  0  0  0  0  0  0  0  0  0
   -1.7630   24.9170  -28.0260 C   0  0  0  0  0  0  0  0  0  0  0  0
   -2.4160   25.0950  -29.3240 N   0  0  0  0  0  0  0  0  0  0  0  0
   -3.7150   24.5410  -29.5840 C   0  0  0  0  0  0  0  0  0  0  0  0
   -4.2850   23.8410  -28.7050 O   0  0  0  0  0  0  0  0  0  0  0  0
   -4.3850   24.7570  -30.8320 N   0  0  0  0  0  0  0  0  0  0  0  0
   -5.1210   23.7470  -31.5860 C   0  0  0  0  0  0  0  0  0  0  0  0
   -6.6150   23.8190  -31.2650 C   0  0  0  0  0  0  0  0  0  0  0  0
   -7.2960   22.5410  -31.6470 C   0  0  0  0  0  0  0  0  0  0  0  0
   -8.6370   22.2830  -31.3760 C   0  0  0  0  0  0  0  0  0  0  0  0
   -8.9740   20.7250  -31.9100 S   0  0  0  0  0  0  0  0  0  0  0  0
   -7.4040   20.4410  -32.4510 C   0  0  0  0  0  0  0  0  0  0  0  0
   -6.9110   19.2010  -33.0760 C   0  0  0  0  0  0  0  0  0  0  0  0
   -6.0730   19.2270  -34.2040 C   0  0  0  0  0  0  0  0  0  0  0  0
   -5.6330   18.0250  -34.7610 C   0  0  0  0  0  0  0  0  0  0  0  0
   -6.0250   16.8120  -34.1950 C   0  0  0  0  0  0  0  0  0  0  0  0
   -6.8570   16.8190  -33.0730 C   0  0  0  0  0  0  0  0  0  0  0  0
   -7.2760   18.0000  -32.5450 N   0  0  0  0  0  0  0  0  0  0  0  0
   -6.6160   21.5170  -32.2320 N   0  0  0  0  0  0  0  0  0  0  0  0
   -0.7536   26.2036  -26.6184 H   0  0  0  0  0  0  0  0  0  0  0  0
    0.1525   25.9036  -28.1400 H   0  0  0  0  0  0  0  0  0  0  0  0
   -1.2608   27.0123  -28.1400 H   0  0  0  0  0  0  0  0  0  0  0  0
   -1.1702   23.9906  -28.0461 H   0  0  0  0  0  0  0  0  0  0  0  0
   -2.5395   24.8624  -27.2488 H   0  0  0  0  0  0  0  0  0  0  0  0
   -1.9220   25.6320  -30.0710 H   0  0  0  0  0  0  0  0  0  0  0  0
   -4.9736   23.9204  -32.6622 H   0  0  0  0  0  0  0  0  0  0  0  0
   -4.7454   22.7516  -31.3063 H   0  0  0  0  0  0  0  0  0  0  0  0
   -6.7456   23.9903  -30.1863 H   0  0  0  0  0  0  0  0  0  0  0  0
   -7.0623   24.6452  -31.8372 H   0  0  0  0  0  0  0  0  0  0  0  0
   -9.3476   22.9738  -30.8987 H   0  0  0  0  0  0  0  0  0  0  0  0
   -5.7662   20.1871  -34.6445 H   0  0  0  0  0  0  0  0  0  0  0  0
   -4.9782   18.0345  -35.6448 H   0  0  0  0  0  0  0  0  0  0  0  0
   -5.6827   15.8603  -34.6275 H   0  0  0  0  0  0  0  0  0  0  0  0
   -7.1732   15.8694  -32.6167 H   0  0  0  0  0  0  0  0  0  0  0  0
  1  2  1  0
  2  3  1  0
  3  4  1  0
  4  5  2  0
  4  6  1  0
  6  7  1  0
  7  8  1  0
  8  9  1  0
  9 10  2  0
 10 11  1  0
 11 12  1  0
 12 13  1  0
 13 14  2  0
 14 15  1  0
 15 16  2  0
 16 17  1  0
 17 18  2  0
 12 19  2  0
 19  9  1  0
 18 13  1  0
  1 20  1  0
  1 21  1  0
  1 22  1  0
  2 23  1  0
  2 24  1  0
  3 25  1  0
  7 26  1  0
  7 27  1  0
  8 28  1  0
  8 29  1  0
 10 30  1  0
 14 31  1  0
 15 32  1  0
 16 33  1  0
 17 34  1  0
M  CHG  1   6  -1
M  END
>  <UniqueID>  (14) 
13

>  <SMILES>  (14) 
CCNC(=O)[N-]CCc1csc(-c2ccccn2)n1

>  <Energy>  (14) 
54.467701063541604

>  <Genealogy>  (14) 
CCNC(=O)[N-]CCc1csc(-c2ccccn2)n1 (protonated)
CCNC(=O)[N-]CCc1csc(-c2ccccn2)n1 (3D coordinates assigned)
CCNC(=O)[N-]CCc1csc(-c2ccccn2)n1 (optimized conformer: 54.467701063541604 kcal/mol)

>  <smiles>  (14) 
CCNC(=O)NCCc1csc(-c2ccccn2)n1

>  <score_type>  (14) 
oracle

>  <origin>  (14) 
adg

>  <m_score__min__energy>  (14) 
-9.0600000000000005

>  <m_primary>  (14) 
energy

$$$$
14:0
     RDKit          3D

 43 45  0  0  1  0  0  0  0  0999 V2000
   -5.7310   25.8030  -30.1000 C   0  0  0  0  0  0  0  0  0  0  0  0
   -5.7170   24.4910  -30.7910 C   0  0  0  0  0  0  0  0  0  0  0  0
   -6.8820   23.8900  -31.1600 C   0  0  0  0  0  0  0  0  0  0  0  0
   -6.8280   22.6740  -31.7990 C   0  0  0  0  0  0  0  0  0  0  0  0
   -7.8850   22.0500  -32.1740 N   0  0  0  0  0  0  0  0  0  0  0  0
   -7.9310   20.6290  -32.2240 C   0  0  0  0  0  0  0  0  0  0  0  0
   -8.8850   19.8950  -31.5200 C   0  0  0  0  0  0  0  0  0  0  0  0
   -8.9260   18.5170  -31.5710 C   0  0  0  0  0  0  0  0  0  0  0  0
   -7.9660   17.8980  -32.3600 C   0  0  0  0  0  0  0  0  0  0  0  0
   -7.0350   18.6660  -33.0430 C   0  0  0  0  0  0  0  0  0  0  0  0
   -7.0090   20.0040  -32.9830 N   0  0  0  0  0  0  0  0  0  0  0  0
   -5.6130   22.1030  -32.0470 N   0  0  0  0  0  0  0  0  0  0  0  0
   -4.4600   22.6910  -31.6860 C   0  0  0  0  0  0  0  0  0  0  0  0
   -3.1520   22.1040  -31.9390 C   0  0  0  0  0  0  0  0  0  0  0  0
   -2.1400   22.1290  -31.0290 C   0  0  0  0  0  0  0  0  0  0  0  0
   -0.9020   21.5500  -31.3180 C   0  0  0  0  0  0  0  0  0  0  0  0
   -0.6670   20.9390  -32.5330 C   0  0  0  0  0  0  0  0  0  0  0  0
    0.6320   20.3110  -32.8870 C   0  0  0  0  0  0  0  0  0  0  0  0
    1.1620   20.7970  -34.2170 C   0  0  0  0  0  0  0  0  0  0  0  0
    0.4340   18.8200  -32.9670 C   0  0  0  0  0  0  0  0  0  0  0  0
   -1.6890   20.9100  -33.4610 C   0  0  0  0  0  0  0  0  0  0  0  0
   -2.9150   21.4920  -33.1520 C   0  0  0  0  0  0  0  0  0  0  0  0
   -4.5650   23.8830  -31.0620 N   0  0  0  0  0  0  0  0  0  0  0  0
   -5.7293   25.6442  -29.0115 H   0  0  0  0  0  0  0  0  0  0  0  0
   -4.8389   26.3786  -30.3879 H   0  0  0  0  0  0  0  0  0  0  0  0
   -6.6351   26.3594  -30.3879 H   0  0  0  0  0  0  0  0  0  0  0  0
   -7.8496   24.3693  -30.9504 H   0  0  0  0  0  0  0  0  0  0  0  0
   -9.6255   20.4296  -30.9069 H   0  0  0  0  0  0  0  0  0  0  0  0
   -9.6796   17.9392  -31.0158 H   0  0  0  0  0  0  0  0  0  0  0  0
   -7.9439   16.8014  -32.4432 H   0  0  0  0  0  0  0  0  0  0  0  0
   -6.2840   18.1534  -33.6620 H   0  0  0  0  0  0  0  0  0  0  0  0
   -5.6100   21.1820  -32.5330 H   0  0  0  0  0  0  0  0  0  0  0  0
   -2.2991   22.6114  -30.0533 H   0  0  0  0  0  0  0  0  0  0  0  0
   -0.1011   21.5816  -30.5646 H   0  0  0  0  0  0  0  0  0  0  0  0
    1.3631   20.5852  -32.1122 H   0  0  0  0  0  0  0  0  0  0  0  0
    1.9629   21.5314  -34.0463 H   0  0  0  0  0  0  0  0  0  0  0  0
    1.5613   19.9446  -34.7862 H   0  0  0  0  0  0  0  0  0  0  0  0
    0.3473   21.2685  -34.7862 H   0  0  0  0  0  0  0  0  0  0  0  0
    0.3785   18.4024  -31.9508 H   0  0  0  0  0  0  0  0  0  0  0  0
   -0.5009   18.6026  -33.5043 H   0  0  0  0  0  0  0  0  0  0  0  0
    1.2798   18.3661  -33.5043 H   0  0  0  0  0  0  0  0  0  0  0  0
   -1.5352   20.4298  -34.4386 H   0  0  0  0  0  0  0  0  0  0  0  0
   -3.7213   21.4629  -33.8997 H   0  0  0  0  0  0  0  0  0  0  0  0
  1  2  1  0
  2  3  2  0
  3  4  1  0
  4  5  2  0
  5  6  1  0
  6  7  2  0
  7  8  1  0
  8  9  2  0
  9 10  1  0
 10 11  2  0
  4 12  1  0
 12 13  1  0
 13 14  1  0
 14 15  2  0
 15 16  1  0
 16 17  2  0
 17 18  1  0
 18 19  1  0
 18 20  1  0
 17 21  1  0
 21 22  2  0
 13 23  2  0
 23  2  1  0
 11  6  1  0
 22 14  1  0
  1 24  1  0
  1 25  1  0
  1 26  1  0
  3 27  1  0
  7 28  1  0
  8 29  1  0
  9 30  1  0
 10 31  1  0
 12 32  1  0
 15 33  1  0
 16 34  1  0
 18 35  1  0
 19 36  1  0
 19 37  1  0
 19 38  1  0
 20 39  1  0
 20 40  1  0
 20 41  1  0
 21 42  1  0
 22 43  1  0
M  END
>  <smiles>  (15) 
Cc1cc(=Nc2ccccn2)[nH]c(-c2ccc(C(C)C)cc2)n1

>  <score_type>  (15) 
oracle

>  <origin>  (15) 
adg

>  <m_score__min__energy>  (15) 
-7.8799999999999999

>  <m_primary>  (15) 
energy

$$$$
15:0
     RDKit          3D

 32 34  0  0  0  0  0  0  0  0999 V2000
   -8.1110   20.2930  -32.4090 C   0  0  0  0  0  0  0  0  0  0  0  0
   -7.0960   21.2690  -32.0240 N   0  0  0  0  0  0  0  0  0  0  0  0
   -7.2070   22.2670  -31.1090 C   0  0  0  0  0  0  0  0  0  0  0  0
   -8.2750   22.5300  -30.4940 O   0  0  0  0  0  0  0  0  0  0  0  0
   -6.0420   22.9370  -30.9040 N   0  0  0  0  0  0  0  0  0  0  0  0
   -5.7770   23.9940  -29.9290 C   0  0  0  0  0  0  0  0  0  0  0  0
   -4.9260   25.0550  -30.5490 C   0  0  0  0  0  0  0  0  0  0  0  0
   -5.4770   26.0050  -31.1640 O   0  0  0  0  0  0  0  0  0  0  0  0
   -3.4960   24.9370  -30.4670 N   0  0  0  0  0  0  0  0  0  0  0  0
   -2.6230   24.5480  -29.3500 C   0  0  0  0  0  0  0  0  0  0  0  0
   -3.3140   24.2610  -28.0290 C   0  0  0  0  0  0  0  0  0  0  0  0
   -2.7460   23.1140  -28.8630 C   0  0  0  0  0  0  0  0  0  0  0  0
   -5.1650   22.2960  -31.7020 C   0  0  0  0  0  0  0  0  0  0  0  0
   -3.8290   22.5240  -31.8170 N   0  0  0  0  0  0  0  0  0  0  0  0
   -3.0950   21.7240  -32.6500 C   0  0  0  0  0  0  0  0  0  0  0  0
   -3.7110   20.6710  -33.3670 C   0  0  0  0  0  0  0  0  0  0  0  0
   -5.0910   20.4410  -33.2250 C   0  0  0  0  0  0  0  0  0  0  0  0
   -5.7950   21.2900  -32.3750 C   0  0  0  0  0  0  0  0  0  0  0  0
   -8.5631   19.8583  -31.5053 H   0  0  0  0  0  0  0  0  0  0  0  0
   -8.8899   20.7900  -33.0059 H   0  0  0  0  0  0  0  0  0  0  0  0
   -7.6448   19.4952  -33.0059 H   0  0  0  0  0  0  0  0  0  0  0  0
   -6.7298   24.4355  -29.6014 H   0  0  0  0  0  0  0  0  0  0  0  0
   -5.2495   23.5655  -29.0641 H   0  0  0  0  0  0  0  0  0  0  0  0
   -1.7881   25.1895  -29.6683 H   0  0  0  0  0  0  0  0  0  0  0  0
   -2.8312   24.5448  -27.0822 H   0  0  0  0  0  0  0  0  0  0  0  0
   -4.2978   24.4971  -27.5974 H   0  0  0  0  0  0  0  0  0  0  0  0
   -1.8537   22.5713  -28.5176 H   0  0  0  0  0  0  0  0  0  0  0  0
   -3.1502   22.1807  -29.2821 H   0  0  0  0  0  0  0  0  0  0  0  0
   -3.3630   23.2880  -31.2820 H   0  0  0  0  0  0  0  0  0  0  0  0
   -2.0153   21.9013  -32.7634 H   0  0  0  0  0  0  0  0  0  0  0  0
   -3.1117   20.0338  -34.0339 H   0  0  0  0  0  0  0  0  0  0  0  0
   -5.5937   19.6240  -33.7633 H   0  0  0  0  0  0  0  0  0  0  0  0
  1  2  1  0
  2  3  1  0
  3  4  2  0
  3  5  1  0
  5  6  1  0
  6  7  1  0
  7  8  2  0
  7  9  1  0
  9 10  1  0
 10 11  1  0
 11 12  1  0
  5 13  1  0
 13 14  2  0
 14 15  1  0
 15 16  2  0
 16 17  1  0
 17 18  2  0
 18  2  1  0
 12 10  1  0
 18 13  1  0
  1 19  1  0
  1 20  1  0
  1 21  1  0
  6 22  1  0
  6 23  1  0
 10 24  1  0
 11 25  1  0
 11 26  1  0
 12 27  1  0
 12 28  1  0
 14 29  1  0
 15 30  1  0
 16 31  1  0
 17 32  1  0
M  CHG  2   9  -1  14   1
M  END
>  <UniqueID>  (16) 
14

>  <SMILES>  (16) 
Cn1c(=O)n(CC(=O)[N-]C2CC2)c2[nH+]cccc21

>  <Energy>  (16) 
343.7251871936039

>  <Genealogy>  (16) 
Cn1c(=O)n(CC(=O)[N-]C2CC2)c2[nH+]cccc21 (protonated)
Cn1c(=O)n(CC(=O)[N-]C2CC2)c2[nH+]cccc21 (3D coordinates assigned)
Cn1c(=O)n(CC(=O)[N-]C2CC2)c2[nH+]cccc21 (nonaromatic ring conformer: 343.7251871936039 kcal/mol)

>  <smiles>  (16) 
Cn1c(=O)n(CC(=O)NC2CC2)c2ncccc21

>  <score_type>  (16) 
oracle

>  <origin>  (16) 
adg

>  <m_score__min__energy>  (16) 
-6.9100000000000001

>  <m_primary>  (16) 
energy

$$$$
16:0
     RDKit          3D

 49 51  0  0  0  0  0  0  0  0999 V2000
   -3.5040   21.7880  -33.4670 C   0  0  0  0  0  0  0  0  0  0  0  0
   -4.2610   21.1180  -32.3960 N   0  0  0  0  0  0  0  0  0  0  0  0
   -3.9960   21.7530  -31.0820 C   0  0  0  0  0  0  0  0  0  0  0  0
   -4.9520   22.8890  -30.8140 C   0  0  0  0  0  0  0  0  0  0  0  0
   -4.5170   24.1370  -30.3230 C   0  0  0  0  0  0  0  0  0  0  0  0
   -3.1520   24.3140  -30.0390 O   0  0  0  0  0  0  0  0  0  0  0  0
   -2.5880   24.6330  -28.7630 C   0  0  0  0  0  0  0  0  0  0  0  0
   -1.1250   24.1370  -28.7220 C   0  0  0  0  0  0  0  0  0  0  0  0
   -0.9650   22.7020  -28.1720 C   0  0  0  0  0  0  0  0  0  0  0  0
   -2.2080   21.8470  -28.4350 C   0  0  0  0  0  0  0  0  0  0  0  0
   -3.4660   22.4470  -27.7750 C   0  0  0  0  0  0  0  0  0  0  0  0
   -3.4130   23.9830  -27.6370 C   0  0  0  0  0  0  0  0  0  0  0  0
   -5.4590   25.1680  -30.1500 C   0  0  0  0  0  0  0  0  0  0  0  0
   -6.8010   24.9580  -30.4670 C   0  0  0  0  0  0  0  0  0  0  0  0
   -7.2290   23.7170  -30.9410 C   0  0  0  0  0  0  0  0  0  0  0  0
   -6.3110   22.6590  -31.0850 C   0  0  0  0  0  0  0  0  0  0  0  0
   -6.6840   21.2750  -31.6010 C   0  0  1  0  0  0  0  0  0  0  0  0
   -8.1300   21.1960  -31.9690 N   0  0  0  0  0  0  0  0  0  0  0  0
   -8.9680   21.2140  -30.7510 C   0  0  0  0  0  0  0  0  0  0  0  0
   -8.4910   20.0010  -32.7570 C   0  0  0  0  0  0  0  0  0  0  0  0
   -5.7000   20.9700  -32.7680 C   0  0  0  0  0  0  0  0  0  0  0  0
   -2.7508   22.4547  -33.0218 H   0  0  0  0  0  0  0  0  0  0  0  0
   -3.0026   21.0323  -34.0896 H   0  0  0  0  0  0  0  0  0  0  0  0
   -4.1932   22.3774  -34.0896 H   0  0  0  0  0  0  0  0  0  0  0  0
   -4.1082   20.9972  -30.2907 H   0  0  0  0  0  0  0  0  0  0  0  0
   -2.9734   22.1582  -31.0945 H   0  0  0  0  0  0  0  0  0  0  0  0
   -2.6070   25.7224  -28.6121 H   0  0  0  0  0  0  0  0  0  0  0  0
   -0.7219   24.1626  -29.7452 H   0  0  0  0  0  0  0  0  0  0  0  0
   -0.5812   24.8038  -28.0367 H   0  0  0  0  0  0  0  0  0  0  0  0
   -0.0990   22.2294  -28.6584 H   0  0  0  0  0  0  0  0  0  0  0  0
   -0.8214   22.7685  -27.0834 H   0  0  0  0  0  0  0  0  0  0  0  0
   -2.3722   21.7819  -29.5207 H   0  0  0  0  0  0  0  0  0  0  0  0
   -2.0361   20.8511  -28.0007 H   0  0  0  0  0  0  0  0  0  0  0  0
   -4.3408   22.1820  -28.3870 H   0  0  0  0  0  0  0  0  0  0  0  0
   -3.5283   22.0318  -26.7583 H   0  0  0  0  0  0  0  0  0  0  0  0
   -4.4386   24.3789  -27.6737 H   0  0  0  0  0  0  0  0  0  0  0  0
   -2.9294   24.2225  -26.6785 H   0  0  0  0  0  0  0  0  0  0  0  0
   -5.1351   26.1452  -29.7625 H   0  0  0  0  0  0  0  0  0  0  0  0
   -7.5264   25.7755  -30.3427 H   0  0  0  0  0  0  0  0  0  0  0  0
   -8.2865   23.5650  -31.2028 H   0  0  0  0  0  0  0  0  0  0  0  0
   -6.5773   20.4994  -30.8283 H   0  0  0  0  0  0  0  0  0  0  0  0
   -8.3217   21.2001  -29.8610 H   0  0  0  0  0  0  0  0  0  0  0  0
   -9.5836   22.1256  -30.7429 H   0  0  0  0  0  0  0  0  0  0  0  0
   -9.6222   20.3297  -30.7429 H   0  0  0  0  0  0  0  0  0  0  0  0
   -8.7408   19.1743  -32.0757 H   0  0  0  0  0  0  0  0  0  0  0  0
   -9.3604   20.2289  -33.3912 H   0  0  0  0  0  0  0  0  0  0  0  0
   -7.6409   19.7094  -33.3912 H   0  0  0  0  0  0  0  0  0  0  0  0
   -5.8675   19.9353  -33.1017 H   0  0  0  0  0  0  0  0  0  0  0  0
   -5.9039   21.7055  -33.5602 H   0  0  0  0  0  0  0  0  0  0  0  0
  1  2  1  0
  2  3  1  0
  3  4  1  0
  4  5  2  0
  5  6  1  0
  6  7  1  0
  7  8  1  0
  8  9  1  0
  9 10  1  0
 10 11  1  0
 11 12  1  0
  5 13  1  0
 13 14  2  0
 14 15  1  0
 15 16  2  0
 16 17  1  0
 17 18  1  0
 18 19  1  0
 18 20  1  0
 17 21  1  0
 21  2  1  0
 16  4  1  0
 12  7  1  0
  1 22  1  0
  1 23  1  0
  1 24  1  0
  3 25  1  0
  3 26  1  0
  7 27  1  0
  8 28  1  0
  8 29  1  0
  9 30  1  0
  9 31  1  0
 10 32  1  0
 10 33  1  0
 11 34  1  0
 11 35  1  0
 12 36  1  0
 12 37  1  0
 13 38  1  0
 14 39  1  0
 15 40  1  0
 17 41  1  1
 19 42  1  0
 19 43  1  0
 19 44  1  0
 20 45  1  0
 20 46  1  0
 20 47  1  0
 21 48  1  0
 21 49  1  0
M  END
>  <UniqueID>  (17) 
15

>  <SMILES>  (17) 
CN1Cc2c(OC3CCCCC3)cccc2[C@@H](N(C)C)C1

>  <Energy>  (17) 
72.36076144644133

>  <Genealogy>  (17) 
CN1Cc2c(OC3CCCCC3)cccc2[C@@H](N(C)C)C1 (chirality)
CN1Cc2c(OC3CCCCC3)cccc2[C@@H](N(C)C)C1 (3D coordinates assigned)
CN1Cc2c(OC3CCCCC3)cccc2[C@@H](N(C)C)C1 (nonaromatic ring conformer: 72.36076144644133 kcal/mol)

>  <smiles>  (17) 
CN1Cc2c(OC3CCCCC3)cccc2C(N(C)C)C1

>  <score_type>  (17) 
oracle

>  <origin>  (17) 
adg

>  <m_score__min__energy>  (17) 
-7.6600000000000001

>  <m_primary>  (17) 
energy

$$$$
17:0
     RDKit          3D

 60 62  0  0  0  0  0  0  0  0999 V2000
   -0.9490   24.4530  -28.9680 C   0  0  0  0  0  0  0  0  0  0  0  0
   -2.3330   24.9250  -28.5510 C   0  0  0  0  0  0  0  0  0  0  0  0
   -3.1180   25.1820  -29.7120 O   0  0  0  0  0  0  0  0  0  0  0  0
   -4.2690   24.4660  -30.0700 C   0  0  0  0  0  0  0  0  0  0  0  0
   -5.5570   25.0240  -29.9620 C   0  0  0  0  0  0  0  0  0  0  0  0
   -6.6840   24.2750  -30.3090 C   0  0  0  0  0  0  0  0  0  0  0  0
   -6.5440   22.9580  -30.7590 C   0  0  0  0  0  0  0  0  0  0  0  0
   -7.9680   22.0260  -31.2320 S   0  0  0  0  0  0  0  0  0  0  0  0
   -8.6820   22.7450  -32.3420 O   0  0  0  0  0  0  0  0  0  0  0  0
   -8.9070   21.9260  -30.0610 O   0  0  0  0  0  0  0  0  0  0  0  0
   -7.5340   20.4210  -31.7680 N   0  0  0  0  0  0  0  0  0  0  0  0
   -6.7480   20.4910  -33.0130 C   0  0  0  0  0  0  0  0  0  0  0  0
   -6.5550   19.0930  -33.6370 C   0  0  0  0  0  0  0  0  0  0  0  0
   -6.9210   18.0380  -32.6700 N   0  0  0  0  0  0  0  0  0  0  0  0
   -6.6280   16.6910  -33.2050 C   0  0  0  0  0  0  0  0  0  0  0  0
   -5.4570   16.7430  -34.1820 C   0  0  0  0  0  0  0  0  0  0  0  0
   -8.3530   18.1540  -32.3150 C   0  0  0  0  0  0  0  0  0  0  0  0
   -8.7420   19.6050  -31.9700 C   0  0  0  0  0  0  0  0  0  0  0  0
   -5.2680   22.3940  -30.8600 C   0  0  0  0  0  0  0  0  0  0  0  0
   -4.1300   23.1480  -30.5440 C   0  0  0  0  0  0  0  0  0  0  0  0
   -2.8350   22.5450  -30.6950 N   0  0  0  0  0  0  0  0  0  0  0  0
   -2.3380   21.9370  -31.9390 C   0  0  0  0  0  0  0  0  0  0  0  0
   -3.2750   20.7910  -32.3900 C   0  0  0  0  0  0  0  0  0  0  0  0
   -2.5630   19.7240  -33.2460 C   0  0  0  0  0  0  0  0  0  0  0  0
   -1.4390   20.3340  -34.0910 C   0  0  0  0  0  0  0  0  0  0  0  0
   -0.3480   20.9820  -33.2130 C   0  0  0  0  0  0  0  0  0  0  0  0
   -0.8680   21.4740  -31.8480 C   0  0  0  0  0  0  0  0  0  0  0  0
   -0.3461   24.2474  -28.0712 H   0  0  0  0  0  0  0  0  0  0  0  0
   -1.0398   23.5350  -29.5672 H   0  0  0  0  0  0  0  0  0  0  0  0
   -0.4599   25.2352  -29.5672 H   0  0  0  0  0  0  0  0  0  0  0  0
   -2.8188   24.1459  -27.9452 H   0  0  0  0  0  0  0  0  0  0  0  0
   -2.2423   25.8474  -27.9586 H   0  0  0  0  0  0  0  0  0  0  0  0
   -5.6767   26.0565  -29.6020 H   0  0  0  0  0  0  0  0  0  0  0  0
   -7.6855   24.7227  -30.2280 H   0  0  0  0  0  0  0  0  0  0  0  0
   -7.2748   21.1346  -33.7330 H   0  0  0  0  0  0  0  0  0  0  0  0
   -5.7565   20.9028  -32.7735 H   0  0  0  0  0  0  0  0  0  0  0  0
   -7.1931   19.0036  -34.5285 H   0  0  0  0  0  0  0  0  0  0  0  0
   -5.4972   18.9703  -33.9129 H   0  0  0  0  0  0  0  0  0  0  0  0
   -6.3741   16.0188  -32.3721 H   0  0  0  0  0  0  0  0  0  0  0  0
   -7.5167   16.3201  -33.7367 H   0  0  0  0  0  0  0  0  0  0  0  0
   -4.5123   16.7850  -33.6201 H   0  0  0  0  0  0  0  0  0  0  0  0
   -5.4675   15.8435  -34.8151 H   0  0  0  0  0  0  0  0  0  0  0  0
   -5.5471   17.6380  -34.8151 H   0  0  0  0  0  0  0  0  0  0  0  0
   -8.9597   17.8160  -33.1680 H   0  0  0  0  0  0  0  0  0  0  0  0
   -8.5366   17.5308  -31.4274 H   0  0  0  0  0  0  0  0  0  0  0  0
   -9.3328   20.0288  -32.7954 H   0  0  0  0  0  0  0  0  0  0  0  0
   -9.3353   19.6069  -31.0437 H   0  0  0  0  0  0  0  0  0  0  0  0
   -5.1570   21.3506  -31.1900 H   0  0  0  0  0  0  0  0  0  0  0  0
   -2.3240   22.2970  -29.8180 H   0  0  0  0  0  0  0  0  0  0  0  0
   -2.3491   22.7235  -32.7079 H   0  0  0  0  0  0  0  0  0  0  0  0
   -3.6863   20.3029  -31.4941 H   0  0  0  0  0  0  0  0  0  0  0  0
   -4.0616   21.2392  -33.0149 H   0  0  0  0  0  0  0  0  0  0  0  0
   -2.1345   18.9604  -32.5802 H   0  0  0  0  0  0  0  0  0  0  0  0
   -3.3035   19.2809  -33.9281 H   0  0  0  0  0  0  0  0  0  0  0  0
   -0.9810   19.5407  -34.7001 H   0  0  0  0  0  0  0  0  0  0  0  0
   -1.8765   21.1181  -34.7264 H   0  0  0  0  0  0  0  0  0  0  0  0
    0.4436   20.2389  -33.0366 H   0  0  0  0  0  0  0  0  0  0  0  0
    0.0213   21.8648  -33.7555 H   0  0  0  0  0  0  0  0  0  0  0  0
   -0.7959   20.6523  -31.1202 H   0  0  0  0  0  0  0  0  0  0  0  0
   -0.2542   22.3303  -31.5318 H   0  0  0  0  0  0  0  0  0  0  0  0
  1  2  1  0
  2  3  1  0
  3  4  1  0
  4  5  2  0
  5  6  1  0
  6  7  2  0
  7  8  1  0
  8  9  2  0
  8 10  2  0
  8 11  1  0
 11 12  1  0
 12 13  1  0
 13 14  1  0
 14 15  1  0
 15 16  1  0
 14 17  1  0
 17 18  1  0
  7 19  1  0
 19 20  2  0
 20 21  1  0
 21 22  1  0
 22 23  1  0
 23 24  1  0
 24 25  1  0
 25 26  1  0
 26 27  1  0
 20  4  1  0
 27 22  1  0
 18 11  1  0
  1 28  1  0
  1 29  1  0
  1 30  1  0
  2 31  1  0
  2 32  1  0
  5 33  1  0
  6 34  1  0
 12 35  1  0
 12 36  1  0
 13 37  1  0
 13 38  1  0
 15 39  1  0
 15 40  1  0
 16 41  1  0
 16 42  1  0
 16 43  1  0
 17 44  1  0
 17 45  1  0
 18 46  1  0
 18 47  1  0
 19 48  1  0
 21 49  1  0
 22 50  1  0
 23 51  1  0
 23 52  1  0
 24 53  1  0
 24 54  1  0
 25 55  1  0
 25 56  1  0
 26 57  1  0
 26 58  1  0
 27 59  1  0
 27 60  1  0
M  END
>  <UniqueID>  (18) 
16

>  <SMILES>  (18) 
CCOc1ccc(S(=O)(=O)N2CCN(CC)CC2)cc1NC1CCCCC1

>  <Energy>  (18) 
67.8909740057383

>  <Genealogy>  (18) 
CCOc1ccc(S(=O)(=O)N2CCN(CC)CC2)cc1NC1CCCCC1 (3D coordinates assigned)
CCOc1ccc(S(=O)(=O)N2CCN(CC)CC2)cc1NC1CCCCC1 (nonaromatic ring conformer: 67.8909740057383 kcal/mol)

>  <smiles>  (18) 
CCOc1ccc(S(=O)(=O)N2CCN(CC)CC2)cc1NC1CCCCC1

>  <score_type>  (18) 
oracle

>  <origin>  (18) 
adg

>  <m_score__min__energy>  (18) 
-9.7100000000000009

>  <m_primary>  (18) 
energy

$$$$
19:0
     RDKit          3D

 38 40  0  0  1  0  0  0  0  0999 V2000
   -5.3230   25.6700  -30.5420 C   0  0  0  0  0  0  0  0  0  0  0  0
   -3.9540   25.3400  -30.4630 O   0  0  0  0  0  0  0  0  0  0  0  0
   -3.5410   24.1930  -29.8120 C   0  0  0  0  0  0  0  0  0  0  0  0
   -3.8850   24.0890  -28.4660 C   0  0  0  0  0  0  0  0  0  0  0  0
   -3.5080   22.9740  -27.7490 C   0  0  0  0  0  0  0  0  0  0  0  0
   -2.7920   21.9810  -28.3860 C   0  0  0  0  0  0  0  0  0  0  0  0
   -2.4350   22.0570  -29.7250 C   0  0  0  0  0  0  0  0  0  0  0  0
   -1.6920   21.0000  -30.3430 N   0  0  0  0  0  0  0  0  0  0  0  0
   -1.8850   20.6190  -31.5560 C   0  0  0  0  0  0  0  0  0  0  0  0
   -0.9100   20.7700  -32.4720 N   0  0  0  0  0  0  0  0  0  0  0  0
   -1.0410   20.3950  -33.7570 C   0  0  0  0  0  0  0  0  0  0  0  0
   -2.2360   19.8200  -34.1880 C   0  0  0  0  0  0  0  0  0  0  0  0
   -3.2180   19.6810  -33.2240 C   0  0  0  0  0  0  0  0  0  0  0  0
   -4.3690   19.1630  -33.5000 N   0  0  0  0  0  0  0  0  0  0  0  0
   -5.5340   19.8270  -33.0400 C   0  0  0  0  0  0  0  0  0  0  0  0
   -5.5640   21.1710  -32.7610 C   0  0  0  0  0  0  0  0  0  0  0  0
   -6.7370   21.7680  -32.3100 C   0  0  0  0  0  0  0  0  0  0  0  0
   -7.8960   21.0050  -32.1370 C   0  0  0  0  0  0  0  0  0  0  0  0
   -9.3910   21.6850  -31.5790 Cl  0  0  0  0  0  0  0  0  0  0  0  0
   -7.8650   19.6390  -32.4200 C   0  0  0  0  0  0  0  0  0  0  0  0
   -6.6750   19.0660  -32.8700 C   0  0  0  0  0  0  0  0  0  0  0  0
   -3.0330   20.0750  -31.9420 N   0  0  0  0  0  0  0  0  0  0  0  0
   -2.8210   23.1820  -30.4330 C   0  0  0  0  0  0  0  0  0  0  0  0
   -5.7354   25.7694  -29.5271 H   0  0  0  0  0  0  0  0  0  0  0  0
   -5.4402   26.6221  -31.0803 H   0  0  0  0  0  0  0  0  0  0  0  0
   -5.8611   24.8758  -31.0803 H   0  0  0  0  0  0  0  0  0  0  0  0
   -4.4549   24.8932  -27.9777 H   0  0  0  0  0  0  0  0  0  0  0  0
   -3.7736   22.8771  -26.6859 H   0  0  0  0  0  0  0  0  0  0  0  0
   -2.4922   21.0936  -27.8093 H   0  0  0  0  0  0  0  0  0  0  0  0
    0.0030   21.1930  -32.1990 H   0  0  0  0  0  0  0  0  0  0  0  0
   -0.2106   20.5410  -34.4635 H   0  0  0  0  0  0  0  0  0  0  0  0
   -2.3880   19.4974  -35.2286 H   0  0  0  0  0  0  0  0  0  0  0  0
   -4.6567   21.7784  -32.8946 H   0  0  0  0  0  0  0  0  0  0  0  0
   -6.7528   22.8453  -32.0885 H   0  0  0  0  0  0  0  0  0  0  0  0
   -8.7665   19.0222  -32.2901 H   0  0  0  0  0  0  0  0  0  0  0  0
   -6.6445   17.9894  -33.0934 H   0  0  0  0  0  0  0  0  0  0  0  0
   -3.7910   19.9600  -31.2280 H   0  0  0  0  0  0  0  0  0  0  0  0
   -2.5550   23.2755  -31.4963 H   0  0  0  0  0  0  0  0  0  0  0  0
  1  2  1  0
  2  3  1  0
  3  4  2  0
  4  5  1  0
  5  6  2  0
  6  7  1  0
  7  8  1  0
  8  9  2  0
  9 10  1  0
 10 11  1  0
 11 12  2  0
 12 13  1  0
 13 14  2  0
 14 15  1  0
 15 16  2  0
 16 17  1  0
 17 18  2  0
 18 19  1  0
 18 20  1  0
 20 21  2  0
 13 22  1  0
  7 23  2  0
 23  3  1  0
 22  9  1  0
 21 15  1  0
  1 24  1  0
  1 25  1  0
  1 26  1  0
  4 27  1  0
  5 28  1  0
  6 29  1  0
 10 30  1  0
 11 31  1  0
 12 32  1  0
 16 33  1  0
 17 34  1  0
 20 35  1  0
 21 36  1  0
 22 37  1  0
 23 38  1  0
M  END
>  <smiles>  (19) 
COc1cccc(N=c2[nH]ccc(=Nc3ccc(Cl)cc3)[nH]2)c1

>  <score_type>  (19) 
oracle

>  <origin>  (19) 
adg

>  <m_score__min__energy>  (19) 
-8.0700000000000003

>  <m_primary>  (19) 
energy

$$$$
20:0
     RDKit          3D

 35 37  0  0  0  0  0  0  0  0999 V2000
   -1.5580   25.7520  -28.9200 O   0  0  0  0  0  0  0  0  0  0  0  0
   -2.4520   24.9030  -29.1810 C   0  0  0  0  0  0  0  0  0  0  0  0
   -3.4990   25.2620  -30.0910 N   0  0  0  0  0  0  0  0  0  0  0  0
   -4.4890   24.3760  -30.6300 C   0  0  0  0  0  0  0  0  0  0  0  0
   -4.1380   23.1580  -31.2370 C   0  0  0  0  0  0  0  0  0  0  0  0
   -5.1300   22.2820  -31.6900 C   0  0  0  0  0  0  0  0  0  0  0  0
   -6.4900   22.6000  -31.5240 C   0  0  0  0  0  0  0  0  0  0  0  0
   -7.5190   21.6800  -31.9370 N   0  0  0  0  0  0  0  0  0  0  0  0
   -7.1520   20.4960  -32.7190 C   0  0  0  0  0  0  0  0  0  0  0  0
   -8.2050   19.3940  -32.5190 C   0  0  0  0  0  0  0  0  0  0  0  0
   -9.5040   19.8940  -32.7740 O   0  0  0  0  0  0  0  0  0  0  0  0
   -9.8330   20.8830  -31.8190 C   0  0  0  0  0  0  0  0  0  0  0  0
   -8.9210   22.1040  -31.9700 C   0  0  0  0  0  0  0  0  0  0  0  0
   -6.8350   23.8200  -30.9200 C   0  0  0  0  0  0  0  0  0  0  0  0
   -5.8420   24.6940  -30.4680 C   0  0  0  0  0  0  0  0  0  0  0  0
   -2.3570   23.5510  -28.6020 C   0  0  0  0  0  0  0  0  0  0  0  0
   -1.2510   22.7140  -28.6890 C   0  0  0  0  0  0  0  0  0  0  0  0
   -1.4570   21.4590  -28.0990 C   0  0  0  0  0  0  0  0  0  0  0  0
   -2.7240   21.2980  -27.5550 C   0  0  0  0  0  0  0  0  0  0  0  0
   -3.5880   22.7170  -27.8100 S   0  0  0  0  0  0  0  0  0  0  0  0
   -3.0773   22.8921  -31.3565 H   0  0  0  0  0  0  0  0  0  0  0  0
   -4.8448   21.3388  -32.1790 H   0  0  0  0  0  0  0  0  0  0  0  0
   -7.1010   20.7635  -33.7848 H   0  0  0  0  0  0  0  0  0  0  0  0
   -6.1717   20.1275  -32.3825 H   0  0  0  0  0  0  0  0  0  0  0  0
   -7.9952   18.5639  -33.2096 H   0  0  0  0  0  0  0  0  0  0  0  0
   -8.1581   19.0436  -31.4774 H   0  0  0  0  0  0  0  0  0  0  0  0
  -10.8784   21.1926  -31.9649 H   0  0  0  0  0  0  0  0  0  0  0  0
   -9.6974   20.4619  -30.8119 H   0  0  0  0  0  0  0  0  0  0  0  0
   -9.1304   22.6005  -32.9290 H   0  0  0  0  0  0  0  0  0  0  0  0
   -9.1095   22.8041  -31.1428 H   0  0  0  0  0  0  0  0  0  0  0  0
   -7.8948   24.0899  -30.8017 H   0  0  0  0  0  0  0  0  0  0  0  0
   -6.1263   25.6387  -29.9814 H   0  0  0  0  0  0  0  0  0  0  0  0
   -0.3076   23.0071  -29.1728 H   0  0  0  0  0  0  0  0  0  0  0  0
   -0.6862   20.6747  -28.0699 H   0  0  0  0  0  0  0  0  0  0  0  0
   -3.0978   20.3977  -27.0453 H   0  0  0  0  0  0  0  0  0  0  0  0
  1  2  2  0
  2  3  1  0
  3  4  1  0
  4  5  2  0
  5  6  1  0
  6  7  2  0
  7  8  1  0
  8  9  1  0
  9 10  1  0
 10 11  1  0
 11 12  1  0
 12 13  1  0
  7 14  1  0
 14 15  2  0
  2 16  1  0
 16 17  2  0
 17 18  1  0
 18 19  2  0
 19 20  1  0
 15  4  1  0
 20 16  1  0
 13  8  1  0
  5 21  1  0
  6 22  1  0
  9 23  1  0
  9 24  1  0
 10 25  1  0
 10 26  1  0
 12 27  1  0
 12 28  1  0
 13 29  1  0
 13 30  1  0
 14 31  1  0
 15 32  1  0
 17 33  1  0
 18 34  1  0
 19 35  1  0
M  CHG  1   3  -1
M  END
>  <UniqueID>  (20) 
17

>  <SMILES>  (20) 
O=C([N-]c1ccc(N2CCOCC2)cc1)c1cccs1

>  <Energy>  (20) 
73.27201270781865

>  <Genealogy>  (20) 
O=C([N-]c1ccc(N2CCOCC2)cc1)c1cccs1 (protonated)
O=C([N-]c1ccc(N2CCOCC2)cc1)c1cccs1 (3D coordinates assigned)
O=C([N-]c1ccc(N2CCOCC2)cc1)c1cccs1 (nonaromatic ring conformer: 73.27201270781865 kcal/mol)

>  <smiles>  (20) 
O=C(Nc1ccc(N2CCOCC2)cc1)c1cccs1

>  <score_type>  (20) 
oracle

>  <origin>  (20) 
adg

>  <m_score__min__energy>  (20) 
-9.0299999999999994

>  <m_primary>  (20) 
energy

$$$$
21:0
     RDKit          3D

 42 45  0  0  0  0  0  0  0  0999 V2000
    2.8080   17.3880  -29.0650 C   0  0  0  0  0  0  0  0  0  0  0  0
    2.7250   18.4210  -30.0390 O   0  0  0  0  0  0  0  0  0  0  0  0
    1.5510   19.1400  -30.2830 C   0  0  0  0  0  0  0  0  0  0  0  0
    0.6280   19.3190  -29.2510 C   0  0  0  0  0  0  0  0  0  0  0  0
   -0.5440   20.0390  -29.4930 C   0  0  0  0  0  0  0  0  0  0  0  0
   -0.7810   20.5840  -30.7620 C   0  0  0  0  0  0  0  0  0  0  0  0
   -2.0320   21.3280  -31.0380 C   0  0  0  0  0  0  0  0  0  0  0  0
   -2.1520   22.6340  -30.5390 C   0  0  0  0  0  0  0  0  0  0  0  0
   -3.3350   23.3600  -30.7400 C   0  0  0  0  0  0  0  0  0  0  0  0
   -3.4910   24.7290  -30.2170 C   0  0  0  0  0  0  0  0  0  0  0  0
   -2.5020   25.2730  -29.3450 N   0  0  0  0  0  0  0  0  0  0  0  0
   -4.4900   25.4290  -30.5340 O   0  0  0  0  0  0  0  0  0  0  0  0
   -4.3610   22.7900  -31.4250 N   0  0  0  0  0  0  0  0  0  0  0  0
   -4.2850   21.5330  -31.9370 C   0  0  0  0  0  0  0  0  0  0  0  0
   -5.3730   21.0120  -32.6460 C   0  0  0  0  0  0  0  0  0  0  0  0
   -5.3090   19.7240  -33.1970 C   0  0  0  0  0  0  0  0  0  0  0  0
   -6.4610   19.1860  -33.9970 C   0  0  0  0  0  0  0  0  0  0  0  0
   -7.6410   19.0670  -33.1480 N   0  0  0  0  0  0  0  0  0  0  0  0
   -8.5290   20.0330  -32.8630 C   0  0  0  0  0  0  0  0  0  0  0  0
   -9.4200   19.4880  -31.9670 C   0  0  0  0  0  0  0  0  0  0  0  0
   -9.0430   18.2160  -31.7260 N   0  0  0  0  0  0  0  0  0  0  0  0
   -7.9570   17.9880  -32.4510 N   0  0  0  0  0  0  0  0  0  0  0  0
   -4.1320   18.9740  -33.0630 C   0  0  0  0  0  0  0  0  0  0  0  0
   -3.0420   19.4860  -32.3550 C   0  0  0  0  0  0  0  0  0  0  0  0
   -3.1080   20.7650  -31.7660 C   0  0  0  0  0  0  0  0  0  0  0  0
    0.1650   20.3710  -31.7750 C   0  0  0  0  0  0  0  0  0  0  0  0
    1.2970   19.6660  -31.5150 N   0  0  0  0  0  0  0  0  0  0  0  0
    2.7725   17.8297  -28.0582 H   0  0  0  0  0  0  0  0  0  0  0  0
    1.9626   16.6958  -29.1917 H   0  0  0  0  0  0  0  0  0  0  0  0
    3.7531   16.8396  -29.1917 H   0  0  0  0  0  0  0  0  0  0  0  0
    0.8224   18.8960  -28.2544 H   0  0  0  0  0  0  0  0  0  0  0  0
   -1.2806   20.1782  -28.6880 H   0  0  0  0  0  0  0  0  0  0  0  0
   -1.3157   23.0897  -29.9886 H   0  0  0  0  0  0  0  0  0  0  0  0
   -1.6110   25.6660  -29.7220 H   0  0  0  0  0  0  0  0  0  0  0  0
   -6.2836   21.6161  -32.7719 H   0  0  0  0  0  0  0  0  0  0  0  0
   -6.6783   19.8709  -34.8299 H   0  0  0  0  0  0  0  0  0  0  0  0
   -6.1965   18.1938  -34.3914 H   0  0  0  0  0  0  0  0  0  0  0  0
   -8.5417   21.0566  -33.2657 H   0  0  0  0  0  0  0  0  0  0  0  0
  -10.2874   20.0001  -31.5250 H   0  0  0  0  0  0  0  0  0  0  0  0
   -4.0664   17.9750  -33.5187 H   0  0  0  0  0  0  0  0  0  0  0  0
   -2.1251   18.8864  -32.2564 H   0  0  0  0  0  0  0  0  0  0  0  0
   -0.0099   20.7758  -32.7828 H   0  0  0  0  0  0  0  0  0  0  0  0
  1  2  1  0
  2  3  1  0
  3  4  2  0
  4  5  1  0
  5  6  2  0
  6  7  1  0
  7  8  2  0
  8  9  1  0
  9 10  1  0
 10 11  1  0
 10 12  2  0
  9 13  2  0
 13 14  1  0
 14 15  2  0
 15 16  1  0
 16 17  1  0
 17 18  1  0
 18 19  1  0
 19 20  2  0
 20 21  1  0
 21 22  2  0
 16 23  2  0
 23 24  1  0
 24 25  2  0
  6 26  1  0
 26 27  2  0
 27  3  1  0
 25  7  1  0
 25 14  1  0
 22 18  1  0
  1 28  1  0
  1 29  1  0
  1 30  1  0
  4 31  1  0
  5 32  1  0
  8 33  1  0
 11 34  1  0
 15 35  1  0
 17 36  1  0
 17 37  1  0
 19 38  1  0
 20 39  1  0
 23 40  1  0
 24 41  1  0
 26 42  1  0
M  CHG  1  11  -1
M  END
>  <UniqueID>  (21) 
18

>  <SMILES>  (21) 
COc1ccc(-c2cc(C([NH-])=O)nc3cc(Cn4ccnn4)ccc23)cn1

>  <Energy>  (21) 
88.82910831193387

>  <Genealogy>  (21) 
COc1ccc(-c2cc(C([NH-])=O)nc3cc(Cn4ccnn4)ccc23)cn1 (protonated)
COc1ccc(-c2cc(C([NH-])=O)nc3cc(Cn4ccnn4)ccc23)cn1 (3D coordinates assigned)
COc1ccc(-c2cc(C([NH-])=O)nc3cc(Cn4ccnn4)ccc23)cn1 (optimized conformer: 88.82910831193387 kcal/mol)

>  <smiles>  (21) 
COc1ccc(-c2cc(C(N)=O)nc3cc(Cn4ccnn4)ccc23)cn1

>  <score_type>  (21) 
oracle

>  <origin>  (21) 
adg

>  <m_score__min__energy>  (21) 
-9.9800000000000004

>  <m_primary>  (21) 
energy

$$$$
22:0
     RDKit          3D

 60 63  0  0  0  0  0  0  0  0999 V2000
   -3.1480   18.9130  -26.0660 C   0  0  0  0  0  0  0  0  0  0  0  0
   -3.1140   19.6090  -27.4220 C   0  0  0  0  0  0  0  0  0  0  0  0
   -1.9700   20.5260  -27.5000 N   0  0  0  0  0  0  0  0  0  0  0  0
   -0.6640   20.1800  -27.5850 C   0  0  0  0  0  0  0  0  0  0  0  0
   -0.1410   18.7780  -27.5240 C   0  0  0  0  0  0  0  0  0  0  0  0
    0.1250   21.3100  -27.6920 C   0  0  0  0  0  0  0  0  0  0  0  0
   -0.7330   22.3900  -27.6890 C   0  0  0  0  0  0  0  0  0  0  0  0
   -2.0140   21.8770  -27.5770 C   0  0  0  0  0  0  0  0  0  0  0  0
   -3.2640   22.7090  -27.5020 C   0  0  0  0  0  0  0  0  0  0  0  0
   -3.2690   23.7280  -28.5720 N   0  0  0  0  0  0  0  0  0  0  0  0
   -2.7480   23.1980  -29.8590 C   0  0  0  0  0  0  0  0  0  0  0  0
   -3.8640   22.9440  -30.8830 C   0  0  0  0  0  0  0  0  0  0  0  0
   -4.5980   24.1910  -31.1970 N   0  0  0  0  0  0  0  0  0  0  0  0
   -5.8950   23.8820  -31.8390 C   0  0  0  0  0  0  0  0  0  0  0  0
   -5.9450   22.4570  -32.3320 C   0  0  0  0  0  0  0  0  0  0  0  0
   -5.0250   22.0210  -33.0800 O   0  0  0  0  0  0  0  0  0  0  0  0
   -7.0500   21.5950  -31.9810 N   0  0  0  0  0  0  0  0  0  0  0  0
   -8.3590   22.2290  -31.7320 C   0  0  0  0  0  0  0  0  0  0  0  0
   -9.4540   21.2160  -31.3760 C   0  0  0  0  0  0  0  0  0  0  0  0
   -9.4380   20.0420  -32.3520 C   0  0  0  0  0  0  0  0  0  0  0  0
   -8.0950   19.3730  -32.3080 C   0  0  0  0  0  0  0  0  0  0  0  0
   -7.9900   17.9840  -32.4740 C   0  0  0  0  0  0  0  0  0  0  0  0
   -6.7430   17.3600  -32.3980 C   0  0  0  0  0  0  0  0  0  0  0  0
   -5.5970   18.1170  -32.1510 C   0  0  0  0  0  0  0  0  0  0  0  0
   -5.6900   19.5040  -32.0040 C   0  0  0  0  0  0  0  0  0  0  0  0
   -6.9350   20.1540  -32.1170 C   0  0  0  0  0  0  0  0  0  0  0  0
   -4.7570   25.0910  -30.0230 C   0  0  0  0  0  0  0  0  0  0  0  0
   -4.6070   24.3490  -28.6880 C   0  0  0  0  0  0  0  0  0  0  0  0
   -3.1112   19.6669  -25.2659 H   0  0  0  0  0  0  0  0  0  0  0  0
   -4.0758   18.3288  -25.9769 H   0  0  0  0  0  0  0  0  0  0  0  0
   -2.2816   18.2411  -25.9769 H   0  0  0  0  0  0  0  0  0  0  0  0
   -3.0262   18.8522  -28.2154 H   0  0  0  0  0  0  0  0  0  0  0  0
   -4.0420   20.1857  -27.5496 H   0  0  0  0  0  0  0  0  0  0  0  0
   -0.0277   18.4743  -26.4728 H   0  0  0  0  0  0  0  0  0  0  0  0
   -0.8471   18.1010  -28.0272 H   0  0  0  0  0  0  0  0  0  0  0  0
    0.8359   18.7289  -28.0272 H   0  0  0  0  0  0  0  0  0  0  0  0
    1.2221   21.3417  -27.7652 H   0  0  0  0  0  0  0  0  0  0  0  0
   -0.4539   23.4515  -27.7614 H   0  0  0  0  0  0  0  0  0  0  0  0
   -4.1416   22.0562  -27.6190 H   0  0  0  0  0  0  0  0  0  0  0  0
   -3.2975   23.2158  -26.5263 H   0  0  0  0  0  0  0  0  0  0  0  0
   -2.0409   23.9274  -30.2809 H   0  0  0  0  0  0  0  0  0  0  0  0
   -2.2584   22.2351  -29.6512 H   0  0  0  0  0  0  0  0  0  0  0  0
   -3.4190   22.5474  -31.8075 H   0  0  0  0  0  0  0  0  0  0  0  0
   -4.5733   22.2218  -30.4525 H   0  0  0  0  0  0  0  0  0  0  0  0
   -6.7013   24.0348  -31.1065 H   0  0  0  0  0  0  0  0  0  0  0  0
   -6.0185   24.5500  -32.7042 H   0  0  0  0  0  0  0  0  0  0  0  0
   -8.2525   22.9385  -30.8982 H   0  0  0  0  0  0  0  0  0  0  0  0
   -8.6642   22.7326  -32.6611 H   0  0  0  0  0  0  0  0  0  0  0  0
   -9.2817   20.8408  -30.3564 H   0  0  0  0  0  0  0  0  0  0  0  0
  -10.4323   21.7151  -31.4376 H   0  0  0  0  0  0  0  0  0  0  0  0
  -10.2172   19.3191  -32.0688 H   0  0  0  0  0  0  0  0  0  0  0  0
   -9.6314   20.4094  -33.3706 H   0  0  0  0  0  0  0  0  0  0  0  0
   -8.8925   17.3847  -32.6646 H   0  0  0  0  0  0  0  0  0  0  0  0
   -6.6640   16.2712  -32.5329 H   0  0  0  0  0  0  0  0  0  0  0  0
   -4.6183   17.6212  -32.0718 H   0  0  0  0  0  0  0  0  0  0  0  0
   -4.7839   20.0928  -31.7984 H   0  0  0  0  0  0  0  0  0  0  0  0
   -3.9913   25.8789  -30.0765 H   0  0  0  0  0  0  0  0  0  0  0  0
   -5.7731   25.5108  -30.0593 H   0  0  0  0  0  0  0  0  0  0  0  0
   -4.7447   25.0629  -27.8626 H   0  0  0  0  0  0  0  0  0  0  0  0
   -5.3664   23.5545  -28.6422 H   0  0  0  0  0  0  0  0  0  0  0  0
  1  2  1  0
  2  3  1  0
  3  4  1  0
  4  5  1  0
  4  6  2  0
  6  7  1  0
  7  8  2  0
  8  9  1  0
  9 10  1  0
 10 11  1  0
 11 12  1  0
 12 13  1  0
 13 14  1  0
 14 15  1  0
 15 16  2  0
 15 17  1  0
 17 18  1  0
 18 19  1  0
 19 20  1  0
 20 21  1  0
 21 22  2  0
 22 23  1  0
 23 24  2  0
 24 25  1  0
 25 26  2  0
 13 27  1  0
 27 28  1  0
  8  3  1  0
 28 10  1  0
 26 17  1  0
 26 21  1  0
  1 29  1  0
  1 30  1  0
  1 31  1  0
  2 32  1  0
  2 33  1  0
  5 34  1  0
  5 35  1  0
  5 36  1  0
  6 37  1  0
  7 38  1  0
  9 39  1  0
  9 40  1  0
 11 41  1  0
 11 42  1  0
 12 43  1  0
 12 44  1  0
 14 45  1  0
 14 46  1  0
 18 47  1  0
 18 48  1  0
 19 49  1  0
 19 50  1  0
 20 51  1  0
 20 52  1  0
 22 53  1  0
 23 54  1  0
 24 55  1  0
 25 56  1  0
 27 57  1  0
 27 58  1  0
 28 59  1  0
 28 60  1  0
M  END
>  <UniqueID>  (22) 
19

>  <SMILES>  (22) 
CCn1c(C)ccc1CN1CCN(CC(=O)N2CCCc3ccccc32)CC1

>  <Energy>  (22) 
102.64096595466694

>  <Genealogy>  (22) 
CCn1c(C)ccc1CN1CCN(CC(=O)N2CCCc3ccccc32)CC1 (3D coordinates assigned)
CCn1c(C)ccc1CN1CCN(CC(=O)N2CCCc3ccccc32)CC1 (nonaromatic ring conformer: 102.64096595466694 kcal/mol)

>  <smiles>  (22) 
CCn1c(C)ccc1CN1CCN(CC(=O)N2CCCc3ccccc32)CC1

>  <score_type>  (22) 
oracle

>  <origin>  (22) 
adg

>  <m_score__min__energy>  (22) 
-9.8499999999999996

>  <m_primary>  (22) 
energy

$$$$
23:0
     RDKit          3D

 44 44  0  0  0  0  0  0  0  0999 V2000
   -3.1410   21.8640  -27.8470 C   0  0  0  0  0  0  0  0  0  0  0  0
   -3.9560   23.1320  -28.1210 C   0  0  0  0  0  0  0  0  0  0  0  0
   -4.1450   23.5140  -29.6120 C   0  0  1  0  0  0  0  0  0  0  0  0
   -5.5890   23.3520  -30.1610 C   0  0  0  0  0  0  0  0  0  0  0  0
   -5.7540   22.3550  -31.2880 C   0  0  0  0  0  0  0  0  0  0  0  0
   -7.0340   21.9270  -31.6700 C   0  0  0  0  0  0  0  0  0  0  0  0
   -7.1960   21.0080  -32.7080 C   0  0  0  0  0  0  0  0  0  0  0  0
   -6.0740   20.4820  -33.3740 C   0  0  0  0  0  0  0  0  0  0  0  0
   -6.1900   19.5730  -34.4390 O   0  0  0  0  0  0  0  0  0  0  0  0
   -5.9210   18.1710  -34.3690 C   0  0  0  0  0  0  0  0  0  0  0  0
   -5.7740   17.6940  -32.9170 C   0  0  0  0  0  0  0  0  0  0  0  0
   -4.7710   16.5450  -32.7740 C   0  0  0  0  0  0  0  0  0  0  0  0
   -5.1990   15.6630  -31.7580 O   0  0  0  0  0  0  0  0  0  0  0  0
   -4.5830   14.4080  -31.9340 C   0  0  0  0  0  0  0  0  0  0  0  0
   -4.7870   20.8650  -32.9680 C   0  0  0  0  0  0  0  0  0  0  0  0
   -3.6870   20.3120  -33.6410 O   0  0  0  0  0  0  0  0  0  0  0  0
   -2.3390   20.7390  -33.4710 C   0  0  0  0  0  0  0  0  0  0  0  0
   -4.6340   21.7880  -31.9160 C   0  0  0  0  0  0  0  0  0  0  0  0
   -3.5130   24.8350  -29.9770 C   0  0  0  0  0  0  0  0  0  0  0  0
   -4.0520   25.5600  -30.8560 O   0  0  0  0  0  0  0  0  0  0  0  0
   -2.3600   25.2850  -29.3470 O   0  0  0  0  0  0  0  0  0  0  0  0
   -3.0462   21.7166  -26.7611 H   0  0  0  0  0  0  0  0  0  0  0  0
   -3.6513   20.9969  -28.2916 H   0  0  0  0  0  0  0  0  0  0  0  0
   -2.1403   21.9681  -28.2916 H   0  0  0  0  0  0  0  0  0  0  0  0
   -4.9544   22.9911  -27.6812 H   0  0  0  0  0  0  0  0  0  0  0  0
   -3.3783   23.9558  -27.6764 H   0  0  0  0  0  0  0  0  0  0  0  0
   -3.5736   22.7432  -30.1500 H   0  0  0  0  0  0  0  0  0  0  0  0
   -6.2331   23.0313  -29.3289 H   0  0  0  0  0  0  0  0  0  0  0  0
   -5.8610   24.3305  -30.5836 H   0  0  0  0  0  0  0  0  0  0  0  0
   -7.9184   22.3193  -31.1466 H   0  0  0  0  0  0  0  0  0  0  0  0
   -8.2067   20.6932  -33.0070 H   0  0  0  0  0  0  0  0  0  0  0  0
   -6.7505   17.6246  -34.8417 H   0  0  0  0  0  0  0  0  0  0  0  0
   -4.9730   17.9767  -34.8920 H   0  0  0  0  0  0  0  0  0  0  0  0
   -5.4321   18.5390  -32.3013 H   0  0  0  0  0  0  0  0  0  0  0  0
   -6.7555   17.3230  -32.5868 H   0  0  0  0  0  0  0  0  0  0  0  0
   -4.7019   15.9993  -33.7266 H   0  0  0  0  0  0  0  0  0  0  0  0
   -3.7845   16.9536  -32.5098 H   0  0  0  0  0  0  0  0  0  0  0  0
   -4.3656   13.9651  -30.9508 H   0  0  0  0  0  0  0  0  0  0  0  0
   -5.2575   13.7438  -32.4943 H   0  0  0  0  0  0  0  0  0  0  0  0
   -3.6450   14.5353  -32.4943 H   0  0  0  0  0  0  0  0  0  0  0  0
   -2.1100   20.8116  -32.3976 H   0  0  0  0  0  0  0  0  0  0  0  0
   -1.6617   20.0114  -33.9421 H   0  0  0  0  0  0  0  0  0  0  0  0
   -2.2042   21.7238  -33.9421 H   0  0  0  0  0  0  0  0  0  0  0  0
   -3.6241   22.0683  -31.5820 H   0  0  0  0  0  0  0  0  0  0  0  0
  1  2  1  0
  2  3  1  0
  3  4  1  0
  4  5  1  0
  5  6  2  0
  6  7  1  0
  7  8  2  0
  8  9  1  0
  9 10  1  0
 10 11  1  0
 11 12  1  0
 12 13  1  0
 13 14  1  0
  8 15  1  0
 15 16  1  0
 16 17  1  0
 15 18  2  0
  3 19  1  0
 19 20  2  0
 19 21  1  0
 18  5  1  0
  1 22  1  0
  1 23  1  0
  1 24  1  0
  2 25  1  0
  2 26  1  0
  3 27  1  6
  4 28  1  0
  4 29  1  0
  6 30  1  0
  7 31  1  0
 10 32  1  0
 10 33  1  0
 11 34  1  0
 11 35  1  0
 12 36  1  0
 12 37  1  0
 14 38  1  0
 14 39  1  0
 14 40  1  0
 17 41  1  0
 17 42  1  0
 17 43  1  0
 18 44  1  0
M  CHG  1  21  -1
M  END
>  <UniqueID>  (23) 
20

>  <SMILES>  (23) 
CC[C@@H](Cc1ccc(OCCCOC)c(OC)c1)C(=O)[O-]

>  <Energy>  (23) 
39.429350814001616

>  <Genealogy>  (23) 
CCC(Cc1ccc(OCCCOC)c(OC)c1)C(=O)[O-] (protonated)
CC[C@@H](Cc1ccc(OCCCOC)c(OC)c1)C(=O)[O-] (chirality)
CC[C@@H](Cc1ccc(OCCCOC)c(OC)c1)C(=O)[O-] (3D coordinates assigned)
CC[C@@H](Cc1ccc(OCCCOC)c(OC)c1)C(=O)[O-] (optimized conformer: 39.429350814001616 kcal/mol)

>  <smiles>  (23) 
CCC(Cc1ccc(OCCCOC)c(OC)c1)C(=O)O

>  <score_type>  (23) 
oracle

>  <origin>  (23) 
adg

>  <m_score__min__energy>  (23) 
-8.6999999999999993

>  <m_primary>  (23) 
energy

$$$$
24:0
     RDKit          3D

 27 29  0  0  0  0  0  0  0  0999 V2000
   -4.3440   18.7730  -33.5570 C   0  0  0  0  0  0  0  0  0  0  0  0
   -5.6810   19.3120  -33.1490 C   0  0  0  0  0  0  0  0  0  0  0  0
   -6.8630   18.5830  -33.4300 C   0  0  0  0  0  0  0  0  0  0  0  0
   -8.0890   19.0880  -33.0990 N   0  0  0  0  0  0  0  0  0  0  0  0
   -8.1650   20.3040  -32.5020 C   0  0  0  0  0  0  0  0  0  0  0  0
   -9.2920   20.9300  -32.1330 N   0  0  0  0  0  0  0  0  0  0  0  0
   -8.8980   22.1090  -31.5980 C   0  0  0  0  0  0  0  0  0  0  0  0
   -7.5050   22.2280  -31.6310 C   0  0  0  0  0  0  0  0  0  0  0  0
   -6.6990   23.3640  -31.1240 C   0  0  0  0  0  0  0  0  0  0  0  0
   -5.3850   23.5890  -31.5690 C   0  0  0  0  0  0  0  0  0  0  0  0
   -4.6830   24.6480  -31.0850 N   0  0  0  0  0  0  0  0  0  0  0  0
   -5.2270   25.4990  -30.1780 C   0  0  0  0  0  0  0  0  0  0  0  0
   -6.5300   25.2830  -29.7320 C   0  0  0  0  0  0  0  0  0  0  0  0
   -7.2320   24.2250  -30.2150 N   0  0  0  0  0  0  0  0  0  0  0  0
   -7.0550   21.0520  -32.2170 C   0  0  0  0  0  0  0  0  0  0  0  0
   -5.7810   20.5820  -32.5430 C   0  0  0  0  0  0  0  0  0  0  0  0
   -3.7548   18.5355  -32.6590 H   0  0  0  0  0  0  0  0  0  0  0  0
   -4.4836   17.8609  -34.1558 H   0  0  0  0  0  0  0  0  0  0  0  0
   -3.8119   19.5269  -34.1558 H   0  0  0  0  0  0  0  0  0  0  0  0
   -6.7931   17.6005  -33.9196 H   0  0  0  0  0  0  0  0  0  0  0  0
   -8.9550   18.5450  -33.3090 H   0  0  0  0  0  0  0  0  0  0  0  0
  -10.2710   20.5830  -32.2350 H   0  0  0  0  0  0  0  0  0  0  0  0
   -9.5806   22.8702  -31.1923 H   0  0  0  0  0  0  0  0  0  0  0  0
   -4.9269   22.9119  -32.3050 H   0  0  0  0  0  0  0  0  0  0  0  0
   -4.6448   26.3515  -29.7983 H   0  0  0  0  0  0  0  0  0  0  0  0
   -6.9852   25.9624  -28.9964 H   0  0  0  0  0  0  0  0  0  0  0  0
   -4.8838   21.1831  -32.3339 H   0  0  0  0  0  0  0  0  0  0  0  0
  1  2  1  0
  2  3  2  0
  3  4  1  0
  4  5  2  0
  5  6  1  0
  6  7  1  0
  7  8  2  0
  8  9  1  0
  9 10  2  0
 10 11  1  0
 11 12  2  0
 12 13  1  0
 13 14  2  0
  8 15  1  0
 15 16  2  0
 16  2  1  0
 15  5  1  0
 14  9  1  0
  1 17  1  0
  1 18  1  0
  1 19  1  0
  3 20  1  0
  4 21  1  0
  6 22  1  0
  7 23  1  0
 10 24  1  0
 12 25  1  0
 13 26  1  0
 16 27  1  0
M  CHG  1   4   1
M  END
>  <UniqueID>  (24) 
21

>  <SMILES>  (24) 
Cc1c[nH+]c2[nH]cc(-c3cnccn3)c2c1

>  <Energy>  (24) 
67.02808886028129

>  <Genealogy>  (24) 
Cc1c[nH+]c2[nH]cc(-c3cnccn3)c2c1 (protonated)
Cc1c[nH+]c2[nH]cc(-c3cnccn3)c2c1 (3D coordinates assigned)
Cc1c[nH+]c2[nH]cc(-c3cnccn3)c2c1 (optimized conformer: 67.02808886028129 kcal/mol)

>  <smiles>  (24) 
Cc1cnc2[nH]cc(-c3cnccn3)c2c1

>  <score_type>  (24) 
oracle

>  <origin>  (24) 
adg

>  <m_score__min__energy>  (24) 
-6.3399999999999999

>  <m_primary>  (24) 
energy

$$$$
25:0
     RDKit          3D

 31 33  0  0  0  0  0  0  0  0999 V2000
   -1.8620   24.9160  -28.5670 C   0  0  0  0  0  0  0  0  0  0  0  0
   -2.7300   24.9320  -29.6950 O   0  0  0  0  0  0  0  0  0  0  0  0
   -3.3770   23.8000  -30.2150 C   0  0  0  0  0  0  0  0  0  0  0  0
   -2.6890   22.6040  -30.4900 C   0  0  0  0  0  0  0  0  0  0  0  0
   -3.3700   21.4990  -31.0060 C   0  0  0  0  0  0  0  0  0  0  0  0
   -4.7520   21.5580  -31.2510 C   0  0  0  0  0  0  0  0  0  0  0  0
   -5.4460   20.3690  -31.8080 C   0  0  0  0  0  0  0  0  0  0  0  0
   -6.8220   20.1550  -31.6080 C   0  0  0  0  0  0  0  0  0  0  0  0
   -7.4240   19.0190  -32.1530 C   0  0  0  0  0  0  0  0  0  0  0  0
   -8.6570   18.8230  -31.9750 O   0  0  0  0  0  0  0  0  0  0  0  0
   -6.6460   18.1120  -32.8870 C   0  0  0  0  0  0  0  0  0  0  0  0
   -7.1890   16.9490  -33.4640 C   0  0  0  0  0  0  0  0  0  0  0  0
   -6.3670   16.0750  -34.1820 C   0  0  0  0  0  0  0  0  0  0  0  0
   -5.0040   16.3520  -34.3300 C   0  0  0  0  0  0  0  0  0  0  0  0
   -4.4560   17.5040  -33.7600 C   0  0  0  0  0  0  0  0  0  0  0  0
   -5.2690   18.3860  -33.0400 C   0  0  0  0  0  0  0  0  0  0  0  0
   -4.7380   19.4810  -32.5030 O   0  0  0  0  0  0  0  0  0  0  0  0
   -5.4350   22.7600  -30.9890 C   0  0  0  0  0  0  0  0  0  0  0  0
   -4.7550   23.8680  -30.4730 C   0  0  0  0  0  0  0  0  0  0  0  0
   -5.7270   25.4810  -30.1320 Br  0  0  0  0  0  0  0  0  0  0  0  0
   -2.4601   24.9270  -27.6439 H   0  0  0  0  0  0  0  0  0  0  0  0
   -1.2441   24.0063  -28.5927 H   0  0  0  0  0  0  0  0  0  0  0  0
   -1.2110   25.8023  -28.5927 H   0  0  0  0  0  0  0  0  0  0  0  0
   -1.6080   22.5387  -30.2974 H   0  0  0  0  0  0  0  0  0  0  0  0
   -2.8181   20.5725  -31.2229 H   0  0  0  0  0  0  0  0  0  0  0  0
   -7.4177   20.8753  -31.0281 H   0  0  0  0  0  0  0  0  0  0  0  0
   -8.2604   16.7274  -33.3501 H   0  0  0  0  0  0  0  0  0  0  0  0
   -6.7937   15.1665  -34.6320 H   0  0  0  0  0  0  0  0  0  0  0  0
   -4.3620   15.6613  -34.8964 H   0  0  0  0  0  0  0  0  0  0  0  0
   -3.3834   17.7178  -33.8776 H   0  0  0  0  0  0  0  0  0  0  0  0
   -6.5139   22.8289  -31.1919 H   0  0  0  0  0  0  0  0  0  0  0  0
  1  2  1  0
  2  3  1  0
  3  4  2  0
  4  5  1  0
  5  6  2  0
  6  7  1  0
  7  8  2  0
  8  9  1  0
  9 10  2  0
  9 11  1  0
 11 12  2  0
 12 13  1  0
 13 14  2  0
 14 15  1  0
 15 16  2  0
 16 17  1  0
  6 18  1  0
 18 19  2  0
 19 20  1  0
 19  3  1  0
 17  7  1  0
 16 11  1  0
  1 21  1  0
  1 22  1  0
  1 23  1  0
  4 24  1  0
  5 25  1  0
  8 26  1  0
 12 27  1  0
 13 28  1  0
 14 29  1  0
 15 30  1  0
 18 31  1  0
M  END
>  <UniqueID>  (25) 
22

>  <SMILES>  (25) 
COc1ccc(-c2cc(=O)c3ccccc3o2)cc1Br

>  <Energy>  (25) 
42.18237173394722

>  <Genealogy>  (25) 
COc1ccc(-c2cc(=O)c3ccccc3o2)cc1Br (3D coordinates assigned)
COc1ccc(-c2cc(=O)c3ccccc3o2)cc1Br (optimized conformer: 42.18237173394722 kcal/mol)

>  <smiles>  (25) 
COc1ccc(-c2cc(=O)c3ccccc3o2)cc1Br

>  <score_type>  (25) 
oracle

>  <origin>  (25) 
adg

>  <m_score__min__energy>  (25) 
-7.7199999999999998

>  <m_primary>  (25) 
energy

$$$$
26:0
     RDKit          3D

 56 58  0  0  0  0  0  0  0  0999 V2000
   -2.5730   12.8309  -35.8528 H   0  0  0  0  0  0  0  0  0  0  0  0
   -3.0170   13.7140  -35.3700 C   0  0  0  0  0  0  0  0  0  0  0  0
   -2.9280   14.9660  -35.9850 C   0  0  0  0  0  0  0  0  0  0  0  0
   -2.4060   15.0687  -36.9478 H   0  0  0  0  0  0  0  0  0  0  0  0
   -3.5010   16.0880  -35.3790 C   0  0  0  0  0  0  0  0  0  0  0  0
   -3.4224   17.0722  -35.8639 H   0  0  0  0  0  0  0  0  0  0  0  0
   -4.1770   15.9640  -34.1530 C   0  0  0  0  0  0  0  0  0  0  0  0
   -4.7710   17.1450  -33.4900 C   0  0  0  0  0  0  0  0  0  0  0  0
   -6.0820   17.2220  -33.0530 C   0  0  0  0  0  0  0  0  0  0  0  0
   -6.8681   16.4576  -33.1411 H   0  0  0  0  0  0  0  0  0  0  0  0
   -6.1800   18.4740  -32.4820 C   0  0  0  0  0  0  0  0  0  0  0  0
   -7.2810   18.9280  -31.9480 N   0  0  0  0  0  0  0  0  0  0  0  0
   -8.4120   19.5680  -32.6100 C   0  0  0  0  0  0  0  0  0  0  0  0
   -9.1511   18.8019  -32.8871 H   0  0  0  0  0  0  0  0  0  0  0  0
   -8.0522   20.0878  -33.5102 H   0  0  0  0  0  0  0  0  0  0  0  0
   -9.0700   20.5910  -31.6720 C   0  0  0  0  0  0  0  0  0  0  0  0
   -9.2590   20.1146  -30.6987 H   0  0  0  0  0  0  0  0  0  0  0  0
  -10.0115   20.9268  -32.1311 H   0  0  0  0  0  0  0  0  0  0  0  0
   -8.2000   21.7760  -31.4690 N   0  0  0  0  0  0  0  0  0  0  0  0
   -8.0180   22.0450  -30.0230 C   0  0  0  0  0  0  0  0  0  0  0  0
   -7.7309   21.1106  -29.5187 H   0  0  0  0  0  0  0  0  0  0  0  0
   -8.9665   22.4306  -29.6209 H   0  0  0  0  0  0  0  0  0  0  0  0
   -6.9310   23.0950  -29.7820 C   0  0  0  0  0  0  0  0  0  0  0  0
   -6.7880   23.2331  -28.7001 H   0  0  0  0  0  0  0  0  0  0  0  0
   -5.9878   22.7573  -30.2363 H   0  0  0  0  0  0  0  0  0  0  0  0
   -7.2358   24.0493  -30.2363 H   0  0  0  0  0  0  0  0  0  0  0  0
   -8.7120   22.9720  -32.1910 C   0  0  0  0  0  0  0  0  0  0  0  0
   -9.3428   22.6496  -33.0325 H   0  0  0  0  0  0  0  0  0  0  0  0
   -9.3064   23.5890  -31.5011 H   0  0  0  0  0  0  0  0  0  0  0  0
   -7.5390   23.7900  -32.7200 C   0  0  0  0  0  0  0  0  0  0  0  0
   -6.9618   24.1925  -31.8745 H   0  0  0  0  0  0  0  0  0  0  0  0
   -6.8907   23.1471  -33.3336 H   0  0  0  0  0  0  0  0  0  0  0  0
   -7.9182   24.6205  -33.3336 H   0  0  0  0  0  0  0  0  0  0  0  0
   -4.9890   19.1190  -32.5830 N   0  0  0  0  0  0  0  0  0  0  0  0
   -4.6340   20.4110  -32.0730 C   0  0  0  0  0  0  0  0  0  0  0  0
   -4.9850   21.5660  -32.7820 C   0  0  0  0  0  0  0  0  0  0  0  0
   -5.5234   21.4807  -33.7374 H   0  0  0  0  0  0  0  0  0  0  0  0
   -4.6530   22.8280  -32.2790 C   0  0  0  0  0  0  0  0  0  0  0  0
   -4.9190   23.7305  -32.8488 H   0  0  0  0  0  0  0  0  0  0  0  0
   -3.9810   22.9510  -31.0490 C   0  0  0  0  0  0  0  0  0  0  0  0
   -3.6360   24.2500  -30.5350 N   0  0  0  0  0  0  0  0  0  0  0  0
   -4.2560   25.2670  -30.9110 O   0  0  0  0  0  0  0  0  0  0  0  0
   -2.6040   24.3930  -29.6350 O   0  0  0  0  0  0  0  0  0  0  0  0
   -3.6540   21.7860  -30.3290 C   0  0  0  0  0  0  0  0  0  0  0  0
   -3.1378   21.8679  -29.3611 H   0  0  0  0  0  0  0  0  0  0  0  0
   -3.9820   20.5250  -30.8380 C   0  0  0  0  0  0  0  0  0  0  0  0
   -3.7273   19.6200  -30.2669 H   0  0  0  0  0  0  0  0  0  0  0  0
   -4.1390   18.3120  -33.2100 N   0  0  0  0  0  0  0  0  0  0  0  0
   -2.7520   18.6590  -33.5340 C   0  0  0  0  0  0  0  0  0  0  0  0
   -2.1827   18.8014  -32.6036 H   0  0  0  0  0  0  0  0  0  0  0  0
   -2.2983   17.8467  -34.1208 H   0  0  0  0  0  0  0  0  0  0  0  0
   -2.7342   19.5893  -34.1208 H   0  0  0  0  0  0  0  0  0  0  0  0
   -4.2430   14.7030  -33.5320 C   0  0  0  0  0  0  0  0  0  0  0  0
   -4.7484   14.5966  -32.5608 H   0  0  0  0  0  0  0  0  0  0  0  0
   -3.6690   13.5850  -34.1440 C   0  0  0  0  0  0  0  0  0  0  0  0
   -3.7318   12.6006  -33.6572 H   0  0  0  0  0  0  0  0  0  0  0  0
  1  2  1  0
  2  3  2  0
  3  4  1  0
  3  5  1  0
  5  6  1  0
  5  7  2  0
  7  8  1  0
  8  9  2  0
  9 10  1  0
  9 11  1  0
 11 12  2  0
 12 13  1  0
 13 14  1  0
 13 15  1  0
 13 16  1  0
 16 17  1  0
 16 18  1  0
 16 19  1  0
 19 20  1  0
 20 21  1  0
 20 22  1  0
 20 23  1  0
 23 24  1  0
 23 25  1  0
 23 26  1  0
 19 27  1  0
 27 28  1  0
 27 29  1  0
 27 30  1  0
 30 31  1  0
 30 32  1  0
 30 33  1  0
 11 34  1  0
 34 35  1  0
 35 36  2  0
 36 37  1  0
 36 38  1  0
 38 39  1  0
 38 40  2  0
 40 41  1  0
 41 42  2  0
 41 43  1  0
 40 44  1  0
 44 45  1  0
 44 46  2  0
 46 47  1  0
 34 48  1  0
 48 49  1  0
 49 50  1  0
 49 51  1  0
 49 52  1  0
  7 53  1  0
 53 54  1  0
 53 55  2  0
 55 56  1  0
 55  2  1  0
 48  8  1  0
 46 35  1  0
M  CHG  2  41   1  43  -1
M  END
>  <UniqueID>  (26) 
23

>  <SMILES>  (26) 
CCN(CC)CC/N=c1/cc(-c2ccccc2)n(C)n1-c1ccc([N+](=O)[O-])cc1

>  <Energy>  (26) 
105.98668420339578

>  <Genealogy>  (26) 
CCN(CC)CC/N=c1/cc(-c2ccccc2)n(C)n1-c1ccc([N+](=O)[O-])cc1 (cis-trans isomerization)
CCN(CC)CC/N=c1/cc(-c2ccccc2)n(C)n1-c1ccc([N+](=O)[O-])cc1 (3D coordinates assigned)
CCN(CC)CC/N=c1/cc(-c2ccccc2)n(C)n1-c1ccc([N+](=O)[O-])cc1 (optimized conformer: 105.98668420339578 kcal/mol)

>  <smiles>  (26) 
CCN(CC)CCN=c1cc(-c2ccccc2)n(C)n1-c1ccc([N+](=O)[O-])cc1

>  <score_type>  (26) 
oracle

>  <origin>  (26) 
adg

>  <m_score__min__energy>  (26) 
-7.6100000000000003

>  <m_primary>  (26) 
energy

$$$$
27:0
     RDKit          3D

 40 42  0  0  0  0  0  0  0  0999 V2000
   -7.2120   17.2790  -32.8490 C   0  0  0  0  0  0  0  0  0  0  0  0
   -8.2240   18.2090  -32.4800 O   0  0  0  0  0  0  0  0  0  0  0  0
   -7.9980   19.5710  -32.2380 C   0  0  0  0  0  0  0  0  0  0  0  0
   -8.7500   20.2050  -31.2420 C   0  0  0  0  0  0  0  0  0  0  0  0
   -8.5610   21.5610  -30.9620 C   0  0  0  0  0  0  0  0  0  0  0  0
   -7.6040   22.3030  -31.6710 C   0  0  0  0  0  0  0  0  0  0  0  0
   -7.4320   23.7720  -31.4030 C   0  0  0  0  0  0  0  0  0  0  0  0
   -6.1400   24.0110  -30.7710 N   0  0  0  0  0  0  0  0  0  0  0  0
   -5.0720   23.1920  -30.7900 C   0  0  0  0  0  0  0  0  0  0  0  0
   -4.1110   23.7840  -29.9920 C   0  0  0  0  0  0  0  0  0  0  0  0
   -2.7720   23.2440  -29.6600 C   0  0  0  0  0  0  0  0  0  0  0  0
   -2.5070   21.8800  -29.8820 C   0  0  0  0  0  0  0  0  0  0  0  0
   -1.2610   21.3370  -29.5650 C   0  0  0  0  0  0  0  0  0  0  0  0
   -0.2630   22.1470  -29.0270 C   0  0  0  0  0  0  0  0  0  0  0  0
   -0.5030   23.5050  -28.8130 C   0  0  0  0  0  0  0  0  0  0  0  0
   -1.7530   24.0720  -29.1340 C   0  0  0  0  0  0  0  0  0  0  0  0
   -2.0000   25.4440  -28.9670 O   0  0  0  0  0  0  0  0  0  0  0  0
   -1.2310   26.3120  -28.1420 C   0  0  0  0  0  0  0  0  0  0  0  0
   -4.6430   24.9260  -29.5070 N   0  0  0  0  0  0  0  0  0  0  0  0
   -5.8720   25.0400  -29.9830 N   0  0  0  0  0  0  0  0  0  0  0  0
   -6.8590   21.6770  -32.6810 C   0  0  0  0  0  0  0  0  0  0  0  0
   -7.0480   20.3190  -32.9610 C   0  0  0  0  0  0  0  0  0  0  0  0
   -6.7533   16.8574  -31.9425 H   0  0  0  0  0  0  0  0  0  0  0  0
   -7.6580   16.4690  -33.4449 H   0  0  0  0  0  0  0  0  0  0  0  0
   -6.4425   17.7917  -33.4449 H   0  0  0  0  0  0  0  0  0  0  0  0
   -9.4968   19.6304  -30.6744 H   0  0  0  0  0  0  0  0  0  0  0  0
   -9.1649   22.0487  -30.1826 H   0  0  0  0  0  0  0  0  0  0  0  0
   -7.4817   24.3247  -32.3528 H   0  0  0  0  0  0  0  0  0  0  0  0
   -8.2334   24.1150  -30.7321 H   0  0  0  0  0  0  0  0  0  0  0  0
   -4.9818   22.2398  -31.3332 H   0  0  0  0  0  0  0  0  0  0  0  0
   -3.2893   21.2356  -30.3094 H   0  0  0  0  0  0  0  0  0  0  0  0
   -1.0666   20.2686  -29.7400 H   0  0  0  0  0  0  0  0  0  0  0  0
    0.7157   21.7153  -28.7705 H   0  0  0  0  0  0  0  0  0  0  0  0
    0.2904   24.1387  -28.3900 H   0  0  0  0  0  0  0  0  0  0  0  0
   -1.4315   26.0856  -27.0844 H   0  0  0  0  0  0  0  0  0  0  0  0
   -0.1613   26.1650  -28.3520 H   0  0  0  0  0  0  0  0  0  0  0  0
   -1.5058   27.3562  -28.3520 H   0  0  0  0  0  0  0  0  0  0  0  0
   -4.2120   25.5940  -28.8310 H   0  0  0  0  0  0  0  0  0  0  0  0
   -6.1221   22.2567  -33.2562 H   0  0  0  0  0  0  0  0  0  0  0  0
   -6.4526   19.8338  -33.7485 H   0  0  0  0  0  0  0  0  0  0  0  0
  1  2  1  0
  2  3  1  0
  3  4  2  0
  4  5  1  0
  5  6  2  0
  6  7  1  0
  7  8  1  0
  8  9  1  0
  9 10  2  0
 10 11  1  0
 11 12  2  0
 12 13  1  0
 13 14  2  0
 14 15  1  0
 15 16  2  0
 16 17  1  0
 17 18  1  0
 10 19  1  0
 19 20  2  0
  6 21  1  0
 21 22  2  0
 22  3  1  0
 20  8  1  0
 16 11  1  0
  1 23  1  0
  1 24  1  0
  1 25  1  0
  4 26  1  0
  5 27  1  0
  7 28  1  0
  7 29  1  0
  9 30  1  0
 12 31  1  0
 13 32  1  0
 14 33  1  0
 15 34  1  0
 18 35  1  0
 18 36  1  0
 18 37  1  0
 19 38  1  0
 21 39  1  0
 22 40  1  0
M  CHG  1  19   1
M  END
>  <UniqueID>  (27) 
24

>  <SMILES>  (27) 
COc1ccc(Cn2cc(-c3ccccc3OC)[nH+]n2)cc1

>  <Energy>  (27) 
79.0736084529908

>  <Genealogy>  (27) 
COc1ccc(Cn2cc(-c3ccccc3OC)[nH+]n2)cc1 (protonated)
COc1ccc(Cn2cc(-c3ccccc3OC)[nH+]n2)cc1 (3D coordinates assigned)
COc1ccc(Cn2cc(-c3ccccc3OC)[nH+]n2)cc1 (optimized conformer: 79.0736084529908 kcal/mol)

>  <smiles>  (27) 
COc1ccc(Cn2cc(-c3ccccc3OC)nn2)cc1

>  <score_type>  (27) 
oracle

>  <origin>  (27) 
adg

>  <m_score__min__energy>  (27) 
-7.9100000000000001

>  <m_primary>  (27) 
energy

$$$$
28:0
     RDKit          3D

 51 54  0  0  0  0  0  0  0  0999 V2000
    0.4500   25.8300  -26.9700 C   0  0  0  0  0  0  0  0  0  0  0  0
    0.5590   24.7310  -27.8490 O   0  0  0  0  0  0  0  0  0  0  0  0
   -0.1300   23.6140  -27.3230 C   0  0  0  0  0  0  0  0  0  0  0  0
   -0.6850   22.7410  -28.4320 C   0  0  0  0  0  0  0  0  0  0  0  0
    0.0310   21.5860  -28.7910 C   0  0  0  0  0  0  0  0  0  0  0  0
   -0.4260   20.7520  -29.8070 C   0  0  0  0  0  0  0  0  0  0  0  0
   -1.6080   21.0500  -30.4790 C   0  0  0  0  0  0  0  0  0  0  0  0
   -2.3560   22.1850  -30.1350 C   0  0  0  0  0  0  0  0  0  0  0  0
   -1.9010   23.0450  -29.1010 C   0  0  0  0  0  0  0  0  0  0  0  0
   -2.6260   24.3220  -28.8280 C   0  0  0  0  0  0  0  0  0  0  0  0
   -1.9910   25.4040  -28.9630 O   0  0  0  0  0  0  0  0  0  0  0  0
   -4.0180   24.3830  -28.4060 N   0  0  2  0  0  0  0  0  0  0  0  0
   -4.0800   24.5680  -26.9480 C   0  0  0  0  0  0  0  0  0  0  0  0
   -4.8260   23.2100  -28.8000 C   0  0  0  0  0  0  0  0  0  0  0  0
   -4.7090   22.9440  -30.2750 C   0  0  0  0  0  0  0  0  0  0  0  0
   -5.6520   23.0870  -31.2840 C   0  0  0  0  0  0  0  0  0  0  0  0
   -7.0190   23.6270  -31.1950 C   0  0  0  0  0  0  0  0  0  0  0  0
   -7.2850   24.5850  -30.4210 O   0  0  0  0  0  0  0  0  0  0  0  0
   -8.0160   23.0790  -32.0090 O   0  0  0  0  0  0  0  0  0  0  0  0
   -8.8670   22.0110  -31.5940 C   0  0  0  0  0  0  0  0  0  0  0  0
   -8.3000   20.6890  -32.0340 C   0  0  0  0  0  0  0  0  0  0  0  0
   -7.2510   20.6530  -32.9660 C   0  0  0  0  0  0  0  0  0  0  0  0
   -6.7040   19.4280  -33.3640 C   0  0  0  0  0  0  0  0  0  0  0  0
   -7.1980   18.2340  -32.8310 C   0  0  0  0  0  0  0  0  0  0  0  0
   -8.2390   18.2630  -31.8970 C   0  0  0  0  0  0  0  0  0  0  0  0
   -8.7880   19.4850  -31.4980 C   0  0  0  0  0  0  0  0  0  0  0  0
   -5.1180   22.6620  -32.4500 N   0  0  0  0  0  0  0  0  0  0  0  0
   -3.8630   22.2800  -32.1320 C   0  0  0  0  0  0  0  0  0  0  0  0
   -3.5880   22.4560  -30.8250 N   0  0  0  0  0  0  0  0  0  0  0  0
    0.4854   25.4728  -25.9302 H   0  0  0  0  0  0  0  0  0  0  0  0
    1.2836   26.5255  -27.1474 H   0  0  0  0  0  0  0  0  0  0  0  0
   -0.5039   26.3482  -27.1474 H   0  0  0  0  0  0  0  0  0  0  0  0
    0.5645   23.0192  -26.7115 H   0  0  0  0  0  0  0  0  0  0  0  0
   -0.9695   23.9780  -26.7125 H   0  0  0  0  0  0  0  0  0  0  0  0
    0.9635   21.3384  -28.2627 H   0  0  0  0  0  0  0  0  0  0  0  0
    0.1486   19.8546  -30.0799 H   0  0  0  0  0  0  0  0  0  0  0  0
   -1.9580   20.3899  -31.2863 H   0  0  0  0  0  0  0  0  0  0  0  0
   -4.4530   25.2280  -28.8500 H   0  0  0  0  0  0  0  0  0  0  0  0
   -3.7688   23.6395  -26.4470 H   0  0  0  0  0  0  0  0  0  0  0  0
   -3.4072   25.3868  -26.6534 H   0  0  0  0  0  0  0  0  0  0  0  0
   -5.1104   24.8160  -26.6534 H   0  0  0  0  0  0  0  0  0  0  0  0
   -4.4723   22.3276  -28.2465 H   0  0  0  0  0  0  0  0  0  0  0  0
   -5.8804   23.4166  -28.5644 H   0  0  0  0  0  0  0  0  0  0  0  0
   -8.9537   22.0215  -30.4975 H   0  0  0  0  0  0  0  0  0  0  0  0
   -9.8580   22.1451  -32.0522 H   0  0  0  0  0  0  0  0  0  0  0  0
   -6.8576   21.5909  -33.3849 H   0  0  0  0  0  0  0  0  0  0  0  0
   -5.8843   19.4047  -34.0972 H   0  0  0  0  0  0  0  0  0  0  0  0
   -6.7682   17.2717  -33.1460 H   0  0  0  0  0  0  0  0  0  0  0  0
   -8.6259   17.3232  -31.4761 H   0  0  0  0  0  0  0  0  0  0  0  0
   -9.6050   19.5043  -30.7617 H   0  0  0  0  0  0  0  0  0  0  0  0
   -3.1454   21.8709  -32.8585 H   0  0  0  0  0  0  0  0  0  0  0  0
  1  2  1  0
  2  3  1  0
  3  4  1  0
  4  5  2  0
  5  6  1  0
  6  7  2  0
  7  8  1  0
  8  9  2  0
  9 10  1  0
 10 11  2  0
 10 12  1  0
 12 13  1  0
 12 14  1  0
 14 15  1  0
 15 16  2  0
 16 17  1  0
 17 18  2  0
 17 19  1  0
 19 20  1  0
 20 21  1  0
 21 22  2  0
 22 23  1  0
 23 24  2  0
 24 25  1  0
 25 26  2  0
 16 27  1  0
 27 28  2  0
 28 29  1  0
  9  4  1  0
 29 15  1  0
 29  8  1  0
 26 21  1  0
  1 30  1  0
  1 31  1  0
  1 32  1  0
  3 33  1  0
  3 34  1  0
  5 35  1  0
  6 36  1  0
  7 37  1  0
 12 38  1  6
 13 39  1  0
 13 40  1  0
 13 41  1  0
 14 42  1  0
 14 43  1  0
 20 44  1  0
 20 45  1  0
 22 46  1  0
 23 47  1  0
 24 48  1  0
 25 49  1  0
 26 50  1  0
 28 51  1  0
M  CHG  1  12   1
M  END
>  <UniqueID>  (28) 
25

>  <SMILES>  (28) 
COCc1cccc2c1C(=O)[N@H+](C)Cc1c(C(=O)OCc3ccccc3)ncn1-2

>  <Energy>  (28) 
105.09522987971789

>  <Genealogy>  (28) 
COCc1cccc2c1C(=O)[NH+](C)Cc1c(C(=O)OCc3ccccc3)ncn1-2 (protonated)
COCc1cccc2c1C(=O)[N@H+](C)Cc1c(C(=O)OCc3ccccc3)ncn1-2 (chirality)
COCc1cccc2c1C(=O)[N@H+](C)Cc1c(C(=O)OCc3ccccc3)ncn1-2 (3D coordinates assigned)
COCc1cccc2c1C(=O)[N@H+](C)Cc1c(C(=O)OCc3ccccc3)ncn1-2 (nonaromatic ring conformer: 105.09522987971789 kcal/mol)

>  <smiles>  (28) 
COCc1cccc2c1C(=O)N(C)Cc1c(C(=O)OCc3ccccc3)ncn1-2

>  <score_type>  (28) 
oracle

>  <origin>  (28) 
adg

>  <m_score__min__energy>  (28) 
-8.7599999999999998

>  <m_primary>  (28) 
energy

$$$$
29:0
     RDKit          3D

 43 43  0  0  0  0  0  0  0  0999 V2000
   -5.7620   20.1180  -33.2810 C   0  0  0  0  0  0  0  0  0  0  0  0
   -7.0860   20.3250  -32.5570 C   0  0  0  0  0  0  0  0  0  0  0  0
   -6.9620   21.4090  -31.5620 N   0  0  0  0  0  0  0  0  0  0  0  0
   -8.1230   22.3290  -31.5580 C   0  0  0  0  0  0  0  0  0  0  0  0
   -9.4820   21.6150  -31.6070 C   0  0  0  0  0  0  0  0  0  0  0  0
   -5.6600   22.1190  -31.6120 C   0  0  0  0  0  0  0  0  0  0  0  0
   -5.3710   22.7450  -30.2470 C   0  0  0  0  0  0  0  0  0  0  0  0
   -5.1680   24.5150  -30.3770 S   0  0  0  0  0  0  0  0  0  0  0  0
   -5.8270   24.9870  -31.6430 O   0  0  0  0  0  0  0  0  0  0  0  0
   -5.8460   25.1810  -29.2110 O   0  0  0  0  0  0  0  0  0  0  0  0
   -3.4840   24.9510  -30.4360 N   0  0  0  0  0  0  0  0  0  0  0  0
   -2.6560   24.0670  -29.6100 C   0  0  0  0  0  0  0  0  0  0  0  0
   -2.3150   24.7180  -28.2980 C   0  0  0  0  0  0  0  0  0  0  0  0
   -3.1710   24.5830  -27.1950 C   0  0  0  0  0  0  0  0  0  0  0  0
   -2.8920   25.2490  -25.9970 C   0  0  0  0  0  0  0  0  0  0  0  0
   -1.7560   26.0590  -25.8810 C   0  0  0  0  0  0  0  0  0  0  0  0
   -1.5060   26.6870  -24.6530 O   0  0  0  0  0  0  0  0  0  0  0  0
   -0.4500   26.3270  -23.7680 C   0  0  0  0  0  0  0  0  0  0  0  0
   -0.9020   26.2050  -26.9910 C   0  0  0  0  0  0  0  0  0  0  0  0
   -1.1840   25.5430  -28.1890 C   0  0  0  0  0  0  0  0  0  0  0  0
   -4.9562   19.9920  -32.5428 H   0  0  0  0  0  0  0  0  0  0  0  0
   -5.8255   19.2189  -33.9115 H   0  0  0  0  0  0  0  0  0  0  0  0
   -5.5481   20.9936  -33.9115 H   0  0  0  0  0  0  0  0  0  0  0  0
   -7.8622   20.5917  -33.2894 H   0  0  0  0  0  0  0  0  0  0  0  0
   -7.3602   19.3939  -32.0395 H   0  0  0  0  0  0  0  0  0  0  0  0
   -8.0824   22.9341  -30.6403 H   0  0  0  0  0  0  0  0  0  0  0  0
   -8.0498   22.9399  -32.4698 H   0  0  0  0  0  0  0  0  0  0  0  0
   -9.8357   21.4292  -30.5821 H   0  0  0  0  0  0  0  0  0  0  0  0
  -10.2095   22.2473  -32.1370 H   0  0  0  0  0  0  0  0  0  0  0  0
   -9.3741   20.6572  -32.1370 H   0  0  0  0  0  0  0  0  0  0  0  0
   -4.8621   21.4053  -31.8649 H   0  0  0  0  0  0  0  0  0  0  0  0
   -5.7005   22.9081  -32.3773 H   0  0  0  0  0  0  0  0  0  0  0  0
   -6.2095   22.5290  -29.5686 H   0  0  0  0  0  0  0  0  0  0  0  0
   -4.4362   22.3152  -29.8579 H   0  0  0  0  0  0  0  0  0  0  0  0
   -3.2073   23.1350  -29.4165 H   0  0  0  0  0  0  0  0  0  0  0  0
   -1.7211   23.8569  -30.1502 H   0  0  0  0  0  0  0  0  0  0  0  0
   -4.0670   23.9496  -27.2726 H   0  0  0  0  0  0  0  0  0  0  0  0
   -3.5708   25.1354  -25.1389 H   0  0  0  0  0  0  0  0  0  0  0  0
   -0.7881   26.4423  -22.7276 H   0  0  0  0  0  0  0  0  0  0  0  0
   -0.1629   25.2802  -23.9464 H   0  0  0  0  0  0  0  0  0  0  0  0
    0.4167   26.9804  -23.9464 H   0  0  0  0  0  0  0  0  0  0  0  0
   -0.0091   26.8429  -26.9148 H   0  0  0  0  0  0  0  0  0  0  0  0
   -0.5150   25.6692  -29.0530 H   0  0  0  0  0  0  0  0  0  0  0  0
  1  2  1  0
  2  3  1  0
  3  4  1  0
  4  5  1  0
  3  6  1  0
  6  7  1  0
  7  8  1  0
  8  9  2  0
  8 10  2  0
  8 11  1  0
 11 12  1  0
 12 13  1  0
 13 14  2  0
 14 15  1  0
 15 16  2  0
 16 17  1  0
 17 18  1  0
 16 19  1  0
 19 20  2  0
 20 13  1  0
  1 21  1  0
  1 22  1  0
  1 23  1  0
  2 24  1  0
  2 25  1  0
  4 26  1  0
  4 27  1  0
  5 28  1  0
  5 29  1  0
  5 30  1  0
  6 31  1  0
  6 32  1  0
  7 33  1  0
  7 34  1  0
 12 35  1  0
 12 36  1  0
 14 37  1  0
 15 38  1  0
 18 39  1  0
 18 40  1  0
 18 41  1  0
 19 42  1  0
 20 43  1  0
M  CHG  1  11  -1
M  END
>  <UniqueID>  (29) 
26

>  <SMILES>  (29) 
CCN(CC)CCS(=O)(=O)[N-]Cc1ccc(OC)cc1

>  <Energy>  (29) 
32.385779208726284

>  <Genealogy>  (29) 
CCN(CC)CCS(=O)(=O)[N-]Cc1ccc(OC)cc1 (protonated)
CCN(CC)CCS(=O)(=O)[N-]Cc1ccc(OC)cc1 (3D coordinates assigned)
CCN(CC)CCS(=O)(=O)[N-]Cc1ccc(OC)cc1 (optimized conformer: 32.385779208726284 kcal/mol)

>  <smiles>  (29) 
CCN(CC)CCS(=O)(=O)NCc1ccc(OC)cc1

>  <score_type>  (29) 
oracle

>  <origin>  (29) 
adg

>  <m_score__min__energy>  (29) 
-8.0800000000000001

>  <m_primary>  (29) 
energy

$$$$
30:0
     RDKit          3D

 44 47  0  0  0  0  0  0  0  0999 V2000
   -7.7800   23.0670  -30.5400 C   0  0  0  0  0  0  0  0  0  0  0  0
   -6.3520   23.4770  -30.3310 C   0  0  0  0  0  0  0  0  0  0  0  0
   -5.9370   24.7770  -30.6550 C   0  0  0  0  0  0  0  0  0  0  0  0
   -4.6120   25.1660  -30.4420 C   0  0  0  0  0  0  0  0  0  0  0  0
   -3.6890   24.2620  -29.9090 C   0  0  0  0  0  0  0  0  0  0  0  0
   -2.4120   24.6630  -29.6900 F   0  0  0  0  0  0  0  0  0  0  0  0
   -4.0930   22.9560  -29.5860 C   0  0  0  0  0  0  0  0  0  0  0  0
   -3.1280   21.9800  -29.0430 C   0  0  0  0  0  0  0  0  0  0  0  0
   -2.9240   21.9410  -27.6590 C   0  0  0  0  0  0  0  0  0  0  0  0
   -2.0200   21.0360  -27.1070 C   0  0  0  0  0  0  0  0  0  0  0  0
   -1.3260   20.1690  -27.9460 C   0  0  0  0  0  0  0  0  0  0  0  0
   -1.5340   20.2000  -29.2900 N   0  0  0  0  0  0  0  0  0  0  0  0
   -2.4180   21.0680  -29.8650 C   0  0  0  0  0  0  0  0  0  0  0  0
   -2.6530   21.0040  -31.6240 S   0  0  0  0  0  0  0  0  0  0  0  0
   -2.1600   22.2900  -32.2260 O   0  0  0  0  0  0  0  0  0  0  0  0
   -1.8590   19.8680  -32.2060 O   0  0  0  0  0  0  0  0  0  0  0  0
   -4.3460   20.7390  -32.0310 C   0  0  0  0  0  0  0  0  0  0  0  0
   -5.0700   21.7090  -32.7370 C   0  0  0  0  0  0  0  0  0  0  0  0
   -6.4310   21.5270  -32.9950 C   0  0  0  0  0  0  0  0  0  0  0  0
   -7.0840   20.3710  -32.5460 C   0  0  0  0  0  0  0  0  0  0  0  0
   -8.4580   20.1900  -32.7720 C   0  0  0  0  0  0  0  0  0  0  0  0
   -9.1000   19.0400  -32.3050 C   0  0  0  0  0  0  0  0  0  0  0  0
   -8.3800   18.0640  -31.6130 C   0  0  0  0  0  0  0  0  0  0  0  0
   -7.0120   18.2290  -31.3830 C   0  0  0  0  0  0  0  0  0  0  0  0
   -6.3540   19.3800  -31.8450 C   0  0  0  0  0  0  0  0  0  0  0  0
   -4.9850   19.5670  -31.6020 C   0  0  0  0  0  0  0  0  0  0  0  0
   -5.4330   22.5800  -29.7670 C   0  0  0  0  0  0  0  0  0  0  0  0
   -8.2678   22.9269  -29.5641 H   0  0  0  0  0  0  0  0  0  0  0  0
   -8.3074   23.8500  -31.1046 H   0  0  0  0  0  0  0  0  0  0  0  0
   -7.8117   22.1235  -31.1046 H   0  0  0  0  0  0  0  0  0  0  0  0
   -6.6571   25.4928  -31.0782 H   0  0  0  0  0  0  0  0  0  0  0  0
   -4.2940   26.1882  -30.6949 H   0  0  0  0  0  0  0  0  0  0  0  0
   -3.4799   22.6280  -27.0041 H   0  0  0  0  0  0  0  0  0  0  0  0
   -1.8564   21.0070  -26.0196 H   0  0  0  0  0  0  0  0  0  0  0  0
   -0.6056   19.4551  -27.5201 H   0  0  0  0  0  0  0  0  0  0  0  0
   -0.9970   19.5310  -29.8850 H   0  0  0  0  0  0  0  0  0  0  0  0
   -4.5637   22.6194  -33.0903 H   0  0  0  0  0  0  0  0  0  0  0  0
   -6.9912   22.2926  -33.5517 H   0  0  0  0  0  0  0  0  0  0  0  0
   -9.0301   20.9549  -33.3177 H   0  0  0  0  0  0  0  0  0  0  0  0
  -10.1768   18.9031  -32.4832 H   0  0  0  0  0  0  0  0  0  0  0  0
   -8.8920   17.1616  -31.2475 H   0  0  0  0  0  0  0  0  0  0  0  0
   -6.4495   17.4559  -30.8391 H   0  0  0  0  0  0  0  0  0  0  0  0
   -4.4111   18.7917  -31.0732 H   0  0  0  0  0  0  0  0  0  0  0  0
   -5.7645   21.5757  -29.4647 H   0  0  0  0  0  0  0  0  0  0  0  0
  1  2  1  0
  2  3  2  0
  3  4  1  0
  4  5  2  0
  5  6  1  0
  5  7  1  0
  7  8  1  0
  8  9  2  0
  9 10  1  0
 10 11  2  0
 11 12  1  0
 12 13  2  0
 13 14  1  0
 14 15  2  0
 14 16  2  0
 14 17  1  0
 17 18  2  0
 18 19  1  0
 19 20  2  0
 20 21  1  0
 21 22  2  0
 22 23  1  0
 23 24  2  0
 24 25  1  0
 25 26  2  0
  7 27  2  0
 27  2  1  0
 13  8  1  0
 26 17  1  0
 25 20  1  0
  1 28  1  0
  1 29  1  0
  1 30  1  0
  3 31  1  0
  4 32  1  0
  9 33  1  0
 10 34  1  0
 11 35  1  0
 12 36  1  0
 18 37  1  0
 19 38  1  0
 21 39  1  0
 22 40  1  0
 23 41  1  0
 24 42  1  0
 26 43  1  0
 27 44  1  0
M  CHG  1  12   1
M  END
>  <UniqueID>  (30) 
27

>  <SMILES>  (30) 
Cc1ccc(F)c(-c2ccc[nH+]c2S(=O)(=O)c2ccc3ccccc3c2)c1

>  <Energy>  (30) 
56.71639056514459

>  <Genealogy>  (30) 
Cc1ccc(F)c(-c2ccc[nH+]c2S(=O)(=O)c2ccc3ccccc3c2)c1 (protonated)
Cc1ccc(F)c(-c2ccc[nH+]c2S(=O)(=O)c2ccc3ccccc3c2)c1 (3D coordinates assigned)
Cc1ccc(F)c(-c2ccc[nH+]c2S(=O)(=O)c2ccc3ccccc3c2)c1 (optimized conformer: 56.71639056514459 kcal/mol)

>  <smiles>  (30) 
Cc1ccc(F)c(-c2cccnc2S(=O)(=O)c2ccc3ccccc3c2)c1

>  <score_type>  (30) 
oracle

>  <origin>  (30) 
adg

>  <m_score__min__energy>  (30) 
-9.3100000000000005

>  <m_primary>  (30) 
energy

$$$$
31:0
     RDKit          3D

 51 53  0  0  1  0  0  0  0  0999 V2000
   -8.2220   18.5540  -32.3040 C   0  0  0  0  0  0  0  0  0  0  0  0
   -7.2390   19.6540  -32.5620 C   0  0  0  0  0  0  0  0  0  0  0  0
   -7.8150   20.9760  -32.5850 N   0  0  0  0  0  0  0  0  0  0  0  0
   -9.2200   20.8250  -32.2890 C   0  0  0  0  0  0  0  0  0  0  0  0
   -9.3930   21.2990  -30.8740 C   0  0  0  0  0  0  0  0  0  0  0  0
   -8.2940   22.2780  -30.6840 C   0  0  0  0  0  0  0  0  0  0  0  0
   -7.2460   21.9140  -31.6910 C   0  0  2  0  0  0  0  0  0  0  0  0
   -6.8130   23.2040  -32.3570 C   0  0  0  0  0  0  0  0  0  0  0  0
   -5.4060   23.4430  -32.3370 N   0  0  0  0  0  0  0  0  0  0  0  0
   -4.5150   22.5370  -32.0890 C   0  0  0  0  0  0  0  0  0  0  0  0
   -4.6350   21.3650  -32.7360 N   0  0  0  0  0  0  0  0  0  0  0  0
   -3.7270   20.3970  -32.5090 C   0  0  0  0  0  0  0  0  0  0  0  0
   -2.6930   20.5370  -31.6600 N   0  0  0  0  0  0  0  0  0  0  0  0
   -2.5510   21.7000  -31.0000 C   0  0  0  0  0  0  0  0  0  0  0  0
   -1.4860   21.8440  -30.1320 C   0  0  0  0  0  0  0  0  0  0  0  0
   -1.3550   23.0380  -29.4710 C   0  0  0  0  0  0  0  0  0  0  0  0
   -0.3040   23.2310  -28.5890 O   0  0  0  0  0  0  0  0  0  0  0  0
   -0.1180   22.3070  -27.5350 C   0  0  0  0  0  0  0  0  0  0  0  0
   -2.2750   24.0680  -29.6770 C   0  0  0  0  0  0  0  0  0  0  0  0
   -2.0660   25.2500  -28.9620 O   0  0  0  0  0  0  0  0  0  0  0  0
   -1.9740   25.3070  -27.5510 C   0  0  0  0  0  0  0  0  0  0  0  0
   -3.3410   23.9290  -30.5430 C   0  0  0  0  0  0  0  0  0  0  0  0
   -4.2490   24.9690  -30.7370 O   0  0  0  0  0  0  0  0  0  0  0  0
   -5.3590   25.1720  -29.8920 C   0  0  0  0  0  0  0  0  0  0  0  0
   -3.4710   22.7260  -31.2080 C   0  0  0  0  0  0  0  0  0  0  0  0
   -8.3436   18.4179  -31.2192 H   0  0  0  0  0  0  0  0  0  0  0  0
   -9.1919   18.8165  -32.7516 H   0  0  0  0  0  0  0  0  0  0  0  0
   -7.8525   17.6196  -32.7516 H   0  0  0  0  0  0  0  0  0  0  0  0
   -6.4755   19.6254  -31.7707 H   0  0  0  0  0  0  0  0  0  0  0  0
   -6.8247   19.4752  -33.5652 H   0  0  0  0  0  0  0  0  0  0  0  0
   -9.8240   21.4374  -32.9747 H   0  0  0  0  0  0  0  0  0  0  0  0
   -9.5497   19.7826  -32.4101 H   0  0  0  0  0  0  0  0  0  0  0  0
  -10.3728   21.7809  -30.7405 H   0  0  0  0  0  0  0  0  0  0  0  0
   -9.3562   20.4759  -30.1453 H   0  0  0  0  0  0  0  0  0  0  0  0
   -8.6571   23.3010  -30.8615 H   0  0  0  0  0  0  0  0  0  0  0  0
   -7.8980   22.2488  -29.6582 H   0  0  0  0  0  0  0  0  0  0  0  0
   -6.3536   21.4418  -31.2543 H   0  0  0  0  0  0  0  0  0  0  0  0
   -7.1405   23.1743  -33.4067 H   0  0  0  0  0  0  0  0  0  0  0  0
   -7.2748   24.0203  -31.7822 H   0  0  0  0  0  0  0  0  0  0  0  0
   -3.8363   19.4428  -33.0453 H   0  0  0  0  0  0  0  0  0  0  0  0
   -1.9890   19.7770  -31.4880 H   0  0  0  0  0  0  0  0  0  0  0  0
   -0.7662   21.0269  -29.9762 H   0  0  0  0  0  0  0  0  0  0  0  0
   -0.2223   22.8253  -26.5704 H   0  0  0  0  0  0  0  0  0  0  0  0
   -0.8740   21.5112  -27.6073 H   0  0  0  0  0  0  0  0  0  0  0  0
    0.8870   21.8657  -27.6073 H   0  0  0  0  0  0  0  0  0  0  0  0
   -2.8292   24.7772  -27.1061 H   0  0  0  0  0  0  0  0  0  0  0  0
   -1.0376   24.8306  -27.2251 H   0  0  0  0  0  0  0  0  0  0  0  0
   -1.9837   26.3576  -27.2251 H   0  0  0  0  0  0  0  0  0  0  0  0
   -5.0362   25.1130  -28.8421 H   0  0  0  0  0  0  0  0  0  0  0  0
   -5.7919   26.1642  -30.0873 H   0  0  0  0  0  0  0  0  0  0  0  0
   -6.1150   24.3972  -30.0873 H   0  0  0  0  0  0  0  0  0  0  0  0
  1  2  1  0
  2  3  1  0
  3  4  1  0
  4  5  1  0
  5  6  1  0
  6  7  1  0
  7  8  1  0
  8  9  1  0
  9 10  2  0
 10 11  1  0
 11 12  2  0
 12 13  1  0
 13 14  1  0
 14 15  2  0
 15 16  1  0
 16 17  1  0
 17 18  1  0
 16 19  2  0
 19 20  1  0
 20 21  1  0
 19 22  1  0
 22 23  1  0
 23 24  1  0
 22 25  2  0
  7  3  1  0
 25 10  1  0
 25 14  1  0
  1 26  1  0
  1 27  1  0
  1 28  1  0
  2 29  1  0
  2 30  1  0
  4 31  1  0
  4 32  1  0
  5 33  1  0
  5 34  1  0
  6 35  1  0
  6 36  1  0
  7 37  1  1
  8 38  1  0
  8 39  1  0
 12 40  1  0
 13 41  1  0
 15 42  1  0
 18 43  1  0
 18 44  1  0
 18 45  1  0
 21 46  1  0
 21 47  1  0
 21 48  1  0
 24 49  1  0
 24 50  1  0
 24 51  1  0
M  END
>  <smiles>  (31) 
CCN1CCCC1CN=c1nc[nH]c2cc(OC)c(OC)c(OC)c12

>  <score_type>  (31) 
oracle

>  <origin>  (31) 
adg

>  <m_score__min__energy>  (31) 
-7.9900000000000002

>  <m_primary>  (31) 
energy

$$$$
32:0
     RDKit          3D

 41 43  0  0  0  0  0  0  0  0999 V2000
   -0.8550   26.6590  -27.9390 C   0  0  0  0  0  0  0  0  0  0  0  0
   -1.6020   26.0170  -28.9670 O   0  0  0  0  0  0  0  0  0  0  0  0
   -2.0120   24.6740  -28.9320 C   0  0  0  0  0  0  0  0  0  0  0  0
   -1.3470   23.7100  -28.1470 C   0  0  0  0  0  0  0  0  0  0  0  0
   -1.7890   22.3850  -28.1330 C   0  0  0  0  0  0  0  0  0  0  0  0
   -2.8990   22.0100  -28.8910 C   0  0  0  0  0  0  0  0  0  0  0  0
   -3.5660   22.9560  -29.6720 C   0  0  0  0  0  0  0  0  0  0  0  0
   -3.1170   24.2890  -29.7120 C   0  0  0  0  0  0  0  0  0  0  0  0
   -3.8000   25.2870  -30.4870 N   0  0  0  0  0  0  0  0  0  0  0  0
   -5.2170   25.4680  -30.5820 C   0  0  0  0  0  0  0  0  0  0  0  0
   -5.7710   26.4880  -30.0880 O   0  0  0  0  0  0  0  0  0  0  0  0
   -6.0370   24.4290  -31.2160 C   0  0  0  0  0  0  0  0  0  0  0  0
   -7.1600   23.8340  -30.6790 C   0  0  0  0  0  0  0  0  0  0  0  0
   -7.5510   22.9490  -31.6600 C   0  0  0  0  0  0  0  0  0  0  0  0
   -8.7170   22.0130  -31.5960 C   0  0  0  0  0  0  0  0  0  0  0  0
   -8.2560   20.6220  -31.4120 N   0  0  0  0  0  0  0  0  0  0  0  0
   -9.1850   19.6830  -32.0650 C   0  0  0  0  0  0  0  0  0  0  0  0
   -8.7040   18.2290  -31.8720 C   0  0  0  0  0  0  0  0  0  0  0  0
   -7.4360   18.1640  -31.2440 O   0  0  0  0  0  0  0  0  0  0  0  0
   -6.5060   18.9400  -31.9710 C   0  0  0  0  0  0  0  0  0  0  0  0
   -6.8910   20.4340  -31.9500 C   0  0  0  0  0  0  0  0  0  0  0  0
   -6.7140   23.0300  -32.6680 O   0  0  0  0  0  0  0  0  0  0  0  0
   -5.7880   23.9150  -32.4370 N   0  0  0  0  0  0  0  0  0  0  0  0
   -1.2305   26.3363  -26.9568 H   0  0  0  0  0  0  0  0  0  0  0  0
    0.2067   26.3872  -28.0330 H   0  0  0  0  0  0  0  0  0  0  0  0
   -0.9641   27.7495  -28.0330 H   0  0  0  0  0  0  0  0  0  0  0  0
   -0.4758   24.0027  -27.5426 H   0  0  0  0  0  0  0  0  0  0  0  0
   -1.2615   21.6363  -27.5238 H   0  0  0  0  0  0  0  0  0  0  0  0
   -3.2491   20.9674  -28.8732 H   0  0  0  0  0  0  0  0  0  0  0  0
   -4.4471   22.6576  -30.2591 H   0  0  0  0  0  0  0  0  0  0  0  0
   -7.6302   24.0212  -29.7023 H   0  0  0  0  0  0  0  0  0  0  0  0
   -9.3615   22.2953  -30.7505 H   0  0  0  0  0  0  0  0  0  0  0  0
   -9.2779   22.0793  -32.5399 H   0  0  0  0  0  0  0  0  0  0  0  0
  -10.1854   19.7957  -31.6218 H   0  0  0  0  0  0  0  0  0  0  0  0
   -9.2211   19.9071  -33.1413 H   0  0  0  0  0  0  0  0  0  0  0  0
   -9.4357   17.6935  -31.2492 H   0  0  0  0  0  0  0  0  0  0  0  0
   -8.6122   17.7687  -32.8668 H   0  0  0  0  0  0  0  0  0  0  0  0
   -5.5091   18.8197  -31.5219 H   0  0  0  0  0  0  0  0  0  0  0  0
   -6.5042   18.5947  -33.0154 H   0  0  0  0  0  0  0  0  0  0  0  0
   -6.1764   20.9808  -31.3172 H   0  0  0  0  0  0  0  0  0  0  0  0
   -6.8646   20.8173  -32.9807 H   0  0  0  0  0  0  0  0  0  0  0  0
  1  2  1  0
  2  3  1  0
  3  4  2  0
  4  5  1  0
  5  6  2  0
  6  7  1  0
  7  8  2  0
  8  9  1  0
  9 10  1  0
 10 11  2  0
 10 12  1  0
 12 13  1  0
 13 14  2  0
 14 15  1  0
 15 16  1  0
 16 17  1  0
 17 18  1  0
 18 19  1  0
 19 20  1  0
 20 21  1  0
 14 22  1  0
 22 23  1  0
  8  3  1  0
 23 12  2  0
 21 16  1  0
  1 24  1  0
  1 25  1  0
  1 26  1  0
  4 27  1  0
  5 28  1  0
  6 29  1  0
  7 30  1  0
 13 31  1  0
 15 32  1  0
 15 33  1  0
 17 34  1  0
 17 35  1  0
 18 36  1  0
 18 37  1  0
 20 38  1  0
 20 39  1  0
 21 40  1  0
 21 41  1  0
M  CHG  1   9  -1
M  END
>  <UniqueID>  (32) 
28

>  <SMILES>  (32) 
COc1ccccc1[N-]C(=O)c1cc(CN2CCOCC2)on1

>  <Energy>  (32) 
83.07985379542914

>  <Genealogy>  (32) 
COc1ccccc1[N-]C(=O)c1cc(CN2CCOCC2)on1 (protonated)
COc1ccccc1[N-]C(=O)c1cc(CN2CCOCC2)on1 (3D coordinates assigned)
COc1ccccc1[N-]C(=O)c1cc(CN2CCOCC2)on1 (nonaromatic ring conformer: 83.07985379542914 kcal/mol)

>  <smiles>  (32) 
COc1ccccc1NC(=O)c1cc(CN2CCOCC2)on1

>  <score_type>  (32) 
oracle

>  <origin>  (32) 
adg

>  <m_score__min__energy>  (32) 
-10.49

>  <m_primary>  (32) 
energy

$$$$
33:0
     RDKit          3D

 38 40  0  0  0  0  0  0  0  0999 V2000
   -4.0550   26.0540  -31.9680 H   0  0  0  0  0  0  0  0  0  0  0  0
   -3.8710   25.6630  -31.0520 O   0  0  0  0  0  0  0  0  0  0  0  0
   -4.9170   25.3410  -30.2190 N   0  0  0  0  0  0  0  0  0  0  0  0
   -5.3910   24.1350  -30.1610 C   0  0  0  0  0  0  0  0  0  0  0  0
   -4.5860   22.9350  -29.7580 C   0  0  0  0  0  0  0  0  0  0  0  0
   -5.4590   21.7850  -30.0810 N   0  0  0  0  0  0  0  0  0  0  0  0
   -5.2130   21.4050  -31.0240 H   0  0  0  0  0  0  0  0  0  0  0  0
   -6.8420   22.3010  -30.1300 C   0  0  2  0  0  0  0  0  0  0  0  0
   -7.3104   22.1964  -29.1402 H   0  0  0  0  0  0  0  0  0  0  0  0
   -7.7330   21.4910  -31.0590 C   0  0  0  0  0  0  0  0  0  0  0  0
   -9.1000   21.8020  -31.1690 C   0  0  0  0  0  0  0  0  0  0  0  0
   -9.5194   22.6332  -30.5832 H   0  0  0  0  0  0  0  0  0  0  0  0
   -9.9300   21.0630  -32.0170 C   0  0  0  0  0  0  0  0  0  0  0  0
  -10.9973   21.3166  -32.0979 H   0  0  0  0  0  0  0  0  0  0  0  0
   -9.4070   20.0030  -32.7620 C   0  0  0  0  0  0  0  0  0  0  0  0
  -10.2130   19.2870  -33.5830 F   0  0  0  0  0  0  0  0  0  0  0  0
   -8.0510   19.6810  -32.6600 C   0  0  0  0  0  0  0  0  0  0  0  0
   -7.6390   18.8467  -33.2467 H   0  0  0  0  0  0  0  0  0  0  0  0
   -7.2170   20.4180  -31.8130 C   0  0  0  0  0  0  0  0  0  0  0  0
   -6.1509   20.1583  -31.7348 H   0  0  0  0  0  0  0  0  0  0  0  0
   -6.7830   23.7830  -30.5040 C   0  0  0  0  0  0  0  0  0  0  0  0
   -7.5005   24.3722  -29.9141 H   0  0  0  0  0  0  0  0  0  0  0  0
   -7.0441   23.9847  -31.5533 H   0  0  0  0  0  0  0  0  0  0  0  0
   -4.3470   22.9440  -28.2270 C   0  0  0  0  0  0  0  0  0  0  0  0
   -5.3151   23.0853  -27.7241 H   0  0  0  0  0  0  0  0  0  0  0  0
   -3.8785   21.9835  -27.9665 H   0  0  0  0  0  0  0  0  0  0  0  0
   -3.3880   24.0580  -27.7620 C   0  0  0  0  0  0  0  0  0  0  0  0
   -3.9664   24.9863  -27.6449 H   0  0  0  0  0  0  0  0  0  0  0  0
   -2.9384   23.7184  -26.8173 H   0  0  0  0  0  0  0  0  0  0  0  0
   -2.2260   24.3300  -28.7380 C   0  0  0  0  0  0  0  0  0  0  0  0
   -2.4637   25.2265  -29.3294 H   0  0  0  0  0  0  0  0  0  0  0  0
   -1.3127   24.4716  -28.1415 H   0  0  0  0  0  0  0  0  0  0  0  0
   -1.9830   23.1620  -29.6930 C   0  0  0  0  0  0  0  0  0  0  0  0
   -1.1486   23.4173  -30.3627 H   0  0  0  0  0  0  0  0  0  0  0  0
   -1.7487   22.2714  -29.0914 H   0  0  0  0  0  0  0  0  0  0  0  0
   -3.2280   22.8510  -30.5440 C   0  0  0  0  0  0  0  0  0  0  0  0
   -3.2658   23.5707  -31.3750 H   0  0  0  0  0  0  0  0  0  0  0  0
   -3.1249   21.8101  -30.8843 H   0  0  0  0  0  0  0  0  0  0  0  0
  1  2  1  0
  2  3  1  0
  3  4  2  0
  4  5  1  0
  5  6  1  0
  6  7  1  0
  6  8  1  0
  8  9  1  1
  8 10  1  0
 10 11  2  0
 11 12  1  0
 11 13  1  0
 13 14  1  0
 13 15  2  0
 15 16  1  0
 15 17  1  0
 17 18  1  0
 17 19  2  0
 19 20  1  0
  8 21  1  0
 21 22  1  0
 21 23  1  0
  5 24  1  0
 24 25  1  0
 24 26  1  0
 24 27  1  0
 27 28  1  0
 27 29  1  0
 27 30  1  0
 30 31  1  0
 30 32  1  0
 30 33  1  0
 33 34  1  0
 33 35  1  0
 33 36  1  0
 36 37  1  0
 36 38  1  0
 21  4  1  0
 36  5  1  0
 19 10  1  0
M  END
>  <UniqueID>  (33) 
29

>  <SMILES>  (33) 
O/N=C1\C[C@@H](c2ccc(F)cc2)NC12CCCCC2

>  <Energy>  (33) 
48.164228943208386

>  <Genealogy>  (33) 
ON=C1C[C@@H](c2ccc(F)cc2)NC12CCCCC2 (chirality)
O/N=C1\C[C@@H](c2ccc(F)cc2)NC12CCCCC2 (cis-trans isomerization)
O/N=C1\C[C@@H](c2ccc(F)cc2)NC12CCCCC2 (3D coordinates assigned)
O/N=C1\C[C@@H](c2ccc(F)cc2)NC12CCCCC2 (nonaromatic ring conformer: 48.164228943208386 kcal/mol)

>  <smiles>  (33) 
ON=C1CC(c2ccc(F)cc2)NC12CCCCC2

>  <score_type>  (33) 
oracle

>  <origin>  (33) 
adg

>  <m_score__min__energy>  (33) 
-8.4000000000000004

>  <m_primary>  (33) 
energy

$$$$
34:0
     RDKit          3D

 35 36  0  0  0  0  0  0  0  0999 V2000
    0.6790   23.0520  -24.1920 C   0  0  0  0  0  0  0  0  0  0  0  0
    0.1920   24.3970  -24.6620 C   0  0  0  0  0  0  0  0  0  0  0  0
   -0.3990   25.2410  -23.7640 N   0  0  0  0  0  0  0  0  0  0  0  0
   -0.8610   26.4680  -24.1240 C   0  0  0  0  0  0  0  0  0  0  0  0
   -0.7450   26.9040  -25.4410 C   0  0  0  0  0  0  0  0  0  0  0  0
   -0.1520   26.0700  -26.3860 C   0  0  0  0  0  0  0  0  0  0  0  0
    0.3170   24.8010  -26.0170 C   0  0  0  0  0  0  0  0  0  0  0  0
    1.0000   23.9540  -27.0670 C   0  0  0  0  0  0  0  0  0  0  0  0
    0.1360   23.7930  -28.2350 N   0  0  0  0  0  0  0  0  0  0  0  0
   -1.0930   23.0630  -28.1590 C   0  0  0  0  0  0  0  0  0  0  0  0
   -1.0840   21.8000  -27.5480 C   0  0  0  0  0  0  0  0  0  0  0  0
   -2.2630   21.0510  -27.4210 C   0  0  0  0  0  0  0  0  0  0  0  0
   -2.2440   19.7320  -26.6910 C   0  0  0  0  0  0  0  0  0  0  0  0
   -3.4780   19.1240  -26.8200 F   0  0  0  0  0  0  0  0  0  0  0  0
   -1.2710   18.8940  -27.2070 F   0  0  0  0  0  0  0  0  0  0  0  0
   -1.9760   19.9280  -25.3460 F   0  0  0  0  0  0  0  0  0  0  0  0
   -3.4660   21.5940  -27.8900 C   0  0  0  0  0  0  0  0  0  0  0  0
   -3.4840   22.8410  -28.5190 C   0  0  0  0  0  0  0  0  0  0  0  0
   -2.3040   23.5940  -28.6710 C   0  0  0  0  0  0  0  0  0  0  0  0
   -2.3740   24.9210  -29.3410 C   0  0  0  0  0  0  0  0  0  0  0  0
   -3.4290   25.2790  -29.9300 O   0  0  0  0  0  0  0  0  0  0  0  0
   -1.2880   25.7890  -29.3420 O   0  0  0  0  0  0  0  0  0  0  0  0
    0.6874   23.0289  -23.0923 H   0  0  0  0  0  0  0  0  0  0  0  0
    0.0082   22.2665  -24.5702 H   0  0  0  0  0  0  0  0  0  0  0  0
    1.6972   22.8780  -24.5702 H   0  0  0  0  0  0  0  0  0  0  0  0
   -0.5050   24.9510  -22.7650 H   0  0  0  0  0  0  0  0  0  0  0  0
   -1.3287   27.1193  -23.3710 H   0  0  0  0  0  0  0  0  0  0  0  0
   -1.1178   27.8970  -25.7324 H   0  0  0  0  0  0  0  0  0  0  0  0
   -0.0510   26.4087  -27.4277 H   0  0  0  0  0  0  0  0  0  0  0  0
    1.9364   24.4429  -27.3738 H   0  0  0  0  0  0  0  0  0  0  0  0
    1.2124   22.9621  -26.6416 H   0  0  0  0  0  0  0  0  0  0  0  0
    0.3580   24.3160  -29.1120 H   0  0  0  0  0  0  0  0  0  0  0  0
   -0.1382   21.3912  -27.1629 H   0  0  0  0  0  0  0  0  0  0  0  0
   -4.4040   21.0339  -27.7619 H   0  0  0  0  0  0  0  0  0  0  0  0
   -4.4347   23.2409  -28.9015 H   0  0  0  0  0  0  0  0  0  0  0  0
  1  2  1  0
  2  3  2  0
  3  4  1  0
  4  5  2  0
  5  6  1  0
  6  7  2  0
  7  8  1  0
  8  9  1  0
  9 10  1  0
 10 11  2  0
 11 12  1  0
 12 13  1  0
 13 14  1  0
 13 15  1  0
 13 16  1  0
 12 17  2  0
 17 18  1  0
 18 19  2  0
 19 20  1  0
 20 21  2  0
 20 22  1  0
  7  2  1  0
 19 10  1  0
  1 23  1  0
  1 24  1  0
  1 25  1  0
  3 26  1  0
  4 27  1  0
  5 28  1  0
  6 29  1  0
  8 30  1  0
  8 31  1  0
  9 32  1  0
 11 33  1  0
 17 34  1  0
 18 35  1  0
M  CHG  2   3   1  22  -1
M  END
>  <UniqueID>  (34) 
30

>  <SMILES>  (34) 
Cc1[nH+]cccc1CNc1cc(C(F)(F)F)ccc1C(=O)[O-]

>  <Energy>  (34) 
43.42113658873188

>  <Genealogy>  (34) 
Cc1[nH+]cccc1CNc1cc(C(F)(F)F)ccc1C(=O)[O-] (protonated)
Cc1[nH+]cccc1CNc1cc(C(F)(F)F)ccc1C(=O)[O-] (3D coordinates assigned)
Cc1[nH+]cccc1CNc1cc(C(F)(F)F)ccc1C(=O)[O-] (optimized conformer: 43.42113658873188 kcal/mol)

>  <smiles>  (34) 
Cc1ncccc1CNc1cc(C(F)(F)F)ccc1C(=O)O

>  <score_type>  (34) 
oracle

>  <origin>  (34) 
adg

>  <m_score__min__energy>  (34) 
-8.8599999999999994

>  <m_primary>  (34) 
energy

$$$$
35:0
     RDKit          3D

 44 47  0  0  0  0  0  0  0  0999 V2000
   -6.6380   25.6040  -29.7150 C   0  0  0  0  0  0  0  0  0  0  0  0
   -5.5610   24.5890  -29.4910 C   0  0  0  0  0  0  0  0  0  0  0  0
   -4.7350   24.6030  -28.4280 N   0  0  0  0  0  0  0  0  0  0  0  0
   -3.9370   23.5490  -28.4940 N   0  0  0  0  0  0  0  0  0  0  0  0
   -2.8620   23.2790  -27.5390 C   0  0  0  0  0  0  0  0  0  0  0  0
   -2.1400   24.5540  -27.2040 C   0  0  0  0  0  0  0  0  0  0  0  0
   -1.2800   25.1550  -28.1400 C   0  0  0  0  0  0  0  0  0  0  0  0
   -0.6400   26.3600  -27.8350 C   0  0  0  0  0  0  0  0  0  0  0  0
   -0.8570   26.9770  -26.6000 C   0  0  0  0  0  0  0  0  0  0  0  0
   -1.7170   26.3900  -25.6680 C   0  0  0  0  0  0  0  0  0  0  0  0
   -2.3600   25.1840  -25.9680 C   0  0  0  0  0  0  0  0  0  0  0  0
   -4.2260   22.8470  -29.6110 C   0  0  0  0  0  0  0  0  0  0  0  0
   -3.3840   21.3950  -30.1380 Cl  0  0  0  0  0  0  0  0  0  0  0  0
   -5.2540   23.4880  -30.2840 C   0  0  0  0  0  0  0  0  0  0  0  0
   -5.8890   23.0640  -31.5430 C   0  0  0  0  0  0  0  0  0  0  0  0
   -5.3510   23.3740  -32.6390 O   0  0  0  0  0  0  0  0  0  0  0  0
   -7.1310   22.3470  -31.5320 N   0  0  0  0  0  0  0  0  0  0  0  0
   -8.4420   22.9960  -31.6180 C   0  0  0  0  0  0  0  0  0  0  0  0
   -9.4600   21.8740  -31.9360 C   0  0  0  0  0  0  0  0  0  0  0  0
   -8.6080   20.6580  -32.0480 C   0  0  0  0  0  0  0  0  0  0  0  0
   -9.0090   19.3500  -32.3240 C   0  0  0  0  0  0  0  0  0  0  0  0
   -8.0320   18.3430  -32.3570 C   0  0  0  0  0  0  0  0  0  0  0  0
   -6.6820   18.6560  -32.1050 C   0  0  0  0  0  0  0  0  0  0  0  0
   -6.3030   19.9790  -31.8260 C   0  0  0  0  0  0  0  0  0  0  0  0
   -7.2940   20.9670  -31.8180 C   0  0  0  0  0  0  0  0  0  0  0  0
   -7.0148   25.9591  -28.7445 H   0  0  0  0  0  0  0  0  0  0  0  0
   -6.2294   26.4530  -30.2826 H   0  0  0  0  0  0  0  0  0  0  0  0
   -7.4614   25.1458  -30.2826 H   0  0  0  0  0  0  0  0  0  0  0  0
   -4.7220   25.3180  -27.6660 H   0  0  0  0  0  0  0  0  0  0  0  0
   -3.2897   22.8504  -26.6206 H   0  0  0  0  0  0  0  0  0  0  0  0
   -2.1514   22.5684  -27.9864 H   0  0  0  0  0  0  0  0  0  0  0  0
   -1.1102   24.6756  -29.1154 H   0  0  0  0  0  0  0  0  0  0  0  0
    0.0359   26.8235  -28.5688 H   0  0  0  0  0  0  0  0  0  0  0  0
   -0.3511   27.9242  -26.3617 H   0  0  0  0  0  0  0  0  0  0  0  0
   -1.8888   26.8769  -24.6967 H   0  0  0  0  0  0  0  0  0  0  0  0
   -3.0400   24.7278  -25.2335 H   0  0  0  0  0  0  0  0  0  0  0  0
   -8.6923   23.4779  -30.6614 H   0  0  0  0  0  0  0  0  0  0  0  0
   -8.4522   23.7773  -32.3922 H   0  0  0  0  0  0  0  0  0  0  0  0
  -10.1944   21.7669  -31.1241 H   0  0  0  0  0  0  0  0  0  0  0  0
  -10.0481   22.0720  -32.8443 H   0  0  0  0  0  0  0  0  0  0  0  0
  -10.0668   19.1137  -32.5114 H   0  0  0  0  0  0  0  0  0  0  0  0
   -8.3216   17.3056  -32.5805 H   0  0  0  0  0  0  0  0  0  0  0  0
   -5.9219   17.8612  -32.1268 H   0  0  0  0  0  0  0  0  0  0  0  0
   -5.2529   20.2325  -31.6188 H   0  0  0  0  0  0  0  0  0  0  0  0
  1  2  1  0
  2  3  2  0
  3  4  1  0
  4  5  1  0
  5  6  1  0
  6  7  2  0
  7  8  1  0
  8  9  2  0
  9 10  1  0
 10 11  2  0
  4 12  1  0
 12 13  1  0
 12 14  2  0
 14 15  1  0
 15 16  2  0
 15 17  1  0
 17 18  1  0
 18 19  1  0
 19 20  1  0
 20 21  2  0
 21 22  1  0
 22 23  2  0
 23 24  1  0
 24 25  2  0
 14  2  1  0
 25 17  1  0
 11  6  1  0
 25 20  1  0
  1 26  1  0
  1 27  1  0
  1 28  1  0
  3 29  1  0
  5 30  1  0
  5 31  1  0
  7 32  1  0
  8 33  1  0
  9 34  1  0
 10 35  1  0
 11 36  1  0
 18 37  1  0
 18 38  1  0
 19 39  1  0
 19 40  1  0
 21 41  1  0
 22 42  1  0
 23 43  1  0
 24 44  1  0
M  CHG  1   3   1
M  END
>  <UniqueID>  (35) 
31

>  <SMILES>  (35) 
Cc1[nH+]n(Cc2ccccc2)c(Cl)c1C(=O)N1CCc2ccccc21

>  <Energy>  (35) 
97.01261652866305

>  <Genealogy>  (35) 
Cc1[nH+]n(Cc2ccccc2)c(Cl)c1C(=O)N1CCc2ccccc21 (protonated)
Cc1[nH+]n(Cc2ccccc2)c(Cl)c1C(=O)N1CCc2ccccc21 (3D coordinates assigned)
Cc1[nH+]n(Cc2ccccc2)c(Cl)c1C(=O)N1CCc2ccccc21 (nonaromatic ring conformer: 97.01261652866305 kcal/mol)

>  <smiles>  (35) 
Cc1nn(Cc2ccccc2)c(Cl)c1C(=O)N1CCc2ccccc21

>  <score_type>  (35) 
oracle

>  <origin>  (35) 
adg

>  <m_score__min__energy>  (35) 
-9.0399999999999991

>  <m_primary>  (35) 
energy

$$$$
36:0
     RDKit          3D

 29 31  0  0  0  0  0  0  0  0999 V2000
   -2.6480   24.5410  -29.3380 C   0  0  0  0  0  0  0  0  0  0  0  0
   -3.5130   24.8870  -30.4150 O   0  0  0  0  0  0  0  0  0  0  0  0
   -4.7640   24.2950  -30.6470 C   0  0  0  0  0  0  0  0  0  0  0  0
   -5.9720   24.9250  -30.3030 C   0  0  0  0  0  0  0  0  0  0  0  0
   -7.1910   24.2980  -30.5650 C   0  0  0  0  0  0  0  0  0  0  0  0
   -7.2270   23.0320  -31.1610 C   0  0  0  0  0  0  0  0  0  0  0  0
   -8.9500   22.3050  -31.5950 Br  0  0  0  0  0  0  0  0  0  0  0  0
   -6.0190   22.3790  -31.4910 C   0  0  0  0  0  0  0  0  0  0  0  0
   -5.9930   21.0350  -32.1020 C   0  0  0  0  0  0  0  0  0  0  0  0
   -6.5930   19.9560  -31.5280 N   0  0  0  0  0  0  0  0  0  0  0  0
   -6.3770   18.9800  -32.4270 C   0  0  0  0  0  0  0  0  0  0  0  0
   -6.7840   17.6490  -32.3550 C   0  0  0  0  0  0  0  0  0  0  0  0
   -6.4580   16.8080  -33.4370 C   0  0  0  0  0  0  0  0  0  0  0  0
   -5.7480   17.3140  -34.5500 C   0  0  0  0  0  0  0  0  0  0  0  0
   -5.3570   18.6650  -34.5910 C   0  0  0  0  0  0  0  0  0  0  0  0
   -5.6910   19.4650  -33.4990 C   0  0  0  0  0  0  0  0  0  0  0  0
   -5.4430   20.7660  -33.3150 N   0  0  0  0  0  0  0  0  0  0  0  0
   -4.7990   23.0300  -31.2440 C   0  0  0  0  0  0  0  0  0  0  0  0
   -3.1535   24.7432  -28.3822 H   0  0  0  0  0  0  0  0  0  0  0  0
   -2.3947   23.4724  -29.3999 H   0  0  0  0  0  0  0  0  0  0  0  0
   -1.7276   25.1402  -29.3999 H   0  0  0  0  0  0  0  0  0  0  0  0
   -5.9568   25.9159  -29.8255 H   0  0  0  0  0  0  0  0  0  0  0  0
   -8.1318   24.8031  -30.3008 H   0  0  0  0  0  0  0  0  0  0  0  0
   -7.3396   17.2691  -31.4849 H   0  0  0  0  0  0  0  0  0  0  0  0
   -6.7580   15.7499  -33.4158 H   0  0  0  0  0  0  0  0  0  0  0  0
   -5.4997   16.6474  -35.3891 H   0  0  0  0  0  0  0  0  0  0  0  0
   -4.8085   19.0746  -35.4521 H   0  0  0  0  0  0  0  0  0  0  0  0
   -4.9800   21.4250  -33.9790 H   0  0  0  0  0  0  0  0  0  0  0  0
   -3.8562   22.5375  -31.5244 H   0  0  0  0  0  0  0  0  0  0  0  0
  1  2  1  0
  2  3  1  0
  3  4  2  0
  4  5  1  0
  5  6  2  0
  6  7  1  0
  6  8  1  0
  8  9  1  0
  9 10  2  0
 10 11  1  0
 11 12  2  0
 12 13  1  0
 13 14  2  0
 14 15  1  0
 15 16  2  0
 16 17  1  0
  8 18  2  0
 18  3  1  0
 17  9  1  0
 16 11  1  0
  1 19  1  0
  1 20  1  0
  1 21  1  0
  4 22  1  0
  5 23  1  0
 12 24  1  0
 13 25  1  0
 14 26  1  0
 15 27  1  0
 17 28  1  0
 18 29  1  0
M  END
>  <UniqueID>  (36) 
32

>  <SMILES>  (36) 
COc1ccc(Br)c(-c2nc3ccccc3[nH]2)c1

>  <Energy>  (36) 
73.30455929281193

>  <Genealogy>  (36) 
COc1ccc(Br)c(-c2nc3ccccc3[nH]2)c1 (3D coordinates assigned)
COc1ccc(Br)c(-c2nc3ccccc3[nH]2)c1 (optimized conformer: 73.30455929281193 kcal/mol)

>  <smiles>  (36) 
COc1ccc(Br)c(-c2nc3ccccc3[nH]2)c1

>  <score_type>  (36) 
oracle

>  <origin>  (36) 
adg

>  <m_score__min__energy>  (36) 
-8.3200000000000003

>  <m_primary>  (36) 
energy

$$$$
37:0
     RDKit          3D

 35 37  0  0  0  0  0  0  0  0999 V2000
   -4.9960   17.8810  -33.1130 C   0  0  0  0  0  0  0  0  0  0  0  0
   -5.8510   19.0980  -32.9580 C   0  0  0  0  0  0  0  0  0  0  0  0
   -5.4660   20.3290  -33.3490 N   0  0  0  0  0  0  0  0  0  0  0  0
   -6.4870   21.1330  -33.0990 N   0  0  0  0  0  0  0  0  0  0  0  0
   -7.4810   20.3990  -32.5610 C   0  0  0  0  0  0  0  0  0  0  0  0
   -8.8410   20.9540  -32.1750 C   0  0  0  0  0  0  0  0  0  0  0  0
   -8.7860   22.1430  -31.2890 N   0  0  0  0  0  0  0  0  0  0  0  0
   -8.2620   23.3530  -31.9730 C   0  0  0  0  0  0  0  0  0  0  0  0
   -6.9700   23.6390  -31.3170 C   0  0  0  0  0  0  0  0  0  0  0  0
   -5.9870   24.5660  -31.6450 C   0  0  0  0  0  0  0  0  0  0  0  0
   -4.8770   24.6370  -30.8570 N   0  0  0  0  0  0  0  0  0  0  0  0
   -4.7350   23.8300  -29.7600 C   0  0  0  0  0  0  0  0  0  0  0  0
   -3.4920   23.9040  -28.9370 C   0  0  0  0  0  0  0  0  0  0  0  0
   -2.7290   24.9800  -29.3490 F   0  0  0  0  0  0  0  0  0  0  0  0
   -5.7040   22.9190  -29.4500 N   0  0  0  0  0  0  0  0  0  0  0  0
   -6.8070   22.8420  -30.2340 C   0  0  0  0  0  0  0  0  0  0  0  0
   -7.9650   21.9420  -30.0660 C   0  0  0  0  0  0  0  0  0  0  0  0
   -7.1050   19.1050  -32.4500 N   0  0  0  0  0  0  0  0  0  0  0  0
   -7.9190   17.9480  -32.0770 C   0  0  0  0  0  0  0  0  0  0  0  0
   -4.7246   17.4946  -32.1195 H   0  0  0  0  0  0  0  0  0  0  0  0
   -5.5522   17.1103  -33.6668 H   0  0  0  0  0  0  0  0  0  0  0  0
   -4.0823   18.1429  -33.6668 H   0  0  0  0  0  0  0  0  0  0  0  0
   -6.4970   22.1490  -33.3280 H   0  0  0  0  0  0  0  0  0  0  0  0
   -9.3725   21.2350  -33.0961 H   0  0  0  0  0  0  0  0  0  0  0  0
   -9.3551   20.1630  -31.6093 H   0  0  0  0  0  0  0  0  0  0  0  0
   -8.1152   23.1569  -33.0454 H   0  0  0  0  0  0  0  0  0  0  0  0
   -8.9580   24.2016  -31.8984 H   0  0  0  0  0  0  0  0  0  0  0  0
   -6.1021   25.2252  -32.5180 H   0  0  0  0  0  0  0  0  0  0  0  0
   -3.7607   24.0295  -27.8777 H   0  0  0  0  0  0  0  0  0  0  0  0
   -2.9144   22.9762  -29.0618 H   0  0  0  0  0  0  0  0  0  0  0  0
   -7.6342   20.8957  -29.9896 H   0  0  0  0  0  0  0  0  0  0  0  0
   -8.5296   22.1605  -29.1476 H   0  0  0  0  0  0  0  0  0  0  0  0
   -7.9709   17.8743  -30.9807 H   0  0  0  0  0  0  0  0  0  0  0  0
   -8.9336   18.0667  -32.4849 H   0  0  0  0  0  0  0  0  0  0  0  0
   -7.4645   17.0331  -32.4849 H   0  0  0  0  0  0  0  0  0  0  0  0
  1  2  1  0
  2  3  2  0
  3  4  1  0
  4  5  2  0
  5  6  1  0
  6  7  1  0
  7  8  1  0
  8  9  1  0
  9 10  2  0
 10 11  1  0
 11 12  2  0
 12 13  1  0
 13 14  1  0
 12 15  1  0
 15 16  2  0
 16 17  1  0
  5 18  1  0
 18 19  1  0
 18  2  1  0
 17  7  1  0
 16  9  1  0
  1 20  1  0
  1 21  1  0
  1 22  1  0
  4 23  1  0
  6 24  1  0
  6 25  1  0
  8 26  1  0
  8 27  1  0
 10 28  1  0
 13 29  1  0
 13 30  1  0
 17 31  1  0
 17 32  1  0
 19 33  1  0
 19 34  1  0
 19 35  1  0
M  CHG  1   4   1
M  END
>  <UniqueID>  (37) 
33

>  <SMILES>  (37) 
Cc1n[nH+]c(CN2Cc3cnc(CF)nc3C2)n1C

>  <Energy>  (37) 
87.13809305418943

>  <Genealogy>  (37) 
Cc1n[nH+]c(CN2Cc3cnc(CF)nc3C2)n1C (protonated)
Cc1n[nH+]c(CN2Cc3cnc(CF)nc3C2)n1C (3D coordinates assigned)
Cc1n[nH+]c(CN2Cc3cnc(CF)nc3C2)n1C (nonaromatic ring conformer: 87.13809305418943 kcal/mol)

>  <smiles>  (37) 
Cc1nnc(CN2Cc3cnc(CF)nc3C2)n1C

>  <score_type>  (37) 
oracle

>  <origin>  (37) 
adg

>  <m_score__min__energy>  (37) 
-6.6600000000000001

>  <m_primary>  (37) 
energy

$$$$
38:0
     RDKit          3D

 36 36  0  0  0  0  0  0  0  0999 V2000
   -6.4190   25.6630  -29.4050 C   0  0  0  0  0  0  0  0  0  0  0  0
   -5.7460   24.3300  -29.7560 C   0  0  2  0  0  0  0  0  0  0  0  0
   -4.4900   24.5150  -30.5630 C   0  0  0  0  0  0  0  0  0  0  0  0
   -4.0510   25.6700  -30.8160 O   0  0  0  0  0  0  0  0  0  0  0  0
   -3.8590   23.3830  -31.0920 O   0  0  0  0  0  0  0  0  0  0  0  0
   -3.6580   22.1780  -30.3570 C   0  0  0  0  0  0  0  0  0  0  0  0
   -4.0080   20.9360  -31.2030 C   0  0  0  0  0  0  0  0  0  0  0  0
   -4.2150   21.2480  -32.6390 N   0  0  0  0  0  0  0  0  0  0  0  0
   -2.9590   21.1630  -33.4090 C   0  0  0  0  0  0  0  0  0  0  0  0
   -5.2040   20.3190  -33.2130 C   0  0  0  0  0  0  0  0  0  0  0  0
   -6.6970   23.4070  -30.4880 C   0  0  0  0  0  0  0  0  0  0  0  0
   -6.7030   23.3700  -31.8940 C   0  0  0  0  0  0  0  0  0  0  0  0
   -7.5990   22.5430  -32.5770 C   0  0  0  0  0  0  0  0  0  0  0  0
   -8.4970   21.7430  -31.8660 C   0  0  0  0  0  0  0  0  0  0  0  0
   -8.5000   21.7700  -30.4690 C   0  0  0  0  0  0  0  0  0  0  0  0
   -7.6070   22.5960  -29.7810 C   0  0  0  0  0  0  0  0  0  0  0  0
   -6.4729   25.7698  -28.3115 H   0  0  0  0  0  0  0  0  0  0  0  0
   -5.8316   26.4923  -29.8259 H   0  0  0  0  0  0  0  0  0  0  0  0
   -7.4351   25.6828  -29.8259 H   0  0  0  0  0  0  0  0  0  0  0  0
   -5.4652   23.8672  -28.7984 H   0  0  0  0  0  0  0  0  0  0  0  0
   -2.6030   22.1170  -30.0517 H   0  0  0  0  0  0  0  0  0  0  0  0
   -4.3191   22.1949  -29.4780 H   0  0  0  0  0  0  0  0  0  0  0  0
   -3.1850   20.2112  -31.1175 H   0  0  0  0  0  0  0  0  0  0  0  0
   -4.9551   20.5322  -30.8157 H   0  0  0  0  0  0  0  0  0  0  0  0
   -4.6000   22.2180  -32.7360 H   0  0  0  0  0  0  0  0  0  0  0  0
   -2.1070   21.1053  -32.7156 H   0  0  0  0  0  0  0  0  0  0  0  0
   -2.9775   20.2641  -34.0427 H   0  0  0  0  0  0  0  0  0  0  0  0
   -2.8562   22.0562  -34.0427 H   0  0  0  0  0  0  0  0  0  0  0  0
   -5.7446   19.8112  -32.4007 H   0  0  0  0  0  0  0  0  0  0  0  0
   -5.9178   20.8807  -33.8334 H   0  0  0  0  0  0  0  0  0  0  0  0
   -4.6880   19.5715  -33.8334 H   0  0  0  0  0  0  0  0  0  0  0  0
   -5.9976   23.9963  -32.4599 H   0  0  0  0  0  0  0  0  0  0  0  0
   -7.5972   22.5219  -33.6768 H   0  0  0  0  0  0  0  0  0  0  0  0
   -9.2011   21.0924  -32.4055 H   0  0  0  0  0  0  0  0  0  0  0  0
   -9.2068   21.1397  -29.9095 H   0  0  0  0  0  0  0  0  0  0  0  0
   -7.6145   22.6132  -28.6812 H   0  0  0  0  0  0  0  0  0  0  0  0
  1  2  1  0
  2  3  1  0
  3  4  2  0
  3  5  1  0
  5  6  1  0
  6  7  1  0
  7  8  1  0
  8  9  1  0
  8 10  1  0
  2 11  1  0
 11 12  2  0
 12 13  1  0
 13 14  2  0
 14 15  1  0
 15 16  2  0
 16 11  1  0
  1 17  1  0
  1 18  1  0
  1 19  1  0
  2 20  1  1
  6 21  1  0
  6 22  1  0
  7 23  1  0
  7 24  1  0
  8 25  1  0
  9 26  1  0
  9 27  1  0
  9 28  1  0
 10 29  1  0
 10 30  1  0
 10 31  1  0
 12 32  1  0
 13 33  1  0
 14 34  1  0
 15 35  1  0
 16 36  1  0
M  CHG  1   8   1
M  END
>  <UniqueID>  (38) 
34

>  <SMILES>  (38) 
C[C@H](C(=O)OCC[NH+](C)C)c1ccccc1

>  <Energy>  (38) 
28.99479360449539

>  <Genealogy>  (38) 
CC(C(=O)OCC[NH+](C)C)c1ccccc1 (protonated)
C[C@H](C(=O)OCC[NH+](C)C)c1ccccc1 (chirality)
C[C@H](C(=O)OCC[NH+](C)C)c1ccccc1 (3D coordinates assigned)
C[C@H](C(=O)OCC[NH+](C)C)c1ccccc1 (optimized conformer: 28.99479360449539 kcal/mol)

>  <smiles>  (38) 
CC(C(=O)OCCN(C)C)c1ccccc1

>  <score_type>  (38) 
oracle

>  <origin>  (38) 
adg

>  <m_score__min__energy>  (38) 
-4.9800000000000004

>  <m_primary>  (38) 
energy

$$$$
39:0
     RDKit          3D

 42 44  0  0  0  0  0  0  0  0999 V2000
   -4.4010   14.1310  -32.1270 C   0  0  0  0  0  0  0  0  0  0  0  0
   -4.4730   15.1660  -33.1020 O   0  0  0  0  0  0  0  0  0  0  0  0
   -5.2170   16.3450  -32.9520 C   0  0  0  0  0  0  0  0  0  0  0  0
   -5.7350   16.6480  -31.6860 C   0  0  0  0  0  0  0  0  0  0  0  0
   -6.4830   17.8100  -31.4850 C   0  0  0  0  0  0  0  0  0  0  0  0
   -6.7230   18.6910  -32.5500 C   0  0  0  0  0  0  0  0  0  0  0  0
   -7.4870   19.8930  -32.3410 N   0  0  0  0  0  0  0  0  0  0  0  0
   -8.9250   19.8490  -32.4340 C   0  0  0  0  0  0  0  0  0  0  0  0
   -9.5210   18.7720  -32.7110 O   0  0  0  0  0  0  0  0  0  0  0  0
   -9.7250   21.1010  -32.2300 C   0  0  0  0  0  0  0  0  0  0  0  0
   -9.0880   21.9600  -31.1360 C   0  0  0  0  0  0  0  0  0  0  0  0
   -7.6180   22.1730  -31.3950 C   0  0  0  0  0  0  0  0  0  0  0  0
   -7.0040   23.3720  -31.0060 C   0  0  0  0  0  0  0  0  0  0  0  0
   -5.6260   23.5690  -31.2080 C   0  0  0  0  0  0  0  0  0  0  0  0
   -4.9820   24.7610  -30.8370 O   0  0  0  0  0  0  0  0  0  0  0  0
   -5.5980   25.8200  -30.1110 C   0  0  0  0  0  0  0  0  0  0  0  0
   -4.8590   22.5550  -31.7990 C   0  0  0  0  0  0  0  0  0  0  0  0
   -3.4880   22.7880  -31.9970 O   0  0  0  0  0  0  0  0  0  0  0  0
   -2.4830   21.7810  -31.9460 C   0  0  0  0  0  0  0  0  0  0  0  0
   -5.4730   21.3450  -32.1740 C   0  0  0  0  0  0  0  0  0  0  0  0
   -6.8470   21.1350  -31.9560 C   0  0  0  0  0  0  0  0  0  0  0  0
   -6.2080   18.3920  -33.8200 C   0  0  0  0  0  0  0  0  0  0  0  0
   -5.4590   17.2280  -34.0220 C   0  0  0  0  0  0  0  0  0  0  0  0
   -4.4317   14.5730  -31.1202 H   0  0  0  0  0  0  0  0  0  0  0  0
   -5.2538   13.4479  -32.2538 H   0  0  0  0  0  0  0  0  0  0  0  0
   -3.4618   13.5725  -32.2538 H   0  0  0  0  0  0  0  0  0  0  0  0
   -5.5510   15.9651  -30.8435 H   0  0  0  0  0  0  0  0  0  0  0  0
   -6.8860   18.0356  -30.4867 H   0  0  0  0  0  0  0  0  0  0  0  0
   -9.7536   21.6716  -33.1700 H   0  0  0  0  0  0  0  0  0  0  0  0
  -10.7466   20.8297  -31.9254 H   0  0  0  0  0  0  0  0  0  0  0  0
   -9.5924   22.9371  -31.1081 H   0  0  0  0  0  0  0  0  0  0  0  0
   -9.1996   21.4376  -30.1744 H   0  0  0  0  0  0  0  0  0  0  0  0
   -7.6053   24.1657  -30.5387 H   0  0  0  0  0  0  0  0  0  0  0  0
   -5.4908   25.6356  -29.0319 H   0  0  0  0  0  0  0  0  0  0  0  0
   -5.1132   26.7728  -30.3702 H   0  0  0  0  0  0  0  0  0  0  0  0
   -6.6659   25.8696  -30.3702 H   0  0  0  0  0  0  0  0  0  0  0  0
   -2.2504   21.5479  -30.8964 H   0  0  0  0  0  0  0  0  0  0  0  0
   -2.8467   20.8740  -32.4511 H   0  0  0  0  0  0  0  0  0  0  0  0
   -1.5753   22.1429  -32.4511 H   0  0  0  0  0  0  0  0  0  0  0  0
   -4.8707   20.5534  -32.6436 H   0  0  0  0  0  0  0  0  0  0  0  0
   -6.3940   19.0761  -34.6611 H   0  0  0  0  0  0  0  0  0  0  0  0
   -5.0574   17.0015  -35.0207 H   0  0  0  0  0  0  0  0  0  0  0  0
  1  2  1  0
  2  3  1  0
  3  4  2  0
  4  5  1  0
  5  6  2  0
  6  7  1  0
  7  8  1  0
  8  9  2  0
  8 10  1  0
 10 11  1  0
 11 12  1  0
 12 13  2  0
 13 14  1  0
 14 15  1  0
 15 16  1  0
 14 17  2  0
 17 18  1  0
 18 19  1  0
 17 20  1  0
 20 21  2  0
  6 22  1  0
 22 23  2  0
 23  3  1  0
 21  7  1  0
 21 12  1  0
  1 24  1  0
  1 25  1  0
  1 26  1  0
  4 27  1  0
  5 28  1  0
 10 29  1  0
 10 30  1  0
 11 31  1  0
 11 32  1  0
 13 33  1  0
 16 34  1  0
 16 35  1  0
 16 36  1  0
 19 37  1  0
 19 38  1  0
 19 39  1  0
 20 40  1  0
 22 41  1  0
 23 42  1  0
M  END
>  <UniqueID>  (39) 
35

>  <SMILES>  (39) 
COc1ccc(N2C(=O)CCc3cc(OC)c(OC)cc32)cc1

>  <Energy>  (39) 
50.43328911819487

>  <Genealogy>  (39) 
COc1ccc(N2C(=O)CCc3cc(OC)c(OC)cc32)cc1 (3D coordinates assigned)
COc1ccc(N2C(=O)CCc3cc(OC)c(OC)cc32)cc1 (nonaromatic ring conformer: 50.43328911819487 kcal/mol)

>  <smiles>  (39) 
COc1ccc(N2C(=O)CCc3cc(OC)c(OC)cc32)cc1

>  <score_type>  (39) 
oracle

>  <origin>  (39) 
adg

>  <m_score__min__energy>  (39) 
-8.1300000000000008

>  <m_primary>  (39) 
energy

$$$$
40:0
     RDKit          3D

 41 41  0  0  0  0  0  0  0  0999 V2000
   -6.5872   24.8440  -31.5593 H   0  0  0  0  0  0  0  0  0  0  0  0
   -5.8010   24.1440  -31.2400 C   0  0  0  0  0  0  0  0  0  0  0  0
   -4.8670   24.5970  -30.1930 C   0  0  0  0  0  0  0  0  0  0  0  0
   -3.8710   25.2910  -30.5320 O   0  0  0  0  0  0  0  0  0  0  0  0
   -5.0230   24.1820  -28.8260 N   0  0  0  0  0  0  0  0  0  0  0  0
   -5.7320   23.4500  -28.6000 H   0  0  0  0  0  0  0  0  0  0  0  0
   -4.0600   24.5460  -27.7870 C   0  0  0  0  0  0  0  0  0  0  0  0
   -4.1339   25.6263  -27.5936 H   0  0  0  0  0  0  0  0  0  0  0  0
   -4.2954   23.9694  -26.8803 H   0  0  0  0  0  0  0  0  0  0  0  0
   -2.6140   24.2100  -28.2140 C   0  0  0  0  0  0  0  0  0  0  0  0
   -2.4157   24.7256  -29.1652 H   0  0  0  0  0  0  0  0  0  0  0  0
   -1.9751   24.5393  -27.3813 H   0  0  0  0  0  0  0  0  0  0  0  0
   -2.2940   22.6960  -28.4160 C   0  0  0  0  0  0  0  0  0  0  0  0
   -3.4150   21.8030  -27.8500 C   0  0  0  0  0  0  0  0  0  0  0  0
   -3.3838   21.8279  -26.7507 H   0  0  0  0  0  0  0  0  0  0  0  0
   -4.3903   22.1743  -28.1976 H   0  0  0  0  0  0  0  0  0  0  0  0
   -3.2711   20.7693  -28.1976 H   0  0  0  0  0  0  0  0  0  0  0  0
   -0.9860   22.3760  -27.6590 C   0  0  0  0  0  0  0  0  0  0  0  0
   -1.1692   22.4208  -26.5753 H   0  0  0  0  0  0  0  0  0  0  0  0
   -0.6421   21.3672  -27.9313 H   0  0  0  0  0  0  0  0  0  0  0  0
   -0.2153   23.1121  -27.9313 H   0  0  0  0  0  0  0  0  0  0  0  0
   -2.0790   22.3670  -29.9110 C   0  0  0  0  0  0  0  0  0  0  0  0
   -1.4793   21.4493  -30.0019 H   0  0  0  0  0  0  0  0  0  0  0  0
   -3.0542   22.2174  -30.3975 H   0  0  0  0  0  0  0  0  0  0  0  0
   -1.5505   23.2001  -30.3975 H   0  0  0  0  0  0  0  0  0  0  0  0
   -5.7620   22.9340  -31.8350 C   0  0  0  0  0  0  0  0  0  0  0  0
   -7.0020   22.1200  -31.9360 C   0  0  0  0  0  0  0  0  0  0  0  0
   -6.9640   20.7980  -32.4200 C   0  0  0  0  0  0  0  0  0  0  0  0
   -6.0040   20.3534  -32.7212 H   0  0  0  0  0  0  0  0  0  0  0  0
   -8.1400   20.0470  -32.5200 C   0  0  0  0  0  0  0  0  0  0  0  0
   -8.1016   19.0140  -32.8961 H   0  0  0  0  0  0  0  0  0  0  0  0
   -9.3630   20.6070  -32.1430 C   0  0  0  0  0  0  0  0  0  0  0  0
  -10.2867   20.0150  -32.2225 H   0  0  0  0  0  0  0  0  0  0  0  0
   -9.4130   21.9190  -31.6650 C   0  0  0  0  0  0  0  0  0  0  0  0
  -10.3767   22.3587  -31.3683 H   0  0  0  0  0  0  0  0  0  0  0  0
   -8.2410   22.6740  -31.5630 C   0  0  0  0  0  0  0  0  0  0  0  0
   -8.2873   23.7074  -31.1889 H   0  0  0  0  0  0  0  0  0  0  0  0
   -4.4840   22.3690  -32.4030 C   0  0  0  0  0  0  0  0  0  0  0  0
   -3.8161   22.0737  -31.5803 H   0  0  0  0  0  0  0  0  0  0  0  0
   -4.7151   21.4892  -33.0215 H   0  0  0  0  0  0  0  0  0  0  0  0
   -3.9888   23.1321  -33.0215 H   0  0  0  0  0  0  0  0  0  0  0  0
  1  2  1  0
  2  3  1  0
  3  4  2  0
  3  5  1  0
  5  6  1  0
  5  7  1  0
  7  8  1  0
  7  9  1  0
  7 10  1  0
 10 11  1  0
 10 12  1  0
 10 13  1  0
 13 14  1  0
 14 15  1  0
 14 16  1  0
 14 17  1  0
 13 18  1  0
 18 19  1  0
 18 20  1  0
 18 21  1  0
 13 22  1  0
 22 23  1  0
 22 24  1  0
 22 25  1  0
  2 26  2  0
 26 27  1  0
 27 28  2  0
 28 29  1  0
 28 30  1  0
 30 31  1  0
 30 32  2  0
 32 33  1  0
 32 34  1  0
 34 35  1  0
 34 36  2  0
 36 37  1  0
 26 38  1  0
 38 39  1  0
 38 40  1  0
 38 41  1  0
 36 27  1  0
M  END
>  <UniqueID>  (40) 
36

>  <SMILES>  (40) 
C/C(=C\C(=O)NCCC(C)(C)C)c1ccccc1

>  <Energy>  (40) 
41.46903941681896

>  <Genealogy>  (40) 
C/C(=C\C(=O)NCCC(C)(C)C)c1ccccc1 (cis-trans isomerization)
C/C(=C\C(=O)NCCC(C)(C)C)c1ccccc1 (3D coordinates assigned)
C/C(=C\C(=O)NCCC(C)(C)C)c1ccccc1 (optimized conformer: 41.46903941681896 kcal/mol)

>  <smiles>  (40) 
CC(=CC(=O)NCCC(C)(C)C)c1ccccc1

>  <score_type>  (40) 
oracle

>  <origin>  (40) 
adg

>  <m_score__min__energy>  (40) 
-7.5599999999999996

>  <m_primary>  (40) 
energy

$$$$
41:0
     RDKit          3D

 56 59  0  0  0  0  0  0  0  0999 V2000
   -4.0410   23.1160  -28.5100 C   0  0  0  0  0  0  0  0  0  0  0  0
   -3.8510   24.4810  -29.1570 C   0  0  0  0  0  0  0  0  0  0  0  0
   -4.1660   24.3900  -30.6010 N   0  0  0  0  0  0  0  0  0  0  0  0
   -5.5080   24.8960  -30.9540 C   0  0  0  0  0  0  0  0  0  0  0  0
   -6.1770   25.5220  -29.7340 C   0  0  0  0  0  0  0  0  0  0  0  0
   -3.8650   23.0650  -31.1860 C   0  0  0  0  0  0  0  0  0  0  0  0
   -4.7560   22.6820  -32.3980 C   0  0  0  0  0  0  0  0  0  0  0  0
   -4.4960   21.3070  -32.8660 N   0  0  0  0  0  0  0  0  0  0  0  0
   -3.2850   20.8370  -33.2870 C   0  0  0  0  0  0  0  0  0  0  0  0
   -2.0910   21.5480  -33.4900 C   0  0  0  0  0  0  0  0  0  0  0  0
   -0.9370   20.8440  -33.9110 C   0  0  0  0  0  0  0  0  0  0  0  0
    0.2910   21.4910  -34.1150 O   0  0  0  0  0  0  0  0  0  0  0  0
    0.8330   21.8130  -35.3920 C   0  0  0  0  0  0  0  0  0  0  0  0
   -1.0010   19.4490  -34.1360 C   0  0  0  0  0  0  0  0  0  0  0  0
    0.1660   18.7880  -34.5520 O   0  0  0  0  0  0  0  0  0  0  0  0
    1.2420   18.4340  -33.6890 C   0  0  0  0  0  0  0  0  0  0  0  0
   -2.2180   18.7590  -33.9410 C   0  0  0  0  0  0  0  0  0  0  0  0
   -3.3290   19.4870  -33.5220 C   0  0  0  0  0  0  0  0  0  0  0  0
   -4.6130   19.0870  -33.2620 C   0  0  0  0  0  0  0  0  0  0  0  0
   -5.1630   17.8120  -33.3210 C   0  0  0  0  0  0  0  0  0  0  0  0
   -6.5090   17.6590  -32.9930 C   0  0  0  0  0  0  0  0  0  0  0  0
   -7.2960   18.7750  -32.6430 C   0  0  0  0  0  0  0  0  0  0  0  0
   -8.6560   18.5800  -32.3500 C   0  0  0  0  0  0  0  0  0  0  0  0
   -9.4730   19.6650  -32.0440 C   0  0  0  0  0  0  0  0  0  0  0  0
   -8.9480   20.9540  -32.0420 C   0  0  0  0  0  0  0  0  0  0  0  0
   -7.5980   21.1710  -32.3260 C   0  0  0  0  0  0  0  0  0  0  0  0
   -6.7300   20.0910  -32.6030 C   0  0  0  0  0  0  0  0  0  0  0  0
   -5.3340   20.2150  -32.8880 C   0  0  0  0  0  0  0  0  0  0  0  0
   -4.0260   23.2238  -27.4154 H   0  0  0  0  0  0  0  0  0  0  0  0
   -5.0067   22.6928  -28.8236 H   0  0  0  0  0  0  0  0  0  0  0  0
   -3.2276   22.4452  -28.8236 H   0  0  0  0  0  0  0  0  0  0  0  0
   -4.5230   25.2097  -28.6802 H   0  0  0  0  0  0  0  0  0  0  0  0
   -2.8080   24.8060  -29.0286 H   0  0  0  0  0  0  0  0  0  0  0  0
   -5.4131   25.6547  -31.7448 H   0  0  0  0  0  0  0  0  0  0  0  0
   -6.1245   24.0567  -31.3083 H   0  0  0  0  0  0  0  0  0  0  0  0
   -5.7322   25.1058  -28.8180 H   0  0  0  0  0  0  0  0  0  0  0  0
   -6.0269   26.6116  -29.7522 H   0  0  0  0  0  0  0  0  0  0  0  0
   -7.2542   25.2999  -29.7522 H   0  0  0  0  0  0  0  0  0  0  0  0
   -2.8159   23.0652  -31.5167 H   0  0  0  0  0  0  0  0  0  0  0  0
   -4.0668   22.3218  -30.4006 H   0  0  0  0  0  0  0  0  0  0  0  0
   -5.8121   22.7617  -32.1010 H   0  0  0  0  0  0  0  0  0  0  0  0
   -4.5200   23.3706  -33.2227 H   0  0  0  0  0  0  0  0  0  0  0  0
   -2.0530   22.6348  -33.3245 H   0  0  0  0  0  0  0  0  0  0  0  0
    1.7720   22.3709  -35.2617 H   0  0  0  0  0  0  0  0  0  0  0  0
    1.0315   20.8863  -35.9503 H   0  0  0  0  0  0  0  0  0  0  0  0
    0.1141   22.4306  -35.9503 H   0  0  0  0  0  0  0  0  0  0  0  0
    0.9220   18.5393  -32.6418 H   0  0  0  0  0  0  0  0  0  0  0  0
    1.5369   17.3915  -33.8793 H   0  0  0  0  0  0  0  0  0  0  0  0
    2.0983   19.0978  -33.8793 H   0  0  0  0  0  0  0  0  0  0  0  0
   -2.2865   17.6751  -34.1155 H   0  0  0  0  0  0  0  0  0  0  0  0
   -4.5524   16.9468  -33.6186 H   0  0  0  0  0  0  0  0  0  0  0  0
   -6.9620   16.6567  -33.0074 H   0  0  0  0  0  0  0  0  0  0  0  0
   -9.0779   17.5642  -32.3624 H   0  0  0  0  0  0  0  0  0  0  0  0
  -10.5342   19.5034  -31.8036 H   0  0  0  0  0  0  0  0  0  0  0  0
   -9.6019   21.8089  -31.8148 H   0  0  0  0  0  0  0  0  0  0  0  0
   -7.2044   22.1982  -32.3342 H   0  0  0  0  0  0  0  0  0  0  0  0
  1  2  1  0
  2  3  1  0
  3  4  1  0
  4  5  1  0
  3  6  1  0
  6  7  1  0
  7  8  1  0
  8  9  1  0
  9 10  2  0
 10 11  1  0
 11 12  1  0
 12 13  1  0
 11 14  2  0
 14 15  1  0
 15 16  1  0
 14 17  1  0
 17 18  2  0
 18 19  1  0
 19 20  2  0
 20 21  1  0
 21 22  2  0
 22 23  1  0
 23 24  2  0
 24 25  1  0
 25 26  2  0
 26 27  1  0
 27 28  2  0
 28  8  1  0
 18  9  1  0
 28 19  1  0
 27 22  1  0
  1 29  1  0
  1 30  1  0
  1 31  1  0
  2 32  1  0
  2 33  1  0
  4 34  1  0
  4 35  1  0
  5 36  1  0
  5 37  1  0
  5 38  1  0
  6 39  1  0
  6 40  1  0
  7 41  1  0
  7 42  1  0
 10 43  1  0
 13 44  1  0
 13 45  1  0
 13 46  1  0
 16 47  1  0
 16 48  1  0
 16 49  1  0
 17 50  1  0
 20 51  1  0
 21 52  1  0
 23 53  1  0
 24 54  1  0
 25 55  1  0
 26 56  1  0
M  END
>  <UniqueID>  (41) 
37

>  <SMILES>  (41) 
CCN(CC)CCn1c2cc(OC)c(OC)cc2c2ccc3ccccc3c21

>  <Energy>  (41) 
113.0590209371482

>  <Genealogy>  (41) 
CCN(CC)CCn1c2cc(OC)c(OC)cc2c2ccc3ccccc3c21 (3D coordinates assigned)
CCN(CC)CCn1c2cc(OC)c(OC)cc2c2ccc3ccccc3c21 (optimized conformer: 113.0590209371482 kcal/mol)

>  <smiles>  (41) 
CCN(CC)CCn1c2cc(OC)c(OC)cc2c2ccc3ccccc3c21

>  <score_type>  (41) 
oracle

>  <origin>  (41) 
adg

>  <m_score__min__energy>  (41) 
-9.0700000000000003

>  <m_primary>  (41) 
energy

$$$$
42:0
     RDKit          3D

 53 56  0  0  0  0  0  0  0  0999 V2000
   -2.3450   24.5180  -29.0500 C   0  0  0  0  0  0  0  0  0  0  0  0
   -3.1570   24.9200  -30.1510 O   0  0  0  0  0  0  0  0  0  0  0  0
   -4.4810   24.5160  -30.3800 C   0  0  0  0  0  0  0  0  0  0  0  0
   -5.5520   25.3160  -29.9250 C   0  0  0  0  0  0  0  0  0  0  0  0
   -6.8730   24.9210  -30.0930 C   0  0  0  0  0  0  0  0  0  0  0  0
   -7.1550   23.7340  -30.7400 C   0  0  0  0  0  0  0  0  0  0  0  0
   -6.1160   22.9360  -31.2280 C   0  0  0  0  0  0  0  0  0  0  0  0
   -4.7610   23.2920  -31.0580 C   0  0  0  0  0  0  0  0  0  0  0  0
   -3.7100   22.4100  -31.5650 N   0  0  0  0  0  0  0  0  0  0  0  0
   -3.6010   22.1970  -33.0300 C   0  0  0  0  0  0  0  0  0  0  0  0
   -2.3560   21.3940  -33.4670 C   0  0  0  0  0  0  0  0  0  0  0  0
   -1.9530   20.3500  -32.5190 N   0  0  0  0  0  0  0  0  0  0  0  0
   -2.9040   19.2100  -32.4650 C   0  0  0  0  0  0  0  0  0  0  0  0
   -2.6950   18.2520  -33.6450 C   0  0  0  0  0  0  0  0  0  0  0  0
   -3.0620   16.8080  -33.3010 C   0  0  0  0  0  0  0  0  0  0  0  0
   -4.5030   16.2580  -34.2910 S   0  0  0  0  0  0  0  0  0  0  0  0
   -5.5980   17.5310  -33.6490 C   0  0  0  0  0  0  0  0  0  0  0  0
   -6.5130   17.3020  -32.6800 N   0  0  0  0  0  0  0  0  0  0  0  0
   -7.2600   18.4040  -32.4370 C   0  0  0  0  0  0  0  0  0  0  0  0
   -8.3330   18.4530  -31.5430 C   0  0  0  0  0  0  0  0  0  0  0  0
   -9.0310   19.6630  -31.4060 C   0  0  0  0  0  0  0  0  0  0  0  0
   -8.6700   20.7910  -32.1710 C   0  0  0  0  0  0  0  0  0  0  0  0
   -7.6160   20.7150  -33.0930 C   0  0  0  0  0  0  0  0  0  0  0  0
   -6.9220   19.5160  -33.1930 C   0  0  0  0  0  0  0  0  0  0  0  0
   -5.6510   19.1250  -34.2170 S   0  0  0  0  0  0  0  0  0  0  0  0
   -1.6940   20.9540  -31.2070 C   0  0  0  0  0  0  0  0  0  0  0  0
   -2.9650   21.5590  -30.6160 C   0  0  0  0  0  0  0  0  0  0  0  0
   -2.8539   24.7699  -28.1079 H   0  0  0  0  0  0  0  0  0  0  0  0
   -2.1759   23.4321  -29.0964 H   0  0  0  0  0  0  0  0  0  0  0  0
   -1.3789   25.0419  -29.0964 H   0  0  0  0  0  0  0  0  0  0  0  0
   -5.3355   26.2725  -29.4268 H   0  0  0  0  0  0  0  0  0  0  0  0
   -7.6907   25.5507  -29.7125 H   0  0  0  0  0  0  0  0  0  0  0  0
   -8.1997   23.4156  -30.8717 H   0  0  0  0  0  0  0  0  0  0  0  0
   -6.3615   22.0046  -31.7593 H   0  0  0  0  0  0  0  0  0  0  0  0
   -4.4964   21.6536  -33.3662 H   0  0  0  0  0  0  0  0  0  0  0  0
   -3.5078   23.1936  -33.4861 H   0  0  0  0  0  0  0  0  0  0  0  0
   -2.5746   20.9169  -34.4337 H   0  0  0  0  0  0  0  0  0  0  0  0
   -1.5219   22.1089  -33.5246 H   0  0  0  0  0  0  0  0  0  0  0  0
   -2.7502   18.6595  -31.5252 H   0  0  0  0  0  0  0  0  0  0  0  0
   -3.9275   19.6093  -32.5196 H   0  0  0  0  0  0  0  0  0  0  0  0
   -3.3229   18.5848  -34.4847 H   0  0  0  0  0  0  0  0  0  0  0  0
   -1.6264   18.2716  -33.9054 H   0  0  0  0  0  0  0  0  0  0  0  0
   -2.2037   16.1550  -33.5176 H   0  0  0  0  0  0  0  0  0  0  0  0
   -3.3217   16.7518  -32.2336 H   0  0  0  0  0  0  0  0  0  0  0  0
   -6.6470   16.3840  -32.2010 H   0  0  0  0  0  0  0  0  0  0  0  0
   -8.6233   17.5656  -30.9613 H   0  0  0  0  0  0  0  0  0  0  0  0
   -9.8676   19.7319  -30.6951 H   0  0  0  0  0  0  0  0  0  0  0  0
   -9.2183   21.7361  -32.0439 H   0  0  0  0  0  0  0  0  0  0  0  0
   -7.3470   21.5791  -33.7183 H   0  0  0  0  0  0  0  0  0  0  0  0
   -1.3145   20.1795  -30.5243 H   0  0  0  0  0  0  0  0  0  0  0  0
   -0.9529   21.7569  -31.3339 H   0  0  0  0  0  0  0  0  0  0  0  0
   -3.6233   20.7389  -30.2933 H   0  0  0  0  0  0  0  0  0  0  0  0
   -2.6573   22.2021  -29.7783 H   0  0  0  0  0  0  0  0  0  0  0  0
  1  2  1  0
  2  3  1  0
  3  4  2  0
  4  5  1  0
  5  6  2  0
  6  7  1  0
  7  8  2  0
  8  9  1  0
  9 10  1  0
 10 11  1  0
 11 12  1  0
 12 13  1  0
 13 14  1  0
 14 15  1  0
 15 16  1  0
 16 17  1  0
 17 18  2  0
 18 19  1  0
 19 20  2  0
 20 21  1  0
 21 22  2  0
 22 23  1  0
 23 24  2  0
 24 25  1  0
 12 26  1  0
 26 27  1  0
  8  3  1  0
 27  9  1  0
 25 17  1  0
 24 19  1  0
  1 28  1  0
  1 29  1  0
  1 30  1  0
  4 31  1  0
  5 32  1  0
  6 33  1  0
  7 34  1  0
 10 35  1  0
 10 36  1  0
 11 37  1  0
 11 38  1  0
 13 39  1  0
 13 40  1  0
 14 41  1  0
 14 42  1  0
 15 43  1  0
 15 44  1  0
 18 45  1  0
 20 46  1  0
 21 47  1  0
 22 48  1  0
 23 49  1  0
 26 50  1  0
 26 51  1  0
 27 52  1  0
 27 53  1  0
M  CHG  1  18   1
M  END
>  <UniqueID>  (42) 
38

>  <SMILES>  (42) 
COc1ccccc1N1CCN(CCCSc2[nH+]c3ccccc3s2)CC1

>  <Energy>  (42) 
98.86575123063625

>  <Genealogy>  (42) 
COc1ccccc1N1CCN(CCCSc2[nH+]c3ccccc3s2)CC1 (protonated)
COc1ccccc1N1CCN(CCCSc2[nH+]c3ccccc3s2)CC1 (3D coordinates assigned)
COc1ccccc1N1CCN(CCCSc2[nH+]c3ccccc3s2)CC1 (nonaromatic ring conformer: 98.86575123063625 kcal/mol)

>  <smiles>  (42) 
COc1ccccc1N1CCN(CCCSc2nc3ccccc3s2)CC1

>  <score_type>  (42) 
oracle

>  <origin>  (42) 
adg

>  <m_score__min__energy>  (42) 
-9.0600000000000005

>  <m_primary>  (42) 
energy

$$$$
43:0
     RDKit          3D

 36 37  0  0  0  0  0  0  0  0999 V2000
   -2.3040   25.4920  -26.3510 C   0  0  0  0  0  0  0  0  0  0  0  0
   -1.7250   24.8910  -27.6370 C   0  0  0  0  0  0  0  0  0  0  0  0
   -2.6130   23.8680  -28.2410 N   0  0  2  0  0  0  0  0  0  0  0  0
   -3.9250   23.8670  -27.5630 C   0  0  0  0  0  0  0  0  0  0  0  0
   -2.0240   22.5030  -28.3090 C   0  0  0  0  0  0  0  0  0  0  0  0
   -1.8610   21.9200  -29.7310 C   0  0  0  0  0  0  0  0  0  0  0  0
   -2.4400   22.7690  -30.7230 O   0  0  0  0  0  0  0  0  0  0  0  0
   -3.8160   22.9470  -30.9470 C   0  0  0  0  0  0  0  0  0  0  0  0
   -4.6710   21.8820  -31.3210 C   0  0  0  0  0  0  0  0  0  0  0  0
   -6.0230   22.1530  -31.5140 C   0  0  0  0  0  0  0  0  0  0  0  0
   -6.5370   23.4050  -31.3550 C   0  0  0  0  0  0  0  0  0  0  0  0
   -5.7260   24.4790  -30.9910 C   0  0  0  0  0  0  0  0  0  0  0  0
   -4.3560   24.2440  -30.7850 C   0  0  0  0  0  0  0  0  0  0  0  0
   -3.5290   25.2990  -30.4170 O   0  0  0  0  0  0  0  0  0  0  0  0
   -7.9970   23.3930  -31.6250 C   0  0  0  0  0  0  0  0  0  0  0  0
   -8.2640   21.9070  -31.9730 C   0  0  0  0  0  0  0  0  0  0  0  0
   -7.0000   21.2510  -31.8740 O   0  0  0  0  0  0  0  0  0  0  0  0
   -1.8389   25.0092  -25.4789 H   0  0  0  0  0  0  0  0  0  0  0  0
   -2.0975   26.5721  -26.3257 H   0  0  0  0  0  0  0  0  0  0  0  0
   -3.3911   25.3259  -26.3257 H   0  0  0  0  0  0  0  0  0  0  0  0
   -1.5733   25.7003  -28.3664 H   0  0  0  0  0  0  0  0  0  0  0  0
   -0.7779   24.3963  -27.3755 H   0  0  0  0  0  0  0  0  0  0  0  0
   -2.8030   24.1590  -29.2300 H   0  0  0  0  0  0  0  0  0  0  0  0
   -3.7746   23.8671  -26.4733 H   0  0  0  0  0  0  0  0  0  0  0  0
   -4.4895   24.7647  -27.8553 H   0  0  0  0  0  0  0  0  0  0  0  0
   -4.4881   22.9684  -27.8553 H   0  0  0  0  0  0  0  0  0  0  0  0
   -1.0291   22.5393  -27.8413 H   0  0  0  0  0  0  0  0  0  0  0  0
   -2.7333   21.8413  -27.7903 H   0  0  0  0  0  0  0  0  0  0  0  0
   -0.7888   21.8012  -29.9461 H   0  0  0  0  0  0  0  0  0  0  0  0
   -2.3813   20.9514  -29.7646 H   0  0  0  0  0  0  0  0  0  0  0  0
   -4.2762   20.8642  -31.4559 H   0  0  0  0  0  0  0  0  0  0  0  0
   -6.1488   25.4870  -30.8679 H   0  0  0  0  0  0  0  0  0  0  0  0
   -8.5677   23.7015  -30.7367 H   0  0  0  0  0  0  0  0  0  0  0  0
   -8.3007   24.0900  -32.4200 H   0  0  0  0  0  0  0  0  0  0  0  0
   -8.9794   21.4695  -31.2611 H   0  0  0  0  0  0  0  0  0  0  0  0
   -8.6989   21.7983  -32.9775 H   0  0  0  0  0  0  0  0  0  0  0  0
  1  2  1  0
  2  3  1  0
  3  4  1  0
  3  5  1  0
  5  6  1  0
  6  7  1  0
  7  8  1  0
  8  9  2  0
  9 10  1  0
 10 11  2  0
 11 12  1  0
 12 13  2  0
 13 14  1  0
 11 15  1  0
 15 16  1  0
 16 17  1  0
 13  8  1  0
 17 10  1  0
  1 18  1  0
  1 19  1  0
  1 20  1  0
  2 21  1  0
  2 22  1  0
  3 23  1  6
  4 24  1  0
  4 25  1  0
  4 26  1  0
  5 27  1  0
  5 28  1  0
  6 29  1  0
  6 30  1  0
  9 31  1  0
 12 32  1  0
 15 33  1  0
 15 34  1  0
 16 35  1  0
 16 36  1  0
M  CHG  2   3   1  14  -1
M  END
>  <UniqueID>  (43) 
39

>  <SMILES>  (43) 
CC[N@H+](C)CCOc1cc2c(cc1[O-])CCO2

>  <Energy>  (43) 
53.75454440004975

>  <Genealogy>  (43) 
CC[NH+](C)CCOc1cc2c(cc1[O-])CCO2 (protonated)
CC[N@H+](C)CCOc1cc2c(cc1[O-])CCO2 (chirality)
CC[N@H+](C)CCOc1cc2c(cc1[O-])CCO2 (3D coordinates assigned)
CC[N@H+](C)CCOc1cc2c(cc1[O-])CCO2 (nonaromatic ring conformer: 53.75454440004975 kcal/mol)

>  <smiles>  (43) 
CCN(C)CCOc1cc2c(cc1O)CCO2

>  <score_type>  (43) 
oracle

>  <origin>  (43) 
adg

>  <m_score__min__energy>  (43) 
-7.3200000000000003

>  <m_primary>  (43) 
energy

$$$$
