0:0
     RDKit          3D

 55 58  0  0  0  0  0  0  0  0999 V2000
   -6.2770   25.6860  -29.5480 C   0  0  0  0  0  0  0  0  0  0  0  0
   -5.7720   24.2690  -29.8060 C   0  0  0  0  0  0  0  0  0  0  0  0
   -4.3570   24.1410  -29.3870 N   0  0  0  0  0  0  0  0  0  0  0  0
   -4.2440   23.2910  -28.1880 C   0  0  0  0  0  0  0  0  0  0  0  0
   -3.5140   23.6010  -30.4780 C   0  0  0  0  0  0  0  0  0  0  0  0
   -4.0870   22.2630  -30.9740 C   0  0  0  0  0  0  0  0  0  0  0  0
   -3.4720   21.8110  -32.3090 C   0  0  0  0  0  0  0  0  0  0  0  0
   -4.4490   21.7020  -33.4190 N   0  0  0  0  0  0  0  0  0  0  0  0
   -5.5800   20.8240  -33.0990 C   0  0  0  0  0  0  0  0  0  0  0  0
   -6.7770   21.4340  -32.6090 C   0  0  0  0  0  0  0  0  0  0  0  0
   -6.9190   22.8440  -32.4760 C   0  0  0  0  0  0  0  0  0  0  0  0
   -8.0940   23.4150  -31.9970 C   0  0  0  0  0  0  0  0  0  0  0  0
   -9.1630   22.6090  -31.6460 C   0  0  0  0  0  0  0  0  0  0  0  0
   -9.0590   21.2290  -31.7670 C   0  0  0  0  0  0  0  0  0  0  0  0
   -7.8670   20.6150  -32.2390 C   0  0  0  0  0  0  0  0  0  0  0  0
   -7.7650   19.2540  -32.3480 N   0  0  0  0  0  0  0  0  0  0  0  0
   -8.8730   18.3910  -31.8710 C   0  0  0  0  0  0  0  0  0  0  0  0
   -6.6580   18.6810  -32.9260 C   0  0  0  0  0  0  0  0  0  0  0  0
   -6.6800   17.3390  -33.1550 N   0  0  0  0  0  0  0  0  0  0  0  0
   -5.6580   16.6630  -33.7000 C   0  0  0  0  0  0  0  0  0  0  0  0
   -5.7620   15.2840  -33.9190 C   0  0  0  0  0  0  0  0  0  0  0  0
   -4.6940   14.5860  -34.4880 C   0  0  0  0  0  0  0  0  0  0  0  0
   -3.5230   15.2630  -34.8330 C   0  0  0  0  0  0  0  0  0  0  0  0
   -3.4180   16.6390  -34.6090 C   0  0  0  0  0  0  0  0  0  0  0  0
   -4.4960   17.3510  -34.0350 C   0  0  0  0  0  0  0  0  0  0  0  0
   -4.4420   18.7360  -33.7920 C   0  0  0  0  0  0  0  0  0  0  0  0
   -3.3570   19.3030  -34.0600 O   0  0  0  0  0  0  0  0  0  0  0  0
   -5.5390   19.4330  -33.2770 N   0  0  0  0  0  0  0  0  0  0  0  0
   -6.3395   25.8613  -28.4639 H   0  0  0  0  0  0  0  0  0  0  0  0
   -5.5817   26.4105  -29.9971 H   0  0  0  0  0  0  0  0  0  0  0  0
   -7.2738   25.8075  -29.9971 H   0  0  0  0  0  0  0  0  0  0  0  0
   -6.3850   23.5561  -29.2350 H   0  0  0  0  0  0  0  0  0  0  0  0
   -5.8464   24.0540  -30.8822 H   0  0  0  0  0  0  0  0  0  0  0  0
   -4.3271   23.9158  -27.2865 H   0  0  0  0  0  0  0  0  0  0  0  0
   -5.0506   22.5431  -28.1914 H   0  0  0  0  0  0  0  0  0  0  0  0
   -3.2700   22.7798  -28.1914 H   0  0  0  0  0  0  0  0  0  0  0  0
   -3.4927   24.3191  -31.3110 H   0  0  0  0  0  0  0  0  0  0  0  0
   -2.4943   23.4381  -30.0988 H   0  0  0  0  0  0  0  0  0  0  0  0
   -3.8867   21.4919  -30.2155 H   0  0  0  0  0  0  0  0  0  0  0  0
   -5.1657   22.4040  -31.1366 H   0  0  0  0  0  0  0  0  0  0  0  0
   -2.7003   22.5396  -32.5982 H   0  0  0  0  0  0  0  0  0  0  0  0
   -3.0639   20.8027  -32.1452 H   0  0  0  0  0  0  0  0  0  0  0  0
   -3.9510   21.3070  -34.2460 H   0  0  0  0  0  0  0  0  0  0  0  0
   -4.6840   22.6210  -33.8290 H   0  0  0  0  0  0  0  0  0  0  0  0
   -6.0804   23.4974  -32.7584 H   0  0  0  0  0  0  0  0  0  0  0  0
   -8.1733   24.5076  -31.8972 H   0  0  0  0  0  0  0  0  0  0  0  0
  -10.0936   23.0605  -31.2718 H   0  0  0  0  0  0  0  0  0  0  0  0
   -9.9171   20.5982  -31.4918 H   0  0  0  0  0  0  0  0  0  0  0  0
   -8.8838   18.3826  -30.7711 H   0  0  0  0  0  0  0  0  0  0  0  0
   -9.8304   18.7838  -32.2441 H   0  0  0  0  0  0  0  0  0  0  0  0
   -8.7266   17.3666  -32.2441 H   0  0  0  0  0  0  0  0  0  0  0  0
   -6.6838   14.7507  -33.6433 H   0  0  0  0  0  0  0  0  0  0  0  0
   -4.7758   13.5033  -34.6641 H   0  0  0  0  0  0  0  0  0  0  0  0
   -2.6822   14.7134  -35.2814 H   0  0  0  0  0  0  0  0  0  0  0  0
   -2.4934   17.1695  -34.8803 H   0  0  0  0  0  0  0  0  0  0  0  0
  1  2  1  0
  2  3  1  0
  3  4  1  0
  3  5  1  0
  5  6  1  0
  6  7  1  0
  7  8  1  0
  8  9  1  0
  9 10  2  0
 10 11  1  0
 11 12  2  0
 12 13  1  0
 13 14  2  0
 14 15  1  0
 15 16  2  0
 16 17  1  0
 16 18  1  0
 18 19  2  0
 19 20  1  0
 20 21  2  0
 21 22  1  0
 22 23  2  0
 23 24  1  0
 24 25  2  0
 25 26  1  0
 26 27  2  0
 26 28  1  0
 28  9  1  0
 15 10  1  0
 28 18  1  0
 25 20  1  0
  1 29  1  0
  1 30  1  0
  1 31  1  0
  2 32  1  0
  2 33  1  0
  4 34  1  0
  4 35  1  0
  4 36  1  0
  5 37  1  0
  5 38  1  0
  6 39  1  0
  6 40  1  0
  7 41  1  0
  7 42  1  0
  8 43  1  0
  8 44  1  0
 11 45  1  0
 12 46  1  0
 13 47  1  0
 14 48  1  0
 17 49  1  0
 17 50  1  0
 17 51  1  0
 21 52  1  0
 22 53  1  0
 23 54  1  0
 24 55  1  0
M  CHG  2   8   1  16   1
M  END
>  <UniqueID>  (1) 
1

>  <SMILES>  (1) 
CCN(C)CCC[NH2+]c1c2ccccc2[n+](C)c2nc3ccccc3c(=O)n12

>  <Energy>  (1) 
100.13417317050022

>  <Genealogy>  (1) 
CCN(C)CCC[NH2+]c1c2ccccc2[n+](C)c2nc3ccccc3c(=O)n12 (protonated)
CCN(C)CCC[NH2+]c1c2ccccc2[n+](C)c2nc3ccccc3c(=O)n12 (3D coordinates assigned)
CCN(C)CCC[NH2+]c1c2ccccc2[n+](C)c2nc3ccccc3c(=O)n12 (optimized conformer: 100.13417317050022 kcal/mol)

>  <smiles>  (1) 
CCN(C)CCCNc1c2ccccc2[n+](C)c2nc3ccccc3c(=O)n12

>  <score_type>  (1) 
oracle

>  <origin>  (1) 
adg

>  <m_score__min__energy>  (1) 
-8.8499999999999996

>  <m_primary>  (1) 
energy

$$$$
1:0
     RDKit          3D

 27 29  0  0  0  0  0  0  0  0999 V2000
   -2.9820   18.0320  -34.5520 C   0  0  0  0  0  0  0  0  0  0  0  0
   -3.8710   19.0650  -33.9280 C   0  0  0  0  0  0  0  0  0  0  0  0
   -5.2530   18.8470  -33.8340 C   0  0  0  0  0  0  0  0  0  0  0  0
   -6.0780   19.7940  -33.2200 C   0  0  0  0  0  0  0  0  0  0  0  0
   -5.5330   20.9720  -32.6800 C   0  0  0  0  0  0  0  0  0  0  0  0
   -6.3750   21.9490  -32.0410 N   0  0  0  0  0  0  0  0  0  0  0  0
   -7.7250   21.8990  -31.8770 C   0  0  0  0  0  0  0  0  0  0  0  0
   -8.2330   22.9750  -31.2170 N   0  0  0  0  0  0  0  0  0  0  0  0
   -7.1390   23.7150  -30.9620 C   0  0  0  0  0  0  0  0  0  0  0  0
   -7.0530   24.9210  -30.2740 C   0  0  0  0  0  0  0  0  0  0  0  0
   -5.7710   25.4750  -30.1040 C   0  0  0  0  0  0  0  0  0  0  0  0
   -4.6370   24.7990  -30.6180 C   0  0  0  0  0  0  0  0  0  0  0  0
   -3.4890   25.2890  -30.4600 O   0  0  0  0  0  0  0  0  0  0  0  0
   -4.7830   23.6140  -31.2840 N   0  0  0  0  0  0  0  0  0  0  0  0
   -6.0300   23.1060  -31.4530 C   0  0  0  0  0  0  0  0  0  0  0  0
   -4.1430   21.1740  -32.7530 C   0  0  0  0  0  0  0  0  0  0  0  0
   -3.3190   20.2270  -33.3690 C   0  0  0  0  0  0  0  0  0  0  0  0
   -2.4829   17.4521  -33.7617 H   0  0  0  0  0  0  0  0  0  0  0  0
   -3.5861   17.3571  -35.1761 H   0  0  0  0  0  0  0  0  0  0  0  0
   -2.2246   18.5288  -35.1761 H   0  0  0  0  0  0  0  0  0  0  0  0
   -5.6905   17.9256  -34.2457 H   0  0  0  0  0  0  0  0  0  0  0  0
   -7.1618   19.6160  -33.1590 H   0  0  0  0  0  0  0  0  0  0  0  0
   -8.3461   21.0682  -32.2430 H   0  0  0  0  0  0  0  0  0  0  0  0
   -7.9500   25.4207  -29.8793 H   0  0  0  0  0  0  0  0  0  0  0  0
   -5.6494   26.4308  -29.5732 H   0  0  0  0  0  0  0  0  0  0  0  0
   -3.7006   22.0842  -32.3220 H   0  0  0  0  0  0  0  0  0  0  0  0
   -2.2328   20.3941  -33.4154 H   0  0  0  0  0  0  0  0  0  0  0  0
  1  2  1  0
  2  3  2  0
  3  4  1  0
  4  5  2  0
  5  6  1  0
  6  7  1  0
  7  8  2  0
  8  9  1  0
  9 10  1  0
 10 11  2  0
 11 12  1  0
 12 13  2  0
 12 14  1  0
 14 15  1  0
  5 16  1  0
 16 17  2  0
 17  2  1  0
 15  6  1  0
 15  9  2  0
  1 18  1  0
  1 19  1  0
  1 20  1  0
  3 21  1  0
  4 22  1  0
  7 23  1  0
 10 24  1  0
 11 25  1  0
 16 26  1  0
 17 27  1  0
M  CHG  1  14  -1
M  END
>  <UniqueID>  (2) 
2

>  <SMILES>  (2) 
Cc1ccc(-n2cnc3ccc(=O)[n-]c32)cc1

>  <Energy>  (2) 
73.1784047127201

>  <Genealogy>  (2) 
Cc1ccc(-n2cnc3ccc(=O)[n-]c32)cc1 (protonated)
Cc1ccc(-n2cnc3ccc(=O)[n-]c32)cc1 (3D coordinates assigned)
Cc1ccc(-n2cnc3ccc(=O)[n-]c32)cc1 (optimized conformer: 73.1784047127201 kcal/mol)

>  <smiles>  (2) 
Cc1ccc(-n2cnc3ccc(=O)[nH]c32)cc1

>  <score_type>  (2) 
oracle

>  <origin>  (2) 
adg

>  <m_score__min__energy>  (2) 
-7.6399999999999997

>  <m_primary>  (2) 
energy

$$$$
2:0
     RDKit          3D

 45 48  0  0  0  0  0  0  0  0999 V2000
   -2.5090   20.9880  -33.4430 C   0  0  0  0  0  0  0  0  0  0  0  0
   -2.7800   19.4920  -33.3090 C   0  0  0  0  0  0  0  0  0  0  0  0
   -4.1790   19.1860  -33.6900 N   0  0  0  0  0  0  0  0  0  0  0  0
   -4.2280   18.0150  -34.5830 C   0  0  0  0  0  0  0  0  0  0  0  0
   -5.0180   18.9430  -32.4950 C   0  0  0  0  0  0  0  0  0  0  0  0
   -5.6930   20.2130  -32.0230 C   0  0  0  0  0  0  0  0  0  0  0  0
   -4.9270   21.2220  -31.5240 N   0  0  0  0  0  0  0  0  0  0  0  0
   -5.4680   22.3890  -31.0880 C   0  0  0  0  0  0  0  0  0  0  0  0
   -4.6010   23.4390  -30.5440 C   0  0  0  0  0  0  0  0  0  0  0  0
   -4.3940   24.6250  -31.1480 N   0  0  0  0  0  0  0  0  0  0  0  0
   -3.5790   25.2590  -30.3630 O   0  0  0  0  0  0  0  0  0  0  0  0
   -3.2890   24.5100  -29.3250 C   0  0  0  0  0  0  0  0  0  0  0  0
   -2.3870   24.9200  -28.2300 C   0  0  0  0  0  0  0  0  0  0  0  0
   -2.8440   24.9180  -26.9000 C   0  0  0  0  0  0  0  0  0  0  0  0
   -1.9930   25.3060  -25.8610 C   0  0  0  0  0  0  0  0  0  0  0  0
   -0.6820   25.6990  -26.1390 C   0  0  0  0  0  0  0  0  0  0  0  0
   -0.2190   25.7050  -27.4570 C   0  0  0  0  0  0  0  0  0  0  0  0
   -1.0660   25.3180  -28.5010 C   0  0  0  0  0  0  0  0  0  0  0  0
   -3.9200   23.3200  -29.3840 N   0  0  0  0  0  0  0  0  0  0  0  0
   -6.8100   22.5790  -31.1540 N   0  0  0  0  0  0  0  0  0  0  0  0
   -7.6300   21.6210  -31.6570 C   0  0  0  0  0  0  0  0  0  0  0  0
   -9.0090   21.8530  -31.7210 C   0  0  0  0  0  0  0  0  0  0  0  0
   -9.8600   20.8790  -32.2480 C   0  0  0  0  0  0  0  0  0  0  0  0
   -9.3370   19.6710  -32.7160 C   0  0  0  0  0  0  0  0  0  0  0  0
   -7.9620   19.4270  -32.6560 C   0  0  0  0  0  0  0  0  0  0  0  0
   -7.0910   20.3980  -32.1190 C   0  0  0  0  0  0  0  0  0  0  0  0
   -2.4277   21.4370  -32.4421 H   0  0  0  0  0  0  0  0  0  0  0  0
   -1.5682   21.1425  -33.9917 H   0  0  0  0  0  0  0  0  0  0  0  0
   -3.3358   21.4627  -33.9917 H   0  0  0  0  0  0  0  0  0  0  0  0
   -2.0951   18.9388  -33.9685 H   0  0  0  0  0  0  0  0  0  0  0  0
   -2.6206   19.1921  -32.2628 H   0  0  0  0  0  0  0  0  0  0  0  0
   -4.2665   17.0956  -33.9803 H   0  0  0  0  0  0  0  0  0  0  0  0
   -5.1244   18.0751  -35.2177 H   0  0  0  0  0  0  0  0  0  0  0  0
   -3.3297   18.0000  -35.2177 H   0  0  0  0  0  0  0  0  0  0  0  0
   -5.7896   18.2000  -32.7452 H   0  0  0  0  0  0  0  0  0  0  0  0
   -4.3686   18.5765  -31.6863 H   0  0  0  0  0  0  0  0  0  0  0  0
   -3.8759   24.6097  -26.6762 H   0  0  0  0  0  0  0  0  0  0  0  0
   -2.3565   25.3018  -24.8228 H   0  0  0  0  0  0  0  0  0  0  0  0
   -0.0139   26.0039  -25.3200 H   0  0  0  0  0  0  0  0  0  0  0  0
    0.8139   26.0147  -27.6744 H   0  0  0  0  0  0  0  0  0  0  0  0
   -0.6973   25.3251  -29.5373 H   0  0  0  0  0  0  0  0  0  0  0  0
   -9.4232   22.8043  -31.3555 H   0  0  0  0  0  0  0  0  0  0  0  0
  -10.9435   21.0632  -32.2946 H   0  0  0  0  0  0  0  0  0  0  0  0
  -10.0105   18.9082  -33.1337 H   0  0  0  0  0  0  0  0  0  0  0  0
   -7.5577   18.4744  -33.0289 H   0  0  0  0  0  0  0  0  0  0  0  0
  1  2  1  0
  2  3  1  0
  3  4  1  0
  3  5  1  0
  5  6  1  0
  6  7  2  0
  7  8  1  0
  8  9  1  0
  9 10  2  0
 10 11  1  0
 11 12  1  0
 12 13  1  0
 13 14  2  0
 14 15  1  0
 15 16  2  0
 16 17  1  0
 17 18  2  0
 12 19  2  0
  8 20  2  0
 20 21  1  0
 21 22  2  0
 22 23  1  0
 23 24  2  0
 24 25  1  0
 25 26  2  0
 26  6  1  0
 19  9  1  0
 26 21  1  0
 18 13  1  0
  1 27  1  0
  1 28  1  0
  1 29  1  0
  2 30  1  0
  2 31  1  0
  4 32  1  0
  4 33  1  0
  4 34  1  0
  5 35  1  0
  5 36  1  0
 14 37  1  0
 15 38  1  0
 16 39  1  0
 17 40  1  0
 18 41  1  0
 22 42  1  0
 23 43  1  0
 24 44  1  0
 25 45  1  0
M  END
>  <UniqueID>  (3) 
3

>  <SMILES>  (3) 
CCN(C)Cc1nc(-c2noc(-c3ccccc3)n2)nc2ccccc12

>  <Energy>  (3) 
86.14706683134548

>  <Genealogy>  (3) 
CCN(C)Cc1nc(-c2noc(-c3ccccc3)n2)nc2ccccc12 (3D coordinates assigned)
CCN(C)Cc1nc(-c2noc(-c3ccccc3)n2)nc2ccccc12 (optimized conformer: 86.14706683134548 kcal/mol)

>  <smiles>  (3) 
CCN(C)Cc1nc(-c2noc(-c3ccccc3)n2)nc2ccccc12

>  <score_type>  (3) 
oracle

>  <origin>  (3) 
adg

>  <m_score__min__energy>  (3) 
-9.4900000000000002

>  <m_primary>  (3) 
energy

$$$$
3:0
     RDKit          3D

 53 55  0  0  0  0  0  0  0  0999 V2000
   -6.4950   17.5680  -31.5910 C   0  0  0  0  0  0  0  0  0  0  0  0
   -6.8330   18.0040  -33.0200 C   0  0  0  0  0  0  0  0  0  0  0  0
   -7.6770   19.2290  -33.0590 N   0  0  0  0  0  0  0  0  0  0  0  0
   -8.4130   19.4660  -31.7820 C   0  0  0  0  0  0  0  0  0  0  0  0
   -8.8050   20.9360  -31.5990 C   0  0  0  0  0  0  0  0  0  0  0  0
   -6.8740   20.4160  -33.4650 C   0  0  0  0  0  0  0  0  0  0  0  0
   -5.3380   20.1940  -33.4490 C   0  0  0  0  0  0  0  0  0  0  0  0
   -4.6020   21.4600  -33.4520 N   0  0  0  0  0  0  0  0  0  0  0  0
   -4.0930   22.0040  -32.2300 C   0  0  0  0  0  0  0  0  0  0  0  0
   -4.8910   22.8710  -31.4470 C   0  0  0  0  0  0  0  0  0  0  0  0
   -6.1570   23.2930  -31.9050 C   0  0  0  0  0  0  0  0  0  0  0  0
   -6.9500   24.1370  -31.1330 C   0  0  0  0  0  0  0  0  0  0  0  0
   -6.4970   24.5830  -29.8960 C   0  0  0  0  0  0  0  0  0  0  0  0
   -5.2430   24.1970  -29.4250 C   0  0  0  0  0  0  0  0  0  0  0  0
   -4.4100   23.3400  -30.1850 C   0  0  0  0  0  0  0  0  0  0  0  0
   -3.1590   22.9610  -29.7350 N   0  0  0  0  0  0  0  0  0  0  0  0
   -2.6510   23.4290  -28.4310 C   0  0  0  0  0  0  0  0  0  0  0  0
   -2.3890   22.1530  -30.5300 C   0  0  0  0  0  0  0  0  0  0  0  0
   -0.8320   21.5960  -30.2120 S   0  0  0  0  0  0  0  0  0  0  0  0
   -0.6580   20.7330  -31.6420 C   0  0  0  0  0  0  0  0  0  0  0  0
    0.5870   19.9920  -32.0200 C   0  0  0  0  0  0  0  0  0  0  0  0
   -1.8240   20.8670  -32.4100 C   0  0  0  0  0  0  0  0  0  0  0  0
   -1.9680   20.2490  -33.7770 C   0  0  0  0  0  0  0  0  0  0  0  0
   -2.8080   21.6690  -31.7670 C   0  0  0  0  0  0  0  0  0  0  0  0
   -7.0069   18.2283  -30.8754 H   0  0  0  0  0  0  0  0  0  0  0  0
   -6.8275   16.5310  -31.4357 H   0  0  0  0  0  0  0  0  0  0  0  0
   -5.4079   17.6316  -31.4357 H   0  0  0  0  0  0  0  0  0  0  0  0
   -5.8950   18.2049  -33.5584 H   0  0  0  0  0  0  0  0  0  0  0  0
   -7.4041   17.1903  -33.4908 H   0  0  0  0  0  0  0  0  0  0  0  0
   -8.3680   19.0990  -33.8370 H   0  0  0  0  0  0  0  0  0  0  0  0
   -9.3269   18.8539  -31.7820 H   0  0  0  0  0  0  0  0  0  0  0  0
   -7.7443   19.1911  -30.9530 H   0  0  0  0  0  0  0  0  0  0  0  0
   -8.8669   21.1681  -30.5255 H   0  0  0  0  0  0  0  0  0  0  0  0
   -8.0469   21.5790  -32.0700 H   0  0  0  0  0  0  0  0  0  0  0  0
   -9.7826   21.1162  -32.0700 H   0  0  0  0  0  0  0  0  0  0  0  0
   -7.1693   20.6967  -34.4868 H   0  0  0  0  0  0  0  0  0  0  0  0
   -7.0829   21.2016  -32.7239 H   0  0  0  0  0  0  0  0  0  0  0  0
   -5.0700   19.6292  -32.5439 H   0  0  0  0  0  0  0  0  0  0  0  0
   -5.0648   19.6393  -34.3588 H   0  0  0  0  0  0  0  0  0  0  0  0
   -4.4360   21.9920  -34.3340 H   0  0  0  0  0  0  0  0  0  0  0  0
   -6.5219   22.9506  -32.8846 H   0  0  0  0  0  0  0  0  0  0  0  0
   -7.9372   24.4520  -31.5020 H   0  0  0  0  0  0  0  0  0  0  0  0
   -7.1312   25.2434  -29.2864 H   0  0  0  0  0  0  0  0  0  0  0  0
   -4.8951   24.5637  -28.4480 H   0  0  0  0  0  0  0  0  0  0  0  0
   -3.1988   22.9243  -27.6215 H   0  0  0  0  0  0  0  0  0  0  0  0
   -1.5792   23.1952  -28.3497 H   0  0  0  0  0  0  0  0  0  0  0  0
   -2.7963   24.5163  -28.3497 H   0  0  0  0  0  0  0  0  0  0  0  0
    1.1169   19.6766  -31.1091 H   0  0  0  0  0  0  0  0  0  0  0  0
    0.3200   19.1057  -32.6143 H   0  0  0  0  0  0  0  0  0  0  0  0
    1.2387   20.6493  -32.6143 H   0  0  0  0  0  0  0  0  0  0  0  0
   -2.2165   19.1825  -33.6729 H   0  0  0  0  0  0  0  0  0  0  0  0
   -2.7710   20.7605  -34.3279 H   0  0  0  0  0  0  0  0  0  0  0  0
   -1.0216   20.3529  -34.3279 H   0  0  0  0  0  0  0  0  0  0  0  0
  1  2  1  0
  2  3  1  0
  3  4  1  0
  4  5  1  0
  3  6  1  0
  6  7  1  0
  7  8  1  0
  8  9  1  0
  9 10  2  0
 10 11  1  0
 11 12  2  0
 12 13  1  0
 13 14  2  0
 14 15  1  0
 15 16  2  0
 16 17  1  0
 16 18  1  0
 18 19  1  0
 19 20  1  0
 20 21  1  0
 20 22  2  0
 22 23  1  0
 22 24  1  0
 24  9  1  0
 15 10  1  0
 24 18  2  0
  1 25  1  0
  1 26  1  0
  1 27  1  0
  2 28  1  0
  2 29  1  0
  3 30  1  0
  4 31  1  0
  4 32  1  0
  5 33  1  0
  5 34  1  0
  5 35  1  0
  6 36  1  0
  6 37  1  0
  7 38  1  0
  7 39  1  0
  8 40  1  0
 11 41  1  0
 12 42  1  0
 13 43  1  0
 14 44  1  0
 17 45  1  0
 17 46  1  0
 17 47  1  0
 21 48  1  0
 21 49  1  0
 21 50  1  0
 23 51  1  0
 23 52  1  0
 23 53  1  0
M  CHG  2   3   1  16   1
M  END
>  <UniqueID>  (4) 
4

>  <SMILES>  (4) 
CC[NH+](CC)CCNc1c2ccccc2[n+](C)c2sc(C)c(C)c12

>  <Energy>  (4) 
107.70989773176045

>  <Genealogy>  (4) 
CC[NH+](CC)CCNc1c2ccccc2[n+](C)c2sc(C)c(C)c12 (protonated)
CC[NH+](CC)CCNc1c2ccccc2[n+](C)c2sc(C)c(C)c12 (3D coordinates assigned)
CC[NH+](CC)CCNc1c2ccccc2[n+](C)c2sc(C)c(C)c12 (optimized conformer: 107.70989773176045 kcal/mol)

>  <smiles>  (4) 
CCN(CC)CCNc1c2ccccc2[n+](C)c2sc(C)c(C)c12

>  <score_type>  (4) 
oracle

>  <origin>  (4) 
adg

>  <m_score__min__energy>  (4) 
-7.2999999999999998

>  <m_primary>  (4) 
energy

$$$$
4:0
     RDKit          3D

 48 50  0  0  0  0  0  0  0  0999 V2000
    0.1570   21.1240  -36.1130 C   0  0  0  0  0  0  0  0  0  0  0  0
    0.6030   21.9500  -34.9800 N   0  0  0  0  0  0  0  0  0  0  0  0
    1.7750   22.7610  -35.3400 C   0  0  0  0  0  0  0  0  0  0  0  0
    0.7990   21.1690  -33.7380 C   0  0  0  0  0  0  0  0  0  0  0  0
   -0.4860   20.9470  -32.9140 C   0  0  0  0  0  0  0  0  0  0  0  0
   -1.6630   21.3950  -33.6630 N   0  0  0  0  0  0  0  0  0  0  0  0
   -3.0060   21.0610  -33.2620 C   0  0  0  0  0  0  0  0  0  0  0  0
   -3.8100   22.0360  -32.6480 C   0  0  0  0  0  0  0  0  0  0  0  0
   -5.1310   21.7620  -32.3040 C   0  0  0  0  0  0  0  0  0  0  0  0
   -5.6890   20.5100  -32.5640 C   0  0  0  0  0  0  0  0  0  0  0  0
   -7.0580   20.2790  -32.2070 N   0  0  0  0  0  0  0  0  0  0  0  0
   -7.4460   19.0160  -31.5730 C   0  0  0  0  0  0  0  0  0  0  0  0
   -8.7850   18.4950  -32.1400 C   0  0  0  0  0  0  0  0  0  0  0  0
   -9.6720   19.5490  -32.6740 N   0  0  0  0  0  0  0  0  0  0  0  0
   -9.4450   20.8570  -32.0490 C   0  0  0  0  0  0  0  0  0  0  0  0
   -8.0340   21.3590  -32.3710 C   0  0  0  0  0  0  0  0  0  0  0  0
   -4.9050   19.5000  -33.1630 C   0  0  0  0  0  0  0  0  0  0  0  0
   -5.4310   18.2590  -33.4040 N   0  0  0  0  0  0  0  0  0  0  0  0
   -4.6900   17.2610  -33.9550 C   0  0  0  0  0  0  0  0  0  0  0  0
   -5.4100   15.6860  -34.2410 Cl  0  0  0  0  0  0  0  0  0  0  0  0
   -3.3540   17.4790  -34.2840 C   0  0  0  0  0  0  0  0  0  0  0  0
   -2.7850   18.7280  -34.0560 C   0  0  0  0  0  0  0  0  0  0  0  0
   -3.5520   19.7730  -33.5070 C   0  0  0  0  0  0  0  0  0  0  0  0
   -0.3336   20.2155  -35.7337 H   0  0  0  0  0  0  0  0  0  0  0  0
   -0.5547   21.6962  -36.7262 H   0  0  0  0  0  0  0  0  0  0  0  0
    1.0259   20.8428  -36.7262 H   0  0  0  0  0  0  0  0  0  0  0  0
    2.2762   23.1078  -34.4243 H   0  0  0  0  0  0  0  0  0  0  0  0
    2.4740   22.1525  -35.9326 H   0  0  0  0  0  0  0  0  0  0  0  0
    1.4518   23.6296  -35.9326 H   0  0  0  0  0  0  0  0  0  0  0  0
    1.2064   20.1845  -34.0116 H   0  0  0  0  0  0  0  0  0  0  0  0
    1.4807   21.7547  -33.1038 H   0  0  0  0  0  0  0  0  0  0  0  0
   -0.5887   19.8758  -32.6861 H   0  0  0  0  0  0  0  0  0  0  0  0
   -0.4153   21.5290  -31.9833 H   0  0  0  0  0  0  0  0  0  0  0  0
   -1.5170   21.9760  -34.5180 H   0  0  0  0  0  0  0  0  0  0  0  0
   -3.3897   23.0302  -32.4360 H   0  0  0  0  0  0  0  0  0  0  0  0
   -5.7409   22.5405  -31.8224 H   0  0  0  0  0  0  0  0  0  0  0  0
   -6.6623   18.2664  -31.7572 H   0  0  0  0  0  0  0  0  0  0  0  0
   -7.5690   19.1911  -30.4940 H   0  0  0  0  0  0  0  0  0  0  0  0
   -8.5628   17.7878  -32.9527 H   0  0  0  0  0  0  0  0  0  0  0  0
   -9.3214   18.0282  -31.3007 H   0  0  0  0  0  0  0  0  0  0  0  0
   -9.5080   19.6400  -33.7040 H   0  0  0  0  0  0  0  0  0  0  0  0
  -10.1832   21.5764  -32.4332 H   0  0  0  0  0  0  0  0  0  0  0  0
   -9.5505   20.7571  -30.9586 H   0  0  0  0  0  0  0  0  0  0  0  0
   -8.0056   21.7185  -33.4102 H   0  0  0  0  0  0  0  0  0  0  0  0
   -7.7802   22.1772  -31.6809 H   0  0  0  0  0  0  0  0  0  0  0  0
   -6.4230   18.0450  -33.1590 H   0  0  0  0  0  0  0  0  0  0  0  0
   -2.7525   16.6685  -34.7214 H   0  0  0  0  0  0  0  0  0  0  0  0
   -1.7279   18.9002  -34.3066 H   0  0  0  0  0  0  0  0  0  0  0  0
  1  2  1  0
  2  3  1  0
  2  4  1  0
  4  5  1  0
  5  6  1  0
  6  7  1  0
  7  8  2  0
  8  9  1  0
  9 10  2  0
 10 11  1  0
 11 12  1  0
 12 13  1  0
 13 14  1  0
 14 15  1  0
 15 16  1  0
 10 17  1  0
 17 18  2  0
 18 19  1  0
 19 20  1  0
 19 21  2  0
 21 22  1  0
 22 23  2  0
 23  7  1  0
 16 11  1  0
 23 17  1  0
  1 24  1  0
  1 25  1  0
  1 26  1  0
  3 27  1  0
  3 28  1  0
  3 29  1  0
  4 30  1  0
  4 31  1  0
  5 32  1  0
  5 33  1  0
  6 34  1  0
  8 35  1  0
  9 36  1  0
 12 37  1  0
 12 38  1  0
 13 39  1  0
 13 40  1  0
 14 41  1  0
 15 42  1  0
 15 43  1  0
 16 44  1  0
 16 45  1  0
 18 46  1  0
 21 47  1  0
 22 48  1  0
M  CHG  1  18   1
M  END
>  <UniqueID>  (5) 
5

>  <SMILES>  (5) 
CN(C)CCNc1ccc(N2CCNCC2)c2[nH+]c(Cl)ccc12

>  <Energy>  (5) 
67.39062680874292

>  <Genealogy>  (5) 
CN(C)CCNc1ccc(N2CCNCC2)c2[nH+]c(Cl)ccc12 (protonated)
CN(C)CCNc1ccc(N2CCNCC2)c2[nH+]c(Cl)ccc12 (3D coordinates assigned)
CN(C)CCNc1ccc(N2CCNCC2)c2[nH+]c(Cl)ccc12 (nonaromatic ring conformer: 67.39062680874292 kcal/mol)

>  <smiles>  (5) 
CN(C)CCNc1ccc(N2CCNCC2)c2nc(Cl)ccc12

>  <score_type>  (5) 
oracle

>  <origin>  (5) 
adg

>  <m_score__min__energy>  (5) 
-7.54

>  <m_primary>  (5) 
energy

$$$$
5:0
     RDKit          3D

 52 54  0  0  0  0  0  0  0  0999 V2000
   -1.7920   20.7730  -32.0760 C   0  0  0  0  0  0  0  0  0  0  0  0
   -1.2400   21.9200  -31.2180 C   0  0  0  0  0  0  0  0  0  0  0  0
   -2.1650   22.3320  -30.1290 N   0  0  0  0  0  0  0  0  0  0  0  0
   -3.0440   21.2460  -29.6160 C   0  0  0  0  0  0  0  0  0  0  0  0
   -2.7820   20.8250  -28.1660 C   0  0  0  0  0  0  0  0  0  0  0  0
   -1.4960   23.1030  -29.0400 C   0  0  0  0  0  0  0  0  0  0  0  0
   -2.1190   24.4760  -28.7130 C   0  0  0  0  0  0  0  0  0  0  0  0
   -3.0470   24.7990  -29.7250 O   0  0  0  0  0  0  0  0  0  0  0  0
   -4.3620   24.5760  -29.2650 C   0  0  0  0  0  0  0  0  0  0  0  0
   -5.3630   25.2110  -30.2310 C   0  0  0  0  0  0  0  0  0  0  0  0
   -5.3400   24.5530  -31.5000 O   0  0  0  0  0  0  0  0  0  0  0  0
   -5.8250   23.2620  -31.7720 C   0  0  0  0  0  0  0  0  0  0  0  0
   -7.1650   22.9900  -31.4710 C   0  0  0  0  0  0  0  0  0  0  0  0
   -7.7150   21.7340  -31.7360 C   0  0  0  0  0  0  0  0  0  0  0  0
   -6.9290   20.7230  -32.3060 C   0  0  0  0  0  0  0  0  0  0  0  0
   -7.4800   19.4630  -32.5850 C   0  0  0  0  0  0  0  0  0  0  0  0
   -6.6890   18.4610  -33.1560 C   0  0  0  0  0  0  0  0  0  0  0  0
   -7.2190   17.2690  -33.4190 O   0  0  0  0  0  0  0  0  0  0  0  0
   -6.5170   16.2780  -33.9630 C   0  0  0  0  0  0  0  0  0  0  0  0
   -7.0740   15.1710  -34.1900 O   0  0  0  0  0  0  0  0  0  0  0  0
   -5.1680   16.4580  -34.2830 C   0  0  0  0  0  0  0  0  0  0  0  0
   -4.5710   17.6910  -34.0230 C   0  0  0  0  0  0  0  0  0  0  0  0
   -5.3330   18.7150  -33.4510 C   0  0  0  0  0  0  0  0  0  0  0  0
   -4.7770   19.9720  -33.1710 C   0  0  0  0  0  0  0  0  0  0  0  0
   -5.5680   20.9800  -32.6000 C   0  0  0  0  0  0  0  0  0  0  0  0
   -5.0220   22.2430  -32.3210 C   0  0  0  0  0  0  0  0  0  0  0  0
   -2.1752   19.9767  -31.4210 H   0  0  0  0  0  0  0  0  0  0  0  0
   -2.6075   21.1497  -32.7109 H   0  0  0  0  0  0  0  0  0  0  0  0
   -0.9889   20.3707  -32.7109 H   0  0  0  0  0  0  0  0  0  0  0  0
   -0.2912   21.5942  -30.7667 H   0  0  0  0  0  0  0  0  0  0  0  0
   -1.1050   22.7885  -31.8795 H   0  0  0  0  0  0  0  0  0  0  0  0
   -2.8270   23.0170  -30.5680 H   0  0  0  0  0  0  0  0  0  0  0  0
   -4.0865   21.5896  -29.6876 H   0  0  0  0  0  0  0  0  0  0  0  0
   -2.8294   20.3618  -30.2342 H   0  0  0  0  0  0  0  0  0  0  0  0
   -3.2378   21.5574  -27.4835 H   0  0  0  0  0  0  0  0  0  0  0  0
   -3.2226   19.8331  -27.9868 H   0  0  0  0  0  0  0  0  0  0  0  0
   -1.6975   20.7822  -27.9868 H   0  0  0  0  0  0  0  0  0  0  0  0
   -1.5257   22.4920  -28.1258 H   0  0  0  0  0  0  0  0  0  0  0  0
   -0.4791   23.3137  -29.4026 H   0  0  0  0  0  0  0  0  0  0  0  0
   -2.6316   24.4288  -27.7409 H   0  0  0  0  0  0  0  0  0  0  0  0
   -1.3332   25.2441  -28.6632 H   0  0  0  0  0  0  0  0  0  0  0  0
   -4.5491   23.4937  -29.2044 H   0  0  0  0  0  0  0  0  0  0  0  0
   -4.4804   25.0288  -28.2695 H   0  0  0  0  0  0  0  0  0  0  0  0
   -6.3737   25.1332  -29.8039 H   0  0  0  0  0  0  0  0  0  0  0  0
   -5.0865   26.2654  -30.3784 H   0  0  0  0  0  0  0  0  0  0  0  0
   -7.7914   23.7742  -31.0209 H   0  0  0  0  0  0  0  0  0  0  0  0
   -8.7703   21.5371  -31.4962 H   0  0  0  0  0  0  0  0  0  0  0  0
   -8.5367   19.2629  -32.3540 H   0  0  0  0  0  0  0  0  0  0  0  0
   -4.5866   15.6397  -34.7329 H   0  0  0  0  0  0  0  0  0  0  0  0
   -3.5109   17.8568  -34.2654 H   0  0  0  0  0  0  0  0  0  0  0  0
   -3.7189   20.1676  -33.3996 H   0  0  0  0  0  0  0  0  0  0  0  0
   -3.9603   22.4382  -32.5325 H   0  0  0  0  0  0  0  0  0  0  0  0
  1  2  1  0
  2  3  1  0
  3  4  1  0
  4  5  1  0
  3  6  1  0
  6  7  1  0
  7  8  1  0
  8  9  1  0
  9 10  1  0
 10 11  1  0
 11 12  1  0
 12 13  2  0
 13 14  1  0
 14 15  2  0
 15 16  1  0
 16 17  2  0
 17 18  1  0
 18 19  1  0
 19 20  2  0
 19 21  1  0
 21 22  2  0
 22 23  1  0
 23 24  2  0
 24 25  1  0
 25 26  2  0
 26 12  1  0
 25 15  1  0
 23 17  1  0
  1 27  1  0
  1 28  1  0
  1 29  1  0
  2 30  1  0
  2 31  1  0
  3 32  1  0
  4 33  1  0
  4 34  1  0
  5 35  1  0
  5 36  1  0
  5 37  1  0
  6 38  1  0
  6 39  1  0
  7 40  1  0
  7 41  1  0
  9 42  1  0
  9 43  1  0
 10 44  1  0
 10 45  1  0
 13 46  1  0
 14 47  1  0
 16 48  1  0
 21 49  1  0
 22 50  1  0
 24 51  1  0
 26 52  1  0
M  CHG  1   3   1
M  END
>  <UniqueID>  (6) 
6

>  <SMILES>  (6) 
CC[NH+](CC)CCOCCOc1ccc2cc3oc(=O)ccc3cc2c1

>  <Energy>  (6) 
66.85075253933145

>  <Genealogy>  (6) 
CC[NH+](CC)CCOCCOc1ccc2cc3oc(=O)ccc3cc2c1 (protonated)
CC[NH+](CC)CCOCCOc1ccc2cc3oc(=O)ccc3cc2c1 (3D coordinates assigned)
CC[NH+](CC)CCOCCOc1ccc2cc3oc(=O)ccc3cc2c1 (optimized conformer: 66.85075253933145 kcal/mol)

>  <smiles>  (6) 
CCN(CC)CCOCCOc1ccc2cc3oc(=O)ccc3cc2c1

>  <score_type>  (6) 
oracle

>  <origin>  (6) 
adg

>  <m_score__min__energy>  (6) 
-7.2599999999999998

>  <m_primary>  (6) 
energy

$$$$
6:0
     RDKit          3D

 80 83  0  0  0  0  0  0  0  0999 V2000
    0.4430   18.1660  -28.3680 C   0  0  0  0  0  0  0  0  0  0  0  0
   -0.7020   18.6240  -27.4590 C   0  0  0  0  0  0  0  0  0  0  0  0
   -1.5540   19.7100  -28.0150 N   0  0  0  0  0  0  0  0  0  0  0  0
   -2.7470   20.0080  -27.1660 C   0  0  0  0  0  0  0  0  0  0  0  0
   -3.1850   18.8800  -26.2160 C   0  0  0  0  0  0  0  0  0  0  0  0
   -0.8100   20.9290  -28.4380 C   0  0  0  0  0  0  0  0  0  0  0  0
   -0.9520   21.2630  -29.9390 C   0  0  0  0  0  0  0  0  0  0  0  0
   -1.4300   20.1630  -30.6890 O   0  0  0  0  0  0  0  0  0  0  0  0
   -1.3970   20.4500  -32.0720 C   0  0  0  0  0  0  0  0  0  0  0  0
   -2.8190   20.6900  -32.5710 C   0  0  0  0  0  0  0  0  0  0  0  0
   -3.7900   20.5380  -31.4880 N   0  0  0  0  0  0  0  0  0  0  0  0
   -5.0470   21.2280  -31.5330 C   0  0  0  0  0  0  0  0  0  0  0  0
   -6.2040   20.5520  -31.9500 C   0  0  0  0  0  0  0  0  0  0  0  0
   -6.1470   19.1930  -32.3250 C   0  0  0  0  0  0  0  0  0  0  0  0
   -7.3040   18.5070  -32.6820 C   0  0  0  0  0  0  0  0  0  0  0  0
   -8.5340   19.1560  -32.6610 C   0  0  0  0  0  0  0  0  0  0  0  0
   -8.6110   20.5040  -32.3090 C   0  0  0  0  0  0  0  0  0  0  0  0
   -7.4450   21.2430  -31.9810 C   0  0  0  0  0  0  0  0  0  0  0  0
   -7.4960   22.5920  -31.6800 N   0  0  0  0  0  0  0  0  0  0  0  0
   -8.7220   23.3690  -31.9740 C   0  0  0  0  0  0  0  0  0  0  0  0
   -6.3930   23.2230  -31.1320 C   0  0  0  0  0  0  0  0  0  0  0  0
   -6.4730   24.5240  -30.5790 C   0  0  0  0  0  0  0  0  0  0  0  0
   -5.3400   25.1680  -30.0800 C   0  0  0  0  0  0  0  0  0  0  0  0
   -4.0980   24.5410  -30.1040 C   0  0  0  0  0  0  0  0  0  0  0  0
   -2.9910   25.2390  -29.5970 O   0  0  0  0  0  0  0  0  0  0  0  0
   -1.8810   24.6310  -28.9430 C   0  0  0  0  0  0  0  0  0  0  0  0
   -1.3500   25.5090  -27.7890 C   0  0  0  0  0  0  0  0  0  0  0  0
   -1.9590   25.2730  -26.4340 N   0  0  0  0  0  0  0  0  0  0  0  0
   -3.3980   24.9180  -26.5300 C   0  0  0  0  0  0  0  0  0  0  0  0
   -1.2240   24.1800  -25.7490 C   0  0  0  0  0  0  0  0  0  0  0  0
   -0.0180   24.8060  -25.0690 C   0  0  0  0  0  0  0  0  0  0  0  0
   -0.4110   26.2520  -24.8300 C   0  0  0  0  0  0  0  0  0  0  0  0
   -1.7540   26.4340  -25.5340 C   0  0  0  0  0  0  0  0  0  0  0  0
   -3.9980   23.2400  -30.6170 C   0  0  0  0  0  0  0  0  0  0  0  0
   -5.1380   22.5610  -31.0970 C   0  0  0  0  0  0  0  0  0  0  0  0
    1.2884   17.8279  -27.7507 H   0  0  0  0  0  0  0  0  0  0  0  0
    0.0978   17.3367  -29.0030 H   0  0  0  0  0  0  0  0  0  0  0  0
    0.7649   19.0046  -29.0030 H   0  0  0  0  0  0  0  0  0  0  0  0
   -1.3458   17.7550  -27.2579 H   0  0  0  0  0  0  0  0  0  0  0  0
   -0.2293   19.0376  -26.5559 H   0  0  0  0  0  0  0  0  0  0  0  0
   -1.9570   19.3030  -28.8920 H   0  0  0  0  0  0  0  0  0  0  0  0
   -2.5156   20.8936  -26.5559 H   0  0  0  0  0  0  0  0  0  0  0  0
   -3.5841   20.1555  -27.8642 H   0  0  0  0  0  0  0  0  0  0  0  0
   -3.0576   19.2082  -25.1738 H   0  0  0  0  0  0  0  0  0  0  0  0
   -4.2425   18.6378  -26.3974 H   0  0  0  0  0  0  0  0  0  0  0  0
   -2.5681   17.9876  -26.3974 H   0  0  0  0  0  0  0  0  0  0  0  0
   -1.1869   21.7833  -27.8565 H   0  0  0  0  0  0  0  0  0  0  0  0
    0.2564   20.7298  -28.2561 H   0  0  0  0  0  0  0  0  0  0  0  0
   -1.6565   22.1004  -30.0503 H   0  0  0  0  0  0  0  0  0  0  0  0
    0.0453   21.5247  -30.3222 H   0  0  0  0  0  0  0  0  0  0  0  0
   -0.7896   21.3504  -32.2461 H   0  0  0  0  0  0  0  0  0  0  0  0
   -0.9544   19.6014  -32.6141 H   0  0  0  0  0  0  0  0  0  0  0  0
   -2.8900   21.7100  -32.9766 H   0  0  0  0  0  0  0  0  0  0  0  0
   -3.0457   19.9473  -33.3501 H   0  0  0  0  0  0  0  0  0  0  0  0
   -3.5940   19.9160  -30.6710 H   0  0  0  0  0  0  0  0  0  0  0  0
   -5.1789   18.6708  -32.3353 H   0  0  0  0  0  0  0  0  0  0  0  0
   -7.2457   17.4501  -32.9812 H   0  0  0  0  0  0  0  0  0  0  0  0
   -9.4492   18.6047  -32.9228 H   0  0  0  0  0  0  0  0  0  0  0  0
   -9.5916   21.0019  -32.2854 H   0  0  0  0  0  0  0  0  0  0  0  0
   -9.1994   23.6716  -31.0303 H   0  0  0  0  0  0  0  0  0  0  0  0
   -8.4578   24.2649  -32.5550 H   0  0  0  0  0  0  0  0  0  0  0  0
   -9.4194   22.7476  -32.5550 H   0  0  0  0  0  0  0  0  0  0  0  0
   -7.4457   25.0363  -30.5421 H   0  0  0  0  0  0  0  0  0  0  0  0
   -5.4297   26.1820  -29.6633 H   0  0  0  0  0  0  0  0  0  0  0  0
   -2.1953   23.6586  -28.5361 H   0  0  0  0  0  0  0  0  0  0  0  0
   -1.0738   24.5064  -29.6798 H   0  0  0  0  0  0  0  0  0  0  0  0
   -0.2676   25.3322  -27.7048 H   0  0  0  0  0  0  0  0  0  0  0  0
   -1.6238   26.5402  -28.0567 H   0  0  0  0  0  0  0  0  0  0  0  0
   -3.8183   24.8143  -25.5188 H   0  0  0  0  0  0  0  0  0  0  0  0
   -3.9358   25.7104  -27.0712 H   0  0  0  0  0  0  0  0  0  0  0  0
   -3.5056   23.9664  -27.0712 H   0  0  0  0  0  0  0  0  0  0  0  0
   -1.8724   23.7014  -25.0003 H   0  0  0  0  0  0  0  0  0  0  0  0
   -0.9100   23.4099  -26.4690 H   0  0  0  0  0  0  0  0  0  0  0  0
    0.1945   24.3001  -24.1156 H   0  0  0  0  0  0  0  0  0  0  0  0
    0.8927   24.7201  -25.6800 H   0  0  0  0  0  0  0  0  0  0  0  0
   -0.5123   26.4494  -23.7526 H   0  0  0  0  0  0  0  0  0  0  0  0
    0.3480   26.9491  -25.2146 H   0  0  0  0  0  0  0  0  0  0  0  0
   -2.5630   26.4773  -24.7899 H   0  0  0  0  0  0  0  0  0  0  0  0
   -1.7602   27.3709  -26.1103 H   0  0  0  0  0  0  0  0  0  0  0  0
   -3.0177   22.7419  -30.6457 H   0  0  0  0  0  0  0  0  0  0  0  0
  1  2  1  0
  2  3  1  0
  3  4  1  0
  4  5  1  0
  3  6  1  0
  6  7  1  0
  7  8  1  0
  8  9  1  0
  9 10  1  0
 10 11  1  0
 11 12  1  0
 12 13  2  0
 13 14  1  0
 14 15  2  0
 15 16  1  0
 16 17  2  0
 17 18  1  0
 18 19  2  0
 19 20  1  0
 19 21  1  0
 21 22  2  0
 22 23  1  0
 23 24  2  0
 24 25  1  0
 25 26  1  0
 26 27  1  0
 27 28  1  0
 28 29  1  0
 28 30  1  0
 30 31  1  0
 31 32  1  0
 32 33  1  0
 24 34  1  0
 34 35  2  0
 35 12  1  0
 18 13  1  0
 35 21  1  0
 33 28  1  0
  1 36  1  0
  1 37  1  0
  1 38  1  0
  2 39  1  0
  2 40  1  0
  3 41  1  0
  4 42  1  0
  4 43  1  0
  5 44  1  0
  5 45  1  0
  5 46  1  0
  6 47  1  0
  6 48  1  0
  7 49  1  0
  7 50  1  0
  9 51  1  0
  9 52  1  0
 10 53  1  0
 10 54  1  0
 11 55  1  0
 14 56  1  0
 15 57  1  0
 16 58  1  0
 17 59  1  0
 20 60  1  0
 20 61  1  0
 20 62  1  0
 22 63  1  0
 23 64  1  0
 26 65  1  0
 26 66  1  0
 27 67  1  0
 27 68  1  0
 29 69  1  0
 29 70  1  0
 29 71  1  0
 30 72  1  0
 30 73  1  0
 31 74  1  0
 31 75  1  0
 32 76  1  0
 32 77  1  0
 33 78  1  0
 33 79  1  0
 34 80  1  0
M  CHG  3   3   1  19   1  28   1
M  END
>  <UniqueID>  (7) 
7

>  <SMILES>  (7) 
CC[NH+](CC)CCOCCNc1c2ccccc2[n+](C)c2ccc(OCC[N+]3(C)CCCC3)cc12

>  <Energy>  (7) 
126.55069911969007

>  <Genealogy>  (7) 
CC[NH+](CC)CCOCCNc1c2ccccc2[n+](C)c2ccc(OCC[N+]3(C)CCCC3)cc12 (protonated)
CC[NH+](CC)CCOCCNc1c2ccccc2[n+](C)c2ccc(OCC[N+]3(C)CCCC3)cc12 (3D coordinates assigned)
CC[NH+](CC)CCOCCNc1c2ccccc2[n+](C)c2ccc(OCC[N+]3(C)CCCC3)cc12 (nonaromatic ring conformer: 126.55069911969007 kcal/mol)

>  <smiles>  (7) 
CCN(CC)CCOCCNc1c2ccccc2[n+](C)c2ccc(OCC[N+]3(C)CCCC3)cc12

>  <score_type>  (7) 
oracle

>  <origin>  (7) 
adg

>  <m_score__min__energy>  (7) 
-7.5800000000000001

>  <m_primary>  (7) 
energy

$$$$
7:0
     RDKit          3D

 32 34  0  0  0  0  0  0  0  0999 V2000
   -5.4583   26.4228  -29.4890 H   0  0  0  0  0  0  0  0  0  0  0  0
   -5.5870   25.4510  -29.9880 C   0  0  0  0  0  0  0  0  0  0  0  0
   -6.8660   24.9120  -30.1470 C   0  0  0  0  0  0  0  0  0  0  0  0
   -7.7435   25.4604  -29.7739 H   0  0  0  0  0  0  0  0  0  0  0  0
   -7.0320   23.6760  -30.7800 C   0  0  0  0  0  0  0  0  0  0  0  0
   -8.0412   23.2561  -30.9036 H   0  0  0  0  0  0  0  0  0  0  0  0
   -5.9150   22.9660  -31.2600 C   0  0  0  0  0  0  0  0  0  0  0  0
   -6.0830   21.6540  -31.9350 C   0  0  0  0  0  0  0  0  0  0  0  0
   -7.3300   21.0130  -31.9330 C   0  0  0  0  0  0  0  0  0  0  0  0
   -8.1871   21.4872  -31.4325 H   0  0  0  0  0  0  0  0  0  0  0  0
   -7.4930   19.7650  -32.5680 C   0  0  0  0  0  0  0  0  0  0  0  0
   -8.6440   19.1480  -32.5800 N   0  0  0  0  0  0  0  0  0  0  0  0
   -9.1270   18.1870  -31.5940 C   0  0  0  0  0  0  0  0  0  0  0  0
   -8.9337   18.5717  -30.5818 H   0  0  0  0  0  0  0  0  0  0  0  0
  -10.2082   18.0357  -31.7285 H   0  0  0  0  0  0  0  0  0  0  0  0
   -8.6032   17.2291  -31.7285 H   0  0  0  0  0  0  0  0  0  0  0  0
   -6.3770   19.1750  -33.1990 C   0  0  0  0  0  0  0  0  0  0  0  0
   -6.4650   17.9280  -33.8550 C   0  0  0  0  0  0  0  0  0  0  0  0
   -7.4245   17.3906  -33.8804 H   0  0  0  0  0  0  0  0  0  0  0  0
   -5.3420   17.3720  -34.4720 C   0  0  0  0  0  0  0  0  0  0  0  0
   -5.4208   16.3989  -34.9788 H   0  0  0  0  0  0  0  0  0  0  0  0
   -4.1210   18.0460  -34.4480 C   0  0  0  0  0  0  0  0  0  0  0  0
   -3.2404   17.6039  -34.9370 H   0  0  0  0  0  0  0  0  0  0  0  0
   -4.0140   19.2800  -33.8050 C   0  0  0  0  0  0  0  0  0  0  0  0
   -3.0484   19.8067  -33.7893 H   0  0  0  0  0  0  0  0  0  0  0  0
   -5.1320   19.8530  -33.1780 C   0  0  0  0  0  0  0  0  0  0  0  0
   -5.0210   21.0600  -32.5530 N   0  0  0  0  0  0  0  0  0  0  0  0
   -4.0990   21.5540  -32.5660 H   0  0  0  0  0  0  0  0  0  0  0  0
   -4.6320   23.5210  -31.0950 C   0  0  0  0  0  0  0  0  0  0  0  0
   -3.7499   22.9788  -31.4664 H   0  0  0  0  0  0  0  0  0  0  0  0
   -4.4720   24.7570  -30.4620 C   0  0  0  0  0  0  0  0  0  0  0  0
   -3.4658   25.1837  -30.3371 H   0  0  0  0  0  0  0  0  0  0  0  0
  1  2  1  0
  2  3  2  0
  3  4  1  0
  3  5  1  0
  5  6  1  0
  5  7  2  0
  7  8  1  0
  8  9  2  0
  9 10  1  0
  9 11  1  0
 11 12  2  0
 12 13  1  0
 13 14  1  0
 13 15  1  0
 13 16  1  0
 11 17  1  0
 17 18  2  0
 18 19  1  0
 18 20  1  0
 20 21  1  0
 20 22  2  0
 22 23  1  0
 22 24  1  0
 24 25  1  0
 24 26  2  0
 26 27  1  0
 27 28  1  0
  7 29  1  0
 29 30  1  0
 29 31  2  0
 31 32  1  0
 31  2  1  0
 27  8  1  0
 26 17  1  0
M  END
>  <UniqueID>  (8) 
8

>  <SMILES>  (8) 
C/N=c1\cc(-c2ccccc2)[nH]c2ccccc12

>  <Energy>  (8) 
45.74332790410849

>  <Genealogy>  (8) 
C/N=c1\cc(-c2ccccc2)[nH]c2ccccc12 (cis-trans isomerization)
C/N=c1\cc(-c2ccccc2)[nH]c2ccccc12 (3D coordinates assigned)
C/N=c1\cc(-c2ccccc2)[nH]c2ccccc12 (optimized conformer: 45.74332790410849 kcal/mol)

>  <smiles>  (8) 
CN=c1cc(-c2ccccc2)[nH]c2ccccc12

>  <score_type>  (8) 
oracle

>  <origin>  (8) 
adg

>  <m_score__min__energy>  (8) 
-7.1100000000000003

>  <m_primary>  (8) 
energy

$$$$
8:0
     RDKit          3D

 28 28  0  0  0  0  0  0  0  0999 V2000
   -5.7300   18.1240  -34.8890 C   0  0  0  0  0  0  0  0  0  0  0  0
   -6.4330   17.4260  -33.7990 N   0  0  0  0  0  0  0  0  0  0  0  0
   -6.8450   16.0740  -34.2190 C   0  0  0  0  0  0  0  0  0  0  0  0
   -5.6720   17.4270  -32.5240 C   0  0  0  0  0  0  0  0  0  0  0  0
   -6.4850   17.8150  -31.2680 C   0  0  0  0  0  0  0  0  0  0  0  0
   -7.7210   18.4470  -31.6050 O   0  0  0  0  0  0  0  0  0  0  0  0
   -7.9320   19.8310  -31.7040 C   0  0  0  0  0  0  0  0  0  0  0  0
   -9.2450   20.2850  -31.8860 C   0  0  0  0  0  0  0  0  0  0  0  0
   -9.5160   21.6520  -31.9890 C   0  0  0  0  0  0  0  0  0  0  0  0
   -8.4740   22.5790  -31.9150 C   0  0  0  0  0  0  0  0  0  0  0  0
   -7.1590   22.1410  -31.7380 C   0  0  0  0  0  0  0  0  0  0  0  0
   -5.7350   23.4100  -31.6390 Br  0  0  0  0  0  0  0  0  0  0  0  0
   -6.8840   20.7720  -31.6350 C   0  0  0  0  0  0  0  0  0  0  0  0
   -5.0104   18.8385  -34.4628 H   0  0  0  0  0  0  0  0  0  0  0  0
   -5.1945   17.3900  -35.5091 H   0  0  0  0  0  0  0  0  0  0  0  0
   -6.4601   18.6647  -35.5091 H   0  0  0  0  0  0  0  0  0  0  0  0
   -7.3140   17.9640  -33.6160 H   0  0  0  0  0  0  0  0  0  0  0  0
   -7.0336   15.4552  -33.3293 H   0  0  0  0  0  0  0  0  0  0  0  0
   -7.7635   16.1409  -34.8205 H   0  0  0  0  0  0  0  0  0  0  0  0
   -6.0453   15.6173  -34.8205 H   0  0  0  0  0  0  0  0  0  0  0  0
   -5.2689   16.4154  -32.3684 H   0  0  0  0  0  0  0  0  0  0  0  0
   -4.8965   18.1993  -32.6341 H   0  0  0  0  0  0  0  0  0  0  0  0
   -6.6980   16.9051  -30.6877 H   0  0  0  0  0  0  0  0  0  0  0  0
   -5.8866   18.5290  -30.6830 H   0  0  0  0  0  0  0  0  0  0  0  0
  -10.0693   19.5593  -31.9483 H   0  0  0  0  0  0  0  0  0  0  0  0
  -10.5507   21.9982  -32.1285 H   0  0  0  0  0  0  0  0  0  0  0  0
   -8.6887   23.6548  -31.9961 H   0  0  0  0  0  0  0  0  0  0  0  0
   -5.8475   20.4295  -31.4999 H   0  0  0  0  0  0  0  0  0  0  0  0
  1  2  1  0
  2  3  1  0
  2  4  1  0
  4  5  1  0
  5  6  1  0
  6  7  1  0
  7  8  2  0
  8  9  1  0
  9 10  2  0
 10 11  1  0
 11 12  1  0
 11 13  2  0
 13  7  1  0
  1 14  1  0
  1 15  1  0
  1 16  1  0
  2 17  1  0
  3 18  1  0
  3 19  1  0
  3 20  1  0
  4 21  1  0
  4 22  1  0
  5 23  1  0
  5 24  1  0
  8 25  1  0
  9 26  1  0
 10 27  1  0
 13 28  1  0
M  CHG  1   2   1
M  END
>  <UniqueID>  (9) 
9

>  <SMILES>  (9) 
C[NH+](C)CCOc1cccc(Br)c1

>  <Energy>  (9) 
28.46992904331911

>  <Genealogy>  (9) 
C[NH+](C)CCOc1cccc(Br)c1 (protonated)
C[NH+](C)CCOc1cccc(Br)c1 (3D coordinates assigned)
C[NH+](C)CCOc1cccc(Br)c1 (optimized conformer: 28.46992904331911 kcal/mol)

>  <smiles>  (9) 
CN(C)CCOc1cccc(Br)c1

>  <score_type>  (9) 
oracle

>  <origin>  (9) 
adg

>  <m_score__min__energy>  (9) 
-4.6500000000000004

>  <m_primary>  (9) 
energy

$$$$
9:0
     RDKit          3D

 57 60  0  0  0  0  0  0  0  0999 V2000
   -3.8690   16.9460  -35.3530 C   0  0  0  0  0  0  0  0  0  0  0  0
   -3.6870   17.2820  -33.9270 N   0  0  0  0  0  0  0  0  0  0  0  0
   -2.3940   16.7610  -33.4310 C   0  0  0  0  0  0  0  0  0  0  0  0
   -4.8120   16.7960  -33.0970 C   0  0  0  0  0  0  0  0  0  0  0  0
   -5.9090   17.8840  -32.9060 C   0  0  0  0  0  0  0  0  0  0  0  0
   -5.6550   19.1800  -33.6020 N   0  0  0  0  0  0  0  0  0  0  0  0
   -5.8060   20.3780  -32.7810 C   0  0  0  0  0  0  0  0  0  0  0  0
   -7.1190   20.7560  -32.3520 C   0  0  0  0  0  0  0  0  0  0  0  0
   -8.2780   20.0610  -32.7900 C   0  0  0  0  0  0  0  0  0  0  0  0
   -9.5440   20.4260  -32.3430 C   0  0  0  0  0  0  0  0  0  0  0  0
   -9.6960   21.4750  -31.4490 C   0  0  0  0  0  0  0  0  0  0  0  0
   -8.5840   22.1860  -31.0190 C   0  0  0  0  0  0  0  0  0  0  0  0
   -7.2850   21.8740  -31.4900 C   0  0  0  0  0  0  0  0  0  0  0  0
   -6.1910   22.6070  -31.0970 N   0  0  0  0  0  0  0  0  0  0  0  0
   -6.3130   23.9450  -30.4880 C   0  0  0  0  0  0  0  0  0  0  0  0
   -4.9330   22.1300  -31.3150 C   0  0  0  0  0  0  0  0  0  0  0  0
   -3.9150   22.6350  -30.5700 N   0  0  0  0  0  0  0  0  0  0  0  0
   -2.6330   22.2450  -30.7050 C   0  0  0  0  0  0  0  0  0  0  0  0
   -1.6600   22.7260  -29.7690 N   0  0  0  0  0  0  0  0  0  0  0  0
   -0.9260   21.7360  -28.9850 C   0  0  0  0  0  0  0  0  0  0  0  0
   -1.7580   24.1090  -29.3100 C   0  0  0  0  0  0  0  0  0  0  0  0
   -2.2750   21.4030  -31.7650 C   0  0  0  0  0  0  0  0  0  0  0  0
   -0.9190   21.1340  -32.0220 C   0  0  0  0  0  0  0  0  0  0  0  0
   -0.5380   20.4630  -33.1750 C   0  0  0  0  0  0  0  0  0  0  0  0
   -1.5010   20.0750  -34.0970 C   0  0  0  0  0  0  0  0  0  0  0  0
   -2.8530   20.3080  -33.8400 C   0  0  0  0  0  0  0  0  0  0  0  0
   -3.2910   20.9040  -32.6330 C   0  0  0  0  0  0  0  0  0  0  0  0
   -4.6740   21.1220  -32.2870 C   0  0  0  0  0  0  0  0  0  0  0  0
   -4.3913   15.9817  -35.4387 H   0  0  0  0  0  0  0  0  0  0  0  0
   -4.4654   17.7307  -35.8414 H   0  0  0  0  0  0  0  0  0  0  0  0
   -2.8859   16.8752  -35.8414 H   0  0  0  0  0  0  0  0  0  0  0  0
   -2.3960   16.7618  -32.3310 H   0  0  0  0  0  0  0  0  0  0  0  0
   -2.2480   15.7339  -33.7966 H   0  0  0  0  0  0  0  0  0  0  0  0
   -1.5767   17.4000  -33.7966 H   0  0  0  0  0  0  0  0  0  0  0  0
   -5.2622   15.9201  -33.5870 H   0  0  0  0  0  0  0  0  0  0  0  0
   -4.4146   16.5366  -32.1046 H   0  0  0  0  0  0  0  0  0  0  0  0
   -6.8592   17.4773  -33.2825 H   0  0  0  0  0  0  0  0  0  0  0  0
   -5.9217   18.1154  -31.8307 H   0  0  0  0  0  0  0  0  0  0  0  0
   -6.2070   19.2490  -34.4810 H   0  0  0  0  0  0  0  0  0  0  0  0
   -4.6870   19.1590  -34.0010 H   0  0  0  0  0  0  0  0  0  0  0  0
   -8.1729   19.2216  -33.4932 H   0  0  0  0  0  0  0  0  0  0  0  0
  -10.4291   19.8795  -32.7007 H   0  0  0  0  0  0  0  0  0  0  0  0
  -10.6971   21.7436  -31.0808 H   0  0  0  0  0  0  0  0  0  0  0  0
   -8.7140   23.0073  -30.2988 H   0  0  0  0  0  0  0  0  0  0  0  0
   -6.3044   23.8512  -29.3920 H   0  0  0  0  0  0  0  0  0  0  0  0
   -5.4683   24.5723  -30.8089 H   0  0  0  0  0  0  0  0  0  0  0  0
   -7.2572   24.4092  -30.8089 H   0  0  0  0  0  0  0  0  0  0  0  0
   -1.0733   21.9346  -27.9132 H   0  0  0  0  0  0  0  0  0  0  0  0
   -1.2975   20.7290  -29.2257 H   0  0  0  0  0  0  0  0  0  0  0  0
    0.1455   21.7988  -29.2257 H   0  0  0  0  0  0  0  0  0  0  0  0
   -1.7596   24.1311  -28.2102 H   0  0  0  0  0  0  0  0  0  0  0  0
   -0.8982   24.6823  -29.6870 H   0  0  0  0  0  0  0  0  0  0  0  0
   -2.6900   24.5553  -29.6870 H   0  0  0  0  0  0  0  0  0  0  0  0
   -0.1532   21.4586  -31.3022 H   0  0  0  0  0  0  0  0  0  0  0  0
    0.5233   20.2391  -33.3581 H   0  0  0  0  0  0  0  0  0  0  0  0
   -1.1975   19.5826  -35.0326 H   0  0  0  0  0  0  0  0  0  0  0  0
   -3.5985   20.0206  -34.5961 H   0  0  0  0  0  0  0  0  0  0  0  0
  1  2  1  0
  2  3  1  0
  2  4  1  0
  4  5  1  0
  5  6  1  0
  6  7  1  0
  7  8  2  0
  8  9  1  0
  9 10  2  0
 10 11  1  0
 11 12  2  0
 12 13  1  0
 13 14  2  0
 14 15  1  0
 14 16  1  0
 16 17  2  0
 17 18  1  0
 18 19  1  0
 19 20  1  0
 19 21  1  0
 18 22  2  0
 22 23  1  0
 23 24  2  0
 24 25  1  0
 25 26  2  0
 26 27  1  0
 27 28  2  0
 28  7  1  0
 13  8  1  0
 28 16  1  0
 27 22  1  0
  1 29  1  0
  1 30  1  0
  1 31  1  0
  3 32  1  0
  3 33  1  0
  3 34  1  0
  4 35  1  0
  4 36  1  0
  5 37  1  0
  5 38  1  0
  6 39  1  0
  6 40  1  0
  9 41  1  0
 10 42  1  0
 11 43  1  0
 12 44  1  0
 15 45  1  0
 15 46  1  0
 15 47  1  0
 20 48  1  0
 20 49  1  0
 20 50  1  0
 21 51  1  0
 21 52  1  0
 21 53  1  0
 23 54  1  0
 24 55  1  0
 25 56  1  0
 26 57  1  0
M  CHG  2   6   1  14   1
M  END
>  <UniqueID>  (10) 
10

>  <SMILES>  (10) 
CN(C)CC[NH2+]c1c2ccccc2[n+](C)c2nc(N(C)C)c3ccccc3c12

>  <Energy>  (10) 
122.29496590323465

>  <Genealogy>  (10) 
CN(C)CC[NH2+]c1c2ccccc2[n+](C)c2nc(N(C)C)c3ccccc3c12 (protonated)
CN(C)CC[NH2+]c1c2ccccc2[n+](C)c2nc(N(C)C)c3ccccc3c12 (3D coordinates assigned)
CN(C)CC[NH2+]c1c2ccccc2[n+](C)c2nc(N(C)C)c3ccccc3c12 (optimized conformer: 122.29496590323465 kcal/mol)

>  <smiles>  (10) 
CN(C)CCNc1c2ccccc2[n+](C)c2nc(N(C)C)c3ccccc3c12

>  <score_type>  (10) 
oracle

>  <origin>  (10) 
adg

>  <m_score__min__energy>  (10) 
-8.3000000000000007

>  <m_primary>  (10) 
energy

$$$$
10:0
     RDKit          3D

 54 56  0  0  0  0  0  0  0  0999 V2000
   -5.1210   25.5840  -30.4900 C   0  0  0  0  0  0  0  0  0  0  0  0
   -3.8540   24.9220  -30.8060 N   0  0  0  0  0  0  0  0  0  0  0  0
   -3.5150   23.9490  -29.7610 C   0  0  0  0  0  0  0  0  0  0  0  0
   -2.1790   23.2570  -30.0660 C   0  0  0  0  0  0  0  0  0  0  0  0
   -2.3290   21.7520  -30.3430 C   0  0  0  0  0  0  0  0  0  0  0  0
   -1.9950   21.4190  -31.7320 N   0  0  0  0  0  0  0  0  0  0  0  0
   -0.7690   21.5100  -32.2780 C   0  0  0  0  0  0  0  0  0  0  0  0
   -0.8820   21.2500  -33.6250 C   0  0  0  0  0  0  0  0  0  0  0  0
    0.2210   21.3440  -34.6310 C   0  0  0  0  0  0  0  0  0  0  0  0
    0.1290   20.2980  -35.5320 F   0  0  0  0  0  0  0  0  0  0  0  0
    0.1330   22.5400  -35.3190 F   0  0  0  0  0  0  0  0  0  0  0  0
    1.4400   21.2810  -33.9810 F   0  0  0  0  0  0  0  0  0  0  0  0
   -2.1720   21.0190  -33.9420 N   0  0  0  0  0  0  0  0  0  0  0  0
   -2.8220   21.1090  -32.7610 C   0  0  0  0  0  0  0  0  0  0  0  0
   -4.2840   20.9400  -32.6580 C   0  0  0  0  0  0  0  0  0  0  0  0
   -4.9130   19.7720  -33.1390 C   0  0  0  0  0  0  0  0  0  0  0  0
   -6.3120   19.5860  -33.0360 C   0  0  0  0  0  0  0  0  0  0  0  0
   -6.8780   18.2420  -33.4640 C   0  0  0  0  0  0  0  0  0  0  0  0
   -6.5750   17.1190  -32.5360 N   0  0  0  0  0  0  0  0  0  0  0  0
   -6.4520   17.5060  -31.1180 C   0  0  0  0  0  0  0  0  0  0  0  0
   -5.3990   16.3430  -32.9590 C   0  0  0  0  0  0  0  0  0  0  0  0
   -7.0670   20.6520  -32.4720 C   0  0  0  0  0  0  0  0  0  0  0  0
   -6.4320   21.7930  -32.0280 C   0  0  0  0  0  0  0  0  0  0  0  0
   -7.3790   22.6600  -31.5380 C   0  0  0  0  0  0  0  0  0  0  0  0
   -8.5870   22.0130  -31.7130 C   0  0  0  0  0  0  0  0  0  0  0  0
   -8.4090   20.7940  -32.2800 N   0  0  0  0  0  0  0  0  0  0  0  0
   -9.5210   19.9400  -32.6960 C   0  0  0  0  0  0  0  0  0  0  0  0
   -5.0590   21.9760  -32.1160 C   0  0  0  0  0  0  0  0  0  0  0  0
   -5.2399   25.6461  -29.3982 H   0  0  0  0  0  0  0  0  0  0  0  0
   -5.1216   26.5977  -30.9172 H   0  0  0  0  0  0  0  0  0  0  0  0
   -5.9534   25.0056  -30.9172 H   0  0  0  0  0  0  0  0  0  0  0  0
   -3.1120   25.6610  -30.8230 H   0  0  0  0  0  0  0  0  0  0  0  0
   -3.4379   24.4703  -28.7955 H   0  0  0  0  0  0  0  0  0  0  0  0
   -4.3052   23.1846  -29.7243 H   0  0  0  0  0  0  0  0  0  0  0  0
   -1.7321   23.7331  -30.9512 H   0  0  0  0  0  0  0  0  0  0  0  0
   -1.5427   23.3649  -29.1752 H   0  0  0  0  0  0  0  0  0  0  0  0
   -1.6564   21.1975  -29.6721 H   0  0  0  0  0  0  0  0  0  0  0  0
   -3.3788   21.4744  -30.1672 H   0  0  0  0  0  0  0  0  0  0  0  0
    0.1610   21.7501  -31.7419 H   0  0  0  0  0  0  0  0  0  0  0  0
   -4.3005   18.9865  -33.6057 H   0  0  0  0  0  0  0  0  0  0  0  0
   -7.9711   18.3386  -33.5405 H   0  0  0  0  0  0  0  0  0  0  0  0
   -6.3990   17.9927  -34.4224 H   0  0  0  0  0  0  0  0  0  0  0  0
   -6.7234   16.6520  -30.4800 H   0  0  0  0  0  0  0  0  0  0  0  0
   -5.4145   17.8052  -30.9083 H   0  0  0  0  0  0  0  0  0  0  0  0
   -7.1264   18.3493  -30.9083 H   0  0  0  0  0  0  0  0  0  0  0  0
   -4.8570   15.9853  -32.0711 H   0  0  0  0  0  0  0  0  0  0  0  0
   -5.7250   15.4821  -33.5611 H   0  0  0  0  0  0  0  0  0  0  0  0
   -4.7357   16.9814  -33.5611 H   0  0  0  0  0  0  0  0  0  0  0  0
   -7.2112   23.6552  -31.1005 H   0  0  0  0  0  0  0  0  0  0  0  0
   -9.5642   22.4313  -31.4298 H   0  0  0  0  0  0  0  0  0  0  0  0
  -10.0337   19.5462  -31.8060 H   0  0  0  0  0  0  0  0  0  0  0  0
  -10.2299   20.5281  -33.2974 H   0  0  0  0  0  0  0  0  0  0  0  0
   -9.1358   19.1034  -33.2974 H   0  0  0  0  0  0  0  0  0  0  0  0
   -4.5907   22.9092  -31.7697 H   0  0  0  0  0  0  0  0  0  0  0  0
  1  2  1  0
  2  3  1  0
  3  4  1  0
  4  5  1  0
  5  6  1  0
  6  7  1  0
  7  8  2  0
  8  9  1  0
  9 10  1  0
  9 11  1  0
  9 12  1  0
  8 13  1  0
 13 14  2  0
 14 15  1  0
 15 16  2  0
 16 17  1  0
 17 18  1  0
 18 19  1  0
 19 20  1  0
 19 21  1  0
 17 22  2  0
 22 23  1  0
 23 24  1  0
 24 25  2  0
 25 26  1  0
 26 27  1  0
 23 28  2  0
 14  6  1  0
 28 15  1  0
 26 22  1  0
  1 29  1  0
  1 30  1  0
  1 31  1  0
  2 32  1  0
  3 33  1  0
  3 34  1  0
  4 35  1  0
  4 36  1  0
  5 37  1  0
  5 38  1  0
  7 39  1  0
 16 40  1  0
 18 41  1  0
 18 42  1  0
 20 43  1  0
 20 44  1  0
 20 45  1  0
 21 46  1  0
 21 47  1  0
 21 48  1  0
 24 49  1  0
 25 50  1  0
 27 51  1  0
 27 52  1  0
 27 53  1  0
 28 54  1  0
M  END
>  <UniqueID>  (11) 
11

>  <SMILES>  (11) 
CNCCCn1cc(C(F)(F)F)nc1-c1cc(CN(C)C)c2c(ccn2C)c1

>  <Energy>  (11) 
123.77749797606957

>  <Genealogy>  (11) 
CNCCCn1cc(C(F)(F)F)nc1-c1cc(CN(C)C)c2c(ccn2C)c1 (3D coordinates assigned)
CNCCCn1cc(C(F)(F)F)nc1-c1cc(CN(C)C)c2c(ccn2C)c1 (optimized conformer: 123.77749797606957 kcal/mol)

>  <smiles>  (11) 
CNCCCn1cc(C(F)(F)F)nc1-c1cc(CN(C)C)c2c(ccn2C)c1

>  <score_type>  (11) 
oracle

>  <origin>  (11) 
adg

>  <m_score__min__energy>  (11) 
-8.4299999999999997

>  <m_primary>  (11) 
energy

$$$$
11:0
     RDKit          3D

 64 68  0  0  0  0  0  0  0  0999 V2000
   -8.5970   18.2490  -31.4980 C   0  0  0  0  0  0  0  0  0  0  0  0
   -7.5210   18.2880  -32.5550 C   0  0  0  0  0  0  0  0  0  0  0  0
   -7.0040   17.0660  -33.0240 C   0  0  0  0  0  0  0  0  0  0  0  0
   -6.0850   17.0350  -34.0700 C   0  0  0  0  0  0  0  0  0  0  0  0
   -5.6740   18.2210  -34.6730 C   0  0  0  0  0  0  0  0  0  0  0  0
   -6.1780   19.4430  -34.2280 C   0  0  0  0  0  0  0  0  0  0  0  0
   -7.0830   19.5050  -33.1510 C   0  0  0  0  0  0  0  0  0  0  0  0
   -7.6160   20.8680  -32.7140 C   0  0  0  0  0  0  0  0  0  0  0  0
   -6.6150   21.9710  -32.7300 N   0  0  0  0  0  0  0  0  0  0  0  0
   -5.2250   21.5200  -32.4250 C   0  0  0  0  0  0  0  0  0  0  0  0
   -4.7310   21.9440  -31.0320 C   0  0  0  0  0  0  0  0  0  0  0  0
   -4.9070   23.3910  -30.8400 N   0  0  0  0  0  0  0  0  0  0  0  0
   -4.1410   24.1140  -29.8590 C   0  0  0  0  0  0  0  0  0  0  0  0
   -3.8500   25.3230  -30.0640 O   0  0  0  0  0  0  0  0  0  0  0  0
   -3.7080   23.4780  -28.5670 C   0  0  0  0  0  0  0  0  0  0  0  0
   -3.6760   24.4950  -27.5020 N   0  0  0  0  0  0  0  0  0  0  0  0
   -2.3390   24.8280  -26.9470 C   0  0  1  0  0  0  0  0  0  0  0  0
   -1.4830   25.6430  -27.9650 C   0  0  0  0  0  0  0  0  0  0  0  0
   -0.1330   26.0370  -27.3250 C   0  0  2  0  0  0  0  0  0  0  0  0
    0.6330   24.7600  -26.9150 C   0  0  0  0  0  0  0  0  0  0  0  0
   -0.1930   23.9640  -25.8810 C   0  0  1  0  0  0  0  0  0  0  0  0
   -0.4430   24.8400  -24.6380 C   0  0  0  0  0  0  0  0  0  0  0  0
   -1.2150   26.1110  -25.0520 C   0  0  1  0  0  0  0  0  0  0  0  0
   -0.3840   26.9080  -26.0790 C   0  0  0  0  0  0  0  0  0  0  0  0
   -2.5640   25.7080  -25.6850 C   0  0  0  0  0  0  0  0  0  0  0  0
   -1.5440   23.5590  -26.5070 C   0  0  0  0  0  0  0  0  0  0  0  0
   -5.8950   24.1040  -31.6530 C   0  0  0  0  0  0  0  0  0  0  0  0
   -7.0590   23.1620  -31.9610 C   0  0  0  0  0  0  0  0  0  0  0  0
   -8.1324   18.2658  -30.5011 H   0  0  0  0  0  0  0  0  0  0  0  0
   -9.2540   19.1239  -31.6112 H   0  0  0  0  0  0  0  0  0  0  0  0
   -9.1890   17.3288  -31.6112 H   0  0  0  0  0  0  0  0  0  0  0  0
   -7.3297   16.1239  -32.5588 H   0  0  0  0  0  0  0  0  0  0  0  0
   -5.6834   16.0727  -34.4202 H   0  0  0  0  0  0  0  0  0  0  0  0
   -4.9508   18.1941  -35.5014 H   0  0  0  0  0  0  0  0  0  0  0  0
   -5.8638   20.3722  -34.7258 H   0  0  0  0  0  0  0  0  0  0  0  0
   -8.4392   21.1447  -33.3891 H   0  0  0  0  0  0  0  0  0  0  0  0
   -7.9297   20.7533  -31.6659 H   0  0  0  0  0  0  0  0  0  0  0  0
   -6.5880   22.2840  -33.7300 H   0  0  0  0  0  0  0  0  0  0  0  0
   -5.1947   20.4221  -32.4852 H   0  0  0  0  0  0  0  0  0  0  0  0
   -4.5623   21.9983  -33.1612 H   0  0  0  0  0  0  0  0  0  0  0  0
   -5.3059   21.4047  -30.2647 H   0  0  0  0  0  0  0  0  0  0  0  0
   -3.6615   21.7018  -30.9456 H   0  0  0  0  0  0  0  0  0  0  0  0
   -4.4185   22.6839  -28.2937 H   0  0  0  0  0  0  0  0  0  0  0  0
   -2.7036   23.0469  -28.6907 H   0  0  0  0  0  0  0  0  0  0  0  0
   -4.1190   25.3720  -27.8670 H   0  0  0  0  0  0  0  0  0  0  0  0
   -2.0289   26.5535  -28.2532 H   0  0  0  0  0  0  0  0  0  0  0  0
   -1.2937   25.0240  -28.8544 H   0  0  0  0  0  0  0  0  0  0  0  0
    0.4634   26.6067  -28.0529 H   0  0  0  0  0  0  0  0  0  0  0  0
    1.6000   25.0405  -26.4720 H   0  0  0  0  0  0  0  0  0  0  0  0
    0.8003   24.1353  -27.8048 H   0  0  0  0  0  0  0  0  0  0  0  0
    0.3603   23.0604  -25.5855 H   0  0  0  0  0  0  0  0  0  0  0  0
    0.5205   25.1255  -24.1906 H   0  0  0  0  0  0  0  0  0  0  0  0
   -1.0347   24.2742  -23.9033 H   0  0  0  0  0  0  0  0  0  0  0  0
   -1.3961   26.7351  -24.1645 H   0  0  0  0  0  0  0  0  0  0  0  0
    0.5793   27.1916  -25.6300 H   0  0  0  0  0  0  0  0  0  0  0  0
   -0.9342   27.8147  -26.3708 H   0  0  0  0  0  0  0  0  0  0  0  0
   -3.1138   26.6165  -25.9719 H   0  0  0  0  0  0  0  0  0  0  0  0
   -3.1407   25.1288  -24.9488 H   0  0  0  0  0  0  0  0  0  0  0  0
   -1.3607   22.9229  -27.3855 H   0  0  0  0  0  0  0  0  0  0  0  0
   -2.1340   23.0083  -25.7596 H   0  0  0  0  0  0  0  0  0  0  0  0
   -6.2655   24.9794  -31.0995 H   0  0  0  0  0  0  0  0  0  0  0  0
   -5.4308   24.4405  -32.5917 H   0  0  0  0  0  0  0  0  0  0  0  0
   -7.5070   22.8276  -31.0136 H   0  0  0  0  0  0  0  0  0  0  0  0
   -7.7909   23.7106  -32.5720 H   0  0  0  0  0  0  0  0  0  0  0  0
  1  2  1  0
  2  3  2  0
  3  4  1  0
  4  5  2  0
  5  6  1  0
  6  7  2  0
  7  8  1  0
  8  9  1  0
  9 10  1  0
 10 11  1  0
 11 12  1  0
 12 13  1  0
 13 14  2  0
 13 15  1  0
 15 16  1  0
 17 16  1  6
 17 18  1  0
 18 19  1  0
 19 20  1  0
 20 21  1  0
 21 22  1  0
 22 23  1  0
 23 24  1  0
 23 25  1  0
 21 26  1  0
 12 27  1  0
 27 28  1  0
  7  2  1  0
 28  9  1  0
 25 17  1  0
 26 17  1  0
 24 19  1  0
  1 29  1  0
  1 30  1  0
  1 31  1  0
  3 32  1  0
  4 33  1  0
  5 34  1  0
  6 35  1  0
  8 36  1  0
  8 37  1  0
  9 38  1  0
 10 39  1  0
 10 40  1  0
 11 41  1  0
 11 42  1  0
 15 43  1  0
 15 44  1  0
 16 45  1  0
 18 46  1  0
 18 47  1  0
 19 48  1  6
 20 49  1  0
 20 50  1  0
 21 51  1  1
 22 52  1  0
 22 53  1  0
 23 54  1  1
 24 55  1  0
 24 56  1  0
 25 57  1  0
 25 58  1  0
 26 59  1  0
 26 60  1  0
 27 61  1  0
 27 62  1  0
 28 63  1  0
 28 64  1  0
M  CHG  1   9   1
M  END
>  <UniqueID>  (12) 
12

>  <SMILES>  (12) 
Cc1ccccc1C[NH+]1CCN(C(=O)CNC23CC4CC(CC(C4)C2)C3)CC1

>  <Energy>  (12) 
78.77456651425554

>  <Genealogy>  (12) 
Cc1ccccc1C[NH+]1CCN(C(=O)CNC23CC4CC(CC(C4)C2)C3)CC1 (protonated)
Cc1ccccc1C[NH+]1CCN(C(=O)CNC23CC4CC(CC(C4)C2)C3)CC1 (3D coordinates assigned)
Cc1ccccc1C[NH+]1CCN(C(=O)CNC23CC4CC(CC(C4)C2)C3)CC1 (nonaromatic ring conformer: 78.77456651425554 kcal/mol)

>  <smiles>  (12) 
Cc1ccccc1CN1CCN(C(=O)CNC23CC4CC(CC(C4)C2)C3)CC1

>  <score_type>  (12) 
oracle

>  <origin>  (12) 
adg

>  <m_score__min__energy>  (12) 
-10.27

>  <m_primary>  (12) 
energy

$$$$
12:0
     RDKit          3D

 64 67  0  0  0  0  0  0  0  0999 V2000
    0.6380   22.6530  -35.7790 C   0  0  0  0  0  0  0  0  0  0  0  0
    0.6190   21.2430  -35.1720 C   0  0  0  0  0  0  0  0  0  0  0  0
   -0.7030   20.8770  -34.5910 N   0  0  0  0  0  0  0  0  0  0  0  0
   -0.9510   19.4090  -34.5570 C   0  0  0  0  0  0  0  0  0  0  0  0
    0.0500   18.6190  -33.6990 C   0  0  0  0  0  0  0  0  0  0  0  0
   -0.8820   21.4810  -33.2430 C   0  0  0  0  0  0  0  0  0  0  0  0
   -2.1650   21.0120  -32.5310 C   0  0  0  0  0  0  0  0  0  0  0  0
   -3.3460   21.1390  -33.3900 N   0  0  0  0  0  0  0  0  0  0  0  0
   -4.6600   20.7230  -32.9710 C   0  0  0  0  0  0  0  0  0  0  0  0
   -5.1820   19.4780  -33.3690 C   0  0  0  0  0  0  0  0  0  0  0  0
   -4.3650   18.5150  -33.9960 C   0  0  0  0  0  0  0  0  0  0  0  0
   -4.8810   17.2760  -34.3690 C   0  0  0  0  0  0  0  0  0  0  0  0
   -6.2100   16.9650  -34.0990 C   0  0  0  0  0  0  0  0  0  0  0  0
   -7.0300   17.8910  -33.4570 C   0  0  0  0  0  0  0  0  0  0  0  0
   -6.5420   19.1700  -33.0860 C   0  0  0  0  0  0  0  0  0  0  0  0
   -7.3420   20.0930  -32.4400 N   0  0  0  0  0  0  0  0  0  0  0  0
   -8.8100   19.9050  -32.4040 C   0  0  0  0  0  0  0  0  0  0  0  0
   -6.7660   21.1890  -31.8280 C   0  0  0  0  0  0  0  0  0  0  0  0
   -7.4820   21.9780  -30.8910 C   0  0  0  0  0  0  0  0  0  0  0  0
   -6.9050   23.1040  -30.3110 C   0  0  0  0  0  0  0  0  0  0  0  0
   -5.5980   23.4660  -30.6290 C   0  0  0  0  0  0  0  0  0  0  0  0
   -4.8580   24.9110  -29.8580 S   0  0  0  0  0  0  0  0  0  0  0  0
   -4.5990   24.1330  -28.2200 C   0  0  0  0  0  0  0  0  0  0  0  0
   -3.2710   24.5230  -27.6130 C   0  0  0  0  0  0  0  0  0  0  0  0
   -3.2670   25.2300  -26.3970 C   0  0  0  0  0  0  0  0  0  0  0  0
   -2.0610   25.5670  -25.7750 C   0  0  0  0  0  0  0  0  0  0  0  0
   -0.8470   25.2120  -26.3640 C   0  0  0  0  0  0  0  0  0  0  0  0
   -0.8350   24.5120  -27.5720 C   0  0  0  0  0  0  0  0  0  0  0  0
   -2.0350   24.1630  -28.2030 C   0  0  0  0  0  0  0  0  0  0  0  0
   -1.9330   23.2670  -29.7180 Cl  0  0  0  0  0  0  0  0  0  0  0  0
   -4.8590   22.6910  -31.5210 C   0  0  0  0  0  0  0  0  0  0  0  0
   -5.4200   21.5400  -32.1130 C   0  0  0  0  0  0  0  0  0  0  0  0
    0.6481   23.3998  -34.9714 H   0  0  0  0  0  0  0  0  0  0  0  0
    1.5378   22.7727  -36.4003 H   0  0  0  0  0  0  0  0  0  0  0  0
   -0.2583   22.7969  -36.4003 H   0  0  0  0  0  0  0  0  0  0  0  0
    0.8678   20.5183  -35.9612 H   0  0  0  0  0  0  0  0  0  0  0  0
    1.3538   21.2273  -34.3535 H   0  0  0  0  0  0  0  0  0  0  0  0
   -1.4320   21.2770  -35.2260 H   0  0  0  0  0  0  0  0  0  0  0  0
   -1.9601   19.2392  -34.1534 H   0  0  0  0  0  0  0  0  0  0  0  0
   -0.8371   19.0459  -35.5891 H   0  0  0  0  0  0  0  0  0  0  0  0
   -0.1657   18.7892  -32.6339 H   0  0  0  0  0  0  0  0  0  0  0  0
   -0.0404   17.5462  -33.9245 H   0  0  0  0  0  0  0  0  0  0  0  0
    1.0725   18.9562  -33.9245 H   0  0  0  0  0  0  0  0  0  0  0  0
   -0.0173   21.2078  -32.6203 H   0  0  0  0  0  0  0  0  0  0  0  0
   -0.9654   22.5690  -33.3818 H   0  0  0  0  0  0  0  0  0  0  0  0
   -2.0465   19.9569  -32.2436 H   0  0  0  0  0  0  0  0  0  0  0  0
   -2.3165   21.6498  -31.6477 H   0  0  0  0  0  0  0  0  0  0  0  0
   -3.2260   21.5470  -34.3460 H   0  0  0  0  0  0  0  0  0  0  0  0
   -3.3075   18.7448  -34.1930 H   0  0  0  0  0  0  0  0  0  0  0  0
   -4.2373   16.5430  -34.8773 H   0  0  0  0  0  0  0  0  0  0  0  0
   -6.6146   15.9853  -34.3932 H   0  0  0  0  0  0  0  0  0  0  0  0
   -8.0739   17.6254  -33.2341 H   0  0  0  0  0  0  0  0  0  0  0  0
   -9.1486   19.8616  -31.3583 H   0  0  0  0  0  0  0  0  0  0  0  0
   -9.3002   20.7477  -32.9135 H   0  0  0  0  0  0  0  0  0  0  0  0
   -9.0720   18.9660  -32.9135 H   0  0  0  0  0  0  0  0  0  0  0  0
   -8.5095   21.6953  -30.6186 H   0  0  0  0  0  0  0  0  0  0  0  0
   -7.4834   23.7105  -29.5986 H   0  0  0  0  0  0  0  0  0  0  0  0
   -5.4060   24.4514  -27.5437 H   0  0  0  0  0  0  0  0  0  0  0  0
   -4.6031   23.0416  -28.3572 H   0  0  0  0  0  0  0  0  0  0  0  0
   -4.2205   25.5201  -25.9316 H   0  0  0  0  0  0  0  0  0  0  0  0
   -2.0693   26.1128  -24.8200 H   0  0  0  0  0  0  0  0  0  0  0  0
    0.1009   25.4837  -25.8765 H   0  0  0  0  0  0  0  0  0  0  0  0
    0.1246   24.2326  -28.0314 H   0  0  0  0  0  0  0  0  0  0  0  0
   -3.8264   22.9802  -31.7662 H   0  0  0  0  0  0  0  0  0  0  0  0
  1  2  1  0
  2  3  1  0
  3  4  1  0
  4  5  1  0
  3  6  1  0
  6  7  1  0
  7  8  1  0
  8  9  1  0
  9 10  2  0
 10 11  1  0
 11 12  2  0
 12 13  1  0
 13 14  2  0
 14 15  1  0
 15 16  2  0
 16 17  1  0
 16 18  1  0
 18 19  2  0
 19 20  1  0
 20 21  2  0
 21 22  1  0
 22 23  1  0
 23 24  1  0
 24 25  2  0
 25 26  1  0
 26 27  2  0
 27 28  1  0
 28 29  2  0
 29 30  1  0
 21 31  1  0
 31 32  2  0
 32  9  1  0
 15 10  1  0
 32 18  1  0
 29 24  1  0
  1 33  1  0
  1 34  1  0
  1 35  1  0
  2 36  1  0
  2 37  1  0
  3 38  1  0
  4 39  1  0
  4 40  1  0
  5 41  1  0
  5 42  1  0
  5 43  1  0
  6 44  1  0
  6 45  1  0
  7 46  1  0
  7 47  1  0
  8 48  1  0
 11 49  1  0
 12 50  1  0
 13 51  1  0
 14 52  1  0
 17 53  1  0
 17 54  1  0
 17 55  1  0
 19 56  1  0
 20 57  1  0
 23 58  1  0
 23 59  1  0
 25 60  1  0
 26 61  1  0
 27 62  1  0
 28 63  1  0
 31 64  1  0
M  CHG  2   3   1  16   1
M  END
>  <UniqueID>  (13) 
13

>  <SMILES>  (13) 
CC[NH+](CC)CCNc1c2ccccc2[n+](C)c2ccc(SCc3ccccc3Cl)cc12

>  <Energy>  (13) 
90.58587027448479

>  <Genealogy>  (13) 
CC[NH+](CC)CCNc1c2ccccc2[n+](C)c2ccc(SCc3ccccc3Cl)cc12 (protonated)
CC[NH+](CC)CCNc1c2ccccc2[n+](C)c2ccc(SCc3ccccc3Cl)cc12 (3D coordinates assigned)
CC[NH+](CC)CCNc1c2ccccc2[n+](C)c2ccc(SCc3ccccc3Cl)cc12 (optimized conformer: 90.58587027448479 kcal/mol)

>  <smiles>  (13) 
CCN(CC)CCNc1c2ccccc2[n+](C)c2ccc(SCc3ccccc3Cl)cc12

>  <score_type>  (13) 
oracle

>  <origin>  (13) 
adg

>  <m_score__min__energy>  (13) 
-9.1500000000000004

>  <m_primary>  (13) 
energy

$$$$
13:0
     RDKit          3D

 55 57  0  0  0  0  0  0  0  0999 V2000
   -2.7600   19.2900  -26.7220 C   0  0  0  0  0  0  0  0  0  0  0  0
   -1.8900   20.0460  -27.7380 C   0  0  0  0  0  0  0  0  0  0  0  0
   -2.6830   20.9950  -28.5700 N   0  0  0  0  0  0  0  0  0  0  0  0
   -2.9240   22.2610  -27.8250 C   0  0  0  0  0  0  0  0  0  0  0  0
   -4.2440   22.9290  -28.2190 C   0  0  0  0  0  0  0  0  0  0  0  0
   -1.9670   21.2750  -29.8430 C   0  0  0  0  0  0  0  0  0  0  0  0
   -2.7230   20.7210  -31.0710 C   0  0  0  0  0  0  0  0  0  0  0  0
   -2.3900   21.4840  -32.3640 C   0  0  0  0  0  0  0  0  0  0  0  0
   -3.5430   21.5590  -33.2640 N   0  0  0  0  0  0  0  0  0  0  0  0
   -4.8710   21.1940  -32.8470 C   0  0  0  0  0  0  0  0  0  0  0  0
   -5.6690   22.1030  -32.1320 C   0  0  0  0  0  0  0  0  0  0  0  0
   -5.1360   23.3200  -31.6600 C   0  0  0  0  0  0  0  0  0  0  0  0
   -5.9190   24.1990  -30.9150 C   0  0  0  0  0  0  0  0  0  0  0  0
   -7.2340   23.8710  -30.6090 C   0  0  0  0  0  0  0  0  0  0  0  0
   -7.7800   22.6690  -31.0560 C   0  0  0  0  0  0  0  0  0  0  0  0
   -7.0220   21.7710  -31.8510 C   0  0  0  0  0  0  0  0  0  0  0  0
   -7.5590   20.5900  -32.3290 N   0  0  0  0  0  0  0  0  0  0  0  0
   -9.0250   20.3800  -32.3020 C   0  0  0  0  0  0  0  0  0  0  0  0
   -6.7300   19.6140  -32.8490 C   0  0  0  0  0  0  0  0  0  0  0  0
   -7.1940   18.2980  -33.1020 C   0  0  0  0  0  0  0  0  0  0  0  0
   -6.3610   17.3340  -33.6830 C   0  0  0  0  0  0  0  0  0  0  0  0
   -6.8540   16.0170  -33.9430 N   0  0  0  0  0  0  0  0  0  0  0  0
   -5.0430   17.6610  -33.9990 C   0  0  0  0  0  0  0  0  0  0  0  0
   -4.5480   18.9300  -33.7190 C   0  0  0  0  0  0  0  0  0  0  0  0
   -5.3730   19.9140  -33.1350 C   0  0  0  0  0  0  0  0  0  0  0  0
   -2.4500   19.5594  -25.7016 H   0  0  0  0  0  0  0  0  0  0  0  0
   -3.8156   19.5626  -26.8685 H   0  0  0  0  0  0  0  0  0  0  0  0
   -2.6373   18.2067  -26.8685 H   0  0  0  0  0  0  0  0  0  0  0  0
   -1.1209   20.6123  -27.1923 H   0  0  0  0  0  0  0  0  0  0  0  0
   -1.4404   19.3030  -28.4131 H   0  0  0  0  0  0  0  0  0  0  0  0
   -3.6080   20.5530  -28.7930 H   0  0  0  0  0  0  0  0  0  0  0  0
   -2.9489   22.0377  -26.7482 H   0  0  0  0  0  0  0  0  0  0  0  0
   -2.1091   22.9566  -28.0742 H   0  0  0  0  0  0  0  0  0  0  0  0
   -4.7983   23.2095  -27.3112 H   0  0  0  0  0  0  0  0  0  0  0  0
   -4.0355   23.8301  -28.8144 H   0  0  0  0  0  0  0  0  0  0  0  0
   -4.8466   22.2274  -28.8144 H   0  0  0  0  0  0  0  0  0  0  0  0
   -1.8574   22.3637  -29.9559 H   0  0  0  0  0  0  0  0  0  0  0  0
   -0.9873   20.7770  -29.7963 H   0  0  0  0  0  0  0  0  0  0  0  0
   -2.4500   19.6639  -31.2054 H   0  0  0  0  0  0  0  0  0  0  0  0
   -3.7999   20.8409  -30.8813 H   0  0  0  0  0  0  0  0  0  0  0  0
   -2.0747   22.5051  -32.1036 H   0  0  0  0  0  0  0  0  0  0  0  0
   -1.5859   20.9420  -32.8832 H   0  0  0  0  0  0  0  0  0  0  0  0
   -3.4040   21.9190  -34.2320 H   0  0  0  0  0  0  0  0  0  0  0  0
   -4.0902   23.5783  -31.8825 H   0  0  0  0  0  0  0  0  0  0  0  0
   -5.4958   25.1535  -30.5687 H   0  0  0  0  0  0  0  0  0  0  0  0
   -7.8465   24.5625  -30.0117 H   0  0  0  0  0  0  0  0  0  0  0  0
   -8.8155   22.4124  -30.7880 H   0  0  0  0  0  0  0  0  0  0  0  0
   -9.3692   20.3307  -31.2584 H   0  0  0  0  0  0  0  0  0  0  0  0
   -9.5246   21.2157  -32.8138 H   0  0  0  0  0  0  0  0  0  0  0  0
   -9.2699   19.4376  -32.8138 H   0  0  0  0  0  0  0  0  0  0  0  0
   -8.2273   18.0296  -32.8370 H   0  0  0  0  0  0  0  0  0  0  0  0
   -6.5330   15.2030  -33.3720 H   0  0  0  0  0  0  0  0  0  0  0  0
   -7.5670   15.8470  -34.6870 H   0  0  0  0  0  0  0  0  0  0  0  0
   -4.3915   16.9115  -34.4721 H   0  0  0  0  0  0  0  0  0  0  0  0
   -3.5008   19.1693  -33.9557 H   0  0  0  0  0  0  0  0  0  0  0  0
  1  2  1  0
  2  3  1  0
  3  4  1  0
  4  5  1  0
  3  6  1  0
  6  7  1  0
  7  8  1  0
  8  9  1  0
  9 10  1  0
 10 11  2  0
 11 12  1  0
 12 13  2  0
 13 14  1  0
 14 15  2  0
 15 16  1  0
 16 17  2  0
 17 18  1  0
 17 19  1  0
 19 20  2  0
 20 21  1  0
 21 22  1  0
 21 23  2  0
 23 24  1  0
 24 25  2  0
 25 10  1  0
 16 11  1  0
 25 19  1  0
  1 26  1  0
  1 27  1  0
  1 28  1  0
  2 29  1  0
  2 30  1  0
  3 31  1  0
  4 32  1  0
  4 33  1  0
  5 34  1  0
  5 35  1  0
  5 36  1  0
  6 37  1  0
  6 38  1  0
  7 39  1  0
  7 40  1  0
  8 41  1  0
  8 42  1  0
  9 43  1  0
 12 44  1  0
 13 45  1  0
 14 46  1  0
 15 47  1  0
 18 48  1  0
 18 49  1  0
 18 50  1  0
 20 51  1  0
 22 52  1  0
 22 53  1  0
 23 54  1  0
 24 55  1  0
M  CHG  2   3   1  17   1
M  END
>  <UniqueID>  (14) 
14

>  <SMILES>  (14) 
CC[NH+](CC)CCCNc1c2ccccc2[n+](C)c2cc(N)ccc12

>  <Energy>  (14) 
78.93633687309091

>  <Genealogy>  (14) 
CC[NH+](CC)CCCNc1c2ccccc2[n+](C)c2cc(N)ccc12 (protonated)
CC[NH+](CC)CCCNc1c2ccccc2[n+](C)c2cc(N)ccc12 (3D coordinates assigned)
CC[NH+](CC)CCCNc1c2ccccc2[n+](C)c2cc(N)ccc12 (optimized conformer: 78.93633687309091 kcal/mol)

>  <smiles>  (14) 
CCN(CC)CCCNc1c2ccccc2[n+](C)c2cc(N)ccc12

>  <score_type>  (14) 
oracle

>  <origin>  (14) 
adg

>  <m_score__min__energy>  (14) 
-6.7599999999999998

>  <m_primary>  (14) 
energy

$$$$
14:0
     RDKit          3D

 43 45  0  0  0  0  0  0  0  0999 V2000
   -4.4720   17.7310  -35.2860 C   0  0  0  0  0  0  0  0  0  0  0  0
   -5.7950   18.2820  -34.7660 C   0  0  0  0  0  0  0  0  0  0  0  0
   -6.2510   17.5190  -33.6000 N   0  0  0  0  0  0  0  0  0  0  0  0
   -6.0560   16.0960  -33.5250 C   0  0  0  0  0  0  0  0  0  0  0  0
   -6.8550   15.2340  -34.2900 C   0  0  0  0  0  0  0  0  0  0  0  0
   -6.6690   13.8510  -34.2210 C   0  0  0  0  0  0  0  0  0  0  0  0
   -5.6780   13.3190  -33.3930 C   0  0  0  0  0  0  0  0  0  0  0  0
   -4.8570   14.1690  -32.6360 C   0  0  0  0  0  0  0  0  0  0  0  0
   -3.8200   13.5970  -31.7140 C   0  0  0  0  0  0  0  0  0  0  0  0
   -5.0590   15.5570  -32.6950 C   0  0  0  0  0  0  0  0  0  0  0  0
   -7.0220   18.3590  -32.2860 S   0  0  0  0  0  0  0  0  0  0  0  0
   -6.9710   17.5300  -31.0320 O   0  0  0  0  0  0  0  0  0  0  0  0
   -8.4570   18.6160  -32.6490 O   0  0  0  0  0  0  0  0  0  0  0  0
   -6.1760   19.8730  -31.9860 C   0  0  0  0  0  0  0  0  0  0  0  0
   -4.8460   20.0410  -32.3940 C   0  0  0  0  0  0  0  0  0  0  0  0
   -4.1790   21.2420  -32.1370 C   0  0  0  0  0  0  0  0  0  0  0  0
   -4.8410   22.2870  -31.4830 C   0  0  0  0  0  0  0  0  0  0  0  0
   -6.1810   22.1310  -31.0810 C   0  0  0  0  0  0  0  0  0  0  0  0
   -6.8390   20.9160  -31.3240 C   0  0  0  0  0  0  0  0  0  0  0  0
   -6.8580   23.2180  -30.2780 C   0  0  0  0  0  0  0  0  0  0  0  0
   -6.3670   24.6190  -30.6720 C   0  0  0  0  0  0  0  0  0  0  0  0
   -4.8690   24.6600  -30.7550 C   0  0  0  0  0  0  0  0  0  0  0  0
   -4.2450   25.7160  -30.4720 O   0  0  0  0  0  0  0  0  0  0  0  0
   -4.1560   23.5170  -31.2330 N   0  0  0  0  0  0  0  0  0  0  0  0
   -3.8273   17.4625  -34.4362 H   0  0  0  0  0  0  0  0  0  0  0  0
   -4.6624   16.8374  -35.8985 H   0  0  0  0  0  0  0  0  0  0  0  0
   -3.9718   18.4956  -35.8985 H   0  0  0  0  0  0  0  0  0  0  0  0
   -5.6596   19.3350  -34.4782 H   0  0  0  0  0  0  0  0  0  0  0  0
   -6.5503   18.1982  -35.5613 H   0  0  0  0  0  0  0  0  0  0  0  0
   -7.6326   15.6491  -34.9481 H   0  0  0  0  0  0  0  0  0  0  0  0
   -7.3036   13.1806  -34.8193 H   0  0  0  0  0  0  0  0  0  0  0  0
   -5.5404   12.2292  -33.3340 H   0  0  0  0  0  0  0  0  0  0  0  0
   -4.1245   13.7650  -30.6704 H   0  0  0  0  0  0  0  0  0  0  0  0
   -3.7215   12.5170  -31.8979 H   0  0  0  0  0  0  0  0  0  0  0  0
   -2.8539   14.0898  -31.8979 H   0  0  0  0  0  0  0  0  0  0  0  0
   -4.4326   16.2267  -32.0875 H   0  0  0  0  0  0  0  0  0  0  0  0
   -4.3256   19.2256  -32.9178 H   0  0  0  0  0  0  0  0  0  0  0  0
   -3.1316   21.3660  -32.4494 H   0  0  0  0  0  0  0  0  0  0  0  0
   -7.8795   20.7811  -30.9937 H   0  0  0  0  0  0  0  0  0  0  0  0
   -7.9432   23.1615  -30.4489 H   0  0  0  0  0  0  0  0  0  0  0  0
   -6.6119   23.0588  -29.2178 H   0  0  0  0  0  0  0  0  0  0  0  0
   -6.7891   24.8857  -31.6522 H   0  0  0  0  0  0  0  0  0  0  0  0
   -6.6953   25.3345  -29.9037 H   0  0  0  0  0  0  0  0  0  0  0  0
  1  2  1  0
  2  3  1  0
  3  4  1  0
  4  5  2  0
  5  6  1  0
  6  7  2  0
  7  8  1  0
  8  9  1  0
  8 10  2  0
  3 11  1  0
 11 12  2  0
 11 13  2  0
 11 14  1  0
 14 15  2  0
 15 16  1  0
 16 17  2  0
 17 18  1  0
 18 19  2  0
 18 20  1  0
 20 21  1  0
 21 22  1  0
 22 23  2  0
 22 24  1  0
 10  4  1  0
 19 14  1  0
 24 17  1  0
  1 25  1  0
  1 26  1  0
  1 27  1  0
  2 28  1  0
  2 29  1  0
  5 30  1  0
  6 31  1  0
  7 32  1  0
  9 33  1  0
  9 34  1  0
  9 35  1  0
 10 36  1  0
 15 37  1  0
 16 38  1  0
 19 39  1  0
 20 40  1  0
 20 41  1  0
 21 42  1  0
 21 43  1  0
M  CHG  1  24  -1
M  END
>  <UniqueID>  (15) 
15

>  <SMILES>  (15) 
CCN(c1cccc(C)c1)S(=O)(=O)c1ccc2c(c1)CCC(=O)[N-]2

>  <Energy>  (15) 
45.72279158837337

>  <Genealogy>  (15) 
CCN(c1cccc(C)c1)S(=O)(=O)c1ccc2c(c1)CCC(=O)[N-]2 (protonated)
CCN(c1cccc(C)c1)S(=O)(=O)c1ccc2c(c1)CCC(=O)[N-]2 (3D coordinates assigned)
CCN(c1cccc(C)c1)S(=O)(=O)c1ccc2c(c1)CCC(=O)[N-]2 (nonaromatic ring conformer: 45.72279158837337 kcal/mol)

>  <smiles>  (15) 
CCN(c1cccc(C)c1)S(=O)(=O)c1ccc2c(c1)CCC(=O)N2

>  <score_type>  (15) 
oracle

>  <origin>  (15) 
adg

>  <m_score__min__energy>  (15) 
-10.890000000000001

>  <m_primary>  (15) 
energy

$$$$
15:0
     RDKit          3D

 69 71  0  0  0  0  0  0  0  0999 V2000
    1.7530   18.4030  -32.2900 C   0  0  0  0  0  0  0  0  0  0  0  0
    0.7440   19.2630  -31.5100 C   0  0  0  0  0  0  0  0  0  0  0  0
    0.0200   20.2580  -32.3420 N   0  0  1  0  0  0  0  0  0  0  0  0
   -0.5390   21.3490  -31.5150 C   0  0  0  0  0  0  0  0  0  0  0  0
    0.8720   20.7670  -33.4500 C   0  0  0  0  0  0  0  0  0  0  0  0
    0.3210   20.4190  -34.8430 C   0  0  0  0  0  0  0  0  0  0  0  0
   -0.8880   19.7030  -34.7190 O   0  0  0  0  0  0  0  0  0  0  0  0
   -0.6790   18.3460  -35.0430 C   0  0  0  0  0  0  0  0  0  0  0  0
   -1.4270   17.4750  -34.0420 C   0  0  0  0  0  0  0  0  0  0  0  0
   -1.8960   18.2810  -32.9650 O   0  0  0  0  0  0  0  0  0  0  0  0
   -3.1790   18.8400  -32.8860 C   0  0  0  0  0  0  0  0  0  0  0  0
   -4.3410   18.0950  -33.1240 C   0  0  0  0  0  0  0  0  0  0  0  0
   -5.6000   18.6830  -32.9880 C   0  0  0  0  0  0  0  0  0  0  0  0
   -5.7380   20.0440  -32.6210 C   0  0  0  0  0  0  0  0  0  0  0  0
   -4.5540   20.7980  -32.4280 C   0  0  0  0  0  0  0  0  0  0  0  0
   -3.2940   20.1890  -32.5500 C   0  0  0  0  0  0  0  0  0  0  0  0
   -4.6230   22.1560  -32.1170 C   0  0  0  0  0  0  0  0  0  0  0  0
   -5.8500   22.8070  -31.9650 C   0  0  0  0  0  0  0  0  0  0  0  0
   -5.8220   24.3000  -31.6690 C   0  0  0  0  0  0  0  0  0  0  0  0
   -4.5110   24.7430  -31.1680 N   0  0  0  0  0  0  0  0  0  0  0  0
   -4.5110   24.9030  -29.7060 C   0  0  0  0  0  0  0  0  0  0  0  0
   -4.6040   23.5370  -29.0270 C   0  0  0  0  0  0  0  0  0  0  0  0
   -3.2680   23.1440  -28.5200 N   0  0  0  0  0  0  0  0  0  0  0  0
   -3.1050   21.6820  -28.5190 C   0  0  0  0  0  0  0  0  0  0  0  0
   -2.1890   23.7690  -29.3040 C   0  0  0  0  0  0  0  0  0  0  0  0
   -7.0540   22.0620  -32.0760 C   0  0  0  0  0  0  0  0  0  0  0  0
   -8.3110   22.6670  -31.8390 C   0  0  0  0  0  0  0  0  0  0  0  0
   -9.4920   21.9420  -31.9600 C   0  0  0  0  0  0  0  0  0  0  0  0
   -9.4520   20.6020  -32.3190 C   0  0  0  0  0  0  0  0  0  0  0  0
   -8.2300   19.9710  -32.5480 C   0  0  0  0  0  0  0  0  0  0  0  0
   -7.0040   20.6770  -32.4260 C   0  0  0  0  0  0  0  0  0  0  0  0
    2.3938   17.8569  -31.5821 H   0  0  0  0  0  0  0  0  0  0  0  0
    1.2108   17.6850  -32.9229 H   0  0  0  0  0  0  0  0  0  0  0  0
    2.3760   19.0521  -32.9229 H   0  0  0  0  0  0  0  0  0  0  0  0
    0.0025   18.5930  -31.0503 H   0  0  0  0  0  0  0  0  0  0  0  0
    1.3220   19.8328  -30.7676 H   0  0  0  0  0  0  0  0  0  0  0  0
   -0.7900   19.7410  -32.7630 H   0  0  0  0  0  0  0  0  0  0  0  0
   -0.4131   21.1033  -30.4502 H   0  0  0  0  0  0  0  0  0  0  0  0
   -0.0105   22.2872  -31.7398 H   0  0  0  0  0  0  0  0  0  0  0  0
   -1.6092   21.4681  -31.7398 H   0  0  0  0  0  0  0  0  0  0  0  0
    0.9411   21.8615  -33.3642 H   0  0  0  0  0  0  0  0  0  0  0  0
    1.8557   20.2838  -33.3561 H   0  0  0  0  0  0  0  0  0  0  0  0
    0.1387   21.3470  -35.4048 H   0  0  0  0  0  0  0  0  0  0  0  0
    1.0553   19.7977  -35.3766 H   0  0  0  0  0  0  0  0  0  0  0  0
   -1.0547   18.1472  -36.0576 H   0  0  0  0  0  0  0  0  0  0  0  0
    0.3961   18.1165  -35.0041 H   0  0  0  0  0  0  0  0  0  0  0  0
   -2.2826   16.9962  -34.5407 H   0  0  0  0  0  0  0  0  0  0  0  0
   -0.7489   16.7018  -33.6517 H   0  0  0  0  0  0  0  0  0  0  0  0
   -4.2610   17.0387  -33.4203 H   0  0  0  0  0  0  0  0  0  0  0  0
   -6.5009   18.0784  -33.1691 H   0  0  0  0  0  0  0  0  0  0  0  0
   -2.3851   20.7843  -32.3781 H   0  0  0  0  0  0  0  0  0  0  0  0
   -3.6914   22.7267  -31.9886 H   0  0  0  0  0  0  0  0  0  0  0  0
   -6.0516   24.8489  -32.5942 H   0  0  0  0  0  0  0  0  0  0  0  0
   -6.5685   24.5033  -30.8871 H   0  0  0  0  0  0  0  0  0  0  0  0
   -4.2580   25.6600  -31.6060 H   0  0  0  0  0  0  0  0  0  0  0  0
   -3.5810   25.4012  -29.3947 H   0  0  0  0  0  0  0  0  0  0  0  0
   -5.3789   25.5110  -29.4109 H   0  0  0  0  0  0  0  0  0  0  0  0
   -5.3127   23.5925  -28.1876 H   0  0  0  0  0  0  0  0  0  0  0  0
   -4.9540   22.7897  -29.7543 H   0  0  0  0  0  0  0  0  0  0  0  0
   -3.0645   21.3183  -27.4817 H   0  0  0  0  0  0  0  0  0  0  0  0
   -3.9569   21.2177  -29.0373 H   0  0  0  0  0  0  0  0  0  0  0  0
   -2.1717   21.4168  -29.0373 H   0  0  0  0  0  0  0  0  0  0  0  0
   -1.4427   24.2013  -28.6212 H   0  0  0  0  0  0  0  0  0  0  0  0
   -1.7091   23.0091  -29.9382 H   0  0  0  0  0  0  0  0  0  0  0  0
   -2.6094   24.5634  -29.9382 H   0  0  0  0  0  0  0  0  0  0  0  0
   -8.3550   23.7286  -31.5543 H   0  0  0  0  0  0  0  0  0  0  0  0
  -10.4588   22.4314  -31.7709 H   0  0  0  0  0  0  0  0  0  0  0  0
  -10.3889   20.0351  -32.4234 H   0  0  0  0  0  0  0  0  0  0  0  0
   -8.2153   18.9074  -32.8282 H   0  0  0  0  0  0  0  0  0  0  0  0
  1  2  1  0
  2  3  1  0
  3  4  1  0
  3  5  1  0
  5  6  1  0
  6  7  1  0
  7  8  1  0
  8  9  1  0
  9 10  1  0
 10 11  1  0
 11 12  2  0
 12 13  1  0
 13 14  2  0
 14 15  1  0
 15 16  2  0
 15 17  1  0
 17 18  2  0
 18 19  1  0
 19 20  1  0
 20 21  1  0
 21 22  1  0
 22 23  1  0
 23 24  1  0
 23 25  1  0
 18 26  1  0
 26 27  2  0
 27 28  1  0
 28 29  2  0
 29 30  1  0
 30 31  2  0
 16 11  1  0
 31 26  1  0
 31 14  1  0
  1 32  1  0
  1 33  1  0
  1 34  1  0
  2 35  1  0
  2 36  1  0
  3 37  1  6
  4 38  1  0
  4 39  1  0
  4 40  1  0
  5 41  1  0
  5 42  1  0
  6 43  1  0
  6 44  1  0
  8 45  1  0
  8 46  1  0
  9 47  1  0
  9 48  1  0
 12 49  1  0
 13 50  1  0
 16 51  1  0
 17 52  1  0
 19 53  1  0
 19 54  1  0
 20 55  1  0
 21 56  1  0
 21 57  1  0
 22 58  1  0
 22 59  1  0
 24 60  1  0
 24 61  1  0
 24 62  1  0
 25 63  1  0
 25 64  1  0
 25 65  1  0
 27 66  1  0
 28 67  1  0
 29 68  1  0
 30 69  1  0
M  CHG  1   3   1
M  END
>  <UniqueID>  (16) 
16

>  <SMILES>  (16) 
CC[N@@H+](C)CCOCCOc1ccc2c(c1)cc(CNCCN(C)C)c1ccccc12

>  <Energy>  (16) 
84.60298310356211

>  <Genealogy>  (16) 
CC[NH+](C)CCOCCOc1ccc2c(c1)cc(CNCCN(C)C)c1ccccc12 (protonated)
CC[N@@H+](C)CCOCCOc1ccc2c(c1)cc(CNCCN(C)C)c1ccccc12 (chirality)
CC[N@@H+](C)CCOCCOc1ccc2c(c1)cc(CNCCN(C)C)c1ccccc12 (3D coordinates assigned)
CC[N@@H+](C)CCOCCOc1ccc2c(c1)cc(CNCCN(C)C)c1ccccc12 (optimized conformer: 84.60298310356211 kcal/mol)

>  <smiles>  (16) 
CCN(C)CCOCCOc1ccc2c(c1)cc(CNCCN(C)C)c1ccccc12

>  <score_type>  (16) 
oracle

>  <origin>  (16) 
adg

>  <m_score__min__energy>  (16) 
-9.3300000000000001

>  <m_primary>  (16) 
energy

$$$$
16:0
     RDKit          3D

 76 79  0  0  0  0  0  0  0  0999 V2000
    0.6290   22.8170  -26.7650 C   0  0  0  0  0  0  0  0  0  0  0  0
   -0.5430   22.6740  -25.7940 C   0  0  0  0  0  0  0  0  0  0  0  0
   -0.2000   23.2010  -24.3940 C   0  0  0  0  0  0  0  0  0  0  0  0
    0.3540   24.5620  -24.4690 N   0  0  0  0  0  0  0  0  0  0  0  0
   -0.6900   25.5880  -24.3130 C   0  0  0  0  0  0  0  0  0  0  0  0
   -0.7910   26.4320  -25.5860 C   0  0  0  0  0  0  0  0  0  0  0  0
   -1.6870   25.7620  -26.5970 C   0  0  0  0  0  0  0  0  0  0  0  0
   -2.9380   25.2600  -26.2080 C   0  0  0  0  0  0  0  0  0  0  0  0
   -3.7190   24.5350  -27.1110 C   0  0  0  0  0  0  0  0  0  0  0  0
   -3.2550   24.2870  -28.4140 C   0  0  0  0  0  0  0  0  0  0  0  0
   -4.0510   23.4620  -29.3510 C   0  0  0  0  0  0  0  0  0  0  0  0
   -5.4180   23.6950  -29.5200 C   0  0  0  0  0  0  0  0  0  0  0  0
   -6.1660   22.9140  -30.4000 C   0  0  0  0  0  0  0  0  0  0  0  0
   -5.5700   21.8570  -31.1340 C   0  0  0  0  0  0  0  0  0  0  0  0
   -4.1700   21.6630  -31.0080 C   0  0  0  0  0  0  0  0  0  0  0  0
   -3.4370   22.4440  -30.0910 C   0  0  0  0  0  0  0  0  0  0  0  0
   -3.5240   20.7120  -31.8150 C   0  0  0  0  0  0  0  0  0  0  0  0
   -2.0940   20.5590  -31.7430 N   0  0  0  0  0  0  0  0  0  0  0  0
   -1.4500   19.7950  -30.6740 C   0  0  0  0  0  0  0  0  0  0  0  0
   -0.8820   20.7420  -29.5980 C   0  0  0  0  0  0  0  0  0  0  0  0
   -1.0150   20.2550  -28.2000 N   0  0  0  0  0  0  0  0  0  0  0  0
   -2.3570   20.4760  -27.6140 C   0  0  0  0  0  0  0  0  0  0  0  0
   -2.7890   19.3230  -26.7050 C   0  0  0  0  0  0  0  0  0  0  0  0
   -0.5920   18.8470  -28.0050 C   0  0  0  0  0  0  0  0  0  0  0  0
    0.9290   18.6930  -27.9370 C   0  0  0  0  0  0  0  0  0  0  0  0
   -4.2730   19.9640  -32.7400 C   0  0  0  0  0  0  0  0  0  0  0  0
   -3.6570   18.9890  -33.5540 C   0  0  0  0  0  0  0  0  0  0  0  0
   -4.3860   18.3020  -34.5200 C   0  0  0  0  0  0  0  0  0  0  0  0
   -5.7380   18.5740  -34.6930 C   0  0  0  0  0  0  0  0  0  0  0  0
   -6.3790   19.5010  -33.8720 C   0  0  0  0  0  0  0  0  0  0  0  0
   -5.6730   20.1810  -32.8450 C   0  0  0  0  0  0  0  0  0  0  0  0
   -6.3120   21.0410  -31.9700 N   0  0  0  0  0  0  0  0  0  0  0  0
   -7.7910   21.0530  -31.8930 C   0  0  0  0  0  0  0  0  0  0  0  0
   -2.0090   24.8080  -28.8070 C   0  0  0  0  0  0  0  0  0  0  0  0
   -1.2310   25.5390  -27.9050 C   0  0  0  0  0  0  0  0  0  0  0  0
    1.5640   22.9311  -26.1969 H   0  0  0  0  0  0  0  0  0  0  0  0
    0.6919   21.9199  -27.3984 H   0  0  0  0  0  0  0  0  0  0  0  0
    0.4744   23.7029  -27.3984 H   0  0  0  0  0  0  0  0  0  0  0  0
   -1.4000   23.2411  -26.1864 H   0  0  0  0  0  0  0  0  0  0  0  0
   -0.7802   21.6036  -25.7044 H   0  0  0  0  0  0  0  0  0  0  0  0
   -1.1132   23.2167  -23.7809 H   0  0  0  0  0  0  0  0  0  0  0  0
    0.5531   22.5383  -23.9427 H   0  0  0  0  0  0  0  0  0  0  0  0
    1.0390   24.6810  -23.6860 H   0  0  0  0  0  0  0  0  0  0  0  0
   -1.6564   25.0980  -24.1235 H   0  0  0  0  0  0  0  0  0  0  0  0
   -0.4299   26.2413  -23.4671 H   0  0  0  0  0  0  0  0  0  0  0  0
   -1.2056   27.4191  -25.3334 H   0  0  0  0  0  0  0  0  0  0  0  0
    0.2139   26.5412  -26.0199 H   0  0  0  0  0  0  0  0  0  0  0  0
   -3.3057   25.4383  -25.1867 H   0  0  0  0  0  0  0  0  0  0  0  0
   -4.7036   24.1557  -26.8001 H   0  0  0  0  0  0  0  0  0  0  0  0
   -5.9081   24.5011  -28.9543 H   0  0  0  0  0  0  0  0  0  0  0  0
   -7.2387   23.1216  -30.5274 H   0  0  0  0  0  0  0  0  0  0  0  0
   -2.3629   22.2500  -29.9544 H   0  0  0  0  0  0  0  0  0  0  0  0
   -1.5110   20.9200  -32.5320 H   0  0  0  0  0  0  0  0  0  0  0  0
   -2.1900   19.1250  -30.2120 H   0  0  0  0  0  0  0  0  0  0  0  0
   -0.6237   19.2098  -31.1039 H   0  0  0  0  0  0  0  0  0  0  0  0
    0.1874   20.8933  -29.8065 H   0  0  0  0  0  0  0  0  0  0  0  0
   -1.4737   21.6673  -29.6591 H   0  0  0  0  0  0  0  0  0  0  0  0
   -2.3371   21.4039  -27.0236 H   0  0  0  0  0  0  0  0  0  0  0  0
   -3.0793   20.5424  -28.4409 H   0  0  0  0  0  0  0  0  0  0  0  0
   -2.6764   19.6236  -25.6529 H   0  0  0  0  0  0  0  0  0  0  0  0
   -3.8416   19.0735  -26.9044 H   0  0  0  0  0  0  0  0  0  0  0  0
   -2.1595   18.4432  -26.9044 H   0  0  0  0  0  0  0  0  0  0  0  0
   -1.0260   18.4759  -27.0648 H   0  0  0  0  0  0  0  0  0  0  0  0
   -0.9467   18.2697  -28.8716 H   0  0  0  0  0  0  0  0  0  0  0  0
    1.2476   18.6607  -26.8846 H   0  0  0  0  0  0  0  0  0  0  0  0
    1.2259   17.7602  -28.4387 H   0  0  0  0  0  0  0  0  0  0  0  0
    1.4068   19.5474  -28.4387 H   0  0  0  0  0  0  0  0  0  0  0  0
   -2.5871   18.7695  -33.4231 H   0  0  0  0  0  0  0  0  0  0  0  0
   -3.8925   17.5442  -35.1463 H   0  0  0  0  0  0  0  0  0  0  0  0
   -6.3046   18.0559  -35.4807 H   0  0  0  0  0  0  0  0  0  0  0  0
   -7.4487   19.7087  -34.0224 H   0  0  0  0  0  0  0  0  0  0  0  0
   -8.1032   21.0555  -30.8382 H   0  0  0  0  0  0  0  0  0  0  0  0
   -8.1768   21.9543  -32.3918 H   0  0  0  0  0  0  0  0  0  0  0  0
   -8.1914   20.1581  -32.3918 H   0  0  0  0  0  0  0  0  0  0  0  0
   -1.6445   24.6390  -29.8310 H   0  0  0  0  0  0  0  0  0  0  0  0
   -0.2574   25.9411  -28.2218 H   0  0  0  0  0  0  0  0  0  0  0  0
  1  2  1  0
  2  3  1  0
  3  4  1  0
  4  5  1  0
  5  6  1  0
  6  7  1  0
  7  8  2  0
  8  9  1  0
  9 10  2  0
 10 11  1  0
 11 12  2  0
 12 13  1  0
 13 14  2  0
 14 15  1  0
 15 16  2  0
 15 17  1  0
 17 18  1  0
 18 19  1  0
 19 20  1  0
 20 21  1  0
 21 22  1  0
 22 23  1  0
 21 24  1  0
 24 25  1  0
 17 26  2  0
 26 27  1  0
 27 28  2  0
 28 29  1  0
 29 30  2  0
 30 31  1  0
 31 32  2  0
 32 33  1  0
 10 34  1  0
 34 35  2  0
 35  7  1  0
 16 11  1  0
 31 26  1  0
 32 14  1  0
  1 36  1  0
  1 37  1  0
  1 38  1  0
  2 39  1  0
  2 40  1  0
  3 41  1  0
  3 42  1  0
  4 43  1  0
  5 44  1  0
  5 45  1  0
  6 46  1  0
  6 47  1  0
  8 48  1  0
  9 49  1  0
 12 50  1  0
 13 51  1  0
 16 52  1  0
 18 53  1  0
 19 54  1  0
 19 55  1  0
 20 56  1  0
 20 57  1  0
 22 58  1  0
 22 59  1  0
 23 60  1  0
 23 61  1  0
 23 62  1  0
 24 63  1  0
 24 64  1  0
 25 65  1  0
 25 66  1  0
 25 67  1  0
 27 68  1  0
 28 69  1  0
 29 70  1  0
 30 71  1  0
 33 72  1  0
 33 73  1  0
 33 74  1  0
 34 75  1  0
 35 76  1  0
M  CHG  1  32   1
M  END
>  <UniqueID>  (17) 
17

>  <SMILES>  (17) 
CCCNCCc1ccc(-c2ccc3c(c2)c(NCCN(CC)CC)c2ccccc2[n+]3C)cc1

>  <Energy>  (17) 
101.6511887137314

>  <Genealogy>  (17) 
CCCNCCc1ccc(-c2ccc3c(c2)c(NCCN(CC)CC)c2ccccc2[n+]3C)cc1 (3D coordinates assigned)
CCCNCCc1ccc(-c2ccc3c(c2)c(NCCN(CC)CC)c2ccccc2[n+]3C)cc1 (optimized conformer: 101.6511887137314 kcal/mol)

>  <smiles>  (17) 
CCCNCCc1ccc(-c2ccc3c(c2)c(NCCN(CC)CC)c2ccccc2[n+]3C)cc1

>  <score_type>  (17) 
oracle

>  <origin>  (17) 
adg

>  <m_score__min__energy>  (17) 
-9.6999999999999993

>  <m_primary>  (17) 
energy

$$$$
17:0
     RDKit          3D

 55 58  0  0  0  0  0  0  0  0999 V2000
   -2.1150   22.5210  -30.2480 C   0  0  0  0  0  0  0  0  0  0  0  0
   -2.4260   23.8240  -29.5110 C   0  0  0  0  0  0  0  0  0  0  0  0
   -3.7870   24.3200  -29.8200 N   0  0  0  0  0  0  0  0  0  0  0  0
   -4.5940   24.5340  -28.5950 C   0  0  0  0  0  0  0  0  0  0  0  0
   -3.7710   24.1730  -27.3580 C   0  0  0  0  0  0  0  0  0  0  0  0
   -4.5160   23.5330  -30.8470 C   0  0  0  0  0  0  0  0  0  0  0  0
   -5.8900   24.1170  -31.2460 C   0  0  0  0  0  0  0  0  0  0  0  0
   -6.4320   23.4070  -32.4050 N   0  0  0  0  0  0  0  0  0  0  0  0
   -7.3480   22.2990  -32.2970 C   0  0  0  0  0  0  0  0  0  0  0  0
   -8.6630   22.5250  -31.8520 C   0  0  0  0  0  0  0  0  0  0  0  0
   -9.5570   21.4680  -31.7020 C   0  0  0  0  0  0  0  0  0  0  0  0
   -9.1590   20.1650  -31.9950 C   0  0  0  0  0  0  0  0  0  0  0  0
   -7.8600   19.9080  -32.4590 C   0  0  0  0  0  0  0  0  0  0  0  0
   -7.4800   18.5950  -32.7750 C   0  0  0  0  0  0  0  0  0  0  0  0
   -6.1960   18.3070  -33.2940 C   0  0  0  0  0  0  0  0  0  0  0  0
   -5.2770   19.3760  -33.4190 C   0  0  0  0  0  0  0  0  0  0  0  0
   -3.9770   19.1200  -33.8480 C   0  0  0  0  0  0  0  0  0  0  0  0
   -3.5630   17.8110  -34.0770 C   0  0  0  0  0  0  0  0  0  0  0  0
   -2.2250   17.5510  -34.4200 C   0  0  0  0  0  0  0  0  0  0  0  0
   -1.7870   16.2410  -34.5980 C   0  0  0  0  0  0  0  0  0  0  0  0
   -2.6730   15.1810  -34.4230 C   0  0  0  0  0  0  0  0  0  0  0  0
   -4.0090   15.4240  -34.0940 C   0  0  0  0  0  0  0  0  0  0  0  0
   -4.4930   16.7500  -33.9450 C   0  0  0  0  0  0  0  0  0  0  0  0
   -5.8210   17.0250  -33.6650 N   0  0  0  0  0  0  0  0  0  0  0  0
   -6.8400   15.9600  -33.7940 C   0  0  0  0  0  0  0  0  0  0  0  0
   -5.6560   20.6910  -33.1040 C   0  0  0  0  0  0  0  0  0  0  0  0
   -6.9420   20.9760  -32.6150 C   0  0  0  0  0  0  0  0  0  0  0  0
   -1.9244   21.7223  -29.5161 H   0  0  0  0  0  0  0  0  0  0  0  0
   -2.9721   22.2431  -30.8791 H   0  0  0  0  0  0  0  0  0  0  0  0
   -1.2248   22.6602  -30.8791 H   0  0  0  0  0  0  0  0  0  0  0  0
   -2.3488   23.6475  -28.4280 H   0  0  0  0  0  0  0  0  0  0  0  0
   -1.7023   24.5841  -29.8406 H   0  0  0  0  0  0  0  0  0  0  0  0
   -4.8951   25.5904  -28.5369 H   0  0  0  0  0  0  0  0  0  0  0  0
   -5.4874   23.8935  -28.6343 H   0  0  0  0  0  0  0  0  0  0  0  0
   -4.3420   24.4235  -26.4518 H   0  0  0  0  0  0  0  0  0  0  0  0
   -3.5502   23.0954  -27.3661 H   0  0  0  0  0  0  0  0  0  0  0  0
   -2.8287   24.7404  -27.3661 H   0  0  0  0  0  0  0  0  0  0  0  0
   -3.8892   23.4819  -31.7495 H   0  0  0  0  0  0  0  0  0  0  0  0
   -4.7126   22.5458  -30.4033 H   0  0  0  0  0  0  0  0  0  0  0  0
   -6.5862   24.0143  -30.4006 H   0  0  0  0  0  0  0  0  0  0  0  0
   -5.7633   25.1782  -31.5064 H   0  0  0  0  0  0  0  0  0  0  0  0
   -6.1310   23.7290  -33.3520 H   0  0  0  0  0  0  0  0  0  0  0  0
   -8.9892   23.5495  -31.6196 H   0  0  0  0  0  0  0  0  0  0  0  0
  -10.5812   21.6622  -31.3509 H   0  0  0  0  0  0  0  0  0  0  0  0
   -9.8669   19.3337  -31.8618 H   0  0  0  0  0  0  0  0  0  0  0  0
   -8.1943   17.7737  -32.6161 H   0  0  0  0  0  0  0  0  0  0  0  0
   -3.2766   19.9533  -34.0061 H   0  0  0  0  0  0  0  0  0  0  0  0
   -1.5206   18.3860  -34.5484 H   0  0  0  0  0  0  0  0  0  0  0  0
   -0.7414   16.0437  -34.8768 H   0  0  0  0  0  0  0  0  0  0  0  0
   -2.3191   14.1466  -34.5445 H   0  0  0  0  0  0  0  0  0  0  0  0
   -4.6949   14.5764  -33.9485 H   0  0  0  0  0  0  0  0  0  0  0  0
   -7.1550   15.6308  -32.7928 H   0  0  0  0  0  0  0  0  0  0  0  0
   -7.7102   16.3497  -34.3425 H   0  0  0  0  0  0  0  0  0  0  0  0
   -6.4123   15.1078  -34.3425 H   0  0  0  0  0  0  0  0  0  0  0  0
   -4.9352   21.5103  -33.2422 H   0  0  0  0  0  0  0  0  0  0  0  0
  1  2  1  0
  2  3  1  0
  3  4  1  0
  4  5  1  0
  3  6  1  0
  6  7  1  0
  7  8  1  0
  8  9  1  0
  9 10  2  0
 10 11  1  0
 11 12  2  0
 12 13  1  0
 13 14  2  0
 14 15  1  0
 15 16  2  0
 16 17  1  0
 17 18  2  0
 18 19  1  0
 19 20  2  0
 20 21  1  0
 21 22  2  0
 22 23  1  0
 23 24  2  0
 24 25  1  0
 16 26  1  0
 26 27  2  0
 27  9  1  0
 27 13  1  0
 24 15  1  0
 23 18  1  0
  1 28  1  0
  1 29  1  0
  1 30  1  0
  2 31  1  0
  2 32  1  0
  4 33  1  0
  4 34  1  0
  5 35  1  0
  5 36  1  0
  5 37  1  0
  6 38  1  0
  6 39  1  0
  7 40  1  0
  7 41  1  0
  8 42  1  0
 10 43  1  0
 11 44  1  0
 12 45  1  0
 14 46  1  0
 17 47  1  0
 19 48  1  0
 20 49  1  0
 21 50  1  0
 22 51  1  0
 25 52  1  0
 25 53  1  0
 25 54  1  0
 26 55  1  0
M  CHG  1  24   1
M  END
>  <UniqueID>  (18) 
18

>  <SMILES>  (18) 
CCN(CC)CCNc1cccc2cc3c(cc4ccccc4[n+]3C)cc12

>  <Energy>  (18) 
84.84508808289117

>  <Genealogy>  (18) 
CCN(CC)CCNc1cccc2cc3c(cc4ccccc4[n+]3C)cc12 (3D coordinates assigned)
CCN(CC)CCNc1cccc2cc3c(cc4ccccc4[n+]3C)cc12 (optimized conformer: 84.84508808289117 kcal/mol)

>  <smiles>  (18) 
CCN(CC)CCNc1cccc2cc3c(cc4ccccc4[n+]3C)cc12

>  <score_type>  (18) 
oracle

>  <origin>  (18) 
adg

>  <m_score__min__energy>  (18) 
-8.9700000000000006

>  <m_primary>  (18) 
energy

$$$$
18:0
     RDKit          3D

 40 42  0  0  0  0  0  0  0  0999 V2000
   -1.2520   26.4640  -24.4840 C   0  0  0  0  0  0  0  0  0  0  0  0
   -2.2830   25.7330  -25.3480 C   0  0  0  0  0  0  0  0  0  0  0  0
   -2.1040   26.0080  -26.7840 N   0  0  0  0  0  0  0  0  0  0  0  0
   -0.9150   25.3490  -27.3440 C   0  0  0  0  0  0  0  0  0  0  0  0
   -0.9280   25.4410  -28.8680 C   0  0  0  0  0  0  0  0  0  0  0  0
   -2.2640   25.2900  -29.3390 O   0  0  0  0  0  0  0  0  0  0  0  0
   -2.8420   24.0610  -29.6890 C   0  0  0  0  0  0  0  0  0  0  0  0
   -2.1730   22.8200  -29.5430 C   0  0  0  0  0  0  0  0  0  0  0  0
   -2.8190   21.6140  -29.8920 C   0  0  0  0  0  0  0  0  0  0  0  0
   -4.1300   21.6240  -30.4040 C   0  0  0  0  0  0  0  0  0  0  0  0
   -4.7540   22.8630  -30.5670 C   0  0  0  0  0  0  0  0  0  0  0  0
   -4.1360   24.0280  -30.2040 C   0  0  0  0  0  0  0  0  0  0  0  0
   -5.0610   25.0260  -30.4240 C   0  0  0  0  0  0  0  0  0  0  0  0
   -6.1940   24.4590  -30.9020 N   0  0  0  0  0  0  0  0  0  0  0  0
   -6.0030   23.1460  -30.9970 N   0  0  0  0  0  0  0  0  0  0  0  0
   -7.0050   22.2370  -31.4780 C   0  0  0  0  0  0  0  0  0  0  0  0
   -6.6590   21.2420  -32.4070 C   0  0  0  0  0  0  0  0  0  0  0  0
   -7.6220   20.3380  -32.8640 C   0  0  0  0  0  0  0  0  0  0  0  0
   -8.9350   20.4100  -32.3880 C   0  0  0  0  0  0  0  0  0  0  0  0
   -9.8660   19.5310  -32.8310 F   0  0  0  0  0  0  0  0  0  0  0  0
   -9.2820   21.3840  -31.4460 C   0  0  0  0  0  0  0  0  0  0  0  0
   -8.3210   22.2900  -30.9870 C   0  0  0  0  0  0  0  0  0  0  0  0
   -1.4825   26.3006  -23.4209 H   0  0  0  0  0  0  0  0  0  0  0  0
   -0.2469   26.0757  -24.7051 H   0  0  0  0  0  0  0  0  0  0  0  0
   -1.2858   27.5410  -24.7051 H   0  0  0  0  0  0  0  0  0  0  0  0
   -2.1820   24.6506  -25.1797 H   0  0  0  0  0  0  0  0  0  0  0  0
   -3.2812   26.0930  -25.0581 H   0  0  0  0  0  0  0  0  0  0  0  0
   -2.9530   25.6930  -27.3100 H   0  0  0  0  0  0  0  0  0  0  0  0
   -0.0108   25.8425  -26.9582 H   0  0  0  0  0  0  0  0  0  0  0  0
   -0.9203   24.2893  -27.0489 H   0  0  0  0  0  0  0  0  0  0  0  0
   -0.5372   26.4208  -29.1800 H   0  0  0  0  0  0  0  0  0  0  0  0
   -0.2971   24.6448  -29.2899 H   0  0  0  0  0  0  0  0  0  0  0  0
   -1.1439   22.7963  -29.1553 H   0  0  0  0  0  0  0  0  0  0  0  0
   -2.2924   20.6570  -29.7624 H   0  0  0  0  0  0  0  0  0  0  0  0
   -4.6454   20.6884  -30.6667 H   0  0  0  0  0  0  0  0  0  0  0  0
   -4.9054   26.0997  -30.2423 H   0  0  0  0  0  0  0  0  0  0  0  0
   -5.6252   21.1739  -32.7766 H   0  0  0  0  0  0  0  0  0  0  0  0
   -7.3465   19.5681  -33.5998 H   0  0  0  0  0  0  0  0  0  0  0  0
  -10.3128   21.4373  -31.0656 H   0  0  0  0  0  0  0  0  0  0  0  0
   -8.5960   23.0476  -30.2384 H   0  0  0  0  0  0  0  0  0  0  0  0
  1  2  1  0
  2  3  1  0
  3  4  1  0
  4  5  1  0
  5  6  1  0
  6  7  1  0
  7  8  2  0
  8  9  1  0
  9 10  2  0
 10 11  1  0
 11 12  2  0
 12 13  1  0
 13 14  2  0
 14 15  1  0
 15 16  1  0
 16 17  2  0
 17 18  1  0
 18 19  2  0
 19 20  1  0
 19 21  1  0
 21 22  2  0
 12  7  1  0
 22 16  1  0
 15 11  1  0
  1 23  1  0
  1 24  1  0
  1 25  1  0
  2 26  1  0
  2 27  1  0
  3 28  1  0
  4 29  1  0
  4 30  1  0
  5 31  1  0
  5 32  1  0
  8 33  1  0
  9 34  1  0
 10 35  1  0
 13 36  1  0
 17 37  1  0
 18 38  1  0
 21 39  1  0
 22 40  1  0
M  END
>  <UniqueID>  (19) 
19

>  <SMILES>  (19) 
CCNCCOc1cccc2c1cnn2-c1ccc(F)cc1

>  <Energy>  (19) 
82.51064383615635

>  <Genealogy>  (19) 
CCNCCOc1cccc2c1cnn2-c1ccc(F)cc1 (3D coordinates assigned)
CCNCCOc1cccc2c1cnn2-c1ccc(F)cc1 (optimized conformer: 82.51064383615635 kcal/mol)

>  <smiles>  (19) 
CCNCCOc1cccc2c1cnn2-c1ccc(F)cc1

>  <score_type>  (19) 
oracle

>  <origin>  (19) 
adg

>  <m_score__min__energy>  (19) 
-7.9500000000000002

>  <m_primary>  (19) 
energy

$$$$
19:0
     RDKit          3D

 39 41  0  0  0  0  0  0  0  0999 V2000
   -1.9620   21.3010  -29.6580 C   0  0  0  0  0  0  0  0  0  0  0  0
   -1.1410   22.3220  -30.4390 C   0  0  0  0  0  0  0  0  0  0  0  0
   -0.8660   23.5010  -29.6050 N   0  0  0  0  0  0  0  0  0  0  0  0
   -1.5700   23.4290  -28.3170 C   0  0  0  0  0  0  0  0  0  0  0  0
   -2.6640   24.4980  -28.2290 C   0  0  0  0  0  0  0  0  0  0  0  0
   -3.1040   24.9080  -29.5260 O   0  0  0  0  0  0  0  0  0  0  0  0
   -4.2560   24.4580  -30.1940 C   0  0  0  0  0  0  0  0  0  0  0  0
   -5.4810   25.0470  -29.8550 C   0  0  0  0  0  0  0  0  0  0  0  0
   -6.6640   24.6400  -30.4720 C   0  0  0  0  0  0  0  0  0  0  0  0
   -6.6340   23.6460  -31.4530 C   0  0  0  0  0  0  0  0  0  0  0  0
   -5.4170   23.0220  -31.7950 C   0  0  0  0  0  0  0  0  0  0  0  0
   -4.2290   23.4460  -31.1760 C   0  0  0  0  0  0  0  0  0  0  0  0
   -5.4210   21.9060  -32.7170 N   0  0  0  0  0  0  0  0  0  0  0  0
   -6.4140   20.9390  -32.3000 C   0  0  0  0  0  0  0  0  0  0  0  0
   -6.0790   19.5870  -32.1150 C   0  0  0  0  0  0  0  0  0  0  0  0
   -7.0320   18.6880  -31.6220 C   0  0  0  0  0  0  0  0  0  0  0  0
   -8.3180   19.1320  -31.3020 C   0  0  0  0  0  0  0  0  0  0  0  0
   -8.6640   20.4740  -31.4850 C   0  0  0  0  0  0  0  0  0  0  0  0
   -7.7260   21.3710  -32.0040 C   0  0  0  0  0  0  0  0  0  0  0  0
   -8.1470   23.0990  -32.2520 S   0  0  0  0  0  0  0  0  0  0  0  0
   -1.8266   21.4694  -28.5794 H   0  0  0  0  0  0  0  0  0  0  0  0
   -3.0257   21.4115  -29.9157 H   0  0  0  0  0  0  0  0  0  0  0  0
   -1.6258   20.2858  -29.9157 H   0  0  0  0  0  0  0  0  0  0  0  0
   -0.1889   21.8642  -30.7454 H   0  0  0  0  0  0  0  0  0  0  0  0
   -1.7107   22.6361  -31.3260 H   0  0  0  0  0  0  0  0  0  0  0  0
   -1.2330   24.3370  -30.1180 H   0  0  0  0  0  0  0  0  0  0  0  0
   -2.0292   22.4349  -28.2131 H   0  0  0  0  0  0  0  0  0  0  0  0
   -0.8432   23.6039  -27.5100 H   0  0  0  0  0  0  0  0  0  0  0  0
   -3.5207   24.0874  -27.6746 H   0  0  0  0  0  0  0  0  0  0  0  0
   -2.2470   25.3757  -27.7135 H   0  0  0  0  0  0  0  0  0  0  0  0
   -5.5104   25.8399  -29.0932 H   0  0  0  0  0  0  0  0  0  0  0  0
   -7.6205   25.1018  -30.1860 H   0  0  0  0  0  0  0  0  0  0  0  0
   -3.2711   22.9854  -31.4593 H   0  0  0  0  0  0  0  0  0  0  0  0
   -4.4740   21.4610  -32.7650 H   0  0  0  0  0  0  0  0  0  0  0  0
   -5.6650   22.2550  -33.6720 H   0  0  0  0  0  0  0  0  0  0  0  0
   -5.0658   19.2343  -32.3581 H   0  0  0  0  0  0  0  0  0  0  0  0
   -6.7679   17.6289  -31.4860 H   0  0  0  0  0  0  0  0  0  0  0  0
   -9.0599   18.4235  -30.9051 H   0  0  0  0  0  0  0  0  0  0  0  0
   -9.6730   20.8236  -31.2209 H   0  0  0  0  0  0  0  0  0  0  0  0
  1  2  1  0
  2  3  1  0
  3  4  1  0
  4  5  1  0
  5  6  1  0
  6  7  1  0
  7  8  2  0
  8  9  1  0
  9 10  2  0
 10 11  1  0
 11 12  2  0
 11 13  1  0
 13 14  1  0
 14 15  2  0
 15 16  1  0
 16 17  2  0
 17 18  1  0
 18 19  2  0
 19 20  1  0
 12  7  1  0
 19 14  1  0
 20 10  1  0
  1 21  1  0
  1 22  1  0
  1 23  1  0
  2 24  1  0
  2 25  1  0
  3 26  1  0
  4 27  1  0
  4 28  1  0
  5 29  1  0
  5 30  1  0
  8 31  1  0
  9 32  1  0
 12 33  1  0
 13 34  1  0
 13 35  1  0
 15 36  1  0
 16 37  1  0
 17 38  1  0
 18 39  1  0
M  CHG  1  13   1
M  END
>  <UniqueID>  (20) 
20

>  <SMILES>  (20) 
CCNCCOc1ccc2c(c1)[NH2+]c1ccccc1S2

>  <Energy>  (20) 
50.96310037208154

>  <Genealogy>  (20) 
CCNCCOc1ccc2c(c1)[NH2+]c1ccccc1S2 (protonated)
CCNCCOc1ccc2c(c1)[NH2+]c1ccccc1S2 (3D coordinates assigned)
CCNCCOc1ccc2c(c1)[NH2+]c1ccccc1S2 (nonaromatic ring conformer: 50.96310037208154 kcal/mol)

>  <smiles>  (20) 
CCNCCOc1ccc2c(c1)Nc1ccccc1S2

>  <score_type>  (20) 
oracle

>  <origin>  (20) 
adg

>  <m_score__min__energy>  (20) 
-7.6600000000000001

>  <m_primary>  (20) 
energy

$$$$
20:0
     RDKit          3D

 58 60  0  0  0  0  0  0  0  0999 V2000
   -5.7390   25.6240  -30.1510 C   0  0  0  0  0  0  0  0  0  0  0  0
   -4.7170   24.8510  -30.8730 N   0  0  0  0  0  0  0  0  0  0  0  0
   -3.7680   24.2750  -29.9050 C   0  0  0  0  0  0  0  0  0  0  0  0
   -5.3610   23.7950  -31.6840 C   0  0  0  0  0  0  0  0  0  0  0  0
   -4.4710   22.5410  -31.7920 C   0  0  0  0  0  0  0  0  0  0  0  0
   -4.7080   21.8310  -33.0530 N   0  0  0  0  0  0  0  0  0  0  0  0
   -5.1570   20.4640  -33.0840 C   0  0  0  0  0  0  0  0  0  0  0  0
   -6.4760   20.1610  -32.6950 C   0  0  0  0  0  0  0  0  0  0  0  0
   -7.2960   21.1350  -32.0860 C   0  0  0  0  0  0  0  0  0  0  0  0
   -8.5910   20.8260  -31.6760 C   0  0  0  0  0  0  0  0  0  0  0  0
   -9.0830   19.5370  -31.8410 C   0  0  0  0  0  0  0  0  0  0  0  0
   -8.2870   18.5550  -32.4290 C   0  0  0  0  0  0  0  0  0  0  0  0
   -6.9780   18.8490  -32.8890 C   0  0  0  0  0  0  0  0  0  0  0  0
   -6.1910   17.8930  -33.4960 N   0  0  0  0  0  0  0  0  0  0  0  0
   -6.8040   16.6400  -33.9920 C   0  0  0  0  0  0  0  0  0  0  0  0
   -4.8350   18.1100  -33.6510 C   0  0  0  0  0  0  0  0  0  0  0  0
   -3.9600   17.0450  -33.9760 C   0  0  0  0  0  0  0  0  0  0  0  0
   -2.6090   17.2660  -34.1960 C   0  0  0  0  0  0  0  0  0  0  0  0
   -2.0800   18.5400  -34.0770 C   0  0  0  0  0  0  0  0  0  0  0  0
   -2.8910   19.6250  -33.7010 C   0  0  0  0  0  0  0  0  0  0  0  0
   -2.3340   20.9070  -33.5410 O   0  0  0  0  0  0  0  0  0  0  0  0
   -0.9440   21.2250  -33.4630 C   0  0  0  0  0  0  0  0  0  0  0  0
   -0.3420   21.3520  -34.8760 C   0  0  0  0  0  0  0  0  0  0  0  0
    0.8010   22.2850  -34.9710 N   0  0  0  0  0  0  0  0  0  0  0  0
    2.1010   21.5950  -35.0100 C   0  0  0  0  0  0  0  0  0  0  0  0
    0.6720   23.2410  -36.0830 C   0  0  0  0  0  0  0  0  0  0  0  0
   -4.2860   19.4160  -33.4750 C   0  0  0  0  0  0  0  0  0  0  0  0
   -5.5877   25.5096  -29.0675 H   0  0  0  0  0  0  0  0  0  0  0  0
   -5.6550   26.6866  -30.4228 H   0  0  0  0  0  0  0  0  0  0  0  0
   -6.7386   25.2539  -30.4228 H   0  0  0  0  0  0  0  0  0  0  0  0
   -4.1144   24.4853  -28.8824 H   0  0  0  0  0  0  0  0  0  0  0  0
   -3.7064   23.1870  -30.0549 H   0  0  0  0  0  0  0  0  0  0  0  0
   -2.7744   24.7226  -30.0549 H   0  0  0  0  0  0  0  0  0  0  0  0
   -6.3155   23.5160  -31.2139 H   0  0  0  0  0  0  0  0  0  0  0  0
   -5.5233   24.1903  -32.6976 H   0  0  0  0  0  0  0  0  0  0  0  0
   -3.4149   22.8450  -31.7442 H   0  0  0  0  0  0  0  0  0  0  0  0
   -4.7176   21.8655  -30.9596 H   0  0  0  0  0  0  0  0  0  0  0  0
   -4.4360   22.2960  -33.9480 H   0  0  0  0  0  0  0  0  0  0  0  0
   -6.9070   22.1525  -31.9329 H   0  0  0  0  0  0  0  0  0  0  0  0
   -9.2241   21.6024  -31.2216 H   0  0  0  0  0  0  0  0  0  0  0  0
  -10.1019   19.2911  -31.5072 H   0  0  0  0  0  0  0  0  0  0  0  0
   -8.6813   17.5339  -32.5381 H   0  0  0  0  0  0  0  0  0  0  0  0
   -7.1085   16.0176  -33.1377 H   0  0  0  0  0  0  0  0  0  0  0  0
   -7.6862   16.8804  -34.6034 H   0  0  0  0  0  0  0  0  0  0  0  0
   -6.0727   16.0910  -34.6034 H   0  0  0  0  0  0  0  0  0  0  0  0
   -4.3597   16.0233  -34.0554 H   0  0  0  0  0  0  0  0  0  0  0  0
   -1.9540   16.4247  -34.4665 H   0  0  0  0  0  0  0  0  0  0  0  0
   -1.0115   18.7053  -34.2793 H   0  0  0  0  0  0  0  0  0  0  0  0
   -0.8197   22.1786  -32.9290 H   0  0  0  0  0  0  0  0  0  0  0  0
   -0.4233   20.4196  -32.9243 H   0  0  0  0  0  0  0  0  0  0  0  0
   -0.0008   20.3562  -35.1954 H   0  0  0  0  0  0  0  0  0  0  0  0
   -1.1350   21.7603  -35.5197 H   0  0  0  0  0  0  0  0  0  0  0  0
    2.4490   21.4103  -33.9830 H   0  0  0  0  0  0  0  0  0  0  0  0
    1.9916   20.6363  -35.5381 H   0  0  0  0  0  0  0  0  0  0  0  0
    2.8337   22.2229  -35.5381 H   0  0  0  0  0  0  0  0  0  0  0  0
    0.5351   24.2555  -35.6804 H   0  0  0  0  0  0  0  0  0  0  0  0
    1.5823   23.2110  -36.6998 H   0  0  0  0  0  0  0  0  0  0  0  0
   -0.1978   22.9708  -36.6998 H   0  0  0  0  0  0  0  0  0  0  0  0
  1  2  1  0
  2  3  1  0
  2  4  1  0
  4  5  1  0
  5  6  1  0
  6  7  1  0
  7  8  2  0
  8  9  1  0
  9 10  2  0
 10 11  1  0
 11 12  2  0
 12 13  1  0
 13 14  2  0
 14 15  1  0
 14 16  1  0
 16 17  2  0
 17 18  1  0
 18 19  2  0
 19 20  1  0
 20 21  1  0
 21 22  1  0
 22 23  1  0
 23 24  1  0
 24 25  1  0
 24 26  1  0
 20 27  2  0
 27  7  1  0
 13  8  1  0
 27 16  1  0
  1 28  1  0
  1 29  1  0
  1 30  1  0
  3 31  1  0
  3 32  1  0
  3 33  1  0
  4 34  1  0
  4 35  1  0
  5 36  1  0
  5 37  1  0
  6 38  1  0
  9 39  1  0
 10 40  1  0
 11 41  1  0
 12 42  1  0
 15 43  1  0
 15 44  1  0
 15 45  1  0
 17 46  1  0
 18 47  1  0
 19 48  1  0
 22 49  1  0
 22 50  1  0
 23 51  1  0
 23 52  1  0
 25 53  1  0
 25 54  1  0
 25 55  1  0
 26 56  1  0
 26 57  1  0
 26 58  1  0
M  CHG  1  14   1
M  END
>  <UniqueID>  (21) 
21

>  <SMILES>  (21) 
CN(C)CCNc1c2ccccc2[n+](C)c2cccc(OCCN(C)C)c12

>  <Energy>  (21) 
91.1384575615632

>  <Genealogy>  (21) 
CN(C)CCNc1c2ccccc2[n+](C)c2cccc(OCCN(C)C)c12 (3D coordinates assigned)
CN(C)CCNc1c2ccccc2[n+](C)c2cccc(OCCN(C)C)c12 (optimized conformer: 91.1384575615632 kcal/mol)

>  <smiles>  (21) 
CN(C)CCNc1c2ccccc2[n+](C)c2cccc(OCCN(C)C)c12

>  <score_type>  (21) 
oracle

>  <origin>  (21) 
adg

>  <m_score__min__energy>  (21) 
-8.6600000000000001

>  <m_primary>  (21) 
energy

$$$$
21:0
     RDKit          3D

 66 69  0  0  0  0  0  0  0  0999 V2000
   -6.1860   17.3590  -31.1040 C   0  0  0  0  0  0  0  0  0  0  0  0
   -7.0660   17.9160  -32.1480 N   0  0  0  0  0  0  0  0  0  0  0  0
   -8.3950   18.1780  -31.5700 C   0  0  0  0  0  0  0  0  0  0  0  0
   -7.1970   16.9900  -33.2960 C   0  0  0  0  0  0  0  0  0  0  0  0
   -5.9080   16.8980  -34.1280 C   0  0  0  0  0  0  0  0  0  0  0  0
   -5.5800   18.1830  -34.9120 C   0  0  0  0  0  0  0  0  0  0  0  0
   -5.0800   19.2630  -34.0160 N   0  0  0  0  0  0  0  0  0  0  0  0
   -6.0100   20.1390  -33.5070 C   0  0  0  0  0  0  0  0  0  0  0  0
   -7.2000   20.0790  -33.9260 O   0  0  0  0  0  0  0  0  0  0  0  0
   -5.6550   21.1350  -32.5590 C   0  0  0  0  0  0  0  0  0  0  0  0
   -4.2770   21.3810  -32.3220 C   0  0  0  0  0  0  0  0  0  0  0  0
   -3.9390   22.3710  -31.3530 C   0  0  0  0  0  0  0  0  0  0  0  0
   -2.6640   22.3730  -30.6910 N   0  0  0  0  0  0  0  0  0  0  0  0
   -2.4020   21.5000  -29.5460 C   0  0  0  0  0  0  0  0  0  0  0  0
   -1.8610   22.2830  -28.3380 C   0  0  0  0  0  0  0  0  0  0  0  0
   -1.6880   23.7230  -28.6300 N   0  0  0  0  0  0  0  0  0  0  0  0
   -2.3970   24.5230  -27.6180 C   0  0  0  0  0  0  0  0  0  0  0  0
   -0.2660   24.1100  -28.6470 C   0  0  0  0  0  0  0  0  0  0  0  0
   -4.9150   23.2820  -30.9260 C   0  0  0  0  0  0  0  0  0  0  0  0
   -4.5690   24.4180  -30.1630 C   0  0  0  0  0  0  0  0  0  0  0  0
   -5.5460   25.3240  -29.7570 C   0  0  0  0  0  0  0  0  0  0  0  0
   -6.8770   25.1150  -30.1030 C   0  0  0  0  0  0  0  0  0  0  0  0
   -7.2400   23.9840  -30.8350 C   0  0  0  0  0  0  0  0  0  0  0  0
   -6.2690   23.0350  -31.2360 C   0  0  0  0  0  0  0  0  0  0  0  0
   -6.6170   21.8680  -31.8760 N   0  0  0  0  0  0  0  0  0  0  0  0
   -7.9960   21.3550  -31.7160 C   0  0  0  0  0  0  0  0  0  0  0  0
   -3.3090   20.5870  -33.0080 C   0  0  0  0  0  0  0  0  0  0  0  0
   -1.9330   20.9190  -33.0370 C   0  0  0  0  0  0  0  0  0  0  0  0
   -0.9870   20.0430  -33.5580 C   0  0  0  0  0  0  0  0  0  0  0  0
   -1.3900   18.8380  -34.1090 C   0  0  0  0  0  0  0  0  0  0  0  0
   -0.1940   17.7110  -34.7250 Cl  0  0  0  0  0  0  0  0  0  0  0  0
   -2.7460   18.5500  -34.2290 C   0  0  0  0  0  0  0  0  0  0  0  0
   -3.7380   19.4450  -33.7450 C   0  0  0  0  0  0  0  0  0  0  0  0
   -6.5876   17.6132  -30.1120 H   0  0  0  0  0  0  0  0  0  0  0  0
   -6.1373   16.2653  -31.2106 H   0  0  0  0  0  0  0  0  0  0  0  0
   -5.1766   17.7831  -31.2106 H   0  0  0  0  0  0  0  0  0  0  0  0
   -8.3265   18.1645  -30.4722 H   0  0  0  0  0  0  0  0  0  0  0  0
   -8.7518   19.1638  -31.9030 H   0  0  0  0  0  0  0  0  0  0  0  0
   -9.0993   17.4014  -31.9030 H   0  0  0  0  0  0  0  0  0  0  0  0
   -7.4430   15.9880  -32.9147 H   0  0  0  0  0  0  0  0  0  0  0  0
   -7.9904   17.3796  -33.9508 H   0  0  0  0  0  0  0  0  0  0  0  0
   -5.0707   16.6839  -33.4475 H   0  0  0  0  0  0  0  0  0  0  0  0
   -6.0623   16.1009  -34.8702 H   0  0  0  0  0  0  0  0  0  0  0  0
   -4.8078   17.9558  -35.6617 H   0  0  0  0  0  0  0  0  0  0  0  0
   -6.5041   18.5367  -35.3925 H   0  0  0  0  0  0  0  0  0  0  0  0
   -2.0850   23.2410  -30.7600 H   0  0  0  0  0  0  0  0  0  0  0  0
   -3.3395   21.0029  -29.2563 H   0  0  0  0  0  0  0  0  0  0  0  0
   -1.6392   20.7661  -29.8452 H   0  0  0  0  0  0  0  0  0  0  0  0
   -2.5674   22.1746  -27.5018 H   0  0  0  0  0  0  0  0  0  0  0  0
   -0.8725   21.8709  -28.0870 H   0  0  0  0  0  0  0  0  0  0  0  0
   -2.1007   24.1887  -26.6128 H   0  0  0  0  0  0  0  0  0  0  0  0
   -2.1379   25.5848  -27.7425 H   0  0  0  0  0  0  0  0  0  0  0  0
   -3.4822   24.3934  -27.7425 H   0  0  0  0  0  0  0  0  0  0  0  0
    0.0993   24.2094  -27.6142 H   0  0  0  0  0  0  0  0  0  0  0  0
    0.3179   23.3381  -29.1697 H   0  0  0  0  0  0  0  0  0  0  0  0
   -0.1538   25.0713  -29.1697 H   0  0  0  0  0  0  0  0  0  0  0  0
   -3.5182   24.5894  -29.8865 H   0  0  0  0  0  0  0  0  0  0  0  0
   -5.2648   26.2056  -29.1622 H   0  0  0  0  0  0  0  0  0  0  0  0
   -7.6443   25.8423  -29.7991 H   0  0  0  0  0  0  0  0  0  0  0  0
   -8.2950   23.8276  -31.1042 H   0  0  0  0  0  0  0  0  0  0  0  0
   -8.2326   21.2670  -30.6453 H   0  0  0  0  0  0  0  0  0  0  0  0
   -8.7033   22.0501  -32.1919 H   0  0  0  0  0  0  0  0  0  0  0  0
   -8.0770   20.3666  -32.1919 H   0  0  0  0  0  0  0  0  0  0  0  0
   -1.6052   21.8906  -32.6389 H   0  0  0  0  0  0  0  0  0  0  0  0
    0.0806   20.3069  -33.5325 H   0  0  0  0  0  0  0  0  0  0  0  0
   -3.0566   17.6100  -34.7085 H   0  0  0  0  0  0  0  0  0  0  0  0
  1  2  1  0
  2  3  1  0
  2  4  1  0
  4  5  1  0
  5  6  1  0
  6  7  1  0
  7  8  1  0
  8  9  2  0
  8 10  1  0
 10 11  2  0
 11 12  1  0
 12 13  1  0
 13 14  1  0
 14 15  1  0
 15 16  1  0
 16 17  1  0
 16 18  1  0
 12 19  2  0
 19 20  1  0
 20 21  2  0
 21 22  1  0
 22 23  2  0
 23 24  1  0
 24 25  2  0
 25 26  1  0
 11 27  1  0
 27 28  2  0
 28 29  1  0
 29 30  2  0
 30 31  1  0
 30 32  1  0
 32 33  2  0
 33  7  1  0
 25 10  1  0
 33 27  1  0
 24 19  1  0
  1 34  1  0
  1 35  1  0
  1 36  1  0
  3 37  1  0
  3 38  1  0
  3 39  1  0
  4 40  1  0
  4 41  1  0
  5 42  1  0
  5 43  1  0
  6 44  1  0
  6 45  1  0
 13 46  1  0
 14 47  1  0
 14 48  1  0
 15 49  1  0
 15 50  1  0
 17 51  1  0
 17 52  1  0
 17 53  1  0
 18 54  1  0
 18 55  1  0
 18 56  1  0
 20 57  1  0
 21 58  1  0
 22 59  1  0
 23 60  1  0
 26 61  1  0
 26 62  1  0
 26 63  1  0
 28 64  1  0
 29 65  1  0
 32 66  1  0
M  CHG  1  25   1
M  END
>  <UniqueID>  (22) 
22

>  <SMILES>  (22) 
CN(C)CCCn1c(=O)c2c(c(NCCN(C)C)c3ccccc3[n+]2C)c2ccc(Cl)cc21

>  <Energy>  (22) 
120.03482905848784

>  <Genealogy>  (22) 
CN(C)CCCn1c(=O)c2c(c(NCCN(C)C)c3ccccc3[n+]2C)c2ccc(Cl)cc21 (3D coordinates assigned)
CN(C)CCCn1c(=O)c2c(c(NCCN(C)C)c3ccccc3[n+]2C)c2ccc(Cl)cc21 (optimized conformer: 120.03482905848784 kcal/mol)

>  <smiles>  (22) 
CN(C)CCCn1c(=O)c2c(c(NCCN(C)C)c3ccccc3[n+]2C)c2ccc(Cl)cc21

>  <score_type>  (22) 
oracle

>  <origin>  (22) 
adg

>  <m_score__min__energy>  (22) 
-8.2599999999999998

>  <m_primary>  (22) 
energy

$$$$
22:0
     RDKit          3D

 64 66  0  0  0  0  0  0  0  0999 V2000
   -6.4930   23.0500  -30.9500 C   0  0  0  0  0  0  0  0  0  0  0  0
   -7.2550   22.8430  -32.2540 C   0  0  0  0  0  0  0  0  0  0  0  0
   -7.7770   21.4510  -32.3130 N   0  0  0  0  0  0  0  0  0  0  0  0
   -9.2310   21.4000  -32.0270 C   0  0  0  0  0  0  0  0  0  0  0  0
   -9.5080   21.5470  -30.5320 C   0  0  0  0  0  0  0  0  0  0  0  0
   -7.0430   20.5530  -31.3930 C   0  0  0  0  0  0  0  0  0  0  0  0
   -7.4580   19.0840  -31.6080 C   0  0  0  0  0  0  0  0  0  0  0  0
   -7.3540   18.6560  -33.0900 C   0  0  0  0  0  0  0  0  0  0  0  0
   -6.5030   19.5510  -33.9000 N   0  0  0  0  0  0  0  0  0  0  0  0
   -5.1180   19.1370  -33.9090 C   0  0  0  0  0  0  0  0  0  0  0  0
   -4.7590   17.9140  -34.5030 C   0  0  0  0  0  0  0  0  0  0  0  0
   -3.4210   17.5280  -34.5910 C   0  0  0  0  0  0  0  0  0  0  0  0
   -3.0020   16.0060  -35.3570 Cl  0  0  0  0  0  0  0  0  0  0  0  0
   -2.4160   18.3580  -34.0940 C   0  0  0  0  0  0  0  0  0  0  0  0
   -2.7420   19.5890  -33.4910 C   0  0  0  0  0  0  0  0  0  0  0  0
   -1.7500   20.4670  -32.9990 C   0  0  0  0  0  0  0  0  0  0  0  0
   -0.3040   20.1770  -33.1320 C   0  0  0  0  0  0  0  0  0  0  0  0
    0.3020   19.1570  -32.3610 C   0  0  0  0  0  0  0  0  0  0  0  0
   -0.4980   18.3450  -31.3740 C   0  0  0  0  0  0  0  0  0  0  0  0
    1.6770   18.9130  -32.5000 C   0  0  0  0  0  0  0  0  0  0  0  0
    2.4500   19.6570  -33.4070 C   0  0  0  0  0  0  0  0  0  0  0  0
    3.8240   19.4370  -33.5830 O   0  0  0  0  0  0  0  0  0  0  0  0
    4.6840   18.8790  -32.5950 C   0  0  0  0  0  0  0  0  0  0  0  0
    1.8400   20.6570  -34.1700 C   0  0  0  0  0  0  0  0  0  0  0  0
    0.4660   20.9270  -34.0380 C   0  0  0  0  0  0  0  0  0  0  0  0
   -0.1650   21.9370  -34.7860 O   0  0  0  0  0  0  0  0  0  0  0  0
    0.4720   22.7160  -35.7930 C   0  0  0  0  0  0  0  0  0  0  0  0
   -2.1350   21.6620  -32.3790 C   0  0  0  0  0  0  0  0  0  0  0  0
   -3.4870   21.9810  -32.2710 C   0  0  0  0  0  0  0  0  0  0  0  0
   -4.4280   21.1400  -32.7700 N   0  0  0  0  0  0  0  0  0  0  0  0
   -4.1040   19.9660  -33.3770 C   0  0  0  0  0  0  0  0  0  0  0  0
   -7.1658   22.8672  -30.0992 H   0  0  0  0  0  0  0  0  0  0  0  0
   -5.6462   22.3493  -30.9049 H   0  0  0  0  0  0  0  0  0  0  0  0
   -6.1171   24.0828  -30.9049 H   0  0  0  0  0  0  0  0  0  0  0  0
   -8.0953   23.5512  -32.3031 H   0  0  0  0  0  0  0  0  0  0  0  0
   -6.5776   23.0148  -33.1035 H   0  0  0  0  0  0  0  0  0  0  0  0
   -9.7312   22.2180  -32.5662 H   0  0  0  0  0  0  0  0  0  0  0  0
   -9.6158   20.4238  -32.3571 H   0  0  0  0  0  0  0  0  0  0  0  0
   -8.6779   21.1065  -29.9602 H   0  0  0  0  0  0  0  0  0  0  0  0
   -9.6018   22.6135  -30.2796 H   0  0  0  0  0  0  0  0  0  0  0  0
  -10.4438   21.0268  -30.2796 H   0  0  0  0  0  0  0  0  0  0  0  0
   -5.9633   20.6527  -31.5781 H   0  0  0  0  0  0  0  0  0  0  0  0
   -7.2842   20.8378  -30.3582 H   0  0  0  0  0  0  0  0  0  0  0  0
   -6.8006   18.4390  -31.0065 H   0  0  0  0  0  0  0  0  0  0  0  0
   -8.5096   18.9830  -31.3015 H   0  0  0  0  0  0  0  0  0  0  0  0
   -6.9314   17.6413  -33.1312 H   0  0  0  0  0  0  0  0  0  0  0  0
   -8.3683   18.7010  -33.5133 H   0  0  0  0  0  0  0  0  0  0  0  0
   -6.5960   20.5290  -33.5390 H   0  0  0  0  0  0  0  0  0  0  0  0
   -6.8630   19.5580  -34.8830 H   0  0  0  0  0  0  0  0  0  0  0  0
   -5.5425   17.2536  -34.9031 H   0  0  0  0  0  0  0  0  0  0  0  0
   -1.3631   18.0497  -34.1733 H   0  0  0  0  0  0  0  0  0  0  0  0
   -0.2161   18.6311  -30.3500 H   0  0  0  0  0  0  0  0  0  0  0  0
   -1.5706   18.5361  -31.5260 H   0  0  0  0  0  0  0  0  0  0  0  0
   -0.2910   17.2754  -31.5260 H   0  0  0  0  0  0  0  0  0  0  0  0
    2.1548   18.1306  -31.8921 H   0  0  0  0  0  0  0  0  0  0  0  0
    4.3018   19.1270  -31.5938 H   0  0  0  0  0  0  0  0  0  0  0  0
    4.7185   17.7860  -32.7139 H   0  0  0  0  0  0  0  0  0  0  0  0
    5.6962   19.2929  -32.7139 H   0  0  0  0  0  0  0  0  0  0  0  0
    2.4421   21.2400  -34.8825 H   0  0  0  0  0  0  0  0  0  0  0  0
    1.1004   23.4845  -35.3193 H   0  0  0  0  0  0  0  0  0  0  0  0
    1.0992   22.0641  -36.4189 H   0  0  0  0  0  0  0  0  0  0  0  0
   -0.2914   23.2012  -36.4189 H   0  0  0  0  0  0  0  0  0  0  0  0
   -1.3727   22.3465  -31.9786 H   0  0  0  0  0  0  0  0  0  0  0  0
   -3.7924   22.9168  -31.7801 H   0  0  0  0  0  0  0  0  0  0  0  0
  1  2  1  0
  2  3  1  0
  3  4  1  0
  4  5  1  0
  3  6  1  0
  6  7  1  0
  7  8  1  0
  8  9  1  0
  9 10  1  0
 10 11  2  0
 11 12  1  0
 12 13  1  0
 12 14  2  0
 14 15  1  0
 15 16  2  0
 16 17  1  0
 17 18  2  0
 18 19  1  0
 18 20  1  0
 20 21  2  0
 21 22  1  0
 22 23  1  0
 21 24  1  0
 24 25  2  0
 25 26  1  0
 26 27  1  0
 16 28  1  0
 28 29  2  0
 29 30  1  0
 30 31  2  0
 31 10  1  0
 31 15  1  0
 25 17  1  0
  1 32  1  0
  1 33  1  0
  1 34  1  0
  2 35  1  0
  2 36  1  0
  4 37  1  0
  4 38  1  0
  5 39  1  0
  5 40  1  0
  5 41  1  0
  6 42  1  0
  6 43  1  0
  7 44  1  0
  7 45  1  0
  8 46  1  0
  8 47  1  0
  9 48  1  0
  9 49  1  0
 11 50  1  0
 14 51  1  0
 19 52  1  0
 19 53  1  0
 19 54  1  0
 20 55  1  0
 23 56  1  0
 23 57  1  0
 23 58  1  0
 24 59  1  0
 27 60  1  0
 27 61  1  0
 27 62  1  0
 28 63  1  0
 29 64  1  0
M  CHG  1   9   1
M  END
>  <UniqueID>  (23) 
23

>  <SMILES>  (23) 
CCN(CC)CCC[NH2+]c1cc(Cl)cc2c(-c3c(C)cc(OC)cc3OC)ccnc12

>  <Energy>  (23) 
74.81112303249768

>  <Genealogy>  (23) 
CCN(CC)CCC[NH2+]c1cc(Cl)cc2c(-c3c(C)cc(OC)cc3OC)ccnc12 (protonated)
CCN(CC)CCC[NH2+]c1cc(Cl)cc2c(-c3c(C)cc(OC)cc3OC)ccnc12 (3D coordinates assigned)
CCN(CC)CCC[NH2+]c1cc(Cl)cc2c(-c3c(C)cc(OC)cc3OC)ccnc12 (optimized conformer: 74.81112303249768 kcal/mol)

>  <smiles>  (23) 
CCN(CC)CCCNc1cc(Cl)cc2c(-c3c(C)cc(OC)cc3OC)ccnc12

>  <score_type>  (23) 
oracle

>  <origin>  (23) 
adg

>  <m_score__min__energy>  (23) 
-7.8799999999999999

>  <m_primary>  (23) 
energy

$$$$
23:0
     RDKit          3D

 45 47  0  0  0  0  0  0  0  0999 V2000
   -1.7021   22.7052  -31.6277 H   0  0  0  0  0  0  0  0  0  0  0  0
   -2.6630   22.2540  -31.9160 C   0  0  0  0  0  0  0  0  0  0  0  0
   -3.7740   22.8450  -31.6090 N   0  0  0  0  0  0  0  0  0  0  0  0
   -4.2620   22.9170  -30.2370 C   0  0  0  0  0  0  0  0  0  0  0  0
   -3.8659   22.0655  -29.6642 H   0  0  0  0  0  0  0  0  0  0  0  0
   -5.3615   22.8836  -30.2424 H   0  0  0  0  0  0  0  0  0  0  0  0
   -3.8040   24.2180  -29.5890 C   0  0  0  0  0  0  0  0  0  0  0  0
   -2.7442   24.1343  -29.3066 H   0  0  0  0  0  0  0  0  0  0  0  0
   -4.4073   24.4135  -28.6902 H   0  0  0  0  0  0  0  0  0  0  0  0
   -3.9650   25.2800  -30.5060 O   0  0  0  0  0  0  0  0  0  0  0  0
   -5.3330   25.4250  -30.8220 C   0  0  0  0  0  0  0  0  0  0  0  0
   -5.6860   24.5270  -31.3502 H   0  0  0  0  0  0  0  0  0  0  0  0
   -5.4724   26.3042  -31.4681 H   0  0  0  0  0  0  0  0  0  0  0  0
   -6.1260   25.6040  -29.5360 C   0  0  0  0  0  0  0  0  0  0  0  0
   -5.4620   25.4541  -28.6719 H   0  0  0  0  0  0  0  0  0  0  0  0
   -6.5469   26.6198  -29.5031 H   0  0  0  0  0  0  0  0  0  0  0  0
   -6.9424   24.8675  -29.5031 H   0  0  0  0  0  0  0  0  0  0  0  0
   -2.6860   20.9850  -32.6470 C   0  0  0  0  0  0  0  0  0  0  0  0
   -3.7400   20.5060  -33.2650 O   0  0  0  0  0  0  0  0  0  0  0  0
   -3.4080   19.3610  -33.8120 C   0  0  0  0  0  0  0  0  0  0  0  0
   -4.3040   18.5830  -34.5520 O   0  0  0  0  0  0  0  0  0  0  0  0
   -5.2950   17.7410  -33.9650 C   0  0  0  0  0  0  0  0  0  0  0  0
   -5.7625   17.1296  -34.7509 H   0  0  0  0  0  0  0  0  0  0  0  0
   -4.8144   17.0934  -33.2170 H   0  0  0  0  0  0  0  0  0  0  0  0
   -6.3540   18.5690  -33.2850 C   0  0  0  0  0  0  0  0  0  0  0  0
   -7.4940   17.9540  -32.7440 C   0  0  0  0  0  0  0  0  0  0  0  0
   -7.6192   16.8634  -32.8141 H   0  0  0  0  0  0  0  0  0  0  0  0
   -8.4660   18.7310  -32.1180 C   0  0  0  0  0  0  0  0  0  0  0  0
   -9.3644   18.2556  -31.6974 H   0  0  0  0  0  0  0  0  0  0  0  0
   -8.2980   20.1170  -32.0250 C   0  0  0  0  0  0  0  0  0  0  0  0
   -9.2630   20.9230  -31.4010 C   0  0  0  0  0  0  0  0  0  0  0  0
  -10.1690   20.4670  -30.9752 H   0  0  0  0  0  0  0  0  0  0  0  0
   -9.0720   22.3060  -31.3210 C   0  0  0  0  0  0  0  0  0  0  0  0
   -9.8298   22.9366  -30.8332 H   0  0  0  0  0  0  0  0  0  0  0  0
   -7.9210   22.8900  -31.8590 C   0  0  0  0  0  0  0  0  0  0  0  0
   -7.7752   23.9782  -31.7919 H   0  0  0  0  0  0  0  0  0  0  0  0
   -6.9550   22.0940  -32.4820 C   0  0  0  0  0  0  0  0  0  0  0  0
   -6.0514   22.5582  -32.9039 H   0  0  0  0  0  0  0  0  0  0  0  0
   -7.1340   20.7050  -32.5710 C   0  0  0  0  0  0  0  0  0  0  0  0
   -6.1960   19.9200  -33.1790 N   0  0  0  0  0  0  0  0  0  0  0  0
   -5.3360   20.3630  -33.5770 H   0  0  0  0  0  0  0  0  0  0  0  0
   -2.0810   19.0670  -33.5440 C   0  0  0  0  0  0  0  0  0  0  0  0
   -1.5177   18.1786  -33.8656 H   0  0  0  0  0  0  0  0  0  0  0  0
   -1.6150   20.1230  -32.7890 C   0  0  0  0  0  0  0  0  0  0  0  0
   -0.6006   20.2524  -32.3837 H   0  0  0  0  0  0  0  0  0  0  0  0
  1  2  1  0
  2  3  2  0
  3  4  1  0
  4  5  1  0
  4  6  1  0
  4  7  1  0
  7  8  1  0
  7  9  1  0
  7 10  1  0
 10 11  1  0
 11 12  1  0
 11 13  1  0
 11 14  1  0
 14 15  1  0
 14 16  1  0
 14 17  1  0
  2 18  1  0
 18 19  1  0
 19 20  1  0
 20 21  1  0
 21 22  1  0
 22 23  1  0
 22 24  1  0
 22 25  1  0
 25 26  2  0
 26 27  1  0
 26 28  1  0
 28 29  1  0
 28 30  2  0
 30 31  1  0
 31 32  1  0
 31 33  2  0
 33 34  1  0
 33 35  1  0
 35 36  1  0
 35 37  2  0
 37 38  1  0
 37 39  1  0
 39 40  2  0
 40 41  1  0
 20 42  2  0
 42 43  1  0
 42 44  1  0
 44 45  1  0
 44 18  2  0
 40 25  1  0
 39 30  1  0
M  CHG  1  40   1
M  END
>  <UniqueID>  (24) 
24

>  <SMILES>  (24) 
CCOCC/N=C/c1ccc(OCc2ccc3ccccc3[nH+]2)o1

>  <Energy>  (24) 
66.340867893614

>  <Genealogy>  (24) 
CCOCCN=Cc1ccc(OCc2ccc3ccccc3[nH+]2)o1 (protonated)
CCOCC/N=C/c1ccc(OCc2ccc3ccccc3[nH+]2)o1 (cis-trans isomerization)
CCOCC/N=C/c1ccc(OCc2ccc3ccccc3[nH+]2)o1 (3D coordinates assigned)
CCOCC/N=C/c1ccc(OCc2ccc3ccccc3[nH+]2)o1 (optimized conformer: 66.340867893614 kcal/mol)

>  <smiles>  (24) 
CCOCCN=Cc1ccc(OCc2ccc3ccccc3n2)o1

>  <score_type>  (24) 
oracle

>  <origin>  (24) 
adg

>  <m_score__min__energy>  (24) 
-7.5899999999999999

>  <m_primary>  (24) 
energy

$$$$
24:0
     RDKit          3D

 38 40  0  0  0  0  0  0  0  0999 V2000
   -0.7550   21.1250  -30.4730 C   0  0  0  0  0  0  0  0  0  0  0  0
   -1.8770   21.7410  -29.6960 C   0  0  0  0  0  0  0  0  0  0  0  0
   -3.0850   21.1210  -29.4300 C   0  0  0  0  0  0  0  0  0  0  0  0
   -3.8480   22.0340  -28.7320 C   0  0  0  0  0  0  0  0  0  0  0  0
   -3.0730   23.1710  -28.5890 C   0  0  0  0  0  0  0  0  0  0  0  0
   -3.5550   24.4540  -27.9740 C   0  0  0  0  0  0  0  0  0  0  0  0
   -4.9810   24.6350  -28.2490 N   0  0  0  0  0  0  0  0  0  0  0  0
   -5.2240   24.8580  -29.9550 S   0  0  0  0  0  0  0  0  0  0  0  0
   -6.0950   26.0620  -30.1800 O   0  0  0  0  0  0  0  0  0  0  0  0
   -3.8970   25.0920  -30.6230 O   0  0  0  0  0  0  0  0  0  0  0  0
   -6.0170   23.4410  -30.6430 C   0  0  0  0  0  0  0  0  0  0  0  0
   -7.2440   22.9730  -30.1110 C   0  0  0  0  0  0  0  0  0  0  0  0
   -7.8920   21.8610  -30.6810 C   0  0  0  0  0  0  0  0  0  0  0  0
   -7.2900   21.2500  -31.7770 C   0  0  0  0  0  0  0  0  0  0  0  0
   -7.6750   20.1710  -32.5410 C   0  0  0  0  0  0  0  0  0  0  0  0
   -9.1160   19.1900  -32.3490 Cl  0  0  0  0  0  0  0  0  0  0  0  0
   -6.6880   20.0150  -33.5050 C   0  0  0  0  0  0  0  0  0  0  0  0
   -5.7280   20.9540  -33.3510 N   0  0  0  0  0  0  0  0  0  0  0  0
   -6.1040   21.6990  -32.2960 C   0  0  0  0  0  0  0  0  0  0  0  0
   -5.4370   22.7950  -31.7540 C   0  0  0  0  0  0  0  0  0  0  0  0
   -1.8640   22.9870  -29.1710 N   0  0  0  0  0  0  0  0  0  0  0  0
   -0.8040   23.9850  -29.3390 C   0  0  0  0  0  0  0  0  0  0  0  0
   -0.0085   20.7152  -29.7767 H   0  0  0  0  0  0  0  0  0  0  0  0
   -1.1484   20.3164  -31.1065 H   0  0  0  0  0  0  0  0  0  0  0  0
   -0.2839   21.8909  -31.1065 H   0  0  0  0  0  0  0  0  0  0  0  0
   -3.3790   20.1010  -29.7183 H   0  0  0  0  0  0  0  0  0  0  0  0
   -4.8731   21.8866  -28.3613 H   0  0  0  0  0  0  0  0  0  0  0  0
   -3.3951   24.4194  -26.8862 H   0  0  0  0  0  0  0  0  0  0  0  0
   -2.9938   25.2954  -28.4065 H   0  0  0  0  0  0  0  0  0  0  0  0
   -5.4870   23.7580  -27.9890 H   0  0  0  0  0  0  0  0  0  0  0  0
   -7.6936   23.4825  -29.2460 H   0  0  0  0  0  0  0  0  0  0  0  0
   -8.8429   21.4872  -30.2736 H   0  0  0  0  0  0  0  0  0  0  0  0
   -6.6874   19.2378  -34.2834 H   0  0  0  0  0  0  0  0  0  0  0  0
   -4.8700   21.0750  -33.9350 H   0  0  0  0  0  0  0  0  0  0  0  0
   -4.4857   23.1463  -32.1802 H   0  0  0  0  0  0  0  0  0  0  0  0
   -0.4522   24.3162  -28.3508 H   0  0  0  0  0  0  0  0  0  0  0  0
    0.0336   23.5400  -29.8962 H   0  0  0  0  0  0  0  0  0  0  0  0
   -1.1977   24.8479  -29.8962 H   0  0  0  0  0  0  0  0  0  0  0  0
  1  2  1  0
  2  3  2  0
  3  4  1  0
  4  5  2  0
  5  6  1  0
  6  7  1  0
  7  8  1  0
  8  9  2  0
  8 10  2  0
  8 11  1  0
 11 12  2  0
 12 13  1  0
 13 14  2  0
 14 15  1  0
 15 16  1  0
 15 17  2  0
 17 18  1  0
 18 19  1  0
 19 20  2  0
  5 21  1  0
 21 22  1  0
 21  2  1  0
 20 11  1  0
 19 14  1  0
  1 23  1  0
  1 24  1  0
  1 25  1  0
  3 26  1  0
  4 27  1  0
  6 28  1  0
  6 29  1  0
  7 30  1  0
 12 31  1  0
 13 32  1  0
 17 33  1  0
 18 34  1  0
 20 35  1  0
 22 36  1  0
 22 37  1  0
 22 38  1  0
M  END
>  <UniqueID>  (25) 
25

>  <SMILES>  (25) 
Cc1ccc(CNS(=O)(=O)c2ccc3c(Cl)c[nH]c3c2)n1C

>  <Energy>  (25) 
94.22597435560874

>  <Genealogy>  (25) 
Cc1ccc(CNS(=O)(=O)c2ccc3c(Cl)c[nH]c3c2)n1C (3D coordinates assigned)
Cc1ccc(CNS(=O)(=O)c2ccc3c(Cl)c[nH]c3c2)n1C (optimized conformer: 94.22597435560874 kcal/mol)

>  <smiles>  (25) 
Cc1ccc(CNS(=O)(=O)c2ccc3c(Cl)c[nH]c3c2)n1C

>  <score_type>  (25) 
oracle

>  <origin>  (25) 
adg

>  <m_score__min__energy>  (25) 
-9.2400000000000002

>  <m_primary>  (25) 
energy

$$$$
25:0
     RDKit          3D

 24 25  0  0  0  0  0  0  0  0999 V2000
   -6.4740   16.9780  -33.7980 Br  0  0  0  0  0  0  0  0  0  0  0  0
   -7.1060   18.5970  -33.0080 C   0  0  0  0  0  0  0  0  0  0  0  0
   -8.2410   18.5800  -32.1900 C   0  0  0  0  0  0  0  0  0  0  0  0
   -8.7050   19.7640  -31.6100 C   0  0  0  0  0  0  0  0  0  0  0  0
   -8.0400   20.9790  -31.8500 C   0  0  0  0  0  0  0  0  0  0  0  0
   -8.5420   22.2510  -31.2210 C   0  0  0  0  0  0  0  0  0  0  0  0
   -7.8730   23.4100  -31.8070 N   0  0  0  0  0  0  0  0  0  0  0  0
   -6.7160   23.9790  -31.2440 N   0  0  0  0  0  0  0  0  0  0  0  0
   -5.4360   23.8550  -31.6460 C   0  0  0  0  0  0  0  0  0  0  0  0
   -4.6130   24.5480  -30.8330 N   0  0  0  0  0  0  0  0  0  0  0  0
   -5.3860   25.1110  -29.9130 N   0  0  0  0  0  0  0  0  0  0  0  0
   -6.6610   24.7650  -30.1590 C   0  0  0  0  0  0  0  0  0  0  0  0
   -6.8950   20.9870  -32.6650 C   0  0  0  0  0  0  0  0  0  0  0  0
   -6.4340   19.8010  -33.2440 C   0  0  0  0  0  0  0  0  0  0  0  0
   -8.7690   17.6333  -32.0031 H   0  0  0  0  0  0  0  0  0  0  0  0
   -9.5944   19.7450  -30.9630 H   0  0  0  0  0  0  0  0  0  0  0  0
   -9.6258   22.3350  -31.3895 H   0  0  0  0  0  0  0  0  0  0  0  0
   -8.3270   22.2236  -30.1426 H   0  0  0  0  0  0  0  0  0  0  0  0
   -8.2610   23.8150  -32.6900 H   0  0  0  0  0  0  0  0  0  0  0  0
   -5.1076   23.2692  -32.5172 H   0  0  0  0  0  0  0  0  0  0  0  0
   -5.0400   25.7140  -29.1340 H   0  0  0  0  0  0  0  0  0  0  0  0
   -7.5288   25.0792  -29.5605 H   0  0  0  0  0  0  0  0  0  0  0  0
   -6.3594   21.9302  -32.8480 H   0  0  0  0  0  0  0  0  0  0  0  0
   -5.5412   19.8146  -33.8864 H   0  0  0  0  0  0  0  0  0  0  0  0
  1  2  1  0
  2  3  2  0
  3  4  1  0
  4  5  2  0
  5  6  1  0
  6  7  1  0
  7  8  1  0
  8  9  1  0
  9 10  2  0
 10 11  1  0
 11 12  2  0
  5 13  1  0
 13 14  2  0
 14  2  1  0
 12  8  1  0
  3 15  1  0
  4 16  1  0
  6 17  1  0
  6 18  1  0
  7 19  1  0
  9 20  1  0
 11 21  1  0
 12 22  1  0
 13 23  1  0
 14 24  1  0
M  CHG  1  11   1
M  END
>  <UniqueID>  (26) 
26

>  <SMILES>  (26) 
Brc1ccc(CNn2cn[nH+]c2)cc1

>  <Energy>  (26) 
58.045917744642374

>  <Genealogy>  (26) 
Brc1ccc(CNn2cn[nH+]c2)cc1 (protonated)
Brc1ccc(CNn2cn[nH+]c2)cc1 (3D coordinates assigned)
Brc1ccc(CNn2cn[nH+]c2)cc1 (optimized conformer: 58.045917744642374 kcal/mol)

>  <smiles>  (26) 
Brc1ccc(CNn2cnnc2)cc1

>  <score_type>  (26) 
oracle

>  <origin>  (26) 
adg

>  <m_score__min__energy>  (26) 
-6.3300000000000001

>  <m_primary>  (26) 
energy

$$$$
26:0
     RDKit          3D

 42 44  0  0  0  0  0  0  0  0999 V2000
   -4.6100   24.8310  -27.2140 N   0  0  0  0  0  0  0  0  0  0  0  0
   -3.3800   24.0440  -27.2040 C   0  0  0  0  0  0  0  0  0  0  0  0
   -3.2950   23.1710  -28.4650 C   0  0  1  0  0  0  0  0  0  0  0  0
   -4.5440   22.5900  -28.7440 O   0  0  0  0  0  0  0  0  0  0  0  0
   -4.5380   22.2810  -30.1200 C   0  0  1  0  0  0  0  0  0  0  0  0
   -5.8860   22.4580  -30.6990 N   0  0  0  0  0  0  0  0  0  0  0  0
   -6.4410   21.4240  -31.4010 C   0  0  0  0  0  0  0  0  0  0  0  0
   -7.7040   21.5470  -31.9890 C   0  0  0  0  0  0  0  0  0  0  0  0
   -8.3190   20.3760  -32.7160 C   0  0  0  0  0  0  0  0  0  0  0  0
   -7.3110   19.2690  -32.8720 C   0  0  0  0  0  0  0  0  0  0  0  0
   -7.2940   18.1910  -31.9720 C   0  0  0  0  0  0  0  0  0  0  0  0
   -6.3340   17.1820  -32.0990 C   0  0  0  0  0  0  0  0  0  0  0  0
   -5.3810   17.2460  -33.1200 C   0  0  0  0  0  0  0  0  0  0  0  0
   -5.3850   18.3200  -34.0140 C   0  0  0  0  0  0  0  0  0  0  0  0
   -6.3440   19.3310  -33.8900 C   0  0  0  0  0  0  0  0  0  0  0  0
   -8.3880   22.7590  -31.8290 C   0  0  0  0  0  0  0  0  0  0  0  0
   -9.5380   22.9180  -32.3210 O   0  0  0  0  0  0  0  0  0  0  0  0
   -7.8060   23.7770  -31.1420 N   0  0  0  0  0  0  0  0  0  0  0  0
   -6.5710   23.6430  -30.5880 C   0  0  0  0  0  0  0  0  0  0  0  0
   -6.0670   24.6220  -29.9730 O   0  0  0  0  0  0  0  0  0  0  0  0
   -3.5100   23.1670  -30.8290 C   0  0  0  0  0  0  0  0  0  0  0  0
   -2.8510   23.9390  -29.7100 C   0  0  1  0  0  0  0  0  0  0  0  0
   -3.3250   25.2620  -29.6900 O   0  0  0  0  0  0  0  0  0  0  0  0
   -5.3530   24.2730  -27.6950 H   0  0  0  0  0  0  0  0  0  0  0  0
   -4.4430   25.6730  -27.8100 H   0  0  0  0  0  0  0  0  0  0  0  0
   -2.5151   24.7230  -27.1738 H   0  0  0  0  0  0  0  0  0  0  0  0
   -3.3792   23.3928  -26.3175 H   0  0  0  0  0  0  0  0  0  0  0  0
   -2.5355   22.4071  -28.2419 H   0  0  0  0  0  0  0  0  0  0  0  0
   -4.2564   21.2268  -30.2588 H   0  0  0  0  0  0  0  0  0  0  0  0
   -5.8852   20.4804  -31.5049 H   0  0  0  0  0  0  0  0  0  0  0  0
   -9.1802   20.0041  -32.1415 H   0  0  0  0  0  0  0  0  0  0  0  0
   -8.6450   20.7058  -33.7135 H   0  0  0  0  0  0  0  0  0  0  0  0
   -8.0387   18.1401  -31.1640 H   0  0  0  0  0  0  0  0  0  0  0  0
   -6.3287   16.3370  -31.3948 H   0  0  0  0  0  0  0  0  0  0  0  0
   -4.6277   16.4506  -33.2196 H   0  0  0  0  0  0  0  0  0  0  0  0
   -4.6336   18.3705  -34.8158 H   0  0  0  0  0  0  0  0  0  0  0  0
   -6.3412   20.1778  -34.5921 H   0  0  0  0  0  0  0  0  0  0  0  0
   -8.3190   24.6830  -31.0390 H   0  0  0  0  0  0  0  0  0  0  0  0
   -2.7721   22.5541  -31.3673 H   0  0  0  0  0  0  0  0  0  0  0  0
   -3.9689   23.8252  -31.5815 H   0  0  0  0  0  0  0  0  0  0  0  0
   -1.7572   24.0131  -29.8004 H   0  0  0  0  0  0  0  0  0  0  0  0
   -4.1910   25.2460  -29.2040 H   0  0  0  0  0  0  0  0  0  0  0  0
  1  2  1  0
  2  3  1  0
  3  4  1  0
  4  5  1  0
  5  6  1  0
  6  7  1  0
  7  8  2  0
  8  9  1  0
  9 10  1  0
 10 11  2  0
 11 12  1  0
 12 13  2  0
 13 14  1  0
 14 15  2  0
  8 16  1  0
 16 17  2  0
 16 18  1  0
 18 19  1  0
 19 20  2  0
  5 21  1  0
 21 22  1  0
 22 23  1  0
 22  3  1  0
 19  6  1  0
 15 10  1  0
  1 24  1  0
  1 25  1  0
  2 26  1  0
  2 27  1  0
  3 28  1  1
  5 29  1  1
  7 30  1  0
  9 31  1  0
  9 32  1  0
 11 33  1  0
 12 34  1  0
 13 35  1  0
 14 36  1  0
 15 37  1  0
 18 38  1  0
 21 39  1  0
 21 40  1  0
 22 41  1  6
 23 42  1  0
M  END
>  <UniqueID>  (27) 
27

>  <SMILES>  (27) 
NC[C@H]1O[C@@H](n2cc(Cc3ccccc3)c(=O)[nH]c2=O)CC1O

>  <Energy>  (27) 
45.80397756941595

>  <Genealogy>  (27) 
NC[C@H]1O[C@@H](n2cc(Cc3ccccc3)c(=O)[nH]c2=O)CC1O (chirality)
NC[C@H]1O[C@@H](n2cc(Cc3ccccc3)c(=O)[nH]c2=O)CC1O (3D coordinates assigned)
NC[C@H]1O[C@@H](n2cc(Cc3ccccc3)c(=O)[nH]c2=O)CC1O (nonaromatic ring conformer: 45.80397756941595 kcal/mol)

>  <smiles>  (27) 
NCC1OC(n2cc(Cc3ccccc3)c(=O)[nH]c2=O)CC1O

>  <score_type>  (27) 
oracle

>  <origin>  (27) 
adg

>  <m_score__min__energy>  (27) 
-8.3900000000000006

>  <m_primary>  (27) 
energy

$$$$
27:0
     RDKit          3D

 39 41  0  0  0  0  0  0  0  0999 V2000
    1.4970   28.2030  -23.1550 C   0  0  0  0  0  0  0  0  0  0  0  0
    0.3420   27.3890  -22.7700 N   0  0  0  0  0  0  0  0  0  0  0  0
   -0.0530   26.5370  -23.8650 C   0  0  0  0  0  0  0  0  0  0  0  0
    0.8060   25.5280  -24.3270 C   0  0  0  0  0  0  0  0  0  0  0  0
    0.4350   24.7200  -25.4060 C   0  0  0  0  0  0  0  0  0  0  0  0
   -0.8040   24.9060  -26.0460 C   0  0  0  0  0  0  0  0  0  0  0  0
   -1.1770   24.0440  -27.1970 C   0  0  0  0  0  0  0  0  0  0  0  0
   -2.2010   24.4050  -28.0870 C   0  0  0  0  0  0  0  0  0  0  0  0
   -2.5450   23.5610  -29.1550 C   0  0  0  0  0  0  0  0  0  0  0  0
   -3.6850   23.9590  -30.0130 C   0  0  0  0  0  0  0  0  0  0  0  0
   -3.8020   25.2980  -30.4910 N   0  0  0  0  0  0  0  0  0  0  0  0
   -4.5260   23.0950  -30.3800 O   0  0  0  0  0  0  0  0  0  0  0  0
   -1.8200   22.3580  -29.3430 C   0  0  0  0  0  0  0  0  0  0  0  0
   -2.0290   21.4990  -30.4440 C   0  0  0  0  0  0  0  0  0  0  0  0
   -1.2920   20.3180  -30.5730 C   0  0  0  0  0  0  0  0  0  0  0  0
   -0.3360   19.9670  -29.6120 C   0  0  0  0  0  0  0  0  0  0  0  0
    0.4770   18.7170  -29.7770 C   0  0  0  0  0  0  0  0  0  0  0  0
   -0.0840   20.8360  -28.5420 C   0  0  0  0  0  0  0  0  0  0  0  0
   -0.8120   22.0220  -28.4060 C   0  0  0  0  0  0  0  0  0  0  0  0
   -0.5300   22.8620  -27.3770 N   0  0  0  0  0  0  0  0  0  0  0  0
   -1.6530   25.9350  -25.5960 C   0  0  0  0  0  0  0  0  0  0  0  0
   -1.2800   26.7410  -24.5170 C   0  0  0  0  0  0  0  0  0  0  0  0
    2.0090   28.5639  -22.2508 H   0  0  0  0  0  0  0  0  0  0  0  0
    2.1921   27.5941  -23.7517 H   0  0  0  0  0  0  0  0  0  0  0  0
    1.1574   29.0624  -23.7517 H   0  0  0  0  0  0  0  0  0  0  0  0
    0.5930   26.8090  -21.9350 H   0  0  0  0  0  0  0  0  0  0  0  0
   -0.4490   28.0190  -22.4990 H   0  0  0  0  0  0  0  0  0  0  0  0
    1.7782   25.3717  -23.8367 H   0  0  0  0  0  0  0  0  0  0  0  0
    1.1176   23.9322  -25.7575 H   0  0  0  0  0  0  0  0  0  0  0  0
   -2.7372   25.3551  -27.9467 H   0  0  0  0  0  0  0  0  0  0  0  0
   -3.1500   25.6660  -31.2180 H   0  0  0  0  0  0  0  0  0  0  0  0
   -2.7776   21.7611  -31.2062 H   0  0  0  0  0  0  0  0  0  0  0  0
   -1.4646   19.6590  -31.4367 H   0  0  0  0  0  0  0  0  0  0  0  0
    0.7379   18.3159  -28.7865 H   0  0  0  0  0  0  0  0  0  0  0  0
   -0.1083   17.9696  -30.3327 H   0  0  0  0  0  0  0  0  0  0  0  0
    1.3975   18.9490  -30.3327 H   0  0  0  0  0  0  0  0  0  0  0  0
    0.6917   20.5835  -27.8041 H   0  0  0  0  0  0  0  0  0  0  0  0
   -2.6171   26.1058  -26.0974 H   0  0  0  0  0  0  0  0  0  0  0  0
   -1.9528   27.5415  -24.1757 H   0  0  0  0  0  0  0  0  0  0  0  0
  1  2  1  0
  2  3  1  0
  3  4  2  0
  4  5  1  0
  5  6  2  0
  6  7  1  0
  7  8  2  0
  8  9  1  0
  9 10  1  0
 10 11  1  0
 10 12  2  0
  9 13  2  0
 13 14  1  0
 14 15  2  0
 15 16  1  0
 16 17  1  0
 16 18  2  0
 18 19  1  0
 19 20  2  0
  6 21  1  0
 21 22  2  0
 22  3  1  0
 20  7  1  0
 19 13  1  0
  1 23  1  0
  1 24  1  0
  1 25  1  0
  2 26  1  0
  2 27  1  0
  4 28  1  0
  5 29  1  0
  8 30  1  0
 11 31  1  0
 14 32  1  0
 15 33  1  0
 17 34  1  0
 17 35  1  0
 17 36  1  0
 18 37  1  0
 21 38  1  0
 22 39  1  0
M  CHG  2   2   1  11  -1
M  END
>  <UniqueID>  (28) 
28

>  <SMILES>  (28) 
C[NH2+]c1ccc(-c2cc(C([NH-])=O)c3ccc(C)cc3n2)cc1

>  <Energy>  (28) 
54.1615432651761

>  <Genealogy>  (28) 
C[NH2+]c1ccc(-c2cc(C([NH-])=O)c3ccc(C)cc3n2)cc1 (protonated)
C[NH2+]c1ccc(-c2cc(C([NH-])=O)c3ccc(C)cc3n2)cc1 (3D coordinates assigned)
C[NH2+]c1ccc(-c2cc(C([NH-])=O)c3ccc(C)cc3n2)cc1 (optimized conformer: 54.1615432651761 kcal/mol)

>  <smiles>  (28) 
CNc1ccc(-c2cc(C(N)=O)c3ccc(C)cc3n2)cc1

>  <score_type>  (28) 
oracle

>  <origin>  (28) 
adg

>  <m_score__min__energy>  (28) 
-10.380000000000001

>  <m_primary>  (28) 
energy

$$$$
28:0
     RDKit          3D

 48 51  0  0  0  0  0  0  0  0999 V2000
   -6.2560   25.2990  -29.9780 C   0  0  0  0  0  0  0  0  0  0  0  0
   -4.9500   24.5320  -29.7960 C   0  0  0  0  0  0  0  0  0  0  0  0
   -4.4190   24.1580  -31.0540 O   0  0  0  0  0  0  0  0  0  0  0  0
   -4.2870   22.7520  -31.1600 C   0  0  0  0  0  0  0  0  0  0  0  0
   -4.3860   22.3180  -32.6230 C   0  0  0  0  0  0  0  0  0  0  0  0
   -5.4810   21.3570  -32.7940 N   0  0  0  0  0  0  0  0  0  0  0  0
   -6.7860   21.5450  -32.4600 C   0  0  0  0  0  0  0  0  0  0  0  0
   -7.3820   22.6890  -31.9140 C   0  0  0  0  0  0  0  0  0  0  0  0
   -8.7580   22.6470  -31.6260 C   0  0  0  0  0  0  0  0  0  0  0  0
   -9.5100   21.4780  -31.8760 C   0  0  0  0  0  0  0  0  0  0  0  0
   -8.8930   20.3350  -32.4120 C   0  0  0  0  0  0  0  0  0  0  0  0
   -7.5310   20.4060  -32.6930 C   0  0  0  0  0  0  0  0  0  0  0  0
   -6.6460   19.4750  -33.1770 C   0  0  0  0  0  0  0  0  0  0  0  0
   -6.8490   18.1820  -33.5100 N   0  0  0  0  0  0  0  0  0  0  0  0
   -5.7800   17.4320  -33.9250 C   0  0  0  0  0  0  0  0  0  0  0  0
   -4.5120   17.9930  -33.9920 N   0  0  0  0  0  0  0  0  0  0  0  0
   -4.3100   19.3060  -33.6190 C   0  0  0  0  0  0  0  0  0  0  0  0
   -3.1560   19.8090  -33.6230 O   0  0  0  0  0  0  0  0  0  0  0  0
   -5.4130   20.0650  -33.2190 C   0  0  0  0  0  0  0  0  0  0  0  0
   -3.3680   17.1560  -34.4150 C   0  0  0  0  0  0  0  0  0  0  0  0
   -2.9860   16.1090  -33.3510 C   0  0  0  0  0  0  0  0  0  0  0  0
   -3.8040   14.8050  -33.4010 C   0  0  0  0  0  0  0  0  0  0  0  0
   -5.3220   15.0040  -33.2320 C   0  0  0  0  0  0  0  0  0  0  0  0
   -5.9950   15.9650  -34.2410 C   0  0  0  0  0  0  0  0  0  0  0  0
   -6.6766   25.5460  -28.9921 H   0  0  0  0  0  0  0  0  0  0  0  0
   -6.0617   26.2265  -30.5366 H   0  0  0  0  0  0  0  0  0  0  0  0
   -6.9714   24.6776  -30.5366 H   0  0  0  0  0  0  0  0  0  0  0  0
   -4.2243   25.1709  -29.2715 H   0  0  0  0  0  0  0  0  0  0  0  0
   -5.1480   23.6240  -29.2075 H   0  0  0  0  0  0  0  0  0  0  0  0
   -3.3098   22.4479  -30.7567 H   0  0  0  0  0  0  0  0  0  0  0  0
   -5.0961   22.2728  -30.5893 H   0  0  0  0  0  0  0  0  0  0  0  0
   -4.5758   23.2005  -33.2516 H   0  0  0  0  0  0  0  0  0  0  0  0
   -3.4405   21.8410  -32.9204 H   0  0  0  0  0  0  0  0  0  0  0  0
   -6.7904   23.5950  -31.7160 H   0  0  0  0  0  0  0  0  0  0  0  0
   -9.2532   23.5330  -31.2020 H   0  0  0  0  0  0  0  0  0  0  0  0
  -10.5863   21.4622  -31.6495 H   0  0  0  0  0  0  0  0  0  0  0  0
   -9.4662   19.4158  -32.6030 H   0  0  0  0  0  0  0  0  0  0  0  0
   -7.8040   17.7660  -33.4360 H   0  0  0  0  0  0  0  0  0  0  0  0
   -3.6364   16.6337  -35.3452 H   0  0  0  0  0  0  0  0  0  0  0  0
   -2.5021   17.8182  -34.5623 H   0  0  0  0  0  0  0  0  0  0  0  0
   -1.9253   15.8525  -33.4895 H   0  0  0  0  0  0  0  0  0  0  0  0
   -3.1990   16.5694  -32.3749 H   0  0  0  0  0  0  0  0  0  0  0  0
   -3.6256   14.3231  -34.3736 H   0  0  0  0  0  0  0  0  0  0  0  0
   -3.4698   14.1900  -32.5524 H   0  0  0  0  0  0  0  0  0  0  0  0
   -5.8038   14.0201  -33.3311 H   0  0  0  0  0  0  0  0  0  0  0  0
   -5.4525   15.4707  -32.2445 H   0  0  0  0  0  0  0  0  0  0  0  0
   -5.5839   15.7617  -35.2408 H   0  0  0  0  0  0  0  0  0  0  0  0
   -7.0780   15.7806  -34.1858 H   0  0  0  0  0  0  0  0  0  0  0  0
  1  2  1  0
  2  3  1  0
  3  4  1  0
  4  5  1  0
  5  6  1  0
  6  7  1  0
  7  8  2  0
  8  9  1  0
  9 10  2  0
 10 11  1  0
 11 12  2  0
 12 13  1  0
 13 14  1  0
 14 15  2  0
 15 16  1  0
 16 17  1  0
 17 18  2  0
 17 19  1  0
 16 20  1  0
 20 21  1  0
 21 22  1  0
 22 23  1  0
 23 24  1  0
 19  6  1  0
 12  7  1  0
 19 13  2  0
 24 15  1  0
  1 25  1  0
  1 26  1  0
  1 27  1  0
  2 28  1  0
  2 29  1  0
  4 30  1  0
  4 31  1  0
  5 32  1  0
  5 33  1  0
  8 34  1  0
  9 35  1  0
 10 36  1  0
 11 37  1  0
 14 38  1  0
 20 39  1  0
 20 40  1  0
 21 41  1  0
 21 42  1  0
 22 43  1  0
 22 44  1  0
 23 45  1  0
 23 46  1  0
 24 47  1  0
 24 48  1  0
M  CHG  1  14   1
M  END
>  <UniqueID>  (29) 
29

>  <SMILES>  (29) 
CCOCCn1c2ccccc2c2[nH+]c3n(c(=O)c21)CCCCC3

>  <Energy>  (29) 
103.28419785784666

>  <Genealogy>  (29) 
CCOCCn1c2ccccc2c2[nH+]c3n(c(=O)c21)CCCCC3 (protonated)
CCOCCn1c2ccccc2c2[nH+]c3n(c(=O)c21)CCCCC3 (3D coordinates assigned)
CCOCCn1c2ccccc2c2[nH+]c3n(c(=O)c21)CCCCC3 (nonaromatic ring conformer: 103.28419785784666 kcal/mol)

>  <smiles>  (29) 
CCOCCn1c2ccccc2c2nc3n(c(=O)c21)CCCCC3

>  <score_type>  (29) 
oracle

>  <origin>  (29) 
adg

>  <m_score__min__energy>  (29) 
-6.6100000000000003

>  <m_primary>  (29) 
energy

$$$$
29:0
     RDKit          3D

 80 82  0  0  0  0  0  0  0  0999 V2000
   -2.7550   20.7780  -28.3090 C   0  0  0  0  0  0  0  0  0  0  0  0
   -2.9770   21.9890  -29.2080 C   0  0  0  0  0  0  0  0  0  0  0  0
   -2.1340   21.8810  -30.4230 N   0  0  0  0  0  0  0  0  0  0  0  0
   -0.7430   22.3060  -30.1460 C   0  0  0  0  0  0  0  0  0  0  0  0
   -0.7250   23.4940  -29.1870 C   0  0  0  0  0  0  0  0  0  0  0  0
   -2.7160   22.6450  -31.5520 C   0  0  0  0  0  0  0  0  0  0  0  0
   -3.3810   21.6870  -32.5500 C   0  0  0  0  0  0  0  0  0  0  0  0
   -3.6130   20.3660  -31.9380 N   0  0  0  0  0  0  0  0  0  0  0  0
   -4.9990   19.9670  -32.0890 C   0  0  0  0  0  0  0  0  0  0  0  0
   -6.0440   20.8480  -31.6580 C   0  0  0  0  0  0  0  0  0  0  0  0
   -5.7630   22.0890  -31.0270 C   0  0  0  0  0  0  0  0  0  0  0  0
   -6.7820   22.9380  -30.6070 C   0  0  0  0  0  0  0  0  0  0  0  0
   -8.1080   22.5780  -30.7900 C   0  0  0  0  0  0  0  0  0  0  0  0
   -8.4260   21.3660  -31.3960 C   0  0  0  0  0  0  0  0  0  0  0  0
   -7.4140   20.4790  -31.8460 C   0  0  0  0  0  0  0  0  0  0  0  0
   -7.7360   19.2790  -32.4410 N   0  0  0  0  0  0  0  0  0  0  0  0
   -9.1480   18.9160  -32.6910 C   0  0  0  0  0  0  0  0  0  0  0  0
   -6.7320   18.4120  -32.7760 C   0  0  0  0  0  0  0  0  0  0  0  0
   -6.9340   16.8640  -33.4080 S   0  0  0  0  0  0  0  0  0  0  0  0
   -5.3130   16.5020  -33.5100 C   0  0  0  0  0  0  0  0  0  0  0  0
   -4.5560   17.5820  -33.0520 C   0  0  0  0  0  0  0  0  0  0  0  0
   -3.0480   17.4400  -33.1020 C   0  0  0  0  0  0  0  0  0  0  0  0
   -2.4170   18.2870  -34.2180 C   0  0  0  0  0  0  0  0  0  0  0  0
   -1.7330   19.4570  -33.6500 N   0  0  0  0  0  0  0  0  0  0  0  0
   -1.2080   20.3180  -34.7170 C   0  0  0  0  0  0  0  0  0  0  0  0
   -0.4390   21.5160  -34.1340 C   0  0  0  0  0  0  0  0  0  0  0  0
    1.0850   21.3080  -34.0600 C   0  0  0  0  0  0  0  0  0  0  0  0
    1.4990   19.8670  -33.7290 C   0  0  0  0  0  0  0  0  0  0  0  0
    0.7340   19.3580  -32.5820 N   0  0  0  0  0  0  0  0  0  0  0  0
    1.5620   19.2950  -31.3680 C   0  0  0  0  0  0  0  0  0  0  0  0
    0.8450   18.4910  -30.2750 C   0  0  0  0  0  0  0  0  0  0  0  0
   -0.4950   19.1270  -29.8830 C   0  0  0  0  0  0  0  0  0  0  0  0
   -1.3470   19.3130  -31.0560 N   0  0  0  0  0  0  0  0  0  0  0  0
   -5.3690   18.6960  -32.6240 C   0  0  0  0  0  0  0  0  0  0  0  0
   -2.8119   21.0883  -27.2552 H   0  0  0  0  0  0  0  0  0  0  0  0
   -3.5299   20.0240  -28.5116 H   0  0  0  0  0  0  0  0  0  0  0  0
   -1.7630   20.3479  -28.5116 H   0  0  0  0  0  0  0  0  0  0  0  0
   -4.0359   22.0347  -29.5024 H   0  0  0  0  0  0  0  0  0  0  0  0
   -2.7024   22.9014  -28.6584 H   0  0  0  0  0  0  0  0  0  0  0  0
   -0.1922   21.4680  -29.6939 H   0  0  0  0  0  0  0  0  0  0  0  0
   -0.2690   22.6066  -31.0920 H   0  0  0  0  0  0  0  0  0  0  0  0
   -0.7305   23.1280  -28.1497 H   0  0  0  0  0  0  0  0  0  0  0  0
    0.1823   24.0913  -29.3602 H   0  0  0  0  0  0  0  0  0  0  0  0
   -1.6138   24.1185  -29.3602 H   0  0  0  0  0  0  0  0  0  0  0  0
   -3.4687   23.3481  -31.1658 H   0  0  0  0  0  0  0  0  0  0  0  0
   -1.9145   23.1983  -32.0634 H   0  0  0  0  0  0  0  0  0  0  0  0
   -4.3450   22.1107  -32.8680 H   0  0  0  0  0  0  0  0  0  0  0  0
   -2.7124   21.5609  -33.4143 H   0  0  0  0  0  0  0  0  0  0  0  0
   -3.3180   20.3560  -30.9460 H   0  0  0  0  0  0  0  0  0  0  0  0
   -2.9810   19.6530  -32.3640 H   0  0  0  0  0  0  0  0  0  0  0  0
   -4.7159   22.3856  -30.8667 H   0  0  0  0  0  0  0  0  0  0  0  0
   -6.5348   23.8972  -30.1286 H   0  0  0  0  0  0  0  0  0  0  0  0
   -8.9107   23.2516  -30.4556 H   0  0  0  0  0  0  0  0  0  0  0  0
   -9.4826   21.0904  -31.5287 H   0  0  0  0  0  0  0  0  0  0  0  0
   -9.6678   18.7824  -31.7308 H   0  0  0  0  0  0  0  0  0  0  0  0
   -9.6368   19.7177  -33.2641 H   0  0  0  0  0  0  0  0  0  0  0  0
   -9.1895   17.9780  -33.2641 H   0  0  0  0  0  0  0  0  0  0  0  0
   -4.8995   15.5532  -33.8827 H   0  0  0  0  0  0  0  0  0  0  0  0
   -2.6307   17.7608  -32.1361 H   0  0  0  0  0  0  0  0  0  0  0  0
   -2.8170   16.3849  -33.3102 H   0  0  0  0  0  0  0  0  0  0  0  0
   -1.6890   17.6744  -34.7701 H   0  0  0  0  0  0  0  0  0  0  0  0
   -3.2116   18.6329  -34.8954 H   0  0  0  0  0  0  0  0  0  0  0  0
   -0.9190   19.1090  -33.0900 H   0  0  0  0  0  0  0  0  0  0  0  0
   -0.5290   19.7298  -35.3519 H   0  0  0  0  0  0  0  0  0  0  0  0
   -2.0548   20.6997  -35.3063 H   0  0  0  0  0  0  0  0  0  0  0  0
   -0.6376   22.3946  -34.7654 H   0  0  0  0  0  0  0  0  0  0  0  0
   -0.7921   21.6475  -33.1005 H   0  0  0  0  0  0  0  0  0  0  0  0
    1.5195   21.5786  -35.0336 H   0  0  0  0  0  0  0  0  0  0  0  0
    1.4555   21.9434  -33.2421 H   0  0  0  0  0  0  0  0  0  0  0  0
    1.3087   19.2267  -34.6029 H   0  0  0  0  0  0  0  0  0  0  0  0
    2.5690   19.8558  -33.4739 H   0  0  0  0  0  0  0  0  0  0  0  0
   -0.0460   20.0340  -32.4010 H   0  0  0  0  0  0  0  0  0  0  0  0
    2.5195   18.8091  -31.6067 H   0  0  0  0  0  0  0  0  0  0  0  0
    1.7389   20.3172  -31.0022 H   0  0  0  0  0  0  0  0  0  0  0  0
    0.6600   17.4723  -30.6464 H   0  0  0  0  0  0  0  0  0  0  0  0
    1.4895   18.4772  -29.3837 H   0  0  0  0  0  0  0  0  0  0  0  0
   -1.0088   18.4708  -29.1651 H   0  0  0  0  0  0  0  0  0  0  0  0
   -0.2985   20.1108  -29.4318 H   0  0  0  0  0  0  0  0  0  0  0  0
   -1.0910   20.2240  -31.5050 H   0  0  0  0  0  0  0  0  0  0  0  0
   -1.1100   18.5600  -31.7440 H   0  0  0  0  0  0  0  0  0  0  0  0
  1  2  1  0
  2  3  1  0
  3  4  1  0
  4  5  1  0
  3  6  1  0
  6  7  1  0
  7  8  1  0
  8  9  1  0
  9 10  2  0
 10 11  1  0
 11 12  2  0
 12 13  1  0
 13 14  2  0
 14 15  1  0
 15 16  2  0
 16 17  1  0
 16 18  1  0
 18 19  1  0
 19 20  1  0
 20 21  2  0
 21 22  1  0
 22 23  1  0
 23 24  1  0
 24 25  1  0
 25 26  1  0
 26 27  1  0
 27 28  1  0
 28 29  1  0
 29 30  1  0
 30 31  1  0
 31 32  1  0
 32 33  1  0
 21 34  1  0
 34  9  1  0
 15 10  1  0
 34 18  2  0
  1 35  1  0
  1 36  1  0
  1 37  1  0
  2 38  1  0
  2 39  1  0
  4 40  1  0
  4 41  1  0
  5 42  1  0
  5 43  1  0
  5 44  1  0
  6 45  1  0
  6 46  1  0
  7 47  1  0
  7 48  1  0
  8 49  1  0
  8 50  1  0
 11 51  1  0
 12 52  1  0
 13 53  1  0
 14 54  1  0
 17 55  1  0
 17 56  1  0
 17 57  1  0
 20 58  1  0
 22 59  1  0
 22 60  1  0
 23 61  1  0
 23 62  1  0
 24 63  1  0
 25 64  1  0
 25 65  1  0
 26 66  1  0
 26 67  1  0
 27 68  1  0
 27 69  1  0
 28 70  1  0
 28 71  1  0
 29 72  1  0
 30 73  1  0
 30 74  1  0
 31 75  1  0
 31 76  1  0
 32 77  1  0
 32 78  1  0
 33 79  1  0
 33 80  1  0
M  CHG  2   8   1  16   1
M  END
>  <UniqueID>  (30) 
30

>  <SMILES>  (30) 
CCN(CC)CC[NH2+]c1c2ccccc2[n+](C)c2scc(CCNCCCCNCCCN)c12

>  <Energy>  (30) 
118.31731620706336

>  <Genealogy>  (30) 
CCN(CC)CC[NH2+]c1c2ccccc2[n+](C)c2scc(CCNCCCCNCCCN)c12 (protonated)
CCN(CC)CC[NH2+]c1c2ccccc2[n+](C)c2scc(CCNCCCCNCCCN)c12 (3D coordinates assigned)
CCN(CC)CC[NH2+]c1c2ccccc2[n+](C)c2scc(CCNCCCCNCCCN)c12 (optimized conformer: 118.31731620706336 kcal/mol)

>  <smiles>  (30) 
CCN(CC)CCNc1c2ccccc2[n+](C)c2scc(CCNCCCCNCCCN)c12

>  <score_type>  (30) 
oracle

>  <origin>  (30) 
adg

>  <m_score__min__energy>  (30) 
-8.9299999999999997

>  <m_primary>  (30) 
energy

$$$$
30:0
     RDKit          3D

 40 41  0  0  0  0  0  0  0  0999 V2000
   -8.8050   20.9610  -31.6740 C   0  0  0  0  0  0  0  0  0  0  0  0
   -7.8640   22.0890  -31.3720 C   0  0  0  0  0  0  0  0  0  0  0  0
   -7.6970   22.5360  -30.0530 C   0  0  0  0  0  0  0  0  0  0  0  0
   -6.8090   23.5780  -29.7710 C   0  0  0  0  0  0  0  0  0  0  0  0
   -6.0850   24.1930  -30.8040 C   0  0  0  0  0  0  0  0  0  0  0  0
   -5.1850   25.3660  -30.5080 C   0  0  0  0  0  0  0  0  0  0  0  0
   -3.8290   24.9180  -30.1440 N   0  0  0  0  0  0  0  0  0  0  0  0
   -3.7210   23.4540  -30.0330 C   0  0  0  0  0  0  0  0  0  0  0  0
   -2.3190   23.0450  -29.6720 C   0  0  0  0  0  0  0  0  0  0  0  0
   -1.6310   21.9300  -30.1280 C   0  0  0  0  0  0  0  0  0  0  0  0
   -2.1300   20.9120  -31.1000 C   0  0  0  0  0  0  0  0  0  0  0  0
   -0.4310   21.8550  -29.5180 N   0  0  0  0  0  0  0  0  0  0  0  0
   -0.3270   22.8980  -28.7080 N   0  0  0  0  0  0  0  0  0  0  0  0
    0.8310   23.1320  -27.8530 C   0  0  0  0  0  0  0  0  0  0  0  0
   -1.4550   23.6390  -28.7660 C   0  0  0  0  0  0  0  0  0  0  0  0
   -1.6760   24.9340  -28.0300 C   0  0  0  0  0  0  0  0  0  0  0  0
   -1.6340   26.0080  -28.9280 O   0  0  0  0  0  0  0  0  0  0  0  0
   -6.2070   23.7010  -32.1140 C   0  0  0  0  0  0  0  0  0  0  0  0
   -7.0940   22.6600  -32.3960 C   0  0  0  0  0  0  0  0  0  0  0  0
   -9.1689   20.5248  -30.7320 H   0  0  0  0  0  0  0  0  0  0  0  0
   -9.6579   21.3407  -32.2558 H   0  0  0  0  0  0  0  0  0  0  0  0
   -8.2785   20.1901  -32.2558 H   0  0  0  0  0  0  0  0  0  0  0  0
   -8.2665   22.0652  -29.2382 H   0  0  0  0  0  0  0  0  0  0  0  0
   -6.6769   23.9180  -28.7332 H   0  0  0  0  0  0  0  0  0  0  0  0
   -5.1241   26.0059  -31.4007 H   0  0  0  0  0  0  0  0  0  0  0  0
   -5.6073   25.9240  -29.6593 H   0  0  0  0  0  0  0  0  0  0  0  0
   -3.6160   25.3150  -29.1990 H   0  0  0  0  0  0  0  0  0  0  0  0
   -4.4115   23.1000  -29.2533 H   0  0  0  0  0  0  0  0  0  0  0  0
   -3.9780   23.0079  -31.0051 H   0  0  0  0  0  0  0  0  0  0  0  0
   -2.5496   20.0559  -30.5513 H   0  0  0  0  0  0  0  0  0  0  0  0
   -2.9104   21.3604  -31.7323 H   0  0  0  0  0  0  0  0  0  0  0  0
   -1.2975   20.5698  -31.7323 H   0  0  0  0  0  0  0  0  0  0  0  0
    0.5262   23.0704  -26.7979 H   0  0  0  0  0  0  0  0  0  0  0  0
    1.5980   22.3707  -28.0581 H   0  0  0  0  0  0  0  0  0  0  0  0
    1.2423   24.1314  -28.0581 H   0  0  0  0  0  0  0  0  0  0  0  0
   -2.6589   24.9096  -27.5368 H   0  0  0  0  0  0  0  0  0  0  0  0
   -0.8842   25.0614  -27.2771 H   0  0  0  0  0  0  0  0  0  0  0  0
   -2.0090   25.6760  -29.7860 H   0  0  0  0  0  0  0  0  0  0  0  0
   -5.6010   24.1378  -32.9215 H   0  0  0  0  0  0  0  0  0  0  0  0
   -7.1893   22.2860  -33.4261 H   0  0  0  0  0  0  0  0  0  0  0  0
  1  2  1  0
  2  3  2  0
  3  4  1  0
  4  5  2  0
  5  6  1  0
  6  7  1  0
  7  8  1  0
  8  9  1  0
  9 10  1  0
 10 11  1  0
 10 12  2  0
 12 13  1  0
 13 14  1  0
 13 15  1  0
 15 16  1  0
 16 17  1  0
  5 18  1  0
 18 19  2  0
 19  2  1  0
 15  9  2  0
  1 20  1  0
  1 21  1  0
  1 22  1  0
  3 23  1  0
  4 24  1  0
  6 25  1  0
  6 26  1  0
  7 27  1  0
  8 28  1  0
  8 29  1  0
 11 30  1  0
 11 31  1  0
 11 32  1  0
 14 33  1  0
 14 34  1  0
 14 35  1  0
 16 36  1  0
 16 37  1  0
 17 38  1  0
 18 39  1  0
 19 40  1  0
M  END
>  <UniqueID>  (31) 
31

>  <SMILES>  (31) 
Cc1ccc(CNCc2c(C)nn(C)c2CO)cc1

>  <Energy>  (31) 
61.83891371938183

>  <Genealogy>  (31) 
Cc1ccc(CNCc2c(C)nn(C)c2CO)cc1 (3D coordinates assigned)
Cc1ccc(CNCc2c(C)nn(C)c2CO)cc1 (optimized conformer: 61.83891371938183 kcal/mol)

>  <smiles>  (31) 
Cc1ccc(CNCc2c(C)nn(C)c2CO)cc1

>  <score_type>  (31) 
oracle

>  <origin>  (31) 
adg

>  <m_score__min__energy>  (31) 
-7.4500000000000002

>  <m_primary>  (31) 
energy

$$$$
