0:0
     RDKit          3D

 44 46  0  0  0  0  0  0  0  0999 V2000
   -8.5140   19.3010  -32.2200 C   0  0  0  0  0  0  0  0  0  0  0  0
   -7.9280   20.4060  -32.9010 O   0  0  0  0  0  0  0  0  0  0  0  0
   -7.2350   21.4480  -32.2690 C   0  0  0  0  0  0  0  0  0  0  0  0
   -5.8400   21.6040  -32.3790 C   0  0  0  0  0  0  0  0  0  0  0  0
   -5.1950   22.6620  -31.7300 C   0  0  0  0  0  0  0  0  0  0  0  0
   -5.9310   23.5760  -30.9660 C   0  0  0  0  0  0  0  0  0  0  0  0
   -5.1000   24.8920  -30.1410 S   0  0  0  0  0  0  0  0  0  0  0  0
   -4.2480   25.6230  -31.1410 O   0  0  0  0  0  0  0  0  0  0  0  0
   -6.1020   25.8570  -29.5690 O   0  0  0  0  0  0  0  0  0  0  0  0
   -4.0990   24.2490  -28.8600 N   0  0  0  0  0  0  0  0  0  0  0  0
   -2.7090   24.0160  -29.3400 C   0  0  0  0  0  0  0  0  0  0  0  0
   -2.3840   22.5340  -29.5700 C   0  0  0  0  0  0  0  0  0  0  0  0
   -2.6630   21.7640  -28.3510 N   0  0  0  0  0  0  0  0  0  0  0  0
   -1.9050   20.5740  -28.0370 C   0  0  0  0  0  0  0  0  0  0  0  0
   -2.3470   19.6890  -27.0340 C   0  0  0  0  0  0  0  0  0  0  0  0
   -1.6130   18.5370  -26.7320 C   0  0  0  0  0  0  0  0  0  0  0  0
   -0.4340   18.2540  -27.4260 C   0  0  0  0  0  0  0  0  0  0  0  0
    0.0120   19.1220  -28.4250 C   0  0  0  0  0  0  0  0  0  0  0  0
   -0.7170   20.2750  -28.7310 C   0  0  0  0  0  0  0  0  0  0  0  0
   -3.7710   22.1900  -27.4850 C   0  0  0  0  0  0  0  0  0  0  0  0
   -4.7570   23.0570  -28.2740 C   0  0  0  0  0  0  0  0  0  0  0  0
   -7.3190   23.4210  -30.8530 C   0  0  0  0  0  0  0  0  0  0  0  0
   -7.9650   22.3650  -31.5020 C   0  0  0  0  0  0  0  0  0  0  0  0
   -8.4325   19.4546  -31.1338 H   0  0  0  0  0  0  0  0  0  0  0  0
   -9.5745   19.2182  -32.5001 H   0  0  0  0  0  0  0  0  0  0  0  0
   -7.9876   18.3766  -32.5001 H   0  0  0  0  0  0  0  0  0  0  0  0
   -5.2548   20.8907  -32.9780 H   0  0  0  0  0  0  0  0  0  0  0  0
   -4.1047   22.7765  -31.8202 H   0  0  0  0  0  0  0  0  0  0  0  0
   -4.0620   24.9870  -28.1170 H   0  0  0  0  0  0  0  0  0  0  0  0
   -2.5733   24.5542  -30.2897 H   0  0  0  0  0  0  0  0  0  0  0  0
   -2.0293   24.3795  -28.5552 H   0  0  0  0  0  0  0  0  0  0  0  0
   -3.0028   22.1489  -30.3939 H   0  0  0  0  0  0  0  0  0  0  0  0
   -1.3188   22.4331  -29.8251 H   0  0  0  0  0  0  0  0  0  0  0  0
   -3.2752   19.9052  -26.4848 H   0  0  0  0  0  0  0  0  0  0  0  0
   -1.9650   17.8524  -25.9462 H   0  0  0  0  0  0  0  0  0  0  0  0
    0.1424   17.3484  -27.1858 H   0  0  0  0  0  0  0  0  0  0  0  0
    0.9393   18.8979  -28.9725 H   0  0  0  0  0  0  0  0  0  0  0  0
   -0.3599   20.9535  -29.5197 H   0  0  0  0  0  0  0  0  0  0  0  0
   -4.2945   21.3018  -27.1017 H   0  0  0  0  0  0  0  0  0  0  0  0
   -3.3663   22.7782  -26.6482 H   0  0  0  0  0  0  0  0  0  0  0  0
   -5.1895   22.4543  -29.0862 H   0  0  0  0  0  0  0  0  0  0  0  0
   -5.5363   23.4046  -27.5798 H   0  0  0  0  0  0  0  0  0  0  0  0
   -7.9026   24.1332  -30.2511 H   0  0  0  0  0  0  0  0  0  0  0  0
   -9.0554   22.2532  -31.4097 H   0  0  0  0  0  0  0  0  0  0  0  0
  1  2  1  0
  2  3  1  0
  3  4  2  0
  4  5  1  0
  5  6  2  0
  6  7  1  0
  7  8  2  0
  7  9  2  0
  7 10  1  0
 10 11  1  0
 11 12  1  0
 12 13  1  0
 13 14  1  0
 14 15  2  0
 15 16  1  0
 16 17  2  0
 17 18  1  0
 18 19  2  0
 13 20  1  0
 20 21  1  0
  6 22  1  0
 22 23  2  0
 23  3  1  0
 21 10  1  0
 19 14  1  0
  1 24  1  0
  1 25  1  0
  1 26  1  0
  4 27  1  0
  5 28  1  0
 10 29  1  0
 11 30  1  0
 11 31  1  0
 12 32  1  0
 12 33  1  0
 15 34  1  0
 16 35  1  0
 17 36  1  0
 18 37  1  0
 19 38  1  0
 20 39  1  0
 20 40  1  0
 21 41  1  0
 21 42  1  0
 22 43  1  0
 23 44  1  0
M  CHG  1  10   1
M  END
>  <UniqueID>  (1) 
1

>  <SMILES>  (1) 
COc1ccc(S(=O)(=O)[NH+]2CCN(c3ccccc3)CC2)cc1

>  <Energy>  (1) 
53.075706291386304

>  <Genealogy>  (1) 
COc1ccc(S(=O)(=O)[NH+]2CCN(c3ccccc3)CC2)cc1 (protonated)
COc1ccc(S(=O)(=O)[NH+]2CCN(c3ccccc3)CC2)cc1 (3D coordinates assigned)
COc1ccc(S(=O)(=O)[NH+]2CCN(c3ccccc3)CC2)cc1 (nonaromatic ring conformer: 53.075706291386304 kcal/mol)

>  <smiles>  (1) 
COc1ccc(S(=O)(=O)N2CCN(c3ccccc3)CC2)cc1

>  <score_type>  (1) 
oracle

>  <origin>  (1) 
adg

>  <m_score__min__energy>  (1) 
-8.0600000000000005

>  <m_primary>  (1) 
energy

$$$$
1:0
     RDKit          3D

 35 37  0  0  0  0  0  0  0  0999 V2000
   -2.5350   20.3970  -27.4960 C   0  0  0  0  0  0  0  0  0  0  0  0
   -1.8610   21.0930  -28.5400 O   0  0  0  0  0  0  0  0  0  0  0  0
   -1.7750   22.4910  -28.6450 C   0  0  0  0  0  0  0  0  0  0  0  0
   -0.7970   23.2230  -27.9400 C   0  0  0  0  0  0  0  0  0  0  0  0
   -0.7430   24.6110  -28.0410 C   0  0  0  0  0  0  0  0  0  0  0  0
   -1.6510   25.2910  -28.8490 C   0  0  0  0  0  0  0  0  0  0  0  0
   -2.6230   24.5870  -29.5650 C   0  0  0  0  0  0  0  0  0  0  0  0
   -3.4850   25.2960  -30.3950 O   0  0  0  0  0  0  0  0  0  0  0  0
   -2.7020   23.1790  -29.4630 C   0  0  0  0  0  0  0  0  0  0  0  0
   -3.7330   22.4230  -30.2140 C   0  0  0  0  0  0  0  0  0  0  0  0
   -5.1090   22.5570  -30.0870 C   0  0  0  0  0  0  0  0  0  0  0  0
   -5.6790   21.6760  -30.9300 N   0  0  0  0  0  0  0  0  0  0  0  0
   -6.9920   21.4060  -31.1880 C   0  0  0  0  0  0  0  0  0  0  0  0
   -8.0910   22.1620  -30.4830 C   0  0  0  0  0  0  0  0  0  0  0  0
   -7.2840   20.4440  -32.1890 C   0  0  0  0  0  0  0  0  0  0  0  0
   -9.1070   20.0710  -32.6980 Br  0  0  0  0  0  0  0  0  0  0  0  0
   -6.2160   19.7650  -32.8370 C   0  0  0  0  0  0  0  0  0  0  0  0
   -6.4870   18.7310  -33.8940 C   0  0  0  0  0  0  0  0  0  0  0  0
   -4.8850   20.0720  -32.4990 C   0  0  0  0  0  0  0  0  0  0  0  0
   -4.6580   21.0460  -31.5380 C   0  0  0  0  0  0  0  0  0  0  0  0
   -3.4450   21.4660  -31.1270 N   0  0  0  0  0  0  0  0  0  0  0  0
   -2.1797   20.7639  -26.5218 H   0  0  0  0  0  0  0  0  0  0  0  0
   -3.6181   20.5696  -27.5800 H   0  0  0  0  0  0  0  0  0  0  0  0
   -2.3277   19.3200  -27.5800 H   0  0  0  0  0  0  0  0  0  0  0  0
   -0.0712   22.6934  -27.3054 H   0  0  0  0  0  0  0  0  0  0  0  0
    0.0194   25.1721  -27.4807 H   0  0  0  0  0  0  0  0  0  0  0  0
   -1.6028   26.3874  -28.9240 H   0  0  0  0  0  0  0  0  0  0  0  0
   -5.6364   23.2549  -29.4201 H   0  0  0  0  0  0  0  0  0  0  0  0
   -7.9588   22.0711  -29.3948 H   0  0  0  0  0  0  0  0  0  0  0  0
   -8.0487   23.2230  -30.7701 H   0  0  0  0  0  0  0  0  0  0  0  0
   -9.0667   21.7431  -30.7701 H   0  0  0  0  0  0  0  0  0  0  0  0
   -6.7380   17.7734  -33.4144 H   0  0  0  0  0  0  0  0  0  0  0  0
   -7.3295   19.0592  -34.5205 H   0  0  0  0  0  0  0  0  0  0  0  0
   -5.5919   18.6038  -34.5205 H   0  0  0  0  0  0  0  0  0  0  0  0
   -4.0457   19.5526  -32.9847 H   0  0  0  0  0  0  0  0  0  0  0  0
  1  2  1  0
  2  3  1  0
  3  4  2  0
  4  5  1  0
  5  6  2  0
  6  7  1  0
  7  8  1  0
  7  9  2  0
  9 10  1  0
 10 11  2  0
 11 12  1  0
 12 13  1  0
 13 14  1  0
 13 15  2  0
 15 16  1  0
 15 17  1  0
 17 18  1  0
 17 19  2  0
 19 20  1  0
 20 21  2  0
  9  3  1  0
 21 10  1  0
 20 12  1  0
  1 22  1  0
  1 23  1  0
  1 24  1  0
  4 25  1  0
  5 26  1  0
  6 27  1  0
 11 28  1  0
 14 29  1  0
 14 30  1  0
 14 31  1  0
 18 32  1  0
 18 33  1  0
 18 34  1  0
 19 35  1  0
M  CHG  1   8  -1
M  END
>  <UniqueID>  (2) 
2

>  <SMILES>  (2) 
COc1cccc([O-])c1-c1cn2c(C)c(Br)c(C)cc2n1

>  <Energy>  (2) 
79.24306059294206

>  <Genealogy>  (2) 
COc1cccc([O-])c1-c1cn2c(C)c(Br)c(C)cc2n1 (protonated)
COc1cccc([O-])c1-c1cn2c(C)c(Br)c(C)cc2n1 (3D coordinates assigned)
COc1cccc([O-])c1-c1cn2c(C)c(Br)c(C)cc2n1 (optimized conformer: 79.24306059294206 kcal/mol)

>  <smiles>  (2) 
COc1cccc(O)c1-c1cn2c(C)c(Br)c(C)cc2n1

>  <score_type>  (2) 
oracle

>  <origin>  (2) 
adg

>  <m_score__min__energy>  (2) 
-10.02

>  <m_primary>  (2) 
energy

$$$$
2:0
     RDKit          3D

 47 49  0  0  1  0  0  0  0  0999 V2000
   -5.6000   20.4580  -33.4090 C   0  0  0  0  0  0  0  0  0  0  0  0
   -4.5880   21.1530  -32.6420 N   0  0  0  0  0  0  0  0  0  0  0  0
   -4.4870   20.4850  -31.3400 C   0  0  0  0  0  0  0  0  0  0  0  0
   -3.3050   21.1150  -33.3150 C   0  0  0  0  0  0  0  0  0  0  0  0
   -2.3430   20.3250  -32.4530 C   0  0  0  0  0  0  0  0  0  0  0  0
   -1.2850   21.2920  -31.9580 C   0  0  0  0  0  0  0  0  0  0  0  0
   -4.8630   24.5650  -31.1780 N   0  0  0  0  0  0  0  0  0  0  0  0
   -3.8600   24.1540  -30.4780 C   0  0  0  0  0  0  0  0  0  0  0  0
   -3.0680   23.1630  -30.9060 N   0  0  0  0  0  0  0  0  0  0  0  0
   -2.0040   22.7040  -30.1930 C   0  0  0  0  0  0  0  0  0  0  0  0
   -1.3580   21.7590  -30.6600 N   0  0  0  0  0  0  0  0  0  0  0  0
   -6.0640   23.8040  -31.2260 C   0  0  0  0  0  0  0  0  0  0  0  0
   -6.4600   23.0890  -30.0950 C   0  0  0  0  0  0  0  0  0  0  0  0
   -7.6140   22.3420  -30.1180 C   0  0  0  0  0  0  0  0  0  0  0  0
   -8.4380   22.2470  -31.2230 C   0  0  0  0  0  0  0  0  0  0  0  0
   -9.5700   21.5070  -31.2220 F   0  0  0  0  0  0  0  0  0  0  0  0
   -8.0230   22.9690  -32.3430 C   0  0  0  0  0  0  0  0  0  0  0  0
   -6.8690   23.7250  -32.3430 C   0  0  0  0  0  0  0  0  0  0  0  0
   -3.6230   24.7420  -29.2980 N   0  0  0  0  0  0  0  0  0  0  0  0
   -2.5690   24.2970  -28.5830 C   0  0  0  0  0  0  0  0  0  0  0  0
   -2.3520   24.9320  -27.3780 C   0  0  0  0  0  0  0  0  0  0  0  0
   -1.2720   24.4860  -26.6490 C   0  0  0  0  0  0  0  0  0  0  0  0
   -0.4300   23.4910  -27.0280 C   0  0  0  0  0  0  0  0  0  0  0  0
   -0.6690   22.8520  -28.2660 C   0  0  0  0  0  0  0  0  0  0  0  0
   -1.7340   23.2870  -28.9870 C   0  0  0  0  0  0  0  0  0  0  0  0
   -6.3093   19.9709  -32.7237 H   0  0  0  0  0  0  0  0  0  0  0  0
   -6.1383   21.1779  -34.0431 H   0  0  0  0  0  0  0  0  0  0  0  0
   -5.1214   19.6971  -34.0431 H   0  0  0  0  0  0  0  0  0  0  0  0
   -4.5994   21.2282  -30.5369 H   0  0  0  0  0  0  0  0  0  0  0  0
   -5.2810   19.7286  -31.2534 H   0  0  0  0  0  0  0  0  0  0  0  0
   -3.5049   19.9972  -31.2534 H   0  0  0  0  0  0  0  0  0  0  0  0
   -3.4129   20.6280  -34.2954 H   0  0  0  0  0  0  0  0  0  0  0  0
   -2.9263   22.1361  -33.4700 H   0  0  0  0  0  0  0  0  0  0  0  0
   -2.8780   19.8828  -31.5996 H   0  0  0  0  0  0  0  0  0  0  0  0
   -1.8851   19.5070  -33.0285 H   0  0  0  0  0  0  0  0  0  0  0  0
   -0.3129   20.7884  -32.0650 H   0  0  0  0  0  0  0  0  0  0  0  0
   -1.4431   22.1917  -32.5708 H   0  0  0  0  0  0  0  0  0  0  0  0
   -3.3030   22.7460  -31.8350 H   0  0  0  0  0  0  0  0  0  0  0  0
   -5.8470   23.1231  -29.1823 H   0  0  0  0  0  0  0  0  0  0  0  0
   -7.8961   21.7909  -29.2088 H   0  0  0  0  0  0  0  0  0  0  0  0
   -8.6361   22.9341  -33.2556 H   0  0  0  0  0  0  0  0  0  0  0  0
   -6.5853   24.2757  -33.2520 H   0  0  0  0  0  0  0  0  0  0  0  0
   -4.2410   25.5230  -28.9530 H   0  0  0  0  0  0  0  0  0  0  0  0
   -3.0017   25.7448  -27.0211 H   0  0  0  0  0  0  0  0  0  0  0  0
   -1.0762   24.9748  -25.6832 H   0  0  0  0  0  0  0  0  0  0  0  0
    0.4142   23.1905  -26.3900 H   0  0  0  0  0  0  0  0  0  0  0  0
   -0.0219   22.0397  -28.6285 H   0  0  0  0  0  0  0  0  0  0  0  0
  1  2  1  0
  2  3  1  0
  2  4  1  0
  4  5  1  0
  5  6  1  0
  6  7  1  0
  7  8  2  0
  8  9  1  0
  9 10  1  0
 10 11  2  0
 11 12  1  0
 12 13  2  0
 13 14  1  0
 14 15  2  0
 15 16  1  0
 15 17  1  0
 17 18  2  0
 10 19  1  0
 19 20  1  0
 20 21  2  0
 21 22  1  0
 22 23  2  0
 23 24  1  0
 24 25  2  0
 25  8  1  0
 18 12  1  0
 25 20  1  0
  1 26  1  0
  1 27  1  0
  1 28  1  0
  3 29  1  0
  3 30  1  0
  3 31  1  0
  4 32  1  0
  4 33  1  0
  5 34  1  0
  5 35  1  0
  6 36  1  0
  6 37  1  0
  9 38  1  0
 13 39  1  0
 14 40  1  0
 17 41  1  0
 18 42  1  0
 19 43  1  0
 21 44  1  0
 22 45  1  0
 23 46  1  0
 24 47  1  0
M  END
>  <smiles>  (3) 
CN(C)CCCN=c1[nH]c(=Nc2ccc(F)cc2)[nH]c2ccccc12

>  <score_type>  (3) 
oracle

>  <origin>  (3) 
adg

>  <m_score__min__energy>  (3) 
-7.79

>  <m_primary>  (3) 
energy

$$$$
3:0
     RDKit          3D

 52 55  0  0  0  0  0  0  0  0999 V2000
   -3.4410   25.3660  -28.7810 H   0  0  0  0  0  0  0  0  0  0  0  0
   -3.6790   25.2820  -29.7640 O   0  0  0  0  0  0  0  0  0  0  0  0
   -4.5730   24.3330  -30.2150 N   0  0  0  0  0  0  0  0  0  0  0  0
   -5.7730   24.7380  -30.7320 C   0  0  0  0  0  0  0  0  0  0  0  0
   -6.0407   25.8048  -30.7160 H   0  0  0  0  0  0  0  0  0  0  0  0
   -6.6600   23.8120  -31.2790 C   0  0  0  0  0  0  0  0  0  0  0  0
   -7.6335   24.1413  -31.6711 H   0  0  0  0  0  0  0  0  0  0  0  0
   -6.3030   22.4650  -31.3250 C   0  0  0  0  0  0  0  0  0  0  0  0
   -7.1990   21.4960  -31.9800 C   0  0  0  0  0  0  0  0  0  0  0  0
   -8.1854   21.3156  -31.5279 H   0  0  0  0  0  0  0  0  0  0  0  0
   -6.8820   20.8190  -33.0980 C   0  0  0  0  0  0  0  0  0  0  0  0
   -7.5891   20.8652  -33.9394 H   0  0  0  0  0  0  0  0  0  0  0  0
   -5.6420   20.0100  -33.2810 C   0  0  0  0  0  0  0  0  0  0  0  0
   -4.3980   20.6580  -33.3930 C   0  0  0  0  0  0  0  0  0  0  0  0
   -4.3397   21.7519  -33.2934 H   0  0  0  0  0  0  0  0  0  0  0  0
   -3.2370   19.9190  -33.6300 C   0  0  0  0  0  0  0  0  0  0  0  0
   -2.2631   20.4278  -33.6804 H   0  0  0  0  0  0  0  0  0  0  0  0
   -3.3080   18.5760  -33.7980 N   0  0  0  0  0  0  0  0  0  0  0  0
   -4.4870   17.9070  -33.7320 C   0  0  0  0  0  0  0  0  0  0  0  0
   -4.5090   16.5260  -33.9480 C   0  0  0  0  0  0  0  0  0  0  0  0
   -3.5733   15.9921  -34.1703 H   0  0  0  0  0  0  0  0  0  0  0  0
   -5.7150   15.8190  -33.8830 C   0  0  0  0  0  0  0  0  0  0  0  0
   -5.7360   14.0880  -34.1720 Cl  0  0  0  0  0  0  0  0  0  0  0  0
   -6.8980   16.4840  -33.5730 C   0  0  0  0  0  0  0  0  0  0  0  0
   -7.8409   15.9217  -33.5039 H   0  0  0  0  0  0  0  0  0  0  0  0
   -6.8920   17.8650  -33.3490 C   0  0  0  0  0  0  0  0  0  0  0  0
   -7.8295   18.3802  -33.0929 H   0  0  0  0  0  0  0  0  0  0  0  0
   -5.6920   18.6030  -33.4490 C   0  0  0  0  0  0  0  0  0  0  0  0
   -5.0910   22.0570  -30.7620 C   0  0  0  0  0  0  0  0  0  0  0  0
   -4.8151   20.9922  -30.7623 H   0  0  0  0  0  0  0  0  0  0  0  0
   -4.2240   23.0080  -30.1950 C   0  0  0  0  0  0  0  0  0  0  0  0
   -2.9700   22.5820  -29.6200 N   0  0  0  0  0  0  0  0  0  0  0  0
   -1.7040   23.0610  -30.2190 C   0  0  0  0  0  0  0  0  0  0  0  0
   -1.0425   22.1953  -30.3707 H   0  0  0  0  0  0  0  0  0  0  0  0
   -1.9650   23.5613  -31.1632 H   0  0  0  0  0  0  0  0  0  0  0  0
   -0.9580   24.0980  -29.3510 C   0  0  0  0  0  0  0  0  0  0  0  0
    0.0568   23.7224  -29.1535 H   0  0  0  0  0  0  0  0  0  0  0  0
   -0.9483   25.0446  -29.9112 H   0  0  0  0  0  0  0  0  0  0  0  0
   -1.6210   24.3630  -28.0550 N   0  0  0  0  0  0  0  0  0  0  0  0
   -1.1590   25.6410  -27.4870 C   0  0  0  0  0  0  0  0  0  0  0  0
   -1.1800   25.5830  -26.3887 H   0  0  0  0  0  0  0  0  0  0  0  0
   -0.1314   25.8419  -27.8240 H   0  0  0  0  0  0  0  0  0  0  0  0
   -1.8206   26.4526  -27.8240 H   0  0  0  0  0  0  0  0  0  0  0  0
   -1.5600   23.2600  -27.0630 C   0  0  0  0  0  0  0  0  0  0  0  0
   -0.6305   22.6967  -27.2322 H   0  0  0  0  0  0  0  0  0  0  0  0
   -1.6031   23.7299  -26.0693 H   0  0  0  0  0  0  0  0  0  0  0  0
   -2.7450   22.2690  -27.1330 C   0  0  0  0  0  0  0  0  0  0  0  0
   -2.5623   21.4685  -26.4010 H   0  0  0  0  0  0  0  0  0  0  0  0
   -3.6487   22.8600  -26.9233 H   0  0  0  0  0  0  0  0  0  0  0  0
   -2.9750   21.6110  -28.5130 C   0  0  0  0  0  0  0  0  0  0  0  0
   -2.1764   20.8752  -28.6882 H   0  0  0  0  0  0  0  0  0  0  0  0
   -3.9689   21.1401  -28.4921 H   0  0  0  0  0  0  0  0  0  0  0  0
  1  2  1  0
  2  3  1  0
  3  4  2  0
  4  5  1  0
  4  6  1  0
  6  7  1  0
  6  8  2  0
  8  9  1  0
  9 10  1  0
  9 11  2  0
 11 12  1  0
 11 13  1  0
 13 14  2  0
 14 15  1  0
 14 16  1  0
 16 17  1  0
 16 18  2  0
 18 19  1  0
 19 20  2  0
 20 21  1  0
 20 22  1  0
 22 23  1  0
 22 24  2  0
 24 25  1  0
 24 26  1  0
 26 27  1  0
 26 28  2  0
  8 29  1  0
 29 30  1  0
 29 31  2  0
 31 32  1  0
 32 33  1  0
 33 34  1  0
 33 35  1  0
 33 36  1  0
 36 37  1  0
 36 38  1  0
 36 39  1  0
 39 40  1  0
 40 41  1  0
 40 42  1  0
 40 43  1  0
 39 44  1  0
 44 45  1  0
 44 46  1  0
 44 47  1  0
 47 48  1  0
 47 49  1  0
 47 50  1  0
 50 51  1  0
 50 52  1  0
 31  3  1  0
 50 32  1  0
 28 13  1  0
 28 19  1  0
M  CHG  1   3   1
M  END
>  <UniqueID>  (4) 
3

>  <SMILES>  (4) 
CN1CCCN(c2cc(/C=C\c3ccnc4cc(Cl)ccc34)cc[n+]2O)CC1

>  <Energy>  (4) 
87.12973528433747

>  <Genealogy>  (4) 
CN1CCCN(c2cc(C=Cc3ccnc4cc(Cl)ccc34)cc[n+]2O)CC1 (protonated)
CN1CCCN(c2cc(/C=C\c3ccnc4cc(Cl)ccc34)cc[n+]2O)CC1 (cis-trans isomerization)
CN1CCCN(c2cc(/C=C\c3ccnc4cc(Cl)ccc34)cc[n+]2O)CC1 (3D coordinates assigned)
CN1CCCN(c2cc(/C=C\c3ccnc4cc(Cl)ccc34)cc[n+]2O)CC1 (nonaromatic ring conformer: 87.12973528433747 kcal/mol)

>  <smiles>  (4) 
CN1CCCN(c2cc(C=Cc3ccnc4cc(Cl)ccc34)cc[n+]2[O-])CC1

>  <score_type>  (4) 
oracle

>  <origin>  (4) 
adg

>  <m_score__min__energy>  (4) 
-7.2599999999999998

>  <m_primary>  (4) 
energy

$$$$
4:0
     RDKit          3D

 46 48  0  0  0  0  0  0  0  0999 V2000
   -8.6446   23.5801  -30.4273 H   0  0  0  0  0  0  0  0  0  0  0  0
   -7.7540   23.0330  -30.7700 C   0  0  0  0  0  0  0  0  0  0  0  0
   -6.0310   19.6630  -33.8960 C   0  0  0  0  0  0  0  0  0  0  0  0
   -6.8990   21.4290  -32.4200 C   0  0  0  0  0  0  0  0  0  0  0  0
   -5.9280   22.1850  -32.7020 O   0  0  0  0  0  0  0  0  0  0  0  0
   -6.9980   20.0840  -33.0520 C   0  0  0  0  0  0  0  0  0  0  0  0
   -7.9430   21.8900  -31.4630 C   0  0  0  0  0  0  0  0  0  0  0  0
   -5.7032   20.3522  -34.6882 H   0  0  0  0  0  0  0  0  0  0  0  0
   -5.3840   18.3330  -33.8230 C   0  0  0  0  0  0  0  0  0  0  0  0
   -6.1070   17.1980  -34.2340 C   0  0  0  0  0  0  0  0  0  0  0  0
   -7.1248   17.3152  -34.6344 H   0  0  0  0  0  0  0  0  0  0  0  0
   -5.5440   15.9260  -34.1380 C   0  0  0  0  0  0  0  0  0  0  0  0
   -6.1132   15.0465  -34.4734 H   0  0  0  0  0  0  0  0  0  0  0  0
   -4.2620   15.7680  -33.6180 C   0  0  0  0  0  0  0  0  0  0  0  0
   -3.8200   14.7633  -33.5460 H   0  0  0  0  0  0  0  0  0  0  0  0
   -3.5360   16.8790  -33.1880 C   0  0  0  0  0  0  0  0  0  0  0  0
   -2.5296   16.7414  -32.7658 H   0  0  0  0  0  0  0  0  0  0  0  0
   -4.0790   18.1770  -33.2890 C   0  0  0  0  0  0  0  0  0  0  0  0
   -3.2770   19.3740  -32.8160 C   0  0  0  0  0  0  0  0  0  0  0  0
   -3.9380   19.9870  -31.7680 F   0  0  0  0  0  0  0  0  0  0  0  0
   -3.1240   20.2800  -33.8510 F   0  0  0  0  0  0  0  0  0  0  0  0
   -2.0150   19.0060  -32.3810 F   0  0  0  0  0  0  0  0  0  0  0  0
   -8.1710   19.1980  -32.6900 C   0  0  0  0  0  0  0  0  0  0  0  0
   -7.8970   18.5764  -31.8248 H   0  0  0  0  0  0  0  0  0  0  0  0
   -8.4128   18.5695  -33.5598 H   0  0  0  0  0  0  0  0  0  0  0  0
   -9.4060   20.0280  -32.3360 C   0  0  0  0  0  0  0  0  0  0  0  0
  -10.2250   19.3502  -32.0533 H   0  0  0  0  0  0  0  0  0  0  0  0
   -9.6855   20.6287  -33.2141 H   0  0  0  0  0  0  0  0  0  0  0  0
   -9.1190   20.9770  -31.1710 C   0  0  0  0  0  0  0  0  0  0  0  0
   -8.8930   20.3814  -30.2743 H   0  0  0  0  0  0  0  0  0  0  0  0
  -10.0085   21.6052  -31.0153 H   0  0  0  0  0  0  0  0  0  0  0  0
   -6.4320   23.5950  -30.4430 C   0  0  0  0  0  0  0  0  0  0  0  0
   -6.1280   24.9110  -30.8120 C   0  0  0  0  0  0  0  0  0  0  0  0
   -6.8649   25.5068  -31.3706 H   0  0  0  0  0  0  0  0  0  0  0  0
   -4.8920   25.4720  -30.4740 C   0  0  0  0  0  0  0  0  0  0  0  0
   -4.6554   26.5014  -30.7810 H   0  0  0  0  0  0  0  0  0  0  0  0
   -3.9490   24.7240  -29.7420 C   0  0  0  0  0  0  0  0  0  0  0  0
   -2.6970   25.2400  -29.3810 O   0  0  0  0  0  0  0  0  0  0  0  0
   -1.8770   24.7090  -28.3450 C   0  0  0  0  0  0  0  0  0  0  0  0
   -2.2992   24.9824  -27.3667 H   0  0  0  0  0  0  0  0  0  0  0  0
   -1.8374   23.6133  -28.4340 H   0  0  0  0  0  0  0  0  0  0  0  0
   -0.8610   25.1211  -28.4340 H   0  0  0  0  0  0  0  0  0  0  0  0
   -4.2680   23.4180  -29.3530 C   0  0  0  0  0  0  0  0  0  0  0  0
   -3.5406   22.8271  -28.7770 H   0  0  0  0  0  0  0  0  0  0  0  0
   -5.5050   22.8580  -29.6910 C   0  0  0  0  0  0  0  0  0  0  0  0
   -5.7514   21.8364  -29.3659 H   0  0  0  0  0  0  0  0  0  0  0  0
  1  2  1  0
  2  3  2  0
  3  4  1  0
  4  5  2  0
  4  6  1  0
  6  7  2  0
  7  8  1  0
  7  9  1  0
  9 10  2  0
 10 11  1  0
 10 12  1  0
 12 13  1  0
 12 14  2  0
 14 15  1  0
 14 16  1  0
 16 17  1  0
 16 18  2  0
 18 19  1  0
 19 20  1  0
 19 21  1  0
 19 22  1  0
  6 23  1  0
 23 24  1  0
 23 25  1  0
 23 26  1  0
 26 27  1  0
 26 28  1  0
 26 29  1  0
 29 30  1  0
 29 31  1  0
  2 32  1  0
 32 33  2  0
 33 34  1  0
 33 35  1  0
 35 36  1  0
 35 37  2  0
 37 38  1  0
 38 39  1  0
 39 40  1  0
 39 41  1  0
 39 42  1  0
 37 43  1  0
 43 44  1  0
 43 45  2  0
 45 46  1  0
 29  3  1  0
 45 32  1  0
 18  9  1  0
M  END
>  <UniqueID>  (5) 
4

>  <SMILES>  (5) 
COc1ccc(/C=C2\CCC/C(=C\c3ccccc3C(F)(F)F)C2=O)cc1

>  <Energy>  (5) 
64.3393345215638

>  <Genealogy>  (5) 
COc1ccc(/C=C2\CCC/C(=C\c3ccccc3C(F)(F)F)C2=O)cc1 (cis-trans isomerization)
COc1ccc(/C=C2\CCC/C(=C\c3ccccc3C(F)(F)F)C2=O)cc1 (3D coordinates assigned)
COc1ccc(/C=C2\CCC/C(=C\c3ccccc3C(F)(F)F)C2=O)cc1 (nonaromatic ring conformer: 64.3393345215638 kcal/mol)

>  <smiles>  (5) 
COc1ccc(C=C2CCCC(=Cc3ccccc3C(F)(F)F)C2=O)cc1

>  <score_type>  (5) 
oracle

>  <origin>  (5) 
adg

>  <m_score__min__energy>  (5) 
-9.6600000000000001

>  <m_primary>  (5) 
energy

$$$$
5:0
     RDKit          3D

 33 35  0  0  0  0  0  0  0  0999 V2000
   -4.6160   25.5850  -31.9020 H   0  0  0  0  0  0  0  0  0  0  0  0
   -4.6090   25.4610  -30.8680 N   0  0  0  0  0  0  0  0  0  0  0  0
   -4.0990   24.4220  -30.2820 C   0  0  0  0  0  0  0  0  0  0  0  0
   -3.4940   24.5000  -29.0730 N   0  0  0  0  0  0  0  0  0  0  0  0
   -3.3410   25.3480  -28.4830 H   0  0  0  0  0  0  0  0  0  0  0  0
   -3.1840   23.2270  -28.7830 C   0  0  0  0  0  0  0  0  0  0  0  0
   -2.5820   22.7370  -27.6280 C   0  0  0  0  0  0  0  0  0  0  0  0
   -2.2611   23.4140  -26.8226 H   0  0  0  0  0  0  0  0  0  0  0  0
   -2.3980   21.3460  -27.5260 C   0  0  0  0  0  0  0  0  0  0  0  0
   -1.9177   20.9217  -26.6320 H   0  0  0  0  0  0  0  0  0  0  0  0
   -2.8270   20.4910  -28.5660 C   0  0  0  0  0  0  0  0  0  0  0  0
   -2.6827   19.4045  -28.4725 H   0  0  0  0  0  0  0  0  0  0  0  0
   -3.4370   21.0160  -29.7200 C   0  0  0  0  0  0  0  0  0  0  0  0
   -3.7822   20.3568  -30.5302 H   0  0  0  0  0  0  0  0  0  0  0  0
   -3.5900   22.4040  -29.8030 C   0  0  0  0  0  0  0  0  0  0  0  0
   -4.1580   23.1530  -30.7740 N   0  0  0  0  0  0  0  0  0  0  0  0
   -4.8450   22.6240  -32.2870 S   0  0  0  0  0  0  0  0  0  0  0  0
   -3.7630   22.1170  -33.1960 O   0  0  0  0  0  0  0  0  0  0  0  0
   -5.5050   23.7990  -32.9530 O   0  0  0  0  0  0  0  0  0  0  0  0
   -6.0270   21.3350  -32.0100 C   0  0  0  0  0  0  0  0  0  0  0  0
   -5.6590   20.0070  -32.2820 C   0  0  0  0  0  0  0  0  0  0  0  0
   -4.6515   19.7893  -32.6662 H   0  0  0  0  0  0  0  0  0  0  0  0
   -6.5580   18.9610  -32.0700 C   0  0  0  0  0  0  0  0  0  0  0  0
   -6.2569   17.9256  -32.2875 H   0  0  0  0  0  0  0  0  0  0  0  0
   -7.8370   19.2260  -31.5830 C   0  0  0  0  0  0  0  0  0  0  0  0
   -8.5415   18.3991  -31.4100 H   0  0  0  0  0  0  0  0  0  0  0  0
   -8.2240   20.5390  -31.3150 C   0  0  0  0  0  0  0  0  0  0  0  0
   -9.2336   20.7410  -30.9278 H   0  0  0  0  0  0  0  0  0  0  0  0
   -7.3360   21.6070  -31.5350 C   0  0  0  0  0  0  0  0  0  0  0  0
   -7.7930   23.0080  -31.2250 C   0  0  0  0  0  0  0  0  0  0  0  0
   -7.8381   23.1462  -30.1346 H   0  0  0  0  0  0  0  0  0  0  0  0
   -7.0835   23.7291  -31.6570 H   0  0  0  0  0  0  0  0  0  0  0  0
   -8.7912   23.1721  -31.6570 H   0  0  0  0  0  0  0  0  0  0  0  0
  1  2  1  0
  2  3  2  0
  3  4  1  0
  4  5  1  0
  4  6  1  0
  6  7  2  0
  7  8  1  0
  7  9  1  0
  9 10  1  0
  9 11  2  0
 11 12  1  0
 11 13  1  0
 13 14  1  0
 13 15  2  0
 15 16  1  0
 16 17  1  0
 17 18  2  0
 17 19  2  0
 17 20  1  0
 20 21  2  0
 21 22  1  0
 21 23  1  0
 23 24  1  0
 23 25  2  0
 25 26  1  0
 25 27  1  0
 27 28  1  0
 27 29  2  0
 29 30  1  0
 30 31  1  0
 30 32  1  0
 30 33  1  0
 16  3  1  0
 29 20  1  0
 15  6  1  0
M  END
>  <UniqueID>  (6) 
5

>  <SMILES>  (6) 
[H]/N=c1/[nH]c2ccccc2n1S(=O)(=O)c1ccccc1C

>  <Energy>  (6) 
81.32565095588166

>  <Genealogy>  (6) 
[H]/N=c1/[nH]c2ccccc2n1S(=O)(=O)c1ccccc1C (cis-trans isomerization)
[H]/N=c1/[nH]c2ccccc2n1S(=O)(=O)c1ccccc1C (3D coordinates assigned)
[H]/N=c1/[nH]c2ccccc2n1S(=O)(=O)c1ccccc1C (optimized conformer: 81.32565095588166 kcal/mol)

>  <smiles>  (6) 
Cc1ccccc1S(=O)(=O)n1c(=N)[nH]c2ccccc21

>  <score_type>  (6) 
oracle

>  <origin>  (6) 
adg

>  <m_score__min__energy>  (6) 
-7.4500000000000002

>  <m_primary>  (6) 
energy

$$$$
6:0
     RDKit          3D

 35 37  0  0  0  0  0  0  0  0999 V2000
   -2.8060   20.5930  -27.7250 C   0  0  0  0  0  0  0  0  0  0  0  0
   -3.2410   21.7700  -28.3980 O   0  0  0  0  0  0  0  0  0  0  0  0
   -2.4860   22.9430  -28.5440 C   0  0  0  0  0  0  0  0  0  0  0  0
   -1.0820   22.9130  -28.4280 C   0  0  0  0  0  0  0  0  0  0  0  0
   -0.3330   24.0750  -28.5870 C   0  0  0  0  0  0  0  0  0  0  0  0
   -0.9820   25.2710  -28.8610 C   0  0  0  0  0  0  0  0  0  0  0  0
   -2.3350   25.2980  -28.9670 N   0  0  0  0  0  0  0  0  0  0  0  0
   -3.1140   24.1910  -28.8180 C   0  0  0  0  0  0  0  0  0  0  0  0
   -4.4040   24.3560  -28.9300 N   0  0  0  0  0  0  0  0  0  0  0  0
   -5.3860   24.6060  -30.3440 S   0  0  0  0  0  0  0  0  0  0  0  0
   -6.7360   25.1020  -29.9080 O   0  0  0  0  0  0  0  0  0  0  0  0
   -4.7480   25.6520  -31.2170 O   0  0  0  0  0  0  0  0  0  0  0  0
   -5.6100   23.0980  -31.2260 C   0  0  0  0  0  0  0  0  0  0  0  0
   -6.9000   22.6140  -31.4750 C   0  0  0  0  0  0  0  0  0  0  0  0
   -7.0790   21.4040  -32.1520 C   0  0  0  0  0  0  0  0  0  0  0  0
   -5.9700   20.6600  -32.5960 C   0  0  0  0  0  0  0  0  0  0  0  0
   -6.1720   19.4110  -33.2880 N   0  0  0  0  0  0  0  0  0  0  0  0
   -6.8230   18.3070  -32.8710 C   0  0  0  0  0  0  0  0  0  0  0  0
   -6.7680   17.3780  -33.8370 N   0  0  0  0  0  0  0  0  0  0  0  0
   -6.0860   17.9120  -34.8380 N   0  0  0  0  0  0  0  0  0  0  0  0
   -5.7250   19.1420  -34.5070 N   0  0  0  0  0  0  0  0  0  0  0  0
   -4.6770   21.1600  -32.3480 C   0  0  0  0  0  0  0  0  0  0  0  0
   -4.5010   22.3690  -31.6710 C   0  0  0  0  0  0  0  0  0  0  0  0
   -2.8639   20.7497  -26.6378 H   0  0  0  0  0  0  0  0  0  0  0  0
   -3.4515   19.7487  -28.0087 H   0  0  0  0  0  0  0  0  0  0  0  0
   -1.7666   20.3714  -28.0087 H   0  0  0  0  0  0  0  0  0  0  0  0
   -0.5734   21.9624  -28.2098 H   0  0  0  0  0  0  0  0  0  0  0  0
    0.7629   24.0460  -28.4964 H   0  0  0  0  0  0  0  0  0  0  0  0
   -0.4007   26.1956  -28.9921 H   0  0  0  0  0  0  0  0  0  0  0  0
   -7.7755   23.1877  -31.1368 H   0  0  0  0  0  0  0  0  0  0  0  0
   -8.0963   21.0299  -32.3394 H   0  0  0  0  0  0  0  0  0  0  0  0
   -7.3190   18.1872  -31.8965 H   0  0  0  0  0  0  0  0  0  0  0  0
   -7.1740   16.4160  -33.8250 H   0  0  0  0  0  0  0  0  0  0  0  0
   -3.7983   20.5937  -32.6903 H   0  0  0  0  0  0  0  0  0  0  0  0
   -3.4858   22.7502  -31.4866 H   0  0  0  0  0  0  0  0  0  0  0  0
  1  2  1  0
  2  3  1  0
  3  4  2  0
  4  5  1  0
  5  6  2  0
  6  7  1  0
  7  8  1  0
  8  9  2  3
  9 10  1  0
 10 11  2  0
 10 12  2  0
 10 13  1  0
 13 14  2  0
 14 15  1  0
 15 16  2  0
 16 17  1  0
 17 18  1  0
 18 19  2  0
 19 20  1  0
 20 21  2  0
 16 22  1  0
 22 23  2  0
  8  3  1  0
 23 13  1  0
 21 17  1  0
  1 24  1  0
  1 25  1  0
  1 26  1  0
  4 27  1  0
  5 28  1  0
  6 29  1  0
 14 30  1  0
 15 31  1  0
 18 32  1  0
 19 33  1  0
 22 34  1  0
 23 35  1  0
M  CHG  2   7  -1  19   1
M  END
>  <UniqueID>  (7) 
6

>  <SMILES>  (7) 
COc1ccc[n-]c1=NS(=O)(=O)c1ccc(-n2c[nH+]nn2)cc1

>  <Energy>  (7) 
89.67669213598946

>  <Genealogy>  (7) 
COc1ccc[n-]c1=NS(=O)(=O)c1ccc(-n2c[nH+]nn2)cc1 (protonated)
COc1ccc[n-]c1=NS(=O)(=O)c1ccc(-n2c[nH+]nn2)cc1 (3D coordinates assigned)
COc1ccc[n-]c1=NS(=O)(=O)c1ccc(-n2c[nH+]nn2)cc1 (optimized conformer: 89.67669213598946 kcal/mol)

>  <smiles>  (7) 
COc1ccc[nH]c1=NS(=O)(=O)c1ccc(-n2cnnn2)cc1

>  <score_type>  (7) 
oracle

>  <origin>  (7) 
adg

>  <m_score__min__energy>  (7) 
-9.0800000000000001

>  <m_primary>  (7) 
energy

$$$$
7:0
     RDKit          3D

 34 36  0  0  0  0  0  0  0  0999 V2000
   -4.1920   23.7190  -28.0570 C   0  0  0  0  0  0  0  0  0  0  0  0
   -3.3430   23.2920  -29.1790 N   0  0  1  0  0  0  0  0  0  0  0  0
   -3.1310   21.8220  -29.1860 C   0  0  0  0  0  0  0  0  0  0  0  0
   -3.8580   21.2330  -30.4130 C   0  0  0  0  0  0  0  0  0  0  0  0
   -4.3470   22.3810  -31.1430 N   0  0  0  0  0  0  0  0  0  0  0  0
   -5.0420   22.3400  -32.4310 C   0  0  0  0  0  0  0  0  0  0  0  0
   -6.5420   22.1350  -32.2790 C   0  0  0  0  0  0  0  0  0  0  0  0
   -7.3960   23.2420  -32.0960 C   0  0  0  0  0  0  0  0  0  0  0  0
   -8.7710   23.0570  -31.9650 C   0  0  0  0  0  0  0  0  0  0  0  0
   -9.2970   21.8090  -31.9860 N   0  0  0  0  0  0  0  0  0  0  0  0
   -8.5190   20.7050  -32.1180 C   0  0  0  0  0  0  0  0  0  0  0  0
   -9.1180   19.4390  -32.1060 C   0  0  0  0  0  0  0  0  0  0  0  0
   -8.3330   18.2900  -32.2100 C   0  0  0  0  0  0  0  0  0  0  0  0
   -6.9460   18.3980  -32.3150 C   0  0  0  0  0  0  0  0  0  0  0  0
   -6.3350   19.6560  -32.3310 C   0  0  0  0  0  0  0  0  0  0  0  0
   -7.1110   20.8320  -32.2490 C   0  0  0  0  0  0  0  0  0  0  0  0
   -4.0020   23.5420  -30.4190 C   0  0  0  0  0  0  0  0  0  0  0  0
   -4.2420   24.7050  -30.8420 O   0  0  0  0  0  0  0  0  0  0  0  0
   -3.6967   23.4699  -27.1069 H   0  0  0  0  0  0  0  0  0  0  0  0
   -4.3537   24.8056  -28.1124 H   0  0  0  0  0  0  0  0  0  0  0  0
   -5.1608   23.2009  -28.1124 H   0  0  0  0  0  0  0  0  0  0  0  0
   -2.4270   23.8010  -29.1560 H   0  0  0  0  0  0  0  0  0  0  0  0
   -2.0552   21.6017  -29.2500 H   0  0  0  0  0  0  0  0  0  0  0  0
   -3.5278   21.3777  -28.2613 H   0  0  0  0  0  0  0  0  0  0  0  0
   -3.1611   20.6490  -31.0321 H   0  0  0  0  0  0  0  0  0  0  0  0
   -4.6701   20.5496  -30.1242 H   0  0  0  0  0  0  0  0  0  0  0  0
   -4.8676   23.2907  -32.9561 H   0  0  0  0  0  0  0  0  0  0  0  0
   -4.6442   21.4852  -32.9977 H   0  0  0  0  0  0  0  0  0  0  0  0
   -6.9745   24.2573  -32.0564 H   0  0  0  0  0  0  0  0  0  0  0  0
   -9.4318   23.9280  -31.8441 H   0  0  0  0  0  0  0  0  0  0  0  0
  -10.2106   19.3502  -32.0143 H   0  0  0  0  0  0  0  0  0  0  0  0
   -8.8083   17.2980  -32.2092 H   0  0  0  0  0  0  0  0  0  0  0  0
   -6.3300   17.4894  -32.3855 H   0  0  0  0  0  0  0  0  0  0  0  0
   -5.2402   19.7295  -32.4082 H   0  0  0  0  0  0  0  0  0  0  0  0
  1  2  1  0
  2  3  1  0
  3  4  1  0
  4  5  1  0
  5  6  1  0
  6  7  1  0
  7  8  2  0
  8  9  1  0
  9 10  2  0
 10 11  1  0
 11 12  2  0
 12 13  1  0
 13 14  2  0
 14 15  1  0
 15 16  2  0
  5 17  1  0
 17 18  2  0
 17  2  1  0
 16  7  1  0
 16 11  1  0
  1 19  1  0
  1 20  1  0
  1 21  1  0
  2 22  1  6
  3 23  1  0
  3 24  1  0
  4 25  1  0
  4 26  1  0
  6 27  1  0
  6 28  1  0
  8 29  1  0
  9 30  1  0
 12 31  1  0
 13 32  1  0
 14 33  1  0
 15 34  1  0
M  CHG  1   2   1
M  END
>  <UniqueID>  (8) 
7

>  <SMILES>  (8) 
C[N@H+]1CCN(Cc2ccnc3ccccc23)C1=O

>  <Energy>  (8) 
50.351302056359906

>  <Genealogy>  (8) 
C[NH+]1CCN(Cc2ccnc3ccccc23)C1=O (protonated)
C[N@H+]1CCN(Cc2ccnc3ccccc23)C1=O (chirality)
C[N@H+]1CCN(Cc2ccnc3ccccc23)C1=O (3D coordinates assigned)
C[N@H+]1CCN(Cc2ccnc3ccccc23)C1=O (nonaromatic ring conformer: 50.351302056359906 kcal/mol)

>  <smiles>  (8) 
CN1CCN(Cc2ccnc3ccccc23)C1=O

>  <score_type>  (8) 
oracle

>  <origin>  (8) 
adg

>  <m_score__min__energy>  (8) 
-6.3600000000000003

>  <m_primary>  (8) 
energy

$$$$
8:0
     RDKit          3D

 34 36  0  0  0  0  0  0  0  0999 V2000
  -10.1199   20.4213  -32.6866 H   0  0  0  0  0  0  0  0  0  0  0  0
   -9.1520   20.8080  -32.3350 C   0  0  0  0  0  0  0  0  0  0  0  0
   -9.0980   21.9970  -31.6070 C   0  0  0  0  0  0  0  0  0  0  0  0
  -10.0246   22.5463  -31.3843 H   0  0  0  0  0  0  0  0  0  0  0  0
   -7.8700   22.4920  -31.1600 C   0  0  0  0  0  0  0  0  0  0  0  0
   -7.8366   23.4290  -30.5847 H   0  0  0  0  0  0  0  0  0  0  0  0
   -6.6740   21.8010  -31.4400 C   0  0  0  0  0  0  0  0  0  0  0  0
   -5.3620   22.3160  -30.9710 C   0  0  0  0  0  0  0  0  0  0  0  0
   -3.8860   21.4790  -31.0860 S   0  0  0  0  0  0  0  0  0  0  0  0
   -2.9660   22.6860  -30.3740 C   0  0  0  0  0  0  0  0  0  0  0  0
   -1.6050   22.7380  -30.1100 C   0  0  0  0  0  0  0  0  0  0  0  0
   -0.8450   21.7790  -30.4060 O   0  0  0  0  0  0  0  0  0  0  0  0
   -1.1050   23.8570  -29.5170 N   0  0  0  0  0  0  0  0  0  0  0  0
   -1.9140   24.9150  -29.1870 C   0  0  0  0  0  0  0  0  0  0  0  0
   -1.4190   25.9760  -28.6190 N   0  0  0  0  0  0  0  0  0  0  0  0
   -0.9640   26.0550  -27.2280 C   0  0  0  0  0  0  0  0  0  0  0  0
   -0.1168   25.3695  -27.0788 H   0  0  0  0  0  0  0  0  0  0  0  0
   -0.4920   27.4760  -26.9040 C   0  0  0  0  0  0  0  0  0  0  0  0
   -0.4482   27.6079  -25.8128 H   0  0  0  0  0  0  0  0  0  0  0  0
    0.5079   27.6371  -27.3333 H   0  0  0  0  0  0  0  0  0  0  0  0
   -1.1968   28.2033  -27.3333 H   0  0  0  0  0  0  0  0  0  0  0  0
   -2.1120   25.6520  -26.3040 C   0  0  0  0  0  0  0  0  0  0  0  0
   -1.7957   25.7630  -25.2563 H   0  0  0  0  0  0  0  0  0  0  0  0
   -2.9809   26.2988  -26.4952 H   0  0  0  0  0  0  0  0  0  0  0  0
   -2.3859   24.6040  -26.4952 H   0  0  0  0  0  0  0  0  0  0  0  0
   -3.2560   24.8560  -29.4500 N   0  0  0  0  0  0  0  0  0  0  0  0
   -3.8790   25.6580  -29.1990 H   0  0  0  0  0  0  0  0  0  0  0  0
   -3.7770   23.7480  -30.0400 C   0  0  0  0  0  0  0  0  0  0  0  0
   -5.1240   23.5600  -30.3660 C   0  0  0  0  0  0  0  0  0  0  0  0
   -5.9097   24.3044  -30.1700 H   0  0  0  0  0  0  0  0  0  0  0  0
   -6.7450   20.6000  -32.1730 C   0  0  0  0  0  0  0  0  0  0  0  0
   -5.8232   20.0436  -32.3980 H   0  0  0  0  0  0  0  0  0  0  0  0
   -7.9760   20.1090  -32.6170 C   0  0  0  0  0  0  0  0  0  0  0  0
   -8.0188   19.1706  -33.1894 H   0  0  0  0  0  0  0  0  0  0  0  0
  1  2  1  0
  2  3  2  0
  3  4  1  0
  3  5  1  0
  5  6  1  0
  5  7  2  0
  7  8  1  0
  8  9  1  0
  9 10  1  0
 10 11  1  0
 11 12  2  0
 11 13  1  0
 13 14  1  0
 14 15  2  0
 15 16  1  0
 16 17  1  0
 16 18  1  0
 18 19  1  0
 18 20  1  0
 18 21  1  0
 16 22  1  0
 22 23  1  0
 22 24  1  0
 22 25  1  0
 14 26  1  0
 26 27  1  0
 26 28  1  0
 28 29  1  0
 29 30  1  0
  7 31  1  0
 31 32  1  0
 31 33  2  0
 33 34  1  0
 33  2  1  0
 29  8  2  0
 28 10  2  0
M  CHG  1  13  -1
M  END
>  <UniqueID>  (9) 
8

>  <SMILES>  (9) 
CC(C)/N=c1\[n-]c(=O)c2sc(-c3ccccc3)cc2[nH]1

>  <Energy>  (9) 
67.24636647043744

>  <Genealogy>  (9) 
CC(C)N=c1[n-]c(=O)c2sc(-c3ccccc3)cc2[nH]1 (protonated)
CC(C)/N=c1\[n-]c(=O)c2sc(-c3ccccc3)cc2[nH]1 (cis-trans isomerization)
CC(C)/N=c1\[n-]c(=O)c2sc(-c3ccccc3)cc2[nH]1 (3D coordinates assigned)
CC(C)/N=c1\[n-]c(=O)c2sc(-c3ccccc3)cc2[nH]1 (optimized conformer: 67.24636647043744 kcal/mol)

>  <smiles>  (9) 
CC(C)N=c1[nH]c(=O)c2sc(-c3ccccc3)cc2[nH]1

>  <score_type>  (9) 
oracle

>  <origin>  (9) 
adg

>  <m_score__min__energy>  (9) 
-8.9900000000000002

>  <m_primary>  (9) 
energy

$$$$
9:0
     RDKit          3D

 37 39  0  0  1  0  0  0  0  0999 V2000
   -3.1840   25.0380  -30.2850 O   0  0  0  0  0  0  0  0  0  0  0  0
   -4.1680   24.5600  -29.4240 C   0  0  0  0  0  0  0  0  0  0  0  0
   -5.4590   24.2390  -30.1930 C   0  0  0  0  0  0  0  0  0  0  0  0
   -5.0070   24.1160  -31.5750 N   0  0  0  0  0  0  0  0  0  0  0  0
   -4.6370   23.0000  -32.0620 C   0  0  0  0  0  0  0  0  0  0  0  0
   -5.4890   22.1950  -32.7240 N   0  0  0  0  0  0  0  0  0  0  0  0
   -5.0600   21.0220  -33.2260 C   0  0  0  0  0  0  0  0  0  0  0  0
   -5.8340   20.2130  -33.8680 N   0  0  0  0  0  0  0  0  0  0  0  0
   -6.8650   19.5780  -33.1120 C   0  0  0  0  0  0  0  0  0  0  0  0
   -6.5430   18.4420  -32.3670 C   0  0  0  0  0  0  0  0  0  0  0  0
   -7.5240   17.8130  -31.6310 C   0  0  0  0  0  0  0  0  0  0  0  0
   -8.8300   18.2860  -31.6140 C   0  0  0  0  0  0  0  0  0  0  0  0
   -9.1470   19.4120  -32.3540 C   0  0  0  0  0  0  0  0  0  0  0  0
   -8.1750   20.0710  -33.1090 C   0  0  0  0  0  0  0  0  0  0  0  0
   -3.7380   20.6290  -33.0680 C   0  0  0  0  0  0  0  0  0  0  0  0
   -3.2840   19.4160  -33.5850 C   0  0  0  0  0  0  0  0  0  0  0  0
   -1.9720   19.0400  -33.4220 C   0  0  0  0  0  0  0  0  0  0  0  0
   -1.0840   19.8670  -32.7390 C   0  0  0  0  0  0  0  0  0  0  0  0
   -1.5690   21.0670  -32.2380 C   0  0  0  0  0  0  0  0  0  0  0  0
   -2.8770   21.4660  -32.3870 C   0  0  0  0  0  0  0  0  0  0  0  0
   -3.3320   22.6470  -31.8880 N   0  0  0  0  0  0  0  0  0  0  0  0
   -3.5570   24.9270  -31.2070 H   0  0  0  0  0  0  0  0  0  0  0  0
   -3.8040   23.6453  -28.9332 H   0  0  0  0  0  0  0  0  0  0  0  0
   -4.3878   25.3356  -28.6755 H   0  0  0  0  0  0  0  0  0  0  0  0
   -5.9043   23.2975  -29.8391 H   0  0  0  0  0  0  0  0  0  0  0  0
   -6.2385   25.0041  -30.0623 H   0  0  0  0  0  0  0  0  0  0  0  0
   -6.4840   22.4900  -32.8420 H   0  0  0  0  0  0  0  0  0  0  0  0
   -5.5145   18.0520  -32.3674 H   0  0  0  0  0  0  0  0  0  0  0  0
   -7.2675   16.9181  -31.0451 H   0  0  0  0  0  0  0  0  0  0  0  0
   -9.6014   17.7730  -31.0209 H   0  0  0  0  0  0  0  0  0  0  0  0
  -10.1790   19.7928  -32.3471 H   0  0  0  0  0  0  0  0  0  0  0  0
   -8.4352   20.9657  -33.6937 H   0  0  0  0  0  0  0  0  0  0  0  0
   -3.9792   18.7570  -34.1258 H   0  0  0  0  0  0  0  0  0  0  0  0
   -1.6220   18.0816  -33.8329 H   0  0  0  0  0  0  0  0  0  0  0  0
   -0.0316   19.5784  -32.6009 H   0  0  0  0  0  0  0  0  0  0  0  0
   -0.8763   21.7288  -31.6975 H   0  0  0  0  0  0  0  0  0  0  0  0
   -2.6590   23.2770  -31.3700 H   0  0  0  0  0  0  0  0  0  0  0  0
  1  2  1  0
  2  3  1  0
  3  4  1  0
  4  5  2  0
  5  6  1  0
  6  7  1  0
  7  8  2  0
  8  9  1  0
  9 10  2  0
 10 11  1  0
 11 12  2  0
 12 13  1  0
 13 14  2  0
  7 15  1  0
 15 16  2  0
 16 17  1  0
 17 18  2  0
 18 19  1  0
 19 20  2  0
 20 21  1  0
 21  5  1  0
 14  9  1  0
 20 15  1  0
  1 22  1  0
  2 23  1  0
  2 24  1  0
  3 25  1  0
  3 26  1  0
  6 27  1  0
 10 28  1  0
 11 29  1  0
 12 30  1  0
 13 31  1  0
 14 32  1  0
 16 33  1  0
 17 34  1  0
 18 35  1  0
 19 36  1  0
 21 37  1  0
M  END
>  <smiles>  (10) 
OCCN=c1[nH]c(=Nc2ccccc2)c2ccccc2[nH]1

>  <score_type>  (10) 
oracle

>  <origin>  (10) 
adg

>  <m_score__min__energy>  (10) 
-8.0999999999999996

>  <m_primary>  (10) 
energy

$$$$
10:0
     RDKit          3D

 49 52  0  0  1  0  0  0  0  0999 V2000
   -1.5730   21.1280  -26.3310 N   0  0  0  0  0  0  0  0  0  0  0  0
   -2.0450   20.3220  -27.3960 C   0  0  0  0  0  0  0  0  0  0  0  0
   -2.1400   19.0790  -27.2450 O   0  0  0  0  0  0  0  0  0  0  0  0
   -2.4190   20.9550  -28.6640 C   0  0  0  0  0  0  0  0  0  0  0  0
   -2.0930   20.4160  -29.8760 C   0  0  0  0  0  0  0  0  0  0  0  0
   -2.4460   21.0130  -31.0750 C   0  0  0  0  0  0  0  0  0  0  0  0
   -3.1610   22.2060  -31.0560 C   0  0  0  0  0  0  0  0  0  0  0  0
   -3.4990   22.7630  -29.8430 C   0  0  0  0  0  0  0  0  0  0  0  0
   -4.2060   23.9440  -29.8140 C   0  0  0  0  0  0  0  0  0  0  0  0
   -4.5520   24.5280  -30.8820 N   0  0  0  0  0  0  0  0  0  0  0  0
   -5.8270   24.5660  -31.5170 C   0  0  0  0  0  0  0  0  0  0  0  0
   -6.5460   23.2720  -31.5350 C   0  0  0  0  0  0  0  0  0  0  0  0
   -7.6280   23.1230  -30.6900 C   0  0  0  0  0  0  0  0  0  0  0  0
   -8.3750   21.9650  -30.6230 C   0  0  0  0  0  0  0  0  0  0  0  0
   -8.0380   20.8920  -31.4340 C   0  0  0  0  0  0  0  0  0  0  0  0
   -6.9510   21.0350  -32.2870 C   0  0  0  0  0  0  0  0  0  0  0  0
   -6.5700   19.9550  -33.1390 N   0  0  0  0  0  0  0  0  0  0  0  0
   -5.4930   19.1290  -32.7250 C   0  0  0  0  0  0  0  0  0  0  0  0
   -4.9590   19.4400  -31.6060 O   0  0  0  0  0  0  0  0  0  0  0  0
   -5.0130   17.9960  -33.5090 C   0  0  0  0  0  0  0  0  0  0  0  0
   -3.8580   18.0290  -34.2600 C   0  0  0  0  0  0  0  0  0  0  0  0
   -3.4940   16.9000  -34.9650 C   0  0  0  0  0  0  0  0  0  0  0  0
   -4.2320   15.7350  -34.9550 C   0  0  0  0  0  0  0  0  0  0  0  0
   -3.8520   14.6360  -35.6580 F   0  0  0  0  0  0  0  0  0  0  0  0
   -5.3960   15.7060  -34.1950 C   0  0  0  0  0  0  0  0  0  0  0  0
   -6.1070   14.5610  -34.1960 F   0  0  0  0  0  0  0  0  0  0  0  0
   -5.7570   16.8340  -33.4930 C   0  0  0  0  0  0  0  0  0  0  0  0
   -6.2200   22.2070  -32.3330 C   0  0  0  0  0  0  0  0  0  0  0  0
   -4.5470   24.5080  -28.6450 N   0  0  0  0  0  0  0  0  0  0  0  0
   -4.1920   23.9080  -27.5110 C   0  0  0  0  0  0  0  0  0  0  0  0
   -3.4970   22.7470  -27.5170 N   0  0  0  0  0  0  0  0  0  0  0  0
   -3.1310   22.1430  -28.6640 C   0  0  0  0  0  0  0  0  0  0  0  0
   -1.8840   22.1290  -26.2140 H   0  0  0  0  0  0  0  0  0  0  0  0
   -0.8940   20.7900  -25.6040 H   0  0  0  0  0  0  0  0  0  0  0  0
   -1.5288   19.4721  -29.9008 H   0  0  0  0  0  0  0  0  0  0  0  0
   -2.1640   20.5488  -32.0316 H   0  0  0  0  0  0  0  0  0  0  0  0
   -3.4521   22.6972  -31.9962 H   0  0  0  0  0  0  0  0  0  0  0  0
   -6.4527   25.2987  -30.9864 H   0  0  0  0  0  0  0  0  0  0  0  0
   -5.6438   24.8352  -32.5677 H   0  0  0  0  0  0  0  0  0  0  0  0
   -7.9070   23.9660  -30.0407 H   0  0  0  0  0  0  0  0  0  0  0  0
   -9.2290   21.8937  -29.9334 H   0  0  0  0  0  0  0  0  0  0  0  0
   -8.6142   19.9555  -31.4028 H   0  0  0  0  0  0  0  0  0  0  0  0
   -7.0600   19.7710  -34.0370 H   0  0  0  0  0  0  0  0  0  0  0  0
   -3.2386   18.9373  -34.2967 H   0  0  0  0  0  0  0  0  0  0  0  0
   -2.5715   16.9307  -35.5633 H   0  0  0  0  0  0  0  0  0  0  0  0
   -6.6787   16.8078  -32.8932 H   0  0  0  0  0  0  0  0  0  0  0  0
   -5.3645   22.2859  -33.0199 H   0  0  0  0  0  0  0  0  0  0  0  0
   -5.0780   25.3940  -28.6000 H   0  0  0  0  0  0  0  0  0  0  0  0
   -4.4692   24.3652  -26.5497 H   0  0  0  0  0  0  0  0  0  0  0  0
  1  2  1  0
  2  3  2  0
  2  4  1  0
  4  5  2  0
  5  6  1  0
  6  7  2  0
  7  8  1  0
  8  9  1  0
  9 10  2  0
 10 11  1  0
 11 12  1  0
 12 13  2  0
 13 14  1  0
 14 15  2  0
 15 16  1  0
 16 17  1  0
 17 18  1  0
 18 19  2  0
 18 20  1  0
 20 21  2  0
 21 22  1  0
 22 23  2  0
 23 24  1  0
 23 25  1  0
 25 26  1  0
 25 27  2  0
 16 28  2  0
  9 29  1  0
 29 30  1  0
 30 31  2  0
 31 32  1  0
 32  4  1  0
 32  8  2  0
 28 12  1  0
 27 20  1  0
  1 33  1  0
  1 34  1  0
  5 35  1  0
  6 36  1  0
  7 37  1  0
 11 38  1  0
 11 39  1  0
 13 40  1  0
 14 41  1  0
 15 42  1  0
 17 43  1  0
 21 44  1  0
 22 45  1  0
 27 46  1  0
 28 47  1  0
 29 48  1  0
 30 49  1  0
M  END
>  <smiles>  (11) 
NC(=O)c1cccc2c(=NCc3cccc(NC(=O)c4ccc(F)c(F)c4)c3)[nH]cnc12

>  <score_type>  (11) 
oracle

>  <origin>  (11) 
adg

>  <m_score__min__energy>  (11) 
-9.4800000000000004

>  <m_primary>  (11) 
energy

$$$$
11:0
     RDKit          3D

 21 23  0  0  0  0  0  0  0  0999 V2000
   -4.2770   20.1690  -33.2410 Cl  0  0  0  0  0  0  0  0  0  0  0  0
   -4.8780   21.5690  -32.3710 C   0  0  0  0  0  0  0  0  0  0  0  0
   -4.1000   22.6330  -32.0590 N   0  0  0  0  0  0  0  0  0  0  0  0
   -4.9360   23.4250  -31.3600 C   0  0  0  0  0  0  0  0  0  0  0  0
   -4.6030   24.6360  -30.8480 N   0  0  0  0  0  0  0  0  0  0  0  0
   -5.5510   25.3540  -30.1780 C   0  0  0  0  0  0  0  0  0  0  0  0
   -6.8570   24.8500  -30.0330 C   0  0  0  0  0  0  0  0  0  0  0  0
   -7.1630   23.5980  -30.5780 C   0  0  0  0  0  0  0  0  0  0  0  0
   -6.1710   22.9210  -31.2140 N   0  0  0  0  0  0  0  0  0  0  0  0
   -6.1570   21.7350  -31.8490 C   0  0  0  0  0  0  0  0  0  0  0  0
   -7.2860   20.7870  -31.9440 C   0  0  0  0  0  0  0  0  0  0  0  0
   -8.5860   21.1700  -32.3110 C   0  0  0  0  0  0  0  0  0  0  0  0
   -9.4860   20.1150  -32.3530 C   0  0  0  0  0  0  0  0  0  0  0  0
   -8.6630   18.7100  -31.9420 S   0  0  0  0  0  0  0  0  0  0  0  0
   -7.1600   19.4220  -31.7020 C   0  0  0  0  0  0  0  0  0  0  0  0
   -5.2925   26.3331  -29.7485 H   0  0  0  0  0  0  0  0  0  0  0  0
   -7.6244   25.4306  -29.5001 H   0  0  0  0  0  0  0  0  0  0  0  0
   -8.1749   23.1750  -30.4942 H   0  0  0  0  0  0  0  0  0  0  0  0
   -8.8646   22.2085  -32.5433 H   0  0  0  0  0  0  0  0  0  0  0  0
  -10.5530   20.1864  -32.6107 H   0  0  0  0  0  0  0  0  0  0  0  0
   -6.2379   18.9007  -31.4055 H   0  0  0  0  0  0  0  0  0  0  0  0
  1  2  1  0
  2  3  1  0
  3  4  2  0
  4  5  1  0
  5  6  2  0
  6  7  1  0
  7  8  2  0
  8  9  1  0
  9 10  1  0
 10 11  1  0
 11 12  1  0
 12 13  2  0
 13 14  1  0
 14 15  1  0
 10  2  2  0
 15 11  2  0
  9  4  1  0
  6 16  1  0
  7 17  1  0
  8 18  1  0
 12 19  1  0
 13 20  1  0
 15 21  1  0
M  END
>  <UniqueID>  (12) 
9

>  <SMILES>  (12) 
Clc1nc2ncccn2c1-c1ccsc1

>  <Energy>  (12) 
90.79273511616805

>  <Genealogy>  (12) 
Clc1nc2ncccn2c1-c1ccsc1 (3D coordinates assigned)
Clc1nc2ncccn2c1-c1ccsc1 (optimized conformer: 90.79273511616805 kcal/mol)

>  <smiles>  (12) 
Clc1nc2ncccn2c1-c1ccsc1

>  <score_type>  (12) 
oracle

>  <origin>  (12) 
adg

>  <m_score__min__energy>  (12) 
-6.9699999999999998

>  <m_primary>  (12) 
energy

$$$$
12:0
     RDKit          3D

 62 66  0  0  0  0  0  0  0  0999 V2000
   -5.2530   14.4330  -33.5270 C   0  0  0  0  0  0  0  0  0  0  0  0
   -6.3470   15.2310  -34.2270 C   0  0  0  0  0  0  0  0  0  0  0  0
   -6.2890   16.6750  -33.8240 C   0  0  0  0  0  0  0  0  0  0  0  0
   -6.3050   17.0490  -32.4750 C   0  0  0  0  0  0  0  0  0  0  0  0
   -6.2100   18.3980  -32.1420 C   0  0  0  0  0  0  0  0  0  0  0  0
   -6.1050   19.3460  -33.1630 C   0  0  0  0  0  0  0  0  0  0  0  0
   -5.9760   20.7390  -32.8520 N   0  0  0  0  0  0  0  0  0  0  0  0
   -4.6210   21.3120  -32.8760 C   0  0  0  0  0  0  0  0  0  0  0  0
   -4.5760   22.6840  -32.1910 C   0  0  0  0  0  0  0  0  0  0  0  0
   -5.3890   22.6580  -30.9700 N   0  0  0  0  0  0  0  0  0  0  0  0
   -4.8840   23.2170  -29.7510 C   0  0  0  0  0  0  0  0  0  0  0  0
   -5.3950   24.3830  -29.2710 N   0  0  0  0  0  0  0  0  0  0  0  0
   -4.9650   24.9250  -28.1250 N   0  0  0  0  0  0  0  0  0  0  0  0
   -4.0020   24.3200  -27.3650 C   0  0  0  0  0  0  0  0  0  0  0  0
   -3.5200   24.9700  -26.0940 C   0  0  0  0  0  0  0  0  0  0  0  0
   -2.2250   25.7040  -26.3270 C   0  0  0  0  0  0  0  0  0  0  0  0
   -1.6360   26.4580  -25.2980 C   0  0  0  0  0  0  0  0  0  0  0  0
   -0.4290   27.1280  -25.5170 C   0  0  0  0  0  0  0  0  0  0  0  0
    0.1990   27.0500  -26.7640 C   0  0  0  0  0  0  0  0  0  0  0  0
   -0.3810   26.3040  -27.7930 C   0  0  0  0  0  0  0  0  0  0  0  0
   -1.5890   25.6340  -27.5790 C   0  0  0  0  0  0  0  0  0  0  0  0
   -3.4640   23.1100  -27.8270 C   0  0  0  0  0  0  0  0  0  0  0  0
   -3.8980   22.5690  -29.0040 C   0  0  0  0  0  0  0  0  0  0  0  0
   -3.2400   21.2730  -29.3020 C   0  0  0  0  0  0  0  0  0  0  0  0
   -2.3930   20.9920  -28.0490 C   0  0  0  0  0  0  0  0  0  0  0  0
   -2.4300   22.2610  -27.1790 C   0  0  0  0  0  0  0  0  0  0  0  0
   -6.7640   22.1430  -30.9970 C   0  0  0  0  0  0  0  0  0  0  0  0
   -7.1090   21.5660  -32.3810 C   0  0  2  0  0  0  0  0  0  0  0  0
   -8.4570   20.8230  -32.3450 C   0  0  0  0  0  0  0  0  0  0  0  0
   -8.5290   20.0140  -31.2230 F   0  0  0  0  0  0  0  0  0  0  0  0
   -6.0680   18.9320  -34.4580 N   0  0  0  0  0  0  0  0  0  0  0  0
   -6.1560   17.6390  -34.7780 N   0  0  0  0  0  0  0  0  0  0  0  0
   -5.3746   14.5217  -32.4373 H   0  0  0  0  0  0  0  0  0  0  0  0
   -5.3268   13.3751  -33.8193 H   0  0  0  0  0  0  0  0  0  0  0  0
   -4.2682   14.8263  -33.8193 H   0  0  0  0  0  0  0  0  0  0  0  0
   -6.2100   15.1540  -35.3157 H   0  0  0  0  0  0  0  0  0  0  0  0
   -7.3255   14.8212  -33.9361 H   0  0  0  0  0  0  0  0  0  0  0  0
   -6.3916   16.2862  -31.6872 H   0  0  0  0  0  0  0  0  0  0  0  0
   -6.2175   18.7132  -31.0882 H   0  0  0  0  0  0  0  0  0  0  0  0
   -3.9353   20.6292  -32.3530 H   0  0  0  0  0  0  0  0  0  0  0  0
   -4.3208   21.4417  -33.9263 H   0  0  0  0  0  0  0  0  0  0  0  0
   -3.5354   22.9284  -31.9314 H   0  0  0  0  0  0  0  0  0  0  0  0
   -4.9760   23.4452  -32.8770 H   0  0  0  0  0  0  0  0  0  0  0  0
   -5.3840   25.8300  -27.8140 H   0  0  0  0  0  0  0  0  0  0  0  0
   -4.2805   25.6828  -25.7425 H   0  0  0  0  0  0  0  0  0  0  0  0
   -3.3513   24.1875  -25.3395 H   0  0  0  0  0  0  0  0  0  0  0  0
   -2.1270   26.5213  -24.3157 H   0  0  0  0  0  0  0  0  0  0  0  0
    0.0272   27.7171  -24.7078 H   0  0  0  0  0  0  0  0  0  0  0  0
    1.1498   27.5761  -26.9347 H   0  0  0  0  0  0  0  0  0  0  0  0
    0.1139   26.2437  -28.7735 H   0  0  0  0  0  0  0  0  0  0  0  0
   -2.0436   25.0500  -28.3928 H   0  0  0  0  0  0  0  0  0  0  0  0
   -3.9874   20.4806  -29.4551 H   0  0  0  0  0  0  0  0  0  0  0  0
   -2.6387   21.3041  -30.2226 H   0  0  0  0  0  0  0  0  0  0  0  0
   -2.8141   20.1416  -27.4927 H   0  0  0  0  0  0  0  0  0  0  0  0
   -1.3589   20.7392  -28.3260 H   0  0  0  0  0  0  0  0  0  0  0  0
   -2.7152   22.0181  -26.1448 H   0  0  0  0  0  0  0  0  0  0  0  0
   -1.4516   22.7595  -27.1149 H   0  0  0  0  0  0  0  0  0  0  0  0
   -6.8663   21.3505  -30.2411 H   0  0  0  0  0  0  0  0  0  0  0  0
   -7.4535   22.9725  -30.7811 H   0  0  0  0  0  0  0  0  0  0  0  0
   -7.2477   22.3742  -33.1142 H   0  0  0  0  0  0  0  0  0  0  0  0
   -9.2756   21.5572  -32.3164 H   0  0  0  0  0  0  0  0  0  0  0  0
   -8.5449   20.1964  -33.2448 H   0  0  0  0  0  0  0  0  0  0  0  0
  1  2  1  0
  2  3  1  0
  3  4  2  0
  4  5  1  0
  5  6  2  0
  6  7  1  0
  7  8  1  0
  8  9  1  0
  9 10  1  0
 10 11  1  0
 11 12  2  0
 12 13  1  0
 13 14  2  0
 14 15  1  0
 15 16  1  0
 16 17  2  0
 17 18  1  0
 18 19  2  0
 19 20  1  0
 20 21  2  0
 14 22  1  0
 22 23  2  0
 23 24  1  0
 24 25  1  0
 25 26  1  0
 10 27  1  0
 27 28  1  0
 28 29  1  0
 29 30  1  0
  6 31  1  0
 31 32  2  0
 32  3  1  0
 28  7  1  0
 23 11  1  0
 21 16  1  0
 26 22  1  0
  1 33  1  0
  1 34  1  0
  1 35  1  0
  2 36  1  0
  2 37  1  0
  4 38  1  0
  5 39  1  0
  8 40  1  0
  8 41  1  0
  9 42  1  0
  9 43  1  0
 13 44  1  0
 15 45  1  0
 15 46  1  0
 17 47  1  0
 18 48  1  0
 19 49  1  0
 20 50  1  0
 21 51  1  0
 24 52  1  0
 24 53  1  0
 25 54  1  0
 25 55  1  0
 26 56  1  0
 26 57  1  0
 27 58  1  0
 27 59  1  0
 28 60  1  6
 29 61  1  0
 29 62  1  0
M  CHG  1  13   1
M  END
>  <UniqueID>  (13) 
10

>  <SMILES>  (13) 
CCc1ccc(N2CCN(c3n[nH+]c(Cc4ccccc4)c4c3CCC4)C[C@@H]2CF)nn1

>  <Energy>  (13) 
82.5342744217327

>  <Genealogy>  (13) 
CCc1ccc(N2CCN(c3n[nH+]c(Cc4ccccc4)c4c3CCC4)CC2CF)nn1 (protonated)
CCc1ccc(N2CCN(c3n[nH+]c(Cc4ccccc4)c4c3CCC4)C[C@@H]2CF)nn1 (chirality)
CCc1ccc(N2CCN(c3n[nH+]c(Cc4ccccc4)c4c3CCC4)C[C@@H]2CF)nn1 (3D coordinates assigned)
CCc1ccc(N2CCN(c3n[nH+]c(Cc4ccccc4)c4c3CCC4)C[C@@H]2CF)nn1 (nonaromatic ring conformer: 82.5342744217327 kcal/mol)

>  <smiles>  (13) 
CCc1ccc(N2CCN(c3nnc(Cc4ccccc4)c4c3CCC4)CC2CF)nn1

>  <score_type>  (13) 
oracle

>  <origin>  (13) 
adg

>  <m_score__min__energy>  (13) 
-9.2699999999999996

>  <m_primary>  (13) 
energy

$$$$
13:0
     RDKit          3D

 53 56  0  0  0  0  0  0  0  0999 V2000
   -0.4060   22.0400  -28.3840 C   0  0  0  0  0  0  0  0  0  0  0  0
   -0.1170   23.3170  -28.9450 O   0  0  0  0  0  0  0  0  0  0  0  0
    0.0200   24.5030  -28.2060 C   0  0  0  0  0  0  0  0  0  0  0  0
    1.0690   24.6890  -27.2850 C   0  0  0  0  0  0  0  0  0  0  0  0
    1.1760   25.8760  -26.5650 C   0  0  0  0  0  0  0  0  0  0  0  0
    0.2370   26.8930  -26.7580 C   0  0  0  0  0  0  0  0  0  0  0  0
   -0.8200   26.7150  -27.6550 C   0  0  0  0  0  0  0  0  0  0  0  0
   -0.9310   25.5220  -28.3950 C   0  0  0  0  0  0  0  0  0  0  0  0
   -2.0220   25.2620  -29.2990 N   0  0  0  0  0  0  0  0  0  0  0  0
   -3.2330   24.5180  -29.1110 C   0  0  0  0  0  0  0  0  0  0  0  0
   -3.7450   24.3860  -27.9680 O   0  0  0  0  0  0  0  0  0  0  0  0
   -3.9060   23.9080  -30.2730 C   0  0  0  0  0  0  0  0  0  0  0  0
   -5.1670   24.2360  -30.6490 N   0  0  0  0  0  0  0  0  0  0  0  0
   -5.4090   23.4660  -31.7360 C   0  0  0  0  0  0  0  0  0  0  0  0
   -6.9180   23.5670  -32.7100 S   0  0  0  0  0  0  0  0  0  0  0  0
   -8.0420   22.8040  -31.4730 C   0  0  0  0  0  0  0  0  0  0  0  0
   -8.7410   21.5610  -31.9610 C   0  0  0  0  0  0  0  0  0  0  0  0
   -9.9670   21.6460  -32.2420 O   0  0  0  0  0  0  0  0  0  0  0  0
   -8.0720   20.2860  -32.0840 N   0  0  0  0  0  0  0  0  0  0  0  0
   -8.9020   19.0690  -32.1270 C   0  0  0  0  0  0  0  0  0  0  0  0
   -8.0610   17.7970  -31.9650 C   0  0  0  0  0  0  0  0  0  0  0  0
   -6.8950   17.7790  -32.9590 C   0  0  0  0  0  0  0  0  0  0  0  0
   -6.0960   19.0980  -32.9900 C   0  0  0  0  0  0  0  0  0  0  0  0
   -6.6100   20.1620  -32.0020 C   0  0  0  0  0  0  0  0  0  0  0  0
   -4.3700   22.6830  -32.0480 N   0  0  0  0  0  0  0  0  0  0  0  0
   -4.2240   21.7790  -33.0510 C   0  0  0  0  0  0  0  0  0  0  0  0
   -3.0010   21.1090  -33.1680 C   0  0  0  0  0  0  0  0  0  0  0  0
   -1.9700   21.3830  -32.2500 C   0  0  0  0  0  0  0  0  0  0  0  0
   -2.1690   22.3150  -31.2190 C   0  0  0  0  0  0  0  0  0  0  0  0
   -3.4150   22.9490  -31.1450 C   0  0  0  0  0  0  0  0  0  0  0  0
   -0.3902   22.1097  -27.2863 H   0  0  0  0  0  0  0  0  0  0  0  0
   -1.4015   21.7103  -28.7162 H   0  0  0  0  0  0  0  0  0  0  0  0
    0.3505   21.3138  -28.7162 H   0  0  0  0  0  0  0  0  0  0  0  0
    1.8098   23.8901  -27.1332 H   0  0  0  0  0  0  0  0  0  0  0  0
    1.9974   26.0129  -25.8462 H   0  0  0  0  0  0  0  0  0  0  0  0
    0.3302   27.8374  -26.2017 H   0  0  0  0  0  0  0  0  0  0  0  0
   -1.5687   27.5106  -27.7835 H   0  0  0  0  0  0  0  0  0  0  0  0
   -7.4499   22.5409  -30.5841 H   0  0  0  0  0  0  0  0  0  0  0  0
   -8.8260   23.5448  -31.2572 H   0  0  0  0  0  0  0  0  0  0  0  0
   -9.6403   19.1132  -31.3128 H   0  0  0  0  0  0  0  0  0  0  0  0
   -9.3962   19.0281  -33.1089 H   0  0  0  0  0  0  0  0  0  0  0  0
   -7.6613   17.7581  -30.9409 H   0  0  0  0  0  0  0  0  0  0  0  0
   -8.7026   16.9254  -32.1618 H   0  0  0  0  0  0  0  0  0  0  0  0
   -6.2114   16.9637  -32.6798 H   0  0  0  0  0  0  0  0  0  0  0  0
   -7.3250   17.6362  -33.9614 H   0  0  0  0  0  0  0  0  0  0  0  0
   -5.0477   18.8739  -32.7433 H   0  0  0  0  0  0  0  0  0  0  0  0
   -6.2115   19.5178  -34.0002 H   0  0  0  0  0  0  0  0  0  0  0  0
   -6.3295   19.8701  -30.9792 H   0  0  0  0  0  0  0  0  0  0  0  0
   -6.1585   21.1312  -32.2605 H   0  0  0  0  0  0  0  0  0  0  0  0
   -5.0463   21.5785  -33.7536 H   0  0  0  0  0  0  0  0  0  0  0  0
   -2.8466   20.3737  -33.9714 H   0  0  0  0  0  0  0  0  0  0  0  0
   -1.0040   20.8647  -32.3407 H   0  0  0  0  0  0  0  0  0  0  0  0
   -1.3728   22.5395  -30.4939 H   0  0  0  0  0  0  0  0  0  0  0  0
  1  2  1  0
  2  3  1  0
  3  4  2  0
  4  5  1  0
  5  6  2  0
  6  7  1  0
  7  8  2  0
  8  9  1  0
  9 10  1  0
 10 11  2  0
 10 12  1  0
 12 13  1  0
 13 14  2  0
 14 15  1  0
 15 16  1  0
 16 17  1  0
 17 18  2  0
 17 19  1  0
 19 20  1  0
 20 21  1  0
 21 22  1  0
 22 23  1  0
 23 24  1  0
 14 25  1  0
 25 26  1  0
 26 27  2  0
 27 28  1  0
 28 29  2  0
 29 30  1  0
  8  3  1  0
 30 12  2  0
 24 19  1  0
 30 25  1  0
  1 31  1  0
  1 32  1  0
  1 33  1  0
  4 34  1  0
  5 35  1  0
  6 36  1  0
  7 37  1  0
 16 38  1  0
 16 39  1  0
 20 40  1  0
 20 41  1  0
 21 42  1  0
 21 43  1  0
 22 44  1  0
 22 45  1  0
 23 46  1  0
 23 47  1  0
 24 48  1  0
 24 49  1  0
 26 50  1  0
 27 51  1  0
 28 52  1  0
 29 53  1  0
M  CHG  1   9  -1
M  END
>  <UniqueID>  (14) 
11

>  <SMILES>  (14) 
COc1ccccc1[N-]C(=O)c1nc(SCC(=O)N2CCCCC2)n2ccccc12

>  <Energy>  (14) 
94.96296043541179

>  <Genealogy>  (14) 
COc1ccccc1[N-]C(=O)c1nc(SCC(=O)N2CCCCC2)n2ccccc12 (protonated)
COc1ccccc1[N-]C(=O)c1nc(SCC(=O)N2CCCCC2)n2ccccc12 (3D coordinates assigned)
COc1ccccc1[N-]C(=O)c1nc(SCC(=O)N2CCCCC2)n2ccccc12 (nonaromatic ring conformer: 94.96296043541179 kcal/mol)

>  <smiles>  (14) 
COc1ccccc1NC(=O)c1nc(SCC(=O)N2CCCCC2)n2ccccc12

>  <score_type>  (14) 
oracle

>  <origin>  (14) 
adg

>  <m_score__min__energy>  (14) 
-11.050000000000001

>  <m_primary>  (14) 
energy

$$$$
14:0
     RDKit          3D

 36 38  0  0  0  0  0  0  0  0999 V2000
   -3.7720   25.2880  -30.4910 O   0  0  0  0  0  0  0  0  0  0  0  0
   -4.4880   24.2530  -30.5380 C   0  0  0  0  0  0  0  0  0  0  0  0
   -5.6490   24.1280  -29.5900 C   0  0  0  0  0  0  0  0  0  0  0  0
   -7.2280   24.4050  -30.4630 S   0  0  0  0  0  0  0  0  0  0  0  0
   -7.4120   22.7010  -30.9840 C   0  0  0  0  0  0  0  0  0  0  0  0
   -6.3670   21.8810  -31.2440 N   0  0  0  0  0  0  0  0  0  0  0  0
   -6.7860   20.6460  -31.6230 C   0  0  0  0  0  0  0  0  0  0  0  0
   -5.9430   19.5850  -31.9630 C   0  0  0  0  0  0  0  0  0  0  0  0
   -6.5200   18.3590  -32.3390 C   0  0  0  0  0  0  0  0  0  0  0  0
   -7.9200   18.2080  -32.3690 C   0  0  0  0  0  0  0  0  0  0  0  0
   -8.7580   19.2820  -32.0260 C   0  0  0  0  0  0  0  0  0  0  0  0
   -8.1640   20.4860  -31.6580 C   0  0  0  0  0  0  0  0  0  0  0  0
   -8.9010   21.9270  -31.2040 S   0  0  0  0  0  0  0  0  0  0  0  0
   -4.2060   23.2660  -31.5380 N   0  0  0  0  0  0  0  0  0  0  0  0
   -2.9940   22.4520  -31.6230 C   0  0  0  0  0  0  0  0  0  0  0  0
   -2.9940   21.3370  -30.5630 C   0  0  1  0  0  0  0  0  0  0  0  0
   -1.6440   21.2020  -29.8590 C   0  0  0  0  0  0  0  0  0  0  0  0
   -1.9040   21.7560  -28.4920 C   0  0  0  0  0  0  0  0  0  0  0  0
   -3.3950   21.5730  -28.3320 C   0  0  0  0  0  0  0  0  0  0  0  0
   -4.0000   21.5820  -29.6030 O   0  0  0  0  0  0  0  0  0  0  0  0
   -5.6507   23.1188  -29.1523 H   0  0  0  0  0  0  0  0  0  0  0  0
   -5.5438   24.8865  -28.8003 H   0  0  0  0  0  0  0  0  0  0  0  0
   -5.3650   22.1670  -31.1680 H   0  0  0  0  0  0  0  0  0  0  0  0
   -4.8500   19.7062  -31.9371 H   0  0  0  0  0  0  0  0  0  0  0  0
   -5.8734   17.5119  -32.6116 H   0  0  0  0  0  0  0  0  0  0  0  0
   -8.3598   17.2435  -32.6627 H   0  0  0  0  0  0  0  0  0  0  0  0
   -9.8525   19.1747  -32.0476 H   0  0  0  0  0  0  0  0  0  0  0  0
   -2.9379   21.9962  -32.6225 H   0  0  0  0  0  0  0  0  0  0  0  0
   -2.1255   23.1025  -31.4426 H   0  0  0  0  0  0  0  0  0  0  0  0
   -3.1932   20.3921  -31.0897 H   0  0  0  0  0  0  0  0  0  0  0  0
   -1.3335   20.1482  -29.8034 H   0  0  0  0  0  0  0  0  0  0  0  0
   -0.8325   21.7256  -30.3857 H   0  0  0  0  0  0  0  0  0  0  0  0
   -1.3516   21.1931  -27.7252 H   0  0  0  0  0  0  0  0  0  0  0  0
   -1.5797   22.8009  -28.3777 H   0  0  0  0  0  0  0  0  0  0  0  0
   -3.5968   20.6127  -27.8349 H   0  0  0  0  0  0  0  0  0  0  0  0
   -3.8049   22.3908  -27.7211 H   0  0  0  0  0  0  0  0  0  0  0  0
  1  2  2  0
  2  3  1  0
  3  4  1  0
  4  5  1  0
  5  6  2  0
  6  7  1  0
  7  8  2  0
  8  9  1  0
  9 10  2  0
 10 11  1  0
 11 12  2  0
 12 13  1  0
  2 14  1  0
 14 15  1  0
 15 16  1  0
 16 17  1  0
 17 18  1  0
 18 19  1  0
 19 20  1  0
 13  5  1  0
 20 16  1  0
 12  7  1  0
  3 21  1  0
  3 22  1  0
  6 23  1  0
  8 24  1  0
  9 25  1  0
 10 26  1  0
 11 27  1  0
 15 28  1  0
 15 29  1  0
 16 30  1  6
 17 31  1  0
 17 32  1  0
 18 33  1  0
 18 34  1  0
 19 35  1  0
 19 36  1  0
M  CHG  2   6   1  14  -1
M  END
>  <UniqueID>  (15) 
12

>  <SMILES>  (15) 
O=C(CSc1[nH+]c2ccccc2s1)[N-]C[C@H]1CCCO1

>  <Energy>  (15) 
64.63054581457097

>  <Genealogy>  (15) 
O=C(CSc1[nH+]c2ccccc2s1)[N-]CC1CCCO1 (protonated)
O=C(CSc1[nH+]c2ccccc2s1)[N-]C[C@H]1CCCO1 (chirality)
O=C(CSc1[nH+]c2ccccc2s1)[N-]C[C@H]1CCCO1 (3D coordinates assigned)
O=C(CSc1[nH+]c2ccccc2s1)[N-]C[C@H]1CCCO1 (nonaromatic ring conformer: 64.63054581457097 kcal/mol)

>  <smiles>  (15) 
O=C(CSc1nc2ccccc2s1)NCC1CCCO1

>  <score_type>  (15) 
oracle

>  <origin>  (15) 
adg

>  <m_score__min__energy>  (15) 
-9.2100000000000009

>  <m_primary>  (15) 
energy

$$$$
15:0
     RDKit          3D

 55 58  0  0  0  0  0  0  0  0999 V2000
    0.1282   24.2181  -25.0237 H   0  0  0  0  0  0  0  0  0  0  0  0
    1.0950   24.1980  -25.5480 C   0  0  0  0  0  0  0  0  0  0  0  0
    2.2740   24.4330  -24.9120 N   0  0  0  0  0  0  0  0  0  0  0  0
    3.3260   24.3540  -25.7530 C   0  0  0  0  0  0  0  0  0  0  0  0
    4.6420   24.5580  -25.3310 O   0  0  0  0  0  0  0  0  0  0  0  0
    4.9730   25.3450  -24.1930 C   0  0  0  0  0  0  0  0  0  0  0  0
    4.7367   24.7831  -23.2773 H   0  0  0  0  0  0  0  0  0  0  0  0
    6.0470   25.5820  -24.2109 H   0  0  0  0  0  0  0  0  0  0  0  0
    4.3912   26.2784  -24.2109 H   0  0  0  0  0  0  0  0  0  0  0  0
    2.8380   23.9940  -27.3220 S   0  0  0  0  0  0  0  0  0  0  0  0
    1.2000   23.9290  -26.9160 C   0  0  0  0  0  0  0  0  0  0  0  0
    0.0860   23.6490  -27.8600 C   0  0  0  0  0  0  0  0  0  0  0  0
   -0.0140   22.3900  -28.4870 C   0  0  0  0  0  0  0  0  0  0  0  0
    0.7330   21.6128  -28.2681 H   0  0  0  0  0  0  0  0  0  0  0  0
   -1.0520   22.1180  -29.3840 C   0  0  0  0  0  0  0  0  0  0  0  0
   -1.1185   21.1317  -29.8666 H   0  0  0  0  0  0  0  0  0  0  0  0
   -2.0030   23.0990  -29.6660 C   0  0  0  0  0  0  0  0  0  0  0  0
   -3.0120   22.8570  -30.5410 N   0  0  0  0  0  0  0  0  0  0  0  0
   -3.9410   23.8160  -30.8110 C   0  0  0  0  0  0  0  0  0  0  0  0
   -4.8960   23.6110  -31.6700 N   0  0  0  0  0  0  0  0  0  0  0  0
   -5.5920   22.3740  -31.8960 C   0  0  0  0  0  0  0  0  0  0  0  0
   -6.9620   22.3110  -31.6170 C   0  0  0  0  0  0  0  0  0  0  0  0
   -7.4856   23.2060  -31.2498 H   0  0  0  0  0  0  0  0  0  0  0  0
   -7.6700   21.1210  -31.8010 C   0  0  0  0  0  0  0  0  0  0  0  0
   -8.7514   21.0924  -31.6014 H   0  0  0  0  0  0  0  0  0  0  0  0
   -7.0110   19.9610  -32.2390 C   0  0  0  0  0  0  0  0  0  0  0  0
   -7.7410   18.7360  -32.4450 N   0  0  0  0  0  0  0  0  0  0  0  0
   -8.9240   18.4550  -31.6250 C   0  0  0  0  0  0  0  0  0  0  0  0
   -8.6556   18.5188  -30.5602 H   0  0  0  0  0  0  0  0  0  0  0  0
   -9.7094   19.1916  -31.8499 H   0  0  0  0  0  0  0  0  0  0  0  0
   -9.2943   17.4439  -31.8499 H   0  0  0  0  0  0  0  0  0  0  0  0
   -7.2640   17.7390  -33.4170 C   0  0  0  0  0  0  0  0  0  0  0  0
   -8.0938   17.0660  -33.6790 H   0  0  0  0  0  0  0  0  0  0  0  0
   -6.8996   18.2666  -34.3108 H   0  0  0  0  0  0  0  0  0  0  0  0
   -6.1110   16.9110  -32.8330 C   0  0  0  0  0  0  0  0  0  0  0  0
   -5.7538   17.3932  -31.9111 H   0  0  0  0  0  0  0  0  0  0  0  0
   -6.4819   15.8973  -32.6212 H   0  0  0  0  0  0  0  0  0  0  0  0
   -4.9880   16.8090  -33.7910 N   0  0  0  0  0  0  0  0  0  0  0  0
   -3.7210   17.1650  -33.1310 C   0  0  0  0  0  0  0  0  0  0  0  0
   -3.8530   17.1279  -32.0396 H   0  0  0  0  0  0  0  0  0  0  0  0
   -2.9387   16.4519  -33.4302 H   0  0  0  0  0  0  0  0  0  0  0  0
   -3.4246   18.1812  -33.4302 H   0  0  0  0  0  0  0  0  0  0  0  0
   -5.2030   17.6840  -34.9550 C   0  0  0  0  0  0  0  0  0  0  0  0
   -5.4522   18.6984  -34.6101 H   0  0  0  0  0  0  0  0  0  0  0  0
   -4.2865   17.7181  -35.5624 H   0  0  0  0  0  0  0  0  0  0  0  0
   -6.0309   17.2894  -35.5624 H   0  0  0  0  0  0  0  0  0  0  0  0
   -5.6280   20.0150  -32.4840 C   0  0  0  0  0  0  0  0  0  0  0  0
   -5.0966   19.1109  -32.8159 H   0  0  0  0  0  0  0  0  0  0  0  0
   -4.9230   21.2090  -32.3090 C   0  0  0  0  0  0  0  0  0  0  0  0
   -3.8393   21.2371  -32.4954 H   0  0  0  0  0  0  0  0  0  0  0  0
   -3.8400   25.0290  -30.2050 N   0  0  0  0  0  0  0  0  0  0  0  0
   -2.8570   25.2910  -29.3420 N   0  0  0  0  0  0  0  0  0  0  0  0
   -1.9200   24.3540  -29.0470 C   0  0  0  0  0  0  0  0  0  0  0  0
   -0.8850   24.6300  -28.1470 C   0  0  0  0  0  0  0  0  0  0  0  0
   -0.8287   25.6156  -27.6618 H   0  0  0  0  0  0  0  0  0  0  0  0
  1  2  1  0
  2  3  1  0
  3  4  2  0
  4  5  1  0
  5  6  1  0
  6  7  1  0
  6  8  1  0
  6  9  1  0
  4 10  1  0
 10 11  1  0
 11 12  1  0
 12 13  2  0
 13 14  1  0
 13 15  1  0
 15 16  1  0
 15 17  2  0
 17 18  1  0
 18 19  1  0
 19 20  2  0
 20 21  1  0
 21 22  2  0
 22 23  1  0
 22 24  1  0
 24 25  1  0
 24 26  2  0
 26 27  1  0
 27 28  1  0
 28 29  1  0
 28 30  1  0
 28 31  1  0
 27 32  1  0
 32 33  1  0
 32 34  1  0
 32 35  1  0
 35 36  1  0
 35 37  1  0
 35 38  1  0
 38 39  1  0
 39 40  1  0
 39 41  1  0
 39 42  1  0
 38 43  1  0
 43 44  1  0
 43 45  1  0
 43 46  1  0
 26 47  1  0
 47 48  1  0
 47 49  2  0
 49 50  1  0
 19 51  1  0
 51 52  2  0
 52 53  1  0
 53 54  2  0
 54 55  1  0
 11  2  2  0
 54 12  1  0
 53 17  1  0
 49 21  1  0
M  CHG  1  18  -1
M  END
>  <UniqueID>  (16) 
13

>  <SMILES>  (16) 
COc1ncc(-c2ccc3[n-]/c(=N\c4ccc(N(C)CCN(C)C)cc4)nnc3c2)s1

>  <Energy>  (16) 
100.07422501937783

>  <Genealogy>  (16) 
COc1ncc(-c2ccc3[n-]c(=Nc4ccc(N(C)CCN(C)C)cc4)nnc3c2)s1 (protonated)
COc1ncc(-c2ccc3[n-]/c(=N\c4ccc(N(C)CCN(C)C)cc4)nnc3c2)s1 (cis-trans isomerization)
COc1ncc(-c2ccc3[n-]/c(=N\c4ccc(N(C)CCN(C)C)cc4)nnc3c2)s1 (3D coordinates assigned)
COc1ncc(-c2ccc3[n-]/c(=N\c4ccc(N(C)CCN(C)C)cc4)nnc3c2)s1 (optimized conformer: 100.07422501937783 kcal/mol)

>  <smiles>  (16) 
COc1ncc(-c2ccc3[nH]c(=Nc4ccc(N(C)CCN(C)C)cc4)nnc3c2)s1

>  <score_type>  (16) 
oracle

>  <origin>  (16) 
adg

>  <m_score__min__energy>  (16) 
-9.2400000000000002

>  <m_primary>  (16) 
energy

$$$$
16:0
     RDKit          3D

 32 33  0  0  0  0  0  0  0  0999 V2000
   -6.4760   16.0330  -34.2070 C   0  0  0  0  0  0  0  0  0  0  0  0
   -6.5320   17.4150  -33.6370 C   0  0  0  0  0  0  0  0  0  0  0  0
   -5.6250   18.3450  -34.0340 N   0  0  0  0  0  0  0  0  0  0  0  0
   -5.6600   19.6100  -33.5480 C   0  0  0  0  0  0  0  0  0  0  0  0
   -6.6420   19.9810  -32.6250 C   0  0  0  0  0  0  0  0  0  0  0  0
   -6.6750   21.3670  -32.1120 C   0  0  0  0  0  0  0  0  0  0  0  0
   -7.8570   22.0980  -32.2900 C   0  0  0  0  0  0  0  0  0  0  0  0
   -7.9460   23.4150  -31.8500 C   0  0  0  0  0  0  0  0  0  0  0  0
   -6.8570   24.0220  -31.2310 C   0  0  0  0  0  0  0  0  0  0  0  0
   -5.6550   23.3160  -31.0320 C   0  0  0  0  0  0  0  0  0  0  0  0
   -4.5160   24.0080  -30.3790 C   0  0  0  0  0  0  0  0  0  0  0  0
   -4.0620   25.0890  -30.8400 O   0  0  0  0  0  0  0  0  0  0  0  0
   -5.5610   21.9640  -31.4640 C   0  0  0  0  0  0  0  0  0  0  0  0
   -4.2880   21.1790  -31.2290 C   0  0  0  0  0  0  0  0  0  0  0  0
   -7.5700   19.0050  -32.2100 C   0  0  0  0  0  0  0  0  0  0  0  0
   -8.6530   19.3370  -31.2190 C   0  0  0  0  0  0  0  0  0  0  0  0
   -7.4990   17.7480  -32.7370 N   0  0  0  0  0  0  0  0  0  0  0  0
   -6.4463   15.2994  -33.3878 H   0  0  0  0  0  0  0  0  0  0  0  0
   -7.3677   15.8553  -34.8261 H   0  0  0  0  0  0  0  0  0  0  0  0
   -5.5729   15.9280  -34.8261 H   0  0  0  0  0  0  0  0  0  0  0  0
   -4.9137   20.3464  -33.8808 H   0  0  0  0  0  0  0  0  0  0  0  0
   -8.7212   21.6271  -32.7813 H   0  0  0  0  0  0  0  0  0  0  0  0
   -8.8801   23.9784  -31.9918 H   0  0  0  0  0  0  0  0  0  0  0  0
   -6.9363   25.0658  -30.8932 H   0  0  0  0  0  0  0  0  0  0  0  0
   -4.0610   23.5701  -29.4783 H   0  0  0  0  0  0  0  0  0  0  0  0
   -4.1167   21.0734  -30.1476 H   0  0  0  0  0  0  0  0  0  0  0  0
   -4.3826   20.1821  -31.6843 H   0  0  0  0  0  0  0  0  0  0  0  0
   -3.4398   21.7111  -31.6843 H   0  0  0  0  0  0  0  0  0  0  0  0
   -8.2640   19.2177  -30.1970 H   0  0  0  0  0  0  0  0  0  0  0  0
   -8.9800   20.3767  -31.3678 H   0  0  0  0  0  0  0  0  0  0  0  0
   -9.5065   18.6593  -31.3678 H   0  0  0  0  0  0  0  0  0  0  0  0
   -8.1950   17.0220  -32.4480 H   0  0  0  0  0  0  0  0  0  0  0  0
  1  2  1  0
  2  3  2  0
  3  4  1  0
  4  5  2  0
  5  6  1  0
  6  7  2  0
  7  8  1  0
  8  9  2  0
  9 10  1  0
 10 11  1  0
 11 12  2  0
 10 13  2  0
 13 14  1  0
  5 15  1  0
 15 16  1  0
 15 17  2  0
 17  2  1  0
 13  6  1  0
  1 18  1  0
  1 19  1  0
  1 20  1  0
  4 21  1  0
  7 22  1  0
  8 23  1  0
  9 24  1  0
 11 25  1  0
 14 26  1  0
 14 27  1  0
 14 28  1  0
 16 29  1  0
 16 30  1  0
 16 31  1  0
 17 32  1  0
M  CHG  1  17   1
M  END
>  <UniqueID>  (17) 
14

>  <SMILES>  (17) 
Cc1ncc(-c2cccc(C=O)c2C)c(C)[nH+]1

>  <Energy>  (17) 
42.68506105523461

>  <Genealogy>  (17) 
Cc1ncc(-c2cccc(C=O)c2C)c(C)[nH+]1 (protonated)
Cc1ncc(-c2cccc(C=O)c2C)c(C)[nH+]1 (3D coordinates assigned)
Cc1ncc(-c2cccc(C=O)c2C)c(C)[nH+]1 (optimized conformer: 42.68506105523461 kcal/mol)

>  <smiles>  (17) 
Cc1ncc(-c2cccc(C=O)c2C)c(C)n1

>  <score_type>  (17) 
oracle

>  <origin>  (17) 
adg

>  <m_score__min__energy>  (17) 
-7.1600000000000001

>  <m_primary>  (17) 
energy

$$$$
17:0
     RDKit          3D

 49 52  0  0  0  0  0  0  0  0999 V2000
   -2.9540   18.8730  -26.2720 C   0  0  0  0  0  0  0  0  0  0  0  0
   -2.6860   19.9700  -27.2950 C   0  0  0  0  0  0  0  0  0  0  0  0
   -1.9380   21.0370  -26.7100 O   0  0  0  0  0  0  0  0  0  0  0  0
   -1.4810   22.1810  -27.3890 C   0  0  0  0  0  0  0  0  0  0  0  0
   -0.1200   22.5390  -27.4530 C   0  0  0  0  0  0  0  0  0  0  0  0
    0.2710   23.6970  -28.1300 C   0  0  0  0  0  0  0  0  0  0  0  0
   -0.6820   24.4980  -28.7620 C   0  0  0  0  0  0  0  0  0  0  0  0
   -2.0410   24.1370  -28.7320 C   0  0  0  0  0  0  0  0  0  0  0  0
   -3.0310   24.9200  -29.3430 O   0  0  0  0  0  0  0  0  0  0  0  0
   -4.1260   24.4280  -30.0690 C   0  0  0  0  0  0  0  0  0  0  0  0
   -3.9390   23.3110  -30.8920 C   0  0  0  0  0  0  0  0  0  0  0  0
   -5.0010   22.8000  -31.6430 C   0  0  0  0  0  0  0  0  0  0  0  0
   -6.2660   23.4080  -31.5900 C   0  0  0  0  0  0  0  0  0  0  0  0
   -7.4090   22.8660  -32.4060 C   0  0  0  0  0  0  0  0  0  0  0  0
   -7.5890   21.4340  -32.1470 N   0  0  0  0  0  0  0  0  0  0  0  0
   -8.4770   20.8420  -31.3000 C   0  0  0  0  0  0  0  0  0  0  0  0
   -9.4770   21.5890  -30.4740 C   0  0  0  0  0  0  0  0  0  0  0  0
   -8.3490   19.4890  -31.2370 N   0  0  0  0  0  0  0  0  0  0  0  0
   -7.3350   19.2430  -32.0840 C   0  0  0  0  0  0  0  0  0  0  0  0
   -6.7640   18.0180  -32.4100 C   0  0  0  0  0  0  0  0  0  0  0  0
   -5.6920   18.0280  -33.3210 C   0  0  0  0  0  0  0  0  0  0  0  0
   -5.2370   19.2540  -33.8580 C   0  0  0  0  0  0  0  0  0  0  0  0
   -5.8350   20.4340  -33.5030 N   0  0  0  0  0  0  0  0  0  0  0  0
   -6.8750   20.4010  -32.6260 C   0  0  0  0  0  0  0  0  0  0  0  0
   -6.4500   24.5390  -30.7800 C   0  0  0  0  0  0  0  0  0  0  0  0
   -5.3860   25.0510  -30.0310 C   0  0  0  0  0  0  0  0  0  0  0  0
   -2.4290   22.9890  -28.0310 C   0  0  0  0  0  0  0  0  0  0  0  0
   -2.8532   19.2854  -25.2572 H   0  0  0  0  0  0  0  0  0  0  0  0
   -3.9736   18.4840  -26.4101 H   0  0  0  0  0  0  0  0  0  0  0  0
   -2.2286   18.0577  -26.4101 H   0  0  0  0  0  0  0  0  0  0  0  0
   -2.1154   19.5479  -28.1354 H   0  0  0  0  0  0  0  0  0  0  0  0
   -3.6496   20.3666  -27.6475 H   0  0  0  0  0  0  0  0  0  0  0  0
    0.6372   21.9050  -26.9685 H   0  0  0  0  0  0  0  0  0  0  0  0
    1.3337   23.9787  -28.1652 H   0  0  0  0  0  0  0  0  0  0  0  0
   -0.3691   25.4139  -29.2848 H   0  0  0  0  0  0  0  0  0  0  0  0
   -2.9500   22.8326  -30.9479 H   0  0  0  0  0  0  0  0  0  0  0  0
   -4.8453   21.9164  -32.2794 H   0  0  0  0  0  0  0  0  0  0  0  0
   -8.3316   23.4015  -32.1377 H   0  0  0  0  0  0  0  0  0  0  0  0
   -7.1848   23.0098  -33.4733 H   0  0  0  0  0  0  0  0  0  0  0  0
   -9.2635   21.4295  -29.4068 H   0  0  0  0  0  0  0  0  0  0  0  0
   -9.4137   22.6628  -30.7041 H   0  0  0  0  0  0  0  0  0  0  0  0
  -10.4887   21.2237  -30.7041 H   0  0  0  0  0  0  0  0  0  0  0  0
   -7.1353   17.0791  -31.9734 H   0  0  0  0  0  0  0  0  0  0  0  0
   -5.2091   17.0843  -33.6147 H   0  0  0  0  0  0  0  0  0  0  0  0
   -4.3958   19.2604  -34.5668 H   0  0  0  0  0  0  0  0  0  0  0  0
   -5.4850   21.3310  -33.9040 H   0  0  0  0  0  0  0  0  0  0  0  0
   -7.4357   25.0250  -30.7341 H   0  0  0  0  0  0  0  0  0  0  0  0
   -5.5354   25.9458  -29.4088 H   0  0  0  0  0  0  0  0  0  0  0  0
   -3.4938   22.7172  -27.9834 H   0  0  0  0  0  0  0  0  0  0  0  0
  1  2  1  0
  2  3  1  0
  3  4  1  0
  4  5  2  0
  5  6  1  0
  6  7  2  0
  7  8  1  0
  8  9  1  0
  9 10  1  0
 10 11  2  0
 11 12  1  0
 12 13  2  0
 13 14  1  0
 14 15  1  0
 15 16  1  0
 16 17  1  0
 16 18  2  0
 18 19  1  0
 19 20  2  0
 20 21  1  0
 21 22  2  0
 22 23  1  0
 23 24  2  0
 13 25  1  0
 25 26  2  0
  8 27  2  0
 27  4  1  0
 26 10  1  0
 24 15  1  0
 24 19  1  0
  1 28  1  0
  1 29  1  0
  1 30  1  0
  2 31  1  0
  2 32  1  0
  5 33  1  0
  6 34  1  0
  7 35  1  0
 11 36  1  0
 12 37  1  0
 14 38  1  0
 14 39  1  0
 17 40  1  0
 17 41  1  0
 17 42  1  0
 20 43  1  0
 21 44  1  0
 22 45  1  0
 23 46  1  0
 25 47  1  0
 26 48  1  0
 27 49  1  0
M  CHG  1  23   1
M  END
>  <UniqueID>  (18) 
15

>  <SMILES>  (18) 
CCOc1cccc(Oc2ccc(Cn3c(C)nc4ccc[nH+]c43)cc2)c1

>  <Energy>  (18) 
94.17292431104482

>  <Genealogy>  (18) 
CCOc1cccc(Oc2ccc(Cn3c(C)nc4ccc[nH+]c43)cc2)c1 (protonated)
CCOc1cccc(Oc2ccc(Cn3c(C)nc4ccc[nH+]c43)cc2)c1 (3D coordinates assigned)
CCOc1cccc(Oc2ccc(Cn3c(C)nc4ccc[nH+]c43)cc2)c1 (optimized conformer: 94.17292431104482 kcal/mol)

>  <smiles>  (18) 
CCOc1cccc(Oc2ccc(Cn3c(C)nc4cccnc43)cc2)c1

>  <score_type>  (18) 
oracle

>  <origin>  (18) 
adg

>  <m_score__min__energy>  (18) 
-8.6899999999999995

>  <m_primary>  (18) 
energy

$$$$
18:0
     RDKit          3D

 51 53  0  0  1  0  0  0  0  0999 V2000
   -5.7150   20.4150  -33.1110 C   0  0  0  0  0  0  0  0  0  0  0  0
   -7.1260   20.0320  -33.3720 C   0  0  0  0  0  0  0  0  0  0  0  0
   -7.8840   19.6890  -32.1470 N   0  0  0  0  0  0  0  0  0  0  0  0
   -7.7520   18.2960  -31.9360 C   0  0  0  0  0  0  0  0  0  0  0  0
   -6.5300   17.7840  -31.2690 C   0  0  0  0  0  0  0  0  0  0  0  0
   -9.2060   20.2220  -32.3550 C   0  0  0  0  0  0  0  0  0  0  0  0
   -9.5020   21.3530  -31.4570 C   0  0  0  0  0  0  0  0  0  0  0  0
   -8.2880   22.2710  -31.3100 C   0  0  0  0  0  0  0  0  0  0  0  0
   -7.8770   23.0550  -32.3670 C   0  0  0  0  0  0  0  0  0  0  0  0
   -6.7670   23.8580  -32.1470 C   0  0  0  0  0  0  0  0  0  0  0  0
   -6.0970   23.8820  -30.9380 C   0  0  0  0  0  0  0  0  0  0  0  0
   -4.9610   24.7160  -30.7360 N   0  0  0  0  0  0  0  0  0  0  0  0
   -3.8290   24.1820  -30.4390 C   0  0  0  0  0  0  0  0  0  0  0  0
   -3.2930   23.1710  -31.1460 N   0  0  0  0  0  0  0  0  0  0  0  0
   -2.0980   22.6390  -30.7940 C   0  0  0  0  0  0  0  0  0  0  0  0
   -1.5100   21.5410  -31.5530 C   0  0  0  0  0  0  0  0  0  0  0  0
   -1.9860   21.0770  -32.7390 C   0  0  0  0  0  0  0  0  0  0  0  0
   -1.4030   20.0270  -33.4370 C   0  0  0  0  0  0  0  0  0  0  0  0
   -0.2850   19.4440  -32.8740 C   0  0  0  0  0  0  0  0  0  0  0  0
    0.2150   19.8800  -31.6990 N   0  0  0  0  0  0  0  0  0  0  0  0
   -0.3790   20.9140  -31.0340 C   0  0  0  0  0  0  0  0  0  0  0  0
   -1.4570   23.1690  -29.6940 C   0  0  0  0  0  0  0  0  0  0  0  0
   -2.0110   24.2210  -28.9570 C   0  0  0  0  0  0  0  0  0  0  0  0
   -3.2010   24.7130  -29.3490 N   0  0  0  0  0  0  0  0  0  0  0  0
   -6.5170   23.0910  -29.8800 C   0  0  0  0  0  0  0  0  0  0  0  0
   -7.6210   22.2920  -30.1010 C   0  0  0  0  0  0  0  0  0  0  0  0
   -5.5425   20.4618  -32.0256 H   0  0  0  0  0  0  0  0  0  0  0  0
   -5.0434   19.6667  -33.5570 H   0  0  0  0  0  0  0  0  0  0  0  0
   -5.5140   21.4002  -33.5570 H   0  0  0  0  0  0  0  0  0  0  0  0
   -7.6292   20.8754  -33.8675 H   0  0  0  0  0  0  0  0  0  0  0  0
   -7.1041   19.1297  -34.0007 H   0  0  0  0  0  0  0  0  0  0  0  0
   -8.6100   17.9795  -31.3247 H   0  0  0  0  0  0  0  0  0  0  0  0
   -7.6933   17.8789  -32.9521 H   0  0  0  0  0  0  0  0  0  0  0  0
   -6.6581   17.8377  -30.1778 H   0  0  0  0  0  0  0  0  0  0  0  0
   -6.3600   16.7390  -31.5673 H   0  0  0  0  0  0  0  0  0  0  0  0
   -5.6658   18.3957  -31.5673 H   0  0  0  0  0  0  0  0  0  0  0  0
   -9.2885   20.5665  -33.3964 H   0  0  0  0  0  0  0  0  0  0  0  0
   -9.9290   19.4220  -32.1374 H   0  0  0  0  0  0  0  0  0  0  0  0
  -10.3413   21.9308  -31.8714 H   0  0  0  0  0  0  0  0  0  0  0  0
   -9.7603   20.9535  -30.4652 H   0  0  0  0  0  0  0  0  0  0  0  0
   -8.4015   23.0445  -33.3339 H   0  0  0  0  0  0  0  0  0  0  0  0
   -6.4068   24.4993  -32.9649 H   0  0  0  0  0  0  0  0  0  0  0  0
   -2.8780   21.5574  -33.1675 H   0  0  0  0  0  0  0  0  0  0  0  0
   -1.8135   19.6757  -34.3952 H   0  0  0  0  0  0  0  0  0  0  0  0
    0.2073   18.6084  -33.3932 H   0  0  0  0  0  0  0  0  0  0  0  0
    0.0405   21.2564  -30.0765 H   0  0  0  0  0  0  0  0  0  0  0  0
   -0.4853   22.7539  -29.3883 H   0  0  0  0  0  0  0  0  0  0  0  0
   -1.4888   24.6346  -28.0816 H   0  0  0  0  0  0  0  0  0  0  0  0
   -3.6210   25.4840  -28.8210 H   0  0  0  0  0  0  0  0  0  0  0  0
   -5.9959   23.0995  -28.9113 H   0  0  0  0  0  0  0  0  0  0  0  0
   -7.9823   21.6491  -29.2848 H   0  0  0  0  0  0  0  0  0  0  0  0
  1  2  1  0
  2  3  1  0
  3  4  1  0
  4  5  1  0
  3  6  1  0
  6  7  1  0
  7  8  1  0
  8  9  2  0
  9 10  1  0
 10 11  2  0
 11 12  1  0
 12 13  2  0
 13 14  1  0
 14 15  2  0
 15 16  1  0
 16 17  2  0
 17 18  1  0
 18 19  2  0
 19 20  1  0
 20 21  2  0
 15 22  1  0
 22 23  2  0
 23 24  1  0
 11 25  1  0
 25 26  2  0
 26  8  1  0
 24 13  1  0
 21 16  1  0
  1 27  1  0
  1 28  1  0
  1 29  1  0
  2 30  1  0
  2 31  1  0
  4 32  1  0
  4 33  1  0
  5 34  1  0
  5 35  1  0
  5 36  1  0
  6 37  1  0
  6 38  1  0
  7 39  1  0
  7 40  1  0
  9 41  1  0
 10 42  1  0
 17 43  1  0
 18 44  1  0
 19 45  1  0
 21 46  1  0
 22 47  1  0
 23 48  1  0
 24 49  1  0
 25 50  1  0
 26 51  1  0
M  END
>  <smiles>  (19) 
CCN(CC)CCc1ccc(N=c2nc(-c3cccnc3)cc[nH]2)cc1

>  <score_type>  (19) 
oracle

>  <origin>  (19) 
adg

>  <m_score__min__energy>  (19) 
-9.2599999999999998

>  <m_primary>  (19) 
energy

$$$$
19:0
     RDKit          3D

 30 31  0  0  1  0  0  0  0  0999 V2000
   -2.7290   24.1660  -29.4460 C   0  0  0  0  0  0  0  0  0  0  0  0
   -6.6420   22.1470  -32.2970 N   0  0  0  0  0  0  0  0  0  0  0  0
   -6.4010   23.1340  -31.5410 C   0  0  0  0  0  0  0  0  0  0  0  0
   -5.6900   25.2350  -29.9500 N   0  0  0  0  0  0  0  0  0  0  0  0
   -7.0110   24.9210  -30.0700 C   0  0  0  0  0  0  0  0  0  0  0  0
   -7.3640   23.8520  -30.8810 C   0  0  0  0  0  0  0  0  0  0  0  0
   -4.7350   24.5300  -30.6000 C   0  0  0  0  0  0  0  0  0  0  0  0
   -3.4910   24.8520  -30.4660 N   0  0  0  0  0  0  0  0  0  0  0  0
   -7.4360   21.0740  -32.1620 C   0  0  0  0  0  0  0  0  0  0  0  0
   -8.8040   20.7130  -32.2000 C   0  0  0  0  0  0  0  0  0  0  0  0
   -8.7420   19.2380  -31.7350 C   0  0  0  0  0  0  0  0  0  0  0  0
   -7.6620   18.7490  -32.6990 C   0  0  0  0  0  0  0  0  0  0  0  0
   -6.8760   19.9820  -33.1220 C   0  0  0  0  0  0  0  0  0  0  0  0
   -5.1230   23.5030  -31.3730 N   0  0  0  0  0  0  0  0  0  0  0  0
   -3.0794   24.4815  -28.4522 H   0  0  0  0  0  0  0  0  0  0  0  0
   -2.8649   23.0799  -29.5550 H   0  0  0  0  0  0  0  0  0  0  0  0
   -1.6631   24.4149  -29.5550 H   0  0  0  0  0  0  0  0  0  0  0  0
   -5.3900   26.0380  -29.3450 H   0  0  0  0  0  0  0  0  0  0  0  0
   -7.7786   25.5011  -29.5368 H   0  0  0  0  0  0  0  0  0  0  0  0
   -8.4235   23.5790  -30.9950 H   0  0  0  0  0  0  0  0  0  0  0  0
   -7.4138   21.3000  -31.0857 H   0  0  0  0  0  0  0  0  0  0  0  0
   -9.4019   21.3276  -31.5109 H   0  0  0  0  0  0  0  0  0  0  0  0
   -9.2804   20.8562  -33.1811 H   0  0  0  0  0  0  0  0  0  0  0  0
   -8.4327   19.1465  -30.6834 H   0  0  0  0  0  0  0  0  0  0  0  0
   -9.6933   18.6863  -31.7598 H   0  0  0  0  0  0  0  0  0  0  0  0
   -6.9997   18.0294  -32.1955 H   0  0  0  0  0  0  0  0  0  0  0  0
   -8.1033   18.2389  -33.5680 H   0  0  0  0  0  0  0  0  0  0  0  0
   -5.7957   19.8366  -32.9740 H   0  0  0  0  0  0  0  0  0  0  0  0
   -6.9861   20.2320  -34.1875 H   0  0  0  0  0  0  0  0  0  0  0  0
   -4.3760   22.9760  -31.8620 H   0  0  0  0  0  0  0  0  0  0  0  0
  1  2  1  0
  2  3  2  0
  3  4  1  0
  4  5  1  0
  5  6  2  0
  6  7  1  0
  7  8  2  0
  8  9  1  0
  9 10  1  0
 10 11  1  0
 11 12  1  0
 12 13  1  0
  7 14  1  0
 14  3  1  0
 13  9  1  0
  1 15  1  0
  1 16  1  0
  1 17  1  0
  4 18  1  0
  5 19  1  0
  6 20  1  0
  9 21  1  0
 10 22  1  0
 10 23  1  0
 11 24  1  0
 11 25  1  0
 12 26  1  0
 12 27  1  0
 13 28  1  0
 13 29  1  0
 14 30  1  0
M  END
>  <smiles>  (20) 
CN=c1[nH]ccc(=NC2CCCC2)[nH]1

>  <score_type>  (20) 
oracle

>  <origin>  (20) 
adg

>  <m_score__min__energy>  (20) 
-6.1500000000000004

>  <m_primary>  (20) 
energy

$$$$
20:0
     RDKit          3D

 28 30  0  0  0  0  0  0  0  0999 V2000
   -5.7380   25.3020  -30.4790 C   0  0  0  0  0  0  0  0  0  0  0  0
   -6.1820   23.9910  -31.0570 C   0  0  0  0  0  0  0  0  0  0  0  0
   -5.2370   23.0640  -31.5520 C   0  0  0  0  0  0  0  0  0  0  0  0
   -5.6410   21.8530  -32.0370 N   0  0  0  0  0  0  0  0  0  0  0  0
   -6.9670   21.5570  -32.0400 C   0  0  0  0  0  0  0  0  0  0  0  0
   -7.6060   20.3990  -32.4370 C   0  0  0  0  0  0  0  0  0  0  0  0
   -7.0460   19.1830  -33.0640 C   0  0  0  0  0  0  0  0  0  0  0  0
   -6.1150   19.2980  -34.1110 C   0  0  0  0  0  0  0  0  0  0  0  0
   -5.5710   18.1520  -34.7000 C   0  0  0  0  0  0  0  0  0  0  0  0
   -5.9410   16.8860  -34.2420 C   0  0  0  0  0  0  0  0  0  0  0  0
   -6.8510   16.7610  -33.1900 C   0  0  0  0  0  0  0  0  0  0  0  0
   -7.3990   17.9040  -32.5990 C   0  0  0  0  0  0  0  0  0  0  0  0
   -8.9410   20.6360  -32.1150 C   0  0  0  0  0  0  0  0  0  0  0  0
   -9.0780   21.8690  -31.5700 N   0  0  0  0  0  0  0  0  0  0  0  0
   -7.8700   22.4050  -31.5350 N   0  0  0  0  0  0  0  0  0  0  0  0
   -7.5360   23.6190  -31.0370 C   0  0  0  0  0  0  0  0  0  0  0  0
   -5.7577   25.2440  -29.3807 H   0  0  0  0  0  0  0  0  0  0  0  0
   -4.7147   25.5236  -30.8162 H   0  0  0  0  0  0  0  0  0  0  0  0
   -6.4161   26.0998  -30.8162 H   0  0  0  0  0  0  0  0  0  0  0  0
   -4.1672   23.3200  -31.5466 H   0  0  0  0  0  0  0  0  0  0  0  0
   -4.9280   21.1670  -32.3700 H   0  0  0  0  0  0  0  0  0  0  0  0
   -5.8131   20.2935  -34.4685 H   0  0  0  0  0  0  0  0  0  0  0  0
   -4.8504   18.2483  -35.5255 H   0  0  0  0  0  0  0  0  0  0  0  0
   -5.5154   15.9862  -34.7102 H   0  0  0  0  0  0  0  0  0  0  0  0
   -7.1369   15.7631  -32.8261 H   0  0  0  0  0  0  0  0  0  0  0  0
   -8.1100   17.8018  -31.7659 H   0  0  0  0  0  0  0  0  0  0  0  0
   -9.7642   19.9252  -32.2794 H   0  0  0  0  0  0  0  0  0  0  0  0
   -8.3027   24.2940  -30.6288 H   0  0  0  0  0  0  0  0  0  0  0  0
  1  2  1  0
  2  3  1  0
  3  4  2  0
  4  5  1  0
  5  6  2  0
  6  7  1  0
  7  8  2  0
  8  9  1  0
  9 10  2  0
 10 11  1  0
 11 12  2  0
  6 13  1  0
 13 14  2  0
 14 15  1  0
 15 16  1  0
 16  2  2  0
 15  5  1  0
 12  7  1  0
  1 17  1  0
  1 18  1  0
  1 19  1  0
  3 20  1  0
  4 21  1  0
  8 22  1  0
  9 23  1  0
 10 24  1  0
 11 25  1  0
 12 26  1  0
 13 27  1  0
 16 28  1  0
M  CHG  1   4   1
M  END
>  <UniqueID>  (21) 
16

>  <SMILES>  (21) 
Cc1c[nH+]c2c(-c3ccccc3)cnn2c1

>  <Energy>  (21) 
70.88724390699959

>  <Genealogy>  (21) 
Cc1c[nH+]c2c(-c3ccccc3)cnn2c1 (protonated)
Cc1c[nH+]c2c(-c3ccccc3)cnn2c1 (3D coordinates assigned)
Cc1c[nH+]c2c(-c3ccccc3)cnn2c1 (optimized conformer: 70.88724390699959 kcal/mol)

>  <smiles>  (21) 
Cc1cnc2c(-c3ccccc3)cnn2c1

>  <score_type>  (21) 
oracle

>  <origin>  (21) 
adg

>  <m_score__min__energy>  (21) 
-6.4900000000000002

>  <m_primary>  (21) 
energy

$$$$
21:0
     RDKit          3D

 40 42  0  0  0  0  0  0  0  0999 V2000
   -1.2100   21.5200  -26.5450 C   0  0  0  0  0  0  0  0  0  0  0  0
   -0.4940   22.7700  -26.0460 C   0  0  0  0  0  0  0  0  0  0  0  0
   -0.9730   23.9300  -26.7240 O   0  0  0  0  0  0  0  0  0  0  0  0
   -0.8520   24.1230  -28.1060 C   0  0  0  0  0  0  0  0  0  0  0  0
    0.2400   24.5320  -28.5890 O   0  0  0  0  0  0  0  0  0  0  0  0
   -2.0010   23.8420  -29.0070 C   0  0  0  0  0  0  0  0  0  0  0  0
   -3.2380   24.4690  -28.7850 C   0  0  0  0  0  0  0  0  0  0  0  0
   -4.3170   24.2060  -29.6300 C   0  0  0  0  0  0  0  0  0  0  0  0
   -5.5660   24.8130  -29.4390 C   0  0  0  0  0  0  0  0  0  0  0  0
   -6.6240   24.5250  -30.3060 C   0  0  0  0  0  0  0  0  0  0  0  0
   -6.4470   23.6210  -31.3720 C   0  0  0  0  0  0  0  0  0  0  0  0
   -7.4790   23.2930  -32.2660 O   0  0  0  0  0  0  0  0  0  0  0  0
   -8.6050   22.4700  -31.9600 C   0  0  0  0  0  0  0  0  0  0  0  0
   -8.2690   21.0130  -32.1370 C   0  0  0  0  0  0  0  0  0  0  0  0
   -9.0660   20.0200  -31.5440 C   0  0  0  0  0  0  0  0  0  0  0  0
   -8.7520   18.6680  -31.7190 C   0  0  0  0  0  0  0  0  0  0  0  0
   -7.6490   18.2990  -32.4930 C   0  0  0  0  0  0  0  0  0  0  0  0
   -6.8580   19.2810  -33.0980 C   0  0  0  0  0  0  0  0  0  0  0  0
   -5.4770   18.8170  -34.0740 Cl  0  0  0  0  0  0  0  0  0  0  0  0
   -7.1690   20.6350  -32.9250 C   0  0  0  0  0  0  0  0  0  0  0  0
   -5.1960   23.0210  -31.5610 C   0  0  0  0  0  0  0  0  0  0  0  0
   -4.1320   23.3060  -30.6970 C   0  0  0  0  0  0  0  0  0  0  0  0
   -2.9520   22.7260  -30.8850 O   0  0  0  0  0  0  0  0  0  0  0  0
   -1.9010   22.9530  -30.1010 C   0  0  0  0  0  0  0  0  0  0  0  0
   -0.8210   22.3570  -30.3540 O   0  0  0  0  0  0  0  0  0  0  0  0
   -1.5509   20.9248  -25.6851 H   0  0  0  0  0  0  0  0  0  0  0  0
   -2.0772   21.8130  -27.1550 H   0  0  0  0  0  0  0  0  0  0  0  0
   -0.5185   20.9202  -27.1550 H   0  0  0  0  0  0  0  0  0  0  0  0
   -0.6739   22.8826  -24.9667 H   0  0  0  0  0  0  0  0  0  0  0  0
    0.5827   22.6638  -26.2444 H   0  0  0  0  0  0  0  0  0  0  0  0
   -3.3564   25.1682  -27.9441 H   0  0  0  0  0  0  0  0  0  0  0  0
   -5.7137   25.5164  -28.6063 H   0  0  0  0  0  0  0  0  0  0  0  0
   -7.6010   25.0073  -30.1550 H   0  0  0  0  0  0  0  0  0  0  0  0
   -8.9069   22.6459  -30.9170 H   0  0  0  0  0  0  0  0  0  0  0  0
   -9.4255   22.7275  -32.6459 H   0  0  0  0  0  0  0  0  0  0  0  0
   -9.9397   20.3063  -30.9402 H   0  0  0  0  0  0  0  0  0  0  0  0
   -9.3747   17.8941  -31.2464 H   0  0  0  0  0  0  0  0  0  0  0  0
   -7.4025   17.2353  -32.6267 H   0  0  0  0  0  0  0  0  0  0  0  0
   -6.5500   21.4056  -33.4077 H   0  0  0  0  0  0  0  0  0  0  0  0
   -5.0480   22.3197  -32.3955 H   0  0  0  0  0  0  0  0  0  0  0  0
  1  2  1  0
  2  3  1  0
  3  4  1  0
  4  5  2  0
  4  6  1  0
  6  7  2  0
  7  8  1  0
  8  9  2  0
  9 10  1  0
 10 11  2  0
 11 12  1  0
 12 13  1  0
 13 14  1  0
 14 15  2  0
 15 16  1  0
 16 17  2  0
 17 18  1  0
 18 19  1  0
 18 20  2  0
 11 21  1  0
 21 22  2  0
 22 23  1  0
 23 24  1  0
 24 25  2  0
 24  6  1  0
 22  8  1  0
 20 14  1  0
  1 26  1  0
  1 27  1  0
  1 28  1  0
  2 29  1  0
  2 30  1  0
  7 31  1  0
  9 32  1  0
 10 33  1  0
 13 34  1  0
 13 35  1  0
 15 36  1  0
 16 37  1  0
 17 38  1  0
 20 39  1  0
 21 40  1  0
M  END
>  <UniqueID>  (22) 
17

>  <SMILES>  (22) 
CCOC(=O)c1cc2ccc(OCc3cccc(Cl)c3)cc2oc1=O

>  <Energy>  (22) 
44.39654361424774

>  <Genealogy>  (22) 
CCOC(=O)c1cc2ccc(OCc3cccc(Cl)c3)cc2oc1=O (3D coordinates assigned)
CCOC(=O)c1cc2ccc(OCc3cccc(Cl)c3)cc2oc1=O (optimized conformer: 44.39654361424774 kcal/mol)

>  <smiles>  (22) 
CCOC(=O)c1cc2ccc(OCc3cccc(Cl)c3)cc2oc1=O

>  <score_type>  (22) 
oracle

>  <origin>  (22) 
adg

>  <m_score__min__energy>  (22) 
-8.6699999999999999

>  <m_primary>  (22) 
energy

$$$$
22:0
     RDKit          3D

 41 44  0  0  0  0  0  0  0  0999 V2000
   -6.7060   19.0580  -32.7650 C   0  0  0  0  0  0  0  0  0  0  0  0
   -7.4890   20.0690  -31.9210 C   0  0  2  0  0  0  0  0  0  0  0  0
   -8.7580   20.5340  -32.6810 C   0  0  0  0  0  0  0  0  0  0  0  0
   -9.4250   21.7440  -31.9980 C   0  0  0  0  0  0  0  0  0  0  0  0
   -8.4880   22.9650  -31.9710 C   0  0  0  0  0  0  0  0  0  0  0  0
   -7.1210   22.5560  -31.5170 C   0  0  0  0  0  0  0  0  0  0  0  0
   -6.6360   21.2570  -31.5530 C   0  0  0  0  0  0  0  0  0  0  0  0
   -5.3650   21.2060  -31.0850 N   0  0  0  0  0  0  0  0  0  0  0  0
   -5.0370   22.4810  -30.7990 C   0  0  0  0  0  0  0  0  0  0  0  0
   -3.8250   22.9460  -30.2920 C   0  0  0  0  0  0  0  0  0  0  0  0
   -3.6840   24.3360  -30.0660 C   0  0  0  0  0  0  0  0  0  0  0  0
   -2.4680   24.8790  -29.5220 N   0  0  0  0  0  0  0  0  0  0  0  0
   -1.8070   24.3750  -28.3490 C   0  0  0  0  0  0  0  0  0  0  0  0
   -1.1040   23.1620  -28.4210 C   0  0  0  0  0  0  0  0  0  0  0  0
   -0.4770   22.6400  -27.2870 C   0  0  0  0  0  0  0  0  0  0  0  0
   -0.5580   23.3180  -26.0670 C   0  0  0  0  0  0  0  0  0  0  0  0
   -1.2750   24.5140  -25.9790 C   0  0  0  0  0  0  0  0  0  0  0  0
   -1.9050   25.0390  -27.1130 C   0  0  0  0  0  0  0  0  0  0  0  0
   -4.7760   25.2030  -30.3200 C   0  0  0  0  0  0  0  0  0  0  0  0
   -5.9890   24.7040  -30.8260 C   0  0  0  0  0  0  0  0  0  0  0  0
   -6.0830   23.3340  -31.0550 C   0  0  0  0  0  0  0  0  0  0  0  0
   -6.1688   18.3644  -32.1014 H   0  0  0  0  0  0  0  0  0  0  0  0
   -7.4036   18.4919  -33.3998 H   0  0  0  0  0  0  0  0  0  0  0  0
   -5.9834   19.5918  -33.3998 H   0  0  0  0  0  0  0  0  0  0  0  0
   -7.7910   19.5688  -30.9890 H   0  0  0  0  0  0  0  0  0  0  0  0
   -8.4756   20.8152  -33.7063 H   0  0  0  0  0  0  0  0  0  0  0  0
   -9.4786   19.7029  -32.6824 H   0  0  0  0  0  0  0  0  0  0  0  0
  -10.3390   22.0072  -32.5506 H   0  0  0  0  0  0  0  0  0  0  0  0
   -9.6606   21.4672  -30.9598 H   0  0  0  0  0  0  0  0  0  0  0  0
   -8.4221   23.3952  -32.9813 H   0  0  0  0  0  0  0  0  0  0  0  0
   -8.8908   23.7119  -31.2711 H   0  0  0  0  0  0  0  0  0  0  0  0
   -4.7670   20.3620  -30.9560 H   0  0  0  0  0  0  0  0  0  0  0  0
   -3.0004   22.2516  -30.0734 H   0  0  0  0  0  0  0  0  0  0  0  0
   -2.0390   25.6980  -30.0120 H   0  0  0  0  0  0  0  0  0  0  0  0
   -1.0465   22.6193  -29.3761 H   0  0  0  0  0  0  0  0  0  0  0  0
    0.0811   21.6945  -27.3540 H   0  0  0  0  0  0  0  0  0  0  0  0
   -0.0574   22.9100  -25.1766 H   0  0  0  0  0  0  0  0  0  0  0  0
   -1.3444   25.0435  -25.0173 H   0  0  0  0  0  0  0  0  0  0  0  0
   -2.4789   25.9744  -27.0374 H   0  0  0  0  0  0  0  0  0  0  0  0
   -4.6732   26.2795  -30.1188 H   0  0  0  0  0  0  0  0  0  0  0  0
   -6.8361   25.3741  -31.0342 H   0  0  0  0  0  0  0  0  0  0  0  0
  1  2  1  0
  2  3  1  0
  3  4  1  0
  4  5  1  0
  5  6  1  0
  6  7  2  0
  7  8  1  0
  8  9  1  0
  9 10  2  0
 10 11  1  0
 11 12  1  0
 12 13  1  0
 13 14  2  0
 14 15  1  0
 15 16  2  0
 16 17  1  0
 17 18  2  0
 11 19  2  0
 19 20  1  0
 20 21  2  0
  7  2  1  0
 21  9  1  0
 21  6  1  0
 18 13  1  0
  1 22  1  0
  1 23  1  0
  1 24  1  0
  2 25  1  1
  3 26  1  0
  3 27  1  0
  4 28  1  0
  4 29  1  0
  5 30  1  0
  5 31  1  0
  8 32  1  0
 10 33  1  0
 12 34  1  0
 14 35  1  0
 15 36  1  0
 16 37  1  0
 17 38  1  0
 18 39  1  0
 19 40  1  0
 20 41  1  0
M  END
>  <UniqueID>  (23) 
18

>  <SMILES>  (23) 
C[C@@H]1CCCc2c1[nH]c1cc(Nc3ccccc3)ccc21

>  <Energy>  (23) 
80.65313487949886

>  <Genealogy>  (23) 
C[C@@H]1CCCc2c1[nH]c1cc(Nc3ccccc3)ccc21 (chirality)
C[C@@H]1CCCc2c1[nH]c1cc(Nc3ccccc3)ccc21 (3D coordinates assigned)
C[C@@H]1CCCc2c1[nH]c1cc(Nc3ccccc3)ccc21 (nonaromatic ring conformer: 80.65313487949886 kcal/mol)

>  <smiles>  (23) 
CC1CCCc2c1[nH]c1cc(Nc3ccccc3)ccc21

>  <score_type>  (23) 
oracle

>  <origin>  (23) 
adg

>  <m_score__min__energy>  (23) 
-9.0800000000000001

>  <m_primary>  (23) 
energy

$$$$
23:0
     RDKit          3D

 52 55  0  0  0  0  0  0  0  0999 V2000
   -5.4782   25.7196  -31.6307 H   0  0  0  0  0  0  0  0  0  0  0  0
   -5.0960   25.0230  -30.8700 C   0  0  0  0  0  0  0  0  0  0  0  0
   -3.8620   25.2160  -30.3310 N   0  0  0  0  0  0  0  0  0  0  0  0
   -3.3460   24.3900  -29.3780 C   0  0  0  0  0  0  0  0  0  0  0  0
   -2.1490   24.6400  -28.9230 N   0  0  0  0  0  0  0  0  0  0  0  0
   -0.9920   23.7920  -28.9880 C   0  0  0  0  0  0  0  0  0  0  0  0
    0.1470   24.3280  -29.0680 O   0  0  0  0  0  0  0  0  0  0  0  0
   -1.1030   22.3150  -28.8730 C   0  0  0  0  0  0  0  0  0  0  0  0
   -1.5030   21.7510  -27.6480 C   0  0  0  0  0  0  0  0  0  0  0  0
   -1.6679   22.4009  -26.7760 H   0  0  0  0  0  0  0  0  0  0  0  0
   -1.6930   20.3680  -27.5300 C   0  0  0  0  0  0  0  0  0  0  0  0
   -2.1870   19.6810  -25.9940 Cl  0  0  0  0  0  0  0  0  0  0  0  0
   -1.4850   19.5390  -28.6300 C   0  0  0  0  0  0  0  0  0  0  0  0
   -1.6386   18.4538  -28.5364 H   0  0  0  0  0  0  0  0  0  0  0  0
   -1.0820   20.0830  -29.8510 C   0  0  0  0  0  0  0  0  0  0  0  0
   -0.9219   19.4231  -30.7164 H   0  0  0  0  0  0  0  0  0  0  0  0
   -0.8790   21.4700  -29.9830 C   0  0  0  0  0  0  0  0  0  0  0  0
   -0.4690   22.0150  -31.2440 N   0  0  0  0  0  0  0  0  0  0  0  0
   -1.0000   21.5490  -32.4860 C   0  0  0  0  0  0  0  0  0  0  0  0
   -0.2540   21.4990  -33.5000 O   0  0  0  0  0  0  0  0  0  0  0  0
   -2.4170   21.1390  -32.5760 C   0  0  0  0  0  0  0  0  0  0  0  0
   -3.4490   22.0770  -32.4000 C   0  0  0  0  0  0  0  0  0  0  0  0
   -3.2034   23.1281  -32.1882 H   0  0  0  0  0  0  0  0  0  0  0  0
   -4.7860   21.6800  -32.4930 C   0  0  0  0  0  0  0  0  0  0  0  0
   -5.5860   22.4255  -32.3738 H   0  0  0  0  0  0  0  0  0  0  0  0
   -5.1170   20.3340  -32.7380 C   0  0  0  0  0  0  0  0  0  0  0  0
   -6.4980   19.9190  -32.8080 N   0  0  0  0  0  0  0  0  0  0  0  0
   -7.5660   20.8400  -32.3760 C   0  0  0  0  0  0  0  0  0  0  0  0
   -7.3136   21.2372  -31.3818 H   0  0  0  0  0  0  0  0  0  0  0  0
   -7.6408   21.6497  -33.1168 H   0  0  0  0  0  0  0  0  0  0  0  0
   -8.9270   20.1350  -32.2990 C   0  0  0  0  0  0  0  0  0  0  0  0
   -9.6232   20.7550  -31.7151 H   0  0  0  0  0  0  0  0  0  0  0  0
   -9.3114   19.9914  -33.3196 H   0  0  0  0  0  0  0  0  0  0  0  0
   -8.7850   18.7640  -31.6250 C   0  0  0  0  0  0  0  0  0  0  0  0
   -8.4575   18.9159  -30.5859 H   0  0  0  0  0  0  0  0  0  0  0  0
   -9.7652   18.2675  -31.6767 H   0  0  0  0  0  0  0  0  0  0  0  0
   -7.7620   17.8470  -32.3360 C   0  0  0  0  0  0  0  0  0  0  0  0
   -7.1247   17.3780  -31.5719 H   0  0  0  0  0  0  0  0  0  0  0  0
   -8.3364   17.1063  -32.9117 H   0  0  0  0  0  0  0  0  0  0  0  0
   -6.8590   18.5930  -33.3320 C   0  0  0  0  0  0  0  0  0  0  0  0
   -5.9425   18.0078  -33.4980 H   0  0  0  0  0  0  0  0  0  0  0  0
   -7.4042   18.7214  -34.2787 H   0  0  0  0  0  0  0  0  0  0  0  0
   -4.0800   19.4000  -32.9190 C   0  0  0  0  0  0  0  0  0  0  0  0
   -4.3236   18.3472  -33.1244 H   0  0  0  0  0  0  0  0  0  0  0  0
   -2.7450   19.7990  -32.8400 C   0  0  0  0  0  0  0  0  0  0  0  0
   -1.9442   19.0590  -32.9855 H   0  0  0  0  0  0  0  0  0  0  0  0
   -4.1080   23.2800  -28.9530 C   0  0  0  0  0  0  0  0  0  0  0  0
   -3.7057   22.5890  -28.1976 H   0  0  0  0  0  0  0  0  0  0  0  0
   -5.3760   23.0650  -29.4980 C   0  0  0  0  0  0  0  0  0  0  0  0
   -5.9779   22.2049  -29.1695 H   0  0  0  0  0  0  0  0  0  0  0  0
   -5.8780   23.9420  -30.4590 C   0  0  0  0  0  0  0  0  0  0  0  0
   -6.8784   23.7839  -30.8882 H   0  0  0  0  0  0  0  0  0  0  0  0
  1  2  1  0
  2  3  1  0
  3  4  1  0
  4  5  2  0
  5  6  1  0
  6  7  2  0
  6  8  1  0
  8  9  2  0
  9 10  1  0
  9 11  1  0
 11 12  1  0
 11 13  2  0
 13 14  1  0
 13 15  1  0
 15 16  1  0
 15 17  2  0
 17 18  1  0
 18 19  1  0
 19 20  2  0
 19 21  1  0
 21 22  2  0
 22 23  1  0
 22 24  1  0
 24 25  1  0
 24 26  2  0
 26 27  1  0
 27 28  1  0
 28 29  1  0
 28 30  1  0
 28 31  1  0
 31 32  1  0
 31 33  1  0
 31 34  1  0
 34 35  1  0
 34 36  1  0
 34 37  1  0
 37 38  1  0
 37 39  1  0
 37 40  1  0
 40 41  1  0
 40 42  1  0
 26 43  1  0
 43 44  1  0
 43 45  2  0
 45 46  1  0
  4 47  1  0
 47 48  1  0
 47 49  2  0
 49 50  1  0
 49 51  1  0
 51 52  1  0
 51  2  2  0
 17  8  1  0
 45 21  1  0
 40 27  1  0
M  CHG  2   3  -1  18  -1
M  END
>  <UniqueID>  (24) 
19

>  <SMILES>  (24) 
O=C([N-]c1ccc(Cl)cc1C(=O)/N=c1\cccc[n-]1)c1ccc(N2CCCCC2)cc1

>  <Energy>  (24) 
83.56812911669738

>  <Genealogy>  (24) 
O=C([N-]c1ccc(Cl)cc1C(=O)N=c1cccc[n-]1)c1ccc(N2CCCCC2)cc1 (protonated)
O=C([N-]c1ccc(Cl)cc1C(=O)/N=c1\cccc[n-]1)c1ccc(N2CCCCC2)cc1 (cis-trans isomerization)
O=C([N-]c1ccc(Cl)cc1C(=O)/N=c1\cccc[n-]1)c1ccc(N2CCCCC2)cc1 (3D coordinates assigned)
O=C([N-]c1ccc(Cl)cc1C(=O)/N=c1\cccc[n-]1)c1ccc(N2CCCCC2)cc1 (nonaromatic ring conformer: 83.56812911669738 kcal/mol)

>  <smiles>  (24) 
O=C(Nc1ccc(Cl)cc1C(=O)N=c1cccc[nH]1)c1ccc(N2CCCCC2)cc1

>  <score_type>  (24) 
oracle

>  <origin>  (24) 
adg

>  <m_score__min__energy>  (24) 
-12.449999999999999

>  <m_primary>  (24) 
energy

$$$$
24:0
     RDKit          3D

 32 34  0  0  0  0  0  0  0  0999 V2000
   -9.0630   18.5530  -31.9590 C   0  0  0  0  0  0  0  0  0  0  0  0
   -7.7120   18.6560  -32.5890 C   0  0  0  0  0  0  0  0  0  0  0  0
   -7.1940   17.7520  -33.4540 N   0  0  0  0  0  0  0  0  0  0  0  0
   -6.0090   18.1860  -33.8710 N   0  0  0  0  0  0  0  0  0  0  0  0
   -5.1700   17.4970  -34.8470 C   0  0  0  0  0  0  0  0  0  0  0  0
   -5.7700   19.3800  -33.2940 C   0  0  0  0  0  0  0  0  0  0  0  0
   -4.6770   20.2290  -33.4560 C   0  0  0  0  0  0  0  0  0  0  0  0
   -4.6830   21.4450  -32.7490 C   0  0  0  0  0  0  0  0  0  0  0  0
   -5.7720   21.7960  -31.9030 C   0  0  0  0  0  0  0  0  0  0  0  0
   -5.7660   23.0860  -31.1670 C   0  0  0  0  0  0  0  0  0  0  0  0
   -4.5510   23.7180  -30.8410 C   0  0  0  0  0  0  0  0  0  0  0  0
   -4.5470   24.9310  -30.1460 C   0  0  0  0  0  0  0  0  0  0  0  0
   -5.7520   25.5270  -29.7690 C   0  0  0  0  0  0  0  0  0  0  0  0
   -6.9650   24.9100  -30.0860 C   0  0  0  0  0  0  0  0  0  0  0  0
   -6.9740   23.6960  -30.7810 C   0  0  0  0  0  0  0  0  0  0  0  0
   -6.8650   20.9050  -31.7720 C   0  0  0  0  0  0  0  0  0  0  0  0
   -6.8220   19.7070  -32.4810 C   0  0  0  0  0  0  0  0  0  0  0  0
   -8.9585   18.5610  -30.8640 H   0  0  0  0  0  0  0  0  0  0  0  0
   -9.6808   19.4066  -32.2746 H   0  0  0  0  0  0  0  0  0  0  0  0
   -9.5442   17.6156  -32.2746 H   0  0  0  0  0  0  0  0  0  0  0  0
   -7.6480   16.8640  -33.7650 H   0  0  0  0  0  0  0  0  0  0  0  0
   -4.4234   16.8839  -34.3209 H   0  0  0  0  0  0  0  0  0  0  0  0
   -5.7972   16.8499  -35.4778 H   0  0  0  0  0  0  0  0  0  0  0  0
   -4.6572   18.2381  -35.4778 H   0  0  0  0  0  0  0  0  0  0  0  0
   -3.8384   19.9576  -34.1141 H   0  0  0  0  0  0  0  0  0  0  0  0
   -3.8327   22.1353  -32.8517 H   0  0  0  0  0  0  0  0  0  0  0  0
   -3.5980   23.2541  -31.1352 H   0  0  0  0  0  0  0  0  0  0  0  0
   -3.5924   25.4169  -29.8956 H   0  0  0  0  0  0  0  0  0  0  0  0
   -5.7465   26.4818  -29.2227 H   0  0  0  0  0  0  0  0  0  0  0  0
   -7.9142   25.3796  -29.7886 H   0  0  0  0  0  0  0  0  0  0  0  0
   -7.9320   23.2149  -31.0275 H   0  0  0  0  0  0  0  0  0  0  0  0
   -7.7228   21.1519  -31.1291 H   0  0  0  0  0  0  0  0  0  0  0  0
  1  2  1  0
  2  3  2  0
  3  4  1  0
  4  5  1  0
  4  6  1  0
  6  7  2  0
  7  8  1  0
  8  9  2  0
  9 10  1  0
 10 11  2  0
 11 12  1  0
 12 13  2  0
 13 14  1  0
 14 15  2  0
  9 16  1  0
 16 17  2  0
 17  2  1  0
 17  6  1  0
 15 10  1  0
  1 18  1  0
  1 19  1  0
  1 20  1  0
  3 21  1  0
  5 22  1  0
  5 23  1  0
  5 24  1  0
  7 25  1  0
  8 26  1  0
 11 27  1  0
 12 28  1  0
 13 29  1  0
 14 30  1  0
 15 31  1  0
 16 32  1  0
M  CHG  1   3   1
M  END
>  <UniqueID>  (25) 
20

>  <SMILES>  (25) 
Cc1[nH+]n(C)c2ccc(-c3ccccc3)cc12

>  <Energy>  (25) 
77.05168777146122

>  <Genealogy>  (25) 
Cc1[nH+]n(C)c2ccc(-c3ccccc3)cc12 (protonated)
Cc1[nH+]n(C)c2ccc(-c3ccccc3)cc12 (3D coordinates assigned)
Cc1[nH+]n(C)c2ccc(-c3ccccc3)cc12 (optimized conformer: 77.05168777146122 kcal/mol)

>  <smiles>  (25) 
Cc1nn(C)c2ccc(-c3ccccc3)cc12

>  <score_type>  (25) 
oracle

>  <origin>  (25) 
adg

>  <m_score__min__energy>  (25) 
-6.8099999999999996

>  <m_primary>  (25) 
energy

$$$$
25:0
     RDKit          3D

 28 29  0  0  0  0  0  0  0  0999 V2000
   -6.5600   17.0950  -32.7870 C   0  0  0  0  0  0  0  0  0  0  0  0
   -7.3180   18.3050  -32.4550 N   0  0  0  0  0  0  0  0  0  0  0  0
   -8.5050   18.2180  -31.5970 C   0  0  0  0  0  0  0  0  0  0  0  0
   -6.9750   19.5460  -33.1050 C   0  0  0  0  0  0  0  0  0  0  0  0
   -6.4050   19.5210  -34.2310 O   0  0  0  0  0  0  0  0  0  0  0  0
   -7.2830   20.8560  -32.4930 C   0  0  0  0  0  0  0  0  0  0  0  0
   -8.6120   21.2370  -32.2560 C   0  0  0  0  0  0  0  0  0  0  0  0
   -8.8950   22.4660  -31.6600 C   0  0  0  0  0  0  0  0  0  0  0  0
   -7.8570   23.3220  -31.2850 C   0  0  0  0  0  0  0  0  0  0  0  0
   -6.5150   22.9530  -31.4940 C   0  0  0  0  0  0  0  0  0  0  0  0
   -5.4090   23.8590  -31.0880 C   0  0  0  0  0  0  0  0  0  0  0  0
   -4.1020   23.5220  -30.7880 C   0  0  0  0  0  0  0  0  0  0  0  0
   -3.4190   24.6370  -30.4670 N   0  0  0  0  0  0  0  0  0  0  0  0
   -4.2390   25.6740  -30.5500 N   0  0  0  0  0  0  0  0  0  0  0  0
   -5.4530   25.2330  -30.9260 C   0  0  0  0  0  0  0  0  0  0  0  0
   -6.2400   21.7090  -32.0960 C   0  0  0  0  0  0  0  0  0  0  0  0
   -6.2457   16.5933  -31.8599 H   0  0  0  0  0  0  0  0  0  0  0  0
   -7.1939   16.4151  -33.3751 H   0  0  0  0  0  0  0  0  0  0  0  0
   -5.6716   17.3687  -33.3751 H   0  0  0  0  0  0  0  0  0  0  0  0
   -8.1968   18.2406  -30.5413 H   0  0  0  0  0  0  0  0  0  0  0  0
   -9.1697   19.0698  -31.8032 H   0  0  0  0  0  0  0  0  0  0  0  0
   -9.0384   17.2784  -31.8032 H   0  0  0  0  0  0  0  0  0  0  0  0
   -9.4341   20.5641  -32.5412 H   0  0  0  0  0  0  0  0  0  0  0  0
   -9.9398   22.7622  -31.4846 H   0  0  0  0  0  0  0  0  0  0  0  0
   -8.0903   24.2924  -30.8226 H   0  0  0  0  0  0  0  0  0  0  0  0
   -3.6860   22.5039  -30.8084 H   0  0  0  0  0  0  0  0  0  0  0  0
   -6.3404   25.8645  -31.0803 H   0  0  0  0  0  0  0  0  0  0  0  0
   -5.1960   21.4022  -32.2570 H   0  0  0  0  0  0  0  0  0  0  0  0
  1  2  1  0
  2  3  1  0
  2  4  1  0
  4  5  2  0
  4  6  1  0
  6  7  2  0
  7  8  1  0
  8  9  2  0
  9 10  1  0
 10 11  1  0
 11 12  1  0
 12 13  2  0
 13 14  1  0
 14 15  1  0
 10 16  2  0
 16  6  1  0
 15 11  2  0
  1 17  1  0
  1 18  1  0
  1 19  1  0
  3 20  1  0
  3 21  1  0
  3 22  1  0
  7 23  1  0
  8 24  1  0
  9 25  1  0
 12 26  1  0
 15 27  1  0
 16 28  1  0
M  CHG  1  14  -1
M  END
>  <UniqueID>  (26) 
21

>  <SMILES>  (26) 
CN(C)C(=O)c1cccc(-c2cn[n-]c2)c1

>  <Energy>  (26) 
63.12972475774093

>  <Genealogy>  (26) 
CN(C)C(=O)c1cccc(-c2cn[n-]c2)c1 (protonated)
CN(C)C(=O)c1cccc(-c2cn[n-]c2)c1 (3D coordinates assigned)
CN(C)C(=O)c1cccc(-c2cn[n-]c2)c1 (optimized conformer: 63.12972475774093 kcal/mol)

>  <smiles>  (26) 
CN(C)C(=O)c1cccc(-c2cn[nH]c2)c1

>  <score_type>  (26) 
oracle

>  <origin>  (26) 
adg

>  <m_score__min__energy>  (26) 
-9.1999999999999993

>  <m_primary>  (26) 
energy

$$$$
26:0
     RDKit          3D

 43 45  0  0  0  0  0  0  0  0999 V2000
   -7.9270   19.2250  -32.6150 C   0  0  0  0  0  0  0  0  0  0  0  0
   -6.8170   20.0150  -32.9240 C   0  0  0  0  0  0  0  0  0  0  0  0
   -6.8030   21.3720  -32.5820 C   0  0  0  0  0  0  0  0  0  0  0  0
   -7.9020   21.9430  -31.9170 C   0  0  0  0  0  0  0  0  0  0  0  0
   -7.9070   23.4100  -31.5890 C   0  0  0  0  0  0  0  0  0  0  0  0
   -6.5760   23.8270  -31.1580 N   0  0  0  0  0  0  0  0  0  0  0  0
   -6.0230   23.6200  -29.9510 C   0  0  0  0  0  0  0  0  0  0  0  0
   -4.7930   24.2410  -29.9980 C   0  0  0  0  0  0  0  0  0  0  0  0
   -3.8180   24.3150  -28.9500 N   0  0  0  0  0  0  0  0  0  0  0  0
   -2.6370   23.4550  -28.8990 C   0  0  0  0  0  0  0  0  0  0  0  0
   -2.8800   22.1670  -29.7120 C   0  0  0  0  0  0  0  0  0  0  0  0
   -2.4640   22.2600  -31.1290 N   0  0  0  0  0  0  0  0  0  0  0  0
   -1.2410   21.4930  -31.4390 C   0  0  0  0  0  0  0  0  0  0  0  0
   -1.0020   21.4630  -32.9530 C   0  0  0  0  0  0  0  0  0  0  0  0
   -2.1090   20.8110  -33.6810 N   0  0  0  0  0  0  0  0  0  0  0  0
   -3.3970   20.8270  -32.9620 C   0  0  0  0  0  0  0  0  0  0  0  0
   -3.5670   22.0940  -32.1060 C   0  0  0  0  0  0  0  0  0  0  0  0
   -4.6370   24.8110  -31.2100 N   0  0  0  0  0  0  0  0  0  0  0  0
   -5.7420   24.5450  -31.8930 N   0  0  0  0  0  0  0  0  0  0  0  0
   -9.0210   21.1470  -31.6250 C   0  0  0  0  0  0  0  0  0  0  0  0
   -9.0300   19.7910  -31.9680 C   0  0  0  0  0  0  0  0  0  0  0  0
   -7.9334   18.1576  -32.8807 H   0  0  0  0  0  0  0  0  0  0  0  0
   -5.9521   19.5695  -33.4372 H   0  0  0  0  0  0  0  0  0  0  0  0
   -5.9306   21.9928  -32.8340 H   0  0  0  0  0  0  0  0  0  0  0  0
   -8.1972   23.9825  -32.4823 H   0  0  0  0  0  0  0  0  0  0  0  0
   -8.6258   23.5974  -30.7777 H   0  0  0  0  0  0  0  0  0  0  0  0
   -6.4597   23.0708  -29.1039 H   0  0  0  0  0  0  0  0  0  0  0  0
   -3.9900   24.9760  -28.1600 H   0  0  0  0  0  0  0  0  0  0  0  0
   -1.7764   23.9943  -29.3214 H   0  0  0  0  0  0  0  0  0  0  0  0
   -2.4344   23.1855  -27.8519 H   0  0  0  0  0  0  0  0  0  0  0  0
   -2.3168   21.3487  -29.2395 H   0  0  0  0  0  0  0  0  0  0  0  0
   -3.9658   21.9911  -29.7109 H   0  0  0  0  0  0  0  0  0  0  0  0
   -0.3802   21.9672  -30.9449 H   0  0  0  0  0  0  0  0  0  0  0  0
   -1.3630   20.4621  -31.0752 H   0  0  0  0  0  0  0  0  0  0  0  0
   -0.8999   22.4964  -33.3158 H   0  0  0  0  0  0  0  0  0  0  0  0
   -0.0874   20.8806  -33.1384 H   0  0  0  0  0  0  0  0  0  0  0  0
   -2.2330   21.3040  -34.5960 H   0  0  0  0  0  0  0  0  0  0  0  0
   -4.2141   20.7835  -33.6972 H   0  0  0  0  0  0  0  0  0  0  0  0
   -3.4193   19.9578  -32.2882 H   0  0  0  0  0  0  0  0  0  0  0  0
   -3.5872   22.9706  -32.7702 H   0  0  0  0  0  0  0  0  0  0  0  0
   -4.5068   21.9981  -31.5424 H   0  0  0  0  0  0  0  0  0  0  0  0
   -9.8940   21.5914  -31.1246 H   0  0  0  0  0  0  0  0  0  0  0  0
   -9.9054   19.1694  -31.7286 H   0  0  0  0  0  0  0  0  0  0  0  0
  1  2  2  0
  2  3  1  0
  3  4  2  0
  4  5  1  0
  5  6  1  0
  6  7  1  0
  7  8  2  0
  8  9  1  0
  9 10  1  0
 10 11  1  0
 11 12  1  0
 12 13  1  0
 13 14  1  0
 14 15  1  0
 15 16  1  0
 16 17  1  0
  8 18  1  0
 18 19  2  0
  4 20  1  0
 20 21  2  0
 21  1  1  0
 19  6  1  0
 17 12  1  0
  1 22  1  0
  2 23  1  0
  3 24  1  0
  5 25  1  0
  5 26  1  0
  7 27  1  0
  9 28  1  0
 10 29  1  0
 10 30  1  0
 11 31  1  0
 11 32  1  0
 13 33  1  0
 13 34  1  0
 14 35  1  0
 14 36  1  0
 15 37  1  0
 16 38  1  0
 16 39  1  0
 17 40  1  0
 17 41  1  0
 20 42  1  0
 21 43  1  0
M  END
>  <UniqueID>  (27) 
22

>  <SMILES>  (27) 
c1ccc(Cn2cc(NCCN3CCNCC3)nn2)cc1

>  <Energy>  (27) 
86.95395010278567

>  <Genealogy>  (27) 
c1ccc(Cn2cc(NCCN3CCNCC3)nn2)cc1 (3D coordinates assigned)
c1ccc(Cn2cc(NCCN3CCNCC3)nn2)cc1 (nonaromatic ring conformer: 86.95395010278567 kcal/mol)

>  <smiles>  (27) 
c1ccc(Cn2cc(NCCN3CCNCC3)nn2)cc1

>  <score_type>  (27) 
oracle

>  <origin>  (27) 
adg

>  <m_score__min__energy>  (27) 
-8.3000000000000007

>  <m_primary>  (27) 
energy

$$$$
27:0
     RDKit          3D

 33 35  0  0  0  0  0  0  0  0999 V2000
   -5.2610   25.4540  -30.4820 C   0  0  0  0  0  0  0  0  0  0  0  0
   -3.8810   25.2250  -30.4740 O   0  0  0  0  0  0  0  0  0  0  0  0
   -3.2930   23.9790  -30.3910 C   0  0  0  0  0  0  0  0  0  0  0  0
   -2.3980   23.6030  -29.4210 C   0  0  0  0  0  0  0  0  0  0  0  0
   -1.8810   22.3080  -29.4630 C   0  0  0  0  0  0  0  0  0  0  0  0
   -2.2370   21.4010  -30.4350 C   0  0  0  0  0  0  0  0  0  0  0  0
   -1.9030   20.1300  -30.7020 N   0  0  0  0  0  0  0  0  0  0  0  0
   -2.5480   19.7160  -31.7790 N   0  0  0  0  0  0  0  0  0  0  0  0
   -3.3070   20.6940  -32.2340 C   0  0  0  0  0  0  0  0  0  0  0  0
   -4.2340   20.7480  -33.4140 C   0  0  0  0  0  0  0  0  0  0  0  0
   -5.5860   19.5700  -33.1040 S   0  0  0  0  0  0  0  0  0  0  0  0
   -7.0440   20.4500  -32.5270 C   0  0  0  0  0  0  0  0  0  0  0  0
   -8.3050   19.8560  -32.5470 C   0  0  0  0  0  0  0  0  0  0  0  0
   -9.3880   20.5890  -32.0850 C   0  0  0  0  0  0  0  0  0  0  0  0
   -9.2170   21.8950  -31.6100 C   0  0  0  0  0  0  0  0  0  0  0  0
   -7.9610   22.4720  -31.5950 C   0  0  0  0  0  0  0  0  0  0  0  0
   -6.8740   21.7440  -32.0560 C   0  0  0  0  0  0  0  0  0  0  0  0
   -3.1380   21.7860  -31.4060 C   0  0  0  0  0  0  0  0  0  0  0  0
   -3.6430   23.0580  -31.3640 C   0  0  0  0  0  0  0  0  0  0  0  0
   -5.6286   25.5150  -29.4470 H   0  0  0  0  0  0  0  0  0  0  0  0
   -5.4728   26.3996  -31.0026 H   0  0  0  0  0  0  0  0  0  0  0  0
   -5.7668   24.6275  -31.0026 H   0  0  0  0  0  0  0  0  0  0  0  0
   -2.0958   24.3052  -28.6301 H   0  0  0  0  0  0  0  0  0  0  0  0
   -1.1615   22.0001  -28.6900 H   0  0  0  0  0  0  0  0  0  0  0  0
   -2.5020   18.7630  -32.2460 H   0  0  0  0  0  0  0  0  0  0  0  0
   -4.6399   21.7642  -33.5262 H   0  0  0  0  0  0  0  0  0  0  0  0
   -3.6985   20.4876  -34.3389 H   0  0  0  0  0  0  0  0  0  0  0  0
   -8.4380   18.8299  -32.9205 H   0  0  0  0  0  0  0  0  0  0  0  0
  -10.3920   20.1396  -32.0918 H   0  0  0  0  0  0  0  0  0  0  0  0
  -10.0857   22.4641  -31.2473 H   0  0  0  0  0  0  0  0  0  0  0  0
   -7.8249   23.4976  -31.2214 H   0  0  0  0  0  0  0  0  0  0  0  0
   -5.8709   22.1954  -32.0481 H   0  0  0  0  0  0  0  0  0  0  0  0
   -4.3607   23.3627  -32.1399 H   0  0  0  0  0  0  0  0  0  0  0  0
  1  2  1  0
  2  3  1  0
  3  4  1  0
  4  5  2  0
  5  6  1  0
  6  7  2  0
  7  8  1  0
  8  9  1  0
  9 10  1  0
 10 11  1  0
 11 12  1  0
 12 13  2  0
 13 14  1  0
 14 15  2  0
 15 16  1  0
 16 17  2  0
  9 18  2  0
 18 19  1  0
 19  3  2  0
 18  6  1  0
 17 12  1  0
  1 20  1  0
  1 21  1  0
  1 22  1  0
  4 23  1  0
  5 24  1  0
  8 25  1  0
 10 26  1  0
 10 27  1  0
 13 28  1  0
 14 29  1  0
 15 30  1  0
 16 31  1  0
 17 32  1  0
 19 33  1  0
M  END
>  <smiles>  (28) 
COc1ccc2n[nH]c(CSc3ccccc3)c2c1

>  <score_type>  (28) 
oracle

>  <origin>  (28) 
adg

>  <m_score__min__energy>  (28) 
-7.2999999999999998

>  <m_primary>  (28) 
energy

$$$$
28:0
     RDKit          3D

 47 49  0  0  0  0  0  0  0  0999 V2000
   -4.4600   25.6780  -30.8790 O   0  0  0  0  0  0  0  0  0  0  0  0
   -3.8700   24.7150  -30.3150 C   0  0  0  0  0  0  0  0  0  0  0  0
   -2.6460   24.9350  -29.6070 N   0  0  0  0  0  0  0  0  0  0  0  0
   -1.7380   23.8640  -29.2140 C   0  0  0  0  0  0  0  0  0  0  0  0
   -1.9970   23.4550  -27.7620 C   0  0  0  0  0  0  0  0  0  0  0  0
   -1.8420   21.9670  -27.5950 C   0  0  0  0  0  0  0  0  0  0  0  0
   -2.9740   21.1420  -27.5050 C   0  0  0  0  0  0  0  0  0  0  0  0
   -2.8280   19.7560  -27.3790 C   0  0  0  0  0  0  0  0  0  0  0  0
   -1.5520   19.1860  -27.3550 C   0  0  0  0  0  0  0  0  0  0  0  0
   -0.4200   20.0000  -27.4590 C   0  0  0  0  0  0  0  0  0  0  0  0
   -0.5620   21.3850  -27.5840 C   0  0  0  0  0  0  0  0  0  0  0  0
   -4.4200   23.3130  -30.4270 C   0  0  1  0  0  0  0  0  0  0  0  0
   -5.5150   23.0540  -29.3880 C   0  0  0  0  0  0  0  0  0  0  0  0
   -6.8280   23.0990  -30.1510 C   0  0  0  0  0  0  0  0  0  0  0  0
   -6.4560   23.3760  -31.6010 C   0  0  0  0  0  0  0  0  0  0  0  0
   -5.0190   23.0900  -31.7640 N   0  0  2  0  0  0  0  0  0  0  0  0
   -4.8090   21.7020  -32.2460 C   0  0  0  0  0  0  0  0  0  0  0  0
   -3.3560   21.2910  -32.1630 C   0  0  0  0  0  0  0  0  0  0  0  0
   -2.8510   20.6730  -31.0070 C   0  0  0  0  0  0  0  0  0  0  0  0
   -1.5050   20.3010  -30.9360 C   0  0  0  0  0  0  0  0  0  0  0  0
   -0.6540   20.5410  -32.0170 C   0  0  0  0  0  0  0  0  0  0  0  0
   -1.1470   21.1540  -33.1720 C   0  0  0  0  0  0  0  0  0  0  0  0
   -2.4920   21.5300  -33.2470 C   0  0  0  0  0  0  0  0  0  0  0  0
   -1.8963   22.9950  -29.8696 H   0  0  0  0  0  0  0  0  0  0  0  0
   -0.7017   24.2213  -29.3060 H   0  0  0  0  0  0  0  0  0  0  0  0
   -1.2775   23.9691  -27.1078 H   0  0  0  0  0  0  0  0  0  0  0  0
   -3.0255   23.7369  -27.4922 H   0  0  0  0  0  0  0  0  0  0  0  0
   -3.9797   21.5866  -27.5336 H   0  0  0  0  0  0  0  0  0  0  0  0
   -3.7181   19.1146  -27.2988 H   0  0  0  0  0  0  0  0  0  0  0  0
   -1.4384   18.0965  -27.2542 H   0  0  0  0  0  0  0  0  0  0  0  0
    0.5836   19.5500  -27.4424 H   0  0  0  0  0  0  0  0  0  0  0  0
    0.3305   22.0217  -27.6741 H   0  0  0  0  0  0  0  0  0  0  0  0
   -3.5737   22.6306  -30.2593 H   0  0  0  0  0  0  0  0  0  0  0  0
   -5.3759   22.0670  -28.9227 H   0  0  0  0  0  0  0  0  0  0  0  0
   -5.4906   23.7995  -28.5795 H   0  0  0  0  0  0  0  0  0  0  0  0
   -7.3527   22.1358  -30.0675 H   0  0  0  0  0  0  0  0  0  0  0  0
   -7.5021   23.8710  -29.7515 H   0  0  0  0  0  0  0  0  0  0  0  0
   -7.0438   22.7280  -32.2678 H   0  0  0  0  0  0  0  0  0  0  0  0
   -6.6690   24.4244  -31.8571 H   0  0  0  0  0  0  0  0  0  0  0  0
   -4.6260   23.7530  -32.4770 H   0  0  0  0  0  0  0  0  0  0  0  0
   -5.4085   21.0165  -31.6289 H   0  0  0  0  0  0  0  0  0  0  0  0
   -5.1167   21.6569  -33.3011 H   0  0  0  0  0  0  0  0  0  0  0  0
   -3.5177   20.4808  -30.1534 H   0  0  0  0  0  0  0  0  0  0  0  0
   -1.1158   19.8186  -30.0273 H   0  0  0  0  0  0  0  0  0  0  0  0
    0.4045   20.2475  -31.9593 H   0  0  0  0  0  0  0  0  0  0  0  0
   -0.4762   21.3411  -34.0235 H   0  0  0  0  0  0  0  0  0  0  0  0
   -2.8756   22.0144  -34.1570 H   0  0  0  0  0  0  0  0  0  0  0  0
  1  2  2  0
  2  3  1  0
  3  4  1  0
  4  5  1  0
  5  6  1  0
  6  7  2  0
  7  8  1  0
  8  9  2  0
  9 10  1  0
 10 11  2  0
  2 12  1  0
 12 13  1  0
 13 14  1  0
 14 15  1  0
 15 16  1  0
 16 17  1  0
 17 18  1  0
 18 19  2  0
 19 20  1  0
 20 21  2  0
 21 22  1  0
 22 23  2  0
 11  6  1  0
 16 12  1  0
 23 18  1  0
  4 24  1  0
  4 25  1  0
  5 26  1  0
  5 27  1  0
  7 28  1  0
  8 29  1  0
  9 30  1  0
 10 31  1  0
 11 32  1  0
 12 33  1  1
 13 34  1  0
 13 35  1  0
 14 36  1  0
 14 37  1  0
 15 38  1  0
 15 39  1  0
 16 40  1  6
 17 41  1  0
 17 42  1  0
 19 43  1  0
 20 44  1  0
 21 45  1  0
 22 46  1  0
 23 47  1  0
M  CHG  2   3  -1  16   1
M  END
>  <UniqueID>  (29) 
23

>  <SMILES>  (29) 
O=C([N-]CCc1ccccc1)[C@H]1CCC[N@@H+]1Cc1ccccc1

>  <Energy>  (29) 
48.81663414686206

>  <Genealogy>  (29) 
O=C([N-]CCc1ccccc1)C1CCC[NH+]1Cc1ccccc1 (protonated)
O=C([N-]CCc1ccccc1)[C@H]1CCC[N@@H+]1Cc1ccccc1 (chirality)
O=C([N-]CCc1ccccc1)[C@H]1CCC[N@@H+]1Cc1ccccc1 (3D coordinates assigned)
O=C([N-]CCc1ccccc1)[C@H]1CCC[N@@H+]1Cc1ccccc1 (nonaromatic ring conformer: 48.81663414686206 kcal/mol)

>  <smiles>  (29) 
O=C(NCCc1ccccc1)C1CCCN1Cc1ccccc1

>  <score_type>  (29) 
oracle

>  <origin>  (29) 
adg

>  <m_score__min__energy>  (29) 
-8.8800000000000008

>  <m_primary>  (29) 
energy

$$$$
29:0
     RDKit          3D

 55 58  0  0  0  0  0  0  0  0999 V2000
   -6.4550   24.3410  -29.9270 C   0  0  0  0  0  0  0  0  0  0  0  0
   -5.6640   25.3270  -30.5010 C   0  0  0  0  0  0  0  0  0  0  0  0
   -4.0530   24.8980  -30.2920 S   0  0  0  0  0  0  0  0  0  0  0  0
   -4.3470   23.4570  -29.4710 C   0  0  0  0  0  0  0  0  0  0  0  0
   -3.3190   22.5330  -28.9700 C   0  0  0  0  0  0  0  0  0  0  0  0
   -2.5990   22.6740  -27.7860 C   0  0  0  0  0  0  0  0  0  0  0  0
   -1.6790   21.6420  -27.5700 C   0  0  0  0  0  0  0  0  0  0  0  0
   -1.6810   20.6870  -28.5800 C   0  0  0  0  0  0  0  0  0  0  0  0
   -0.7800   19.4920  -28.6550 C   0  0  0  0  0  0  0  0  0  0  0  0
    0.4230   19.7760  -29.4520 N   0  0  0  0  0  0  0  0  0  0  0  0
    0.2090   19.7350  -30.9120 C   0  0  0  0  0  0  0  0  0  0  0  0
   -0.7720   18.6450  -31.3910 C   0  0  0  0  0  0  0  0  0  0  0  0
   -1.4490   18.9930  -32.7280 C   0  0  0  0  0  0  0  0  0  0  0  0
   -1.3670   20.5000  -33.0470 C   0  0  0  0  0  0  0  0  0  0  0  0
   -2.5940   21.0160  -33.6980 N   0  0  0  0  0  0  0  0  0  0  0  0
   -3.3720   21.9250  -32.8350 C   0  0  0  0  0  0  0  0  0  0  0  0
   -4.7990   21.4610  -32.6670 C   0  0  0  0  0  0  0  0  0  0  0  0
   -5.8290   22.3930  -32.4660 C   0  0  0  0  0  0  0  0  0  0  0  0
   -7.1410   21.9640  -32.2550 C   0  0  0  0  0  0  0  0  0  0  0  0
   -7.4420   20.5940  -32.2380 C   0  0  0  0  0  0  0  0  0  0  0  0
   -8.7560   20.1520  -32.0200 C   0  0  0  0  0  0  0  0  0  0  0  0
   -9.0410   18.7840  -31.9990 C   0  0  0  0  0  0  0  0  0  0  0  0
   -8.0210   17.8490  -32.1960 C   0  0  0  0  0  0  0  0  0  0  0  0
   -6.7080   18.2770  -32.4150 C   0  0  0  0  0  0  0  0  0  0  0  0
   -6.4080   19.6480  -32.4390 C   0  0  0  0  0  0  0  0  0  0  0  0
   -5.0940   20.0880  -32.6540 C   0  0  0  0  0  0  0  0  0  0  0  0
   -2.8100   21.1270  -29.7460 S   0  0  0  0  0  0  0  0  0  0  0  0
   -5.7230   23.2960  -29.3510 C   0  0  0  0  0  0  0  0  0  0  0  0
   -7.5544   24.3775  -29.9250 H   0  0  0  0  0  0  0  0  0  0  0  0
   -6.0292   26.2334  -31.0059 H   0  0  0  0  0  0  0  0  0  0  0  0
   -2.7397   23.5137  -27.0895 H   0  0  0  0  0  0  0  0  0  0  0  0
   -1.0209   21.5916  -26.6900 H   0  0  0  0  0  0  0  0  0  0  0  0
   -0.4759   19.2086  -27.6366 H   0  0  0  0  0  0  0  0  0  0  0  0
   -1.3311   18.6729  -29.1400 H   0  0  0  0  0  0  0  0  0  0  0  0
    1.1760   19.1020  -29.1850 H   0  0  0  0  0  0  0  0  0  0  0  0
   -0.1845   20.7124  -31.2279 H   0  0  0  0  0  0  0  0  0  0  0  0
    1.1836   19.4940  -31.3615 H   0  0  0  0  0  0  0  0  0  0  0  0
   -0.2173   17.7031  -31.5134 H   0  0  0  0  0  0  0  0  0  0  0  0
   -1.5644   18.5585  -30.6330 H   0  0  0  0  0  0  0  0  0  0  0  0
   -0.9517   18.4327  -33.5334 H   0  0  0  0  0  0  0  0  0  0  0  0
   -2.5121   18.7215  -32.6493 H   0  0  0  0  0  0  0  0  0  0  0  0
   -1.2095   21.0502  -32.1076 H   0  0  0  0  0  0  0  0  0  0  0  0
   -0.5330   20.6453  -33.7493 H   0  0  0  0  0  0  0  0  0  0  0  0
   -2.3050   21.5640  -34.5420 H   0  0  0  0  0  0  0  0  0  0  0  0
   -3.2090   20.2420  -34.0380 H   0  0  0  0  0  0  0  0  0  0  0  0
   -2.8944   21.9706  -31.8451 H   0  0  0  0  0  0  0  0  0  0  0  0
   -3.3905   22.9153  -33.3135 H   0  0  0  0  0  0  0  0  0  0  0  0
   -5.6011   23.4691  -32.4747 H   0  0  0  0  0  0  0  0  0  0  0  0
   -7.9413   22.7029  -32.1016 H   0  0  0  0  0  0  0  0  0  0  0  0
   -9.5629   20.8835  -31.8654 H   0  0  0  0  0  0  0  0  0  0  0  0
  -10.0721   18.4418  -31.8268 H   0  0  0  0  0  0  0  0  0  0  0  0
   -8.2518   16.7736  -32.1787 H   0  0  0  0  0  0  0  0  0  0  0  0
   -5.9083   17.5375  -32.5688 H   0  0  0  0  0  0  0  0  0  0  0  0
   -4.2903   19.3541  -32.8133 H   0  0  0  0  0  0  0  0  0  0  0  0
   -6.1898   22.4334  -28.8530 H   0  0  0  0  0  0  0  0  0  0  0  0
  1  2  2  0
  2  3  1  0
  3  4  1  0
  4  5  1  0
  5  6  2  0
  6  7  1  0
  7  8  2  0
  8  9  1  0
  9 10  1  0
 10 11  1  0
 11 12  1  0
 12 13  1  0
 13 14  1  0
 14 15  1  0
 15 16  1  0
 16 17  1  0
 17 18  2  0
 18 19  1  0
 19 20  2  0
 20 21  1  0
 21 22  2  0
 22 23  1  0
 23 24  2  0
 24 25  1  0
 25 26  2  0
  8 27  1  0
  4 28  2  0
 28  1  1  0
 27  5  1  0
 26 17  1  0
 25 20  1  0
  1 29  1  0
  2 30  1  0
  6 31  1  0
  7 32  1  0
  9 33  1  0
  9 34  1  0
 10 35  1  0
 11 36  1  0
 11 37  1  0
 12 38  1  0
 12 39  1  0
 13 40  1  0
 13 41  1  0
 14 42  1  0
 14 43  1  0
 15 44  1  0
 15 45  1  0
 16 46  1  0
 16 47  1  0
 18 48  1  0
 19 49  1  0
 21 50  1  0
 22 51  1  0
 23 52  1  0
 24 53  1  0
 26 54  1  0
 28 55  1  0
M  CHG  1  15   1
M  END
>  <UniqueID>  (30) 
24

>  <SMILES>  (30) 
c1csc(-c2ccc(CNCCCC[NH2+]Cc3ccc4ccccc4c3)s2)c1

>  <Energy>  (30) 
111.60136512650351

>  <Genealogy>  (30) 
c1csc(-c2ccc(CNCCCC[NH2+]Cc3ccc4ccccc4c3)s2)c1 (protonated)
c1csc(-c2ccc(CNCCCC[NH2+]Cc3ccc4ccccc4c3)s2)c1 (3D coordinates assigned)
c1csc(-c2ccc(CNCCCC[NH2+]Cc3ccc4ccccc4c3)s2)c1 (optimized conformer: 111.60136512650351 kcal/mol)

>  <smiles>  (30) 
c1csc(-c2ccc(CNCCCCNCc3ccc4ccccc4c3)s2)c1

>  <score_type>  (30) 
oracle

>  <origin>  (30) 
adg

>  <m_score__min__energy>  (30) 
-9.5899999999999999

>  <m_primary>  (30) 
energy

$$$$
30:0
     RDKit          3D

 39 42  0  0  0  0  0  0  0  0999 V2000
   -8.0240   17.4500  -32.4830 F   0  0  0  0  0  0  0  0  0  0  0  0
   -7.8160   18.7820  -32.3350 C   0  0  0  0  0  0  0  0  0  0  0  0
   -8.7430   19.5610  -31.6360 C   0  0  0  0  0  0  0  0  0  0  0  0
   -8.5300   20.9340  -31.4840 C   0  0  0  0  0  0  0  0  0  0  0  0
   -7.3810   21.5360  -32.0240 C   0  0  0  0  0  0  0  0  0  0  0  0
   -7.1740   23.0190  -31.9000 C   0  0  0  0  0  0  0  0  0  0  0  0
   -5.8900   23.2890  -31.2640 N   0  0  0  0  0  0  0  0  0  0  0  0
   -5.6930   23.7670  -30.0250 C   0  0  0  0  0  0  0  0  0  0  0  0
   -4.3280   23.9380  -29.8920 C   0  0  0  0  0  0  0  0  0  0  0  0
   -3.5870   24.4470  -28.7120 C   0  0  0  0  0  0  0  0  0  0  0  0
   -2.2720   24.9200  -28.8600 C   0  0  0  0  0  0  0  0  0  0  0  0
   -1.5610   25.4010  -27.7580 C   0  0  0  0  0  0  0  0  0  0  0  0
   -2.1470   25.4230  -26.4810 C   0  0  0  0  0  0  0  0  0  0  0  0
   -1.4140   25.9220  -25.3440 N   0  0  0  0  0  0  0  0  0  0  0  0
   -1.2430   27.2120  -24.9840 C   0  0  0  0  0  0  0  0  0  0  0  0
   -0.4770   27.2470  -23.8380 C   0  0  0  0  0  0  0  0  0  0  0  0
   -0.1740   25.9850  -23.4860 N   0  0  0  0  0  0  0  0  0  0  0  0
   -0.7510   25.1990  -24.4140 C   0  0  0  0  0  0  0  0  0  0  0  0
   -3.4630   24.9500  -26.3330 C   0  0  0  0  0  0  0  0  0  0  0  0
   -4.1750   24.4650  -27.4350 C   0  0  0  0  0  0  0  0  0  0  0  0
   -3.7470   23.5680  -31.0530 N   0  0  0  0  0  0  0  0  0  0  0  0
   -4.7190   23.1860  -31.8690 N   0  0  0  0  0  0  0  0  0  0  0  0
   -6.4630   20.7500  -32.7390 C   0  0  0  0  0  0  0  0  0  0  0  0
   -6.6790   19.3760  -32.8880 C   0  0  0  0  0  0  0  0  0  0  0  0
   -9.6405   19.0930  -31.2054 H   0  0  0  0  0  0  0  0  0  0  0  0
   -9.2646   21.5455  -30.9396 H   0  0  0  0  0  0  0  0  0  0  0  0
   -7.1881   23.4743  -32.9013 H   0  0  0  0  0  0  0  0  0  0  0  0
   -7.9798   23.4472  -31.2857 H   0  0  0  0  0  0  0  0  0  0  0  0
   -6.4626   23.9796  -29.2684 H   0  0  0  0  0  0  0  0  0  0  0  0
   -1.7982   24.9114  -29.8527 H   0  0  0  0  0  0  0  0  0  0  0  0
   -0.5320   25.7662  -27.8912 H   0  0  0  0  0  0  0  0  0  0  0  0
   -1.6464   28.0868  -25.5150 H   0  0  0  0  0  0  0  0  0  0  0  0
   -0.1658   28.1554  -23.3014 H   0  0  0  0  0  0  0  0  0  0  0  0
    0.3890   25.6780  -22.6630 H   0  0  0  0  0  0  0  0  0  0  0  0
   -0.6903   24.1007  -24.4154 H   0  0  0  0  0  0  0  0  0  0  0  0
   -3.9373   24.9615  -25.3406 H   0  0  0  0  0  0  0  0  0  0  0  0
   -5.2023   24.0950  -27.3016 H   0  0  0  0  0  0  0  0  0  0  0  0
   -5.5712   21.2162  -33.1833 H   0  0  0  0  0  0  0  0  0  0  0  0
   -5.9527   18.7625  -33.4413 H   0  0  0  0  0  0  0  0  0  0  0  0
  1  2  1  0
  2  3  2  0
  3  4  1  0
  4  5  2  0
  5  6  1  0
  6  7  1  0
  7  8  1  0
  8  9  2  0
  9 10  1  0
 10 11  2  0
 11 12  1  0
 12 13  2  0
 13 14  1  0
 14 15  1  0
 15 16  2  0
 16 17  1  0
 17 18  2  0
 13 19  1  0
 19 20  2  0
  9 21  1  0
 21 22  2  0
  5 23  1  0
 23 24  2  0
 24  2  1  0
 22  7  1  0
 20 10  1  0
 18 14  1  0
  3 25  1  0
  4 26  1  0
  6 27  1  0
  6 28  1  0
  8 29  1  0
 11 30  1  0
 12 31  1  0
 15 32  1  0
 16 33  1  0
 17 34  1  0
 18 35  1  0
 19 36  1  0
 20 37  1  0
 23 38  1  0
 24 39  1  0
M  CHG  1  17   1
M  END
>  <UniqueID>  (31) 
25

>  <SMILES>  (31) 
Fc1ccc(Cn2cc(-c3ccc(-n4cc[nH+]c4)cc3)nn2)cc1

>  <Energy>  (31) 
111.6946775377485

>  <Genealogy>  (31) 
Fc1ccc(Cn2cc(-c3ccc(-n4cc[nH+]c4)cc3)nn2)cc1 (protonated)
Fc1ccc(Cn2cc(-c3ccc(-n4cc[nH+]c4)cc3)nn2)cc1 (3D coordinates assigned)
Fc1ccc(Cn2cc(-c3ccc(-n4cc[nH+]c4)cc3)nn2)cc1 (optimized conformer: 111.6946775377485 kcal/mol)

>  <smiles>  (31) 
Fc1ccc(Cn2cc(-c3ccc(-n4ccnc4)cc3)nn2)cc1

>  <score_type>  (31) 
oracle

>  <origin>  (31) 
adg

>  <m_score__min__energy>  (31) 
-9.4700000000000006

>  <m_primary>  (31) 
energy

$$$$
31:0
     RDKit          3D

 28 29  0  0  0  0  0  0  0  0999 V2000
   -6.3450   25.3020  -29.6910 C   0  0  0  0  0  0  0  0  0  0  0  0
   -5.3800   25.6140  -30.8300 C   0  0  0  0  0  0  0  0  0  0  0  0
   -4.2730   24.7160  -30.8110 O   0  0  0  0  0  0  0  0  0  0  0  0
   -4.3870   23.3530  -30.5140 C   0  0  0  0  0  0  0  0  0  0  0  0
   -4.6140   22.9740  -29.3320 O   0  0  0  0  0  0  0  0  0  0  0  0
   -4.2130   22.3480  -31.5770 C   0  0  0  0  0  0  0  0  0  0  0  0
   -3.0010   21.9410  -32.1030 C   0  0  0  0  0  0  0  0  0  0  0  0
   -3.2080   21.1130  -33.1020 O   0  0  0  0  0  0  0  0  0  0  0  0
   -4.5020   20.9500  -33.2640 C   0  0  0  0  0  0  0  0  0  0  0  0
   -5.1860   21.7010  -32.3260 C   0  0  0  0  0  0  0  0  0  0  0  0
   -6.6530   21.7310  -32.1590 C   0  0  0  0  0  0  0  0  0  0  0  0
   -7.3930   20.5360  -32.1060 C   0  0  0  0  0  0  0  0  0  0  0  0
   -8.7840   20.5750  -31.9690 C   0  0  0  0  0  0  0  0  0  0  0  0
   -9.4470   21.8030  -31.8990 C   0  0  0  0  0  0  0  0  0  0  0  0
   -8.7220   22.9940  -31.9740 C   0  0  0  0  0  0  0  0  0  0  0  0
   -7.3310   22.9600  -32.1100 C   0  0  0  0  0  0  0  0  0  0  0  0
   -5.8400   25.4653  -28.7275 H   0  0  0  0  0  0  0  0  0  0  0  0
   -7.2218   25.9624  -29.7620 H   0  0  0  0  0  0  0  0  0  0  0  0
   -6.6692   24.2533  -29.7620 H   0  0  0  0  0  0  0  0  0  0  0  0
   -5.9092   25.5150  -31.7893 H   0  0  0  0  0  0  0  0  0  0  0  0
   -5.0054   26.6408  -30.7057 H   0  0  0  0  0  0  0  0  0  0  0  0
   -2.0133   22.2617  -31.7402 H   0  0  0  0  0  0  0  0  0  0  0  0
   -4.9697   20.3131  -34.0293 H   0  0  0  0  0  0  0  0  0  0  0  0
   -6.8757   19.5675  -32.1725 H   0  0  0  0  0  0  0  0  0  0  0  0
   -9.3572   19.6376  -31.9163 H   0  0  0  0  0  0  0  0  0  0  0  0
  -10.5407   21.8315  -31.7847 H   0  0  0  0  0  0  0  0  0  0  0  0
   -9.2459   23.9600  -31.9260 H   0  0  0  0  0  0  0  0  0  0  0  0
   -6.7647   23.9005  -32.1790 H   0  0  0  0  0  0  0  0  0  0  0  0
  1  2  1  0
  2  3  1  0
  3  4  1  0
  4  5  2  0
  4  6  1  0
  6  7  2  0
  7  8  1  0
  8  9  1  0
  9 10  2  0
 10 11  1  0
 11 12  2  0
 12 13  1  0
 13 14  2  0
 14 15  1  0
 15 16  2  0
 10  6  1  0
 16 11  1  0
  1 17  1  0
  1 18  1  0
  1 19  1  0
  2 20  1  0
  2 21  1  0
  7 22  1  0
  9 23  1  0
 12 24  1  0
 13 25  1  0
 14 26  1  0
 15 27  1  0
 16 28  1  0
M  END
>  <UniqueID>  (32) 
26

>  <SMILES>  (32) 
CCOC(=O)c1cocc1-c1ccccc1

>  <Energy>  (32) 
56.202736601051214

>  <Genealogy>  (32) 
CCOC(=O)c1cocc1-c1ccccc1 (3D coordinates assigned)
CCOC(=O)c1cocc1-c1ccccc1 (optimized conformer: 56.202736601051214 kcal/mol)

>  <smiles>  (32) 
CCOC(=O)c1cocc1-c1ccccc1

>  <score_type>  (32) 
oracle

>  <origin>  (32) 
adg

>  <m_score__min__energy>  (32) 
-6.0899999999999999

>  <m_primary>  (32) 
energy

$$$$
32:0
     RDKit          3D

 35 36  0  0  0  0  0  0  0  0999 V2000
   -1.2360   26.0510  -29.9980 H   0  0  0  0  0  0  0  0  0  0  0  0
   -1.2730   26.1570  -28.9590 N   0  0  0  0  0  0  0  0  0  0  0  0
   -0.8560   24.6230  -28.2810 S   0  0  0  0  0  0  0  0  0  0  0  0
    0.6430   24.5120  -28.2330 O   0  0  0  0  0  0  0  0  0  0  0  0
   -1.3970   24.5220  -26.8830 O   0  0  0  0  0  0  0  0  0  0  0  0
   -1.5360   23.3240  -29.2730 C   0  0  0  0  0  0  0  0  0  0  0  0
   -0.7430   22.2020  -29.5600 C   0  0  0  0  0  0  0  0  0  0  0  0
    0.2695   22.1273  -29.1366 H   0  0  0  0  0  0  0  0  0  0  0  0
   -1.2280   21.1800  -30.3780 C   0  0  0  0  0  0  0  0  0  0  0  0
   -0.5973   20.3059  -30.5975 H   0  0  0  0  0  0  0  0  0  0  0  0
   -2.5110   21.2660  -30.9170 C   0  0  0  0  0  0  0  0  0  0  0  0
   -2.8904   20.4615  -31.5641 H   0  0  0  0  0  0  0  0  0  0  0  0
   -3.3140   22.3720  -30.6360 C   0  0  0  0  0  0  0  0  0  0  0  0
   -4.3263   22.4314  -31.0622 H   0  0  0  0  0  0  0  0  0  0  0  0
   -2.8430   23.4130  -29.8130 C   0  0  0  0  0  0  0  0  0  0  0  0
   -3.6910   24.5340  -29.5120 N   0  0  0  0  0  0  0  0  0  0  0  0
   -3.3290   25.3270  -28.9400 H   0  0  0  0  0  0  0  0  0  0  0  0
   -5.2810   24.7150  -30.1830 S   0  0  0  0  0  0  0  0  0  0  0  0
   -5.1800   24.7280  -31.6820 O   0  0  0  0  0  0  0  0  0  0  0  0
   -5.8800   26.0090  -29.7090 O   0  0  0  0  0  0  0  0  0  0  0  0
   -6.2850   23.3580  -29.6950 C   0  0  0  0  0  0  0  0  0  0  0  0
   -6.0204   22.7781  -28.7985 H   0  0  0  0  0  0  0  0  0  0  0  0
   -7.3670   23.0250  -30.4040 C   0  0  0  0  0  0  0  0  0  0  0  0
   -8.2704   23.6421  -30.2896 H   0  0  0  0  0  0  0  0  0  0  0  0
   -7.4230   21.8720  -31.3370 C   0  0  0  0  0  0  0  0  0  0  0  0
   -8.6180   21.1360  -31.4230 C   0  0  0  0  0  0  0  0  0  0  0  0
   -9.4797   21.4203  -30.8012 H   0  0  0  0  0  0  0  0  0  0  0  0
   -8.7200   20.0450  -32.2930 C   0  0  0  0  0  0  0  0  0  0  0  0
   -9.6576   19.4724  -32.3481 H   0  0  0  0  0  0  0  0  0  0  0  0
   -7.6340   19.6820  -33.0910 C   0  0  0  0  0  0  0  0  0  0  0  0
   -7.7139   18.8204  -33.7701 H   0  0  0  0  0  0  0  0  0  0  0  0
   -6.4460   20.4130  -33.0270 C   0  0  0  0  0  0  0  0  0  0  0  0
   -5.5930   20.1293  -33.6610 H   0  0  0  0  0  0  0  0  0  0  0  0
   -6.3370   21.5040  -32.1600 C   0  0  0  0  0  0  0  0  0  0  0  0
   -5.4000   22.0787  -32.1189 H   0  0  0  0  0  0  0  0  0  0  0  0
  1  2  1  0
  2  3  1  0
  3  4  2  0
  3  5  2  0
  3  6  1  0
  6  7  2  0
  7  8  1  0
  7  9  1  0
  9 10  1  0
  9 11  2  0
 11 12  1  0
 11 13  1  0
 13 14  1  0
 13 15  2  0
 15 16  1  0
 16 17  1  0
 16 18  1  0
 18 19  2  0
 18 20  2  0
 18 21  1  0
 21 22  1  0
 21 23  2  0
 23 24  1  0
 23 25  1  0
 25 26  2  0
 26 27  1  0
 26 28  1  0
 28 29  1  0
 28 30  2  0
 30 31  1  0
 30 32  1  0
 32 33  1  0
 32 34  2  0
 34 35  1  0
 15  6  1  0
 34 25  1  0
M  CHG  1   2  -1
M  END
>  <UniqueID>  (33) 
27

>  <SMILES>  (33) 
[NH-]S(=O)(=O)c1ccccc1NS(=O)(=O)/C=C/c1ccccc1

>  <Energy>  (33) 
42.309715342862994

>  <Genealogy>  (33) 
[NH-]S(=O)(=O)c1ccccc1NS(=O)(=O)C=Cc1ccccc1 (protonated)
[NH-]S(=O)(=O)c1ccccc1NS(=O)(=O)/C=C/c1ccccc1 (cis-trans isomerization)
[NH-]S(=O)(=O)c1ccccc1NS(=O)(=O)/C=C/c1ccccc1 (3D coordinates assigned)
[NH-]S(=O)(=O)c1ccccc1NS(=O)(=O)/C=C/c1ccccc1 (optimized conformer: 42.309715342862994 kcal/mol)

>  <smiles>  (33) 
NS(=O)(=O)c1ccccc1NS(=O)(=O)C=Cc1ccccc1

>  <score_type>  (33) 
oracle

>  <origin>  (33) 
adg

>  <m_score__min__energy>  (33) 
-11.789999999999999

>  <m_primary>  (33) 
energy

$$$$
33:0
     RDKit          3D

 46 49  0  0  1  0  0  0  0  0999 V2000
   -8.9450   20.2220  -32.6430 C   0  0  0  0  0  0  0  0  0  0  0  0
   -8.5050   20.5410  -31.3350 O   0  0  0  0  0  0  0  0  0  0  0  0
   -7.8000   21.7240  -31.1690 C   0  0  0  0  0  0  0  0  0  0  0  0
   -7.3050   22.3080  -32.3310 C   0  0  0  0  0  0  0  0  0  0  0  0
   -6.5940   23.4930  -32.2160 C   0  0  0  0  0  0  0  0  0  0  0  0
   -6.3680   24.0940  -30.9980 C   0  0  0  0  0  0  0  0  0  0  0  0
   -5.6040   25.3680  -30.8670 C   0  0  0  0  0  0  0  0  0  0  0  0
   -4.2090   25.0460  -30.7660 N   0  0  0  0  0  0  0  0  0  0  0  0
   -3.7420   23.8880  -30.4350 C   0  0  0  0  0  0  0  0  0  0  0  0
   -3.4810   23.6390  -29.1400 N   0  0  0  0  0  0  0  0  0  0  0  0
   -2.9940   22.4480  -28.7470 C   0  0  0  0  0  0  0  0  0  0  0  0
   -2.6390   21.9010  -27.5670 N   0  0  0  0  0  0  0  0  0  0  0  0
   -2.2080   20.6430  -27.7880 C   0  0  0  0  0  0  0  0  0  0  0  0
   -2.2950   20.4060  -29.1160 N   0  0  0  0  0  0  0  0  0  0  0  0
   -2.7800   21.5090  -29.7380 C   0  0  0  0  0  0  0  0  0  0  0  0
   -3.0560   21.7890  -31.0600 C   0  0  0  0  0  0  0  0  0  0  0  0
   -2.7580   20.5310  -32.2980 S   0  0  0  0  0  0  0  0  0  0  0  0
   -4.1900   20.5970  -33.4420 C   0  0  0  0  0  0  0  0  0  0  0  0
   -5.1120   19.4770  -33.1750 C   0  0  0  0  0  0  0  0  0  0  0  0
   -5.6240   18.6500  -34.1400 C   0  0  0  0  0  0  0  0  0  0  0  0
   -6.4910   17.6010  -33.8570 C   0  0  0  0  0  0  0  0  0  0  0  0
   -6.8500   17.3870  -32.5260 C   0  0  0  0  0  0  0  0  0  0  0  0
   -6.3470   18.2110  -31.5130 C   0  0  0  0  0  0  0  0  0  0  0  0
   -5.4900   19.2340  -31.8700 C   0  0  0  0  0  0  0  0  0  0  0  0
   -3.5480   23.0040  -31.4210 N   0  0  0  0  0  0  0  0  0  0  0  0
   -6.8790   23.4780  -29.8760 C   0  0  0  0  0  0  0  0  0  0  0  0
   -7.5950   22.3010  -29.9200 C   0  0  0  0  0  0  0  0  0  0  0  0
   -9.8343   19.5773  -32.5837 H   0  0  0  0  0  0  0  0  0  0  0  0
   -9.1984   21.1476  -33.1806 H   0  0  0  0  0  0  0  0  0  0  0  0
   -8.1440   19.6933  -33.1806 H   0  0  0  0  0  0  0  0  0  0  0  0
   -7.4730   21.8426  -33.3134 H   0  0  0  0  0  0  0  0  0  0  0  0
   -6.1983   23.9676  -33.1261 H   0  0  0  0  0  0  0  0  0  0  0  0
   -5.7775   25.9988  -31.7513 H   0  0  0  0  0  0  0  0  0  0  0  0
   -5.9327   25.9179  -29.9728 H   0  0  0  0  0  0  0  0  0  0  0  0
   -2.6900   22.3730  -26.6320 H   0  0  0  0  0  0  0  0  0  0  0  0
   -1.8499   19.9363  -27.0249 H   0  0  0  0  0  0  0  0  0  0  0  0
   -4.7241   21.5481  -33.3000 H   0  0  0  0  0  0  0  0  0  0  0  0
   -3.8246   20.5201  -34.4767 H   0  0  0  0  0  0  0  0  0  0  0  0
   -5.3356   18.8242  -35.1871 H   0  0  0  0  0  0  0  0  0  0  0  0
   -6.8827   16.9583  -34.6592 H   0  0  0  0  0  0  0  0  0  0  0  0
   -7.5338   16.5641  -32.2708 H   0  0  0  0  0  0  0  0  0  0  0  0
   -6.6263   18.0486  -30.4615 H   0  0  0  0  0  0  0  0  0  0  0  0
   -5.0906   19.8846  -31.0780 H   0  0  0  0  0  0  0  0  0  0  0  0
   -3.7400   23.1720  -32.4200 H   0  0  0  0  0  0  0  0  0  0  0  0
   -6.7069   23.9490  -28.8969 H   0  0  0  0  0  0  0  0  0  0  0  0
   -7.9886   21.8365  -29.0039 H   0  0  0  0  0  0  0  0  0  0  0  0
  1  2  1  0
  2  3  1  0
  3  4  2  0
  4  5  1  0
  5  6  2  0
  6  7  1  0
  7  8  1  0
  8  9  2  0
  9 10  1  0
 10 11  2  0
 11 12  1  0
 12 13  1  0
 13 14  2  0
 14 15  1  0
 15 16  2  0
 16 17  1  0
 17 18  1  0
 18 19  1  0
 19 20  2  0
 20 21  1  0
 21 22  2  0
 22 23  1  0
 23 24  2  0
 16 25  1  0
  6 26  1  0
 26 27  2  0
 27  3  1  0
 25  9  1  0
 15 11  1  0
 24 19  1  0
  1 28  1  0
  1 29  1  0
  1 30  1  0
  4 31  1  0
  5 32  1  0
  7 33  1  0
  7 34  1  0
 12 35  1  0
 13 36  1  0
 18 37  1  0
 18 38  1  0
 20 39  1  0
 21 40  1  0
 22 41  1  0
 23 42  1  0
 24 43  1  0
 25 44  1  0
 26 45  1  0
 27 46  1  0
M  END
>  <smiles>  (34) 
COc1ccc(CN=c2nc3[nH]cnc3c(SCc3ccccc3)[nH]2)cc1

>  <score_type>  (34) 
oracle

>  <origin>  (34) 
adg

>  <m_score__min__energy>  (34) 
-8.6400000000000006

>  <m_primary>  (34) 
energy

$$$$
34:0
     RDKit          3D

 61 67  0  0  0  0  0  0  0  0999 V2000
   -5.2710   21.7150  -31.0090 O   0  0  0  0  0  0  0  0  0  0  0  0
   -5.7670   20.8390  -31.7670 C   0  0  0  0  0  0  0  0  0  0  0  0
   -7.1520   20.7820  -31.9980 C   0  0  0  0  0  0  0  0  0  0  0  0
   -7.6750   19.8070  -32.8380 C   0  0  0  0  0  0  0  0  0  0  0  0
   -6.8380   18.8720  -33.4630 C   0  0  0  0  0  0  0  0  0  0  0  0
   -5.4680   18.9660  -33.2020 C   0  0  0  0  0  0  0  0  0  0  0  0
   -4.9690   19.9210  -32.3830 N   0  0  0  0  0  0  0  0  0  0  0  0
   -3.5100   19.8010  -32.2820 C   0  0  0  0  0  0  0  0  0  0  0  0
   -3.2150   18.6240  -33.1740 C   0  0  0  0  0  0  0  0  0  0  0  0
   -4.3900   18.1480  -33.7040 C   0  0  0  0  0  0  0  0  0  0  0  0
   -4.4380   17.0990  -34.5580 N   0  0  0  0  0  0  0  0  0  0  0  0
   -3.2760   16.4790  -34.9260 C   0  0  0  0  0  0  0  0  0  0  0  0
   -3.3150   15.3970  -35.8210 C   0  0  0  0  0  0  0  0  0  0  0  0
   -2.1360   14.7670  -36.2190 C   0  0  0  0  0  0  0  0  0  0  0  0
   -0.9060   15.2090  -35.7350 C   0  0  0  0  0  0  0  0  0  0  0  0
   -0.8400   16.2810  -34.8430 C   0  0  0  0  0  0  0  0  0  0  0  0
   -2.0180   16.9310  -34.4140 C   0  0  0  0  0  0  0  0  0  0  0  0
   -1.9900   18.0260  -33.5000 C   0  0  0  0  0  0  0  0  0  0  0  0
   -0.7020   18.5770  -32.9260 C   0  0  0  0  0  0  0  0  0  0  0  0
   -0.7770   18.6540  -31.4650 N   0  0  0  0  0  0  0  0  0  0  0  0
   -0.8180   19.8970  -30.7400 C   0  0  0  0  0  0  0  0  0  0  0  0
   -0.3310   21.0640  -31.3500 C   0  0  0  0  0  0  0  0  0  0  0  0
   -0.3600   22.2860  -30.6720 C   0  0  0  0  0  0  0  0  0  0  0  0
   -0.8810   22.3620  -29.3740 C   0  0  0  0  0  0  0  0  0  0  0  0
   -0.8990   23.9010  -28.5230 S   0  0  0  0  0  0  0  0  0  0  0  0
   -1.3500   23.6790  -27.1070 O   0  0  0  0  0  0  0  0  0  0  0  0
    0.4820   24.4940  -28.5160 O   0  0  0  0  0  0  0  0  0  0  0  0
   -1.9950   24.9760  -29.3310 N   0  0  0  0  0  0  0  0  0  0  0  0
   -3.2460   24.7050  -29.5430 C   0  0  0  0  0  0  0  0  0  0  0  0
   -3.8870   25.2930  -30.5870 N   0  0  0  0  0  0  0  0  0  0  0  0
   -5.1980   25.0350  -30.8410 C   0  0  0  0  0  0  0  0  0  0  0  0
   -5.9030   24.1530  -30.0240 C   0  0  0  0  0  0  0  0  0  0  0  0
   -5.2330   23.5560  -28.9560 C   0  0  0  0  0  0  0  0  0  0  0  0
   -3.9240   23.8410  -28.7350 N   0  0  0  0  0  0  0  0  0  0  0  0
   -1.3620   21.2000  -28.7560 C   0  0  0  0  0  0  0  0  0  0  0  0
   -1.3350   19.9770  -29.4320 C   0  0  0  0  0  0  0  0  0  0  0  0
   -9.1470   19.8380  -33.0190 C   0  0  0  0  0  0  0  0  0  0  0  0
   -9.7970   21.2040  -31.9930 S   0  0  0  0  0  0  0  0  0  0  0  0
   -8.1440   21.7120  -31.4000 C   0  0  0  0  0  0  0  0  0  0  0  0
   -7.2424   18.0970  -34.1307 H   0  0  0  0  0  0  0  0  0  0  0  0
   -3.0105   20.7107  -32.6466 H   0  0  0  0  0  0  0  0  0  0  0  0
   -3.1521   19.6688  -31.2503 H   0  0  0  0  0  0  0  0  0  0  0  0
   -5.3590   16.7770  -34.9330 H   0  0  0  0  0  0  0  0  0  0  0  0
   -4.2814   15.0444  -36.2104 H   0  0  0  0  0  0  0  0  0  0  0  0
   -2.1771   13.9182  -36.9174 H   0  0  0  0  0  0  0  0  0  0  0  0
    0.0194   14.7097  -36.0581 H   0  0  0  0  0  0  0  0  0  0  0  0
    0.1375   16.6221  -34.4714 H   0  0  0  0  0  0  0  0  0  0  0  0
    0.1312   17.9176  -33.2105 H   0  0  0  0  0  0  0  0  0  0  0  0
   -0.5414   19.5892  -33.3256 H   0  0  0  0  0  0  0  0  0  0  0  0
   -0.7970   17.7630  -30.9160 H   0  0  0  0  0  0  0  0  0  0  0  0
    0.0770   21.0162  -32.3704 H   0  0  0  0  0  0  0  0  0  0  0  0
    0.0281   23.1922  -31.1600 H   0  0  0  0  0  0  0  0  0  0  0  0
   -5.7010   25.5216  -31.6897 H   0  0  0  0  0  0  0  0  0  0  0  0
   -6.9633   23.9327  -30.2169 H   0  0  0  0  0  0  0  0  0  0  0  0
   -5.7640   22.8559  -28.2943 H   0  0  0  0  0  0  0  0  0  0  0  0
   -1.7631   21.2507  -27.7330 H   0  0  0  0  0  0  0  0  0  0  0  0
   -1.7197   19.0716  -28.9398 H   0  0  0  0  0  0  0  0  0  0  0  0
   -9.3919   20.0134  -34.0770 H   0  0  0  0  0  0  0  0  0  0  0  0
   -9.5950   18.8796  -32.7177 H   0  0  0  0  0  0  0  0  0  0  0  0
   -7.9313   22.7435  -31.7175 H   0  0  0  0  0  0  0  0  0  0  0  0
   -8.0974   21.6755  -30.3016 H   0  0  0  0  0  0  0  0  0  0  0  0
  1  2  2  0
  2  3  1  0
  3  4  2  0
  4  5  1  0
  5  6  2  0
  6  7  1  0
  7  8  1  0
  8  9  1  0
  9 10  2  0
 10 11  1  0
 11 12  2  0
 12 13  1  0
 13 14  2  0
 14 15  1  0
 15 16  2  0
 16 17  1  0
 17 18  2  0
 18 19  1  0
 19 20  1  0
 20 21  1  0
 21 22  2  0
 22 23  1  0
 23 24  2  0
 24 25  1  0
 25 26  2  0
 25 27  2  0
 25 28  1  0
 28 29  2  3
 29 30  1  0
 30 31  2  0
 31 32  1  0
 32 33  2  0
 33 34  1  0
 24 35  1  0
 35 36  2  0
  4 37  1  0
 37 38  1  0
 38 39  1  0
  7  2  1  0
 18  9  1  0
 36 21  1  0
 39  3  1  0
 10  6  1  0
 17 12  1  0
 34 29  1  0
  5 40  1  0
  8 41  1  0
  8 42  1  0
 11 43  1  0
 13 44  1  0
 14 45  1  0
 15 46  1  0
 16 47  1  0
 19 48  1  0
 19 49  1  0
 20 50  1  0
 22 51  1  0
 23 52  1  0
 31 53  1  0
 32 54  1  0
 33 55  1  0
 35 56  1  0
 36 57  1  0
 37 58  1  0
 37 59  1  0
 39 60  1  0
 39 61  1  0
M  CHG  2  11   1  34  -1
M  END
>  <UniqueID>  (35) 
28

>  <SMILES>  (35) 
O=c1c2c(cc3n1Cc1c-3[nH+]c3ccccc3c1CNc1ccc(S(=O)(=O)N=c3nccc[n-]3)cc1)CSC2

>  <Energy>  (35) 
106.2360647532874

>  <Genealogy>  (35) 
O=c1c2c(cc3n1Cc1c-3[nH+]c3ccccc3c1CNc1ccc(S(=O)(=O)N=c3nccc[n-]3)cc1)CSC2 (protonated)
O=c1c2c(cc3n1Cc1c-3[nH+]c3ccccc3c1CNc1ccc(S(=O)(=O)N=c3nccc[n-]3)cc1)CSC2 (3D coordinates assigned)
O=c1c2c(cc3n1Cc1c-3[nH+]c3ccccc3c1CNc1ccc(S(=O)(=O)N=c3nccc[n-]3)cc1)CSC2 (nonaromatic ring conformer: 106.2360647532874 kcal/mol)

>  <smiles>  (35) 
O=c1c2c(cc3n1Cc1c-3nc3ccccc3c1CNc1ccc(S(=O)(=O)N=c3nccc[nH]3)cc1)CSC2

>  <score_type>  (35) 
oracle

>  <origin>  (35) 
adg

>  <m_score__min__energy>  (35) 
-11.77

>  <m_primary>  (35) 
energy

$$$$
35:0
     RDKit          3D

 46 50  0  0  0  0  0  0  0  0999 V2000
   -0.4590   20.4080  -32.3740 C   0  0  0  0  0  0  0  0  0  0  0  0
   -0.8260   20.5960  -31.0200 C   0  0  0  0  0  0  0  0  0  0  0  0
   -2.0770   21.1530  -30.6880 C   0  0  0  0  0  0  0  0  0  0  0  0
   -2.9230   21.4950  -31.7430 C   0  0  0  0  0  0  0  0  0  0  0  0
   -2.5660   21.3220  -33.0460 C   0  0  0  0  0  0  0  0  0  0  0  0
   -1.3380   20.7790  -33.4110 C   0  0  0  0  0  0  0  0  0  0  0  0
   -3.5510   21.7820  -33.8370 N   0  0  0  0  0  0  0  0  0  0  0  0
   -4.4900   22.2230  -33.0050 N   0  0  0  0  0  0  0  0  0  0  0  0
   -4.1460   22.0560  -31.7280 N   0  0  0  0  0  0  0  0  0  0  0  0
   -4.8980   22.5030  -30.5420 C   0  0  2  0  0  0  0  0  0  0  0  0
   -6.1380   23.3590  -30.9030 C   0  0  0  0  0  0  0  0  0  0  0  0
   -7.0110   22.7180  -31.9170 N   0  0  0  0  0  0  0  0  0  0  0  0
   -8.3770   23.2770  -31.9600 C   0  0  0  0  0  0  0  0  0  0  0  0
   -9.3700   22.1250  -31.8860 C   0  0  0  0  0  0  0  0  0  0  0  0
   -8.5430   20.8900  -32.1370 C   0  0  0  0  0  0  0  0  0  0  0  0
   -7.1650   21.2800  -31.6550 C   0  0  0  0  0  0  0  0  0  0  0  0
   -3.9870   23.1680  -29.5290 C   0  0  0  0  0  0  0  0  0  0  0  0
   -3.9310   22.6610  -28.2040 C   0  0  0  0  0  0  0  0  0  0  0  0
   -3.1180   23.2730  -27.2340 C   0  0  0  0  0  0  0  0  0  0  0  0
   -2.3800   24.3870  -27.6150 C   0  0  0  0  0  0  0  0  0  0  0  0
   -2.4290   24.8840  -28.8760 C   0  0  0  0  0  0  0  0  0  0  0  0
   -3.2200   24.3100  -29.8650 C   0  0  0  0  0  0  0  0  0  0  0  0
   -1.6060   25.9910  -28.9660 O   0  0  0  0  0  0  0  0  0  0  0  0
   -1.0020   26.2010  -27.6820 C   0  0  0  0  0  0  0  0  0  0  0  0
   -1.5230   25.1540  -26.8490 O   0  0  0  0  0  0  0  0  0  0  0  0
    0.5195   19.9691  -32.6186 H   0  0  0  0  0  0  0  0  0  0  0  0
   -0.1289   20.3049  -30.2204 H   0  0  0  0  0  0  0  0  0  0  0  0
   -2.3740   21.3115  -29.6408 H   0  0  0  0  0  0  0  0  0  0  0  0
   -1.0641   20.6446  -34.4678 H   0  0  0  0  0  0  0  0  0  0  0  0
   -5.3750   22.6640  -33.3350 H   0  0  0  0  0  0  0  0  0  0  0  0
   -5.3049   21.6027  -30.0583 H   0  0  0  0  0  0  0  0  0  0  0  0
   -6.7268   23.5257  -29.9889 H   0  0  0  0  0  0  0  0  0  0  0  0
   -5.7718   24.3025  -31.3340 H   0  0  0  0  0  0  0  0  0  0  0  0
   -8.5286   23.9536  -31.1061 H   0  0  0  0  0  0  0  0  0  0  0  0
   -8.5244   23.8439  -32.8911 H   0  0  0  0  0  0  0  0  0  0  0  0
   -9.8404   22.0816  -30.8926 H   0  0  0  0  0  0  0  0  0  0  0  0
  -10.1878   22.2332  -32.6137 H   0  0  0  0  0  0  0  0  0  0  0  0
   -8.9314   20.0345  -31.5650 H   0  0  0  0  0  0  0  0  0  0  0  0
   -8.5537   20.5759  -33.1911 H   0  0  0  0  0  0  0  0  0  0  0  0
   -7.0706   21.0798  -30.5775 H   0  0  0  0  0  0  0  0  0  0  0  0
   -6.3879   20.7002  -32.1745 H   0  0  0  0  0  0  0  0  0  0  0  0
   -4.5305   21.7793  -27.9333 H   0  0  0  0  0  0  0  0  0  0  0  0
   -3.0677   22.8827  -26.2068 H   0  0  0  0  0  0  0  0  0  0  0  0
   -3.2492   24.7314  -30.8806 H   0  0  0  0  0  0  0  0  0  0  0  0
    0.0933   26.1287  -27.7538 H   0  0  0  0  0  0  0  0  0  0  0  0
   -1.2266   27.1994  -27.2787 H   0  0  0  0  0  0  0  0  0  0  0  0
  1  2  2  0
  2  3  1  0
  3  4  2  0
  4  5  1  0
  5  6  2  0
  5  7  1  0
  7  8  2  0
  8  9  1  0
  9 10  1  0
 10 11  1  0
 11 12  1  0
 12 13  1  0
 13 14  1  0
 14 15  1  0
 15 16  1  0
 10 17  1  0
 17 18  2  0
 18 19  1  0
 19 20  2  0
 20 21  1  0
 21 22  2  0
 21 23  1  0
 23 24  1  0
 24 25  1  0
  6  1  1  0
 16 12  1  0
 22 17  1  0
  9  4  1  0
 25 20  1  0
  1 26  1  0
  2 27  1  0
  3 28  1  0
  6 29  1  0
  8 30  1  0
 10 31  1  1
 11 32  1  0
 11 33  1  0
 13 34  1  0
 13 35  1  0
 14 36  1  0
 14 37  1  0
 15 38  1  0
 15 39  1  0
 16 40  1  0
 16 41  1  0
 18 42  1  0
 19 43  1  0
 22 44  1  0
 24 45  1  0
 24 46  1  0
M  CHG  1   8   1
M  END
>  <UniqueID>  (36) 
29

>  <SMILES>  (36) 
c1ccc2c(c1)n[nH+]n2[C@H](CN1CCCC1)c1ccc2c(c1)OCO2

>  <Energy>  (36) 
127.82276839451735

>  <Genealogy>  (36) 
c1ccc2c(c1)n[nH+]n2C(CN1CCCC1)c1ccc2c(c1)OCO2 (protonated)
c1ccc2c(c1)n[nH+]n2[C@H](CN1CCCC1)c1ccc2c(c1)OCO2 (chirality)
c1ccc2c(c1)n[nH+]n2[C@H](CN1CCCC1)c1ccc2c(c1)OCO2 (3D coordinates assigned)
c1ccc2c(c1)n[nH+]n2[C@H](CN1CCCC1)c1ccc2c(c1)OCO2 (nonaromatic ring conformer: 127.82276839451735 kcal/mol)

>  <smiles>  (36) 
c1ccc2c(c1)nnn2C(CN1CCCC1)c1ccc2c(c1)OCO2

>  <score_type>  (36) 
oracle

>  <origin>  (36) 
adg

>  <m_score__min__energy>  (36) 
-8.1999999999999993

>  <m_primary>  (36) 
energy

$$$$
36:0
     RDKit          3D

 37 39  0  0  0  0  0  0  0  0999 V2000
   -6.3880   25.9240  -29.3480 C   0  0  0  0  0  0  0  0  0  0  0  0
   -6.1580   24.6210  -30.0420 C   0  0  0  0  0  0  0  0  0  0  0  0
   -7.1400   23.7670  -30.3870 N   0  0  0  0  0  0  0  0  0  0  0  0
   -6.5870   22.7590  -31.0510 N   0  0  0  0  0  0  0  0  0  0  0  0
   -7.3510   21.6710  -31.5970 C   0  0  0  0  0  0  0  0  0  0  0  0
   -8.7270   21.8270  -31.8300 C   0  0  0  0  0  0  0  0  0  0  0  0
   -9.4830   20.7670  -32.3430 C   0  0  0  0  0  0  0  0  0  0  0  0
   -8.8720   19.5390  -32.6140 C   0  0  0  0  0  0  0  0  0  0  0  0
   -7.5070   19.3670  -32.3660 C   0  0  0  0  0  0  0  0  0  0  0  0
   -6.7500   20.4250  -31.8540 C   0  0  0  0  0  0  0  0  0  0  0  0
   -5.2540   22.9640  -31.1640 C   0  0  0  0  0  0  0  0  0  0  0  0
   -4.1770   22.0520  -32.2180 Cl  0  0  0  0  0  0  0  0  0  0  0  0
   -4.9540   24.1450  -30.5120 C   0  0  0  0  0  0  0  0  0  0  0  0
   -3.6980   24.8330  -30.4480 N   0  0  0  0  0  0  0  0  0  0  0  0
   -2.5990   24.4830  -29.5970 C   0  0  0  0  0  0  0  0  0  0  0  0
   -1.7310   25.3590  -29.3430 O   0  0  0  0  0  0  0  0  0  0  0  0
   -2.4840   23.1430  -28.9710 C   0  0  0  0  0  0  0  0  0  0  0  0
   -1.3780   22.3160  -29.2340 C   0  0  0  0  0  0  0  0  0  0  0  0
   -1.2750   21.0590  -28.6320 C   0  0  0  0  0  0  0  0  0  0  0  0
   -2.2800   20.5970  -27.7640 C   0  0  0  0  0  0  0  0  0  0  0  0
   -2.1740   19.3050  -27.1390 N   0  0  0  0  0  0  0  0  0  0  0  0
   -1.1280   18.6310  -27.2390 O   0  0  0  0  0  0  0  0  0  0  0  0
   -3.2270   18.7880  -26.4180 O   0  0  0  0  0  0  0  0  0  0  0  0
   -3.3940   21.4170  -27.5190 C   0  0  0  0  0  0  0  0  0  0  0  0
   -3.4970   22.6740  -28.1220 C   0  0  0  0  0  0  0  0  0  0  0  0
   -6.3607   25.7694  -28.2593 H   0  0  0  0  0  0  0  0  0  0  0  0
   -5.6018   26.6371  -29.6369 H   0  0  0  0  0  0  0  0  0  0  0  0
   -7.3708   26.3248  -29.6369 H   0  0  0  0  0  0  0  0  0  0  0  0
   -9.2135   22.7882  -31.6079 H   0  0  0  0  0  0  0  0  0  0  0  0
  -10.5583   20.9000  -32.5331 H   0  0  0  0  0  0  0  0  0  0  0  0
   -9.4656   18.7079  -33.0225 H   0  0  0  0  0  0  0  0  0  0  0  0
   -7.0283   18.3987  -32.5738 H   0  0  0  0  0  0  0  0  0  0  0  0
   -5.6783   20.2825  -31.6509 H   0  0  0  0  0  0  0  0  0  0  0  0
   -0.5885   22.6606  -29.9181 H   0  0  0  0  0  0  0  0  0  0  0  0
   -0.3999   20.4255  -28.8391 H   0  0  0  0  0  0  0  0  0  0  0  0
   -4.1917   21.0672  -26.8472 H   0  0  0  0  0  0  0  0  0  0  0  0
   -4.3802   23.3006  -27.9289 H   0  0  0  0  0  0  0  0  0  0  0  0
  1  2  1  0
  2  3  2  0
  3  4  1  0
  4  5  1  0
  5  6  2  0
  6  7  1  0
  7  8  2  0
  8  9  1  0
  9 10  2  0
  4 11  1  0
 11 12  1  0
 11 13  2  0
 13 14  1  0
 14 15  1  0
 15 16  2  0
 15 17  1  0
 17 18  2  0
 18 19  1  0
 19 20  2  0
 20 21  1  0
 21 22  2  0
 21 23  1  0
 20 24  1  0
 24 25  2  0
 13  2  1  0
 25 17  1  0
 10  5  1  0
  1 26  1  0
  1 27  1  0
  1 28  1  0
  6 29  1  0
  7 30  1  0
  8 31  1  0
  9 32  1  0
 10 33  1  0
 18 34  1  0
 19 35  1  0
 24 36  1  0
 25 37  1  0
M  CHG  3  14  -1  21   1  23  -1
M  END
>  <UniqueID>  (37) 
30

>  <SMILES>  (37) 
Cc1nn(-c2ccccc2)c(Cl)c1[N-]C(=O)c1ccc([N+](=O)[O-])cc1

>  <Energy>  (37) 
83.70458660662975

>  <Genealogy>  (37) 
Cc1nn(-c2ccccc2)c(Cl)c1[N-]C(=O)c1ccc([N+](=O)[O-])cc1 (protonated)
Cc1nn(-c2ccccc2)c(Cl)c1[N-]C(=O)c1ccc([N+](=O)[O-])cc1 (3D coordinates assigned)
Cc1nn(-c2ccccc2)c(Cl)c1[N-]C(=O)c1ccc([N+](=O)[O-])cc1 (optimized conformer: 83.70458660662975 kcal/mol)

>  <smiles>  (37) 
Cc1nn(-c2ccccc2)c(Cl)c1NC(=O)c1ccc([N+](=O)[O-])cc1

>  <score_type>  (37) 
oracle

>  <origin>  (37) 
adg

>  <m_score__min__energy>  (37) 
-10.98

>  <m_primary>  (37) 
energy

$$$$
37:0
     RDKit          3D

 37 39  0  0  0  0  0  0  0  0999 V2000
   -6.4290   25.6420  -29.0600 C   0  0  0  0  0  0  0  0  0  0  0  0
   -7.0600   24.9950  -30.1580 O   0  0  0  0  0  0  0  0  0  0  0  0
   -6.5400   23.8770  -30.8310 C   0  0  0  0  0  0  0  0  0  0  0  0
   -7.3310   22.7560  -31.1340 C   0  0  0  0  0  0  0  0  0  0  0  0
   -6.7800   21.6510  -31.7940 C   0  0  0  0  0  0  0  0  0  0  0  0
   -5.4330   21.6610  -32.2100 C   0  0  0  0  0  0  0  0  0  0  0  0
   -4.6450   22.7870  -31.8910 C   0  0  0  0  0  0  0  0  0  0  0  0
   -5.1880   23.8800  -31.2080 C   0  0  0  0  0  0  0  0  0  0  0  0
   -4.3650   24.9690  -30.9210 O   0  0  0  0  0  0  0  0  0  0  0  0
   -4.8910   20.5720  -33.0110 N   0  0  0  0  0  0  0  0  0  0  0  0
   -3.4350   20.4060  -33.1370 C   0  0  0  0  0  0  0  0  0  0  0  0
   -5.7510   19.6480  -33.7890 C   0  0  1  0  0  0  0  0  0  0  0  0
   -5.5890   18.2010  -33.3380 C   0  0  0  0  0  0  0  0  0  0  0  0
   -5.8890   17.8710  -32.0040 C   0  0  0  0  0  0  0  0  0  0  0  0
   -5.7300   16.5630  -31.5400 C   0  0  0  0  0  0  0  0  0  0  0  0
   -5.2580   15.5670  -32.3970 C   0  0  0  0  0  0  0  0  0  0  0  0
   -4.9420   15.8800  -33.7200 C   0  0  0  0  0  0  0  0  0  0  0  0
   -5.0990   17.1860  -34.1940 C   0  0  0  0  0  0  0  0  0  0  0  0
   -4.7730   17.4480  -35.4850 F   0  0  0  0  0  0  0  0  0  0  0  0
   -7.2330   20.0580  -33.7890 C   0  0  0  0  0  0  0  0  0  0  0  0
   -7.8280   20.2290  -32.0870 S   0  0  0  0  0  0  0  0  0  0  0  0
   -6.8254   25.2356  -28.1178 H   0  0  0  0  0  0  0  0  0  0  0  0
   -5.3438   25.4684  -29.1064 H   0  0  0  0  0  0  0  0  0  0  0  0
   -6.6298   26.7225  -29.1064 H   0  0  0  0  0  0  0  0  0  0  0  0
   -8.3936   22.7464  -30.8499 H   0  0  0  0  0  0  0  0  0  0  0  0
   -3.5851   22.8056  -32.1846 H   0  0  0  0  0  0  0  0  0  0  0  0
   -4.1310   25.6680  -31.6160 H   0  0  0  0  0  0  0  0  0  0  0  0
   -2.9838   20.3546  -32.1351 H   0  0  0  0  0  0  0  0  0  0  0  0
   -3.2179   19.4773  -33.6851 H   0  0  0  0  0  0  0  0  0  0  0  0
   -3.0144   21.2620  -33.6851 H   0  0  0  0  0  0  0  0  0  0  0  0
   -5.3994   19.7234  -34.8286 H   0  0  0  0  0  0  0  0  0  0  0  0
   -6.2526   18.6511  -31.3190 H   0  0  0  0  0  0  0  0  0  0  0  0
   -5.9773   16.3171  -30.4967 H   0  0  0  0  0  0  0  0  0  0  0  0
   -5.1354   14.5373  -32.0301 H   0  0  0  0  0  0  0  0  0  0  0  0
   -4.5674   15.0950  -34.3934 H   0  0  0  0  0  0  0  0  0  0  0  0
   -7.3452   21.0190  -34.3124 H   0  0  0  0  0  0  0  0  0  0  0  0
   -7.8221   19.2832  -34.3015 H   0  0  0  0  0  0  0  0  0  0  0  0
  1  2  1  0
  2  3  1  0
  3  4  2  0
  4  5  1  0
  5  6  2  0
  6  7  1  0
  7  8  2  0
  8  9  1  0
  6 10  1  0
 10 11  1  0
 10 12  1  0
 12 13  1  0
 13 14  2  0
 14 15  1  0
 15 16  2  0
 16 17  1  0
 17 18  2  0
 18 19  1  0
 12 20  1  0
 20 21  1  0
  8  3  1  0
 18 13  1  0
 21  5  1  0
  1 22  1  0
  1 23  1  0
  1 24  1  0
  4 25  1  0
  7 26  1  0
  9 27  1  0
 11 28  1  0
 11 29  1  0
 11 30  1  0
 12 31  1  6
 14 32  1  0
 15 33  1  0
 16 34  1  0
 17 35  1  0
 20 36  1  0
 20 37  1  0
M  END
>  <UniqueID>  (38) 
31

>  <SMILES>  (38) 
COc1cc2c(cc1O)N(C)[C@@H](c1ccccc1F)CS2

>  <Energy>  (38) 
47.2892171042074

>  <Genealogy>  (38) 
COc1cc2c(cc1O)N(C)[C@@H](c1ccccc1F)CS2 (chirality)
COc1cc2c(cc1O)N(C)[C@@H](c1ccccc1F)CS2 (3D coordinates assigned)
COc1cc2c(cc1O)N(C)[C@@H](c1ccccc1F)CS2 (nonaromatic ring conformer: 47.2892171042074 kcal/mol)

>  <smiles>  (38) 
COc1cc2c(cc1O)N(C)C(c1ccccc1F)CS2

>  <score_type>  (38) 
oracle

>  <origin>  (38) 
adg

>  <m_score__min__energy>  (38) 
-7.9800000000000004

>  <m_primary>  (38) 
energy

$$$$
38:0
     RDKit          3D

 42 45  0  0  0  0  0  0  0  0999 V2000
   -0.2140   25.6880  -28.2480 O   0  0  0  0  0  0  0  0  0  0  0  0
   -1.1460   24.8620  -28.4280 C   0  0  0  0  0  0  0  0  0  0  0  0
   -0.9720   23.5210  -28.0770 C   0  0  0  0  0  0  0  0  0  0  0  0
   -2.0300   22.6230  -28.2980 C   0  0  0  0  0  0  0  0  0  0  0  0
   -1.9140   21.2210  -27.9680 N   0  0  0  0  0  0  0  0  0  0  0  0
   -3.0940   20.5000  -27.4710 C   0  0  0  0  0  0  0  0  0  0  0  0
   -2.6660   19.3120  -26.6050 C   0  0  0  0  0  0  0  0  0  0  0  0
   -1.7220   18.5090  -27.2860 O   0  0  0  0  0  0  0  0  0  0  0  0
   -0.5290   19.2440  -27.4760 C   0  0  0  0  0  0  0  0  0  0  0  0
   -0.7610   20.4300  -28.4170 C   0  0  0  0  0  0  0  0  0  0  0  0
   -3.1840   23.0910  -28.8490 N   0  0  0  0  0  0  0  0  0  0  0  0
   -3.3410   24.4020  -29.1710 C   0  0  0  0  0  0  0  0  0  0  0  0
   -4.6070   24.8670  -29.8090 C   0  0  0  0  0  0  0  0  0  0  0  0
   -4.6310   24.4460  -31.1680 O   0  0  0  0  0  0  0  0  0  0  0  0
   -5.3260   23.3130  -31.5980 C   0  0  0  0  0  0  0  0  0  0  0  0
   -4.6310   22.2880  -32.2480 C   0  0  0  0  0  0  0  0  0  0  0  0
   -5.3180   21.1520  -32.6800 C   0  0  0  0  0  0  0  0  0  0  0  0
   -6.6960   21.0470  -32.4600 C   0  0  0  0  0  0  0  0  0  0  0  0
   -7.4190   19.9200  -32.8800 C   0  0  0  0  0  0  0  0  0  0  0  0
   -8.7960   19.8460  -32.6430 C   0  0  0  0  0  0  0  0  0  0  0  0
   -9.4560   20.8920  -31.9900 C   0  0  0  0  0  0  0  0  0  0  0  0
   -8.7420   22.0190  -31.5670 C   0  0  0  0  0  0  0  0  0  0  0  0
   -7.3650   22.1020  -31.7990 C   0  0  0  0  0  0  0  0  0  0  0  0
   -6.6670   23.1960  -31.3900 N   0  0  0  0  0  0  0  0  0  0  0  0
   -2.3200   25.2750  -28.9690 N   0  0  0  0  0  0  0  0  0  0  0  0
   -0.0254   23.1749  -27.6363 H   0  0  0  0  0  0  0  0  0  0  0  0
   -3.7103   21.1842  -26.8692 H   0  0  0  0  0  0  0  0  0  0  0  0
   -3.6726   20.1269  -28.3289 H   0  0  0  0  0  0  0  0  0  0  0  0
   -2.2155   19.6877  -25.6745 H   0  0  0  0  0  0  0  0  0  0  0  0
   -3.5529   18.7009  -26.3813 H   0  0  0  0  0  0  0  0  0  0  0  0
   -0.1786   19.6194  -26.5032 H   0  0  0  0  0  0  0  0  0  0  0  0
    0.2242   18.5807  -27.9261 H   0  0  0  0  0  0  0  0  0  0  0  0
    0.1353   21.0676  -28.4245 H   0  0  0  0  0  0  0  0  0  0  0  0
   -0.9618   20.0488  -29.4291 H   0  0  0  0  0  0  0  0  0  0  0  0
   -5.4671   24.4361  -29.2756 H   0  0  0  0  0  0  0  0  0  0  0  0
   -4.6616   25.9646  -29.7623 H   0  0  0  0  0  0  0  0  0  0  0  0
   -3.5478   22.3765  -32.4181 H   0  0  0  0  0  0  0  0  0  0  0  0
   -4.7777   20.3419  -33.1918 H   0  0  0  0  0  0  0  0  0  0  0  0
   -6.9038   19.0957  -33.3949 H   0  0  0  0  0  0  0  0  0  0  0  0
   -9.3617   18.9617  -32.9716 H   0  0  0  0  0  0  0  0  0  0  0  0
  -10.5391   20.8287  -31.8084 H   0  0  0  0  0  0  0  0  0  0  0  0
   -9.2635   22.8393  -31.0522 H   0  0  0  0  0  0  0  0  0  0  0  0
  1  2  2  0
  2  3  1  0
  3  4  2  0
  4  5  1  0
  5  6  1  0
  6  7  1  0
  7  8  1  0
  8  9  1  0
  9 10  1  0
  4 11  1  0
 11 12  1  0
 12 13  1  0
 13 14  1  0
 14 15  1  0
 15 16  2  0
 16 17  1  0
 17 18  2  0
 18 19  1  0
 19 20  2  0
 20 21  1  0
 21 22  2  0
 22 23  1  0
 23 24  2  0
 12 25  2  0
 25  2  1  0
 10  5  1  0
 24 15  1  0
 23 18  1  0
  3 26  1  0
  6 27  1  0
  6 28  1  0
  7 29  1  0
  7 30  1  0
  9 31  1  0
  9 32  1  0
 10 33  1  0
 10 34  1  0
 13 35  1  0
 13 36  1  0
 16 37  1  0
 17 38  1  0
 19 39  1  0
 20 40  1  0
 21 41  1  0
 22 42  1  0
M  CHG  1  11  -1
M  END
>  <UniqueID>  (39) 
32

>  <SMILES>  (39) 
O=c1cc(N2CCOCC2)[n-]c(COc2ccc3ccccc3n2)n1

>  <Energy>  (39) 
50.761806696593666

>  <Genealogy>  (39) 
O=c1cc(N2CCOCC2)[n-]c(COc2ccc3ccccc3n2)n1 (protonated)
O=c1cc(N2CCOCC2)[n-]c(COc2ccc3ccccc3n2)n1 (3D coordinates assigned)
O=c1cc(N2CCOCC2)[n-]c(COc2ccc3ccccc3n2)n1 (nonaromatic ring conformer: 50.761806696593666 kcal/mol)

>  <smiles>  (39) 
O=c1cc(N2CCOCC2)[nH]c(COc2ccc3ccccc3n2)n1

>  <score_type>  (39) 
oracle

>  <origin>  (39) 
adg

>  <m_score__min__energy>  (39) 
-9.6899999999999995

>  <m_primary>  (39) 
energy

$$$$
39:0
     RDKit          3D

 34 35  0  0  0  0  0  0  0  0999 V2000
   -2.7800   22.9250  -30.6790 H   0  0  0  0  0  0  0  0  0  0  0  0
   -2.3600   23.3280  -29.8130 N   0  0  0  0  0  0  0  0  0  0  0  0
   -2.8550   24.3590  -29.1980 C   0  0  0  0  0  0  0  0  0  0  0  0
   -2.2180   24.8930  -27.9690 C   0  0  0  0  0  0  0  0  0  0  0  0
   -0.8930   25.3720  -27.9820 C   0  0  0  0  0  0  0  0  0  0  0  0
   -0.3152   25.3566  -28.9179 H   0  0  0  0  0  0  0  0  0  0  0  0
   -0.3080   25.8670  -26.8120 C   0  0  0  0  0  0  0  0  0  0  0  0
    0.7264   26.2406  -26.8313 H   0  0  0  0  0  0  0  0  0  0  0  0
   -1.0350   25.8880  -25.6180 C   0  0  0  0  0  0  0  0  0  0  0  0
   -0.2320   26.5640  -24.0230 Br  0  0  0  0  0  0  0  0  0  0  0  0
   -2.3470   25.4090  -25.5920 C   0  0  0  0  0  0  0  0  0  0  0  0
   -2.9179   25.4228  -24.6518 H   0  0  0  0  0  0  0  0  0  0  0  0
   -2.9360   24.9120  -26.7590 C   0  0  0  0  0  0  0  0  0  0  0  0
   -3.9683   24.5331  -26.7308 H   0  0  0  0  0  0  0  0  0  0  0  0
   -4.0530   24.9720  -29.7000 N   0  0  0  0  0  0  0  0  0  0  0  0
   -4.6650   25.4870  -29.0280 H   0  0  0  0  0  0  0  0  0  0  0  0
   -4.5630   24.7110  -30.9590 O   0  0  0  0  0  0  0  0  0  0  0  0
   -5.0850   23.4660  -31.3270 C   0  0  0  0  0  0  0  0  0  0  0  0
   -4.4370   22.6950  -32.0860 O   0  0  0  0  0  0  0  0  0  0  0  0
   -6.4610   23.0880  -30.8900 C   0  0  0  0  0  0  0  0  0  0  0  0
   -6.4313   22.0916  -30.4250 H   0  0  0  0  0  0  0  0  0  0  0  0
   -6.8207   23.8355  -30.1676 H   0  0  0  0  0  0  0  0  0  0  0  0
   -7.6030   23.0510  -32.3150 S   0  0  0  0  0  0  0  0  0  0  0  0
   -7.7640   21.2620  -32.3440 C   0  0  0  0  0  0  0  0  0  0  0  0
   -8.9640   20.6590  -31.9460 C   0  0  0  0  0  0  0  0  0  0  0  0
   -9.8094   21.2814  -31.6175 H   0  0  0  0  0  0  0  0  0  0  0  0
   -9.0880   19.2660  -31.9660 C   0  0  0  0  0  0  0  0  0  0  0  0
  -10.0292   18.7933  -31.6488 H   0  0  0  0  0  0  0  0  0  0  0  0
   -8.0160   18.4740  -32.3890 C   0  0  0  0  0  0  0  0  0  0  0  0
   -8.1132   17.3784  -32.4030 H   0  0  0  0  0  0  0  0  0  0  0  0
   -6.8210   19.0750  -32.7940 C   0  0  0  0  0  0  0  0  0  0  0  0
   -5.9787   18.4515  -33.1283 H   0  0  0  0  0  0  0  0  0  0  0  0
   -6.6940   20.4680  -32.7750 C   0  0  0  0  0  0  0  0  0  0  0  0
   -5.7542   20.9394  -33.0984 H   0  0  0  0  0  0  0  0  0  0  0  0
  1  2  1  0
  2  3  2  0
  3  4  1  0
  4  5  2  0
  5  6  1  0
  5  7  1  0
  7  8  1  0
  7  9  2  0
  9 10  1  0
  9 11  1  0
 11 12  1  0
 11 13  2  0
 13 14  1  0
  3 15  1  0
 15 16  1  0
 15 17  1  0
 17 18  1  0
 18 19  2  0
 18 20  1  0
 20 21  1  0
 20 22  1  0
 20 23  1  0
 23 24  1  0
 24 25  2  0
 25 26  1  0
 25 27  1  0
 27 28  1  0
 27 29  2  0
 29 30  1  0
 29 31  1  0
 31 32  1  0
 31 33  2  0
 33 34  1  0
 13  4  1  0
 33 24  1  0
M  END
>  <UniqueID>  (40) 
33

>  <SMILES>  (40) 
[H]/N=C(/NOC(=O)CSc1ccccc1)c1ccc(Br)cc1

>  <Energy>  (40) 
36.98965696567946

>  <Genealogy>  (40) 
[H]/N=C(/NOC(=O)CSc1ccccc1)c1ccc(Br)cc1 (cis-trans isomerization)
[H]/N=C(/NOC(=O)CSc1ccccc1)c1ccc(Br)cc1 (3D coordinates assigned)
[H]/N=C(/NOC(=O)CSc1ccccc1)c1ccc(Br)cc1 (optimized conformer: 36.98965696567946 kcal/mol)

>  <smiles>  (40) 
N=C(NOC(=O)CSc1ccccc1)c1ccc(Br)cc1

>  <score_type>  (40) 
oracle

>  <origin>  (40) 
adg

>  <m_score__min__energy>  (40) 
-8.7300000000000004

>  <m_primary>  (40) 
energy

$$$$
40:0
     RDKit          3D

 41 43  0  0  0  0  0  0  0  0999 V2000
   -3.9450   25.2990  -30.7400 O   0  0  0  0  0  0  0  0  0  0  0  0
   -4.1660   24.0880  -30.4710 C   0  0  0  0  0  0  0  0  0  0  0  0
   -3.1950   23.3330  -29.6150 C   0  0  0  0  0  0  0  0  0  0  0  0
   -2.8650   24.1160  -28.4140 N   0  0  0  0  0  0  0  0  0  0  0  0
   -3.7910   24.1980  -27.3990 C   0  0  0  0  0  0  0  0  0  0  0  0
   -3.5400   24.9390  -26.2800 N   0  0  0  0  0  0  0  0  0  0  0  0
   -2.3690   25.6090  -26.1690 C   0  0  0  0  0  0  0  0  0  0  0  0
   -1.9910   26.4010  -25.0840 C   0  0  0  0  0  0  0  0  0  0  0  0
   -0.7300   26.9700  -25.2570 C   0  0  0  0  0  0  0  0  0  0  0  0
   -0.1010   26.4840  -26.7530 S   0  0  0  0  0  0  0  0  0  0  0  0
   -1.4330   25.5520  -27.1750 C   0  0  0  0  0  0  0  0  0  0  0  0
   -1.6770   24.8020  -28.3180 C   0  0  0  0  0  0  0  0  0  0  0  0
   -0.8180   24.7590  -29.2410 O   0  0  0  0  0  0  0  0  0  0  0  0
   -5.3140   23.4250  -31.0180 N   0  0  0  0  0  0  0  0  0  0  0  0
   -6.2600   24.1300  -31.8830 C   0  0  0  0  0  0  0  0  0  0  0  0
   -7.6200   23.4170  -31.9420 C   0  0  0  0  0  0  0  0  0  0  0  0
   -7.7700   22.2930  -30.9040 C   0  0  0  0  0  0  0  0  0  0  0  0
   -7.8680   20.9780  -31.5400 N   0  0  0  0  0  0  0  0  0  0  0  0
   -9.0850   20.1910  -31.6230 C   0  0  0  0  0  0  0  0  0  0  0  0
   -8.7020   18.8940  -32.3620 C   0  0  0  0  0  0  0  0  0  0  0  0
   -7.1720   18.8800  -32.5000 C   0  0  0  0  0  0  0  0  0  0  0  0
   -6.7760   20.2190  -32.0220 C   0  0  0  0  0  0  0  0  0  0  0  0
   -5.5880   20.6380  -32.0230 O   0  0  0  0  0  0  0  0  0  0  0  0
   -3.6443   22.3754  -29.3130 H   0  0  0  0  0  0  0  0  0  0  0  0
   -2.2750   23.1500  -30.1896 H   0  0  0  0  0  0  0  0  0  0  0  0
   -4.7458   23.6595  -27.4905 H   0  0  0  0  0  0  0  0  0  0  0  0
   -2.6169   26.5585  -24.1933 H   0  0  0  0  0  0  0  0  0  0  0  0
   -0.2240   27.6296  -24.5367 H   0  0  0  0  0  0  0  0  0  0  0  0
   -5.4610   22.4150  -30.7950 H   0  0  0  0  0  0  0  0  0  0  0  0
   -6.4083   25.1479  -31.4934 H   0  0  0  0  0  0  0  0  0  0  0  0
   -5.8416   24.1530  -32.9001 H   0  0  0  0  0  0  0  0  0  0  0  0
   -8.4109   24.1610  -31.7659 H   0  0  0  0  0  0  0  0  0  0  0  0
   -7.6979   22.9516  -32.9356 H   0  0  0  0  0  0  0  0  0  0  0  0
   -6.8940   22.3028  -30.2388 H   0  0  0  0  0  0  0  0  0  0  0  0
   -8.6966   22.4702  -30.3383 H   0  0  0  0  0  0  0  0  0  0  0  0
   -9.4604   19.9601  -30.6152 H   0  0  0  0  0  0  0  0  0  0  0  0
   -9.8819   20.7354  -32.1509 H   0  0  0  0  0  0  0  0  0  0  0  0
   -9.0356   18.0194  -31.7843 H   0  0  0  0  0  0  0  0  0  0  0  0
   -9.1820   18.8536  -33.3509 H   0  0  0  0  0  0  0  0  0  0  0  0
   -6.7272   18.0912  -31.8756 H   0  0  0  0  0  0  0  0  0  0  0  0
   -6.8341   18.6717  -33.5259 H   0  0  0  0  0  0  0  0  0  0  0  0
  1  2  2  0
  2  3  1  0
  3  4  1  0
  4  5  1  0
  5  6  2  0
  6  7  1  0
  7  8  1  0
  8  9  2  0
  9 10  1  0
 10 11  1  0
 11 12  1  0
 12 13  2  0
  2 14  1  0
 14 15  1  0
 15 16  1  0
 16 17  1  0
 17 18  1  0
 18 19  1  0
 19 20  1  0
 20 21  1  0
 21 22  1  0
 22 23  2  0
 12  4  1  0
 22 18  1  0
 11  7  2  0
  3 24  1  0
  3 25  1  0
  5 26  1  0
  8 27  1  0
  9 28  1  0
 14 29  1  0
 15 30  1  0
 15 31  1  0
 16 32  1  0
 16 33  1  0
 17 34  1  0
 17 35  1  0
 19 36  1  0
 19 37  1  0
 20 38  1  0
 20 39  1  0
 21 40  1  0
 21 41  1  0
M  END
>  <UniqueID>  (41) 
34

>  <SMILES>  (41) 
O=C(Cn1cnc2ccsc2c1=O)NCCCN1CCCC1=O

>  <Energy>  (41) 
74.17313926019274

>  <Genealogy>  (41) 
O=C(Cn1cnc2ccsc2c1=O)NCCCN1CCCC1=O (3D coordinates assigned)
O=C(Cn1cnc2ccsc2c1=O)NCCCN1CCCC1=O (nonaromatic ring conformer: 74.17313926019274 kcal/mol)

>  <smiles>  (41) 
O=C(Cn1cnc2ccsc2c1=O)NCCCN1CCCC1=O

>  <score_type>  (41) 
oracle

>  <origin>  (41) 
adg

>  <m_score__min__energy>  (41) 
-8.6400000000000006

>  <m_primary>  (41) 
energy

$$$$
41:0
     RDKit          3D

 50 54  0  0  0  0  0  0  0  0999 V2000
   -1.9890   25.5550  -28.9570 O   0  0  0  0  0  0  0  0  0  0  0  0
   -1.6700   24.3750  -28.6390 C   0  0  0  0  0  0  0  0  0  0  0  0
   -0.3140   24.0480  -28.5950 C   0  0  0  0  0  0  0  0  0  0  0  0
    0.0670   22.8020  -28.2380 N   0  0  0  0  0  0  0  0  0  0  0  0
   -0.8480   21.8470  -27.9380 C   0  0  0  0  0  0  0  0  0  0  0  0
   -0.4100   20.5740  -27.5570 C   0  0  0  0  0  0  0  0  0  0  0  0
   -1.3340   19.5770  -27.2570 C   0  0  0  0  0  0  0  0  0  0  0  0
   -2.6990   19.8410  -27.3530 C   0  0  0  0  0  0  0  0  0  0  0  0
   -3.1510   21.1070  -27.7390 C   0  0  0  0  0  0  0  0  0  0  0  0
   -2.2340   22.1480  -28.0120 C   0  0  0  0  0  0  0  0  0  0  0  0
   -2.6290   23.4310  -28.3480 N   0  0  0  0  0  0  0  0  0  0  0  0
   -4.0610   23.8260  -28.3690 C   0  0  0  0  0  0  0  0  0  0  0  0
   -4.4700   24.5210  -29.6860 C   0  0  0  0  0  0  0  0  0  0  0  0
   -5.1200   23.5830  -30.6230 N   0  0  0  0  0  0  0  0  0  0  0  0
   -4.1070   22.8170  -31.3790 C   0  0  0  0  0  0  0  0  0  0  0  0
   -4.7430   21.9570  -32.4940 C   0  0  0  0  0  0  0  0  0  0  0  0
   -6.2080   21.9790  -32.4070 N   0  0  0  0  0  0  0  0  0  0  0  0
   -6.9520   20.7560  -32.2890 C   0  0  0  0  0  0  0  0  0  0  0  0
   -8.0360   20.6620  -31.4700 N   0  0  0  0  0  0  0  0  0  0  0  0
   -8.5530   19.0820  -31.5120 S   0  0  0  0  0  0  0  0  0  0  0  0
   -7.4310   18.4900  -32.5900 C   0  0  0  0  0  0  0  0  0  0  0  0
   -7.2710   17.2040  -33.0920 C   0  0  0  0  0  0  0  0  0  0  0  0
   -6.2200   16.9820  -33.9960 C   0  0  0  0  0  0  0  0  0  0  0  0
   -5.3720   18.0410  -34.3760 C   0  0  0  0  0  0  0  0  0  0  0  0
   -5.5580   19.3310  -33.8500 C   0  0  0  0  0  0  0  0  0  0  0  0
   -6.5970   19.5460  -32.9360 C   0  0  0  0  0  0  0  0  0  0  0  0
   -6.8960   23.2760  -32.3040 C   0  0  0  0  0  0  0  0  0  0  0  0
   -6.0270   24.2910  -31.5520 C   0  0  0  0  0  0  0  0  0  0  0  0
    0.4434   24.8036  -28.8506 H   0  0  0  0  0  0  0  0  0  0  0  0
    0.6673   20.3604  -27.4944 H   0  0  0  0  0  0  0  0  0  0  0  0
   -0.9869   18.5812  -26.9443 H   0  0  0  0  0  0  0  0  0  0  0  0
   -3.4261   19.0481  -27.1236 H   0  0  0  0  0  0  0  0  0  0  0  0
   -4.2309   21.2947  -27.8311 H   0  0  0  0  0  0  0  0  0  0  0  0
   -4.6766   22.9233  -28.2419 H   0  0  0  0  0  0  0  0  0  0  0  0
   -4.2185   24.5453  -27.5518 H   0  0  0  0  0  0  0  0  0  0  0  0
   -5.1711   25.3366  -29.4552 H   0  0  0  0  0  0  0  0  0  0  0  0
   -3.5585   24.9066  -30.1661 H   0  0  0  0  0  0  0  0  0  0  0  0
   -3.3971   23.5221  -31.8360 H   0  0  0  0  0  0  0  0  0  0  0  0
   -3.5996   22.1399  -30.6761 H   0  0  0  0  0  0  0  0  0  0  0  0
   -4.4352   22.3530  -33.4730 H   0  0  0  0  0  0  0  0  0  0  0  0
   -4.4012   20.9186  -32.3724 H   0  0  0  0  0  0  0  0  0  0  0  0
   -8.4330   21.4200  -30.8770 H   0  0  0  0  0  0  0  0  0  0  0  0
   -7.9447   16.3881  -32.7914 H   0  0  0  0  0  0  0  0  0  0  0  0
   -6.0577   15.9758  -34.4098 H   0  0  0  0  0  0  0  0  0  0  0  0
   -4.5567   17.8565  -35.0910 H   0  0  0  0  0  0  0  0  0  0  0  0
   -4.8983   20.1581  -34.1513 H   0  0  0  0  0  0  0  0  0  0  0  0
   -7.1029   23.6565  -33.3151 H   0  0  0  0  0  0  0  0  0  0  0  0
   -7.8358   23.1353  -31.7500 H   0  0  0  0  0  0  0  0  0  0  0  0
   -5.4316   24.8683  -32.2747 H   0  0  0  0  0  0  0  0  0  0  0  0
   -6.6754   24.9704  -30.9793 H   0  0  0  0  0  0  0  0  0  0  0  0
  1  2  2  0
  2  3  1  0
  3  4  2  0
  4  5  1  0
  5  6  2  0
  6  7  1  0
  7  8  2  0
  8  9  1  0
  9 10  2  0
 10 11  1  0
 11 12  1  0
 12 13  1  0
 13 14  1  0
 14 15  1  0
 15 16  1  0
 16 17  1  0
 17 18  1  0
 18 19  2  0
 19 20  1  0
 20 21  1  0
 21 22  2  0
 22 23  1  0
 23 24  2  0
 24 25  1  0
 25 26  2  0
 17 27  1  0
 27 28  1  0
 11  2  1  0
 28 14  1  0
 10  5  1  0
 26 18  1  0
 26 21  1  0
  3 29  1  0
  6 30  1  0
  7 31  1  0
  8 32  1  0
  9 33  1  0
 12 34  1  0
 12 35  1  0
 13 36  1  0
 13 37  1  0
 15 38  1  0
 15 39  1  0
 16 40  1  0
 16 41  1  0
 19 42  1  0
 22 43  1  0
 23 44  1  0
 24 45  1  0
 25 46  1  0
 27 47  1  0
 27 48  1  0
 28 49  1  0
 28 50  1  0
M  CHG  1  19   1
M  END
>  <UniqueID>  (42) 
35

>  <SMILES>  (42) 
O=c1cnc2ccccc2n1CCN1CCN(c2[nH+]sc3ccccc23)CC1

>  <Energy>  (42) 
114.90541092124651

>  <Genealogy>  (42) 
O=c1cnc2ccccc2n1CCN1CCN(c2[nH+]sc3ccccc23)CC1 (protonated)
O=c1cnc2ccccc2n1CCN1CCN(c2[nH+]sc3ccccc23)CC1 (3D coordinates assigned)
O=c1cnc2ccccc2n1CCN1CCN(c2[nH+]sc3ccccc23)CC1 (nonaromatic ring conformer: 114.90541092124651 kcal/mol)

>  <smiles>  (42) 
O=c1cnc2ccccc2n1CCN1CCN(c2nsc3ccccc23)CC1

>  <score_type>  (42) 
oracle

>  <origin>  (42) 
adg

>  <m_score__min__energy>  (42) 
-9.1899999999999995

>  <m_primary>  (42) 
energy

$$$$
42:0
     RDKit          3D

 47 49  0  0  0  0  0  0  0  0999 V2000
   -8.6430   21.0470  -31.9670 C   0  0  0  0  0  0  0  0  0  0  0  0
   -7.9830   22.3290  -31.4830 C   0  0  0  0  0  0  0  0  0  0  0  0
   -6.6100   22.3310  -31.8650 O   0  0  0  0  0  0  0  0  0  0  0  0
   -5.6180   23.1080  -31.2500 C   0  0  0  0  0  0  0  0  0  0  0  0
   -5.7430   24.5000  -31.0850 C   0  0  0  0  0  0  0  0  0  0  0  0
   -4.7260   25.2310  -30.4640 C   0  0  0  0  0  0  0  0  0  0  0  0
   -3.5770   24.5800  -29.9820 C   0  0  0  0  0  0  0  0  0  0  0  0
   -2.5090   25.2980  -29.3480 N   0  0  0  0  0  0  0  0  0  0  0  0
   -1.3210   24.7340  -28.7710 C   0  0  0  0  0  0  0  0  0  0  0  0
   -0.4890   24.1780  -29.5340 O   0  0  0  0  0  0  0  0  0  0  0  0
   -1.0980   24.7050  -27.3050 C   0  0  0  0  0  0  0  0  0  0  0  0
   -1.0840   25.9160  -26.5900 C   0  0  0  0  0  0  0  0  0  0  0  0
   -0.9190   25.9300  -25.1940 C   0  0  0  0  0  0  0  0  0  0  0  0
   -0.8970   27.1750  -24.4700 N   0  0  0  0  0  0  0  0  0  0  0  0
   -0.8600   27.1860  -23.2220 O   0  0  0  0  0  0  0  0  0  0  0  0
   -0.9240   28.3760  -25.1430 O   0  0  0  0  0  0  0  0  0  0  0  0
   -0.7840   24.7120  -24.5120 C   0  0  0  0  0  0  0  0  0  0  0  0
   -0.8030   23.5040  -25.2100 C   0  0  0  0  0  0  0  0  0  0  0  0
   -0.9520   23.4850  -26.6020 C   0  0  0  0  0  0  0  0  0  0  0  0
   -0.9070   22.2220  -27.2830 N   0  0  0  0  0  0  0  0  0  0  0  0
    0.2930   21.8240  -28.0200 C   0  0  0  0  0  0  0  0  0  0  0  0
   -0.1140   21.0660  -29.2870 C   0  0  0  0  0  0  0  0  0  0  0  0
   -1.0100   20.0140  -28.9790 O   0  0  0  0  0  0  0  0  0  0  0  0
   -2.2250   20.5470  -28.4830 C   0  0  0  0  0  0  0  0  0  0  0  0
   -2.0020   21.2580  -27.1450 C   0  0  0  0  0  0  0  0  0  0  0  0
   -3.4440   23.2000  -30.1700 C   0  0  0  0  0  0  0  0  0  0  0  0
   -4.4600   22.4690  -30.7920 C   0  0  0  0  0  0  0  0  0  0  0  0
   -8.9532   20.4445  -31.1005 H   0  0  0  0  0  0  0  0  0  0  0  0
   -9.5251   21.2958  -32.5753 H   0  0  0  0  0  0  0  0  0  0  0  0
   -7.9280   20.4736  -32.5753 H   0  0  0  0  0  0  0  0  0  0  0  0
   -8.4900   23.1950  -31.9336 H   0  0  0  0  0  0  0  0  0  0  0  0
   -8.0584   22.3887  -30.3872 H   0  0  0  0  0  0  0  0  0  0  0  0
   -6.6452   25.0153  -31.4464 H   0  0  0  0  0  0  0  0  0  0  0  0
   -4.8253   26.3208  -30.3520 H   0  0  0  0  0  0  0  0  0  0  0  0
   -1.2039   26.8662  -27.1311 H   0  0  0  0  0  0  0  0  0  0  0  0
   -0.6622   24.7090  -23.4188 H   0  0  0  0  0  0  0  0  0  0  0  0
   -0.6998   22.5565  -24.6608 H   0  0  0  0  0  0  0  0  0  0  0  0
    0.8671   22.7204  -28.2975 H   0  0  0  0  0  0  0  0  0  0  0  0
    0.9133   21.1729  -27.3865 H   0  0  0  0  0  0  0  0  0  0  0  0
   -0.6029   21.7636  -29.9829 H   0  0  0  0  0  0  0  0  0  0  0  0
    0.7889   20.6365  -29.7456 H   0  0  0  0  0  0  0  0  0  0  0  0
   -2.6267   21.2670  -29.2112 H   0  0  0  0  0  0  0  0  0  0  0  0
   -2.9350   19.7211  -28.3289 H   0  0  0  0  0  0  0  0  0  0  0  0
   -2.9214   21.7863  -26.8523 H   0  0  0  0  0  0  0  0  0  0  0  0
   -1.7446   20.5173  -26.3736 H   0  0  0  0  0  0  0  0  0  0  0  0
   -2.5338   22.6869  -29.8260 H   0  0  0  0  0  0  0  0  0  0  0  0
   -4.3486   21.3825  -30.9227 H   0  0  0  0  0  0  0  0  0  0  0  0
  1  2  1  0
  2  3  1  0
  3  4  1  0
  4  5  2  0
  5  6  1  0
  6  7  2  0
  7  8  1  0
  8  9  1  0
  9 10  2  0
  9 11  1  0
 11 12  2  0
 12 13  1  0
 13 14  1  0
 14 15  2  0
 14 16  1  0
 13 17  2  0
 17 18  1  0
 18 19  2  0
 19 20  1  0
 20 21  1  0
 21 22  1  0
 22 23  1  0
 23 24  1  0
 24 25  1  0
  7 26  1  0
 26 27  2  0
 27  4  1  0
 19 11  1  0
 25 20  1  0
  1 28  1  0
  1 29  1  0
  1 30  1  0
  2 31  1  0
  2 32  1  0
  5 33  1  0
  6 34  1  0
 12 35  1  0
 17 36  1  0
 18 37  1  0
 21 38  1  0
 21 39  1  0
 22 40  1  0
 22 41  1  0
 24 42  1  0
 24 43  1  0
 25 44  1  0
 25 45  1  0
 26 46  1  0
 27 47  1  0
M  CHG  3   8  -1  14   1  16  -1
M  END
>  <UniqueID>  (43) 
36

>  <SMILES>  (43) 
CCOc1ccc([N-]C(=O)c2cc([N+](=O)[O-])ccc2N2CCOCC2)cc1

>  <Energy>  (43) 
60.33020297551962

>  <Genealogy>  (43) 
CCOc1ccc([N-]C(=O)c2cc([N+](=O)[O-])ccc2N2CCOCC2)cc1 (protonated)
CCOc1ccc([N-]C(=O)c2cc([N+](=O)[O-])ccc2N2CCOCC2)cc1 (3D coordinates assigned)
CCOc1ccc([N-]C(=O)c2cc([N+](=O)[O-])ccc2N2CCOCC2)cc1 (nonaromatic ring conformer: 60.33020297551962 kcal/mol)

>  <smiles>  (43) 
CCOc1ccc(NC(=O)c2cc([N+](=O)[O-])ccc2N2CCOCC2)cc1

>  <score_type>  (43) 
oracle

>  <origin>  (43) 
adg

>  <m_score__min__energy>  (43) 
-8.5

>  <m_primary>  (43) 
energy

$$$$
43:0
     RDKit          3D

 43 45  0  0  0  0  0  0  0  0999 V2000
   -5.5420   15.6490  -33.6060 C   0  0  0  0  0  0  0  0  0  0  0  0
   -5.5980   17.0830  -33.2760 N   0  0  0  0  0  0  0  0  0  0  0  0
   -6.4160   17.3000  -32.0560 C   0  0  0  0  0  0  0  0  0  0  0  0
   -6.9600   18.7410  -31.9230 C   0  0  0  0  0  0  0  0  0  0  0  0
   -6.2190   19.6810  -32.7710 N   0  0  0  0  0  0  0  0  0  0  0  0
   -5.8970   20.9890  -32.2810 C   0  0  0  0  0  0  0  0  0  0  0  0
   -4.5560   21.3870  -32.2170 C   0  0  0  0  0  0  0  0  0  0  0  0
   -4.2170   22.6570  -31.7440 C   0  0  0  0  0  0  0  0  0  0  0  0
   -5.2170   23.5550  -31.3380 C   0  0  0  0  0  0  0  0  0  0  0  0
   -4.8510   24.9030  -30.8420 C   0  0  0  0  0  0  0  0  0  0  0  0
   -5.7100   25.8220  -30.8620 O   0  0  0  0  0  0  0  0  0  0  0  0
   -3.5280   25.2100  -30.3810 N   0  0  0  0  0  0  0  0  0  0  0  0
   -2.8350   24.5600  -29.3050 C   0  0  0  0  0  0  0  0  0  0  0  0
   -1.5480   24.9970  -28.9650 C   0  0  0  0  0  0  0  0  0  0  0  0
   -0.8520   24.3940  -27.9130 C   0  0  0  0  0  0  0  0  0  0  0  0
   -1.4440   23.3600  -27.1830 C   0  0  0  0  0  0  0  0  0  0  0  0
   -2.7350   22.9310  -27.5010 C   0  0  0  0  0  0  0  0  0  0  0  0
   -3.4340   23.5320  -28.5530 C   0  0  0  0  0  0  0  0  0  0  0  0
   -6.5630   23.1480  -31.3920 C   0  0  0  0  0  0  0  0  0  0  0  0
   -6.9050   21.8780  -31.8670 C   0  0  0  0  0  0  0  0  0  0  0  0
   -8.6040   21.4380  -31.9620 Cl  0  0  0  0  0  0  0  0  0  0  0  0
   -5.9310   19.3540  -34.1690 C   0  0  0  0  0  0  0  0  0  0  0  0
   -6.1150   17.8530  -34.4240 C   0  0  0  0  0  0  0  0  0  0  0  0
   -5.5190   15.0597  -32.6775 H   0  0  0  0  0  0  0  0  0  0  0  0
   -6.4301   15.3730  -34.1935 H   0  0  0  0  0  0  0  0  0  0  0  0
   -4.6351   15.4431  -34.1935 H   0  0  0  0  0  0  0  0  0  0  0  0
   -4.6160   17.3940  -33.0780 H   0  0  0  0  0  0  0  0  0  0  0  0
   -7.2699   16.6071  -32.0822 H   0  0  0  0  0  0  0  0  0  0  0  0
   -5.7591   17.1225  -31.1917 H   0  0  0  0  0  0  0  0  0  0  0  0
   -8.0190   18.7511  -32.2204 H   0  0  0  0  0  0  0  0  0  0  0  0
   -6.8416   19.0570  -30.8760 H   0  0  0  0  0  0  0  0  0  0  0  0
   -3.7645   20.6953  -32.5412 H   0  0  0  0  0  0  0  0  0  0  0  0
   -3.1597   22.9554  -31.6893 H   0  0  0  0  0  0  0  0  0  0  0  0
   -1.0826   25.8189  -29.5288 H   0  0  0  0  0  0  0  0  0  0  0  0
    0.1630   24.7340  -27.6596 H   0  0  0  0  0  0  0  0  0  0  0  0
   -0.8937   22.8839  -26.3581 H   0  0  0  0  0  0  0  0  0  0  0  0
   -3.2023   22.1197  -26.9235 H   0  0  0  0  0  0  0  0  0  0  0  0
   -4.4549   23.2002  -28.7933 H   0  0  0  0  0  0  0  0  0  0  0  0
   -7.3538   23.8355  -31.0573 H   0  0  0  0  0  0  0  0  0  0  0  0
   -6.6157   19.9174  -34.8200 H   0  0  0  0  0  0  0  0  0  0  0  0
   -4.8874   19.6244  -34.3875 H   0  0  0  0  0  0  0  0  0  0  0  0
   -7.1846   17.6340  -34.5585 H   0  0  0  0  0  0  0  0  0  0  0  0
   -5.5611   17.5684  -35.3308 H   0  0  0  0  0  0  0  0  0  0  0  0
  1  2  1  0
  2  3  1  0
  3  4  1  0
  4  5  1  0
  5  6  1  0
  6  7  2  0
  7  8  1  0
  8  9  2  0
  9 10  1  0
 10 11  2  0
 10 12  1  0
 12 13  1  0
 13 14  2  0
 14 15  1  0
 15 16  2  0
 16 17  1  0
 17 18  2  0
  9 19  1  0
 19 20  2  0
 20 21  1  0
  5 22  1  0
 22 23  1  0
 23  2  1  0
 20  6  1  0
 18 13  1  0
  1 24  1  0
  1 25  1  0
  1 26  1  0
  2 27  1  0
  3 28  1  0
  3 29  1  0
  4 30  1  0
  4 31  1  0
  7 32  1  0
  8 33  1  0
 14 34  1  0
 15 35  1  0
 16 36  1  0
 17 37  1  0
 18 38  1  0
 19 39  1  0
 22 40  1  0
 22 41  1  0
 23 42  1  0
 23 43  1  0
M  CHG  2   2   1  12  -1
M  END
>  <UniqueID>  (44) 
37

>  <SMILES>  (44) 
C[NH+]1CCN(c2ccc(C(=O)[N-]c3ccccc3)cc2Cl)CC1

>  <Energy>  (44) 
62.213266822153635

>  <Genealogy>  (44) 
C[NH+]1CCN(c2ccc(C(=O)[N-]c3ccccc3)cc2Cl)CC1 (protonated)
C[NH+]1CCN(c2ccc(C(=O)[N-]c3ccccc3)cc2Cl)CC1 (3D coordinates assigned)
C[NH+]1CCN(c2ccc(C(=O)[N-]c3ccccc3)cc2Cl)CC1 (nonaromatic ring conformer: 62.213266822153635 kcal/mol)

>  <smiles>  (44) 
CN1CCN(c2ccc(C(=O)Nc3ccccc3)cc2Cl)CC1

>  <score_type>  (44) 
oracle

>  <origin>  (44) 
adg

>  <m_score__min__energy>  (44) 
-9.7200000000000006

>  <m_primary>  (44) 
energy

$$$$
44:0
     RDKit          3D

 48 50  0  0  0  0  0  0  0  0999 V2000
   -1.7820   22.9620  -29.4730 O   0  0  0  0  0  0  0  0  0  0  0  0
   -2.3730   24.0440  -29.7480 C   0  0  0  0  0  0  0  0  0  0  0  0
   -1.8170   25.2980  -29.3270 N   0  0  0  0  0  0  0  0  0  0  0  0
   -1.6230   25.7340  -27.9740 C   0  0  0  0  0  0  0  0  0  0  0  0
   -2.3530   25.1080  -26.9550 C   0  0  0  0  0  0  0  0  0  0  0  0
   -2.1780   25.4880  -25.6200 C   0  0  0  0  0  0  0  0  0  0  0  0
   -1.2570   26.4870  -25.2930 C   0  0  0  0  0  0  0  0  0  0  0  0
   -0.5050   27.1000  -26.3000 C   0  0  0  0  0  0  0  0  0  0  0  0
    0.4050   28.0540  -25.9790 F   0  0  0  0  0  0  0  0  0  0  0  0
   -0.6790   26.7220  -27.6350 C   0  0  0  0  0  0  0  0  0  0  0  0
   -3.5910   24.0290  -30.5220 N   0  0  1  0  0  0  0  0  0  0  0  0
   -3.6840   22.7870  -31.3150 C   0  0  0  0  0  0  0  0  0  0  0  0
   -4.8760   22.8310  -32.2950 C   0  0  0  0  0  0  0  0  0  0  0  0
   -6.0060   23.7780  -31.8230 C   0  0  1  0  0  0  0  0  0  0  0  0
   -7.3510   23.3820  -32.4740 C   0  0  0  0  0  0  0  0  0  0  0  0
   -7.9770   22.2170  -31.8050 N   0  0  0  0  0  0  0  0  0  0  0  0
   -9.3900   22.0340  -32.2270 C   0  0  0  0  0  0  0  0  0  0  0  0
   -9.8530   20.5790  -32.0660 C   0  0  0  0  0  0  0  0  0  0  0  0
   -9.0530   19.6510  -32.8850 N   0  0  0  0  0  0  0  0  0  0  0  0
   -7.6690   20.1060  -33.1180 C   0  0  0  0  0  0  0  0  0  0  0  0
   -7.1570   20.9900  -31.9730 C   0  0  0  0  0  0  0  0  0  0  0  0
   -6.0970   23.7760  -30.2860 C   0  0  0  0  0  0  0  0  0  0  0  0
   -4.7640   24.2020  -29.6300 C   0  0  0  0  0  0  0  0  0  0  0  0
   -3.0691   24.3118  -27.2065 H   0  0  0  0  0  0  0  0  0  0  0  0
   -2.7652   25.0005  -24.8278 H   0  0  0  0  0  0  0  0  0  0  0  0
   -1.1238   26.7909  -24.2442 H   0  0  0  0  0  0  0  0  0  0  0  0
   -0.0765   27.1980  -28.4227 H   0  0  0  0  0  0  0  0  0  0  0  0
   -3.5540   24.8400  -31.1850 H   0  0  0  0  0  0  0  0  0  0  0  0
   -3.8142   21.9351  -30.6314 H   0  0  0  0  0  0  0  0  0  0  0  0
   -2.7589   22.6806  -31.9005 H   0  0  0  0  0  0  0  0  0  0  0  0
   -5.2870   21.8155  -32.3943 H   0  0  0  0  0  0  0  0  0  0  0  0
   -4.5013   23.2153  -33.2552 H   0  0  0  0  0  0  0  0  0  0  0  0
   -5.7709   24.8035  -32.1442 H   0  0  0  0  0  0  0  0  0  0  0  0
   -8.0395   24.2376  -32.4124 H   0  0  0  0  0  0  0  0  0  0  0  0
   -7.1504   23.1029  -33.5189 H   0  0  0  0  0  0  0  0  0  0  0  0
  -10.0315   22.6813  -31.6111 H   0  0  0  0  0  0  0  0  0  0  0  0
   -9.4642   22.2989  -33.2920 H   0  0  0  0  0  0  0  0  0  0  0  0
   -9.7584   20.2912  -31.0085 H   0  0  0  0  0  0  0  0  0  0  0  0
  -10.8979   20.5157  -32.4038 H   0  0  0  0  0  0  0  0  0  0  0  0
   -9.5190   19.5420  -33.8170 H   0  0  0  0  0  0  0  0  0  0  0  0
   -7.0155   19.2257  -33.2072 H   0  0  0  0  0  0  0  0  0  0  0  0
   -7.6575   20.7036  -34.0415 H   0  0  0  0  0  0  0  0  0  0  0  0
   -7.1878   20.4120  -31.0376 H   0  0  0  0  0  0  0  0  0  0  0  0
   -6.1301   21.2996  -32.2172 H   0  0  0  0  0  0  0  0  0  0  0  0
   -6.3526   22.7615  -29.9461 H   0  0  0  0  0  0  0  0  0  0  0  0
   -6.8702   24.4999  -29.9890 H   0  0  0  0  0  0  0  0  0  0  0  0
   -4.6089   23.5936  -28.7268 H   0  0  0  0  0  0  0  0  0  0  0  0
   -4.8424   25.2744  -29.3980 H   0  0  0  0  0  0  0  0  0  0  0  0
  1  2  2  0
  2  3  1  0
  3  4  1  0
  4  5  2  0
  5  6  1  0
  6  7  2  0
  7  8  1  0
  8  9  1  0
  8 10  2  0
  2 11  1  0
 11 12  1  0
 12 13  1  0
 13 14  1  0
 14 15  1  0
 15 16  1  0
 16 17  1  0
 17 18  1  0
 18 19  1  0
 19 20  1  0
 20 21  1  0
 14 22  1  0
 22 23  1  0
 10  4  1  0
 23 11  1  0
 21 16  1  0
  5 24  1  0
  6 25  1  0
  7 26  1  0
 10 27  1  0
 11 28  1  6
 12 29  1  0
 12 30  1  0
 13 31  1  0
 13 32  1  0
 14 33  1  6
 15 34  1  0
 15 35  1  0
 17 36  1  0
 17 37  1  0
 18 38  1  0
 18 39  1  0
 19 40  1  0
 20 41  1  0
 20 42  1  0
 21 43  1  0
 21 44  1  0
 22 45  1  0
 22 46  1  0
 23 47  1  0
 23 48  1  0
M  CHG  2   3  -1  11   1
M  END
>  <UniqueID>  (45) 
38

>  <SMILES>  (45) 
O=C([N-]c1cccc(F)c1)[NH+]1CCC(CN2CCNCC2)CC1

>  <Energy>  (45) 
68.9695444787454

>  <Genealogy>  (45) 
O=C([N-]c1cccc(F)c1)[NH+]1CCC(CN2CCNCC2)CC1 (protonated)
O=C([N-]c1cccc(F)c1)[NH+]1CCC(CN2CCNCC2)CC1 (3D coordinates assigned)
O=C([N-]c1cccc(F)c1)[NH+]1CCC(CN2CCNCC2)CC1 (nonaromatic ring conformer: 68.9695444787454 kcal/mol)

>  <smiles>  (45) 
O=C(Nc1cccc(F)c1)N1CCC(CN2CCNCC2)CC1

>  <score_type>  (45) 
oracle

>  <origin>  (45) 
adg

>  <m_score__min__energy>  (45) 
-8.8000000000000007

>  <m_primary>  (45) 
energy

$$$$
45:0
     RDKit          3D

 40 42  0  0  0  0  0  0  0  0999 V2000
   -5.7150   25.6700  -30.8330 S   0  0  0  0  0  0  0  0  0  0  0  0
   -6.1080   24.0860  -30.7190 C   0  0  0  0  0  0  0  0  0  0  0  0
   -7.4150   23.6490  -31.1200 N   0  0  0  0  0  0  0  0  0  0  0  0
   -7.9680   22.3480  -30.7510 C   0  0  0  0  0  0  0  0  0  0  0  0
   -8.6520   21.6850  -31.9520 C   0  0  0  0  0  0  0  0  0  0  0  0
   -8.0090   20.3690  -32.2970 C   0  0  0  0  0  0  0  0  0  0  0  0
   -8.4890   19.1750  -31.7320 C   0  0  0  0  0  0  0  0  0  0  0  0
   -7.9120   17.9490  -32.0800 C   0  0  0  0  0  0  0  0  0  0  0  0
   -6.8580   17.9060  -32.9960 C   0  0  0  0  0  0  0  0  0  0  0  0
   -6.3820   19.0880  -33.5700 C   0  0  0  0  0  0  0  0  0  0  0  0
   -6.9560   20.3150  -33.2260 C   0  0  0  0  0  0  0  0  0  0  0  0
   -5.1110   23.1470  -30.2900 N   0  0  0  0  0  0  0  0  0  0  0  0
   -4.9630   22.8830  -28.8510 C   0  0  0  0  0  0  0  0  0  0  0  0
   -3.4980   22.6150  -28.5020 C   0  0  0  0  0  0  0  0  0  0  0  0
   -2.9580   21.5790  -29.3770 N   0  0  0  0  0  0  0  0  0  0  0  0
   -3.2850   21.5740  -30.7710 C   0  0  0  0  0  0  0  0  0  0  0  0
   -2.5630   20.7870  -31.6730 C   0  0  0  0  0  0  0  0  0  0  0  0
   -2.8760   20.8280  -33.0310 C   0  0  0  0  0  0  0  0  0  0  0  0
   -3.9080   21.6580  -33.4720 C   0  0  0  0  0  0  0  0  0  0  0  0
   -4.6130   22.4110  -32.5830 N   0  0  0  0  0  0  0  0  0  0  0  0
   -4.3400   22.3770  -31.2410 C   0  0  0  0  0  0  0  0  0  0  0  0
   -8.0480   24.3300  -31.5960 H   0  0  0  0  0  0  0  0  0  0  0  0
   -7.1545   21.6983  -30.3957 H   0  0  0  0  0  0  0  0  0  0  0  0
   -8.7155   22.4956  -29.9576 H   0  0  0  0  0  0  0  0  0  0  0  0
   -9.7110   21.5125  -31.7096 H   0  0  0  0  0  0  0  0  0  0  0  0
   -8.5522   22.3551  -32.8186 H   0  0  0  0  0  0  0  0  0  0  0  0
   -9.3214   19.2046  -31.0135 H   0  0  0  0  0  0  0  0  0  0  0  0
   -8.2887   17.0177  -31.6319 H   0  0  0  0  0  0  0  0  0  0  0  0
   -6.4027   16.9416  -33.2655 H   0  0  0  0  0  0  0  0  0  0  0  0
   -5.5543   19.0526  -34.2936 H   0  0  0  0  0  0  0  0  0  0  0  0
   -6.5819   21.2423  -33.6844 H   0  0  0  0  0  0  0  0  0  0  0  0
   -5.3156   23.7576  -28.2846 H   0  0  0  0  0  0  0  0  0  0  0  0
   -5.5584   21.9958  -28.5896 H   0  0  0  0  0  0  0  0  0  0  0  0
   -2.9175   23.5403  -28.6316 H   0  0  0  0  0  0  0  0  0  0  0  0
   -3.4317   22.2763  -27.4576 H   0  0  0  0  0  0  0  0  0  0  0  0
   -2.2790   20.8850  -28.9910 H   0  0  0  0  0  0  0  0  0  0  0  0
   -1.7512   20.1380  -31.3128 H   0  0  0  0  0  0  0  0  0  0  0  0
   -2.3146   20.2117  -33.7486 H   0  0  0  0  0  0  0  0  0  0  0  0
   -4.1531   21.7041  -34.5434 H   0  0  0  0  0  0  0  0  0  0  0  0
   -5.3760   23.0150  -32.9570 H   0  0  0  0  0  0  0  0  0  0  0  0
  1  2  2  0
  2  3  1  0
  3  4  1  0
  4  5  1  0
  5  6  1  0
  6  7  2  0
  7  8  1  0
  8  9  2  0
  9 10  1  0
 10 11  2  0
  2 12  1  0
 12 13  1  0
 13 14  1  0
 14 15  1  0
 15 16  1  0
 16 17  2  0
 17 18  1  0
 18 19  2  0
 19 20  1  0
 20 21  2  0
 11  6  1  0
 21 12  1  0
 21 16  1  0
  3 22  1  0
  4 23  1  0
  4 24  1  0
  5 25  1  0
  5 26  1  0
  7 27  1  0
  8 28  1  0
  9 29  1  0
 10 30  1  0
 11 31  1  0
 13 32  1  0
 13 33  1  0
 14 34  1  0
 14 35  1  0
 15 36  1  0
 17 37  1  0
 18 38  1  0
 19 39  1  0
 20 40  1  0
M  CHG  1  20   1
M  END
>  <UniqueID>  (46) 
39

>  <SMILES>  (46) 
S=C(NCCc1ccccc1)N1CCNc2ccc[nH+]c21

>  <Energy>  (46) 
43.51143033092793

>  <Genealogy>  (46) 
S=C(NCCc1ccccc1)N1CCNc2ccc[nH+]c21 (protonated)
S=C(NCCc1ccccc1)N1CCNc2ccc[nH+]c21 (3D coordinates assigned)
S=C(NCCc1ccccc1)N1CCNc2ccc[nH+]c21 (nonaromatic ring conformer: 43.51143033092793 kcal/mol)

>  <smiles>  (46) 
S=C(NCCc1ccccc1)N1CCNc2cccnc21

>  <score_type>  (46) 
oracle

>  <origin>  (46) 
adg

>  <m_score__min__energy>  (46) 
-6.4900000000000002

>  <m_primary>  (46) 
energy

$$$$
46:0
     RDKit          3D

 46 48  0  0  0  0  0  0  0  0999 V2000
   -3.8130   20.7830  -32.1670 C   0  0  0  0  0  0  0  0  0  0  0  0
   -2.6690   22.1800  -31.9300 S   0  0  0  0  0  0  0  0  0  0  0  0
   -2.5570   21.9490  -30.1480 C   0  0  0  0  0  0  0  0  0  0  0  0
   -2.4500   20.6400  -29.6570 C   0  0  0  0  0  0  0  0  0  0  0  0
   -2.4030   20.4000  -28.2830 C   0  0  0  0  0  0  0  0  0  0  0  0
   -2.4670   21.4660  -27.3860 C   0  0  0  0  0  0  0  0  0  0  0  0
   -2.5820   22.7750  -27.8600 C   0  0  0  0  0  0  0  0  0  0  0  0
   -2.6360   23.0340  -29.2410 C   0  0  0  0  0  0  0  0  0  0  0  0
   -2.7900   24.4360  -29.7020 C   0  0  0  0  0  0  0  0  0  0  0  0
   -1.9520   25.3050  -29.3460 O   0  0  0  0  0  0  0  0  0  0  0  0
   -3.9220   24.8510  -30.4780 N   0  0  0  0  0  0  0  0  0  0  0  0
   -5.0880   24.0630  -30.7550 C   0  0  0  0  0  0  0  0  0  0  0  0
   -5.6030   24.0500  -32.0580 C   0  0  0  0  0  0  0  0  0  0  0  0
   -6.7420   23.2990  -32.3600 C   0  0  0  0  0  0  0  0  0  0  0  0
   -7.3660   22.5340  -31.3650 C   0  0  0  0  0  0  0  0  0  0  0  0
   -8.8300   21.6190  -31.7170 S   0  0  0  0  0  0  0  0  0  0  0  0
   -9.8180   22.5300  -32.3910 O   0  0  0  0  0  0  0  0  0  0  0  0
   -9.4390   21.1100  -30.4390 O   0  0  0  0  0  0  0  0  0  0  0  0
   -8.4500   20.2780  -32.7720 N   0  0  0  0  0  0  0  0  0  0  0  0
   -6.9990   20.2610  -33.0610 C   0  0  0  0  0  0  0  0  0  0  0  0
   -6.5440   18.8550  -33.4890 C   0  0  0  0  0  0  0  0  0  0  0  0
   -6.7690   17.8500  -32.5080 O   0  0  0  0  0  0  0  0  0  0  0  0
   -7.7960   18.1730  -31.5800 C   0  0  0  0  0  0  0  0  0  0  0  0
   -8.9380   18.9970  -32.2020 C   0  0  0  0  0  0  0  0  0  0  0  0
   -6.8390   22.5240  -30.0680 C   0  0  0  0  0  0  0  0  0  0  0  0
   -5.7010   23.2760  -29.7650 C   0  0  0  0  0  0  0  0  0  0  0  0
   -4.1288   20.3973  -31.1864 H   0  0  0  0  0  0  0  0  0  0  0  0
   -4.6955   21.1230  -32.7289 H   0  0  0  0  0  0  0  0  0  0  0  0
   -3.3057   19.9849  -32.7289 H   0  0  0  0  0  0  0  0  0  0  0  0
   -2.4027   19.7956  -30.3603 H   0  0  0  0  0  0  0  0  0  0  0  0
   -2.3155   19.3698  -27.9074 H   0  0  0  0  0  0  0  0  0  0  0  0
   -2.4269   21.2757  -26.3033 H   0  0  0  0  0  0  0  0  0  0  0  0
   -2.6308   23.6107  -27.1464 H   0  0  0  0  0  0  0  0  0  0  0  0
   -5.1079   24.6343  -32.8476 H   0  0  0  0  0  0  0  0  0  0  0  0
   -7.1501   23.3082  -33.3815 H   0  0  0  0  0  0  0  0  0  0  0  0
   -8.9590   20.4490  -33.6710 H   0  0  0  0  0  0  0  0  0  0  0  0
   -6.7845   20.9721  -33.8724 H   0  0  0  0  0  0  0  0  0  0  0  0
   -6.4543   20.5456  -32.1487 H   0  0  0  0  0  0  0  0  0  0  0  0
   -7.0923   18.5768  -34.4011 H   0  0  0  0  0  0  0  0  0  0  0  0
   -5.4567   18.9071  -33.6474 H   0  0  0  0  0  0  0  0  0  0  0  0
   -8.2161   17.2369  -31.1835 H   0  0  0  0  0  0  0  0  0  0  0  0
   -7.3411   18.7888  -30.7902 H   0  0  0  0  0  0  0  0  0  0  0  0
   -9.4066   18.4069  -33.0033 H   0  0  0  0  0  0  0  0  0  0  0  0
   -9.6612   19.2314  -31.4070 H   0  0  0  0  0  0  0  0  0  0  0  0
   -7.3226   21.9219  -29.2846 H   0  0  0  0  0  0  0  0  0  0  0  0
   -5.2833   23.2520  -28.7477 H   0  0  0  0  0  0  0  0  0  0  0  0
  1  2  1  0
  2  3  1  0
  3  4  2  0
  4  5  1  0
  5  6  2  0
  6  7  1  0
  7  8  2  0
  8  9  1  0
  9 10  2  0
  9 11  1  0
 11 12  1  0
 12 13  2  0
 13 14  1  0
 14 15  2  0
 15 16  1  0
 16 17  2  0
 16 18  2  0
 16 19  1  0
 19 20  1  0
 20 21  1  0
 21 22  1  0
 22 23  1  0
 23 24  1  0
 15 25  1  0
 25 26  2  0
  8  3  1  0
 26 12  1  0
 24 19  1  0
  1 27  1  0
  1 28  1  0
  1 29  1  0
  4 30  1  0
  5 31  1  0
  6 32  1  0
  7 33  1  0
 13 34  1  0
 14 35  1  0
 19 36  1  0
 20 37  1  0
 20 38  1  0
 21 39  1  0
 21 40  1  0
 23 41  1  0
 23 42  1  0
 24 43  1  0
 24 44  1  0
 25 45  1  0
 26 46  1  0
M  CHG  2  11  -1  19   1
M  END
>  <UniqueID>  (47) 
40

>  <SMILES>  (47) 
CSc1ccccc1C(=O)[N-]c1ccc(S(=O)(=O)[NH+]2CCOCC2)cc1

>  <Energy>  (47) 
64.22617661375742

>  <Genealogy>  (47) 
CSc1ccccc1C(=O)[N-]c1ccc(S(=O)(=O)[NH+]2CCOCC2)cc1 (protonated)
CSc1ccccc1C(=O)[N-]c1ccc(S(=O)(=O)[NH+]2CCOCC2)cc1 (3D coordinates assigned)
CSc1ccccc1C(=O)[N-]c1ccc(S(=O)(=O)[NH+]2CCOCC2)cc1 (nonaromatic ring conformer: 64.22617661375742 kcal/mol)

>  <smiles>  (47) 
CSc1ccccc1C(=O)Nc1ccc(S(=O)(=O)N2CCOCC2)cc1

>  <score_type>  (47) 
oracle

>  <origin>  (47) 
adg

>  <m_score__min__energy>  (47) 
-10.279999999999999

>  <m_primary>  (47) 
energy

$$$$
47:0
     RDKit          3D

 36 37  0  0  0  0  0  0  0  0999 V2000
   -1.2010   20.1900  -32.7370 C   0  0  0  0  0  0  0  0  0  0  0  0
   -2.1620   20.5200  -33.8760 C   0  0  0  0  0  0  0  0  0  0  0  0
   -3.4520   19.6740  -33.8450 C   0  0  0  0  0  0  0  0  0  0  0  0
   -4.6220   20.4110  -33.2790 N   0  0  1  0  0  0  0  0  0  0  0  0
   -5.8690   19.6210  -33.4670 C   0  0  0  0  0  0  0  0  0  0  0  0
   -7.1580   20.4290  -33.1970 C   0  0  0  0  0  0  0  0  0  0  0  0
   -7.3250   20.9770  -31.7540 C   0  0  0  0  0  0  0  0  0  0  0  0
   -6.4680   22.1800  -31.4110 C   0  0  0  0  0  0  0  0  0  0  0  0
   -7.0790   23.3890  -31.0380 C   0  0  0  0  0  0  0  0  0  0  0  0
   -6.3040   24.5110  -30.7350 C   0  0  0  0  0  0  0  0  0  0  0  0
   -4.9080   24.4450  -30.8030 C   0  0  0  0  0  0  0  0  0  0  0  0
   -4.1180   25.5950  -30.4870 N   0  0  0  0  0  0  0  0  0  0  0  0
   -4.2890   23.2470  -31.1830 C   0  0  0  0  0  0  0  0  0  0  0  0
   -5.0580   22.1150  -31.4970 C   0  0  0  0  0  0  0  0  0  0  0  0
   -4.3760   20.8150  -31.8660 C   0  0  0  0  0  0  0  0  0  0  0  0
   -1.7021   20.3621  -31.7730 H   0  0  0  0  0  0  0  0  0  0  0  0
   -0.8959   19.1356  -32.8086 H   0  0  0  0  0  0  0  0  0  0  0  0
   -0.3125   20.8345  -32.8086 H   0  0  0  0  0  0  0  0  0  0  0  0
   -2.4384   21.5823  -33.8040 H   0  0  0  0  0  0  0  0  0  0  0  0
   -1.6432   20.2919  -34.8188 H   0  0  0  0  0  0  0  0  0  0  0  0
   -3.6949   19.3680  -34.8733 H   0  0  0  0  0  0  0  0  0  0  0  0
   -3.2618   18.8092  -33.1924 H   0  0  0  0  0  0  0  0  0  0  0  0
   -4.7600   21.2970  -33.8230 H   0  0  0  0  0  0  0  0  0  0  0  0
   -5.8973   19.2571  -34.5047 H   0  0  0  0  0  0  0  0  0  0  0  0
   -5.8440   18.7988  -32.7366 H   0  0  0  0  0  0  0  0  0  0  0  0
   -7.1691   21.2861  -33.8864 H   0  0  0  0  0  0  0  0  0  0  0  0
   -7.9884   19.7230  -33.3453 H   0  0  0  0  0  0  0  0  0  0  0  0
   -8.3789   21.2618  -31.6192 H   0  0  0  0  0  0  0  0  0  0  0  0
   -6.9955   20.1696  -31.0836 H   0  0  0  0  0  0  0  0  0  0  0  0
   -8.1758   23.4525  -30.9842 H   0  0  0  0  0  0  0  0  0  0  0  0
   -6.7937   25.4512  -30.4414 H   0  0  0  0  0  0  0  0  0  0  0  0
   -3.1360   25.6800  -30.8330 H   0  0  0  0  0  0  0  0  0  0  0  0
   -4.5100   26.3700  -29.9060 H   0  0  0  0  0  0  0  0  0  0  0  0
   -3.1916   23.1928  -31.2358 H   0  0  0  0  0  0  0  0  0  0  0  0
   -3.2924   20.9331  -31.7184 H   0  0  0  0  0  0  0  0  0  0  0  0
   -4.7941   20.0285  -31.2206 H   0  0  0  0  0  0  0  0  0  0  0  0
  1  2  1  0
  2  3  1  0
  3  4  1  0
  4  5  1  0
  5  6  1  0
  6  7  1  0
  7  8  1  0
  8  9  2  0
  9 10  1  0
 10 11  2  0
 11 12  1  0
 11 13  1  0
 13 14  2  0
 14 15  1  0
 15  4  1  0
 14  8  1  0
  1 16  1  0
  1 17  1  0
  1 18  1  0
  2 19  1  0
  2 20  1  0
  3 21  1  0
  3 22  1  0
  4 23  1  6
  5 24  1  0
  5 25  1  0
  6 26  1  0
  6 27  1  0
  7 28  1  0
  7 29  1  0
  9 30  1  0
 10 31  1  0
 12 32  1  0
 12 33  1  0
 13 34  1  0
 15 35  1  0
 15 36  1  0
M  CHG  1   4   1
M  END
>  <UniqueID>  (48) 
41

>  <SMILES>  (48) 
CCC[N@H+]1CCCc2ccc(N)cc2C1

>  <Energy>  (48) 
48.34158441092032

>  <Genealogy>  (48) 
CCC[NH+]1CCCc2ccc(N)cc2C1 (protonated)
CCC[N@H+]1CCCc2ccc(N)cc2C1 (chirality)
CCC[N@H+]1CCCc2ccc(N)cc2C1 (3D coordinates assigned)
CCC[N@H+]1CCCc2ccc(N)cc2C1 (nonaromatic ring conformer: 48.34158441092032 kcal/mol)

>  <smiles>  (48) 
CCCN1CCCc2ccc(N)cc2C1

>  <score_type>  (48) 
oracle

>  <origin>  (48) 
adg

>  <m_score__min__energy>  (48) 
-4.6500000000000004

>  <m_primary>  (48) 
energy

$$$$
