0:0
     RDKit          3D

 63 66  0  0  0  0  0  0  0  0999 V2000
   -3.5680   14.9690  -32.7870 C   0  0  0  0  0  0  0  0  0  0  0  0
   -3.3690   16.0790  -33.8280 C   0  0  0  0  0  0  0  0  0  0  0  0
   -4.6020   16.3470  -34.6200 N   0  0  0  0  0  0  0  0  0  0  0  0
   -5.7580   15.5760  -34.0910 C   0  0  0  0  0  0  0  0  0  0  0  0
   -6.8460   16.4720  -33.4870 C   0  0  0  0  0  0  0  0  0  0  0  0
   -4.8660   17.8080  -34.7420 C   0  0  0  0  0  0  0  0  0  0  0  0
   -4.0590   18.7210  -33.7850 C   0  0  0  0  0  0  0  0  0  0  0  0
   -4.6290   18.7600  -32.4370 N   0  0  0  0  0  0  0  0  0  0  0  0
   -5.1240   19.9970  -31.9040 C   0  0  0  0  0  0  0  0  0  0  0  0
   -4.2510   20.8630  -31.2550 C   0  0  0  0  0  0  0  0  0  0  0  0
   -4.7060   22.0300  -30.6780 C   0  0  0  0  0  0  0  0  0  0  0  0
   -6.0440   22.3370  -30.6210 N   0  0  0  0  0  0  0  0  0  0  0  0
   -6.5220   23.3940  -29.7150 C   0  0  0  0  0  0  0  0  0  0  0  0
   -6.9240   21.5870  -31.3860 C   0  0  0  0  0  0  0  0  0  0  0  0
   -8.2710   21.9830  -31.5710 C   0  0  0  0  0  0  0  0  0  0  0  0
   -9.1460   21.2150  -32.3390 C   0  0  0  0  0  0  0  0  0  0  0  0
   -8.7020   20.0500  -32.9570 C   0  0  0  0  0  0  0  0  0  0  0  0
   -7.3760   19.6430  -32.8160 C   0  0  0  0  0  0  0  0  0  0  0  0
   -6.4750   20.3900  -32.0340 C   0  0  0  0  0  0  0  0  0  0  0  0
   -3.5420   22.7350  -30.1230 C   0  0  0  0  0  0  0  0  0  0  0  0
   -3.3950   24.0390  -29.6370 C   0  0  0  0  0  0  0  0  0  0  0  0
   -2.1140   24.4940  -29.2410 C   0  0  0  0  0  0  0  0  0  0  0  0
   -1.9420   25.7840  -28.7130 O   0  0  0  0  0  0  0  0  0  0  0  0
   -1.2370   26.0890  -27.5130 C   0  0  0  0  0  0  0  0  0  0  0  0
   -0.9860   23.6330  -29.3960 C   0  0  0  0  0  0  0  0  0  0  0  0
    0.3280   23.9860  -29.0420 O   0  0  0  0  0  0  0  0  0  0  0  0
    0.9770   23.7010  -27.8070 C   0  0  0  0  0  0  0  0  0  0  0  0
   -1.1620   22.3560  -29.9540 C   0  0  0  0  0  0  0  0  0  0  0  0
   -2.4360   21.9330  -30.3190 C   0  0  0  0  0  0  0  0  0  0  0  0
   -2.7810   20.6680  -31.0390 C   0  0  0  0  0  0  0  0  0  0  0  0
   -3.4914   15.3962  -31.7763 H   0  0  0  0  0  0  0  0  0  0  0  0
   -4.5617   14.5161  -32.9193 H   0  0  0  0  0  0  0  0  0  0  0  0
   -2.7936   14.1991  -32.9193 H   0  0  0  0  0  0  0  0  0  0  0  0
   -3.0768   17.0027  -33.3071 H   0  0  0  0  0  0  0  0  0  0  0  0
   -2.5888   15.7447  -34.5276 H   0  0  0  0  0  0  0  0  0  0  0  0
   -4.4260   16.0130  -35.5990 H   0  0  0  0  0  0  0  0  0  0  0  0
   -6.1988   14.9949  -34.9144 H   0  0  0  0  0  0  0  0  0  0  0  0
   -5.3816   14.9260  -33.2874 H   0  0  0  0  0  0  0  0  0  0  0  0
   -6.7908   16.4266  -32.3893 H   0  0  0  0  0  0  0  0  0  0  0  0
   -6.6929   17.5094  -33.8192 H   0  0  0  0  0  0  0  0  0  0  0  0
   -7.8348   16.1228  -33.8192 H   0  0  0  0  0  0  0  0  0  0  0  0
   -4.6307   18.1085  -35.7737 H   0  0  0  0  0  0  0  0  0  0  0  0
   -5.9220   17.9450  -34.4661 H   0  0  0  0  0  0  0  0  0  0  0  0
   -3.0281   18.3427  -33.7217 H   0  0  0  0  0  0  0  0  0  0  0  0
   -4.0895   19.7427  -34.1914 H   0  0  0  0  0  0  0  0  0  0  0  0
   -5.0160   17.8790  -32.0320 H   0  0  0  0  0  0  0  0  0  0  0  0
   -6.3780   23.0757  -28.6720 H   0  0  0  0  0  0  0  0  0  0  0  0
   -5.9542   24.3182  -29.8980 H   0  0  0  0  0  0  0  0  0  0  0  0
   -7.5909   23.5780  -29.8980 H   0  0  0  0  0  0  0  0  0  0  0  0
   -8.6325   22.9100  -31.1021 H   0  0  0  0  0  0  0  0  0  0  0  0
  -10.1927   21.5320  -32.4568 H   0  0  0  0  0  0  0  0  0  0  0  0
   -9.3993   19.4484  -33.5586 H   0  0  0  0  0  0  0  0  0  0  0  0
   -7.0304   18.7289  -33.3210 H   0  0  0  0  0  0  0  0  0  0  0  0
   -4.2674   24.7050  -29.5632 H   0  0  0  0  0  0  0  0  0  0  0  0
   -1.8572   25.8207  -26.6451 H   0  0  0  0  0  0  0  0  0  0  0  0
   -0.2981   25.5166  -27.4837 H   0  0  0  0  0  0  0  0  0  0  0  0
   -1.0114   27.1652  -27.4837 H   0  0  0  0  0  0  0  0  0  0  0  0
    0.3206   23.9893  -26.9727 H   0  0  0  0  0  0  0  0  0  0  0  0
    1.1948   22.6244  -27.7471 H   0  0  0  0  0  0  0  0  0  0  0  0
    1.9170   24.2691  -27.7471 H   0  0  0  0  0  0  0  0  0  0  0  0
   -0.2964   21.6935  -30.1017 H   0  0  0  0  0  0  0  0  0  0  0  0
   -2.2390   20.5836  -31.9925 H   0  0  0  0  0  0  0  0  0  0  0  0
   -2.5174   19.7478  -30.4970 H   0  0  0  0  0  0  0  0  0  0  0  0
  1  2  1  0
  2  3  1  0
  3  4  1  0
  4  5  1  0
  3  6  1  0
  6  7  1  0
  7  8  1  0
  8  9  1  0
  9 10  2  0
 10 11  1  0
 11 12  2  0
 12 13  1  0
 12 14  1  0
 14 15  2  0
 15 16  1  0
 16 17  2  0
 17 18  1  0
 18 19  2  0
 11 20  1  0
 20 21  2  0
 21 22  1  0
 22 23  1  0
 23 24  1  0
 22 25  2  0
 25 26  1  0
 26 27  1  0
 25 28  1  0
 28 29  2  0
 29 30  1  0
 19  9  1  0
 29 20  1  0
 30 10  1  0
 19 14  1  0
  1 31  1  0
  1 32  1  0
  1 33  1  0
  2 34  1  0
  2 35  1  0
  3 36  1  0
  4 37  1  0
  4 38  1  0
  5 39  1  0
  5 40  1  0
  5 41  1  0
  6 42  1  0
  6 43  1  0
  7 44  1  0
  7 45  1  0
  8 46  1  0
 13 47  1  0
 13 48  1  0
 13 49  1  0
 15 50  1  0
 16 51  1  0
 17 52  1  0
 18 53  1  0
 21 54  1  0
 24 55  1  0
 24 56  1  0
 24 57  1  0
 27 58  1  0
 27 59  1  0
 27 60  1  0
 28 61  1  0
 30 62  1  0
 30 63  1  0
M  CHG  2   3   1  12   1
M  END
>  <UniqueID>  (1) 
1

>  <SMILES>  (1) 
CC[NH+](CC)CCNc1c2c([n+](C)c3ccccc13)-c1cc(OC)c(OC)cc1C2

>  <Energy>  (1) 
113.44366839700368

>  <Genealogy>  (1) 
CC[NH+](CC)CCNc1c2c([n+](C)c3ccccc13)-c1cc(OC)c(OC)cc1C2 (protonated)
CC[NH+](CC)CCNc1c2c([n+](C)c3ccccc13)-c1cc(OC)c(OC)cc1C2 (3D coordinates assigned)
CC[NH+](CC)CCNc1c2c([n+](C)c3ccccc13)-c1cc(OC)c(OC)cc1C2 (nonaromatic ring conformer: 113.44366839700368 kcal/mol)

>  <smiles>  (1) 
CCN(CC)CCNc1c2c([n+](C)c3ccccc13)-c1cc(OC)c(OC)cc1C2

>  <score_type>  (1) 
oracle

>  <origin>  (1) 
adg

>  <m_score__min__energy>  (1) 
-7.0999999999999996

>  <m_primary>  (1) 
energy

$$$$
1:0
     RDKit          3D

 50 52  0  0  0  0  0  0  0  0999 V2000
    0.2120   21.1570  -32.7580 C   0  0  0  0  0  0  0  0  0  0  0  0
   -0.8520   21.2910  -33.6950 O   0  0  0  0  0  0  0  0  0  0  0  0
   -2.0750   20.6010  -33.6230 C   0  0  0  0  0  0  0  0  0  0  0  0
   -3.2660   21.2410  -33.2450 C   0  0  0  0  0  0  0  0  0  0  0  0
   -4.4860   20.5380  -33.1860 C   0  0  0  0  0  0  0  0  0  0  0  0
   -5.6740   21.1860  -32.8000 C   0  0  0  0  0  0  0  0  0  0  0  0
   -5.6930   22.6140  -32.6190 N   0  0  0  0  0  0  0  0  0  0  0  0
   -5.9960   23.2290  -31.3240 C   0  0  0  0  0  0  0  0  0  0  0  0
   -5.3670   24.6240  -31.1980 C   0  0  0  0  0  0  0  0  0  0  0  0
   -4.0870   24.5800  -30.4590 N   0  0  0  0  0  0  0  0  0  0  0  0
   -3.2820   23.4120  -30.8560 C   0  0  0  0  0  0  0  0  0  0  0  0
   -4.3400   24.5320  -29.0100 C   0  0  0  0  0  0  0  0  0  0  0  0
   -6.8310   20.4210  -32.5740 C   0  0  0  0  0  0  0  0  0  0  0  0
   -7.9690   20.9930  -31.9660 C   0  0  0  0  0  0  0  0  0  0  0  0
   -9.1020   20.2240  -31.7130 C   0  0  0  0  0  0  0  0  0  0  0  0
   -9.1120   18.8710  -32.0360 C   0  0  0  0  0  0  0  0  0  0  0  0
   -7.9930   18.2810  -32.6220 C   0  0  0  0  0  0  0  0  0  0  0  0
   -6.8350   19.0440  -32.9210 C   0  0  0  0  0  0  0  0  0  0  0  0
   -5.7230   18.4770  -33.5160 N   0  0  0  0  0  0  0  0  0  0  0  0
   -5.8240   17.1460  -34.1540 C   0  0  0  0  0  0  0  0  0  0  0  0
   -4.5220   19.1620  -33.5250 C   0  0  0  0  0  0  0  0  0  0  0  0
   -3.3030   18.5220  -33.8570 C   0  0  0  0  0  0  0  0  0  0  0  0
   -2.0980   19.2340  -33.9270 C   0  0  0  0  0  0  0  0  0  0  0  0
   -0.8220   18.5210  -34.2850 C   0  0  0  0  0  0  0  0  0  0  0  0
   -0.1911   21.2078  -31.7358 H   0  0  0  0  0  0  0  0  0  0  0  0
    0.7122   20.1888  -32.9072 H   0  0  0  0  0  0  0  0  0  0  0  0
    0.9367   21.9710  -32.9072 H   0  0  0  0  0  0  0  0  0  0  0  0
   -3.2466   22.3109  -32.9902 H   0  0  0  0  0  0  0  0  0  0  0  0
   -5.5610   23.2320  -33.4520 H   0  0  0  0  0  0  0  0  0  0  0  0
   -7.0872   23.3189  -31.2184 H   0  0  0  0  0  0  0  0  0  0  0  0
   -5.5754   22.5900  -30.5336 H   0  0  0  0  0  0  0  0  0  0  0  0
   -5.1836   25.0251  -32.2057 H   0  0  0  0  0  0  0  0  0  0  0  0
   -6.0642   25.2663  -30.6400 H   0  0  0  0  0  0  0  0  0  0  0  0
   -2.9230   22.8911  -29.9561 H   0  0  0  0  0  0  0  0  0  0  0  0
   -3.9004   22.7266  -31.4542 H   0  0  0  0  0  0  0  0  0  0  0  0
   -2.4214   23.7460  -31.4542 H   0  0  0  0  0  0  0  0  0  0  0  0
   -3.3998   24.7104  -28.4675 H   0  0  0  0  0  0  0  0  0  0  0  0
   -5.0720   25.3073  -28.7397 H   0  0  0  0  0  0  0  0  0  0  0  0
   -4.7372   23.5425  -28.7397 H   0  0  0  0  0  0  0  0  0  0  0  0
   -7.9609   22.0575  -31.6891 H   0  0  0  0  0  0  0  0  0  0  0  0
   -9.9898   20.6868  -31.2574 H   0  0  0  0  0  0  0  0  0  0  0  0
  -10.0059   18.2645  -31.8283 H   0  0  0  0  0  0  0  0  0  0  0  0
   -8.0082   17.2064  -32.8563 H   0  0  0  0  0  0  0  0  0  0  0  0
   -5.8829   16.3702  -33.3764 H   0  0  0  0  0  0  0  0  0  0  0  0
   -6.7277   17.1071  -34.7800 H   0  0  0  0  0  0  0  0  0  0  0  0
   -4.9365   16.9711  -34.7800 H   0  0  0  0  0  0  0  0  0  0  0  0
   -3.3020   17.4418  -34.0646 H   0  0  0  0  0  0  0  0  0  0  0  0
   -0.2957   18.2269  -33.3649 H   0  0  0  0  0  0  0  0  0  0  0  0
   -1.0569   17.6234  -34.8759 H   0  0  0  0  0  0  0  0  0  0  0  0
   -0.1807   19.1915  -34.8759 H   0  0  0  0  0  0  0  0  0  0  0  0
  1  2  1  0
  2  3  1  0
  3  4  2  0
  4  5  1  0
  5  6  2  0
  6  7  1  0
  7  8  1  0
  8  9  1  0
  9 10  1  0
 10 11  1  0
 10 12  1  0
  6 13  1  0
 13 14  2  0
 14 15  1  0
 15 16  2  0
 16 17  1  0
 17 18  2  0
 18 19  1  0
 19 20  1  0
 19 21  2  0
 21 22  1  0
 22 23  2  0
 23 24  1  0
 23  3  1  0
 21  5  1  0
 18 13  1  0
  1 25  1  0
  1 26  1  0
  1 27  1  0
  4 28  1  0
  7 29  1  0
  8 30  1  0
  8 31  1  0
  9 32  1  0
  9 33  1  0
 11 34  1  0
 11 35  1  0
 11 36  1  0
 12 37  1  0
 12 38  1  0
 12 39  1  0
 14 40  1  0
 15 41  1  0
 16 42  1  0
 17 43  1  0
 20 44  1  0
 20 45  1  0
 20 46  1  0
 22 47  1  0
 24 48  1  0
 24 49  1  0
 24 50  1  0
M  CHG  1  19   1
M  END
>  <UniqueID>  (2) 
2

>  <SMILES>  (2) 
COc1cc2c(NCCN(C)C)c3ccccc3[n+](C)c2cc1C

>  <Energy>  (2) 
73.77793427320726

>  <Genealogy>  (2) 
COc1cc2c(NCCN(C)C)c3ccccc3[n+](C)c2cc1C (3D coordinates assigned)
COc1cc2c(NCCN(C)C)c3ccccc3[n+](C)c2cc1C (optimized conformer: 73.77793427320726 kcal/mol)

>  <smiles>  (2) 
COc1cc2c(NCCN(C)C)c3ccccc3[n+](C)c2cc1C

>  <score_type>  (2) 
oracle

>  <origin>  (2) 
adg

>  <m_score__min__energy>  (2) 
-8.0800000000000001

>  <m_primary>  (2) 
energy

$$$$
2:0
     RDKit          3D

 70 73  0  0  0  0  0  0  0  0999 V2000
   -9.1120   20.8410  -30.8360 C   0  0  0  0  0  0  0  0  0  0  0  0
   -9.7220   20.9390  -32.2300 C   0  0  0  0  0  0  0  0  0  0  0  0
   -9.1200   19.9350  -33.1160 N   0  0  0  0  0  0  0  0  0  0  0  0
   -8.7590   18.7350  -32.3500 C   0  0  0  0  0  0  0  0  0  0  0  0
   -7.3640   18.2300  -32.7470 C   0  0  0  0  0  0  0  0  0  0  0  0
   -6.6310   19.2190  -33.5450 N   0  0  0  0  0  0  0  0  0  0  0  0
   -5.2970   19.6390  -33.2030 C   0  0  0  0  0  0  0  0  0  0  0  0
   -4.1780   18.9110  -33.6470 C   0  0  0  0  0  0  0  0  0  0  0  0
   -4.3240   17.6190  -34.1940 C   0  0  0  0  0  0  0  0  0  0  0  0
   -3.2130   16.9010  -34.6290 C   0  0  0  0  0  0  0  0  0  0  0  0
   -1.9400   17.4470  -34.5090 C   0  0  0  0  0  0  0  0  0  0  0  0
   -1.7670   18.7110  -33.9480 C   0  0  0  0  0  0  0  0  0  0  0  0
   -2.8780   19.4730  -33.5040 C   0  0  0  0  0  0  0  0  0  0  0  0
   -2.7220   20.7220  -32.9350 N   0  0  0  0  0  0  0  0  0  0  0  0
   -1.3980   21.3760  -32.9290 C   0  0  0  0  0  0  0  0  0  0  0  0
   -3.7940   21.3520  -32.3420 C   0  0  0  0  0  0  0  0  0  0  0  0
   -3.6170   22.5090  -31.6370 N   0  0  0  0  0  0  0  0  0  0  0  0
   -4.6380   23.1860  -31.0420 C   0  0  0  0  0  0  0  0  0  0  0  0
   -4.4120   24.3910  -30.3320 C   0  0  0  0  0  0  0  0  0  0  0  0
   -3.1420   24.9440  -30.1130 O   0  0  0  0  0  0  0  0  0  0  0  0
   -2.1790   24.4640  -29.1800 C   0  0  0  0  0  0  0  0  0  0  0  0
   -2.8230   23.3970  -28.2920 C   0  0  0  0  0  0  0  0  0  0  0  0
   -1.7650   22.4650  -27.6330 C   0  0  0  0  0  0  0  0  0  0  0  0
   -1.8570   21.0240  -28.0160 N   0  0  0  0  0  0  0  0  0  0  0  0
   -2.0050   20.2240  -26.7740 C   0  0  0  0  0  0  0  0  0  0  0  0
   -0.6190   20.5780  -28.7050 C   0  0  0  0  0  0  0  0  0  0  0  0
   -3.0390   20.7660  -28.8750 C   0  0  0  0  0  0  0  0  0  0  0  0
   -5.5060   25.0940  -29.8110 C   0  0  0  0  0  0  0  0  0  0  0  0
   -6.8040   24.5960  -29.9390 C   0  0  0  0  0  0  0  0  0  0  0  0
   -7.0290   23.3910  -30.6060 C   0  0  0  0  0  0  0  0  0  0  0  0
   -5.9530   22.6890  -31.1660 C   0  0  0  0  0  0  0  0  0  0  0  0
   -6.1680   21.4950  -31.8580 C   0  0  0  0  0  0  0  0  0  0  0  0
   -5.0970   20.8170  -32.4640 C   0  0  0  0  0  0  0  0  0  0  0  0
   -9.9015   20.9678  -30.0806 H   0  0  0  0  0  0  0  0  0  0  0  0
   -8.6397   19.8555  -30.7109 H   0  0  0  0  0  0  0  0  0  0  0  0
   -8.3548   21.6290  -30.7109 H   0  0  0  0  0  0  0  0  0  0  0  0
  -10.8061   20.7643  -32.1658 H   0  0  0  0  0  0  0  0  0  0  0  0
   -9.5280   21.9419  -32.6381 H   0  0  0  0  0  0  0  0  0  0  0  0
   -9.8420   19.6660  -33.8210 H   0  0  0  0  0  0  0  0  0  0  0  0
   -8.7621   18.9782  -31.2772 H   0  0  0  0  0  0  0  0  0  0  0  0
   -9.4934   17.9454  -32.5673 H   0  0  0  0  0  0  0  0  0  0  0  0
   -6.7905   18.0145  -31.8334 H   0  0  0  0  0  0  0  0  0  0  0  0
   -7.4905   17.3245  -33.3586 H   0  0  0  0  0  0  0  0  0  0  0  0
   -7.0730   19.5900  -34.4180 H   0  0  0  0  0  0  0  0  0  0  0  0
   -5.3264   17.1738  -34.2778 H   0  0  0  0  0  0  0  0  0  0  0  0
   -3.3427   15.9008  -35.0680 H   0  0  0  0  0  0  0  0  0  0  0  0
   -1.0654   16.8787  -34.8584 H   0  0  0  0  0  0  0  0  0  0  0  0
   -0.7526   19.1244  -33.8479 H   0  0  0  0  0  0  0  0  0  0  0  0
   -1.0730   21.5365  -31.8904 H   0  0  0  0  0  0  0  0  0  0  0  0
   -0.6696   20.7341  -33.4461 H   0  0  0  0  0  0  0  0  0  0  0  0
   -1.4651   22.3446  -33.4461 H   0  0  0  0  0  0  0  0  0  0  0  0
   -1.3283   24.0259  -29.7226 H   0  0  0  0  0  0  0  0  0  0  0  0
   -1.8235   25.2972  -28.5560 H   0  0  0  0  0  0  0  0  0  0  0  0
   -3.3986   23.8963  -27.4987 H   0  0  0  0  0  0  0  0  0  0  0  0
   -3.4722   22.7759  -28.9266 H   0  0  0  0  0  0  0  0  0  0  0  0
   -0.7669   22.8293  -27.9176 H   0  0  0  0  0  0  0  0  0  0  0  0
   -1.9565   22.5049  -26.5505 H   0  0  0  0  0  0  0  0  0  0  0  0
   -1.8837   20.8795  -25.8990 H   0  0  0  0  0  0  0  0  0  0  0  0
   -3.0036   19.7633  -26.7514 H   0  0  0  0  0  0  0  0  0  0  0  0
   -1.2373   19.4365  -26.7514 H   0  0  0  0  0  0  0  0  0  0  0  0
    0.1392   20.3049  -27.9563 H   0  0  0  0  0  0  0  0  0  0  0  0
   -0.8441   19.7044  -29.3345 H   0  0  0  0  0  0  0  0  0  0  0  0
   -0.2353   21.3944  -29.3345 H   0  0  0  0  0  0  0  0  0  0  0  0
   -3.9177   20.5742  -28.2417 H   0  0  0  0  0  0  0  0  0  0  0  0
   -3.2293   21.6437  -29.5101 H   0  0  0  0  0  0  0  0  0  0  0  0
   -2.8463   19.8888  -29.5101 H   0  0  0  0  0  0  0  0  0  0  0  0
   -5.3402   26.0508  -29.2943 H   0  0  0  0  0  0  0  0  0  0  0  0
   -7.6508   25.1544  -29.5134 H   0  0  0  0  0  0  0  0  0  0  0  0
   -8.0506   22.9923  -30.6922 H   0  0  0  0  0  0  0  0  0  0  0  0
   -7.1849   21.0818  -31.9292 H   0  0  0  0  0  0  0  0  0  0  0  0
  1  2  1  0
  2  3  1  0
  3  4  1  0
  4  5  1  0
  5  6  1  0
  6  7  1  0
  7  8  2  0
  8  9  1  0
  9 10  2  0
 10 11  1  0
 11 12  2  0
 12 13  1  0
 13 14  2  0
 14 15  1  0
 14 16  1  0
 16 17  2  0
 17 18  1  0
 18 19  2  0
 19 20  1  0
 20 21  1  0
 21 22  1  0
 22 23  1  0
 23 24  1  0
 24 25  1  0
 24 26  1  0
 24 27  1  0
 19 28  1  0
 28 29  2  0
 29 30  1  0
 30 31  2  0
 31 32  1  0
 32 33  2  0
 33  7  1  0
 13  8  1  0
 33 16  1  0
 31 18  1  0
  1 34  1  0
  1 35  1  0
  1 36  1  0
  2 37  1  0
  2 38  1  0
  3 39  1  0
  4 40  1  0
  4 41  1  0
  5 42  1  0
  5 43  1  0
  6 44  1  0
  9 45  1  0
 10 46  1  0
 11 47  1  0
 12 48  1  0
 15 49  1  0
 15 50  1  0
 15 51  1  0
 21 52  1  0
 21 53  1  0
 22 54  1  0
 22 55  1  0
 23 56  1  0
 23 57  1  0
 25 58  1  0
 25 59  1  0
 25 60  1  0
 26 61  1  0
 26 62  1  0
 26 63  1  0
 27 64  1  0
 27 65  1  0
 27 66  1  0
 28 67  1  0
 29 68  1  0
 30 69  1  0
 32 70  1  0
M  CHG  2  14   1  24   1
M  END
>  <UniqueID>  (3) 
3

>  <SMILES>  (3) 
CCNCCNc1c2ccccc2[n+](C)c2nc3c(OCCC[N+](C)(C)C)cccc3cc12

>  <Energy>  (3) 
100.37697245637659

>  <Genealogy>  (3) 
CCNCCNc1c2ccccc2[n+](C)c2nc3c(OCCC[N+](C)(C)C)cccc3cc12 (3D coordinates assigned)
CCNCCNc1c2ccccc2[n+](C)c2nc3c(OCCC[N+](C)(C)C)cccc3cc12 (optimized conformer: 100.37697245637659 kcal/mol)

>  <smiles>  (3) 
CCNCCNc1c2ccccc2[n+](C)c2nc3c(OCCC[N+](C)(C)C)cccc3cc12

>  <score_type>  (3) 
oracle

>  <origin>  (3) 
adg

>  <m_score__min__energy>  (3) 
-9.3699999999999992

>  <m_primary>  (3) 
energy

$$$$
3:0
     RDKit          3D

 40 40  0  0  0  0  0  0  0  0999 V2000
   -8.4950   18.5900  -31.8880 C   0  0  0  0  0  0  0  0  0  0  0  0
   -8.6080   19.9150  -32.6400 C   0  0  0  0  0  0  0  0  0  0  0  0
   -9.6260   20.8810  -31.9960 C   0  0  0  0  0  0  0  0  0  0  0  0
   -9.0700   22.2950  -31.7490 C   0  0  0  0  0  0  0  0  0  0  0  0
   -7.5750   22.3540  -31.3800 C   0  0  0  0  0  0  0  0  0  0  0  0
   -7.1000   23.6990  -30.8020 C   0  0  0  0  0  0  0  0  0  0  0  0
   -5.8910   24.2770  -31.5520 C   0  0  0  0  0  0  0  0  0  0  0  0
   -5.1040   25.2490  -30.6670 C   0  0  0  0  0  0  0  0  0  0  0  0
   -3.6980   24.8170  -30.5750 N   0  0  0  0  0  0  0  0  0  0  0  0
   -3.4340   23.9990  -29.3820 C   0  0  0  0  0  0  0  0  0  0  0  0
   -2.6090   24.7590  -28.3840 C   0  0  0  0  0  0  0  0  0  0  0  0
   -2.7550   24.5350  -27.0080 C   0  0  0  0  0  0  0  0  0  0  0  0
   -1.9370   25.2270  -26.1110 C   0  0  0  0  0  0  0  0  0  0  0  0
   -0.9870   26.1290  -26.5920 C   0  0  0  0  0  0  0  0  0  0  0  0
   -0.8660   26.3250  -27.9700 C   0  0  0  0  0  0  0  0  0  0  0  0
   -1.6690   25.6410  -28.8280 N   0  0  0  0  0  0  0  0  0  0  0  0
   -8.5113   18.7806  -30.8048 H   0  0  0  0  0  0  0  0  0  0  0  0
   -9.3411   17.9413  -32.1589 H   0  0  0  0  0  0  0  0  0  0  0  0
   -7.5513   18.0940  -32.1589 H   0  0  0  0  0  0  0  0  0  0  0  0
   -7.6205   20.3995  -32.6495 H   0  0  0  0  0  0  0  0  0  0  0  0
   -8.9609   19.6905  -33.6574 H   0  0  0  0  0  0  0  0  0  0  0  0
  -10.4969   20.9624  -32.6631 H   0  0  0  0  0  0  0  0  0  0  0  0
   -9.8867   20.4629  -31.0125 H   0  0  0  0  0  0  0  0  0  0  0  0
   -9.2183   22.8845  -32.6658 H   0  0  0  0  0  0  0  0  0  0  0  0
   -9.6160   22.6916  -30.8803 H   0  0  0  0  0  0  0  0  0  0  0  0
   -7.3771   21.5722  -30.6319 H   0  0  0  0  0  0  0  0  0  0  0  0
   -7.0208   22.2103  -32.3192 H   0  0  0  0  0  0  0  0  0  0  0  0
   -7.9287   24.4198  -30.8632 H   0  0  0  0  0  0  0  0  0  0  0  0
   -6.7894   23.5206  -29.7620 H   0  0  0  0  0  0  0  0  0  0  0  0
   -5.2295   23.4524  -31.8561 H   0  0  0  0  0  0  0  0  0  0  0  0
   -6.2566   24.8253  -32.4327 H   0  0  0  0  0  0  0  0  0  0  0  0
   -5.1479   26.2575  -31.1041 H   0  0  0  0  0  0  0  0  0  0  0  0
   -5.5460   25.2609  -29.6598 H   0  0  0  0  0  0  0  0  0  0  0  0
   -3.1000   25.6730  -30.4980 H   0  0  0  0  0  0  0  0  0  0  0  0
   -4.3913   23.7181  -28.9187 H   0  0  0  0  0  0  0  0  0  0  0  0
   -2.8772   23.1008  -29.6875 H   0  0  0  0  0  0  0  0  0  0  0  0
   -3.5061   23.8216  -26.6380 H   0  0  0  0  0  0  0  0  0  0  0  0
   -2.0416   25.0612  -25.0286 H   0  0  0  0  0  0  0  0  0  0  0  0
   -0.3401   26.6800  -25.8934 H   0  0  0  0  0  0  0  0  0  0  0  0
   -0.1206   27.0331  -28.3611 H   0  0  0  0  0  0  0  0  0  0  0  0
  1  2  1  0
  2  3  1  0
  3  4  1  0
  4  5  1  0
  5  6  1  0
  6  7  1  0
  7  8  1  0
  8  9  1  0
  9 10  1  0
 10 11  1  0
 11 12  2  0
 12 13  1  0
 13 14  2  0
 14 15  1  0
 15 16  2  0
 16 11  1  0
  1 17  1  0
  1 18  1  0
  1 19  1  0
  2 20  1  0
  2 21  1  0
  3 22  1  0
  3 23  1  0
  4 24  1  0
  4 25  1  0
  5 26  1  0
  5 27  1  0
  6 28  1  0
  6 29  1  0
  7 30  1  0
  7 31  1  0
  8 32  1  0
  8 33  1  0
  9 34  1  0
 10 35  1  0
 10 36  1  0
 12 37  1  0
 13 38  1  0
 14 39  1  0
 15 40  1  0
M  END
>  <UniqueID>  (4) 
4

>  <SMILES>  (4) 
CCCCCCCCNCc1ccccn1

>  <Energy>  (4) 
28.157586178500832

>  <Genealogy>  (4) 
CCCCCCCCNCc1ccccn1 (3D coordinates assigned)
CCCCCCCCNCc1ccccn1 (optimized conformer: 28.157586178500832 kcal/mol)

>  <smiles>  (4) 
CCCCCCCCNCc1ccccn1

>  <score_type>  (4) 
oracle

>  <origin>  (4) 
adg

>  <m_score__min__energy>  (4) 
-6.8200000000000003

>  <m_primary>  (4) 
energy

$$$$
4:0
     RDKit          3D

 53 55  0  0  0  0  0  0  0  0999 V2000
   -6.0640   25.2890  -29.8560 C   0  0  0  0  0  0  0  0  0  0  0  0
   -4.6510   24.7990  -30.1680 C   0  0  0  0  0  0  0  0  0  0  0  0
   -4.2350   23.7200  -29.2490 N   0  0  0  0  0  0  0  0  0  0  0  0
   -4.2420   24.1670  -27.8450 C   0  0  0  0  0  0  0  0  0  0  0  0
   -3.0060   22.9750  -29.6310 C   0  0  0  0  0  0  0  0  0  0  0  0
   -3.1240   21.4340  -29.7050 C   0  0  0  0  0  0  0  0  0  0  0  0
   -3.6860   20.9130  -31.0380 C   0  0  0  0  0  0  0  0  0  0  0  0
   -3.8570   22.0300  -32.0810 C   0  0  0  0  0  0  0  0  0  0  0  0
   -4.4180   21.5200  -33.3450 N   0  0  0  0  0  0  0  0  0  0  0  0
   -5.6310   20.7540  -33.1010 C   0  0  0  0  0  0  0  0  0  0  0  0
   -6.7930   21.3820  -32.5820 C   0  0  0  0  0  0  0  0  0  0  0  0
   -6.8840   22.7900  -32.4500 C   0  0  0  0  0  0  0  0  0  0  0  0
   -8.0410   23.3950  -31.9660 C   0  0  0  0  0  0  0  0  0  0  0  0
   -9.1390   22.6200  -31.6210 C   0  0  0  0  0  0  0  0  0  0  0  0
   -9.0810   21.2350  -31.7400 C   0  0  0  0  0  0  0  0  0  0  0  0
   -7.9050   20.5830  -32.1960 C   0  0  0  0  0  0  0  0  0  0  0  0
   -7.8370   19.2080  -32.2830 N   0  0  0  0  0  0  0  0  0  0  0  0
   -8.8400   18.3710  -31.5860 C   0  0  0  0  0  0  0  0  0  0  0  0
   -6.8280   18.6130  -33.0110 C   0  0  0  0  0  0  0  0  0  0  0  0
   -6.9010   17.2490  -33.3920 C   0  0  0  0  0  0  0  0  0  0  0  0
   -5.8670   16.6390  -34.0960 C   0  0  0  0  0  0  0  0  0  0  0  0
   -4.7440   17.3690  -34.4580 C   0  0  0  0  0  0  0  0  0  0  0  0
   -3.4500   16.5970  -35.3570 Cl  0  0  0  0  0  0  0  0  0  0  0  0
   -4.6560   18.7220  -34.1310 C   0  0  0  0  0  0  0  0  0  0  0  0
   -5.6920   19.3700  -33.4130 C   0  0  0  0  0  0  0  0  0  0  0  0
   -6.2030   25.3372  -28.7659 H   0  0  0  0  0  0  0  0  0  0  0  0
   -6.2089   26.2899  -30.2887 H   0  0  0  0  0  0  0  0  0  0  0  0
   -6.7974   24.5927  -30.2887 H   0  0  0  0  0  0  0  0  0  0  0  0
   -4.6245   24.4191  -31.2000 H   0  0  0  0  0  0  0  0  0  0  0  0
   -3.9580   25.6441  -30.0429 H   0  0  0  0  0  0  0  0  0  0  0  0
   -4.2283   23.2902  -27.1810 H   0  0  0  0  0  0  0  0  0  0  0  0
   -3.3534   24.7863  -27.6529 H   0  0  0  0  0  0  0  0  0  0  0  0
   -5.1495   24.7582  -27.6529 H   0  0  0  0  0  0  0  0  0  0  0  0
   -2.6932   23.3336  -30.6228 H   0  0  0  0  0  0  0  0  0  0  0  0
   -2.2852   23.1719  -28.8238 H   0  0  0  0  0  0  0  0  0  0  0  0
   -2.1224   21.0031  -29.5599 H   0  0  0  0  0  0  0  0  0  0  0  0
   -3.8332   21.1311  -28.9206 H   0  0  0  0  0  0  0  0  0  0  0  0
   -2.9958   20.1570  -31.4405 H   0  0  0  0  0  0  0  0  0  0  0  0
   -4.6802   20.4869  -30.8381 H   0  0  0  0  0  0  0  0  0  0  0  0
   -4.5343   22.7956  -31.6745 H   0  0  0  0  0  0  0  0  0  0  0  0
   -2.8640   22.4523  -32.2944 H   0  0  0  0  0  0  0  0  0  0  0  0
   -3.7130   20.9400  -33.8530 H   0  0  0  0  0  0  0  0  0  0  0  0
   -4.6130   22.3020  -34.0080 H   0  0  0  0  0  0  0  0  0  0  0  0
   -6.0255   23.4160  -32.7349 H   0  0  0  0  0  0  0  0  0  0  0  0
   -8.0846   24.4887  -31.8570 H   0  0  0  0  0  0  0  0  0  0  0  0
  -10.0569   23.1015  -31.2528 H   0  0  0  0  0  0  0  0  0  0  0  0
   -9.9632   20.6335  -31.4757 H   0  0  0  0  0  0  0  0  0  0  0  0
   -8.7136   18.4765  -30.4984 H   0  0  0  0  0  0  0  0  0  0  0  0
   -9.8512   18.6969  -31.8709 H   0  0  0  0  0  0  0  0  0  0  0  0
   -8.7003   17.3178  -31.8709 H   0  0  0  0  0  0  0  0  0  0  0  0
   -7.7922   16.6617  -33.1259 H   0  0  0  0  0  0  0  0  0  0  0  0
   -5.9403   15.5752  -34.3662 H   0  0  0  0  0  0  0  0  0  0  0  0
   -3.7680   19.2955  -34.4353 H   0  0  0  0  0  0  0  0  0  0  0  0
  1  2  1  0
  2  3  1  0
  3  4  1  0
  3  5  1  0
  5  6  1  0
  6  7  1  0
  7  8  1  0
  8  9  1  0
  9 10  1  0
 10 11  2  0
 11 12  1  0
 12 13  2  0
 13 14  1  0
 14 15  2  0
 15 16  1  0
 16 17  2  0
 17 18  1  0
 17 19  1  0
 19 20  2  0
 20 21  1  0
 21 22  2  0
 22 23  1  0
 22 24  1  0
 24 25  2  0
 25 10  1  0
 16 11  1  0
 25 19  1  0
  1 26  1  0
  1 27  1  0
  1 28  1  0
  2 29  1  0
  2 30  1  0
  4 31  1  0
  4 32  1  0
  4 33  1  0
  5 34  1  0
  5 35  1  0
  6 36  1  0
  6 37  1  0
  7 38  1  0
  7 39  1  0
  8 40  1  0
  8 41  1  0
  9 42  1  0
  9 43  1  0
 12 44  1  0
 13 45  1  0
 14 46  1  0
 15 47  1  0
 18 48  1  0
 18 49  1  0
 18 50  1  0
 20 51  1  0
 21 52  1  0
 24 53  1  0
M  CHG  2   9   1  17   1
M  END
>  <UniqueID>  (5) 
5

>  <SMILES>  (5) 
CCN(C)CCCC[NH2+]c1c2ccccc2[n+](C)c2ccc(Cl)cc12

>  <Energy>  (5) 
82.91829760039248

>  <Genealogy>  (5) 
CCN(C)CCCC[NH2+]c1c2ccccc2[n+](C)c2ccc(Cl)cc12 (protonated)
CCN(C)CCCC[NH2+]c1c2ccccc2[n+](C)c2ccc(Cl)cc12 (3D coordinates assigned)
CCN(C)CCCC[NH2+]c1c2ccccc2[n+](C)c2ccc(Cl)cc12 (optimized conformer: 82.91829760039248 kcal/mol)

>  <smiles>  (5) 
CCN(C)CCCCNc1c2ccccc2[n+](C)c2ccc(Cl)cc12

>  <score_type>  (5) 
oracle

>  <origin>  (5) 
adg

>  <m_score__min__energy>  (5) 
-8.3200000000000003

>  <m_primary>  (5) 
energy

$$$$
5:0
     RDKit          3D

 46 48  0  0  0  0  0  0  0  0999 V2000
   -4.2300   24.0130  -28.6710 C   0  0  0  0  0  0  0  0  0  0  0  0
   -3.4990   24.5550  -29.9020 C   0  0  0  0  0  0  0  0  0  0  0  0
   -4.4310   24.9570  -30.9700 N   0  0  0  0  0  0  0  0  0  0  0  0
   -5.6970   25.4950  -30.4460 C   0  0  0  0  0  0  0  0  0  0  0  0
   -6.8690   24.5690  -30.8020 C   0  0  0  0  0  0  0  0  0  0  0  0
   -6.5840   23.6870  -32.0260 C   0  0  0  0  0  0  0  0  0  0  0  0
   -5.5760   22.6660  -31.7250 N   0  0  0  0  0  0  0  0  0  0  0  0
   -5.6060   21.3540  -32.3200 C   0  0  0  0  0  0  0  0  0  0  0  0
   -6.7790   20.5760  -32.2790 C   0  0  0  0  0  0  0  0  0  0  0  0
   -7.9740   21.0920  -31.7310 C   0  0  0  0  0  0  0  0  0  0  0  0
   -9.1080   20.2920  -31.6140 C   0  0  0  0  0  0  0  0  0  0  0  0
   -9.0730   18.9710  -32.0400 C   0  0  0  0  0  0  0  0  0  0  0  0
   -7.9210   18.4550  -32.6320 C   0  0  0  0  0  0  0  0  0  0  0  0
   -6.7680   19.2620  -32.8160 C   0  0  0  0  0  0  0  0  0  0  0  0
   -5.6570   18.7960  -33.4940 N   0  0  0  0  0  0  0  0  0  0  0  0
   -5.7470   17.5560  -34.2990 C   0  0  0  0  0  0  0  0  0  0  0  0
   -4.4720   19.5090  -33.4580 C   0  0  0  0  0  0  0  0  0  0  0  0
   -3.2550   18.9580  -33.9360 C   0  0  0  0  0  0  0  0  0  0  0  0
   -2.0780   19.7060  -33.9450 C   0  0  0  0  0  0  0  0  0  0  0  0
   -0.5900   18.9960  -34.5480 Cl  0  0  0  0  0  0  0  0  0  0  0  0
   -2.0760   21.0110  -33.4650 C   0  0  0  0  0  0  0  0  0  0  0  0
   -3.2440   21.5650  -32.9480 C   0  0  0  0  0  0  0  0  0  0  0  0
   -4.4450   20.8230  -32.9150 C   0  0  0  0  0  0  0  0  0  0  0  0
   -3.7352   24.3799  -27.7597 H   0  0  0  0  0  0  0  0  0  0  0  0
   -5.2750   24.3563  -28.6844 H   0  0  0  0  0  0  0  0  0  0  0  0
   -4.2051   22.9134  -28.6844 H   0  0  0  0  0  0  0  0  0  0  0  0
   -2.9033   25.4303  -29.6035 H   0  0  0  0  0  0  0  0  0  0  0  0
   -2.8596   23.7515  -30.2963 H   0  0  0  0  0  0  0  0  0  0  0  0
   -3.9770   25.6740  -31.5840 H   0  0  0  0  0  0  0  0  0  0  0  0
   -5.6263   25.5836  -29.3519 H   0  0  0  0  0  0  0  0  0  0  0  0
   -5.8760   26.4817  -30.8981 H   0  0  0  0  0  0  0  0  0  0  0  0
   -7.0755   23.9172  -29.9403 H   0  0  0  0  0  0  0  0  0  0  0  0
   -7.7304   25.2071  -31.0487 H   0  0  0  0  0  0  0  0  0  0  0  0
   -7.5158   23.1904  -32.3343 H   0  0  0  0  0  0  0  0  0  0  0  0
   -6.1985   24.3276  -32.8328 H   0  0  0  0  0  0  0  0  0  0  0  0
   -4.9460   22.8310  -30.9080 H   0  0  0  0  0  0  0  0  0  0  0  0
   -8.0095   22.1381  -31.3926 H   0  0  0  0  0  0  0  0  0  0  0  0
  -10.0316   20.7068  -31.1840 H   0  0  0  0  0  0  0  0  0  0  0  0
   -9.9570   18.3295  -31.9100 H   0  0  0  0  0  0  0  0  0  0  0  0
   -7.9054   17.4057  -32.9617 H   0  0  0  0  0  0  0  0  0  0  0  0
   -5.8101   16.6868  -33.6277 H   0  0  0  0  0  0  0  0  0  0  0  0
   -6.6447   17.5951  -34.9336 H   0  0  0  0  0  0  0  0  0  0  0  0
   -4.8531   17.4651  -34.9336 H   0  0  0  0  0  0  0  0  0  0  0  0
   -3.2396   17.9223  -34.3061 H   0  0  0  0  0  0  0  0  0  0  0  0
   -1.1512   21.6059  -33.4938 H   0  0  0  0  0  0  0  0  0  0  0  0
   -3.2311   22.5943  -32.5601 H   0  0  0  0  0  0  0  0  0  0  0  0
  1  2  1  0
  2  3  1  0
  3  4  1  0
  4  5  1  0
  5  6  1  0
  6  7  1  0
  7  8  1  0
  8  9  2  0
  9 10  1  0
 10 11  2  0
 11 12  1  0
 12 13  2  0
 13 14  1  0
 14 15  2  0
 15 16  1  0
 15 17  1  0
 17 18  2  0
 18 19  1  0
 19 20  1  0
 19 21  2  0
 21 22  1  0
 22 23  2  0
 23  8  1  0
 14  9  1  0
 23 17  1  0
  1 24  1  0
  1 25  1  0
  1 26  1  0
  2 27  1  0
  2 28  1  0
  3 29  1  0
  4 30  1  0
  4 31  1  0
  5 32  1  0
  5 33  1  0
  6 34  1  0
  6 35  1  0
  7 36  1  0
 10 37  1  0
 11 38  1  0
 12 39  1  0
 13 40  1  0
 16 41  1  0
 16 42  1  0
 16 43  1  0
 18 44  1  0
 21 45  1  0
 22 46  1  0
M  CHG  1  15   1
M  END
>  <UniqueID>  (6) 
6

>  <SMILES>  (6) 
CCNCCCNc1c2ccccc2[n+](C)c2cc(Cl)ccc12

>  <Energy>  (6) 
70.1009121496426

>  <Genealogy>  (6) 
CCNCCCNc1c2ccccc2[n+](C)c2cc(Cl)ccc12 (3D coordinates assigned)
CCNCCCNc1c2ccccc2[n+](C)c2cc(Cl)ccc12 (optimized conformer: 70.1009121496426 kcal/mol)

>  <smiles>  (6) 
CCNCCCNc1c2ccccc2[n+](C)c2cc(Cl)ccc12

>  <score_type>  (6) 
oracle

>  <origin>  (6) 
adg

>  <m_score__min__energy>  (6) 
-8.9900000000000002

>  <m_primary>  (6) 
energy

$$$$
6:0
     RDKit          3D

 73 75  0  0  0  0  0  0  0  0999 V2000
   -2.1970   18.9550  -26.7310 C   0  0  0  0  0  0  0  0  0  0  0  0
   -1.2080   19.2080  -27.6010 C   0  0  0  0  0  0  0  0  0  0  0  0
   -0.0970   18.2040  -27.7570 C   0  0  0  0  0  0  0  0  0  0  0  0
   -1.1600   20.5220  -28.3550 C   0  0  0  0  0  0  0  0  0  0  0  0
   -2.5280   20.9130  -28.9860 C   0  0  0  0  0  0  0  0  0  0  0  0
   -2.6140   21.0800  -30.5580 C   0  0  1  0  0  0  0  0  0  0  0  0
   -1.8270   22.4040  -30.8290 C   0  0  0  0  0  0  0  0  0  0  0  0
   -1.9250   19.8230  -31.2660 C   0  0  2  0  0  0  0  0  0  0  0  0
   -0.3980   19.7150  -31.0810 C   0  0  0  0  0  0  0  0  0  0  0  0
    0.0840   18.2890  -31.3840 C   0  0  0  0  0  0  0  0  0  0  0  0
   -0.6090   17.6370  -32.5560 C   0  0  0  0  0  0  0  0  0  0  0  0
   -1.7240   18.1240  -33.1490 C   0  0  0  0  0  0  0  0  0  0  0  0
   -2.1940   17.4300  -34.4110 C   0  0  0  0  0  0  0  0  0  0  0  0
   -2.3260   19.4960  -32.7480 C   0  0  2  0  0  0  0  0  0  0  0  0
   -1.7400   20.4790  -33.8170 C   0  0  0  0  0  0  0  0  0  0  0  0
   -0.4270   20.1060  -34.2370 O   0  0  0  0  0  0  0  0  0  0  0  0
    0.5740   21.0370  -34.5230 C   0  0  0  0  0  0  0  0  0  0  0  0
    2.0020   20.6680  -34.3020 C   0  0  0  0  0  0  0  0  0  0  0  0
    0.2810   22.1980  -34.9200 O   0  0  0  0  0  0  0  0  0  0  0  0
   -3.8780   19.4830  -32.7090 C   0  0  0  0  0  0  0  0  0  0  0  0
   -4.4890   18.2980  -32.4130 C   0  0  0  0  0  0  0  0  0  0  0  0
   -5.8660   18.1750  -31.9160 C   0  0  0  0  0  0  0  0  0  0  0  0
   -6.3550   17.0290  -31.7240 O   0  0  0  0  0  0  0  0  0  0  0  0
   -6.6630   19.3780  -31.5640 C   0  0  0  0  0  0  0  0  0  0  0  0
   -6.2070   20.5740  -32.4160 C   0  0  2  0  0  0  0  0  0  0  0  0
   -6.7730   20.3930  -33.8510 C   0  0  0  0  0  0  0  0  0  0  0  0
   -4.6280   20.7990  -32.3840 C   0  0  2  0  0  0  0  0  0  0  0  0
   -4.3620   21.9460  -33.4070 C   0  0  0  0  0  0  0  0  0  0  0  0
   -4.1590   21.2480  -30.9470 C   0  0  2  0  0  0  0  0  0  0  0  0
   -4.6010   22.5910  -30.6990 O   0  0  0  0  0  0  0  0  0  0  0  0
   -5.8800   22.9390  -30.2460 C   0  0  0  0  0  0  0  0  0  0  0  0
   -6.1590   24.3530  -29.8690 C   0  0  0  0  0  0  0  0  0  0  0  0
   -6.7860   22.0700  -30.1170 O   0  0  0  0  0  0  0  0  0  0  0  0
   -3.0165   19.6777  -26.6045 H   0  0  0  0  0  0  0  0  0  0  0  0
   -2.1885   18.0248  -26.1440 H   0  0  0  0  0  0  0  0  0  0  0  0
    0.2533   17.8874  -26.7635 H   0  0  0  0  0  0  0  0  0  0  0  0
   -0.4685   17.3291  -28.3107 H   0  0  0  0  0  0  0  0  0  0  0  0
    0.7359   18.6619  -28.3107 H   0  0  0  0  0  0  0  0  0  0  0  0
   -0.8568   21.3158  -27.6565 H   0  0  0  0  0  0  0  0  0  0  0  0
   -0.4407   20.4020  -29.1786 H   0  0  0  0  0  0  0  0  0  0  0  0
   -3.2511   20.1343  -28.7020 H   0  0  0  0  0  0  0  0  0  0  0  0
   -2.7258   21.9225  -28.5965 H   0  0  0  0  0  0  0  0  0  0  0  0
   -1.5507   22.8689  -29.8711 H   0  0  0  0  0  0  0  0  0  0  0  0
   -0.9163   22.1783  -31.4032 H   0  0  0  0  0  0  0  0  0  0  0  0
   -2.4604   23.0961  -31.4032 H   0  0  0  0  0  0  0  0  0  0  0  0
   -2.3998   19.0295  -30.6703 H   0  0  0  0  0  0  0  0  0  0  0  0
    0.0996   20.4178  -31.7654 H   0  0  0  0  0  0  0  0  0  0  0  0
   -0.1492   19.9590  -30.0377 H   0  0  0  0  0  0  0  0  0  0  0  0
    1.1621   18.3277  -31.5988 H   0  0  0  0  0  0  0  0  0  0  0  0
   -0.1529   17.6807  -30.4986 H   0  0  0  0  0  0  0  0  0  0  0  0
   -0.1799   16.7056  -32.9539 H   0  0  0  0  0  0  0  0  0  0  0  0
   -2.7922   16.5467  -34.1427 H   0  0  0  0  0  0  0  0  0  0  0  0
   -2.8092   18.1233  -35.0033 H   0  0  0  0  0  0  0  0  0  0  0  0
   -1.3219   17.1161  -35.0033 H   0  0  0  0  0  0  0  0  0  0  0  0
   -2.4036   20.4836  -34.6942 H   0  0  0  0  0  0  0  0  0  0  0  0
   -1.6745   21.4757  -33.3563 H   0  0  0  0  0  0  0  0  0  0  0  0
    2.2043   20.6157  -33.2220 H   0  0  0  0  0  0  0  0  0  0  0  0
    2.2028   19.6885  -34.7605 H   0  0  0  0  0  0  0  0  0  0  0  0
    2.6522   21.4276  -34.7605 H   0  0  0  0  0  0  0  0  0  0  0  0
   -3.9110   17.3731  -32.5564 H   0  0  0  0  0  0  0  0  0  0  0  0
   -7.7279   19.1789  -31.7547 H   0  0  0  0  0  0  0  0  0  0  0  0
   -6.5141   19.6131  -30.4998 H   0  0  0  0  0  0  0  0  0  0  0  0
   -6.6119   21.5017  -31.9853 H   0  0  0  0  0  0  0  0  0  0  0  0
   -7.8193   20.0584  -33.7930 H   0  0  0  0  0  0  0  0  0  0  0  0
   -6.7239   21.3517  -34.3882 H   0  0  0  0  0  0  0  0  0  0  0  0
   -6.1767   19.6407  -34.3882 H   0  0  0  0  0  0  0  0  0  0  0  0
   -4.1458   22.8782  -32.8646 H   0  0  0  0  0  0  0  0  0  0  0  0
   -3.5014   21.6814  -34.0389 H   0  0  0  0  0  0  0  0  0  0  0  0
   -5.2512   22.0872  -34.0389 H   0  0  0  0  0  0  0  0  0  0  0  0
   -4.6405   20.5158  -30.2822 H   0  0  0  0  0  0  0  0  0  0  0  0
   -6.1769   24.4435  -28.7729 H   0  0  0  0  0  0  0  0  0  0  0  0
   -5.3719   25.0036  -30.2779 H   0  0  0  0  0  0  0  0  0  0  0  0
   -7.1342   24.6559  -30.2779 H   0  0  0  0  0  0  0  0  0  0  0  0
  1  2  2  0
  2  3  1  0
  2  4  1  0
  4  5  1  0
  6  5  1  1
  6  7  1  0
  6  8  1  0
  8  9  1  0
  9 10  1  0
 10 11  1  0
 11 12  2  0
 12 13  1  0
 12 14  1  0
 14 15  1  6
 15 16  1  0
 16 17  1  0
 17 18  1  0
 17 19  2  0
 14 20  1  0
 20 21  2  0
 21 22  1  0
 22 23  2  0
 22 24  1  0
 24 25  1  0
 25 26  1  0
 25 27  1  0
 27 28  1  6
 27 29  1  0
 29 30  1  0
 30 31  1  0
 31 32  1  0
 31 33  2  0
 29  6  1  0
 14  8  1  0
 27 20  1  0
  1 34  1  0
  1 35  1  0
  3 36  1  0
  3 37  1  0
  3 38  1  0
  4 39  1  0
  4 40  1  0
  5 41  1  0
  5 42  1  0
  7 43  1  0
  7 44  1  0
  7 45  1  0
  8 46  1  1
  9 47  1  0
  9 48  1  0
 10 49  1  0
 10 50  1  0
 11 51  1  0
 13 52  1  0
 13 53  1  0
 13 54  1  0
 15 55  1  0
 15 56  1  0
 18 57  1  0
 18 58  1  0
 18 59  1  0
 21 60  1  0
 24 61  1  0
 24 62  1  0
 25 63  1  1
 26 64  1  0
 26 65  1  0
 26 66  1  0
 28 67  1  0
 28 68  1  0
 28 69  1  0
 29 70  1  1
 32 71  1  0
 32 72  1  0
 32 73  1  0
M  END
>  <UniqueID>  (7) 
7

>  <SMILES>  (7) 
C=C(C)CC[C@]1(C)C(OC(C)=O)C2(C)C(=CC(=O)CC2C)C2(COC(C)=O)C(C)=CCC[C@H]21

>  <Energy>  (7) 
117.24483246938989

>  <Genealogy>  (7) 
C=C(C)CC[C@]1(C)C(OC(C)=O)C2(C)C(=CC(=O)CC2C)C2(COC(C)=O)C(C)=CCC[C@H]21 (chirality)
C=C(C)CC[C@]1(C)C(OC(C)=O)C2(C)C(=CC(=O)CC2C)C2(COC(C)=O)C(C)=CCC[C@H]21 (3D coordinates assigned)
C=C(C)CC[C@]1(C)C(OC(C)=O)C2(C)C(=CC(=O)CC2C)C2(COC(C)=O)C(C)=CCC[C@H]21 (nonaromatic ring conformer: 117.24483246938989 kcal/mol)

>  <smiles>  (7) 
C=C(C)CCC1(C)C2CCC=C(C)C2(COC(C)=O)C2=CC(=O)CC(C)C2(C)C1OC(C)=O

>  <score_type>  (7) 
oracle

>  <origin>  (7) 
adg

>  <m_score__min__energy>  (7) 
-8.7899999999999991

>  <m_primary>  (7) 
energy

$$$$
7:0
     RDKit          3D

 50 52  0  0  0  0  0  0  0  0999 V2000
   -6.7870   15.5970  -34.1990 C   0  0  0  0  0  0  0  0  0  0  0  0
   -5.3710   16.1830  -34.1370 C   0  0  0  0  0  0  0  0  0  0  0  0
   -5.2470   17.2690  -33.1340 N   0  0  0  0  0  0  0  0  0  0  0  0
   -6.1840   17.0620  -31.9950 C   0  0  0  0  0  0  0  0  0  0  0  0
   -6.5400   18.3840  -31.3010 C   0  0  0  0  0  0  0  0  0  0  0  0
   -7.2250   19.3320  -32.2170 N   0  0  0  0  0  0  0  0  0  0  0  0
   -8.6990   19.3170  -32.0650 C   0  0  0  0  0  0  0  0  0  0  0  0
   -9.2700   20.7390  -31.9300 C   0  0  0  0  0  0  0  0  0  0  0  0
   -8.3910   21.6010  -31.1260 N   0  0  0  0  0  0  0  0  0  0  0  0
   -8.0480   22.8410  -31.8360 C   0  0  0  0  0  0  0  0  0  0  0  0
   -6.7740   23.4210  -31.2580 C   0  0  0  0  0  0  0  0  0  0  0  0
   -6.8700   24.6010  -30.5010 C   0  0  0  0  0  0  0  0  0  0  0  0
   -5.7310   25.2090  -29.9740 C   0  0  0  0  0  0  0  0  0  0  0  0
   -4.4700   24.6630  -30.2020 C   0  0  0  0  0  0  0  0  0  0  0  0
   -3.3820   25.2840  -29.6790 F   0  0  0  0  0  0  0  0  0  0  0  0
   -4.3350   23.4930  -30.9680 C   0  0  0  0  0  0  0  0  0  0  0  0
   -3.0610   22.9520  -31.2140 C   0  0  0  0  0  0  0  0  0  0  0  0
   -2.9200   21.7970  -31.9820 C   0  0  0  0  0  0  0  0  0  0  0  0
   -4.0440   21.1670  -32.5100 C   0  0  0  0  0  0  0  0  0  0  0  0
   -5.3190   21.6860  -32.2730 C   0  0  0  0  0  0  0  0  0  0  0  0
   -5.4900   22.8580  -31.5050 C   0  0  0  0  0  0  0  0  0  0  0  0
   -6.8480   19.1350  -33.6380 C   0  0  0  0  0  0  0  0  0  0  0  0
   -5.4140   18.6030  -33.7790 C   0  0  0  0  0  0  0  0  0  0  0  0
   -7.1643   15.4409  -33.1776 H   0  0  0  0  0  0  0  0  0  0  0  0
   -7.4496   16.2948  -34.7319 H   0  0  0  0  0  0  0  0  0  0  0  0
   -6.7627   14.6350  -34.7319 H   0  0  0  0  0  0  0  0  0  0  0  0
   -4.6680   15.3788  -33.8744 H   0  0  0  0  0  0  0  0  0  0  0  0
   -5.1447   16.6131  -35.1238 H   0  0  0  0  0  0  0  0  0  0  0  0
   -4.2710   17.2360  -32.7540 H   0  0  0  0  0  0  0  0  0  0  0  0
   -7.1072   16.5988  -32.3733 H   0  0  0  0  0  0  0  0  0  0  0  0
   -5.6882   16.4124  -31.2586 H   0  0  0  0  0  0  0  0  0  0  0  0
   -7.2045   18.1701  -30.4509 H   0  0  0  0  0  0  0  0  0  0  0  0
   -5.6027   18.8537  -30.9681 H   0  0  0  0  0  0  0  0  0  0  0  0
   -9.1439   18.8363  -32.9487 H   0  0  0  0  0  0  0  0  0  0  0  0
   -8.9443   18.7599  -31.1488 H   0  0  0  0  0  0  0  0  0  0  0  0
   -9.3788   21.1767  -32.9333 H   0  0  0  0  0  0  0  0  0  0  0  0
  -10.2439   20.6721  -31.4229 H   0  0  0  0  0  0  0  0  0  0  0  0
   -7.4990   21.0790  -30.9550 H   0  0  0  0  0  0  0  0  0  0  0  0
   -7.8993   22.6224  -32.9038 H   0  0  0  0  0  0  0  0  0  0  0  0
   -8.8660   23.5672  -31.7194 H   0  0  0  0  0  0  0  0  0  0  0  0
   -7.8574   25.0514  -30.3216 H   0  0  0  0  0  0  0  0  0  0  0  0
   -5.8290   26.1259  -29.3742 H   0  0  0  0  0  0  0  0  0  0  0  0
   -2.1692   23.4434  -30.7977 H   0  0  0  0  0  0  0  0  0  0  0  0
   -1.9188   21.3825  -32.1712 H   0  0  0  0  0  0  0  0  0  0  0  0
   -3.9273   20.2567  -33.1164 H   0  0  0  0  0  0  0  0  0  0  0  0
   -6.1999   21.1756  -32.6896 H   0  0  0  0  0  0  0  0  0  0  0  0
   -7.5419   18.4134  -34.0938 H   0  0  0  0  0  0  0  0  0  0  0  0
   -6.9025   20.1099  -34.1446 H   0  0  0  0  0  0  0  0  0  0  0  0
   -5.1721   18.5132  -34.8483 H   0  0  0  0  0  0  0  0  0  0  0  0
   -4.7382   19.3104  -33.2761 H   0  0  0  0  0  0  0  0  0  0  0  0
  1  2  1  0
  2  3  1  0
  3  4  1  0
  4  5  1  0
  5  6  1  0
  6  7  1  0
  7  8  1  0
  8  9  1  0
  9 10  1  0
 10 11  1  0
 11 12  2  0
 12 13  1  0
 13 14  2  0
 14 15  1  0
 14 16  1  0
 16 17  2  0
 17 18  1  0
 18 19  2  0
 19 20  1  0
 20 21  2  0
  6 22  1  0
 22 23  1  0
 23  3  1  0
 21 11  1  0
 21 16  1  0
  1 24  1  0
  1 25  1  0
  1 26  1  0
  2 27  1  0
  2 28  1  0
  3 29  1  0
  4 30  1  0
  4 31  1  0
  5 32  1  0
  5 33  1  0
  7 34  1  0
  7 35  1  0
  8 36  1  0
  8 37  1  0
  9 38  1  0
 10 39  1  0
 10 40  1  0
 12 41  1  0
 13 42  1  0
 17 43  1  0
 18 44  1  0
 19 45  1  0
 20 46  1  0
 22 47  1  0
 22 48  1  0
 23 49  1  0
 23 50  1  0
M  CHG  1   3   1
M  END
>  <UniqueID>  (8) 
8

>  <SMILES>  (8) 
CC[NH+]1CCN(CCNCc2ccc(F)c3ccccc23)CC1

>  <Energy>  (8) 
67.0716857308838

>  <Genealogy>  (8) 
CC[NH+]1CCN(CCNCc2ccc(F)c3ccccc23)CC1 (protonated)
CC[NH+]1CCN(CCNCc2ccc(F)c3ccccc23)CC1 (3D coordinates assigned)
CC[NH+]1CCN(CCNCc2ccc(F)c3ccccc23)CC1 (nonaromatic ring conformer: 67.0716857308838 kcal/mol)

>  <smiles>  (8) 
CCN1CCN(CCNCc2ccc(F)c3ccccc23)CC1

>  <score_type>  (8) 
oracle

>  <origin>  (8) 
adg

>  <m_score__min__energy>  (8) 
-7.54

>  <m_primary>  (8) 
energy

$$$$
8:0
     RDKit          3D

 65 68  0  0  0  0  0  0  0  0999 V2000
   -6.5960   24.7240  -29.8090 C   0  0  0  0  0  0  0  0  0  0  0  0
   -5.7020   25.7040  -30.5590 C   0  0  0  0  0  0  0  0  0  0  0  0
   -4.5920   24.9830  -31.2000 N   0  0  0  0  0  0  0  0  0  0  0  0
   -3.8870   24.1070  -30.2500 C   0  0  0  0  0  0  0  0  0  0  0  0
   -3.9420   22.6240  -30.6720 C   0  0  0  0  0  0  0  0  0  0  0  0
   -4.4670   22.4390  -32.0310 N   0  0  0  0  0  0  0  0  0  0  0  0
   -5.1480   21.2450  -32.4520 C   0  0  0  0  0  0  0  0  0  0  0  0
   -6.5420   21.1630  -32.2630 C   0  0  0  0  0  0  0  0  0  0  0  0
   -7.2790   22.2850  -31.8250 C   0  0  0  0  0  0  0  0  0  0  0  0
   -8.6480   22.1940  -31.5900 C   0  0  0  0  0  0  0  0  0  0  0  0
   -9.3050   20.9840  -31.7760 C   0  0  0  0  0  0  0  0  0  0  0  0
   -8.6020   19.8670  -32.2230 C   0  0  0  0  0  0  0  0  0  0  0  0
   -7.2140   19.9390  -32.5090 C   0  0  0  0  0  0  0  0  0  0  0  0
   -6.5130   18.8490  -32.9800 N   0  0  0  0  0  0  0  0  0  0  0  0
   -7.2450   17.6590  -33.4690 C   0  0  0  0  0  0  0  0  0  0  0  0
   -5.1320   18.8770  -33.0310 C   0  0  0  0  0  0  0  0  0  0  0  0
   -4.3900   17.6840  -33.1680 C   0  0  0  0  0  0  0  0  0  0  0  0
   -3.0090   17.7050  -33.2730 C   0  0  0  0  0  0  0  0  0  0  0  0
   -2.3290   18.9110  -33.3130 C   0  0  0  0  0  0  0  0  0  0  0  0
   -3.0140   20.1420  -33.2080 C   0  0  0  0  0  0  0  0  0  0  0  0
   -2.3050   21.4060  -33.3750 N   0  0  0  0  0  0  0  0  0  0  0  0
   -0.8290   21.3380  -33.5090 C   0  0  0  0  0  0  0  0  0  0  0  0
   -0.1080   21.2560  -32.1430 C   0  0  0  0  0  0  0  0  0  0  0  0
   -1.0410   21.4230  -31.0040 N   0  0  0  0  0  0  0  0  0  0  0  0
   -1.2790   20.1400  -30.2980 C   0  0  0  0  0  0  0  0  0  0  0  0
   -0.4570   20.0410  -29.0000 C   0  0  0  0  0  0  0  0  0  0  0  0
   -0.7330   21.0770  -28.0670 O   0  0  0  0  0  0  0  0  0  0  0  0
   -1.1700   22.2880  -28.6710 C   0  0  0  0  0  0  0  0  0  0  0  0
   -0.6100   22.5030  -30.0860 C   0  0  0  0  0  0  0  0  0  0  0  0
   -4.4230   20.1100  -32.9050 C   0  0  0  0  0  0  0  0  0  0  0  0
   -6.4671   24.8653  -28.7258 H   0  0  0  0  0  0  0  0  0  0  0  0
   -7.6466   24.9050  -30.0799 H   0  0  0  0  0  0  0  0  0  0  0  0
   -6.3196   23.6943  -30.0799 H   0  0  0  0  0  0  0  0  0  0  0  0
   -6.2936   26.2208  -31.3290 H   0  0  0  0  0  0  0  0  0  0  0  0
   -5.2935   26.4371  -29.8478 H   0  0  0  0  0  0  0  0  0  0  0  0
   -3.9180   25.6770  -31.6050 H   0  0  0  0  0  0  0  0  0  0  0  0
   -2.8341   24.4203  -30.1939 H   0  0  0  0  0  0  0  0  0  0  0  0
   -4.3851   24.1985  -29.2735 H   0  0  0  0  0  0  0  0  0  0  0  0
   -2.9246   22.2081  -30.6284 H   0  0  0  0  0  0  0  0  0  0  0  0
   -4.6235   22.1074  -29.9801 H   0  0  0  0  0  0  0  0  0  0  0  0
   -4.6610   23.3080  -32.5760 H   0  0  0  0  0  0  0  0  0  0  0  0
   -6.7642   23.2442  -31.6673 H   0  0  0  0  0  0  0  0  0  0  0  0
   -9.2093   23.0795  -31.2572 H   0  0  0  0  0  0  0  0  0  0  0  0
  -10.3828   20.9076  -31.5699 H   0  0  0  0  0  0  0  0  0  0  0  0
   -9.1324   18.9126  -32.3565 H   0  0  0  0  0  0  0  0  0  0  0  0
   -7.6058   17.0724  -32.6113 H   0  0  0  0  0  0  0  0  0  0  0  0
   -8.1016   17.9807  -34.0796 H   0  0  0  0  0  0  0  0  0  0  0  0
   -6.5716   17.0396  -34.0796 H   0  0  0  0  0  0  0  0  0  0  0  0
   -4.9184   16.7195  -33.1918 H   0  0  0  0  0  0  0  0  0  0  0  0
   -2.4496   16.7593  -33.3249 H   0  0  0  0  0  0  0  0  0  0  0  0
   -1.2351   18.9102  -33.4287 H   0  0  0  0  0  0  0  0  0  0  0  0
   -2.5570   22.0390  -32.5840 H   0  0  0  0  0  0  0  0  0  0  0  0
   -2.6400   21.8360  -34.2670 H   0  0  0  0  0  0  0  0  0  0  0  0
   -0.5700   20.4456  -34.0976 H   0  0  0  0  0  0  0  0  0  0  0  0
   -0.4977   22.2627  -34.0042 H   0  0  0  0  0  0  0  0  0  0  0  0
    0.3805   20.2740  -32.0592 H   0  0  0  0  0  0  0  0  0  0  0  0
    0.6257   22.0745  -32.1000 H   0  0  0  0  0  0  0  0  0  0  0  0
   -2.3478   20.0633  -30.0494 H   0  0  0  0  0  0  0  0  0  0  0  0
   -0.9681   19.3208  -30.9631 H   0  0  0  0  0  0  0  0  0  0  0  0
   -0.6784   19.0754  -28.5219 H   0  0  0  0  0  0  0  0  0  0  0  0
    0.6017   20.1374  -29.2826 H   0  0  0  0  0  0  0  0  0  0  0  0
   -2.2683   22.2714  -28.7298 H   0  0  0  0  0  0  0  0  0  0  0  0
   -0.7986   23.1139  -28.0466 H   0  0  0  0  0  0  0  0  0  0  0  0
   -0.9718   23.4674  -30.4721 H   0  0  0  0  0  0  0  0  0  0  0  0
    0.4886   22.4942  -30.0303 H   0  0  0  0  0  0  0  0  0  0  0  0
  1  2  1  0
  2  3  1  0
  3  4  1  0
  4  5  1  0
  5  6  1  0
  6  7  1  0
  7  8  2  0
  8  9  1  0
  9 10  2  0
 10 11  1  0
 11 12  2  0
 12 13  1  0
 13 14  2  0
 14 15  1  0
 14 16  1  0
 16 17  2  0
 17 18  1  0
 18 19  2  0
 19 20  1  0
 20 21  1  0
 21 22  1  0
 22 23  1  0
 23 24  1  0
 24 25  1  0
 25 26  1  0
 26 27  1  0
 27 28  1  0
 28 29  1  0
 20 30  2  0
 30  7  1  0
 13  8  1  0
 30 16  1  0
 29 24  1  0
  1 31  1  0
  1 32  1  0
  1 33  1  0
  2 34  1  0
  2 35  1  0
  3 36  1  0
  4 37  1  0
  4 38  1  0
  5 39  1  0
  5 40  1  0
  6 41  1  0
  9 42  1  0
 10 43  1  0
 11 44  1  0
 12 45  1  0
 15 46  1  0
 15 47  1  0
 15 48  1  0
 17 49  1  0
 18 50  1  0
 19 51  1  0
 21 52  1  0
 21 53  1  0
 22 54  1  0
 22 55  1  0
 23 56  1  0
 23 57  1  0
 25 58  1  0
 25 59  1  0
 26 60  1  0
 26 61  1  0
 28 62  1  0
 28 63  1  0
 29 64  1  0
 29 65  1  0
M  CHG  2  14   1  21   1
M  END
>  <UniqueID>  (9) 
9

>  <SMILES>  (9) 
CCNCCNc1c2ccccc2[n+](C)c2cccc([NH2+]CCN3CCOCC3)c12

>  <Energy>  (9) 
121.22400543314508

>  <Genealogy>  (9) 
CCNCCNc1c2ccccc2[n+](C)c2cccc([NH2+]CCN3CCOCC3)c12 (protonated)
CCNCCNc1c2ccccc2[n+](C)c2cccc([NH2+]CCN3CCOCC3)c12 (3D coordinates assigned)
CCNCCNc1c2ccccc2[n+](C)c2cccc([NH2+]CCN3CCOCC3)c12 (nonaromatic ring conformer: 121.22400543314508 kcal/mol)

>  <smiles>  (9) 
CCNCCNc1c2ccccc2[n+](C)c2cccc(NCCN3CCOCC3)c12

>  <score_type>  (9) 
oracle

>  <origin>  (9) 
adg

>  <m_score__min__energy>  (9) 
-8.5700000000000003

>  <m_primary>  (9) 
energy

$$$$
9:0
     RDKit          3D

 76 79  0  0  0  0  0  0  0  0999 V2000
   -5.9930   15.3320  -34.1110 C   0  0  0  0  0  0  0  0  0  0  0  0
   -5.2530   16.0450  -32.9670 C   0  0  0  0  0  0  0  0  0  0  0  0
   -5.8160   17.3640  -32.5970 N   0  0  0  0  0  0  0  0  0  0  0  0
   -6.1680   17.4650  -31.1720 C   0  0  0  0  0  0  0  0  0  0  0  0
   -6.9170   17.8030  -33.4840 C   0  0  0  0  0  0  0  0  0  0  0  0
   -8.1940   18.0500  -32.6760 C   0  0  0  0  0  0  0  0  0  0  0  0
   -8.5510   19.4340  -32.6970 O   0  0  0  0  0  0  0  0  0  0  0  0
   -7.9350   20.4700  -31.9740 C   0  0  0  0  0  0  0  0  0  0  0  0
   -8.7320   21.2360  -31.1330 C   0  0  0  0  0  0  0  0  0  0  0  0
   -8.1910   22.2930  -30.4110 C   0  0  0  0  0  0  0  0  0  0  0  0
   -6.8270   22.6290  -30.5180 C   0  0  0  0  0  0  0  0  0  0  0  0
   -5.9770   21.8300  -31.3410 C   0  0  0  0  0  0  0  0  0  0  0  0
   -6.5650   20.7690  -32.0720 C   0  0  0  0  0  0  0  0  0  0  0  0
   -4.4930   22.0270  -31.5040 C   0  0  0  0  0  0  0  0  0  0  0  0
   -3.9120   21.4100  -32.4410 O   0  0  0  0  0  0  0  0  0  0  0  0
   -3.6210   22.8490  -30.6220 C   0  0  0  0  0  0  0  0  0  0  0  0
   -2.3490   22.3520  -30.2900 C   0  0  0  0  0  0  0  0  0  0  0  0
   -1.4450   23.1230  -29.5560 C   0  0  0  0  0  0  0  0  0  0  0  0
   -1.7820   24.4260  -29.1640 C   0  0  0  0  0  0  0  0  0  0  0  0
   -0.8630   25.2480  -28.4210 N   0  0  0  0  0  0  0  0  0  0  0  0
   -0.8170   25.3140  -26.9820 C   0  0  0  0  0  0  0  0  0  0  0  0
   -1.3450   26.4360  -26.3160 C   0  0  0  0  0  0  0  0  0  0  0  0
   -1.3640   26.4920  -24.9220 C   0  0  0  0  0  0  0  0  0  0  0  0
   -0.8750   25.4230  -24.1730 C   0  0  0  0  0  0  0  0  0  0  0  0
   -0.3730   24.2900  -24.8150 C   0  0  0  0  0  0  0  0  0  0  0  0
   -0.3420   24.2170  -26.2210 C   0  0  0  0  0  0  0  0  0  0  0  0
    0.2170   23.0050  -26.8660 C   0  0  0  0  0  0  0  0  0  0  0  0
    1.3720   23.0430  -27.3710 O   0  0  0  0  0  0  0  0  0  0  0  0
   -0.5430   21.7880  -26.9130 N   0  0  0  0  0  0  0  0  0  0  0  0
    0.0050   20.5690  -27.5130 C   0  0  0  0  0  0  0  0  0  0  0  0
   -0.9430   19.3760  -27.3260 C   0  0  0  0  0  0  0  0  0  0  0  0
   -2.2270   19.7940  -26.7200 N   0  0  0  0  0  0  0  0  0  0  0  0
   -3.1070   20.4260  -27.7200 C   0  0  0  0  0  0  0  0  0  0  0  0
   -2.9130   18.6280  -26.1360 C   0  0  0  0  0  0  0  0  0  0  0  0
   -3.0590   24.9170  -29.4640 C   0  0  0  0  0  0  0  0  0  0  0  0
   -3.9760   24.1440  -30.1990 C   0  0  0  0  0  0  0  0  0  0  0  0
   -5.3490   24.6800  -30.4590 C   0  0  0  0  0  0  0  0  0  0  0  0
   -6.3640   23.8200  -29.7130 C   0  0  0  0  0  0  0  0  0  0  0  0
   -6.7250   14.6267  -33.6907 H   0  0  0  0  0  0  0  0  0  0  0  0
   -6.5148   16.0764  -34.7303 H   0  0  0  0  0  0  0  0  0  0  0  0
   -5.2685   14.7829  -34.7303 H   0  0  0  0  0  0  0  0  0  0  0  0
   -5.2868   15.3962  -32.0794 H   0  0  0  0  0  0  0  0  0  0  0  0
   -4.2301   16.2319  -33.3257 H   0  0  0  0  0  0  0  0  0  0  0  0
   -5.2902   17.2131  -30.5587 H   0  0  0  0  0  0  0  0  0  0  0  0
   -6.4908   18.4920  -30.9459 H   0  0  0  0  0  0  0  0  0  0  0  0
   -6.9862   16.7654  -30.9459 H   0  0  0  0  0  0  0  0  0  0  0  0
   -6.6238   18.7344  -33.9904 H   0  0  0  0  0  0  0  0  0  0  0  0
   -7.1127   17.0130  -34.2240 H   0  0  0  0  0  0  0  0  0  0  0  0
   -9.0146   17.4597  -33.1099 H   0  0  0  0  0  0  0  0  0  0  0  0
   -8.0140   17.7492  -31.6334 H   0  0  0  0  0  0  0  0  0  0  0  0
   -9.8029   21.0035  -31.0374 H   0  0  0  0  0  0  0  0  0  0  0  0
   -8.8401   22.8785  -29.7433 H   0  0  0  0  0  0  0  0  0  0  0  0
   -5.9316   20.1617  -32.7353 H   0  0  0  0  0  0  0  0  0  0  0  0
   -2.0612   21.3407  -30.6131 H   0  0  0  0  0  0  0  0  0  0  0  0
   -0.4641   22.7059  -29.2842 H   0  0  0  0  0  0  0  0  0  0  0  0
   -0.1390   25.7750  -28.9570 H   0  0  0  0  0  0  0  0  0  0  0  0
   -1.7466   27.2770  -26.9003 H   0  0  0  0  0  0  0  0  0  0  0  0
   -1.7654   27.3809  -24.4134 H   0  0  0  0  0  0  0  0  0  0  0  0
   -0.8848   25.4724  -23.0742 H   0  0  0  0  0  0  0  0  0  0  0  0
    0.0019   23.4462  -24.2172 H   0  0  0  0  0  0  0  0  0  0  0  0
   -1.5240   21.7920  -26.5510 H   0  0  0  0  0  0  0  0  0  0  0  0
    0.1592   20.7381  -28.5889 H   0  0  0  0  0  0  0  0  0  0  0  0
    0.9569   20.3357  -27.0135 H   0  0  0  0  0  0  0  0  0  0  0  0
   -1.1423   18.9204  -28.3072 H   0  0  0  0  0  0  0  0  0  0  0  0
   -0.4608   18.6543  -26.6502 H   0  0  0  0  0  0  0  0  0  0  0  0
   -3.8972   20.9935  -27.2066 H   0  0  0  0  0  0  0  0  0  0  0  0
   -2.5163   21.1075  -28.3497 H   0  0  0  0  0  0  0  0  0  0  0  0
   -3.5641   19.6485  -28.3497 H   0  0  0  0  0  0  0  0  0  0  0  0
   -2.8753   18.6921  -25.0385 H   0  0  0  0  0  0  0  0  0  0  0  0
   -3.9620   18.6162  -26.4668 H   0  0  0  0  0  0  0  0  0  0  0  0
   -2.4138   17.7053  -26.4668 H   0  0  0  0  0  0  0  0  0  0  0  0
   -3.3488   25.9209  -29.1201 H   0  0  0  0  0  0  0  0  0  0  0  0
   -5.4133   25.7191  -30.1037 H   0  0  0  0  0  0  0  0  0  0  0  0
   -5.5608   24.6552  -31.5381 H   0  0  0  0  0  0  0  0  0  0  0  0
   -5.9013   23.4572  -28.7833 H   0  0  0  0  0  0  0  0  0  0  0  0
   -7.2454   24.4470  -29.5129 H   0  0  0  0  0  0  0  0  0  0  0  0
  1  2  1  0
  2  3  1  0
  3  4  1  0
  3  5  1  0
  5  6  1  0
  6  7  1  0
  7  8  1  0
  8  9  2  0
  9 10  1  0
 10 11  2  0
 11 12  1  0
 12 13  2  0
 12 14  1  0
 14 15  2  0
 14 16  1  0
 16 17  2  0
 17 18  1  0
 18 19  2  0
 19 20  1  0
 20 21  1  0
 21 22  2  0
 22 23  1  0
 23 24  2  0
 24 25  1  0
 25 26  2  0
 26 27  1  0
 27 28  2  0
 27 29  1  0
 29 30  1  0
 30 31  1  0
 31 32  1  0
 32 33  1  0
 32 34  1  0
 19 35  1  0
 35 36  2  0
 36 37  1  0
 37 38  1  0
 13  8  1  0
 36 16  1  0
 38 11  1  0
 26 21  1  0
  1 39  1  0
  1 40  1  0
  1 41  1  0
  2 42  1  0
  2 43  1  0
  4 44  1  0
  4 45  1  0
  4 46  1  0
  5 47  1  0
  5 48  1  0
  6 49  1  0
  6 50  1  0
  9 51  1  0
 10 52  1  0
 13 53  1  0
 17 54  1  0
 18 55  1  0
 20 56  1  0
 22 57  1  0
 23 58  1  0
 24 59  1  0
 25 60  1  0
 29 61  1  0
 30 62  1  0
 30 63  1  0
 31 64  1  0
 31 65  1  0
 33 66  1  0
 33 67  1  0
 33 68  1  0
 34 69  1  0
 34 70  1  0
 34 71  1  0
 35 72  1  0
 37 73  1  0
 37 74  1  0
 38 75  1  0
 38 76  1  0
M  END
>  <UniqueID>  (10) 
10

>  <SMILES>  (10) 
CCN(C)CCOc1ccc2c(c1)C(=O)c1ccc(Nc3ccccc3C(=O)NCCN(C)C)cc1CC2

>  <Energy>  (10) 
104.83369775584828

>  <Genealogy>  (10) 
CCN(C)CCOc1ccc2c(c1)C(=O)c1ccc(Nc3ccccc3C(=O)NCCN(C)C)cc1CC2 (3D coordinates assigned)
CCN(C)CCOc1ccc2c(c1)C(=O)c1ccc(Nc3ccccc3C(=O)NCCN(C)C)cc1CC2 (nonaromatic ring conformer: 104.83369775584828 kcal/mol)

>  <smiles>  (10) 
CCN(C)CCOc1ccc2c(c1)C(=O)c1ccc(Nc3ccccc3C(=O)NCCN(C)C)cc1CC2

>  <score_type>  (10) 
oracle

>  <origin>  (10) 
adg

>  <m_score__min__energy>  (10) 
-9.1099999999999994

>  <m_primary>  (10) 
energy

$$$$
10:0
     RDKit          3D

 53 55  0  0  0  0  0  0  0  0999 V2000
   -1.1470   20.7390  -31.1260 C   0  0  0  0  0  0  0  0  0  0  0  0
   -1.1710   21.4500  -32.4800 C   0  0  0  0  0  0  0  0  0  0  0  0
   -0.8620   20.5010  -33.6440 C   0  0  0  0  0  0  0  0  0  0  0  0
   -1.9460   19.4820  -33.8340 C   0  0  0  0  0  0  0  0  0  0  0  0
   -1.7870   18.2750  -34.4310 N   0  0  0  0  0  0  0  0  0  0  0  0
   -2.9680   17.6630  -34.5020 N   0  0  0  0  0  0  0  0  0  0  0  0
   -3.1880   16.3550  -35.1100 C   0  0  0  0  0  0  0  0  0  0  0  0
   -3.8920   18.4830  -33.9590 C   0  0  0  0  0  0  0  0  0  0  0  0
   -5.2690   18.3450  -33.8130 C   0  0  0  0  0  0  0  0  0  0  0  0
   -5.8770   17.3100  -34.1900 O   0  0  0  0  0  0  0  0  0  0  0  0
   -5.9530   19.3800  -33.2430 N   0  0  0  0  0  0  0  0  0  0  0  0
   -5.3210   20.5320  -32.8300 C   0  0  0  0  0  0  0  0  0  0  0  0
   -6.0950   21.6410  -32.2070 C   0  0  0  0  0  0  0  0  0  0  0  0
   -5.3980   22.6770  -31.5540 C   0  0  0  0  0  0  0  0  0  0  0  0
   -6.0830   23.7320  -30.9440 C   0  0  0  0  0  0  0  0  0  0  0  0
   -5.1820   24.9880  -30.0980 S   0  0  0  0  0  0  0  0  0  0  0  0
   -5.3340   24.8230  -28.6110 O   0  0  0  0  0  0  0  0  0  0  0  0
   -5.7340   26.3310  -30.4850 O   0  0  0  0  0  0  0  0  0  0  0  0
   -3.4960   24.9210  -30.5240 N   0  0  0  0  0  0  0  0  0  0  0  0
   -2.7480   24.0560  -29.6090 C   0  0  0  0  0  0  0  0  0  0  0  0
   -1.7690   24.8810  -28.7840 C   0  0  0  0  0  0  0  0  0  0  0  0
   -7.4790   23.7600  -30.9750 C   0  0  0  0  0  0  0  0  0  0  0  0
   -8.1880   22.7490  -31.6210 C   0  0  0  0  0  0  0  0  0  0  0  0
   -7.5120   21.6810  -32.2460 C   0  0  0  0  0  0  0  0  0  0  0  0
   -8.2110   20.6670  -32.9260 O   0  0  0  0  0  0  0  0  0  0  0  0
   -9.2070   19.8100  -32.3660 C   0  0  0  0  0  0  0  0  0  0  0  0
   -8.5610   18.6470  -31.6220 C   0  0  0  0  0  0  0  0  0  0  0  0
   -3.9630   20.6510  -32.9820 N   0  0  0  0  0  0  0  0  0  0  0  0
   -3.2850   19.6220  -33.5380 C   0  0  0  0  0  0  0  0  0  0  0  0
   -1.1722   21.4861  -30.3190 H   0  0  0  0  0  0  0  0  0  0  0  0
   -2.0234   20.0795  -31.0426 H   0  0  0  0  0  0  0  0  0  0  0  0
   -0.2281   20.1401  -31.0426 H   0  0  0  0  0  0  0  0  0  0  0  0
   -2.1701   21.8838  -32.6336 H   0  0  0  0  0  0  0  0  0  0  0  0
   -0.3923   22.2268  -32.4648 H   0  0  0  0  0  0  0  0  0  0  0  0
   -0.7617   21.0906  -34.5672 H   0  0  0  0  0  0  0  0  0  0  0  0
    0.0719   19.9679  -33.4122 H   0  0  0  0  0  0  0  0  0  0  0  0
   -0.8900   17.8860  -34.8020 H   0  0  0  0  0  0  0  0  0  0  0  0
   -3.3150   15.6001  -34.3200 H   0  0  0  0  0  0  0  0  0  0  0  0
   -4.0932   16.3884  -35.7342 H   0  0  0  0  0  0  0  0  0  0  0  0
   -2.3217   16.0904  -35.7342 H   0  0  0  0  0  0  0  0  0  0  0  0
   -4.2986   22.6553  -31.5238 H   0  0  0  0  0  0  0  0  0  0  0  0
   -3.4518   23.5465  -28.9344 H   0  0  0  0  0  0  0  0  0  0  0  0
   -2.1857   23.3150  -30.1962 H   0  0  0  0  0  0  0  0  0  0  0  0
   -1.9629   24.7176  -27.7136 H   0  0  0  0  0  0  0  0  0  0  0  0
   -0.7398   24.5738  -29.0213 H   0  0  0  0  0  0  0  0  0  0  0  0
   -1.8973   25.9474  -29.0213 H   0  0  0  0  0  0  0  0  0  0  0  0
   -8.0212   24.5836  -30.4874 H   0  0  0  0  0  0  0  0  0  0  0  0
   -9.2872   22.7846  -31.6436 H   0  0  0  0  0  0  0  0  0  0  0  0
   -9.8272   20.3874  -31.6646 H   0  0  0  0  0  0  0  0  0  0  0  0
   -9.8263   19.4078  -33.1813 H   0  0  0  0  0  0  0  0  0  0  0  0
   -8.6514   18.8098  -30.5379 H   0  0  0  0  0  0  0  0  0  0  0  0
   -9.0679   17.7099  -31.8956 H   0  0  0  0  0  0  0  0  0  0  0  0
   -7.4975   18.5821  -31.8956 H   0  0  0  0  0  0  0  0  0  0  0  0
  1  2  1  0
  2  3  1  0
  3  4  1  0
  4  5  2  0
  5  6  1  0
  6  7  1  0
  6  8  1  0
  8  9  1  0
  9 10  2  0
  9 11  1  0
 11 12  1  0
 12 13  1  0
 13 14  2  0
 14 15  1  0
 15 16  1  0
 16 17  2  0
 16 18  2  0
 16 19  1  0
 19 20  1  0
 20 21  1  0
 15 22  2  0
 22 23  1  0
 23 24  2  0
 24 25  1  0
 25 26  1  0
 26 27  1  0
 12 28  2  0
 28 29  1  0
 29  4  1  0
 29  8  2  0
 24 13  1  0
  1 30  1  0
  1 31  1  0
  1 32  1  0
  2 33  1  0
  2 34  1  0
  3 35  1  0
  3 36  1  0
  5 37  1  0
  7 38  1  0
  7 39  1  0
  7 40  1  0
 14 41  1  0
 20 42  1  0
 20 43  1  0
 21 44  1  0
 21 45  1  0
 21 46  1  0
 22 47  1  0
 23 48  1  0
 26 49  1  0
 26 50  1  0
 27 51  1  0
 27 52  1  0
 27 53  1  0
M  CHG  3   5   1  11  -1  19  -1
M  END
>  <UniqueID>  (11) 
11

>  <SMILES>  (11) 
CCCc1[nH+]n(C)c2c(=O)[n-]c(-c3cc(S(=O)(=O)[N-]CC)ccc3OCC)nc12

>  <Energy>  (11) 
90.41977157989939

>  <Genealogy>  (11) 
CCCc1[nH+]n(C)c2c(=O)[n-]c(-c3cc(S(=O)(=O)[N-]CC)ccc3OCC)nc12 (protonated)
CCCc1[nH+]n(C)c2c(=O)[n-]c(-c3cc(S(=O)(=O)[N-]CC)ccc3OCC)nc12 (3D coordinates assigned)
CCCc1[nH+]n(C)c2c(=O)[n-]c(-c3cc(S(=O)(=O)[N-]CC)ccc3OCC)nc12 (optimized conformer: 90.41977157989939 kcal/mol)

>  <smiles>  (11) 
CCCc1nn(C)c2c(=O)[nH]c(-c3cc(S(=O)(=O)NCC)ccc3OCC)nc12

>  <score_type>  (11) 
oracle

>  <origin>  (11) 
adg

>  <m_score__min__energy>  (11) 
-9.9499999999999993

>  <m_primary>  (11) 
energy

$$$$
11:0
     RDKit          3D

 55 58  0  0  0  0  0  0  0  0999 V2000
   -5.3440   25.7980  -30.4500 C   0  0  0  0  0  0  0  0  0  0  0  0
   -6.4730   25.0210  -29.7640 C   0  0  0  0  0  0  0  0  0  0  0  0
   -7.1170   24.0350  -30.6790 N   0  0  2  0  0  0  0  0  0  0  0  0
   -7.2990   22.7470  -29.9810 C   0  0  0  0  0  0  0  0  0  0  0  0
   -6.3290   23.8080  -31.9210 C   0  0  0  0  0  0  0  0  0  0  0  0
   -5.2540   22.7090  -31.7770 C   0  0  0  0  0  0  0  0  0  0  0  0
   -5.0990   21.9300  -33.0100 N   0  0  0  0  0  0  0  0  0  0  0  0
   -5.3270   20.5090  -33.0490 C   0  0  0  0  0  0  0  0  0  0  0  0
   -4.2880   19.6410  -33.4240 C   0  0  0  0  0  0  0  0  0  0  0  0
   -4.5220   18.2500  -33.4640 C   0  0  0  0  0  0  0  0  0  0  0  0
   -5.6740   17.7320  -32.9100 N   0  0  0  0  0  0  0  0  0  0  0  0
   -5.7270   16.3200  -32.4770 C   0  0  0  0  0  0  0  0  0  0  0  0
   -6.7510   18.5610  -32.6700 C   0  0  0  0  0  0  0  0  0  0  0  0
   -8.0310   18.0400  -32.3510 C   0  0  0  0  0  0  0  0  0  0  0  0
   -9.1200   18.8860  -32.1480 C   0  0  0  0  0  0  0  0  0  0  0  0
   -8.9680   20.2620  -32.2700 C   0  0  0  0  0  0  0  0  0  0  0  0
   -7.7240   20.8050  -32.5830 C   0  0  0  0  0  0  0  0  0  0  0  0
   -6.5990   19.9710  -32.7630 C   0  0  0  0  0  0  0  0  0  0  0  0
   -3.4560   17.4020  -34.0900 C   0  0  0  0  0  0  0  0  0  0  0  0
   -3.7810   16.2410  -34.8160 C   0  0  0  0  0  0  0  0  0  0  0  0
   -2.7700   15.4850  -35.4040 C   0  0  0  0  0  0  0  0  0  0  0  0
   -1.4460   15.9030  -35.3020 C   0  0  0  0  0  0  0  0  0  0  0  0
   -1.1550   17.0980  -34.6460 C   0  0  0  0  0  0  0  0  0  0  0  0
   -2.1560   17.8480  -34.0920 N   0  0  0  0  0  0  0  0  0  0  0  0
   -1.8350   19.1460  -33.4840 C   0  0  0  0  0  0  0  0  0  0  0  0
   -2.9260   20.1680  -33.8240 C   0  0  0  0  0  0  0  0  0  0  0  0
   -4.6915   26.2471  -29.6867 H   0  0  0  0  0  0  0  0  0  0  0  0
   -4.7559   25.1124  -31.0778 H   0  0  0  0  0  0  0  0  0  0  0  0
   -5.7743   26.5922  -31.0778 H   0  0  0  0  0  0  0  0  0  0  0  0
   -6.0577   24.4827  -28.8993 H   0  0  0  0  0  0  0  0  0  0  0  0
   -7.2409   25.7452  -29.4545 H   0  0  0  0  0  0  0  0  0  0  0  0
   -8.0780   24.3570  -30.9490 H   0  0  0  0  0  0  0  0  0  0  0  0
   -7.2756   22.9126  -28.8938 H   0  0  0  0  0  0  0  0  0  0  0  0
   -8.2678   22.3100  -30.2646 H   0  0  0  0  0  0  0  0  0  0  0  0
   -6.4892   22.0587  -30.2646 H   0  0  0  0  0  0  0  0  0  0  0  0
   -7.0214   23.5145  -32.7237 H   0  0  0  0  0  0  0  0  0  0  0  0
   -5.8028   24.7474  -32.1462 H   0  0  0  0  0  0  0  0  0  0  0  0
   -4.2918   23.1827  -31.5324 H   0  0  0  0  0  0  0  0  0  0  0  0
   -5.5729   22.0230  -30.9784 H   0  0  0  0  0  0  0  0  0  0  0  0
   -4.6660   22.3820  -33.8450 H   0  0  0  0  0  0  0  0  0  0  0  0
   -5.7288   16.2733  -31.3780 H   0  0  0  0  0  0  0  0  0  0  0  0
   -6.6434   15.8515  -32.8654 H   0  0  0  0  0  0  0  0  0  0  0  0
   -4.8483   15.7842  -32.8654 H   0  0  0  0  0  0  0  0  0  0  0  0
   -8.1664   16.9520  -32.2625 H   0  0  0  0  0  0  0  0  0  0  0  0
  -10.1024   18.4634  -31.8905 H   0  0  0  0  0  0  0  0  0  0  0  0
   -9.8330   20.9246  -32.1189 H   0  0  0  0  0  0  0  0  0  0  0  0
   -7.6170   21.8944  -32.6910 H   0  0  0  0  0  0  0  0  0  0  0  0
   -4.8315   15.9313  -34.9188 H   0  0  0  0  0  0  0  0  0  0  0  0
   -3.0167   14.5608  -35.9471 H   0  0  0  0  0  0  0  0  0  0  0  0
   -0.6372   15.2960  -35.7349 H   0  0  0  0  0  0  0  0  0  0  0  0
   -0.1123   17.4406  -34.5732 H   0  0  0  0  0  0  0  0  0  0  0  0
   -1.7711   19.0309  -32.3919 H   0  0  0  0  0  0  0  0  0  0  0  0
   -0.8716   19.5013  -33.8785 H   0  0  0  0  0  0  0  0  0  0  0  0
   -2.7266   21.1044  -33.2823 H   0  0  0  0  0  0  0  0  0  0  0  0
   -2.9187   20.3492  -34.9090 H   0  0  0  0  0  0  0  0  0  0  0  0
  1  2  1  0
  2  3  1  0
  3  4  1  0
  3  5  1  0
  5  6  1  0
  6  7  1  0
  7  8  1  0
  8  9  2  0
  9 10  1  0
 10 11  2  0
 11 12  1  0
 11 13  1  0
 13 14  2  0
 14 15  1  0
 15 16  2  0
 16 17  1  0
 17 18  2  0
 10 19  1  0
 19 20  2  0
 20 21  1  0
 21 22  2  0
 22 23  1  0
 23 24  2  0
 24 25  1  0
 25 26  1  0
 18  8  1  0
 24 19  1  0
 26  9  1  0
 18 13  1  0
  1 27  1  0
  1 28  1  0
  1 29  1  0
  2 30  1  0
  2 31  1  0
  3 32  1  6
  4 33  1  0
  4 34  1  0
  4 35  1  0
  5 36  1  0
  5 37  1  0
  6 38  1  0
  6 39  1  0
  7 40  1  0
 12 41  1  0
 12 42  1  0
 12 43  1  0
 14 44  1  0
 15 45  1  0
 16 46  1  0
 17 47  1  0
 20 48  1  0
 21 49  1  0
 22 50  1  0
 23 51  1  0
 25 52  1  0
 25 53  1  0
 26 54  1  0
 26 55  1  0
M  CHG  3   3   1  11   1  24   1
M  END
>  <UniqueID>  (12) 
12

>  <SMILES>  (12) 
CC[N@H+](C)CCNc1c2c([n+](C)c3ccccc13)-c1cccc[n+]1CC2

>  <Energy>  (12) 
92.5653484356962

>  <Genealogy>  (12) 
CC[NH+](C)CCNc1c2c([n+](C)c3ccccc13)-c1cccc[n+]1CC2 (protonated)
CC[N@H+](C)CCNc1c2c([n+](C)c3ccccc13)-c1cccc[n+]1CC2 (chirality)
CC[N@H+](C)CCNc1c2c([n+](C)c3ccccc13)-c1cccc[n+]1CC2 (3D coordinates assigned)
CC[N@H+](C)CCNc1c2c([n+](C)c3ccccc13)-c1cccc[n+]1CC2 (nonaromatic ring conformer: 92.5653484356962 kcal/mol)

>  <smiles>  (12) 
CCN(C)CCNc1c2c([n+](C)c3ccccc13)-c1cccc[n+]1CC2

>  <score_type>  (12) 
oracle

>  <origin>  (12) 
adg

>  <m_score__min__energy>  (12) 
-6.8799999999999999

>  <m_primary>  (12) 
energy

$$$$
12:0
     RDKit          3D

 45 47  0  0  0  0  0  0  0  0999 V2000
  -10.0943   19.5314  -31.2633 H   0  0  0  0  0  0  0  0  0  0  0  0
   -9.0630   19.4450  -31.6360 C   0  0  0  0  0  0  0  0  0  0  0  0
   -8.6660   18.2850  -32.3370 C   0  0  0  0  0  0  0  0  0  0  0  0
   -9.3908   17.4745  -32.5035 H   0  0  0  0  0  0  0  0  0  0  0  0
   -7.3540   18.1560  -32.8240 C   0  0  0  0  0  0  0  0  0  0  0  0
   -7.0377   17.2524  -33.3656 H   0  0  0  0  0  0  0  0  0  0  0  0
   -6.4620   19.2100  -32.6000 C   0  0  0  0  0  0  0  0  0  0  0  0
   -6.8570   20.3390  -31.9090 C   0  0  0  0  0  0  0  0  0  0  0  0
   -8.1500   20.4900  -31.4110 C   0  0  0  0  0  0  0  0  0  0  0  0
   -8.4458   21.3955  -30.8610 H   0  0  0  0  0  0  0  0  0  0  0  0
   -5.7510   21.1520  -31.8290 C   0  0  0  0  0  0  0  0  0  0  0  0
   -5.5640   22.3960  -31.2300 C   0  0  0  0  0  0  0  0  0  0  0  0
   -6.3964   22.9173  -30.7347 H   0  0  0  0  0  0  0  0  0  0  0  0
   -4.2720   22.9680  -31.2780 C   0  0  0  0  0  0  0  0  0  0  0  0
   -4.0190   24.2620  -30.7070 N   0  0  0  0  0  0  0  0  0  0  0  0
   -3.4890   24.9250  -31.3120 H   0  0  0  0  0  0  0  0  0  0  0  0
   -4.4200   24.6400  -29.5180 C   0  0  0  0  0  0  0  0  0  0  0  0
   -5.6010   25.4410  -29.3470 N   0  0  0  0  0  0  0  0  0  0  0  0
   -5.5970   26.1480  -28.5780 H   0  0  0  0  0  0  0  0  0  0  0  0
   -6.9010   25.0030  -29.8470 C   0  0  0  0  0  0  0  0  0  0  0  0
   -7.5640   24.7796  -28.9982 H   0  0  0  0  0  0  0  0  0  0  0  0
   -7.3460   25.8008  -30.4598 H   0  0  0  0  0  0  0  0  0  0  0  0
   -6.7724   24.0986  -30.4598 H   0  0  0  0  0  0  0  0  0  0  0  0
   -3.7160   24.2200  -28.3310 N   0  0  0  0  0  0  0  0  0  0  0  0
   -4.1820   24.3840  -27.4100 H   0  0  0  0  0  0  0  0  0  0  0  0
   -2.3720   23.6410  -28.3110 C   0  0  0  0  0  0  0  0  0  0  0  0
   -1.8410   23.9937  -27.4145 H   0  0  0  0  0  0  0  0  0  0  0  0
   -1.8399   23.9556  -29.2209 H   0  0  0  0  0  0  0  0  0  0  0  0
   -2.4370   22.1160  -28.2860 C   0  0  0  0  0  0  0  0  0  0  0  0
   -2.4519   21.7667  -27.2430 H   0  0  0  0  0  0  0  0  0  0  0  0
   -3.3503   21.7795  -28.7985 H   0  0  0  0  0  0  0  0  0  0  0  0
   -1.5556   21.7030  -28.7985 H   0  0  0  0  0  0  0  0  0  0  0  0
   -3.2300   22.2950  -31.9590 C   0  0  0  0  0  0  0  0  0  0  0  0
   -2.2353   22.7602  -32.0244 H   0  0  0  0  0  0  0  0  0  0  0  0
   -3.4490   21.0400  -32.5530 C   0  0  0  0  0  0  0  0  0  0  0  0
   -2.6340   20.5080  -33.0656 H   0  0  0  0  0  0  0  0  0  0  0  0
   -4.7300   20.4860  -32.4750 C   0  0  0  0  0  0  0  0  0  0  0  0
   -5.1570   19.2960  -32.9690 N   0  0  0  0  0  0  0  0  0  0  0  0
   -4.3590   18.2780  -33.6580 C   0  0  0  0  0  0  0  0  0  0  0  0
   -3.3600   18.6848  -33.8738 H   0  0  0  0  0  0  0  0  0  0  0  0
   -4.2737   17.3922  -33.0114 H   0  0  0  0  0  0  0  0  0  0  0  0
   -5.0300   17.8750  -34.9640 C   0  0  0  0  0  0  0  0  0  0  0  0
   -5.9542   17.3199  -34.7454 H   0  0  0  0  0  0  0  0  0  0  0  0
   -5.2727   18.7769  -35.5451 H   0  0  0  0  0  0  0  0  0  0  0  0
   -4.3479   17.2370  -35.5451 H   0  0  0  0  0  0  0  0  0  0  0  0
  1  2  1  0
  2  3  2  0
  3  4  1  0
  3  5  1  0
  5  6  1  0
  5  7  2  0
  7  8  1  0
  8  9  2  0
  9 10  1  0
  8 11  1  0
 11 12  2  0
 12 13  1  0
 12 14  1  0
 14 15  1  0
 15 16  1  0
 15 17  2  0
 17 18  1  0
 18 19  1  0
 18 20  1  0
 20 21  1  0
 20 22  1  0
 20 23  1  0
 17 24  1  0
 24 25  1  0
 24 26  1  0
 26 27  1  0
 26 28  1  0
 26 29  1  0
 29 30  1  0
 29 31  1  0
 29 32  1  0
 14 33  2  0
 33 34  1  0
 33 35  1  0
 35 36  1  0
 35 37  2  0
 37 38  1  0
 38 39  1  0
 39 40  1  0
 39 41  1  0
 39 42  1  0
 42 43  1  0
 42 44  1  0
 42 45  1  0
  9  2  1  0
 37 11  1  0
 38  7  1  0
M  CHG  1  15   1
M  END
>  <UniqueID>  (13) 
13

>  <SMILES>  (13) 
CCN/C(NC)=[NH+]/c1ccc2c(c1)c1ccccc1n2CC

>  <Energy>  (13) 
90.35200636147928

>  <Genealogy>  (13) 
CCNC(NC)=[NH+]c1ccc2c(c1)c1ccccc1n2CC (protonated)
CCN/C(NC)=[NH+]/c1ccc2c(c1)c1ccccc1n2CC (cis-trans isomerization)
CCN/C(NC)=[NH+]/c1ccc2c(c1)c1ccccc1n2CC (3D coordinates assigned)
CCN/C(NC)=[NH+]/c1ccc2c(c1)c1ccccc1n2CC (optimized conformer: 90.35200636147928 kcal/mol)

>  <smiles>  (13) 
CCNC(=Nc1ccc2c(c1)c1ccccc1n2CC)NC

>  <score_type>  (13) 
oracle

>  <origin>  (13) 
adg

>  <m_score__min__energy>  (13) 
-7.3799999999999999

>  <m_primary>  (13) 
energy

$$$$
13:0
     RDKit          3D

 40 42  0  0  0  0  0  0  0  0999 V2000
   -5.2480   19.6680  -33.2740 C   0  0  0  0  0  0  0  0  0  0  0  0
   -4.3160   19.9420  -32.1000 C   0  0  0  0  0  0  0  0  0  0  0  0
   -3.5930   21.2060  -32.2960 N   0  0  0  0  0  0  0  0  0  0  0  0
   -2.4500   21.2890  -33.2120 C   0  0  0  0  0  0  0  0  0  0  0  0
   -1.1520   20.9460  -32.4880 C   0  0  0  0  0  0  0  0  0  0  0  0
   -4.1500   22.4180  -31.7650 C   0  0  0  0  0  0  0  0  0  0  0  0
   -5.4220   22.8680  -32.1700 C   0  0  0  0  0  0  0  0  0  0  0  0
   -5.9620   24.0590  -31.6370 C   0  0  0  0  0  0  0  0  0  0  0  0
   -5.2320   24.8220  -30.6990 C   0  0  0  0  0  0  0  0  0  0  0  0
   -5.8050   26.0690  -30.0940 C   0  0  0  0  0  0  0  0  0  0  0  0
   -3.9790   24.3350  -30.3110 C   0  0  0  0  0  0  0  0  0  0  0  0
   -3.1240   24.8710  -29.4280 N   0  0  0  0  0  0  0  0  0  0  0  0
   -2.0860   23.9930  -29.4450 C   0  0  0  0  0  0  0  0  0  0  0  0
   -0.8770   24.1550  -28.6200 C   0  0  0  0  0  0  0  0  0  0  0  0
   -0.1070   23.0460  -28.2320 C   0  0  0  0  0  0  0  0  0  0  0  0
    1.0330   23.2440  -27.4500 C   0  0  0  0  0  0  0  0  0  0  0  0
    1.3960   24.5340  -27.0630 C   0  0  0  0  0  0  0  0  0  0  0  0
    0.6100   25.6140  -27.4660 C   0  0  0  0  0  0  0  0  0  0  0  0
   -0.4980   25.4030  -28.2270 N   0  0  0  0  0  0  0  0  0  0  0  0
   -2.2540   22.9430  -30.2900 N   0  0  0  0  0  0  0  0  0  0  0  0
   -3.4600   23.1860  -30.8250 C   0  0  0  0  0  0  0  0  0  0  0  0
   -6.2388   19.3767  -32.8953 H   0  0  0  0  0  0  0  0  0  0  0  0
   -5.3423   20.5764  -33.8871 H   0  0  0  0  0  0  0  0  0  0  0  0
   -4.8357   18.8531  -33.8871 H   0  0  0  0  0  0  0  0  0  0  0  0
   -4.9085   20.0044  -31.1753 H   0  0  0  0  0  0  0  0  0  0  0  0
   -3.5849   19.1231  -32.0298 H   0  0  0  0  0  0  0  0  0  0  0  0
   -2.5992   20.5809  -34.0405 H   0  0  0  0  0  0  0  0  0  0  0  0
   -2.3791   22.3172  -33.5964 H   0  0  0  0  0  0  0  0  0  0  0  0
   -1.3159   20.9893  -31.4011 H   0  0  0  0  0  0  0  0  0  0  0  0
   -0.8315   19.9323  -32.7704 H   0  0  0  0  0  0  0  0  0  0  0  0
   -0.3726   21.6690  -32.7704 H   0  0  0  0  0  0  0  0  0  0  0  0
   -5.9982   22.2881  -32.9060 H   0  0  0  0  0  0  0  0  0  0  0  0
   -6.9598   24.3954  -31.9551 H   0  0  0  0  0  0  0  0  0  0  0  0
   -5.7704   25.9937  -28.9971 H   0  0  0  0  0  0  0  0  0  0  0  0
   -5.2163   26.9389  -30.4206 H   0  0  0  0  0  0  0  0  0  0  0  0
   -6.8485   26.1889  -30.4206 H   0  0  0  0  0  0  0  0  0  0  0  0
   -0.3991   22.0315  -28.5411 H   0  0  0  0  0  0  0  0  0  0  0  0
    1.6440   22.3836  -27.1396 H   0  0  0  0  0  0  0  0  0  0  0  0
    2.2923   24.6980  -26.4467 H   0  0  0  0  0  0  0  0  0  0  0  0
    0.8861   26.6363  -27.1684 H   0  0  0  0  0  0  0  0  0  0  0  0
  1  2  1  0
  2  3  1  0
  3  4  1  0
  4  5  1  0
  3  6  1  0
  6  7  2  0
  7  8  1  0
  8  9  2  0
  9 10  1  0
  9 11  1  0
 11 12  1  0
 12 13  2  0
 13 14  1  0
 14 15  2  0
 15 16  1  0
 16 17  2  0
 17 18  1  0
 18 19  2  0
 13 20  1  0
 20 21  1  0
 21  6  1  0
 21 11  2  0
 19 14  1  0
  1 22  1  0
  1 23  1  0
  1 24  1  0
  2 25  1  0
  2 26  1  0
  4 27  1  0
  4 28  1  0
  5 29  1  0
  5 30  1  0
  5 31  1  0
  7 32  1  0
  8 33  1  0
 10 34  1  0
 10 35  1  0
 10 36  1  0
 15 37  1  0
 16 38  1  0
 17 39  1  0
 18 40  1  0
M  CHG  1  20  -1
M  END
>  <UniqueID>  (14) 
14

>  <SMILES>  (14) 
CCN(CC)c1ccc(C)c2nc(-c3ccccn3)[n-]c12

>  <Energy>  (14) 
74.32377833007803

>  <Genealogy>  (14) 
CCN(CC)c1ccc(C)c2nc(-c3ccccn3)[n-]c12 (protonated)
CCN(CC)c1ccc(C)c2nc(-c3ccccn3)[n-]c12 (3D coordinates assigned)
CCN(CC)c1ccc(C)c2nc(-c3ccccn3)[n-]c12 (optimized conformer: 74.32377833007803 kcal/mol)

>  <smiles>  (14) 
CCN(CC)c1ccc(C)c2nc(-c3ccccn3)[nH]c12

>  <score_type>  (14) 
oracle

>  <origin>  (14) 
adg

>  <m_score__min__energy>  (14) 
-7.7800000000000002

>  <m_primary>  (14) 
energy

$$$$
14:0
     RDKit          3D

 61 63  0  0  0  0  0  0  0  0999 V2000
   -0.3630   21.1960  -34.4180 C   0  0  0  0  0  0  0  0  0  0  0  0
   -0.2590   20.5430  -33.0350 C   0  0  0  0  0  0  0  0  0  0  0  0
   -1.4420   20.8010  -32.1720 N   0  0  0  0  0  0  0  0  0  0  0  0
   -1.1230   21.5840  -30.9420 C   0  0  0  0  0  0  0  0  0  0  0  0
   -1.6070   20.9650  -29.6160 C   0  0  0  0  0  0  0  0  0  0  0  0
   -2.6370   21.3150  -32.8970 C   0  0  0  0  0  0  0  0  0  0  0  0
   -3.7600   20.2870  -33.1080 C   0  0  0  0  0  0  0  0  0  0  0  0
   -4.5210   20.1130  -31.8730 N   0  0  0  0  0  0  0  0  0  0  0  0
   -5.7370   20.8440  -31.6510 C   0  0  0  0  0  0  0  0  0  0  0  0
   -5.6760   22.1490  -31.1250 C   0  0  0  0  0  0  0  0  0  0  0  0
   -4.4660   22.6760  -30.6230 C   0  0  0  0  0  0  0  0  0  0  0  0
   -4.4170   23.9520  -30.0530 C   0  0  0  0  0  0  0  0  0  0  0  0
   -3.1160   24.5050  -29.5510 C   0  0  0  0  0  0  0  0  0  0  0  0
   -5.5780   24.7230  -30.0000 C   0  0  0  0  0  0  0  0  0  0  0  0
   -6.7770   24.2300  -30.5110 C   0  0  0  0  0  0  0  0  0  0  0  0
   -6.8450   22.9500  -31.1170 C   0  0  0  0  0  0  0  0  0  0  0  0
   -8.0060   22.4840  -31.7000 N   0  0  0  0  0  0  0  0  0  0  0  0
   -9.1050   23.4260  -32.0080 C   0  0  0  0  0  0  0  0  0  0  0  0
   -8.1330   21.1430  -32.0130 C   0  0  0  0  0  0  0  0  0  0  0  0
   -9.3920   20.5860  -32.3450 C   0  0  0  0  0  0  0  0  0  0  0  0
   -9.5210   19.2460  -32.6870 C   0  0  0  0  0  0  0  0  0  0  0  0
   -8.4170   18.4110  -32.6640 C   0  0  0  0  0  0  0  0  0  0  0  0
   -7.1570   18.8980  -32.2950 C   0  0  0  0  0  0  0  0  0  0  0  0
   -6.0930   17.9440  -32.1250 N   0  0  0  0  0  0  0  0  0  0  0  0
   -6.1030   17.0960  -30.9340 C   0  0  0  0  0  0  0  0  0  0  0  0
   -5.3580   17.4740  -33.3000 C   0  0  0  0  0  0  0  0  0  0  0  0
   -6.9930   20.2850  -31.9900 C   0  0  0  0  0  0  0  0  0  0  0  0
   -0.5350   22.2762  -34.3015 H   0  0  0  0  0  0  0  0  0  0  0  0
    0.5727   21.0315  -34.9725 H   0  0  0  0  0  0  0  0  0  0  0  0
   -1.2013   20.7489  -34.9725 H   0  0  0  0  0  0  0  0  0  0  0  0
   -0.1551   19.4562  -33.1691 H   0  0  0  0  0  0  0  0  0  0  0  0
    0.6139   20.9840  -32.5314 H   0  0  0  0  0  0  0  0  0  0  0  0
   -1.7400   19.8600  -31.8160 H   0  0  0  0  0  0  0  0  0  0  0  0
   -0.0301   21.6949  -30.8850 H   0  0  0  0  0  0  0  0  0  0  0  0
   -1.6613   22.5379  -31.0437 H   0  0  0  0  0  0  0  0  0  0  0  0
   -1.1726   21.5206  -28.7719 H   0  0  0  0  0  0  0  0  0  0  0  0
   -2.7045   21.0195  -29.5649 H   0  0  0  0  0  0  0  0  0  0  0  0
   -1.2894   19.9131  -29.5649 H   0  0  0  0  0  0  0  0  0  0  0  0
   -3.0490   22.1574  -32.3219 H   0  0  0  0  0  0  0  0  0  0  0  0
   -2.2887   21.6005  -33.9006 H   0  0  0  0  0  0  0  0  0  0  0  0
   -4.4328   20.6413  -33.9029 H   0  0  0  0  0  0  0  0  0  0  0  0
   -3.3156   19.3227  -33.3955 H   0  0  0  0  0  0  0  0  0  0  0  0
   -4.0470   19.6550  -31.0610 H   0  0  0  0  0  0  0  0  0  0  0  0
   -3.5476   22.0734  -30.6812 H   0  0  0  0  0  0  0  0  0  0  0  0
   -3.1174   24.5044  -28.4510 H   0  0  0  0  0  0  0  0  0  0  0  0
   -2.2870   23.8815  -29.9170 H   0  0  0  0  0  0  0  0  0  0  0  0
   -2.9897   25.5346  -29.9170 H   0  0  0  0  0  0  0  0  0  0  0  0
   -5.5470   25.7271  -29.5518 H   0  0  0  0  0  0  0  0  0  0  0  0
   -7.6867   24.8447  -30.4430 H   0  0  0  0  0  0  0  0  0  0  0  0
   -9.5412   23.7999  -31.0699 H   0  0  0  0  0  0  0  0  0  0  0  0
   -8.7109   24.2711  -32.5915 H   0  0  0  0  0  0  0  0  0  0  0  0
   -9.8799   22.9072  -32.5915 H   0  0  0  0  0  0  0  0  0  0  0  0
  -10.2856   21.2274  -32.3318 H   0  0  0  0  0  0  0  0  0  0  0  0
  -10.5040   18.8467  -32.9772 H   0  0  0  0  0  0  0  0  0  0  0  0
   -8.5310   17.3520  -32.9390 H   0  0  0  0  0  0  0  0  0  0  0  0
   -6.0955   17.7281  -30.0338 H   0  0  0  0  0  0  0  0  0  0  0  0
   -7.0086   16.4716  -30.9361 H   0  0  0  0  0  0  0  0  0  0  0  0
   -5.2124   16.4504  -30.9361 H   0  0  0  0  0  0  0  0  0  0  0  0
   -4.4723   16.9077  -32.9761 H   0  0  0  0  0  0  0  0  0  0  0  0
   -6.0085   16.8239  -33.9035 H   0  0  0  0  0  0  0  0  0  0  0  0
   -5.0407   18.3372  -33.9035 H   0  0  0  0  0  0  0  0  0  0  0  0
  1  2  1  0
  2  3  1  0
  3  4  1  0
  4  5  1  0
  3  6  1  0
  6  7  1  0
  7  8  1  0
  8  9  1  0
  9 10  2  0
 10 11  1  0
 11 12  2  0
 12 13  1  0
 12 14  1  0
 14 15  2  0
 15 16  1  0
 16 17  2  0
 17 18  1  0
 17 19  1  0
 19 20  2  0
 20 21  1  0
 21 22  2  0
 22 23  1  0
 23 24  1  0
 24 25  1  0
 24 26  1  0
 23 27  2  0
 27  9  1  0
 16 10  1  0
 27 19  1  0
  1 28  1  0
  1 29  1  0
  1 30  1  0
  2 31  1  0
  2 32  1  0
  3 33  1  0
  4 34  1  0
  4 35  1  0
  5 36  1  0
  5 37  1  0
  5 38  1  0
  6 39  1  0
  6 40  1  0
  7 41  1  0
  7 42  1  0
  8 43  1  0
 11 44  1  0
 13 45  1  0
 13 46  1  0
 13 47  1  0
 14 48  1  0
 15 49  1  0
 18 50  1  0
 18 51  1  0
 18 52  1  0
 20 53  1  0
 21 54  1  0
 22 55  1  0
 25 56  1  0
 25 57  1  0
 25 58  1  0
 26 59  1  0
 26 60  1  0
 26 61  1  0
M  CHG  2   3   1  17   1
M  END
>  <UniqueID>  (15) 
15

>  <SMILES>  (15) 
CC[NH+](CC)CCNc1c2cc(C)ccc2[n+](C)c2cccc(N(C)C)c12

>  <Energy>  (15) 
100.44717726705495

>  <Genealogy>  (15) 
CC[NH+](CC)CCNc1c2cc(C)ccc2[n+](C)c2cccc(N(C)C)c12 (protonated)
CC[NH+](CC)CCNc1c2cc(C)ccc2[n+](C)c2cccc(N(C)C)c12 (3D coordinates assigned)
CC[NH+](CC)CCNc1c2cc(C)ccc2[n+](C)c2cccc(N(C)C)c12 (optimized conformer: 100.44717726705495 kcal/mol)

>  <smiles>  (15) 
CCN(CC)CCNc1c2cc(C)ccc2[n+](C)c2cccc(N(C)C)c12

>  <score_type>  (15) 
oracle

>  <origin>  (15) 
adg

>  <m_score__min__energy>  (15) 
-7.1100000000000003

>  <m_primary>  (15) 
energy

$$$$
15:0
     RDKit          3D

 63 65  0  0  0  0  0  0  0  0999 V2000
   -9.5320   21.9830  -31.7220 C   0  0  0  0  0  0  0  0  0  0  0  0
   -8.5390   21.1220  -30.9530 C   0  0  0  0  0  0  0  0  0  0  0  0
   -7.2200   21.7980  -30.9220 N   0  0  0  0  0  0  0  0  0  0  0  0
   -7.3220   23.2700  -31.0590 C   0  0  0  0  0  0  0  0  0  0  0  0
   -6.5910   23.8290  -32.2900 C   0  0  0  0  0  0  0  0  0  0  0  0
   -6.2310   21.2060  -31.8490 C   0  0  0  0  0  0  0  0  0  0  0  0
   -6.9170   20.6510  -33.0990 C   0  0  0  0  0  0  0  0  0  0  0  0
   -6.6780   19.2610  -33.1770 O   0  0  0  0  0  0  0  0  0  0  0  0
   -6.6380   18.6890  -31.8840 C   0  0  0  0  0  0  0  0  0  0  0  0
   -6.4550   17.1740  -31.9840 C   0  0  0  0  0  0  0  0  0  0  0  0
   -7.1710   16.6640  -33.1600 N   0  0  0  0  0  0  0  0  0  0  0  0
   -6.2770   15.9740  -34.1040 C   0  0  0  0  0  0  0  0  0  0  0  0
   -4.8190   15.9360  -33.6150 C   0  0  0  0  0  0  0  0  0  0  0  0
   -3.9800   16.7070  -34.4760 O   0  0  0  0  0  0  0  0  0  0  0  0
   -3.1580   17.7730  -34.0750 C   0  0  0  0  0  0  0  0  0  0  0  0
   -1.8740   17.9900  -34.6140 C   0  0  0  0  0  0  0  0  0  0  0  0
   -1.0970   19.0680  -34.1800 C   0  0  0  0  0  0  0  0  0  0  0  0
   -1.5920   19.9480  -33.2020 C   0  0  0  0  0  0  0  0  0  0  0  0
   -0.8490   21.0400  -32.7310 C   0  0  0  0  0  0  0  0  0  0  0  0
    0.3100   21.2760  -33.1680 O   0  0  0  0  0  0  0  0  0  0  0  0
   -1.4010   21.8760  -31.7570 C   0  0  0  0  0  0  0  0  0  0  0  0
   -2.6930   21.6090  -31.2710 C   0  0  0  0  0  0  0  0  0  0  0  0
   -3.3330   22.4600  -30.2360 C   0  0  0  0  0  0  0  0  0  0  0  0
   -3.4480   22.0370  -28.8950 C   0  0  0  0  0  0  0  0  0  0  0  0
   -4.0480   22.8660  -27.9410 C   0  0  0  0  0  0  0  0  0  0  0  0
   -4.5320   24.1230  -28.3080 C   0  0  0  0  0  0  0  0  0  0  0  0
   -4.4130   24.5580  -29.6290 C   0  0  0  0  0  0  0  0  0  0  0  0
   -3.8140   23.7350  -30.5870 C   0  0  0  0  0  0  0  0  0  0  0  0
   -3.3640   20.5560  -31.7380 O   0  0  0  0  0  0  0  0  0  0  0  0
   -2.8780   19.7340  -32.6630 C   0  0  0  0  0  0  0  0  0  0  0  0
   -3.6480   18.6520  -33.1020 C   0  0  0  0  0  0  0  0  0  0  0  0
  -10.1668   22.5334  -31.0120 H   0  0  0  0  0  0  0  0  0  0  0  0
   -8.9849   22.6974  -32.3547 H   0  0  0  0  0  0  0  0  0  0  0  0
  -10.1616   21.3402  -32.3547 H   0  0  0  0  0  0  0  0  0  0  0  0
   -8.9003   20.9754  -29.9244 H   0  0  0  0  0  0  0  0  0  0  0  0
   -8.4391   20.1453  -31.4490 H   0  0  0  0  0  0  0  0  0  0  0  0
   -8.3860   23.5386  -31.1355 H   0  0  0  0  0  0  0  0  0  0  0  0
   -6.8404   23.7091  -30.1728 H   0  0  0  0  0  0  0  0  0  0  0  0
   -5.7568   24.4669  -31.9627 H   0  0  0  0  0  0  0  0  0  0  0  0
   -6.2009   22.9966  -32.8942 H   0  0  0  0  0  0  0  0  0  0  0  0
   -7.2921   24.4235  -32.8942 H   0  0  0  0  0  0  0  0  0  0  0  0
   -5.5094   21.9805  -32.1482 H   0  0  0  0  0  0  0  0  0  0  0  0
   -5.7177   20.3804  -31.3343 H   0  0  0  0  0  0  0  0  0  0  0  0
   -7.9996   20.8360  -33.0382 H   0  0  0  0  0  0  0  0  0  0  0  0
   -6.5151   21.1476  -33.9945 H   0  0  0  0  0  0  0  0  0  0  0  0
   -5.7971   19.1205  -31.3213 H   0  0  0  0  0  0  0  0  0  0  0  0
   -7.5846   18.9035  -31.3664 H   0  0  0  0  0  0  0  0  0  0  0  0
   -5.3842   16.9408  -32.0787 H   0  0  0  0  0  0  0  0  0  0  0  0
   -6.8587   16.6984  -31.0780 H   0  0  0  0  0  0  0  0  0  0  0  0
   -7.6390   17.4630  -33.6510 H   0  0  0  0  0  0  0  0  0  0  0  0
   -6.6320   14.9411  -34.2351 H   0  0  0  0  0  0  0  0  0  0  0  0
   -6.2970   16.5322  -35.0516 H   0  0  0  0  0  0  0  0  0  0  0  0
   -4.7684   16.3485  -32.5965 H   0  0  0  0  0  0  0  0  0  0  0  0
   -4.4700   14.8928  -33.6207 H   0  0  0  0  0  0  0  0  0  0  0  0
   -1.4807   17.3067  -35.3811 H   0  0  0  0  0  0  0  0  0  0  0  0
   -0.0952   19.2281  -34.6051 H   0  0  0  0  0  0  0  0  0  0  0  0
   -0.8302   22.7348  -31.3741 H   0  0  0  0  0  0  0  0  0  0  0  0
   -3.0638   21.0500  -28.5979 H   0  0  0  0  0  0  0  0  0  0  0  0
   -4.1387   22.5264  -26.8987 H   0  0  0  0  0  0  0  0  0  0  0  0
   -5.0071   24.7705  -27.5563 H   0  0  0  0  0  0  0  0  0  0  0  0
   -4.7912   25.5501  -29.9166 H   0  0  0  0  0  0  0  0  0  0  0  0
   -3.7177   24.0872  -31.6246 H   0  0  0  0  0  0  0  0  0  0  0  0
   -4.6499   18.4900  -32.6779 H   0  0  0  0  0  0  0  0  0  0  0  0
  1  2  1  0
  2  3  1  0
  3  4  1  0
  4  5  1  0
  3  6  1  0
  6  7  1  0
  7  8  1  0
  8  9  1  0
  9 10  1  0
 10 11  1  0
 11 12  1  0
 12 13  1  0
 13 14  1  0
 14 15  1  0
 15 16  2  0
 16 17  1  0
 17 18  2  0
 18 19  1  0
 19 20  2  0
 19 21  1  0
 21 22  2  0
 22 23  1  0
 23 24  2  0
 24 25  1  0
 25 26  2  0
 26 27  1  0
 27 28  2  0
 22 29  1  0
 29 30  1  0
 30 31  2  0
 31 15  1  0
 30 18  1  0
 28 23  1  0
  1 32  1  0
  1 33  1  0
  1 34  1  0
  2 35  1  0
  2 36  1  0
  4 37  1  0
  4 38  1  0
  5 39  1  0
  5 40  1  0
  5 41  1  0
  6 42  1  0
  6 43  1  0
  7 44  1  0
  7 45  1  0
  9 46  1  0
  9 47  1  0
 10 48  1  0
 10 49  1  0
 11 50  1  0
 12 51  1  0
 12 52  1  0
 13 53  1  0
 13 54  1  0
 16 55  1  0
 17 56  1  0
 21 57  1  0
 24 58  1  0
 25 59  1  0
 26 60  1  0
 27 61  1  0
 28 62  1  0
 31 63  1  0
M  END
>  <UniqueID>  (16) 
16

>  <SMILES>  (16) 
CCN(CC)CCOCCNCCOc1ccc2c(=O)cc(-c3ccccc3)oc2c1

>  <Energy>  (16) 
72.2491264287797

>  <Genealogy>  (16) 
CCN(CC)CCOCCNCCOc1ccc2c(=O)cc(-c3ccccc3)oc2c1 (3D coordinates assigned)
CCN(CC)CCOCCNCCOc1ccc2c(=O)cc(-c3ccccc3)oc2c1 (optimized conformer: 72.2491264287797 kcal/mol)

>  <smiles>  (16) 
CCN(CC)CCOCCNCCOc1ccc2c(=O)cc(-c3ccccc3)oc2c1

>  <score_type>  (16) 
oracle

>  <origin>  (16) 
adg

>  <m_score__min__energy>  (16) 
-9.4399999999999995

>  <m_primary>  (16) 
energy

$$$$
16:0
     RDKit          3D

 57 59  0  0  0  0  0  0  0  0999 V2000
   -2.7730   19.6420  -27.1120 C   0  0  0  0  0  0  0  0  0  0  0  0
   -1.9990   20.4740  -28.1390 C   0  0  0  0  0  0  0  0  0  0  0  0
   -2.8540   21.2180  -29.0960 N   0  0  0  0  0  0  0  0  0  0  0  0
   -3.6510   22.3150  -28.4920 C   0  0  0  0  0  0  0  0  0  0  0  0
   -2.8460   23.5850  -28.1650 C   0  0  0  0  0  0  0  0  0  0  0  0
   -2.2360   21.5270  -30.4040 C   0  0  0  0  0  0  0  0  0  0  0  0
   -2.9050   20.7310  -31.5330 C   0  0  0  0  0  0  0  0  0  0  0  0
   -2.9480   21.5520  -32.8430 C   0  0  0  0  0  0  0  0  0  0  0  0
   -4.2970   21.7330  -33.4490 N   0  0  0  0  0  0  0  0  0  0  0  0
   -5.4340   21.5890  -32.5530 C   0  0  0  0  0  0  0  0  0  0  0  0
   -5.7330   22.6530  -31.6540 C   0  0  0  0  0  0  0  0  0  0  0  0
   -4.8150   23.7060  -31.4140 C   0  0  0  0  0  0  0  0  0  0  0  0
   -5.1070   24.7290  -30.5160 C   0  0  0  0  0  0  0  0  0  0  0  0
   -6.3120   24.7270  -29.8290 C   0  0  0  0  0  0  0  0  0  0  0  0
   -7.2370   23.7110  -30.0500 C   0  0  0  0  0  0  0  0  0  0  0  0
   -6.9790   22.6720  -30.9810 C   0  0  0  0  0  0  0  0  0  0  0  0
   -7.9110   21.6960  -31.2350 N   0  0  0  0  0  0  0  0  0  0  0  0
   -9.3250   21.9110  -30.8470 C   0  0  0  0  0  0  0  0  0  0  0  0
   -7.5310   20.5200  -31.8480 C   0  0  0  0  0  0  0  0  0  0  0  0
   -8.3620   19.3780  -31.7530 C   0  0  0  0  0  0  0  0  0  0  0  0
   -8.0290   18.1880  -32.3690 C   0  0  0  0  0  0  0  0  0  0  0  0
   -6.8580   18.0880  -33.0910 C   0  0  0  0  0  0  0  0  0  0  0  0
   -5.9830   19.1740  -33.2100 C   0  0  0  0  0  0  0  0  0  0  0  0
   -4.4820   18.7570  -34.1260 S   0  0  0  0  0  0  0  0  0  0  0  0
   -5.0700   17.1010  -34.6110 C   0  0  0  0  0  0  0  0  0  0  0  0
   -6.2890   20.4310  -32.5640 C   0  0  0  0  0  0  0  0  0  0  0  0
   -2.4846   19.9520  -26.0967 H   0  0  0  0  0  0  0  0  0  0  0  0
   -3.8527   19.8000  -27.2509 H   0  0  0  0  0  0  0  0  0  0  0  0
   -2.5375   18.5765  -27.2509 H   0  0  0  0  0  0  0  0  0  0  0  0
   -1.3785   21.2013  -27.5949 H   0  0  0  0  0  0  0  0  0  0  0  0
   -1.4061   19.7643  -28.7346 H   0  0  0  0  0  0  0  0  0  0  0  0
   -4.4502   22.5872  -29.1971 H   0  0  0  0  0  0  0  0  0  0  0  0
   -4.0334   21.9324  -27.5342 H   0  0  0  0  0  0  0  0  0  0  0  0
   -2.7722   23.7015  -27.0737 H   0  0  0  0  0  0  0  0  0  0  0  0
   -1.8366   23.4999  -28.5938 H   0  0  0  0  0  0  0  0  0  0  0  0
   -3.3538   24.4615  -28.5938 H   0  0  0  0  0  0  0  0  0  0  0  0
   -2.3462   22.6022  -30.6084 H   0  0  0  0  0  0  0  0  0  0  0  0
   -1.1727   21.2483  -30.3626 H   0  0  0  0  0  0  0  0  0  0  0  0
   -2.3353   19.8063  -31.7071 H   0  0  0  0  0  0  0  0  0  0  0  0
   -3.9372   20.4983  -31.2324 H   0  0  0  0  0  0  0  0  0  0  0  0
   -2.5367   22.5497  -32.6300 H   0  0  0  0  0  0  0  0  0  0  0  0
   -2.3650   20.9760  -33.5767 H   0  0  0  0  0  0  0  0  0  0  0  0
   -4.3340   22.6820  -33.8890 H   0  0  0  0  0  0  0  0  0  0  0  0
   -4.4170   21.1430  -34.2950 H   0  0  0  0  0  0  0  0  0  0  0  0
   -3.8532   23.7151  -31.9477 H   0  0  0  0  0  0  0  0  0  0  0  0
   -4.3817   25.5394  -30.3512 H   0  0  0  0  0  0  0  0  0  0  0  0
   -6.5364   25.5283  -29.1096 H   0  0  0  0  0  0  0  0  0  0  0  0
   -8.1854   23.7135  -29.4927 H   0  0  0  0  0  0  0  0  0  0  0  0
   -9.4064   21.9234  -29.7501 H   0  0  0  0  0  0  0  0  0  0  0  0
   -9.6741   22.8725  -31.2515 H   0  0  0  0  0  0  0  0  0  0  0  0
   -9.9441   21.0967  -31.2515 H   0  0  0  0  0  0  0  0  0  0  0  0
   -9.2955   19.4401  -31.1745 H   0  0  0  0  0  0  0  0  0  0  0  0
   -8.6981   17.3190  -32.2839 H   0  0  0  0  0  0  0  0  0  0  0  0
   -6.6070   17.1366  -33.5827 H   0  0  0  0  0  0  0  0  0  0  0  0
   -5.2806   16.5079  -33.7088 H   0  0  0  0  0  0  0  0  0  0  0  0
   -5.9885   17.1984  -35.2084 H   0  0  0  0  0  0  0  0  0  0  0  0
   -4.2957   16.5974  -35.2084 H   0  0  0  0  0  0  0  0  0  0  0  0
  1  2  1  0
  2  3  1  0
  3  4  1  0
  4  5  1  0
  3  6  1  0
  6  7  1  0
  7  8  1  0
  8  9  1  0
  9 10  1  0
 10 11  2  0
 11 12  1  0
 12 13  2  0
 13 14  1  0
 14 15  2  0
 15 16  1  0
 16 17  2  0
 17 18  1  0
 17 19  1  0
 19 20  2  0
 20 21  1  0
 21 22  2  0
 22 23  1  0
 23 24  1  0
 24 25  1  0
 23 26  2  0
 26 10  1  0
 16 11  1  0
 26 19  1  0
  1 27  1  0
  1 28  1  0
  1 29  1  0
  2 30  1  0
  2 31  1  0
  4 32  1  0
  4 33  1  0
  5 34  1  0
  5 35  1  0
  5 36  1  0
  6 37  1  0
  6 38  1  0
  7 39  1  0
  7 40  1  0
  8 41  1  0
  8 42  1  0
  9 43  1  0
  9 44  1  0
 12 45  1  0
 13 46  1  0
 14 47  1  0
 15 48  1  0
 18 49  1  0
 18 50  1  0
 18 51  1  0
 20 52  1  0
 21 53  1  0
 22 54  1  0
 25 55  1  0
 25 56  1  0
 25 57  1  0
M  CHG  2   9   1  17   1
M  END
>  <UniqueID>  (17) 
17

>  <SMILES>  (17) 
CCN(CC)CCC[NH2+]c1c2ccccc2[n+](C)c2cccc(SC)c12

>  <Energy>  (17) 
104.73531215632548

>  <Genealogy>  (17) 
CCN(CC)CCC[NH2+]c1c2ccccc2[n+](C)c2cccc(SC)c12 (protonated)
CCN(CC)CCC[NH2+]c1c2ccccc2[n+](C)c2cccc(SC)c12 (3D coordinates assigned)
CCN(CC)CCC[NH2+]c1c2ccccc2[n+](C)c2cccc(SC)c12 (optimized conformer: 104.73531215632548 kcal/mol)

>  <smiles>  (17) 
CCN(CC)CCCNc1c2ccccc2[n+](C)c2cccc(SC)c12

>  <score_type>  (17) 
oracle

>  <origin>  (17) 
adg

>  <m_score__min__energy>  (17) 
-7.2800000000000002

>  <m_primary>  (17) 
energy

$$$$
17:0
     RDKit          3D

 50 52  0  0  0  0  0  0  0  0999 V2000
   -3.9130   24.1380  -28.4110 C   0  0  0  0  0  0  0  0  0  0  0  0
   -3.2120   24.1990  -29.7630 C   0  0  0  0  0  0  0  0  0  0  0  0
   -4.2180   24.3430  -30.8410 N   0  0  0  0  0  0  0  0  0  0  0  0
   -5.2660   25.3390  -30.5040 C   0  0  0  0  0  0  0  0  0  0  0  0
   -6.6530   24.7330  -30.2340 C   0  0  0  0  0  0  0  0  0  0  0  0
   -4.7230   23.0340  -31.3150 C   0  0  0  0  0  0  0  0  0  0  0  0
   -3.6840   22.2950  -32.1790 C   0  0  0  0  0  0  0  0  0  0  0  0
   -4.2420   21.8500  -33.4710 N   0  0  0  0  0  0  0  0  0  0  0  0
   -4.7750   20.4930  -33.4060 C   0  0  0  0  0  0  0  0  0  0  0  0
   -6.1290   20.2750  -33.0190 C   0  0  0  0  0  0  0  0  0  0  0  0
   -6.9960   21.3520  -32.6990 C   0  0  0  0  0  0  0  0  0  0  0  0
   -8.2950   21.1260  -32.2520 C   0  0  0  0  0  0  0  0  0  0  0  0
   -8.7610   19.8300  -32.0990 C   0  0  0  0  0  0  0  0  0  0  0  0
   -7.9460   18.7530  -32.4330 C   0  0  0  0  0  0  0  0  0  0  0  0
   -6.6350   18.9480  -32.9400 C   0  0  0  0  0  0  0  0  0  0  0  0
   -5.8580   17.8820  -33.3380 N   0  0  0  0  0  0  0  0  0  0  0  0
   -6.4850   16.5580  -33.5670 C   0  0  0  0  0  0  0  0  0  0  0  0
   -4.5080   18.0510  -33.5640 C   0  0  0  0  0  0  0  0  0  0  0  0
   -3.6440   16.9320  -33.6900 C   0  0  0  0  0  0  0  0  0  0  0  0
   -2.2990   17.0890  -34.0060 C   0  0  0  0  0  0  0  0  0  0  0  0
   -1.5000   15.9990  -34.1310 F   0  0  0  0  0  0  0  0  0  0  0  0
   -1.7760   18.3590  -34.1980 C   0  0  0  0  0  0  0  0  0  0  0  0
   -0.4700   18.5100  -34.5350 F   0  0  0  0  0  0  0  0  0  0  0  0
   -2.5830   19.4800  -34.0280 C   0  0  0  0  0  0  0  0  0  0  0  0
   -3.9510   19.3590  -33.6660 C   0  0  0  0  0  0  0  0  0  0  0  0
   -3.1651   24.2031  -27.6070 H   0  0  0  0  0  0  0  0  0  0  0  0
   -4.6177   24.9782  -28.3251 H   0  0  0  0  0  0  0  0  0  0  0  0
   -4.4620   23.1887  -28.3251 H   0  0  0  0  0  0  0  0  0  0  0  0
   -2.5293   25.0613  -29.7824 H   0  0  0  0  0  0  0  0  0  0  0  0
   -2.6407   23.2721  -29.9193 H   0  0  0  0  0  0  0  0  0  0  0  0
   -4.9467   25.8832  -29.6029 H   0  0  0  0  0  0  0  0  0  0  0  0
   -5.3737   25.9918  -31.3828 H   0  0  0  0  0  0  0  0  0  0  0  0
   -6.8169   24.6614  -29.1486 H   0  0  0  0  0  0  0  0  0  0  0  0
   -7.4268   25.3750  -30.6801 H   0  0  0  0  0  0  0  0  0  0  0  0
   -6.7076   23.7290  -30.6801 H   0  0  0  0  0  0  0  0  0  0  0  0
   -4.9679   22.4104  -30.4425 H   0  0  0  0  0  0  0  0  0  0  0  0
   -5.6131   23.2167  -31.9349 H   0  0  0  0  0  0  0  0  0  0  0  0
   -2.8397   22.9727  -32.3733 H   0  0  0  0  0  0  0  0  0  0  0  0
   -3.3629   21.4001  -31.6259 H   0  0  0  0  0  0  0  0  0  0  0  0
   -4.9260   22.5490  -33.8270 H   0  0  0  0  0  0  0  0  0  0  0  0
   -3.4980   21.8990  -34.2040 H   0  0  0  0  0  0  0  0  0  0  0  0
   -6.6347   22.3854  -32.8062 H   0  0  0  0  0  0  0  0  0  0  0  0
   -8.9521   21.9771  -32.0200 H   0  0  0  0  0  0  0  0  0  0  0  0
   -9.7758   19.6526  -31.7133 H   0  0  0  0  0  0  0  0  0  0  0  0
   -8.3257   17.7291  -32.3013 H   0  0  0  0  0  0  0  0  0  0  0  0
   -6.7086   16.0858  -32.5990 H   0  0  0  0  0  0  0  0  0  0  0  0
   -7.4175   16.6874  -34.1360 H   0  0  0  0  0  0  0  0  0  0  0  0
   -5.7940   15.9186  -34.1360 H   0  0  0  0  0  0  0  0  0  0  0  0
   -4.0465   15.9202  -33.5345 H   0  0  0  0  0  0  0  0  0  0  0  0
   -2.1522   20.4811  -34.1772 H   0  0  0  0  0  0  0  0  0  0  0  0
  1  2  1  0
  2  3  1  0
  3  4  1  0
  4  5  1  0
  3  6  1  0
  6  7  1  0
  7  8  1  0
  8  9  1  0
  9 10  2  0
 10 11  1  0
 11 12  2  0
 12 13  1  0
 13 14  2  0
 14 15  1  0
 15 16  2  0
 16 17  1  0
 16 18  1  0
 18 19  2  0
 19 20  1  0
 20 21  1  0
 20 22  2  0
 22 23  1  0
 22 24  1  0
 24 25  2  0
 25  9  1  0
 15 10  1  0
 25 18  1  0
  1 26  1  0
  1 27  1  0
  1 28  1  0
  2 29  1  0
  2 30  1  0
  4 31  1  0
  4 32  1  0
  5 33  1  0
  5 34  1  0
  5 35  1  0
  6 36  1  0
  6 37  1  0
  7 38  1  0
  7 39  1  0
  8 40  1  0
  8 41  1  0
 11 42  1  0
 12 43  1  0
 13 44  1  0
 14 45  1  0
 17 46  1  0
 17 47  1  0
 17 48  1  0
 19 49  1  0
 24 50  1  0
M  CHG  2   8   1  16   1
M  END
>  <UniqueID>  (18) 
18

>  <SMILES>  (18) 
CCN(CC)CC[NH2+]c1c2ccccc2[n+](C)c2cc(F)c(F)cc12

>  <Energy>  (18) 
83.80639328221494

>  <Genealogy>  (18) 
CCN(CC)CC[NH2+]c1c2ccccc2[n+](C)c2cc(F)c(F)cc12 (protonated)
CCN(CC)CC[NH2+]c1c2ccccc2[n+](C)c2cc(F)c(F)cc12 (3D coordinates assigned)
CCN(CC)CC[NH2+]c1c2ccccc2[n+](C)c2cc(F)c(F)cc12 (optimized conformer: 83.80639328221494 kcal/mol)

>  <smiles>  (18) 
CCN(CC)CCNc1c2ccccc2[n+](C)c2cc(F)c(F)cc12

>  <score_type>  (18) 
oracle

>  <origin>  (18) 
adg

>  <m_score__min__energy>  (18) 
-7.7800000000000002

>  <m_primary>  (18) 
energy

$$$$
18:0
     RDKit          3D

 37 38  0  0  0  0  0  0  0  0999 V2000
   -9.3930   21.5850  -31.0540 C   0  0  0  0  0  0  0  0  0  0  0  0
   -8.6240   21.8930  -32.2120 O   0  0  0  0  0  0  0  0  0  0  0  0
   -7.2880   21.5040  -32.4070 C   0  0  0  0  0  0  0  0  0  0  0  0
   -6.9500   20.2700  -32.9970 C   0  0  0  0  0  0  0  0  0  0  0  0
   -5.6130   19.9160  -33.1830 C   0  0  0  0  0  0  0  0  0  0  0  0
   -4.5920   20.7880  -32.7940 C   0  0  0  0  0  0  0  0  0  0  0  0
   -2.9110   20.3250  -33.0390 S   0  0  0  0  0  0  0  0  0  0  0  0
   -2.8730   19.0200  -33.7830 O   0  0  0  0  0  0  0  0  0  0  0  0
   -2.1760   21.3630  -33.8410 O   0  0  0  0  0  0  0  0  0  0  0  0
   -2.1280   20.1330  -31.5030 N   0  0  0  0  0  0  0  0  0  0  0  0
   -2.0870   21.1590  -30.4950 C   0  0  0  0  0  0  0  0  0  0  0  0
   -1.0560   22.1190  -30.4520 C   0  0  0  0  0  0  0  0  0  0  0  0
   -1.0520   23.1070  -29.4640 C   0  0  0  0  0  0  0  0  0  0  0  0
   -2.0670   23.1470  -28.5050 C   0  0  0  0  0  0  0  0  0  0  0  0
   -2.0580   24.5000  -27.1570 Br  0  0  0  0  0  0  0  0  0  0  0  0
   -3.0880   22.1920  -28.5320 C   0  0  0  0  0  0  0  0  0  0  0  0
   -3.0960   21.2030  -29.5190 C   0  0  0  0  0  0  0  0  0  0  0  0
   -4.9160   22.0190  -32.2090 C   0  0  0  0  0  0  0  0  0  0  0  0
   -6.2600   22.3710  -31.9920 C   0  0  0  0  0  0  0  0  0  0  0  0
   -6.5970   23.6910  -31.4140 C   0  0  0  0  0  0  0  0  0  0  0  0
   -5.8770   24.3290  -30.4790 C   0  0  0  0  0  0  0  0  0  0  0  0
   -4.4990   24.8270  -30.6570 C   0  0  0  0  0  0  0  0  0  0  0  0
   -4.2560   26.0460  -30.4660 O   0  0  0  0  0  0  0  0  0  0  0  0
   -3.4510   23.9680  -30.9610 O   0  0  0  0  0  0  0  0  0  0  0  0
   -8.8080   21.8193  -30.1524 H   0  0  0  0  0  0  0  0  0  0  0  0
  -10.3165   22.1826  -31.0575 H   0  0  0  0  0  0  0  0  0  0  0  0
   -9.6486   20.5151  -31.0575 H   0  0  0  0  0  0  0  0  0  0  0  0
   -7.7462   19.5802  -33.3135 H   0  0  0  0  0  0  0  0  0  0  0  0
   -5.3614   18.9465  -33.6377 H   0  0  0  0  0  0  0  0  0  0  0  0
   -1.7650   19.1810  -31.2710 H   0  0  0  0  0  0  0  0  0  0  0  0
   -0.2502   22.0903  -31.2002 H   0  0  0  0  0  0  0  0  0  0  0  0
   -0.2467   23.8560  -29.4412 H   0  0  0  0  0  0  0  0  0  0  0  0
   -3.8859   22.2193  -27.7753 H   0  0  0  0  0  0  0  0  0  0  0  0
   -3.8998   20.4521  -29.5317 H   0  0  0  0  0  0  0  0  0  0  0  0
   -4.1147   22.7140  -31.9178 H   0  0  0  0  0  0  0  0  0  0  0  0
   -7.5082   24.1873  -31.7792 H   0  0  0  0  0  0  0  0  0  0  0  0
   -6.3519   24.4944  -29.5007 H   0  0  0  0  0  0  0  0  0  0  0  0
  1  2  1  0
  2  3  1  0
  3  4  2  0
  4  5  1  0
  5  6  2  0
  6  7  1  0
  7  8  2  0
  7  9  2  0
  7 10  1  0
 10 11  1  0
 11 12  2  0
 12 13  1  0
 13 14  2  0
 14 15  1  0
 14 16  1  0
 16 17  2  0
  6 18  1  0
 18 19  2  0
 19 20  1  0
 20 21  2  3
 21 22  1  0
 22 23  2  0
 22 24  1  0
 19  3  1  0
 17 11  1  0
  1 25  1  0
  1 26  1  0
  1 27  1  0
  4 28  1  0
  5 29  1  0
 10 30  1  0
 12 31  1  0
 13 32  1  0
 16 33  1  0
 17 34  1  0
 18 35  1  0
 20 36  1  0
 21 37  1  0
M  CHG  1  24  -1
M  END
>  <UniqueID>  (19) 
19

>  <SMILES>  (19) 
COc1ccc(S(=O)(=O)Nc2ccc(Br)cc2)cc1C=CC(=O)[O-]

>  <Energy>  (19) 
46.44367740306737

>  <Genealogy>  (19) 
COc1ccc(S(=O)(=O)Nc2ccc(Br)cc2)cc1C=CC(=O)[O-] (protonated)
COc1ccc(S(=O)(=O)Nc2ccc(Br)cc2)cc1C=CC(=O)[O-] (3D coordinates assigned)
COc1ccc(S(=O)(=O)Nc2ccc(Br)cc2)cc1C=CC(=O)[O-] (optimized conformer: 46.44367740306737 kcal/mol)

>  <smiles>  (19) 
COc1ccc(S(=O)(=O)Nc2ccc(Br)cc2)cc1C=CC(=O)O

>  <score_type>  (19) 
oracle

>  <origin>  (19) 
adg

>  <m_score__min__energy>  (19) 
-11.07

>  <m_primary>  (19) 
energy

$$$$
19:0
     RDKit          3D

 56 58  0  0  0  0  0  0  0  0999 V2000
   -9.0590   18.5620  -31.4150 C   0  0  0  0  0  0  0  0  0  0  0  0
   -8.8340   19.5480  -32.5620 C   0  0  0  0  0  0  0  0  0  0  0  0
   -7.4010   19.9250  -32.6730 N   0  0  0  0  0  0  0  0  0  0  0  0
   -6.4890   19.0260  -33.2060 C   0  0  0  0  0  0  0  0  0  0  0  0
   -6.8300   17.6720  -33.4690 C   0  0  0  0  0  0  0  0  0  0  0  0
   -5.9290   16.8060  -34.0880 C   0  0  0  0  0  0  0  0  0  0  0  0
   -4.6720   17.2570  -34.4640 C   0  0  0  0  0  0  0  0  0  0  0  0
   -4.2890   18.5630  -34.1800 C   0  0  0  0  0  0  0  0  0  0  0  0
   -5.1640   19.4440  -33.5080 C   0  0  0  0  0  0  0  0  0  0  0  0
   -4.7420   20.7350  -33.1480 C   0  0  0  0  0  0  0  0  0  0  0  0
   -3.3690   21.1320  -33.3200 N   0  0  0  0  0  0  0  0  0  0  0  0
   -2.3810   21.1030  -32.2340 C   0  0  0  0  0  0  0  0  0  0  0  0
   -2.9330   20.4330  -30.9620 C   0  0  0  0  0  0  0  0  0  0  0  0
   -2.1270   20.8330  -29.6970 C   0  0  0  0  0  0  0  0  0  0  0  0
   -2.8670   20.6860  -28.4130 N   0  0  0  0  0  0  0  0  0  0  0  0
   -3.2260   22.0070  -27.8260 C   0  0  0  0  0  0  0  0  0  0  0  0
   -4.2240   22.7770  -28.6970 C   0  0  0  0  0  0  0  0  0  0  0  0
   -2.1300   19.8290  -27.4480 C   0  0  0  0  0  0  0  0  0  0  0  0
   -3.0670   18.9490  -26.6110 C   0  0  0  0  0  0  0  0  0  0  0  0
   -5.6570   21.6230  -32.5590 C   0  0  0  0  0  0  0  0  0  0  0  0
   -5.2590   22.9330  -32.2120 C   0  0  0  0  0  0  0  0  0  0  0  0
   -6.1370   23.7960  -31.5650 C   0  0  0  0  0  0  0  0  0  0  0  0
   -7.4200   23.3730  -31.2490 C   0  0  0  0  0  0  0  0  0  0  0  0
   -7.8440   22.0910  -31.6000 C   0  0  0  0  0  0  0  0  0  0  0  0
   -6.9850   21.1920  -32.2900 C   0  0  0  0  0  0  0  0  0  0  0  0
   -8.9399   19.0840  -30.4541 H   0  0  0  0  0  0  0  0  0  0  0  0
  -10.0751   18.1462  -31.4829 H   0  0  0  0  0  0  0  0  0  0  0  0
   -8.3238   17.7466  -31.4829 H   0  0  0  0  0  0  0  0  0  0  0  0
   -9.1564   19.0816  -33.5046 H   0  0  0  0  0  0  0  0  0  0  0  0
   -9.4188   20.4574  -32.3595 H   0  0  0  0  0  0  0  0  0  0  0  0
   -7.8236   17.2997  -33.1789 H   0  0  0  0  0  0  0  0  0  0  0  0
   -6.2160   15.7614  -34.2788 H   0  0  0  0  0  0  0  0  0  0  0  0
   -3.9787   16.5816  -34.9866 H   0  0  0  0  0  0  0  0  0  0  0  0
   -3.2916   18.9144  -34.4827 H   0  0  0  0  0  0  0  0  0  0  0  0
   -3.0910   21.5600  -34.2320 H   0  0  0  0  0  0  0  0  0  0  0  0
   -1.4973   20.5432  -32.5741 H   0  0  0  0  0  0  0  0  0  0  0  0
   -2.1246   22.1429  -31.9834 H   0  0  0  0  0  0  0  0  0  0  0  0
   -3.9811   20.7380  -30.8263 H   0  0  0  0  0  0  0  0  0  0  0  0
   -2.8485   19.3435  -31.0881 H   0  0  0  0  0  0  0  0  0  0  0  0
   -1.2289   20.1996  -29.6489 H   0  0  0  0  0  0  0  0  0  0  0  0
   -1.8976   21.9037  -29.8015 H   0  0  0  0  0  0  0  0  0  0  0  0
   -3.7550   20.1820  -28.6550 H   0  0  0  0  0  0  0  0  0  0  0  0
   -3.6737   21.8439  -26.8345 H   0  0  0  0  0  0  0  0  0  0  0  0
   -2.3062   22.6064  -27.7571 H   0  0  0  0  0  0  0  0  0  0  0  0
   -4.9296   23.3214  -28.0522 H   0  0  0  0  0  0  0  0  0  0  0  0
   -3.6808   23.4923  -29.3321 H   0  0  0  0  0  0  0  0  0  0  0  0
   -4.7781   22.0701  -29.3321 H   0  0  0  0  0  0  0  0  0  0  0  0
   -1.4415   19.1788  -28.0076 H   0  0  0  0  0  0  0  0  0  0  0  0
   -1.5880   20.4920  -26.7576 H   0  0  0  0  0  0  0  0  0  0  0  0
   -2.8785   19.1261  -25.5418 H   0  0  0  0  0  0  0  0  0  0  0  0
   -4.1121   19.1996  -26.8455 H   0  0  0  0  0  0  0  0  0  0  0  0
   -2.8824   17.8903  -26.8455 H   0  0  0  0  0  0  0  0  0  0  0  0
   -4.2424   23.2748  -32.4564 H   0  0  0  0  0  0  0  0  0  0  0  0
   -5.8140   24.8145  -31.3037 H   0  0  0  0  0  0  0  0  0  0  0  0
   -8.1056   24.0510  -30.7197 H   0  0  0  0  0  0  0  0  0  0  0  0
   -8.8627   21.7693  -31.3379 H   0  0  0  0  0  0  0  0  0  0  0  0
  1  2  1  0
  2  3  1  0
  3  4  2  0
  4  5  1  0
  5  6  2  0
  6  7  1  0
  7  8  2  0
  8  9  1  0
  9 10  2  0
 10 11  1  0
 11 12  1  0
 12 13  1  0
 13 14  1  0
 14 15  1  0
 15 16  1  0
 16 17  1  0
 15 18  1  0
 18 19  1  0
 10 20  1  0
 20 21  2  0
 21 22  1  0
 22 23  2  0
 23 24  1  0
 24 25  2  0
 25  3  1  0
  9  4  1  0
 25 20  1  0
  1 26  1  0
  1 27  1  0
  1 28  1  0
  2 29  1  0
  2 30  1  0
  5 31  1  0
  6 32  1  0
  7 33  1  0
  8 34  1  0
 11 35  1  0
 12 36  1  0
 12 37  1  0
 13 38  1  0
 13 39  1  0
 14 40  1  0
 14 41  1  0
 15 42  1  0
 16 43  1  0
 16 44  1  0
 17 45  1  0
 17 46  1  0
 17 47  1  0
 18 48  1  0
 18 49  1  0
 19 50  1  0
 19 51  1  0
 19 52  1  0
 21 53  1  0
 22 54  1  0
 23 55  1  0
 24 56  1  0
M  CHG  2   3   1  15   1
M  END
>  <UniqueID>  (20) 
20

>  <SMILES>  (20) 
CC[n+]1c2ccccc2c(NCCC[NH+](CC)CC)c2ccccc21

>  <Energy>  (20) 
79.61473957057144

>  <Genealogy>  (20) 
CC[n+]1c2ccccc2c(NCCC[NH+](CC)CC)c2ccccc21 (protonated)
CC[n+]1c2ccccc2c(NCCC[NH+](CC)CC)c2ccccc21 (3D coordinates assigned)
CC[n+]1c2ccccc2c(NCCC[NH+](CC)CC)c2ccccc21 (optimized conformer: 79.61473957057144 kcal/mol)

>  <smiles>  (20) 
CCN(CC)CCCNc1c2ccccc2[n+](CC)c2ccccc12

>  <score_type>  (20) 
oracle

>  <origin>  (20) 
adg

>  <m_score__min__energy>  (20) 
-7.0199999999999996

>  <m_primary>  (20) 
energy

$$$$
20:0
     RDKit          3D

 47 49  0  0  0  0  0  0  0  0999 V2000
   -3.1400   21.8630  -29.8790 C   0  0  0  0  0  0  0  0  0  0  0  0
   -2.7360   23.2930  -30.2180 C   0  0  0  0  0  0  0  0  0  0  0  0
   -3.7810   23.9260  -31.0290 N   0  0  0  0  0  0  0  0  0  0  0  0
   -5.0650   23.9500  -30.3160 C   0  0  0  0  0  0  0  0  0  0  0  0
   -6.1250   23.0860  -31.0430 C   0  0  0  0  0  0  0  0  0  0  0  0
   -5.8320   22.6960  -32.4550 N   0  0  0  0  0  0  0  0  0  0  0  0
   -5.7710   21.2670  -32.7370 C   0  0  0  0  0  0  0  0  0  0  0  0
   -4.5160   20.7010  -33.1210 C   0  0  0  0  0  0  0  0  0  0  0  0
   -3.3560   21.5040  -33.2980 C   0  0  0  0  0  0  0  0  0  0  0  0
   -2.1320   20.9430  -33.6520 C   0  0  0  0  0  0  0  0  0  0  0  0
   -2.0210   19.5740  -33.8300 C   0  0  0  0  0  0  0  0  0  0  0  0
   -3.1380   18.7610  -33.6780 C   0  0  0  0  0  0  0  0  0  0  0  0
   -4.4080   19.3050  -33.3480 C   0  0  0  0  0  0  0  0  0  0  0  0
   -5.5110   18.4980  -33.2170 N   0  0  0  0  0  0  0  0  0  0  0  0
   -5.4800   17.1160  -33.7490 C   0  0  0  0  0  0  0  0  0  0  0  0
   -6.6530   18.9760  -32.6170 C   0  0  0  0  0  0  0  0  0  0  0  0
   -7.6010   18.0690  -32.0890 C   0  0  0  0  0  0  0  0  0  0  0  0
   -8.7970   18.5050  -31.5520 C   0  0  0  0  0  0  0  0  0  0  0  0
   -9.1170   19.8470  -31.5900 C   0  0  0  0  0  0  0  0  0  0  0  0
   -8.2200   20.7960  -32.1090 C   0  0  0  0  0  0  0  0  0  0  0  0
   -8.8200   22.1710  -32.2770 C   0  0  0  0  0  0  0  0  0  0  0  0
   -6.8870   20.3850  -32.4950 C   0  0  0  0  0  0  0  0  0  0  0  0
   -3.1745   21.7410  -28.7863 H   0  0  0  0  0  0  0  0  0  0  0  0
   -4.1329   21.6522  -30.3030 H   0  0  0  0  0  0  0  0  0  0  0  0
   -2.4042   21.1638  -30.3030 H   0  0  0  0  0  0  0  0  0  0  0  0
   -2.5996   23.8641  -29.2878 H   0  0  0  0  0  0  0  0  0  0  0  0
   -1.7942   23.2791  -30.7861 H   0  0  0  0  0  0  0  0  0  0  0  0
   -3.4970   24.9170  -31.2160 H   0  0  0  0  0  0  0  0  0  0  0  0
   -4.9182   23.5574  -29.2990 H   0  0  0  0  0  0  0  0  0  0  0  0
   -5.4256   24.9887  -30.2822 H   0  0  0  0  0  0  0  0  0  0  0  0
   -6.2524   22.1601  -30.4630 H   0  0  0  0  0  0  0  0  0  0  0  0
   -7.0195   23.7234  -31.1033 H   0  0  0  0  0  0  0  0  0  0  0  0
   -6.5460   23.1310  -33.0810 H   0  0  0  0  0  0  0  0  0  0  0  0
   -4.9920   23.1920  -32.8010 H   0  0  0  0  0  0  0  0  0  0  0  0
   -3.4272   22.5919  -33.1521 H   0  0  0  0  0  0  0  0  0  0  0  0
   -1.2518   21.5880  -33.7905 H   0  0  0  0  0  0  0  0  0  0  0  0
   -1.0491   19.1302  -34.0916 H   0  0  0  0  0  0  0  0  0  0  0  0
   -3.0365   17.6744  -33.8160 H   0  0  0  0  0  0  0  0  0  0  0  0
   -5.4640   16.4015  -32.9128 H   0  0  0  0  0  0  0  0  0  0  0  0
   -6.3744   16.9399  -34.3646 H   0  0  0  0  0  0  0  0  0  0  0  0
   -4.5786   16.9802  -34.3646 H   0  0  0  0  0  0  0  0  0  0  0  0
   -7.3810   16.9914  -32.1063 H   0  0  0  0  0  0  0  0  0  0  0  0
   -9.4920   17.7848  -31.0956 H   0  0  0  0  0  0  0  0  0  0  0  0
  -10.0928   20.1800  -31.2067 H   0  0  0  0  0  0  0  0  0  0  0  0
   -9.0119   22.6108  -31.2872 H   0  0  0  0  0  0  0  0  0  0  0  0
   -8.1195   22.8113  -32.8331 H   0  0  0  0  0  0  0  0  0  0  0  0
   -9.7658   22.0929  -32.8331 H   0  0  0  0  0  0  0  0  0  0  0  0
  1  2  1  0
  2  3  1  0
  3  4  1  0
  4  5  1  0
  5  6  1  0
  6  7  1  0
  7  8  2  0
  8  9  1  0
  9 10  2  0
 10 11  1  0
 11 12  2  0
 12 13  1  0
 13 14  2  0
 14 15  1  0
 14 16  1  0
 16 17  2  0
 17 18  1  0
 18 19  2  0
 19 20  1  0
 20 21  1  0
 20 22  2  0
 22  7  1  0
 13  8  1  0
 22 16  1  0
  1 23  1  0
  1 24  1  0
  1 25  1  0
  2 26  1  0
  2 27  1  0
  3 28  1  0
  4 29  1  0
  4 30  1  0
  5 31  1  0
  5 32  1  0
  6 33  1  0
  6 34  1  0
  9 35  1  0
 10 36  1  0
 11 37  1  0
 12 38  1  0
 15 39  1  0
 15 40  1  0
 15 41  1  0
 17 42  1  0
 18 43  1  0
 19 44  1  0
 21 45  1  0
 21 46  1  0
 21 47  1  0
M  CHG  2   6   1  14   1
M  END
>  <UniqueID>  (21) 
21

>  <SMILES>  (21) 
CCNCC[NH2+]c1c2ccccc2[n+](C)c2cccc(C)c12

>  <Energy>  (21) 
92.79422812154424

>  <Genealogy>  (21) 
CCNCC[NH2+]c1c2ccccc2[n+](C)c2cccc(C)c12 (protonated)
CCNCC[NH2+]c1c2ccccc2[n+](C)c2cccc(C)c12 (3D coordinates assigned)
CCNCC[NH2+]c1c2ccccc2[n+](C)c2cccc(C)c12 (optimized conformer: 92.79422812154424 kcal/mol)

>  <smiles>  (21) 
CCNCCNc1c2ccccc2[n+](C)c2cccc(C)c12

>  <score_type>  (21) 
oracle

>  <origin>  (21) 
adg

>  <m_score__min__energy>  (21) 
-8.4299999999999997

>  <m_primary>  (21) 
energy

$$$$
21:0
     RDKit          3D

 47 49  0  0  0  0  0  0  0  0999 V2000
   -6.3510   17.6540  -33.8230 C   0  0  0  0  0  0  0  0  0  0  0  0
   -6.9850   17.7630  -32.4350 C   0  0  0  0  0  0  0  0  0  0  0  0
   -7.1300   19.1830  -32.0290 N   0  0  0  0  0  0  0  0  0  0  0  0
   -8.5310   19.4430  -31.6070 C   0  0  0  0  0  0  0  0  0  0  0  0
   -8.9910   20.8510  -31.9770 C   0  0  0  0  0  0  0  0  0  0  0  0
   -6.7000   20.1080  -33.1140 C   0  0  0  0  0  0  0  0  0  0  0  0
   -5.3150   20.7190  -32.8030 C   0  0  0  0  0  0  0  0  0  0  0  0
   -4.8920   20.5670  -31.3960 N   0  0  0  0  0  0  0  0  0  0  0  0
   -4.3130   21.7820  -30.8340 C   0  0  0  0  0  0  0  0  0  0  0  0
   -2.9270   21.8220  -30.4950 C   0  0  0  0  0  0  0  0  0  0  0  0
   -2.0840   20.6870  -30.6120 C   0  0  0  0  0  0  0  0  0  0  0  0
   -0.7270   20.7620  -30.3000 C   0  0  0  0  0  0  0  0  0  0  0  0
   -0.1770   21.9570  -29.8530 C   0  0  0  0  0  0  0  0  0  0  0  0
   -0.9820   23.0810  -29.7040 C   0  0  0  0  0  0  0  0  0  0  0  0
   -2.3600   23.0300  -30.0100 C   0  0  0  0  0  0  0  0  0  0  0  0
   -3.1370   24.1380  -29.8310 N   0  0  0  0  0  0  0  0  0  0  0  0
   -2.5550   25.2980  -29.3620 O   0  0  0  0  0  0  0  0  0  0  0  0
   -4.4760   24.1250  -30.1000 C   0  0  0  0  0  0  0  0  0  0  0  0
   -5.2420   25.2910  -29.8870 C   0  0  0  0  0  0  0  0  0  0  0  0
   -6.6060   25.3100  -30.1540 C   0  0  0  0  0  0  0  0  0  0  0  0
   -7.2330   24.1720  -30.6400 C   0  0  0  0  0  0  0  0  0  0  0  0
   -6.5010   23.0060  -30.8630 C   0  0  0  0  0  0  0  0  0  0  0  0
   -5.1040   22.9510  -30.6050 C   0  0  0  0  0  0  0  0  0  0  0  0
   -5.2717   17.4684  -33.7196 H   0  0  0  0  0  0  0  0  0  0  0  0
   -6.8149   16.8224  -34.3737 H   0  0  0  0  0  0  0  0  0  0  0  0
   -6.5105   18.5927  -34.3737 H   0  0  0  0  0  0  0  0  0  0  0  0
   -7.9783   17.2908  -32.4547 H   0  0  0  0  0  0  0  0  0  0  0  0
   -6.3324   17.2550  -31.7097 H   0  0  0  0  0  0  0  0  0  0  0  0
   -9.1908   18.7135  -32.0995 H   0  0  0  0  0  0  0  0  0  0  0  0
   -8.5778   19.3484  -30.5121 H   0  0  0  0  0  0  0  0  0  0  0  0
   -9.1795   21.4281  -31.0597 H   0  0  0  0  0  0  0  0  0  0  0  0
   -8.2087   21.3486  -32.5689 H   0  0  0  0  0  0  0  0  0  0  0  0
   -9.9162   20.7908  -32.5689 H   0  0  0  0  0  0  0  0  0  0  0  0
   -6.6431   19.5506  -34.0606 H   0  0  0  0  0  0  0  0  0  0  0  0
   -7.4340   20.9236  -33.1911 H   0  0  0  0  0  0  0  0  0  0  0  0
   -4.5684   20.2267  -33.4435 H   0  0  0  0  0  0  0  0  0  0  0  0
   -5.3937   21.7991  -32.9961 H   0  0  0  0  0  0  0  0  0  0  0  0
   -4.1880   19.7960  -31.3370 H   0  0  0  0  0  0  0  0  0  0  0  0
   -5.6810   20.1800  -30.8450 H   0  0  0  0  0  0  0  0  0  0  0  0
   -2.5080   19.7316  -30.9546 H   0  0  0  0  0  0  0  0  0  0  0  0
   -0.0897   19.8719  -30.4082 H   0  0  0  0  0  0  0  0  0  0  0  0
    0.8958   22.0140  -29.6168 H   0  0  0  0  0  0  0  0  0  0  0  0
   -0.5402   24.0216  -29.3433 H   0  0  0  0  0  0  0  0  0  0  0  0
   -4.7523   26.1984  -29.5039 H   0  0  0  0  0  0  0  0  0  0  0  0
   -7.1880   26.2271  -29.9800 H   0  0  0  0  0  0  0  0  0  0  0  0
   -8.3125   24.1893  -30.8505 H   0  0  0  0  0  0  0  0  0  0  0  0
   -7.0144   22.1117  -31.2459 H   0  0  0  0  0  0  0  0  0  0  0  0
  1  2  1  0
  2  3  1  0
  3  4  1  0
  4  5  1  0
  3  6  1  0
  6  7  1  0
  7  8  1  0
  8  9  1  0
  9 10  2  0
 10 11  1  0
 11 12  2  0
 12 13  1  0
 13 14  2  0
 14 15  1  0
 15 16  2  0
 16 17  1  0
 16 18  1  0
 18 19  2  0
 19 20  1  0
 20 21  2  0
 21 22  1  0
 22 23  2  0
 23  9  1  0
 15 10  1  0
 23 18  1  0
  1 24  1  0
  1 25  1  0
  1 26  1  0
  2 27  1  0
  2 28  1  0
  4 29  1  0
  4 30  1  0
  5 31  1  0
  5 32  1  0
  5 33  1  0
  6 34  1  0
  6 35  1  0
  7 36  1  0
  7 37  1  0
  8 38  1  0
  8 39  1  0
 11 40  1  0
 12 41  1  0
 13 42  1  0
 14 43  1  0
 19 44  1  0
 20 45  1  0
 21 46  1  0
 22 47  1  0
M  CHG  3   8   1  16   1  17  -1
M  END
>  <UniqueID>  (22) 
22

>  <SMILES>  (22) 
CCN(CC)CC[NH2+]c1c2ccccc2[n+]([O-])c2ccccc12

>  <Energy>  (22) 
68.65920463806424

>  <Genealogy>  (22) 
CCN(CC)CC[NH2+]c1c2ccccc2[n+]([O-])c2ccccc12 (protonated)
CCN(CC)CC[NH2+]c1c2ccccc2[n+]([O-])c2ccccc12 (3D coordinates assigned)
CCN(CC)CC[NH2+]c1c2ccccc2[n+]([O-])c2ccccc12 (optimized conformer: 68.65920463806424 kcal/mol)

>  <smiles>  (22) 
CCN(CC)CCNc1c2ccccc2[n+]([O-])c2ccccc12

>  <score_type>  (22) 
oracle

>  <origin>  (22) 
adg

>  <m_score__min__energy>  (22) 
-8

>  <m_primary>  (22) 
energy

$$$$
22:0
     RDKit          3D

 46 47  0  0  0  0  0  0  0  0999 V2000
   -7.5500   18.1280  -31.8080 C   0  0  0  0  0  0  0  0  0  0  0  0
   -8.8740   18.8040  -32.1390 C   0  0  0  0  0  0  0  0  0  0  0  0
   -8.6350   19.9750  -32.9940 N   0  0  0  0  0  0  0  0  0  0  0  0
   -7.1990   20.2500  -33.1510 C   0  0  0  0  0  0  0  0  0  0  0  0
   -6.7790   21.4640  -32.3080 C   0  0  0  0  0  0  0  0  0  0  0  0
   -7.5890   21.5710  -31.0800 N   0  0  0  0  0  0  0  0  0  0  0  0
   -7.7020   22.9640  -30.6170 C   0  0  0  0  0  0  0  0  0  0  0  0
   -6.3530   23.5390  -30.2510 C   0  0  0  0  0  0  0  0  0  0  0  0
   -5.9570   24.7960  -30.7320 C   0  0  0  0  0  0  0  0  0  0  0  0
   -4.6790   25.2880  -30.4510 C   0  0  0  0  0  0  0  0  0  0  0  0
   -3.7760   24.5320  -29.6950 C   0  0  0  0  0  0  0  0  0  0  0  0
   -2.4940   25.0600  -29.4710 O   0  0  0  0  0  0  0  0  0  0  0  0
   -1.4290   24.3870  -28.7990 C   0  0  0  0  0  0  0  0  0  0  0  0
   -1.2220   24.9540  -27.4150 C   0  0  0  0  0  0  0  0  0  0  0  0
   -1.1990   26.3480  -27.2300 C   0  0  0  0  0  0  0  0  0  0  0  0
   -1.0140   26.8920  -25.9570 C   0  0  0  0  0  0  0  0  0  0  0  0
   -0.8380   26.0530  -24.8550 C   0  0  0  0  0  0  0  0  0  0  0  0
   -0.6120   26.7380  -23.2560 Cl  0  0  0  0  0  0  0  0  0  0  0  0
   -0.8460   24.6660  -25.0270 C   0  0  0  0  0  0  0  0  0  0  0  0
   -1.0360   24.1110  -26.2980 C   0  0  0  0  0  0  0  0  0  0  0  0
   -1.0250   22.3560  -26.4540 Cl  0  0  0  0  0  0  0  0  0  0  0  0
   -4.1810   23.2810  -29.1920 C   0  0  0  0  0  0  0  0  0  0  0  0
   -5.4580   22.7910  -29.4710 C   0  0  0  0  0  0  0  0  0  0  0  0
   -7.4320   18.0677  -30.7160 H   0  0  0  0  0  0  0  0  0  0  0  0
   -7.5393   17.1141  -32.2345 H   0  0  0  0  0  0  0  0  0  0  0  0
   -6.7225   18.7139  -32.2345 H   0  0  0  0  0  0  0  0  0  0  0  0
   -9.5251   18.0925  -32.6679 H   0  0  0  0  0  0  0  0  0  0  0  0
   -9.3594   19.1281  -31.2066 H   0  0  0  0  0  0  0  0  0  0  0  0
   -9.0280   19.7610  -33.9410 H   0  0  0  0  0  0  0  0  0  0  0  0
   -6.6258   19.3695  -32.8253 H   0  0  0  0  0  0  0  0  0  0  0  0
   -6.9964   20.4696  -34.2096 H   0  0  0  0  0  0  0  0  0  0  0  0
   -5.7199   21.3581  -32.0303 H   0  0  0  0  0  0  0  0  0  0  0  0
   -6.9357   22.3731  -32.9071 H   0  0  0  0  0  0  0  0  0  0  0  0
   -7.1870   20.9810  -30.3140 H   0  0  0  0  0  0  0  0  0  0  0  0
   -8.5510   21.2120  -31.2860 H   0  0  0  0  0  0  0  0  0  0  0  0
   -8.1436   23.5725  -31.4199 H   0  0  0  0  0  0  0  0  0  0  0  0
   -8.3374   22.9780  -29.7192 H   0  0  0  0  0  0  0  0  0  0  0  0
   -6.6552   25.3971  -31.3329 H   0  0  0  0  0  0  0  0  0  0  0  0
   -4.3807   26.2777  -30.8273 H   0  0  0  0  0  0  0  0  0  0  0  0
   -1.6734   23.3176  -28.7173 H   0  0  0  0  0  0  0  0  0  0  0  0
   -0.5042   24.5265  -29.3780 H   0  0  0  0  0  0  0  0  0  0  0  0
   -1.3278   27.0153  -28.0950 H   0  0  0  0  0  0  0  0  0  0  0  0
   -1.0069   27.9837  -25.8224 H   0  0  0  0  0  0  0  0  0  0  0  0
   -0.7021   24.0066  -24.1584 H   0  0  0  0  0  0  0  0  0  0  0  0
   -3.4886   22.6875  -28.5769 H   0  0  0  0  0  0  0  0  0  0  0  0
   -5.7650   21.8112  -29.0764 H   0  0  0  0  0  0  0  0  0  0  0  0
  1  2  1  0
  2  3  1  0
  3  4  1  0
  4  5  1  0
  5  6  1  0
  6  7  1  0
  7  8  1  0
  8  9  2  0
  9 10  1  0
 10 11  2  0
 11 12  1  0
 12 13  1  0
 13 14  1  0
 14 15  2  0
 15 16  1  0
 16 17  2  0
 17 18  1  0
 17 19  1  0
 19 20  2  0
 20 21  1  0
 11 22  1  0
 22 23  2  0
 23  8  1  0
 20 14  1  0
  1 24  1  0
  1 25  1  0
  1 26  1  0
  2 27  1  0
  2 28  1  0
  3 29  1  0
  4 30  1  0
  4 31  1  0
  5 32  1  0
  5 33  1  0
  6 34  1  0
  6 35  1  0
  7 36  1  0
  7 37  1  0
  9 38  1  0
 10 39  1  0
 13 40  1  0
 13 41  1  0
 15 42  1  0
 16 43  1  0
 19 44  1  0
 22 45  1  0
 23 46  1  0
M  CHG  1   6   1
M  END
>  <UniqueID>  (23) 
23

>  <SMILES>  (23) 
CCNCC[NH2+]Cc1ccc(OCc2ccc(Cl)cc2Cl)cc1

>  <Energy>  (23) 
38.728458366629575

>  <Genealogy>  (23) 
CCNCC[NH2+]Cc1ccc(OCc2ccc(Cl)cc2Cl)cc1 (protonated)
CCNCC[NH2+]Cc1ccc(OCc2ccc(Cl)cc2Cl)cc1 (3D coordinates assigned)
CCNCC[NH2+]Cc1ccc(OCc2ccc(Cl)cc2Cl)cc1 (optimized conformer: 38.728458366629575 kcal/mol)

>  <smiles>  (23) 
CCNCCNCc1ccc(OCc2ccc(Cl)cc2Cl)cc1

>  <score_type>  (23) 
oracle

>  <origin>  (23) 
adg

>  <m_score__min__energy>  (23) 
-7.54

>  <m_primary>  (23) 
energy

$$$$
23:0
     RDKit          3D

 61 62  0  0  0  0  0  0  0  0999 V2000
   -1.4756   21.1764  -28.7964 H   0  0  0  0  0  0  0  0  0  0  0  0
   -1.4970   22.1850  -28.3580 C   0  0  0  0  0  0  0  0  0  0  0  0
   -1.9670   23.2700  -29.1310 C   0  0  0  0  0  0  0  0  0  0  0  0
   -2.4030   23.0360  -30.4810 N   0  0  0  0  0  0  0  0  0  0  0  0
   -1.7230   22.6250  -31.1600 H   0  0  0  0  0  0  0  0  0  0  0  0
   -3.7640   23.1710  -30.9150 C   0  0  0  0  0  0  0  0  0  0  0  0
   -4.3780   24.3190  -30.8910 N   0  0  0  0  0  0  0  0  0  0  0  0
   -5.4110   24.7150  -29.9370 C   0  0  0  0  0  0  0  0  0  0  0  0
   -5.5998   25.7944  -30.0330 H   0  0  0  0  0  0  0  0  0  0  0  0
   -5.0668   24.4833  -28.9183 H   0  0  0  0  0  0  0  0  0  0  0  0
   -6.7110   23.9460  -30.2140 C   0  0  0  0  0  0  0  0  0  0  0  0
   -7.5548   24.5416  -29.8356 H   0  0  0  0  0  0  0  0  0  0  0  0
   -6.6251   22.9736  -29.7071 H   0  0  0  0  0  0  0  0  0  0  0  0
   -6.9500   23.6570  -31.7100 C   0  0  0  0  0  0  0  0  0  0  0  0
   -5.9815   23.6975  -32.2301 H   0  0  0  0  0  0  0  0  0  0  0  0
   -7.6558   24.4179  -32.0744 H   0  0  0  0  0  0  0  0  0  0  0  0
   -7.5620   22.3450  -31.9710 N   0  0  0  0  0  0  0  0  0  0  0  0
   -6.8610   21.5730  -31.8940 H   0  0  0  0  0  0  0  0  0  0  0  0
   -8.7960   22.0850  -31.2040 C   0  0  0  0  0  0  0  0  0  0  0  0
   -9.2886   23.0447  -30.9890 H   0  0  0  0  0  0  0  0  0  0  0  0
   -8.5148   21.5637  -30.2771 H   0  0  0  0  0  0  0  0  0  0  0  0
   -9.7770   21.1860  -31.9730 C   0  0  0  0  0  0  0  0  0  0  0  0
  -10.0887   21.7026  -32.8927 H   0  0  0  0  0  0  0  0  0  0  0  0
  -10.6414   20.9851  -31.3230 H   0  0  0  0  0  0  0  0  0  0  0  0
   -9.1380   19.8460  -32.3480 C   0  0  0  0  0  0  0  0  0  0  0  0
   -8.8873   19.8473  -33.4190 H   0  0  0  0  0  0  0  0  0  0  0  0
   -9.8468   19.0319  -32.1360 H   0  0  0  0  0  0  0  0  0  0  0  0
   -7.9130   19.6440  -31.5590 N   0  0  0  0  0  0  0  0  0  0  0  0
   -7.1550   20.2370  -31.9780 H   0  0  0  0  0  0  0  0  0  0  0  0
   -7.4640   18.2450  -31.6060 C   0  0  0  0  0  0  0  0  0  0  0  0
   -8.0317   17.7040  -32.3774 H   0  0  0  0  0  0  0  0  0  0  0  0
   -7.6329   17.7739  -30.6264 H   0  0  0  0  0  0  0  0  0  0  0  0
   -5.9730   18.1960  -31.9430 C   0  0  0  0  0  0  0  0  0  0  0  0
   -5.6928   17.1615  -32.1906 H   0  0  0  0  0  0  0  0  0  0  0  0
   -5.4022   18.5484  -31.0712 H   0  0  0  0  0  0  0  0  0  0  0  0
   -5.6620   19.0860  -33.1160 C   0  0  0  0  0  0  0  0  0  0  0  0
   -5.4370   20.2720  -32.9280 O   0  0  0  0  0  0  0  0  0  0  0  0
   -5.6170   18.5460  -34.5160 C   0  0  0  0  0  0  0  0  0  0  0  0
   -5.5257   17.4503  -34.4836 H   0  0  0  0  0  0  0  0  0  0  0  0
   -6.5412   18.8214  -35.0451 H   0  0  0  0  0  0  0  0  0  0  0  0
   -4.7511   18.9706  -35.0451 H   0  0  0  0  0  0  0  0  0  0  0  0
   -4.4270   22.0430  -31.4840 N   0  0  0  0  0  0  0  0  0  0  0  0
   -5.4100   22.1210  -31.8280 H   0  0  0  0  0  0  0  0  0  0  0  0
   -3.9390   21.1220  -31.5440 H   0  0  0  0  0  0  0  0  0  0  0  0
   -2.0260   24.5560  -28.5520 C   0  0  0  0  0  0  0  0  0  0  0  0
   -2.4184   25.4109  -29.1223 H   0  0  0  0  0  0  0  0  0  0  0  0
   -1.5780   24.7200  -27.2460 C   0  0  0  0  0  0  0  0  0  0  0  0
   -1.5060   26.1380  -26.3530 S   0  0  0  0  0  0  0  0  0  0  0  0
   -0.8490   25.4160  -24.9720 C   0  0  0  0  0  0  0  0  0  0  0  0
   -0.5080   26.1600  -23.7210 C   0  0  0  0  0  0  0  0  0  0  0  0
   -0.7860   25.5535  -22.8464 H   0  0  0  0  0  0  0  0  0  0  0  0
    0.5729   26.3627  -23.6980 H   0  0  0  0  0  0  0  0  0  0  0  0
   -1.0600   27.1112  -23.6980 H   0  0  0  0  0  0  0  0  0  0  0  0
   -0.6840   24.0410  -25.1960 C   0  0  0  0  0  0  0  0  0  0  0  0
   -0.1150   23.0780  -24.1920 C   0  0  0  0  0  0  0  0  0  0  0  0
   -0.3286   23.4395  -23.1753 H   0  0  0  0  0  0  0  0  0  0  0  0
   -0.5732   22.0880  -24.3330 H   0  0  0  0  0  0  0  0  0  0  0  0
    0.9733   23.0017  -24.3330 H   0  0  0  0  0  0  0  0  0  0  0  0
   -1.0970   23.6620  -26.4880 C   0  0  0  0  0  0  0  0  0  0  0  0
   -1.0570   22.3750  -27.0390 C   0  0  0  0  0  0  0  0  0  0  0  0
   -0.6861   21.5256  -26.4466 H   0  0  0  0  0  0  0  0  0  0  0  0
  1  2  1  0
  2  3  2  0
  3  4  1  0
  4  5  1  0
  4  6  1  0
  6  7  2  0
  7  8  1  0
  8  9  1  0
  8 10  1  0
  8 11  1  0
 11 12  1  0
 11 13  1  0
 11 14  1  0
 14 15  1  0
 14 16  1  0
 14 17  1  0
 17 18  1  0
 17 19  1  0
 19 20  1  0
 19 21  1  0
 19 22  1  0
 22 23  1  0
 22 24  1  0
 22 25  1  0
 25 26  1  0
 25 27  1  0
 25 28  1  0
 28 29  1  0
 28 30  1  0
 30 31  1  0
 30 32  1  0
 30 33  1  0
 33 34  1  0
 33 35  1  0
 33 36  1  0
 36 37  2  0
 36 38  1  0
 38 39  1  0
 38 40  1  0
 38 41  1  0
  6 42  1  0
 42 43  1  0
 42 44  1  0
  3 45  1  0
 45 46  1  0
 45 47  2  0
 47 48  1  0
 48 49  1  0
 49 50  1  0
 50 51  1  0
 50 52  1  0
 50 53  1  0
 49 54  2  0
 54 55  1  0
 55 56  1  0
 55 57  1  0
 55 58  1  0
 54 59  1  0
 59 60  2  0
 60 61  1  0
 60  2  1  0
 59 47  1  0
M  END
>  <UniqueID>  (24) 
24

>  <SMILES>  (24) 
CC(=O)CCNCCCNCCC/N=C(/N)Nc1ccc2c(C)c(C)sc2c1

>  <Energy>  (24) 
83.9251625649287

>  <Genealogy>  (24) 
CC(=O)CCNCCCNCCC/N=C(/N)Nc1ccc2c(C)c(C)sc2c1 (cis-trans isomerization)
CC(=O)CCNCCCNCCC/N=C(/N)Nc1ccc2c(C)c(C)sc2c1 (3D coordinates assigned)
CC(=O)CCNCCCNCCC/N=C(/N)Nc1ccc2c(C)c(C)sc2c1 (optimized conformer: 83.9251625649287 kcal/mol)

>  <smiles>  (24) 
CC(=O)CCNCCCNCCCN=C(N)Nc1ccc2c(C)c(C)sc2c1

>  <score_type>  (24) 
oracle

>  <origin>  (24) 
adg

>  <m_score__min__energy>  (24) 
-9.1199999999999992

>  <m_primary>  (24) 
energy

$$$$
24:0
     RDKit          3D

 46 48  0  0  0  0  0  0  0  0999 V2000
   -5.0420   15.4230  -33.9270 C   0  0  0  0  0  0  0  0  0  0  0  0
   -5.1660   16.8660  -33.5360 C   0  0  0  0  0  0  0  0  0  0  0  0
   -4.0780   17.7230  -33.6720 C   0  0  0  0  0  0  0  0  0  0  0  0
   -4.1910   19.0820  -33.3800 C   0  0  0  0  0  0  0  0  0  0  0  0
   -2.6260   20.1160  -33.8150 Br  0  0  0  0  0  0  0  0  0  0  0  0
   -5.4250   19.6120  -32.8950 C   0  0  0  0  0  0  0  0  0  0  0  0
   -5.5880   20.9680  -32.5250 C   0  0  0  0  0  0  0  0  0  0  0  0
   -4.4510   21.8150  -32.2980 N   0  0  0  0  0  0  0  0  0  0  0  0
   -3.9840   22.1500  -30.9470 C   0  0  0  0  0  0  0  0  0  0  0  0
   -3.1080   23.4140  -30.9140 C   0  0  0  0  0  0  0  0  0  0  0  0
   -3.7850   24.5230  -30.2080 N   0  0  0  0  0  0  0  0  0  0  0  0
   -4.0330   24.1610  -28.8030 C   0  0  0  0  0  0  0  0  0  0  0  0
   -5.0610   24.8690  -30.8590 C   0  0  0  0  0  0  0  0  0  0  0  0
   -6.8800   21.4790  -32.3130 C   0  0  0  0  0  0  0  0  0  0  0  0
   -7.0960   22.8670  -32.1740 C   0  0  0  0  0  0  0  0  0  0  0  0
   -8.3820   23.3720  -31.9980 C   0  0  0  0  0  0  0  0  0  0  0  0
   -9.4720   22.5090  -31.9720 C   0  0  0  0  0  0  0  0  0  0  0  0
   -9.2800   21.1340  -32.1030 C   0  0  0  0  0  0  0  0  0  0  0  0
   -7.9790   20.5880  -32.2470 C   0  0  0  0  0  0  0  0  0  0  0  0
   -7.7650   19.2280  -32.3210 N   0  0  0  0  0  0  0  0  0  0  0  0
   -8.8320   18.2910  -31.8990 C   0  0  0  0  0  0  0  0  0  0  0  0
   -6.5510   18.7420  -32.7710 C   0  0  0  0  0  0  0  0  0  0  0  0
   -6.3980   17.3810  -33.1300 C   0  0  0  0  0  0  0  0  0  0  0  0
   -4.9885   14.8010  -33.0213 H   0  0  0  0  0  0  0  0  0  0  0  0
   -5.9181   15.1281  -34.5232 H   0  0  0  0  0  0  0  0  0  0  0  0
   -4.1284   15.2819  -34.5232 H   0  0  0  0  0  0  0  0  0  0  0  0
   -3.1130   17.3219  -34.0155 H   0  0  0  0  0  0  0  0  0  0  0  0
   -4.2030   22.4840  -33.0610 H   0  0  0  0  0  0  0  0  0  0  0  0
   -4.8606   22.3133  -30.3028 H   0  0  0  0  0  0  0  0  0  0  0  0
   -3.3671   21.3109  -30.5929 H   0  0  0  0  0  0  0  0  0  0  0  0
   -2.1656   23.1826  -30.3959 H   0  0  0  0  0  0  0  0  0  0  0  0
   -2.9172   23.7294  -31.9504 H   0  0  0  0  0  0  0  0  0  0  0  0
   -3.5353   24.8875  -28.1438 H   0  0  0  0  0  0  0  0  0  0  0  0
   -5.1155   24.1701  -28.6076 H   0  0  0  0  0  0  0  0  0  0  0  0
   -3.6336   23.1549  -28.6076 H   0  0  0  0  0  0  0  0  0  0  0  0
   -5.8207   25.0750  -30.0906 H   0  0  0  0  0  0  0  0  0  0  0  0
   -4.9223   25.7620  -31.4862 H   0  0  0  0  0  0  0  0  0  0  0  0
   -5.3925   24.0283  -31.4862 H   0  0  0  0  0  0  0  0  0  0  0  0
   -6.2398   23.5569  -32.2050 H   0  0  0  0  0  0  0  0  0  0  0  0
   -8.5356   24.4548  -31.8794 H   0  0  0  0  0  0  0  0  0  0  0  0
  -10.4880   22.9118  -31.8478 H   0  0  0  0  0  0  0  0  0  0  0  0
  -10.1512   20.4624  -32.0945 H   0  0  0  0  0  0  0  0  0  0  0  0
   -8.8741   18.2540  -30.8004 H   0  0  0  0  0  0  0  0  0  0  0  0
   -9.7997   18.6365  -32.2916 H   0  0  0  0  0  0  0  0  0  0  0  0
   -8.6145   17.2867  -32.2916 H   0  0  0  0  0  0  0  0  0  0  0  0
   -7.2712   16.7134  -33.0879 H   0  0  0  0  0  0  0  0  0  0  0  0
  1  2  1  0
  2  3  2  0
  3  4  1  0
  4  5  1  0
  4  6  2  0
  6  7  1  0
  7  8  1  0
  8  9  1  0
  9 10  1  0
 10 11  1  0
 11 12  1  0
 11 13  1  0
  7 14  2  0
 14 15  1  0
 15 16  2  0
 16 17  1  0
 17 18  2  0
 18 19  1  0
 19 20  2  0
 20 21  1  0
 20 22  1  0
 22 23  2  0
 23  2  1  0
 22  6  1  0
 19 14  1  0
  1 24  1  0
  1 25  1  0
  1 26  1  0
  3 27  1  0
  8 28  1  0
  9 29  1  0
  9 30  1  0
 10 31  1  0
 10 32  1  0
 12 33  1  0
 12 34  1  0
 12 35  1  0
 13 36  1  0
 13 37  1  0
 13 38  1  0
 15 39  1  0
 16 40  1  0
 17 41  1  0
 18 42  1  0
 21 43  1  0
 21 44  1  0
 21 45  1  0
 23 46  1  0
M  CHG  1  20   1
M  END
>  <UniqueID>  (25) 
25

>  <SMILES>  (25) 
Cc1cc(Br)c2c(NCCN(C)C)c3ccccc3[n+](C)c2c1

>  <Energy>  (25) 
79.12586510691406

>  <Genealogy>  (25) 
Cc1cc(Br)c2c(NCCN(C)C)c3ccccc3[n+](C)c2c1 (3D coordinates assigned)
Cc1cc(Br)c2c(NCCN(C)C)c3ccccc3[n+](C)c2c1 (optimized conformer: 79.12586510691406 kcal/mol)

>  <smiles>  (25) 
Cc1cc(Br)c2c(NCCN(C)C)c3ccccc3[n+](C)c2c1

>  <score_type>  (25) 
oracle

>  <origin>  (25) 
adg

>  <m_score__min__energy>  (25) 
-8.2400000000000002

>  <m_primary>  (25) 
energy

$$$$
25:0
     RDKit          3D

 44 45  0  0  0  0  0  0  0  0999 V2000
   -6.3480   17.4350  -31.7580 C   0  0  0  0  0  0  0  0  0  0  0  0
   -6.5590   17.4340  -33.2690 C   0  0  0  0  0  0  0  0  0  0  0  0
   -6.5070   18.8370  -33.8030 C   0  0  0  0  0  0  0  0  0  0  0  0
   -6.0350   19.0400  -34.9540 O   0  0  0  0  0  0  0  0  0  0  0  0
   -7.1260   19.9220  -33.0970 N   0  0  0  0  0  0  0  0  0  0  0  0
   -8.5480   19.9410  -32.7530 C   0  0  0  0  0  0  0  0  0  0  0  0
   -8.7160   21.0530  -31.6890 C   0  0  0  0  0  0  0  0  0  0  0  0
   -7.3430   21.6150  -31.5580 C   0  0  0  0  0  0  0  0  0  0  0  0
   -6.9280   22.6850  -30.7660 C   0  0  0  0  0  0  0  0  0  0  0  0
   -5.5800   23.0890  -30.8260 C   0  0  0  0  0  0  0  0  0  0  0  0
   -5.0160   24.4290  -29.8240 S   0  0  0  0  0  0  0  0  0  0  0  0
   -6.1430   25.4130  -29.6850 O   0  0  0  0  0  0  0  0  0  0  0  0
   -3.8840   25.1300  -30.5240 O   0  0  0  0  0  0  0  0  0  0  0  0
   -4.5000   23.9250  -28.2240 N   0  0  0  0  0  0  0  0  0  0  0  0
   -4.5560   22.4520  -28.0970 C   0  0  0  0  0  0  0  0  0  0  0  0
   -3.1930   21.7890  -28.3270 C   0  0  0  0  0  0  0  0  0  0  0  0
   -3.2060   24.5430  -27.8270 C   0  0  0  0  0  0  0  0  0  0  0  0
   -3.1000   24.9580  -26.3530 C   0  0  0  0  0  0  0  0  0  0  0  0
   -4.6960   22.4420  -31.7210 C   0  0  0  0  0  0  0  0  0  0  0  0
   -5.1420   21.3680  -32.5070 C   0  0  0  0  0  0  0  0  0  0  0  0
   -6.4700   20.9510  -32.3750 C   0  0  0  0  0  0  0  0  0  0  0  0
   -7.3244   17.4304  -31.2514 H   0  0  0  0  0  0  0  0  0  0  0  0
   -5.7795   16.5395  -31.4666 H   0  0  0  0  0  0  0  0  0  0  0  0
   -5.7880   18.3358  -31.4666 H   0  0  0  0  0  0  0  0  0  0  0  0
   -5.7691   16.8348  -33.7454 H   0  0  0  0  0  0  0  0  0  0  0  0
   -7.5457   17.0022  -33.4925 H   0  0  0  0  0  0  0  0  0  0  0  0
   -9.1533   20.1690  -33.6427 H   0  0  0  0  0  0  0  0  0  0  0  0
   -8.8829   18.9651  -32.3715 H   0  0  0  0  0  0  0  0  0  0  0  0
   -9.4249   21.8214  -32.0311 H   0  0  0  0  0  0  0  0  0  0  0  0
   -9.1198   20.6789  -30.7366 H   0  0  0  0  0  0  0  0  0  0  0  0
   -7.6398   23.2037  -30.1069 H   0  0  0  0  0  0  0  0  0  0  0  0
   -5.2240   24.3200  -27.5780 H   0  0  0  0  0  0  0  0  0  0  0  0
   -4.9050   22.1985  -27.0851 H   0  0  0  0  0  0  0  0  0  0  0  0
   -5.2440   22.0766  -28.8689 H   0  0  0  0  0  0  0  0  0  0  0  0
   -2.7271   21.5624  -27.3567 H   0  0  0  0  0  0  0  0  0  0  0  0
   -3.3298   20.8568  -28.8947 H   0  0  0  0  0  0  0  0  0  0  0  0
   -2.5441   22.4721  -28.8947 H   0  0  0  0  0  0  0  0  0  0  0  0
   -2.4056   23.8173  -28.0337 H   0  0  0  0  0  0  0  0  0  0  0  0
   -3.1218   25.4717  -28.4104 H   0  0  0  0  0  0  0  0  0  0  0  0
   -3.3211   24.0922  -25.7115 H   0  0  0  0  0  0  0  0  0  0  0  0
   -2.0812   25.3173  -26.1456 H   0  0  0  0  0  0  0  0  0  0  0  0
   -3.8217   25.7619  -26.1456 H   0  0  0  0  0  0  0  0  0  0  0  0
   -3.6531   22.7825  -31.8014 H   0  0  0  0  0  0  0  0  0  0  0  0
   -4.4621   20.8658  -33.2109 H   0  0  0  0  0  0  0  0  0  0  0  0
  1  2  1  0
  2  3  1  0
  3  4  2  0
  3  5  1  0
  5  6  1  0
  6  7  1  0
  7  8  1  0
  8  9  2  0
  9 10  1  0
 10 11  1  0
 11 12  2  0
 11 13  2  0
 11 14  1  0
 14 15  1  0
 15 16  1  0
 14 17  1  0
 17 18  1  0
 10 19  2  0
 19 20  1  0
 20 21  2  0
 21  5  1  0
 21  8  1  0
  1 22  1  0
  1 23  1  0
  1 24  1  0
  2 25  1  0
  2 26  1  0
  6 27  1  0
  6 28  1  0
  7 29  1  0
  7 30  1  0
  9 31  1  0
 14 32  1  0
 15 33  1  0
 15 34  1  0
 16 35  1  0
 16 36  1  0
 16 37  1  0
 17 38  1  0
 17 39  1  0
 18 40  1  0
 18 41  1  0
 18 42  1  0
 19 43  1  0
 20 44  1  0
M  CHG  1  14   1
M  END
>  <UniqueID>  (26) 
26

>  <SMILES>  (26) 
CCC(=O)N1CCc2cc(S(=O)(=O)[NH+](CC)CC)ccc21

>  <Energy>  (26) 
59.45888211600877

>  <Genealogy>  (26) 
CCC(=O)N1CCc2cc(S(=O)(=O)[NH+](CC)CC)ccc21 (protonated)
CCC(=O)N1CCc2cc(S(=O)(=O)[NH+](CC)CC)ccc21 (3D coordinates assigned)
CCC(=O)N1CCc2cc(S(=O)(=O)[NH+](CC)CC)ccc21 (nonaromatic ring conformer: 59.45888211600877 kcal/mol)

>  <smiles>  (26) 
CCC(=O)N1CCc2cc(S(=O)(=O)N(CC)CC)ccc21

>  <score_type>  (26) 
oracle

>  <origin>  (26) 
adg

>  <m_score__min__energy>  (26) 
-7.6900000000000004

>  <m_primary>  (26) 
energy

$$$$
