0:0
     RDKit          3D

 73 75  0  0  0  0  0  0  0  0999 V2000
   -3.6750   16.2760  -35.3090 C   0  0  0  0  0  0  0  0  0  0  0  0
   -3.5590   16.2950  -33.7810 C   0  0  0  0  0  0  0  0  0  0  0  0
   -4.4170   17.3380  -33.1540 N   0  0  0  0  0  0  0  0  0  0  0  0
   -5.7220   16.7630  -32.6990 C   0  0  0  0  0  0  0  0  0  0  0  0
   -6.8290   16.9390  -33.7430 C   0  0  0  0  0  0  0  0  0  0  0  0
   -4.6630   18.4620  -34.1000 C   0  0  0  0  0  0  0  0  0  0  0  0
   -4.0800   19.8060  -33.6170 C   0  0  0  0  0  0  0  0  0  0  0  0
   -4.2540   19.9620  -32.1720 N   0  0  0  0  0  0  0  0  0  0  0  0
   -5.0060   21.0480  -31.6030 C   0  0  0  0  0  0  0  0  0  0  0  0
   -6.4100   21.0310  -31.6550 C   0  0  0  0  0  0  0  0  0  0  0  0
   -7.1000   19.9180  -32.1820 C   0  0  0  0  0  0  0  0  0  0  0  0
   -8.4920   19.8880  -32.2020 C   0  0  0  0  0  0  0  0  0  0  0  0
   -9.2180   20.9530  -31.6840 C   0  0  0  0  0  0  0  0  0  0  0  0
   -8.5590   22.0680  -31.1670 C   0  0  0  0  0  0  0  0  0  0  0  0
   -7.1420   22.1480  -31.1720 C   0  0  0  0  0  0  0  0  0  0  0  0
   -6.4740   23.2720  -30.7210 N   0  0  0  0  0  0  0  0  0  0  0  0
   -7.2110   24.5390  -30.5130 C   0  0  0  0  0  0  0  0  0  0  0  0
   -5.1090   23.2190  -30.4920 C   0  0  0  0  0  0  0  0  0  0  0  0
   -4.4330   24.2460  -29.7860 C   0  0  0  0  0  0  0  0  0  0  0  0
   -3.0370   24.2270  -29.6240 C   0  0  0  0  0  0  0  0  0  0  0  0
   -2.3340   25.2750  -29.0010 O   0  0  0  0  0  0  0  0  0  0  0  0
   -1.3480   25.1380  -27.9750 C   0  0  0  0  0  0  0  0  0  0  0  0
   -1.9220   25.5640  -26.6020 C   0  0  0  0  0  0  0  0  0  0  0  0
   -0.9040   25.7770  -25.5250 N   0  0  0  0  0  0  0  0  0  0  0  0
    0.3320   26.3040  -26.1540 C   0  0  0  0  0  0  0  0  0  0  0  0
   -0.5700   24.4970  -24.8510 C   0  0  0  0  0  0  0  0  0  0  0  0
   -1.3700   26.7630  -24.5190 C   0  0  0  0  0  0  0  0  0  0  0  0
   -2.3020   23.1320  -30.0810 C   0  0  0  0  0  0  0  0  0  0  0  0
   -0.9110   23.1310  -29.8790 O   0  0  0  0  0  0  0  0  0  0  0  0
   -0.2050   22.1710  -29.1030 C   0  0  0  0  0  0  0  0  0  0  0  0
   -2.9630   22.0690  -30.7140 C   0  0  0  0  0  0  0  0  0  0  0  0
   -4.3520   22.1110  -30.9490 C   0  0  0  0  0  0  0  0  0  0  0  0
   -4.7232   16.1043  -35.5950 H   0  0  0  0  0  0  0  0  0  0  0  0
   -3.3377   17.2414  -35.7144 H   0  0  0  0  0  0  0  0  0  0  0  0
   -3.0474   15.4687  -35.7144 H   0  0  0  0  0  0  0  0  0  0  0  0
   -3.8603   15.3109  -33.3927 H   0  0  0  0  0  0  0  0  0  0  0  0
   -2.5139   16.5282  -33.5293 H   0  0  0  0  0  0  0  0  0  0  0  0
   -3.8990   17.7360  -32.3340 H   0  0  0  0  0  0  0  0  0  0  0  0
   -5.5868   15.6889  -32.5041 H   0  0  0  0  0  0  0  0  0  0  0  0
   -6.0282   17.3003  -31.7893 H   0  0  0  0  0  0  0  0  0  0  0  0
   -7.7921   17.0921  -33.2340 H   0  0  0  0  0  0  0  0  0  0  0  0
   -6.6039   17.8126  -34.3724 H   0  0  0  0  0  0  0  0  0  0  0  0
   -6.8860   16.0386  -34.3724 H   0  0  0  0  0  0  0  0  0  0  0  0
   -4.2045   18.2104  -35.0677 H   0  0  0  0  0  0  0  0  0  0  0  0
   -5.7528   18.5892  -34.1777 H   0  0  0  0  0  0  0  0  0  0  0  0
   -3.0069   19.8397  -33.8562 H   0  0  0  0  0  0  0  0  0  0  0  0
   -4.6129   20.6231  -34.1253 H   0  0  0  0  0  0  0  0  0  0  0  0
   -3.8600   19.2340  -31.5320 H   0  0  0  0  0  0  0  0  0  0  0  0
   -6.5318   19.0649  -32.5813 H   0  0  0  0  0  0  0  0  0  0  0  0
   -9.0170   19.0204  -32.6282 H   0  0  0  0  0  0  0  0  0  0  0  0
  -10.3174   20.9167  -31.6816 H   0  0  0  0  0  0  0  0  0  0  0  0
   -9.1467   22.8985  -30.7488 H   0  0  0  0  0  0  0  0  0  0  0  0
   -7.3203   24.7268  -29.4347 H   0  0  0  0  0  0  0  0  0  0  0  0
   -6.6538   25.3674  -30.9749 H   0  0  0  0  0  0  0  0  0  0  0  0
   -8.2065   24.4642  -30.9749 H   0  0  0  0  0  0  0  0  0  0  0  0
   -5.0135   25.0754  -29.3558 H   0  0  0  0  0  0  0  0  0  0  0  0
   -1.0266   24.0874  -27.9214 H   0  0  0  0  0  0  0  0  0  0  0  0
   -0.4938   25.7873  -28.2173 H   0  0  0  0  0  0  0  0  0  0  0  0
   -2.4731   26.5058  -26.7407 H   0  0  0  0  0  0  0  0  0  0  0  0
   -2.5554   24.7307  -26.2636 H   0  0  0  0  0  0  0  0  0  0  0  0
    1.0419   26.6067  -25.3702 H   0  0  0  0  0  0  0  0  0  0  0  0
    0.7875   25.5218  -26.7791 H   0  0  0  0  0  0  0  0  0  0  0  0
    0.0830   27.1742  -26.7791 H   0  0  0  0  0  0  0  0  0  0  0  0
   -0.6064   24.6364  -23.7605 H   0  0  0  0  0  0  0  0  0  0  0  0
   -1.2971   23.7263  -25.1466 H   0  0  0  0  0  0  0  0  0  0  0  0
    0.4410   24.1799  -25.1466 H   0  0  0  0  0  0  0  0  0  0  0  0
   -1.1847   26.3709  -23.5081 H   0  0  0  0  0  0  0  0  0  0  0  0
   -0.8234   27.7083  -24.6515 H   0  0  0  0  0  0  0  0  0  0  0  0
   -2.4474   26.9408  -24.6515 H   0  0  0  0  0  0  0  0  0  0  0  0
   -0.3583   22.3794  -28.0338 H   0  0  0  0  0  0  0  0  0  0  0  0
   -0.5789   21.1634  -29.3374 H   0  0  0  0  0  0  0  0  0  0  0  0
    0.8682   22.2276  -29.3374 H   0  0  0  0  0  0  0  0  0  0  0  0
   -2.3873   21.1874  -31.0325 H   0  0  0  0  0  0  0  0  0  0  0  0
  1  2  1  0
  2  3  1  0
  3  4  1  0
  4  5  1  0
  3  6  1  0
  6  7  1  0
  7  8  1  0
  8  9  1  0
  9 10  2  0
 10 11  1  0
 11 12  2  0
 12 13  1  0
 13 14  2  0
 14 15  1  0
 15 16  2  0
 16 17  1  0
 16 18  1  0
 18 19  2  0
 19 20  1  0
 20 21  1  0
 21 22  1  0
 22 23  1  0
 23 24  1  0
 24 25  1  0
 24 26  1  0
 24 27  1  0
 20 28  2  0
 28 29  1  0
 29 30  1  0
 28 31  1  0
 31 32  2  0
 32  9  1  0
 15 10  1  0
 32 18  1  0
  1 33  1  0
  1 34  1  0
  1 35  1  0
  2 36  1  0
  2 37  1  0
  3 38  1  0
  4 39  1  0
  4 40  1  0
  5 41  1  0
  5 42  1  0
  5 43  1  0
  6 44  1  0
  6 45  1  0
  7 46  1  0
  7 47  1  0
  8 48  1  0
 11 49  1  0
 12 50  1  0
 13 51  1  0
 14 52  1  0
 17 53  1  0
 17 54  1  0
 17 55  1  0
 19 56  1  0
 22 57  1  0
 22 58  1  0
 23 59  1  0
 23 60  1  0
 25 61  1  0
 25 62  1  0
 25 63  1  0
 26 64  1  0
 26 65  1  0
 26 66  1  0
 27 67  1  0
 27 68  1  0
 27 69  1  0
 30 70  1  0
 30 71  1  0
 30 72  1  0
 31 73  1  0
M  CHG  3   3   1  16   1  24   1
M  END
>  <UniqueID>  (1) 
1

>  <SMILES>  (1) 
CC[NH+](CC)CCNc1c2ccccc2[n+](C)c2cc(OCC[N+](C)(C)C)c(OC)cc12

>  <Energy>  (1) 
107.882886257981

>  <Genealogy>  (1) 
CC[NH+](CC)CCNc1c2ccccc2[n+](C)c2cc(OCC[N+](C)(C)C)c(OC)cc12 (protonated)
CC[NH+](CC)CCNc1c2ccccc2[n+](C)c2cc(OCC[N+](C)(C)C)c(OC)cc12 (3D coordinates assigned)
CC[NH+](CC)CCNc1c2ccccc2[n+](C)c2cc(OCC[N+](C)(C)C)c(OC)cc12 (optimized conformer: 107.882886257981 kcal/mol)

>  <smiles>  (1) 
CCN(CC)CCNc1c2ccccc2[n+](C)c2cc(OCC[N+](C)(C)C)c(OC)cc12

>  <score_type>  (1) 
oracle

>  <origin>  (1) 
adg

>  <m_score__min__energy>  (1) 
-7.21

>  <m_primary>  (1) 
energy

$$$$
1:0
     RDKit          3D

 58 61  0  0  0  0  0  0  0  0999 V2000
   -4.8710   19.6710  -33.8510 C   0  0  0  0  0  0  0  0  0  0  0  0
   -6.1710   19.3690  -33.1550 C   0  0  0  0  0  0  0  0  0  0  0  0
   -7.0240   20.4350  -32.8230 C   0  0  0  0  0  0  0  0  0  0  0  0
   -8.2440   20.2050  -32.1690 C   0  0  0  0  0  0  0  0  0  0  0  0
   -9.1540   21.3590  -31.8240 C   0  0  0  0  0  0  0  0  0  0  0  0
   -8.4460   22.5180  -31.2420 N   0  0  0  0  0  0  0  0  0  0  0  0
   -8.0600   23.6040  -32.1610 C   0  0  0  0  0  0  0  0  0  0  0  0
   -6.6080   23.5010  -32.6500 C   0  0  0  0  0  0  0  0  0  0  0  0
   -5.5740   23.1990  -31.5510 C   0  0  0  0  0  0  0  0  0  0  0  0
   -5.0210   24.4480  -30.9460 N   0  0  0  0  0  0  0  0  0  0  0  0
   -5.9940   25.3120  -30.2580 C   0  0  0  0  0  0  0  0  0  0  0  0
   -3.8870   24.1620  -30.0480 C   0  0  0  0  0  0  0  0  0  0  0  0
   -6.0560   22.1200  -30.5520 C   0  0  0  0  0  0  0  0  0  0  0  0
   -7.5270   22.2540  -30.1210 C   0  0  0  0  0  0  0  0  0  0  0  0
   -8.6310   18.8890  -31.8840 C   0  0  0  0  0  0  0  0  0  0  0  0
   -7.7870   17.8230  -32.1940 C   0  0  0  0  0  0  0  0  0  0  0  0
   -6.5470   18.0470  -32.8130 C   0  0  0  0  0  0  0  0  0  0  0  0
   -5.6660   16.8890  -33.0780 C   0  0  0  0  0  0  0  0  0  0  0  0
   -4.3250   16.7670  -32.7230 C   0  0  0  0  0  0  0  0  0  0  0  0
   -3.8550   15.5500  -33.0830 N   0  0  0  0  0  0  0  0  0  0  0  0
   -2.5010   15.0470  -32.8690 C   0  0  0  0  0  0  0  0  0  0  0  0
   -4.8860   14.8950  -33.6550 C   0  0  0  0  0  0  0  0  0  0  0  0
   -4.8940   13.6040  -34.1880 C   0  0  0  0  0  0  0  0  0  0  0  0
   -6.0940   13.1290  -34.7460 C   0  0  0  0  0  0  0  0  0  0  0  0
   -7.2470   13.9440  -34.7630 C   0  0  0  0  0  0  0  0  0  0  0  0
   -7.2120   15.2410  -34.2200 C   0  0  0  0  0  0  0  0  0  0  0  0
   -6.0110   15.6830  -33.6650 C   0  0  0  0  0  0  0  0  0  0  0  0
   -4.0872   19.8531  -33.1010 H   0  0  0  0  0  0  0  0  0  0  0  0
   -4.5846   18.8155  -34.4803 H   0  0  0  0  0  0  0  0  0  0  0  0
   -4.9911   20.5652  -34.4803 H   0  0  0  0  0  0  0  0  0  0  0  0
   -6.7314   21.4639  -33.0793 H   0  0  0  0  0  0  0  0  0  0  0  0
   -9.6623   21.6876  -32.7425 H   0  0  0  0  0  0  0  0  0  0  0  0
   -9.8595   20.9964  -31.0619 H   0  0  0  0  0  0  0  0  0  0  0  0
   -8.7258   23.5735  -33.0361 H   0  0  0  0  0  0  0  0  0  0  0  0
   -8.1491   24.5483  -31.6039 H   0  0  0  0  0  0  0  0  0  0  0  0
   -6.5558   22.6967  -33.3986 H   0  0  0  0  0  0  0  0  0  0  0  0
   -6.3479   24.4902  -33.0548 H   0  0  0  0  0  0  0  0  0  0  0  0
   -4.7042   22.7238  -32.0281 H   0  0  0  0  0  0  0  0  0  0  0  0
   -5.8739   25.2054  -29.1698 H   0  0  0  0  0  0  0  0  0  0  0  0
   -5.8213   26.3597  -30.5450 H   0  0  0  0  0  0  0  0  0  0  0  0
   -7.0140   25.0166  -30.5450 H   0  0  0  0  0  0  0  0  0  0  0  0
   -4.2174   24.2453  -29.0021 H   0  0  0  0  0  0  0  0  0  0  0  0
   -3.5184   23.1428  -30.2360 H   0  0  0  0  0  0  0  0  0  0  0  0
   -3.0792   24.8845  -30.2360 H   0  0  0  0  0  0  0  0  0  0  0  0
   -5.9253   21.1344  -31.0227 H   0  0  0  0  0  0  0  0  0  0  0  0
   -5.4525   22.2481  -29.6413 H   0  0  0  0  0  0  0  0  0  0  0  0
   -7.8335   21.3172  -29.6327 H   0  0  0  0  0  0  0  0  0  0  0  0
   -7.5880   23.1175  -29.4423 H   0  0  0  0  0  0  0  0  0  0  0  0
   -9.6061   18.6955  -31.4131 H   0  0  0  0  0  0  0  0  0  0  0  0
   -8.0961   16.7957  -31.9509 H   0  0  0  0  0  0  0  0  0  0  0  0
   -3.7331   17.5473  -32.2222 H   0  0  0  0  0  0  0  0  0  0  0  0
   -2.3035   14.9736  -31.7894 H   0  0  0  0  0  0  0  0  0  0  0  0
   -2.4025   14.0523  -33.3282 H   0  0  0  0  0  0  0  0  0  0  0  0
   -1.7770   15.7362  -33.3282 H   0  0  0  0  0  0  0  0  0  0  0  0
   -3.9895   12.9782  -34.1717 H   0  0  0  0  0  0  0  0  0  0  0  0
   -6.1349   12.1157  -35.1721 H   0  0  0  0  0  0  0  0  0  0  0  0
   -8.1794   13.5617  -35.2041 H   0  0  0  0  0  0  0  0  0  0  0  0
   -8.1030   15.8860  -34.2326 H   0  0  0  0  0  0  0  0  0  0  0  0
  1  2  1  0
  2  3  2  0
  3  4  1  0
  4  5  1  0
  5  6  1  0
  6  7  1  0
  7  8  1  0
  8  9  1  0
  9 10  1  0
 10 11  1  0
 10 12  1  0
  9 13  1  0
 13 14  1  0
  4 15  2  0
 15 16  1  0
 16 17  2  0
 17 18  1  0
 18 19  2  0
 19 20  1  0
 20 21  1  0
 20 22  1  0
 22 23  2  0
 23 24  1  0
 24 25  2  0
 25 26  1  0
 26 27  2  0
 17  2  1  0
 27 18  1  0
 14  6  1  0
 27 22  1  0
  1 28  1  0
  1 29  1  0
  1 30  1  0
  3 31  1  0
  5 32  1  0
  5 33  1  0
  7 34  1  0
  7 35  1  0
  8 36  1  0
  8 37  1  0
  9 38  1  0
 11 39  1  0
 11 40  1  0
 11 41  1  0
 12 42  1  0
 12 43  1  0
 12 44  1  0
 13 45  1  0
 13 46  1  0
 14 47  1  0
 14 48  1  0
 15 49  1  0
 16 50  1  0
 19 51  1  0
 21 52  1  0
 21 53  1  0
 21 54  1  0
 23 55  1  0
 24 56  1  0
 25 57  1  0
 26 58  1  0
M  END
>  <UniqueID>  (2) 
2

>  <SMILES>  (2) 
Cc1cc(CN2CCC(N(C)C)CC2)ccc1-c1cn(C)c2ccccc12

>  <Energy>  (2) 
117.99420428050699

>  <Genealogy>  (2) 
Cc1cc(CN2CCC(N(C)C)CC2)ccc1-c1cn(C)c2ccccc12 (3D coordinates assigned)
Cc1cc(CN2CCC(N(C)C)CC2)ccc1-c1cn(C)c2ccccc12 (nonaromatic ring conformer: 117.99420428050699 kcal/mol)

>  <smiles>  (2) 
Cc1cc(CN2CCC(N(C)C)CC2)ccc1-c1cn(C)c2ccccc12

>  <score_type>  (2) 
oracle

>  <origin>  (2) 
adg

>  <m_score__min__energy>  (2) 
-9.3599999999999994

>  <m_primary>  (2) 
energy

$$$$
2:0
     RDKit          3D

 35 36  0  0  0  0  0  0  0  0999 V2000
   -8.5460   18.2870  -31.7660 C   0  0  0  0  0  0  0  0  0  0  0  0
   -7.0490   18.3250  -32.0470 C   0  0  0  0  0  0  0  0  0  0  0  0
   -6.7060   19.4890  -32.8740 N   0  0  0  0  0  0  0  0  0  0  0  0
   -6.1250   19.3010  -34.2080 C   0  0  0  0  0  0  0  0  0  0  0  0
   -5.7430   17.8400  -34.4240 C   0  0  0  0  0  0  0  0  0  0  0  0
   -6.7050   20.8050  -32.2900 C   0  0  0  0  0  0  0  0  0  0  0  0
   -7.9370   21.4410  -32.0970 C   0  0  0  0  0  0  0  0  0  0  0  0
   -7.9910   22.6930  -31.5060 C   0  0  0  0  0  0  0  0  0  0  0  0
   -6.8150   23.3160  -31.0940 C   0  0  0  0  0  0  0  0  0  0  0  0
   -6.8690   24.5780  -30.4800 C   0  0  0  0  0  0  0  0  0  0  0  0
   -5.6980   25.2030  -30.0560 C   0  0  0  0  0  0  0  0  0  0  0  0
   -4.4670   24.5760  -30.2350 C   0  0  0  0  0  0  0  0  0  0  0  0
   -4.3960   23.3200  -30.8440 C   0  0  0  0  0  0  0  0  0  0  0  0
   -5.5700   22.6630  -31.2930 C   0  0  0  0  0  0  0  0  0  0  0  0
   -5.5320   21.4230  -31.9070 N   0  0  0  0  0  0  0  0  0  0  0  0
   -4.2330   20.7670  -32.1650 C   0  0  0  0  0  0  0  0  0  0  0  0
   -8.7150   18.2827  -30.6791 H   0  0  0  0  0  0  0  0  0  0  0  0
   -9.0247   19.1733  -32.2080 H   0  0  0  0  0  0  0  0  0  0  0  0
   -8.9791   17.3776  -32.2080 H   0  0  0  0  0  0  0  0  0  0  0  0
   -6.5040   18.3862  -31.0935 H   0  0  0  0  0  0  0  0  0  0  0  0
   -6.7674   17.4103  -32.5893 H   0  0  0  0  0  0  0  0  0  0  0  0
   -6.8616   19.5987  -34.9688 H   0  0  0  0  0  0  0  0  0  0  0  0
   -5.2204   19.9212  -34.2924 H   0  0  0  0  0  0  0  0  0  0  0  0
   -5.6140   17.3468  -33.4493 H   0  0  0  0  0  0  0  0  0  0  0  0
   -6.5387   17.3327  -34.9892 H   0  0  0  0  0  0  0  0  0  0  0  0
   -4.8008   17.7871  -34.9892 H   0  0  0  0  0  0  0  0  0  0  0  0
   -8.8656   20.9450  -32.4157 H   0  0  0  0  0  0  0  0  0  0  0  0
   -8.9598   23.1937  -31.3625 H   0  0  0  0  0  0  0  0  0  0  0  0
   -7.8393   25.0749  -30.3333 H   0  0  0  0  0  0  0  0  0  0  0  0
   -5.7457   26.1931  -29.5792 H   0  0  0  0  0  0  0  0  0  0  0  0
   -3.5459   25.0721  -29.8952 H   0  0  0  0  0  0  0  0  0  0  0  0
   -3.4176   22.8351  -30.9767 H   0  0  0  0  0  0  0  0  0  0  0  0
   -3.7491   20.5226  -31.2078 H   0  0  0  0  0  0  0  0  0  0  0  0
   -4.3964   19.8433  -32.7396 H   0  0  0  0  0  0  0  0  0  0  0  0
   -3.5867   21.4468  -32.7396 H   0  0  0  0  0  0  0  0  0  0  0  0
  1  2  1  0
  2  3  1  0
  3  4  1  0
  4  5  1  0
  3  6  1  0
  6  7  2  0
  7  8  1  0
  8  9  2  0
  9 10  1  0
 10 11  2  0
 11 12  1  0
 12 13  2  0
 13 14  1  0
 14 15  2  0
 15 16  1  0
 15  6  1  0
 14  9  1  0
  1 17  1  0
  1 18  1  0
  1 19  1  0
  2 20  1  0
  2 21  1  0
  4 22  1  0
  4 23  1  0
  5 24  1  0
  5 25  1  0
  5 26  1  0
  7 27  1  0
  8 28  1  0
 10 29  1  0
 11 30  1  0
 12 31  1  0
 13 32  1  0
 16 33  1  0
 16 34  1  0
 16 35  1  0
M  CHG  1  15   1
M  END
>  <UniqueID>  (3) 
3

>  <SMILES>  (3) 
CCN(CC)c1ccc2ccccc2[n+]1C

>  <Energy>  (3) 
42.28476406069884

>  <Genealogy>  (3) 
CCN(CC)c1ccc2ccccc2[n+]1C (3D coordinates assigned)
CCN(CC)c1ccc2ccccc2[n+]1C (optimized conformer: 42.28476406069884 kcal/mol)

>  <smiles>  (3) 
CCN(CC)c1ccc2ccccc2[n+]1C

>  <score_type>  (3) 
oracle

>  <origin>  (3) 
adg

>  <m_score__min__energy>  (3) 
-5.8099999999999996

>  <m_primary>  (3) 
energy

$$$$
3:0
     RDKit          3D

 45 47  0  0  0  0  0  0  0  0999 V2000
   -6.0750   19.2080  -33.9780 C   0  0  0  0  0  0  0  0  0  0  0  0
   -5.9550   20.4330  -33.1200 C   0  0  0  0  0  0  0  0  0  0  0  0
   -4.7700   21.1790  -33.1160 C   0  0  0  0  0  0  0  0  0  0  0  0
   -4.6480   22.3010  -32.2970 C   0  0  0  0  0  0  0  0  0  0  0  0
   -5.7030   22.6980  -31.4590 C   0  0  0  0  0  0  0  0  0  0  0  0
   -5.4950   24.1370  -30.4470 S   0  0  0  0  0  0  0  0  0  0  0  0
   -4.3750   24.9920  -30.9710 O   0  0  0  0  0  0  0  0  0  0  0  0
   -6.7770   24.9220  -30.4680 O   0  0  0  0  0  0  0  0  0  0  0  0
   -5.1100   23.6810  -28.8160 N   0  0  0  0  0  0  0  0  0  0  0  0
   -3.9220   22.9410  -28.5060 C   0  0  0  0  0  0  0  0  0  0  0  0
   -3.6220   21.7980  -29.2620 C   0  0  0  0  0  0  0  0  0  0  0  0
   -2.4980   21.0270  -28.9640 C   0  0  0  0  0  0  0  0  0  0  0  0
   -1.6530   21.3970  -27.9170 C   0  0  0  0  0  0  0  0  0  0  0  0
   -0.1110   20.3420  -27.5160 Br  0  0  0  0  0  0  0  0  0  0  0  0
   -1.9240   22.5480  -27.1730 C   0  0  0  0  0  0  0  0  0  0  0  0
   -3.0550   23.3330  -27.4570 C   0  0  0  0  0  0  0  0  0  0  0  0
   -3.2630   24.6010  -26.7200 C   0  0  0  0  0  0  0  0  0  0  0  0
   -4.4320   24.9090  -26.3620 O   0  0  0  0  0  0  0  0  0  0  0  0
   -2.1410   25.5250  -26.4080 C   0  0  0  0  0  0  0  0  0  0  0  0
   -1.2470   25.9140  -27.4230 C   0  0  0  0  0  0  0  0  0  0  0  0
   -0.1970   26.7940  -27.1440 C   0  0  0  0  0  0  0  0  0  0  0  0
   -0.0310   27.3010  -25.8530 C   0  0  0  0  0  0  0  0  0  0  0  0
   -0.9190   26.9330  -24.8400 C   0  0  0  0  0  0  0  0  0  0  0  0
   -1.9710   26.0540  -25.1140 C   0  0  0  0  0  0  0  0  0  0  0  0
   -6.8840   21.9150  -31.4170 C   0  0  0  0  0  0  0  0  0  0  0  0
   -8.0380   22.2640  -30.5140 C   0  0  0  0  0  0  0  0  0  0  0  0
   -6.9990   20.7960  -32.2590 C   0  0  0  0  0  0  0  0  0  0  0  0
   -6.1621   18.3184  -33.3369 H   0  0  0  0  0  0  0  0  0  0  0  0
   -6.9693   19.2913  -34.6131 H   0  0  0  0  0  0  0  0  0  0  0  0
   -5.1815   19.1162  -34.6131 H   0  0  0  0  0  0  0  0  0  0  0  0
   -3.9317   20.8786  -33.7617 H   0  0  0  0  0  0  0  0  0  0  0  0
   -3.7142   22.8822  -32.3073 H   0  0  0  0  0  0  0  0  0  0  0  0
   -5.5870   24.2020  -28.0470 H   0  0  0  0  0  0  0  0  0  0  0  0
   -4.2778   21.5075  -30.0960 H   0  0  0  0  0  0  0  0  0  0  0  0
   -2.2776   20.1260  -29.5553 H   0  0  0  0  0  0  0  0  0  0  0  0
   -1.2465   22.8425  -26.3580 H   0  0  0  0  0  0  0  0  0  0  0  0
   -1.3753   25.5229  -28.4431 H   0  0  0  0  0  0  0  0  0  0  0  0
    0.4999   27.0877  -27.9428 H   0  0  0  0  0  0  0  0  0  0  0  0
    0.7985   27.9896  -25.6345 H   0  0  0  0  0  0  0  0  0  0  0  0
   -0.7905   27.3356  -23.8244 H   0  0  0  0  0  0  0  0  0  0  0  0
   -2.6710   25.7736  -24.3131 H   0  0  0  0  0  0  0  0  0  0  0  0
   -7.7238   22.1690  -29.4641 H   0  0  0  0  0  0  0  0  0  0  0  0
   -8.3565   23.2986  -30.7092 H   0  0  0  0  0  0  0  0  0  0  0  0
   -8.8765   21.5793  -30.7092 H   0  0  0  0  0  0  0  0  0  0  0  0
   -7.9213   20.1968  -32.2419 H   0  0  0  0  0  0  0  0  0  0  0  0
  1  2  1  0
  2  3  2  0
  3  4  1  0
  4  5  2  0
  5  6  1  0
  6  7  2  0
  6  8  2  0
  6  9  1  0
  9 10  1  0
 10 11  2  0
 11 12  1  0
 12 13  2  0
 13 14  1  0
 13 15  1  0
 15 16  2  0
 16 17  1  0
 17 18  2  0
 17 19  1  0
 19 20  2  0
 20 21  1  0
 21 22  2  0
 22 23  1  0
 23 24  2  0
  5 25  1  0
 25 26  1  0
 25 27  2  0
 27  2  1  0
 16 10  1  0
 24 19  1  0
  1 28  1  0
  1 29  1  0
  1 30  1  0
  3 31  1  0
  4 32  1  0
  9 33  1  0
 11 34  1  0
 12 35  1  0
 15 36  1  0
 20 37  1  0
 21 38  1  0
 22 39  1  0
 23 40  1  0
 24 41  1  0
 26 42  1  0
 26 43  1  0
 26 44  1  0
 27 45  1  0
M  END
>  <UniqueID>  (4) 
4

>  <SMILES>  (4) 
Cc1ccc(S(=O)(=O)Nc2ccc(Br)cc2C(=O)c2ccccc2)c(C)c1

>  <Energy>  (4) 
62.13785663961066

>  <Genealogy>  (4) 
Cc1ccc(S(=O)(=O)Nc2ccc(Br)cc2C(=O)c2ccccc2)c(C)c1 (3D coordinates assigned)
Cc1ccc(S(=O)(=O)Nc2ccc(Br)cc2C(=O)c2ccccc2)c(C)c1 (optimized conformer: 62.13785663961066 kcal/mol)

>  <smiles>  (4) 
Cc1ccc(S(=O)(=O)Nc2ccc(Br)cc2C(=O)c2ccccc2)c(C)c1

>  <score_type>  (4) 
oracle

>  <origin>  (4) 
adg

>  <m_score__min__energy>  (4) 
-11.19

>  <m_primary>  (4) 
energy

$$$$
4:0
     RDKit          3D

 35 37  0  0  0  0  0  0  0  0999 V2000
   -1.0860   23.1440  -29.5570 C   0  0  0  0  0  0  0  0  0  0  0  0
   -1.3010   23.9940  -28.3710 N   0  0  0  0  0  0  0  0  0  0  0  0
   -2.5710   24.1800  -27.8660 C   0  0  0  0  0  0  0  0  0  0  0  0
   -3.7820   23.5040  -28.4570 C   0  0  0  0  0  0  0  0  0  0  0  0
   -4.9060   24.4420  -28.4850 N   0  0  0  0  0  0  0  0  0  0  0  0
   -5.2190   24.9400  -30.1200 S   0  0  0  0  0  0  0  0  0  0  0  0
   -6.1070   26.1520  -30.1180 O   0  0  0  0  0  0  0  0  0  0  0  0
   -3.9220   25.2940  -30.7900 O   0  0  0  0  0  0  0  0  0  0  0  0
   -5.9900   23.6440  -31.0180 C   0  0  0  0  0  0  0  0  0  0  0  0
   -7.3560   23.4350  -31.1180 C   0  0  0  0  0  0  0  0  0  0  0  0
   -7.6820   22.3430  -31.9300 C   0  0  0  0  0  0  0  0  0  0  0  0
   -6.5740   21.7000  -32.4700 C   0  0  0  0  0  0  0  0  0  0  0  0
   -5.1880   22.4910  -31.9380 S   0  0  0  0  0  0  0  0  0  0  0  0
   -2.7630   24.9610  -26.7710 N   0  0  0  0  0  0  0  0  0  0  0  0
   -1.7380   25.6030  -26.1640 C   0  0  0  0  0  0  0  0  0  0  0  0
   -1.9810   26.4020  -25.0400 C   0  0  0  0  0  0  0  0  0  0  0  0
   -0.9250   27.0740  -24.4190 C   0  0  0  0  0  0  0  0  0  0  0  0
    0.3750   26.9500  -24.9170 C   0  0  0  0  0  0  0  0  0  0  0  0
    0.6240   26.1540  -26.0400 C   0  0  0  0  0  0  0  0  0  0  0  0
   -0.4340   25.4720  -26.6710 C   0  0  0  0  0  0  0  0  0  0  0  0
   -0.2390   24.6550  -27.7980 C   0  0  0  0  0  0  0  0  0  0  0  0
    0.9230   24.5360  -28.2820 O   0  0  0  0  0  0  0  0  0  0  0  0
   -0.8281   22.1242  -29.2353 H   0  0  0  0  0  0  0  0  0  0  0  0
   -2.0055   23.1167  -30.1601 H   0  0  0  0  0  0  0  0  0  0  0  0
   -0.2641   23.5572  -30.1601 H   0  0  0  0  0  0  0  0  0  0  0  0
   -3.5539   23.1759  -29.4818 H   0  0  0  0  0  0  0  0  0  0  0  0
   -4.0498   22.6327  -27.8413 H   0  0  0  0  0  0  0  0  0  0  0  0
   -4.6290   25.3000  -27.9530 H   0  0  0  0  0  0  0  0  0  0  0  0
   -8.1054   24.0616  -30.6123 H   0  0  0  0  0  0  0  0  0  0  0  0
   -8.7168   22.0236  -32.1228 H   0  0  0  0  0  0  0  0  0  0  0  0
   -6.5993   20.8226  -33.1329 H   0  0  0  0  0  0  0  0  0  0  0  0
   -3.0032   26.5006  -24.6459 H   0  0  0  0  0  0  0  0  0  0  0  0
   -1.1172   27.7018  -23.5365 H   0  0  0  0  0  0  0  0  0  0  0  0
    1.2041   27.4795  -24.4248 H   0  0  0  0  0  0  0  0  0  0  0  0
    1.6480   26.0607  -26.4308 H   0  0  0  0  0  0  0  0  0  0  0  0
  1  2  1  0
  2  3  1  0
  3  4  1  0
  4  5  1  0
  5  6  1  0
  6  7  2  0
  6  8  2  0
  6  9  1  0
  9 10  2  0
 10 11  1  0
 11 12  2  0
 12 13  1  0
  3 14  2  0
 14 15  1  0
 15 16  2  0
 16 17  1  0
 17 18  2  0
 18 19  1  0
 19 20  2  0
 20 21  1  0
 21 22  2  0
 21  2  1  0
 13  9  1  0
 20 15  1  0
  1 23  1  0
  1 24  1  0
  1 25  1  0
  4 26  1  0
  4 27  1  0
  5 28  1  0
 10 29  1  0
 11 30  1  0
 12 31  1  0
 16 32  1  0
 17 33  1  0
 18 34  1  0
 19 35  1  0
M  END
>  <UniqueID>  (5) 
5

>  <SMILES>  (5) 
Cn1c(CNS(=O)(=O)c2cccs2)nc2ccccc2c1=O

>  <Energy>  (5) 
68.92233281627777

>  <Genealogy>  (5) 
Cn1c(CNS(=O)(=O)c2cccs2)nc2ccccc2c1=O (3D coordinates assigned)
Cn1c(CNS(=O)(=O)c2cccs2)nc2ccccc2c1=O (optimized conformer: 68.92233281627777 kcal/mol)

>  <smiles>  (5) 
Cn1c(CNS(=O)(=O)c2cccs2)nc2ccccc2c1=O

>  <score_type>  (5) 
oracle

>  <origin>  (5) 
adg

>  <m_score__min__energy>  (5) 
-8.6500000000000004

>  <m_primary>  (5) 
energy

$$$$
5:0
     RDKit          3D

 58 60  0  0  0  0  0  0  0  0999 V2000
   -1.2510   28.3020  -34.5920 C   0  0  0  0  0  0  0  0  0  0  0  0
   -0.2390   27.3910  -35.3040 C   0  0  0  0  0  0  0  0  0  0  0  0
   -0.8070   26.6430  -36.4510 N   0  0  0  0  0  0  0  0  0  0  0  0
   -1.5580   27.5270  -37.3630 C   0  0  0  0  0  0  0  0  0  0  0  0
    0.2140   25.8370  -37.1610 C   0  0  0  0  0  0  0  0  0  0  0  0
    0.9970   24.9430  -36.1870 C   0  0  0  0  0  0  0  0  0  0  0  0
    0.9890   23.5930  -36.6100 O   0  0  0  0  0  0  0  0  0  0  0  0
    1.4260   22.7380  -35.5720 C   0  0  0  0  0  0  0  0  0  0  0  0
    0.4520   21.5770  -35.4330 C   0  0  0  0  0  0  0  0  0  0  0  0
   -0.5830   21.9370  -34.5400 O   0  0  0  0  0  0  0  0  0  0  0  0
   -0.5070   21.1730  -33.3510 C   0  0  0  0  0  0  0  0  0  0  0  0
   -1.9040   20.7510  -32.8760 C   0  0  0  0  0  0  0  0  0  0  0  0
   -2.9340   21.1800  -33.8340 N   0  0  0  0  0  0  0  0  0  0  0  0
   -4.2400   20.7030  -33.4190 C   0  0  0  0  0  0  0  0  0  0  0  0
   -5.1520   21.5090  -32.6860 C   0  0  0  0  0  0  0  0  0  0  0  0
   -4.8450   22.8460  -32.3420 C   0  0  0  0  0  0  0  0  0  0  0  0
   -5.7170   23.6030  -31.5630 C   0  0  0  0  0  0  0  0  0  0  0  0
   -6.9060   23.0510  -31.1060 C   0  0  0  0  0  0  0  0  0  0  0  0
   -7.2550   21.7480  -31.4540 C   0  0  0  0  0  0  0  0  0  0  0  0
   -6.4150   20.9570  -32.2800 C   0  0  0  0  0  0  0  0  0  0  0  0
   -6.7910   19.6820  -32.6810 N   0  0  0  0  0  0  0  0  0  0  0  0
   -8.1480   19.1740  -32.3890 C   0  0  0  0  0  0  0  0  0  0  0  0
   -5.8850   18.9030  -33.3620 C   0  0  0  0  0  0  0  0  0  0  0  0
   -6.0600   17.5550  -33.7520 C   0  0  0  0  0  0  0  0  0  0  0  0
   -4.9770   17.0350  -34.4490 C   0  0  0  0  0  0  0  0  0  0  0  0
   -3.7930   18.2230  -34.5720 S   0  0  0  0  0  0  0  0  0  0  0  0
   -4.6490   19.4070  -33.7360 C   0  0  0  0  0  0  0  0  0  0  0  0
   -1.1353   28.1979  -33.5031 H   0  0  0  0  0  0  0  0  0  0  0  0
   -1.0702   29.3477  -34.8816 H   0  0  0  0  0  0  0  0  0  0  0  0
   -2.2720   28.0126  -34.8816 H   0  0  0  0  0  0  0  0  0  0  0  0
    0.5886   28.0146  -35.6729 H   0  0  0  0  0  0  0  0  0  0  0  0
    0.0911   26.6436  -34.5675 H   0  0  0  0  0  0  0  0  0  0  0  0
   -2.1596   28.2352  -36.7744 H   0  0  0  0  0  0  0  0  0  0  0  0
   -0.8526   28.0839  -37.9973 H   0  0  0  0  0  0  0  0  0  0  0  0
   -2.2216   26.9209  -37.9973 H   0  0  0  0  0  0  0  0  0  0  0  0
   -0.2862   25.2019  -37.9069 H   0  0  0  0  0  0  0  0  0  0  0  0
    0.9223   26.5243  -37.6467 H   0  0  0  0  0  0  0  0  0  0  0  0
    2.0375   25.2959  -36.1340 H   0  0  0  0  0  0  0  0  0  0  0  0
    0.5162   25.0006  -35.1993 H   0  0  0  0  0  0  0  0  0  0  0  0
    2.4273   22.3509  -35.8119 H   0  0  0  0  0  0  0  0  0  0  0  0
    1.4686   23.2984  -34.6264 H   0  0  0  0  0  0  0  0  0  0  0  0
    0.0216   21.3392  -36.4170 H   0  0  0  0  0  0  0  0  0  0  0  0
    0.9834   20.6961  -35.0437 H   0  0  0  0  0  0  0  0  0  0  0  0
    0.0955   20.2724  -33.5404 H   0  0  0  0  0  0  0  0  0  0  0  0
   -0.0430   21.7904  -32.5677 H   0  0  0  0  0  0  0  0  0  0  0  0
   -1.9361   19.6558  -32.7786 H   0  0  0  0  0  0  0  0  0  0  0  0
   -2.1051   21.2282  -31.9055 H   0  0  0  0  0  0  0  0  0  0  0  0
   -2.9290   22.2250  -33.8900 H   0  0  0  0  0  0  0  0  0  0  0  0
   -2.7130   20.8530  -34.8020 H   0  0  0  0  0  0  0  0  0  0  0  0
   -3.9044   23.2944  -32.6945 H   0  0  0  0  0  0  0  0  0  0  0  0
   -5.4624   24.6425  -31.3089 H   0  0  0  0  0  0  0  0  0  0  0  0
   -7.5754   23.6450  -30.4664 H   0  0  0  0  0  0  0  0  0  0  0  0
   -8.1994   21.3244  -31.0815 H   0  0  0  0  0  0  0  0  0  0  0  0
   -8.2927   19.1198  -31.2999 H   0  0  0  0  0  0  0  0  0  0  0  0
   -8.8954   19.8532  -32.8249 H   0  0  0  0  0  0  0  0  0  0  0  0
   -8.2657   18.1709  -32.8249 H   0  0  0  0  0  0  0  0  0  0  0  0
   -6.9663   16.9744  -33.5252 H   0  0  0  0  0  0  0  0  0  0  0  0
   -4.9055   16.0147  -34.8537 H   0  0  0  0  0  0  0  0  0  0  0  0
  1  2  1  0
  2  3  1  0
  3  4  1  0
  3  5  1  0
  5  6  1  0
  6  7  1  0
  7  8  1  0
  8  9  1  0
  9 10  1  0
 10 11  1  0
 11 12  1  0
 12 13  1  0
 13 14  1  0
 14 15  2  0
 15 16  1  0
 16 17  2  0
 17 18  1  0
 18 19  2  0
 19 20  1  0
 20 21  2  0
 21 22  1  0
 21 23  1  0
 23 24  1  0
 24 25  2  0
 25 26  1  0
 26 27  1  0
 27 14  1  0
 20 15  1  0
 27 23  2  0
  1 28  1  0
  1 29  1  0
  1 30  1  0
  2 31  1  0
  2 32  1  0
  4 33  1  0
  4 34  1  0
  4 35  1  0
  5 36  1  0
  5 37  1  0
  6 38  1  0
  6 39  1  0
  8 40  1  0
  8 41  1  0
  9 42  1  0
  9 43  1  0
 11 44  1  0
 11 45  1  0
 12 46  1  0
 12 47  1  0
 13 48  1  0
 13 49  1  0
 16 50  1  0
 17 51  1  0
 18 52  1  0
 19 53  1  0
 22 54  1  0
 22 55  1  0
 22 56  1  0
 24 57  1  0
 25 58  1  0
M  CHG  2  13   1  21   1
M  END
>  <UniqueID>  (6) 
6

>  <SMILES>  (6) 
CCN(C)CCOCCOCC[NH2+]c1c2ccccc2[n+](C)c2ccsc12

>  <Energy>  (6) 
107.30843526922226

>  <Genealogy>  (6) 
CCN(C)CCOCCOCC[NH2+]c1c2ccccc2[n+](C)c2ccsc12 (protonated)
CCN(C)CCOCCOCC[NH2+]c1c2ccccc2[n+](C)c2ccsc12 (3D coordinates assigned)
CCN(C)CCOCCOCC[NH2+]c1c2ccccc2[n+](C)c2ccsc12 (optimized conformer: 107.30843526922226 kcal/mol)

>  <smiles>  (6) 
CCN(C)CCOCCOCCNc1c2ccccc2[n+](C)c2ccsc12

>  <score_type>  (6) 
oracle

>  <origin>  (6) 
adg

>  <m_score__min__energy>  (6) 
-8.2300000000000004

>  <m_primary>  (6) 
energy

$$$$
6:0
     RDKit          3D

 71 73  0  0  0  0  0  0  0  0999 V2000
   -5.3660   25.8000  -30.5020 C   0  0  0  0  0  0  0  0  0  0  0  0
   -6.5850   25.2900  -29.7300 C   0  0  0  0  0  0  0  0  0  0  0  0
   -6.7110   23.8210  -29.8000 N   0  0  0  0  0  0  0  0  0  0  0  0
   -7.5370   23.3570  -30.9270 C   0  0  0  0  0  0  0  0  0  0  0  0
   -7.9620   21.8870  -30.7720 C   0  0  0  0  0  0  0  0  0  0  0  0
   -8.7750   21.4210  -31.9850 C   0  0  0  0  0  0  0  0  0  0  0  0
   -9.0980   19.9200  -31.8920 C   0  0  0  0  0  0  0  0  0  0  0  0
   -8.4650   19.1310  -32.9670 N   0  0  0  0  0  0  0  0  0  0  0  0
   -7.4150   18.1890  -32.5280 C   0  0  0  0  0  0  0  0  0  0  0  0
   -6.0790   18.3160  -33.2910 C   0  0  0  0  0  0  0  0  0  0  0  0
   -5.8620   19.6850  -33.9540 C   0  0  0  0  0  0  0  0  0  0  0  0
   -4.8370   20.4660  -33.2510 N   0  0  0  0  0  0  0  0  0  0  0  0
   -5.0850   21.4580  -32.3630 C   0  0  0  0  0  0  0  0  0  0  0  0
   -3.8940   21.9790  -31.8720 C   0  0  0  0  0  0  0  0  0  0  0  0
   -3.7660   23.0480  -30.8260 C   0  0  0  0  0  0  0  0  0  0  0  0
   -3.1030   22.5090  -29.6200 N   0  0  0  0  0  0  0  0  0  0  0  0
   -3.9030   22.6960  -28.3980 C   0  0  0  0  0  0  0  0  0  0  0  0
   -3.9520   24.1650  -27.9530 C   0  0  0  0  0  0  0  0  0  0  0  0
   -2.6140   24.7830  -27.8680 N   0  0  0  0  0  0  0  0  0  0  0  0
   -2.0250   24.9050  -26.5190 C   0  0  0  0  0  0  0  0  0  0  0  0
   -1.4540   26.2910  -26.2180 C   0  0  0  0  0  0  0  0  0  0  0  0
   -1.6800   24.4790  -28.9720 C   0  0  0  0  0  0  0  0  0  0  0  0
   -1.7280   23.0080  -29.4230 C   0  0  0  0  0  0  0  0  0  0  0  0
   -2.8870   21.2540  -32.4790 C   0  0  0  0  0  0  0  0  0  0  0  0
   -1.5000   21.3160  -32.3350 C   0  0  0  0  0  0  0  0  0  0  0  0
   -0.7200   20.4110  -33.0740 C   0  0  0  0  0  0  0  0  0  0  0  0
   -1.3330   19.4670  -33.9240 C   0  0  0  0  0  0  0  0  0  0  0  0
   -2.7330   19.4200  -34.0470 C   0  0  0  0  0  0  0  0  0  0  0  0
   -3.4910   20.3380  -33.3090 C   0  0  0  0  0  0  0  0  0  0  0  0
   -4.5913   26.1241  -29.7915 H   0  0  0  0  0  0  0  0  0  0  0  0
   -4.9686   24.9927  -31.1347 H   0  0  0  0  0  0  0  0  0  0  0  0
   -5.6619   26.6498  -31.1347 H   0  0  0  0  0  0  0  0  0  0  0  0
   -6.4873   25.5879  -28.6756 H   0  0  0  0  0  0  0  0  0  0  0  0
   -7.4839   25.7295  -30.1869 H   0  0  0  0  0  0  0  0  0  0  0  0
   -7.0690   23.4130  -28.9050 H   0  0  0  0  0  0  0  0  0  0  0  0
   -8.4402   23.9823  -30.9848 H   0  0  0  0  0  0  0  0  0  0  0  0
   -6.9333   23.4383  -31.8429 H   0  0  0  0  0  0  0  0  0  0  0  0
   -7.0629   21.2602  -30.6789 H   0  0  0  0  0  0  0  0  0  0  0  0
   -8.5892   21.7958  -29.8729 H   0  0  0  0  0  0  0  0  0  0  0  0
   -9.7161   21.9890  -32.0264 H   0  0  0  0  0  0  0  0  0  0  0  0
   -8.1784   21.5943  -32.8928 H   0  0  0  0  0  0  0  0  0  0  0  0
   -8.7407   19.5430  -30.9223 H   0  0  0  0  0  0  0  0  0  0  0  0
  -10.1873   19.8085  -31.9969 H   0  0  0  0  0  0  0  0  0  0  0  0
   -9.2090   18.6060  -33.4790 H   0  0  0  0  0  0  0  0  0  0  0  0
   -8.0390   19.7920  -33.6580 H   0  0  0  0  0  0  0  0  0  0  0  0
   -7.2188   18.3669  -31.4604 H   0  0  0  0  0  0  0  0  0  0  0  0
   -7.7969   17.1781  -32.7335 H   0  0  0  0  0  0  0  0  0  0  0  0
   -5.2576   18.1425  -32.5802 H   0  0  0  0  0  0  0  0  0  0  0  0
   -6.1048   17.5722  -34.1010 H   0  0  0  0  0  0  0  0  0  0  0  0
   -5.5428   19.5314  -34.9954 H   0  0  0  0  0  0  0  0  0  0  0  0
   -6.8094   20.2425  -33.9134 H   0  0  0  0  0  0  0  0  0  0  0  0
   -6.0881   21.8028  -32.0714 H   0  0  0  0  0  0  0  0  0  0  0  0
   -3.1680   23.8792  -31.2279 H   0  0  0  0  0  0  0  0  0  0  0  0
   -4.7705   23.4038  -30.5532 H   0  0  0  0  0  0  0  0  0  0  0  0
   -4.9293   22.3503  -28.5907 H   0  0  0  0  0  0  0  0  0  0  0  0
   -3.4284   22.1160  -27.5928 H   0  0  0  0  0  0  0  0  0  0  0  0
   -4.5552   24.7316  -28.6776 H   0  0  0  0  0  0  0  0  0  0  0  0
   -4.3928   24.1908  -26.9455 H   0  0  0  0  0  0  0  0  0  0  0  0
   -2.8071   24.6837  -25.7778 H   0  0  0  0  0  0  0  0  0  0  0  0
   -1.1859   24.1954  -26.4704 H   0  0  0  0  0  0  0  0  0  0  0  0
   -1.3948   26.4346  -25.1290 H   0  0  0  0  0  0  0  0  0  0  0  0
   -0.4477   26.3757  -26.6542 H   0  0  0  0  0  0  0  0  0  0  0  0
   -2.1086   27.0599  -26.6542 H   0  0  0  0  0  0  0  0  0  0  0  0
   -1.9361   25.1161  -29.8314 H   0  0  0  0  0  0  0  0  0  0  0  0
   -0.6628   24.6727  -28.6007 H   0  0  0  0  0  0  0  0  0  0  0  0
   -1.1819   22.9149  -30.3733 H   0  0  0  0  0  0  0  0  0  0  0  0
   -1.2705   22.4045  -28.6252 H   0  0  0  0  0  0  0  0  0  0  0  0
   -1.0321   22.0509  -31.6635 H   0  0  0  0  0  0  0  0  0  0  0  0
    0.3764   20.4388  -32.9892 H   0  0  0  0  0  0  0  0  0  0  0  0
   -0.7110   18.7620  -34.4951 H   0  0  0  0  0  0  0  0  0  0  0  0
   -3.2189   18.6835  -34.7039 H   0  0  0  0  0  0  0  0  0  0  0  0
  1  2  1  0
  2  3  1  0
  3  4  1  0
  4  5  1  0
  5  6  1  0
  6  7  1  0
  7  8  1  0
  8  9  1  0
  9 10  1  0
 10 11  1  0
 11 12  1  0
 12 13  1  0
 13 14  2  0
 14 15  1  0
 15 16  1  0
 16 17  1  0
 17 18  1  0
 18 19  1  0
 19 20  1  0
 20 21  1  0
 19 22  1  0
 22 23  1  0
 14 24  1  0
 24 25  2  0
 25 26  1  0
 26 27  2  0
 27 28  1  0
 28 29  2  0
 29 12  1  0
 23 16  1  0
 29 24  1  0
  1 30  1  0
  1 31  1  0
  1 32  1  0
  2 33  1  0
  2 34  1  0
  3 35  1  0
  4 36  1  0
  4 37  1  0
  5 38  1  0
  5 39  1  0
  6 40  1  0
  6 41  1  0
  7 42  1  0
  7 43  1  0
  8 44  1  0
  8 45  1  0
  9 46  1  0
  9 47  1  0
 10 48  1  0
 10 49  1  0
 11 50  1  0
 11 51  1  0
 13 52  1  0
 15 53  1  0
 15 54  1  0
 17 55  1  0
 17 56  1  0
 18 57  1  0
 18 58  1  0
 20 59  1  0
 20 60  1  0
 21 61  1  0
 21 62  1  0
 21 63  1  0
 22 64  1  0
 22 65  1  0
 23 66  1  0
 23 67  1  0
 25 68  1  0
 26 69  1  0
 27 70  1  0
 28 71  1  0
M  CHG  1   8   1
M  END
>  <UniqueID>  (7) 
7

>  <SMILES>  (7) 
CCNCCCC[NH2+]CCCn1cc(CN2CCN(CC)CC2)c2ccccc21

>  <Energy>  (7) 
109.49428477129355

>  <Genealogy>  (7) 
CCNCCCC[NH2+]CCCn1cc(CN2CCN(CC)CC2)c2ccccc21 (protonated)
CCNCCCC[NH2+]CCCn1cc(CN2CCN(CC)CC2)c2ccccc21 (3D coordinates assigned)
CCNCCCC[NH2+]CCCn1cc(CN2CCN(CC)CC2)c2ccccc21 (nonaromatic ring conformer: 109.49428477129355 kcal/mol)

>  <smiles>  (7) 
CCNCCCCNCCCn1cc(CN2CCN(CC)CC2)c2ccccc21

>  <score_type>  (7) 
oracle

>  <origin>  (7) 
adg

>  <m_score__min__energy>  (7) 
-8.8000000000000007

>  <m_primary>  (7) 
energy

$$$$
7:0
     RDKit          3D

 52 53  0  0  0  0  0  0  0  0999 V2000
   -9.6519   20.9107  -31.9841 H   0  0  0  0  0  0  0  0  0  0  0  0
   -8.5550   20.9510  -31.9120 C   0  0  0  0  0  0  0  0  0  0  0  0
   -8.0100   22.0240  -31.3240 C   0  0  0  0  0  0  0  0  0  0  0  0
   -8.1785   22.1617  -30.2457 H   0  0  0  0  0  0  0  0  0  0  0  0
   -7.1770   23.0590  -32.0490 C   0  0  0  0  0  0  0  0  0  0  0  0
   -7.4972   24.0600  -31.7243 H   0  0  0  0  0  0  0  0  0  0  0  0
   -7.3311   22.9155  -33.1287 H   0  0  0  0  0  0  0  0  0  0  0  0
   -5.7240   22.9120  -31.7770 N   0  0  2  0  0  0  0  0  0  0  0  0
   -5.2520   22.7250  -32.6920 H   0  0  0  0  0  0  0  0  0  0  0  0
   -5.4890   21.7520  -30.8700 C   0  0  0  0  0  0  0  0  0  0  0  0
   -5.9493   21.9699  -29.8950 H   0  0  0  0  0  0  0  0  0  0  0  0
   -5.9358   20.8659  -31.3446 H   0  0  0  0  0  0  0  0  0  0  0  0
   -4.0130   21.4590  -30.6550 C   0  0  0  0  0  0  0  0  0  0  0  0
   -3.4900   21.5850  -29.3540 C   0  0  0  0  0  0  0  0  0  0  0  0
   -4.1590   21.8558  -28.5239 H   0  0  0  0  0  0  0  0  0  0  0  0
   -2.1350   21.3710  -29.1040 C   0  0  0  0  0  0  0  0  0  0  0  0
   -1.7409   21.4821  -28.0830 H   0  0  0  0  0  0  0  0  0  0  0  0
   -1.2800   21.0170  -30.1440 C   0  0  0  0  0  0  0  0  0  0  0  0
   -0.2099   20.8570  -29.9457 H   0  0  0  0  0  0  0  0  0  0  0  0
   -1.7800   20.8650  -31.4380 C   0  0  0  0  0  0  0  0  0  0  0  0
   -1.1010   20.5685  -32.2510 H   0  0  0  0  0  0  0  0  0  0  0  0
   -3.1410   21.0860  -31.7160 C   0  0  0  0  0  0  0  0  0  0  0  0
   -3.6220   20.8260  -33.1260 C   0  0  0  0  0  0  0  0  0  0  0  0
   -2.8643   20.2406  -33.6675 H   0  0  0  0  0  0  0  0  0  0  0  0
   -4.5680   20.2660  -33.0880 H   0  0  0  0  0  0  0  0  0  0  0  0
   -3.8410   22.0910  -33.8180 N   0  0  0  0  0  0  0  0  0  0  0  0
   -4.6070   21.9450  -34.5160 H   0  0  0  0  0  0  0  0  0  0  0  0
   -2.9810   22.3210  -34.3660 H   0  0  0  0  0  0  0  0  0  0  0  0
   -5.1880   24.1820  -31.1930 C   0  0  0  0  0  0  0  0  0  0  0  0
   -5.5453   25.0271  -31.7998 H   0  0  0  0  0  0  0  0  0  0  0  0
   -4.0901   24.1139  -31.1987 H   0  0  0  0  0  0  0  0  0  0  0  0
   -5.6380   24.4000  -29.7230 C   0  0  0  0  0  0  0  0  0  0  0  0
   -6.2431   23.5308  -29.4258 H   0  0  0  0  0  0  0  0  0  0  0  0
   -6.4900   25.6700  -29.6060 C   0  0  0  0  0  0  0  0  0  0  0  0
   -6.6496   25.9079  -28.5440 H   0  0  0  0  0  0  0  0  0  0  0  0
   -5.9699   26.5068  -30.0951 H   0  0  0  0  0  0  0  0  0  0  0  0
   -7.4616   25.5061  -30.0951 H   0  0  0  0  0  0  0  0  0  0  0  0
   -4.4300   24.4930  -28.7790 C   0  0  0  0  0  0  0  0  0  0  0  0
   -4.7772   24.4663  -27.7356 H   0  0  0  0  0  0  0  0  0  0  0  0
   -3.7549   23.6442  -28.9627 H   0  0  0  0  0  0  0  0  0  0  0  0
   -3.8928   25.4352  -28.9627 H   0  0  0  0  0  0  0  0  0  0  0  0
   -7.7890   19.8170  -32.4710 C   0  0  0  0  0  0  0  0  0  0  0  0
   -7.9440   18.5430  -31.9040 C   0  0  0  0  0  0  0  0  0  0  0  0
   -8.6441   18.3972  -31.0682 H   0  0  0  0  0  0  0  0  0  0  0  0
   -7.2120   17.4570  -32.3970 C   0  0  0  0  0  0  0  0  0  0  0  0
   -7.3489   16.4575  -31.9585 H   0  0  0  0  0  0  0  0  0  0  0  0
   -6.3080   17.6410  -33.4450 C   0  0  0  0  0  0  0  0  0  0  0  0
   -5.7387   16.7851  -33.8365 H   0  0  0  0  0  0  0  0  0  0  0  0
   -6.1260   18.9120  -33.9970 C   0  0  0  0  0  0  0  0  0  0  0  0
   -5.4080   19.0569  -34.8176 H   0  0  0  0  0  0  0  0  0  0  0  0
   -6.8560   20.0000  -33.5070 C   0  0  0  0  0  0  0  0  0  0  0  0
   -6.6997   21.0019  -33.9334 H   0  0  0  0  0  0  0  0  0  0  0  0
  1  2  1  0
  2  3  2  0
  3  4  1  0
  3  5  1  0
  5  6  1  0
  5  7  1  0
  5  8  1  0
  8  9  1  6
  8 10  1  0
 10 11  1  0
 10 12  1  0
 10 13  1  0
 13 14  2  0
 14 15  1  0
 14 16  1  0
 16 17  1  0
 16 18  2  0
 18 19  1  0
 18 20  1  0
 20 21  1  0
 20 22  2  0
 22 23  1  0
 23 24  1  0
 23 25  1  0
 23 26  1  0
 26 27  1  0
 26 28  1  0
  8 29  1  0
 29 30  1  0
 29 31  1  0
 29 32  1  0
 32 33  1  0
 32 34  1  0
 34 35  1  0
 34 36  1  0
 34 37  1  0
 32 38  1  0
 38 39  1  0
 38 40  1  0
 38 41  1  0
  2 42  1  0
 42 43  2  0
 43 44  1  0
 43 45  1  0
 45 46  1  0
 45 47  2  0
 47 48  1  0
 47 49  1  0
 49 50  1  0
 49 51  2  0
 51 52  1  0
 22 13  1  0
 51 42  1  0
M  CHG  1   8   1
M  END
>  <UniqueID>  (8) 
8

>  <SMILES>  (8) 
CC(C)C[N@H+](C/C=C\c1ccccc1)Cc1ccccc1CN

>  <Energy>  (8) 
58.3429512228422

>  <Genealogy>  (8) 
CC(C)C[NH+](CC=Cc1ccccc1)Cc1ccccc1CN (protonated)
CC(C)C[N@H+](CC=Cc1ccccc1)Cc1ccccc1CN (chirality)
CC(C)C[N@H+](C/C=C\c1ccccc1)Cc1ccccc1CN (cis-trans isomerization)
CC(C)C[N@H+](C/C=C\c1ccccc1)Cc1ccccc1CN (3D coordinates assigned)
CC(C)C[N@H+](C/C=C\c1ccccc1)Cc1ccccc1CN (optimized conformer: 58.3429512228422 kcal/mol)

>  <smiles>  (8) 
CC(C)CN(CC=Cc1ccccc1)Cc1ccccc1CN

>  <score_type>  (8) 
oracle

>  <origin>  (8) 
adg

>  <m_score__min__energy>  (8) 
-7.3899999999999997

>  <m_primary>  (8) 
energy

$$$$
8:0
     RDKit          3D

 62 64  0  0  0  0  0  0  0  0999 V2000
    0.3010   18.4640  -28.4450 C   0  0  0  0  0  0  0  0  0  0  0  0
   -0.7870   18.8530  -27.4320 C   0  0  0  0  0  0  0  0  0  0  0  0
   -1.8850   19.6640  -28.0080 N   0  0  0  0  0  0  0  0  0  0  0  0
   -3.0260   19.8380  -27.0860 C   0  0  0  0  0  0  0  0  0  0  0  0
   -3.0290   18.7350  -26.0300 C   0  0  0  0  0  0  0  0  0  0  0  0
   -1.4130   20.9310  -28.6120 C   0  0  0  0  0  0  0  0  0  0  0  0
   -2.0150   21.1010  -30.0080 C   0  0  0  0  0  0  0  0  0  0  0  0
   -1.1050   21.7790  -30.8530 O   0  0  0  0  0  0  0  0  0  0  0  0
   -1.2200   21.3190  -32.1830 C   0  0  0  0  0  0  0  0  0  0  0  0
   -2.3560   20.3040  -32.2660 C   0  0  0  0  0  0  0  0  0  0  0  0
   -3.4670   20.8320  -33.0560 N   0  0  0  0  0  0  0  0  0  0  0  0
   -4.7820   20.9310  -32.4910 C   0  0  0  0  0  0  0  0  0  0  0  0
   -5.7300   19.9240  -32.7250 C   0  0  0  0  0  0  0  0  0  0  0  0
   -5.4040   18.7930  -33.5020 C   0  0  0  0  0  0  0  0  0  0  0  0
   -6.3260   17.7650  -33.6840 C   0  0  0  0  0  0  0  0  0  0  0  0
   -7.5810   17.8440  -33.0910 C   0  0  0  0  0  0  0  0  0  0  0  0
   -7.9330   18.9640  -32.3380 C   0  0  0  0  0  0  0  0  0  0  0  0
   -7.0320   20.0470  -32.1690 C   0  0  0  0  0  0  0  0  0  0  0  0
   -7.3870   21.1900  -31.4760 N   0  0  0  0  0  0  0  0  0  0  0  0
   -8.8060   21.4420  -31.1390 C   0  0  0  0  0  0  0  0  0  0  0  0
   -6.4190   22.1130  -31.1220 C   0  0  0  0  0  0  0  0  0  0  0  0
   -6.6820   23.1580  -30.2010 C   0  0  0  0  0  0  0  0  0  0  0  0
   -5.7120   24.1120  -29.8950 C   0  0  0  0  0  0  0  0  0  0  0  0
   -4.4530   24.0620  -30.4900 C   0  0  0  0  0  0  0  0  0  0  0  0
   -3.4810   25.0550  -30.1300 N   0  0  0  0  0  0  0  0  0  0  0  0
   -2.4480   24.9210  -29.1490 C   0  0  0  0  0  0  0  0  0  0  0  0
   -2.6620   24.0240  -27.9760 C   0  0  0  0  0  0  0  0  0  0  0  0
   -1.3960   25.6120  -29.2210 O   0  0  0  0  0  0  0  0  0  0  0  0
   -4.1480   23.0010  -31.3520 C   0  0  0  0  0  0  0  0  0  0  0  0
   -5.1110   22.0180  -31.6650 C   0  0  0  0  0  0  0  0  0  0  0  0
    1.2044   18.1410  -27.9069 H   0  0  0  0  0  0  0  0  0  0  0  0
   -0.0636   17.6405  -29.0766 H   0  0  0  0  0  0  0  0  0  0  0  0
    0.5411   19.3320  -29.0766 H   0  0  0  0  0  0  0  0  0  0  0  0
   -1.2193   17.9304  -27.0175 H   0  0  0  0  0  0  0  0  0  0  0  0
   -0.3006   19.4746  -26.6658 H   0  0  0  0  0  0  0  0  0  0  0  0
   -2.9445   20.8158  -26.5888 H   0  0  0  0  0  0  0  0  0  0  0  0
   -3.9618   19.7839  -27.6616 H   0  0  0  0  0  0  0  0  0  0  0  0
   -3.0278   19.1873  -25.0273 H   0  0  0  0  0  0  0  0  0  0  0  0
   -3.9288   18.1140  -26.1510 H   0  0  0  0  0  0  0  0  0  0  0  0
   -2.1326   18.1091  -26.1510 H   0  0  0  0  0  0  0  0  0  0  0  0
   -1.7216   21.7745  -27.9770 H   0  0  0  0  0  0  0  0  0  0  0  0
   -0.3162   20.9063  -28.6922 H   0  0  0  0  0  0  0  0  0  0  0  0
   -2.2353   20.1101  -30.4319 H   0  0  0  0  0  0  0  0  0  0  0  0
   -2.9405   21.6905  -29.9306 H   0  0  0  0  0  0  0  0  0  0  0  0
   -1.4356   22.1678  -32.8486 H   0  0  0  0  0  0  0  0  0  0  0  0
   -0.2771   20.8447  -32.4930 H   0  0  0  0  0  0  0  0  0  0  0  0
   -1.9831   19.3832  -32.7384 H   0  0  0  0  0  0  0  0  0  0  0  0
   -2.7158   20.0934  -31.2481 H   0  0  0  0  0  0  0  0  0  0  0  0
   -3.2930   21.2880  -33.9800 H   0  0  0  0  0  0  0  0  0  0  0  0
   -4.4108   18.7220  -33.9694 H   0  0  0  0  0  0  0  0  0  0  0  0
   -6.0612   16.8907  -34.2968 H   0  0  0  0  0  0  0  0  0  0  0  0
   -8.2990   17.0201  -33.2162 H   0  0  0  0  0  0  0  0  0  0  0  0
   -8.9261   19.0085  -31.8671 H   0  0  0  0  0  0  0  0  0  0  0  0
   -8.9250   21.4631  -30.0457 H   0  0  0  0  0  0  0  0  0  0  0  0
   -9.1167   22.4094  -31.5604 H   0  0  0  0  0  0  0  0  0  0  0  0
   -9.4308   20.6408  -31.5604 H   0  0  0  0  0  0  0  0  0  0  0  0
   -7.6690   23.2175  -29.7190 H   0  0  0  0  0  0  0  0  0  0  0  0
   -5.9431   24.9122  -29.1765 H   0  0  0  0  0  0  0  0  0  0  0  0
   -2.5254   24.5966  -27.0468 H   0  0  0  0  0  0  0  0  0  0  0  0
   -3.6828   23.6155  -28.0082 H   0  0  0  0  0  0  0  0  0  0  0  0
   -1.9356   23.1986  -28.0082 H   0  0  0  0  0  0  0  0  0  0  0  0
   -3.1421   22.9329  -31.7919 H   0  0  0  0  0  0  0  0  0  0  0  0
  1  2  1  0
  2  3  1  0
  3  4  1  0
  4  5  1  0
  3  6  1  0
  6  7  1  0
  7  8  1  0
  8  9  1  0
  9 10  1  0
 10 11  1  0
 11 12  1  0
 12 13  2  0
 13 14  1  0
 14 15  2  0
 15 16  1  0
 16 17  2  0
 17 18  1  0
 18 19  2  0
 19 20  1  0
 19 21  1  0
 21 22  2  0
 22 23  1  0
 23 24  2  0
 24 25  1  0
 25 26  1  0
 26 27  1  0
 26 28  2  0
 24 29  1  0
 29 30  2  0
 30 12  1  0
 18 13  1  0
 30 21  1  0
  1 31  1  0
  1 32  1  0
  1 33  1  0
  2 34  1  0
  2 35  1  0
  4 36  1  0
  4 37  1  0
  5 38  1  0
  5 39  1  0
  5 40  1  0
  6 41  1  0
  6 42  1  0
  7 43  1  0
  7 44  1  0
  9 45  1  0
  9 46  1  0
 10 47  1  0
 10 48  1  0
 11 49  1  0
 14 50  1  0
 15 51  1  0
 16 52  1  0
 17 53  1  0
 20 54  1  0
 20 55  1  0
 20 56  1  0
 22 57  1  0
 23 58  1  0
 27 59  1  0
 27 60  1  0
 27 61  1  0
 29 62  1  0
M  CHG  2  19   1  25  -1
M  END
>  <UniqueID>  (9) 
9

>  <SMILES>  (9) 
CCN(CC)CCOCCNc1c2ccccc2[n+](C)c2ccc([N-]C(C)=O)cc12

>  <Energy>  (9) 
89.81227952887868

>  <Genealogy>  (9) 
CCN(CC)CCOCCNc1c2ccccc2[n+](C)c2ccc([N-]C(C)=O)cc12 (protonated)
CCN(CC)CCOCCNc1c2ccccc2[n+](C)c2ccc([N-]C(C)=O)cc12 (3D coordinates assigned)
CCN(CC)CCOCCNc1c2ccccc2[n+](C)c2ccc([N-]C(C)=O)cc12 (optimized conformer: 89.81227952887868 kcal/mol)

>  <smiles>  (9) 
CCN(CC)CCOCCNc1c2ccccc2[n+](C)c2ccc(NC(C)=O)cc12

>  <score_type>  (9) 
oracle

>  <origin>  (9) 
adg

>  <m_score__min__energy>  (9) 
-10.42

>  <m_primary>  (9) 
energy

$$$$
9:0
     RDKit          3D

 48 51  0  0  0  0  0  0  0  0999 V2000
   -9.0750   21.5250  -30.8620 C   0  0  0  0  0  0  0  0  0  0  0  0
   -7.6590   21.5320  -31.2740 N   0  0  0  0  0  0  0  0  0  0  0  0
   -7.1430   20.4700  -31.9690 C   0  0  0  0  0  0  0  0  0  0  0  0
   -5.8650   20.4830  -32.5050 C   0  0  0  0  0  0  0  0  0  0  0  0
   -5.0220   21.5750  -32.3110 C   0  0  0  0  0  0  0  0  0  0  0  0
   -3.7000   21.5820  -32.8610 N   0  0  0  0  0  0  0  0  0  0  0  0
   -2.5500   21.2610  -32.0150 C   0  0  0  0  0  0  0  0  0  0  0  0
   -1.2060   21.4080  -32.7670 C   0  0  0  0  0  0  0  0  0  0  0  0
   -1.1700   20.8480  -34.1420 N   0  0  0  0  0  0  0  0  0  0  0  0
   -0.0020   21.2990  -34.9200 C   0  0  0  0  0  0  0  0  0  0  0  0
   -1.2850   19.3790  -34.1690 C   0  0  0  0  0  0  0  0  0  0  0  0
   -5.4920   22.6400  -31.5080 C   0  0  0  0  0  0  0  0  0  0  0  0
   -4.6570   23.7340  -31.2020 C   0  0  0  0  0  0  0  0  0  0  0  0
   -5.1060   24.7630  -30.3780 C   0  0  0  0  0  0  0  0  0  0  0  0
   -6.3830   24.7140  -29.8310 C   0  0  0  0  0  0  0  0  0  0  0  0
   -7.2300   23.6430  -30.1120 C   0  0  0  0  0  0  0  0  0  0  0  0
   -6.8210   22.5940  -30.9720 C   0  0  0  0  0  0  0  0  0  0  0  0
   -5.6500   19.2160  -33.2290 C   0  0  0  0  0  0  0  0  0  0  0  0
   -4.5580   18.7530  -33.9740 C   0  0  0  0  0  0  0  0  0  0  0  0
   -4.6390   17.4790  -34.5620 C   0  0  0  0  0  0  0  0  0  0  0  0
   -5.7960   16.6900  -34.4050 C   0  0  0  0  0  0  0  0  0  0  0  0
   -6.8850   17.1710  -33.6610 C   0  0  0  0  0  0  0  0  0  0  0  0
   -6.7860   18.4390  -33.0900 C   0  0  0  0  0  0  0  0  0  0  0  0
   -7.7550   19.1700  -32.2900 C   0  0  0  0  0  0  0  0  0  0  0  0
   -8.8600   18.7180  -31.8870 O   0  0  0  0  0  0  0  0  0  0  0  0
   -9.1373   21.5247  -29.7638 H   0  0  0  0  0  0  0  0  0  0  0  0
   -9.5764   22.4207  -31.2575 H   0  0  0  0  0  0  0  0  0  0  0  0
   -9.5675   20.6244  -31.2575 H   0  0  0  0  0  0  0  0  0  0  0  0
   -3.5670   22.0170  -33.8010 H   0  0  0  0  0  0  0  0  0  0  0  0
   -2.5471   21.9405  -31.1500 H   0  0  0  0  0  0  0  0  0  0  0  0
   -2.6463   20.2109  -31.7020 H   0  0  0  0  0  0  0  0  0  0  0  0
   -0.9720   22.4808  -32.8333 H   0  0  0  0  0  0  0  0  0  0  0  0
   -0.4744   20.8253  -32.1879 H   0  0  0  0  0  0  0  0  0  0  0  0
   -2.0180   21.2210  -34.6310 H   0  0  0  0  0  0  0  0  0  0  0  0
    0.7991   21.6083  -34.2326 H   0  0  0  0  0  0  0  0  0  0  0  0
    0.3567   20.4747  -35.5540 H   0  0  0  0  0  0  0  0  0  0  0  0
   -0.2903   22.1505  -35.5540 H   0  0  0  0  0  0  0  0  0  0  0  0
   -1.3151   18.9946  -33.1388 H   0  0  0  0  0  0  0  0  0  0  0  0
   -2.2083   19.0931  -34.6942 H   0  0  0  0  0  0  0  0  0  0  0  0
   -0.4175   18.9529  -34.6942 H   0  0  0  0  0  0  0  0  0  0  0  0
   -3.6398   23.7752  -31.6186 H   0  0  0  0  0  0  0  0  0  0  0  0
   -4.4482   25.6171  -30.1593 H   0  0  0  0  0  0  0  0  0  0  0  0
   -6.7272   25.5251  -29.1725 H   0  0  0  0  0  0  0  0  0  0  0  0
   -8.2318   23.6119  -29.6588 H   0  0  0  0  0  0  0  0  0  0  0  0
   -3.6573   19.3725  -34.0961 H   0  0  0  0  0  0  0  0  0  0  0  0
   -3.7923   17.0946  -35.1496 H   0  0  0  0  0  0  0  0  0  0  0  0
   -5.8461   15.6931  -34.8673 H   0  0  0  0  0  0  0  0  0  0  0  0
   -7.7927   16.5633  -33.5319 H   0  0  0  0  0  0  0  0  0  0  0  0
  1  2  1  0
  2  3  2  0
  3  4  1  0
  4  5  2  0
  5  6  1  0
  6  7  1  0
  7  8  1  0
  8  9  1  0
  9 10  1  0
  9 11  1  0
  5 12  1  0
 12 13  2  0
 13 14  1  0
 14 15  2  0
 15 16  1  0
 16 17  2  0
  4 18  1  0
 18 19  2  0
 19 20  1  0
 20 21  2  0
 21 22  1  0
 22 23  2  0
 23 24  1  0
 24 25  2  0
 17  2  1  0
 23 18  1  0
 24  3  1  0
 17 12  1  0
  1 26  1  0
  1 27  1  0
  1 28  1  0
  6 29  1  0
  7 30  1  0
  7 31  1  0
  8 32  1  0
  8 33  1  0
  9 34  1  0
 10 35  1  0
 10 36  1  0
 10 37  1  0
 11 38  1  0
 11 39  1  0
 11 40  1  0
 13 41  1  0
 14 42  1  0
 15 43  1  0
 16 44  1  0
 19 45  1  0
 20 46  1  0
 21 47  1  0
 22 48  1  0
M  CHG  2   2   1   9   1
M  END
>  <UniqueID>  (10) 
10

>  <SMILES>  (10) 
C[n+]1c2c(c(NCC[NH+](C)C)c3ccccc31)-c1ccccc1C2=O

>  <Energy>  (10) 
106.60976834457813

>  <Genealogy>  (10) 
C[n+]1c2c(c(NCC[NH+](C)C)c3ccccc31)-c1ccccc1C2=O (protonated)
C[n+]1c2c(c(NCC[NH+](C)C)c3ccccc31)-c1ccccc1C2=O (3D coordinates assigned)
C[n+]1c2c(c(NCC[NH+](C)C)c3ccccc31)-c1ccccc1C2=O (nonaromatic ring conformer: 106.60976834457813 kcal/mol)

>  <smiles>  (10) 
CN(C)CCNc1c2c([n+](C)c3ccccc13)C(=O)c1ccccc1-2

>  <score_type>  (10) 
oracle

>  <origin>  (10) 
adg

>  <m_score__min__energy>  (10) 
-7.9400000000000004

>  <m_primary>  (10) 
energy

$$$$
10:0
     RDKit          3D

 47 50  0  0  0  0  0  0  0  0999 V2000
   -6.8550   24.7210  -30.0790 C   0  0  0  0  0  0  0  0  0  0  0  0
   -5.7000   25.6700  -30.3740 C   0  0  0  0  0  0  0  0  0  0  0  0
   -4.6720   24.9740  -31.1600 N   0  0  0  0  0  0  0  0  0  0  0  0
   -3.8820   24.0410  -30.3430 C   0  0  0  0  0  0  0  0  0  0  0  0
   -3.8380   22.6260  -30.9380 C   0  0  0  0  0  0  0  0  0  0  0  0
   -4.8210   22.5010  -32.0140 N   0  0  0  0  0  0  0  0  0  0  0  0
   -5.2050   21.2150  -32.5220 C   0  0  0  0  0  0  0  0  0  0  0  0
   -4.2580   20.3880  -33.1180 C   0  0  0  0  0  0  0  0  0  0  0  0
   -4.5840   19.1170  -33.5610 C   0  0  0  0  0  0  0  0  0  0  0  0
   -5.8780   18.6620  -33.5530 N   0  0  0  0  0  0  0  0  0  0  0  0
   -6.2350   17.4500  -34.3090 C   0  0  0  0  0  0  0  0  0  0  0  0
   -6.8400   19.4120  -32.8910 C   0  0  0  0  0  0  0  0  0  0  0  0
   -8.1470   18.9150  -32.6700 C   0  0  0  0  0  0  0  0  0  0  0  0
   -9.1230   19.7060  -32.0620 C   0  0  0  0  0  0  0  0  0  0  0  0
   -8.8260   21.0020  -31.6570 C   0  0  0  0  0  0  0  0  0  0  0  0
   -7.5390   21.5100  -31.8220 C   0  0  0  0  0  0  0  0  0  0  0  0
   -6.5240   20.7220  -32.4000 C   0  0  0  0  0  0  0  0  0  0  0  0
   -3.3370   18.4600  -34.0280 C   0  0  0  0  0  0  0  0  0  0  0  0
   -3.0550   17.1300  -34.3760 C   0  0  0  0  0  0  0  0  0  0  0  0
   -1.7320   16.7830  -34.7000 C   0  0  0  0  0  0  0  0  0  0  0  0
   -0.7040   17.7410  -34.6320 C   0  0  0  0  0  0  0  0  0  0  0  0
   -0.9830   19.0520  -34.2170 C   0  0  0  0  0  0  0  0  0  0  0  0
   -2.3030   19.3800  -33.9140 C   0  0  0  0  0  0  0  0  0  0  0  0
   -2.8320   20.6090  -33.3470 C   0  0  0  0  0  0  0  0  0  0  0  0
   -2.1750   21.6520  -33.0900 O   0  0  0  0  0  0  0  0  0  0  0  0
   -6.9778   24.6201  -28.9905 H   0  0  0  0  0  0  0  0  0  0  0  0
   -7.7807   25.1228  -30.5167 H   0  0  0  0  0  0  0  0  0  0  0  0
   -6.6403   23.7349  -30.5167 H   0  0  0  0  0  0  0  0  0  0  0  0
   -6.0733   26.5334  -30.9442 H   0  0  0  0  0  0  0  0  0  0  0  0
   -5.2612   26.0137  -29.4257 H   0  0  0  0  0  0  0  0  0  0  0  0
   -4.0340   25.6830  -31.5940 H   0  0  0  0  0  0  0  0  0  0  0  0
   -2.8534   24.4233  -30.2671 H   0  0  0  0  0  0  0  0  0  0  0  0
   -4.3634   23.9725  -29.3563 H   0  0  0  0  0  0  0  0  0  0  0  0
   -2.8326   22.4316  -31.3397 H   0  0  0  0  0  0  0  0  0  0  0  0
   -4.0740   21.8968  -30.1490 H   0  0  0  0  0  0  0  0  0  0  0  0
   -4.9780   23.3360  -32.6210 H   0  0  0  0  0  0  0  0  0  0  0  0
   -6.4744   16.6374  -33.6073 H   0  0  0  0  0  0  0  0  0  0  0  0
   -7.1102   17.6573  -34.9422 H   0  0  0  0  0  0  0  0  0  0  0  0
   -5.3871   17.1498  -34.9422 H   0  0  0  0  0  0  0  0  0  0  0  0
   -8.3970   17.8903  -32.9821 H   0  0  0  0  0  0  0  0  0  0  0  0
  -10.1333   19.3013  -31.9024 H   0  0  0  0  0  0  0  0  0  0  0  0
   -9.6091   21.6284  -31.2050 H   0  0  0  0  0  0  0  0  0  0  0  0
   -7.3132   22.5366  -31.4977 H   0  0  0  0  0  0  0  0  0  0  0  0
   -3.8537   16.3739  -34.3948 H   0  0  0  0  0  0  0  0  0  0  0  0
   -1.4984   15.7536  -35.0094 H   0  0  0  0  0  0  0  0  0  0  0  0
    0.3239   17.4608  -34.9056 H   0  0  0  0  0  0  0  0  0  0  0  0
   -0.1814   19.8006  -34.1331 H   0  0  0  0  0  0  0  0  0  0  0  0
  1  2  1  0
  2  3  1  0
  3  4  1  0
  4  5  1  0
  5  6  1  0
  6  7  1  0
  7  8  2  0
  8  9  1  0
  9 10  2  0
 10 11  1  0
 10 12  1  0
 12 13  2  0
 13 14  1  0
 14 15  2  0
 15 16  1  0
 16 17  2  0
  9 18  1  0
 18 19  2  0
 19 20  1  0
 20 21  2  0
 21 22  1  0
 22 23  2  0
 23 24  1  0
 24 25  2  0
 17  7  1  0
 23 18  1  0
 24  8  1  0
 17 12  1  0
  1 26  1  0
  1 27  1  0
  1 28  1  0
  2 29  1  0
  2 30  1  0
  3 31  1  0
  4 32  1  0
  4 33  1  0
  5 34  1  0
  5 35  1  0
  6 36  1  0
 11 37  1  0
 11 38  1  0
 11 39  1  0
 13 40  1  0
 14 41  1  0
 15 42  1  0
 16 43  1  0
 19 44  1  0
 20 45  1  0
 21 46  1  0
 22 47  1  0
M  CHG  1  10   1
M  END
>  <UniqueID>  (11) 
11

>  <SMILES>  (11) 
CCNCCNc1c2c([n+](C)c3ccccc13)-c1ccccc1C2=O

>  <Energy>  (11) 
100.24532438563764

>  <Genealogy>  (11) 
CCNCCNc1c2c([n+](C)c3ccccc13)-c1ccccc1C2=O (3D coordinates assigned)
CCNCCNc1c2c([n+](C)c3ccccc13)-c1ccccc1C2=O (nonaromatic ring conformer: 100.24532438563764 kcal/mol)

>  <smiles>  (11) 
CCNCCNc1c2c([n+](C)c3ccccc13)-c1ccccc1C2=O

>  <score_type>  (11) 
oracle

>  <origin>  (11) 
adg

>  <m_score__min__energy>  (11) 
-8.9499999999999993

>  <m_primary>  (11) 
energy

$$$$
11:0
     RDKit          3D

 53 56  0  0  0  0  0  0  0  0999 V2000
   -2.3760   18.9420  -26.7710 C   0  0  0  0  0  0  0  0  0  0  0  0
   -1.1950   19.9170  -26.8960 C   0  0  0  0  0  0  0  0  0  0  0  0
    0.0110   19.3250  -27.5190 N   0  0  0  0  0  0  0  0  0  0  0  0
   -0.0050   17.8520  -27.4650 C   0  0  0  0  0  0  0  0  0  0  0  0
    0.2530   19.8320  -28.8880 C   0  0  0  0  0  0  0  0  0  0  0  0
   -0.0180   21.3360  -28.9580 C   0  0  0  0  0  0  0  0  0  0  0  0
   -0.2740   21.7700  -30.3360 N   0  0  0  0  0  0  0  0  0  0  0  0
   -1.5880   21.6940  -30.9180 C   0  0  0  0  0  0  0  0  0  0  0  0
   -2.6310   22.4910  -30.4080 C   0  0  0  0  0  0  0  0  0  0  0  0
   -2.3870   23.2550  -29.1190 C   0  0  0  0  0  0  0  0  0  0  0  0
   -3.9200   22.4020  -31.0090 C   0  0  0  0  0  0  0  0  0  0  0  0
   -4.9640   23.3430  -30.7500 C   0  0  0  0  0  0  0  0  0  0  0  0
   -4.7410   24.7230  -30.4960 C   0  0  0  0  0  0  0  0  0  0  0  0
   -3.4790   25.2910  -30.6810 O   0  0  0  0  0  0  0  0  0  0  0  0
   -5.8120   25.5510  -30.1310 C   0  0  0  0  0  0  0  0  0  0  0  0
   -7.1130   25.0550  -30.1140 C   0  0  0  0  0  0  0  0  0  0  0  0
   -7.3650   23.7470  -30.5190 C   0  0  0  0  0  0  0  0  0  0  0  0
   -6.3020   22.9060  -30.8830 C   0  0  0  0  0  0  0  0  0  0  0  0
   -6.5600   21.6500  -31.4220 C   0  0  0  0  0  0  0  0  0  0  0  0
   -5.5110   20.8940  -31.9310 C   0  0  0  0  0  0  0  0  0  0  0  0
   -4.2030   21.3010  -31.7990 N   0  0  0  0  0  0  0  0  0  0  0  0
   -3.1740   20.6140  -32.4140 C   0  0  0  0  0  0  0  0  0  0  0  0
   -3.3970   19.7300  -33.5030 C   0  0  0  0  0  0  0  0  0  0  0  0
   -2.3320   19.0940  -34.1440 C   0  0  0  0  0  0  0  0  0  0  0  0
   -1.0250   19.3420  -33.7440 C   0  0  0  0  0  0  0  0  0  0  0  0
   -0.7730   20.2220  -32.6960 C   0  0  0  0  0  0  0  0  0  0  0  0
   -1.8330   20.8470  -32.0090 C   0  0  0  0  0  0  0  0  0  0  0  0
   -2.5928   18.7631  -25.7075 H   0  0  0  0  0  0  0  0  0  0  0  0
   -3.2622   19.3751  -27.2580 H   0  0  0  0  0  0  0  0  0  0  0  0
   -2.1186   17.9899  -27.2580 H   0  0  0  0  0  0  0  0  0  0  0  0
   -1.5161   20.7726  -27.5082 H   0  0  0  0  0  0  0  0  0  0  0  0
   -0.9141   20.2097  -25.8735 H   0  0  0  0  0  0  0  0  0  0  0  0
   -0.0086   17.5236  -26.4152 H   0  0  0  0  0  0  0  0  0  0  0  0
   -0.9073   17.4764  -27.9698 H   0  0  0  0  0  0  0  0  0  0  0  0
    0.8889   17.4568  -27.9698 H   0  0  0  0  0  0  0  0  0  0  0  0
    1.2999   19.6395  -29.1655 H   0  0  0  0  0  0  0  0  0  0  0  0
   -0.4248   19.3156  -29.5836 H   0  0  0  0  0  0  0  0  0  0  0  0
   -0.8971   21.5705  -28.3397 H   0  0  0  0  0  0  0  0  0  0  0  0
    0.8720   21.8659  -28.5877 H   0  0  0  0  0  0  0  0  0  0  0  0
    0.4100   22.4260  -30.7750 H   0  0  0  0  0  0  0  0  0  0  0  0
   -2.5960   22.6007  -28.2598 H   0  0  0  0  0  0  0  0  0  0  0  0
   -1.3385   23.5857  -29.0816 H   0  0  0  0  0  0  0  0  0  0  0  0
   -3.0497   24.1322  -29.0816 H   0  0  0  0  0  0  0  0  0  0  0  0
   -3.1890   25.6660  -31.5770 H   0  0  0  0  0  0  0  0  0  0  0  0
   -5.6233   26.5993  -29.8563 H   0  0  0  0  0  0  0  0  0  0  0  0
   -7.9418   25.6967  -29.7805 H   0  0  0  0  0  0  0  0  0  0  0  0
   -8.3986   23.3722  -30.5537 H   0  0  0  0  0  0  0  0  0  0  0  0
   -7.5874   21.2578  -31.4452 H   0  0  0  0  0  0  0  0  0  0  0  0
   -5.7309   19.9498  -32.4507 H   0  0  0  0  0  0  0  0  0  0  0  0
   -4.4251   19.5434  -33.8469 H   0  0  0  0  0  0  0  0  0  0  0  0
   -2.5287   18.3937  -34.9691 H   0  0  0  0  0  0  0  0  0  0  0  0
   -0.1891   18.8426  -34.2558 H   0  0  0  0  0  0  0  0  0  0  0  0
    0.2655   20.4323  -32.4004 H   0  0  0  0  0  0  0  0  0  0  0  0
  1  2  1  0
  2  3  1  0
  3  4  1  0
  3  5  1  0
  5  6  1  0
  6  7  1  0
  7  8  1  0
  8  9  2  0
  9 10  1  0
  9 11  1  0
 11 12  2  0
 12 13  1  0
 13 14  1  0
 13 15  2  0
 15 16  1  0
 16 17  2  0
 17 18  1  0
 18 19  2  0
 19 20  1  0
 20 21  2  0
 21 22  1  0
 22 23  2  0
 23 24  1  0
 24 25  2  0
 25 26  1  0
 26 27  2  0
 27  8  1  0
 21 11  1  0
 27 22  1  0
 18 12  1  0
  1 28  1  0
  1 29  1  0
  1 30  1  0
  2 31  1  0
  2 32  1  0
  4 33  1  0
  4 34  1  0
  4 35  1  0
  5 36  1  0
  5 37  1  0
  6 38  1  0
  6 39  1  0
  7 40  1  0
 10 41  1  0
 10 42  1  0
 10 43  1  0
 14 44  1  0
 15 45  1  0
 16 46  1  0
 17 47  1  0
 19 48  1  0
 20 49  1  0
 23 50  1  0
 24 51  1  0
 25 52  1  0
 26 53  1  0
M  CHG  1  21   1
M  END
>  <UniqueID>  (12) 
12

>  <SMILES>  (12) 
CCN(C)CCNc1c(C)c2c3c(O)cccc3cc[n+]2c2ccccc12

>  <Energy>  (12) 
106.69408817507453

>  <Genealogy>  (12) 
CCN(C)CCNc1c(C)c2c3c(O)cccc3cc[n+]2c2ccccc12 (3D coordinates assigned)
CCN(C)CCNc1c(C)c2c3c(O)cccc3cc[n+]2c2ccccc12 (optimized conformer: 106.69408817507453 kcal/mol)

>  <smiles>  (12) 
CCN(C)CCNc1c(C)c2c3c(O)cccc3cc[n+]2c2ccccc12

>  <score_type>  (12) 
oracle

>  <origin>  (12) 
adg

>  <m_score__min__energy>  (12) 
-8.4299999999999997

>  <m_primary>  (12) 
energy

$$$$
12:0
     RDKit          3D

 65 68  0  0  0  0  0  0  0  0999 V2000
   -0.3800   28.4800  -26.6010 C   0  0  0  0  0  0  0  0  0  0  0  0
   -0.3820   28.3340  -25.0800 C   0  0  0  0  0  0  0  0  0  0  0  0
   -1.4520   27.4280  -24.6420 N   0  0  0  0  0  0  0  0  0  0  0  0
   -1.0660   26.0640  -24.8850 C   0  0  0  0  0  0  0  0  0  0  0  0
   -0.4870   25.2890  -23.8700 C   0  0  0  0  0  0  0  0  0  0  0  0
   -0.1660   23.9570  -24.1240 C   0  0  0  0  0  0  0  0  0  0  0  0
   -0.4250   23.4020  -25.3800 C   0  0  0  0  0  0  0  0  0  0  0  0
   -0.1310   22.0960  -25.6040 F   0  0  0  0  0  0  0  0  0  0  0  0
   -1.0060   24.2010  -26.3830 C   0  0  0  0  0  0  0  0  0  0  0  0
   -1.3470   23.6250  -27.7470 C   0  0  1  0  0  0  0  0  0  0  0  0
   -0.0610   23.1790  -28.5340 C   0  0  0  0  0  0  0  0  0  0  0  0
   -0.2090   21.9270  -29.2030 O   0  0  0  0  0  0  0  0  0  0  0  0
   -1.4120   21.8510  -29.9620 C   0  0  1  0  0  0  0  0  0  0  0  0
   -1.5870   20.4240  -30.5210 C   0  0  0  0  0  0  0  0  0  0  0  0
   -1.8750   20.3450  -32.0320 C   0  0  0  0  0  0  0  0  0  0  0  0
   -3.6190   20.4710  -32.4470 S   0  0  0  0  0  0  0  0  0  0  0  0
   -4.2180   18.9370  -33.1290 C   0  0  0  0  0  0  0  0  0  0  0  0
   -3.8660   21.5780  -33.4350 O   0  0  0  0  0  0  0  0  0  0  0  0
   -4.3910   20.7630  -31.1920 O   0  0  0  0  0  0  0  0  0  0  0  0
   -2.6660   22.3190  -29.1500 C   0  0  1  0  0  0  0  0  0  0  0  0
   -2.2830   22.4130  -27.6810 C   0  0  0  0  0  0  0  0  0  0  0  0
   -2.9300   23.7120  -29.4860 N   0  0  0  0  0  0  0  0  0  0  0  0
   -3.7180   24.1580  -30.5950 C   0  0  0  0  0  0  0  0  0  0  0  0
   -3.8940   23.3990  -31.5890 O   0  0  0  0  0  0  0  0  0  0  0  0
   -4.2900   25.4320  -30.5670 O   0  0  0  0  0  0  0  0  0  0  0  0
   -5.6810   25.6500  -30.3610 C   0  0  0  0  0  0  0  0  0  0  0  0
   -6.4340   24.4080  -30.7350 C   0  0  0  0  0  0  0  0  0  0  0  0
   -6.9060   23.5360  -29.7400 C   0  0  0  0  0  0  0  0  0  0  0  0
   -7.5720   22.3570  -30.0950 C   0  0  0  0  0  0  0  0  0  0  0  0
   -7.7580   22.0370  -31.4430 C   0  0  0  0  0  0  0  0  0  0  0  0
   -7.2750   22.8910  -32.4380 C   0  0  0  0  0  0  0  0  0  0  0  0
   -6.6110   24.0710  -32.0880 C   0  0  0  0  0  0  0  0  0  0  0  0
   -2.1850   24.5970  -28.6060 C   0  0  0  0  0  0  0  0  0  0  0  0
   -1.3170   25.4980  -26.0980 N   0  0  0  0  0  0  0  0  0  0  0  0
   -0.3654   29.5473  -26.8669 H   0  0  0  0  0  0  0  0  0  0  0  0
    0.5115   27.9866  -27.0155 H   0  0  0  0  0  0  0  0  0  0  0  0
   -1.2847   28.0112  -27.0155 H   0  0  0  0  0  0  0  0  0  0  0  0
    0.5880   27.9291  -24.7558 H   0  0  0  0  0  0  0  0  0  0  0  0
   -0.5542   29.3238  -24.6321 H   0  0  0  0  0  0  0  0  0  0  0  0
   -2.3380   27.6460  -25.1560 H   0  0  0  0  0  0  0  0  0  0  0  0
   -1.6230   27.5540  -23.6170 H   0  0  0  0  0  0  0  0  0  0  0  0
   -0.2879   25.7288  -22.8816 H   0  0  0  0  0  0  0  0  0  0  0  0
    0.2916   23.3419  -23.3352 H   0  0  0  0  0  0  0  0  0  0  0  0
    0.1729   23.9490  -29.2839 H   0  0  0  0  0  0  0  0  0  0  0  0
    0.7449   23.0580  -27.7952 H   0  0  0  0  0  0  0  0  0  0  0  0
   -1.3264   22.5520  -30.8054 H   0  0  0  0  0  0  0  0  0  0  0  0
   -0.6618   19.8637  -30.3207 H   0  0  0  0  0  0  0  0  0  0  0  0
   -2.4708   20.0043  -30.0183 H   0  0  0  0  0  0  0  0  0  0  0  0
   -1.3399   21.1669  -32.5302 H   0  0  0  0  0  0  0  0  0  0  0  0
   -1.5364   19.3548  -32.3708 H   0  0  0  0  0  0  0  0  0  0  0  0
   -4.4856   18.2518  -32.3111 H   0  0  0  0  0  0  0  0  0  0  0  0
   -5.1057   19.1329  -33.7484 H   0  0  0  0  0  0  0  0  0  0  0  0
   -3.4324   18.4796  -33.7484 H   0  0  0  0  0  0  0  0  0  0  0  0
   -3.4994   21.6316  -29.3570 H   0  0  0  0  0  0  0  0  0  0  0  0
   -3.1563   22.6022  -27.0395 H   0  0  0  0  0  0  0  0  0  0  0  0
   -1.8428   21.5015  -27.2503 H   0  0  0  0  0  0  0  0  0  0  0  0
   -5.8638   25.8867  -29.3024 H   0  0  0  0  0  0  0  0  0  0  0  0
   -6.0203   26.4905  -30.9843 H   0  0  0  0  0  0  0  0  0  0  0  0
   -6.7518   23.7803  -28.6786 H   0  0  0  0  0  0  0  0  0  0  0  0
   -7.9492   21.6819  -29.3127 H   0  0  0  0  0  0  0  0  0  0  0  0
   -8.2850   21.1122  -31.7207 H   0  0  0  0  0  0  0  0  0  0  0  0
   -7.4173   22.6347  -33.4982 H   0  0  0  0  0  0  0  0  0  0  0  0
   -6.2261   24.7374  -32.8740 H   0  0  0  0  0  0  0  0  0  0  0  0
   -1.5359   25.2715  -29.1837 H   0  0  0  0  0  0  0  0  0  0  0  0
   -2.8339   25.2511  -28.0050 H   0  0  0  0  0  0  0  0  0  0  0  0
  1  2  1  0
  2  3  1  0
  3  4  1  0
  4  5  2  0
  5  6  1  0
  6  7  2  0
  7  8  1  0
  7  9  1  0
 10  9  1  1
 10 11  1  0
 11 12  1  0
 12 13  1  0
 13 14  1  0
 14 15  1  0
 15 16  1  0
 16 17  1  0
 16 18  2  0
 16 19  2  0
 13 20  1  0
 20 21  1  0
 20 22  1  0
 22 23  1  0
 23 24  2  0
 23 25  1  0
 25 26  1  0
 26 27  1  0
 27 28  2  0
 28 29  1  0
 29 30  2  0
 30 31  1  0
 31 32  2  0
 22 33  1  0
  9 34  2  0
 34  4  1  0
 21 10  1  0
 32 27  1  0
 33 10  1  0
  1 35  1  0
  1 36  1  0
  1 37  1  0
  2 38  1  0
  2 39  1  0
  3 40  1  0
  3 41  1  0
  5 42  1  0
  6 43  1  0
 11 44  1  0
 11 45  1  0
 13 46  1  6
 14 47  1  0
 14 48  1  0
 15 49  1  0
 15 50  1  0
 17 51  1  0
 17 52  1  0
 17 53  1  0
 20 54  1  1
 21 55  1  0
 21 56  1  0
 26 57  1  0
 26 58  1  0
 28 59  1  0
 29 60  1  0
 30 61  1  0
 31 62  1  0
 32 63  1  0
 33 64  1  0
 33 65  1  0
M  CHG  1   3   1
M  END
>  <UniqueID>  (13) 
13

>  <SMILES>  (13) 
CC[NH2+]c1ccc(F)c([C@@]23CO[C@@H](CCS(C)(=O)=O)C(C2)N(C(=O)OCc2ccccc2)C3)n1

>  <Energy>  (13) 
80.50944707281512

>  <Genealogy>  (13) 
CC[NH2+]c1ccc(F)c(C23COC(CCS(C)(=O)=O)C(C2)N(C(=O)OCc2ccccc2)C3)n1 (protonated)
CC[NH2+]c1ccc(F)c([C@@]23CO[C@@H](CCS(C)(=O)=O)C(C2)N(C(=O)OCc2ccccc2)C3)n1 (chirality)
CC[NH2+]c1ccc(F)c([C@@]23CO[C@@H](CCS(C)(=O)=O)C(C2)N(C(=O)OCc2ccccc2)C3)n1 (3D coordinates assigned)
CC[NH2+]c1ccc(F)c([C@@]23CO[C@@H](CCS(C)(=O)=O)C(C2)N(C(=O)OCc2ccccc2)C3)n1 (nonaromatic ring conformer: 80.50944707281512 kcal/mol)

>  <smiles>  (13) 
CCNc1ccc(F)c(C23COC(CCS(C)(=O)=O)C(C2)N(C(=O)OCc2ccccc2)C3)n1

>  <score_type>  (13) 
oracle

>  <origin>  (13) 
adg

>  <m_score__min__energy>  (13) 
-9.8300000000000001

>  <m_primary>  (13) 
energy

$$$$
14:0
     RDKit          3D

 55 57  0  0  0  0  0  0  0  0999 V2000
   -8.7760   19.3680  -31.5950 C   0  0  0  0  0  0  0  0  0  0  0  0
   -9.0740   20.7980  -32.0290 C   0  0  0  0  0  0  0  0  0  0  0  0
   -8.6980   21.7330  -30.9640 N   0  0  0  0  0  0  0  0  0  0  0  0
   -7.2610   22.0290  -31.0160 C   0  0  0  0  0  0  0  0  0  0  0  0
   -6.9910   23.2030  -31.9600 C   0  0  0  0  0  0  0  0  0  0  0  0
   -5.7310   23.0270  -32.6860 N   0  0  0  0  0  0  0  0  0  0  0  0
   -4.7870   22.0070  -32.3150 C   0  0  0  0  0  0  0  0  0  0  0  0
   -4.9510   20.7080  -32.8250 C   0  0  0  0  0  0  0  0  0  0  0  0
   -6.1320   20.3410  -33.5080 C   0  0  0  0  0  0  0  0  0  0  0  0
   -6.3060   19.0420  -33.9790 C   0  0  0  0  0  0  0  0  0  0  0  0
   -5.3200   18.0860  -33.7670 C   0  0  0  0  0  0  0  0  0  0  0  0
   -4.1430   18.4300  -33.1010 C   0  0  0  0  0  0  0  0  0  0  0  0
   -3.9230   19.7530  -32.6420 C   0  0  0  0  0  0  0  0  0  0  0  0
   -2.7450   20.1230  -32.0280 N   0  0  0  0  0  0  0  0  0  0  0  0
   -1.5500   19.2580  -32.1510 C   0  0  0  0  0  0  0  0  0  0  0  0
   -2.6740   21.3130  -31.3230 C   0  0  0  0  0  0  0  0  0  0  0  0
   -1.6020   21.5730  -30.4470 C   0  0  0  0  0  0  0  0  0  0  0  0
   -1.4610   22.7990  -29.7860 C   0  0  0  0  0  0  0  0  0  0  0  0
   -0.3620   23.0320  -28.9420 O   0  0  0  0  0  0  0  0  0  0  0  0
   -0.0820   22.3310  -27.7330 C   0  0  0  0  0  0  0  0  0  0  0  0
   -2.4410   23.8000  -29.9580 C   0  0  0  0  0  0  0  0  0  0  0  0
   -2.3240   25.0700  -29.3610 O   0  0  0  0  0  0  0  0  0  0  0  0
   -1.8780   25.3720  -28.0430 C   0  0  0  0  0  0  0  0  0  0  0  0
   -3.5880   23.5270  -30.7500 C   0  0  0  0  0  0  0  0  0  0  0  0
   -4.6610   24.4400  -30.8490 O   0  0  0  0  0  0  0  0  0  0  0  0
   -5.4550   24.9810  -29.7990 C   0  0  0  0  0  0  0  0  0  0  0  0
   -3.6920   22.2940  -31.4580 C   0  0  0  0  0  0  0  0  0  0  0  0
   -8.7646   19.3131  -30.4964 H   0  0  0  0  0  0  0  0  0  0  0  0
   -9.5534   18.6961  -31.9876 H   0  0  0  0  0  0  0  0  0  0  0  0
   -7.7949   19.0626  -31.9876 H   0  0  0  0  0  0  0  0  0  0  0  0
   -8.4992   21.0304  -32.9377 H   0  0  0  0  0  0  0  0  0  0  0  0
  -10.1503   20.8968  -32.2334 H   0  0  0  0  0  0  0  0  0  0  0  0
   -9.2160   22.6310  -31.1170 H   0  0  0  0  0  0  0  0  0  0  0  0
   -6.9075   22.2869  -30.0068 H   0  0  0  0  0  0  0  0  0  0  0  0
   -6.7276   21.1421  -31.3886 H   0  0  0  0  0  0  0  0  0  0  0  0
   -7.8147   23.2756  -32.6854 H   0  0  0  0  0  0  0  0  0  0  0  0
   -6.9182   24.1210  -31.3583 H   0  0  0  0  0  0  0  0  0  0  0  0
   -5.4210   23.7720  -33.3490 H   0  0  0  0  0  0  0  0  0  0  0  0
   -6.9222   21.0890  -33.6694 H   0  0  0  0  0  0  0  0  0  0  0  0
   -7.2253   18.7723  -34.5196 H   0  0  0  0  0  0  0  0  0  0  0  0
   -5.4676   17.0563  -34.1248 H   0  0  0  0  0  0  0  0  0  0  0  0
   -3.3739   17.6625  -32.9295 H   0  0  0  0  0  0  0  0  0  0  0  0
   -1.1842   18.9932  -31.1480 H   0  0  0  0  0  0  0  0  0  0  0  0
   -1.8155   18.3415  -32.6982 H   0  0  0  0  0  0  0  0  0  0  0  0
   -0.7623   19.7966  -32.6982 H   0  0  0  0  0  0  0  0  0  0  0  0
   -0.8513   20.7872  -30.2768 H   0  0  0  0  0  0  0  0  0  0  0  0
   -0.3363   22.9676  -26.8727 H   0  0  0  0  0  0  0  0  0  0  0  0
   -0.6809   21.4090  -27.6966 H   0  0  0  0  0  0  0  0  0  0  0  0
    0.9873   22.0753  -27.6966 H   0  0  0  0  0  0  0  0  0  0  0  0
   -2.5581   24.9115  -27.3113 H   0  0  0  0  0  0  0  0  0  0  0  0
   -0.8621   24.9752  -27.8997 H   0  0  0  0  0  0  0  0  0  0  0  0
   -1.8693   26.4626  -27.8997 H   0  0  0  0  0  0  0  0  0  0  0  0
   -5.0273   24.6896  -28.8284 H   0  0  0  0  0  0  0  0  0  0  0  0
   -5.4700   26.0780  -29.8785 H   0  0  0  0  0  0  0  0  0  0  0  0
   -6.4814   24.5936  -29.8785 H   0  0  0  0  0  0  0  0  0  0  0  0
  1  2  1  0
  2  3  1  0
  3  4  1  0
  4  5  1  0
  5  6  1  0
  6  7  1  0
  7  8  2  0
  8  9  1  0
  9 10  2  0
 10 11  1  0
 11 12  2  0
 12 13  1  0
 13 14  2  0
 14 15  1  0
 14 16  1  0
 16 17  2  0
 17 18  1  0
 18 19  1  0
 19 20  1  0
 18 21  2  0
 21 22  1  0
 22 23  1  0
 21 24  1  0
 24 25  1  0
 25 26  1  0
 24 27  2  0
 27  7  1  0
 13  8  1  0
 27 16  1  0
  1 28  1  0
  1 29  1  0
  1 30  1  0
  2 31  1  0
  2 32  1  0
  3 33  1  0
  4 34  1  0
  4 35  1  0
  5 36  1  0
  5 37  1  0
  6 38  1  0
  9 39  1  0
 10 40  1  0
 11 41  1  0
 12 42  1  0
 15 43  1  0
 15 44  1  0
 15 45  1  0
 17 46  1  0
 20 47  1  0
 20 48  1  0
 20 49  1  0
 23 50  1  0
 23 51  1  0
 23 52  1  0
 26 53  1  0
 26 54  1  0
 26 55  1  0
M  CHG  1  14   1
M  END
>  <UniqueID>  (14) 
14

>  <SMILES>  (14) 
CCNCCNc1c2ccccc2[n+](C)c2cc(OC)c(OC)c(OC)c12

>  <Energy>  (14) 
83.40485496152556

>  <Genealogy>  (14) 
CCNCCNc1c2ccccc2[n+](C)c2cc(OC)c(OC)c(OC)c12 (3D coordinates assigned)
CCNCCNc1c2ccccc2[n+](C)c2cc(OC)c(OC)c(OC)c12 (optimized conformer: 83.40485496152556 kcal/mol)

>  <smiles>  (14) 
CCNCCNc1c2ccccc2[n+](C)c2cc(OC)c(OC)c(OC)c12

>  <score_type>  (14) 
oracle

>  <origin>  (14) 
adg

>  <m_score__min__energy>  (14) 
-7.6799999999999997

>  <m_primary>  (14) 
energy

$$$$
15:0
     RDKit          3D

 62 64  0  0  0  0  0  0  0  0999 V2000
   -3.3880   24.5370  -29.7260 C   0  0  0  0  0  0  0  0  0  0  0  0
   -4.6020   24.5630  -30.5590 N   0  0  0  0  0  0  0  0  0  0  0  0
   -5.2900   25.8600  -30.4560 C   0  0  0  0  0  0  0  0  0  0  0  0
   -5.4990   23.4120  -30.3080 C   0  0  0  0  0  0  0  0  0  0  0  0
   -6.7210   23.3420  -31.2430 C   0  0  0  0  0  0  0  0  0  0  0  0
   -6.3320   22.8310  -32.5560 N   0  0  0  0  0  0  0  0  0  0  0  0
   -6.0710   21.4330  -32.7410 C   0  0  0  0  0  0  0  0  0  0  0  0
   -7.1030   20.4970  -32.5820 C   0  0  0  0  0  0  0  0  0  0  0  0
   -8.3960   20.9080  -32.1980 C   0  0  0  0  0  0  0  0  0  0  0  0
   -9.4080   19.9730  -31.9930 C   0  0  0  0  0  0  0  0  0  0  0  0
   -9.1440   18.6170  -32.1520 C   0  0  0  0  0  0  0  0  0  0  0  0
   -7.8760   18.1880  -32.5420 C   0  0  0  0  0  0  0  0  0  0  0  0
   -6.8350   19.1180  -32.7980 C   0  0  0  0  0  0  0  0  0  0  0  0
   -5.5840   18.7140  -33.2280 N   0  0  0  0  0  0  0  0  0  0  0  0
   -5.3820   17.3340  -33.7230 C   0  0  0  0  0  0  0  0  0  0  0  0
   -4.5280   19.6070  -33.2170 C   0  0  0  0  0  0  0  0  0  0  0  0
   -3.1860   19.1800  -33.3890 C   0  0  0  0  0  0  0  0  0  0  0  0
   -2.1260   20.0890  -33.4190 C   0  0  0  0  0  0  0  0  0  0  0  0
   -0.8280   19.5820  -33.5950 O   0  0  0  0  0  0  0  0  0  0  0  0
    0.3560   20.0750  -32.9640 C   0  0  0  0  0  0  0  0  0  0  0  0
    0.1850   20.2080  -31.4320 C   0  0  0  0  0  0  0  0  0  0  0  0
    0.4770   18.9780  -30.6300 N   0  0  0  0  0  0  0  0  0  0  0  0
    1.9510   18.8400  -30.5330 C   0  0  0  0  0  0  0  0  0  0  0  0
   -0.0580   17.7630  -31.2910 C   0  0  0  0  0  0  0  0  0  0  0  0
   -0.0690   19.0780  -29.2560 C   0  0  0  0  0  0  0  0  0  0  0  0
   -2.3910   21.4570  -33.2750 C   0  0  0  0  0  0  0  0  0  0  0  0
   -3.6940   21.9010  -33.0620 C   0  0  0  0  0  0  0  0  0  0  0  0
   -4.7670   20.9900  -33.0100 C   0  0  0  0  0  0  0  0  0  0  0  0
   -3.6723   24.5431  -28.6634 H   0  0  0  0  0  0  0  0  0  0  0  0
   -2.8117   23.6263  -29.9462 H   0  0  0  0  0  0  0  0  0  0  0  0
   -2.7732   25.4222  -29.9462 H   0  0  0  0  0  0  0  0  0  0  0  0
   -5.4274   26.1190  -29.3958 H   0  0  0  0  0  0  0  0  0  0  0  0
   -4.6850   26.6361  -30.9476 H   0  0  0  0  0  0  0  0  0  0  0  0
   -6.2718   25.7943  -30.9476 H   0  0  0  0  0  0  0  0  0  0  0  0
   -4.9161   22.4877  -30.4339 H   0  0  0  0  0  0  0  0  0  0  0  0
   -5.8910   23.5361  -29.2877 H   0  0  0  0  0  0  0  0  0  0  0  0
   -7.4755   22.6732  -30.8032 H   0  0  0  0  0  0  0  0  0  0  0  0
   -7.1354   24.3538  -31.3634 H   0  0  0  0  0  0  0  0  0  0  0  0
   -6.2520   23.4670  -33.3810 H   0  0  0  0  0  0  0  0  0  0  0  0
   -8.6078   21.9784  -32.0588 H   0  0  0  0  0  0  0  0  0  0  0  0
  -10.4158   20.3072  -31.7054 H   0  0  0  0  0  0  0  0  0  0  0  0
   -9.9393   17.8794  -31.9692 H   0  0  0  0  0  0  0  0  0  0  0  0
   -7.6793   17.1114  -32.6530 H   0  0  0  0  0  0  0  0  0  0  0  0
   -5.2817   16.6489  -32.8683 H   0  0  0  0  0  0  0  0  0  0  0  0
   -6.2457   17.0336  -34.3343 H   0  0  0  0  0  0  0  0  0  0  0  0
   -4.4684   17.2938  -34.3343 H   0  0  0  0  0  0  0  0  0  0  0  0
   -2.9751   18.1063  -33.5015 H   0  0  0  0  0  0  0  0  0  0  0  0
    1.1835   19.3801  -33.1698 H   0  0  0  0  0  0  0  0  0  0  0  0
    0.5656   21.0755  -33.3702 H   0  0  0  0  0  0  0  0  0  0  0  0
    0.8608   21.0039  -31.0857 H   0  0  0  0  0  0  0  0  0  0  0  0
   -0.8819   20.4214  -31.2700 H   0  0  0  0  0  0  0  0  0  0  0  0
    2.2478   18.8122  -29.4742 H   0  0  0  0  0  0  0  0  0  0  0  0
    2.2653   17.9085  -31.0265 H   0  0  0  0  0  0  0  0  0  0  0  0
    2.4328   19.6970  -31.0265 H   0  0  0  0  0  0  0  0  0  0  0  0
   -0.3766   17.0396  -30.5260 H   0  0  0  0  0  0  0  0  0  0  0  0
   -0.9191   18.0361  -31.9186 H   0  0  0  0  0  0  0  0  0  0  0  0
    0.7249   17.3122  -31.9186 H   0  0  0  0  0  0  0  0  0  0  0  0
    0.7418   18.9295  -28.5276 H   0  0  0  0  0  0  0  0  0  0  0  0
   -0.5152   20.0728  -29.1103 H   0  0  0  0  0  0  0  0  0  0  0  0
   -0.8388   18.3059  -29.1103 H   0  0  0  0  0  0  0  0  0  0  0  0
   -1.5669   22.1835  -33.3304 H   0  0  0  0  0  0  0  0  0  0  0  0
   -3.8874   22.9761  -32.9328 H   0  0  0  0  0  0  0  0  0  0  0  0
  1  2  1  0
  2  3  1  0
  2  4  1  0
  4  5  1  0
  5  6  1  0
  6  7  1  0
  7  8  2  0
  8  9  1  0
  9 10  2  0
 10 11  1  0
 11 12  2  0
 12 13  1  0
 13 14  2  0
 14 15  1  0
 14 16  1  0
 16 17  2  0
 17 18  1  0
 18 19  1  0
 19 20  1  0
 20 21  1  0
 21 22  1  0
 22 23  1  0
 22 24  1  0
 22 25  1  0
 18 26  2  0
 26 27  1  0
 27 28  2  0
 28  7  1  0
 13  8  1  0
 28 16  1  0
  1 29  1  0
  1 30  1  0
  1 31  1  0
  3 32  1  0
  3 33  1  0
  3 34  1  0
  4 35  1  0
  4 36  1  0
  5 37  1  0
  5 38  1  0
  6 39  1  0
  9 40  1  0
 10 41  1  0
 11 42  1  0
 12 43  1  0
 15 44  1  0
 15 45  1  0
 15 46  1  0
 17 47  1  0
 20 48  1  0
 20 49  1  0
 21 50  1  0
 21 51  1  0
 23 52  1  0
 23 53  1  0
 23 54  1  0
 24 55  1  0
 24 56  1  0
 24 57  1  0
 25 58  1  0
 25 59  1  0
 25 60  1  0
 26 61  1  0
 27 62  1  0
M  CHG  2  14   1  22   1
M  END
>  <UniqueID>  (15) 
15

>  <SMILES>  (15) 
CN(C)CCNc1c2ccccc2[n+](C)c2cc(OCC[N+](C)(C)C)ccc12

>  <Energy>  (15) 
96.9684406849789

>  <Genealogy>  (15) 
CN(C)CCNc1c2ccccc2[n+](C)c2cc(OCC[N+](C)(C)C)ccc12 (3D coordinates assigned)
CN(C)CCNc1c2ccccc2[n+](C)c2cc(OCC[N+](C)(C)C)ccc12 (optimized conformer: 96.9684406849789 kcal/mol)

>  <smiles>  (15) 
CN(C)CCNc1c2ccccc2[n+](C)c2cc(OCC[N+](C)(C)C)ccc12

>  <score_type>  (15) 
oracle

>  <origin>  (15) 
adg

>  <m_score__min__energy>  (15) 
-7.25

>  <m_primary>  (15) 
energy

$$$$
16:0
     RDKit          3D

 26 25  0  0  0  0  0  0  0  0999 V2000
   -6.4170   17.5490  -33.8340 C   0  0  0  0  0  0  0  0  0  0  0  0
   -5.7390   18.8850  -34.1540 C   0  0  0  0  0  0  0  0  0  0  0  0
   -6.6170   20.0400  -33.8960 N   0  0  0  0  0  0  0  0  0  0  0  0
   -7.1710   20.0290  -32.5270 C   0  0  0  0  0  0  0  0  0  0  0  0
   -8.7050   19.7880  -32.5180 C   0  0  1  0  0  0  0  0  0  0  0  0
   -9.0680   18.5520  -31.6790 C   0  0  0  0  0  0  0  0  0  0  0  0
   -9.4650   21.0210  -31.9710 C   0  0  0  0  0  0  0  0  0  0  0  0
   -8.5440   22.1930  -31.6280 C   0  0  0  0  0  0  0  0  0  0  0  0
   -6.4812   17.4224  -32.7432 H   0  0  0  0  0  0  0  0  0  0  0  0
   -7.4292   17.5391  -34.2645 H   0  0  0  0  0  0  0  0  0  0  0  0
   -5.8274   16.7262  -34.2645 H   0  0  0  0  0  0  0  0  0  0  0  0
   -4.8375   18.9812  -33.5310 H   0  0  0  0  0  0  0  0  0  0  0  0
   -5.4921   18.8860  -35.2259 H   0  0  0  0  0  0  0  0  0  0  0  0
   -7.3930   20.0410  -34.5970 H   0  0  0  0  0  0  0  0  0  0  0  0
   -6.0460   20.9080  -34.0300 H   0  0  0  0  0  0  0  0  0  0  0  0
   -6.6829   19.2272  -31.9536 H   0  0  0  0  0  0  0  0  0  0  0  0
   -6.9810   21.0148  -32.0774 H   0  0  0  0  0  0  0  0  0  0  0  0
   -9.0096   19.6157  -33.5609 H   0  0  0  0  0  0  0  0  0  0  0  0
   -8.9951   18.8003  -30.6099 H   0  0  0  0  0  0  0  0  0  0  0  0
  -10.0961   18.2388  -31.9134 H   0  0  0  0  0  0  0  0  0  0  0  0
   -8.3726   17.7326  -31.9134 H   0  0  0  0  0  0  0  0  0  0  0  0
  -10.1855   21.3538  -32.7327 H   0  0  0  0  0  0  0  0  0  0  0  0
   -9.9617   20.7121  -31.0394 H   0  0  0  0  0  0  0  0  0  0  0  0
   -8.4669   22.2911  -30.5351 H   0  0  0  0  0  0  0  0  0  0  0  0
   -7.5452   22.0104  -32.0511 H   0  0  0  0  0  0  0  0  0  0  0  0
   -8.9575   23.1203  -32.0511 H   0  0  0  0  0  0  0  0  0  0  0  0
  1  2  1  0
  2  3  1  0
  3  4  1  0
  4  5  1  0
  5  6  1  0
  5  7  1  0
  7  8  1  0
  1  9  1  0
  1 10  1  0
  1 11  1  0
  2 12  1  0
  2 13  1  0
  3 14  1  0
  3 15  1  0
  4 16  1  0
  4 17  1  0
  5 18  1  6
  6 19  1  0
  6 20  1  0
  6 21  1  0
  7 22  1  0
  7 23  1  0
  8 24  1  0
  8 25  1  0
  8 26  1  0
M  CHG  1   3   1
M  END
>  <UniqueID>  (16) 
16

>  <SMILES>  (16) 
CC[NH2+]C[C@@H](C)CC

>  <Energy>  (16) 
13.845206521418946

>  <Genealogy>  (16) 
CC[NH2+]CC(C)CC (protonated)
CC[NH2+]C[C@@H](C)CC (chirality)
CC[NH2+]C[C@@H](C)CC (3D coordinates assigned)
CC[NH2+]C[C@@H](C)CC (optimized conformer: 13.845206521418946 kcal/mol)

>  <smiles>  (16) 
CCNCC(C)CC

>  <score_type>  (16) 
oracle

>  <origin>  (16) 
adg

>  <m_score__min__energy>  (16) 
-3.6400000000000001

>  <m_primary>  (16) 
energy

$$$$
17:0
     RDKit          3D

 47 48  0  0  0  0  0  0  0  0999 V2000
   -2.1840   21.8960  -31.3210 C   0  0  0  0  0  0  0  0  0  0  0  0
   -2.7940   22.4550  -30.0340 C   0  0  0  0  0  0  0  0  0  0  0  0
   -2.9060   23.9230  -30.0540 N   0  0  0  0  0  0  0  0  0  0  0  0
   -2.8930   24.5000  -28.7030 C   0  0  0  0  0  0  0  0  0  0  0  0
   -4.1980   24.1460  -27.9810 C   0  0  0  0  0  0  0  0  0  0  0  0
   -5.3040   23.9980  -28.9420 N   0  0  0  0  0  0  0  0  0  0  0  0
   -5.8740   25.2990  -29.3370 C   0  0  0  0  0  0  0  0  0  0  0  0
   -5.7400   25.5990  -30.8420 C   0  0  0  0  0  0  0  0  0  0  0  0
   -5.2710   24.4560  -31.5620 O   0  0  0  0  0  0  0  0  0  0  0  0
   -5.9860   23.2740  -31.8220 C   0  0  0  0  0  0  0  0  0  0  0  0
   -7.3550   23.2640  -31.5270 C   0  0  0  0  0  0  0  0  0  0  0  0
   -8.1290   22.1220  -31.7510 C   0  0  0  0  0  0  0  0  0  0  0  0
   -7.5380   20.9640  -32.2810 C   0  0  0  0  0  0  0  0  0  0  0  0
   -8.2710   19.7900  -32.5220 C   0  0  0  0  0  0  0  0  0  0  0  0
   -9.5050   19.7290  -32.2650 O   0  0  0  0  0  0  0  0  0  0  0  0
   -7.6220   18.6760  -33.0530 C   0  0  0  0  0  0  0  0  0  0  0  0
   -6.2490   18.7530  -33.3300 C   0  0  0  0  0  0  0  0  0  0  0  0
   -5.5160   17.5660  -33.8770 C   0  0  0  0  0  0  0  0  0  0  0  0
   -6.4120   16.3330  -33.8880 C   0  0  0  0  0  0  0  0  0  0  0  0
   -5.5810   19.8770  -33.0870 O   0  0  0  0  0  0  0  0  0  0  0  0
   -6.1590   20.9660  -32.5870 C   0  0  0  0  0  0  0  0  0  0  0  0
   -5.3940   22.1160  -32.3660 C   0  0  0  0  0  0  0  0  0  0  0  0
   -1.3947   21.1727  -31.0686 H   0  0  0  0  0  0  0  0  0  0  0  0
   -2.9662   21.3946  -31.9098 H   0  0  0  0  0  0  0  0  0  0  0  0
   -1.7526   22.7189  -31.9098 H   0  0  0  0  0  0  0  0  0  0  0  0
   -3.7988   22.0263  -29.9048 H   0  0  0  0  0  0  0  0  0  0  0  0
   -2.1276   22.1821  -29.2025 H   0  0  0  0  0  0  0  0  0  0  0  0
   -3.7950   24.1960  -30.5350 H   0  0  0  0  0  0  0  0  0  0  0  0
   -2.0406   24.0932  -28.1392 H   0  0  0  0  0  0  0  0  0  0  0  0
   -2.7991   25.5937  -28.7734 H   0  0  0  0  0  0  0  0  0  0  0  0
   -4.0638   23.1994  -27.4371 H   0  0  0  0  0  0  0  0  0  0  0  0
   -4.4452   24.9580  -27.2814 H   0  0  0  0  0  0  0  0  0  0  0  0
   -4.9940   23.4640  -29.7820 H   0  0  0  0  0  0  0  0  0  0  0  0
   -6.0640   23.4440  -28.4810 H   0  0  0  0  0  0  0  0  0  0  0  0
   -6.9423   25.3047  -29.0749 H   0  0  0  0  0  0  0  0  0  0  0  0
   -5.3080   26.0754  -28.8014 H   0  0  0  0  0  0  0  0  0  0  0  0
   -6.7237   25.8923  -31.2375 H   0  0  0  0  0  0  0  0  0  0  0  0
   -5.0100   26.4119  -30.9694 H   0  0  0  0  0  0  0  0  0  0  0  0
   -7.8275   24.1671  -31.1134 H   0  0  0  0  0  0  0  0  0  0  0  0
   -9.2026   22.1305  -31.5117 H   0  0  0  0  0  0  0  0  0  0  0  0
   -8.1794   17.7488  -33.2521 H   0  0  0  0  0  0  0  0  0  0  0  0
   -5.1917   17.7850  -34.9050 H   0  0  0  0  0  0  0  0  0  0  0  0
   -4.6458   17.3632  -33.2354 H   0  0  0  0  0  0  0  0  0  0  0  0
   -6.6319   16.0303  -32.8536 H   0  0  0  0  0  0  0  0  0  0  0  0
   -7.3519   16.5674  -34.4092 H   0  0  0  0  0  0  0  0  0  0  0  0
   -5.8988   15.5114  -34.4092 H   0  0  0  0  0  0  0  0  0  0  0  0
   -4.3233   22.1168  -32.6184 H   0  0  0  0  0  0  0  0  0  0  0  0
  1  2  1  0
  2  3  1  0
  3  4  1  0
  4  5  1  0
  5  6  1  0
  6  7  1  0
  7  8  1  0
  8  9  1  0
  9 10  1  0
 10 11  2  0
 11 12  1  0
 12 13  2  0
 13 14  1  0
 14 15  2  0
 14 16  1  0
 16 17  2  0
 17 18  1  0
 18 19  1  0
 17 20  1  0
 20 21  1  0
 21 22  2  0
 22 10  1  0
 21 13  1  0
  1 23  1  0
  1 24  1  0
  1 25  1  0
  2 26  1  0
  2 27  1  0
  3 28  1  0
  4 29  1  0
  4 30  1  0
  5 31  1  0
  5 32  1  0
  6 33  1  0
  6 34  1  0
  7 35  1  0
  7 36  1  0
  8 37  1  0
  8 38  1  0
 11 39  1  0
 12 40  1  0
 16 41  1  0
 18 42  1  0
 18 43  1  0
 19 44  1  0
 19 45  1  0
 19 46  1  0
 22 47  1  0
M  CHG  1   6   1
M  END
>  <UniqueID>  (17) 
17

>  <SMILES>  (17) 
CCNCC[NH2+]CCOc1ccc2c(=O)cc(CC)oc2c1

>  <Energy>  (17) 
43.207910877316294

>  <Genealogy>  (17) 
CCNCC[NH2+]CCOc1ccc2c(=O)cc(CC)oc2c1 (protonated)
CCNCC[NH2+]CCOc1ccc2c(=O)cc(CC)oc2c1 (3D coordinates assigned)
CCNCC[NH2+]CCOc1ccc2c(=O)cc(CC)oc2c1 (optimized conformer: 43.207910877316294 kcal/mol)

>  <smiles>  (17) 
CCNCCNCCOc1ccc2c(=O)cc(CC)oc2c1

>  <score_type>  (17) 
oracle

>  <origin>  (17) 
adg

>  <m_score__min__energy>  (17) 
-5.6900000000000004

>  <m_primary>  (17) 
energy

$$$$
18:0
     RDKit          3D

 71 74  0  0  0  0  0  0  0  0999 V2000
   -1.6540   20.4650  -29.7790 C   0  0  0  0  0  0  0  0  0  0  0  0
   -2.8020   20.6780  -28.7920 C   0  0  0  0  0  0  0  0  0  0  0  0
   -2.3040   20.6620  -27.3990 N   0  0  0  0  0  0  0  0  0  0  0  0
   -2.0930   19.2900  -26.8770 C   0  0  0  0  0  0  0  0  0  0  0  0
   -3.2660   18.7490  -26.0430 C   0  0  0  0  0  0  0  0  0  0  0  0
   -1.1330   21.5440  -27.1850 C   0  0  0  0  0  0  0  0  0  0  0  0
   -1.5660   23.0090  -27.2500 C   0  0  0  0  0  0  0  0  0  0  0  0
   -1.3390   23.5220  -28.5570 O   0  0  0  0  0  0  0  0  0  0  0  0
   -2.2450   24.5610  -28.8890 C   0  0  0  0  0  0  0  0  0  0  0  0
   -3.2470   24.0800  -29.9420 C   0  0  0  0  0  0  0  0  0  0  0  0
   -3.8940   25.1930  -30.5180 O   0  0  0  0  0  0  0  0  0  0  0  0
   -5.2960   25.0320  -30.4500 C   0  0  0  0  0  0  0  0  0  0  0  0
   -5.6530   23.5580  -30.6860 C   0  0  0  0  0  0  0  0  0  0  0  0
   -5.6160   23.1770  -32.1050 N   0  0  0  0  0  0  0  0  0  0  0  0
   -5.7450   21.8130  -32.5400 C   0  0  0  0  0  0  0  0  0  0  0  0
   -4.6140   21.1240  -33.0010 C   0  0  0  0  0  0  0  0  0  0  0  0
   -4.6900   19.7350  -33.2130 C   0  0  0  0  0  0  0  0  0  0  0  0
   -5.9300   19.1440  -33.3430 N   0  0  0  0  0  0  0  0  0  0  0  0
   -6.1030   17.9530  -34.1990 C   0  0  0  0  0  0  0  0  0  0  0  0
   -7.0490   19.7790  -32.8400 C   0  0  0  0  0  0  0  0  0  0  0  0
   -8.2890   19.1040  -32.7180 C   0  0  0  0  0  0  0  0  0  0  0  0
   -9.4040   19.7500  -32.1830 C   0  0  0  0  0  0  0  0  0  0  0  0
   -9.3190   21.0790  -31.7790 C   0  0  0  0  0  0  0  0  0  0  0  0
   -8.1150   21.7690  -31.8980 C   0  0  0  0  0  0  0  0  0  0  0  0
   -6.9680   21.1290  -32.4100 C   0  0  0  0  0  0  0  0  0  0  0  0
   -3.3980   18.9620  -33.2430 C   0  0  0  0  0  0  0  0  0  0  0  0
   -3.3700   17.6070  -33.0280 N   0  0  0  0  0  0  0  0  0  0  0  0
   -2.2130   16.8920  -33.0690 C   0  0  0  0  0  0  0  0  0  0  0  0
   -0.9960   17.5380  -33.2650 C   0  0  0  0  0  0  0  0  0  0  0  0
   -0.9710   18.9250  -33.3570 C   0  0  0  0  0  0  0  0  0  0  0  0
   -2.1670   19.6570  -33.3200 C   0  0  0  0  0  0  0  0  0  0  0  0
   -2.0910   21.1470  -33.1120 C   0  0  0  0  0  0  0  0  0  0  0  0
   -3.3860   21.8680  -33.4760 C   0  0  0  0  0  0  0  0  0  0  0  0
   -0.7204   20.2918  -29.2237 H   0  0  0  0  0  0  0  0  0  0  0  0
   -1.8717   19.5919  -30.4117 H   0  0  0  0  0  0  0  0  0  0  0  0
   -1.5440   21.3581  -30.4117 H   0  0  0  0  0  0  0  0  0  0  0  0
   -3.2768   21.6494  -28.9946 H   0  0  0  0  0  0  0  0  0  0  0  0
   -3.5308   19.8635  -28.9163 H   0  0  0  0  0  0  0  0  0  0  0  0
   -1.9365   18.6154  -27.7316 H   0  0  0  0  0  0  0  0  0  0  0  0
   -1.2217   19.3357  -26.2071 H   0  0  0  0  0  0  0  0  0  0  0  0
   -3.0349   18.8556  -24.9728 H   0  0  0  0  0  0  0  0  0  0  0  0
   -4.1773   19.3178  -26.2798 H   0  0  0  0  0  0  0  0  0  0  0  0
   -3.4250   17.6866  -26.2798 H   0  0  0  0  0  0  0  0  0  0  0  0
   -0.6957   21.3364  -26.1972 H   0  0  0  0  0  0  0  0  0  0  0  0
   -0.3867   21.3518  -27.9699 H   0  0  0  0  0  0  0  0  0  0  0  0
   -2.6367   23.0842  -27.0093 H   0  0  0  0  0  0  0  0  0  0  0  0
   -0.9806   23.5928  -26.5244 H   0  0  0  0  0  0  0  0  0  0  0  0
   -2.7899   24.8694  -27.9846 H   0  0  0  0  0  0  0  0  0  0  0  0
   -1.6787   25.4109  -29.2977 H   0  0  0  0  0  0  0  0  0  0  0  0
   -2.7154   23.5192  -30.7249 H   0  0  0  0  0  0  0  0  0  0  0  0
   -3.9938   23.4272  -29.4664 H   0  0  0  0  0  0  0  0  0  0  0  0
   -5.6530   25.3414  -29.4566 H   0  0  0  0  0  0  0  0  0  0  0  0
   -5.7746   25.6535  -31.2211 H   0  0  0  0  0  0  0  0  0  0  0  0
   -4.9353   22.9314  -30.1362 H   0  0  0  0  0  0  0  0  0  0  0  0
   -6.6840   23.4091  -30.3327 H   0  0  0  0  0  0  0  0  0  0  0  0
   -5.8320   23.9220  -32.8060 H   0  0  0  0  0  0  0  0  0  0  0  0
   -6.2324   17.0624  -33.5664 H   0  0  0  0  0  0  0  0  0  0  0  0
   -6.9916   18.0838  -34.8341 H   0  0  0  0  0  0  0  0  0  0  0  0
   -5.2139   17.8256  -34.8341 H   0  0  0  0  0  0  0  0  0  0  0  0
   -8.3735   18.0584  -33.0490 H   0  0  0  0  0  0  0  0  0  0  0  0
  -10.3547   19.2063  -32.0801 H   0  0  0  0  0  0  0  0  0  0  0  0
  -10.2037   21.5851  -31.3652 H   0  0  0  0  0  0  0  0  0  0  0  0
   -8.0586   22.8234  -31.5895 H   0  0  0  0  0  0  0  0  0  0  0  0
   -4.2300   17.0860  -32.7580 H   0  0  0  0  0  0  0  0  0  0  0  0
   -2.2397   15.7991  -32.9468 H   0  0  0  0  0  0  0  0  0  0  0  0
   -0.0648   16.9580  -33.3462 H   0  0  0  0  0  0  0  0  0  0  0  0
   -0.0099   19.4502  -33.4592 H   0  0  0  0  0  0  0  0  0  0  0  0
   -1.8674   21.3419  -32.0527 H   0  0  0  0  0  0  0  0  0  0  0  0
   -1.3030   21.5316  -33.7762 H   0  0  0  0  0  0  0  0  0  0  0  0
   -3.3767   22.8659  -33.0132 H   0  0  0  0  0  0  0  0  0  0  0  0
   -3.4367   21.9325  -34.5729 H   0  0  0  0  0  0  0  0  0  0  0  0
  1  2  1  0
  2  3  1  0
  3  4  1  0
  4  5  1  0
  3  6  1  0
  6  7  1  0
  7  8  1  0
  8  9  1  0
  9 10  1  0
 10 11  1  0
 11 12  1  0
 12 13  1  0
 13 14  1  0
 14 15  1  0
 15 16  2  0
 16 17  1  0
 17 18  2  0
 18 19  1  0
 18 20  1  0
 20 21  2  0
 21 22  1  0
 22 23  2  0
 23 24  1  0
 24 25  2  0
 17 26  1  0
 26 27  2  0
 27 28  1  0
 28 29  2  0
 29 30  1  0
 30 31  2  0
 31 32  1  0
 32 33  1  0
 25 15  1  0
 31 26  1  0
 33 16  1  0
 25 20  1  0
  1 34  1  0
  1 35  1  0
  1 36  1  0
  2 37  1  0
  2 38  1  0
  4 39  1  0
  4 40  1  0
  5 41  1  0
  5 42  1  0
  5 43  1  0
  6 44  1  0
  6 45  1  0
  7 46  1  0
  7 47  1  0
  9 48  1  0
  9 49  1  0
 10 50  1  0
 10 51  1  0
 12 52  1  0
 12 53  1  0
 13 54  1  0
 13 55  1  0
 14 56  1  0
 19 57  1  0
 19 58  1  0
 19 59  1  0
 21 60  1  0
 22 61  1  0
 23 62  1  0
 24 63  1  0
 27 64  1  0
 28 65  1  0
 29 66  1  0
 30 67  1  0
 32 68  1  0
 32 69  1  0
 33 70  1  0
 33 71  1  0
M  CHG  2  18   1  27   1
M  END
>  <UniqueID>  (18) 
18

>  <SMILES>  (18) 
CCN(CC)CCOCCOCCNc1c2c([n+](C)c3ccccc13)-c1[nH+]cccc1CC2

>  <Energy>  (18) 
106.83669963255657

>  <Genealogy>  (18) 
CCN(CC)CCOCCOCCNc1c2c([n+](C)c3ccccc13)-c1[nH+]cccc1CC2 (protonated)
CCN(CC)CCOCCOCCNc1c2c([n+](C)c3ccccc13)-c1[nH+]cccc1CC2 (3D coordinates assigned)
CCN(CC)CCOCCOCCNc1c2c([n+](C)c3ccccc13)-c1[nH+]cccc1CC2 (nonaromatic ring conformer: 106.83669963255657 kcal/mol)

>  <smiles>  (18) 
CCN(CC)CCOCCOCCNc1c2c([n+](C)c3ccccc13)-c1ncccc1CC2

>  <score_type>  (18) 
oracle

>  <origin>  (18) 
adg

>  <m_score__min__energy>  (18) 
-8.4100000000000001

>  <m_primary>  (18) 
energy

$$$$
19:0
     RDKit          3D

 47 49  0  0  0  0  0  0  0  0999 V2000
   -4.6260   17.2530  -35.0060 C   0  0  0  0  0  0  0  0  0  0  0  0
   -4.7440   17.4410  -33.4960 C   0  0  0  0  0  0  0  0  0  0  0  0
   -5.5470   18.6400  -33.1730 N   0  0  0  0  0  0  0  0  0  0  0  0
   -4.9670   19.8840  -33.0900 C   0  0  0  0  0  0  0  0  0  0  0  0
   -3.2250   20.1680  -33.4530 S   0  0  0  0  0  0  0  0  0  0  0  0
   -3.0390   21.6100  -32.3380 C   0  0  0  0  0  0  0  0  0  0  0  0
   -3.4970   21.2590  -30.9180 C   0  0  0  0  0  0  0  0  0  0  0  0
   -4.2920   22.3550  -30.3180 N   0  0  0  0  0  0  0  0  0  0  0  0
   -4.7780   23.3050  -31.3510 C   0  0  0  0  0  0  0  0  0  0  0  0
   -5.0090   24.7040  -30.7570 C   0  0  0  0  0  0  0  0  0  0  0  0
   -3.8250   25.2950  -30.2410 O   0  0  0  0  0  0  0  0  0  0  0  0
   -2.9000   24.3500  -29.7160 C   0  0  0  0  0  0  0  0  0  0  0  0
   -3.5510   23.0410  -29.2290 C   0  0  0  0  0  0  0  0  0  0  0  0
   -5.7090   20.9590  -32.7300 N   0  0  0  0  0  0  0  0  0  0  0  0
   -7.0340   20.8660  -32.4730 C   0  0  0  0  0  0  0  0  0  0  0  0
   -7.6800   19.6290  -32.6230 C   0  0  0  0  0  0  0  0  0  0  0  0
   -6.8980   18.5100  -32.9570 C   0  0  0  0  0  0  0  0  0  0  0  0
   -7.4520   17.3790  -33.0540 O   0  0  0  0  0  0  0  0  0  0  0  0
   -9.1580   19.4680  -32.3210 C   0  0  0  0  0  0  0  0  0  0  0  0
   -9.9110   20.8010  -32.2990 C   0  0  0  0  0  0  0  0  0  0  0  0
   -9.1420   21.8430  -31.4910 C   0  0  0  0  0  0  0  0  0  0  0  0
   -7.7930   22.1270  -32.1540 C   0  0  0  0  0  0  0  0  0  0  0  0
   -4.0522   16.3388  -35.2179 H   0  0  0  0  0  0  0  0  0  0  0  0
   -5.6311   17.1649  -35.4442 H   0  0  0  0  0  0  0  0  0  0  0  0
   -4.1097   18.1198  -35.4442 H   0  0  0  0  0  0  0  0  0  0  0  0
   -5.2287   16.5551  -33.0599 H   0  0  0  0  0  0  0  0  0  0  0  0
   -3.7346   17.5721  -33.0790 H   0  0  0  0  0  0  0  0  0  0  0  0
   -1.9817   21.9125  -32.3121 H   0  0  0  0  0  0  0  0  0  0  0  0
   -3.6621   22.4333  -32.7174 H   0  0  0  0  0  0  0  0  0  0  0  0
   -4.1141   20.3492  -30.9560 H   0  0  0  0  0  0  0  0  0  0  0  0
   -2.6035   21.1003  -30.2964 H   0  0  0  0  0  0  0  0  0  0  0  0
   -4.0294   23.3755  -32.1539 H   0  0  0  0  0  0  0  0  0  0  0  0
   -5.7352   22.9317  -31.7439 H   0  0  0  0  0  0  0  0  0  0  0  0
   -5.4105   25.3569  -31.5460 H   0  0  0  0  0  0  0  0  0  0  0  0
   -5.7107   24.5910  -29.9175 H   0  0  0  0  0  0  0  0  0  0  0  0
   -2.1731   24.1028  -30.5038 H   0  0  0  0  0  0  0  0  0  0  0  0
   -2.4300   24.8179  -28.8384 H   0  0  0  0  0  0  0  0  0  0  0  0
   -2.7639   22.3693  -28.8559 H   0  0  0  0  0  0  0  0  0  0  0  0
   -4.2676   23.2912  -28.4328 H   0  0  0  0  0  0  0  0  0  0  0  0
   -9.6058   18.8248  -33.0928 H   0  0  0  0  0  0  0  0  0  0  0  0
   -9.2433   19.0245  -31.3180 H   0  0  0  0  0  0  0  0  0  0  0  0
  -10.0342   21.1630  -33.3304 H   0  0  0  0  0  0  0  0  0  0  0  0
  -10.8932   20.6441  -31.8292 H   0  0  0  0  0  0  0  0  0  0  0  0
   -9.7279   22.7728  -31.4441 H   0  0  0  0  0  0  0  0  0  0  0  0
   -8.9713   21.4583  -30.4747 H   0  0  0  0  0  0  0  0  0  0  0  0
   -7.9681   22.6801  -33.0886 H   0  0  0  0  0  0  0  0  0  0  0  0
   -7.1880   22.7130  -31.4465 H   0  0  0  0  0  0  0  0  0  0  0  0
  1  2  1  0
  2  3  1  0
  3  4  1  0
  4  5  1  0
  5  6  1  0
  6  7  1  0
  7  8  1  0
  8  9  1  0
  9 10  1  0
 10 11  1  0
 11 12  1  0
 12 13  1  0
  4 14  2  0
 14 15  1  0
 15 16  2  0
 16 17  1  0
 17 18  2  0
 16 19  1  0
 19 20  1  0
 20 21  1  0
 21 22  1  0
 17  3  1  0
 13  8  1  0
 22 15  1  0
  1 23  1  0
  1 24  1  0
  1 25  1  0
  2 26  1  0
  2 27  1  0
  6 28  1  0
  6 29  1  0
  7 30  1  0
  7 31  1  0
  9 32  1  0
  9 33  1  0
 10 34  1  0
 10 35  1  0
 12 36  1  0
 12 37  1  0
 13 38  1  0
 13 39  1  0
 19 40  1  0
 19 41  1  0
 20 42  1  0
 20 43  1  0
 21 44  1  0
 21 45  1  0
 22 46  1  0
 22 47  1  0
M  END
>  <UniqueID>  (19) 
19

>  <SMILES>  (19) 
CCn1c(SCCN2CCOCC2)nc2c(c1=O)CCCC2

>  <Energy>  (19) 
57.844667053272815

>  <Genealogy>  (19) 
CCn1c(SCCN2CCOCC2)nc2c(c1=O)CCCC2 (3D coordinates assigned)
CCn1c(SCCN2CCOCC2)nc2c(c1=O)CCCC2 (nonaromatic ring conformer: 57.844667053272815 kcal/mol)

>  <smiles>  (19) 
CCn1c(SCCN2CCOCC2)nc2c(c1=O)CCCC2

>  <score_type>  (19) 
oracle

>  <origin>  (19) 
adg

>  <m_score__min__energy>  (19) 
-8.3100000000000005

>  <m_primary>  (19) 
energy

$$$$
20:0
     RDKit          3D

 32 35  0  0  0  0  0  0  0  0999 V2000
   -4.9980   14.4780  -33.5550 C   0  0  0  0  0  0  0  0  0  0  0  0
   -5.5180   15.5890  -34.2780 O   0  0  0  0  0  0  0  0  0  0  0  0
   -5.8960   16.8060  -33.6930 C   0  0  0  0  0  0  0  0  0  0  0  0
   -7.2300   17.0650  -33.2720 C   0  0  0  0  0  0  0  0  0  0  0  0
   -7.5770   18.3010  -32.6990 C   0  0  0  0  0  0  0  0  0  0  0  0
   -6.5630   19.2260  -32.4830 C   0  0  0  0  0  0  0  0  0  0  0  0
   -5.2640   19.0070  -32.9400 C   0  0  0  0  0  0  0  0  0  0  0  0
   -4.9090   17.7990  -33.5350 C   0  0  0  0  0  0  0  0  0  0  0  0
   -4.4360   20.1250  -32.7270 O   0  0  0  0  0  0  0  0  0  0  0  0
   -5.1830   20.8850  -31.7900 C   0  0  1  0  0  0  0  0  0  0  0  0
   -5.2290   22.3430  -31.5650 C   0  0  0  0  0  0  0  0  0  0  0  0
   -6.5220   22.5610  -31.1080 C   0  0  0  0  0  0  0  0  0  0  0  0
   -6.8630   23.7640  -30.5070 C   0  0  0  0  0  0  0  0  0  0  0  0
   -5.8380   24.7200  -30.3570 C   0  0  0  0  0  0  0  0  0  0  0  0
   -6.1370   26.0440  -29.7330 C   0  0  0  0  0  0  0  0  0  0  0  0
   -4.5830   24.4430  -30.7470 O   0  0  0  0  0  0  0  0  0  0  0  0
   -4.2370   23.2820  -31.3090 C   0  0  0  0  0  0  0  0  0  0  0  0
   -3.0340   23.0430  -31.5890 O   0  0  0  0  0  0  0  0  0  0  0  0
   -7.3520   21.4450  -31.3230 O   0  0  0  0  0  0  0  0  0  0  0  0
   -6.6050   20.6830  -32.2580 C   0  0  2  0  0  0  0  0  0  0  0  0
   -5.0873   14.6689  -32.4754 H   0  0  0  0  0  0  0  0  0  0  0  0
   -5.5659   13.5727  -33.8155 H   0  0  0  0  0  0  0  0  0  0  0  0
   -3.9390   14.3342  -33.8155 H   0  0  0  0  0  0  0  0  0  0  0  0
   -7.9993   16.2887  -33.3963 H   0  0  0  0  0  0  0  0  0  0  0  0
   -8.6190   18.5287  -32.4300 H   0  0  0  0  0  0  0  0  0  0  0  0
   -3.8777   17.6234  -33.8751 H   0  0  0  0  0  0  0  0  0  0  0  0
   -4.6845   20.5291  -30.8763 H   0  0  0  0  0  0  0  0  0  0  0  0
   -7.8885   23.9632  -30.1625 H   0  0  0  0  0  0  0  0  0  0  0  0
   -6.1150   25.9464  -28.6376 H   0  0  0  0  0  0  0  0  0  0  0  0
   -5.3820   26.7781  -30.0510 H   0  0  0  0  0  0  0  0  0  0  0  0
   -7.1342   26.3824  -30.0510 H   0  0  0  0  0  0  0  0  0  0  0  0
   -7.1018   21.0384  -33.1728 H   0  0  0  0  0  0  0  0  0  0  0  0
  1  2  1  0
  2  3  1  0
  3  4  2  0
  4  5  1  0
  5  6  2  0
  6  7  1  0
  7  8  2  0
  7  9  1  0
  9 10  1  0
 10 11  1  0
 11 12  2  0
 12 13  1  0
 13 14  2  0
 14 15  1  0
 14 16  1  0
 16 17  1  0
 17 18  2  0
 12 19  1  0
 19 20  1  0
  8  3  1  0
 20 10  1  0
 20  6  1  0
 17 11  1  0
  1 21  1  0
  1 22  1  0
  1 23  1  0
  4 24  1  0
  5 25  1  0
  8 26  1  0
 10 27  1  1
 13 28  1  0
 15 29  1  0
 15 30  1  0
 15 31  1  0
 20 32  1  6
M  END
>  <UniqueID>  (20) 
20

>  <SMILES>  (20) 
COc1ccc2c(c1)O[C@H]1c3c(cc(C)oc3=O)O[C@H]21

>  <Energy>  (20) 
141.53470759174917

>  <Genealogy>  (20) 
COc1ccc2c(c1)O[C@H]1c3c(cc(C)oc3=O)O[C@H]21 (chirality)
COc1ccc2c(c1)O[C@H]1c3c(cc(C)oc3=O)O[C@H]21 (3D coordinates assigned)
COc1ccc2c(c1)O[C@H]1c3c(cc(C)oc3=O)O[C@H]21 (nonaromatic ring conformer: 141.53470759174917 kcal/mol)

>  <smiles>  (20) 
COc1ccc2c(c1)OC1c3c(cc(C)oc3=O)OC21

>  <score_type>  (20) 
oracle

>  <origin>  (20) 
adg

>  <m_score__min__energy>  (20) 
-6.6200000000000001

>  <m_primary>  (20) 
energy

$$$$
21:0
     RDKit          3D

 47 49  0  0  0  0  0  0  0  0999 V2000
   -8.1790   18.1990  -31.9730 C   0  0  0  0  0  0  0  0  0  0  0  0
   -8.3740   19.7130  -31.9950 C   0  0  0  0  0  0  0  0  0  0  0  0
   -7.1220   20.4480  -31.4700 C   0  0  0  0  0  0  0  0  0  0  0  0
   -6.2610   21.0110  -32.5460 N   0  0  0  0  0  0  0  0  0  0  0  0
   -5.2090   20.0420  -32.9540 C   0  0  0  0  0  0  0  0  0  0  0  0
   -3.8880   20.6800  -33.4140 C   0  0  0  0  0  0  0  0  0  0  0  0
   -3.0440   21.0220  -32.2610 N   0  0  0  0  0  0  0  0  0  0  0  0
   -1.7420   20.4110  -32.1460 C   0  0  0  0  0  0  0  0  0  0  0  0
   -1.5350   19.5530  -31.2450 O   0  0  0  0  0  0  0  0  0  0  0  0
   -0.6370   20.7540  -33.0630 C   0  0  0  0  0  0  0  0  0  0  0  0
   -0.6730   21.6260  -34.1350 C   0  0  0  0  0  0  0  0  0  0  0  0
    0.5130   21.6170  -34.7000 O   0  0  0  0  0  0  0  0  0  0  0  0
    1.2600   20.7710  -34.0260 C   0  0  0  0  0  0  0  0  0  0  0  0
    2.6890   20.4820  -34.3450 C   0  0  0  0  0  0  0  0  0  0  0  0
    0.5910   20.2080  -33.0030 N   0  0  0  0  0  0  0  0  0  0  0  0
   -3.2710   22.2810  -31.5380 C   0  0  0  0  0  0  0  0  0  0  0  0
   -4.7320   22.4620  -31.0760 C   0  0  2  0  0  0  0  0  0  0  0  0
   -5.7420   22.3890  -32.2550 C   0  0  2  0  0  0  0  0  0  0  0  0
   -6.8370   23.4680  -32.0260 C   0  0  0  0  0  0  0  0  0  0  0  0
   -6.1580   24.7180  -31.4960 C   0  0  0  0  0  0  0  0  0  0  0  0
   -4.9370   24.0970  -30.3900 S   0  0  0  0  0  0  0  0  0  0  0  0
   -5.4670   24.0300  -28.9860 O   0  0  0  0  0  0  0  0  0  0  0  0
   -3.6860   24.9310  -30.4420 O   0  0  0  0  0  0  0  0  0  0  0  0
   -8.1341   17.8502  -30.9307 H   0  0  0  0  0  0  0  0  0  0  0  0
   -9.0220   17.7132  -32.4862 H   0  0  0  0  0  0  0  0  0  0  0  0
   -7.2404   17.9427  -32.4862 H   0  0  0  0  0  0  0  0  0  0  0  0
   -8.5707   20.0339  -33.0286 H   0  0  0  0  0  0  0  0  0  0  0  0
   -9.2227   19.9631  -31.3414 H   0  0  0  0  0  0  0  0  0  0  0  0
   -7.4508   21.2733  -30.8213 H   0  0  0  0  0  0  0  0  0  0  0  0
   -6.5164   19.7046  -30.9308 H   0  0  0  0  0  0  0  0  0  0  0  0
   -4.9930   19.3896  -32.0951 H   0  0  0  0  0  0  0  0  0  0  0  0
   -5.6091   19.4982  -33.8224 H   0  0  0  0  0  0  0  0  0  0  0  0
   -3.3489   19.9689  -34.0572 H   0  0  0  0  0  0  0  0  0  0  0  0
   -4.1164   21.6017  -33.9693 H   0  0  0  0  0  0  0  0  0  0  0  0
   -1.5400   22.2212  -34.4574 H   0  0  0  0  0  0  0  0  0  0  0  0
    3.2574   20.3671  -33.4103 H   0  0  0  0  0  0  0  0  0  0  0  0
    2.7534   19.5526  -34.9299 H   0  0  0  0  0  0  0  0  0  0  0  0
    3.1095   21.3133  -34.9299 H   0  0  0  0  0  0  0  0  0  0  0  0
    0.9500   19.5070  -32.3160 H   0  0  0  0  0  0  0  0  0  0  0  0
   -2.6195   22.2975  -30.6518 H   0  0  0  0  0  0  0  0  0  0  0  0
   -3.0440   23.1026  -32.2333 H   0  0  0  0  0  0  0  0  0  0  0  0
   -4.9274   21.6558  -30.3535 H   0  0  0  0  0  0  0  0  0  0  0  0
   -5.2150   22.6218  -33.1921 H   0  0  0  0  0  0  0  0  0  0  0  0
   -7.3445   23.6927  -32.9757 H   0  0  0  0  0  0  0  0  0  0  0  0
   -7.5870   23.1058  -31.3074 H   0  0  0  0  0  0  0  0  0  0  0  0
   -5.6924   25.2876  -32.3138 H   0  0  0  0  0  0  0  0  0  0  0  0
   -6.8610   25.4093  -31.0083 H   0  0  0  0  0  0  0  0  0  0  0  0
  1  2  1  0
  2  3  1  0
  3  4  1  0
  4  5  1  0
  5  6  1  0
  6  7  1  0
  7  8  1  0
  8  9  2  0
  8 10  1  0
 10 11  2  0
 11 12  1  0
 12 13  1  0
 13 14  1  0
 13 15  2  0
  7 16  1  0
 16 17  1  0
 17 18  1  0
 18 19  1  0
 19 20  1  0
 20 21  1  0
 21 22  2  0
 21 23  2  0
 18  4  1  0
 15 10  1  0
 21 17  1  0
  1 24  1  0
  1 25  1  0
  1 26  1  0
  2 27  1  0
  2 28  1  0
  3 29  1  0
  3 30  1  0
  5 31  1  0
  5 32  1  0
  6 33  1  0
  6 34  1  0
 11 35  1  0
 14 36  1  0
 14 37  1  0
 14 38  1  0
 15 39  1  0
 16 40  1  0
 16 41  1  0
 17 42  1  1
 18 43  1  6
 19 44  1  0
 19 45  1  0
 20 46  1  0
 20 47  1  0
M  CHG  1  15   1
M  END
>  <UniqueID>  (21) 
21

>  <SMILES>  (21) 
CCCN1CCN(C(=O)c2coc(C)[nH+]2)C[C@@H]2[C@@H]1CCS2(=O)=O

>  <Energy>  (21) 
93.82650495332638

>  <Genealogy>  (21) 
CCCN1CCN(C(=O)c2coc(C)[nH+]2)CC2C1CCS2(=O)=O (protonated)
CCCN1CCN(C(=O)c2coc(C)[nH+]2)C[C@@H]2[C@@H]1CCS2(=O)=O (chirality)
CCCN1CCN(C(=O)c2coc(C)[nH+]2)C[C@@H]2[C@@H]1CCS2(=O)=O (3D coordinates assigned)
CCCN1CCN(C(=O)c2coc(C)[nH+]2)C[C@@H]2[C@@H]1CCS2(=O)=O (nonaromatic ring conformer: 93.82650495332638 kcal/mol)

>  <smiles>  (21) 
CCCN1CCN(C(=O)c2coc(C)n2)CC2C1CCS2(=O)=O

>  <score_type>  (21) 
oracle

>  <origin>  (21) 
adg

>  <m_score__min__energy>  (21) 
-5.5300000000000002

>  <m_primary>  (21) 
energy

$$$$
22:0
     RDKit          3D

 47 49  0  0  0  0  0  0  0  0999 V2000
   -6.1740   25.2170  -29.6840 C   0  0  0  0  0  0  0  0  0  0  0  0
   -5.1430   25.2150  -30.8230 C   0  0  0  0  0  0  0  0  0  0  0  0
   -3.9960   24.3000  -30.6020 N   0  0  0  0  0  0  0  0  0  0  0  0
   -3.3220   24.5460  -29.3070 C   0  0  0  0  0  0  0  0  0  0  0  0
   -3.6640   23.4420  -28.3110 C   0  0  0  0  0  0  0  0  0  0  0  0
   -4.3270   22.8650  -30.7780 C   0  0  0  0  0  0  0  0  0  0  0  0
   -3.7040   22.2640  -32.0490 C   0  0  0  0  0  0  0  0  0  0  0  0
   -4.7110   21.9700  -33.0730 N   0  0  0  0  0  0  0  0  0  0  0  0
   -5.8170   21.0790  -32.8460 C   0  0  0  0  0  0  0  0  0  0  0  0
   -5.7390   19.7020  -33.1670 C   0  0  0  0  0  0  0  0  0  0  0  0
   -4.5750   19.1590  -33.7490 C   0  0  0  0  0  0  0  0  0  0  0  0
   -4.5060   17.8070  -34.0740 C   0  0  0  0  0  0  0  0  0  0  0  0
   -5.5920   16.9720  -33.8320 C   0  0  0  0  0  0  0  0  0  0  0  0
   -6.7530   17.4750  -33.2470 C   0  0  0  0  0  0  0  0  0  0  0  0
   -6.8520   18.8390  -32.8770 C   0  0  0  0  0  0  0  0  0  0  0  0
   -7.9870   19.3430  -32.2580 N   0  0  0  0  0  0  0  0  0  0  0  0
   -9.1010   18.4640  -31.8600 C   0  0  0  0  0  0  0  0  0  0  0  0
   -8.0560   20.6940  -32.0360 C   0  0  0  0  0  0  0  0  0  0  0  0
   -9.1240   21.3880  -31.5890 N   0  0  0  0  0  0  0  0  0  0  0  0
   -8.7490   22.6850  -31.5790 C   0  0  0  0  0  0  0  0  0  0  0  0
   -7.4440   22.8220  -32.0250 C   0  0  0  0  0  0  0  0  0  0  0  0
   -7.0160   21.5400  -32.3090 C   0  0  0  0  0  0  0  0  0  0  0  0
   -5.6512   25.2160  -28.7162 H   0  0  0  0  0  0  0  0  0  0  0  0
   -6.8028   26.1164  -29.7601 H   0  0  0  0  0  0  0  0  0  0  0  0
   -6.8062   24.3201  -29.7601 H   0  0  0  0  0  0  0  0  0  0  0  0
   -5.6527   24.9120  -31.7495 H   0  0  0  0  0  0  0  0  0  0  0  0
   -4.7299   26.2330  -30.8779 H   0  0  0  0  0  0  0  0  0  0  0  0
   -2.2334   24.5684  -29.4635 H   0  0  0  0  0  0  0  0  0  0  0  0
   -3.6659   25.5097  -28.9033 H   0  0  0  0  0  0  0  0  0  0  0  0
   -3.5459   23.8234  -27.2860 H   0  0  0  0  0  0  0  0  0  0  0  0
   -4.7043   23.1191  -28.4644 H   0  0  0  0  0  0  0  0  0  0  0  0
   -2.9884   22.5876  -28.4644 H   0  0  0  0  0  0  0  0  0  0  0  0
   -3.9537   22.3082  -29.9059 H   0  0  0  0  0  0  0  0  0  0  0  0
   -5.4199   22.7854  -30.8740 H   0  0  0  0  0  0  0  0  0  0  0  0
   -2.9785   22.9808  -32.4610 H   0  0  0  0  0  0  0  0  0  0  0  0
   -3.2176   21.3171  -31.7717 H   0  0  0  0  0  0  0  0  0  0  0  0
   -4.5240   22.3000  -34.0460 H   0  0  0  0  0  0  0  0  0  0  0  0
   -3.7118   19.8110  -33.9485 H   0  0  0  0  0  0  0  0  0  0  0  0
   -3.5894   17.3976  -34.5238 H   0  0  0  0  0  0  0  0  0  0  0  0
   -5.5342   15.9077  -34.1041 H   0  0  0  0  0  0  0  0  0  0  0  0
   -7.6054   16.8026  -33.0699 H   0  0  0  0  0  0  0  0  0  0  0  0
   -9.1583   18.4188  -30.7624 H   0  0  0  0  0  0  0  0  0  0  0  0
  -10.0444   18.8637  -32.2603 H   0  0  0  0  0  0  0  0  0  0  0  0
   -8.9317   17.4535  -32.2603 H   0  0  0  0  0  0  0  0  0  0  0  0
  -10.0770   21.0400  -31.3440 H   0  0  0  0  0  0  0  0  0  0  0  0
   -9.3915   23.5190  -31.2604 H   0  0  0  0  0  0  0  0  0  0  0  0
   -6.8704   23.7546  -32.1305 H   0  0  0  0  0  0  0  0  0  0  0  0
  1  2  1  0
  2  3  1  0
  3  4  1  0
  4  5  1  0
  3  6  1  0
  6  7  1  0
  7  8  1  0
  8  9  1  0
  9 10  2  0
 10 11  1  0
 11 12  2  0
 12 13  1  0
 13 14  2  0
 14 15  1  0
 15 16  2  0
 16 17  1  0
 16 18  1  0
 18 19  1  0
 19 20  1  0
 20 21  2  0
 21 22  1  0
 22  9  1  0
 15 10  1  0
 22 18  2  0
  1 23  1  0
  1 24  1  0
  1 25  1  0
  2 26  1  0
  2 27  1  0
  4 28  1  0
  4 29  1  0
  5 30  1  0
  5 31  1  0
  5 32  1  0
  6 33  1  0
  6 34  1  0
  7 35  1  0
  7 36  1  0
  8 37  1  0
 11 38  1  0
 12 39  1  0
 13 40  1  0
 14 41  1  0
 17 42  1  0
 17 43  1  0
 17 44  1  0
 19 45  1  0
 20 46  1  0
 21 47  1  0
M  CHG  1  16   1
M  END
>  <UniqueID>  (22) 
22

>  <SMILES>  (22) 
CCN(CC)CCNc1c2ccccc2[n+](C)c2[nH]ccc12

>  <Energy>  (22) 
93.04918689523569

>  <Genealogy>  (22) 
CCN(CC)CCNc1c2ccccc2[n+](C)c2[nH]ccc12 (3D coordinates assigned)
CCN(CC)CCNc1c2ccccc2[n+](C)c2[nH]ccc12 (optimized conformer: 93.04918689523569 kcal/mol)

>  <smiles>  (22) 
CCN(CC)CCNc1c2ccccc2[n+](C)c2[nH]ccc12

>  <score_type>  (22) 
oracle

>  <origin>  (22) 
adg

>  <m_score__min__energy>  (22) 
-7.8899999999999997

>  <m_primary>  (22) 
energy

$$$$
23:0
     RDKit          3D

 53 55  0  0  0  0  0  0  0  0999 V2000
   -6.1390   17.8030  -30.9080 C   0  0  0  0  0  0  0  0  0  0  0  0
   -6.7070   17.0190  -31.9330 O   0  0  0  0  0  0  0  0  0  0  0  0
   -5.7380   16.1210  -32.4340 C   0  0  0  0  0  0  0  0  0  0  0  0
   -5.3580   16.5150  -33.8760 C   0  0  0  0  0  0  0  0  0  0  0  0
   -4.9510   17.9340  -34.0600 N   0  0  0  0  0  0  0  0  0  0  0  0
   -3.7770   18.1330  -34.9400 C   0  0  0  0  0  0  0  0  0  0  0  0
   -2.5740   18.6840  -34.1590 C   0  0  0  0  0  0  0  0  0  0  0  0
   -2.5450   20.0980  -34.2370 O   0  0  0  0  0  0  0  0  0  0  0  0
   -2.0240   20.6440  -33.0440 C   0  0  0  0  0  0  0  0  0  0  0  0
   -6.0810   18.8070  -34.4460 C   0  0  0  0  0  0  0  0  0  0  0  0
   -6.2090   19.9530  -33.4840 C   0  0  0  0  0  0  0  0  0  0  0  0
   -5.1890   20.8200  -33.2450 N   0  0  0  0  0  0  0  0  0  0  0  0
   -5.7170   21.6670  -32.3440 C   0  0  0  0  0  0  0  0  0  0  0  0
   -5.0920   22.7540  -31.7370 C   0  0  0  0  0  0  0  0  0  0  0  0
   -5.8320   23.4980  -30.7940 C   0  0  0  0  0  0  0  0  0  0  0  0
   -5.1080   24.8970  -30.0130 S   0  0  0  0  0  0  0  0  0  0  0  0
   -3.9360   25.3740  -30.8270 O   0  0  0  0  0  0  0  0  0  0  0  0
   -6.1160   26.0100  -29.9290 O   0  0  0  0  0  0  0  0  0  0  0  0
   -4.6100   24.4330  -28.3560 C   0  0  0  0  0  0  0  0  0  0  0  0
   -4.1880   22.9810  -28.2070 C   0  0  0  0  0  0  0  0  0  0  0  0
   -3.1400   24.0830  -28.1970 C   0  0  0  0  0  0  0  0  0  0  0  0
   -7.1690   23.1350  -30.4970 C   0  0  0  0  0  0  0  0  0  0  0  0
   -7.7680   22.0300  -31.1270 C   0  0  0  0  0  0  0  0  0  0  0  0
   -7.0050   21.3220  -32.0550 C   0  0  0  0  0  0  0  0  0  0  0  0
   -7.3390   20.2450  -32.7840 N   0  0  0  0  0  0  0  0  0  0  0  0
   -8.5900   19.4870  -32.7270 C   0  0  0  0  0  0  0  0  0  0  0  0
   -6.4336   17.3963  -29.9293 H   0  0  0  0  0  0  0  0  0  0  0  0
   -5.0428   17.7852  -30.9975 H   0  0  0  0  0  0  0  0  0  0  0  0
   -6.4974   18.8391  -30.9975 H   0  0  0  0  0  0  0  0  0  0  0  0
   -4.8419   16.1577  -31.7970 H   0  0  0  0  0  0  0  0  0  0  0  0
   -6.1517   15.1017  -32.4326 H   0  0  0  0  0  0  0  0  0  0  0  0
   -4.5199   15.8770  -34.1932 H   0  0  0  0  0  0  0  0  0  0  0  0
   -6.2679   16.3784  -34.4789 H   0  0  0  0  0  0  0  0  0  0  0  0
   -3.4996   17.1681  -35.3894 H   0  0  0  0  0  0  0  0  0  0  0  0
   -4.0479   18.8635  -35.7165 H   0  0  0  0  0  0  0  0  0  0  0  0
   -2.6552   18.3800  -33.1050 H   0  0  0  0  0  0  0  0  0  0  0  0
   -1.6482   18.2818  -34.5961 H   0  0  0  0  0  0  0  0  0  0  0  0
   -2.4937   20.1517  -32.1797 H   0  0  0  0  0  0  0  0  0  0  0  0
   -0.9364   20.4828  -33.0113 H   0  0  0  0  0  0  0  0  0  0  0  0
   -2.2359   21.7229  -33.0113 H   0  0  0  0  0  0  0  0  0  0  0  0
   -5.9055   19.2010  -35.4579 H   0  0  0  0  0  0  0  0  0  0  0  0
   -7.0100   18.2184  -34.4256 H   0  0  0  0  0  0  0  0  0  0  0  0
   -4.0548   23.0236  -31.9850 H   0  0  0  0  0  0  0  0  0  0  0  0
   -5.3090   25.1030  -27.8340 H   0  0  0  0  0  0  0  0  0  0  0  0
   -4.4191   22.4332  -27.2815 H   0  0  0  0  0  0  0  0  0  0  0  0
   -4.3446   22.0615  -28.7902 H   0  0  0  0  0  0  0  0  0  0  0  0
   -2.6129   24.3324  -27.2643 H   0  0  0  0  0  0  0  0  0  0  0  0
   -2.2243   24.2911  -28.7699 H   0  0  0  0  0  0  0  0  0  0  0  0
   -7.7438   23.7233  -29.7666 H   0  0  0  0  0  0  0  0  0  0  0  0
   -8.8020   21.7344  -30.8960 H   0  0  0  0  0  0  0  0  0  0  0  0
   -8.8688   19.3181  -31.6764 H   0  0  0  0  0  0  0  0  0  0  0  0
   -9.3861   20.0548  -33.2309 H   0  0  0  0  0  0  0  0  0  0  0  0
   -8.4552   18.5185  -33.2309 H   0  0  0  0  0  0  0  0  0  0  0  0
  1  2  1  0
  2  3  1  0
  3  4  1  0
  4  5  1  0
  5  6  1  0
  6  7  1  0
  7  8  1  0
  8  9  1  0
  5 10  1  0
 10 11  1  0
 11 12  2  0
 12 13  1  0
 13 14  2  0
 14 15  1  0
 15 16  1  0
 16 17  2  0
 16 18  2  0
 16 19  1  0
 19 20  1  0
 20 21  1  0
 15 22  2  0
 22 23  1  0
 23 24  2  0
 24 25  1  0
 25 26  1  0
 25 11  1  0
 24 13  1  0
 21 19  1  0
  1 27  1  0
  1 28  1  0
  1 29  1  0
  3 30  1  0
  3 31  1  0
  4 32  1  0
  4 33  1  0
  6 34  1  0
  6 35  1  0
  7 36  1  0
  7 37  1  0
  9 38  1  0
  9 39  1  0
  9 40  1  0
 10 41  1  0
 10 42  1  0
 14 43  1  0
 19 44  1  0
 20 45  1  0
 20 46  1  0
 21 47  1  0
 21 48  1  0
 22 49  1  0
 23 50  1  0
 26 51  1  0
 26 52  1  0
 26 53  1  0
M  END
>  <UniqueID>  (23) 
23

>  <SMILES>  (23) 
COCCN(CCOC)Cc1nc2cc(S(=O)(=O)C3CC3)ccc2n1C

>  <Energy>  (23) 
358.31231727164777

>  <Genealogy>  (23) 
COCCN(CCOC)Cc1nc2cc(S(=O)(=O)C3CC3)ccc2n1C (3D coordinates assigned)
COCCN(CCOC)Cc1nc2cc(S(=O)(=O)C3CC3)ccc2n1C (nonaromatic ring conformer: 358.31231727164777 kcal/mol)

>  <smiles>  (23) 
COCCN(CCOC)Cc1nc2cc(S(=O)(=O)C3CC3)ccc2n1C

>  <score_type>  (23) 
oracle

>  <origin>  (23) 
adg

>  <m_score__min__energy>  (23) 
-7.8399999999999999

>  <m_primary>  (23) 
energy

$$$$
24:0
     RDKit          3D

 36 38  0  0  0  0  0  0  0  0999 V2000
   -2.7280   15.4310  -32.9960 C   0  0  0  0  0  0  0  0  0  0  0  0
   -4.1880   15.5730  -32.5490 C   0  0  0  0  0  0  0  0  0  0  0  0
   -4.9390   14.2430  -32.6810 C   0  0  0  0  0  0  0  0  0  0  0  0
   -4.8880   16.6750  -33.3110 C   0  0  0  0  0  0  0  0  0  0  0  0
   -5.7710   17.5600  -32.6780 C   0  0  0  0  0  0  0  0  0  0  0  0
   -6.3970   18.5530  -33.4400 C   0  0  0  0  0  0  0  0  0  0  0  0
   -7.2970   19.4810  -32.8120 N   0  0  0  0  0  0  0  0  0  0  0  0
   -8.6380   19.1310  -32.3360 C   0  0  0  0  0  0  0  0  0  0  0  0
   -9.1170   20.3330  -31.4860 C   0  0  0  0  0  0  0  0  0  0  0  0
   -8.0010   21.3100  -31.6080 C   0  0  0  0  0  0  0  0  0  0  0  0
   -7.9330   22.6040  -31.0900 C   0  0  0  0  0  0  0  0  0  0  0  0
   -6.7970   23.3810  -31.3740 C   0  0  0  0  0  0  0  0  0  0  0  0
   -5.7650   22.8590  -32.1770 C   0  0  0  0  0  0  0  0  0  0  0  0
   -5.8580   21.5550  -32.6910 C   0  0  0  0  0  0  0  0  0  0  0  0
   -6.9860   20.7920  -32.3660 C   0  0  0  0  0  0  0  0  0  0  0  0
   -6.1140   18.6550  -34.7700 N   0  0  0  0  0  0  0  0  0  0  0  0
   -5.2550   17.7880  -35.3690 C   0  0  0  0  0  0  0  0  0  0  0  0
   -4.6530   16.8120  -34.6440 N   0  0  0  0  0  0  0  0  0  0  0  0
   -2.0780   15.3678  -32.1108 H   0  0  0  0  0  0  0  0  0  0  0  0
   -2.6163   14.5178  -33.5989 H   0  0  0  0  0  0  0  0  0  0  0  0
   -2.4424   16.3056  -33.5989 H   0  0  0  0  0  0  0  0  0  0  0  0
   -4.1870   15.8519  -31.4850 H   0  0  0  0  0  0  0  0  0  0  0  0
   -5.1625   13.8472  -31.6793 H   0  0  0  0  0  0  0  0  0  0  0  0
   -5.8787   14.4054  -33.2292 H   0  0  0  0  0  0  0  0  0  0  0  0
   -4.3146   13.5222  -33.2292 H   0  0  0  0  0  0  0  0  0  0  0  0
   -5.9690   17.4756  -31.5993 H   0  0  0  0  0  0  0  0  0  0  0  0
   -9.3159   18.9707  -33.1873 H   0  0  0  0  0  0  0  0  0  0  0  0
   -8.6267   18.2013  -31.7482 H   0  0  0  0  0  0  0  0  0  0  0  0
  -10.0517   20.7513  -31.8877 H   0  0  0  0  0  0  0  0  0  0  0  0
   -9.3364   20.0605  -30.4431 H   0  0  0  0  0  0  0  0  0  0  0  0
   -8.7501   23.0067  -30.4734 H   0  0  0  0  0  0  0  0  0  0  0  0
   -6.7138   24.3999  -30.9678 H   0  0  0  0  0  0  0  0  0  0  0  0
   -4.8821   23.4750  -32.4028 H   0  0  0  0  0  0  0  0  0  0  0  0
   -5.0647   21.1438  -33.3326 H   0  0  0  0  0  0  0  0  0  0  0  0
   -6.5350   19.4200  -35.3430 H   0  0  0  0  0  0  0  0  0  0  0  0
   -5.0473   17.8782  -36.4454 H   0  0  0  0  0  0  0  0  0  0  0  0
  1  2  1  0
  2  3  1  0
  2  4  1  0
  4  5  2  0
  5  6  1  0
  6  7  1  0
  7  8  1  0
  8  9  1  0
  9 10  1  0
 10 11  2  0
 11 12  1  0
 12 13  2  0
 13 14  1  0
 14 15  2  0
  6 16  2  0
 16 17  1  0
 17 18  2  0
 18  4  1  0
 15  7  1  0
 15 10  1  0
  1 19  1  0
  1 20  1  0
  1 21  1  0
  2 22  1  0
  3 23  1  0
  3 24  1  0
  3 25  1  0
  5 26  1  0
  8 27  1  0
  8 28  1  0
  9 29  1  0
  9 30  1  0
 11 31  1  0
 12 32  1  0
 13 33  1  0
 14 34  1  0
 16 35  1  0
 17 36  1  0
M  CHG  1  16   1
M  END
>  <UniqueID>  (24) 
24

>  <SMILES>  (24) 
CC(C)c1cc(N2CCc3ccccc32)[nH+]cn1

>  <Energy>  (24) 
52.66641843851961

>  <Genealogy>  (24) 
CC(C)c1cc(N2CCc3ccccc32)[nH+]cn1 (protonated)
CC(C)c1cc(N2CCc3ccccc32)[nH+]cn1 (3D coordinates assigned)
CC(C)c1cc(N2CCc3ccccc32)[nH+]cn1 (nonaromatic ring conformer: 52.66641843851961 kcal/mol)

>  <smiles>  (24) 
CC(C)c1cc(N2CCc3ccccc32)ncn1

>  <score_type>  (24) 
oracle

>  <origin>  (24) 
adg

>  <m_score__min__energy>  (24) 
-6.6699999999999999

>  <m_primary>  (24) 
energy

$$$$
