0:0
     RDKit          3D

 37 39  0  0  0  0  0  0  0  0999 V2000
   -6.4750   25.6760  -29.4210 C   0  0  0  0  0  0  0  0  0  0  0  0
   -5.5930   24.6630  -30.0890 C   0  0  0  0  0  0  0  0  0  0  0  0
   -4.2600   24.5070  -29.6800 C   0  0  0  0  0  0  0  0  0  0  0  0
   -3.4530   23.5300  -30.2680 C   0  0  0  0  0  0  0  0  0  0  0  0
   -3.9720   22.6990  -31.2630 C   0  0  0  0  0  0  0  0  0  0  0  0
   -5.3020   22.8410  -31.6870 C   0  0  0  0  0  0  0  0  0  0  0  0
   -5.8230   21.9530  -32.6920 N   0  0  0  0  0  0  0  0  0  0  0  0
   -6.9370   21.0680  -32.4800 C   0  0  0  0  0  0  0  0  0  0  0  0
   -8.1410   21.5670  -31.9520 C   0  0  0  0  0  0  0  0  0  0  0  0
   -9.2240   20.7160  -31.7270 C   0  0  0  0  0  0  0  0  0  0  0  0
   -9.1210   19.3580  -32.0270 C   0  0  0  0  0  0  0  0  0  0  0  0
   -7.9380   18.8480  -32.5650 C   0  0  0  0  0  0  0  0  0  0  0  0
   -6.8450   19.6950  -32.8100 C   0  0  0  0  0  0  0  0  0  0  0  0
   -5.6070   19.1170  -33.3660 C   0  0  0  0  0  0  0  0  0  0  0  0
   -5.6570   18.2520  -34.4660 C   0  0  0  0  0  0  0  0  0  0  0  0
   -4.4720   17.7060  -34.9660 C   0  0  0  0  0  0  0  0  0  0  0  0
   -3.2800   18.0050  -34.3790 N   0  0  0  0  0  0  0  0  0  0  0  0
   -3.2080   18.8330  -33.3020 C   0  0  0  0  0  0  0  0  0  0  0  0
   -4.3700   19.4010  -32.7720 C   0  0  0  0  0  0  0  0  0  0  0  0
   -6.1170   23.8130  -31.0760 C   0  0  0  0  0  0  0  0  0  0  0  0
   -6.3873   25.5753  -28.3291 H   0  0  0  0  0  0  0  0  0  0  0  0
   -6.1648   26.6875  -29.7220 H   0  0  0  0  0  0  0  0  0  0  0  0
   -7.5196   25.5080  -29.7220 H   0  0  0  0  0  0  0  0  0  0  0  0
   -3.8487   25.1565  -28.8933 H   0  0  0  0  0  0  0  0  0  0  0  0
   -2.4072   23.4151  -29.9468 H   0  0  0  0  0  0  0  0  0  0  0  0
   -3.3335   21.9274  -31.7178 H   0  0  0  0  0  0  0  0  0  0  0  0
   -5.3780   21.9740  -33.6370 H   0  0  0  0  0  0  0  0  0  0  0  0
   -8.2300   22.6373  -31.7143 H   0  0  0  0  0  0  0  0  0  0  0  0
  -10.1605   21.1171  -31.3123 H   0  0  0  0  0  0  0  0  0  0  0  0
   -9.9729   18.6879  -31.8395 H   0  0  0  0  0  0  0  0  0  0  0  0
   -7.8615   17.7758  -32.7985 H   0  0  0  0  0  0  0  0  0  0  0  0
   -6.6217   18.0042  -34.9329 H   0  0  0  0  0  0  0  0  0  0  0  0
   -4.5019   17.0331  -35.8357 H   0  0  0  0  0  0  0  0  0  0  0  0
   -2.4030   17.5880  -34.7630 H   0  0  0  0  0  0  0  0  0  0  0  0
   -2.2319   19.0563  -32.8466 H   0  0  0  0  0  0  0  0  0  0  0  0
   -4.3139   20.0648  -31.8967 H   0  0  0  0  0  0  0  0  0  0  0  0
   -7.1717   23.9071  -31.3740 H   0  0  0  0  0  0  0  0  0  0  0  0
  1  2  1  0
  2  3  2  0
  3  4  1  0
  4  5  2  0
  5  6  1  0
  6  7  1  0
  7  8  1  0
  8  9  2  0
  9 10  1  0
 10 11  2  0
 11 12  1  0
 12 13  2  0
 13 14  1  0
 14 15  2  0
 15 16  1  0
 16 17  2  0
 17 18  1  0
 18 19  2  0
  6 20  2  0
 20  2  1  0
 13  8  1  0
 19 14  1  0
  1 21  1  0
  1 22  1  0
  1 23  1  0
  3 24  1  0
  4 25  1  0
  5 26  1  0
  7 27  1  0
  9 28  1  0
 10 29  1  0
 11 30  1  0
 12 31  1  0
 15 32  1  0
 16 33  1  0
 17 34  1  0
 18 35  1  0
 19 36  1  0
 20 37  1  0
M  CHG  1  17   1
M  END
>  <UniqueID>  (1) 
1

>  <SMILES>  (1) 
Cc1cccc(Nc2ccccc2-c2cc[nH+]cc2)c1

>  <Energy>  (1) 
52.37591760290624

>  <Genealogy>  (1) 
Cc1cccc(Nc2ccccc2-c2cc[nH+]cc2)c1 (protonated)
Cc1cccc(Nc2ccccc2-c2cc[nH+]cc2)c1 (3D coordinates assigned)
Cc1cccc(Nc2ccccc2-c2cc[nH+]cc2)c1 (optimized conformer: 52.37591760290624 kcal/mol)

>  <smiles>  (1) 
Cc1cccc(Nc2ccccc2-c2ccncc2)c1

>  <score_type>  (1) 
oracle

>  <origin>  (1) 
adg

>  <m_score__min__energy>  (1) 
-7.6299999999999999

>  <m_primary>  (1) 
energy

$$$$
1:0
     RDKit          3D

 38 40  0  0  0  0  0  0  0  0999 V2000
   -6.8540   24.5450  -30.4220 C   0  0  0  0  0  0  0  0  0  0  0  0
   -7.0740   23.2430  -31.1440 C   0  0  0  0  0  0  0  0  0  0  0  0
   -8.4010   22.8280  -31.4400 C   0  0  0  0  0  0  0  0  0  0  0  0
   -8.6470   21.6160  -32.1090 C   0  0  0  0  0  0  0  0  0  0  0  0
   -7.5490   20.8440  -32.4660 C   0  0  0  0  0  0  0  0  0  0  0  0
   -7.5330   19.6670  -33.1090 N   0  0  0  0  0  0  0  0  0  0  0  0
   -6.2090   19.3780  -33.1930 C   0  0  0  0  0  0  0  0  0  0  0  0
   -5.6820   18.1940  -33.8160 N   0  0  0  0  0  0  0  0  0  0  0  0
   -4.3030   18.1610  -34.3170 C   0  0  0  0  0  0  0  0  0  0  0  0
   -4.1250   17.0310  -35.3410 C   0  0  0  0  0  0  0  0  0  0  0  0
   -4.5670   15.7070  -34.8370 N   0  0  0  0  0  0  0  0  0  0  0  0
   -3.4330   14.9200  -34.3280 C   0  0  0  0  0  0  0  0  0  0  0  0
   -5.6640   15.7500  -33.8380 C   0  0  0  0  0  0  0  0  0  0  0  0
   -6.5290   17.0080  -33.9700 C   0  0  0  0  0  0  0  0  0  0  0  0
   -5.4480   20.3100  -32.6400 O   0  0  0  0  0  0  0  0  0  0  0  0
   -6.2700   21.2250  -32.1850 C   0  0  0  0  0  0  0  0  0  0  0  0
   -5.9750   22.4170  -31.5160 C   0  0  0  0  0  0  0  0  0  0  0  0
   -4.5490   22.8050  -31.2350 C   0  0  0  0  0  0  0  0  0  0  0  0
   -6.8833   24.3716  -29.3361 H   0  0  0  0  0  0  0  0  0  0  0  0
   -5.8734   24.9579  -30.7011 H   0  0  0  0  0  0  0  0  0  0  0  0
   -7.6445   25.2572  -30.7011 H   0  0  0  0  0  0  0  0  0  0  0  0
   -9.2474   23.4640  -31.1415 H   0  0  0  0  0  0  0  0  0  0  0  0
   -9.6719   21.2910  -32.3412 H   0  0  0  0  0  0  0  0  0  0  0  0
   -8.3490   19.1230  -33.4670 H   0  0  0  0  0  0  0  0  0  0  0  0
   -4.0699   19.1231  -34.7966 H   0  0  0  0  0  0  0  0  0  0  0  0
   -3.6233   17.9820  -33.4708 H   0  0  0  0  0  0  0  0  0  0  0  0
   -4.7123   17.2770  -36.2380 H   0  0  0  0  0  0  0  0  0  0  0  0
   -3.0493   16.9545  -35.5580 H   0  0  0  0  0  0  0  0  0  0  0  0
   -3.4452   14.9284  -33.2281 H   0  0  0  0  0  0  0  0  0  0  0  0
   -3.5151   13.8837  -34.6877 H   0  0  0  0  0  0  0  0  0  0  0  0
   -2.4909   15.3594  -34.6877 H   0  0  0  0  0  0  0  0  0  0  0  0
   -6.3034   14.8660  -33.9780 H   0  0  0  0  0  0  0  0  0  0  0  0
   -5.2053   15.7632  -32.8383 H   0  0  0  0  0  0  0  0  0  0  0  0
   -7.0070   17.0235  -34.9606 H   0  0  0  0  0  0  0  0  0  0  0  0
   -7.3060   17.0054  -33.1914 H   0  0  0  0  0  0  0  0  0  0  0  0
   -4.3884   22.8487  -30.1477 H   0  0  0  0  0  0  0  0  0  0  0  0
   -3.8722   22.0584  -31.6759 H   0  0  0  0  0  0  0  0  0  0  0  0
   -4.3438   23.7916  -31.6759 H   0  0  0  0  0  0  0  0  0  0  0  0
  1  2  1  0
  2  3  2  0
  3  4  1  0
  4  5  2  0
  5  6  1  0
  6  7  2  0
  7  8  1  0
  8  9  1  0
  9 10  1  0
 10 11  1  0
 11 12  1  0
 11 13  1  0
 13 14  1  0
  7 15  1  0
 15 16  1  0
 16 17  2  0
 17 18  1  0
 17  2  1  0
 16  5  1  0
 14  8  1  0
  1 19  1  0
  1 20  1  0
  1 21  1  0
  3 22  1  0
  4 23  1  0
  6 24  1  0
  9 25  1  0
  9 26  1  0
 10 27  1  0
 10 28  1  0
 12 29  1  0
 12 30  1  0
 12 31  1  0
 13 32  1  0
 13 33  1  0
 14 34  1  0
 14 35  1  0
 18 36  1  0
 18 37  1  0
 18 38  1  0
M  CHG  1   6   1
M  END
>  <UniqueID>  (2) 
2

>  <SMILES>  (2) 
Cc1ccc2[nH+]c(N3CCN(C)CC3)oc2c1C

>  <Energy>  (2) 
83.55004741344271

>  <Genealogy>  (2) 
Cc1ccc2[nH+]c(N3CCN(C)CC3)oc2c1C (protonated)
Cc1ccc2[nH+]c(N3CCN(C)CC3)oc2c1C (3D coordinates assigned)
Cc1ccc2[nH+]c(N3CCN(C)CC3)oc2c1C (nonaromatic ring conformer: 83.55004741344271 kcal/mol)

>  <smiles>  (2) 
Cc1ccc2nc(N3CCN(C)CC3)oc2c1C

>  <score_type>  (2) 
oracle

>  <origin>  (2) 
adg

>  <m_score__min__energy>  (2) 
-5.9199999999999999

>  <m_primary>  (2) 
energy

$$$$
2:0
     RDKit          3D

 52 55  0  0  0  0  0  0  0  0999 V2000
   -3.0930   21.3770  -32.5560 C   0  0  0  0  0  0  0  0  0  0  0  0
   -3.1820   20.5820  -33.7180 O   0  0  0  0  0  0  0  0  0  0  0  0
   -3.2070   19.2090  -33.3780 C   0  0  0  0  0  0  0  0  0  0  0  0
   -4.2440   18.4590  -34.2190 C   0  0  0  0  0  0  0  0  0  0  0  0
   -5.4880   18.2790  -33.4690 N   0  0  0  0  0  0  0  0  0  0  0  0
   -6.0060   17.0980  -33.0540 C   0  0  0  0  0  0  0  0  0  0  0  0
   -7.1970   17.3020  -32.3660 C   0  0  0  0  0  0  0  0  0  0  0  0
   -7.3970   18.6660  -32.3800 C   0  0  0  0  0  0  0  0  0  0  0  0
   -8.4080   19.4360  -31.8130 C   0  0  0  0  0  0  0  0  0  0  0  0
   -8.3290   20.8330  -31.9510 C   0  0  0  0  0  0  0  0  0  0  0  0
   -7.2590   21.4320  -32.6660 C   0  0  0  0  0  0  0  0  0  0  0  0
   -7.1350   22.8690  -32.7220 N   0  0  0  0  0  0  0  0  0  0  0  0
   -7.3880   23.4800  -31.4040 C   0  0  0  0  0  0  0  0  0  0  0  0
   -6.1030   23.7400  -30.6520 C   0  0  0  0  0  0  0  0  0  0  0  0
   -5.5240   25.0150  -30.6700 C   0  0  0  0  0  0  0  0  0  0  0  0
   -4.2730   25.2340  -30.0900 C   0  0  0  0  0  0  0  0  0  0  0  0
   -3.5670   24.1750  -29.4940 C   0  0  0  0  0  0  0  0  0  0  0  0
   -2.2850   24.3740  -28.9360 C   0  0  0  0  0  0  0  0  0  0  0  0
   -1.7150   25.6580  -28.9670 O   0  0  0  0  0  0  0  0  0  0  0  0
   -0.9360   26.2240  -27.9180 C   0  0  0  0  0  0  0  0  0  0  0  0
   -1.6070   23.2790  -28.3650 C   0  0  0  0  0  0  0  0  0  0  0  0
   -2.1900   22.0110  -28.3500 C   0  0  0  0  0  0  0  0  0  0  0  0
   -3.4550   21.8110  -28.8990 C   0  0  0  0  0  0  0  0  0  0  0  0
   -4.1530   22.8830  -29.4700 C   0  0  0  0  0  0  0  0  0  0  0  0
   -5.4190   22.6790  -30.0380 C   0  0  0  0  0  0  0  0  0  0  0  0
   -6.2630   20.6110  -33.2470 C   0  0  0  0  0  0  0  0  0  0  0  0
   -6.3530   19.2310  -33.0650 C   0  0  0  0  0  0  0  0  0  0  0  0
   -3.1649   20.7347  -31.6659 H   0  0  0  0  0  0  0  0  0  0  0  0
   -2.1298   21.9082  -32.5480 H   0  0  0  0  0  0  0  0  0  0  0  0
   -3.9149   22.1080  -32.5480 H   0  0  0  0  0  0  0  0  0  0  0  0
   -2.2129   18.7744  -33.5596 H   0  0  0  0  0  0  0  0  0  0  0  0
   -3.4786   19.1137  -32.3163 H   0  0  0  0  0  0  0  0  0  0  0  0
   -4.4534   19.0356  -35.1321 H   0  0  0  0  0  0  0  0  0  0  0  0
   -3.8404   17.4686  -34.4763 H   0  0  0  0  0  0  0  0  0  0  0  0
   -5.5481   16.1145  -33.2360 H   0  0  0  0  0  0  0  0  0  0  0  0
   -7.8422   16.5378  -31.9081 H   0  0  0  0  0  0  0  0  0  0  0  0
   -9.2434   18.9661  -31.2733 H   0  0  0  0  0  0  0  0  0  0  0  0
   -9.1050   21.4688  -31.4999 H   0  0  0  0  0  0  0  0  0  0  0  0
   -7.8250   23.2520  -33.4080 H   0  0  0  0  0  0  0  0  0  0  0  0
   -6.1800   23.1380  -33.0610 H   0  0  0  0  0  0  0  0  0  0  0  0
   -7.9155   24.4343  -31.5489 H   0  0  0  0  0  0  0  0  0  0  0  0
   -7.9956   22.7794  -30.8124 H   0  0  0  0  0  0  0  0  0  0  0  0
   -6.0591   25.8506  -31.1449 H   0  0  0  0  0  0  0  0  0  0  0  0
   -3.8364   26.2436  -30.0996 H   0  0  0  0  0  0  0  0  0  0  0  0
   -1.3535   25.9207  -26.9466 H   0  0  0  0  0  0  0  0  0  0  0  0
    0.1016   25.8677  -27.9985 H   0  0  0  0  0  0  0  0  0  0  0  0
   -0.9543   27.3209  -27.9985 H   0  0  0  0  0  0  0  0  0  0  0  0
   -0.6086   23.4248  -27.9268 H   0  0  0  0  0  0  0  0  0  0  0  0
   -1.6479   21.1650  -27.9024 H   0  0  0  0  0  0  0  0  0  0  0  0
   -3.9069   20.8082  -28.8840 H   0  0  0  0  0  0  0  0  0  0  0  0
   -5.8792   21.6805  -30.0021 H   0  0  0  0  0  0  0  0  0  0  0  0
   -5.4385   21.0504  -33.8276 H   0  0  0  0  0  0  0  0  0  0  0  0
  1  2  1  0
  2  3  1  0
  3  4  1  0
  4  5  1  0
  5  6  1  0
  6  7  2  0
  7  8  1  0
  8  9  2  0
  9 10  1  0
 10 11  2  0
 11 12  1  0
 12 13  1  0
 13 14  1  0
 14 15  2  0
 15 16  1  0
 16 17  2  0
 17 18  1  0
 18 19  1  0
 19 20  1  0
 18 21  2  0
 21 22  1  0
 22 23  2  0
 23 24  1  0
 24 25  2  0
 11 26  1  0
 26 27  2  0
 27  5  1  0
 27  8  1  0
 25 14  1  0
 24 17  1  0
  1 28  1  0
  1 29  1  0
  1 30  1  0
  3 31  1  0
  3 32  1  0
  4 33  1  0
  4 34  1  0
  6 35  1  0
  7 36  1  0
  9 37  1  0
 10 38  1  0
 12 39  1  0
 12 40  1  0
 13 41  1  0
 13 42  1  0
 15 43  1  0
 16 44  1  0
 20 45  1  0
 20 46  1  0
 20 47  1  0
 21 48  1  0
 22 49  1  0
 23 50  1  0
 25 51  1  0
 26 52  1  0
M  CHG  1  12   1
M  END
>  <UniqueID>  (3) 
3

>  <SMILES>  (3) 
COCCn1ccc2ccc([NH2+]Cc3ccc4c(OC)cccc4c3)cc21

>  <Energy>  (3) 
89.90998523686184

>  <Genealogy>  (3) 
COCCn1ccc2ccc([NH2+]Cc3ccc4c(OC)cccc4c3)cc21 (protonated)
COCCn1ccc2ccc([NH2+]Cc3ccc4c(OC)cccc4c3)cc21 (3D coordinates assigned)
COCCn1ccc2ccc([NH2+]Cc3ccc4c(OC)cccc4c3)cc21 (optimized conformer: 89.90998523686184 kcal/mol)

>  <smiles>  (3) 
COCCn1ccc2ccc(NCc3ccc4c(OC)cccc4c3)cc21

>  <score_type>  (3) 
oracle

>  <origin>  (3) 
adg

>  <m_score__min__energy>  (3) 
-8.4800000000000004

>  <m_primary>  (3) 
energy

$$$$
3:0
     RDKit          3D

 37 37  0  0  0  0  0  0  0  0999 V2000
   -5.6010   18.1650  -34.8910 C   0  0  0  0  0  0  0  0  0  0  0  0
   -5.6210   18.8800  -33.6590 O   0  0  0  0  0  0  0  0  0  0  0  0
   -6.7850   19.2110  -32.9480 C   0  0  0  0  0  0  0  0  0  0  0  0
   -7.7950   18.2590  -32.6940 C   0  0  0  0  0  0  0  0  0  0  0  0
   -8.9480   18.6210  -31.9960 C   0  0  0  0  0  0  0  0  0  0  0  0
   -9.1120   19.9310  -31.5440 C   0  0  0  0  0  0  0  0  0  0  0  0
   -8.1200   20.8830  -31.7870 C   0  0  0  0  0  0  0  0  0  0  0  0
   -6.9500   20.5320  -32.4830 C   0  0  0  0  0  0  0  0  0  0  0  0
   -5.8790   21.5760  -32.7180 C   0  0  0  0  0  0  0  0  0  0  0  0
   -4.6280   21.2580  -31.9890 N   0  0  0  0  0  0  0  0  0  0  0  0
   -3.4430   21.6800  -32.7860 C   0  0  0  0  0  0  0  0  0  0  0  0
   -2.6560   20.4600  -33.2880 C   0  0  0  0  0  0  0  0  0  0  0  0
   -3.2170   19.2070  -32.7850 N   0  0  0  0  0  0  0  0  0  0  0  0
   -4.6300   21.8840  -30.6430 C   0  0  0  0  0  0  0  0  0  0  0  0
   -5.6000   23.0720  -30.5780 C   0  0  0  0  0  0  0  0  0  0  0  0
   -4.8730   24.3390  -30.7210 C   0  0  0  0  0  0  0  0  0  0  0  0
   -4.2990   25.3370  -30.8330 N   0  0  0  0  0  0  0  0  0  0  0  0
   -5.5708   17.0844  -34.6874 H   0  0  0  0  0  0  0  0  0  0  0  0
   -6.5062   18.4041  -35.4685 H   0  0  0  0  0  0  0  0  0  0  0  0
   -4.7106   18.4544  -35.4685 H   0  0  0  0  0  0  0  0  0  0  0  0
   -7.6728   17.2249  -33.0484 H   0  0  0  0  0  0  0  0  0  0  0  0
   -9.7296   17.8717  -31.8016 H   0  0  0  0  0  0  0  0  0  0  0  0
  -10.0230   20.2137  -30.9961 H   0  0  0  0  0  0  0  0  0  0  0  0
   -8.2549   21.9151  -31.4313 H   0  0  0  0  0  0  0  0  0  0  0  0
   -5.6604   21.6251  -33.7949 H   0  0  0  0  0  0  0  0  0  0  0  0
   -6.2551   22.5402  -32.3454 H   0  0  0  0  0  0  0  0  0  0  0  0
   -3.7820   22.2701  -33.6502 H   0  0  0  0  0  0  0  0  0  0  0  0
   -2.7842   22.2825  -32.1433 H   0  0  0  0  0  0  0  0  0  0  0  0
   -2.6837   20.4464  -34.3876 H   0  0  0  0  0  0  0  0  0  0  0  0
   -1.6231   20.5443  -32.9193 H   0  0  0  0  0  0  0  0  0  0  0  0
   -3.4710   18.5870  -33.5860 H   0  0  0  0  0  0  0  0  0  0  0  0
   -4.0860   19.4160  -32.2410 H   0  0  0  0  0  0  0  0  0  0  0  0
   -2.5340   18.7240  -32.1570 H   0  0  0  0  0  0  0  0  0  0  0  0
   -4.9344   21.1326  -29.8995 H   0  0  0  0  0  0  0  0  0  0  0  0
   -3.6157   22.2539  -30.4323 H   0  0  0  0  0  0  0  0  0  0  0  0
   -6.3357   22.9833  -31.3909 H   0  0  0  0  0  0  0  0  0  0  0  0
   -6.1087   23.0624  -29.6027 H   0  0  0  0  0  0  0  0  0  0  0  0
  1  2  1  0
  2  3  1  0
  3  4  2  0
  4  5  1  0
  5  6  2  0
  6  7  1  0
  7  8  2  0
  8  9  1  0
  9 10  1  0
 10 11  1  0
 11 12  1  0
 12 13  1  0
 10 14  1  0
 14 15  1  0
 15 16  1  0
 16 17  3  0
  8  3  1  0
  1 18  1  0
  1 19  1  0
  1 20  1  0
  4 21  1  0
  5 22  1  0
  6 23  1  0
  7 24  1  0
  9 25  1  0
  9 26  1  0
 11 27  1  0
 11 28  1  0
 12 29  1  0
 12 30  1  0
 13 31  1  0
 13 32  1  0
 13 33  1  0
 14 34  1  0
 14 35  1  0
 15 36  1  0
 15 37  1  0
M  CHG  1  13   1
M  END
>  <UniqueID>  (4) 
4

>  <SMILES>  (4) 
COc1ccccc1CN(CC[NH3+])CCC#N

>  <Energy>  (4) 
32.678103075458296

>  <Genealogy>  (4) 
COc1ccccc1CN(CC[NH3+])CCC#N (protonated)
COc1ccccc1CN(CC[NH3+])CCC#N (3D coordinates assigned)
COc1ccccc1CN(CC[NH3+])CCC#N (optimized conformer: 32.678103075458296 kcal/mol)

>  <smiles>  (4) 
COc1ccccc1CN(CCN)CCC#N

>  <score_type>  (4) 
oracle

>  <origin>  (4) 
adg

>  <m_score__min__energy>  (4) 
-4.6799999999999997

>  <m_primary>  (4) 
energy

$$$$
4:0
     RDKit          3D

 44 46  0  0  0  0  0  0  0  0999 V2000
   -8.7390   18.7880  -31.2660 C   0  0  0  0  0  0  0  0  0  0  0  0
   -8.6850   19.6460  -32.5290 C   0  0  0  0  0  0  0  0  0  0  0  0
   -7.6810   20.7330  -32.3970 N   0  0  0  0  0  0  0  0  0  0  0  0
   -8.0700   21.9730  -31.9260 C   0  0  0  0  0  0  0  0  0  0  0  0
   -9.4870   22.2630  -31.4810 C   0  0  0  0  0  0  0  0  0  0  0  0
   -7.1280   22.9930  -31.7730 C   0  0  0  0  0  0  0  0  0  0  0  0
   -5.8020   22.7830  -32.1160 C   0  0  0  0  0  0  0  0  0  0  0  0
   -4.9720   23.7170  -31.9460 O   0  0  0  0  0  0  0  0  0  0  0  0
   -5.3950   21.5450  -32.6360 C   0  0  0  0  0  0  0  0  0  0  0  0
   -3.9270   21.3420  -32.9920 C   0  0  0  0  0  0  0  0  0  0  0  0
   -3.0510   21.3170  -31.7630 C   0  0  0  0  0  0  0  0  0  0  0  0
   -3.6100   21.0690  -30.4980 C   0  0  0  0  0  0  0  0  0  0  0  0
   -2.8010   21.0470  -29.3580 C   0  0  0  0  0  0  0  0  0  0  0  0
   -1.4270   21.2770  -29.4720 C   0  0  0  0  0  0  0  0  0  0  0  0
   -0.8620   21.5310  -30.7250 C   0  0  0  0  0  0  0  0  0  0  0  0
   -1.6690   21.5530  -31.8660 C   0  0  0  0  0  0  0  0  0  0  0  0
   -6.3630   20.5110  -32.7630 C   0  0  0  0  0  0  0  0  0  0  0  0
   -5.9230   19.1710  -33.2260 C   0  0  0  0  0  0  0  0  0  0  0  0
   -5.7470   18.9100  -34.5930 C   0  0  0  0  0  0  0  0  0  0  0  0
   -5.3130   17.6500  -35.0160 C   0  0  0  0  0  0  0  0  0  0  0  0
   -5.0500   16.6470  -34.0770 C   0  0  0  0  0  0  0  0  0  0  0  0
   -5.2200   16.9040  -32.7140 C   0  0  0  0  0  0  0  0  0  0  0  0
   -5.6530   18.1630  -32.2870 C   0  0  0  0  0  0  0  0  0  0  0  0
   -8.6981   19.4377  -30.3793 H   0  0  0  0  0  0  0  0  0  0  0  0
   -9.6753   18.2107  -31.2547 H   0  0  0  0  0  0  0  0  0  0  0  0
   -7.8825   18.0979  -31.2547 H   0  0  0  0  0  0  0  0  0  0  0  0
   -8.4142   19.0093  -33.3841 H   0  0  0  0  0  0  0  0  0  0  0  0
   -9.6741   20.1020  -32.6831 H   0  0  0  0  0  0  0  0  0  0  0  0
   -9.5316   22.2721  -30.3819 H   0  0  0  0  0  0  0  0  0  0  0  0
   -9.7996   23.2437  -31.8688 H   0  0  0  0  0  0  0  0  0  0  0  0
  -10.1598   21.4839  -31.8688 H   0  0  0  0  0  0  0  0  0  0  0  0
   -7.4412   23.9704  -31.3772 H   0  0  0  0  0  0  0  0  0  0  0  0
   -3.8189   20.3864  -33.5260 H   0  0  0  0  0  0  0  0  0  0  0  0
   -3.6081   22.1851  -33.6224 H   0  0  0  0  0  0  0  0  0  0  0  0
   -4.6914   20.8910  -30.4040 H   0  0  0  0  0  0  0  0  0  0  0  0
   -3.2456   20.8487  -28.3716 H   0  0  0  0  0  0  0  0  0  0  0  0
   -0.7901   21.2581  -28.5753 H   0  0  0  0  0  0  0  0  0  0  0  0
    0.2191   21.7138  -30.8132 H   0  0  0  0  0  0  0  0  0  0  0  0
   -1.2204   21.7560  -32.8496 H   0  0  0  0  0  0  0  0  0  0  0  0
   -5.9507   19.6978  -35.3332 H   0  0  0  0  0  0  0  0  0  0  0  0
   -5.1782   17.4471  -36.0887 H   0  0  0  0  0  0  0  0  0  0  0  0
   -4.7094   15.6560  -34.4115 H   0  0  0  0  0  0  0  0  0  0  0  0
   -5.0129   16.1149  -31.9762 H   0  0  0  0  0  0  0  0  0  0  0  0
   -5.7823   18.3640  -31.2133 H   0  0  0  0  0  0  0  0  0  0  0  0
  1  2  1  0
  2  3  1  0
  3  4  1  0
  4  5  1  0
  4  6  2  0
  6  7  1  0
  7  8  2  0
  7  9  1  0
  9 10  1  0
 10 11  1  0
 11 12  2  0
 12 13  1  0
 13 14  2  0
 14 15  1  0
 15 16  2  0
  9 17  2  0
 17 18  1  0
 18 19  2  0
 19 20  1  0
 20 21  2  0
 21 22  1  0
 22 23  2  0
 17  3  1  0
 23 18  1  0
 16 11  1  0
  1 24  1  0
  1 25  1  0
  1 26  1  0
  2 27  1  0
  2 28  1  0
  5 29  1  0
  5 30  1  0
  5 31  1  0
  6 32  1  0
 10 33  1  0
 10 34  1  0
 12 35  1  0
 13 36  1  0
 14 37  1  0
 15 38  1  0
 16 39  1  0
 19 40  1  0
 20 41  1  0
 21 42  1  0
 22 43  1  0
 23 44  1  0
M  END
>  <UniqueID>  (5) 
5

>  <SMILES>  (5) 
CCn1c(C)cc(=O)c(Cc2ccccc2)c1-c1ccccc1

>  <Energy>  (5) 
60.615635351062814

>  <Genealogy>  (5) 
CCn1c(C)cc(=O)c(Cc2ccccc2)c1-c1ccccc1 (3D coordinates assigned)
CCn1c(C)cc(=O)c(Cc2ccccc2)c1-c1ccccc1 (optimized conformer: 60.615635351062814 kcal/mol)

>  <smiles>  (5) 
CCn1c(C)cc(=O)c(Cc2ccccc2)c1-c1ccccc1

>  <score_type>  (5) 
oracle

>  <origin>  (5) 
adg

>  <m_score__min__energy>  (5) 
-8.3100000000000005

>  <m_primary>  (5) 
energy

$$$$
5:0
     RDKit          3D

 67 70  0  0  0  0  0  0  0  0999 V2000
   -9.9570   21.5270  -31.9980 C   0  0  0  0  0  0  0  0  0  0  0  0
   -8.6550   21.0660  -31.4930 N   0  0  0  0  0  0  0  0  0  0  0  0
   -8.4050   19.6210  -31.3700 C   0  0  0  0  0  0  0  0  0  0  0  0
   -7.1740   19.2420  -32.1420 C   0  0  0  0  0  0  0  0  0  0  0  0
   -6.1460   18.5060  -31.5330 C   0  0  0  0  0  0  0  0  0  0  0  0
   -4.9840   18.1990  -32.2460 C   0  0  0  0  0  0  0  0  0  0  0  0
   -4.8400   18.6100  -33.5810 C   0  0  0  0  0  0  0  0  0  0  0  0
   -3.5770   18.2860  -34.3410 C   0  0  0  0  0  0  0  0  0  0  0  0
   -2.3430   18.7880  -33.6700 N   0  0  1  0  0  0  0  0  0  0  0  0
   -1.2290   17.9020  -34.0750 C   0  0  0  0  0  0  0  0  0  0  0  0
   -2.1060   20.2530  -33.9620 C   0  0  0  0  0  0  0  0  0  0  0  0
   -3.2420   21.1490  -33.3820 C   0  0  0  0  0  0  0  0  0  0  0  0
   -3.0300   21.5370  -31.9040 C   0  0  0  0  0  0  0  0  0  0  0  0
   -1.9550   20.7300  -31.3040 N   0  0  0  0  0  0  0  0  0  0  0  0
   -1.9120   20.8200  -29.8290 C   0  0  0  0  0  0  0  0  0  0  0  0
   -1.9740   22.2350  -29.2970 C   0  0  0  0  0  0  0  0  0  0  0  0
   -0.8660   23.0880  -29.4300 C   0  0  0  0  0  0  0  0  0  0  0  0
   -0.9210   24.3960  -28.9450 C   0  0  0  0  0  0  0  0  0  0  0  0
   -2.0760   24.8570  -28.3020 C   0  0  0  0  0  0  0  0  0  0  0  0
   -3.1770   24.0100  -28.1500 C   0  0  0  0  0  0  0  0  0  0  0  0
   -3.1270   22.7010  -28.6410 C   0  0  0  0  0  0  0  0  0  0  0  0
   -0.6610   21.0250  -31.9480 C   0  0  0  0  0  0  0  0  0  0  0  0
   -0.7440   20.8380  -33.4790 C   0  0  0  0  0  0  0  0  0  0  0  0
   -5.8670   19.3500  -34.1860 C   0  0  0  0  0  0  0  0  0  0  0  0
   -7.0210   19.6760  -33.4660 C   0  0  0  0  0  0  0  0  0  0  0  0
   -7.5930   22.0210  -31.2580 C   0  0  0  0  0  0  0  0  0  0  0  0
   -7.2450   22.4050  -29.9420 C   0  0  0  0  0  0  0  0  0  0  0  0
   -6.2010   23.3090  -29.7200 C   0  0  0  0  0  0  0  0  0  0  0  0
   -5.4980   23.8470  -30.7980 C   0  0  0  0  0  0  0  0  0  0  0  0
   -5.8350   23.4800  -32.1060 C   0  0  0  0  0  0  0  0  0  0  0  0
   -6.8730   22.5700  -32.3380 C   0  0  0  0  0  0  0  0  0  0  0  0
  -10.6173   21.7608  -31.1499 H   0  0  0  0  0  0  0  0  0  0  0  0
   -9.8140   22.4292  -32.6109 H   0  0  0  0  0  0  0  0  0  0  0  0
  -10.4135   20.7359  -32.6109 H   0  0  0  0  0  0  0  0  0  0  0  0
   -8.2623   19.3656  -30.3096 H   0  0  0  0  0  0  0  0  0  0  0  0
   -9.2672   19.0710  -31.7751 H   0  0  0  0  0  0  0  0  0  0  0  0
   -6.2552   18.1698  -30.4914 H   0  0  0  0  0  0  0  0  0  0  0  0
   -4.1773   17.6320  -31.7585 H   0  0  0  0  0  0  0  0  0  0  0  0
   -3.5003   17.1933  -34.4421 H   0  0  0  0  0  0  0  0  0  0  0  0
   -3.6452   18.7873  -35.3178 H   0  0  0  0  0  0  0  0  0  0  0  0
   -2.4580   18.6520  -32.6380 H   0  0  0  0  0  0  0  0  0  0  0  0
   -0.7309   17.5058  -33.1778 H   0  0  0  0  0  0  0  0  0  0  0  0
   -1.6231   17.0679  -34.6741 H   0  0  0  0  0  0  0  0  0  0  0  0
   -0.5050   18.4737  -34.6741 H   0  0  0  0  0  0  0  0  0  0  0  0
   -2.0911   20.2763  -35.0617 H   0  0  0  0  0  0  0  0  0  0  0  0
   -3.2964   22.0712  -33.9791 H   0  0  0  0  0  0  0  0  0  0  0  0
   -4.1715   20.5628  -33.4311 H   0  0  0  0  0  0  0  0  0  0  0  0
   -2.7584   22.6013  -31.8453 H   0  0  0  0  0  0  0  0  0  0  0  0
   -3.9629   21.3505  -31.3518 H   0  0  0  0  0  0  0  0  0  0  0  0
   -2.7674   20.2600  -29.4232 H   0  0  0  0  0  0  0  0  0  0  0  0
   -0.9445   20.4031  -29.5127 H   0  0  0  0  0  0  0  0  0  0  0  0
    0.0496   22.7236  -29.9187 H   0  0  0  0  0  0  0  0  0  0  0  0
   -0.0563   25.0647  -29.0681 H   0  0  0  0  0  0  0  0  0  0  0  0
   -2.1168   25.8863  -27.9163 H   0  0  0  0  0  0  0  0  0  0  0  0
   -4.0837   24.3728  -27.6439 H   0  0  0  0  0  0  0  0  0  0  0  0
   -3.9925   22.0342  -28.5134 H   0  0  0  0  0  0  0  0  0  0  0  0
   -0.3797   22.0655  -31.7283 H   0  0  0  0  0  0  0  0  0  0  0  0
    0.0922   20.3279  -31.5521 H   0  0  0  0  0  0  0  0  0  0  0  0
   -0.5965   21.8173  -33.9577 H   0  0  0  0  0  0  0  0  0  0  0  0
    0.0359   20.1146  -33.7590 H   0  0  0  0  0  0  0  0  0  0  0  0
   -5.7642   19.6754  -35.2317 H   0  0  0  0  0  0  0  0  0  0  0  0
   -7.8117   20.2754  -33.9408 H   0  0  0  0  0  0  0  0  0  0  0  0
   -7.7992   21.9899  -29.0873 H   0  0  0  0  0  0  0  0  0  0  0  0
   -5.9336   23.5965  -28.6925 H   0  0  0  0  0  0  0  0  0  0  0  0
   -4.6790   24.5595  -30.6202 H   0  0  0  0  0  0  0  0  0  0  0  0
   -5.2820   23.9084  -32.9549 H   0  0  0  0  0  0  0  0  0  0  0  0
   -7.1280   22.2819  -33.3685 H   0  0  0  0  0  0  0  0  0  0  0  0
  1  2  1  0
  2  3  1  0
  3  4  1  0
  4  5  2  0
  5  6  1  0
  6  7  2  0
  7  8  1  0
  8  9  1  0
  9 10  1  0
  9 11  1  0
 11 12  1  0
 12 13  1  0
 13 14  1  0
 14 15  1  0
 15 16  1  0
 16 17  2  0
 17 18  1  0
 18 19  2  0
 19 20  1  0
 20 21  2  0
 14 22  1  0
 22 23  1  0
  7 24  1  0
 24 25  2  0
  2 26  1  0
 26 27  2  0
 27 28  1  0
 28 29  2  0
 29 30  1  0
 30 31  2  0
 25  4  1  0
 31 26  1  0
 23 11  1  0
 21 16  1  0
  1 32  1  0
  1 33  1  0
  1 34  1  0
  3 35  1  0
  3 36  1  0
  5 37  1  0
  6 38  1  0
  8 39  1  0
  8 40  1  0
  9 41  1  1
 10 42  1  0
 10 43  1  0
 10 44  1  0
 11 45  1  0
 12 46  1  0
 12 47  1  0
 13 48  1  0
 13 49  1  0
 15 50  1  0
 15 51  1  0
 17 52  1  0
 18 53  1  0
 19 54  1  0
 20 55  1  0
 21 56  1  0
 22 57  1  0
 22 58  1  0
 23 59  1  0
 23 60  1  0
 24 61  1  0
 25 62  1  0
 27 63  1  0
 28 64  1  0
 29 65  1  0
 30 66  1  0
 31 67  1  0
M  CHG  1   9   1
M  END
>  <UniqueID>  (6) 
6

>  <SMILES>  (6) 
CN(Cc1ccc(C[N@@H+](C)C2CCN(Cc3ccccc3)CC2)cc1)c1ccccc1

>  <Energy>  (6) 
92.14075170334691

>  <Genealogy>  (6) 
CN(Cc1ccc(C[NH+](C)C2CCN(Cc3ccccc3)CC2)cc1)c1ccccc1 (protonated)
CN(Cc1ccc(C[N@@H+](C)C2CCN(Cc3ccccc3)CC2)cc1)c1ccccc1 (chirality)
CN(Cc1ccc(C[N@@H+](C)C2CCN(Cc3ccccc3)CC2)cc1)c1ccccc1 (3D coordinates assigned)
CN(Cc1ccc(C[N@@H+](C)C2CCN(Cc3ccccc3)CC2)cc1)c1ccccc1 (nonaromatic ring conformer: 92.14075170334691 kcal/mol)

>  <smiles>  (6) 
CN(Cc1ccc(CN(C)C2CCN(Cc3ccccc3)CC2)cc1)c1ccccc1

>  <score_type>  (6) 
oracle

>  <origin>  (6) 
adg

>  <m_score__min__energy>  (6) 
-8.3399999999999999

>  <m_primary>  (6) 
energy

$$$$
6:0
     RDKit          3D

 43 45  0  0  0  0  0  0  0  0999 V2000
   -9.1920   19.5550  -32.4990 C   0  0  0  0  0  0  0  0  0  0  0  0
   -9.0500   20.9640  -32.3500 O   0  0  0  0  0  0  0  0  0  0  0  0
   -7.9360   21.5920  -31.7710 C   0  0  0  0  0  0  0  0  0  0  0  0
   -8.0390   22.3940  -30.6180 C   0  0  0  0  0  0  0  0  0  0  0  0
   -6.9010   22.9990  -30.0770 C   0  0  0  0  0  0  0  0  0  0  0  0
   -5.6490   22.8100  -30.6760 C   0  0  0  0  0  0  0  0  0  0  0  0
   -4.2090   23.5820  -30.0190 S   0  0  0  0  0  0  0  0  0  0  0  0
   -4.5000   24.0220  -28.6110 O   0  0  0  0  0  0  0  0  0  0  0  0
   -3.8600   24.7930  -30.8400 O   0  0  0  0  0  0  0  0  0  0  0  0
   -2.8880   22.4320  -30.0380 N   0  0  0  0  0  0  0  0  0  0  0  0
   -1.5700   23.1130  -30.0970 C   0  0  0  0  0  0  0  0  0  0  0  0
   -0.7660   23.0340  -28.7880 C   0  0  0  0  0  0  0  0  0  0  0  0
   -1.6730   23.0700  -27.6390 N   0  0  0  0  0  0  0  0  0  0  0  0
   -1.5430   24.0790  -26.6190 C   0  0  0  0  0  0  0  0  0  0  0  0
   -0.5070   24.0030  -25.6740 C   0  0  0  0  0  0  0  0  0  0  0  0
   -0.4010   24.9840  -24.6870 C   0  0  0  0  0  0  0  0  0  0  0  0
   -1.3260   26.0260  -24.6430 C   0  0  0  0  0  0  0  0  0  0  0  0
   -2.3510   26.0700  -25.5900 C   0  0  0  0  0  0  0  0  0  0  0  0
   -2.4420   25.1070  -26.5470 N   0  0  0  0  0  0  0  0  0  0  0  0
   -2.7490   22.0770  -27.5660 C   0  0  0  0  0  0  0  0  0  0  0  0
   -3.0050   21.4450  -28.9450 C   0  0  0  0  0  0  0  0  0  0  0  0
   -5.5450   22.0180  -31.8260 C   0  0  0  0  0  0  0  0  0  0  0  0
   -6.6820   21.4100  -32.3680 C   0  0  0  0  0  0  0  0  0  0  0  0
   -6.5650   20.6440  -33.4810 F   0  0  0  0  0  0  0  0  0  0  0  0
   -9.2394   19.0842  -31.5060 H   0  0  0  0  0  0  0  0  0  0  0  0
  -10.1167   19.3362  -33.0531 H   0  0  0  0  0  0  0  0  0  0  0  0
   -8.3295   19.1561  -33.0531 H   0  0  0  0  0  0  0  0  0  0  0  0
   -9.0188   22.5449  -30.1413 H   0  0  0  0  0  0  0  0  0  0  0  0
   -6.9890   23.6259  -29.1774 H   0  0  0  0  0  0  0  0  0  0  0  0
   -0.9755   22.6473  -30.8968 H   0  0  0  0  0  0  0  0  0  0  0  0
   -1.7702   24.1784  -30.2838 H   0  0  0  0  0  0  0  0  0  0  0  0
   -0.1919   22.0959  -28.7694 H   0  0  0  0  0  0  0  0  0  0  0  0
   -0.0806   23.8926  -28.7334 H   0  0  0  0  0  0  0  0  0  0  0  0
    0.2165   23.1753  -25.7115 H   0  0  0  0  0  0  0  0  0  0  0  0
    0.4103   24.9351  -23.9458 H   0  0  0  0  0  0  0  0  0  0  0  0
   -1.2492   26.8052  -23.8704 H   0  0  0  0  0  0  0  0  0  0  0  0
   -3.0878   26.8863  -25.5623 H   0  0  0  0  0  0  0  0  0  0  0  0
   -3.2390   25.1530  -27.2210 H   0  0  0  0  0  0  0  0  0  0  0  0
   -2.4634   21.2876  -26.8551 H   0  0  0  0  0  0  0  0  0  0  0  0
   -3.6692   22.5788  -27.2323 H   0  0  0  0  0  0  0  0  0  0  0  0
   -2.2697   20.6438  -29.1102 H   0  0  0  0  0  0  0  0  0  0  0  0
   -4.0321   21.0512  -28.9522 H   0  0  0  0  0  0  0  0  0  0  0  0
   -4.5654   21.8734  -32.3050 H   0  0  0  0  0  0  0  0  0  0  0  0
  1  2  1  0
  2  3  1  0
  3  4  2  0
  4  5  1  0
  5  6  2  0
  6  7  1  0
  7  8  2  0
  7  9  2  0
  7 10  1  0
 10 11  1  0
 11 12  1  0
 12 13  1  0
 13 14  1  0
 14 15  2  0
 15 16  1  0
 16 17  2  0
 17 18  1  0
 18 19  2  0
 13 20  1  0
 20 21  1  0
  6 22  1  0
 22 23  2  0
 23 24  1  0
 23  3  1  0
 21 10  1  0
 19 14  1  0
  1 25  1  0
  1 26  1  0
  1 27  1  0
  4 28  1  0
  5 29  1  0
 11 30  1  0
 11 31  1  0
 12 32  1  0
 12 33  1  0
 15 34  1  0
 16 35  1  0
 17 36  1  0
 18 37  1  0
 19 38  1  0
 20 39  1  0
 20 40  1  0
 21 41  1  0
 21 42  1  0
 22 43  1  0
M  CHG  1  19   1
M  END
>  <UniqueID>  (7) 
7

>  <SMILES>  (7) 
COc1ccc(S(=O)(=O)N2CCN(c3cccc[nH+]3)CC2)cc1F

>  <Energy>  (7) 
54.19916563523114

>  <Genealogy>  (7) 
COc1ccc(S(=O)(=O)N2CCN(c3cccc[nH+]3)CC2)cc1F (protonated)
COc1ccc(S(=O)(=O)N2CCN(c3cccc[nH+]3)CC2)cc1F (3D coordinates assigned)
COc1ccc(S(=O)(=O)N2CCN(c3cccc[nH+]3)CC2)cc1F (nonaromatic ring conformer: 54.19916563523114 kcal/mol)

>  <smiles>  (7) 
COc1ccc(S(=O)(=O)N2CCN(c3ccccn3)CC2)cc1F

>  <score_type>  (7) 
oracle

>  <origin>  (7) 
adg

>  <m_score__min__energy>  (7) 
-6.6600000000000001

>  <m_primary>  (7) 
energy

$$$$
7:0
     RDKit          3D

 45 48  0  0  0  0  0  0  0  0999 V2000
   -5.5790   18.1860  -34.9810 C   0  0  0  0  0  0  0  0  0  0  0  0
   -4.4330   18.2740  -33.9790 C   0  0  0  0  0  0  0  0  0  0  0  0
   -4.2500   19.6620  -33.5300 N   0  0  0  0  0  0  0  0  0  0  0  0
   -3.0790   20.3410  -33.4410 C   0  0  0  0  0  0  0  0  0  0  0  0
   -1.7940   19.8940  -34.0100 C   0  0  0  0  0  0  0  0  0  0  0  0
   -1.4270   18.5420  -33.9270 C   0  0  0  0  0  0  0  0  0  0  0  0
   -0.2010   18.1120  -34.4430 C   0  0  0  0  0  0  0  0  0  0  0  0
    0.6730   19.0320  -35.0310 C   0  0  0  0  0  0  0  0  0  0  0  0
    0.3230   20.3840  -35.0960 C   0  0  0  0  0  0  0  0  0  0  0  0
   -0.9030   20.8170  -34.5810 C   0  0  0  0  0  0  0  0  0  0  0  0
   -3.1780   21.4660  -32.7030 N   0  0  0  0  0  0  0  0  0  0  0  0
   -4.4690   21.5100  -32.3190 C   0  0  0  0  0  0  0  0  0  0  0  0
   -5.0190   22.5920  -31.4700 C   0  0  0  0  0  0  0  0  0  0  0  0
   -5.9710   23.5000  -31.9710 C   0  0  0  0  0  0  0  0  0  0  0  0
   -6.4730   24.5180  -31.1560 C   0  0  0  0  0  0  0  0  0  0  0  0
   -6.0210   24.6500  -29.8400 C   0  0  0  0  0  0  0  0  0  0  0  0
   -5.0630   23.7660  -29.3400 C   0  0  0  0  0  0  0  0  0  0  0  0
   -4.5580   22.7460  -30.1510 C   0  0  0  0  0  0  0  0  0  0  0  0
   -5.1320   20.3970  -32.8140 C   0  0  0  0  0  0  0  0  0  0  0  0
   -6.5010   19.9640  -32.4650 C   0  0  0  0  0  0  0  0  0  0  0  0
   -6.7220   18.6970  -31.9040 C   0  0  0  0  0  0  0  0  0  0  0  0
   -8.0200   18.2840  -31.5900 C   0  0  0  0  0  0  0  0  0  0  0  0
   -9.1040   19.1320  -31.8380 C   0  0  0  0  0  0  0  0  0  0  0  0
   -8.8910   20.3920  -32.4020 C   0  0  0  0  0  0  0  0  0  0  0  0
   -7.5940   20.8090  -32.7170 C   0  0  0  0  0  0  0  0  0  0  0  0
   -6.5341   18.1127  -34.4402 H   0  0  0  0  0  0  0  0  0  0  0  0
   -5.5836   19.0864  -35.6128 H   0  0  0  0  0  0  0  0  0  0  0  0
   -5.4461   17.2954  -35.6128 H   0  0  0  0  0  0  0  0  0  0  0  0
   -4.6617   17.6392  -33.1102 H   0  0  0  0  0  0  0  0  0  0  0  0
   -3.5074   17.9312  -34.4646 H   0  0  0  0  0  0  0  0  0  0  0  0
   -2.1067   17.8178  -33.4541 H   0  0  0  0  0  0  0  0  0  0  0  0
    0.0765   17.0491  -34.3865 H   0  0  0  0  0  0  0  0  0  0  0  0
    1.6351   18.6921  -35.4420 H   0  0  0  0  0  0  0  0  0  0  0  0
    1.0132   21.1084  -35.5530 H   0  0  0  0  0  0  0  0  0  0  0  0
   -1.1700   21.8833  -34.6233 H   0  0  0  0  0  0  0  0  0  0  0  0
   -6.3216   23.4076  -33.0095 H   0  0  0  0  0  0  0  0  0  0  0  0
   -7.2252   25.2167  -31.5508 H   0  0  0  0  0  0  0  0  0  0  0  0
   -6.4198   25.4498  -29.1987 H   0  0  0  0  0  0  0  0  0  0  0  0
   -4.7049   23.8726  -28.3054 H   0  0  0  0  0  0  0  0  0  0  0  0
   -3.7952   22.0596  -29.7548 H   0  0  0  0  0  0  0  0  0  0  0  0
   -5.8714   18.0268  -31.7107 H   0  0  0  0  0  0  0  0  0  0  0  0
   -8.1889   17.2912  -31.1475 H   0  0  0  0  0  0  0  0  0  0  0  0
  -10.1248   18.8066  -31.5888 H   0  0  0  0  0  0  0  0  0  0  0  0
   -9.7447   21.0572  -32.5986 H   0  0  0  0  0  0  0  0  0  0  0  0
   -7.4295   21.8009  -33.1631 H   0  0  0  0  0  0  0  0  0  0  0  0
  1  2  1  0
  2  3  1  0
  3  4  1  0
  4  5  1  0
  5  6  2  0
  6  7  1  0
  7  8  2  0
  8  9  1  0
  9 10  2  0
  4 11  2  0
 11 12  1  0
 12 13  1  0
 13 14  2  0
 14 15  1  0
 15 16  2  0
 16 17  1  0
 17 18  2  0
 12 19  2  0
 19 20  1  0
 20 21  2  0
 21 22  1  0
 22 23  2  0
 23 24  1  0
 24 25  2  0
 19  3  1  0
 25 20  1  0
 10  5  1  0
 18 13  1  0
  1 26  1  0
  1 27  1  0
  1 28  1  0
  2 29  1  0
  2 30  1  0
  6 31  1  0
  7 32  1  0
  8 33  1  0
  9 34  1  0
 10 35  1  0
 14 36  1  0
 15 37  1  0
 16 38  1  0
 17 39  1  0
 18 40  1  0
 21 41  1  0
 22 42  1  0
 23 43  1  0
 24 44  1  0
 25 45  1  0
M  END
>  <UniqueID>  (8) 
8

>  <SMILES>  (8) 
CCn1c(-c2ccccc2)nc(-c2ccccc2)c1-c1ccccc1

>  <Energy>  (8) 
90.80545829141339

>  <Genealogy>  (8) 
CCn1c(-c2ccccc2)nc(-c2ccccc2)c1-c1ccccc1 (3D coordinates assigned)
CCn1c(-c2ccccc2)nc(-c2ccccc2)c1-c1ccccc1 (optimized conformer: 90.80545829141339 kcal/mol)

>  <smiles>  (8) 
CCn1c(-c2ccccc2)nc(-c2ccccc2)c1-c1ccccc1

>  <score_type>  (8) 
oracle

>  <origin>  (8) 
adg

>  <m_score__min__energy>  (8) 
-8.6199999999999992

>  <m_primary>  (8) 
energy

$$$$
8:0
     RDKit          3D

 42 43  0  0  0  0  0  0  0  0999 V2000
   -3.0700   19.2960  -26.7640 C   0  0  0  0  0  0  0  0  0  0  0  0
   -2.3100   20.0180  -27.8690 C   0  0  0  0  0  0  0  0  0  0  0  0
   -2.9480   21.2980  -28.1730 N   0  0  0  0  0  0  0  0  0  0  0  0
   -3.1620   22.2310  -27.2570 N   0  0  0  0  0  0  0  0  0  0  0  0
   -3.7520   23.2780  -27.8660 C   0  0  0  0  0  0  0  0  0  0  0  0
   -4.1490   24.5280  -27.1520 C   0  0  0  0  0  0  0  0  0  0  0  0
   -3.9200   22.9960  -29.2120 C   0  0  0  0  0  0  0  0  0  0  0  0
   -4.6440   24.0140  -30.4590 S   0  0  0  0  0  0  0  0  0  0  0  0
   -3.8820   25.3050  -30.5370 O   0  0  0  0  0  0  0  0  0  0  0  0
   -4.5880   23.3390  -31.8000 O   0  0  0  0  0  0  0  0  0  0  0  0
   -6.2960   24.3430  -30.0380 N   0  0  0  0  0  0  0  0  0  0  0  0
   -7.0890   23.1120  -30.1050 C   0  0  0  0  0  0  0  0  0  0  0  0
   -7.6280   22.9150  -31.5230 C   0  0  0  0  0  0  0  0  0  0  0  0
   -7.6460   21.4540  -31.8930 C   0  0  0  0  0  0  0  0  0  0  0  0
   -8.7580   20.6580  -31.5740 C   0  0  0  0  0  0  0  0  0  0  0  0
   -8.7960   19.3140  -31.9590 C   0  0  0  0  0  0  0  0  0  0  0  0
   -7.7320   18.7610  -32.6760 C   0  0  0  0  0  0  0  0  0  0  0  0
   -6.6280   19.5500  -33.0100 C   0  0  0  0  0  0  0  0  0  0  0  0
   -6.5840   20.8930  -32.6220 C   0  0  0  0  0  0  0  0  0  0  0  0
   -3.3710   21.7370  -29.3800 C   0  0  0  0  0  0  0  0  0  0  0  0
   -3.3240   20.9450  -30.6530 C   0  0  0  0  0  0  0  0  0  0  0  0
   -2.7075   19.6404  -25.7842 H   0  0  0  0  0  0  0  0  0  0  0  0
   -4.1443   19.5142  -26.8549 H   0  0  0  0  0  0  0  0  0  0  0  0
   -2.9071   18.2119  -26.8549 H   0  0  0  0  0  0  0  0  0  0  0  0
   -1.2757   20.1974  -27.5402 H   0  0  0  0  0  0  0  0  0  0  0  0
   -2.3155   19.3924  -28.7738 H   0  0  0  0  0  0  0  0  0  0  0  0
   -4.0964   24.3623  -26.0658 H   0  0  0  0  0  0  0  0  0  0  0  0
   -3.4655   25.3431  -27.4321 H   0  0  0  0  0  0  0  0  0  0  0  0
   -5.1775   24.7994  -27.4321 H   0  0  0  0  0  0  0  0  0  0  0  0
   -6.6710   25.0160  -30.7470 H   0  0  0  0  0  0  0  0  0  0  0  0
   -6.4552   22.2549  -29.8336 H   0  0  0  0  0  0  0  0  0  0  0  0
   -7.9336   23.1873  -29.4043 H   0  0  0  0  0  0  0  0  0  0  0  0
   -8.6520   23.3131  -31.5777 H   0  0  0  0  0  0  0  0  0  0  0  0
   -6.9708   23.4477  -32.2261 H   0  0  0  0  0  0  0  0  0  0  0  0
   -9.6023   21.0932  -31.0192 H   0  0  0  0  0  0  0  0  0  0  0  0
   -9.6644   18.6917  -31.6970 H   0  0  0  0  0  0  0  0  0  0  0  0
   -7.7633   17.7037  -32.9779 H   0  0  0  0  0  0  0  0  0  0  0  0
   -5.7930   19.1145  -33.5785 H   0  0  0  0  0  0  0  0  0  0  0  0
   -5.7148   21.5123  -32.8886 H   0  0  0  0  0  0  0  0  0  0  0  0
   -3.2604   19.8728  -30.4156 H   0  0  0  0  0  0  0  0  0  0  0  0
   -4.2351   21.1375  -31.2385 H   0  0  0  0  0  0  0  0  0  0  0  0
   -2.4420   21.2439  -31.2385 H   0  0  0  0  0  0  0  0  0  0  0  0
  1  2  1  0
  2  3  1  0
  3  4  1  0
  4  5  2  0
  5  6  1  0
  5  7  1  0
  7  8  1  0
  8  9  2  0
  8 10  2  0
  8 11  1  0
 11 12  1  0
 12 13  1  0
 13 14  1  0
 14 15  2  0
 15 16  1  0
 16 17  2  0
 17 18  1  0
 18 19  2  0
  7 20  2  0
 20 21  1  0
 20  3  1  0
 19 14  1  0
  1 22  1  0
  1 23  1  0
  1 24  1  0
  2 25  1  0
  2 26  1  0
  6 27  1  0
  6 28  1  0
  6 29  1  0
 11 30  1  0
 12 31  1  0
 12 32  1  0
 13 33  1  0
 13 34  1  0
 15 35  1  0
 16 36  1  0
 17 37  1  0
 18 38  1  0
 19 39  1  0
 21 40  1  0
 21 41  1  0
 21 42  1  0
M  END
>  <UniqueID>  (9) 
9

>  <SMILES>  (9) 
CCn1nc(C)c(S(=O)(=O)NCCc2ccccc2)c1C

>  <Energy>  (9) 
58.605342082961855

>  <Genealogy>  (9) 
CCn1nc(C)c(S(=O)(=O)NCCc2ccccc2)c1C (3D coordinates assigned)
CCn1nc(C)c(S(=O)(=O)NCCc2ccccc2)c1C (optimized conformer: 58.605342082961855 kcal/mol)

>  <smiles>  (9) 
CCn1nc(C)c(S(=O)(=O)NCCc2ccccc2)c1C

>  <score_type>  (9) 
oracle

>  <origin>  (9) 
adg

>  <m_score__min__energy>  (9) 
-8.1799999999999997

>  <m_primary>  (9) 
energy

$$$$
9:0
     RDKit          3D

 35 35  0  0  0  0  0  0  0  0999 V2000
   -2.2160   24.3180  -28.7130 C   0  0  0  0  0  0  0  0  0  0  0  0
   -3.6920   24.5450  -29.0410 C   0  0  0  0  0  0  0  0  0  0  0  0
   -3.9370   24.5730  -30.5030 N   0  0  0  0  0  0  0  0  0  0  0  0
   -5.2060   25.2630  -30.8280 C   0  0  0  0  0  0  0  0  0  0  0  0
   -6.1070   25.3230  -29.5990 C   0  0  0  0  0  0  0  0  0  0  0  0
   -3.8370   23.2470  -31.1620 C   0  0  0  0  0  0  0  0  0  0  0  0
   -5.0270   22.3130  -30.8780 C   0  0  0  0  0  0  0  0  0  0  0  0
   -6.0110   22.0700  -32.3460 S   0  0  0  0  0  0  0  0  0  0  0  0
   -6.9620   23.4080  -32.7030 O   0  0  0  0  0  0  0  0  0  0  0  0
   -6.9600   20.5940  -32.3180 C   0  0  0  0  0  0  0  0  0  0  0  0
   -6.3610   19.3760  -32.6610 C   0  0  0  0  0  0  0  0  0  0  0  0
   -7.1110   18.1950  -32.6400 C   0  0  0  0  0  0  0  0  0  0  0  0
   -8.4620   18.2300  -32.2800 C   0  0  0  0  0  0  0  0  0  0  0  0
   -9.0640   19.4470  -31.9460 C   0  0  0  0  0  0  0  0  0  0  0  0
   -8.3160   20.6280  -31.9660 C   0  0  0  0  0  0  0  0  0  0  0  0
   -2.0819   24.2974  -27.6214 H   0  0  0  0  0  0  0  0  0  0  0  0
   -1.8886   23.3589  -29.1408 H   0  0  0  0  0  0  0  0  0  0  0  0
   -1.6156   25.1344  -29.1408 H   0  0  0  0  0  0  0  0  0  0  0  0
   -4.2839   23.7311  -28.5970 H   0  0  0  0  0  0  0  0  0  0  0  0
   -3.9861   25.5212  -28.6280 H   0  0  0  0  0  0  0  0  0  0  0  0
   -4.9860   26.2862  -31.1667 H   0  0  0  0  0  0  0  0  0  0  0  0
   -5.7226   24.7052  -31.6229 H   0  0  0  0  0  0  0  0  0  0  0  0
   -5.4897   25.2819  -28.6895 H   0  0  0  0  0  0  0  0  0  0  0  0
   -6.6809   26.2614  -29.6105 H   0  0  0  0  0  0  0  0  0  0  0  0
   -6.8003   24.4690  -29.6105 H   0  0  0  0  0  0  0  0  0  0  0  0
   -3.7736   23.4052  -32.2487 H   0  0  0  0  0  0  0  0  0  0  0  0
   -2.9427   22.7553  -30.7515 H   0  0  0  0  0  0  0  0  0  0  0  0
   -4.6467   21.3397  -30.5343 H   0  0  0  0  0  0  0  0  0  0  0  0
   -5.6585   22.7741  -30.1043 H   0  0  0  0  0  0  0  0  0  0  0  0
   -6.7060   23.6540  -33.6260 H   0  0  0  0  0  0  0  0  0  0  0  0
   -5.2993   19.3474  -32.9474 H   0  0  0  0  0  0  0  0  0  0  0  0
   -6.6378   17.2385  -32.9068 H   0  0  0  0  0  0  0  0  0  0  0  0
   -9.0505   17.3009  -32.2596 H   0  0  0  0  0  0  0  0  0  0  0  0
  -10.1277   19.4753  -31.6671 H   0  0  0  0  0  0  0  0  0  0  0  0
   -8.7923   21.5846  -31.7052 H   0  0  0  0  0  0  0  0  0  0  0  0
  1  2  1  0
  2  3  1  0
  3  4  1  0
  4  5  1  0
  3  6  1  0
  6  7  1  0
  7  8  1  0
  8  9  1  1
  8 10  1  0
 10 11  2  0
 11 12  1  0
 12 13  2  0
 13 14  1  0
 14 15  2  0
 15 10  1  0
  1 16  1  0
  1 17  1  0
  1 18  1  0
  2 19  1  0
  2 20  1  0
  4 21  1  0
  4 22  1  0
  5 23  1  0
  5 24  1  0
  5 25  1  0
  6 26  1  0
  6 27  1  0
  7 28  1  0
  7 29  1  0
  9 30  1  0
 11 31  1  0
 12 32  1  0
 13 33  1  0
 14 34  1  0
 15 35  1  0
M  CHG  1   8   1
M  END
>  <UniqueID>  (10) 
10

>  <SMILES>  (10) 
CCN(CC)CC[S@+](O)c1ccccc1

>  <Energy>  (10) 
28.189745367686967

>  <Genealogy>  (10) 
CCN(CC)CC[S+](O)c1ccccc1 (protonated)
CCN(CC)CC[S@+](O)c1ccccc1 (chirality)
CCN(CC)CC[S@+](O)c1ccccc1 (3D coordinates assigned)
CCN(CC)CC[S@+](O)c1ccccc1 (optimized conformer: 28.189745367686967 kcal/mol)

>  <smiles>  (10) 
CCN(CC)CC[S+]([O-])c1ccccc1

>  <score_type>  (10) 
oracle

>  <origin>  (10) 
adg

>  <m_score__min__energy>  (10) 
-5.79

>  <m_primary>  (10) 
energy

$$$$
10:0
     RDKit          3D

 46 46  0  0  0  0  0  0  0  0999 V2000
  -10.2967   22.0752  -31.9944 H   0  0  0  0  0  0  0  0  0  0  0  0
   -9.2280   21.8330  -31.8980 C   0  0  0  0  0  0  0  0  0  0  0  0
   -8.8190   20.5020  -31.8370 C   0  0  0  0  0  0  0  0  0  0  0  0
   -9.5659   19.6953  -31.8732 H   0  0  0  0  0  0  0  0  0  0  0  0
   -7.4620   20.1920  -31.7300 C   0  0  0  0  0  0  0  0  0  0  0  0
   -7.1459   19.1394  -31.6851 H   0  0  0  0  0  0  0  0  0  0  0  0
   -6.4950   21.2120  -31.6790 C   0  0  0  0  0  0  0  0  0  0  0  0
   -5.0390   20.8360  -31.5480 C   0  0  0  0  0  0  0  0  0  0  0  0
   -4.9693   19.7882  -31.2204 H   0  0  0  0  0  0  0  0  0  0  0  0
   -4.5752   21.5101  -30.8128 H   0  0  0  0  0  0  0  0  0  0  0  0
   -4.1470   21.0220  -33.1360 S   0  0  0  0  0  0  0  0  0  0  0  0
   -2.5850   21.7260  -32.4920 C   0  0  0  0  0  0  0  0  0  0  0  0
   -2.4614   22.7442  -32.8895 H   0  0  0  0  0  0  0  0  0  0  0  0
   -1.7566   21.0769  -32.8120 H   0  0  0  0  0  0  0  0  0  0  0  0
   -2.5840   21.7860  -30.9620 C   0  0  0  0  0  0  0  0  0  0  0  0
   -1.8516   21.0626  -30.5744 H   0  0  0  0  0  0  0  0  0  0  0  0
   -3.5945   21.5430  -30.6018 H   0  0  0  0  0  0  0  0  0  0  0  0
   -2.2310   23.1230  -30.4890 N   0  0  0  0  0  0  0  0  0  0  0  0
   -1.5050   23.6590  -31.0160 H   0  0  0  0  0  0  0  0  0  0  0  0
   -2.8280   23.7220  -29.3290 C   0  0  0  0  0  0  0  0  0  0  0  0
   -3.5450   22.9860  -28.5240 N   0  0  0  0  0  0  0  0  0  0  0  0
   -3.0500   22.1160  -27.4570 C   0  0  0  0  0  0  0  0  0  0  0  0
   -3.8287   22.0157  -26.6866 H   0  0  0  0  0  0  0  0  0  0  0  0
   -2.1402   22.5681  -27.0353 H   0  0  0  0  0  0  0  0  0  0  0  0
   -2.6940   20.7220  -27.9920 C   0  0  0  0  0  0  0  0  0  0  0  0
   -1.7080   20.7682  -28.4775 H   0  0  0  0  0  0  0  0  0  0  0  0
   -3.4737   20.4214  -28.7073 H   0  0  0  0  0  0  0  0  0  0  0  0
   -2.6470   19.6800  -26.8760 C   0  0  0  0  0  0  0  0  0  0  0  0
   -2.6699   20.1868  -25.9000 H   0  0  0  0  0  0  0  0  0  0  0  0
   -3.5159   19.0110  -26.9622 H   0  0  0  0  0  0  0  0  0  0  0  0
   -1.7214   19.0919  -26.9622 H   0  0  0  0  0  0  0  0  0  0  0  0
   -2.5920   25.1110  -29.0690 N   0  0  0  0  0  0  0  0  0  0  0  0
   -2.0140   25.6720  -29.7340 H   0  0  0  0  0  0  0  0  0  0  0  0
   -2.9940   25.6100  -28.2470 H   0  0  0  0  0  0  0  0  0  0  0  0
   -6.9150   22.5660  -31.7080 C   0  0  0  0  0  0  0  0  0  0  0  0
   -5.9560   23.6380  -31.6380 N   0  0  0  0  0  0  0  0  0  0  0  0
   -5.4110   23.8790  -32.4940 H   0  0  0  0  0  0  0  0  0  0  0  0
   -5.7390   24.4470  -30.4690 C   0  0  0  0  0  0  0  0  0  0  0  0
   -5.1970   25.7620  -30.6230 N   0  0  0  0  0  0  0  0  0  0  0  0
   -4.9980   26.1410  -31.5740 H   0  0  0  0  0  0  0  0  0  0  0  0
   -4.9990   26.3630  -29.7910 H   0  0  0  0  0  0  0  0  0  0  0  0
   -5.9680   23.9780  -29.2780 N   0  0  0  0  0  0  0  0  0  0  0  0
   -6.5180   24.5330  -28.5840 H   0  0  0  0  0  0  0  0  0  0  0  0
   -5.5890   23.0570  -28.9690 H   0  0  0  0  0  0  0  0  0  0  0  0
   -8.2840   22.8590  -31.8370 C   0  0  0  0  0  0  0  0  0  0  0  0
   -8.6142   23.9069  -31.8904 H   0  0  0  0  0  0  0  0  0  0  0  0
  1  2  1  0
  2  3  2  0
  3  4  1  0
  3  5  1  0
  5  6  1  0
  5  7  2  0
  7  8  1  0
  8  9  1  0
  8 10  1  0
  8 11  1  0
 11 12  1  0
 12 13  1  0
 12 14  1  0
 12 15  1  0
 15 16  1  0
 15 17  1  0
 15 18  1  0
 18 19  1  0
 18 20  1  0
 20 21  2  0
 21 22  1  0
 22 23  1  0
 22 24  1  0
 22 25  1  0
 25 26  1  0
 25 27  1  0
 25 28  1  0
 28 29  1  0
 28 30  1  0
 28 31  1  0
 20 32  1  0
 32 33  1  0
 32 34  1  0
  7 35  1  0
 35 36  1  0
 36 37  1  0
 36 38  1  0
 38 39  1  0
 39 40  1  0
 39 41  1  0
 38 42  2  0
 42 43  1  0
 42 44  1  0
 35 45  2  0
 45 46  1  0
 45  2  1  0
M  CHG  1  42   1
M  END
>  <UniqueID>  (11) 
11

>  <SMILES>  (11) 
CCC/N=C(\N)NCCSCc1ccccc1NC(N)=[NH2+]

>  <Energy>  (11) 
33.83328644824586

>  <Genealogy>  (11) 
CCCN=C(N)NCCSCc1ccccc1NC(N)=[NH2+] (protonated)
CCC/N=C(\N)NCCSCc1ccccc1NC(N)=[NH2+] (cis-trans isomerization)
CCC/N=C(\N)NCCSCc1ccccc1NC(N)=[NH2+] (3D coordinates assigned)
CCC/N=C(\N)NCCSCc1ccccc1NC(N)=[NH2+] (optimized conformer: 33.83328644824586 kcal/mol)

>  <smiles>  (11) 
CCCN=C(N)NCCSCc1ccccc1NC(=N)N

>  <score_type>  (11) 
oracle

>  <origin>  (11) 
adg

>  <m_score__min__energy>  (11) 
-7.2000000000000002

>  <m_primary>  (11) 
energy

$$$$
11:0
     RDKit          3D

 60 62  0  0  0  0  0  0  0  0999 V2000
   -0.8880   26.0750  -26.5240 C   0  0  0  0  0  0  0  0  0  0  0  0
   -0.5080   25.4110  -27.8470 C   0  0  0  0  0  0  0  0  0  0  0  0
   -0.8100   23.9060  -27.8540 C   0  0  0  0  0  0  0  0  0  0  0  0
   -1.8980   23.5810  -28.7920 N   0  0  0  0  0  0  0  0  0  0  0  0
   -1.6570   22.7490  -29.9430 C   0  0  0  0  0  0  0  0  0  0  0  0
   -0.5120   22.2530  -30.1370 O   0  0  0  0  0  0  0  0  0  0  0  0
   -2.7510   22.4780  -30.9050 C   0  0  0  0  0  0  0  0  0  0  0  0
   -2.5220   21.6570  -32.0200 C   0  0  0  0  0  0  0  0  0  0  0  0
   -3.5480   21.3850  -32.9210 C   0  0  0  0  0  0  0  0  0  0  0  0
   -4.8140   21.9370  -32.7340 C   0  0  0  0  0  0  0  0  0  0  0  0
   -5.0750   22.7850  -31.6400 C   0  0  0  0  0  0  0  0  0  0  0  0
   -6.3560   23.3570  -31.4400 C   0  0  0  0  0  0  0  0  0  0  0  0
   -7.4120   23.1760  -32.4020 N   0  0  0  0  0  0  0  0  0  0  0  0
   -8.8250   23.2160  -32.0240 C   0  0  0  0  0  0  0  0  0  0  0  0
   -9.3960   21.8000  -31.9010 C   0  0  0  0  0  0  0  0  0  0  0  0
   -8.6450   20.8960  -32.6900 O   0  0  0  0  0  0  0  0  0  0  0  0
   -9.1380   19.5780  -32.5520 C   0  0  0  0  0  0  0  0  0  0  0  0
   -7.9610   18.5850  -32.5130 C   0  0  0  0  0  0  0  0  0  0  0  0
   -6.6210   19.2040  -32.6780 N   0  0  0  0  0  0  0  0  0  0  0  0
   -6.1420   19.2660  -34.0780 C   0  0  0  0  0  0  0  0  0  0  0  0
   -5.7350   17.8880  -34.6020 C   0  0  0  0  0  0  0  0  0  0  0  0
   -5.6090   18.6050  -31.7800 C   0  0  0  0  0  0  0  0  0  0  0  0
   -6.1120   17.2730  -31.2320 C   0  0  0  0  0  0  0  0  0  0  0  0
   -6.5880   24.1410  -30.3020 C   0  0  0  0  0  0  0  0  0  0  0  0
   -5.5730   24.3850  -29.3830 C   0  0  0  0  0  0  0  0  0  0  0  0
   -4.2900   23.8510  -29.5730 C   0  0  0  0  0  0  0  0  0  0  0  0
   -4.0330   23.0420  -30.7020 C   0  0  0  0  0  0  0  0  0  0  0  0
   -3.2130   24.1320  -28.5960 C   0  0  0  0  0  0  0  0  0  0  0  0
   -3.4490   24.8550  -27.5880 O   0  0  0  0  0  0  0  0  0  0  0  0
   -0.5332   25.4551  -25.6874 H   0  0  0  0  0  0  0  0  0  0  0  0
   -0.4226   27.0700  -26.4662 H   0  0  0  0  0  0  0  0  0  0  0  0
   -1.9817   26.1778  -26.4662 H   0  0  0  0  0  0  0  0  0  0  0  0
   -1.0763   25.8892  -28.6584 H   0  0  0  0  0  0  0  0  0  0  0  0
    0.5759   25.5364  -27.9862 H   0  0  0  0  0  0  0  0  0  0  0  0
    0.0966   23.3604  -28.1545 H   0  0  0  0  0  0  0  0  0  0  0  0
   -1.1254   23.6113  -26.8422 H   0  0  0  0  0  0  0  0  0  0  0  0
   -1.5237   21.2249  -32.1834 H   0  0  0  0  0  0  0  0  0  0  0  0
   -3.3584   20.7310  -33.7849 H   0  0  0  0  0  0  0  0  0  0  0  0
   -5.6182   21.7079  -33.4486 H   0  0  0  0  0  0  0  0  0  0  0  0
   -7.1640   23.0300  -33.4060 H   0  0  0  0  0  0  0  0  0  0  0  0
   -8.9251   23.7304  -31.0568 H   0  0  0  0  0  0  0  0  0  0  0  0
   -9.3833   23.7545  -32.8039 H   0  0  0  0  0  0  0  0  0  0  0  0
   -9.3556   21.4828  -30.8485 H   0  0  0  0  0  0  0  0  0  0  0  0
  -10.4376   21.8028  -32.2546 H   0  0  0  0  0  0  0  0  0  0  0  0
   -9.7142   19.4990  -31.6183 H   0  0  0  0  0  0  0  0  0  0  0  0
   -9.7870   19.3403  -33.4077 H   0  0  0  0  0  0  0  0  0  0  0  0
   -7.9819   18.0668  -31.5429 H   0  0  0  0  0  0  0  0  0  0  0  0
   -8.0977   17.9074  -33.3687 H   0  0  0  0  0  0  0  0  0  0  0  0
   -6.9476   19.6642  -34.7124 H   0  0  0  0  0  0  0  0  0  0  0  0
   -5.2562   19.9176  -34.1072 H   0  0  0  0  0  0  0  0  0  0  0  0
   -5.5368   17.2169  -33.7533 H   0  0  0  0  0  0  0  0  0  0  0  0
   -6.5491   17.4736  -35.2148 H   0  0  0  0  0  0  0  0  0  0  0  0
   -4.8264   17.9824  -35.2148 H   0  0  0  0  0  0  0  0  0  0  0  0
   -4.6781   18.4383  -32.3418 H   0  0  0  0  0  0  0  0  0  0  0  0
   -5.4237   19.2911  -30.9404 H   0  0  0  0  0  0  0  0  0  0  0  0
   -6.1013   17.3014  -30.1324 H   0  0  0  0  0  0  0  0  0  0  0  0
   -7.1389   17.0959  -31.5842 H   0  0  0  0  0  0  0  0  0  0  0  0
   -5.4585   16.4613  -31.5842 H   0  0  0  0  0  0  0  0  0  0  0  0
   -7.5869   24.5695  -30.1331 H   0  0  0  0  0  0  0  0  0  0  0  0
   -5.7787   25.0038  -28.4971 H   0  0  0  0  0  0  0  0  0  0  0  0
  1  2  1  0
  2  3  1  0
  3  4  1  0
  4  5  1  0
  5  6  2  0
  5  7  1  0
  7  8  1  0
  8  9  2  0
  9 10  1  0
 10 11  2  0
 11 12  1  0
 12 13  1  0
 13 14  1  0
 14 15  1  0
 15 16  1  0
 16 17  1  0
 17 18  1  0
 18 19  1  0
 19 20  1  0
 20 21  1  0
 19 22  1  0
 22 23  1  0
 12 24  2  0
 24 25  1  0
 25 26  2  0
 26 27  1  0
 26 28  1  0
 28 29  2  0
 28  4  1  0
 27  7  2  0
 27 11  1  0
  1 30  1  0
  1 31  1  0
  1 32  1  0
  2 33  1  0
  2 34  1  0
  3 35  1  0
  3 36  1  0
  8 37  1  0
  9 38  1  0
 10 39  1  0
 13 40  1  0
 14 41  1  0
 14 42  1  0
 15 43  1  0
 15 44  1  0
 17 45  1  0
 17 46  1  0
 18 47  1  0
 18 48  1  0
 20 49  1  0
 20 50  1  0
 21 51  1  0
 21 52  1  0
 21 53  1  0
 22 54  1  0
 22 55  1  0
 23 56  1  0
 23 57  1  0
 23 58  1  0
 24 59  1  0
 25 60  1  0
M  END
>  <UniqueID>  (12) 
12

>  <SMILES>  (12) 
CCCN1C(=O)c2cccc3c(NCCOCCN(CC)CC)ccc(c23)C1=O

>  <Energy>  (12) 
67.0158884706454

>  <Genealogy>  (12) 
CCCN1C(=O)c2cccc3c(NCCOCCN(CC)CC)ccc(c23)C1=O (3D coordinates assigned)
CCCN1C(=O)c2cccc3c(NCCOCCN(CC)CC)ccc(c23)C1=O (nonaromatic ring conformer: 67.0158884706454 kcal/mol)

>  <smiles>  (12) 
CCCN1C(=O)c2cccc3c(NCCOCCN(CC)CC)ccc(c23)C1=O

>  <score_type>  (12) 
oracle

>  <origin>  (12) 
adg

>  <m_score__min__energy>  (12) 
-9.5299999999999994

>  <m_primary>  (12) 
energy

$$$$
12:0
     RDKit          3D

 36 37  0  0  0  0  0  0  0  0999 V2000
   -7.1020   18.2470  -32.3150 C   0  0  0  0  0  0  0  0  0  0  0  0
   -8.5110   18.5000  -31.7840 C   0  0  0  0  0  0  0  0  0  0  0  0
   -9.1130   19.7930  -32.3450 C   0  0  0  0  0  0  0  0  0  0  0  0
   -9.0360   20.8310  -31.3800 O   0  0  0  0  0  0  0  0  0  0  0  0
   -8.7990   22.0900  -31.9780 C   0  0  0  0  0  0  0  0  0  0  0  0
   -7.4700   22.6390  -31.5580 C   0  0  0  0  0  0  0  0  0  0  0  0
   -6.2620   21.9410  -31.5810 C   0  0  0  0  0  0  0  0  0  0  0  0
   -5.2080   22.6910  -31.0510 C   0  0  0  0  0  0  0  0  0  0  0  0
   -3.8820   22.2740  -30.9310 C   0  0  0  0  0  0  0  0  0  0  0  0
   -2.9310   23.1550  -30.3610 C   0  0  0  0  0  0  0  0  0  0  0  0
   -1.5820   22.7940  -30.2150 O   0  0  0  0  0  0  0  0  0  0  0  0
   -0.9740   21.6730  -30.8500 C   0  0  0  0  0  0  0  0  0  0  0  0
   -3.3310   24.4380  -29.9200 C   0  0  0  0  0  0  0  0  0  0  0  0
   -2.3590   25.2810  -29.3610 O   0  0  0  0  0  0  0  0  0  0  0  0
   -1.6900   25.0340  -28.1300 C   0  0  0  0  0  0  0  0  0  0  0  0
   -4.6800   24.8380  -30.0490 C   0  0  0  0  0  0  0  0  0  0  0  0
   -5.5860   23.9480  -30.6150 C   0  0  0  0  0  0  0  0  0  0  0  0
   -7.2320   24.1640  -30.8690 S   0  0  0  0  0  0  0  0  0  0  0  0
   -6.4086   18.1225  -31.4702 H   0  0  0  0  0  0  0  0  0  0  0  0
   -7.0999   17.3341  -32.9287 H   0  0  0  0  0  0  0  0  0  0  0  0
   -6.7824   19.1021  -32.9287 H   0  0  0  0  0  0  0  0  0  0  0  0
   -9.1551   17.6553  -32.0697 H   0  0  0  0  0  0  0  0  0  0  0  0
   -8.4487   18.6010  -30.6904 H   0  0  0  0  0  0  0  0  0  0  0  0
   -8.5558   20.0921  -33.2450 H   0  0  0  0  0  0  0  0  0  0  0  0
  -10.1690   19.6163  -32.5972 H   0  0  0  0  0  0  0  0  0  0  0  0
   -8.8128   21.9774  -33.0721 H   0  0  0  0  0  0  0  0  0  0  0  0
   -9.5858   22.7870  -31.6538 H   0  0  0  0  0  0  0  0  0  0  0  0
   -6.1517   20.9185  -31.9712 H   0  0  0  0  0  0  0  0  0  0  0  0
   -3.5792   21.2739  -31.2747 H   0  0  0  0  0  0  0  0  0  0  0  0
   -0.5971   20.9781  -30.0851 H   0  0  0  0  0  0  0  0  0  0  0  0
   -1.7172   21.1594  -31.4776 H   0  0  0  0  0  0  0  0  0  0  0  0
   -0.1382   22.0159  -31.4776 H   0  0  0  0  0  0  0  0  0  0  0  0
   -2.3594   25.2812  -27.2929 H   0  0  0  0  0  0  0  0  0  0  0  0
   -1.4077   23.9724  -28.0727 H   0  0  0  0  0  0  0  0  0  0  0  0
   -0.7856   25.6575  -28.0727 H   0  0  0  0  0  0  0  0  0  0  0  0
   -5.0064   25.8319  -29.7090 H   0  0  0  0  0  0  0  0  0  0  0  0
  1  2  1  0
  2  3  1  0
  3  4  1  0
  4  5  1  0
  5  6  1  0
  6  7  2  0
  7  8  1  0
  8  9  2  0
  9 10  1  0
 10 11  1  0
 11 12  1  0
 10 13  2  0
 13 14  1  0
 14 15  1  0
 13 16  1  0
 16 17  2  0
 17 18  1  0
 18  6  1  0
 17  8  1  0
  1 19  1  0
  1 20  1  0
  1 21  1  0
  2 22  1  0
  2 23  1  0
  3 24  1  0
  3 25  1  0
  5 26  1  0
  5 27  1  0
  7 28  1  0
  9 29  1  0
 12 30  1  0
 12 31  1  0
 12 32  1  0
 15 33  1  0
 15 34  1  0
 15 35  1  0
 16 36  1  0
M  END
>  <UniqueID>  (13) 
13

>  <SMILES>  (13) 
CCCOCc1cc2cc(OC)c(OC)cc2s1

>  <Energy>  (13) 
62.59267004077569

>  <Genealogy>  (13) 
CCCOCc1cc2cc(OC)c(OC)cc2s1 (3D coordinates assigned)
CCCOCc1cc2cc(OC)c(OC)cc2s1 (optimized conformer: 62.59267004077569 kcal/mol)

>  <smiles>  (13) 
CCCOCc1cc2cc(OC)c(OC)cc2s1

>  <score_type>  (13) 
oracle

>  <origin>  (13) 
adg

>  <m_score__min__energy>  (13) 
-6.5199999999999996

>  <m_primary>  (13) 
energy

$$$$
13:0
     RDKit          3D

 49 51  0  0  0  0  0  0  0  0999 V2000
   -4.5670   21.5330  -33.0390 C   0  0  0  0  0  0  0  0  0  0  0  0
   -5.9690   21.6080  -32.6240 N   0  0  0  0  0  0  0  0  0  0  0  0
   -6.6310   22.7030  -32.1630 C   0  0  0  0  0  0  0  0  0  0  0  0
   -6.0400   24.0770  -32.0460 C   0  0  0  0  0  0  0  0  0  0  0  0
   -5.9190   24.4560  -30.6440 N   0  0  0  0  0  0  0  0  0  0  0  0
   -4.6630   24.6120  -29.9730 C   0  0  0  0  0  0  0  0  0  0  0  0
   -3.7430   25.2930  -30.5020 O   0  0  0  0  0  0  0  0  0  0  0  0
   -4.4110   23.9200  -28.6650 C   0  0  0  0  0  0  0  0  0  0  0  0
   -4.0560   22.4960  -28.8820 N   0  0  0  0  0  0  0  0  0  0  0  0
   -3.3230   22.2700  -30.1560 C   0  0  0  0  0  0  0  0  0  0  0  0
   -1.8750   21.7670  -29.9650 C   0  0  0  0  0  0  0  0  0  0  0  0
   -1.1740   22.4590  -28.8630 N   0  0  0  0  0  0  0  0  0  0  0  0
   -0.6660   23.7930  -29.2540 C   0  0  0  0  0  0  0  0  0  0  0  0
   -1.1400   24.8650  -28.2710 C   0  0  0  0  0  0  0  0  0  0  0  0
   -1.5570   26.0050  -28.9680 O   0  0  0  0  0  0  0  0  0  0  0  0
   -1.9310   22.4670  -27.5880 C   0  0  0  0  0  0  0  0  0  0  0  0
   -3.3610   21.9120  -27.7200 C   0  0  0  0  0  0  0  0  0  0  0  0
   -7.9140   22.3660  -31.7410 C   0  0  0  0  0  0  0  0  0  0  0  0
   -8.0120   21.0060  -31.9400 C   0  0  0  0  0  0  0  0  0  0  0  0
   -9.0560   20.1300  -31.6530 C   0  0  0  0  0  0  0  0  0  0  0  0
   -8.8600   18.7640  -31.9220 C   0  0  0  0  0  0  0  0  0  0  0  0
   -7.6360   18.3110  -32.4630 C   0  0  0  0  0  0  0  0  0  0  0  0
   -6.5960   19.2180  -32.7340 C   0  0  0  0  0  0  0  0  0  0  0  0
   -6.8200   20.5730  -32.4650 C   0  0  0  0  0  0  0  0  0  0  0  0
   -3.9223   21.4985  -32.1484 H   0  0  0  0  0  0  0  0  0  0  0  0
   -4.4106   20.6252  -33.6402 H   0  0  0  0  0  0  0  0  0  0  0  0
   -4.3147   22.4189  -33.6402 H   0  0  0  0  0  0  0  0  0  0  0  0
   -5.0434   24.0846  -32.5116 H   0  0  0  0  0  0  0  0  0  0  0  0
   -6.6987   24.7953  -32.5560 H   0  0  0  0  0  0  0  0  0  0  0  0
   -3.5825   24.4229  -28.1447 H   0  0  0  0  0  0  0  0  0  0  0  0
   -5.3280   23.9663  -28.0593 H   0  0  0  0  0  0  0  0  0  0  0  0
   -3.8745   21.5222  -30.7448 H   0  0  0  0  0  0  0  0  0  0  0  0
   -3.2581   23.2436  -30.6638 H   0  0  0  0  0  0  0  0  0  0  0  0
   -1.9025   20.6898  -29.7437 H   0  0  0  0  0  0  0  0  0  0  0  0
   -1.3242   21.9763  -30.8939 H   0  0  0  0  0  0  0  0  0  0  0  0
    0.4338   23.7719  -29.2617 H   0  0  0  0  0  0  0  0  0  0  0  0
   -1.0516   24.0374  -30.2548 H   0  0  0  0  0  0  0  0  0  0  0  0
   -1.9807   24.4715  -27.6808 H   0  0  0  0  0  0  0  0  0  0  0  0
   -0.3084   25.1348  -27.6034 H   0  0  0  0  0  0  0  0  0  0  0  0
   -1.9930   25.6770  -29.7940 H   0  0  0  0  0  0  0  0  0  0  0  0
   -1.3857   21.8539  -26.8553 H   0  0  0  0  0  0  0  0  0  0  0  0
   -2.0190   23.5164  -27.2702 H   0  0  0  0  0  0  0  0  0  0  0  0
   -3.3118   20.8200  -27.8432 H   0  0  0  0  0  0  0  0  0  0  0  0
   -3.9216   22.1756  -26.8110 H   0  0  0  0  0  0  0  0  0  0  0  0
   -8.6834   23.0398  -31.3361 H   0  0  0  0  0  0  0  0  0  0  0  0
  -10.0033   20.4951  -31.2295 H   0  0  0  0  0  0  0  0  0  0  0  0
   -9.6641   18.0440  -31.7101 H   0  0  0  0  0  0  0  0  0  0  0  0
   -7.4954   17.2406  -32.6739 H   0  0  0  0  0  0  0  0  0  0  0  0
   -5.6357   18.8729  -33.1449 H   0  0  0  0  0  0  0  0  0  0  0  0
  1  2  1  0
  2  3  1  0
  3  4  1  0
  4  5  1  0
  5  6  1  0
  6  7  2  0
  6  8  1  0
  8  9  1  0
  9 10  1  0
 10 11  1  0
 11 12  1  0
 12 13  1  0
 13 14  1  0
 14 15  1  0
 12 16  1  0
 16 17  1  0
  3 18  2  0
 18 19  1  0
 19 20  2  0
 20 21  1  0
 21 22  2  0
 22 23  1  0
 23 24  2  0
 24  2  1  0
 17  9  1  0
 24 19  1  0
  1 25  1  0
  1 26  1  0
  1 27  1  0
  4 28  1  0
  4 29  1  0
  8 30  1  0
  8 31  1  0
 10 32  1  0
 10 33  1  0
 11 34  1  0
 11 35  1  0
 13 36  1  0
 13 37  1  0
 14 38  1  0
 14 39  1  0
 15 40  1  0
 16 41  1  0
 16 42  1  0
 17 43  1  0
 17 44  1  0
 18 45  1  0
 20 46  1  0
 21 47  1  0
 22 48  1  0
 23 49  1  0
M  CHG  1   5  -1
M  END
>  <UniqueID>  (14) 
14

>  <SMILES>  (14) 
Cn1c(C[N-]C(=O)CN2CCN(CCO)CC2)cc2ccccc21

>  <Energy>  (14) 
94.7795922148694

>  <Genealogy>  (14) 
Cn1c(C[N-]C(=O)CN2CCN(CCO)CC2)cc2ccccc21 (protonated)
Cn1c(C[N-]C(=O)CN2CCN(CCO)CC2)cc2ccccc21 (3D coordinates assigned)
Cn1c(C[N-]C(=O)CN2CCN(CCO)CC2)cc2ccccc21 (nonaromatic ring conformer: 94.7795922148694 kcal/mol)

>  <smiles>  (14) 
Cn1c(CNC(=O)CN2CCN(CCO)CC2)cc2ccccc21

>  <score_type>  (14) 
oracle

>  <origin>  (14) 
adg

>  <m_score__min__energy>  (14) 
-9.7899999999999991

>  <m_primary>  (14) 
energy

$$$$
14:0
     RDKit          3D

 47 48  0  0  0  0  0  0  0  0999 V2000
    0.1350   25.7450  -27.4060 C   0  0  0  0  0  0  0  0  0  0  0  0
    0.6130   24.5990  -28.1970 N   0  0  0  0  0  0  0  0  0  0  0  0
    1.3890   23.6960  -27.3270 C   0  0  0  0  0  0  0  0  0  0  0  0
   -0.5330   23.8940  -28.8110 C   0  0  0  0  0  0  0  0  0  0  0  0
   -1.8630   24.4630  -28.2990 C   0  0  0  0  0  0  0  0  0  0  0  0
   -2.5030   25.2710  -29.3320 N   0  0  0  0  0  0  0  0  0  0  0  0
   -3.7330   24.9180  -29.9680 C   0  0  0  0  0  0  0  0  0  0  0  0
   -4.2390   25.6650  -30.8480 O   0  0  0  0  0  0  0  0  0  0  0  0
   -4.4570   23.6810  -29.5410 C   0  0  0  0  0  0  0  0  0  0  0  0
   -4.9060   22.9290  -30.7160 N   0  0  0  0  0  0  0  0  0  0  0  0
   -3.9960   22.0630  -31.4150 C   0  0  0  0  0  0  0  0  0  0  0  0
   -4.0660   21.9350  -32.8140 C   0  0  0  0  0  0  0  0  0  0  0  0
   -3.1820   21.0900  -33.4900 C   0  0  0  0  0  0  0  0  0  0  0  0
   -2.2210   20.3670  -32.7780 C   0  0  0  0  0  0  0  0  0  0  0  0
   -2.1440   20.4890  -31.3880 C   0  0  0  0  0  0  0  0  0  0  0  0
   -3.0280   21.3310  -30.7070 C   0  0  0  0  0  0  0  0  0  0  0  0
   -6.4810   23.2490  -31.3870 S   0  0  0  0  0  0  0  0  0  0  0  0
   -7.2310   24.1830  -30.4790 O   0  0  0  0  0  0  0  0  0  0  0  0
   -6.3400   23.8960  -32.7360 O   0  0  0  0  0  0  0  0  0  0  0  0
   -7.3690   21.7420  -31.5860 C   0  0  0  0  0  0  0  0  0  0  0  0
   -8.7600   21.7750  -31.7590 C   0  0  0  0  0  0  0  0  0  0  0  0
   -9.4750   20.5860  -31.9390 C   0  0  0  0  0  0  0  0  0  0  0  0
   -8.8030   19.3600  -31.9490 C   0  0  0  0  0  0  0  0  0  0  0  0
   -9.4970   18.2090  -32.1240 F   0  0  0  0  0  0  0  0  0  0  0  0
   -7.4160   19.3220  -31.7780 C   0  0  0  0  0  0  0  0  0  0  0  0
   -6.6990   20.5090  -31.5960 C   0  0  0  0  0  0  0  0  0  0  0  0
    0.2305   25.5161  -26.3343 H   0  0  0  0  0  0  0  0  0  0  0  0
    0.7376   26.6333  -27.6463 H   0  0  0  0  0  0  0  0  0  0  0  0
   -0.9202   25.9418  -27.6463 H   0  0  0  0  0  0  0  0  0  0  0  0
    1.1832   23.9355  -26.2733 H   0  0  0  0  0  0  0  0  0  0  0  0
    1.1002   22.6541  -27.5294 H   0  0  0  0  0  0  0  0  0  0  0  0
    2.4625   23.8248  -27.5294 H   0  0  0  0  0  0  0  0  0  0  0  0
   -0.4865   24.0140  -29.9034 H   0  0  0  0  0  0  0  0  0  0  0  0
   -0.4778   22.8296  -28.5391 H   0  0  0  0  0  0  0  0  0  0  0  0
   -2.5300   23.6329  -28.0233 H   0  0  0  0  0  0  0  0  0  0  0  0
   -1.6654   25.0970  -27.4221 H   0  0  0  0  0  0  0  0  0  0  0  0
   -3.7811   23.0520  -28.9430 H   0  0  0  0  0  0  0  0  0  0  0  0
   -5.3330   23.9661  -28.9398 H   0  0  0  0  0  0  0  0  0  0  0  0
   -4.8202   22.5028  -33.3786 H   0  0  0  0  0  0  0  0  0  0  0  0
   -3.2426   20.9937  -34.5841 H   0  0  0  0  0  0  0  0  0  0  0  0
   -1.5256   19.7023  -33.3114 H   0  0  0  0  0  0  0  0  0  0  0  0
   -1.3860   19.9212  -30.8285 H   0  0  0  0  0  0  0  0  0  0  0  0
   -2.9655   21.4208  -29.6125 H   0  0  0  0  0  0  0  0  0  0  0  0
   -9.2907   22.7385  -31.7532 H   0  0  0  0  0  0  0  0  0  0  0  0
  -10.5664   20.6157  -32.0727 H   0  0  0  0  0  0  0  0  0  0  0  0
   -6.8878   18.3571  -31.7866 H   0  0  0  0  0  0  0  0  0  0  0  0
   -5.6079   20.4760  -31.4604 H   0  0  0  0  0  0  0  0  0  0  0  0
  1  2  1  0
  2  3  1  0
  2  4  1  0
  4  5  1  0
  5  6  1  0
  6  7  1  0
  7  8  2  0
  7  9  1  0
  9 10  1  0
 10 11  1  0
 11 12  2  0
 12 13  1  0
 13 14  2  0
 14 15  1  0
 15 16  2  0
 10 17  1  0
 17 18  2  0
 17 19  2  0
 17 20  1  0
 20 21  2  0
 21 22  1  0
 22 23  2  0
 23 24  1  0
 23 25  1  0
 25 26  2  0
 16 11  1  0
 26 20  1  0
  1 27  1  0
  1 28  1  0
  1 29  1  0
  3 30  1  0
  3 31  1  0
  3 32  1  0
  4 33  1  0
  4 34  1  0
  5 35  1  0
  5 36  1  0
  9 37  1  0
  9 38  1  0
 12 39  1  0
 13 40  1  0
 14 41  1  0
 15 42  1  0
 16 43  1  0
 21 44  1  0
 22 45  1  0
 25 46  1  0
 26 47  1  0
M  CHG  1   6  -1
M  END
>  <UniqueID>  (15) 
15

>  <SMILES>  (15) 
CN(C)CC[N-]C(=O)CN(c1ccccc1)S(=O)(=O)c1ccc(F)cc1

>  <Energy>  (15) 
47.300240246748224

>  <Genealogy>  (15) 
CN(C)CC[N-]C(=O)CN(c1ccccc1)S(=O)(=O)c1ccc(F)cc1 (protonated)
CN(C)CC[N-]C(=O)CN(c1ccccc1)S(=O)(=O)c1ccc(F)cc1 (3D coordinates assigned)
CN(C)CC[N-]C(=O)CN(c1ccccc1)S(=O)(=O)c1ccc(F)cc1 (optimized conformer: 47.300240246748224 kcal/mol)

>  <smiles>  (15) 
CN(C)CCNC(=O)CN(c1ccccc1)S(=O)(=O)c1ccc(F)cc1

>  <score_type>  (15) 
oracle

>  <origin>  (15) 
adg

>  <m_score__min__energy>  (15) 
-10.390000000000001

>  <m_primary>  (15) 
energy

$$$$
15:0
     RDKit          3D

 49 51  0  0  0  0  0  0  0  0999 V2000
   -8.2720   20.2650  -32.3660 C   0  0  0  0  0  0  0  0  0  0  0  0
   -8.5320   18.9790  -31.5830 C   0  0  0  0  0  0  0  0  0  0  0  0
   -7.6300   17.8940  -32.0280 N   0  0  0  0  0  0  0  0  0  0  0  0
   -6.4430   17.7990  -31.1570 C   0  0  0  0  0  0  0  0  0  0  0  0
   -7.2210   18.0740  -33.4410 C   0  0  0  0  0  0  0  0  0  0  0  0
   -6.4130   16.8610  -33.9200 C   0  0  0  0  0  0  0  0  0  0  0  0
   -5.3070   17.2560  -34.7380 O   0  0  0  0  0  0  0  0  0  0  0  0
   -3.9990   17.5220  -34.2950 C   0  0  0  0  0  0  0  0  0  0  0  0
   -2.9550   16.6210  -34.6330 C   0  0  0  0  0  0  0  0  0  0  0  0
   -3.1400   15.4370  -35.3700 O   0  0  0  0  0  0  0  0  0  0  0  0
   -3.8680   14.2840  -34.9590 C   0  0  0  0  0  0  0  0  0  0  0  0
   -1.6450   16.9060  -34.2370 C   0  0  0  0  0  0  0  0  0  0  0  0
   -1.3460   18.0510  -33.5030 C   0  0  0  0  0  0  0  0  0  0  0  0
   -2.3670   18.9350  -33.1300 C   0  0  0  0  0  0  0  0  0  0  0  0
   -2.1050   20.0840  -32.3620 C   0  0  0  0  0  0  0  0  0  0  0  0
   -0.9290   20.3430  -31.9820 O   0  0  0  0  0  0  0  0  0  0  0  0
   -3.1670   20.9310  -31.9970 C   0  0  0  0  0  0  0  0  0  0  0  0
   -2.9540   22.1630  -31.1970 C   0  0  0  0  0  0  0  0  0  0  0  0
   -3.9280   23.1760  -31.1810 C   0  0  0  0  0  0  0  0  0  0  0  0
   -3.7240   24.3420  -30.4370 C   0  0  0  0  0  0  0  0  0  0  0  0
   -2.5450   24.5100  -29.7060 C   0  0  0  0  0  0  0  0  0  0  0  0
   -2.3430   25.6700  -28.9670 O   0  0  0  0  0  0  0  0  0  0  0  0
   -1.5670   23.5120  -29.7200 C   0  0  0  0  0  0  0  0  0  0  0  0
   -1.7670   22.3440  -30.4630 C   0  0  0  0  0  0  0  0  0  0  0  0
   -4.4610   20.5760  -32.4020 C   0  0  0  0  0  0  0  0  0  0  0  0
   -4.6720   19.4830  -33.1270 O   0  0  0  0  0  0  0  0  0  0  0  0
   -3.6990   18.6650  -33.5150 C   0  0  0  0  0  0  0  0  0  0  0  0
   -8.1043   21.0945  -31.6633 H   0  0  0  0  0  0  0  0  0  0  0  0
   -7.3819   20.1352  -32.9992 H   0  0  0  0  0  0  0  0  0  0  0  0
   -9.1426   20.4911  -32.9992 H   0  0  0  0  0  0  0  0  0  0  0  0
   -8.3642   19.1697  -30.5127 H   0  0  0  0  0  0  0  0  0  0  0  0
   -9.5711   18.6651  -31.7610 H   0  0  0  0  0  0  0  0  0  0  0  0
   -6.7583   17.8242  -30.1035 H   0  0  0  0  0  0  0  0  0  0  0  0
   -5.9145   16.8557  -31.3591 H   0  0  0  0  0  0  0  0  0  0  0  0
   -5.7712   18.6462  -31.3591 H   0  0  0  0  0  0  0  0  0  0  0  0
   -8.1186   18.1825  -34.0676 H   0  0  0  0  0  0  0  0  0  0  0  0
   -6.5949   18.9750  -33.5203 H   0  0  0  0  0  0  0  0  0  0  0  0
   -6.0324   16.3165  -33.0433 H   0  0  0  0  0  0  0  0  0  0  0  0
   -7.0755   16.2214  -34.5216 H   0  0  0  0  0  0  0  0  0  0  0  0
   -3.8956   14.2402  -33.8602 H   0  0  0  0  0  0  0  0  0  0  0  0
   -4.8948   14.3401  -35.3497 H   0  0  0  0  0  0  0  0  0  0  0  0
   -3.3759   13.3811  -35.3497 H   0  0  0  0  0  0  0  0  0  0  0  0
   -0.8355   16.2131  -34.5102 H   0  0  0  0  0  0  0  0  0  0  0  0
   -0.3055   18.2620  -33.2153 H   0  0  0  0  0  0  0  0  0  0  0  0
   -4.8565   23.0507  -31.7573 H   0  0  0  0  0  0  0  0  0  0  0  0
   -4.4930   25.1285  -30.4271 H   0  0  0  0  0  0  0  0  0  0  0  0
   -0.6383   23.6452  -29.1457 H   0  0  0  0  0  0  0  0  0  0  0  0
   -0.9925   21.5629  -30.4737 H   0  0  0  0  0  0  0  0  0  0  0  0
   -5.3127   21.2106  -32.1159 H   0  0  0  0  0  0  0  0  0  0  0  0
  1  2  1  0
  2  3  1  0
  3  4  1  0
  3  5  1  0
  5  6  1  0
  6  7  1  0
  7  8  1  0
  8  9  2  0
  9 10  1  0
 10 11  1  0
  9 12  1  0
 12 13  2  0
 13 14  1  0
 14 15  1  0
 15 16  2  0
 15 17  1  0
 17 18  1  0
 18 19  2  0
 19 20  1  0
 20 21  2  0
 21 22  1  0
 21 23  1  0
 23 24  2  0
 17 25  2  0
 25 26  1  0
 26 27  1  0
 27  8  1  0
 27 14  2  0
 24 18  1  0
  1 28  1  0
  1 29  1  0
  1 30  1  0
  2 31  1  0
  2 32  1  0
  4 33  1  0
  4 34  1  0
  4 35  1  0
  5 36  1  0
  5 37  1  0
  6 38  1  0
  6 39  1  0
 11 40  1  0
 11 41  1  0
 11 42  1  0
 12 43  1  0
 13 44  1  0
 19 45  1  0
 20 46  1  0
 23 47  1  0
 24 48  1  0
 25 49  1  0
M  CHG  1  22  -1
M  END
>  <UniqueID>  (16) 
16

>  <SMILES>  (16) 
CCN(C)CCOc1c(OC)ccc2c(=O)c(-c3ccc([O-])cc3)coc12

>  <Energy>  (16) 
66.79287518149721

>  <Genealogy>  (16) 
CCN(C)CCOc1c(OC)ccc2c(=O)c(-c3ccc([O-])cc3)coc12 (protonated)
CCN(C)CCOc1c(OC)ccc2c(=O)c(-c3ccc([O-])cc3)coc12 (3D coordinates assigned)
CCN(C)CCOc1c(OC)ccc2c(=O)c(-c3ccc([O-])cc3)coc12 (optimized conformer: 66.79287518149721 kcal/mol)

>  <smiles>  (16) 
CCN(C)CCOc1c(OC)ccc2c(=O)c(-c3ccc(O)cc3)coc12

>  <score_type>  (16) 
oracle

>  <origin>  (16) 
adg

>  <m_score__min__energy>  (16) 
-9.3100000000000005

>  <m_primary>  (16) 
energy

$$$$
16:0
     RDKit          3D

 23 23  0  0  0  0  0  0  0  0999 V2000
   -6.4160   22.3020  -32.5630 O   0  0  0  0  0  0  0  0  0  0  0  0
   -5.8120   21.7610  -31.5950 C   0  0  0  0  0  0  0  0  0  0  0  0
   -5.6080   20.2890  -31.5970 C   0  0  0  0  0  0  0  0  0  0  0  0
   -4.6140   19.8070  -30.9890 O   0  0  0  0  0  0  0  0  0  0  0  0
   -6.5500   19.3610  -32.3320 C   0  0  0  0  0  0  0  0  0  0  0  0
   -8.3840   19.9660  -32.1480 Br  0  0  0  0  0  0  0  0  0  0  0  0
   -6.4650   17.5460  -31.6380 Br  0  0  0  0  0  0  0  0  0  0  0  0
   -6.0850   19.2890  -34.2140 Br  0  0  0  0  0  0  0  0  0  0  0  0
   -5.2660   22.5890  -30.5360 N   0  0  0  0  0  0  0  0  0  0  0  0
   -3.8280   22.8350  -30.7940 C   0  0  0  0  0  0  0  0  0  0  0  0
   -3.3560   24.1170  -30.0870 C   0  0  0  0  0  0  0  0  0  0  0  0
   -4.0380   25.2920  -30.5110 O   0  0  0  0  0  0  0  0  0  0  0  0
   -5.3370   25.0460  -31.0310 C   0  0  0  0  0  0  0  0  0  0  0  0
   -6.0430   23.8460  -30.3710 C   0  0  0  0  0  0  0  0  0  0  0  0
   -5.3430   22.0710  -29.6290 H   0  0  0  0  0  0  0  0  0  0  0  0
   -3.2436   21.9813  -30.4201 H   0  0  0  0  0  0  0  0  0  0  0  0
   -3.6805   22.9559  -31.8773 H   0  0  0  0  0  0  0  0  0  0  0  0
   -3.5151   23.9951  -29.0054 H   0  0  0  0  0  0  0  0  0  0  0  0
   -2.2951   24.2523  -30.3443 H   0  0  0  0  0  0  0  0  0  0  0  0
   -5.9523   25.9437  -30.8712 H   0  0  0  0  0  0  0  0  0  0  0  0
   -5.2197   24.8070  -32.0983 H   0  0  0  0  0  0  0  0  0  0  0  0
   -6.1646   24.0510  -29.2971 H   0  0  0  0  0  0  0  0  0  0  0  0
   -7.0187   23.7116  -30.8609 H   0  0  0  0  0  0  0  0  0  0  0  0
  1  2  2  0
  2  3  1  0
  3  4  2  0
  3  5  1  0
  5  6  1  0
  5  7  1  0
  5  8  1  0
  2  9  1  0
  9 10  1  0
 10 11  1  0
 11 12  1  0
 12 13  1  0
 13 14  1  0
 14  9  1  0
  9 15  1  0
 10 16  1  0
 10 17  1  0
 11 18  1  0
 11 19  1  0
 13 20  1  0
 13 21  1  0
 14 22  1  0
 14 23  1  0
M  CHG  1   9   1
M  END
>  <UniqueID>  (17) 
17

>  <SMILES>  (17) 
O=C(C(=O)C(Br)(Br)Br)[NH+]1CCOCC1

>  <Energy>  (17) 
36.79157818415771

>  <Genealogy>  (17) 
O=C(C(=O)C(Br)(Br)Br)[NH+]1CCOCC1 (protonated)
O=C(C(=O)C(Br)(Br)Br)[NH+]1CCOCC1 (3D coordinates assigned)
O=C(C(=O)C(Br)(Br)Br)[NH+]1CCOCC1 (nonaromatic ring conformer: 36.79157818415771 kcal/mol)

>  <smiles>  (17) 
O=C(C(=O)C(Br)(Br)Br)N1CCOCC1

>  <score_type>  (17) 
oracle

>  <origin>  (17) 
adg

>  <m_score__min__energy>  (17) 
-5.6500000000000004

>  <m_primary>  (17) 
energy

$$$$
17:0
     RDKit          3D

 65 67  0  0  0  0  0  0  0  0999 V2000
   -8.6370   22.3780  -31.2560 C   0  0  0  0  0  0  0  0  0  0  0  0
   -7.6040   22.4710  -30.1300 C   0  0  0  0  0  0  0  0  0  0  0  0
   -6.4600   23.3200  -30.5420 N   0  0  0  0  0  0  0  0  0  0  0  0
   -6.3720   24.5510  -29.7240 C   0  0  0  0  0  0  0  0  0  0  0  0
   -5.6530   25.6570  -30.4960 C   0  0  0  0  0  0  0  0  0  0  0  0
   -6.4760   23.6140  -31.9980 C   0  0  0  0  0  0  0  0  0  0  0  0
   -5.3550   22.8340  -32.6970 C   0  0  0  0  0  0  0  0  0  0  0  0
   -4.6470   21.9430  -31.7520 N   0  0  0  0  0  0  0  0  0  0  0  0
   -4.4280   20.6230  -32.3280 C   0  0  0  0  0  0  0  0  0  0  0  0
   -5.5130   19.7060  -32.4060 C   0  0  0  0  0  0  0  0  0  0  0  0
   -6.7510   19.9520  -31.7530 C   0  0  0  0  0  0  0  0  0  0  0  0
   -7.7730   19.0080  -31.7650 C   0  0  0  0  0  0  0  0  0  0  0  0
   -7.5990   17.8020  -32.4280 C   0  0  0  0  0  0  0  0  0  0  0  0
   -6.4160   17.5520  -33.1200 C   0  0  0  0  0  0  0  0  0  0  0  0
   -5.3690   18.5130  -33.1600 C   0  0  0  0  0  0  0  0  0  0  0  0
   -4.2410   18.3100  -33.9240 N   0  0  0  0  0  0  0  0  0  0  0  0
   -4.2610   17.2790  -34.9880 C   0  0  0  0  0  0  0  0  0  0  0  0
   -3.1070   19.0710  -33.7030 C   0  0  0  0  0  0  0  0  0  0  0  0
   -1.8630   18.6940  -34.2720 C   0  0  0  0  0  0  0  0  0  0  0  0
   -0.7290   19.4720  -34.1080 C   0  0  0  0  0  0  0  0  0  0  0  0
   -0.7670   20.5980  -33.3030 C   0  0  0  0  0  0  0  0  0  0  0  0
   -1.9480   20.9600  -32.6310 C   0  0  0  0  0  0  0  0  0  0  0  0
   -1.9050   21.9710  -31.6610 O   0  0  0  0  0  0  0  0  0  0  0  0
   -1.4530   21.8700  -30.3110 C   0  0  0  0  0  0  0  0  0  0  0  0
   -2.6080   21.4800  -29.3740 C   0  0  0  0  0  0  0  0  0  0  0  0
   -3.6190   22.5610  -29.3400 N   0  0  0  0  0  0  0  0  0  0  0  0
   -4.2390   22.6510  -28.0060 C   0  0  0  0  0  0  0  0  0  0  0  0
   -3.0150   23.8610  -29.6880 C   0  0  0  0  0  0  0  0  0  0  0  0
   -3.1610   20.2360  -32.8750 C   0  0  0  0  0  0  0  0  0  0  0  0
   -9.6441   22.2873  -30.8231 H   0  0  0  0  0  0  0  0  0  0  0  0
   -8.5851   23.2845  -31.8770 H   0  0  0  0  0  0  0  0  0  0  0  0
   -8.4240   21.4954  -31.8770 H   0  0  0  0  0  0  0  0  0  0  0  0
   -8.0779   22.9098  -29.2396 H   0  0  0  0  0  0  0  0  0  0  0  0
   -7.2331   21.4604  -29.9038 H   0  0  0  0  0  0  0  0  0  0  0  0
   -7.3871   24.8891  -29.4685 H   0  0  0  0  0  0  0  0  0  0  0  0
   -5.8041   24.3296  -28.8083 H   0  0  0  0  0  0  0  0  0  0  0  0
   -5.1950   26.3615  -29.7861 H   0  0  0  0  0  0  0  0  0  0  0  0
   -4.8703   25.2132  -31.1287 H   0  0  0  0  0  0  0  0  0  0  0  0
   -6.3763   26.1923  -31.1287 H   0  0  0  0  0  0  0  0  0  0  0  0
   -7.4469   23.3157  -32.4203 H   0  0  0  0  0  0  0  0  0  0  0  0
   -6.3203   24.6918  -32.1530 H   0  0  0  0  0  0  0  0  0  0  0  0
   -5.7910   22.2263  -33.5036 H   0  0  0  0  0  0  0  0  0  0  0  0
   -4.6303   23.5564  -33.1007 H   0  0  0  0  0  0  0  0  0  0  0  0
   -5.1480   21.8870  -30.8390 H   0  0  0  0  0  0  0  0  0  0  0  0
   -3.7250   22.3550  -31.4820 H   0  0  0  0  0  0  0  0  0  0  0  0
   -6.9041   20.9066  -31.2283 H   0  0  0  0  0  0  0  0  0  0  0  0
   -8.7207   19.2184  -31.2478 H   0  0  0  0  0  0  0  0  0  0  0  0
   -8.3950   17.0431  -32.4074 H   0  0  0  0  0  0  0  0  0  0  0  0
   -6.2897   16.5936  -33.6450 H   0  0  0  0  0  0  0  0  0  0  0  0
   -4.2804   16.2793  -34.5295 H   0  0  0  0  0  0  0  0  0  0  0  0
   -5.1567   17.4136  -35.6122 H   0  0  0  0  0  0  0  0  0  0  0  0
   -3.3608   17.3787  -35.6122 H   0  0  0  0  0  0  0  0  0  0  0  0
   -1.7979   17.7640  -34.8558 H   0  0  0  0  0  0  0  0  0  0  0  0
    0.2048   19.1945  -34.6189 H   0  0  0  0  0  0  0  0  0  0  0  0
    0.1359   21.2157  -33.1880 H   0  0  0  0  0  0  0  0  0  0  0  0
   -0.6660   21.1038  -30.2510 H   0  0  0  0  0  0  0  0  0  0  0  0
   -1.0608   22.8487  -29.9973 H   0  0  0  0  0  0  0  0  0  0  0  0
   -3.0766   20.5542  -29.7391 H   0  0  0  0  0  0  0  0  0  0  0  0
   -2.2128   21.3229  -28.3595 H   0  0  0  0  0  0  0  0  0  0  0  0
   -3.4643   22.5385  -27.2333 H   0  0  0  0  0  0  0  0  0  0  0  0
   -4.7287   23.6296  -27.8945 H   0  0  0  0  0  0  0  0  0  0  0  0
   -4.9868   21.8520  -27.8945 H   0  0  0  0  0  0  0  0  0  0  0  0
   -2.7618   24.4060  -28.7667 H   0  0  0  0  0  0  0  0  0  0  0  0
   -2.1019   23.6948  -30.2784 H   0  0  0  0  0  0  0  0  0  0  0  0
   -3.7309   24.4516  -30.2784 H   0  0  0  0  0  0  0  0  0  0  0  0
  1  2  1  0
  2  3  1  0
  3  4  1  0
  4  5  1  0
  3  6  1  0
  6  7  1  0
  7  8  1  0
  8  9  1  0
  9 10  2  0
 10 11  1  0
 11 12  2  0
 12 13  1  0
 13 14  2  0
 14 15  1  0
 15 16  2  0
 16 17  1  0
 16 18  1  0
 18 19  2  0
 19 20  1  0
 20 21  2  0
 21 22  1  0
 22 23  1  0
 23 24  1  0
 24 25  1  0
 25 26  1  0
 26 27  1  0
 26 28  1  0
 22 29  2  0
 29  9  1  0
 15 10  1  0
 29 18  1  0
  1 30  1  0
  1 31  1  0
  1 32  1  0
  2 33  1  0
  2 34  1  0
  4 35  1  0
  4 36  1  0
  5 37  1  0
  5 38  1  0
  5 39  1  0
  6 40  1  0
  6 41  1  0
  7 42  1  0
  7 43  1  0
  8 44  1  0
  8 45  1  0
 11 46  1  0
 12 47  1  0
 13 48  1  0
 14 49  1  0
 17 50  1  0
 17 51  1  0
 17 52  1  0
 19 53  1  0
 20 54  1  0
 21 55  1  0
 24 56  1  0
 24 57  1  0
 25 58  1  0
 25 59  1  0
 27 60  1  0
 27 61  1  0
 27 62  1  0
 28 63  1  0
 28 64  1  0
 28 65  1  0
M  CHG  2   8   1  16   1
M  END
>  <UniqueID>  (18) 
18

>  <SMILES>  (18) 
CCN(CC)CC[NH2+]c1c2ccccc2[n+](C)c2cccc(OCCN(C)C)c12

>  <Energy>  (18) 
99.25000396726433

>  <Genealogy>  (18) 
CCN(CC)CC[NH2+]c1c2ccccc2[n+](C)c2cccc(OCCN(C)C)c12 (protonated)
CCN(CC)CC[NH2+]c1c2ccccc2[n+](C)c2cccc(OCCN(C)C)c12 (3D coordinates assigned)
CCN(CC)CC[NH2+]c1c2ccccc2[n+](C)c2cccc(OCCN(C)C)c12 (optimized conformer: 99.25000396726433 kcal/mol)

>  <smiles>  (18) 
CCN(CC)CCNc1c2ccccc2[n+](C)c2cccc(OCCN(C)C)c12

>  <score_type>  (18) 
oracle

>  <origin>  (18) 
adg

>  <m_score__min__energy>  (18) 
-8.6300000000000008

>  <m_primary>  (18) 
energy

$$$$
18:0
     RDKit          3D

 45 46  0  0  0  0  0  0  0  0999 V2000
   -0.9530   27.8810  -25.2090 C   0  0  0  0  0  0  0  0  0  0  0  0
   -1.3870   26.7300  -24.3980 N   0  0  0  0  0  0  0  0  0  0  0  0
   -0.5170   26.6090  -23.2170 C   0  0  0  0  0  0  0  0  0  0  0  0
   -1.3510   25.4770  -25.1880 C   0  0  0  0  0  0  0  0  0  0  0  0
   -2.0230   25.6540  -26.5580 C   0  0  0  0  0  0  0  0  0  0  0  0
   -0.9950   25.8230  -27.6840 C   0  0  0  0  0  0  0  0  0  0  0  0
   -1.5450   25.3560  -28.9590 N   0  0  0  0  0  0  0  0  0  0  0  0
   -2.0020   24.0100  -29.2140 C   0  0  0  0  0  0  0  0  0  0  0  0
   -1.3260   22.8920  -28.6830 C   0  0  0  0  0  0  0  0  0  0  0  0
   -1.7870   21.5980  -28.9310 C   0  0  0  0  0  0  0  0  0  0  0  0
   -2.9260   21.3980  -29.7070 C   0  0  0  0  0  0  0  0  0  0  0  0
   -3.6120   22.4910  -30.2390 C   0  0  0  0  0  0  0  0  0  0  0  0
   -3.1580   23.8040  -29.9990 C   0  0  0  0  0  0  0  0  0  0  0  0
   -3.8270   24.9210  -30.5260 O   0  0  0  0  0  0  0  0  0  0  0  0
   -5.1710   25.2820  -30.2250 C   0  0  0  0  0  0  0  0  0  0  0  0
   -6.0860   24.1770  -30.6640 C   0  0  0  0  0  0  0  0  0  0  0  0
   -6.2880   23.9270  -32.0320 C   0  0  0  0  0  0  0  0  0  0  0  0
   -7.1720   22.9240  -32.4400 C   0  0  0  0  0  0  0  0  0  0  0  0
   -7.8680   22.1730  -31.4880 C   0  0  0  0  0  0  0  0  0  0  0  0
   -7.6850   22.4280  -30.1260 C   0  0  0  0  0  0  0  0  0  0  0  0
   -6.8020   23.4310  -29.7140 C   0  0  0  0  0  0  0  0  0  0  0  0
   -0.6436   28.7016  -24.5450 H   0  0  0  0  0  0  0  0  0  0  0  0
   -0.1053   27.5835  -25.8437 H   0  0  0  0  0  0  0  0  0  0  0  0
   -1.7861   28.2172  -25.8437 H   0  0  0  0  0  0  0  0  0  0  0  0
   -1.1245   26.6935  -22.3039 H   0  0  0  0  0  0  0  0  0  0  0  0
   -0.0119   25.6320  -23.2322 H   0  0  0  0  0  0  0  0  0  0  0  0
    0.2356   27.4111  -23.2322 H   0  0  0  0  0  0  0  0  0  0  0  0
   -0.3026   25.1806  -25.3400 H   0  0  0  0  0  0  0  0  0  0  0  0
   -1.9008   24.7033  -24.6320 H   0  0  0  0  0  0  0  0  0  0  0  0
   -2.6385   24.7671  -26.7690 H   0  0  0  0  0  0  0  0  0  0  0  0
   -2.6384   26.5650  -26.5198 H   0  0  0  0  0  0  0  0  0  0  0  0
   -0.7282   26.8864  -27.7733 H   0  0  0  0  0  0  0  0  0  0  0  0
   -0.1033   25.2258  -27.4426 H   0  0  0  0  0  0  0  0  0  0  0  0
   -1.6120   26.0660  -29.7230 H   0  0  0  0  0  0  0  0  0  0  0  0
   -0.4267   23.0411  -28.0674 H   0  0  0  0  0  0  0  0  0  0  0  0
   -1.2494   20.7343  -28.5126 H   0  0  0  0  0  0  0  0  0  0  0  0
   -3.2857   20.3767  -29.9010 H   0  0  0  0  0  0  0  0  0  0  0  0
   -4.5124   22.3269  -30.8493 H   0  0  0  0  0  0  0  0  0  0  0  0
   -5.2764   25.4390  -29.1414 H   0  0  0  0  0  0  0  0  0  0  0  0
   -5.4322   26.2112  -30.7526 H   0  0  0  0  0  0  0  0  0  0  0  0
   -5.7490   24.5222  -32.7838 H   0  0  0  0  0  0  0  0  0  0  0  0
   -7.3203   22.7253  -33.5117 H   0  0  0  0  0  0  0  0  0  0  0  0
   -8.5599   21.3812  -31.8110 H   0  0  0  0  0  0  0  0  0  0  0  0
   -8.2359   21.8393  -29.3777 H   0  0  0  0  0  0  0  0  0  0  0  0
   -6.6678   23.6363  -28.6417 H   0  0  0  0  0  0  0  0  0  0  0  0
  1  2  1  0
  2  3  1  0
  2  4  1  0
  4  5  1  0
  5  6  1  0
  6  7  1  0
  7  8  1  0
  8  9  2  0
  9 10  1  0
 10 11  2  0
 11 12  1  0
 12 13  2  0
 13 14  1  0
 14 15  1  0
 15 16  1  0
 16 17  2  0
 17 18  1  0
 18 19  2  0
 19 20  1  0
 20 21  2  0
 13  8  1  0
 21 16  1  0
  1 22  1  0
  1 23  1  0
  1 24  1  0
  3 25  1  0
  3 26  1  0
  3 27  1  0
  4 28  1  0
  4 29  1  0
  5 30  1  0
  5 31  1  0
  6 32  1  0
  6 33  1  0
  7 34  1  0
  9 35  1  0
 10 36  1  0
 11 37  1  0
 12 38  1  0
 15 39  1  0
 15 40  1  0
 17 41  1  0
 18 42  1  0
 19 43  1  0
 20 44  1  0
 21 45  1  0
M  END
>  <UniqueID>  (19) 
19

>  <SMILES>  (19) 
CN(C)CCCNc1ccccc1OCc1ccccc1

>  <Energy>  (19) 
41.349734925348244

>  <Genealogy>  (19) 
CN(C)CCCNc1ccccc1OCc1ccccc1 (3D coordinates assigned)
CN(C)CCCNc1ccccc1OCc1ccccc1 (optimized conformer: 41.349734925348244 kcal/mol)

>  <smiles>  (19) 
CN(C)CCCNc1ccccc1OCc1ccccc1

>  <score_type>  (19) 
oracle

>  <origin>  (19) 
adg

>  <m_score__min__energy>  (19) 
-7.7400000000000002

>  <m_primary>  (19) 
energy

$$$$
19:0
     RDKit          3D

 50 53  0  0  0  0  0  0  0  0999 V2000
   -5.7090   18.9150  -34.2620 C   0  0  0  0  0  0  0  0  0  0  0  0
   -5.3400   19.9660  -33.3750 O   0  0  0  0  0  0  0  0  0  0  0  0
   -4.0200   20.2820  -33.0160 C   0  0  0  0  0  0  0  0  0  0  0  0
   -3.0090   19.3000  -32.9860 C   0  0  0  0  0  0  0  0  0  0  0  0
   -1.7080   19.6340  -32.6080 C   0  0  0  0  0  0  0  0  0  0  0  0
   -1.3980   20.9440  -32.2450 C   0  0  0  0  0  0  0  0  0  0  0  0
   -2.3870   21.9280  -32.2700 C   0  0  0  0  0  0  0  0  0  0  0  0
   -3.6970   21.6160  -32.6760 C   0  0  0  0  0  0  0  0  0  0  0  0
   -4.7330   22.7160  -32.7210 C   0  0  0  0  0  0  0  0  0  0  0  0
   -5.0920   23.1500  -31.3600 N   0  0  0  0  0  0  0  0  0  0  0  0
   -6.5000   23.3800  -30.9960 C   0  0  0  0  0  0  0  0  0  0  0  0
   -7.3700   22.1970  -31.3360 C   0  0  0  0  0  0  0  0  0  0  0  0
   -6.8590   20.8900  -31.2530 C   0  0  0  0  0  0  0  0  0  0  0  0
   -7.6620   19.7970  -31.5950 C   0  0  0  0  0  0  0  0  0  0  0  0
   -8.9740   19.9990  -32.0310 C   0  0  0  0  0  0  0  0  0  0  0  0
   -9.4900   21.2950  -32.1150 C   0  0  0  0  0  0  0  0  0  0  0  0
   -8.6950   22.3900  -31.7640 C   0  0  0  0  0  0  0  0  0  0  0  0
   -4.1410   22.9680  -30.2940 C   0  0  0  0  0  0  0  0  0  0  0  0
   -4.0080   21.7130  -29.6830 C   0  0  0  0  0  0  0  0  0  0  0  0
   -3.1000   21.5220  -28.6400 C   0  0  0  0  0  0  0  0  0  0  0  0
   -2.3110   22.5880  -28.1890 C   0  0  0  0  0  0  0  0  0  0  0  0
   -1.3970   22.4000  -27.1410 C   0  0  0  0  0  0  0  0  0  0  0  0
   -0.6130   23.4660  -26.6930 C   0  0  0  0  0  0  0  0  0  0  0  0
   -0.7360   24.7250  -27.2850 C   0  0  0  0  0  0  0  0  0  0  0  0
   -1.6430   24.9280  -28.3290 C   0  0  0  0  0  0  0  0  0  0  0  0
   -2.4400   23.8650  -28.7930 C   0  0  0  0  0  0  0  0  0  0  0  0
   -3.3590   24.0470  -29.8450 C   0  0  0  0  0  0  0  0  0  0  0  0
   -3.4910   25.2920  -30.4520 O   0  0  0  0  0  0  0  0  0  0  0  0
   -6.0180   18.0348  -33.6791 H   0  0  0  0  0  0  0  0  0  0  0  0
   -6.5444   19.2467  -34.8961 H   0  0  0  0  0  0  0  0  0  0  0  0
   -4.8496   18.6516  -34.8961 H   0  0  0  0  0  0  0  0  0  0  0  0
   -3.2476   18.2624  -33.2627 H   0  0  0  0  0  0  0  0  0  0  0  0
   -0.9248   18.8617  -32.5964 H   0  0  0  0  0  0  0  0  0  0  0  0
   -0.3734   21.2019  -31.9388 H   0  0  0  0  0  0  0  0  0  0  0  0
   -2.1399   22.9569  -31.9695 H   0  0  0  0  0  0  0  0  0  0  0  0
   -4.3256   23.5730  -33.2775 H   0  0  0  0  0  0  0  0  0  0  0  0
   -5.6354   22.3314  -33.2188 H   0  0  0  0  0  0  0  0  0  0  0  0
   -6.5613   23.5669  -29.9137 H   0  0  0  0  0  0  0  0  0  0  0  0
   -6.8629   24.2456  -31.5697 H   0  0  0  0  0  0  0  0  0  0  0  0
   -5.8241   20.7263  -30.9180 H   0  0  0  0  0  0  0  0  0  0  0  0
   -7.2596   18.7759  -31.5205 H   0  0  0  0  0  0  0  0  0  0  0  0
   -9.6005   19.1383  -32.3080 H   0  0  0  0  0  0  0  0  0  0  0  0
  -10.5231   21.4537  -32.4578 H   0  0  0  0  0  0  0  0  0  0  0  0
   -9.1083   23.4077  -31.8230 H   0  0  0  0  0  0  0  0  0  0  0  0
   -4.6252   20.8707  -30.0289 H   0  0  0  0  0  0  0  0  0  0  0  0
   -3.0038   20.5317  -28.1710 H   0  0  0  0  0  0  0  0  0  0  0  0
   -1.2975   21.4105  -26.6709 H   0  0  0  0  0  0  0  0  0  0  0  0
    0.1030   23.3134  -25.8720 H   0  0  0  0  0  0  0  0  0  0  0  0
   -0.1162   25.5607  -26.9280 H   0  0  0  0  0  0  0  0  0  0  0  0
   -1.7342   25.9227  -28.7898 H   0  0  0  0  0  0  0  0  0  0  0  0
  1  2  1  0
  2  3  1  0
  3  4  2  0
  4  5  1  0
  5  6  2  0
  6  7  1  0
  7  8  2  0
  8  9  1  0
  9 10  1  0
 10 11  1  0
 11 12  1  0
 12 13  2  0
 13 14  1  0
 14 15  2  0
 15 16  1  0
 16 17  2  0
 10 18  1  0
 18 19  2  0
 19 20  1  0
 20 21  2  0
 21 22  1  0
 22 23  2  0
 23 24  1  0
 24 25  2  0
 25 26  1  0
 26 27  2  0
 27 28  1  0
  8  3  1  0
 17 12  1  0
 27 18  1  0
 26 21  1  0
  1 29  1  0
  1 30  1  0
  1 31  1  0
  4 32  1  0
  5 33  1  0
  6 34  1  0
  7 35  1  0
  9 36  1  0
  9 37  1  0
 11 38  1  0
 11 39  1  0
 13 40  1  0
 14 41  1  0
 15 42  1  0
 16 43  1  0
 17 44  1  0
 19 45  1  0
 20 46  1  0
 22 47  1  0
 23 48  1  0
 24 49  1  0
 25 50  1  0
M  CHG  1  28  -1
M  END
>  <UniqueID>  (20) 
20

>  <SMILES>  (20) 
COc1ccccc1CN(Cc1ccccc1)c1ccc2ccccc2c1[O-]

>  <Energy>  (20) 
60.39661628885917

>  <Genealogy>  (20) 
COc1ccccc1CN(Cc1ccccc1)c1ccc2ccccc2c1[O-] (protonated)
COc1ccccc1CN(Cc1ccccc1)c1ccc2ccccc2c1[O-] (3D coordinates assigned)
COc1ccccc1CN(Cc1ccccc1)c1ccc2ccccc2c1[O-] (optimized conformer: 60.39661628885917 kcal/mol)

>  <smiles>  (20) 
COc1ccccc1CN(Cc1ccccc1)c1ccc2ccccc2c1O

>  <score_type>  (20) 
oracle

>  <origin>  (20) 
adg

>  <m_score__min__energy>  (20) 
-11.52

>  <m_primary>  (20) 
energy

$$$$
20:0
     RDKit          3D

 54 55  0  0  0  0  0  0  0  0999 V2000
   -4.6150   18.1170  -34.5810 C   0  0  0  0  0  0  0  0  0  0  0  0
   -6.1120   18.3970  -34.3700 C   0  0  0  0  0  0  0  0  0  0  0  0
   -6.8210   17.3850  -33.5490 N   0  0  0  0  0  0  0  0  0  0  0  0
   -6.5060   16.0050  -33.9510 C   0  0  0  0  0  0  0  0  0  0  0  0
   -6.6700   17.5800  -32.0890 C   0  0  0  0  0  0  0  0  0  0  0  0
   -7.4740   18.8020  -31.5990 C   0  0  0  0  0  0  0  0  0  0  0  0
   -6.6270   20.0110  -31.4140 N   0  0  0  0  0  0  0  0  0  0  0  0
   -5.2010   19.6010  -31.3610 C   0  0  0  0  0  0  0  0  0  0  0  0
   -6.7950   21.0840  -32.4510 C   0  0  2  0  0  0  0  0  0  0  0  0
   -5.3780   21.5510  -32.9330 C   0  0  0  0  0  0  0  0  0  0  0  0
   -5.0150   23.0080  -32.5950 C   0  0  0  0  0  0  0  0  0  0  0  0
   -5.5090   23.3790  -31.2600 N   0  0  0  0  0  0  0  0  0  0  0  0
   -4.6870   24.1920  -30.3940 C   0  0  0  0  0  0  0  0  0  0  0  0
   -4.2380   25.2930  -30.8180 O   0  0  0  0  0  0  0  0  0  0  0  0
   -4.3940   23.7890  -28.9710 C   0  0  0  0  0  0  0  0  0  0  0  0
   -3.4250   22.6360  -28.9240 C   0  0  0  0  0  0  0  0  0  0  0  0
   -3.4450   21.7440  -27.8390 C   0  0  0  0  0  0  0  0  0  0  0  0
   -2.5630   20.6580  -27.8040 C   0  0  0  0  0  0  0  0  0  0  0  0
   -1.6630   20.4530  -28.8540 C   0  0  0  0  0  0  0  0  0  0  0  0
   -1.6440   21.3320  -29.9410 C   0  0  0  0  0  0  0  0  0  0  0  0
   -2.5240   22.4180  -29.9800 C   0  0  0  0  0  0  0  0  0  0  0  0
   -6.9180   23.1230  -30.9190 C   0  0  0  0  0  0  0  0  0  0  0  0
   -7.6250   22.3330  -32.0290 C   0  0  2  0  0  0  0  0  0  0  0  0
   -8.9310   22.0290  -31.6910 F   0  0  0  0  0  0  0  0  0  0  0  0
   -4.1181   18.0241  -33.6040 H   0  0  0  0  0  0  0  0  0  0  0  0
   -4.4931   17.1805  -35.1450 H   0  0  0  0  0  0  0  0  0  0  0  0
   -4.1628   18.9461  -35.1450 H   0  0  0  0  0  0  0  0  0  0  0  0
   -6.2115   19.3730  -33.8724 H   0  0  0  0  0  0  0  0  0  0  0  0
   -6.5770   18.3706  -35.3665 H   0  0  0  0  0  0  0  0  0  0  0  0
   -6.3645   15.3849  -33.0535 H   0  0  0  0  0  0  0  0  0  0  0  0
   -7.3347   15.5994  -34.5500 H   0  0  0  0  0  0  0  0  0  0  0  0
   -5.5834   15.9991  -34.5500 H   0  0  0  0  0  0  0  0  0  0  0  0
   -7.0320   16.6811  -31.5684 H   0  0  0  0  0  0  0  0  0  0  0  0
   -5.6061   17.7551  -31.8710 H   0  0  0  0  0  0  0  0  0  0  0  0
   -8.2547   19.0295  -32.3398 H   0  0  0  0  0  0  0  0  0  0  0  0
   -7.9042   18.5452  -30.6197 H   0  0  0  0  0  0  0  0  0  0  0  0
   -4.8844   19.5100  -30.3115 H   0  0  0  0  0  0  0  0  0  0  0  0
   -5.0792   18.6315  -31.8661 H   0  0  0  0  0  0  0  0  0  0  0  0
   -4.5829   20.3578  -31.8661 H   0  0  0  0  0  0  0  0  0  0  0  0
   -7.3855   20.6132  -33.2508 H   0  0  0  0  0  0  0  0  0  0  0  0
   -4.6274   20.8967  -32.4656 H   0  0  0  0  0  0  0  0  0  0  0  0
   -5.3947   21.4888  -34.0311 H   0  0  0  0  0  0  0  0  0  0  0  0
   -3.9210   23.1205  -32.6177 H   0  0  0  0  0  0  0  0  0  0  0  0
   -5.4861   23.6677  -33.3385 H   0  0  0  0  0  0  0  0  0  0  0  0
   -3.9588   24.6465  -28.4368 H   0  0  0  0  0  0  0  0  0  0  0  0
   -5.3348   23.4752  -28.4952 H   0  0  0  0  0  0  0  0  0  0  0  0
   -4.1561   21.8996  -27.0143 H   0  0  0  0  0  0  0  0  0  0  0  0
   -2.5779   19.9652  -26.9497 H   0  0  0  0  0  0  0  0  0  0  0  0
   -0.9695   19.5997  -28.8249 H   0  0  0  0  0  0  0  0  0  0  0  0
   -0.9358   21.1691  -30.7668 H   0  0  0  0  0  0  0  0  0  0  0  0
   -2.5109   23.1037  -30.8400 H   0  0  0  0  0  0  0  0  0  0  0  0
   -6.9612   22.5448  -29.9842 H   0  0  0  0  0  0  0  0  0  0  0  0
   -7.4285   24.0903  -30.8018 H   0  0  0  0  0  0  0  0  0  0  0  0
   -7.6874   22.9791  -32.9171 H   0  0  0  0  0  0  0  0  0  0  0  0
  1  2  1  0
  2  3  1  0
  3  4  1  0
  3  5  1  0
  5  6  1  0
  6  7  1  0
  7  8  1  0
  7  9  1  0
  9 10  1  0
 10 11  1  0
 11 12  1  0
 12 13  1  0
 13 14  2  0
 13 15  1  0
 15 16  1  0
 16 17  2  0
 17 18  1  0
 18 19  2  0
 19 20  1  0
 20 21  2  0
 12 22  1  0
 22 23  1  0
 23 24  1  0
 23  9  1  0
 21 16  1  0
  1 25  1  0
  1 26  1  0
  1 27  1  0
  2 28  1  0
  2 29  1  0
  4 30  1  0
  4 31  1  0
  4 32  1  0
  5 33  1  0
  5 34  1  0
  6 35  1  0
  6 36  1  0
  8 37  1  0
  8 38  1  0
  8 39  1  0
  9 40  1  6
 10 41  1  0
 10 42  1  0
 11 43  1  0
 11 44  1  0
 15 45  1  0
 15 46  1  0
 17 47  1  0
 18 48  1  0
 19 49  1  0
 20 50  1  0
 21 51  1  0
 22 52  1  0
 22 53  1  0
 23 54  1  6
M  END
>  <UniqueID>  (21) 
21

>  <SMILES>  (21) 
CCN(C)CCN(C)[C@@H]1CCN(C(=O)Cc2ccccc2)C[C@@H]1F

>  <Energy>  (21) 
70.68716018220438

>  <Genealogy>  (21) 
CCN(C)CCN(C)[C@@H]1CCN(C(=O)Cc2ccccc2)C[C@@H]1F (chirality)
CCN(C)CCN(C)[C@@H]1CCN(C(=O)Cc2ccccc2)C[C@@H]1F (3D coordinates assigned)
CCN(C)CCN(C)[C@@H]1CCN(C(=O)Cc2ccccc2)C[C@@H]1F (nonaromatic ring conformer: 70.68716018220438 kcal/mol)

>  <smiles>  (21) 
CCN(C)CCN(C)C1CCN(C(=O)Cc2ccccc2)CC1F

>  <score_type>  (21) 
oracle

>  <origin>  (21) 
adg

>  <m_score__min__energy>  (21) 
-7.4699999999999998

>  <m_primary>  (21) 
energy

$$$$
21:0
     RDKit          3D

 57 59  0  0  0  0  0  0  0  0999 V2000
   -6.4943   18.0412  -34.8084 H   0  0  0  0  0  0  0  0  0  0  0  0
   -6.1830   18.3310  -33.7940 C   0  0  0  0  0  0  0  0  0  0  0  0
   -5.0520   17.7800  -33.3070 C   0  0  0  0  0  0  0  0  0  0  0  0
   -5.0950   16.5430  -32.5580 C   0  0  0  0  0  0  0  0  0  0  0  0
   -5.1260   15.5510  -31.9620 N   0  0  0  0  0  0  0  0  0  0  0  0
   -3.7460   18.4750  -33.4680 C   0  0  0  0  0  0  0  0  0  0  0  0
   -3.6640   19.4890  -34.2170 O   0  0  0  0  0  0  0  0  0  0  0  0
   -2.5670   18.0080  -32.7840 N   0  0  0  0  0  0  0  0  0  0  0  0
   -2.6170   17.1310  -32.2200 H   0  0  0  0  0  0  0  0  0  0  0  0
   -1.2910   18.7320  -32.8510 C   0  0  0  0  0  0  0  0  0  0  0  0
   -0.4840   18.1019  -32.4489 H   0  0  0  0  0  0  0  0  0  0  0  0
   -1.3400   20.0060  -31.9660 C   0  0  0  0  0  0  0  0  0  0  0  0
   -2.0269   19.8300  -31.1250 H   0  0  0  0  0  0  0  0  0  0  0  0
   -0.3217   20.2133  -31.6054 H   0  0  0  0  0  0  0  0  0  0  0  0
   -1.8250   21.2250  -32.7570 C   0  0  0  0  0  0  0  0  0  0  0  0
   -2.8302   21.0166  -33.1522 H   0  0  0  0  0  0  0  0  0  0  0  0
   -1.8400   22.0905  -32.0782 H   0  0  0  0  0  0  0  0  0  0  0  0
   -0.8830   21.5530  -33.9340 C   0  0  0  0  0  0  0  0  0  0  0  0
   -1.4837   21.9736  -34.7539 H   0  0  0  0  0  0  0  0  0  0  0  0
   -0.1325   22.2645  -33.5592 H   0  0  0  0  0  0  0  0  0  0  0  0
   -0.1180   20.3270  -34.4690 C   0  0  0  0  0  0  0  0  0  0  0  0
    0.1170   20.4876  -35.5315 H   0  0  0  0  0  0  0  0  0  0  0  0
    0.8027   20.2092  -33.8787 H   0  0  0  0  0  0  0  0  0  0  0  0
   -0.9470   19.0450  -34.3300 C   0  0  0  0  0  0  0  0  0  0  0  0
   -1.8835   19.1649  -34.8945 H   0  0  0  0  0  0  0  0  0  0  0  0
   -0.3488   18.2098  -34.7233 H   0  0  0  0  0  0  0  0  0  0  0  0
   -7.0370   19.2970  -33.0650 C   0  0  0  0  0  0  0  0  0  0  0  0
   -8.3740   19.1640  -32.7230 C   0  0  0  0  0  0  0  0  0  0  0  0
   -8.9840   18.2630  -32.8849 H   0  0  0  0  0  0  0  0  0  0  0  0
   -8.8110   20.3080  -32.1620 N   0  0  0  0  0  0  0  0  0  0  0  0
   -7.7980   21.1600  -32.1320 N   0  0  0  0  0  0  0  0  0  0  0  0
   -7.9250   22.5320  -31.6450 C   0  0  0  0  0  0  0  0  0  0  0  0
   -8.9565   22.8799  -31.8029 H   0  0  0  0  0  0  0  0  0  0  0  0
   -7.2239   23.1757  -32.1964 H   0  0  0  0  0  0  0  0  0  0  0  0
   -7.5930   22.5940  -30.1520 C   0  0  0  0  0  0  0  0  0  0  0  0
   -7.5037   21.5705  -29.7590 H   0  0  0  0  0  0  0  0  0  0  0  0
   -8.3988   23.1330  -29.6322 H   0  0  0  0  0  0  0  0  0  0  0  0
   -6.2970   23.3250  -29.9260 C   0  0  0  0  0  0  0  0  0  0  0  0
   -5.2380   22.6970  -29.2540 C   0  0  0  0  0  0  0  0  0  0  0  0
   -5.3636   21.6744  -28.8686 H   0  0  0  0  0  0  0  0  0  0  0  0
   -4.0240   23.3650  -29.0720 C   0  0  0  0  0  0  0  0  0  0  0  0
   -3.2021   22.8666  -28.5371 H   0  0  0  0  0  0  0  0  0  0  0  0
   -3.8450   24.6640  -29.5650 C   0  0  0  0  0  0  0  0  0  0  0  0
   -2.6100   25.2920  -29.3540 O   0  0  0  0  0  0  0  0  0  0  0  0
   -1.6780   24.9150  -28.3460 C   0  0  0  0  0  0  0  0  0  0  0  0
   -2.1187   25.0933  -27.3540 H   0  0  0  0  0  0  0  0  0  0  0  0
   -1.4344   23.8476  -28.4526 H   0  0  0  0  0  0  0  0  0  0  0  0
   -0.7608   25.5128  -28.4526 H   0  0  0  0  0  0  0  0  0  0  0  0
   -4.9040   25.2890  -30.2530 C   0  0  0  0  0  0  0  0  0  0  0  0
   -4.7752   26.3074  -30.6483 H   0  0  0  0  0  0  0  0  0  0  0  0
   -6.1170   24.6200  -30.4350 C   0  0  0  0  0  0  0  0  0  0  0  0
   -6.9359   25.1116  -30.9807 H   0  0  0  0  0  0  0  0  0  0  0  0
   -6.7080   20.5910  -32.6920 C   0  0  0  0  0  0  0  0  0  0  0  0
   -5.3750   21.2660  -32.8460 C   0  0  0  0  0  0  0  0  0  0  0  0
   -4.9548   21.4788  -31.8520 H   0  0  0  0  0  0  0  0  0  0  0  0
   -4.6913   20.6055  -33.3994 H   0  0  0  0  0  0  0  0  0  0  0  0
   -5.5028   22.2080  -33.3994 H   0  0  0  0  0  0  0  0  0  0  0  0
  1  2  1  0
  2  3  2  0
  3  4  1  0
  4  5  3  0
  3  6  1  0
  6  7  2  0
  6  8  1  0
  8  9  1  0
  8 10  1  0
 10 11  1  0
 10 12  1  0
 12 13  1  0
 12 14  1  0
 12 15  1  0
 15 16  1  0
 15 17  1  0
 15 18  1  0
 18 19  1  0
 18 20  1  0
 18 21  1  0
 21 22  1  0
 21 23  1  0
 21 24  1  0
 24 25  1  0
 24 26  1  0
  2 27  1  0
 27 28  1  0
 28 29  1  0
 28 30  2  0
 30 31  1  0
 31 32  1  0
 32 33  1  0
 32 34  1  0
 32 35  1  0
 35 36  1  0
 35 37  1  0
 35 38  1  0
 38 39  2  0
 39 40  1  0
 39 41  1  0
 41 42  1  0
 41 43  2  0
 43 44  1  0
 44 45  1  0
 45 46  1  0
 45 47  1  0
 45 48  1  0
 43 49  1  0
 49 50  1  0
 49 51  2  0
 51 52  1  0
 31 53  1  0
 53 54  1  0
 54 55  1  0
 54 56  1  0
 54 57  1  0
 24 10  1  0
 53 27  2  0
 51 38  1  0
M  END
>  <UniqueID>  (22) 
22

>  <SMILES>  (22) 
COc1ccc(CCn2ncc(/C=C(\C#N)C(=O)NC3CCCCC3)c2C)cc1

>  <Energy>  (22) 
88.172504712067

>  <Genealogy>  (22) 
COc1ccc(CCn2ncc(/C=C(\C#N)C(=O)NC3CCCCC3)c2C)cc1 (cis-trans isomerization)
COc1ccc(CCn2ncc(/C=C(\C#N)C(=O)NC3CCCCC3)c2C)cc1 (3D coordinates assigned)
COc1ccc(CCn2ncc(/C=C(\C#N)C(=O)NC3CCCCC3)c2C)cc1 (nonaromatic ring conformer: 88.172504712067 kcal/mol)

>  <smiles>  (22) 
COc1ccc(CCn2ncc(C=C(C#N)C(=O)NC3CCCCC3)c2C)cc1

>  <score_type>  (22) 
oracle

>  <origin>  (22) 
adg

>  <m_score__min__energy>  (22) 
-9.4499999999999993

>  <m_primary>  (22) 
energy

$$$$
22:0
     RDKit          3D

 33 34  0  0  0  0  0  0  0  0999 V2000
   -9.8978   19.4899  -31.8838 H   0  0  0  0  0  0  0  0  0  0  0  0
   -9.0780   20.2180  -31.9720 C   0  0  0  0  0  0  0  0  0  0  0  0
   -7.8890   19.8580  -32.6120 C   0  0  0  0  0  0  0  0  0  0  0  0
   -7.7748   18.8469  -33.0300 H   0  0  0  0  0  0  0  0  0  0  0  0
   -6.8440   20.7810  -32.7220 C   0  0  0  0  0  0  0  0  0  0  0  0
   -5.9122   20.4963  -33.2327 H   0  0  0  0  0  0  0  0  0  0  0  0
   -6.9810   22.0710  -32.1820 C   0  0  0  0  0  0  0  0  0  0  0  0
   -5.8780   23.0810  -32.3360 C   0  0  0  0  0  0  0  0  0  0  0  0
   -5.8994   23.7771  -31.4845 H   0  0  0  0  0  0  0  0  0  0  0  0
   -6.0241   23.6363  -33.2743 H   0  0  0  0  0  0  0  0  0  0  0  0
   -4.5840   22.4030  -32.3750 N   0  0  0  0  0  0  0  0  0  0  0  0
   -3.6890   22.2970  -31.3700 C   0  0  0  0  0  0  0  0  0  0  0  0
   -3.8510   22.8710  -30.2100 N   0  0  0  0  0  0  0  0  0  0  0  0
   -3.4400   24.1830  -29.8060 C   0  0  0  0  0  0  0  0  0  0  0  0
   -2.6350   24.2950  -28.8440 O   0  0  0  0  0  0  0  0  0  0  0  0
   -3.8820   25.3240  -30.4860 O   0  0  0  0  0  0  0  0  0  0  0  0
   -5.2560   25.6720  -30.6310 C   0  0  0  0  0  0  0  0  0  0  0  0
   -5.6709   25.1488  -31.5052 H   0  0  0  0  0  0  0  0  0  0  0  0
   -5.3332   26.7609  -30.7665 H   0  0  0  0  0  0  0  0  0  0  0  0
   -6.0450   25.2750  -29.3890 C   0  0  0  0  0  0  0  0  0  0  0  0
   -5.4798   25.5594  -28.4892 H   0  0  0  0  0  0  0  0  0  0  0  0
   -7.0160   25.7918  -29.3907 H   0  0  0  0  0  0  0  0  0  0  0  0
   -6.2086   24.1872  -29.3907 H   0  0  0  0  0  0  0  0  0  0  0  0
   -2.6220   21.5130  -31.7920 C   0  0  0  0  0  0  0  0  0  0  0  0
   -1.7199   21.2375  -31.2260 H   0  0  0  0  0  0  0  0  0  0  0  0
   -2.9550   21.1580  -33.0890 C   0  0  0  0  0  0  0  0  0  0  0  0
   -2.3441   20.5299  -33.7541 H   0  0  0  0  0  0  0  0  0  0  0  0
   -4.1440   21.7030  -33.4070 N   0  0  0  0  0  0  0  0  0  0  0  0
   -4.6480   21.5920  -34.3150 H   0  0  0  0  0  0  0  0  0  0  0  0
   -8.1830   22.4300  -31.5520 C   0  0  0  0  0  0  0  0  0  0  0  0
   -8.3055   23.4433  -31.1419 H   0  0  0  0  0  0  0  0  0  0  0  0
   -9.2250   21.5040  -31.4440 C   0  0  0  0  0  0  0  0  0  0  0  0
  -10.1621   21.7879  -30.9427 H   0  0  0  0  0  0  0  0  0  0  0  0
  1  2  1  0
  2  3  2  0
  3  4  1  0
  3  5  1  0
  5  6  1  0
  5  7  2  0
  7  8  1  0
  8  9  1  0
  8 10  1  0
  8 11  1  0
 11 12  1  0
 12 13  2  0
 13 14  1  0
 14 15  2  0
 14 16  1  0
 16 17  1  0
 17 18  1  0
 17 19  1  0
 17 20  1  0
 20 21  1  0
 20 22  1  0
 20 23  1  0
 12 24  1  0
 24 25  1  0
 24 26  2  0
 26 27  1  0
 26 28  1  0
 28 29  1  0
  7 30  1  0
 30 31  1  0
 30 32  2  0
 32 33  1  0
 32  2  1  0
 28 11  1  0
M  END
>  <UniqueID>  (23) 
23

>  <SMILES>  (23) 
CCOC(=O)/N=c1\cc[nH]n1Cc1ccccc1

>  <Energy>  (23) 
62.43239375005492

>  <Genealogy>  (23) 
CCOC(=O)/N=c1\cc[nH]n1Cc1ccccc1 (cis-trans isomerization)
CCOC(=O)/N=c1\cc[nH]n1Cc1ccccc1 (3D coordinates assigned)
CCOC(=O)/N=c1\cc[nH]n1Cc1ccccc1 (optimized conformer: 62.43239375005492 kcal/mol)

>  <smiles>  (23) 
CCOC(=O)N=c1cc[nH]n1Cc1ccccc1

>  <score_type>  (23) 
oracle

>  <origin>  (23) 
adg

>  <m_score__min__energy>  (23) 
-7.0800000000000001

>  <m_primary>  (23) 
energy

$$$$
23:0
     RDKit          3D

 50 52  0  0  0  0  0  0  0  0999 V2000
   -4.5726   14.9097  -35.2930 H   0  0  0  0  0  0  0  0  0  0  0  0
   -4.1670   15.6540  -34.5920 C   0  0  0  0  0  0  0  0  0  0  0  0
   -2.9270   15.5480  -34.2200 N   0  0  0  0  0  0  0  0  0  0  0  0
   -2.5470   15.6330  -32.8990 O   0  0  0  0  0  0  0  0  0  0  0  0
   -1.2250   15.9990  -32.5450 C   0  0  0  0  0  0  0  0  0  0  0  0
   -0.5281   15.6171  -33.3056 H   0  0  0  0  0  0  0  0  0  0  0  0
   -0.9884   15.5670  -31.5614 H   0  0  0  0  0  0  0  0  0  0  0  0
   -1.0920   17.5290  -32.4600 C   0  0  0  0  0  0  0  0  0  0  0  0
   -0.0449   17.8019  -32.6578 H   0  0  0  0  0  0  0  0  0  0  0  0
   -1.4105   17.8328  -31.4519 H   0  0  0  0  0  0  0  0  0  0  0  0
   -1.9640   18.2430  -33.4400 N   0  0  0  0  0  0  0  0  0  0  0  0
   -2.6260   17.5470  -33.8590 H   0  0  0  0  0  0  0  0  0  0  0  0
   -2.7850   19.2830  -32.7620 C   0  0  0  0  0  0  0  0  0  0  0  0
   -2.4092   19.4116  -31.7362 H   0  0  0  0  0  0  0  0  0  0  0  0
   -3.8294   18.9380  -32.7786 H   0  0  0  0  0  0  0  0  0  0  0  0
   -2.7420   20.6420  -33.4710 C   0  0  0  0  0  0  0  0  0  0  0  0
   -2.7166   21.4462  -32.7210 H   0  0  0  0  0  0  0  0  0  0  0  0
   -1.8416   20.6989  -34.1003 H   0  0  0  0  0  0  0  0  0  0  0  0
   -3.6370   20.7557  -34.1003 H   0  0  0  0  0  0  0  0  0  0  0  0
   -1.1690   18.7790  -34.5780 C   0  0  0  0  0  0  0  0  0  0  0  0
   -1.8593   19.2733  -35.2774 H   0  0  0  0  0  0  0  0  0  0  0  0
   -0.4289   19.4691  -34.1466 H   0  0  0  0  0  0  0  0  0  0  0  0
   -0.3770   17.7160  -35.3550 C   0  0  0  0  0  0  0  0  0  0  0  0
    0.1253   17.0418  -34.6457 H   0  0  0  0  0  0  0  0  0  0  0  0
   -1.0649   17.1360  -35.9878 H   0  0  0  0  0  0  0  0  0  0  0  0
    0.3756   18.2092  -35.9878 H   0  0  0  0  0  0  0  0  0  0  0  0
   -5.0560   16.7340  -34.1120 C   0  0  0  0  0  0  0  0  0  0  0  0
   -5.7270   16.6390  -32.8820 C   0  0  0  0  0  0  0  0  0  0  0  0
   -5.6188   15.7327  -32.2680 H   0  0  0  0  0  0  0  0  0  0  0  0
   -6.5320   17.6910  -32.4340 C   0  0  0  0  0  0  0  0  0  0  0  0
   -7.0325   17.6187  -31.4572 H   0  0  0  0  0  0  0  0  0  0  0  0
   -6.7050   18.8380  -33.2230 C   0  0  0  0  0  0  0  0  0  0  0  0
   -7.5170   19.9650  -32.7200 C   0  0  0  0  0  0  0  0  0  0  0  0
   -8.9040   19.8750  -32.5700 C   0  0  0  0  0  0  0  0  0  0  0  0
   -9.5163   18.9983  -32.8276 H   0  0  0  0  0  0  0  0  0  0  0  0
   -9.4920   21.3240  -31.9310 S   0  0  0  0  0  0  0  0  0  0  0  0
   -7.9980   22.0800  -31.8540 C   0  0  0  0  0  0  0  0  0  0  0  0
   -7.7150   23.3720  -31.4180 C   0  0  0  0  0  0  0  0  0  0  0  0
   -8.5135   24.0285  -31.0420 H   0  0  0  0  0  0  0  0  0  0  0  0
   -6.3850   23.8140  -31.4710 C   0  0  0  0  0  0  0  0  0  0  0  0
   -6.1302   24.8268  -31.1254 H   0  0  0  0  0  0  0  0  0  0  0  0
   -5.3760   22.9680  -31.9640 C   0  0  0  0  0  0  0  0  0  0  0  0
   -4.3371   23.3268  -32.0095 H   0  0  0  0  0  0  0  0  0  0  0  0
   -5.6840   21.6680  -32.3990 C   0  0  0  0  0  0  0  0  0  0  0  0
   -4.8955   21.0097  -32.7925 H   0  0  0  0  0  0  0  0  0  0  0  0
   -7.0120   21.2220  -32.3240 C   0  0  0  0  0  0  0  0  0  0  0  0
   -6.0580   18.9190  -34.4660 C   0  0  0  0  0  0  0  0  0  0  0  0
   -6.1865   19.8143  -35.0921 H   0  0  0  0  0  0  0  0  0  0  0  0
   -5.2510   17.8680  -34.9130 C   0  0  0  0  0  0  0  0  0  0  0  0
   -4.7665   17.9314  -35.8985 H   0  0  0  0  0  0  0  0  0  0  0  0
  1  2  1  0
  2  3  2  0
  3  4  1  0
  4  5  1  0
  5  6  1  0
  5  7  1  0
  5  8  1  0
  8  9  1  0
  8 10  1  0
  8 11  1  0
 11 12  1  0
 11 13  1  0
 13 14  1  0
 13 15  1  0
 13 16  1  0
 16 17  1  0
 16 18  1  0
 16 19  1  0
 11 20  1  0
 20 21  1  0
 20 22  1  0
 20 23  1  0
 23 24  1  0
 23 25  1  0
 23 26  1  0
  2 27  1  0
 27 28  2  0
 28 29  1  0
 28 30  1  0
 30 31  1  0
 30 32  2  0
 32 33  1  0
 33 34  2  0
 34 35  1  0
 34 36  1  0
 36 37  1  0
 37 38  2  0
 38 39  1  0
 38 40  1  0
 40 41  1  0
 40 42  2  0
 42 43  1  0
 42 44  1  0
 44 45  1  0
 44 46  2  0
 32 47  1  0
 47 48  1  0
 47 49  2  0
 49 50  1  0
 49 27  1  0
 46 33  1  0
 46 37  1  0
M  CHG  1  11   1
M  END
>  <UniqueID>  (24) 
24

>  <SMILES>  (24) 
CC[NH+](CC)CCO/N=C\c1ccc(-c2csc3ccccc23)cc1

>  <Energy>  (24) 
90.52308267220444

>  <Genealogy>  (24) 
CC[NH+](CC)CCON=Cc1ccc(-c2csc3ccccc23)cc1 (protonated)
CC[NH+](CC)CCO/N=C\c1ccc(-c2csc3ccccc23)cc1 (cis-trans isomerization)
CC[NH+](CC)CCO/N=C\c1ccc(-c2csc3ccccc23)cc1 (3D coordinates assigned)
CC[NH+](CC)CCO/N=C\c1ccc(-c2csc3ccccc23)cc1 (optimized conformer: 90.52308267220444 kcal/mol)

>  <smiles>  (24) 
CCN(CC)CCON=Cc1ccc(-c2csc3ccccc23)cc1

>  <score_type>  (24) 
oracle

>  <origin>  (24) 
adg

>  <m_score__min__energy>  (24) 
-7.8499999999999996

>  <m_primary>  (24) 
energy

$$$$
24:0
     RDKit          3D

 61 63  0  0  0  0  0  0  0  0999 V2000
   -6.4920   17.7640  -31.5790 C   0  0  0  0  0  0  0  0  0  0  0  0
   -7.0460   18.3270  -32.8930 C   0  0  0  0  0  0  0  0  0  0  0  0
   -8.2380   19.1890  -32.6720 N   0  0  1  0  0  0  0  0  0  0  0  0
   -9.1160   18.5950  -31.6460 C   0  0  0  0  0  0  0  0  0  0  0  0
   -7.8450   20.5610  -32.2540 C   0  0  0  0  0  0  0  0  0  0  0  0
   -9.0400   21.5450  -32.1850 C   0  0  0  0  0  0  0  0  0  0  0  0
   -8.6300   22.9970  -31.8770 C   0  0  0  0  0  0  0  0  0  0  0  0
   -7.3140   23.3250  -32.4290 N   0  0  0  0  0  0  0  0  0  0  0  0
   -6.1360   23.5590  -31.6320 C   0  0  0  0  0  0  0  0  0  0  0  0
   -6.1500   24.4240  -30.5380 C   0  0  0  0  0  0  0  0  0  0  0  0
   -5.0220   24.5720  -29.7380 C   0  0  0  0  0  0  0  0  0  0  0  0
   -3.8290   23.8570  -30.0070 C   0  0  0  0  0  0  0  0  0  0  0  0
   -2.6850   23.9500  -29.1680 C   0  0  0  0  0  0  0  0  0  0  0  0
   -2.6270   24.7950  -28.0280 C   0  0  0  0  0  0  0  0  0  0  0  0
   -1.4930   24.8310  -27.2160 C   0  0  0  0  0  0  0  0  0  0  0  0
   -0.3930   24.0370  -27.5120 C   0  0  0  0  0  0  0  0  0  0  0  0
   -0.4170   23.2050  -28.6270 C   0  0  0  0  0  0  0  0  0  0  0  0
   -1.5510   23.1550  -29.4650 C   0  0  0  0  0  0  0  0  0  0  0  0
   -1.5580   22.3230  -30.5970 C   0  0  0  0  0  0  0  0  0  0  0  0
   -0.5470   21.6000  -30.8300 O   0  0  0  0  0  0  0  0  0  0  0  0
   -2.6390   22.2850  -31.4440 N   0  0  0  0  0  0  0  0  0  0  0  0
   -2.5440   21.4260  -32.6510 C   0  0  0  0  0  0  0  0  0  0  0  0
   -2.5130   19.9420  -32.2600 C   0  0  0  0  0  0  0  0  0  0  0  0
   -3.7380   19.2610  -32.7350 N   0  0  0  0  0  0  0  0  0  0  0  0
   -4.6060   20.1920  -33.4750 C   0  0  0  0  0  0  0  0  0  0  0  0
   -3.3910   18.1180  -33.5950 C   0  0  0  0  0  0  0  0  0  0  0  0
   -3.7870   22.9990  -31.1480 C   0  0  0  0  0  0  0  0  0  0  0  0
   -4.9570   22.8780  -31.9430 C   0  0  0  0  0  0  0  0  0  0  0  0
   -6.9829   18.2629  -30.7304 H   0  0  0  0  0  0  0  0  0  0  0  0
   -6.6880   16.6826  -31.5319 H   0  0  0  0  0  0  0  0  0  0  0  0
   -5.4076   17.9425  -31.5319 H   0  0  0  0  0  0  0  0  0  0  0  0
   -6.2620   18.9238  -33.3820 H   0  0  0  0  0  0  0  0  0  0  0  0
   -7.3524   17.4791  -33.5232 H   0  0  0  0  0  0  0  0  0  0  0  0
   -8.7980   19.2490  -33.5510 H   0  0  0  0  0  0  0  0  0  0  0  0
   -8.7368   18.8515  -30.6458 H   0  0  0  0  0  0  0  0  0  0  0  0
  -10.1362   18.9892  -31.7636 H   0  0  0  0  0  0  0  0  0  0  0  0
   -9.1296   17.5014  -31.7636 H   0  0  0  0  0  0  0  0  0  0  0  0
   -7.3817   20.5036  -31.2580 H   0  0  0  0  0  0  0  0  0  0  0  0
   -7.1481   20.9464  -33.0128 H   0  0  0  0  0  0  0  0  0  0  0  0
   -9.5592   21.5291  -33.1546 H   0  0  0  0  0  0  0  0  0  0  0  0
   -9.6840   21.2108  -31.3582 H   0  0  0  0  0  0  0  0  0  0  0  0
   -9.3771   23.6768  -32.3125 H   0  0  0  0  0  0  0  0  0  0  0  0
   -8.5775   23.1103  -30.7841 H   0  0  0  0  0  0  0  0  0  0  0  0
   -7.2150   23.2930  -33.4690 H   0  0  0  0  0  0  0  0  0  0  0  0
   -7.0615   24.9943  -30.3058 H   0  0  0  0  0  0  0  0  0  0  0  0
   -5.0569   25.2582  -28.8790 H   0  0  0  0  0  0  0  0  0  0  0  0
   -3.4898   25.4312  -27.7813 H   0  0  0  0  0  0  0  0  0  0  0  0
   -1.4702   25.4917  -26.3369 H   0  0  0  0  0  0  0  0  0  0  0  0
    0.4966   24.0657  -26.8656 H   0  0  0  0  0  0  0  0  0  0  0  0
    0.4578   22.5793  -28.8577 H   0  0  0  0  0  0  0  0  0  0  0  0
   -3.4158   21.6114  -33.2956 H   0  0  0  0  0  0  0  0  0  0  0  0
   -1.6146   21.6701  -33.1864 H   0  0  0  0  0  0  0  0  0  0  0  0
   -1.6326   19.4649  -32.7153 H   0  0  0  0  0  0  0  0  0  0  0  0
   -2.4603   19.8613  -31.1642 H   0  0  0  0  0  0  0  0  0  0  0  0
   -5.1776   20.8051  -32.7627 H   0  0  0  0  0  0  0  0  0  0  0  0
   -3.9875   20.8457  -34.1076 H   0  0  0  0  0  0  0  0  0  0  0  0
   -5.3014   19.6208  -34.1076 H   0  0  0  0  0  0  0  0  0  0  0  0
   -3.1285   17.2534  -32.9676 H   0  0  0  0  0  0  0  0  0  0  0  0
   -4.2520   17.8623  -34.2301 H   0  0  0  0  0  0  0  0  0  0  0  0
   -2.5332   18.3841  -34.2301 H   0  0  0  0  0  0  0  0  0  0  0  0
   -4.9342   22.2285  -32.8305 H   0  0  0  0  0  0  0  0  0  0  0  0
  1  2  1  0
  2  3  1  0
  3  4  1  0
  3  5  1  0
  5  6  1  0
  6  7  1  0
  7  8  1  0
  8  9  1  0
  9 10  2  0
 10 11  1  0
 11 12  2  0
 12 13  1  0
 13 14  2  0
 14 15  1  0
 15 16  2  0
 16 17  1  0
 17 18  2  0
 18 19  1  0
 19 20  2  0
 19 21  1  0
 21 22  1  0
 22 23  1  0
 23 24  1  0
 24 25  1  0
 24 26  1  0
 21 27  1  0
 27 28  2  0
 28  9  1  0
 27 12  1  0
 18 13  1  0
  1 29  1  0
  1 30  1  0
  1 31  1  0
  2 32  1  0
  2 33  1  0
  3 34  1  6
  4 35  1  0
  4 36  1  0
  4 37  1  0
  5 38  1  0
  5 39  1  0
  6 40  1  0
  6 41  1  0
  7 42  1  0
  7 43  1  0
  8 44  1  0
 10 45  1  0
 11 46  1  0
 14 47  1  0
 15 48  1  0
 16 49  1  0
 17 50  1  0
 22 51  1  0
 22 52  1  0
 23 53  1  0
 23 54  1  0
 25 55  1  0
 25 56  1  0
 25 57  1  0
 26 58  1  0
 26 59  1  0
 26 60  1  0
 28 61  1  0
M  CHG  1   3   1
M  END
>  <UniqueID>  (25) 
25

>  <SMILES>  (25) 
CC[N@@H+](C)CCCNc1ccc2c3ccccc3c(=O)n(CCN(C)C)c2c1

>  <Energy>  (25) 
78.96035009764458

>  <Genealogy>  (25) 
CC[NH+](C)CCCNc1ccc2c3ccccc3c(=O)n(CCN(C)C)c2c1 (protonated)
CC[N@@H+](C)CCCNc1ccc2c3ccccc3c(=O)n(CCN(C)C)c2c1 (chirality)
CC[N@@H+](C)CCCNc1ccc2c3ccccc3c(=O)n(CCN(C)C)c2c1 (3D coordinates assigned)
CC[N@@H+](C)CCCNc1ccc2c3ccccc3c(=O)n(CCN(C)C)c2c1 (optimized conformer: 78.96035009764458 kcal/mol)

>  <smiles>  (25) 
CCN(C)CCCNc1ccc2c3ccccc3c(=O)n(CCN(C)C)c2c1

>  <score_type>  (25) 
oracle

>  <origin>  (25) 
adg

>  <m_score__min__energy>  (25) 
-7.9299999999999997

>  <m_primary>  (25) 
energy

$$$$
25:0
     RDKit          3D

 36 37  0  0  0  0  0  0  0  0999 V2000
   -7.7594   23.8380  -32.3298 H   0  0  0  0  0  0  0  0  0  0  0  0
   -7.1870   23.0530  -31.8140 C   0  0  0  0  0  0  0  0  0  0  0  0
   -7.6180   21.7870  -31.9230 C   0  0  0  0  0  0  0  0  0  0  0  0
   -9.2310   21.2110  -31.4140 S   0  0  0  0  0  0  0  0  0  0  0  0
   -8.9670   19.8620  -32.5650 C   0  0  0  0  0  0  0  0  0  0  0  0
   -9.9130   19.3080  -33.1050 O   0  0  0  0  0  0  0  0  0  0  0  0
   -7.6080   19.5430  -32.9260 N   0  0  2  0  0  0  0  0  0  0  0  0
   -7.5410   19.3270  -33.9490 H   0  0  0  0  0  0  0  0  0  0  0  0
   -7.0750   18.4400  -32.1000 C   0  0  0  0  0  0  0  0  0  0  0  0
   -7.8952   17.7488  -31.8561 H   0  0  0  0  0  0  0  0  0  0  0  0
   -6.6406   18.8741  -31.1874 H   0  0  0  0  0  0  0  0  0  0  0  0
   -5.9620   17.6570  -32.8390 C   0  0  0  0  0  0  0  0  0  0  0  0
   -6.3880   16.7078  -33.1960 H   0  0  0  0  0  0  0  0  0  0  0  0
   -5.1449   17.5150  -32.1164 H   0  0  0  0  0  0  0  0  0  0  0  0
   -5.3810   18.3700  -34.0000 N   0  0  0  0  0  0  0  0  0  0  0  0
   -5.6840   17.7200  -35.2850 C   0  0  0  0  0  0  0  0  0  0  0  0
   -6.1421   16.7372  -35.0998 H   0  0  0  0  0  0  0  0  0  0  0  0
   -6.3822   18.3479  -35.8579 H   0  0  0  0  0  0  0  0  0  0  0  0
   -4.7541   17.5890  -35.8579 H   0  0  0  0  0  0  0  0  0  0  0  0
   -3.9400   18.6280  -33.8590 C   0  0  0  0  0  0  0  0  0  0  0  0
   -3.6786   18.6748  -32.7915 H   0  0  0  0  0  0  0  0  0  0  0  0
   -3.3735   17.8170  -34.3400 H   0  0  0  0  0  0  0  0  0  0  0  0
   -3.6901   19.5852  -34.3400 H   0  0  0  0  0  0  0  0  0  0  0  0
   -6.8880   20.7540  -32.6600 C   0  0  0  0  0  0  0  0  0  0  0  0
   -5.7050   20.9190  -33.0670 O   0  0  0  0  0  0  0  0  0  0  0  0
   -5.9920   23.4600  -31.0450 C   0  0  0  0  0  0  0  0  0  0  0  0
   -4.7260   23.0240  -31.4690 C   0  0  0  0  0  0  0  0  0  0  0  0
   -4.6351   22.4098  -32.3770 H   0  0  0  0  0  0  0  0  0  0  0  0
   -3.5810   23.3660  -30.7440 C   0  0  0  0  0  0  0  0  0  0  0  0
   -2.5915   23.0333  -31.0906 H   0  0  0  0  0  0  0  0  0  0  0  0
   -3.6920   24.1310  -29.5780 C   0  0  0  0  0  0  0  0  0  0  0  0
   -2.1270   24.5950  -28.5850 Br  0  0  0  0  0  0  0  0  0  0  0  0
   -4.9510   24.5430  -29.1320 C   0  0  0  0  0  0  0  0  0  0  0  0
   -5.0397   25.1358  -28.2097 H   0  0  0  0  0  0  0  0  0  0  0  0
   -6.0980   24.2030  -29.8560 C   0  0  0  0  0  0  0  0  0  0  0  0
   -7.0876   24.5182  -29.4937 H   0  0  0  0  0  0  0  0  0  0  0  0
  1  2  1  0
  2  3  2  0
  3  4  1  0
  4  5  1  0
  5  6  2  0
  5  7  1  0
  7  8  1  6
  7  9  1  0
  9 10  1  0
  9 11  1  0
  9 12  1  0
 12 13  1  0
 12 14  1  0
 12 15  1  0
 15 16  1  0
 16 17  1  0
 16 18  1  0
 16 19  1  0
 15 20  1  0
 20 21  1  0
 20 22  1  0
 20 23  1  0
  7 24  1  0
 24 25  2  0
  2 26  1  0
 26 27  2  0
 27 28  1  0
 27 29  1  0
 29 30  1  0
 29 31  2  0
 31 32  1  0
 31 33  1  0
 33 34  1  0
 33 35  2  0
 35 36  1  0
 24  3  1  0
 35 26  1  0
M  CHG  1   7   1
M  END
>  <UniqueID>  (26) 
26

>  <SMILES>  (26) 
CN(C)CC[N@H+]1C(=O)S/C(=C\c2ccc(Br)cc2)C1=O

>  <Energy>  (26) 
60.24219534392879

>  <Genealogy>  (26) 
CN(C)CC[NH+]1C(=O)SC(=Cc2ccc(Br)cc2)C1=O (protonated)
CN(C)CC[N@H+]1C(=O)SC(=Cc2ccc(Br)cc2)C1=O (chirality)
CN(C)CC[N@H+]1C(=O)S/C(=C\c2ccc(Br)cc2)C1=O (cis-trans isomerization)
CN(C)CC[N@H+]1C(=O)S/C(=C\c2ccc(Br)cc2)C1=O (3D coordinates assigned)
CN(C)CC[N@H+]1C(=O)S/C(=C\c2ccc(Br)cc2)C1=O (nonaromatic ring conformer: 60.24219534392879 kcal/mol)

>  <smiles>  (26) 
CN(C)CCN1C(=O)SC(=Cc2ccc(Br)cc2)C1=O

>  <score_type>  (26) 
oracle

>  <origin>  (26) 
adg

>  <m_score__min__energy>  (26) 
-7.6500000000000004

>  <m_primary>  (26) 
energy

$$$$
26:0
     RDKit          3D

 41 42  0  0  0  0  0  0  0  0999 V2000
   -2.6180   21.5530  -32.5550 C   0  0  0  0  0  0  0  0  0  0  0  0
   -2.9270   21.9340  -31.1640 N   0  0  0  0  0  0  0  0  0  0  0  0
   -3.5430   20.8160  -30.4300 C   0  0  0  0  0  0  0  0  0  0  0  0
   -1.7750   22.5550  -30.4550 C   0  0  0  0  0  0  0  0  0  0  0  0
   -2.0710   23.8170  -29.6050 C   0  0  0  0  0  0  0  0  0  0  0  0
   -3.5530   24.2040  -29.5440 C   0  0  0  0  0  0  0  0  0  0  0  0
   -3.9650   24.8060  -30.8200 N   0  0  0  0  0  0  0  0  0  0  0  0
   -5.4080   25.0900  -30.8490 C   0  0  0  0  0  0  0  0  0  0  0  0
   -6.2110   23.8780  -31.2240 C   0  0  0  0  0  0  0  0  0  0  0  0
   -7.5840   23.7970  -31.2710 C   0  0  0  0  0  0  0  0  0  0  0  0
   -7.8900   22.6030  -31.7160 O   0  0  0  0  0  0  0  0  0  0  0  0
   -6.7590   21.9700  -31.9470 C   0  0  0  0  0  0  0  0  0  0  0  0
   -6.6840   20.5920  -32.4710 C   0  0  0  0  0  0  0  0  0  0  0  0
   -5.7380   20.2500  -33.4540 C   0  0  0  0  0  0  0  0  0  0  0  0
   -5.6760   18.9430  -33.9490 C   0  0  0  0  0  0  0  0  0  0  0  0
   -6.5550   17.9680  -33.4690 C   0  0  0  0  0  0  0  0  0  0  0  0
   -6.4680   16.1840  -34.1470 Br  0  0  0  0  0  0  0  0  0  0  0  0
   -7.4990   18.3000  -32.4930 C   0  0  0  0  0  0  0  0  0  0  0  0
   -7.5650   19.6060  -31.9950 C   0  0  0  0  0  0  0  0  0  0  0  0
   -5.6740   22.7230  -31.6610 N   0  0  0  0  0  0  0  0  0  0  0  0
   -1.9251   20.6987  -32.5559 H   0  0  0  0  0  0  0  0  0  0  0  0
   -3.5468   21.2724  -33.0733 H   0  0  0  0  0  0  0  0  0  0  0  0
   -2.1517   22.4038  -33.0733 H   0  0  0  0  0  0  0  0  0  0  0  0
   -3.6590   22.6810  -31.2310 H   0  0  0  0  0  0  0  0  0  0  0  0
   -3.4469   20.9904  -29.3482 H   0  0  0  0  0  0  0  0  0  0  0  0
   -4.6078   20.7446  -30.6967 H   0  0  0  0  0  0  0  0  0  0  0  0
   -3.0345   19.8778  -30.6967 H   0  0  0  0  0  0  0  0  0  0  0  0
   -1.3493   21.7947  -29.7836 H   0  0  0  0  0  0  0  0  0  0  0  0
   -1.0997   22.8988  -31.2524 H   0  0  0  0  0  0  0  0  0  0  0  0
   -1.7212   23.6309  -28.5789 H   0  0  0  0  0  0  0  0  0  0  0  0
   -1.5471   24.6535  -30.0906 H   0  0  0  0  0  0  0  0  0  0  0  0
   -4.1573   23.3050  -29.3527 H   0  0  0  0  0  0  0  0  0  0  0  0
   -3.7043   24.9326  -28.7339 H   0  0  0  0  0  0  0  0  0  0  0  0
   -3.7320   24.1450  -31.5990 H   0  0  0  0  0  0  0  0  0  0  0  0
   -5.7233   25.4306  -29.8517 H   0  0  0  0  0  0  0  0  0  0  0  0
   -5.5871   25.8653  -31.6085 H   0  0  0  0  0  0  0  0  0  0  0  0
   -8.2935   24.5883  -30.9874 H   0  0  0  0  0  0  0  0  0  0  0  0
   -5.0439   21.0135  -33.8352 H   0  0  0  0  0  0  0  0  0  0  0  0
   -4.9338   18.6820  -34.7178 H   0  0  0  0  0  0  0  0  0  0  0  0
   -8.1914   17.5330  -32.1157 H   0  0  0  0  0  0  0  0  0  0  0  0
   -8.3100   19.8621  -31.2273 H   0  0  0  0  0  0  0  0  0  0  0  0
  1  2  1  0
  2  3  1  0
  2  4  1  0
  4  5  1  0
  5  6  1  0
  6  7  1  0
  7  8  1  0
  8  9  1  0
  9 10  2  0
 10 11  1  0
 11 12  1  0
 12 13  1  0
 13 14  2  0
 14 15  1  0
 15 16  2  0
 16 17  1  0
 16 18  1  0
 18 19  2  0
 12 20  2  0
 20  9  1  0
 19 13  1  0
  1 21  1  0
  1 22  1  0
  1 23  1  0
  2 24  1  0
  3 25  1  0
  3 26  1  0
  3 27  1  0
  4 28  1  0
  4 29  1  0
  5 30  1  0
  5 31  1  0
  6 32  1  0
  6 33  1  0
  7 34  1  0
  8 35  1  0
  8 36  1  0
 10 37  1  0
 14 38  1  0
 15 39  1  0
 18 40  1  0
 19 41  1  0
M  CHG  1   2   1
M  END
>  <UniqueID>  (27) 
27

>  <SMILES>  (27) 
C[NH+](C)CCCNCc1coc(-c2ccc(Br)cc2)n1

>  <Energy>  (27) 
72.31624793059095

>  <Genealogy>  (27) 
C[NH+](C)CCCNCc1coc(-c2ccc(Br)cc2)n1 (protonated)
C[NH+](C)CCCNCc1coc(-c2ccc(Br)cc2)n1 (3D coordinates assigned)
C[NH+](C)CCCNCc1coc(-c2ccc(Br)cc2)n1 (optimized conformer: 72.31624793059095 kcal/mol)

>  <smiles>  (27) 
CN(C)CCCNCc1coc(-c2ccc(Br)cc2)n1

>  <score_type>  (27) 
oracle

>  <origin>  (27) 
adg

>  <m_score__min__energy>  (27) 
-7.0300000000000002

>  <m_primary>  (27) 
energy

$$$$
27:0
     RDKit          3D

 47 51  0  0  0  0  0  0  0  0999 V2000
   -3.4930   25.2850  -30.3000 O   0  0  0  0  0  0  0  0  0  0  0  0
   -3.9700   24.1350  -30.4860 C   0  0  0  0  0  0  0  0  0  0  0  0
   -5.1760   23.9910  -31.2490 N   0  0  0  0  0  0  0  0  0  0  0  0
   -5.3650   23.0400  -32.3460 C   0  0  0  0  0  0  0  0  0  0  0  0
   -6.6590   22.2730  -32.1890 C   0  0  0  0  0  0  0  0  0  0  0  0
   -7.8030   22.9610  -31.7390 C   0  0  0  0  0  0  0  0  0  0  0  0
   -9.0250   22.2970  -31.6110 C   0  0  0  0  0  0  0  0  0  0  0  0
   -9.1150   20.9370  -31.8990 C   0  0  0  0  0  0  0  0  0  0  0  0
   -7.9840   20.2360  -32.3180 C   0  0  0  0  0  0  0  0  0  0  0  0
   -6.7550   20.8880  -32.4660 C   0  0  0  0  0  0  0  0  0  0  0  0
   -5.3780   19.9370  -33.0240 Cl  0  0  0  0  0  0  0  0  0  0  0  0
   -3.2920   22.9690  -29.9010 C   0  0  0  0  0  0  0  0  0  0  0  0
   -3.6430   22.5230  -28.6180 C   0  0  0  0  0  0  0  0  0  0  0  0
   -2.9440   21.4650  -28.0250 C   0  0  0  0  0  0  0  0  0  0  0  0
   -1.9050   20.8350  -28.7230 C   0  0  0  0  0  0  0  0  0  0  0  0
   -1.1830   19.8310  -28.1500 N   0  0  0  0  0  0  0  0  0  0  0  0
   -0.1490   19.2160  -28.8090 C   0  0  0  0  0  0  0  0  0  0  0  0
    0.6060   18.1250  -28.1240 C   0  0  0  0  0  0  0  0  0  0  0  0
    1.9830   18.0360  -27.9920 C   0  0  0  0  0  0  0  0  0  0  0  0
    2.2300   16.8530  -27.3330 C   0  0  0  0  0  0  0  0  0  0  0  0
    0.9980   16.2930  -27.0880 C   0  0  0  0  0  0  0  0  0  0  0  0
    0.0570   17.0740  -27.5620 O   0  0  0  0  0  0  0  0  0  0  0  0
    0.1430   19.6290  -30.1380 C   0  0  0  0  0  0  0  0  0  0  0  0
    1.2320   19.0620  -30.9540 C   0  0  0  0  0  0  0  0  0  0  0  0
    1.0580   18.2740  -32.0800 C   0  0  0  0  0  0  0  0  0  0  0  0
    2.3320   18.0090  -32.5500 C   0  0  0  0  0  0  0  0  0  0  0  0
    3.1970   18.6580  -31.6890 C   0  0  0  0  0  0  0  0  0  0  0  0
    2.5130   19.2850  -30.7540 O   0  0  0  0  0  0  0  0  0  0  0  0
   -0.5920   20.6280  -30.6980 N   0  0  0  0  0  0  0  0  0  0  0  0
   -1.5890   21.2520  -30.0270 C   0  0  0  0  0  0  0  0  0  0  0  0
   -2.2740   22.3190  -30.6120 C   0  0  0  0  0  0  0  0  0  0  0  0
   -5.3876   23.5905  -33.2981 H   0  0  0  0  0  0  0  0  0  0  0  0
   -4.5313   22.3225  -32.3321 H   0  0  0  0  0  0  0  0  0  0  0  0
   -7.7333   24.0294  -31.4865 H   0  0  0  0  0  0  0  0  0  0  0  0
   -9.9179   22.8489  -31.2822 H   0  0  0  0  0  0  0  0  0  0  0  0
  -10.0781   20.4157  -31.7960 H   0  0  0  0  0  0  0  0  0  0  0  0
   -8.0592   19.1601  -32.5341 H   0  0  0  0  0  0  0  0  0  0  0  0
   -4.4697   23.0060  -28.0765 H   0  0  0  0  0  0  0  0  0  0  0  0
   -3.2101   21.1285  -27.0121 H   0  0  0  0  0  0  0  0  0  0  0  0
   -1.4400   19.5320  -27.1850 H   0  0  0  0  0  0  0  0  0  0  0  0
    2.7286   18.7645  -28.3433 H   0  0  0  0  0  0  0  0  0  0  0  0
    3.2119   16.4400  -27.0585 H   0  0  0  0  0  0  0  0  0  0  0  0
    0.8278   15.3360  -26.5730 H   0  0  0  0  0  0  0  0  0  0  0  0
    0.1058   17.9307  -32.5105 H   0  0  0  0  0  0  0  0  0  0  0  0
    2.6015   17.4053  -33.4291 H   0  0  0  0  0  0  0  0  0  0  0  0
    4.2938   18.6518  -31.7723 H   0  0  0  0  0  0  0  0  0  0  0  0
   -2.0151   22.6488  -31.6290 H   0  0  0  0  0  0  0  0  0  0  0  0
  1  2  2  0
  2  3  1  0
  3  4  1  0
  4  5  1  0
  5  6  2  0
  6  7  1  0
  7  8  2  0
  8  9  1  0
  9 10  2  0
 10 11  1  0
  2 12  1  0
 12 13  2  0
 13 14  1  0
 14 15  2  0
 15 16  1  0
 16 17  2  0
 17 18  1  0
 18 19  2  0
 19 20  1  0
 20 21  2  0
 21 22  1  0
 17 23  1  0
 23 24  1  0
 24 25  2  0
 25 26  1  0
 26 27  2  0
 27 28  1  0
 23 29  2  0
 29 30  1  0
 30 31  2  0
 10  5  1  0
 31 12  1  0
 30 15  1  0
 22 18  1  0
 28 24  1  0
  4 32  1  0
  4 33  1  0
  6 34  1  0
  7 35  1  0
  8 36  1  0
  9 37  1  0
 13 38  1  0
 14 39  1  0
 16 40  1  0
 19 41  1  0
 20 42  1  0
 21 43  1  0
 25 44  1  0
 26 45  1  0
 27 46  1  0
 31 47  1  0
M  CHG  2   3  -1  16   1
M  END
>  <UniqueID>  (28) 
28

>  <SMILES>  (28) 
O=C([N-]Cc1ccccc1Cl)c1ccc2[nH+]c(-c3ccco3)c(-c3ccco3)nc2c1

>  <Energy>  (28) 
123.15741831679702

>  <Genealogy>  (28) 
O=C([N-]Cc1ccccc1Cl)c1ccc2[nH+]c(-c3ccco3)c(-c3ccco3)nc2c1 (protonated)
O=C([N-]Cc1ccccc1Cl)c1ccc2[nH+]c(-c3ccco3)c(-c3ccco3)nc2c1 (3D coordinates assigned)
O=C([N-]Cc1ccccc1Cl)c1ccc2[nH+]c(-c3ccco3)c(-c3ccco3)nc2c1 (optimized conformer: 123.15741831679702 kcal/mol)

>  <smiles>  (28) 
O=C(NCc1ccccc1Cl)c1ccc2nc(-c3ccco3)c(-c3ccco3)nc2c1

>  <score_type>  (28) 
oracle

>  <origin>  (28) 
adg

>  <m_score__min__energy>  (28) 
-9.6799999999999997

>  <m_primary>  (28) 
energy

$$$$
28:0
     RDKit          3D

 53 55  0  0  0  0  0  0  0  0999 V2000
   -0.0460   29.0580  -24.7860 C   0  0  0  0  0  0  0  0  0  0  0  0
    0.3890   27.9240  -23.8680 C   0  0  0  0  0  0  0  0  0  0  0  0
    0.2010   26.6370  -24.5300 N   0  0  0  0  0  0  0  0  0  0  0  0
   -0.1450   26.4510  -25.8180 C   0  0  0  0  0  0  0  0  0  0  0  0
   -0.1520   25.0910  -26.0660 C   0  0  0  0  0  0  0  0  0  0  0  0
   -0.4820   24.4040  -27.3660 C   0  0  0  0  0  0  0  0  0  0  0  0
   -1.9260   24.1440  -27.5510 N   0  0  0  0  0  0  0  0  0  0  0  0
   -2.2900   22.7260  -27.4150 C   0  0  0  0  0  0  0  0  0  0  0  0
   -3.7150   22.4960  -27.9620 C   0  0  0  0  0  0  0  0  0  0  0  0
   -4.5630   23.7140  -27.9140 N   0  0  0  0  0  0  0  0  0  0  0  0
   -4.5220   24.4880  -29.1750 C   0  0  0  0  0  0  0  0  0  0  0  0
   -3.6300   23.7780  -30.1970 C   0  0  0  0  0  0  0  0  0  0  0  0
   -4.2730   23.7160  -31.4700 O   0  0  0  0  0  0  0  0  0  0  0  0
   -5.1920   22.7330  -31.8810 C   0  0  0  0  0  0  0  0  0  0  0  0
   -6.5610   22.7980  -31.5520 C   0  0  0  0  0  0  0  0  0  0  0  0
   -7.4420   21.8030  -31.9840 C   0  0  0  0  0  0  0  0  0  0  0  0
   -9.1450   21.8990  -31.5720 Cl  0  0  0  0  0  0  0  0  0  0  0  0
   -6.9700   20.7330  -32.7450 C   0  0  0  0  0  0  0  0  0  0  0  0
   -5.6160   20.6520  -33.0730 C   0  0  0  0  0  0  0  0  0  0  0  0
   -4.7200   21.6440  -32.6420 C   0  0  0  0  0  0  0  0  0  0  0  0
   -3.2650   21.5540  -33.0080 C   0  0  0  0  0  0  0  0  0  0  0  0
   -4.2540   24.5450  -26.7330 C   0  0  0  0  0  0  0  0  0  0  0  0
   -2.7810   25.0120  -26.7150 C   0  0  0  0  0  0  0  0  0  0  0  0
    0.2190   24.4950  -24.8730 C   0  0  0  0  0  0  0  0  0  0  0  0
    0.4290   25.4630  -23.9630 N   0  0  0  0  0  0  0  0  0  0  0  0
   -0.3747   29.9150  -24.1797 H   0  0  0  0  0  0  0  0  0  0  0  0
    0.7998   29.3609  -25.4208 H   0  0  0  0  0  0  0  0  0  0  0  0
   -0.8773   28.7175  -25.4208 H   0  0  0  0  0  0  0  0  0  0  0  0
    1.4519   28.0498  -23.6142 H   0  0  0  0  0  0  0  0  0  0  0  0
   -0.2219   27.9490  -22.9536 H   0  0  0  0  0  0  0  0  0  0  0  0
   -0.3807   27.2421  -26.5450 H   0  0  0  0  0  0  0  0  0  0  0  0
   -0.1350   25.0407  -28.1932 H   0  0  0  0  0  0  0  0  0  0  0  0
    0.0213   23.4260  -27.3496 H   0  0  0  0  0  0  0  0  0  0  0  0
   -1.5772   22.1101  -27.9830 H   0  0  0  0  0  0  0  0  0  0  0  0
   -2.2595   22.4440  -26.3522 H   0  0  0  0  0  0  0  0  0  0  0  0
   -3.6388   22.1639  -29.0079 H   0  0  0  0  0  0  0  0  0  0  0  0
   -4.1928   21.7393  -27.3224 H   0  0  0  0  0  0  0  0  0  0  0  0
   -5.5406   24.5776  -29.5806 H   0  0  0  0  0  0  0  0  0  0  0  0
   -4.1120   25.4882  -28.9713 H   0  0  0  0  0  0  0  0  0  0  0  0
   -2.6842   24.3307  -30.2966 H   0  0  0  0  0  0  0  0  0  0  0  0
   -3.4376   22.7530  -29.8473 H   0  0  0  0  0  0  0  0  0  0  0  0
   -6.9387   23.6381  -30.9508 H   0  0  0  0  0  0  0  0  0  0  0  0
   -7.6658   19.9526  -33.0867 H   0  0  0  0  0  0  0  0  0  0  0  0
   -5.2483   19.8063  -33.6726 H   0  0  0  0  0  0  0  0  0  0  0  0
   -2.6580   21.5165  -32.0914 H   0  0  0  0  0  0  0  0  0  0  0  0
   -3.0915   20.6434  -33.6002 H   0  0  0  0  0  0  0  0  0  0  0  0
   -2.9806   22.4363  -33.6002 H   0  0  0  0  0  0  0  0  0  0  0  0
   -4.9061   25.4308  -26.7431 H   0  0  0  0  0  0  0  0  0  0  0  0
   -4.4241   23.9319  -25.8357 H   0  0  0  0  0  0  0  0  0  0  0  0
   -2.7280   26.0416  -27.0985 H   0  0  0  0  0  0  0  0  0  0  0  0
   -2.4158   24.9601  -25.6787 H   0  0  0  0  0  0  0  0  0  0  0  0
    0.3242   23.4140  -24.6988 H   0  0  0  0  0  0  0  0  0  0  0  0
    0.7330   25.3230  -22.9740 H   0  0  0  0  0  0  0  0  0  0  0  0
  1  2  1  0
  2  3  1  0
  3  4  1  0
  4  5  2  0
  5  6  1  0
  6  7  1  0
  7  8  1  0
  8  9  1  0
  9 10  1  0
 10 11  1  0
 11 12  1  0
 12 13  1  0
 13 14  1  0
 14 15  2  0
 15 16  1  0
 16 17  1  0
 16 18  2  0
 18 19  1  0
 19 20  2  0
 20 21  1  0
 10 22  1  0
 22 23  1  0
  5 24  1  0
 24 25  2  0
 25  3  1  0
 23  7  1  0
 20 14  1  0
  1 26  1  0
  1 27  1  0
  1 28  1  0
  2 29  1  0
  2 30  1  0
  4 31  1  0
  6 32  1  0
  6 33  1  0
  8 34  1  0
  8 35  1  0
  9 36  1  0
  9 37  1  0
 11 38  1  0
 11 39  1  0
 12 40  1  0
 12 41  1  0
 15 42  1  0
 18 43  1  0
 19 44  1  0
 21 45  1  0
 21 46  1  0
 21 47  1  0
 22 48  1  0
 22 49  1  0
 23 50  1  0
 23 51  1  0
 24 52  1  0
 25 53  1  0
M  CHG  1  25   1
M  END
>  <UniqueID>  (29) 
29

>  <SMILES>  (29) 
CCn1cc(CN2CCN(CCOc3cc(Cl)ccc3C)CC2)c[nH+]1

>  <Energy>  (29) 
91.94518525065153

>  <Genealogy>  (29) 
CCn1cc(CN2CCN(CCOc3cc(Cl)ccc3C)CC2)c[nH+]1 (protonated)
CCn1cc(CN2CCN(CCOc3cc(Cl)ccc3C)CC2)c[nH+]1 (3D coordinates assigned)
CCn1cc(CN2CCN(CCOc3cc(Cl)ccc3C)CC2)c[nH+]1 (nonaromatic ring conformer: 91.94518525065153 kcal/mol)

>  <smiles>  (29) 
CCn1cc(CN2CCN(CCOc3cc(Cl)ccc3C)CC2)cn1

>  <score_type>  (29) 
oracle

>  <origin>  (29) 
adg

>  <m_score__min__energy>  (29) 
-8.7699999999999996

>  <m_primary>  (29) 
energy

$$$$
29:0
     RDKit          3D

 41 43  0  0  0  0  0  0  0  0999 V2000
   -5.3600   25.6560  -30.6820 C   0  0  0  0  0  0  0  0  0  0  0  0
   -4.0440   25.1270  -30.7880 O   0  0  0  0  0  0  0  0  0  0  0  0
   -3.5850   23.9750  -30.1260 C   0  0  0  0  0  0  0  0  0  0  0  0
   -2.8700   24.0580  -28.9130 C   0  0  0  0  0  0  0  0  0  0  0  0
   -2.4370   22.8980  -28.2670 C   0  0  0  0  0  0  0  0  0  0  0  0
   -2.7090   21.6460  -28.8170 C   0  0  0  0  0  0  0  0  0  0  0  0
   -3.4100   21.5480  -30.0200 C   0  0  0  0  0  0  0  0  0  0  0  0
   -3.8510   22.7060  -30.6840 C   0  0  0  0  0  0  0  0  0  0  0  0
   -4.5530   22.5600  -32.0110 C   0  0  0  0  0  0  0  0  0  0  0  0
   -5.3100   21.3060  -32.0480 N   0  0  0  0  0  0  0  0  0  0  0  0
   -6.7500   21.2390  -32.0670 C   0  0  0  0  0  0  0  0  0  0  0  0
   -7.5190   22.4150  -31.9680 C   0  0  0  0  0  0  0  0  0  0  0  0
   -8.9140   22.3520  -31.9330 C   0  0  0  0  0  0  0  0  0  0  0  0
   -9.5600   21.1180  -31.9740 C   0  0  0  0  0  0  0  0  0  0  0  0
   -8.8150   19.9400  -32.0540 C   0  0  0  0  0  0  0  0  0  0  0  0
   -7.4120   19.9860  -32.1110 C   0  0  0  0  0  0  0  0  0  0  0  0
   -6.6670   18.7160  -32.2560 C   0  0  0  0  0  0  0  0  0  0  0  0
   -6.0780   18.3710  -33.4800 C   0  0  0  0  0  0  0  0  0  0  0  0
   -5.3750   17.1710  -33.5990 C   0  0  0  0  0  0  0  0  0  0  0  0
   -5.2560   16.3330  -32.4890 C   0  0  0  0  0  0  0  0  0  0  0  0
   -5.8200   16.6850  -31.3040 N   0  0  0  0  0  0  0  0  0  0  0  0
   -6.5100   17.8500  -31.1640 C   0  0  0  0  0  0  0  0  0  0  0  0
   -5.6275   25.7635  -29.6205 H   0  0  0  0  0  0  0  0  0  0  0  0
   -5.4001   26.6401  -31.1718 H   0  0  0  0  0  0  0  0  0  0  0  0
   -6.0701   24.9735  -31.1718 H   0  0  0  0  0  0  0  0  0  0  0  0
   -2.6521   25.0424  -28.4732 H   0  0  0  0  0  0  0  0  0  0  0  0
   -1.8797   22.9723  -27.3215 H   0  0  0  0  0  0  0  0  0  0  0  0
   -2.3708   20.7346  -28.3023 H   0  0  0  0  0  0  0  0  0  0  0  0
   -3.6188   20.5579  -30.4515 H   0  0  0  0  0  0  0  0  0  0  0  0
   -5.2429   23.4051  -32.1520 H   0  0  0  0  0  0  0  0  0  0  0  0
   -3.8022   22.5498  -32.8149 H   0  0  0  0  0  0  0  0  0  0  0  0
   -4.7620   20.4230  -32.1660 H   0  0  0  0  0  0  0  0  0  0  0  0
   -7.0163   23.3921  -31.9178 H   0  0  0  0  0  0  0  0  0  0  0  0
   -9.5039   23.2785  -31.8729 H   0  0  0  0  0  0  0  0  0  0  0  0
  -10.6586   21.0720  -31.9433 H   0  0  0  0  0  0  0  0  0  0  0  0
   -9.3304   18.9684  -32.0725 H   0  0  0  0  0  0  0  0  0  0  0  0
   -6.1695   19.0444  -34.3450 H   0  0  0  0  0  0  0  0  0  0  0  0
   -4.9187   16.8882  -34.5591 H   0  0  0  0  0  0  0  0  0  0  0  0
   -4.7042   15.3852  -32.5738 H   0  0  0  0  0  0  0  0  0  0  0  0
   -5.7150   16.0530  -30.4790 H   0  0  0  0  0  0  0  0  0  0  0  0
   -6.9467   18.1136  -30.1894 H   0  0  0  0  0  0  0  0  0  0  0  0
  1  2  1  0
  2  3  1  0
  3  4  2  0
  4  5  1  0
  5  6  2  0
  6  7  1  0
  7  8  2  0
  8  9  1  0
  9 10  1  0
 10 11  1  0
 11 12  2  0
 12 13  1  0
 13 14  2  0
 14 15  1  0
 15 16  2  0
 16 17  1  0
 17 18  2  0
 18 19  1  0
 19 20  2  0
 20 21  1  0
 21 22  2  0
  8  3  1  0
 16 11  1  0
 22 17  1  0
  1 23  1  0
  1 24  1  0
  1 25  1  0
  4 26  1  0
  5 27  1  0
  6 28  1  0
  7 29  1  0
  9 30  1  0
  9 31  1  0
 10 32  1  0
 12 33  1  0
 13 34  1  0
 14 35  1  0
 15 36  1  0
 18 37  1  0
 19 38  1  0
 20 39  1  0
 21 40  1  0
 22 41  1  0
M  CHG  1  21   1
M  END
>  <UniqueID>  (30) 
30

>  <SMILES>  (30) 
COc1ccccc1CNc1ccccc1-c1ccc[nH+]c1

>  <Energy>  (30) 
50.075299702793124

>  <Genealogy>  (30) 
COc1ccccc1CNc1ccccc1-c1ccc[nH+]c1 (protonated)
COc1ccccc1CNc1ccccc1-c1ccc[nH+]c1 (3D coordinates assigned)
COc1ccccc1CNc1ccccc1-c1ccc[nH+]c1 (optimized conformer: 50.075299702793124 kcal/mol)

>  <smiles>  (30) 
COc1ccccc1CNc1ccccc1-c1cccnc1

>  <score_type>  (30) 
oracle

>  <origin>  (30) 
adg

>  <m_score__min__energy>  (30) 
-8.1600000000000001

>  <m_primary>  (30) 
energy

$$$$
30:0
     RDKit          3D

 40 42  0  0  0  0  0  0  0  0999 V2000
   -5.4054   25.8943  -30.6327 H   0  0  0  0  0  0  0  0  0  0  0  0
   -4.7190   25.0550  -30.4470 C   0  0  0  0  0  0  0  0  0  0  0  0
   -3.4840   25.2990  -29.9440 N   0  0  0  0  0  0  0  0  0  0  0  0
   -2.5980   24.3050  -29.6990 C   0  0  0  0  0  0  0  0  0  0  0  0
   -1.3290   24.6220  -29.2060 C   0  0  0  0  0  0  0  0  0  0  0  0
   -1.0588   25.6727  -29.0245 H   0  0  0  0  0  0  0  0  0  0  0  0
   -0.4030   23.6110  -28.9430 C   0  0  0  0  0  0  0  0  0  0  0  0
    0.5945   23.8692  -28.5578 H   0  0  0  0  0  0  0  0  0  0  0  0
   -0.7390   22.2640  -29.1680 C   0  0  0  0  0  0  0  0  0  0  0  0
    0.1570   21.2150  -28.9170 O   0  0  0  0  0  0  0  0  0  0  0  0
   -0.2300   19.8670  -28.6670 C   0  0  0  0  0  0  0  0  0  0  0  0
   -0.2794   19.6950  -27.5817 H   0  0  0  0  0  0  0  0  0  0  0  0
   -1.2180   19.6804  -29.1132 H   0  0  0  0  0  0  0  0  0  0  0  0
    0.5086   19.1847  -29.1132 H   0  0  0  0  0  0  0  0  0  0  0  0
   -2.0120   21.9470  -29.6580 C   0  0  0  0  0  0  0  0  0  0  0  0
   -2.2794   20.8939  -29.8298 H   0  0  0  0  0  0  0  0  0  0  0  0
   -2.9580   22.9590  -29.9350 C   0  0  0  0  0  0  0  0  0  0  0  0
   -4.2630   22.6610  -30.4020 C   0  0  0  0  0  0  0  0  0  0  0  0
   -4.6140   21.3990  -30.4780 N   0  0  0  0  0  0  0  0  0  0  0  0
   -4.9560   20.6110  -31.6250 C   0  0  0  0  0  0  0  0  0  0  0  0
   -6.2840   20.2060  -31.8100 C   0  0  0  0  0  0  0  0  0  0  0  0
   -7.0435   20.4555  -31.0544 H   0  0  0  0  0  0  0  0  0  0  0  0
   -6.6480   19.4850  -32.9530 C   0  0  0  0  0  0  0  0  0  0  0  0
   -7.6872   19.1486  -33.0830 H   0  0  0  0  0  0  0  0  0  0  0  0
   -5.6910   19.1920  -33.9300 C   0  0  0  0  0  0  0  0  0  0  0  0
   -6.0450   18.4940  -35.0370 F   0  0  0  0  0  0  0  0  0  0  0  0
   -4.3730   19.6300  -33.7700 C   0  0  0  0  0  0  0  0  0  0  0  0
   -3.6224   19.4072  -34.5426 H   0  0  0  0  0  0  0  0  0  0  0  0
   -4.0080   20.3510  -32.6290 C   0  0  0  0  0  0  0  0  0  0  0  0
   -2.9762   20.7156  -32.5171 H   0  0  0  0  0  0  0  0  0  0  0  0
   -5.1330   23.7440  -30.7340 C   0  0  0  0  0  0  0  0  0  0  0  0
   -6.3670   23.5850  -31.5400 C   0  0  0  0  0  0  0  0  0  0  0  0
   -6.3330   23.8200  -32.7780 O   0  0  0  0  0  0  0  0  0  0  0  0
   -7.6710   23.1850  -30.9070 C   0  0  0  0  0  0  0  0  0  0  0  0
   -8.1074   24.0589  -30.4012 H   0  0  0  0  0  0  0  0  0  0  0  0
   -7.4753   22.3776  -30.1860 H   0  0  0  0  0  0  0  0  0  0  0  0
   -8.6570   22.6710  -31.9530 C   0  0  0  0  0  0  0  0  0  0  0  0
   -9.5239   22.2191  -31.4488 H   0  0  0  0  0  0  0  0  0  0  0  0
   -8.9939   23.5082  -32.5819 H   0  0  0  0  0  0  0  0  0  0  0  0
   -8.1636   21.9154  -32.5819 H   0  0  0  0  0  0  0  0  0  0  0  0
  1  2  1  0
  2  3  1  0
  3  4  1  0
  4  5  2  0
  5  6  1  0
  5  7  1  0
  7  8  1  0
  7  9  2  0
  9 10  1  0
 10 11  1  0
 11 12  1  0
 11 13  1  0
 11 14  1  0
  9 15  1  0
 15 16  1  0
 15 17  2  0
 17 18  1  0
 18 19  2  0
 19 20  1  0
 20 21  2  0
 21 22  1  0
 21 23  1  0
 23 24  1  0
 23 25  2  0
 25 26  1  0
 25 27  1  0
 27 28  1  0
 27 29  2  0
 29 30  1  0
 18 31  1  0
 31 32  1  0
 32 33  2  0
 32 34  1  0
 34 35  1  0
 34 36  1  0
 34 37  1  0
 37 38  1  0
 37 39  1  0
 37 40  1  0
 31  2  2  0
 17  4  1  0
 29 20  1  0
M  CHG  1   3  -1
M  END
>  <UniqueID>  (31) 
31

>  <SMILES>  (31) 
CCC(=O)c1c[n-]c2ccc(OC)cc2/c1=N/c1ccc(F)cc1

>  <Energy>  (31) 
64.467284394778

>  <Genealogy>  (31) 
CCC(=O)c1c[n-]c2ccc(OC)cc2c1=Nc1ccc(F)cc1 (protonated)
CCC(=O)c1c[n-]c2ccc(OC)cc2/c1=N/c1ccc(F)cc1 (cis-trans isomerization)
CCC(=O)c1c[n-]c2ccc(OC)cc2/c1=N/c1ccc(F)cc1 (3D coordinates assigned)
CCC(=O)c1c[n-]c2ccc(OC)cc2/c1=N/c1ccc(F)cc1 (optimized conformer: 64.467284394778 kcal/mol)

>  <smiles>  (31) 
CCC(=O)c1c[nH]c2ccc(OC)cc2c1=Nc1ccc(F)cc1

>  <score_type>  (31) 
oracle

>  <origin>  (31) 
adg

>  <m_score__min__energy>  (31) 
-8.4600000000000009

>  <m_primary>  (31) 
energy

$$$$
31:0
     RDKit          3D

 33 35  0  0  0  0  0  0  0  0999 V2000
   -4.8970   25.9750  -29.3700 H   0  0  0  0  0  0  0  0  0  0  0  0
   -4.2920   25.6720  -30.1670 N   0  0  0  0  0  0  0  0  0  0  0  0
   -4.5490   24.5980  -30.8380 C   0  0  0  0  0  0  0  0  0  0  0  0
   -3.5550   23.7200  -31.1360 N   0  0  0  0  0  0  0  0  0  0  0  0
   -3.7970   22.5830  -31.8430 C   0  0  0  0  0  0  0  0  0  0  0  0
   -2.6740   21.6650  -32.1370 C   0  0  0  0  0  0  0  0  0  0  0  0
   -1.8920   21.0410  -31.1790 C   0  0  0  0  0  0  0  0  0  0  0  0
   -1.9864   21.1315  -30.0868 H   0  0  0  0  0  0  0  0  0  0  0  0
   -0.9720   20.2840  -31.8710 C   0  0  0  0  0  0  0  0  0  0  0  0
    0.3900   19.1860  -31.1120 Br  0  0  0  0  0  0  0  0  0  0  0  0
   -1.2210   20.4680  -33.2140 C   0  0  0  0  0  0  0  0  0  0  0  0
   -0.6564   19.9977  -34.0325 H   0  0  0  0  0  0  0  0  0  0  0  0
   -2.2580   21.3090  -33.3730 N   0  0  0  0  0  0  0  0  0  0  0  0
   -2.6480   21.6140  -34.2920 H   0  0  0  0  0  0  0  0  0  0  0  0
   -5.1080   22.3140  -32.2700 C   0  0  0  0  0  0  0  0  0  0  0  0
   -5.3344   21.4027  -32.8430 H   0  0  0  0  0  0  0  0  0  0  0  0
   -6.1180   23.2240  -31.9540 C   0  0  0  0  0  0  0  0  0  0  0  0
   -7.4290   22.9650  -32.3710 O   0  0  0  0  0  0  0  0  0  0  0  0
   -8.3200   22.0980  -31.6730 C   0  0  0  0  0  0  0  0  0  0  0  0
   -8.1790   22.2291  -30.5900 H   0  0  0  0  0  0  0  0  0  0  0  0
   -9.3538   22.3487  -31.9529 H   0  0  0  0  0  0  0  0  0  0  0  0
   -8.0500   20.6630  -32.0380 C   0  0  0  0  0  0  0  0  0  0  0  0
   -8.7090   19.6290  -31.3530 C   0  0  0  0  0  0  0  0  0  0  0  0
   -9.4081   19.8699  -30.5386 H   0  0  0  0  0  0  0  0  0  0  0  0
   -8.4800   18.2950  -31.7020 C   0  0  0  0  0  0  0  0  0  0  0  0
   -8.9974   17.4891  -31.1609 H   0  0  0  0  0  0  0  0  0  0  0  0
   -7.5950   17.9840  -32.7370 C   0  0  0  0  0  0  0  0  0  0  0  0
   -7.4157   16.9334  -33.0094 H   0  0  0  0  0  0  0  0  0  0  0  0
   -6.9370   19.0060  -33.4270 C   0  0  0  0  0  0  0  0  0  0  0  0
   -6.0820   18.7040  -34.4340 F   0  0  0  0  0  0  0  0  0  0  0  0
   -7.1640   20.3430  -33.0810 C   0  0  0  0  0  0  0  0  0  0  0  0
   -6.6473   21.1460  -33.6272 H   0  0  0  0  0  0  0  0  0  0  0  0
   -5.8180   24.3470  -31.2480 N   0  0  0  0  0  0  0  0  0  0  0  0
  1  2  1  0
  2  3  2  0
  3  4  1  0
  4  5  2  0
  5  6  1  0
  6  7  2  0
  7  8  1  0
  7  9  1  0
  9 10  1  0
  9 11  2  0
 11 12  1  0
 11 13  1  0
 13 14  1  0
  5 15  1  0
 15 16  1  0
 15 17  2  0
 17 18  1  0
 18 19  1  0
 19 20  1  0
 19 21  1  0
 19 22  1  0
 22 23  2  0
 23 24  1  0
 23 25  1  0
 25 26  1  0
 25 27  2  0
 27 28  1  0
 27 29  1  0
 29 30  1  0
 29 31  2  0
 31 32  1  0
 17 33  1  0
 33  3  1  0
 13  6  1  0
 31 22  1  0
M  CHG  1  33  -1
M  END
>  <UniqueID>  (32) 
32

>  <SMILES>  (32) 
[H]/N=c1\nc(-c2cc(Br)c[nH]2)cc(OCc2cccc(F)c2)[n-]1

>  <Energy>  (32) 
60.37399692122113

>  <Genealogy>  (32) 
N=c1nc(-c2cc(Br)c[nH]2)cc(OCc2cccc(F)c2)[n-]1 (protonated)
[H]/N=c1\nc(-c2cc(Br)c[nH]2)cc(OCc2cccc(F)c2)[n-]1 (cis-trans isomerization)
[H]/N=c1\nc(-c2cc(Br)c[nH]2)cc(OCc2cccc(F)c2)[n-]1 (3D coordinates assigned)
[H]/N=c1\nc(-c2cc(Br)c[nH]2)cc(OCc2cccc(F)c2)[n-]1 (optimized conformer: 60.37399692122113 kcal/mol)

>  <smiles>  (32) 
N=c1nc(-c2cc(Br)c[nH]2)cc(OCc2cccc(F)c2)[nH]1

>  <score_type>  (32) 
oracle

>  <origin>  (32) 
adg

>  <m_score__min__energy>  (32) 
-9.0899999999999999

>  <m_primary>  (32) 
energy

$$$$
32:0
     RDKit          3D

 56 59  0  0  1  0  0  0  0  0999 V2000
   -3.9730   19.0750  -32.8560 C   0  0  0  0  0  0  0  0  0  0  0  0
   -3.8790   20.0920  -31.7690 C   0  0  0  0  0  0  0  0  0  0  0  0
   -3.1340   21.3010  -32.1810 N   0  0  0  0  0  0  0  0  0  0  0  0
   -2.5110   21.2530  -33.4580 C   0  0  0  0  0  0  0  0  0  0  0  0
   -1.0270   21.2510  -33.4820 C   0  0  0  0  0  0  0  0  0  0  0  0
   -3.1390   22.3630  -31.2570 C   0  0  0  0  0  0  0  0  0  0  0  0
   -4.2450   23.1690  -30.9590 C   0  0  0  0  0  0  0  0  0  0  0  0
   -5.5410   23.2270  -31.4360 C   0  0  0  0  0  0  0  0  0  0  0  0
   -5.8940   22.4050  -32.3400 N   0  0  0  0  0  0  0  0  0  0  0  0
   -7.0540   21.5800  -32.3080 C   0  0  0  0  0  0  0  0  0  0  0  0
   -7.0730   20.2490  -32.5620 C   0  0  0  0  0  0  0  0  0  0  0  0
   -8.2500   19.5060  -32.5120 C   0  0  0  0  0  0  0  0  0  0  0  0
   -9.4580   20.1250  -32.1950 C   0  0  0  0  0  0  0  0  0  0  0  0
   -9.4310   21.4820  -31.9370 C   0  0  0  0  0  0  0  0  0  0  0  0
   -8.2580   22.2210  -31.9870 C   0  0  0  0  0  0  0  0  0  0  0  0
   -6.4530   24.1080  -30.9920 N   0  0  0  0  0  0  0  0  0  0  0  0
   -6.0450   24.9620  -30.0340 C   0  0  0  0  0  0  0  0  0  0  0  0
   -4.7980   24.9610  -29.5250 N   0  0  0  0  0  0  0  0  0  0  0  0
   -3.8980   24.0730  -29.9820 C   0  0  0  0  0  0  0  0  0  0  0  0
   -2.6100   23.8150  -29.6970 N   0  0  0  0  0  0  0  0  0  0  0  0
   -2.1630   22.8190  -30.4380 N   0  0  0  0  0  0  0  0  0  0  0  0
   -0.8030   22.3340  -30.3640 C   0  0  0  0  0  0  0  0  0  0  0  0
   -0.6530   21.1320  -29.5420 C   0  0  0  0  0  0  0  0  0  0  0  0
    0.0700   20.0560  -30.0730 C   0  0  0  0  0  0  0  0  0  0  0  0
    0.2360   18.8800  -29.3580 C   0  0  0  0  0  0  0  0  0  0  0  0
   -0.3080   18.7310  -28.0960 C   0  0  0  0  0  0  0  0  0  0  0  0
   -0.1700   17.5760  -27.3390 O   0  0  0  0  0  0  0  0  0  0  0  0
    0.8780   16.6600  -27.4510 C   0  0  0  0  0  0  0  0  0  0  0  0
   -1.0220   19.7800  -27.5580 C   0  0  0  0  0  0  0  0  0  0  0  0
   -1.1750   20.9380  -28.2880 C   0  0  0  0  0  0  0  0  0  0  0  0
   -4.0657   18.0724  -32.4131 H   0  0  0  0  0  0  0  0  0  0  0  0
   -4.8557   19.2840  -33.4783 H   0  0  0  0  0  0  0  0  0  0  0  0
   -3.0670   19.1186  -33.4783 H   0  0  0  0  0  0  0  0  0  0  0  0
   -4.8968   20.3888  -31.4759 H   0  0  0  0  0  0  0  0  0  0  0  0
   -3.3317   19.6338  -30.9320 H   0  0  0  0  0  0  0  0  0  0  0  0
   -2.8526   20.3358  -33.9600 H   0  0  0  0  0  0  0  0  0  0  0  0
   -2.8044   22.1893  -33.9553 H   0  0  0  0  0  0  0  0  0  0  0  0
   -0.6436   21.2505  -32.4510 H   0  0  0  0  0  0  0  0  0  0  0  0
   -0.6700   20.3524  -34.0064 H   0  0  0  0  0  0  0  0  0  0  0  0
   -0.6676   22.1487  -34.0064 H   0  0  0  0  0  0  0  0  0  0  0  0
   -6.1311   19.7404  -32.8151 H   0  0  0  0  0  0  0  0  0  0  0  0
   -8.2262   18.4268  -32.7234 H   0  0  0  0  0  0  0  0  0  0  0  0
  -10.3975   19.5545  -32.1519 H   0  0  0  0  0  0  0  0  0  0  0  0
  -10.3712   21.9937  -31.6834 H   0  0  0  0  0  0  0  0  0  0  0  0
   -8.2729   23.3006  -31.7765 H   0  0  0  0  0  0  0  0  0  0  0  0
   -6.7663   25.6972  -29.6478 H   0  0  0  0  0  0  0  0  0  0  0  0
   -4.4860   25.6150  -28.7910 H   0  0  0  0  0  0  0  0  0  0  0  0
   -0.4603   22.1031  -31.3834 H   0  0  0  0  0  0  0  0  0  0  0  0
   -0.2038   23.1255  -29.8902 H   0  0  0  0  0  0  0  0  0  0  0  0
    0.5140   20.1459  -31.0754 H   0  0  0  0  0  0  0  0  0  0  0  0
    0.8094   18.0528  -29.8017 H   0  0  0  0  0  0  0  0  0  0  0  0
    1.2158   16.3647  -26.4467 H   0  0  0  0  0  0  0  0  0  0  0  0
    0.5308   15.7706  -27.9973 H   0  0  0  0  0  0  0  0  0  0  0  0
    1.7129   17.1231  -27.9973 H   0  0  0  0  0  0  0  0  0  0  0  0
   -1.4655   19.6932  -26.5551 H   0  0  0  0  0  0  0  0  0  0  0  0
   -1.7520   21.7589  -27.8373 H   0  0  0  0  0  0  0  0  0  0  0  0
  1  2  1  0
  2  3  1  0
  3  4  1  0
  4  5  1  0
  3  6  1  0
  6  7  2  0
  7  8  1  0
  8  9  2  0
  9 10  1  0
 10 11  2  0
 11 12  1  0
 12 13  2  0
 13 14  1  0
 14 15  2  0
  8 16  1  0
 16 17  2  0
 17 18  1  0
 18 19  1  0
 19 20  2  0
 20 21  1  0
 21 22  1  0
 22 23  1  0
 23 24  2  0
 24 25  1  0
 25 26  2  0
 26 27  1  0
 27 28  1  0
 26 29  1  0
 29 30  2  0
 21  6  1  0
 30 23  1  0
 19  7  1  0
 15 10  1  0
  1 31  1  0
  1 32  1  0
  1 33  1  0
  2 34  1  0
  2 35  1  0
  4 36  1  0
  4 37  1  0
  5 38  1  0
  5 39  1  0
  5 40  1  0
 11 41  1  0
 12 42  1  0
 13 43  1  0
 14 44  1  0
 15 45  1  0
 17 46  1  0
 18 47  1  0
 22 48  1  0
 22 49  1  0
 24 50  1  0
 25 51  1  0
 28 52  1  0
 28 53  1  0
 28 54  1  0
 29 55  1  0
 30 56  1  0
M  END
>  <smiles>  (33) 
CCN(CC)c1c2c(=Nc3ccccc3)nc[nH]c2nn1Cc1ccc(OC)cc1

>  <score_type>  (33) 
oracle

>  <origin>  (33) 
adg

>  <m_score__min__energy>  (33) 
-8.2100000000000009

>  <m_primary>  (33) 
energy

$$$$
33:0
     RDKit          3D

 62 65  0  0  0  0  0  0  0  0999 V2000
   -2.3580   21.5580  -32.2290 C   0  0  0  0  0  0  0  0  0  0  0  0
   -2.2410   20.1480  -32.8000 C   0  0  0  0  0  0  0  0  0  0  0  0
   -3.0800   19.9900  -34.0730 C   0  0  0  0  0  0  0  0  0  0  0  0
   -4.3890   19.3980  -33.7510 N   0  0  0  0  0  0  0  0  0  0  0  0
   -4.5920   18.0340  -33.8100 C   0  0  0  0  0  0  0  0  0  0  0  0
   -3.6540   17.2810  -34.1950 O   0  0  0  0  0  0  0  0  0  0  0  0
   -5.8090   17.4810  -33.4440 N   0  0  0  0  0  0  0  0  0  0  0  0
   -6.0090   16.0210  -33.5320 C   0  0  0  0  0  0  0  0  0  0  0  0
   -5.0120   15.2910  -32.6370 C   0  0  0  0  0  0  0  0  0  0  0  0
   -6.8430   18.2900  -33.0300 C   0  0  0  0  0  0  0  0  0  0  0  0
   -7.9570   17.8010  -32.6990 O   0  0  0  0  0  0  0  0  0  0  0  0
   -6.6300   19.6630  -32.9780 C   0  0  0  0  0  0  0  0  0  0  0  0
   -5.4240   20.1760  -33.3240 C   0  0  0  0  0  0  0  0  0  0  0  0
   -5.4100   21.5020  -33.0930 N   0  0  0  0  0  0  0  0  0  0  0  0
   -6.6450   21.7710  -32.6030 C   0  0  0  0  0  0  0  0  0  0  0  0
   -6.9950   23.1150  -32.0240 C   0  0  0  0  0  0  0  0  0  0  0  0
   -6.0090   23.4760  -30.9470 C   0  0  0  0  0  0  0  0  0  0  0  0
   -5.7460   22.5880  -29.8940 C   0  0  0  0  0  0  0  0  0  0  0  0
   -4.7750   22.8940  -28.9370 C   0  0  0  0  0  0  0  0  0  0  0  0
   -4.0440   24.0920  -29.0200 C   0  0  0  0  0  0  0  0  0  0  0  0
   -3.0350   24.4040  -28.0370 N   0  0  0  0  0  0  0  0  0  0  0  0
   -1.6070   24.2530  -28.3460 C   0  0  0  0  0  0  0  0  0  0  0  0
   -0.8730   25.5890  -28.1460 C   0  0  0  0  0  0  0  0  0  0  0  0
   -1.4170   26.4100  -26.9560 C   0  0  0  0  0  0  0  0  0  0  0  0
   -2.2440   25.5620  -25.9840 C   0  0  0  0  0  0  0  0  0  0  0  0
   -3.4330   24.9200  -26.7180 C   0  0  0  0  0  0  0  0  0  0  0  0
   -4.3230   24.9880  -30.0660 C   0  0  0  0  0  0  0  0  0  0  0  0
   -5.2910   24.6790  -31.0250 C   0  0  0  0  0  0  0  0  0  0  0  0
   -7.4310   20.6590  -32.5340 N   0  0  0  0  0  0  0  0  0  0  0  0
   -8.7640   20.5320  -31.9430 C   0  0  0  0  0  0  0  0  0  0  0  0
   -2.3540   21.5101  -31.1301 H   0  0  0  0  0  0  0  0  0  0  0  0
   -1.5071   22.1645  -32.5726 H   0  0  0  0  0  0  0  0  0  0  0  0
   -3.2972   22.0160  -32.5726 H   0  0  0  0  0  0  0  0  0  0  0  0
   -1.1866   19.9446  -33.0385 H   0  0  0  0  0  0  0  0  0  0  0  0
   -2.6147   19.4374  -32.0481 H   0  0  0  0  0  0  0  0  0  0  0  0
   -3.2315   20.9777  -34.5329 H   0  0  0  0  0  0  0  0  0  0  0  0
   -2.5491   19.3269  -34.7719 H   0  0  0  0  0  0  0  0  0  0  0  0
   -7.0318   15.7755  -33.2102 H   0  0  0  0  0  0  0  0  0  0  0  0
   -5.8527   15.7023  -34.5731 H   0  0  0  0  0  0  0  0  0  0  0  0
   -5.2632   15.4750  -31.5820 H   0  0  0  0  0  0  0  0  0  0  0  0
   -5.0576   14.2112  -32.8419 H   0  0  0  0  0  0  0  0  0  0  0  0
   -3.9964   15.6605  -32.8419 H   0  0  0  0  0  0  0  0  0  0  0  0
   -4.6140   22.1700  -33.1910 H   0  0  0  0  0  0  0  0  0  0  0  0
   -6.9629   23.8749  -32.8186 H   0  0  0  0  0  0  0  0  0  0  0  0
   -8.0061   23.0735  -31.5928 H   0  0  0  0  0  0  0  0  0  0  0  0
   -6.3075   21.6449  -29.8210 H   0  0  0  0  0  0  0  0  0  0  0  0
   -4.5811   22.1922  -28.1124 H   0  0  0  0  0  0  0  0  0  0  0  0
   -1.1697   23.4954  -27.6791 H   0  0  0  0  0  0  0  0  0  0  0  0
   -1.4993   23.9394  -29.3948 H   0  0  0  0  0  0  0  0  0  0  0  0
    0.1922   25.3795  -27.9684 H   0  0  0  0  0  0  0  0  0  0  0  0
   -1.0303   26.1877  -29.0553 H   0  0  0  0  0  0  0  0  0  0  0  0
   -0.5667   26.8439  -26.4094 H   0  0  0  0  0  0  0  0  0  0  0  0
   -2.0778   27.1894  -27.3634 H   0  0  0  0  0  0  0  0  0  0  0  0
   -1.6081   24.7705  -25.5608 H   0  0  0  0  0  0  0  0  0  0  0  0
   -2.6254   26.2079  -25.1795 H   0  0  0  0  0  0  0  0  0  0  0  0
   -3.8217   24.0890  -26.1111 H   0  0  0  0  0  0  0  0  0  0  0  0
   -4.2047   25.6898  -26.8661 H   0  0  0  0  0  0  0  0  0  0  0  0
   -3.7752   25.9397  -30.1302 H   0  0  0  0  0  0  0  0  0  0  0  0
   -5.4914   25.3830  -31.8461 H   0  0  0  0  0  0  0  0  0  0  0  0
   -8.6811   20.5399  -30.8462 H   0  0  0  0  0  0  0  0  0  0  0  0
   -9.3916   21.3744  -32.2693 H   0  0  0  0  0  0  0  0  0  0  0  0
   -9.2212   19.5862  -32.2693 H   0  0  0  0  0  0  0  0  0  0  0  0
  1  2  1  0
  2  3  1  0
  3  4  1  0
  4  5  1  0
  5  6  2  0
  5  7  1  0
  7  8  1  0
  8  9  1  0
  7 10  1  0
 10 11  2  0
 10 12  1  0
 12 13  2  0
 13 14  1  0
 14 15  2  0
 15 16  1  0
 16 17  1  0
 17 18  2  0
 18 19  1  0
 19 20  2  0
 20 21  1  0
 21 22  1  0
 22 23  1  0
 23 24  1  0
 24 25  1  0
 25 26  1  0
 20 27  1  0
 27 28  2  0
 15 29  1  0
 29 30  1  0
 13  4  1  0
 28 17  1  0
 29 12  1  0
 26 21  1  0
  1 31  1  0
  1 32  1  0
  1 33  1  0
  2 34  1  0
  2 35  1  0
  3 36  1  0
  3 37  1  0
  8 38  1  0
  8 39  1  0
  9 40  1  0
  9 41  1  0
  9 42  1  0
 14 43  1  0
 16 44  1  0
 16 45  1  0
 18 46  1  0
 19 47  1  0
 22 48  1  0
 22 49  1  0
 23 50  1  0
 23 51  1  0
 24 52  1  0
 24 53  1  0
 25 54  1  0
 25 55  1  0
 26 56  1  0
 26 57  1  0
 27 58  1  0
 28 59  1  0
 30 60  1  0
 30 61  1  0
 30 62  1  0
M  CHG  1  14   1
M  END
>  <UniqueID>  (34) 
33

>  <SMILES>  (34) 
CCCn1c(=O)n(CC)c(=O)c2c1[nH+]c(Cc1ccc(N3CCCCC3)cc1)n2C

>  <Energy>  (34) 
107.16481360000236

>  <Genealogy>  (34) 
CCCn1c(=O)n(CC)c(=O)c2c1[nH+]c(Cc1ccc(N3CCCCC3)cc1)n2C (protonated)
CCCn1c(=O)n(CC)c(=O)c2c1[nH+]c(Cc1ccc(N3CCCCC3)cc1)n2C (3D coordinates assigned)
CCCn1c(=O)n(CC)c(=O)c2c1[nH+]c(Cc1ccc(N3CCCCC3)cc1)n2C (nonaromatic ring conformer: 107.16481360000236 kcal/mol)

>  <smiles>  (34) 
CCCn1c(=O)n(CC)c(=O)c2c1nc(Cc1ccc(N3CCCCC3)cc1)n2C

>  <score_type>  (34) 
oracle

>  <origin>  (34) 
adg

>  <m_score__min__energy>  (34) 
-8.0700000000000003

>  <m_primary>  (34) 
energy

$$$$
34:0
     RDKit          3D

 25 26  0  0  0  0  0  0  0  0999 V2000
   -5.5330   25.6730  -30.2600 C   0  0  0  0  0  0  0  0  0  0  0  0
   -4.9880   24.7700  -31.2150 O   0  0  0  0  0  0  0  0  0  0  0  0
   -5.5970   23.5660  -31.6060 C   0  0  0  0  0  0  0  0  0  0  0  0
   -4.8000   22.5870  -32.2040 C   0  0  0  0  0  0  0  0  0  0  0  0
   -5.3480   21.3700  -32.6140 C   0  0  0  0  0  0  0  0  0  0  0  0
   -6.7200   21.1030  -32.4300 C   0  0  0  0  0  0  0  0  0  0  0  0
   -7.3080   19.8750  -32.8360 C   0  0  0  0  0  0  0  0  0  0  0  0
   -6.5000   18.7820  -33.4870 C   0  0  0  0  0  0  0  0  0  0  0  0
   -8.6820   19.6680  -32.6250 C   0  0  0  0  0  0  0  0  0  0  0  0
   -9.4680   20.6520  -32.0270 C   0  0  0  0  0  0  0  0  0  0  0  0
   -8.9000   21.8590  -31.6260 C   0  0  0  0  0  0  0  0  0  0  0  0
   -7.5310   22.0970  -31.8220 C   0  0  0  0  0  0  0  0  0  0  0  0
   -6.9670   23.3160  -31.4150 C   0  0  0  0  0  0  0  0  0  0  0  0
   -5.3138   25.3097  -29.2451 H   0  0  0  0  0  0  0  0  0  0  0  0
   -5.0843   26.6678  -30.3983 H   0  0  0  0  0  0  0  0  0  0  0  0
   -6.6222   25.7396  -30.3983 H   0  0  0  0  0  0  0  0  0  0  0  0
   -3.7270   22.7773  -32.3538 H   0  0  0  0  0  0  0  0  0  0  0  0
   -4.7036   20.6129  -33.0847 H   0  0  0  0  0  0  0  0  0  0  0  0
   -6.0371   18.1558  -32.7100 H   0  0  0  0  0  0  0  0  0  0  0  0
   -7.1588   18.1623  -34.1131 H   0  0  0  0  0  0  0  0  0  0  0  0
   -5.7143   19.2301  -34.1131 H   0  0  0  0  0  0  0  0  0  0  0  0
   -9.1426   18.7185  -32.9353 H   0  0  0  0  0  0  0  0  0  0  0  0
  -10.5423   20.4743  -31.8710 H   0  0  0  0  0  0  0  0  0  0  0  0
   -9.5274   22.6291  -31.1535 H   0  0  0  0  0  0  0  0  0  0  0  0
   -7.6013   24.0810  -30.9433 H   0  0  0  0  0  0  0  0  0  0  0  0
  1  2  1  0
  2  3  1  0
  3  4  2  0
  4  5  1  0
  5  6  2  0
  6  7  1  0
  7  8  1  0
  7  9  2  0
  9 10  1  0
 10 11  2  0
 11 12  1  0
 12 13  2  0
 13  3  1  0
 12  6  1  0
  1 14  1  0
  1 15  1  0
  1 16  1  0
  4 17  1  0
  5 18  1  0
  8 19  1  0
  8 20  1  0
  8 21  1  0
  9 22  1  0
 10 23  1  0
 11 24  1  0
 13 25  1  0
M  END
>  <UniqueID>  (35) 
34

>  <SMILES>  (35) 
COc1ccc2c(C)cccc2c1

>  <Energy>  (35) 
29.45162853237321

>  <Genealogy>  (35) 
COc1ccc2c(C)cccc2c1 (3D coordinates assigned)
COc1ccc2c(C)cccc2c1 (optimized conformer: 29.45162853237321 kcal/mol)

>  <smiles>  (35) 
COc1ccc2c(C)cccc2c1

>  <score_type>  (35) 
oracle

>  <origin>  (35) 
adg

>  <m_score__min__energy>  (35) 
-6.6600000000000001

>  <m_primary>  (35) 
energy

$$$$
35:0
     RDKit          3D

 49 50  0  0  0  0  0  0  0  0999 V2000
   -8.1100   23.0470  -31.8520 C   0  0  0  0  0  0  0  0  0  0  0  0
   -8.7260   21.7660  -31.7660 O   0  0  0  0  0  0  0  0  0  0  0  0
   -8.1210   20.5680  -32.1740 C   0  0  0  0  0  0  0  0  0  0  0  0
   -7.0570   20.5340  -33.0930 C   0  0  0  0  0  0  0  0  0  0  0  0
   -6.4980   19.3130  -33.4830 C   0  0  0  0  0  0  0  0  0  0  0  0
   -6.9810   18.1030  -32.9520 C   0  0  0  0  0  0  0  0  0  0  0  0
   -6.4210   16.7970  -33.3820 C   0  0  0  0  0  0  0  0  0  0  0  0
   -7.1930   15.9110  -33.8390 O   0  0  0  0  0  0  0  0  0  0  0  0
   -5.0120   16.5310  -33.2990 N   0  0  0  0  0  0  0  0  0  0  0  0
   -4.3760   15.4500  -34.0520 C   0  0  0  0  0  0  0  0  0  0  0  0
   -2.8750   15.3920  -33.7500 C   0  0  0  0  0  0  0  0  0  0  0  0
   -2.3810   16.6640  -33.1990 N   0  0  0  0  0  0  0  0  0  0  0  0
   -1.6960   17.5040  -34.2010 C   0  0  0  0  0  0  0  0  0  0  0  0
   -1.9630   18.9850  -33.9190 C   0  0  0  0  0  0  0  0  0  0  0  0
   -2.8610   19.1610  -32.7750 N   0  0  0  0  0  0  0  0  0  0  0  0
   -3.2760   20.4490  -32.2830 C   0  0  0  0  0  0  0  0  0  0  0  0
   -3.9140   21.3900  -33.1100 C   0  0  0  0  0  0  0  0  0  0  0  0
   -4.3490   22.6130  -32.5900 C   0  0  0  0  0  0  0  0  0  0  0  0
   -4.1440   22.9270  -31.2350 C   0  0  0  0  0  0  0  0  0  0  0  0
   -4.6280   24.2120  -30.6800 C   0  0  0  0  0  0  0  0  0  0  0  0
   -3.7260   25.2960  -30.4690 N   0  0  0  0  0  0  0  0  0  0  0  0
   -5.8430   24.3580  -30.3820 O   0  0  0  0  0  0  0  0  0  0  0  0
   -3.4850   21.9950  -30.4160 C   0  0  0  0  0  0  0  0  0  0  0  0
   -3.0580   20.7700  -30.9350 C   0  0  0  0  0  0  0  0  0  0  0  0
   -8.0460   18.1450  -32.0350 C   0  0  0  0  0  0  0  0  0  0  0  0
   -8.6060   19.3660  -31.6500 C   0  0  0  0  0  0  0  0  0  0  0  0
   -7.9242   23.4333  -30.8389 H   0  0  0  0  0  0  0  0  0  0  0  0
   -7.1555   22.9594  -32.3917 H   0  0  0  0  0  0  0  0  0  0  0  0
   -8.7744   23.7379  -32.3917 H   0  0  0  0  0  0  0  0  0  0  0  0
   -6.6622   21.4734  -33.5074 H   0  0  0  0  0  0  0  0  0  0  0  0
   -5.6736   19.2985  -34.2111 H   0  0  0  0  0  0  0  0  0  0  0  0
   -4.4400   17.0330  -32.5830 H   0  0  0  0  0  0  0  0  0  0  0  0
   -4.8386   14.4926  -33.7703 H   0  0  0  0  0  0  0  0  0  0  0  0
   -4.5141   15.6380  -35.1270 H   0  0  0  0  0  0  0  0  0  0  0  0
   -2.6891   14.5909  -33.0194 H   0  0  0  0  0  0  0  0  0  0  0  0
   -2.3429   15.1971  -34.6928 H   0  0  0  0  0  0  0  0  0  0  0  0
   -1.6930   16.4300  -32.4450 H   0  0  0  0  0  0  0  0  0  0  0  0
   -0.6134   17.3146  -34.1553 H   0  0  0  0  0  0  0  0  0  0  0  0
   -2.0784   17.2540  -35.2016 H   0  0  0  0  0  0  0  0  0  0  0  0
   -1.0075   19.4856  -33.7035 H   0  0  0  0  0  0  0  0  0  0  0  0
   -2.4441   19.4236  -34.8057 H   0  0  0  0  0  0  0  0  0  0  0  0
   -3.2550   18.3090  -32.3110 H   0  0  0  0  0  0  0  0  0  0  0  0
   -4.0722   21.1624  -34.1745 H   0  0  0  0  0  0  0  0  0  0  0  0
   -4.8558   23.3355  -33.2466 H   0  0  0  0  0  0  0  0  0  0  0  0
   -3.5510   26.0020  -31.2190 H   0  0  0  0  0  0  0  0  0  0  0  0
   -3.3036   22.2317  -29.3572 H   0  0  0  0  0  0  0  0  0  0  0  0
   -2.5457   20.0500  -30.2799 H   0  0  0  0  0  0  0  0  0  0  0  0
   -8.4421   17.2079  -31.6167 H   0  0  0  0  0  0  0  0  0  0  0  0
   -9.4359   19.3816  -30.9282 H   0  0  0  0  0  0  0  0  0  0  0  0
  1  2  1  0
  2  3  1  0
  3  4  2  0
  4  5  1  0
  5  6  2  0
  6  7  1  0
  7  8  2  0
  7  9  1  0
  9 10  1  0
 10 11  1  0
 11 12  1  0
 12 13  1  0
 13 14  1  0
 14 15  1  0
 15 16  1  0
 16 17  2  0
 17 18  1  0
 18 19  2  0
 19 20  1  0
 20 21  1  0
 20 22  2  0
 19 23  1  0
 23 24  2  0
  6 25  1  0
 25 26  2  0
 26  3  1  0
 24 16  1  0
  1 27  1  0
  1 28  1  0
  1 29  1  0
  4 30  1  0
  5 31  1  0
  9 32  1  0
 10 33  1  0
 10 34  1  0
 11 35  1  0
 11 36  1  0
 12 37  1  0
 13 38  1  0
 13 39  1  0
 14 40  1  0
 14 41  1  0
 15 42  1  0
 17 43  1  0
 18 44  1  0
 21 45  1  0
 23 46  1  0
 24 47  1  0
 25 48  1  0
 26 49  1  0
M  CHG  1  21  -1
M  END
>  <UniqueID>  (36) 
35

>  <SMILES>  (36) 
COc1ccc(C(=O)NCCNCCNc2ccc(C([NH-])=O)cc2)cc1

>  <Energy>  (36) 
39.25981502364377

>  <Genealogy>  (36) 
COc1ccc(C(=O)NCCNCCNc2ccc(C([NH-])=O)cc2)cc1 (protonated)
COc1ccc(C(=O)NCCNCCNc2ccc(C([NH-])=O)cc2)cc1 (3D coordinates assigned)
COc1ccc(C(=O)NCCNCCNc2ccc(C([NH-])=O)cc2)cc1 (optimized conformer: 39.25981502364377 kcal/mol)

>  <smiles>  (36) 
COc1ccc(C(=O)NCCNCCNc2ccc(C(N)=O)cc2)cc1

>  <score_type>  (36) 
oracle

>  <origin>  (36) 
adg

>  <m_score__min__energy>  (36) 
-10.08

>  <m_primary>  (36) 
energy

$$$$
36:0
     RDKit          3D

 49 52  0  0  0  0  0  0  0  0999 V2000
   -0.1438   31.8277  -25.8908 H   0  0  0  0  0  0  0  0  0  0  0  0
   -0.2740   30.7430  -26.0190 C   0  0  0  0  0  0  0  0  0  0  0  0
   -0.6990   29.9570  -24.9430 C   0  0  0  0  0  0  0  0  0  0  0  0
   -0.9078   30.4256  -23.9700 H   0  0  0  0  0  0  0  0  0  0  0  0
   -0.8590   28.5780  -25.1010 C   0  0  0  0  0  0  0  0  0  0  0  0
   -1.2065   27.9672  -24.2547 H   0  0  0  0  0  0  0  0  0  0  0  0
   -0.5780   27.9660  -26.3370 C   0  0  0  0  0  0  0  0  0  0  0  0
   -0.7460   26.5430  -26.5040 N   0  0  0  0  0  0  0  0  0  0  0  0
   -1.1720   26.3250  -27.4340 H   0  0  0  0  0  0  0  0  0  0  0  0
   -1.4120   26.1980  -25.7740 H   0  0  0  0  0  0  0  0  0  0  0  0
    0.5190   25.8590  -26.4010 C   0  0  0  0  0  0  0  0  0  0  0  0
    0.9670   25.2130  -24.9600 S   0  0  0  0  0  0  0  0  0  0  0  0
    1.1400   25.3370  -27.5840 N   0  0  0  0  0  0  0  0  0  0  0  0
    0.7670   24.2820  -28.2010 N   0  0  0  0  0  0  0  0  0  0  0  0
   -0.5940   23.8830  -28.4080 C   0  0  0  0  0  0  0  0  0  0  0  0
   -1.6680   24.6790  -28.7830 C   0  0  0  0  0  0  0  0  0  0  0  0
   -1.6160   26.0530  -28.9700 O   0  0  0  0  0  0  0  0  0  0  0  0
   -2.7870   23.9300  -28.9580 N   0  0  0  0  0  0  0  0  0  0  0  0
   -4.1260   24.4260  -29.3050 C   0  0  0  0  0  0  0  0  0  0  0  0
   -4.8726   23.8294  -28.7603 H   0  0  0  0  0  0  0  0  0  0  0  0
   -4.1654   25.4890  -29.0250 H   0  0  0  0  0  0  0  0  0  0  0  0
   -4.4190   24.3390  -30.7550 N   0  0  0  0  0  0  0  0  0  0  0  0
   -4.0740   23.0550  -31.3990 C   0  0  0  0  0  0  0  0  0  0  0  0
   -3.5870   23.2642  -32.3629 H   0  0  0  0  0  0  0  0  0  0  0  0
   -3.4061   22.5093  -30.7163 H   0  0  0  0  0  0  0  0  0  0  0  0
   -5.3070   22.1680  -31.6520 C   0  0  0  0  0  0  0  0  0  0  0  0
   -5.6323   22.2940  -32.6952 H   0  0  0  0  0  0  0  0  0  0  0  0
   -5.0304   21.1214  -31.4570 H   0  0  0  0  0  0  0  0  0  0  0  0
   -6.3690   22.5180  -30.7930 O   0  0  0  0  0  0  0  0  0  0  0  0
   -6.8490   23.8050  -31.1280 C   0  0  0  0  0  0  0  0  0  0  0  0
   -7.3255   23.7550  -32.1182 H   0  0  0  0  0  0  0  0  0  0  0  0
   -7.5612   24.1055  -30.3454 H   0  0  0  0  0  0  0  0  0  0  0  0
   -5.7310   24.8720  -31.1720 C   0  0  0  0  0  0  0  0  0  0  0  0
   -5.6461   25.2507  -32.2013 H   0  0  0  0  0  0  0  0  0  0  0  0
   -6.0051   25.6702  -30.4665 H   0  0  0  0  0  0  0  0  0  0  0  0
   -2.4140   22.6560  -28.6820 C   0  0  0  0  0  0  0  0  0  0  0  0
   -3.2130   21.5080  -28.6310 C   0  0  0  0  0  0  0  0  0  0  0  0
   -4.2903   21.5594  -28.8471 H   0  0  0  0  0  0  0  0  0  0  0  0
   -2.6010   20.2870  -28.2960 C   0  0  0  0  0  0  0  0  0  0  0  0
   -3.2027   19.3668  -28.2619 H   0  0  0  0  0  0  0  0  0  0  0  0
   -1.2210   20.2320  -28.0030 C   0  0  0  0  0  0  0  0  0  0  0  0
   -0.4140   18.5670  -27.5320 Br  0  0  0  0  0  0  0  0  0  0  0  0
   -0.4400   21.4010  -28.0380 C   0  0  0  0  0  0  0  0  0  0  0  0
    0.6348   21.3736  -27.8055 H   0  0  0  0  0  0  0  0  0  0  0  0
   -1.0730   22.5950  -28.3770 C   0  0  0  0  0  0  0  0  0  0  0  0
   -0.1680   28.7680  -27.4180 C   0  0  0  0  0  0  0  0  0  0  0  0
    0.0335   28.3061  -28.3958 H   0  0  0  0  0  0  0  0  0  0  0  0
   -0.0150   30.1490  -27.2570 C   0  0  0  0  0  0  0  0  0  0  0  0
    0.3097   30.7683  -28.1061 H   0  0  0  0  0  0  0  0  0  0  0  0
  1  2  1  0
  2  3  2  0
  3  4  1  0
  3  5  1  0
  5  6  1  0
  5  7  2  0
  7  8  1  0
  8  9  1  0
  8 10  1  0
  8 11  1  0
 11 12  2  0
 11 13  1  0
 13 14  2  0
 14 15  1  0
 15 16  2  0
 16 17  1  0
 16 18  1  0
 18 19  1  0
 19 20  1  0
 19 21  1  0
 19 22  1  0
 22 23  1  0
 23 24  1  0
 23 25  1  0
 23 26  1  0
 26 27  1  0
 26 28  1  0
 26 29  1  0
 29 30  1  0
 30 31  1  0
 30 32  1  0
 30 33  1  0
 33 34  1  0
 33 35  1  0
 18 36  1  0
 36 37  2  0
 37 38  1  0
 37 39  1  0
 39 40  1  0
 39 41  2  0
 41 42  1  0
 41 43  1  0
 43 44  1  0
 43 45  2  0
  7 46  1  0
 46 47  1  0
 46 48  2  0
 48 49  1  0
 48  2  1  0
 45 15  1  0
 33 22  1  0
 45 36  1  0
M  CHG  2   8   1  17  -1
M  END
>  <UniqueID>  (37) 
36

>  <SMILES>  (37) 
[O-]c1c(/N=N\C(=S)[NH2+]c2ccccc2)c2cc(Br)ccc2n1CN1CCOCC1

>  <Energy>  (37) 
115.53138900350083

>  <Genealogy>  (37) 
[O-]c1c(N=NC(=S)[NH2+]c2ccccc2)c2cc(Br)ccc2n1CN1CCOCC1 (protonated)
[O-]c1c(/N=N\C(=S)[NH2+]c2ccccc2)c2cc(Br)ccc2n1CN1CCOCC1 (cis-trans isomerization)
[O-]c1c(/N=N\C(=S)[NH2+]c2ccccc2)c2cc(Br)ccc2n1CN1CCOCC1 (3D coordinates assigned)
[O-]c1c(/N=N\C(=S)[NH2+]c2ccccc2)c2cc(Br)ccc2n1CN1CCOCC1 (nonaromatic ring conformer: 115.53138900350083 kcal/mol)

>  <smiles>  (37) 
Oc1c(N=NC(=S)Nc2ccccc2)c2cc(Br)ccc2n1CN1CCOCC1

>  <score_type>  (37) 
oracle

>  <origin>  (37) 
adg

>  <m_score__min__energy>  (37) 
-11.890000000000001

>  <m_primary>  (37) 
energy

$$$$
37:0
     RDKit          3D

 47 50  0  0  0  0  0  0  0  0999 V2000
   -3.7680   20.9810  -31.8960 C   0  0  0  0  0  0  0  0  0  0  0  0
   -4.7020   20.7540  -33.0810 C   0  0  0  0  0  0  0  0  0  0  0  0
   -6.0570   20.4280  -32.6120 N   0  0  0  0  0  0  0  0  0  0  0  0
   -6.6350   19.1920  -32.6780 C   0  0  0  0  0  0  0  0  0  0  0  0
   -5.9190   17.9420  -32.9930 C   0  0  0  0  0  0  0  0  0  0  0  0
   -5.6900   16.9840  -31.9950 C   0  0  0  0  0  0  0  0  0  0  0  0
   -5.0360   15.7940  -32.3200 C   0  0  0  0  0  0  0  0  0  0  0  0
   -4.6350   15.5600  -33.5990 N   0  0  0  0  0  0  0  0  0  0  0  0
   -4.8630   16.4650  -34.5900 C   0  0  0  0  0  0  0  0  0  0  0  0
   -5.5130   17.6690  -34.3080 C   0  0  0  0  0  0  0  0  0  0  0  0
   -5.7310   18.5660  -35.3040 F   0  0  0  0  0  0  0  0  0  0  0  0
   -7.9730   19.2050  -32.4650 N   0  0  0  0  0  0  0  0  0  0  0  0
   -8.2320   20.5030  -32.2540 C   0  0  0  0  0  0  0  0  0  0  0  0
   -9.4750   21.0700  -32.0180 C   0  0  0  0  0  0  0  0  0  0  0  0
   -9.5480   22.4200  -31.8650 N   0  0  0  0  0  0  0  0  0  0  0  0
   -8.4410   23.2180  -31.9300 C   0  0  0  0  0  0  0  0  0  0  0  0
   -7.1570   22.6670  -32.1640 C   0  0  0  0  0  0  0  0  0  0  0  0
   -5.9610   23.5870  -32.1170 C   0  0  0  0  0  0  0  0  0  0  0  0
   -6.0010   24.4380  -30.9180 N   0  0  0  0  0  0  0  0  0  0  0  0
   -5.7150   23.7000  -29.6760 C   0  0  0  0  0  0  0  0  0  0  0  0
   -4.4070   24.1220  -29.0470 C   0  0  0  0  0  0  0  0  0  0  0  0
   -4.2470   24.1270  -27.6540 C   0  0  0  0  0  0  0  0  0  0  0  0
   -3.0360   24.5310  -27.0910 C   0  0  0  0  0  0  0  0  0  0  0  0
   -1.9910   24.9270  -27.9270 C   0  0  0  0  0  0  0  0  0  0  0  0
   -2.1580   24.9150  -29.2770 N   0  0  0  0  0  0  0  0  0  0  0  0
   -3.3280   24.5260  -29.8490 C   0  0  0  0  0  0  0  0  0  0  0  0
   -7.0940   21.2610  -32.3380 C   0  0  0  0  0  0  0  0  0  0  0  0
   -4.3262   20.8453  -30.9579 H   0  0  0  0  0  0  0  0  0  0  0  0
   -2.9401   20.2579  -31.9379 H   0  0  0  0  0  0  0  0  0  0  0  0
   -3.3643   22.0034  -31.9379 H   0  0  0  0  0  0  0  0  0  0  0  0
   -4.7403   21.6677  -33.6923 H   0  0  0  0  0  0  0  0  0  0  0  0
   -4.3204   19.9138  -33.6797 H   0  0  0  0  0  0  0  0  0  0  0  0
   -6.0233   17.1687  -30.9631 H   0  0  0  0  0  0  0  0  0  0  0  0
   -4.8443   15.0431  -31.5394 H   0  0  0  0  0  0  0  0  0  0  0  0
   -4.1490   14.6640  -33.8270 H   0  0  0  0  0  0  0  0  0  0  0  0
   -4.5341   16.2474  -35.6169 H   0  0  0  0  0  0  0  0  0  0  0  0
  -10.3781   20.4451  -31.9561 H   0  0  0  0  0  0  0  0  0  0  0  0
   -8.5483   24.3048  -31.7986 H   0  0  0  0  0  0  0  0  0  0  0  0
   -5.0421   22.9826  -32.0993 H   0  0  0  0  0  0  0  0  0  0  0  0
   -5.9788   24.2327  -33.0074 H   0  0  0  0  0  0  0  0  0  0  0  0
   -6.9490   24.8760  -30.8490 H   0  0  0  0  0  0  0  0  0  0  0  0
   -6.5284   23.8852  -28.9590 H   0  0  0  0  0  0  0  0  0  0  0  0
   -5.6381   22.6322  -29.9288 H   0  0  0  0  0  0  0  0  0  0  0  0
   -5.0770   23.8121  -27.0044 H   0  0  0  0  0  0  0  0  0  0  0  0
   -2.9062   24.5373  -25.9987 H   0  0  0  0  0  0  0  0  0  0  0  0
   -1.0323   25.2488  -27.4943 H   0  0  0  0  0  0  0  0  0  0  0  0
   -3.4298   24.5278  -30.9443 H   0  0  0  0  0  0  0  0  0  0  0  0
  1  2  1  0
  2  3  1  0
  3  4  1  0
  4  5  1  0
  5  6  2  0
  6  7  1  0
  7  8  2  0
  8  9  1  0
  9 10  2  0
 10 11  1  0
  4 12  2  0
 12 13  1  0
 13 14  2  0
 14 15  1  0
 15 16  2  0
 16 17  1  0
 17 18  1  0
 18 19  1  0
 19 20  1  0
 20 21  1  0
 21 22  2  0
 22 23  1  0
 23 24  2  0
 24 25  1  0
 25 26  2  0
 17 27  2  0
 27  3  1  0
 10  5  1  0
 27 13  1  0
 26 21  1  0
  1 28  1  0
  1 29  1  0
  1 30  1  0
  2 31  1  0
  2 32  1  0
  6 33  1  0
  7 34  1  0
  8 35  1  0
  9 36  1  0
 14 37  1  0
 16 38  1  0
 18 39  1  0
 18 40  1  0
 19 41  1  0
 20 42  1  0
 20 43  1  0
 22 44  1  0
 23 45  1  0
 24 46  1  0
 26 47  1  0
M  CHG  1   8   1
M  END
>  <UniqueID>  (38) 
37

>  <SMILES>  (38) 
CCn1c(-c2cc[nH+]cc2F)nc2cncc(CNCc3cccnc3)c21

>  <Energy>  (38) 
99.18360883314888

>  <Genealogy>  (38) 
CCn1c(-c2cc[nH+]cc2F)nc2cncc(CNCc3cccnc3)c21 (protonated)
CCn1c(-c2cc[nH+]cc2F)nc2cncc(CNCc3cccnc3)c21 (3D coordinates assigned)
CCn1c(-c2cc[nH+]cc2F)nc2cncc(CNCc3cccnc3)c21 (optimized conformer: 99.18360883314888 kcal/mol)

>  <smiles>  (38) 
CCn1c(-c2ccncc2F)nc2cncc(CNCc3cccnc3)c21

>  <score_type>  (38) 
oracle

>  <origin>  (38) 
adg

>  <m_score__min__energy>  (38) 
-7.79

>  <m_primary>  (38) 
energy

$$$$
38:0
     RDKit          3D

 52 55  0  0  0  0  0  0  0  0999 V2000
   -5.7660   25.3810  -30.3220 C   0  0  0  0  0  0  0  0  0  0  0  0
   -4.8180   24.4420  -30.3980 C   0  0  0  0  0  0  0  0  0  0  0  0
   -4.8650   23.2080  -29.5380 C   0  0  0  0  0  0  0  0  0  0  0  0
   -3.6190   23.0620  -28.7520 N   0  0  0  0  0  0  0  0  0  0  0  0
   -3.3070   21.6540  -28.4220 C   0  0  0  0  0  0  0  0  0  0  0  0
   -2.7590   20.8690  -29.6350 C   0  0  0  0  0  0  0  0  0  0  0  0
   -1.8500   21.6660  -30.4960 N   0  0  0  0  0  0  0  0  0  0  0  0
   -2.3610   21.9300  -31.8640 C   0  0  0  0  0  0  0  0  0  0  0  0
   -1.9480   20.7900  -32.7980 C   0  0  0  0  0  0  0  0  0  0  0  0
   -2.9960   20.5080  -33.7830 N   0  0  0  0  0  0  0  0  0  0  0  0
   -3.9540   19.4350  -33.6710 C   0  0  0  0  0  0  0  0  0  0  0  0
   -3.6060   18.1070  -33.9870 C   0  0  0  0  0  0  0  0  0  0  0  0
   -4.5410   17.0790  -33.8630 C   0  0  0  0  0  0  0  0  0  0  0  0
   -5.8380   17.3530  -33.4270 C   0  0  0  0  0  0  0  0  0  0  0  0
   -6.2130   18.6690  -33.1080 C   0  0  0  0  0  0  0  0  0  0  0  0
   -7.5090   18.9840  -32.6590 C   0  0  0  0  0  0  0  0  0  0  0  0
   -8.3800   18.0780  -32.5360 O   0  0  0  0  0  0  0  0  0  0  0  0
   -7.8230   20.3180  -32.3470 C   0  0  0  0  0  0  0  0  0  0  0  0
   -9.0990   20.7000  -31.8900 C   0  0  0  0  0  0  0  0  0  0  0  0
   -9.3640   22.0400  -31.5890 C   0  0  0  0  0  0  0  0  0  0  0  0
   -8.3650   23.0060  -31.7430 C   0  0  0  0  0  0  0  0  0  0  0  0
   -7.0960   22.6380  -32.1950 C   0  0  0  0  0  0  0  0  0  0  0  0
   -6.8180   21.3000  -32.4990 C   0  0  0  0  0  0  0  0  0  0  0  0
   -5.6060   20.9630  -32.9260 O   0  0  0  0  0  0  0  0  0  0  0  0
   -5.2660   19.7140  -33.2340 C   0  0  0  0  0  0  0  0  0  0  0  0
   -1.3290   22.8740  -29.8270 C   0  0  0  0  0  0  0  0  0  0  0  0
   -2.4690   23.7940  -29.3470 C   0  0  0  0  0  0  0  0  0  0  0  0
   -5.7083   26.2739  -30.9619 H   0  0  0  0  0  0  0  0  0  0  0  0
   -6.6040   25.2610  -29.6196 H   0  0  0  0  0  0  0  0  0  0  0  0
   -3.9853   24.5740  -31.1045 H   0  0  0  0  0  0  0  0  0  0  0  0
   -5.7188   23.2823  -28.8484 H   0  0  0  0  0  0  0  0  0  0  0  0
   -4.9727   22.3294  -30.1910 H   0  0  0  0  0  0  0  0  0  0  0  0
   -2.5526   21.6382  -27.6216 H   0  0  0  0  0  0  0  0  0  0  0  0
   -4.2427   21.1698  -28.1057 H   0  0  0  0  0  0  0  0  0  0  0  0
   -2.2067   19.9938  -29.2623 H   0  0  0  0  0  0  0  0  0  0  0  0
   -3.6234   20.5854  -30.2534 H   0  0  0  0  0  0  0  0  0  0  0  0
   -3.4584   22.0012  -31.8370 H   0  0  0  0  0  0  0  0  0  0  0  0
   -1.9384   22.8756  -32.2345 H   0  0  0  0  0  0  0  0  0  0  0  0
   -1.0260   21.0746  -33.3261 H   0  0  0  0  0  0  0  0  0  0  0  0
   -1.7844   19.8855  -32.1937 H   0  0  0  0  0  0  0  0  0  0  0  0
   -3.0720   21.1690  -34.5890 H   0  0  0  0  0  0  0  0  0  0  0  0
   -2.5877   17.8785  -34.3347 H   0  0  0  0  0  0  0  0  0  0  0  0
   -4.2541   16.0463  -34.1104 H   0  0  0  0  0  0  0  0  0  0  0  0
   -6.5689   16.5364  -33.3328 H   0  0  0  0  0  0  0  0  0  0  0  0
   -9.8885   19.9435  -31.7696 H   0  0  0  0  0  0  0  0  0  0  0  0
  -10.3612   22.3347  -31.2301 H   0  0  0  0  0  0  0  0  0  0  0  0
   -8.5793   24.0589  -31.5074 H   0  0  0  0  0  0  0  0  0  0  0  0
   -6.3128   23.4014  -32.3125 H   0  0  0  0  0  0  0  0  0  0  0  0
   -0.7267   22.5692  -28.9585 H   0  0  0  0  0  0  0  0  0  0  0  0
   -0.7188   23.4324  -30.5521 H   0  0  0  0  0  0  0  0  0  0  0  0
   -2.0649   24.4807  -28.5887 H   0  0  0  0  0  0  0  0  0  0  0  0
   -2.8492   24.3232  -30.2332 H   0  0  0  0  0  0  0  0  0  0  0  0
  1  2  2  0
  2  3  1  0
  3  4  1  0
  4  5  1  0
  5  6  1  0
  6  7  1  0
  7  8  1  0
  8  9  1  0
  9 10  1  0
 10 11  1  0
 11 12  2  0
 12 13  1  0
 13 14  2  0
 14 15  1  0
 15 16  1  0
 16 17  2  0
 16 18  1  0
 18 19  2  0
 19 20  1  0
 20 21  2  0
 21 22  1  0
 22 23  2  0
 23 24  1  0
 24 25  1  0
  7 26  1  0
 26 27  1  0
 27  4  1  0
 25 11  1  0
 25 15  2  0
 23 18  1  0
  1 28  1  0
  1 29  1  0
  2 30  1  0
  3 31  1  0
  3 32  1  0
  5 33  1  0
  5 34  1  0
  6 35  1  0
  6 36  1  0
  8 37  1  0
  8 38  1  0
  9 39  1  0
  9 40  1  0
 10 41  1  0
 12 42  1  0
 13 43  1  0
 14 44  1  0
 19 45  1  0
 20 46  1  0
 21 47  1  0
 22 48  1  0
 26 49  1  0
 26 50  1  0
 27 51  1  0
 27 52  1  0
M  END
>  <UniqueID>  (39) 
38

>  <SMILES>  (39) 
C=CCN1CCN(CCNc2cccc3c(=O)c4ccccc4oc23)CC1

>  <Energy>  (39) 
77.22792782061053

>  <Genealogy>  (39) 
C=CCN1CCN(CCNc2cccc3c(=O)c4ccccc4oc23)CC1 (3D coordinates assigned)
C=CCN1CCN(CCNc2cccc3c(=O)c4ccccc4oc23)CC1 (nonaromatic ring conformer: 77.22792782061053 kcal/mol)

>  <smiles>  (39) 
C=CCN1CCN(CCNc2cccc3c(=O)c4ccccc4oc23)CC1

>  <score_type>  (39) 
oracle

>  <origin>  (39) 
adg

>  <m_score__min__energy>  (39) 
-9.1500000000000004

>  <m_primary>  (39) 
energy

$$$$
39:0
     RDKit          3D

 52 55  0  0  0  0  0  0  0  0999 V2000
   -6.1170   18.3210  -34.8270 C   0  0  0  0  0  0  0  0  0  0  0  0
   -5.3180   17.1960  -34.1720 C   0  0  0  0  0  0  0  0  0  0  0  0
   -3.9890   17.6950  -33.5910 C   0  0  0  0  0  0  0  0  0  0  0  0
   -3.6710   19.0420  -34.0930 N   0  0  0  0  0  0  0  0  0  0  0  0
   -2.3060   19.4740  -33.7390 C   0  0  0  0  0  0  0  0  0  0  0  0
   -2.2430   20.9530  -33.3090 C   0  0  0  0  0  0  0  0  0  0  0  0
   -2.8100   21.1820  -31.9540 N   0  0  0  0  0  0  0  0  0  0  0  0
   -1.9990   22.2140  -31.2710 C   0  0  0  0  0  0  0  0  0  0  0  0
   -2.5740   22.5450  -29.9030 C   0  0  0  0  0  0  0  0  0  0  0  0
   -3.9410   23.1130  -30.0910 C   0  0  0  0  0  0  0  0  0  0  0  0
   -4.4300   24.0870  -29.2100 C   0  0  0  0  0  0  0  0  0  0  0  0
   -5.7220   24.5850  -29.3680 C   0  0  0  0  0  0  0  0  0  0  0  0
   -6.5350   24.1070  -30.3940 C   0  0  0  0  0  0  0  0  0  0  0  0
   -6.0600   23.1260  -31.2820 C   0  0  0  0  0  0  0  0  0  0  0  0
   -4.7470   22.6310  -31.1390 C   0  0  0  0  0  0  0  0  0  0  0  0
   -4.2880   21.4480  -31.9860 C   0  0  2  0  0  0  0  0  0  0  0  0
   -5.0300   20.2100  -31.4480 C   0  0  0  0  0  0  0  0  0  0  0  0
   -6.5150   20.0860  -31.7800 C   0  0  0  0  0  0  0  0  0  0  0  0
   -7.0560   18.7920  -31.6300 C   0  0  0  0  0  0  0  0  0  0  0  0
   -8.4120   18.5440  -31.8300 C   0  0  0  0  0  0  0  0  0  0  0  0
   -9.2660   19.5840  -32.1740 C   0  0  0  0  0  0  0  0  0  0  0  0
   -8.7690   20.8780  -32.3170 C   0  0  0  0  0  0  0  0  0  0  0  0
   -7.4030   21.1630  -32.1100 C   0  0  0  0  0  0  0  0  0  0  0  0
   -6.9630   22.5930  -32.3620 C   0  0  0  0  0  0  0  0  0  0  0  0
   -6.5663   18.9536  -34.0473 H   0  0  0  0  0  0  0  0  0  0  0  0
   -5.4478   18.9298  -35.4527 H   0  0  0  0  0  0  0  0  0  0  0  0
   -6.9123   17.8897  -35.4527 H   0  0  0  0  0  0  0  0  0  0  0  0
   -5.9188   16.7604  -33.3600 H   0  0  0  0  0  0  0  0  0  0  0  0
   -5.0900   16.4477  -34.9453 H   0  0  0  0  0  0  0  0  0  0  0  0
   -4.0647   17.7277  -32.4941 H   0  0  0  0  0  0  0  0  0  0  0  0
   -3.1889   17.0061  -33.8996 H   0  0  0  0  0  0  0  0  0  0  0  0
   -4.3740   19.7170  -33.7140 H   0  0  0  0  0  0  0  0  0  0  0  0
   -1.9437   18.8503  -32.9085 H   0  0  0  0  0  0  0  0  0  0  0  0
   -1.6788   19.3616  -34.6357 H   0  0  0  0  0  0  0  0  0  0  0  0
   -1.1911   21.2749  -33.3092 H   0  0  0  0  0  0  0  0  0  0  0  0
   -2.8463   21.5323  -34.0235 H   0  0  0  0  0  0  0  0  0  0  0  0
   -0.9717   21.8405  -31.1481 H   0  0  0  0  0  0  0  0  0  0  0  0
   -2.0075   23.1274  -31.8839 H   0  0  0  0  0  0  0  0  0  0  0  0
   -2.6321   21.6311  -29.2935 H   0  0  0  0  0  0  0  0  0  0  0  0
   -1.9298   23.2733  -29.3886 H   0  0  0  0  0  0  0  0  0  0  0  0
   -3.7937   24.4587  -28.3933 H   0  0  0  0  0  0  0  0  0  0  0  0
   -6.1007   25.3567  -28.6817 H   0  0  0  0  0  0  0  0  0  0  0  0
   -7.5558   24.5001  -30.5099 H   0  0  0  0  0  0  0  0  0  0  0  0
   -4.5165   21.6811  -33.0365 H   0  0  0  0  0  0  0  0  0  0  0  0
   -4.5253   19.3203  -31.8526 H   0  0  0  0  0  0  0  0  0  0  0  0
   -4.9923   20.3111  -30.3533 H   0  0  0  0  0  0  0  0  0  0  0  0
   -6.3927   17.9607  -31.3490 H   0  0  0  0  0  0  0  0  0  0  0  0
   -8.8068   17.5237  -31.7154 H   0  0  0  0  0  0  0  0  0  0  0  0
  -10.3362   19.3859  -32.3338 H   0  0  0  0  0  0  0  0  0  0  0  0
   -9.4542   21.6919  -32.5963 H   0  0  0  0  0  0  0  0  0  0  0  0
   -6.4245   22.6310  -33.3204 H   0  0  0  0  0  0  0  0  0  0  0  0
   -7.8671   23.2194  -32.3759 H   0  0  0  0  0  0  0  0  0  0  0  0
  1  2  1  0
  2  3  1  0
  3  4  1  0
  4  5  1  0
  5  6  1  0
  6  7  1  0
  7  8  1  0
  8  9  1  0
  9 10  1  0
 10 11  2  0
 11 12  1  0
 12 13  2  0
 13 14  1  0
 14 15  2  0
 15 16  1  0
 16 17  1  0
 17 18  1  0
 18 19  2  0
 19 20  1  0
 20 21  2  0
 21 22  1  0
 22 23  2  0
 23 24  1  0
 16  7  1  0
 23 18  1  0
 15 10  1  0
 24 14  1  0
  1 25  1  0
  1 26  1  0
  1 27  1  0
  2 28  1  0
  2 29  1  0
  3 30  1  0
  3 31  1  0
  4 32  1  0
  5 33  1  0
  5 34  1  0
  6 35  1  0
  6 36  1  0
  8 37  1  0
  8 38  1  0
  9 39  1  0
  9 40  1  0
 11 41  1  0
 12 42  1  0
 13 43  1  0
 16 44  1  6
 17 45  1  0
 17 46  1  0
 19 47  1  0
 20 48  1  0
 21 49  1  0
 22 50  1  0
 24 51  1  0
 24 52  1  0
M  END
>  <UniqueID>  (40) 
39

>  <SMILES>  (40) 
CCCNCCN1CCc2cccc3c2[C@@H]1Cc1ccccc1C3

>  <Energy>  (40) 
73.35902270871527

>  <Genealogy>  (40) 
CCCNCCN1CCc2cccc3c2[C@@H]1Cc1ccccc1C3 (chirality)
CCCNCCN1CCc2cccc3c2[C@@H]1Cc1ccccc1C3 (3D coordinates assigned)
CCCNCCN1CCc2cccc3c2[C@@H]1Cc1ccccc1C3 (nonaromatic ring conformer: 73.35902270871527 kcal/mol)

>  <smiles>  (40) 
CCCNCCN1CCc2cccc3c2C1Cc1ccccc1C3

>  <score_type>  (40) 
oracle

>  <origin>  (40) 
adg

>  <m_score__min__energy>  (40) 
-8.1799999999999997

>  <m_primary>  (40) 
energy

$$$$
