0:0
     RDKit          3D

 47 49  0  0  0  0  0  0  0  0999 V2000
   -2.0940   18.6260  -33.8580 C   0  0  0  0  0  0  0  0  0  0  0  0
   -2.7330   18.8350  -32.6230 O   0  0  0  0  0  0  0  0  0  0  0  0
   -2.9220   20.1080  -32.1080 C   0  0  0  0  0  0  0  0  0  0  0  0
   -3.5890   21.0060  -32.9500 C   0  0  0  0  0  0  0  0  0  0  0  0
   -3.8130   22.2970  -32.5040 C   0  0  0  0  0  0  0  0  0  0  0  0
   -3.3760   22.6660  -31.2410 C   0  0  0  0  0  0  0  0  0  0  0  0
   -3.6540   24.0000  -30.8800 O   0  0  0  0  0  0  0  0  0  0  0  0
   -4.4520   24.2180  -29.7350 C   0  0  0  0  0  0  0  0  0  0  0  0
   -5.7450   24.9510  -30.0540 C   0  0  0  0  0  0  0  0  0  0  0  0
   -6.8960   23.9660  -30.0800 C   0  0  0  0  0  0  0  0  0  0  0  0
   -7.4740   23.6670  -31.7550 S   0  0  0  0  0  0  0  0  0  0  0  0
   -7.4930   21.9210  -32.1140 C   0  0  0  0  0  0  0  0  0  0  0  0
   -6.5440   21.1430  -32.6630 N   0  0  0  0  0  0  0  0  0  0  0  0
   -7.0430   19.8920  -32.7270 C   0  0  0  0  0  0  0  0  0  0  0  0
   -6.4040   18.6780  -33.2410 C   0  0  0  0  0  0  0  0  0  0  0  0
   -6.3650   17.4980  -32.4880 C   0  0  0  0  0  0  0  0  0  0  0  0
   -5.7690   16.3500  -32.9520 C   0  0  0  0  0  0  0  0  0  0  0  0
   -5.1770   16.2920  -34.1830 C   0  0  0  0  0  0  0  0  0  0  0  0
   -5.2040   17.4520  -34.9460 C   0  0  0  0  0  0  0  0  0  0  0  0
   -5.8060   18.6190  -34.4830 C   0  0  0  0  0  0  0  0  0  0  0  0
   -8.3280   19.8790  -32.2100 C   0  0  0  0  0  0  0  0  0  0  0  0
   -8.5790   21.1460  -31.8400 N   0  0  0  0  0  0  0  0  0  0  0  0
   -9.8380   21.5790  -31.2370 C   0  0  0  0  0  0  0  0  0  0  0  0
   -2.7200   21.8050  -30.3950 C   0  0  0  0  0  0  0  0  0  0  0  0
   -2.4970   20.4990  -30.8570 C   0  0  0  0  0  0  0  0  0  0  0  0
   -1.0616   18.2883  -33.6842 H   0  0  0  0  0  0  0  0  0  0  0  0
   -2.6394   17.8594  -34.4280 H   0  0  0  0  0  0  0  0  0  0  0  0
   -2.0810   19.5667  -34.4280 H   0  0  0  0  0  0  0  0  0  0  0  0
   -3.9288   20.6913  -33.9477 H   0  0  0  0  0  0  0  0  0  0  0  0
   -4.3329   23.0236  -33.1457 H   0  0  0  0  0  0  0  0  0  0  0  0
   -4.7003   23.2440  -29.2881 H   0  0  0  0  0  0  0  0  0  0  0  0
   -3.8747   24.8474  -29.0417 H   0  0  0  0  0  0  0  0  0  0  0  0
   -5.9331   25.7132  -29.2835 H   0  0  0  0  0  0  0  0  0  0  0  0
   -5.6568   25.4350  -31.0379 H   0  0  0  0  0  0  0  0  0  0  0  0
   -6.5608   23.0139  -29.6428 H   0  0  0  0  0  0  0  0  0  0  0  0
   -7.7275   24.3935  -29.5005 H   0  0  0  0  0  0  0  0  0  0  0  0
   -6.8277   17.4897  -31.4901 H   0  0  0  0  0  0  0  0  0  0  0  0
   -5.7682   15.4529  -32.3154 H   0  0  0  0  0  0  0  0  0  0  0  0
   -4.7021   15.3707  -34.5514 H   0  0  0  0  0  0  0  0  0  0  0  0
   -4.7376   17.4488  -35.9422 H   0  0  0  0  0  0  0  0  0  0  0  0
   -5.8048   19.5144  -35.1220 H   0  0  0  0  0  0  0  0  0  0  0  0
   -9.0012   19.0136  -32.1211 H   0  0  0  0  0  0  0  0  0  0  0  0
   -9.7492   21.5485  -30.1410 H   0  0  0  0  0  0  0  0  0  0  0  0
  -10.0641   22.6065  -31.5581 H   0  0  0  0  0  0  0  0  0  0  0  0
  -10.6483   20.9079  -31.5581 H   0  0  0  0  0  0  0  0  0  0  0  0
   -2.3839   22.1258  -29.3979 H   0  0  0  0  0  0  0  0  0  0  0  0
   -1.9755   19.7771  -30.2113 H   0  0  0  0  0  0  0  0  0  0  0  0
  1  2  1  0
  2  3  1  0
  3  4  2  0
  4  5  1  0
  5  6  2  0
  6  7  1  0
  7  8  1  0
  8  9  1  0
  9 10  1  0
 10 11  1  0
 11 12  1  0
 12 13  2  0
 13 14  1  0
 14 15  1  0
 15 16  2  0
 16 17  1  0
 17 18  2  0
 18 19  1  0
 19 20  2  0
 14 21  2  0
 21 22  1  0
 22 23  1  0
  6 24  1  0
 24 25  2  0
 25  3  1  0
 22 12  1  0
 20 15  1  0
  1 26  1  0
  1 27  1  0
  1 28  1  0
  4 29  1  0
  5 30  1  0
  8 31  1  0
  8 32  1  0
  9 33  1  0
  9 34  1  0
 10 35  1  0
 10 36  1  0
 16 37  1  0
 17 38  1  0
 18 39  1  0
 19 40  1  0
 20 41  1  0
 21 42  1  0
 23 43  1  0
 23 44  1  0
 23 45  1  0
 24 46  1  0
 25 47  1  0
M  END
>  <smiles>  (1) 
COc1ccc(OCCCSc2nc(-c3ccccc3)cn2C)cc1

>  <score_type>  (1) 
oracle

>  <origin>  (1) 
adg

>  <m_score__min__energy>  (1) 
-8.75

>  <m_primary>  (1) 
energy

$$$$
1:0
     RDKit          3D

 38 40  0  0  1  0  0  0  0  0999 V2000
   -5.3500   25.8600  -30.4680 C   0  0  0  0  0  0  0  0  0  0  0  0
   -4.0500   25.3320  -30.5900 O   0  0  0  0  0  0  0  0  0  0  0  0
   -3.6540   24.3620  -29.6870 C   0  0  0  0  0  0  0  0  0  0  0  0
   -2.5200   24.5780  -28.8930 C   0  0  0  0  0  0  0  0  0  0  0  0
   -2.0780   23.6450  -27.9820 C   0  0  0  0  0  0  0  0  0  0  0  0
   -2.8080   22.4780  -27.8830 C   0  0  0  0  0  0  0  0  0  0  0  0
   -3.9220   22.2630  -28.6590 C   0  0  0  0  0  0  0  0  0  0  0  0
   -4.3860   23.2030  -29.5910 C   0  0  0  0  0  0  0  0  0  0  0  0
   -5.6000   22.8630  -30.3140 C   0  0  0  0  0  0  0  0  0  0  0  0
   -5.3820   22.5230  -31.7350 C   0  0  1  0  0  0  0  0  0  0  0  0
   -3.9440   22.2340  -32.0360 C   0  0  0  0  0  0  0  0  0  0  0  0
   -3.8290   21.7890  -33.4350 N   0  0  0  0  0  0  0  0  0  0  0  0
   -4.2160   20.3780  -33.3920 C   0  0  0  0  0  0  0  0  0  0  0  0
   -5.6310   20.3320  -32.9280 C   0  0  0  0  0  0  0  0  0  0  0  0
   -6.2010   21.3210  -32.1540 C   0  0  0  0  0  0  0  0  0  0  0  0
   -7.5070   20.9430  -31.9230 C   0  0  0  0  0  0  0  0  0  0  0  0
   -7.7170   19.7640  -32.5370 N   0  0  0  0  0  0  0  0  0  0  0  0
   -6.6020   19.4000  -33.1360 N   0  0  0  0  0  0  0  0  0  0  0  0
   -6.4750   18.1620  -33.9030 C   0  0  0  0  0  0  0  0  0  0  0  0
   -5.6052   25.9637  -29.4030 H   0  0  0  0  0  0  0  0  0  0  0  0
   -5.3921   26.8465  -30.9528 H   0  0  0  0  0  0  0  0  0  0  0  0
   -6.0680   25.1822  -30.9528 H   0  0  0  0  0  0  0  0  0  0  0  0
   -1.9657   25.5220  -29.0008 H   0  0  0  0  0  0  0  0  0  0  0  0
   -1.1860   23.8213  -27.3629 H   0  0  0  0  0  0  0  0  0  0  0  0
   -2.4918   21.7039  -27.1683 H   0  0  0  0  0  0  0  0  0  0  0  0
   -4.4711   21.3167  -28.5446 H   0  0  0  0  0  0  0  0  0  0  0  0
   -6.0654   21.9976  -29.8195 H   0  0  0  0  0  0  0  0  0  0  0  0
   -6.2397   23.7577  -30.2970 H   0  0  0  0  0  0  0  0  0  0  0  0
   -5.7004   23.4100  -32.3022 H   0  0  0  0  0  0  0  0  0  0  0  0
   -3.3456   23.1450  -31.8880 H   0  0  0  0  0  0  0  0  0  0  0  0
   -3.5736   21.4466  -31.3631 H   0  0  0  0  0  0  0  0  0  0  0  0
   -4.6210   22.2680  -33.9480 H   0  0  0  0  0  0  0  0  0  0  0  0
   -4.1316   19.9318  -34.3939 H   0  0  0  0  0  0  0  0  0  0  0  0
   -3.5607   19.8102  -32.7151 H   0  0  0  0  0  0  0  0  0  0  0  0
   -8.2484   21.5073  -31.3383 H   0  0  0  0  0  0  0  0  0  0  0  0
   -6.3876   17.3102  -33.2125 H   0  0  0  0  0  0  0  0  0  0  0  0
   -7.3644   18.0305  -34.5368 H   0  0  0  0  0  0  0  0  0  0  0  0
   -5.5775   18.2138  -34.5368 H   0  0  0  0  0  0  0  0  0  0  0  0
  1  2  1  0
  2  3  1  0
  3  4  2  0
  4  5  1  0
  5  6  2  0
  6  7  1  0
  7  8  2  0
  8  9  1  0
  9 10  1  0
 10 11  1  0
 11 12  1  0
 12 13  1  0
 13 14  1  0
 14 15  2  0
 15 16  1  0
 16 17  2  0
 17 18  1  0
 18 19  1  0
  8  3  1  0
 15 10  1  0
 18 14  1  0
  1 20  1  0
  1 21  1  0
  1 22  1  0
  4 23  1  0
  5 24  1  0
  6 25  1  0
  7 26  1  0
  9 27  1  0
  9 28  1  0
 10 29  1  6
 11 30  1  0
 11 31  1  0
 12 32  1  0
 13 33  1  0
 13 34  1  0
 16 35  1  0
 19 36  1  0
 19 37  1  0
 19 38  1  0
M  END
>  <smiles>  (2) 
COc1ccccc1CC1CNCc2c1cnn2C

>  <score_type>  (2) 
oracle

>  <origin>  (2) 
adg

>  <m_score__min__energy>  (2) 
-7.7000000000000002

>  <m_primary>  (2) 
energy

$$$$
2:0
     RDKit          3D

 52 53  0  0  0  0  0  0  0  0999 V2000
   -2.7140   25.2210  -26.3850 C   0  0  0  0  0  0  0  0  0  0  0  0
   -3.8900   24.5390  -27.0170 C   0  0  0  0  0  0  0  0  0  0  0  0
   -3.4590   23.7100  -28.2320 C   0  0  0  0  0  0  0  0  0  0  0  0
   -2.8270   24.5880  -29.2670 C   0  0  0  0  0  0  0  0  0  0  0  0
   -3.6080   24.7260  -30.4370 O   0  0  0  0  0  0  0  0  0  0  0  0
   -4.9760   24.7130  -30.4560 C   0  0  0  0  0  0  0  0  0  0  0  0
   -5.6380   25.7880  -30.4740 O   0  0  0  0  0  0  0  0  0  0  0  0
   -5.6360   23.4500  -30.4520 N   0  0  0  0  0  0  0  0  0  0  0  0
   -4.9200   22.1920  -30.4310 C   0  0  0  0  0  0  0  0  0  0  0  0
   -5.2280   21.3110  -31.6150 C   0  0  0  0  0  0  0  0  0  0  0  0
   -6.6480   21.5600  -32.0380 C   0  0  0  0  0  0  0  0  0  0  0  0
   -7.2320   20.4790  -32.7710 N   0  0  0  0  0  0  0  0  0  0  0  0
   -6.4560   20.0080  -33.8410 C   0  0  0  0  0  0  0  0  0  0  0  0
   -6.0420   18.5810  -33.6880 C   0  0  0  0  0  0  0  0  0  0  0  0
   -7.2090   17.7770  -33.4640 N   0  0  0  0  0  0  0  0  0  0  0  0
   -6.7430   16.4100  -33.2720 C   0  0  0  0  0  0  0  0  0  0  0  0
   -5.5690   16.3750  -32.3050 C   0  0  0  0  0  0  0  0  0  0  0  0
   -7.9680   18.1580  -32.3090 C   0  0  0  0  0  0  0  0  0  0  0  0
   -8.1060   19.6220  -32.0970 C   0  0  0  0  0  0  0  0  0  0  0  0
   -7.4780   21.9280  -30.8340 C   0  0  0  0  0  0  0  0  0  0  0  0
   -7.1000   23.3600  -30.4710 C   0  0  0  0  0  0  0  0  0  0  0  0
   -2.8046   25.1685  -25.2900 H   0  0  0  0  0  0  0  0  0  0  0  0
   -1.7867   24.7205  -26.7006 H   0  0  0  0  0  0  0  0  0  0  0  0
   -2.6878   26.2744  -26.7006 H   0  0  0  0  0  0  0  0  0  0  0  0
   -4.3604   23.8746  -26.2772 H   0  0  0  0  0  0  0  0  0  0  0  0
   -4.6011   25.3080  -27.3529 H   0  0  0  0  0  0  0  0  0  0  0  0
   -2.7334   22.9479  -27.9115 H   0  0  0  0  0  0  0  0  0  0  0  0
   -4.3468   23.2282  -28.6675 H   0  0  0  0  0  0  0  0  0  0  0  0
   -2.6725   25.5860  -28.8309 H   0  0  0  0  0  0  0  0  0  0  0  0
   -1.8798   24.1129  -29.5623 H   0  0  0  0  0  0  0  0  0  0  0  0
   -3.8407   22.4045  -30.4253 H   0  0  0  0  0  0  0  0  0  0  0  0
   -5.2403   21.6497  -29.5292 H   0  0  0  0  0  0  0  0  0  0  0  0
   -4.5462   21.5518  -32.4440 H   0  0  0  0  0  0  0  0  0  0  0  0
   -5.0959   20.2535  -31.3424 H   0  0  0  0  0  0  0  0  0  0  0  0
   -6.6312   22.4030  -32.7445 H   0  0  0  0  0  0  0  0  0  0  0  0
   -7.0427   20.1039  -34.7665 H   0  0  0  0  0  0  0  0  0  0  0  0
   -5.5374   20.6125  -33.8678 H   0  0  0  0  0  0  0  0  0  0  0  0
   -5.5327   18.2447  -34.6031 H   0  0  0  0  0  0  0  0  0  0  0  0
   -5.3543   18.4832  -32.8351 H   0  0  0  0  0  0  0  0  0  0  0  0
   -7.5645   15.8018  -32.8654 H   0  0  0  0  0  0  0  0  0  0  0  0
   -6.4155   16.0076  -34.2419 H   0  0  0  0  0  0  0  0  0  0  0  0
   -5.9449   16.3862  -31.2713 H   0  0  0  0  0  0  0  0  0  0  0  0
   -4.9834   15.4590  -32.4723 H   0  0  0  0  0  0  0  0  0  0  0  0
   -4.9298   17.2545  -32.4723 H   0  0  0  0  0  0  0  0  0  0  0  0
   -8.9772   17.7321  -32.4094 H   0  0  0  0  0  0  0  0  0  0  0  0
   -7.4137   17.7748  -31.4396 H   0  0  0  0  0  0  0  0  0  0  0  0
   -9.1275   19.8986  -32.3969 H   0  0  0  0  0  0  0  0  0  0  0  0
   -7.8572   19.7647  -31.0351 H   0  0  0  0  0  0  0  0  0  0  0  0
   -8.5490   21.8675  -31.0775 H   0  0  0  0  0  0  0  0  0  0  0  0
   -7.2899   21.2414  -29.9954 H   0  0  0  0  0  0  0  0  0  0  0  0
   -7.5073   24.0551  -31.2199 H   0  0  0  0  0  0  0  0  0  0  0  0
   -7.5126   23.6270  -29.4869 H   0  0  0  0  0  0  0  0  0  0  0  0
  1  2  1  0
  2  3  1  0
  3  4  1  0
  4  5  1  0
  5  6  1  0
  6  7  2  0
  6  8  1  0
  8  9  1  0
  9 10  1  0
 10 11  1  0
 11 12  1  0
 12 13  1  0
 13 14  1  0
 14 15  1  0
 15 16  1  0
 16 17  1  0
 15 18  1  0
 18 19  1  0
 11 20  1  0
 20 21  1  0
 21  8  1  0
 19 12  1  0
  1 22  1  0
  1 23  1  0
  1 24  1  0
  2 25  1  0
  2 26  1  0
  3 27  1  0
  3 28  1  0
  4 29  1  0
  4 30  1  0
  9 31  1  0
  9 32  1  0
 10 33  1  0
 10 34  1  0
 11 35  1  0
 13 36  1  0
 13 37  1  0
 14 38  1  0
 14 39  1  0
 16 40  1  0
 16 41  1  0
 17 42  1  0
 17 43  1  0
 17 44  1  0
 18 45  1  0
 18 46  1  0
 19 47  1  0
 19 48  1  0
 20 49  1  0
 20 50  1  0
 21 51  1  0
 21 52  1  0
M  END
>  <smiles>  (3) 
CCCCOC(=O)N1CCC(N2CCN(CC)CC2)CC1

>  <score_type>  (3) 
oracle

>  <origin>  (3) 
adg

>  <m_score__min__energy>  (3) 
-7.9199999999999999

>  <m_primary>  (3) 
energy

$$$$
4:0
     RDKit          3D

 97100  0  0  0  0  0  0  0  0999 V2000
   -3.0500   20.8600  -29.4130 C   0  0  0  0  0  0  0  0  0  0  0  0
   -2.7970   21.3330  -28.0070 C   0  0  0  0  0  0  0  0  0  0  0  0
   -1.4630   21.0840  -27.5590 N   0  0  0  0  0  0  0  0  0  0  0  0
   -1.5640   20.2470  -26.3450 C   0  0  0  0  0  0  0  0  0  0  0  0
   -2.4120   19.0330  -26.6290 C   0  0  0  0  0  0  0  0  0  0  0  0
   -0.6740   22.2220  -27.2070 C   0  0  0  0  0  0  0  0  0  0  0  0
    0.2190   22.7760  -28.2510 C   0  0  0  0  0  0  0  0  0  0  0  0
    0.1150   24.0730  -28.6040 O   0  0  0  0  0  0  0  0  0  0  0  0
   -0.1090   25.0120  -27.6460 C   0  0  0  0  0  0  0  0  0  0  0  0
   -1.4450   25.7100  -27.7120 C   0  0  0  0  0  0  0  0  0  0  0  0
   -2.0580   25.6330  -28.9650 O   0  0  0  0  0  0  0  0  0  0  0  0
   -2.6390   24.4450  -29.0900 N   0  0  0  0  0  0  0  0  0  0  0  0
   -3.3580   24.1820  -30.2840 C   0  0  0  0  0  0  0  0  0  0  0  0
   -4.7740   23.7200  -30.1190 C   0  0  0  0  0  0  0  0  0  0  0  0
   -5.4160   23.4730  -31.3930 N   0  0  0  0  0  0  0  0  0  0  0  0
   -5.6260   22.1960  -31.9510 C   0  0  0  0  0  0  0  0  0  0  0  0
   -6.9100   21.7040  -31.9660 C   0  0  0  0  0  0  0  0  0  0  0  0
   -7.9330   22.4570  -31.4360 C   0  0  0  0  0  0  0  0  0  0  0  0
   -9.2340   21.9820  -31.4450 C   0  0  0  0  0  0  0  0  0  0  0  0
   -9.4740   20.7340  -32.0020 C   0  0  0  0  0  0  0  0  0  0  0  0
   -8.4250   19.9800  -32.5360 C   0  0  0  0  0  0  0  0  0  0  0  0
   -7.1300   20.4440  -32.5310 C   0  0  0  0  0  0  0  0  0  0  0  0
   -6.1500   19.6990  -33.0550 N   0  0  0  0  0  0  0  0  0  0  0  0
   -6.3240   18.3950  -33.6330 C   0  0  0  0  0  0  0  0  0  0  0  0
   -4.8720   20.1870  -33.0420 C   0  0  0  0  0  0  0  0  0  0  0  0
   -3.8120   19.4960  -33.5690 C   0  0  0  0  0  0  0  0  0  0  0  0
   -2.5090   19.9850  -33.5720 C   0  0  0  0  0  0  0  0  0  0  0  0
   -1.4520   19.2410  -34.1280 O   0  0  0  0  0  0  0  0  0  0  0  0
   -0.1720   19.7720  -33.9710 C   0  0  0  0  0  0  0  0  0  0  0  0
    0.8190   18.9110  -33.2740 C   0  0  0  0  0  0  0  0  0  0  0  0
    0.4690   18.4550  -31.9700 N   0  0  0  0  0  0  0  0  0  0  0  0
   -0.5070   17.3740  -32.0190 C   0  0  0  0  0  0  0  0  0  0  0  0
    1.6690   17.8930  -31.3740 C   0  0  0  0  0  0  0  0  0  0  0  0
    2.0970   18.5680  -30.1100 C   0  0  0  0  0  0  0  0  0  0  0  0
    1.0170   18.6590  -29.1660 N   0  0  0  0  0  0  0  0  0  0  0  0
    0.7010   17.3910  -28.5430 C   0  0  0  0  0  0  0  0  0  0  0  0
    1.5130   19.5130  -28.0710 C   0  0  0  0  0  0  0  0  0  0  0  0
   -0.1750   19.2190  -29.7260 C   0  0  0  0  0  0  0  0  0  0  0  0
   -0.0340   19.5700  -31.1840 C   0  0  0  0  0  0  0  0  0  0  0  0
   -2.2470   21.2210  -33.0260 C   0  0  0  0  0  0  0  0  0  0  0  0
   -3.3110   21.9160  -32.4960 C   0  0  0  0  0  0  0  0  0  0  0  0
   -4.6050   21.4440  -32.4860 C   0  0  0  0  0  0  0  0  0  0  0  0
   -3.5687   19.8903  -29.3859 H   0  0  0  0  0  0  0  0  0  0  0  0
   -3.6751   21.5956  -29.9404 H   0  0  0  0  0  0  0  0  0  0  0  0
   -2.0912   20.7483  -29.9404 H   0  0  0  0  0  0  0  0  0  0  0  0
   -2.9834   22.4162  -27.9640 H   0  0  0  0  0  0  0  0  0  0  0  0
   -3.4732   20.7699  -27.3469 H   0  0  0  0  0  0  0  0  0  0  0  0
   -0.5576   19.9256  -26.0386 H   0  0  0  0  0  0  0  0  0  0  0  0
   -2.0284   20.8330  -25.5382 H   0  0  0  0  0  0  0  0  0  0  0  0
   -2.7301   18.5777  -25.6795 H   0  0  0  0  0  0  0  0  0  0  0  0
   -3.2986   19.3322  -27.2073 H   0  0  0  0  0  0  0  0  0  0  0  0
   -1.8260   18.3035  -27.2073 H   0  0  0  0  0  0  0  0  0  0  0  0
   -1.3648   23.0225  -26.9036 H   0  0  0  0  0  0  0  0  0  0  0  0
    0.0020   21.8646  -26.4163 H   0  0  0  0  0  0  0  0  0  0  0  0
    1.2506   22.6231  -27.9012 H   0  0  0  0  0  0  0  0  0  0  0  0
   -0.0892   22.2393  -29.1604 H   0  0  0  0  0  0  0  0  0  0  0  0
   -0.0337   24.5189  -26.6656 H   0  0  0  0  0  0  0  0  0  0  0  0
    0.6460   25.7946  -27.8117 H   0  0  0  0  0  0  0  0  0  0  0  0
   -2.1139   25.2504  -26.9694 H   0  0  0  0  0  0  0  0  0  0  0  0
   -1.2612   26.7754  -27.5092 H   0  0  0  0  0  0  0  0  0  0  0  0
   -2.0370   23.6680  -28.7600 H   0  0  0  0  0  0  0  0  0  0  0  0
   -3.3749   25.1090  -30.8760 H   0  0  0  0  0  0  0  0  0  0  0  0
   -2.8309   23.3450  -30.7651 H   0  0  0  0  0  0  0  0  0  0  0  0
   -4.7778   22.7891  -29.5330 H   0  0  0  0  0  0  0  0  0  0  0  0
   -5.3333   24.5158  -29.6054 H   0  0  0  0  0  0  0  0  0  0  0  0
   -5.7430   24.2990  -31.9290 H   0  0  0  0  0  0  0  0  0  0  0  0
   -7.7156   23.4440  -31.0018 H   0  0  0  0  0  0  0  0  0  0  0  0
  -10.0555   22.5785  -31.0216 H   0  0  0  0  0  0  0  0  0  0  0  0
  -10.4987   20.3345  -32.0235 H   0  0  0  0  0  0  0  0  0  0  0  0
   -8.6401   18.9925  -32.9704 H   0  0  0  0  0  0  0  0  0  0  0  0
   -6.4236   17.6488  -32.8310 H   0  0  0  0  0  0  0  0  0  0  0  0
   -7.2311   18.3878  -34.2552 H   0  0  0  0  0  0  0  0  0  0  0  0
   -5.4506   18.1502  -34.2552 H   0  0  0  0  0  0  0  0  0  0  0  0
   -4.0004   18.5066  -34.0112 H   0  0  0  0  0  0  0  0  0  0  0  0
    0.2236   19.9941  -34.9731 H   0  0  0  0  0  0  0  0  0  0  0  0
   -0.2983   20.6539  -33.3258 H   0  0  0  0  0  0  0  0  0  0  0  0
    0.9895   18.0242  -33.9021 H   0  0  0  0  0  0  0  0  0  0  0  0
    1.7029   19.5493  -33.1282 H   0  0  0  0  0  0  0  0  0  0  0  0
   -0.7759   17.0761  -30.9948 H   0  0  0  0  0  0  0  0  0  0  0  0
   -1.4075   17.7168  -32.5496 H   0  0  0  0  0  0  0  0  0  0  0  0
   -0.0743   16.5131  -32.5496 H   0  0  0  0  0  0  0  0  0  0  0  0
    1.4803   16.8322  -31.1523 H   0  0  0  0  0  0  0  0  0  0  0  0
    2.4816   18.0371  -32.1013 H   0  0  0  0  0  0  0  0  0  0  0  0
    2.9181   17.9921  -29.6583 H   0  0  0  0  0  0  0  0  0  0  0  0
    2.4229   19.5887  -30.3588 H   0  0  0  0  0  0  0  0  0  0  0  0
    0.7289   17.5029  -27.4491 H   0  0  0  0  0  0  0  0  0  0  0  0
   -0.3045   17.0705  -28.8533 H   0  0  0  0  0  0  0  0  0  0  0  0
    1.4385   16.6361  -28.8533 H   0  0  0  0  0  0  0  0  0  0  0  0
    1.2495   19.0594  -27.1041 H   0  0  0  0  0  0  0  0  0  0  0  0
    2.6064   19.6073  -28.1460 H   0  0  0  0  0  0  0  0  0  0  0  0
    1.0531   20.5094  -28.1460 H   0  0  0  0  0  0  0  0  0  0  0  0
   -0.9894   18.4873  -29.6191 H   0  0  0  0  0  0  0  0  0  0  0  0
   -0.3860   20.1519  -29.1827 H   0  0  0  0  0  0  0  0  0  0  0  0
   -1.0195   19.8632  -31.5749 H   0  0  0  0  0  0  0  0  0  0  0  0
    0.6896   20.3945  -31.2649 H   0  0  0  0  0  0  0  0  0  0  0  0
   -1.2287   21.6368  -33.0135 H   0  0  0  0  0  0  0  0  0  0  0  0
   -3.1164   22.9049  -32.0553 H   0  0  0  0  0  0  0  0  0  0  0  0
  1  2  1  0
  2  3  1  0
  3  4  1  0
  4  5  1  0
  3  6  1  0
  6  7  1  0
  7  8  1  0
  8  9  1  0
  9 10  1  0
 10 11  1  0
 11 12  1  0
 12 13  1  0
 13 14  1  0
 14 15  1  0
 15 16  1  0
 16 17  2  0
 17 18  1  0
 18 19  2  0
 19 20  1  0
 20 21  2  0
 21 22  1  0
 22 23  2  0
 23 24  1  0
 23 25  1  0
 25 26  2  0
 26 27  1  0
 27 28  1  0
 28 29  1  0
 29 30  1  0
 30 31  1  0
 31 32  1  0
 31 33  1  0
 33 34  1  0
 34 35  1  0
 35 36  1  0
 35 37  1  0
 35 38  1  0
 38 39  1  0
 27 40  2  0
 40 41  1  0
 41 42  2  0
 42 16  1  0
 22 17  1  0
 42 25  1  0
 39 31  1  0
  1 43  1  0
  1 44  1  0
  1 45  1  0
  2 46  1  0
  2 47  1  0
  4 48  1  0
  4 49  1  0
  5 50  1  0
  5 51  1  0
  5 52  1  0
  6 53  1  0
  6 54  1  0
  7 55  1  0
  7 56  1  0
  9 57  1  0
  9 58  1  0
 10 59  1  0
 10 60  1  0
 12 61  1  0
 13 62  1  0
 13 63  1  0
 14 64  1  0
 14 65  1  0
 15 66  1  0
 18 67  1  0
 19 68  1  0
 20 69  1  0
 21 70  1  0
 24 71  1  0
 24 72  1  0
 24 73  1  0
 26 74  1  0
 29 75  1  0
 29 76  1  0
 30 77  1  0
 30 78  1  0
 32 79  1  0
 32 80  1  0
 32 81  1  0
 33 82  1  0
 33 83  1  0
 34 84  1  0
 34 85  1  0
 36 86  1  0
 36 87  1  0
 36 88  1  0
 37 89  1  0
 37 90  1  0
 37 91  1  0
 38 92  1  0
 38 93  1  0
 39 94  1  0
 39 95  1  0
 40 96  1  0
 41 97  1  0
M  CHG  3  23   1  31   1  35   1
M  END
>  <smiles>  (4) 
CCN(CC)CCOCCONCCNc1c2ccccc2[n+](C)c2cc(OCC[N+]3(C)CC[N+](C)(C)CC3)ccc12

>  <score_type>  (4) 
oracle

>  <origin>  (4) 
adg

>  <m_score__min__energy>  (4) 
-10.279999999999999

>  <m_primary>  (4) 
energy

$$$$
5:0
     RDKit          3D

 46 48  0  0  0  0  0  0  0  0999 V2000
   -1.1200   25.9810  -27.7200 C   0  0  0  0  0  0  0  0  0  0  0  0
   -1.6940   25.6670  -28.9690 O   0  0  0  0  0  0  0  0  0  0  0  0
   -2.1770   24.3650  -29.1680 C   0  0  0  0  0  0  0  0  0  0  0  0
   -1.4970   23.3320  -28.5970 C   0  0  0  0  0  0  0  0  0  0  0  0
   -1.9440   22.0410  -28.7710 C   0  0  0  0  0  0  0  0  0  0  0  0
   -1.1870   20.9400  -28.1390 C   0  0  0  0  0  0  0  0  0  0  0  0
   -3.0360   21.8470  -29.5020 N   0  0  0  0  0  0  0  0  0  0  0  0
   -3.7240   22.8590  -30.0770 C   0  0  0  0  0  0  0  0  0  0  0  0
   -3.3380   24.1730  -29.9450 C   0  0  0  0  0  0  0  0  0  0  0  0
   -3.9170   25.2650  -30.4510 O   0  0  0  0  0  0  0  0  0  0  0  0
   -5.1880   25.7760  -30.4740 C   0  0  0  0  0  0  0  0  0  0  0  0
   -6.1720   24.8650  -29.7880 C   0  0  0  0  0  0  0  0  0  0  0  0
   -7.0790   24.2430  -30.7360 N   0  0  0  0  0  0  0  0  0  0  0  0
   -6.4480   23.7840  -31.9410 C   0  0  0  0  0  0  0  0  0  0  0  0
   -6.7600   22.3280  -32.0540 C   0  0  0  0  0  0  0  0  0  0  0  0
   -7.9640   21.8220  -31.6780 N   0  0  0  0  0  0  0  0  0  0  0  0
   -7.9670   20.4890  -31.8880 C   0  0  0  0  0  0  0  0  0  0  0  0
   -8.9370   19.5350  -31.6710 C   0  0  0  0  0  0  0  0  0  0  0  0
   -8.6900   18.2130  -31.9730 C   0  0  0  0  0  0  0  0  0  0  0  0
   -7.4400   17.8880  -32.4990 C   0  0  0  0  0  0  0  0  0  0  0  0
   -6.4810   18.8600  -32.7090 C   0  0  0  0  0  0  0  0  0  0  0  0
   -6.7160   20.1880  -32.4090 C   0  0  0  0  0  0  0  0  0  0  0  0
   -5.9860   21.3260  -32.5060 N   0  0  0  0  0  0  0  0  0  0  0  0
   -4.6480   21.4480  -32.9940 C   0  0  0  0  0  0  0  0  0  0  0  0
   -1.7767   25.6218  -26.9140 H   0  0  0  0  0  0  0  0  0  0  0  0
   -0.1367   25.4952  -27.6358 H   0  0  0  0  0  0  0  0  0  0  0  0
   -0.9988   27.0711  -27.6358 H   0  0  0  0  0  0  0  0  0  0  0  0
   -0.5946   23.5281  -27.9994 H   0  0  0  0  0  0  0  0  0  0  0  0
   -1.2505   21.0323  -27.0447 H   0  0  0  0  0  0  0  0  0  0  0  0
   -1.6137   19.9753  -28.4510 H   0  0  0  0  0  0  0  0  0  0  0  0
   -0.1335   20.9930  -28.4510 H   0  0  0  0  0  0  0  0  0  0  0  0
   -4.6208   22.6243  -30.6691 H   0  0  0  0  0  0  0  0  0  0  0  0
   -5.1890   26.7500  -29.9628 H   0  0  0  0  0  0  0  0  0  0  0  0
   -5.4949   25.8796  -31.5252 H   0  0  0  0  0  0  0  0  0  0  0  0
   -5.6179   24.0779  -29.2557 H   0  0  0  0  0  0  0  0  0  0  0  0
   -6.7684   25.4690  -29.0884 H   0  0  0  0  0  0  0  0  0  0  0  0
   -7.6570   23.5020  -30.3240 H   0  0  0  0  0  0  0  0  0  0  0  0
   -6.8478   24.3270  -32.8101 H   0  0  0  0  0  0  0  0  0  0  0  0
   -5.3621   23.9574  -31.9127 H   0  0  0  0  0  0  0  0  0  0  0  0
   -9.9120   19.8293  -31.2553 H   0  0  0  0  0  0  0  0  0  0  0  0
   -9.4539   17.4396  -31.8046 H   0  0  0  0  0  0  0  0  0  0  0  0
   -7.2141   16.8413  -32.7506 H   0  0  0  0  0  0  0  0  0  0  0  0
   -5.5054   18.5692  -33.1257 H   0  0  0  0  0  0  0  0  0  0  0  0
   -3.9522   21.5114  -32.1444 H   0  0  0  0  0  0  0  0  0  0  0  0
   -4.3995   20.5688  -33.6066 H   0  0  0  0  0  0  0  0  0  0  0  0
   -4.5626   22.3577  -33.6066 H   0  0  0  0  0  0  0  0  0  0  0  0
  1  2  1  0
  2  3  1  0
  3  4  2  0
  4  5  1  0
  5  6  1  0
  5  7  2  0
  7  8  1  0
  8  9  2  0
  9 10  1  0
 10 11  1  0
 11 12  1  0
 12 13  1  0
 13 14  1  0
 14 15  1  0
 15 16  2  0
 16 17  1  0
 17 18  2  0
 18 19  1  0
 19 20  2  0
 20 21  1  0
 21 22  2  0
 22 23  1  0
 23 24  1  0
  9  3  1  0
 23 15  1  0
 22 17  1  0
  1 25  1  0
  1 26  1  0
  1 27  1  0
  4 28  1  0
  6 29  1  0
  6 30  1  0
  6 31  1  0
  8 32  1  0
 11 33  1  0
 11 34  1  0
 12 35  1  0
 12 36  1  0
 13 37  1  0
 14 38  1  0
 14 39  1  0
 18 40  1  0
 19 41  1  0
 20 42  1  0
 21 43  1  0
 24 44  1  0
 24 45  1  0
 24 46  1  0
M  END
>  <smiles>  (5) 
COc1cc(C)ncc1OCCNCc1nc2ccccc2n1C

>  <score_type>  (5) 
oracle

>  <origin>  (5) 
adg

>  <m_score__min__energy>  (5) 
-8.7400000000000002

>  <m_primary>  (5) 
energy

$$$$
7:0
     RDKit          3D

 88 90  0  0  0  0  0  0  0  0999 V2000
   -6.1060   24.8830  -29.6860 C   0  0  0  0  0  0  0  0  0  0  0  0
   -5.1540   25.6720  -30.5570 C   0  0  0  0  0  0  0  0  0  0  0  0
   -3.8590   25.0480  -30.5990 N   0  0  0  0  0  0  0  0  0  0  0  0
   -3.7240   23.9440  -29.6960 C   0  0  0  0  0  0  0  0  0  0  0  0
   -2.3050   23.4670  -29.5150 C   0  0  0  0  0  0  0  0  0  0  0  0
   -1.5470   24.4960  -28.6980 C   0  0  0  0  0  0  0  0  0  0  0  0
   -1.4050   25.6040  -29.2510 O   0  0  0  0  0  0  0  0  0  0  0  0
   -1.1130   24.1100  -27.4860 O   0  0  0  0  0  0  0  0  0  0  0  0
    0.0670   23.5220  -27.1030 C   0  0  0  0  0  0  0  0  0  0  0  0
    0.3750   22.1420  -27.5240 C   0  0  0  0  0  0  0  0  0  0  0  0
   -0.6140   21.0630  -27.3650 C   0  0  0  0  0  0  0  0  0  0  0  0
   -1.0180   20.3900  -28.6630 C   0  0  0  0  0  0  0  0  0  0  0  0
   -0.0280   19.2810  -28.9950 C   0  0  0  0  0  0  0  0  0  0  0  0
    0.6660   19.5310  -30.3130 C   0  0  0  0  0  0  0  0  0  0  0  0
   -0.3260   19.8010  -31.4200 C   0  0  0  0  0  0  0  0  0  0  0  0
    0.3340   19.6960  -32.7880 C   0  0  0  0  0  0  0  0  0  0  0  0
    0.1990   21.0140  -33.5350 C   0  0  0  0  0  0  0  0  0  0  0  0
   -0.9050   20.9760  -34.4730 N   0  0  0  0  0  0  0  0  0  0  0  0
   -2.1840   20.9030  -33.8180 C   0  0  0  0  0  0  0  0  0  0  0  0
   -2.3600   21.8320  -32.6630 C   0  0  0  0  0  0  0  0  0  0  0  0
   -3.7650   22.0250  -32.2010 C   0  0  0  0  0  0  0  0  0  0  0  0
   -4.7440   21.5670  -33.1650 N   0  0  0  0  0  0  0  0  0  0  0  0
   -5.8380   20.7360  -32.8640 C   0  0  0  0  0  0  0  0  0  0  0  0
   -7.0400   21.3010  -32.4360 C   0  0  0  0  0  0  0  0  0  0  0  0
   -7.0730   22.6830  -32.3360 C   0  0  0  0  0  0  0  0  0  0  0  0
   -8.2370   23.2900  -31.9150 C   0  0  0  0  0  0  0  0  0  0  0  0
   -9.3220   22.5040  -31.6110 C   0  0  0  0  0  0  0  0  0  0  0  0
   -9.2750   21.1100  -31.7160 C   0  0  0  0  0  0  0  0  0  0  0  0
   -8.1270   20.5010  -32.1320 C   0  0  0  0  0  0  0  0  0  0  0  0
   -8.1080   19.1710  -32.2230 N   0  0  0  0  0  0  0  0  0  0  0  0
   -9.1830   18.2830  -31.9350 C   0  0  0  0  0  0  0  0  0  0  0  0
   -6.9370   18.6140  -32.6410 C   0  0  0  0  0  0  0  0  0  0  0  0
   -6.8200   17.2310  -32.7640 C   0  0  0  0  0  0  0  0  0  0  0  0
   -5.6440   16.6290  -33.1830 C   0  0  0  0  0  0  0  0  0  0  0  0
   -4.5380   17.3860  -33.4970 C   0  0  0  0  0  0  0  0  0  0  0  0
   -3.3470   16.8150  -33.9200 O   0  0  0  0  0  0  0  0  0  0  0  0
   -2.1360   17.4140  -33.4620 C   0  0  0  0  0  0  0  0  0  0  0  0
   -4.6550   18.7630  -33.3730 C   0  0  0  0  0  0  0  0  0  0  0  0
   -5.8280   19.3590  -32.9550 C   0  0  0  0  0  0  0  0  0  0  0  0
   -5.8769   25.0728  -28.6270 H   0  0  0  0  0  0  0  0  0  0  0  0
   -7.1398   25.1927  -29.8988 H   0  0  0  0  0  0  0  0  0  0  0  0
   -5.9936   23.8096  -29.8988 H   0  0  0  0  0  0  0  0  0  0  0  0
   -5.5608   25.7263  -31.5776 H   0  0  0  0  0  0  0  0  0  0  0  0
   -5.0441   26.6809  -30.1327 H   0  0  0  0  0  0  0  0  0  0  0  0
   -3.0540   25.6740  -30.6700 H   0  0  0  0  0  0  0  0  0  0  0  0
   -4.1131   24.2512  -28.7141 H   0  0  0  0  0  0  0  0  0  0  0  0
   -4.2872   23.1061  -30.1328 H   0  0  0  0  0  0  0  0  0  0  0  0
   -2.3033   22.5015  -28.9879 H   0  0  0  0  0  0  0  0  0  0  0  0
   -1.8243   23.3391  -30.4961 H   0  0  0  0  0  0  0  0  0  0  0  0
    0.8780   24.1591  -27.4857 H   0  0  0  0  0  0  0  0  0  0  0  0
   -0.0365   23.4358  -26.0113 H   0  0  0  0  0  0  0  0  0  0  0  0
    0.6176   22.1886  -28.5959 H   0  0  0  0  0  0  0  0  0  0  0  0
    1.1703   21.8468  -26.8237 H   0  0  0  0  0  0  0  0  0  0  0  0
   -0.1861   20.2989  -26.6994 H   0  0  0  0  0  0  0  0  0  0  0  0
   -1.5230   21.5270  -26.9546 H   0  0  0  0  0  0  0  0  0  0  0  0
   -2.0251   19.9610  -28.5546 H   0  0  0  0  0  0  0  0  0  0  0  0
   -1.0188   21.1330  -29.4742 H   0  0  0  0  0  0  0  0  0  0  0  0
    0.7282   19.2273  -28.1980 H   0  0  0  0  0  0  0  0  0  0  0  0
   -0.5844   18.3353  -29.0732 H   0  0  0  0  0  0  0  0  0  0  0  0
    1.3296   20.4020  -30.2077 H   0  0  0  0  0  0  0  0  0  0  0  0
    1.2398   18.6303  -30.5766 H   0  0  0  0  0  0  0  0  0  0  0  0
   -1.1420   19.0659  -31.3578 H   0  0  0  0  0  0  0  0  0  0  0  0
   -0.7146   20.8228  -31.2981 H   0  0  0  0  0  0  0  0  0  0  0  0
    1.4002   19.4575  -32.6604 H   0  0  0  0  0  0  0  0  0  0  0  0
   -0.1601   18.9016  -33.3665 H   0  0  0  0  0  0  0  0  0  0  0  0
    0.0246   21.8215  -32.8087 H   0  0  0  0  0  0  0  0  0  0  0  0
    1.1273   21.1912  -34.0978 H   0  0  0  0  0  0  0  0  0  0  0  0
   -0.8770   21.8530  -35.0210 H   0  0  0  0  0  0  0  0  0  0  0  0
   -2.9610   21.1336  -34.5617 H   0  0  0  0  0  0  0  0  0  0  0  0
   -2.2585   19.8858  -33.4060 H   0  0  0  0  0  0  0  0  0  0  0  0
   -1.7771   21.4363  -31.8182 H   0  0  0  0  0  0  0  0  0  0  0  0
   -2.0201   22.8174  -33.0142 H   0  0  0  0  0  0  0  0  0  0  0  0
   -3.9064   21.4655  -31.2645 H   0  0  0  0  0  0  0  0  0  0  0  0
   -3.9206   23.1049  -32.0606 H   0  0  0  0  0  0  0  0  0  0  0  0
   -4.6230   21.8770  -34.1490 H   0  0  0  0  0  0  0  0  0  0  0  0
   -6.1870   23.2843  -32.5878 H   0  0  0  0  0  0  0  0  0  0  0  0
   -8.2960   24.3846  -31.8241 H   0  0  0  0  0  0  0  0  0  0  0  0
  -10.2532   22.9841  -31.2758 H   0  0  0  0  0  0  0  0  0  0  0  0
  -10.1599   20.5071  -31.4642 H   0  0  0  0  0  0  0  0  0  0  0  0
   -9.2981   18.1879  -30.8452 H   0  0  0  0  0  0  0  0  0  0  0  0
  -10.1127   18.6800  -32.3687 H   0  0  0  0  0  0  0  0  0  0  0  0
   -8.9687   17.2951  -32.3687 H   0  0  0  0  0  0  0  0  0  0  0  0
   -7.6865   16.5983  -32.5214 H   0  0  0  0  0  0  0  0  0  0  0  0
   -5.5939   15.5333  -33.2656 H   0  0  0  0  0  0  0  0  0  0  0  0
   -2.1232   17.4203  -32.3621 H   0  0  0  0  0  0  0  0  0  0  0  0
   -1.2773   16.8367  -33.8354 H   0  0  0  0  0  0  0  0  0  0  0  0
   -2.0737   18.4468  -33.8354 H   0  0  0  0  0  0  0  0  0  0  0  0
   -3.7893   19.3972  -33.6144 H   0  0  0  0  0  0  0  0  0  0  0  0
  1  2  1  0
  2  3  1  0
  3  4  1  0
  4  5  1  0
  5  6  1  0
  6  7  2  0
  6  8  1  0
  8  9  1  0
  9 10  1  0
 10 11  1  0
 11 12  1  0
 12 13  1  0
 13 14  1  0
 14 15  1  0
 15 16  1  0
 16 17  1  0
 17 18  1  0
 18 19  1  0
 19 20  1  0
 20 21  1  0
 21 22  1  0
 22 23  1  0
 23 24  2  0
 24 25  1  0
 25 26  2  0
 26 27  1  0
 27 28  2  0
 28 29  1  0
 29 30  2  0
 30 31  1  0
 30 32  1  0
 32 33  2  0
 33 34  1  0
 34 35  2  0
 35 36  1  0
 36 37  1  0
 35 38  1  0
 38 39  2  0
 39 23  1  0
 29 24  1  0
 39 32  1  0
  1 40  1  0
  1 41  1  0
  1 42  1  0
  2 43  1  0
  2 44  1  0
  3 45  1  0
  4 46  1  0
  4 47  1  0
  5 48  1  0
  5 49  1  0
  9 50  1  0
  9 51  1  0
 10 52  1  0
 10 53  1  0
 11 54  1  0
 11 55  1  0
 12 56  1  0
 12 57  1  0
 13 58  1  0
 13 59  1  0
 14 60  1  0
 14 61  1  0
 15 62  1  0
 15 63  1  0
 16 64  1  0
 16 65  1  0
 17 66  1  0
 17 67  1  0
 18 68  1  0
 19 69  1  0
 19 70  1  0
 20 71  1  0
 20 72  1  0
 21 73  1  0
 21 74  1  0
 22 75  1  0
 25 76  1  0
 26 77  1  0
 27 78  1  0
 28 79  1  0
 31 80  1  0
 31 81  1  0
 31 82  1  0
 33 83  1  0
 34 84  1  0
 37 85  1  0
 37 86  1  0
 37 87  1  0
 38 88  1  0
M  CHG  1  30   1
M  END
>  <smiles>  (6) 
CCNCCC(=O)OCCCCCCCCCNCCCNc1c2ccccc2[n+](C)c2ccc(OC)cc12

>  <score_type>  (6) 
oracle

>  <origin>  (6) 
adg

>  <m_score__min__energy>  (6) 
-9.7300000000000004

>  <m_primary>  (6) 
energy

$$$$
8:0
     RDKit          3D

 48 50  0  0  0  0  0  0  0  0999 V2000
   -0.5220   26.7970  -23.3920 C   0  0  0  0  0  0  0  0  0  0  0  0
   -0.0820   27.2000  -24.7950 C   0  0  0  0  0  0  0  0  0  0  0  0
   -1.0850   26.7980  -25.7380 N   0  0  0  0  0  0  0  0  0  0  0  0
   -1.6630   25.5010  -25.4150 C   0  0  0  0  0  0  0  0  0  0  0  0
   -2.7470   25.2310  -26.4330 C   0  0  0  0  0  0  0  0  0  0  0  0
   -2.2020   25.2230  -27.7600 N   0  0  0  0  0  0  0  0  0  0  0  0
   -2.5000   23.9910  -28.4700 C   0  0  0  0  0  0  0  0  0  0  0  0
   -3.7280   24.1390  -29.2270 N   0  0  0  0  0  0  0  0  0  0  0  0
   -4.9800   24.5500  -28.5890 C   0  0  0  0  0  0  0  0  0  0  0  0
   -5.6430   25.2980  -29.7260 C   0  0  0  0  0  0  0  0  0  0  0  0
   -5.2770   24.4390  -30.8480 N   0  0  0  0  0  0  0  0  0  0  0  0
   -6.1000   24.1510  -31.9890 C   0  0  0  0  0  0  0  0  0  0  0  0
   -6.7810   22.8530  -31.9590 C   0  0  0  0  0  0  0  0  0  0  0  0
   -8.1040   22.6910  -31.6030 C   0  0  0  0  0  0  0  0  0  0  0  0
   -8.6560   21.4260  -31.6060 C   0  0  0  0  0  0  0  0  0  0  0  0
   -7.9430   20.2930  -31.9520 C   0  0  0  0  0  0  0  0  0  0  0  0
   -8.7250   18.5580  -31.9490 Br  0  0  0  0  0  0  0  0  0  0  0  0
   -6.6030   20.4570  -32.3130 C   0  0  0  0  0  0  0  0  0  0  0  0
   -6.0330   21.7260  -32.3150 C   0  0  0  0  0  0  0  0  0  0  0  0
   -3.9630   23.9380  -30.6170 C   0  0  0  0  0  0  0  0  0  0  0  0
   -3.1550   23.4240  -31.4300 O   0  0  0  0  0  0  0  0  0  0  0  0
   -0.7810   25.5180  -27.7890 C   0  0  0  0  0  0  0  0  0  0  0  0
   -0.5590   26.8330  -27.0690 C   0  0  0  0  0  0  0  0  0  0  0  0
    0.0760   27.3447  -22.6487 H   0  0  0  0  0  0  0  0  0  0  0  0
   -1.5863   27.0401  -23.2575 H   0  0  0  0  0  0  0  0  0  0  0  0
   -0.3731   25.7155  -23.2575 H   0  0  0  0  0  0  0  0  0  0  0  0
    0.0490   28.2912  -24.8402 H   0  0  0  0  0  0  0  0  0  0  0  0
    0.8717   26.7089  -25.0383 H   0  0  0  0  0  0  0  0  0  0  0  0
   -0.8907   24.7196  -25.4700 H   0  0  0  0  0  0  0  0  0  0  0  0
   -2.0749   25.4992  -24.3950 H   0  0  0  0  0  0  0  0  0  0  0  0
   -3.2039   24.2525  -26.2238 H   0  0  0  0  0  0  0  0  0  0  0  0
   -3.5038   26.0264  -26.3650 H   0  0  0  0  0  0  0  0  0  0  0  0
   -1.6739   23.7582  -29.1580 H   0  0  0  0  0  0  0  0  0  0  0  0
   -2.6208   23.1751  -27.7421 H   0  0  0  0  0  0  0  0  0  0  0  0
   -5.5772   23.6823  -28.2721 H   0  0  0  0  0  0  0  0  0  0  0  0
   -4.8513   25.1391  -27.6690 H   0  0  0  0  0  0  0  0  0  0  0  0
   -6.7337   25.3548  -29.5952 H   0  0  0  0  0  0  0  0  0  0  0  0
   -5.3343   26.3487  -29.8293 H   0  0  0  0  0  0  0  0  0  0  0  0
   -6.8674   24.9358  -32.0612 H   0  0  0  0  0  0  0  0  0  0  0  0
   -5.4205   24.1180  -32.8534 H   0  0  0  0  0  0  0  0  0  0  0  0
   -8.7132   23.5619  -31.3194 H   0  0  0  0  0  0  0  0  0  0  0  0
   -9.7122   21.3140  -31.3198 H   0  0  0  0  0  0  0  0  0  0  0  0
   -5.9987   19.5824  -32.5957 H   0  0  0  0  0  0  0  0  0  0  0  0
   -4.9775   21.8450  -32.6010 H   0  0  0  0  0  0  0  0  0  0  0  0
   -0.2233   24.7166  -27.2823 H   0  0  0  0  0  0  0  0  0  0  0  0
   -0.4271   25.5877  -28.8282 H   0  0  0  0  0  0  0  0  0  0  0  0
    0.5210   27.0364  -27.0213 H   0  0  0  0  0  0  0  0  0  0  0  0
   -1.0824   27.6240  -27.6261 H   0  0  0  0  0  0  0  0  0  0  0  0
  1  2  1  0
  2  3  1  0
  3  4  1  0
  4  5  1  0
  5  6  1  0
  6  7  1  0
  7  8  1  0
  8  9  1  0
  9 10  1  0
 10 11  1  0
 11 12  1  0
 12 13  1  0
 13 14  2  0
 14 15  1  0
 15 16  2  0
 16 17  1  0
 16 18  1  0
 18 19  2  0
 11 20  1  0
 20 21  2  0
  6 22  1  0
 22 23  1  0
 23  3  1  0
 20  8  1  0
 19 13  1  0
  1 24  1  0
  1 25  1  0
  1 26  1  0
  2 27  1  0
  2 28  1  0
  4 29  1  0
  4 30  1  0
  5 31  1  0
  5 32  1  0
  7 33  1  0
  7 34  1  0
  9 35  1  0
  9 36  1  0
 10 37  1  0
 10 38  1  0
 12 39  1  0
 12 40  1  0
 14 41  1  0
 15 42  1  0
 18 43  1  0
 19 44  1  0
 22 45  1  0
 22 46  1  0
 23 47  1  0
 23 48  1  0
M  END
>  <smiles>  (7) 
CCN1CCN(CN2CCN(Cc3ccc(Br)cc3)C2=O)CC1

>  <score_type>  (7) 
oracle

>  <origin>  (7) 
adg

>  <m_score__min__energy>  (7) 
-8.4199999999999999

>  <m_primary>  (7) 
energy

$$$$
9:0
     RDKit          3D

 55 58  0  0  0  0  0  0  0  0999 V2000
   -3.6040   24.4690  -26.8960 C   0  0  0  0  0  0  0  0  0  0  0  0
   -2.4410   24.4670  -27.7670 N   0  0  0  0  0  0  0  0  0  0  0  0
   -2.2380   23.7140  -28.8890 C   0  0  0  0  0  0  0  0  0  0  0  0
   -3.1550   22.7380  -29.4790 C   0  0  0  0  0  0  0  0  0  0  0  0
   -4.2930   23.2290  -30.1460 N   0  0  0  0  0  0  0  0  0  0  0  0
   -4.4730   22.6030  -31.4280 C   0  0  0  0  0  0  0  0  0  0  0  0
   -5.3950   23.3940  -32.3310 C   0  0  0  0  0  0  0  0  0  0  0  0
   -6.3420   24.1630  -31.5920 N   0  0  0  0  0  0  0  0  0  0  0  0
   -7.3140   23.3870  -30.8510 C   0  0  0  0  0  0  0  0  0  0  0  0
   -8.3990   23.0100  -31.8140 C   0  0  0  0  0  0  0  0  0  0  0  0
   -8.8560   21.7140  -31.7430 O   0  0  0  0  0  0  0  0  0  0  0  0
   -8.2100   20.5940  -32.1350 C   0  0  0  0  0  0  0  0  0  0  0  0
   -7.0960   20.4880  -32.9230 C   0  0  0  0  0  0  0  0  0  0  0  0
   -6.5120   19.2640  -33.2560 C   0  0  0  0  0  0  0  0  0  0  0  0
   -7.0510   18.0910  -32.7910 C   0  0  0  0  0  0  0  0  0  0  0  0
   -8.1660   18.1670  -32.0020 C   0  0  0  0  0  0  0  0  0  0  0  0
   -8.7350   19.3700  -31.6760 C   0  0  0  0  0  0  0  0  0  0  0  0
   -5.6530   25.1520  -30.8290 C   0  0  0  0  0  0  0  0  0  0  0  0
   -4.4000   24.6590  -30.1750 C   0  0  0  0  0  0  0  0  0  0  0  0
   -1.0380   24.0260  -29.3730 N   0  0  0  0  0  0  0  0  0  0  0  0
   -0.5070   24.9420  -28.5820 N   0  0  0  0  0  0  0  0  0  0  0  0
   -1.3440   25.2460  -27.5730 C   0  0  0  0  0  0  0  0  0  0  0  0
   -1.0950   26.2130  -26.5070 C   0  0  0  0  0  0  0  0  0  0  0  0
   -1.2320   25.9110  -25.1680 C   0  0  0  0  0  0  0  0  0  0  0  0
   -0.9940   26.8370  -24.1780 C   0  0  0  0  0  0  0  0  0  0  0  0
   -0.6040   28.1090  -24.5350 C   0  0  0  0  0  0  0  0  0  0  0  0
   -0.4540   28.4540  -25.8680 C   0  0  0  0  0  0  0  0  0  0  0  0
   -0.7040   27.4960  -26.8290 C   0  0  0  0  0  0  0  0  0  0  0  0
   -3.2758   24.4684  -25.8461 H   0  0  0  0  0  0  0  0  0  0  0  0
   -4.2068   25.3682  -27.0913 H   0  0  0  0  0  0  0  0  0  0  0  0
   -4.2099   23.5719  -27.0913 H   0  0  0  0  0  0  0  0  0  0  0  0
   -2.5800   22.1438  -30.2044 H   0  0  0  0  0  0  0  0  0  0  0  0
   -3.5557   22.1789  -28.6206 H   0  0  0  0  0  0  0  0  0  0  0  0
   -3.4921   22.5113  -31.9174 H   0  0  0  0  0  0  0  0  0  0  0  0
   -4.9323   21.6179  -31.2591 H   0  0  0  0  0  0  0  0  0  0  0  0
   -4.7893   24.0747  -32.9473 H   0  0  0  0  0  0  0  0  0  0  0  0
   -5.9525   22.6795  -32.9545 H   0  0  0  0  0  0  0  0  0  0  0  0
   -6.8417   22.4822  -30.4407 H   0  0  0  0  0  0  0  0  0  0  0  0
   -7.7201   23.9668  -30.0090 H   0  0  0  0  0  0  0  0  0  0  0  0
   -9.2545   23.6771  -31.6324 H   0  0  0  0  0  0  0  0  0  0  0  0
   -7.9500   23.1075  -32.8134 H   0  0  0  0  0  0  0  0  0  0  0  0
   -6.6394   21.4100  -33.3122 H   0  0  0  0  0  0  0  0  0  0  0  0
   -5.6161   19.2401  -33.8938 H   0  0  0  0  0  0  0  0  0  0  0  0
   -6.6007   17.1200  -33.0447 H   0  0  0  0  0  0  0  0  0  0  0  0
   -8.6169   17.2393  -31.6198 H   0  0  0  0  0  0  0  0  0  0  0  0
   -9.6296   19.3804  -31.0360 H   0  0  0  0  0  0  0  0  0  0  0  0
   -5.3883   25.9827  -31.4997 H   0  0  0  0  0  0  0  0  0  0  0  0
   -6.3328   25.4577  -30.0200 H   0  0  0  0  0  0  0  0  0  0  0  0
   -3.5378   25.0613  -30.7271 H   0  0  0  0  0  0  0  0  0  0  0  0
   -4.4243   25.0024  -29.1303 H   0  0  0  0  0  0  0  0  0  0  0  0
   -1.5421   24.8952  -24.8817 H   0  0  0  0  0  0  0  0  0  0  0  0
   -1.1133   26.5657  -23.1187 H   0  0  0  0  0  0  0  0  0  0  0  0
   -0.4097   28.8583  -23.7535 H   0  0  0  0  0  0  0  0  0  0  0  0
   -0.1424   29.4694  -26.1542 H   0  0  0  0  0  0  0  0  0  0  0  0
   -0.5874   27.7649  -27.8892 H   0  0  0  0  0  0  0  0  0  0  0  0
  1  2  1  0
  2  3  1  0
  3  4  1  0
  4  5  1  0
  5  6  1  0
  6  7  1  0
  7  8  1  0
  8  9  1  0
  9 10  1  0
 10 11  1  0
 11 12  1  0
 12 13  2  0
 13 14  1  0
 14 15  2  0
 15 16  1  0
 16 17  2  0
  8 18  1  0
 18 19  1  0
  3 20  2  0
 20 21  1  0
 21 22  2  0
 22 23  1  0
 23 24  2  0
 24 25  1  0
 25 26  2  0
 26 27  1  0
 27 28  2  0
 22  2  1  0
 28 23  1  0
 19  5  1  0
 17 12  1  0
  1 29  1  0
  1 30  1  0
  1 31  1  0
  4 32  1  0
  4 33  1  0
  6 34  1  0
  6 35  1  0
  7 36  1  0
  7 37  1  0
  9 38  1  0
  9 39  1  0
 10 40  1  0
 10 41  1  0
 13 42  1  0
 14 43  1  0
 15 44  1  0
 16 45  1  0
 17 46  1  0
 18 47  1  0
 18 48  1  0
 19 49  1  0
 19 50  1  0
 24 51  1  0
 25 52  1  0
 26 53  1  0
 27 54  1  0
 28 55  1  0
M  END
>  <smiles>  (8) 
Cn1c(CN2CCN(CCOc3ccccc3)CC2)nnc1-c1ccccc1

>  <score_type>  (8) 
oracle

>  <origin>  (8) 
adg

>  <m_score__min__energy>  (8) 
-9.0600000000000005

>  <m_primary>  (8) 
energy

$$$$
10:0
     RDKit          3D

 45 47  0  0  0  0  0  0  0  0999 V2000
   -9.0540   18.5400  -31.9480 C   0  0  0  0  0  0  0  0  0  0  0  0
   -8.6710   19.8290  -31.2310 C   0  0  0  0  0  0  0  0  0  0  0  0
   -8.5560   20.9160  -32.1850 N   0  0  0  0  0  0  0  0  0  0  0  0
   -9.5000   21.9870  -31.9610 C   0  0  0  0  0  0  0  0  0  0  0  0
   -8.8860   23.3450  -32.1870 C   0  0  0  0  0  0  0  0  0  0  0  0
   -7.5280   23.3850  -32.3630 O   0  0  0  0  0  0  0  0  0  0  0  0
   -6.4760   23.6320  -31.5400 C   0  0  0  0  0  0  0  0  0  0  0  0
   -6.4490   24.5260  -30.4940 C   0  0  0  0  0  0  0  0  0  0  0  0
   -5.3570   24.7370  -29.6840 C   0  0  0  0  0  0  0  0  0  0  0  0
   -4.2210   24.0040  -29.9410 C   0  0  0  0  0  0  0  0  0  0  0  0
   -3.0660   24.1620  -29.1550 C   0  0  0  0  0  0  0  0  0  0  0  0
   -1.9210   23.4320  -29.4030 C   0  0  0  0  0  0  0  0  0  0  0  0
   -0.3850   23.7050  -28.2850 Br  0  0  0  0  0  0  0  0  0  0  0  0
   -1.9120   22.5250  -30.4490 C   0  0  0  0  0  0  0  0  0  0  0  0
   -3.0250   22.3460  -31.2360 C   0  0  0  0  0  0  0  0  0  0  0  0
   -4.1770   23.0950  -30.9680 C   0  0  0  0  0  0  0  0  0  0  0  0
   -5.3030   22.9160  -31.7590 C   0  0  0  0  0  0  0  0  0  0  0  0
   -5.1700   21.9760  -32.8290 N   0  0  0  0  0  0  0  0  0  0  0  0
   -5.4400   20.5960  -32.7080 C   0  0  0  0  0  0  0  0  0  0  0  0
   -5.3600   19.8870  -31.5290 C   0  0  0  0  0  0  0  0  0  0  0  0
   -5.6260   18.5100  -31.4800 C   0  0  0  0  0  0  0  0  0  0  0  0
   -5.9800   17.8450  -32.6560 C   0  0  0  0  0  0  0  0  0  0  0  0
   -6.0670   18.5520  -33.8630 C   0  0  0  0  0  0  0  0  0  0  0  0
   -5.7950   19.8920  -33.8500 C   0  0  0  0  0  0  0  0  0  0  0  0
   -9.2851   17.7621  -31.2054 H   0  0  0  0  0  0  0  0  0  0  0  0
   -9.9376   18.7195  -32.5781 H   0  0  0  0  0  0  0  0  0  0  0  0
   -8.2157   18.2079  -32.5781 H   0  0  0  0  0  0  0  0  0  0  0  0
   -9.4449   20.0764  -30.4894 H   0  0  0  0  0  0  0  0  0  0  0  0
   -7.7026   19.6872  -30.7290 H   0  0  0  0  0  0  0  0  0  0  0  0
   -7.5670   21.2420  -32.1850 H   0  0  0  0  0  0  0  0  0  0  0  0
  -10.3474   21.8622  -32.6512 H   0  0  0  0  0  0  0  0  0  0  0  0
   -9.8266   21.9348  -30.9119 H   0  0  0  0  0  0  0  0  0  0  0  0
   -9.3514   23.7757  -33.0859 H   0  0  0  0  0  0  0  0  0  0  0  0
   -9.0737   23.9050  -31.2590 H   0  0  0  0  0  0  0  0  0  0  0  0
   -7.3594   25.1096  -30.2925 H   0  0  0  0  0  0  0  0  0  0  0  0
   -5.3908   25.4655  -28.8605 H   0  0  0  0  0  0  0  0  0  0  0  0
   -3.0750   24.8831  -28.3243 H   0  0  0  0  0  0  0  0  0  0  0  0
   -1.0029   21.9402  -30.6529 H   0  0  0  0  0  0  0  0  0  0  0  0
   -3.0105   21.6237  -32.0655 H   0  0  0  0  0  0  0  0  0  0  0  0
   -4.8570   22.3790  -33.7400 H   0  0  0  0  0  0  0  0  0  0  0  0
   -5.0809   20.4131  -30.6041 H   0  0  0  0  0  0  0  0  0  0  0  0
   -5.5567   17.9621  -30.5287 H   0  0  0  0  0  0  0  0  0  0  0  0
   -6.1907   16.7656  -32.6349 H   0  0  0  0  0  0  0  0  0  0  0  0
   -6.3469   18.0421  -34.7966 H   0  0  0  0  0  0  0  0  0  0  0  0
   -5.8614   20.4437  -34.7993 H   0  0  0  0  0  0  0  0  0  0  0  0
  1  2  1  0
  2  3  1  0
  3  4  1  0
  4  5  1  0
  5  6  1  0
  6  7  1  0
  7  8  2  0
  8  9  1  0
  9 10  2  0
 10 11  1  0
 11 12  2  0
 12 13  1  0
 12 14  1  0
 14 15  2  0
 15 16  1  0
 16 17  2  0
 17 18  1  0
 18 19  1  0
 19 20  2  0
 20 21  1  0
 21 22  2  0
 22 23  1  0
 23 24  2  0
 17  7  1  0
 24 19  1  0
 16 10  1  0
  1 25  1  0
  1 26  1  0
  1 27  1  0
  2 28  1  0
  2 29  1  0
  3 30  1  0
  4 31  1  0
  4 32  1  0
  5 33  1  0
  5 34  1  0
  8 35  1  0
  9 36  1  0
 11 37  1  0
 14 38  1  0
 15 39  1  0
 18 40  1  0
 20 41  1  0
 21 42  1  0
 22 43  1  0
 23 44  1  0
 24 45  1  0
M  END
>  <smiles>  (9) 
CCNCCOc1ccc2cc(Br)ccc2c1Nc1ccccc1

>  <score_type>  (9) 
oracle

>  <origin>  (9) 
adg

>  <m_score__min__energy>  (9) 
-9.2699999999999996

>  <m_primary>  (9) 
energy

$$$$
11:0
     RDKit          3D

 62 67  0  0  1  0  0  0  0  0999 V2000
   -5.3930   18.9070  -31.2240 C   0  0  0  0  0  0  0  0  0  0  0  0
   -5.6460   18.8970  -32.6510 N   0  0  0  0  0  0  0  0  0  0  0  0
   -4.9480   18.2000  -33.5890 C   0  0  0  0  0  0  0  0  0  0  0  0
   -3.5560   17.1610  -33.1190 S   0  0  0  0  0  0  0  0  0  0  0  0
   -2.0600   17.9630  -33.7670 C   0  0  0  0  0  0  0  0  0  0  0  0
   -1.7760   19.2710  -33.0140 C   0  0  0  0  0  0  0  0  0  0  0  0
   -2.9400   20.1960  -33.3010 C   0  0  0  0  0  0  0  0  0  0  0  0
   -2.6730   21.5830  -33.0160 N   0  0  0  0  0  0  0  0  0  0  0  0
   -3.8680   22.1410  -32.3520 C   0  0  0  0  0  0  0  0  0  0  0  0
   -3.2530   22.8080  -31.1890 C   0  0  1  0  0  0  0  0  0  0  0  0
   -3.6950   22.6940  -29.8150 C   0  0  0  0  0  0  0  0  0  0  0  0
   -2.2280   22.2640  -29.5510 C   0  0  1  0  0  0  0  0  0  0  0  0
   -1.2930   23.4060  -29.5480 C   0  0  0  0  0  0  0  0  0  0  0  0
   -0.3760   23.5180  -28.4120 C   0  0  0  0  0  0  0  0  0  0  0  0
    0.4490   24.4760  -28.4140 O   0  0  0  0  0  0  0  0  0  0  0  0
   -0.3570   22.6330  -27.3280 N   0  0  0  0  0  0  0  0  0  0  0  0
   -1.2870   21.5480  -27.3400 C   0  0  0  0  0  0  0  0  0  0  0  0
   -1.2410   20.7030  -26.2400 C   0  0  0  0  0  0  0  0  0  0  0  0
   -2.1050   19.6220  -26.1380 C   0  0  0  0  0  0  0  0  0  0  0  0
   -2.9910   19.4460  -27.1790 C   0  0  0  0  0  0  0  0  0  0  0  0
   -3.0330   20.2970  -28.2810 C   0  0  0  0  0  0  0  0  0  0  0  0
   -2.1750   21.3700  -28.3800 C   0  0  0  0  0  0  0  0  0  0  0  0
   -2.3920   21.5710  -30.8150 C   0  0  2  0  0  0  0  0  0  0  0  0
   -1.5960   21.6390  -32.0330 C   0  0  0  0  0  0  0  0  0  0  0  0
   -5.4570   18.4280  -34.8050 N   0  0  0  0  0  0  0  0  0  0  0  0
   -6.4770   19.2640  -34.6720 N   0  0  0  0  0  0  0  0  0  0  0  0
   -6.5940   19.5540  -33.3400 C   0  0  0  0  0  0  0  0  0  0  0  0
   -7.5770   20.4300  -32.7390 C   0  0  0  0  0  0  0  0  0  0  0  0
   -7.1370   21.6810  -32.3240 C   0  0  0  0  0  0  0  0  0  0  0  0
   -7.9910   22.5960  -31.7360 C   0  0  0  0  0  0  0  0  0  0  0  0
   -9.3090   22.2290  -31.5700 C   0  0  0  0  0  0  0  0  0  0  0  0
   -9.7800   21.0080  -31.9660 C   0  0  0  0  0  0  0  0  0  0  0  0
   -8.8930   20.1320  -32.5460 C   0  0  0  0  0  0  0  0  0  0  0  0
   -6.3493   18.8692  -30.6818 H   0  0  0  0  0  0  0  0  0  0  0  0
   -4.7833   18.0323  -30.9536 H   0  0  0  0  0  0  0  0  0  0  0  0
   -4.8543   19.8271  -30.9536 H   0  0  0  0  0  0  0  0  0  0  0  0
   -1.2040   17.2830  -33.6451 H   0  0  0  0  0  0  0  0  0  0  0  0
   -2.2152   18.1940  -34.8312 H   0  0  0  0  0  0  0  0  0  0  0  0
   -1.7014   19.0786  -31.9335 H   0  0  0  0  0  0  0  0  0  0  0  0
   -0.8246   19.7175  -33.3388 H   0  0  0  0  0  0  0  0  0  0  0  0
   -3.1985   20.1057  -34.3664 H   0  0  0  0  0  0  0  0  0  0  0  0
   -3.7612   19.8880  -32.6371 H   0  0  0  0  0  0  0  0  0  0  0  0
   -4.3926   22.8589  -32.9996 H   0  0  0  0  0  0  0  0  0  0  0  0
   -4.6358   21.3961  -32.0959 H   0  0  0  0  0  0  0  0  0  0  0  0
   -3.1209   23.8533  -31.5050 H   0  0  0  0  0  0  0  0  0  0  0  0
   -4.0038   23.6362  -29.3387 H   0  0  0  0  0  0  0  0  0  0  0  0
   -4.5681   22.1017  -29.5038 H   0  0  0  0  0  0  0  0  0  0  0  0
   -0.6824   23.3360  -30.4603 H   0  0  0  0  0  0  0  0  0  0  0  0
   -1.9346   24.2971  -29.4829 H   0  0  0  0  0  0  0  0  0  0  0  0
    0.3050   22.7730  -26.5620 H   0  0  0  0  0  0  0  0  0  0  0  0
   -0.5108   20.8925  -25.4394 H   0  0  0  0  0  0  0  0  0  0  0  0
   -2.0839   18.9424  -25.2733 H   0  0  0  0  0  0  0  0  0  0  0  0
   -3.6928   18.5999  -27.1380 H   0  0  0  0  0  0  0  0  0  0  0  0
   -3.7616   20.1095  -29.0835 H   0  0  0  0  0  0  0  0  0  0  0  0
   -2.4782   20.4874  -30.6462 H   0  0  0  0  0  0  0  0  0  0  0  0
   -1.0251   22.5768  -32.1003 H   0  0  0  0  0  0  0  0  0  0  0  0
   -0.8226   20.8636  -32.1354 H   0  0  0  0  0  0  0  0  0  0  0  0
   -6.0803   21.9509  -32.4671 H   0  0  0  0  0  0  0  0  0  0  0  0
   -7.6305   23.5834  -31.4117 H   0  0  0  0  0  0  0  0  0  0  0  0
  -10.0049   22.9418  -31.1036 H   0  0  0  0  0  0  0  0  0  0  0  0
  -10.8362   20.7349  -31.8249 H   0  0  0  0  0  0  0  0  0  0  0  0
   -9.2617   19.1471  -32.8685 H   0  0  0  0  0  0  0  0  0  0  0  0
  1  2  1  0
  2  3  1  0
  3  4  1  0
  4  5  1  0
  5  6  1  0
  6  7  1  0
  7  8  1  0
  8  9  1  0
  9 10  1  0
 10 11  1  0
 12 11  1  1
 12 13  1  0
 13 14  1  0
 14 15  2  0
 14 16  1  0
 16 17  1  0
 17 18  2  0
 18 19  1  0
 19 20  2  0
 20 21  1  0
 21 22  2  0
 12 23  1  0
 23 24  1  0
  3 25  2  0
 25 26  1  0
 26 27  2  0
 27 28  1  0
 28 29  2  0
 29 30  1  0
 30 31  2  0
 31 32  1  0
 32 33  2  0
 27  2  1  0
 33 28  1  0
 24  8  1  0
 23 10  1  0
 22 12  1  0
 22 17  1  0
  1 34  1  0
  1 35  1  0
  1 36  1  0
  5 37  1  0
  5 38  1  0
  6 39  1  0
  6 40  1  0
  7 41  1  0
  7 42  1  0
  9 43  1  0
  9 44  1  0
 10 45  1  6
 11 46  1  0
 11 47  1  0
 13 48  1  0
 13 49  1  0
 16 50  1  0
 18 51  1  0
 19 52  1  0
 20 53  1  0
 21 54  1  0
 23 55  1  1
 24 56  1  0
 24 57  1  0
 29 58  1  0
 30 59  1  0
 31 60  1  0
 32 61  1  0
 33 62  1  0
M  END
>  <smiles>  (10) 
Cn1c(SCCCN2CC3CC4(CC(=O)Nc5ccccc54)C3C2)nnc1-c1ccccc1

>  <score_type>  (10) 
oracle

>  <origin>  (10) 
adg

>  <m_score__min__energy>  (10) 
-11.960000000000001

>  <m_primary>  (10) 
energy

$$$$
12:0
     RDKit          3D

 56 58  0  0  0  0  0  0  0  0999 V2000
   -0.7440   21.4540  -30.7700 C   0  0  0  0  0  0  0  0  0  0  0  0
   -2.1200   21.0640  -30.2510 C   0  0  0  0  0  0  0  0  0  0  0  0
   -2.8100   22.1360  -29.6470 N   0  0  0  0  0  0  0  0  0  0  0  0
   -3.2970   21.9560  -28.3250 C   0  0  0  0  0  0  0  0  0  0  0  0
   -2.7500   20.7940  -27.5690 C   0  0  0  0  0  0  0  0  0  0  0  0
   -2.1050   23.4220  -29.6850 C   0  0  0  0  0  0  0  0  0  0  0  0
   -3.0610   24.5210  -29.4580 C   0  0  0  0  0  0  0  0  0  0  0  0
   -3.8000   25.0400  -30.4430 O   0  0  0  0  0  0  0  0  0  0  0  0
   -4.9990   24.6630  -30.8400 C   0  0  0  0  0  0  0  0  0  0  0  0
   -5.3920   23.2560  -31.0310 C   0  0  0  0  0  0  0  0  0  0  0  0
   -5.8070   22.7870  -32.3400 N   0  0  0  0  0  0  0  0  0  0  0  0
   -5.7950   21.3540  -32.4980 C   0  0  0  0  0  0  0  0  0  0  0  0
   -4.5740   20.8180  -32.9250 C   0  0  0  0  0  0  0  0  0  0  0  0
   -3.5210   21.6280  -33.3070 C   0  0  0  0  0  0  0  0  0  0  0  0
   -2.3090   21.1250  -33.7600 C   0  0  0  0  0  0  0  0  0  0  0  0
   -2.1640   19.7820  -33.8290 C   0  0  0  0  0  0  0  0  0  0  0  0
   -3.2080   18.9670  -33.4540 C   0  0  0  0  0  0  0  0  0  0  0  0
   -4.4240   19.4300  -33.0000 C   0  0  0  0  0  0  0  0  0  0  0  0
   -5.4420   18.5880  -32.6660 N   0  0  0  0  0  0  0  0  0  0  0  0
   -5.2700   17.1590  -32.7210 C   0  0  0  0  0  0  0  0  0  0  0  0
   -6.6370   19.1200  -32.2590 C   0  0  0  0  0  0  0  0  0  0  0  0
   -7.7140   18.3090  -31.9790 C   0  0  0  0  0  0  0  0  0  0  0  0
   -8.9660   18.8150  -31.6290 C   0  0  0  0  0  0  0  0  0  0  0  0
   -9.1290   20.1740  -31.5650 C   0  0  0  0  0  0  0  0  0  0  0  0
   -8.0430   20.9690  -31.8450 C   0  0  0  0  0  0  0  0  0  0  0  0
   -8.3920   22.7010  -31.9680 Cl  0  0  0  0  0  0  0  0  0  0  0  0
   -6.7990   20.5080  -32.1820 C   0  0  0  0  0  0  0  0  0  0  0  0
   -0.0720   21.6445  -29.9202 H   0  0  0  0  0  0  0  0  0  0  0  0
   -0.3377   20.6356  -31.3825 H   0  0  0  0  0  0  0  0  0  0  0  0
   -0.8275   22.3639  -31.3825 H   0  0  0  0  0  0  0  0  0  0  0  0
   -2.7200   20.6933  -31.0951 H   0  0  0  0  0  0  0  0  0  0  0  0
   -1.9724   20.2939  -29.4795 H   0  0  0  0  0  0  0  0  0  0  0  0
   -3.0616   22.8668  -27.7549 H   0  0  0  0  0  0  0  0  0  0  0  0
   -4.3723   21.7523  -28.4353 H   0  0  0  0  0  0  0  0  0  0  0  0
   -2.8395   20.9841  -26.4893 H   0  0  0  0  0  0  0  0  0  0  0  0
   -3.3160   19.8876  -27.8299 H   0  0  0  0  0  0  0  0  0  0  0  0
   -1.6908   20.6526  -27.8299 H   0  0  0  0  0  0  0  0  0  0  0  0
   -1.3347   23.4398  -28.9000 H   0  0  0  0  0  0  0  0  0  0  0  0
   -1.6323   23.5487  -30.6701 H   0  0  0  0  0  0  0  0  0  0  0  0
   -3.7714   24.1576  -28.7009 H   0  0  0  0  0  0  0  0  0  0  0  0
   -2.3911   25.3578  -29.2111 H   0  0  0  0  0  0  0  0  0  0  0  0
   -5.7022   25.0727  -30.1000 H   0  0  0  0  0  0  0  0  0  0  0  0
   -5.0034   25.0275  -31.8778 H   0  0  0  0  0  0  0  0  0  0  0  0
   -4.5287   22.6426  -30.7336 H   0  0  0  0  0  0  0  0  0  0  0  0
   -6.3088   23.1672  -30.4297 H   0  0  0  0  0  0  0  0  0  0  0  0
   -6.0920   23.4240  -33.1210 H   0  0  0  0  0  0  0  0  0  0  0  0
   -3.6490   22.7190  -33.2495 H   0  0  0  0  0  0  0  0  0  0  0  0
   -1.4907   21.7987  -34.0541 H   0  0  0  0  0  0  0  0  0  0  0  0
   -1.2187   19.3443  -34.1822 H   0  0  0  0  0  0  0  0  0  0  0  0
   -3.0627   17.8787  -33.5209 H   0  0  0  0  0  0  0  0  0  0  0  0
   -5.2215   16.7559  -31.6987 H   0  0  0  0  0  0  0  0  0  0  0  0
   -6.1203   16.7076  -33.2532 H   0  0  0  0  0  0  0  0  0  0  0  0
   -4.3369   16.9222  -33.2532 H   0  0  0  0  0  0  0  0  0  0  0  0
   -7.5818   17.2183  -32.0335 H   0  0  0  0  0  0  0  0  0  0  0  0
   -9.8043   18.1376  -31.4091 H   0  0  0  0  0  0  0  0  0  0  0  0
  -10.1002   20.6158  -31.2975 H   0  0  0  0  0  0  0  0  0  0  0  0
  1  2  1  0
  2  3  1  0
  3  4  1  0
  4  5  1  0
  3  6  1  0
  6  7  1  0
  7  8  1  0
  8  9  1  0
  9 10  1  0
 10 11  1  0
 11 12  1  0
 12 13  2  0
 13 14  1  0
 14 15  2  0
 15 16  1  0
 16 17  2  0
 17 18  1  0
 18 19  2  0
 19 20  1  0
 19 21  1  0
 21 22  2  0
 22 23  1  0
 23 24  2  0
 24 25  1  0
 25 26  1  0
 25 27  2  0
 27 12  1  0
 18 13  1  0
 27 21  1  0
  1 28  1  0
  1 29  1  0
  1 30  1  0
  2 31  1  0
  2 32  1  0
  4 33  1  0
  4 34  1  0
  5 35  1  0
  5 36  1  0
  5 37  1  0
  6 38  1  0
  6 39  1  0
  7 40  1  0
  7 41  1  0
  9 42  1  0
  9 43  1  0
 10 44  1  0
 10 45  1  0
 11 46  1  0
 14 47  1  0
 15 48  1  0
 16 49  1  0
 17 50  1  0
 20 51  1  0
 20 52  1  0
 20 53  1  0
 22 54  1  0
 23 55  1  0
 24 56  1  0
M  CHG  1  19   1
M  END
>  <smiles>  (11) 
CCN(CC)CCOCCNc1c2ccccc2[n+](C)c2cccc(Cl)c12

>  <score_type>  (11) 
oracle

>  <origin>  (11) 
adg

>  <m_score__min__energy>  (11) 
-8.4000000000000004

>  <m_primary>  (11) 
energy

$$$$
13:0
     RDKit          3D

 36 37  0  0  0  0  0  0  0  0999 V2000
   -6.1150   25.2910  -29.5490 C   0  0  0  0  0  0  0  0  0  0  0  0
   -5.1550   25.6700  -30.6470 C   0  0  0  0  0  0  0  0  0  0  0  0
   -3.8700   25.2990  -30.4830 O   0  0  0  0  0  0  0  0  0  0  0  0
   -3.5160   24.1970  -29.8120 C   0  0  0  0  0  0  0  0  0  0  0  0
   -3.6300   22.8600  -30.4350 C   0  0  0  0  0  0  0  0  0  0  0  0
   -4.3650   23.0790  -31.6610 O   0  0  0  0  0  0  0  0  0  0  0  0
   -5.0630   22.0600  -32.2350 N   0  0  0  0  0  0  0  0  0  0  0  0
   -6.3820   21.8400  -32.3490 C   0  0  0  0  0  0  0  0  0  0  0  0
   -7.6420   22.9210  -31.7190 S   0  0  0  0  0  0  0  0  0  0  0  0
   -9.0020   21.9270  -30.9950 C   0  0  0  0  0  0  0  0  0  0  0  0
   -9.4640   20.8930  -31.9790 C   0  0  0  0  0  0  0  0  0  0  0  0
   -6.6040   20.6770  -33.0100 N   0  0  0  0  0  0  0  0  0  0  0  0
   -5.4150   20.1350  -33.3310 C   0  0  0  0  0  0  0  0  0  0  0  0
   -5.0710   18.9800  -33.9950 C   0  0  0  0  0  0  0  0  0  0  0  0
   -3.7440   18.6570  -34.1930 C   0  0  0  0  0  0  0  0  0  0  0  0
   -2.7620   19.5250  -33.7070 C   0  0  0  0  0  0  0  0  0  0  0  0
   -3.1420   20.6760  -33.0460 C   0  0  0  0  0  0  0  0  0  0  0  0
   -4.4730   21.0100  -32.8410 C   0  0  0  0  0  0  0  0  0  0  0  0
   -5.6457   25.4763  -28.5715 H   0  0  0  0  0  0  0  0  0  0  0  0
   -7.0298   25.8954  -29.6370 H   0  0  0  0  0  0  0  0  0  0  0  0
   -6.3702   24.2246  -29.6370 H   0  0  0  0  0  0  0  0  0  0  0  0
   -5.5175   25.2123  -31.5792 H   0  0  0  0  0  0  0  0  0  0  0  0
   -5.1398   26.7699  -30.6503 H   0  0  0  0  0  0  0  0  0  0  0  0
   -2.4591   24.3246  -29.5350 H   0  0  0  0  0  0  0  0  0  0  0  0
   -4.2615   24.1537  -29.0043 H   0  0  0  0  0  0  0  0  0  0  0  0
   -2.6332   22.4477  -30.6504 H   0  0  0  0  0  0  0  0  0  0  0  0
   -4.1337   22.1385  -29.7749 H   0  0  0  0  0  0  0  0  0  0  0  0
   -8.6422   21.4271  -30.0836 H   0  0  0  0  0  0  0  0  0  0  0  0
   -9.8431   22.5920  -30.7493 H   0  0  0  0  0  0  0  0  0  0  0  0
   -9.8544   20.0193  -31.4366 H   0  0  0  0  0  0  0  0  0  0  0  0
  -10.2582   21.3172  -32.6109 H   0  0  0  0  0  0  0  0  0  0  0  0
   -8.6182   20.5844  -32.6109 H   0  0  0  0  0  0  0  0  0  0  0  0
   -5.8586   18.3100  -34.3703 H   0  0  0  0  0  0  0  0  0  0  0  0
   -3.4645   17.7345  -34.7229 H   0  0  0  0  0  0  0  0  0  0  0  0
   -1.6963   19.2931  -33.8499 H   0  0  0  0  0  0  0  0  0  0  0  0
   -2.3614   21.3527  -32.6682 H   0  0  0  0  0  0  0  0  0  0  0  0
  1  2  1  0
  2  3  1  0
  3  4  1  0
  4  5  1  0
  5  6  1  0
  6  7  1  0
  7  8  1  0
  8  9  1  0
  9 10  1  0
 10 11  1  0
  8 12  2  0
 12 13  1  0
 13 14  2  0
 14 15  1  0
 15 16  2  0
 16 17  1  0
 17 18  2  0
 18  7  1  0
 18 13  1  0
  1 19  1  0
  1 20  1  0
  1 21  1  0
  2 22  1  0
  2 23  1  0
  4 24  1  0
  4 25  1  0
  5 26  1  0
  5 27  1  0
 10 28  1  0
 10 29  1  0
 11 30  1  0
 11 31  1  0
 11 32  1  0
 14 33  1  0
 15 34  1  0
 16 35  1  0
 17 36  1  0
M  END
>  <smiles>  (12) 
CCOCCOn1c(SCC)nc2ccccc21

>  <score_type>  (12) 
oracle

>  <origin>  (12) 
adg

>  <m_score__min__energy>  (12) 
-6.8300000000000001

>  <m_primary>  (12) 
energy

$$$$
14:0
     RDKit          3D

 38 39  0  0  0  0  0  0  0  0999 V2000
   -3.3080   21.1000  -33.0490 C   0  0  0  0  0  0  0  0  0  0  0  0
   -4.7120   21.5300  -33.2760 N   0  0  0  0  0  0  0  0  0  0  0  0
   -5.7010   20.5470  -33.1170 C   0  0  0  0  0  0  0  0  0  0  0  0
   -5.3960   19.2350  -33.4890 C   0  0  0  0  0  0  0  0  0  0  0  0
   -6.2660   18.1830  -33.3310 C   0  0  0  0  0  0  0  0  0  0  0  0
   -7.5100   18.3740  -32.7850 C   0  0  0  0  0  0  0  0  0  0  0  0
   -7.8350   19.6670  -32.4100 C   0  0  0  0  0  0  0  0  0  0  0  0
   -9.0940   19.8310  -31.8620 C   0  0  0  0  0  0  0  0  0  0  0  0
   -9.4890   21.0750  -31.4660 C   0  0  0  0  0  0  0  0  0  0  0  0
   -8.6200   22.1230  -31.6280 C   0  0  0  0  0  0  0  0  0  0  0  0
   -7.3430   21.9760  -32.1810 C   0  0  0  0  0  0  0  0  0  0  0  0
   -6.3910   23.4550  -32.3450 S   0  0  0  0  0  0  0  0  0  0  0  0
   -6.2820   24.4360  -30.8330 C   0  0  0  0  0  0  0  0  0  0  0  0
   -5.0280   25.2720  -30.8310 C   0  0  0  0  0  0  0  0  0  0  0  0
   -3.8960   24.6570  -30.2180 N   0  0  0  0  0  0  0  0  0  0  0  0
   -4.2710   24.3980  -28.8240 C   0  0  0  0  0  0  0  0  0  0  0  0
   -3.4800   23.4340  -30.8380 C   0  0  0  0  0  0  0  0  0  0  0  0
   -6.9490   20.7290  -32.5730 C   0  0  0  0  0  0  0  0  0  0  0  0
   -3.1130   21.0403  -31.9681 H   0  0  0  0  0  0  0  0  0  0  0  0
   -3.1488   20.1119  -33.5054 H   0  0  0  0  0  0  0  0  0  0  0  0
   -2.6228   21.8295  -33.5054 H   0  0  0  0  0  0  0  0  0  0  0  0
   -4.7780   22.5180  -33.5070 H   0  0  0  0  0  0  0  0  0  0  0  0
   -4.4089   19.0340  -33.9309 H   0  0  0  0  0  0  0  0  0  0  0  0
   -5.9609   17.1744  -33.6465 H   0  0  0  0  0  0  0  0  0  0  0  0
   -8.2152   17.5404  -32.6515 H   0  0  0  0  0  0  0  0  0  0  0  0
   -9.7681   18.9694  -31.7470 H   0  0  0  0  0  0  0  0  0  0  0  0
  -10.4844   21.2342  -31.0257 H   0  0  0  0  0  0  0  0  0  0  0  0
   -8.9414   23.1254  -31.3086 H   0  0  0  0  0  0  0  0  0  0  0  0
   -7.1579   25.0983  -30.7681 H   0  0  0  0  0  0  0  0  0  0  0  0
   -6.2547   23.7546  -29.9699 H   0  0  0  0  0  0  0  0  0  0  0  0
   -4.7686   25.5010  -31.8751 H   0  0  0  0  0  0  0  0  0  0  0  0
   -5.2548   26.1662  -30.2319 H   0  0  0  0  0  0  0  0  0  0  0  0
   -3.5537   24.8934  -28.1532 H   0  0  0  0  0  0  0  0  0  0  0  0
   -5.2807   24.7922  -28.6366 H   0  0  0  0  0  0  0  0  0  0  0  0
   -4.2599   23.3141  -28.6366 H   0  0  0  0  0  0  0  0  0  0  0  0
   -3.2290   22.6962  -30.0617 H   0  0  0  0  0  0  0  0  0  0  0  0
   -4.2961   23.0442  -31.4641 H   0  0  0  0  0  0  0  0  0  0  0  0
   -2.5955   23.6227  -31.4641 H   0  0  0  0  0  0  0  0  0  0  0  0
  1  2  1  0
  2  3  1  0
  3  4  2  0
  4  5  1  0
  5  6  2  0
  6  7  1  0
  7  8  2  0
  8  9  1  0
  9 10  2  0
 10 11  1  0
 11 12  1  0
 12 13  1  0
 13 14  1  0
 14 15  1  0
 15 16  1  0
 15 17  1  0
 11 18  2  0
 18  3  1  0
 18  7  1  0
  1 19  1  0
  1 20  1  0
  1 21  1  0
  2 22  1  0
  4 23  1  0
  5 24  1  0
  6 25  1  0
  8 26  1  0
  9 27  1  0
 10 28  1  0
 13 29  1  0
 13 30  1  0
 14 31  1  0
 14 32  1  0
 16 33  1  0
 16 34  1  0
 16 35  1  0
 17 36  1  0
 17 37  1  0
 17 38  1  0
M  END
>  <smiles>  (13) 
CNc1cccc2cccc(SCCN(C)C)c12

>  <score_type>  (13) 
oracle

>  <origin>  (13) 
adg

>  <m_score__min__energy>  (13) 
-7.7999999999999998

>  <m_primary>  (13) 
energy

$$$$
15:0
     RDKit          3D

 53 55  0  0  0  0  0  0  0  0999 V2000
   -3.7170   22.3270  -27.7520 C   0  0  0  0  0  0  0  0  0  0  0  0
   -2.2470   22.0150  -27.5890 C   0  0  0  0  0  0  0  0  0  0  0  0
   -2.0260   20.6340  -27.8690 N   0  0  0  0  0  0  0  0  0  0  0  0
   -3.0510   19.7330  -27.4540 C   0  0  0  0  0  0  0  0  0  0  0  0
   -2.5460   18.9020  -26.3070 C   0  0  0  0  0  0  0  0  0  0  0  0
   -1.3800   20.3400  -29.0980 C   0  0  0  0  0  0  0  0  0  0  0  0
   -1.2830   21.4750  -30.0760 C   0  0  0  0  0  0  0  0  0  0  0  0
   -2.2620   21.2130  -31.1400 N   0  0  0  0  0  0  0  0  0  0  0  0
   -3.4840   21.9400  -31.1210 C   0  0  0  0  0  0  0  0  0  0  0  0
   -3.4580   23.2910  -30.8500 C   0  0  0  0  0  0  0  0  0  0  0  0
   -4.5810   24.0830  -30.8080 C   0  0  0  0  0  0  0  0  0  0  0  0
   -4.5310   25.4420  -30.5330 O   0  0  0  0  0  0  0  0  0  0  0  0
   -5.7320   26.0670  -30.1190 C   0  0  0  0  0  0  0  0  0  0  0  0
   -5.7970   23.4460  -31.0600 C   0  0  0  0  0  0  0  0  0  0  0  0
   -5.8930   22.1060  -31.3370 C   0  0  0  0  0  0  0  0  0  0  0  0
   -4.7210   21.3780  -31.3610 C   0  0  0  0  0  0  0  0  0  0  0  0
   -4.7960   20.0380  -31.6280 C   0  0  0  0  0  0  0  0  0  0  0  0
   -6.0150   19.4210  -31.8700 C   0  0  0  0  0  0  0  0  0  0  0  0
   -6.0580   18.0710  -32.1300 C   0  0  0  0  0  0  0  0  0  0  0  0
   -7.2440   17.4210  -32.3680 C   0  0  0  0  0  0  0  0  0  0  0  0
   -8.4000   18.1700  -32.3380 C   0  0  0  0  0  0  0  0  0  0  0  0
   -8.3490   19.5360  -32.0740 C   0  0  0  0  0  0  0  0  0  0  0  0
   -7.1620   20.1990  -31.8350 C   0  0  0  0  0  0  0  0  0  0  0  0
   -7.1110   21.5320  -31.5720 N   0  0  0  0  0  0  0  0  0  0  0  0
   -8.3360   22.3120  -31.5670 C   0  0  0  0  0  0  0  0  0  0  0  0
   -4.1830   22.4259  -26.7605 H   0  0  0  0  0  0  0  0  0  0  0  0
   -3.8324   23.2696  -28.3071 H   0  0  0  0  0  0  0  0  0  0  0  0
   -4.2054   21.5125  -28.3071 H   0  0  0  0  0  0  0  0  0  0  0  0
   -1.6608   22.6302  -28.2875 H   0  0  0  0  0  0  0  0  0  0  0  0
   -1.9345   22.2373  -26.5580 H   0  0  0  0  0  0  0  0  0  0  0  0
   -3.9347   20.3040  -27.1332 H   0  0  0  0  0  0  0  0  0  0  0  0
   -3.3266   19.0762  -28.2923 H   0  0  0  0  0  0  0  0  0  0  0  0
   -2.8337   19.3754  -25.3567 H   0  0  0  0  0  0  0  0  0  0  0  0
   -2.9850   17.8949  -26.3626 H   0  0  0  0  0  0  0  0  0  0  0  0
   -1.4499   18.8278  -26.3626 H   0  0  0  0  0  0  0  0  0  0  0  0
   -0.3579   20.0038  -28.8695 H   0  0  0  0  0  0  0  0  0  0  0  0
   -2.0043   19.5780  -29.5875 H   0  0  0  0  0  0  0  0  0  0  0  0
   -1.5159   22.4260  -29.5747 H   0  0  0  0  0  0  0  0  0  0  0  0
   -0.2663   21.5502  -30.4891 H   0  0  0  0  0  0  0  0  0  0  0  0
   -2.0150   20.5030  -31.8600 H   0  0  0  0  0  0  0  0  0  0  0  0
   -2.4832   23.7625  -30.6563 H   0  0  0  0  0  0  0  0  0  0  0  0
   -5.7740   26.0889  -29.0200 H   0  0  0  0  0  0  0  0  0  0  0  0
   -5.7629   27.0956  -30.5077 H   0  0  0  0  0  0  0  0  0  0  0  0
   -6.5922   25.5021  -30.5077 H   0  0  0  0  0  0  0  0  0  0  0  0
   -6.7192   24.0451  -31.0354 H   0  0  0  0  0  0  0  0  0  0  0  0
   -3.8735   19.4393  -31.6512 H   0  0  0  0  0  0  0  0  0  0  0  0
   -5.1192   17.4979  -32.1477 H   0  0  0  0  0  0  0  0  0  0  0  0
   -7.2701   16.3410  -32.5752 H   0  0  0  0  0  0  0  0  0  0  0  0
   -9.3698   17.6854  -32.5239 H   0  0  0  0  0  0  0  0  0  0  0  0
   -9.2886   20.1077  -32.0552 H   0  0  0  0  0  0  0  0  0  0  0  0
   -8.6423   22.5070  -30.5287 H   0  0  0  0  0  0  0  0  0  0  0  0
   -8.1644   23.2675  -32.0843 H   0  0  0  0  0  0  0  0  0  0  0  0
   -9.1292   21.7523  -32.0843 H   0  0  0  0  0  0  0  0  0  0  0  0
  1  2  1  0
  2  3  1  0
  3  4  1  0
  4  5  1  0
  3  6  1  0
  6  7  1  0
  7  8  1  0
  8  9  1  0
  9 10  2  0
 10 11  1  0
 11 12  1  0
 12 13  1  0
 11 14  2  0
 14 15  1  0
 15 16  2  0
 16 17  1  0
 17 18  2  0
 18 19  1  0
 19 20  2  0
 20 21  1  0
 21 22  2  0
 22 23  1  0
 23 24  2  0
 24 25  1  0
 16  9  1  0
 23 18  1  0
 24 15  1  0
  1 26  1  0
  1 27  1  0
  1 28  1  0
  2 29  1  0
  2 30  1  0
  4 31  1  0
  4 32  1  0
  5 33  1  0
  5 34  1  0
  5 35  1  0
  6 36  1  0
  6 37  1  0
  7 38  1  0
  7 39  1  0
  8 40  1  0
 10 41  1  0
 13 42  1  0
 13 43  1  0
 13 44  1  0
 14 45  1  0
 17 46  1  0
 19 47  1  0
 20 48  1  0
 21 49  1  0
 22 50  1  0
 25 51  1  0
 25 52  1  0
 25 53  1  0
M  CHG  1  24   1
M  END
>  <smiles>  (14) 
CCN(CC)CCNc1cc(OC)cc2c1cc1ccccc1[n+]2C

>  <score_type>  (14) 
oracle

>  <origin>  (14) 
adg

>  <m_score__min__energy>  (14) 
-7.6699999999999999

>  <m_primary>  (14) 
energy

$$$$
16:0
     RDKit          3D

 63 65  0  0  0  0  0  0  0  0999 V2000
    0.6560   24.8930  -36.1280 C   0  0  0  0  0  0  0  0  0  0  0  0
    1.8470   23.9330  -36.0270 C   0  0  0  0  0  0  0  0  0  0  0  0
    1.3860   22.7870  -35.2680 N   0  0  0  0  0  0  0  0  0  0  0  0
    2.4800   21.8660  -35.1450 C   0  0  0  0  0  0  0  0  0  0  0  0
    0.2110   22.2160  -35.8620 C   0  0  0  0  0  0  0  0  0  0  0  0
   -0.0070   20.7570  -35.4920 C   0  0  0  0  0  0  0  0  0  0  0  0
   -0.8490   20.7330  -34.4220 O   0  0  0  0  0  0  0  0  0  0  0  0
   -0.3450   21.1770  -33.2410 C   0  0  0  0  0  0  0  0  0  0  0  0
   -1.1900   20.9450  -32.0190 C   0  0  0  0  0  0  0  0  0  0  0  0
   -2.4140   21.8000  -32.0970 C   0  0  0  0  0  0  0  0  0  0  0  0
   -3.2870   21.5030  -33.2110 N   0  0  0  0  0  0  0  0  0  0  0  0
   -4.6270   21.1390  -33.0410 C   0  0  0  0  0  0  0  0  0  0  0  0
   -5.6570   21.8800  -32.5550 C   0  0  0  0  0  0  0  0  0  0  0  0
   -6.9720   21.3850  -32.4570 C   0  0  0  0  0  0  0  0  0  0  0  0
   -7.2660   20.1190  -32.8520 N   0  0  0  0  0  0  0  0  0  0  0  0
   -8.5920   19.6070  -32.7390 C   0  0  0  0  0  0  0  0  0  0  0  0
   -8.8490   18.7330  -31.5470 C   0  0  0  0  0  0  0  0  0  0  0  0
   -6.2530   19.3570  -33.3430 C   0  0  0  0  0  0  0  0  0  0  0  0
   -6.4780   18.0550  -33.7790 C   0  0  0  0  0  0  0  0  0  0  0  0
   -5.4670   17.2580  -34.2900 C   0  0  0  0  0  0  0  0  0  0  0  0
   -4.1800   17.7280  -34.3910 C   0  0  0  0  0  0  0  0  0  0  0  0
   -3.9440   19.0150  -33.9640 C   0  0  0  0  0  0  0  0  0  0  0  0
   -4.9590   19.8280  -33.4460 C   0  0  0  0  0  0  0  0  0  0  0  0
   -7.9620   22.3350  -31.9300 C   0  0  0  0  0  0  0  0  0  0  0  0
   -7.4350   22.7800  -30.5590 C   0  0  0  0  0  0  0  0  0  0  0  0
   -6.0490   23.3290  -30.6620 C   0  0  0  0  0  0  0  0  0  0  0  0
   -5.4690   23.2670  -32.0690 C   0  0  0  0  0  0  0  0  0  0  0  0
    0.3180   25.1655  -35.1173 H   0  0  0  0  0  0  0  0  0  0  0  0
    0.9614   25.8004  -36.6696 H   0  0  0  0  0  0  0  0  0  0  0  0
   -0.1659   24.4019  -36.6696 H   0  0  0  0  0  0  0  0  0  0  0  0
    2.1692   23.6197  -37.0310 H   0  0  0  0  0  0  0  0  0  0  0  0
    2.7071   24.4147  -35.5389 H   0  0  0  0  0  0  0  0  0  0  0  0
    2.6915   21.6880  -34.0803 H   0  0  0  0  0  0  0  0  0  0  0  0
    2.2150   20.9150  -35.6302 H   0  0  0  0  0  0  0  0  0  0  0  0
    3.3719   22.2892  -35.6302 H   0  0  0  0  0  0  0  0  0  0  0  0
   -0.6636   22.7942  -35.5292 H   0  0  0  0  0  0  0  0  0  0  0  0
    0.3470   22.2567  -36.9528 H   0  0  0  0  0  0  0  0  0  0  0  0
   -0.4575   20.2172  -36.3380 H   0  0  0  0  0  0  0  0  0  0  0  0
    0.9484   20.2699  -35.2473 H   0  0  0  0  0  0  0  0  0  0  0  0
    0.6201   20.6743  -33.0799 H   0  0  0  0  0  0  0  0  0  0  0  0
   -0.2802   22.2701  -33.3458 H   0  0  0  0  0  0  0  0  0  0  0  0
   -1.4836   19.8860  -31.9706 H   0  0  0  0  0  0  0  0  0  0  0  0
   -0.6151   21.2047  -31.1179 H   0  0  0  0  0  0  0  0  0  0  0  0
   -2.9863   21.6651  -31.1674 H   0  0  0  0  0  0  0  0  0  0  0  0
   -2.0637   22.8325  -32.2427 H   0  0  0  0  0  0  0  0  0  0  0  0
   -2.8530   21.5750  -34.1720 H   0  0  0  0  0  0  0  0  0  0  0  0
   -9.2819   20.4622  -32.6869 H   0  0  0  0  0  0  0  0  0  0  0  0
   -8.7439   18.9668  -33.6205 H   0  0  0  0  0  0  0  0  0  0  0  0
   -8.6794   19.3099  -30.6259 H   0  0  0  0  0  0  0  0  0  0  0  0
   -9.8897   18.3775  -31.5705 H   0  0  0  0  0  0  0  0  0  0  0  0
   -8.1664   17.8708  -31.5705 H   0  0  0  0  0  0  0  0  0  0  0  0
   -7.4962   17.6435  -33.7155 H   0  0  0  0  0  0  0  0  0  0  0  0
   -5.6978   16.2342  -34.6196 H   0  0  0  0  0  0  0  0  0  0  0  0
   -3.3716   17.1017  -34.7963 H   0  0  0  0  0  0  0  0  0  0  0  0
   -2.9229   19.4185  -34.0321 H   0  0  0  0  0  0  0  0  0  0  0  0
   -8.0564   23.2005  -32.6023 H   0  0  0  0  0  0  0  0  0  0  0  0
   -8.9577   21.8747  -31.8483 H   0  0  0  0  0  0  0  0  0  0  0  0
   -8.0995   23.5580  -30.1550 H   0  0  0  0  0  0  0  0  0  0  0  0
   -7.4128   21.9037  -29.8945 H   0  0  0  0  0  0  0  0  0  0  0  0
   -6.0672   24.3806  -30.3399 H   0  0  0  0  0  0  0  0  0  0  0  0
   -5.4077   22.7051  -30.0221 H   0  0  0  0  0  0  0  0  0  0  0  0
   -5.9976   23.9726  -32.7268 H   0  0  0  0  0  0  0  0  0  0  0  0
   -4.4036   23.5408  -32.0666 H   0  0  0  0  0  0  0  0  0  0  0  0
  1  2  1  0
  2  3  1  0
  3  4  1  0
  3  5  1  0
  5  6  1  0
  6  7  1  0
  7  8  1  0
  8  9  1  0
  9 10  1  0
 10 11  1  0
 11 12  1  0
 12 13  2  0
 13 14  1  0
 14 15  2  0
 15 16  1  0
 16 17  1  0
 15 18  1  0
 18 19  2  0
 19 20  1  0
 20 21  2  0
 21 22  1  0
 22 23  2  0
 14 24  1  0
 24 25  1  0
 25 26  1  0
 26 27  1  0
 23 12  1  0
 27 13  1  0
 23 18  1  0
  1 28  1  0
  1 29  1  0
  1 30  1  0
  2 31  1  0
  2 32  1  0
  4 33  1  0
  4 34  1  0
  4 35  1  0
  5 36  1  0
  5 37  1  0
  6 38  1  0
  6 39  1  0
  8 40  1  0
  8 41  1  0
  9 42  1  0
  9 43  1  0
 10 44  1  0
 10 45  1  0
 11 46  1  0
 16 47  1  0
 16 48  1  0
 17 49  1  0
 17 50  1  0
 17 51  1  0
 19 52  1  0
 20 53  1  0
 21 54  1  0
 22 55  1  0
 24 56  1  0
 24 57  1  0
 25 58  1  0
 25 59  1  0
 26 60  1  0
 26 61  1  0
 27 62  1  0
 27 63  1  0
M  CHG  1  15   1
M  END
>  <smiles>  (15) 
CCN(C)CCOCCCNc1c2c([n+](CC)c3ccccc13)CCCC2

>  <score_type>  (15) 
oracle

>  <origin>  (15) 
adg

>  <m_score__min__energy>  (15) 
-9.1899999999999995

>  <m_primary>  (15) 
energy

$$$$
17:0
     RDKit          3D

 70 73  0  0  0  0  0  0  0  0999 V2000
   -3.0360   24.0240  -28.2760 C   0  0  0  0  0  0  0  0  0  0  0  0
   -4.2910   24.5300  -28.9280 C   0  0  0  0  0  0  0  0  0  0  0  0
   -4.1310   24.7260  -30.4000 N   0  0  0  0  0  0  0  0  0  0  0  0
   -5.4720   24.8830  -30.9470 C   0  0  0  0  0  0  0  0  0  0  0  0
   -6.4510   25.2920  -29.8530 C   0  0  0  0  0  0  0  0  0  0  0  0
   -3.5710   23.4740  -30.8450 C   0  0  0  0  0  0  0  0  0  0  0  0
   -4.4190   22.3720  -31.2890 C   0  0  0  0  0  0  0  0  0  0  0  0
   -4.6830   22.0680  -32.6440 N   0  0  0  0  0  0  0  0  0  0  0  0
   -5.1180   20.7130  -32.9180 C   0  0  0  0  0  0  0  0  0  0  0  0
   -6.4810   20.5200  -32.6430 C   0  0  0  0  0  0  0  0  0  0  0  0
   -7.2670   21.5940  -32.2050 C   0  0  0  0  0  0  0  0  0  0  0  0
   -8.6080   21.4700  -31.9290 C   0  0  0  0  0  0  0  0  0  0  0  0
   -9.1790   20.2340  -32.0970 C   0  0  0  0  0  0  0  0  0  0  0  0
   -8.3940   19.1630  -32.5340 C   0  0  0  0  0  0  0  0  0  0  0  0
   -7.0640   19.2760  -32.8090 C   0  0  0  0  0  0  0  0  0  0  0  0
   -6.2850   18.2550  -33.2420 N   0  0  0  0  0  0  0  0  0  0  0  0
   -6.8800   16.9470  -33.3830 C   0  0  0  0  0  0  0  0  0  0  0  0
   -4.9640   18.4360  -33.5120 C   0  0  0  0  0  0  0  0  0  0  0  0
   -4.2260   17.3600  -33.9480 C   0  0  0  0  0  0  0  0  0  0  0  0
   -2.9000   17.5480  -34.2160 C   0  0  0  0  0  0  0  0  0  0  0  0
   -2.3130   18.7840  -34.0560 C   0  0  0  0  0  0  0  0  0  0  0  0
   -3.0300   19.9010  -33.6150 C   0  0  0  0  0  0  0  0  0  0  0  0
   -2.3450   21.1220  -33.5940 N   0  0  0  0  0  0  0  0  0  0  0  0
   -1.5240   21.5190  -32.4240 C   0  0  0  0  0  0  0  0  0  0  0  0
   -0.6820   20.3740  -31.9120 C   0  0  0  0  0  0  0  0  0  0  0  0
   -0.8790   20.1040  -30.5020 N   0  0  0  0  0  0  0  0  0  0  0  0
   -1.8920   20.7560  -29.8780 C   0  0  0  0  0  0  0  0  0  0  0  0
   -2.1900   20.6040  -28.5470 C   0  0  0  0  0  0  0  0  0  0  0  0
   -1.4340   19.7480  -27.7750 C   0  0  0  0  0  0  0  0  0  0  0  0
   -0.4050   19.0860  -28.4080 C   0  0  0  0  0  0  0  0  0  0  0  0
   -0.1330   19.2690  -29.7710 C   0  0  0  0  0  0  0  0  0  0  0  0
    0.9740   18.5210  -30.3610 C   0  0  0  0  0  0  0  0  0  0  0  0
   -4.3560   19.6930  -33.3500 C   0  0  0  0  0  0  0  0  0  0  0  0
   -3.1472   24.0688  -27.1825 H   0  0  0  0  0  0  0  0  0  0  0  0
   -2.8567   22.9833  -28.5840 H   0  0  0  0  0  0  0  0  0  0  0  0
   -2.1850   24.6493  -28.5840 H   0  0  0  0  0  0  0  0  0  0  0  0
   -5.0971   23.8019  -28.7545 H   0  0  0  0  0  0  0  0  0  0  0  0
   -4.5276   25.5082  -28.4840 H   0  0  0  0  0  0  0  0  0  0  0  0
   -5.4562   25.6586  -31.7269 H   0  0  0  0  0  0  0  0  0  0  0  0
   -5.7966   23.9224  -31.3735 H   0  0  0  0  0  0  0  0  0  0  0  0
   -5.9996   25.1034  -28.8678 H   0  0  0  0  0  0  0  0  0  0  0  0
   -6.6838   26.3626  -29.9508 H   0  0  0  0  0  0  0  0  0  0  0  0
   -7.3762   24.7052  -29.9508 H   0  0  0  0  0  0  0  0  0  0  0  0
   -2.9074   23.7138  -31.6889 H   0  0  0  0  0  0  0  0  0  0  0  0
   -3.1278   23.0728  -29.9216 H   0  0  0  0  0  0  0  0  0  0  0  0
   -3.9716   21.4623  -30.8622 H   0  0  0  0  0  0  0  0  0  0  0  0
   -5.4072   22.7263  -30.9603 H   0  0  0  0  0  0  0  0  0  0  0  0
   -4.6680   22.6700  -33.4850 H   0  0  0  0  0  0  0  0  0  0  0  0
   -6.7912   22.5774  -32.0766 H   0  0  0  0  0  0  0  0  0  0  0  0
   -9.2014   22.3303  -31.5860 H   0  0  0  0  0  0  0  0  0  0  0  0
  -10.2490   20.0864  -31.8889 H   0  0  0  0  0  0  0  0  0  0  0  0
   -8.8732   18.1812  -32.6621 H   0  0  0  0  0  0  0  0  0  0  0  0
   -7.0730   16.5227  -32.3867 H   0  0  0  0  0  0  0  0  0  0  0  0
   -7.8277   17.0328  -33.9349 H   0  0  0  0  0  0  0  0  0  0  0  0
   -6.1926   16.2890  -33.9349 H   0  0  0  0  0  0  0  0  0  0  0  0
   -4.6925   16.3723  -34.0776 H   0  0  0  0  0  0  0  0  0  0  0  0
   -2.2920   16.7002  -34.5646 H   0  0  0  0  0  0  0  0  0  0  0  0
   -1.2426   18.8964  -34.2831 H   0  0  0  0  0  0  0  0  0  0  0  0
   -2.2860   21.8370  -34.3340 H   0  0  0  0  0  0  0  0  0  0  0  0
   -0.8598   22.3446  -32.7194 H   0  0  0  0  0  0  0  0  0  0  0  0
   -2.2060   21.8276  -31.6180 H   0  0  0  0  0  0  0  0  0  0  0  0
   -0.9410   19.4686  -32.4805 H   0  0  0  0  0  0  0  0  0  0  0  0
    0.3720   20.6594  -32.0451 H   0  0  0  0  0  0  0  0  0  0  0  0
   -2.5094   21.4455  -30.4725 H   0  0  0  0  0  0  0  0  0  0  0  0
   -3.0261   21.1613  -28.0994 H   0  0  0  0  0  0  0  0  0  0  0  0
   -1.6424   19.6006  -26.7050 H   0  0  0  0  0  0  0  0  0  0  0  0
    0.2216   18.3935  -27.8269 H   0  0  0  0  0  0  0  0  0  0  0  0
    1.5991   18.0987  -29.5604 H   0  0  0  0  0  0  0  0  0  0  0  0
    0.5755   17.7063  -30.9835 H   0  0  0  0  0  0  0  0  0  0  0  0
    1.5812   19.1947  -30.9835 H   0  0  0  0  0  0  0  0  0  0  0  0
  1  2  1  0
  2  3  1  0
  3  4  1  0
  4  5  1  0
  3  6  1  0
  6  7  1  0
  7  8  1  0
  8  9  1  0
  9 10  2  0
 10 11  1  0
 11 12  2  0
 12 13  1  0
 13 14  2  0
 14 15  1  0
 15 16  2  0
 16 17  1  0
 16 18  1  0
 18 19  2  0
 19 20  1  0
 20 21  2  0
 21 22  1  0
 22 23  1  0
 23 24  1  0
 24 25  1  0
 25 26  1  0
 26 27  2  0
 27 28  1  0
 28 29  2  0
 29 30  1  0
 30 31  2  0
 31 32  1  0
 22 33  2  0
 33  9  1  0
 15 10  1  0
 33 18  1  0
 31 26  1  0
  1 34  1  0
  1 35  1  0
  1 36  1  0
  2 37  1  0
  2 38  1  0
  4 39  1  0
  4 40  1  0
  5 41  1  0
  5 42  1  0
  5 43  1  0
  6 44  1  0
  6 45  1  0
  7 46  1  0
  7 47  1  0
  8 48  1  0
 11 49  1  0
 12 50  1  0
 13 51  1  0
 14 52  1  0
 17 53  1  0
 17 54  1  0
 17 55  1  0
 19 56  1  0
 20 57  1  0
 21 58  1  0
 23 59  1  0
 24 60  1  0
 24 61  1  0
 25 62  1  0
 25 63  1  0
 27 64  1  0
 28 65  1  0
 29 66  1  0
 30 67  1  0
 32 68  1  0
 32 69  1  0
 32 70  1  0
M  CHG  2  16   1  26   1
M  END
>  <smiles>  (16) 
CCN(CC)CCNc1c2ccccc2[n+](C)c2cccc(NCC[n+]3ccccc3C)c12

>  <score_type>  (16) 
oracle

>  <origin>  (16) 
adg

>  <m_score__min__energy>  (16) 
-9.4399999999999995

>  <m_primary>  (16) 
energy

$$$$
18:0
     RDKit          3D

 58 61  0  0  0  0  0  0  0  0999 V2000
   -6.0530   25.3170  -29.9490 C   0  0  0  0  0  0  0  0  0  0  0  0
   -4.9010   24.8980  -30.8380 C   0  0  0  0  0  0  0  0  0  0  0  0
   -4.5180   23.5500  -30.6960 N   0  0  0  0  0  0  0  0  0  0  0  0
   -4.9530   22.8440  -29.5490 C   0  0  0  0  0  0  0  0  0  0  0  0
   -3.4280   23.0490  -31.4260 C   0  0  0  0  0  0  0  0  0  0  0  0
   -3.6590   21.7040  -32.0200 C   0  0  0  0  0  0  0  0  0  0  0  0
   -4.6580   21.6990  -33.0900 N   0  0  0  0  0  0  0  0  0  0  0  0
   -5.7550   20.8210  -32.9210 C   0  0  0  0  0  0  0  0  0  0  0  0
   -6.9500   21.4130  -32.4940 C   0  0  0  0  0  0  0  0  0  0  0  0
   -7.0100   22.7920  -32.2640 C   0  0  0  0  0  0  0  0  0  0  0  0
   -8.1920   23.3960  -31.8380 C   0  0  0  0  0  0  0  0  0  0  0  0
   -9.3040   22.5830  -31.6500 C   0  0  0  0  0  0  0  0  0  0  0  0
   -9.2660   21.2320  -31.8680 C   0  0  0  0  0  0  0  0  0  0  0  0
   -8.0900   20.6640  -32.2870 C   0  0  0  0  0  0  0  0  0  0  0  0
   -8.0380   19.3350  -32.5050 N   0  0  0  0  0  0  0  0  0  0  0  0
   -9.2620   18.5600  -32.2800 C   0  0  0  0  0  0  0  0  0  0  0  0
   -6.8960   18.7420  -32.9180 C   0  0  0  0  0  0  0  0  0  0  0  0
   -6.5850   17.4690  -33.2010 N   0  0  0  0  0  0  0  0  0  0  0  0
   -5.2940   17.3620  -33.5810 C   0  0  0  0  0  0  0  0  0  0  0  0
   -4.5070   16.3010  -33.9660 C   0  0  0  0  0  0  0  0  0  0  0  0
   -3.1860   16.4750  -34.3130 C   0  0  0  0  0  0  0  0  0  0  0  0
   -2.3510   15.3720  -34.7140 N   0  0  0  0  0  0  0  0  0  0  0  0
   -1.2820   14.8690  -33.8910 C   0  0  0  0  0  0  0  0  0  0  0  0
   -2.6250   14.7630  -36.0120 C   0  0  0  0  0  0  0  0  0  0  0  0
   -2.6810   17.7560  -34.2590 C   0  0  0  0  0  0  0  0  0  0  0  0
   -3.4450   18.8500  -33.8770 C   0  0  0  0  0  0  0  0  0  0  0  0
   -4.7420   18.6280  -33.5430 C   0  0  0  0  0  0  0  0  0  0  0  0
   -5.7280   19.4700  -33.1360 C   0  0  0  0  0  0  0  0  0  0  0  0
   -5.7598   25.2103  -28.8942 H   0  0  0  0  0  0  0  0  0  0  0  0
   -6.3111   26.3666  -30.1535 H   0  0  0  0  0  0  0  0  0  0  0  0
   -6.9250   24.6785  -30.1535 H   0  0  0  0  0  0  0  0  0  0  0  0
   -5.1960   25.0636  -31.8847 H   0  0  0  0  0  0  0  0  0  0  0  0
   -4.0343   25.5045  -30.5362 H   0  0  0  0  0  0  0  0  0  0  0  0
   -4.6248   23.3766  -28.6442 H   0  0  0  0  0  0  0  0  0  0  0  0
   -6.0508   22.7745  -29.5557 H   0  0  0  0  0  0  0  0  0  0  0  0
   -4.5215   21.8322  -29.5557 H   0  0  0  0  0  0  0  0  0  0  0  0
   -3.2060   23.7530  -32.2416 H   0  0  0  0  0  0  0  0  0  0  0  0
   -2.5941   22.9426  -30.7166 H   0  0  0  0  0  0  0  0  0  0  0  0
   -2.7070   21.3375  -32.4315 H   0  0  0  0  0  0  0  0  0  0  0  0
   -4.0439   21.0586  -31.2167 H   0  0  0  0  0  0  0  0  0  0  0  0
   -4.5750   22.3090  -33.9360 H   0  0  0  0  0  0  0  0  0  0  0  0
   -6.1122   23.4078  -32.4215 H   0  0  0  0  0  0  0  0  0  0  0  0
   -8.2431   24.4797  -31.6566 H   0  0  0  0  0  0  0  0  0  0  0  0
  -10.2463   23.0408  -31.3147 H   0  0  0  0  0  0  0  0  0  0  0  0
  -10.1619   20.6136  -31.7101 H   0  0  0  0  0  0  0  0  0  0  0  0
   -9.4336   18.4513  -31.1989 H   0  0  0  0  0  0  0  0  0  0  0  0
  -10.1158   19.0824  -32.7361 H   0  0  0  0  0  0  0  0  0  0  0  0
   -9.1549   17.5648  -32.7361 H   0  0  0  0  0  0  0  0  0  0  0  0
   -7.2320   16.6650  -33.1410 H   0  0  0  0  0  0  0  0  0  0  0  0
   -4.9428   15.2915  -33.9972 H   0  0  0  0  0  0  0  0  0  0  0  0
   -1.5462   14.9933  -32.8304 H   0  0  0  0  0  0  0  0  0  0  0  0
   -1.1240   13.8020  -34.1069 H   0  0  0  0  0  0  0  0  0  0  0  0
   -0.3592   15.4274  -34.1069 H   0  0  0  0  0  0  0  0  0  0  0  0
   -3.0722   13.7690  -35.8636 H   0  0  0  0  0  0  0  0  0  0  0  0
   -3.3237   15.3990  -36.5753 H   0  0  0  0  0  0  0  0  0  0  0  0
   -1.6856   14.6620  -36.5753 H   0  0  0  0  0  0  0  0  0  0  0  0
   -1.6274   17.9185  -34.5302 H   0  0  0  0  0  0  0  0  0  0  0  0
   -3.0145   19.8618  -33.8460 H   0  0  0  0  0  0  0  0  0  0  0  0
  1  2  1  0
  2  3  1  0
  3  4  1  0
  3  5  1  0
  5  6  1  0
  6  7  1  0
  7  8  1  0
  8  9  2  0
  9 10  1  0
 10 11  2  0
 11 12  1  0
 12 13  2  0
 13 14  1  0
 14 15  2  0
 15 16  1  0
 15 17  1  0
 17 18  1  0
 18 19  1  0
 19 20  2  0
 20 21  1  0
 21 22  1  0
 22 23  1  0
 22 24  1  0
 21 25  2  0
 25 26  1  0
 26 27  2  0
 27 28  1  0
 28  8  1  0
 14  9  1  0
 28 17  2  0
 27 19  1  0
  1 29  1  0
  1 30  1  0
  1 31  1  0
  2 32  1  0
  2 33  1  0
  4 34  1  0
  4 35  1  0
  4 36  1  0
  5 37  1  0
  5 38  1  0
  6 39  1  0
  6 40  1  0
  7 41  1  0
 10 42  1  0
 11 43  1  0
 12 44  1  0
 13 45  1  0
 16 46  1  0
 16 47  1  0
 16 48  1  0
 18 49  1  0
 20 50  1  0
 23 51  1  0
 23 52  1  0
 23 53  1  0
 24 54  1  0
 24 55  1  0
 24 56  1  0
 25 57  1  0
 26 58  1  0
M  CHG  1  15   1
M  END
>  <smiles>  (17) 
CCN(C)CCNc1c2ccccc2[n+](C)c2[nH]c3cc(N(C)C)ccc3c12

>  <score_type>  (17) 
oracle

>  <origin>  (17) 
adg

>  <m_score__min__energy>  (17) 
-8.3200000000000003

>  <m_primary>  (17) 
energy

$$$$
19:0
     RDKit          3D

 57 60  0  0  0  0  0  0  0  0999 V2000
   -2.4310   25.3070  -25.9580 C   0  0  0  0  0  0  0  0  0  0  0  0
   -1.8600   24.4810  -26.9960 N   0  0  0  0  0  0  0  0  0  0  0  0
   -2.4280   23.1730  -27.0950 C   0  0  0  0  0  0  0  0  0  0  0  0
   -3.7880   23.1820  -27.7180 C   0  0  0  0  0  0  0  0  0  0  0  0
   -3.7570   23.8410  -29.0190 N   0  0  0  0  0  0  0  0  0  0  0  0
   -4.9030   24.6380  -29.2460 C   0  0  0  0  0  0  0  0  0  0  0  0
   -5.2280   25.0520  -30.6320 C   0  0  0  0  0  0  0  0  0  0  0  0
   -5.4640   24.1210  -31.5910 O   0  0  0  0  0  0  0  0  0  0  0  0
   -6.3660   23.1380  -31.7420 C   0  0  0  0  0  0  0  0  0  0  0  0
   -7.7290   23.4050  -31.7910 C   0  0  0  0  0  0  0  0  0  0  0  0
   -8.6720   22.3940  -31.9430 C   0  0  0  0  0  0  0  0  0  0  0  0
   -8.2390   21.1050  -32.0480 C   0  0  0  0  0  0  0  0  0  0  0  0
   -9.1950   20.1170  -32.2000 C   0  0  0  0  0  0  0  0  0  0  0  0
   -8.8140   18.7990  -32.3100 C   0  0  0  0  0  0  0  0  0  0  0  0
   -7.4720   18.4930  -32.2660 C   0  0  0  0  0  0  0  0  0  0  0  0
   -6.5350   19.4920  -32.1150 C   0  0  0  0  0  0  0  0  0  0  0  0
   -6.9140   20.8350  -32.0020 C   0  0  0  0  0  0  0  0  0  0  0  0
   -5.9240   21.8290  -31.8480 C   0  0  0  0  0  0  0  0  0  0  0  0
   -4.5610   21.3560  -31.8230 C   0  0  0  0  0  0  0  0  0  0  0  0
   -3.5330   22.0960  -31.2200 N   0  0  0  0  0  0  0  0  0  0  0  0
   -2.4310   21.3370  -30.6430 C   0  0  0  0  0  0  0  0  0  0  0  0
   -1.2540   21.1520  -31.3300 C   0  0  0  0  0  0  0  0  0  0  0  0
   -0.2110   20.4340  -30.7830 C   0  0  0  0  0  0  0  0  0  0  0  0
   -0.3310   19.8830  -29.5240 C   0  0  0  0  0  0  0  0  0  0  0  0
   -1.5010   20.0540  -28.8140 C   0  0  0  0  0  0  0  0  0  0  0  0
   -1.6580   19.2910  -27.0760 Br  0  0  0  0  0  0  0  0  0  0  0  0
   -2.5260   20.7770  -29.3880 C   0  0  0  0  0  0  0  0  0  0  0  0
   -2.4740   24.3180  -29.3620 C   0  0  0  0  0  0  0  0  0  0  0  0
   -1.8570   25.1770  -28.2670 C   0  0  0  0  0  0  0  0  0  0  0  0
   -2.1521   24.9036  -24.9734 H   0  0  0  0  0  0  0  0  0  0  0  0
   -2.0491   26.3340  -26.0550 H   0  0  0  0  0  0  0  0  0  0  0  0
   -3.5267   25.3126  -26.0550 H   0  0  0  0  0  0  0  0  0  0  0  0
   -1.7638   22.5460  -27.7080 H   0  0  0  0  0  0  0  0  0  0  0  0
   -2.5318   22.7768  -26.0741 H   0  0  0  0  0  0  0  0  0  0  0  0
   -4.1326   22.1453  -27.8469 H   0  0  0  0  0  0  0  0  0  0  0  0
   -4.4742   23.7342  -27.0591 H   0  0  0  0  0  0  0  0  0  0  0  0
   -5.7680   24.0740  -28.8669 H   0  0  0  0  0  0  0  0  0  0  0  0
   -4.6711   25.5845  -28.7357 H   0  0  0  0  0  0  0  0  0  0  0  0
   -6.1309   25.6774  -30.5707 H   0  0  0  0  0  0  0  0  0  0  0  0
   -4.2969   25.5283  -30.9730 H   0  0  0  0  0  0  0  0  0  0  0  0
   -8.0722   24.4467  -31.7071 H   0  0  0  0  0  0  0  0  0  0  0  0
   -9.7459   22.6294  -31.9778 H   0  0  0  0  0  0  0  0  0  0  0  0
  -10.2613   20.3850  -32.2330 H   0  0  0  0  0  0  0  0  0  0  0  0
   -9.5665   18.0058  -32.4307 H   0  0  0  0  0  0  0  0  0  0  0  0
   -7.1464   17.4458  -32.3518 H   0  0  0  0  0  0  0  0  0  0  0  0
   -5.4674   19.2289  -32.0826 H   0  0  0  0  0  0  0  0  0  0  0  0
   -4.5813   20.3821  -31.3120 H   0  0  0  0  0  0  0  0  0  0  0  0
   -4.2819   21.3925  -32.8864 H   0  0  0  0  0  0  0  0  0  0  0  0
   -3.4220   23.1230  -31.1160 H   0  0  0  0  0  0  0  0  0  0  0  0
   -1.1422   21.5850  -32.3350 H   0  0  0  0  0  0  0  0  0  0  0  0
    0.7202   20.3002  -31.3530 H   0  0  0  0  0  0  0  0  0  0  0  0
    0.5015   19.3106  -29.0889 H   0  0  0  0  0  0  0  0  0  0  0  0
   -3.4582   20.9120  -28.8198 H   0  0  0  0  0  0  0  0  0  0  0  0
   -1.8156   23.4564  -29.5470 H   0  0  0  0  0  0  0  0  0  0  0  0
   -2.5808   24.9467  -30.2583 H   0  0  0  0  0  0  0  0  0  0  0  0
   -0.8198   25.4194  -28.5417 H   0  0  0  0  0  0  0  0  0  0  0  0
   -2.4537   26.0954  -28.1646 H   0  0  0  0  0  0  0  0  0  0  0  0
  1  2  1  0
  2  3  1  0
  3  4  1  0
  4  5  1  0
  5  6  1  0
  6  7  1  0
  7  8  1  0
  8  9  1  0
  9 10  2  0
 10 11  1  0
 11 12  2  0
 12 13  1  0
 13 14  2  0
 14 15  1  0
 15 16  2  0
 16 17  1  0
 17 18  2  0
 18 19  1  0
 19 20  1  0
 20 21  1  0
 21 22  2  0
 22 23  1  0
 23 24  2  0
 24 25  1  0
 25 26  1  0
 25 27  2  0
  5 28  1  0
 28 29  1  0
 29  2  1  0
 18  9  1  0
 27 21  1  0
 17 12  1  0
  1 30  1  0
  1 31  1  0
  1 32  1  0
  3 33  1  0
  3 34  1  0
  4 35  1  0
  4 36  1  0
  6 37  1  0
  6 38  1  0
  7 39  1  0
  7 40  1  0
 10 41  1  0
 11 42  1  0
 13 43  1  0
 14 44  1  0
 15 45  1  0
 16 46  1  0
 19 47  1  0
 19 48  1  0
 20 49  1  0
 22 50  1  0
 23 51  1  0
 24 52  1  0
 27 53  1  0
 28 54  1  0
 28 55  1  0
 29 56  1  0
 29 57  1  0
M  END
>  <smiles>  (18) 
CN1CCN(CCOc2ccc3ccccc3c2CNc2cccc(Br)c2)CC1

>  <score_type>  (18) 
oracle

>  <origin>  (18) 
adg

>  <m_score__min__energy>  (18) 
-9.4600000000000009

>  <m_primary>  (18) 
energy

$$$$
