0:0
     RDKit          3D

 53 55  0  0  0  0  0  0  0  0999 V2000
   -1.7850   20.5980  -26.8060 C   0  0  0  0  0  0  0  0  0  0  0  0
   -1.9280   21.5270  -27.9340 N   0  0  0  0  0  0  0  0  0  0  0  0
   -2.8050   22.7030  -27.8010 C   0  0  0  0  0  0  0  0  0  0  0  0
   -1.9970   23.9520  -27.5360 C   0  0  0  0  0  0  0  0  0  0  0  0
   -1.3040   24.0780  -26.3190 C   0  0  0  0  0  0  0  0  0  0  0  0
   -0.5520   25.2240  -26.0460 C   0  0  0  0  0  0  0  0  0  0  0  0
   -0.4910   26.2600  -26.9800 C   0  0  0  0  0  0  0  0  0  0  0  0
   -1.1850   26.1530  -28.1870 C   0  0  0  0  0  0  0  0  0  0  0  0
   -1.9420   25.0070  -28.4720 C   0  0  0  0  0  0  0  0  0  0  0  0
   -2.6350   24.9200  -29.6790 O   0  0  0  0  0  0  0  0  0  0  0  0
   -1.1890   21.2560  -29.1490 C   0  0  0  0  0  0  0  0  0  0  0  0
   -0.3710   20.2950  -29.1750 O   0  0  0  0  0  0  0  0  0  0  0  0
   -1.3140   22.1310  -30.3740 C   0  0  0  0  0  0  0  0  0  0  0  0
   -2.6550   22.0120  -30.9840 N   0  0  0  0  0  0  0  0  0  0  0  0
   -3.4090   20.9010  -30.3580 C   0  0  0  0  0  0  0  0  0  0  0  0
   -4.5460   20.4220  -31.2680 C   0  0  0  0  0  0  0  0  0  0  0  0
   -4.0240   19.8580  -32.5380 N   0  0  0  0  0  0  0  0  0  0  0  0
   -5.0400   19.9130  -33.6110 C   0  0  0  0  0  0  0  0  0  0  0  0
   -6.4240   19.6710  -33.0550 C   0  0  0  0  0  0  0  0  0  0  0  0
   -7.2250   20.7680  -32.6900 C   0  0  0  0  0  0  0  0  0  0  0  0
   -8.5000   20.5670  -32.1500 C   0  0  0  0  0  0  0  0  0  0  0  0
   -9.4880   21.9440  -31.6990 Cl  0  0  0  0  0  0  0  0  0  0  0  0
   -8.9850   19.2700  -31.9690 C   0  0  0  0  0  0  0  0  0  0  0  0
   -8.1970   18.1720  -32.3220 C   0  0  0  0  0  0  0  0  0  0  0  0
   -6.9180   18.3630  -32.8610 C   0  0  0  0  0  0  0  0  0  0  0  0
   -5.8860   16.8090  -33.3090 Br  0  0  0  0  0  0  0  0  0  0  0  0
   -2.7400   20.4690  -32.9680 C   0  0  0  0  0  0  0  0  0  0  0  0
   -2.5850   21.9150  -32.4670 C   0  0  0  0  0  0  0  0  0  0  0  0
   -1.8705   21.1535  -25.8604 H   0  0  0  0  0  0  0  0  0  0  0  0
   -2.5764   19.8356  -26.8563 H   0  0  0  0  0  0  0  0  0  0  0  0
   -0.8010   20.1089  -26.8563 H   0  0  0  0  0  0  0  0  0  0  0  0
   -3.3752   22.8340  -28.7325 H   0  0  0  0  0  0  0  0  0  0  0  0
   -3.4861   22.5389  -26.9529 H   0  0  0  0  0  0  0  0  0  0  0  0
   -1.3541   23.2683  -25.5761 H   0  0  0  0  0  0  0  0  0  0  0  0
   -0.0075   25.3099  -25.0941 H   0  0  0  0  0  0  0  0  0  0  0  0
    0.1035   27.1602  -26.7651 H   0  0  0  0  0  0  0  0  0  0  0  0
   -1.1377   26.9727  -28.9190 H   0  0  0  0  0  0  0  0  0  0  0  0
   -2.6610   24.0630  -30.2170 H   0  0  0  0  0  0  0  0  0  0  0  0
   -1.1434   23.1786  -30.0851 H   0  0  0  0  0  0  0  0  0  0  0  0
   -0.5665   21.8043  -31.1119 H   0  0  0  0  0  0  0  0  0  0  0  0
   -2.7224   20.0625  -30.1697 H   0  0  0  0  0  0  0  0  0  0  0  0
   -3.8456   21.2633  -29.4156 H   0  0  0  0  0  0  0  0  0  0  0  0
   -5.1222   19.6463  -30.7423 H   0  0  0  0  0  0  0  0  0  0  0  0
   -5.1827   21.2859  -31.5094 H   0  0  0  0  0  0  0  0  0  0  0  0
   -5.0104   20.9054  -34.0846 H   0  0  0  0  0  0  0  0  0  0  0  0
   -4.8152   19.1287  -34.3488 H   0  0  0  0  0  0  0  0  0  0  0  0
   -6.8464   21.7912  -32.8301 H   0  0  0  0  0  0  0  0  0  0  0  0
   -9.9890   19.1128  -31.5479 H   0  0  0  0  0  0  0  0  0  0  0  0
   -8.5826   17.1522  -32.1760 H   0  0  0  0  0  0  0  0  0  0  0  0
   -1.9105   19.8659  -32.5702 H   0  0  0  0  0  0  0  0  0  0  0  0
   -2.7293   20.4909  -34.0677 H   0  0  0  0  0  0  0  0  0  0  0  0
   -1.6109   22.3020  -32.8007 H   0  0  0  0  0  0  0  0  0  0  0  0
   -3.4163   22.5044  -32.8813 H   0  0  0  0  0  0  0  0  0  0  0  0
  1  2  1  0
  2  3  1  0
  3  4  1  0
  4  5  2  0
  5  6  1  0
  6  7  2  0
  7  8  1  0
  8  9  2  0
  9 10  1  0
  2 11  1  0
 11 12  2  0
 11 13  1  0
 13 14  1  0
 14 15  1  0
 15 16  1  0
 16 17  1  0
 17 18  1  0
 18 19  1  0
 19 20  2  0
 20 21  1  0
 21 22  1  0
 21 23  2  0
 23 24  1  0
 24 25  2  0
 25 26  1  0
 17 27  1  0
 27 28  1  0
  9  4  1  0
 28 14  1  0
 25 19  1  0
  1 29  1  0
  1 30  1  0
  1 31  1  0
  3 32  1  0
  3 33  1  0
  5 34  1  0
  6 35  1  0
  7 36  1  0
  8 37  1  0
 10 38  1  0
 13 39  1  0
 13 40  1  0
 15 41  1  0
 15 42  1  0
 16 43  1  0
 16 44  1  0
 18 45  1  0
 18 46  1  0
 20 47  1  0
 23 48  1  0
 24 49  1  0
 27 50  1  0
 27 51  1  0
 28 52  1  0
 28 53  1  0
M  END
>  <UniqueID>  (1) 
1

>  <SMILES>  (1) 
CN(Cc1ccccc1O)C(=O)CN1CCN(Cc2cc(Cl)ccc2Br)CC1

>  <Energy>  (1) 
66.33101873504934

>  <Genealogy>  (1) 
CN(Cc1ccccc1O)C(=O)CN1CCN(Cc2cc(Cl)ccc2Br)CC1 (3D coordinates assigned)
CN(Cc1ccccc1O)C(=O)CN1CCN(Cc2cc(Cl)ccc2Br)CC1 (nonaromatic ring conformer: 66.33101873504934 kcal/mol)

>  <smiles>  (1) 
CN(Cc1ccccc1O)C(=O)CN1CCN(Cc2cc(Cl)ccc2Br)CC1

>  <score_type>  (1) 
oracle

>  <origin>  (1) 
adg

>  <m_score__min__energy>  (1) 
-10.630000000000001

>  <m_primary>  (1) 
energy

$$$$
1:0
     RDKit          3D

 16 17  0  0  0  0  0  0  0  0999 V2000
   -8.1310   20.0950  -33.8810 H   0  0  0  0  0  0  0  0  0  0  0  0
   -7.6300   20.0580  -32.9660 N   0  0  0  0  0  0  0  0  0  0  0  0
   -7.2550   21.1390  -32.3650 C   0  0  0  0  0  0  0  0  0  0  0  0
   -8.3000   22.1830  -31.5320 S   0  0  0  0  0  0  0  0  0  0  0  0
   -7.0340   23.2140  -31.1220 C   0  0  0  0  0  0  0  0  0  0  0  0
   -7.0820   24.3940  -30.3840 C   0  0  0  0  0  0  0  0  0  0  0  0
   -8.0335   24.7703  -29.9801 H   0  0  0  0  0  0  0  0  0  0  0  0
   -5.8810   25.0900  -30.1700 C   0  0  0  0  0  0  0  0  0  0  0  0
   -5.8870   26.0259  -29.5919 H   0  0  0  0  0  0  0  0  0  0  0  0
   -4.6670   24.5960  -30.6920 C   0  0  0  0  0  0  0  0  0  0  0  0
   -3.4870   25.2960  -30.4720 O   0  0  0  0  0  0  0  0  0  0  0  0
   -4.6450   23.4030  -31.4340 C   0  0  0  0  0  0  0  0  0  0  0  0
   -3.7008   23.0154  -31.8442 H   0  0  0  0  0  0  0  0  0  0  0  0
   -5.8460   22.7180  -31.6410 C   0  0  0  0  0  0  0  0  0  0  0  0
   -5.9680   21.5590  -32.3360 N   0  0  0  0  0  0  0  0  0  0  0  0
   -5.1730   21.0540  -32.7900 H   0  0  0  0  0  0  0  0  0  0  0  0
  1  2  1  0
  2  3  2  0
  3  4  1  0
  4  5  1  0
  5  6  2  0
  6  7  1  0
  6  8  1  0
  8  9  1  0
  8 10  2  0
 10 11  1  0
 10 12  1  0
 12 13  1  0
 12 14  2  0
 14 15  1  0
 15 16  1  0
 15  3  1  0
 14  5  1  0
M  CHG  1  11  -1
M  END
>  <UniqueID>  (2) 
2

>  <SMILES>  (2) 
[H]/N=c1/[nH]c2cc([O-])ccc2s1

>  <Energy>  (2) 
51.41194862563798

>  <Genealogy>  (2) 
N=c1[nH]c2cc([O-])ccc2s1 (protonated)
[H]/N=c1/[nH]c2cc([O-])ccc2s1 (cis-trans isomerization)
[H]/N=c1/[nH]c2cc([O-])ccc2s1 (3D coordinates assigned)
[H]/N=c1/[nH]c2cc([O-])ccc2s1 (optimized conformer: 51.41194862563798 kcal/mol)

>  <smiles>  (2) 
N=c1[nH]c2cc(O)ccc2s1

>  <score_type>  (2) 
oracle

>  <origin>  (2) 
adg

>  <m_score__min__energy>  (2) 
-8.3100000000000005

>  <m_primary>  (2) 
energy

$$$$
2:0
     RDKit          3D

 42 44  0  0  1  0  0  0  0  0999 V2000
   -6.4580   18.1320  -33.8310 C   0  0  0  0  0  0  0  0  0  0  0  0
   -6.9550   18.7130  -32.6430 N   0  0  0  0  0  0  0  0  0  0  0  0
   -6.5810   17.9950  -31.4800 C   0  0  0  0  0  0  0  0  0  0  0  0
   -8.2250   19.3290  -32.6670 C   0  0  0  0  0  0  0  0  0  0  0  0
   -8.3570   20.5030  -31.7230 C   0  0  0  0  0  0  0  0  0  0  0  0
   -7.7350   21.6420  -32.2960 N   0  0  0  0  0  0  0  0  0  0  0  0
   -6.5030   21.9590  -32.1590 C   0  0  0  0  0  0  0  0  0  0  0  0
   -5.5270   21.2290  -32.7160 N   0  0  0  0  0  0  0  0  0  0  0  0
   -4.2510   21.5770  -32.5380 C   0  0  0  0  0  0  0  0  0  0  0  0
   -3.1480   20.8200  -33.1100 C   0  0  0  0  0  0  0  0  0  0  0  0
   -3.2880   19.5390  -33.5980 C   0  0  0  0  0  0  0  0  0  0  0  0
   -2.1960   18.8690  -34.1260 C   0  0  0  0  0  0  0  0  0  0  0  0
   -0.9440   19.4500  -34.1830 C   0  0  0  0  0  0  0  0  0  0  0  0
   -0.7940   20.7220  -33.7010 C   0  0  0  0  0  0  0  0  0  0  0  0
   -1.8890   21.3800  -33.1760 C   0  0  0  0  0  0  0  0  0  0  0  0
   -3.9910   22.6660  -31.7950 N   0  0  0  0  0  0  0  0  0  0  0  0
   -4.9170   23.4240  -31.2220 C   0  0  0  0  0  0  0  0  0  0  0  0
   -4.6020   24.5400  -30.4610 C   0  0  0  0  0  0  0  0  0  0  0  0
   -5.5690   25.3130  -29.8740 C   0  0  0  0  0  0  0  0  0  0  0  0
   -6.8890   24.9290  -30.0750 C   0  0  0  0  0  0  0  0  0  0  0  0
   -7.2330   23.8380  -30.8180 C   0  0  0  0  0  0  0  0  0  0  0  0
   -6.2350   23.0950  -31.3850 C   0  0  0  0  0  0  0  0  0  0  0  0
   -5.7621   17.3185  -33.5781 H   0  0  0  0  0  0  0  0  0  0  0  0
   -7.2950   17.7287  -34.4200 H   0  0  0  0  0  0  0  0  0  0  0  0
   -5.9300   18.8964  -34.4200 H   0  0  0  0  0  0  0  0  0  0  0  0
   -6.8774   18.5641  -30.5866 H   0  0  0  0  0  0  0  0  0  0  0  0
   -7.0842   17.0168  -31.4753 H   0  0  0  0  0  0  0  0  0  0  0  0
   -5.4911   17.8467  -31.4753 H   0  0  0  0  0  0  0  0  0  0  0  0
   -8.4178   19.6843  -33.6900 H   0  0  0  0  0  0  0  0  0  0  0  0
   -8.9521   18.5722  -32.3374 H   0  0  0  0  0  0  0  0  0  0  0  0
   -9.4221   20.7155  -31.5487 H   0  0  0  0  0  0  0  0  0  0  0  0
   -7.8703   20.2613  -30.7666 H   0  0  0  0  0  0  0  0  0  0  0  0
   -5.7970   20.4110  -33.2740 H   0  0  0  0  0  0  0  0  0  0  0  0
   -4.2709   19.0461  -33.5683 H   0  0  0  0  0  0  0  0  0  0  0  0
   -2.3297   17.8469  -34.5101 H   0  0  0  0  0  0  0  0  0  0  0  0
   -0.0881   18.9033  -34.6057 H   0  0  0  0  0  0  0  0  0  0  0  0
    0.1887   21.2154  -33.7314 H   0  0  0  0  0  0  0  0  0  0  0  0
   -1.7503   22.4012  -32.7914 H   0  0  0  0  0  0  0  0  0  0  0  0
   -3.5450   24.8124  -30.3248 H   0  0  0  0  0  0  0  0  0  0  0  0
   -5.3121   26.1967  -29.2715 H   0  0  0  0  0  0  0  0  0  0  0  0
   -7.6889   25.5289  -29.6165 H   0  0  0  0  0  0  0  0  0  0  0  0
   -8.2887   23.5624  -30.9578 H   0  0  0  0  0  0  0  0  0  0  0  0
  1  2  1  0
  2  3  1  0
  2  4  1  0
  4  5  1  0
  5  6  1  0
  6  7  2  0
  7  8  1  0
  8  9  1  0
  9 10  1  0
 10 11  2  0
 11 12  1  0
 12 13  2  0
 13 14  1  0
 14 15  2  0
  9 16  2  0
 16 17  1  0
 17 18  2  0
 18 19  1  0
 19 20  2  0
 20 21  1  0
 21 22  2  0
 22  7  1  0
 15 10  1  0
 22 17  1  0
  1 23  1  0
  1 24  1  0
  1 25  1  0
  3 26  1  0
  3 27  1  0
  3 28  1  0
  4 29  1  0
  4 30  1  0
  5 31  1  0
  5 32  1  0
  8 33  1  0
 11 34  1  0
 12 35  1  0
 13 36  1  0
 14 37  1  0
 15 38  1  0
 18 39  1  0
 19 40  1  0
 20 41  1  0
 21 42  1  0
M  END
>  <smiles>  (3) 
CN(C)CCN=c1[nH]c(-c2ccccc2)nc2ccccc12

>  <score_type>  (3) 
oracle

>  <origin>  (3) 
adg

>  <m_score__min__energy>  (3) 
-7.2800000000000002

>  <m_primary>  (3) 
energy

$$$$
3:0
     RDKit          3D

 43 45  0  0  0  0  0  0  0  0999 V2000
   -1.7150   25.6790  -26.7840 C   0  0  0  0  0  0  0  0  0  0  0  0
   -1.5710   25.6000  -28.5970 S   0  0  0  0  0  0  0  0  0  0  0  0
   -1.9210   23.8320  -28.6680 C   0  0  0  0  0  0  0  0  0  0  0  0
   -1.0830   22.9990  -27.9130 C   0  0  0  0  0  0  0  0  0  0  0  0
   -1.2620   21.6170  -27.9130 C   0  0  0  0  0  0  0  0  0  0  0  0
   -0.4380   20.8270  -27.1810 F   0  0  0  0  0  0  0  0  0  0  0  0
   -2.2860   21.0470  -28.6640 C   0  0  0  0  0  0  0  0  0  0  0  0
   -3.1390   21.8560  -29.4190 C   0  0  0  0  0  0  0  0  0  0  0  0
   -4.1350   21.2780  -30.1280 N   0  0  0  0  0  0  0  0  0  0  0  0
   -4.9940   22.0020  -30.8850 C   0  0  0  0  0  0  0  0  0  0  0  0
   -6.0760   21.2720  -31.5790 C   0  0  0  0  0  0  0  0  0  0  0  0
   -7.4180   21.3370  -31.2620 C   0  0  0  0  0  0  0  0  0  0  0  0
   -8.0200   20.4990  -32.1790 C   0  0  0  0  0  0  0  0  0  0  0  0
   -9.4890   20.2790  -32.3250 C   0  0  0  0  0  0  0  0  0  0  0  0
   -7.0960   19.9790  -33.0100 N   0  0  0  0  0  0  0  0  0  0  0  0
   -5.9110   20.4270  -32.6230 N   0  0  0  0  0  0  0  0  0  0  0  0
   -4.6690   20.1770  -33.3660 C   0  0  0  0  0  0  0  0  0  0  0  0
   -3.8780   19.0550  -32.6910 C   0  0  0  0  0  0  0  0  0  0  0  0
   -3.8300   21.4560  -33.4670 C   0  0  0  0  0  0  0  0  0  0  0  0
   -4.8600   23.3680  -30.9640 N   0  0  0  0  0  0  0  0  0  0  0  0
   -5.7670   24.1590  -31.8170 C   0  0  0  0  0  0  0  0  0  0  0  0
   -3.8930   24.0060  -30.2230 C   0  0  0  0  0  0  0  0  0  0  0  0
   -3.8260   25.2650  -30.2470 O   0  0  0  0  0  0  0  0  0  0  0  0
   -2.9790   23.2600  -29.4350 C   0  0  0  0  0  0  0  0  0  0  0  0
   -0.8385   25.1981  -26.3253 H   0  0  0  0  0  0  0  0  0  0  0  0
   -1.7648   26.7307  -26.4656 H   0  0  0  0  0  0  0  0  0  0  0  0
   -2.6288   25.1559  -26.4656 H   0  0  0  0  0  0  0  0  0  0  0  0
   -0.2742   23.4419  -27.3132 H   0  0  0  0  0  0  0  0  0  0  0  0
   -2.4242   19.9557  -28.6631 H   0  0  0  0  0  0  0  0  0  0  0  0
   -7.8972   21.9217  -30.4629 H   0  0  0  0  0  0  0  0  0  0  0  0
   -9.9502   20.2099  -31.3287 H   0  0  0  0  0  0  0  0  0  0  0  0
   -9.9327   21.1207  -32.8769 H   0  0  0  0  0  0  0  0  0  0  0  0
   -9.6667   19.3442  -32.8769 H   0  0  0  0  0  0  0  0  0  0  0  0
   -4.9229   19.8623  -34.3890 H   0  0  0  0  0  0  0  0  0  0  0  0
   -3.9521   19.1601  -31.5985 H   0  0  0  0  0  0  0  0  0  0  0  0
   -4.2906   18.0816  -32.9945 H   0  0  0  0  0  0  0  0  0  0  0  0
   -2.8225   19.1166  -32.9945 H   0  0  0  0  0  0  0  0  0  0  0  0
   -3.5918   21.8191  -32.4563 H   0  0  0  0  0  0  0  0  0  0  0  0
   -2.8971   21.2407  -34.0086 H   0  0  0  0  0  0  0  0  0  0  0  0
   -4.3990   22.2260  -34.0086 H   0  0  0  0  0  0  0  0  0  0  0  0
   -6.4444   24.7498  -31.1829 H   0  0  0  0  0  0  0  0  0  0  0  0
   -5.1761   24.8354  -32.4521 H   0  0  0  0  0  0  0  0  0  0  0  0
   -6.3568   23.4816  -32.4521 H   0  0  0  0  0  0  0  0  0  0  0  0
  1  2  1  0
  2  3  1  0
  3  4  2  0
  4  5  1  0
  5  6  1  0
  5  7  2  0
  7  8  1  0
  8  9  1  0
  9 10  2  0
 10 11  1  0
 11 12  2  0
 12 13  1  0
 13 14  1  0
 13 15  2  0
 15 16  1  0
 16 17  1  0
 17 18  1  0
 17 19  1  0
 10 20  1  0
 20 21  1  0
 20 22  1  0
 22 23  2  0
 22 24  1  0
 24  3  1  0
 24  8  2  0
 16 11  1  0
  1 25  1  0
  1 26  1  0
  1 27  1  0
  4 28  1  0
  7 29  1  0
 12 30  1  0
 14 31  1  0
 14 32  1  0
 14 33  1  0
 17 34  1  0
 18 35  1  0
 18 36  1  0
 18 37  1  0
 19 38  1  0
 19 39  1  0
 19 40  1  0
 21 41  1  0
 21 42  1  0
 21 43  1  0
M  END
>  <UniqueID>  (4) 
3

>  <SMILES>  (4) 
CSc1cc(F)cc2nc(-c3cc(C)nn3C(C)C)n(C)c(=O)c12

>  <Energy>  (4) 
82.94680419754548

>  <Genealogy>  (4) 
CSc1cc(F)cc2nc(-c3cc(C)nn3C(C)C)n(C)c(=O)c12 (3D coordinates assigned)
CSc1cc(F)cc2nc(-c3cc(C)nn3C(C)C)n(C)c(=O)c12 (optimized conformer: 82.94680419754548 kcal/mol)

>  <smiles>  (4) 
CSc1cc(F)cc2nc(-c3cc(C)nn3C(C)C)n(C)c(=O)c12

>  <score_type>  (4) 
oracle

>  <origin>  (4) 
adg

>  <m_score__min__energy>  (4) 
-7.8499999999999996

>  <m_primary>  (4) 
energy

$$$$
4:0
     RDKit          3D

 34 36  0  0  0  0  0  0  0  0999 V2000
   -8.6140   18.7610  -31.5770 C   0  0  0  0  0  0  0  0  0  0  0  0
   -8.1870   20.1930  -31.7710 C   0  0  0  0  0  0  0  0  0  0  0  0
   -9.1960   21.1730  -31.8420 C   0  0  0  0  0  0  0  0  0  0  0  0
   -8.8740   22.5180  -32.0150 C   0  0  0  0  0  0  0  0  0  0  0  0
   -9.8590   23.4490  -32.0720 F   0  0  0  0  0  0  0  0  0  0  0  0
   -7.5430   22.9080  -32.1240 C   0  0  0  0  0  0  0  0  0  0  0  0
   -6.5270   21.9540  -32.0750 C   0  0  0  0  0  0  0  0  0  0  0  0
   -6.8220   20.5830  -31.9190 C   0  0  0  0  0  0  0  0  0  0  0  0
   -5.6460   19.6070  -31.8830 C   0  0  2  0  0  0  0  0  0  0  0  0
   -4.2980   20.3030  -32.0300 C   0  0  0  0  0  0  0  0  0  0  0  0
   -3.6010   20.8630  -30.9400 C   0  0  0  0  0  0  0  0  0  0  0  0
   -2.3660   21.4820  -31.1510 C   0  0  0  0  0  0  0  0  0  0  0  0
   -1.8400   21.5470  -32.4010 N   0  0  0  0  0  0  0  0  0  0  0  0
   -2.4850   21.0190  -33.4730 C   0  0  0  0  0  0  0  0  0  0  0  0
   -3.7210   20.3920  -33.3080 C   0  0  0  0  0  0  0  0  0  0  0  0
   -5.8450   18.4130  -32.7940 C   0  0  0  0  0  0  0  0  0  0  0  0
   -6.4290   18.4370  -34.0160 N   0  0  0  0  0  0  0  0  0  0  0  0
   -6.4890   17.2080  -34.5950 C   0  0  0  0  0  0  0  0  0  0  0  0
   -5.9550   16.1770  -33.8330 C   0  0  0  0  0  0  0  0  0  0  0  0
   -5.3970   16.8400  -32.3910 S   0  0  0  0  0  0  0  0  0  0  0  0
   -8.6797   18.5405  -30.5013 H   0  0  0  0  0  0  0  0  0  0  0  0
   -9.5977   18.6052  -32.0440 H   0  0  0  0  0  0  0  0  0  0  0  0
   -7.8763   18.0919  -32.0440 H   0  0  0  0  0  0  0  0  0  0  0  0
  -10.2512   20.8732  -31.7599 H   0  0  0  0  0  0  0  0  0  0  0  0
   -7.2914   23.9715  -32.2491 H   0  0  0  0  0  0  0  0  0  0  0  0
   -5.4784   22.2756  -32.1593 H   0  0  0  0  0  0  0  0  0  0  0  0
   -5.6232   19.1764  -30.8711 H   0  0  0  0  0  0  0  0  0  0  0  0
   -4.0276   20.8129  -29.9273 H   0  0  0  0  0  0  0  0  0  0  0  0
   -1.8186   21.9177  -30.3022 H   0  0  0  0  0  0  0  0  0  0  0  0
   -2.0325   21.0856  -34.4734 H   0  0  0  0  0  0  0  0  0  0  0  0
   -4.2432   19.9677  -34.1782 H   0  0  0  0  0  0  0  0  0  0  0  0
   -6.8130   19.2890  -34.4790 H   0  0  0  0  0  0  0  0  0  0  0  0
   -6.9269   17.0431  -35.5905 H   0  0  0  0  0  0  0  0  0  0  0  0
   -5.9057   15.1165  -34.1208 H   0  0  0  0  0  0  0  0  0  0  0  0
  1  2  1  0
  2  3  2  0
  3  4  1  0
  4  5  1  0
  4  6  2  0
  6  7  1  0
  7  8  2  0
  8  9  1  0
  9 10  1  0
 10 11  2  0
 11 12  1  0
 12 13  2  0
 13 14  1  0
 14 15  2  0
  9 16  1  0
 16 17  2  0
 17 18  1  0
 18 19  2  0
 19 20  1  0
  8  2  1  0
 15 10  1  0
 20 16  1  0
  1 21  1  0
  1 22  1  0
  1 23  1  0
  3 24  1  0
  6 25  1  0
  7 26  1  0
  9 27  1  1
 11 28  1  0
 12 29  1  0
 14 30  1  0
 15 31  1  0
 17 32  1  0
 18 33  1  0
 19 34  1  0
M  CHG  1  17   1
M  END
>  <UniqueID>  (5) 
4

>  <SMILES>  (5) 
Cc1cc(F)ccc1[C@H](c1ccncc1)c1[nH+]ccs1

>  <Energy>  (5) 
73.55748382930814

>  <Genealogy>  (5) 
Cc1cc(F)ccc1C(c1ccncc1)c1[nH+]ccs1 (protonated)
Cc1cc(F)ccc1[C@H](c1ccncc1)c1[nH+]ccs1 (chirality)
Cc1cc(F)ccc1[C@H](c1ccncc1)c1[nH+]ccs1 (3D coordinates assigned)
Cc1cc(F)ccc1[C@H](c1ccncc1)c1[nH+]ccs1 (optimized conformer: 73.55748382930814 kcal/mol)

>  <smiles>  (5) 
Cc1cc(F)ccc1C(c1ccncc1)c1nccs1

>  <score_type>  (5) 
oracle

>  <origin>  (5) 
adg

>  <m_score__min__energy>  (5) 
-6.5

>  <m_primary>  (5) 
energy

$$$$
5:0
     RDKit          3D

 54 57  0  0  0  0  0  0  0  0999 V2000
   -8.8330   18.3000  -31.5870 C   0  0  0  0  0  0  0  0  0  0  0  0
   -7.4290   18.4700  -31.4290 O   0  0  0  0  0  0  0  0  0  0  0  0
   -6.4640   18.0440  -32.3560 C   0  0  0  0  0  0  0  0  0  0  0  0
   -6.1110   16.6850  -32.4880 C   0  0  0  0  0  0  0  0  0  0  0  0
   -5.1310   16.2960  -33.4040 C   0  0  0  0  0  0  0  0  0  0  0  0
   -4.4930   17.2500  -34.1960 C   0  0  0  0  0  0  0  0  0  0  0  0
   -4.8350   18.5980  -34.0760 C   0  0  0  0  0  0  0  0  0  0  0  0
   -5.8210   19.0040  -33.1630 C   0  0  0  0  0  0  0  0  0  0  0  0
   -6.1740   20.3970  -33.0730 N   0  0  0  0  0  0  0  0  0  0  0  0
   -7.5820   20.8060  -33.0430 C   0  0  0  0  0  0  0  0  0  0  0  0
   -7.8740   21.6950  -31.8150 C   0  0  0  0  0  0  0  0  0  0  0  0
   -6.6400   22.2120  -31.1820 N   0  0  0  0  0  0  0  0  0  0  0  0
   -6.9280   23.2770  -30.1920 C   0  0  0  0  0  0  0  0  0  0  0  0
   -5.6210   23.8520  -29.6400 C   0  0  0  0  0  0  0  0  0  0  0  0
   -5.2470   25.1850  -30.2980 C   0  0  0  0  0  0  0  0  0  0  0  0
   -3.8020   25.2750  -30.4890 N   0  0  0  0  0  0  0  0  0  0  0  0
   -2.8220   24.5860  -29.7020 C   0  0  0  0  0  0  0  0  0  0  0  0
   -2.0630   25.2530  -28.9510 O   0  0  0  0  0  0  0  0  0  0  0  0
   -2.6550   23.1260  -29.7680 C   0  0  0  0  0  0  0  0  0  0  0  0
   -2.9260   22.4470  -30.9180 N   0  0  0  0  0  0  0  0  0  0  0  0
   -2.6150   20.8420  -30.5860 S   0  0  0  0  0  0  0  0  0  0  0  0
   -2.1220   20.9840  -29.0050 C   0  0  0  0  0  0  0  0  0  0  0  0
   -1.6830   20.0160  -28.1090 C   0  0  0  0  0  0  0  0  0  0  0  0
   -1.2870   20.4400  -26.8320 C   0  0  0  0  0  0  0  0  0  0  0  0
   -1.3280   21.8080  -26.4920 C   0  0  0  0  0  0  0  0  0  0  0  0
   -1.7730   22.7630  -27.4240 C   0  0  0  0  0  0  0  0  0  0  0  0
   -2.1880   22.3310  -28.6910 C   0  0  0  0  0  0  0  0  0  0  0  0
   -5.6670   22.6490  -32.2010 C   0  0  0  0  0  0  0  0  0  0  0  0
   -5.1260   21.4160  -32.9330 C   0  0  0  0  0  0  0  0  0  0  0  0
   -9.3091   18.2424  -30.5970 H   0  0  0  0  0  0  0  0  0  0  0  0
   -9.2456   19.1547  -32.1431 H   0  0  0  0  0  0  0  0  0  0  0  0
   -9.0296   17.3715  -32.1431 H   0  0  0  0  0  0  0  0  0  0  0  0
   -6.6102   15.9273  -31.8662 H   0  0  0  0  0  0  0  0  0  0  0  0
   -4.8617   15.2339  -33.5009 H   0  0  0  0  0  0  0  0  0  0  0  0
   -3.7204   16.9404  -34.9152 H   0  0  0  0  0  0  0  0  0  0  0  0
   -4.3282   19.3476  -34.7014 H   0  0  0  0  0  0  0  0  0  0  0  0
   -7.8122   21.3705  -33.9586 H   0  0  0  0  0  0  0  0  0  0  0  0
   -8.2077   19.9036  -32.9790 H   0  0  0  0  0  0  0  0  0  0  0  0
   -8.4898   22.5482  -32.1358 H   0  0  0  0  0  0  0  0  0  0  0  0
   -8.3964   21.0755  -31.0711 H   0  0  0  0  0  0  0  0  0  0  0  0
   -7.5016   24.0798  -30.6783 H   0  0  0  0  0  0  0  0  0  0  0  0
   -7.5106   22.8489  -29.3630 H   0  0  0  0  0  0  0  0  0  0  0  0
   -5.7342   24.0115  -28.5575 H   0  0  0  0  0  0  0  0  0  0  0  0
   -4.8184   23.1323  -29.8587 H   0  0  0  0  0  0  0  0  0  0  0  0
   -5.7463   25.2586  -31.2754 H   0  0  0  0  0  0  0  0  0  0  0  0
   -5.5706   26.0075  -29.6431 H   0  0  0  0  0  0  0  0  0  0  0  0
   -1.6474   18.9536  -28.3919 H   0  0  0  0  0  0  0  0  0  0  0  0
   -0.9429   19.7021  -26.0924 H   0  0  0  0  0  0  0  0  0  0  0  0
   -1.0094   22.1309  -25.4899 H   0  0  0  0  0  0  0  0  0  0  0  0
   -1.7949   23.8313  -27.1627 H   0  0  0  0  0  0  0  0  0  0  0  0
   -6.1615   23.3180  -32.9206 H   0  0  0  0  0  0  0  0  0  0  0  0
   -4.8389   23.1884  -31.7180 H   0  0  0  0  0  0  0  0  0  0  0  0
   -4.7754   21.7137  -33.9322 H   0  0  0  0  0  0  0  0  0  0  0  0
   -4.2955   20.9928  -32.3489 H   0  0  0  0  0  0  0  0  0  0  0  0
  1  2  1  0
  2  3  1  0
  3  4  2  0
  4  5  1  0
  5  6  2  0
  6  7  1  0
  7  8  2  0
  8  9  1  0
  9 10  1  0
 10 11  1  0
 11 12  1  0
 12 13  1  0
 13 14  1  0
 14 15  1  0
 15 16  1  0
 16 17  1  0
 17 18  2  0
 17 19  1  0
 19 20  2  0
 20 21  1  0
 21 22  1  0
 22 23  2  0
 23 24  1  0
 24 25  2  0
 25 26  1  0
 26 27  2  0
 12 28  1  0
 28 29  1  0
  8  3  1  0
 29  9  1  0
 27 19  1  0
 27 22  1  0
  1 30  1  0
  1 31  1  0
  1 32  1  0
  4 33  1  0
  5 34  1  0
  6 35  1  0
  7 36  1  0
 10 37  1  0
 10 38  1  0
 11 39  1  0
 11 40  1  0
 13 41  1  0
 13 42  1  0
 14 43  1  0
 14 44  1  0
 15 45  1  0
 15 46  1  0
 23 47  1  0
 24 48  1  0
 25 49  1  0
 26 50  1  0
 28 51  1  0
 28 52  1  0
 29 53  1  0
 29 54  1  0
M  CHG  1  16  -1
M  END
>  <UniqueID>  (6) 
5

>  <SMILES>  (6) 
COc1ccccc1N1CCN(CCC[N-]C(=O)c2nsc3ccccc23)CC1

>  <Energy>  (6) 
108.0228634389435

>  <Genealogy>  (6) 
COc1ccccc1N1CCN(CCC[N-]C(=O)c2nsc3ccccc23)CC1 (protonated)
COc1ccccc1N1CCN(CCC[N-]C(=O)c2nsc3ccccc23)CC1 (3D coordinates assigned)
COc1ccccc1N1CCN(CCC[N-]C(=O)c2nsc3ccccc23)CC1 (nonaromatic ring conformer: 108.0228634389435 kcal/mol)

>  <smiles>  (6) 
COc1ccccc1N1CCN(CCCNC(=O)c2nsc3ccccc23)CC1

>  <score_type>  (6) 
oracle

>  <origin>  (6) 
adg

>  <m_score__min__energy>  (6) 
-10.42

>  <m_primary>  (6) 
energy

$$$$
6:0
     RDKit          3D

 43 45  0  0  0  0  0  0  0  0999 V2000
   -2.7400   15.4880  -35.1790 C   0  0  0  0  0  0  0  0  0  0  0  0
   -4.1470   15.4360  -34.9750 O   0  0  0  0  0  0  0  0  0  0  0  0
   -4.9120   16.4900  -34.4540 C   0  0  0  0  0  0  0  0  0  0  0  0
   -4.5630   17.8410  -34.6400 C   0  0  0  0  0  0  0  0  0  0  0  0
   -5.3570   18.8570  -34.1010 C   0  0  0  0  0  0  0  0  0  0  0  0
   -6.5160   18.5470  -33.3660 C   0  0  0  0  0  0  0  0  0  0  0  0
   -7.3740   19.6090  -32.7860 C   0  0  0  0  0  0  0  0  0  0  0  0
   -6.9390   20.5000  -31.8670 N   0  0  0  0  0  0  0  0  0  0  0  0
   -8.0470   21.2390  -31.6500 C   0  0  0  0  0  0  0  0  0  0  0  0
   -8.1170   22.3790  -30.6820 C   0  0  0  0  0  0  0  0  0  0  0  0
   -7.3170   23.6010  -31.1790 C   0  0  0  0  0  0  0  0  0  0  0  0
   -6.8040   24.4220  -29.9720 C   0  0  0  0  0  0  0  0  0  0  0  0
   -5.6000   25.2870  -30.3680 C   0  0  0  0  0  0  0  0  0  0  0  0
   -4.4470   24.4830  -30.8510 N   0  0  0  0  0  0  0  0  0  0  0  0
   -3.4190   24.3390  -29.8090 C   0  0  0  0  0  0  0  0  0  0  0  0
   -4.8160   23.1530  -31.3940 C   0  0  0  0  0  0  0  0  0  0  0  0
   -6.1590   23.1960  -32.1310 C   0  0  0  0  0  0  0  0  0  0  0  0
   -9.0570   20.8230  -32.3750 O   0  0  0  0  0  0  0  0  0  0  0  0
   -8.6710   19.8160  -33.0910 N   0  0  0  0  0  0  0  0  0  0  0  0
   -6.8580   17.1950  -33.1830 C   0  0  0  0  0  0  0  0  0  0  0  0
   -6.0630   16.1800  -33.7230 C   0  0  0  0  0  0  0  0  0  0  0  0
   -2.2288   15.5069  -34.2052 H   0  0  0  0  0  0  0  0  0  0  0  0
   -2.4185   14.6011  -35.7448 H   0  0  0  0  0  0  0  0  0  0  0  0
   -2.4848   16.3962  -35.7448 H   0  0  0  0  0  0  0  0  0  0  0  0
   -3.6600   18.0985  -35.2130 H   0  0  0  0  0  0  0  0  0  0  0  0
   -5.0732   19.9089  -34.2528 H   0  0  0  0  0  0  0  0  0  0  0  0
   -9.1694   22.6713  -30.5513 H   0  0  0  0  0  0  0  0  0  0  0  0
   -7.6783   22.0469  -29.7295 H   0  0  0  0  0  0  0  0  0  0  0  0
   -7.9940   24.2338  -31.7717 H   0  0  0  0  0  0  0  0  0  0  0  0
   -7.6126   25.0745  -29.6109 H   0  0  0  0  0  0  0  0  0  0  0  0
   -6.4899   23.7246  -29.1815 H   0  0  0  0  0  0  0  0  0  0  0  0
   -5.9094   25.9743  -31.1692 H   0  0  0  0  0  0  0  0  0  0  0  0
   -5.2720   25.8294  -29.4690 H   0  0  0  0  0  0  0  0  0  0  0  0
   -3.8904   24.4050  -28.8173 H   0  0  0  0  0  0  0  0  0  0  0  0
   -2.9235   23.3627  -29.9152 H   0  0  0  0  0  0  0  0  0  0  0  0
   -2.6743   25.1416  -29.9152 H   0  0  0  0  0  0  0  0  0  0  0  0
   -4.0346   22.8246  -32.0952 H   0  0  0  0  0  0  0  0  0  0  0  0
   -4.9087   22.4517  -30.5516 H   0  0  0  0  0  0  0  0  0  0  0  0
   -6.0950   23.9293  -32.9484 H   0  0  0  0  0  0  0  0  0  0  0  0
   -6.3701   22.1903  -32.5234 H   0  0  0  0  0  0  0  0  0  0  0  0
   -9.2800   19.2920  -33.7570 H   0  0  0  0  0  0  0  0  0  0  0  0
   -7.7596   16.9339  -32.6095 H   0  0  0  0  0  0  0  0  0  0  0  0
   -6.3454   15.1277  -33.5715 H   0  0  0  0  0  0  0  0  0  0  0  0
  1  2  1  0
  2  3  1  0
  3  4  2  0
  4  5  1  0
  5  6  2  0
  6  7  1  0
  7  8  1  0
  8  9  2  0
  9 10  1  0
 10 11  1  0
 11 12  1  0
 12 13  1  0
 13 14  1  0
 14 15  1  0
 14 16  1  0
 16 17  1  0
  9 18  1  0
 18 19  1  0
  6 20  1  0
 20 21  2  0
 21  3  1  0
 19  7  2  0
 17 11  1  0
  1 22  1  0
  1 23  1  0
  1 24  1  0
  4 25  1  0
  5 26  1  0
 10 27  1  0
 10 28  1  0
 11 29  1  0
 12 30  1  0
 12 31  1  0
 13 32  1  0
 13 33  1  0
 15 34  1  0
 15 35  1  0
 15 36  1  0
 16 37  1  0
 16 38  1  0
 17 39  1  0
 17 40  1  0
 19 41  1  0
 20 42  1  0
 21 43  1  0
M  CHG  1  19   1
M  END
>  <UniqueID>  (7) 
6

>  <SMILES>  (7) 
COc1ccc(-c2nc(CC3CCN(C)CC3)o[nH+]2)cc1

>  <Energy>  (7) 
83.98411850269204

>  <Genealogy>  (7) 
COc1ccc(-c2nc(CC3CCN(C)CC3)o[nH+]2)cc1 (protonated)
COc1ccc(-c2nc(CC3CCN(C)CC3)o[nH+]2)cc1 (3D coordinates assigned)
COc1ccc(-c2nc(CC3CCN(C)CC3)o[nH+]2)cc1 (nonaromatic ring conformer: 83.98411850269204 kcal/mol)

>  <smiles>  (7) 
COc1ccc(-c2noc(CC3CCN(C)CC3)n2)cc1

>  <score_type>  (7) 
oracle

>  <origin>  (7) 
adg

>  <m_score__min__energy>  (7) 
-8.3599999999999994

>  <m_primary>  (7) 
energy

$$$$
7:0
     RDKit          3D

 37 39  0  0  0  0  0  0  0  0999 V2000
   -2.3280   24.7020  -28.2600 C   0  0  0  0  0  0  0  0  0  0  0  0
   -2.9950   25.2810  -29.3770 O   0  0  0  0  0  0  0  0  0  0  0  0
   -4.0990   24.7090  -30.0240 C   0  0  0  0  0  0  0  0  0  0  0  0
   -3.9890   23.5640  -30.8360 C   0  0  0  0  0  0  0  0  0  0  0  0
   -5.1210   23.0300  -31.4600 C   0  0  0  0  0  0  0  0  0  0  0  0
   -6.3760   23.6330  -31.2870 C   0  0  0  0  0  0  0  0  0  0  0  0
   -7.5920   23.0370  -31.9420 C   0  0  0  0  0  0  0  0  0  0  0  0
   -7.2580   21.7540  -32.5530 N   0  0  0  0  0  0  0  0  0  0  0  0
   -7.5970   20.4990  -31.9470 C   0  0  0  0  0  0  0  0  0  0  0  0
   -8.2290   20.4740  -30.8570 O   0  0  0  0  0  0  0  0  0  0  0  0
   -7.1300   19.2460  -32.5560 C   0  0  0  0  0  0  0  0  0  0  0  0
   -7.9770   17.8070  -32.3570 S   0  0  0  0  0  0  0  0  0  0  0  0
   -6.9870   16.8500  -33.3060 C   0  0  0  0  0  0  0  0  0  0  0  0
   -5.9600   17.6440  -33.7910 C   0  0  0  0  0  0  0  0  0  0  0  0
   -6.0100   18.9890  -33.3800 C   0  0  0  0  0  0  0  0  0  0  0  0
   -4.8610   19.9010  -33.7820 C   0  0  0  0  0  0  0  0  0  0  0  0
   -3.8910   20.2430  -32.6630 C   0  0  0  0  0  0  0  0  0  0  0  0
   -3.4250   19.4030  -33.8480 C   0  0  0  0  0  0  0  0  0  0  0  0
   -6.4850   24.7720  -30.4750 C   0  0  0  0  0  0  0  0  0  0  0  0
   -5.3540   25.3040  -29.8510 C   0  0  0  0  0  0  0  0  0  0  0  0
   -2.7706   25.0862  -27.3291 H   0  0  0  0  0  0  0  0  0  0  0  0
   -2.4379   23.6080  -28.2940 H   0  0  0  0  0  0  0  0  0  0  0  0
   -1.2603   24.9645  -28.2940 H   0  0  0  0  0  0  0  0  0  0  0  0
   -3.0082   23.0873  -30.9802 H   0  0  0  0  0  0  0  0  0  0  0  0
   -5.0270   22.1328  -32.0895 H   0  0  0  0  0  0  0  0  0  0  0  0
   -8.3753   22.8858  -31.1846 H   0  0  0  0  0  0  0  0  0  0  0  0
   -7.9518   23.7234  -32.7227 H   0  0  0  0  0  0  0  0  0  0  0  0
   -6.7630   21.7550  -33.4740 H   0  0  0  0  0  0  0  0  0  0  0  0
   -7.1266   15.7781  -33.5096 H   0  0  0  0  0  0  0  0  0  0  0  0
   -5.1675   17.2534  -34.4462 H   0  0  0  0  0  0  0  0  0  0  0  0
   -5.4897   20.4348  -34.5099 H   0  0  0  0  0  0  0  0  0  0  0  0
   -3.5297   21.2752  -32.5444 H   0  0  0  0  0  0  0  0  0  0  0  0
   -3.8877   20.1165  -31.5703 H   0  0  0  0  0  0  0  0  0  0  0  0
   -2.7279   19.8292  -34.5845 H   0  0  0  0  0  0  0  0  0  0  0  0
   -2.9465   18.4195  -33.9651 H   0  0  0  0  0  0  0  0  0  0  0  0
   -7.4657   25.2484  -30.3290 H   0  0  0  0  0  0  0  0  0  0  0  0
   -5.4506   26.1985  -29.2181 H   0  0  0  0  0  0  0  0  0  0  0  0
  1  2  1  0
  2  3  1  0
  3  4  2  0
  4  5  1  0
  5  6  2  0
  6  7  1  0
  7  8  1  0
  8  9  1  0
  9 10  2  0
  9 11  1  0
 11 12  1  0
 12 13  1  0
 13 14  2  0
 14 15  1  0
 15 16  1  0
 16 17  1  0
 17 18  1  0
  6 19  1  0
 19 20  2  0
 20  3  1  0
 15 11  2  0
 18 16  1  0
  1 21  1  0
  1 22  1  0
  1 23  1  0
  4 24  1  0
  5 25  1  0
  7 26  1  0
  7 27  1  0
  8 28  1  0
 13 29  1  0
 14 30  1  0
 16 31  1  0
 17 32  1  0
 17 33  1  0
 18 34  1  0
 18 35  1  0
 19 36  1  0
 20 37  1  0
M  END
>  <UniqueID>  (8) 
7

>  <SMILES>  (8) 
COc1ccc(CNC(=O)c2sccc2C2CC2)cc1

>  <Energy>  (8) 
337.6184632766762

>  <Genealogy>  (8) 
COc1ccc(CNC(=O)c2sccc2C2CC2)cc1 (3D coordinates assigned)
COc1ccc(CNC(=O)c2sccc2C2CC2)cc1 (nonaromatic ring conformer: 337.6184632766762 kcal/mol)

>  <smiles>  (8) 
COc1ccc(CNC(=O)c2sccc2C2CC2)cc1

>  <score_type>  (8) 
oracle

>  <origin>  (8) 
adg

>  <m_score__min__energy>  (8) 
-7.5999999999999996

>  <m_primary>  (8) 
energy

$$$$
8:0
     RDKit          3D

 48 51  0  0  0  0  0  0  0  0999 V2000
   -1.9400   25.1770  -27.4630 C   0  0  0  0  0  0  0  0  0  0  0  0
   -2.3610   25.2320  -28.8220 O   0  0  0  0  0  0  0  0  0  0  0  0
   -2.4130   24.1240  -29.6810 C   0  0  0  0  0  0  0  0  0  0  0  0
   -3.5400   23.8340  -30.4720 C   0  0  0  0  0  0  0  0  0  0  0  0
   -3.5430   22.7160  -31.3120 C   0  0  0  0  0  0  0  0  0  0  0  0
   -2.4240   21.8700  -31.3740 C   0  0  0  0  0  0  0  0  0  0  0  0
   -2.4220   20.7230  -32.2450 N   0  0  0  0  0  0  0  0  0  0  0  0
   -1.3410   20.5190  -33.0570 C   0  0  0  0  0  0  0  0  0  0  0  0
   -1.3010   19.4330  -33.9290 C   0  0  0  0  0  0  0  0  0  0  0  0
   -2.3680   18.5410  -33.9630 C   0  0  0  0  0  0  0  0  0  0  0  0
   -3.4670   18.7280  -33.1170 C   0  0  0  0  0  0  0  0  0  0  0  0
   -4.5790   17.7480  -33.1630 C   0  0  0  0  0  0  0  0  0  0  0  0
   -4.5560   16.8010  -32.3270 O   0  0  0  0  0  0  0  0  0  0  0  0
   -5.6350   17.8200  -34.1680 N   0  0  1  0  0  0  0  0  0  0  0  0
   -6.8090   16.9760  -33.8410 C   0  0  0  0  0  0  0  0  0  0  0  0
   -7.5420   17.4330  -32.5610 C   0  0  0  0  0  0  0  0  0  0  0  0
   -7.5880   18.9320  -32.4040 C   0  0  0  0  0  0  0  0  0  0  0  0
   -8.3300   19.4870  -31.3480 C   0  0  0  0  0  0  0  0  0  0  0  0
   -8.3470   20.8700  -31.1480 C   0  0  0  0  0  0  0  0  0  0  0  0
   -7.6230   21.7090  -31.9960 C   0  0  0  0  0  0  0  0  0  0  0  0
   -6.8780   21.1690  -33.0470 C   0  0  0  0  0  0  0  0  0  0  0  0
   -6.8420   19.7800  -33.2470 C   0  0  0  0  0  0  0  0  0  0  0  0
   -6.0880   19.2080  -34.4210 C   0  0  0  0  0  0  0  0  0  0  0  0
   -3.4830   19.8490  -32.2620 C   0  0  0  0  0  0  0  0  0  0  0  0
   -4.4770   20.0470  -31.5080 O   0  0  0  0  0  0  0  0  0  0  0  0
   -1.2980   22.1660  -30.5890 C   0  0  0  0  0  0  0  0  0  0  0  0
   -1.2960   23.2820  -29.7480 C   0  0  0  0  0  0  0  0  0  0  0  0
   -2.8131   25.2911  -26.8038 H   0  0  0  0  0  0  0  0  0  0  0  0
   -1.4571   24.2081  -27.2676 H   0  0  0  0  0  0  0  0  0  0  0  0
   -1.2244   25.9893  -27.2676 H   0  0  0  0  0  0  0  0  0  0  0  0
   -4.4224   24.4895  -30.4294 H   0  0  0  0  0  0  0  0  0  0  0  0
   -4.4277   22.4979  -31.9282 H   0  0  0  0  0  0  0  0  0  0  0  0
   -0.4938   21.2198  -33.0215 H   0  0  0  0  0  0  0  0  0  0  0  0
   -0.4318   19.2820  -34.5860 H   0  0  0  0  0  0  0  0  0  0  0  0
   -2.3478   17.6871  -34.6562 H   0  0  0  0  0  0  0  0  0  0  0  0
   -5.2380   17.4480  -35.0620 H   0  0  0  0  0  0  0  0  0  0  0  0
   -7.5155   17.0166  -34.6831 H   0  0  0  0  0  0  0  0  0  0  0  0
   -6.4411   15.9547  -33.6630 H   0  0  0  0  0  0  0  0  0  0  0  0
   -8.5739   17.0535  -32.5950 H   0  0  0  0  0  0  0  0  0  0  0  0
   -6.9816   17.0323  -31.7035 H   0  0  0  0  0  0  0  0  0  0  0  0
   -8.9004   18.8297  -30.6753 H   0  0  0  0  0  0  0  0  0  0  0  0
   -8.9321   21.2980  -30.3207 H   0  0  0  0  0  0  0  0  0  0  0  0
   -7.6390   22.7973  -31.8366 H   0  0  0  0  0  0  0  0  0  0  0  0
   -6.3176   21.8344  -33.7202 H   0  0  0  0  0  0  0  0  0  0  0  0
   -6.7470   19.2113  -35.3018 H   0  0  0  0  0  0  0  0  0  0  0  0
   -5.1967   19.8307  -34.5879 H   0  0  0  0  0  0  0  0  0  0  0  0
   -0.4122   21.5155  -30.6363 H   0  0  0  0  0  0  0  0  0  0  0  0
   -0.4101   23.5008  -29.1338 H   0  0  0  0  0  0  0  0  0  0  0  0
  1  2  1  0
  2  3  1  0
  3  4  2  0
  4  5  1  0
  5  6  2  0
  6  7  1  0
  7  8  1  0
  8  9  2  0
  9 10  1  0
 10 11  2  0
 11 12  1  0
 12 13  2  0
 12 14  1  0
 14 15  1  0
 15 16  1  0
 16 17  1  0
 17 18  2  0
 18 19  1  0
 19 20  2  0
 20 21  1  0
 21 22  2  0
 22 23  1  0
 11 24  1  0
 24 25  2  0
  6 26  1  0
 26 27  2  0
 27  3  1  0
 24  7  1  0
 23 14  1  0
 22 17  1  0
  1 28  1  0
  1 29  1  0
  1 30  1  0
  4 31  1  0
  5 32  1  0
  8 33  1  0
  9 34  1  0
 10 35  1  0
 14 36  1  6
 15 37  1  0
 15 38  1  0
 16 39  1  0
 16 40  1  0
 18 41  1  0
 19 42  1  0
 20 43  1  0
 21 44  1  0
 23 45  1  0
 23 46  1  0
 26 47  1  0
 27 48  1  0
M  CHG  1  14   1
M  END
>  <UniqueID>  (9) 
8

>  <SMILES>  (9) 
COc1ccc(-n2cccc(C(=O)[N@H+]3CCc4ccccc4C3)c2=O)cc1

>  <Energy>  (9) 
75.8524592643486

>  <Genealogy>  (9) 
COc1ccc(-n2cccc(C(=O)[NH+]3CCc4ccccc4C3)c2=O)cc1 (protonated)
COc1ccc(-n2cccc(C(=O)[N@H+]3CCc4ccccc4C3)c2=O)cc1 (chirality)
COc1ccc(-n2cccc(C(=O)[N@H+]3CCc4ccccc4C3)c2=O)cc1 (3D coordinates assigned)
COc1ccc(-n2cccc(C(=O)[N@H+]3CCc4ccccc4C3)c2=O)cc1 (nonaromatic ring conformer: 75.8524592643486 kcal/mol)

>  <smiles>  (9) 
COc1ccc(-n2cccc(C(=O)N3CCc4ccccc4C3)c2=O)cc1

>  <score_type>  (9) 
oracle

>  <origin>  (9) 
adg

>  <m_score__min__energy>  (9) 
-8.9000000000000004

>  <m_primary>  (9) 
energy

$$$$
9:0
     RDKit          3D

 25 27  0  0  0  0  0  0  0  0999 V2000
   -2.5270   24.1750  -29.6920 C   0  0  0  0  0  0  0  0  0  0  0  0
   -3.4830   24.8970  -30.4620 O   0  0  0  0  0  0  0  0  0  0  0  0
   -4.8390   24.5550  -30.5520 C   0  0  0  0  0  0  0  0  0  0  0  0
   -5.8740   25.3290  -29.9700 C   0  0  0  0  0  0  0  0  0  0  0  0
   -7.2250   24.9320  -30.0950 C   0  0  0  0  0  0  0  0  0  0  0  0
   -7.5680   23.7640  -30.7970 C   0  0  0  0  0  0  0  0  0  0  0  0
   -6.5320   23.0240  -31.3580 C   0  0  0  0  0  0  0  0  0  0  0  0
   -5.2100   23.4020  -31.2420 C   0  0  0  0  0  0  0  0  0  0  0  0
   -4.4160   22.5440  -31.8550 O   0  0  0  0  0  0  0  0  0  0  0  0
   -5.1940   21.6110  -32.3690 C   0  0  0  0  0  0  0  0  0  0  0  0
   -4.8070   20.4950  -33.1050 C   0  0  0  0  0  0  0  0  0  0  0  0
   -5.8150   19.6220  -33.5610 C   0  0  0  0  0  0  0  0  0  0  0  0
   -5.3410   18.0760  -34.5750 Br  0  0  0  0  0  0  0  0  0  0  0  0
   -7.1740   19.8830  -33.2710 C   0  0  0  0  0  0  0  0  0  0  0  0
   -7.5420   21.0190  -32.5240 C   0  0  0  0  0  0  0  0  0  0  0  0
   -6.5210   21.8600  -32.0890 C   0  0  0  0  0  0  0  0  0  0  0  0
   -2.7283   24.3270  -28.6213 H   0  0  0  0  0  0  0  0  0  0  0  0
   -2.5984   23.1034  -29.9300 H   0  0  0  0  0  0  0  0  0  0  0  0
   -1.5158   24.5368  -29.9300 H   0  0  0  0  0  0  0  0  0  0  0  0
   -5.6239   26.2461  -29.4165 H   0  0  0  0  0  0  0  0  0  0  0  0
   -8.0164   25.5441  -29.6378 H   0  0  0  0  0  0  0  0  0  0  0  0
   -8.6163   23.4467  -30.8991 H   0  0  0  0  0  0  0  0  0  0  0  0
   -3.7468   20.3003  -33.3241 H   0  0  0  0  0  0  0  0  0  0  0  0
   -7.9507   19.1928  -33.6319 H   0  0  0  0  0  0  0  0  0  0  0  0
   -8.5958   21.2336  -32.2930 H   0  0  0  0  0  0  0  0  0  0  0  0
  1  2  1  0
  2  3  1  0
  3  4  2  0
  4  5  1  0
  5  6  2  0
  6  7  1  0
  7  8  2  0
  8  9  1  0
  9 10  1  0
 10 11  2  0
 11 12  1  0
 12 13  1  0
 12 14  2  0
 14 15  1  0
 15 16  2  0
  8  3  1  0
 16 10  1  0
 16  7  1  0
  1 17  1  0
  1 18  1  0
  1 19  1  0
  4 20  1  0
  5 21  1  0
  6 22  1  0
 11 23  1  0
 14 24  1  0
 15 25  1  0
M  END
>  <UniqueID>  (10) 
9

>  <SMILES>  (10) 
COc1cccc2c1oc1cc(Br)ccc12

>  <Energy>  (10) 
68.27126440659993

>  <Genealogy>  (10) 
COc1cccc2c1oc1cc(Br)ccc12 (3D coordinates assigned)
COc1cccc2c1oc1cc(Br)ccc12 (optimized conformer: 68.27126440659993 kcal/mol)

>  <smiles>  (10) 
COc1cccc2c1oc1cc(Br)ccc12

>  <score_type>  (10) 
oracle

>  <origin>  (10) 
adg

>  <m_score__min__energy>  (10) 
-7.4900000000000002

>  <m_primary>  (10) 
energy

$$$$
10:0
     RDKit          3D

 32 32  0  0  0  0  0  0  0  0999 V2000
   -5.3710   17.7990  -34.9710 C   0  0  0  0  0  0  0  0  0  0  0  0
   -6.4540   17.7900  -33.8850 C   0  0  0  0  0  0  0  0  0  0  0  0
   -6.9490   19.1330  -33.4930 N   0  0  0  0  0  0  0  0  0  0  0  0
   -8.2080   19.0640  -32.7130 C   0  0  0  0  0  0  0  0  0  0  0  0
   -8.0690   18.2090  -31.4510 C   0  0  0  0  0  0  0  0  0  0  0  0
   -5.7050   20.1060  -32.7130 S   0  0  0  0  0  0  0  0  0  0  0  0
   -5.0810   19.3140  -31.5960 O   0  0  0  0  0  0  0  0  0  0  0  0
   -4.6210   20.4030  -33.7100 O   0  0  0  0  0  0  0  0  0  0  0  0
   -6.2820   21.6490  -32.0600 C   0  0  0  0  0  0  0  0  0  0  0  0
   -7.6510   21.8600  -31.8370 C   0  0  0  0  0  0  0  0  0  0  0  0
   -8.1000   23.0650  -31.2950 C   0  0  0  0  0  0  0  0  0  0  0  0
   -7.1870   24.0650  -30.9520 C   0  0  0  0  0  0  0  0  0  0  0  0
   -5.8080   23.8620  -31.1360 C   0  0  0  0  0  0  0  0  0  0  0  0
   -4.8600   24.8820  -30.7690 N   0  0  0  0  0  0  0  0  0  0  0  0
   -5.2400   26.0470  -30.5320 O   0  0  0  0  0  0  0  0  0  0  0  0
   -3.5180   24.5900  -30.6790 O   0  0  0  0  0  0  0  0  0  0  0  0
   -5.3660   22.6430  -31.6800 C   0  0  0  0  0  0  0  0  0  0  0  0
   -4.3778   17.8073  -34.4983 H   0  0  0  0  0  0  0  0  0  0  0  0
   -5.4718   16.9000  -35.5968 H   0  0  0  0  0  0  0  0  0  0  0  0
   -5.4867   18.6962  -35.5968 H   0  0  0  0  0  0  0  0  0  0  0  0
   -7.3080   17.2051  -34.2573 H   0  0  0  0  0  0  0  0  0  0  0  0
   -5.9907   17.3550  -32.9872 H   0  0  0  0  0  0  0  0  0  0  0  0
   -7.1580   19.6180  -34.3980 H   0  0  0  0  0  0  0  0  0  0  0  0
   -8.4969   20.0837  -32.4183 H   0  0  0  0  0  0  0  0  0  0  0  0
   -8.9718   18.5961  -33.3515 H   0  0  0  0  0  0  0  0  0  0  0  0
   -8.1729   18.8482  -30.5618 H   0  0  0  0  0  0  0  0  0  0  0  0
   -8.8536   17.4381  -31.4421 H   0  0  0  0  0  0  0  0  0  0  0  0
   -7.0806   17.7263  -31.4421 H   0  0  0  0  0  0  0  0  0  0  0  0
   -8.3744   21.0712  -32.0908 H   0  0  0  0  0  0  0  0  0  0  0  0
   -9.1764   23.2279  -31.1374 H   0  0  0  0  0  0  0  0  0  0  0  0
   -7.5490   25.0166  -30.5356 H   0  0  0  0  0  0  0  0  0  0  0  0
   -4.2881   22.4657  -31.8096 H   0  0  0  0  0  0  0  0  0  0  0  0
  1  2  1  0
  2  3  1  0
  3  4  1  0
  4  5  1  0
  3  6  1  0
  6  7  2  0
  6  8  2  0
  6  9  1  0
  9 10  2  0
 10 11  1  0
 11 12  2  0
 12 13  1  0
 13 14  1  0
 14 15  2  0
 14 16  1  0
 13 17  2  0
 17  9  1  0
  1 18  1  0
  1 19  1  0
  1 20  1  0
  2 21  1  0
  2 22  1  0
  3 23  1  0
  4 24  1  0
  4 25  1  0
  5 26  1  0
  5 27  1  0
  5 28  1  0
 10 29  1  0
 11 30  1  0
 12 31  1  0
 17 32  1  0
M  CHG  3   3   1  14   1  16  -1
M  END
>  <UniqueID>  (11) 
10

>  <SMILES>  (11) 
CC[NH+](CC)S(=O)(=O)c1cccc([N+](=O)[O-])c1

>  <Energy>  (11) 
32.98187908645558

>  <Genealogy>  (11) 
CC[NH+](CC)S(=O)(=O)c1cccc([N+](=O)[O-])c1 (protonated)
CC[NH+](CC)S(=O)(=O)c1cccc([N+](=O)[O-])c1 (3D coordinates assigned)
CC[NH+](CC)S(=O)(=O)c1cccc([N+](=O)[O-])c1 (optimized conformer: 32.98187908645558 kcal/mol)

>  <smiles>  (11) 
CCN(CC)S(=O)(=O)c1cccc([N+](=O)[O-])c1

>  <score_type>  (11) 
oracle

>  <origin>  (11) 
adg

>  <m_score__min__energy>  (11) 
-6.9100000000000001

>  <m_primary>  (11) 
energy

$$$$
11:0
     RDKit          3D

 28 29  0  0  0  0  0  0  0  0999 V2000
   -9.8560   21.9480  -32.0450 O   0  0  0  0  0  0  0  0  0  0  0  0
   -8.4110   21.8680  -31.6350 S   0  0  0  0  0  0  0  0  0  0  0  0
   -8.3320   21.9240  -30.1350 O   0  0  0  0  0  0  0  0  0  0  0  0
   -7.5020   23.2300  -32.3420 C   0  0  0  0  0  0  0  0  0  0  0  0
   -6.3530   23.6120  -31.4520 C   0  0  0  0  0  0  0  0  0  0  0  0
   -6.5160   24.6000  -30.4680 C   0  0  0  0  0  0  0  0  0  0  0  0
   -5.4360   24.9770  -29.6620 C   0  0  0  0  0  0  0  0  0  0  0  0
   -4.1880   24.3760  -29.8390 C   0  0  0  0  0  0  0  0  0  0  0  0
   -4.0140   23.3990  -30.8240 C   0  0  0  0  0  0  0  0  0  0  0  0
   -5.0910   23.0200  -31.6320 C   0  0  0  0  0  0  0  0  0  0  0  0
   -7.7170   20.3560  -32.2070 C   0  0  0  0  0  0  0  0  0  0  0  0
   -6.6560   20.3680  -33.1240 C   0  0  0  0  0  0  0  0  0  0  0  0
   -6.1170   19.1650  -33.5910 C   0  0  0  0  0  0  0  0  0  0  0  0
   -6.6370   17.9460  -33.1490 C   0  0  0  0  0  0  0  0  0  0  0  0
   -7.7010   17.9280  -32.2420 C   0  0  0  0  0  0  0  0  0  0  0  0
   -8.2430   19.1290  -31.7740 C   0  0  0  0  0  0  0  0  0  0  0  0
   -7.1139   22.9338  -33.3277 H   0  0  0  0  0  0  0  0  0  0  0  0
   -8.1759   24.0934  -32.4446 H   0  0  0  0  0  0  0  0  0  0  0  0
   -7.4963   25.0795  -30.3301 H   0  0  0  0  0  0  0  0  0  0  0  0
   -5.5702   25.7474  -28.8884 H   0  0  0  0  0  0  0  0  0  0  0  0
   -3.3408   24.6716  -29.2027 H   0  0  0  0  0  0  0  0  0  0  0  0
   -3.0297   22.9282  -30.9635 H   0  0  0  0  0  0  0  0  0  0  0  0
   -4.9499   22.2561  -32.4108 H   0  0  0  0  0  0  0  0  0  0  0  0
   -6.2467   21.3261  -33.4769 H   0  0  0  0  0  0  0  0  0  0  0  0
   -5.2824   19.1786  -34.3074 H   0  0  0  0  0  0  0  0  0  0  0  0
   -6.2095   17.0006  -33.5144 H   0  0  0  0  0  0  0  0  0  0  0  0
   -8.1121   16.9681  -31.8963 H   0  0  0  0  0  0  0  0  0  0  0  0
   -9.0837   19.1121  -31.0648 H   0  0  0  0  0  0  0  0  0  0  0  0
  1  2  2  0
  2  3  2  0
  2  4  1  0
  4  5  1  0
  5  6  2  0
  6  7  1  0
  7  8  2  0
  8  9  1  0
  9 10  2  0
  2 11  1  0
 11 12  2  0
 12 13  1  0
 13 14  2  0
 14 15  1  0
 15 16  2  0
 10  5  1  0
 16 11  1  0
  4 17  1  0
  4 18  1  0
  6 19  1  0
  7 20  1  0
  8 21  1  0
  9 22  1  0
 10 23  1  0
 12 24  1  0
 13 25  1  0
 14 26  1  0
 15 27  1  0
 16 28  1  0
M  END
>  <UniqueID>  (12) 
11

>  <SMILES>  (12) 
O=S(=O)(Cc1ccccc1)c1ccccc1

>  <Energy>  (12) 
25.35191830908022

>  <Genealogy>  (12) 
O=S(=O)(Cc1ccccc1)c1ccccc1 (3D coordinates assigned)
O=S(=O)(Cc1ccccc1)c1ccccc1 (optimized conformer: 25.35191830908022 kcal/mol)

>  <smiles>  (12) 
O=S(=O)(Cc1ccccc1)c1ccccc1

>  <score_type>  (12) 
oracle

>  <origin>  (12) 
adg

>  <m_score__min__energy>  (12) 
-7.0899999999999999

>  <m_primary>  (12) 
energy

$$$$
12:0
     RDKit          3D

 39 42  0  0  0  0  0  0  0  0999 V2000
   -0.8261   25.4394  -29.3423 H   0  0  0  0  0  0  0  0  0  0  0  0
   -1.7770   25.0910  -28.9130 C   0  0  0  0  0  0  0  0  0  0  0  0
   -2.8640   24.9220  -29.7140 N   0  0  0  0  0  0  0  0  0  0  0  0
   -4.0610   24.4900  -29.2260 C   0  0  0  0  0  0  0  0  0  0  0  0
   -5.0970   24.3450  -30.0020 N   0  0  0  0  0  0  0  0  0  0  0  0
   -5.1820   23.5260  -31.1790 C   0  0  0  0  0  0  0  0  0  0  0  0
   -4.2020   23.3990  -31.9620 O   0  0  0  0  0  0  0  0  0  0  0  0
   -6.4040   22.7540  -31.4260 C   0  0  0  0  0  0  0  0  0  0  0  0
   -7.6250   23.4500  -31.5800 C   0  0  0  0  0  0  0  0  0  0  0  0
   -7.6542   24.5371  -31.4144 H   0  0  0  0  0  0  0  0  0  0  0  0
   -8.8060   22.7700  -31.9430 C   0  0  0  0  0  0  0  0  0  0  0  0
   -9.7453   23.3308  -32.0578 H   0  0  0  0  0  0  0  0  0  0  0  0
   -8.7920   21.3830  -32.1590 C   0  0  0  0  0  0  0  0  0  0  0  0
   -9.7035   20.8432  -32.4554 H   0  0  0  0  0  0  0  0  0  0  0  0
   -7.5860   20.7170  -31.9850 C   0  0  0  0  0  0  0  0  0  0  0  0
   -7.3600   19.3970  -32.0680 N   0  0  0  0  0  0  0  0  0  0  0  0
   -6.0830   19.2300  -31.7400 N   0  0  0  0  0  0  0  0  0  0  0  0
   -5.4900   20.3910  -31.4710 N   0  0  0  0  0  0  0  0  0  0  0  0
   -4.1520   20.4590  -30.8750 C   0  0  0  0  0  0  0  0  0  0  0  0
   -4.0942   21.3349  -30.2121 H   0  0  0  0  0  0  0  0  0  0  0  0
   -3.9691   19.5388  -30.3007 H   0  0  0  0  0  0  0  0  0  0  0  0
   -3.1030   20.5810  -31.9540 C   0  0  0  0  0  0  0  0  0  0  0  0
   -3.3540   20.0060  -33.2100 C   0  0  0  0  0  0  0  0  0  0  0  0
   -4.3106   19.4952  -33.3944 H   0  0  0  0  0  0  0  0  0  0  0  0
   -2.3990   20.0770  -34.2280 C   0  0  0  0  0  0  0  0  0  0  0  0
   -2.6108   19.6335  -35.2121 H   0  0  0  0  0  0  0  0  0  0  0  0
   -1.1770   20.7100  -33.9970 C   0  0  0  0  0  0  0  0  0  0  0  0
   -0.2500   20.7750  -34.9850 F   0  0  0  0  0  0  0  0  0  0  0  0
   -0.9050   21.2680  -32.7460 C   0  0  0  0  0  0  0  0  0  0  0  0
    0.0617   21.7610  -32.5661 H   0  0  0  0  0  0  0  0  0  0  0  0
   -1.8550   21.2040  -31.7190 C   0  0  0  0  0  0  0  0  0  0  0  0
   -1.4360   21.9010  -30.1560 Cl  0  0  0  0  0  0  0  0  0  0  0  0
   -6.4310   21.3550  -31.6210 C   0  0  0  0  0  0  0  0  0  0  0  0
   -4.1860   24.2120  -27.8590 C   0  0  0  0  0  0  0  0  0  0  0  0
   -5.1459   23.8639  -27.4500 H   0  0  0  0  0  0  0  0  0  0  0  0
   -3.0830   24.3800  -27.0190 C   0  0  0  0  0  0  0  0  0  0  0  0
   -3.1711   24.1643  -25.9440 H   0  0  0  0  0  0  0  0  0  0  0  0
   -1.8690   24.8220  -27.5460 C   0  0  0  0  0  0  0  0  0  0  0  0
   -0.9947   24.9569  -26.8922 H   0  0  0  0  0  0  0  0  0  0  0  0
  1  2  1  0
  2  3  1  0
  3  4  1  0
  4  5  2  0
  5  6  1  0
  6  7  2  0
  6  8  1  0
  8  9  2  0
  9 10  1  0
  9 11  1  0
 11 12  1  0
 11 13  2  0
 13 14  1  0
 13 15  1  0
 15 16  1  0
 16 17  2  0
 17 18  1  0
 18 19  1  0
 19 20  1  0
 19 21  1  0
 19 22  1  0
 22 23  2  0
 23 24  1  0
 23 25  1  0
 25 26  1  0
 25 27  2  0
 27 28  1  0
 27 29  1  0
 29 30  1  0
 29 31  2  0
 31 32  1  0
 18 33  1  0
  4 34  1  0
 34 35  1  0
 34 36  2  0
 36 37  1  0
 36 38  1  0
 38 39  1  0
 38  2  2  0
 33  8  1  0
 33 15  2  0
 31 22  1  0
M  CHG  1   3  -1
M  END
>  <UniqueID>  (13) 
12

>  <SMILES>  (13) 
O=C(/N=c1/cccc[n-]1)c1cccc2nnn(Cc3ccc(F)cc3Cl)c12

>  <Energy>  (13) 
101.94163444037684

>  <Genealogy>  (13) 
O=C(N=c1cccc[n-]1)c1cccc2nnn(Cc3ccc(F)cc3Cl)c12 (protonated)
O=C(/N=c1/cccc[n-]1)c1cccc2nnn(Cc3ccc(F)cc3Cl)c12 (cis-trans isomerization)
O=C(/N=c1/cccc[n-]1)c1cccc2nnn(Cc3ccc(F)cc3Cl)c12 (3D coordinates assigned)
O=C(/N=c1/cccc[n-]1)c1cccc2nnn(Cc3ccc(F)cc3Cl)c12 (optimized conformer: 101.94163444037684 kcal/mol)

>  <smiles>  (13) 
O=C(N=c1cccc[nH]1)c1cccc2nnn(Cc3ccc(F)cc3Cl)c12

>  <score_type>  (13) 
oracle

>  <origin>  (13) 
adg

>  <m_score__min__energy>  (13) 
-10.25

>  <m_primary>  (13) 
energy

$$$$
13:0
     RDKit          3D

 27 27  0  0  1  0  0  0  0  0999 V2000
   -3.8560   25.2900  -30.8470 O   0  0  0  0  0  0  0  0  0  0  0  0
   -3.9550   23.9330  -30.5950 N   0  0  0  0  0  0  0  0  0  0  0  0
   -4.9110   23.4930  -29.8210 C   0  0  0  0  0  0  0  0  0  0  0  0
   -4.7000   23.3450  -28.4460 O   0  0  0  0  0  0  0  0  0  0  0  0
   -6.2450   23.1360  -30.3580 C   0  0  1  0  0  0  0  0  0  0  0  0
   -7.1420   24.3540  -30.4190 C   0  0  0  0  0  0  0  0  0  0  0  0
   -6.3710   25.6740  -29.4130 S   0  0  0  0  0  0  0  0  0  0  0  0
   -6.1110   22.5850  -31.7630 C   0  0  0  0  0  0  0  0  0  0  0  0
   -7.0700   21.4750  -32.0020 C   0  0  0  0  0  0  0  0  0  0  0  0
   -6.6940   20.2230  -32.4280 C   0  0  0  0  0  0  0  0  0  0  0  0
   -7.6180   19.2010  -32.6430 C   0  0  0  0  0  0  0  0  0  0  0  0
   -8.9480   19.4110  -32.4350 C   0  0  0  0  0  0  0  0  0  0  0  0
   -9.3530   20.6640  -32.0060 C   0  0  0  0  0  0  0  0  0  0  0  0
   -8.4250   21.6830  -31.7920 C   0  0  0  0  0  0  0  0  0  0  0  0
   -4.2000   25.6830  -31.7350 H   0  0  0  0  0  0  0  0  0  0  0  0
   -5.3640   23.7750  -27.7980 H   0  0  0  0  0  0  0  0  0  0  0  0
   -6.6835   22.3815  -29.6883 H   0  0  0  0  0  0  0  0  0  0  0  0
   -7.2445   24.6905  -31.4613 H   0  0  0  0  0  0  0  0  0  0  0  0
   -8.1423   24.1121  -30.0306 H   0  0  0  0  0  0  0  0  0  0  0  0
   -5.0220   25.4020  -29.1920 H   0  0  0  0  0  0  0  0  0  0  0  0
   -6.3093   23.3913  -32.4844 H   0  0  0  0  0  0  0  0  0  0  0  0
   -5.0902   22.1943  -31.8866 H   0  0  0  0  0  0  0  0  0  0  0  0
   -5.6274   20.0205  -32.6054 H   0  0  0  0  0  0  0  0  0  0  0  0
   -7.2695   18.2150  -32.9841 H   0  0  0  0  0  0  0  0  0  0  0  0
   -9.6801   18.6074  -32.6032 H   0  0  0  0  0  0  0  0  0  0  0  0
  -10.4216   20.8583  -31.8316 H   0  0  0  0  0  0  0  0  0  0  0  0
   -8.7739   22.6688  -31.4507 H   0  0  0  0  0  0  0  0  0  0  0  0
  1  2  1  0
  2  3  2  0
  3  4  1  0
  3  5  1  0
  5  6  1  0
  6  7  1  0
  5  8  1  0
  8  9  1  0
  9 10  2  0
 10 11  1  0
 11 12  2  0
 12 13  1  0
 13 14  2  0
 14  9  1  0
  1 15  1  0
  4 16  1  0
  5 17  1  1
  6 18  1  0
  6 19  1  0
  7 20  1  0
  8 21  1  0
  8 22  1  0
 10 23  1  0
 11 24  1  0
 12 25  1  0
 13 26  1  0
 14 27  1  0
M  END
>  <smiles>  (14) 
ON=C(O)C(CS)Cc1ccccc1

>  <score_type>  (14) 
oracle

>  <origin>  (14) 
adg

>  <m_score__min__energy>  (14) 
-7.4699999999999998

>  <m_primary>  (14) 
energy

$$$$
14:0
     RDKit          3D

 51 54  0  0  0  0  0  0  0  0999 V2000
    0.7975   22.8811  -35.9827 H   0  0  0  0  0  0  0  0  0  0  0  0
    0.4410   21.9890  -35.4470 C   0  0  0  0  0  0  0  0  0  0  0  0
    0.2610   21.9080  -34.1490 O   0  0  0  0  0  0  0  0  0  0  0  0
   -0.1750   20.7040  -33.8590 C   0  0  0  0  0  0  0  0  0  0  0  0
   -0.4630   20.2470  -32.4610 C   0  0  0  0  0  0  0  0  0  0  0  0
    0.4450   20.3698  -31.8524 H   0  0  0  0  0  0  0  0  0  0  0  0
   -0.7716   19.1920  -32.5035 H   0  0  0  0  0  0  0  0  0  0  0  0
   -1.5570   21.0190  -31.8460 N   0  0  0  0  0  0  0  0  0  0  0  0
   -1.3730   21.6960  -30.6690 C   0  0  0  0  0  0  0  0  0  0  0  0
   -0.1620   21.6890  -29.9830 O   0  0  0  0  0  0  0  0  0  0  0  0
   -2.4790   22.4000  -30.2030 C   0  0  0  0  0  0  0  0  0  0  0  0
   -2.5260   23.2860  -28.9990 C   0  0  0  0  0  0  0  0  0  0  0  0
   -3.4098   23.0341  -28.3944 H   0  0  0  0  0  0  0  0  0  0  0  0
   -1.6141   23.1367  -28.4022 H   0  0  0  0  0  0  0  0  0  0  0  0
   -2.6080   24.7160  -29.4260 C   0  0  0  0  0  0  0  0  0  0  0  0
   -3.5530   25.0890  -30.1720 O   0  0  0  0  0  0  0  0  0  0  0  0
   -1.6090   25.6410  -28.9840 N   0  0  0  0  0  0  0  0  0  0  0  0
   -1.3600   26.0410  -27.6280 C   0  0  0  0  0  0  0  0  0  0  0  0
   -0.5050   27.1140  -27.3120 C   0  0  0  0  0  0  0  0  0  0  0  0
    0.0117   27.6588  -28.1159 H   0  0  0  0  0  0  0  0  0  0  0  0
   -0.3110   27.4890  -25.9790 C   0  0  0  0  0  0  0  0  0  0  0  0
    0.3660   28.3213  -25.7360 H   0  0  0  0  0  0  0  0  0  0  0  0
   -0.9750   26.8090  -24.9550 C   0  0  0  0  0  0  0  0  0  0  0  0
   -0.8143   27.1002  -23.9065 H   0  0  0  0  0  0  0  0  0  0  0  0
   -1.8440   25.7580  -25.2640 C   0  0  0  0  0  0  0  0  0  0  0  0
   -2.3728   25.2269  -24.4588 H   0  0  0  0  0  0  0  0  0  0  0  0
   -2.0410   25.3820  -26.5960 C   0  0  0  0  0  0  0  0  0  0  0  0
   -2.7354   24.5632  -26.8355 H   0  0  0  0  0  0  0  0  0  0  0  0
   -3.7300   22.1920  -31.3000 S   0  0  0  0  0  0  0  0  0  0  0  0
   -2.8370   21.1880  -32.3100 C   0  0  0  0  0  0  0  0  0  0  0  0
   -3.3720   20.6610  -33.3780 N   0  0  0  0  0  0  0  0  0  0  0  0
   -4.4090   19.6850  -33.4790 C   0  0  0  0  0  0  0  0  0  0  0  0
   -4.1800   18.4890  -34.1680 C   0  0  0  0  0  0  0  0  0  0  0  0
   -3.1871   18.2798  -34.5926 H   0  0  0  0  0  0  0  0  0  0  0  0
   -5.2120   17.5620  -34.3160 C   0  0  0  0  0  0  0  0  0  0  0  0
   -5.0237   16.6116  -34.8369 H   0  0  0  0  0  0  0  0  0  0  0  0
   -6.4830   17.8350  -33.8060 C   0  0  0  0  0  0  0  0  0  0  0  0
   -7.2867   17.0922  -33.9167 H   0  0  0  0  0  0  0  0  0  0  0  0
   -6.7440   19.0560  -33.1500 C   0  0  0  0  0  0  0  0  0  0  0  0
   -8.0920   19.3700  -32.6050 C   0  0  0  0  0  0  0  0  0  0  0  0
   -8.7100   20.3900  -33.0140 O   0  0  0  0  0  0  0  0  0  0  0  0
   -8.7490   18.5050  -31.5720 C   0  0  0  0  0  0  0  0  0  0  0  0
   -8.4774   18.8626  -30.5678 H   0  0  0  0  0  0  0  0  0  0  0  0
   -9.8411   18.5521  -31.6951 H   0  0  0  0  0  0  0  0  0  0  0  0
   -8.4106   17.4656  -31.6951 H   0  0  0  0  0  0  0  0  0  0  0  0
   -5.6950   19.9830  -33.0100 C   0  0  0  0  0  0  0  0  0  0  0  0
   -5.8867   20.9525  -32.5269 H   0  0  0  0  0  0  0  0  0  0  0  0
   -0.2760   19.9500  -35.0140 C   0  0  0  0  0  0  0  0  0  0  0  0
   -0.6007   18.9024  -35.0980 H   0  0  0  0  0  0  0  0  0  0  0  0
    0.1150   20.7850  -36.0370 C   0  0  0  0  0  0  0  0  0  0  0  0
    0.1586   20.5412  -37.1088 H   0  0  0  0  0  0  0  0  0  0  0  0
  1  2  1  0
  2  3  1  0
  3  4  1  0
  4  5  1  0
  5  6  1  0
  5  7  1  0
  5  8  1  0
  8  9  1  0
  9 10  1  0
  9 11  2  0
 11 12  1  0
 12 13  1  0
 12 14  1  0
 12 15  1  0
 15 16  2  0
 15 17  1  0
 17 18  1  0
 18 19  2  0
 19 20  1  0
 19 21  1  0
 21 22  1  0
 21 23  2  0
 23 24  1  0
 23 25  1  0
 25 26  1  0
 25 27  2  0
 27 28  1  0
 11 29  1  0
 29 30  1  0
 30 31  2  0
 31 32  1  0
 32 33  2  0
 33 34  1  0
 33 35  1  0
 35 36  1  0
 35 37  2  0
 37 38  1  0
 37 39  1  0
 39 40  1  0
 40 41  2  0
 40 42  1  0
 42 43  1  0
 42 44  1  0
 42 45  1  0
 39 46  2  0
 46 47  1  0
  4 48  2  0
 48 49  1  0
 48 50  1  0
 50 51  1  0
 50  2  2  0
 30  8  1  0
 46 32  1  0
 27 18  1  0
M  CHG  2  10  -1  17  -1
M  END
>  <UniqueID>  (15) 
13

>  <SMILES>  (15) 
CC(=O)c1cccc(/N=c2/sc(CC(=O)[N-]c3ccccc3)c([O-])n2Cc2ccco2)c1

>  <Energy>  (15) 
125.88720754478975

>  <Genealogy>  (15) 
CC(=O)c1cccc(N=c2sc(CC(=O)[N-]c3ccccc3)c([O-])n2Cc2ccco2)c1 (protonated)
CC(=O)c1cccc(/N=c2/sc(CC(=O)[N-]c3ccccc3)c([O-])n2Cc2ccco2)c1 (cis-trans isomerization)
CC(=O)c1cccc(/N=c2/sc(CC(=O)[N-]c3ccccc3)c([O-])n2Cc2ccco2)c1 (3D coordinates assigned)
CC(=O)c1cccc(/N=c2/sc(CC(=O)[N-]c3ccccc3)c([O-])n2Cc2ccco2)c1 (optimized conformer: 125.88720754478975 kcal/mol)

>  <smiles>  (15) 
CC(=O)c1cccc(N=c2sc(CC(=O)Nc3ccccc3)c(O)n2Cc2ccco2)c1

>  <score_type>  (15) 
oracle

>  <origin>  (15) 
adg

>  <m_score__min__energy>  (15) 
-12.41

>  <m_primary>  (15) 
energy

$$$$
15:0
     RDKit          3D

 43 45  0  0  0  0  0  0  0  0999 V2000
   -5.4470   17.3270  -34.2380 C   0  0  0  0  0  0  0  0  0  0  0  0
   -5.9050   17.5410  -32.9060 O   0  0  0  0  0  0  0  0  0  0  0  0
   -6.8430   18.5170  -32.5340 C   0  0  0  0  0  0  0  0  0  0  0  0
   -8.2020   18.2040  -32.3350 C   0  0  0  0  0  0  0  0  0  0  0  0
   -9.1150   19.2000  -31.9850 C   0  0  0  0  0  0  0  0  0  0  0  0
   -8.6880   20.5230  -31.8130 C   0  0  0  0  0  0  0  0  0  0  0  0
   -9.6760   21.5980  -31.4710 C   0  0  0  0  0  0  0  0  0  0  0  0
   -7.3400   20.8440  -32.0230 C   0  0  0  0  0  0  0  0  0  0  0  0
   -6.4110   19.8490  -32.3730 C   0  0  0  0  0  0  0  0  0  0  0  0
   -5.0260   20.1980  -32.5460 N   0  0  0  0  0  0  0  0  0  0  0  0
   -4.0020   19.6100  -31.6740 C   0  0  0  0  0  0  0  0  0  0  0  0
   -2.8040   20.5650  -31.5270 C   0  0  0  0  0  0  0  0  0  0  0  0
   -3.2390   21.9770  -31.4540 N   0  0  0  0  0  0  0  0  0  0  0  0
   -4.0060   22.2500  -30.2190 C   0  0  0  0  0  0  0  0  0  0  0  0
   -4.8250   23.4920  -30.3830 C   0  0  0  0  0  0  0  0  0  0  0  0
   -6.1760   23.6110  -30.1260 C   0  0  0  0  0  0  0  0  0  0  0  0
   -6.4960   24.9170  -30.4250 C   0  0  0  0  0  0  0  0  0  0  0  0
   -5.3230   25.5140  -30.8430 C   0  0  0  0  0  0  0  0  0  0  0  0
   -4.3440   24.6380  -30.8080 O   0  0  0  0  0  0  0  0  0  0  0  0
   -3.9570   22.4200  -32.6800 C   0  0  0  0  0  0  0  0  0  0  0  0
   -4.6330   21.2740  -33.4600 C   0  0  0  0  0  0  0  0  0  0  0  0
   -4.4507   16.8615  -34.2128 H   0  0  0  0  0  0  0  0  0  0  0  0
   -6.1486   16.6634  -34.7648 H   0  0  0  0  0  0  0  0  0  0  0  0
   -5.3881   18.2909  -34.7648 H   0  0  0  0  0  0  0  0  0  0  0  0
   -8.5464   17.1664  -32.4564 H   0  0  0  0  0  0  0  0  0  0  0  0
  -10.1756   18.9447  -31.8435 H   0  0  0  0  0  0  0  0  0  0  0  0
   -9.7575   21.6867  -30.3776 H   0  0  0  0  0  0  0  0  0  0  0  0
   -9.3363   22.5557  -31.8923 H   0  0  0  0  0  0  0  0  0  0  0  0
  -10.6589   21.3402  -31.8923 H   0  0  0  0  0  0  0  0  0  0  0  0
   -7.0054   21.8860  -31.9127 H   0  0  0  0  0  0  0  0  0  0  0  0
   -4.4373   19.4204  -30.6818 H   0  0  0  0  0  0  0  0  0  0  0  0
   -3.6524   18.6681  -32.1218 H   0  0  0  0  0  0  0  0  0  0  0  0
   -2.2566   20.3121  -30.6070 H   0  0  0  0  0  0  0  0  0  0  0  0
   -2.1606   20.4485  -32.4115 H   0  0  0  0  0  0  0  0  0  0  0  0
   -4.6725   21.4003  -30.0099 H   0  0  0  0  0  0  0  0  0  0  0  0
   -3.3037   22.3908  -29.3841 H   0  0  0  0  0  0  0  0  0  0  0  0
   -6.8549   22.8271  -29.7592 H   0  0  0  0  0  0  0  0  0  0  0  0
   -7.4864   25.3892  -30.3466 H   0  0  0  0  0  0  0  0  0  0  0  0
   -5.2233   26.5634  -31.1575 H   0  0  0  0  0  0  0  0  0  0  0  0
   -4.7326   23.1420  -32.3847 H   0  0  0  0  0  0  0  0  0  0  0  0
   -3.2025   22.8588  -33.3495 H   0  0  0  0  0  0  0  0  0  0  0  0
   -5.5272   21.6609  -33.9706 H   0  0  0  0  0  0  0  0  0  0  0  0
   -3.9208   20.8746  -34.1971 H   0  0  0  0  0  0  0  0  0  0  0  0
  1  2  1  0
  2  3  1  0
  3  4  2  0
  4  5  1  0
  5  6  2  0
  6  7  1  0
  6  8  1  0
  8  9  2  0
  9 10  1  0
 10 11  1  0
 11 12  1  0
 12 13  1  0
 13 14  1  0
 14 15  1  0
 15 16  2  0
 16 17  1  0
 17 18  2  0
 18 19  1  0
 13 20  1  0
 20 21  1  0
  9  3  1  0
 21 10  1  0
 19 15  1  0
  1 22  1  0
  1 23  1  0
  1 24  1  0
  4 25  1  0
  5 26  1  0
  7 27  1  0
  7 28  1  0
  7 29  1  0
  8 30  1  0
 11 31  1  0
 11 32  1  0
 12 33  1  0
 12 34  1  0
 14 35  1  0
 14 36  1  0
 16 37  1  0
 17 38  1  0
 18 39  1  0
 20 40  1  0
 20 41  1  0
 21 42  1  0
 21 43  1  0
M  END
>  <UniqueID>  (16) 
14

>  <SMILES>  (16) 
COc1ccc(C)cc1N1CCN(Cc2ccco2)CC1

>  <Energy>  (16) 
80.18508193374346

>  <Genealogy>  (16) 
COc1ccc(C)cc1N1CCN(Cc2ccco2)CC1 (3D coordinates assigned)
COc1ccc(C)cc1N1CCN(Cc2ccco2)CC1 (nonaromatic ring conformer: 80.18508193374346 kcal/mol)

>  <smiles>  (16) 
COc1ccc(C)cc1N1CCN(Cc2ccco2)CC1

>  <score_type>  (16) 
oracle

>  <origin>  (16) 
adg

>  <m_score__min__energy>  (16) 
-7.2999999999999998

>  <m_primary>  (16) 
energy

$$$$
16:0
     RDKit          3D

 30 31  0  0  0  0  0  0  0  0999 V2000
   -5.7330   18.1020  -34.6760 C   0  0  0  0  0  0  0  0  0  0  0  0
   -5.9740   18.2850  -33.2830 O   0  0  0  0  0  0  0  0  0  0  0  0
   -6.9040   19.1910  -32.7520 C   0  0  0  0  0  0  0  0  0  0  0  0
   -8.2530   18.8220  -32.7400 C   0  0  0  0  0  0  0  0  0  0  0  0
   -9.2180   19.6810  -32.2120 C   0  0  0  0  0  0  0  0  0  0  0  0
   -8.8430   20.9230  -31.6970 C   0  0  0  0  0  0  0  0  0  0  0  0
   -7.4960   21.3240  -31.7100 C   0  0  0  0  0  0  0  0  0  0  0  0
   -7.1130   22.6470  -31.1570 C   0  0  0  0  0  0  0  0  0  0  0  0
   -7.5570   22.9940  -30.0270 O   0  0  0  0  0  0  0  0  0  0  0  0
   -6.2650   23.5440  -31.8930 N   0  0  0  0  0  0  0  0  0  0  0  0
   -5.7930   24.8050  -31.3300 C   0  0  0  0  0  0  0  0  0  0  0  0
   -4.7380   24.5500  -30.3010 C   0  0  0  0  0  0  0  0  0  0  0  0
   -4.9160   23.8630  -29.1180 C   0  0  0  0  0  0  0  0  0  0  0  0
   -3.6810   23.8560  -28.5060 C   0  0  0  0  0  0  0  0  0  0  0  0
   -2.8280   24.5360  -29.3530 C   0  0  0  0  0  0  0  0  0  0  0  0
   -3.4870   24.9350  -30.4160 O   0  0  0  0  0  0  0  0  0  0  0  0
   -6.5280   20.4450  -32.2310 C   0  0  0  0  0  0  0  0  0  0  0  0
   -4.8639   17.4420  -34.8141 H   0  0  0  0  0  0  0  0  0  0  0  0
   -6.6177   17.6461  -35.1444 H   0  0  0  0  0  0  0  0  0  0  0  0
   -5.5314   19.0767  -35.1444 H   0  0  0  0  0  0  0  0  0  0  0  0
   -8.5558   17.8472  -33.1499 H   0  0  0  0  0  0  0  0  0  0  0  0
  -10.2756   19.3788  -32.2017 H   0  0  0  0  0  0  0  0  0  0  0  0
   -9.6078   21.5932  -31.2776 H   0  0  0  0  0  0  0  0  0  0  0  0
   -6.0140   23.3310  -32.8840 H   0  0  0  0  0  0  0  0  0  0  0  0
   -5.3731   25.4271  -32.1342 H   0  0  0  0  0  0  0  0  0  0  0  0
   -6.6386   25.3243  -30.8552 H   0  0  0  0  0  0  0  0  0  0  0  0
   -5.8477   23.4150  -28.7421 H   0  0  0  0  0  0  0  0  0  0  0  0
   -3.4261   23.4005  -27.5378 H   0  0  0  0  0  0  0  0  0  0  0  0
   -1.7591   24.7159  -29.1655 H   0  0  0  0  0  0  0  0  0  0  0  0
   -5.4682   20.7397  -32.2314 H   0  0  0  0  0  0  0  0  0  0  0  0
  1  2  1  0
  2  3  1  0
  3  4  2  0
  4  5  1  0
  5  6  2  0
  6  7  1  0
  7  8  1  0
  8  9  2  0
  8 10  1  0
 10 11  1  0
 11 12  1  0
 12 13  2  0
 13 14  1  0
 14 15  2  0
 15 16  1  0
  7 17  2  0
 17  3  1  0
 16 12  1  0
  1 18  1  0
  1 19  1  0
  1 20  1  0
  4 21  1  0
  5 22  1  0
  6 23  1  0
 10 24  1  0
 11 25  1  0
 11 26  1  0
 13 27  1  0
 14 28  1  0
 15 29  1  0
 17 30  1  0
M  END
>  <UniqueID>  (17) 
15

>  <SMILES>  (17) 
COc1cccc(C(=O)NCc2ccco2)c1

>  <Energy>  (17) 
55.026390027323764

>  <Genealogy>  (17) 
COc1cccc(C(=O)NCc2ccco2)c1 (3D coordinates assigned)
COc1cccc(C(=O)NCc2ccco2)c1 (optimized conformer: 55.026390027323764 kcal/mol)

>  <smiles>  (17) 
COc1cccc(C(=O)NCc2ccco2)c1

>  <score_type>  (17) 
oracle

>  <origin>  (17) 
adg

>  <m_score__min__energy>  (17) 
-6.7699999999999996

>  <m_primary>  (17) 
energy

$$$$
17:0
     RDKit          3D

 51 53  0  0  0  0  0  0  0  0999 V2000
   -1.9450   25.4040  -26.8700 C   0  0  0  0  0  0  0  0  0  0  0  0
   -1.2080   24.9960  -28.1410 C   0  0  0  0  0  0  0  0  0  0  0  0
   -1.9920   25.2960  -29.2930 O   0  0  0  0  0  0  0  0  0  0  0  0
   -3.1000   24.5390  -29.6930 C   0  0  0  0  0  0  0  0  0  0  0  0
   -3.8610   24.9600  -30.6070 O   0  0  0  0  0  0  0  0  0  0  0  0
   -3.4290   23.2370  -29.0040 C   0  0  1  0  0  0  0  0  0  0  0  0
   -4.9000   22.8160  -29.1990 C   0  0  0  0  0  0  0  0  0  0  0  0
   -5.1480   22.1370  -30.5600 C   0  0  0  0  0  0  0  0  0  0  0  0
   -4.1720   21.0590  -30.8930 N   0  0  1  0  0  0  0  0  0  0  0  0
   -3.5750   21.2800  -32.2000 C   0  0  0  0  0  0  0  0  0  0  0  0
   -2.4120   21.6520  -32.2900 O   0  0  0  0  0  0  0  0  0  0  0  0
   -4.4060   21.1420  -33.4550 C   0  0  0  0  0  0  0  0  0  0  0  0
   -5.1330   19.8600  -33.4730 N   0  0  0  0  0  0  0  0  0  0  0  0
   -4.4370   18.6540  -33.8470 C   0  0  0  0  0  0  0  0  0  0  0  0
   -3.1860   18.6500  -33.9980 O   0  0  0  0  0  0  0  0  0  0  0  0
   -5.2120   17.3990  -34.1110 C   0  0  0  0  0  0  0  0  0  0  0  0
   -6.3620   17.3260  -33.2740 O   0  0  0  0  0  0  0  0  0  0  0  0
   -7.0720   18.4600  -32.8660 C   0  0  0  0  0  0  0  0  0  0  0  0
   -8.3480   18.3040  -32.3180 C   0  0  0  0  0  0  0  0  0  0  0  0
   -9.0770   19.4190  -31.9010 C   0  0  0  0  0  0  0  0  0  0  0  0
   -8.5360   20.7040  -32.0340 C   0  0  0  0  0  0  0  0  0  0  0  0
   -9.3000   21.9090  -31.5710 C   0  0  0  0  0  0  0  0  0  0  0  0
   -7.2460   20.8610  -32.5670 C   0  0  0  0  0  0  0  0  0  0  0  0
   -6.4960   19.7410  -32.9850 C   0  0  0  0  0  0  0  0  0  0  0  0
   -3.1270   20.8310  -29.8670 C   0  0  0  0  0  0  0  0  0  0  0  0
   -2.4330   22.1290  -29.4220 C   0  0  0  0  0  0  0  0  0  0  0  0
   -1.3659   25.0834  -25.9914 H   0  0  0  0  0  0  0  0  0  0  0  0
   -2.0654   26.4972  -26.8508 H   0  0  0  0  0  0  0  0  0  0  0  0
   -2.9354   24.9257  -26.8508 H   0  0  0  0  0  0  0  0  0  0  0  0
   -0.2560   25.5440  -28.1987 H   0  0  0  0  0  0  0  0  0  0  0  0
   -1.0216   23.9123  -28.1109 H   0  0  0  0  0  0  0  0  0  0  0  0
   -3.3122   23.3973  -27.9220 H   0  0  0  0  0  0  0  0  0  0  0  0
   -5.5345   23.7120  -29.1318 H   0  0  0  0  0  0  0  0  0  0  0  0
   -5.1438   22.0855  -28.4135 H   0  0  0  0  0  0  0  0  0  0  0  0
   -5.0930   22.9063  -31.3443 H   0  0  0  0  0  0  0  0  0  0  0  0
   -6.1372   21.6598  -30.4993 H   0  0  0  0  0  0  0  0  0  0  0  0
   -4.7150   20.1630  -30.9450 H   0  0  0  0  0  0  0  0  0  0  0  0
   -5.1321   21.9672  -33.4974 H   0  0  0  0  0  0  0  0  0  0  0  0
   -3.7329   21.1736  -34.3244 H   0  0  0  0  0  0  0  0  0  0  0  0
   -5.5314   17.3877  -35.1635 H   0  0  0  0  0  0  0  0  0  0  0  0
   -4.5657   16.5352  -33.8962 H   0  0  0  0  0  0  0  0  0  0  0  0
   -8.7800   17.2977  -32.2147 H   0  0  0  0  0  0  0  0  0  0  0  0
  -10.0791   19.2880  -31.4667 H   0  0  0  0  0  0  0  0  0  0  0  0
   -9.3153   21.9332  -30.4714 H   0  0  0  0  0  0  0  0  0  0  0  0
   -8.8139   22.8197  -31.9510 H   0  0  0  0  0  0  0  0  0  0  0  0
  -10.3310   21.8578  -31.9510 H   0  0  0  0  0  0  0  0  0  0  0  0
   -6.8152   21.8689  -32.6597 H   0  0  0  0  0  0  0  0  0  0  0  0
   -2.3682   20.1521  -30.2835 H   0  0  0  0  0  0  0  0  0  0  0  0
   -3.6202   20.4003  -28.9831 H   0  0  0  0  0  0  0  0  0  0  0  0
   -1.8226   22.5037  -30.2569 H   0  0  0  0  0  0  0  0  0  0  0  0
   -1.8211   21.8882  -28.5402 H   0  0  0  0  0  0  0  0  0  0  0  0
  1  2  1  0
  2  3  1  0
  3  4  1  0
  4  5  2  0
  4  6  1  0
  6  7  1  0
  7  8  1  0
  8  9  1  0
  9 10  1  0
 10 11  2  0
 10 12  1  0
 12 13  1  0
 13 14  1  0
 14 15  2  0
 14 16  1  0
 16 17  1  0
 17 18  1  0
 18 19  2  0
 19 20  1  0
 20 21  2  0
 21 22  1  0
 21 23  1  0
 23 24  2  0
  9 25  1  0
 25 26  1  0
 26  6  1  0
 24 13  1  0
 24 18  1  0
  1 27  1  0
  1 28  1  0
  1 29  1  0
  2 30  1  0
  2 31  1  0
  6 32  1  1
  7 33  1  0
  7 34  1  0
  8 35  1  0
  8 36  1  0
  9 37  1  6
 12 38  1  0
 12 39  1  0
 16 40  1  0
 16 41  1  0
 19 42  1  0
 20 43  1  0
 22 44  1  0
 22 45  1  0
 22 46  1  0
 23 47  1  0
 25 48  1  0
 25 49  1  0
 26 50  1  0
 26 51  1  0
M  CHG  1   9   1
M  END
>  <UniqueID>  (18) 
16

>  <SMILES>  (18) 
CCOC(=O)C1CC[NH+](C(=O)CN2C(=O)COc3ccc(C)cc32)CC1

>  <Energy>  (18) 
61.48184406548163

>  <Genealogy>  (18) 
CCOC(=O)C1CC[NH+](C(=O)CN2C(=O)COc3ccc(C)cc32)CC1 (protonated)
CCOC(=O)C1CC[NH+](C(=O)CN2C(=O)COc3ccc(C)cc32)CC1 (3D coordinates assigned)
CCOC(=O)C1CC[NH+](C(=O)CN2C(=O)COc3ccc(C)cc32)CC1 (nonaromatic ring conformer: 61.48184406548163 kcal/mol)

>  <smiles>  (18) 
CCOC(=O)C1CCN(C(=O)CN2C(=O)COc3ccc(C)cc32)CC1

>  <score_type>  (18) 
oracle

>  <origin>  (18) 
adg

>  <m_score__min__energy>  (18) 
-8.3100000000000005

>  <m_primary>  (18) 
energy

$$$$
18:0
     RDKit          3D

 37 39  0  0  0  0  0  0  0  0999 V2000
   -6.1110   25.4570  -29.7270 C   0  0  0  0  0  0  0  0  0  0  0  0
   -4.9950   24.7580  -30.4460 C   0  0  0  0  0  0  0  0  0  0  0  0
   -3.8670   25.3200  -30.4910 O   0  0  0  0  0  0  0  0  0  0  0  0
   -5.1870   23.4340  -31.0980 C   0  0  0  0  0  0  0  0  0  0  0  0
   -4.0920   22.6450  -31.4930 C   0  0  0  0  0  0  0  0  0  0  0  0
   -4.2890   21.4040  -32.1060 C   0  0  0  0  0  0  0  0  0  0  0  0
   -5.5880   20.9190  -32.3400 C   0  0  0  0  0  0  0  0  0  0  0  0
   -5.8090   19.6400  -32.9690 N   0  0  0  0  0  0  0  0  0  0  0  0
   -5.4800   18.4150  -32.5030 C   0  0  0  0  0  0  0  0  0  0  0  0
   -5.8820   17.5010  -33.4600 C   0  0  0  0  0  0  0  0  0  0  0  0
   -5.7360   16.0240  -33.4130 C   0  0  0  0  0  0  0  0  0  0  0  0
   -6.5510   15.1990  -34.2090 C   0  0  0  0  0  0  0  0  0  0  0  0
   -6.4170   13.8080  -34.1570 C   0  0  0  0  0  0  0  0  0  0  0  0
   -5.4690   13.2250  -33.3170 C   0  0  0  0  0  0  0  0  0  0  0  0
   -4.6340   14.0290  -32.5300 C   0  0  0  0  0  0  0  0  0  0  0  0
   -3.6430   13.4010  -31.5950 C   0  0  0  0  0  0  0  0  0  0  0  0
   -4.7820   15.4250  -32.5690 C   0  0  0  0  0  0  0  0  0  0  0  0
   -6.4370   18.2020  -34.4690 N   0  0  0  0  0  0  0  0  0  0  0  0
   -6.3830   19.4850  -34.1540 N   0  0  0  0  0  0  0  0  0  0  0  0
   -6.6820   21.7050  -31.9420 C   0  0  0  0  0  0  0  0  0  0  0  0
   -6.4860   22.9450  -31.3310 C   0  0  0  0  0  0  0  0  0  0  0  0
   -5.9625   25.3640  -28.6410 H   0  0  0  0  0  0  0  0  0  0  0  0
   -6.1176   26.5209  -30.0064 H   0  0  0  0  0  0  0  0  0  0  0  0
   -7.0711   24.9986  -30.0064 H   0  0  0  0  0  0  0  0  0  0  0  0
   -3.0687   23.0084  -31.3177 H   0  0  0  0  0  0  0  0  0  0  0  0
   -3.4197   20.8014  -32.4081 H   0  0  0  0  0  0  0  0  0  0  0  0
   -4.9871   18.1883  -31.5461 H   0  0  0  0  0  0  0  0  0  0  0  0
   -7.2989   15.6511  -34.8770 H   0  0  0  0  0  0  0  0  0  0  0  0
   -7.0617   13.1716  -34.7809 H   0  0  0  0  0  0  0  0  0  0  0  0
   -5.3763   12.1298  -33.2720 H   0  0  0  0  0  0  0  0  0  0  0  0
   -3.9468   13.5935  -30.5554 H   0  0  0  0  0  0  0  0  0  0  0  0
   -3.6086   12.3159  -31.7720 H   0  0  0  0  0  0  0  0  0  0  0  0
   -2.6471   13.8332  -31.7720 H   0  0  0  0  0  0  0  0  0  0  0  0
   -4.1453   16.0574  -31.9329 H   0  0  0  0  0  0  0  0  0  0  0  0
   -6.8600   17.8350  -35.3480 H   0  0  0  0  0  0  0  0  0  0  0  0
   -7.7051   21.3393  -32.1137 H   0  0  0  0  0  0  0  0  0  0  0  0
   -7.3561   23.5462  -31.0285 H   0  0  0  0  0  0  0  0  0  0  0  0
  1  2  1  0
  2  3  2  0
  2  4  1  0
  4  5  2  0
  5  6  1  0
  6  7  2  0
  7  8  1  0
  8  9  1  0
  9 10  2  0
 10 11  1  0
 11 12  2  0
 12 13  1  0
 13 14  2  0
 14 15  1  0
 15 16  1  0
 15 17  2  0
 10 18  1  0
 18 19  2  0
  7 20  1  0
 20 21  2  0
 21  4  1  0
 19  8  1  0
 17 11  1  0
  1 22  1  0
  1 23  1  0
  1 24  1  0
  5 25  1  0
  6 26  1  0
  9 27  1  0
 12 28  1  0
 13 29  1  0
 14 30  1  0
 16 31  1  0
 16 32  1  0
 16 33  1  0
 17 34  1  0
 18 35  1  0
 20 36  1  0
 21 37  1  0
M  CHG  1  18   1
M  END
>  <UniqueID>  (19) 
17

>  <SMILES>  (19) 
CC(=O)c1ccc(-n2cc(-c3cccc(C)c3)[nH+]n2)cc1

>  <Energy>  (19) 
79.19968446119734

>  <Genealogy>  (19) 
CC(=O)c1ccc(-n2cc(-c3cccc(C)c3)[nH+]n2)cc1 (protonated)
CC(=O)c1ccc(-n2cc(-c3cccc(C)c3)[nH+]n2)cc1 (3D coordinates assigned)
CC(=O)c1ccc(-n2cc(-c3cccc(C)c3)[nH+]n2)cc1 (optimized conformer: 79.19968446119734 kcal/mol)

>  <smiles>  (19) 
CC(=O)c1ccc(-n2cc(-c3cccc(C)c3)nn2)cc1

>  <score_type>  (19) 
oracle

>  <origin>  (19) 
adg

>  <m_score__min__energy>  (19) 
-8.1600000000000001

>  <m_primary>  (19) 
energy

$$$$
19:0
     RDKit          3D

 51 54  0  0  0  0  0  0  0  0999 V2000
   -6.4810   24.5320  -31.4230 C   0  0  0  0  0  0  0  0  0  0  0  0
   -6.3570   23.5730  -30.3070 N   0  0  0  0  0  0  0  0  0  0  0  0
   -7.2960   22.4440  -30.4630 C   0  0  0  0  0  0  0  0  0  0  0  0
   -6.8310   21.4290  -31.4850 C   0  0  0  0  0  0  0  0  0  0  0  0
   -7.7530   20.5150  -32.0200 C   0  0  0  0  0  0  0  0  0  0  0  0
   -7.3370   19.5390  -32.9290 C   0  0  0  0  0  0  0  0  0  0  0  0
   -5.9970   19.4650  -33.3090 C   0  0  0  0  0  0  0  0  0  0  0  0
   -5.0650   20.3560  -32.7710 C   0  0  0  0  0  0  0  0  0  0  0  0
   -5.4660   21.3300  -31.8430 C   0  0  0  0  0  0  0  0  0  0  0  0
   -4.4480   22.3100  -31.3160 C   0  0  0  0  0  0  0  0  0  0  0  0
   -4.9770   23.0800  -30.0860 C   0  0  1  0  0  0  0  0  0  0  0  0
   -4.0500   24.2010  -29.6370 C   0  0  0  0  0  0  0  0  0  0  0  0
   -3.5100   24.9060  -30.4820 O   0  0  0  0  0  0  0  0  0  0  0  0
   -3.7280   24.3650  -28.2250 N   0  0  0  0  0  0  0  0  0  0  0  0
   -4.2160   23.2480  -27.4070 C   0  0  0  0  0  0  0  0  0  0  0  0
   -3.5600   21.9250  -27.7920 C   0  0  0  0  0  0  0  0  0  0  0  0
   -2.1030   22.0240  -28.0050 N   0  0  0  0  0  0  0  0  0  0  0  0
   -1.3410   20.7960  -28.2180 C   0  0  0  0  0  0  0  0  0  0  0  0
   -0.6050   20.5880  -29.4090 C   0  0  0  0  0  0  0  0  0  0  0  0
    0.1240   19.4150  -29.6110 C   0  0  0  0  0  0  0  0  0  0  0  0
    0.1390   18.4220  -28.6350 C   0  0  0  0  0  0  0  0  0  0  0  0
    0.8470   17.2840  -28.8360 F   0  0  0  0  0  0  0  0  0  0  0  0
   -0.5770   18.5990  -27.4530 C   0  0  0  0  0  0  0  0  0  0  0  0
   -1.3100   19.7700  -27.2420 C   0  0  0  0  0  0  0  0  0  0  0  0
   -1.4110   23.3280  -28.1390 C   0  0  0  0  0  0  0  0  0  0  0  0
   -2.2950   24.5860  -27.9670 C   0  0  0  0  0  0  0  0  0  0  0  0
   -6.6123   25.5474  -31.0210 H   0  0  0  0  0  0  0  0  0  0  0  0
   -5.5708   24.4966  -32.0397 H   0  0  0  0  0  0  0  0  0  0  0  0
   -7.3523   24.2663  -32.0397 H   0  0  0  0  0  0  0  0  0  0  0  0
   -7.4035   21.9399  -29.4912 H   0  0  0  0  0  0  0  0  0  0  0  0
   -8.2521   22.8561  -30.8180 H   0  0  0  0  0  0  0  0  0  0  0  0
   -8.8103   20.5678  -31.7213 H   0  0  0  0  0  0  0  0  0  0  0  0
   -8.0665   18.8286  -33.3452 H   0  0  0  0  0  0  0  0  0  0  0  0
   -5.6733   18.7035  -34.0338 H   0  0  0  0  0  0  0  0  0  0  0  0
   -4.0101   20.2939  -33.0766 H   0  0  0  0  0  0  0  0  0  0  0  0
   -3.5398   21.7600  -31.0283 H   0  0  0  0  0  0  0  0  0  0  0  0
   -4.2329   23.0401  -32.1102 H   0  0  0  0  0  0  0  0  0  0  0  0
   -5.0027   22.3549  -29.2592 H   0  0  0  0  0  0  0  0  0  0  0  0
   -4.2200   25.2230  -27.8830 H   0  0  0  0  0  0  0  0  0  0  0  0
   -3.9951   23.4592  -26.3503 H   0  0  0  0  0  0  0  0  0  0  0  0
   -5.2985   23.1514  -27.5768 H   0  0  0  0  0  0  0  0  0  0  0  0
   -3.7445   21.1988  -26.9866 H   0  0  0  0  0  0  0  0  0  0  0  0
   -4.0039   21.6131  -28.7489 H   0  0  0  0  0  0  0  0  0  0  0  0
   -0.6076   21.3640  -30.1886 H   0  0  0  0  0  0  0  0  0  0  0  0
    0.6887   19.2745  -30.5445 H   0  0  0  0  0  0  0  0  0  0  0  0
   -0.5653   17.8138  -26.6827 H   0  0  0  0  0  0  0  0  0  0  0  0
   -1.8710   19.8967  -26.3043 H   0  0  0  0  0  0  0  0  0  0  0  0
   -0.6176   23.3677  -27.3781 H   0  0  0  0  0  0  0  0  0  0  0  0
   -1.0434   23.3634  -29.1751 H   0  0  0  0  0  0  0  0  0  0  0  0
   -2.1834   24.9457  -26.9335 H   0  0  0  0  0  0  0  0  0  0  0  0
   -1.9510   25.3150  -28.7155 H   0  0  0  0  0  0  0  0  0  0  0  0
  1  2  1  0
  2  3  1  0
  3  4  1  0
  4  5  2  0
  5  6  1  0
  6  7  2  0
  7  8  1  0
  8  9  2  0
  9 10  1  0
 10 11  1  0
 11 12  1  0
 12 13  2  0
 12 14  1  0
 14 15  1  0
 15 16  1  0
 16 17  1  0
 17 18  1  0
 18 19  2  0
 19 20  1  0
 20 21  2  0
 21 22  1  0
 21 23  1  0
 23 24  2  0
 17 25  1  0
 25 26  1  0
 11  2  1  0
 26 14  1  0
  9  4  1  0
 24 18  1  0
  1 27  1  0
  1 28  1  0
  1 29  1  0
  3 30  1  0
  3 31  1  0
  5 32  1  0
  6 33  1  0
  7 34  1  0
  8 35  1  0
 10 36  1  0
 10 37  1  0
 11 38  1  1
 14 39  1  0
 15 40  1  0
 15 41  1  0
 16 42  1  0
 16 43  1  0
 19 44  1  0
 20 45  1  0
 23 46  1  0
 24 47  1  0
 25 48  1  0
 25 49  1  0
 26 50  1  0
 26 51  1  0
M  CHG  1  14   1
M  END
>  <UniqueID>  (20) 
18

>  <SMILES>  (20) 
CN1Cc2ccccc2C[C@H]1C(=O)[NH+]1CCN(c2ccc(F)cc2)CC1

>  <Energy>  (20) 
75.74348952022113

>  <Genealogy>  (20) 
CN1Cc2ccccc2CC1C(=O)[NH+]1CCN(c2ccc(F)cc2)CC1 (protonated)
CN1Cc2ccccc2C[C@H]1C(=O)[NH+]1CCN(c2ccc(F)cc2)CC1 (chirality)
CN1Cc2ccccc2C[C@H]1C(=O)[NH+]1CCN(c2ccc(F)cc2)CC1 (3D coordinates assigned)
CN1Cc2ccccc2C[C@H]1C(=O)[NH+]1CCN(c2ccc(F)cc2)CC1 (nonaromatic ring conformer: 75.74348952022113 kcal/mol)

>  <smiles>  (20) 
CN1Cc2ccccc2CC1C(=O)N1CCN(c2ccc(F)cc2)CC1

>  <score_type>  (20) 
oracle

>  <origin>  (20) 
adg

>  <m_score__min__energy>  (20) 
-8.1199999999999992

>  <m_primary>  (20) 
energy

$$$$
20:0
     RDKit          3D

 39 41  0  0  0  0  0  0  0  0999 V2000
   -4.7100   15.3690  -34.5550 C   0  0  0  0  0  0  0  0  0  0  0  0
   -5.9610   16.0100  -34.1420 N   0  0  0  0  0  0  0  0  0  0  0  0
   -7.2330   15.2860  -34.2310 C   0  0  0  0  0  0  0  0  0  0  0  0
   -5.9420   17.3630  -33.6450 C   0  0  0  0  0  0  0  0  0  0  0  0
   -5.1980   18.3140  -34.2720 N   0  0  0  0  0  0  0  0  0  0  0  0
   -5.1620   19.5950  -33.8230 C   0  0  0  0  0  0  0  0  0  0  0  0
   -5.9040   19.9670  -32.6920 C   0  0  0  0  0  0  0  0  0  0  0  0
   -5.8840   21.3610  -32.1800 C   0  0  0  0  0  0  0  0  0  0  0  0
   -6.9540   22.2470  -32.3190 C   0  0  0  0  0  0  0  0  0  0  0  0
   -6.5320   23.7080  -31.6060 S   0  0  0  0  0  0  0  0  0  0  0  0
   -4.9930   23.2470  -31.1140 C   0  0  0  0  0  0  0  0  0  0  0  0
   -4.0530   24.1050  -30.3730 C   0  0  0  0  0  0  0  0  0  0  0  0
   -3.8670   25.2890  -30.7630 O   0  0  0  0  0  0  0  0  0  0  0  0
   -3.3220   23.5950  -29.2450 N   0  0  0  0  0  0  0  0  0  0  0  0
   -2.6720   24.4300  -28.2700 C   0  0  0  0  0  0  0  0  0  0  0  0
   -1.5230   25.1760  -28.5900 C   0  0  0  0  0  0  0  0  0  0  0  0
   -0.9250   25.9980  -27.6310 C   0  0  0  0  0  0  0  0  0  0  0  0
   -1.4730   26.0920  -26.3480 C   0  0  0  0  0  0  0  0  0  0  0  0
   -2.6250   25.3710  -26.0270 C   0  0  0  0  0  0  0  0  0  0  0  0
   -3.2270   24.5480  -26.9860 C   0  0  0  0  0  0  0  0  0  0  0  0
   -4.7870   21.9260  -31.5010 C   0  0  0  0  0  0  0  0  0  0  0  0
   -6.6660   18.9710  -32.0620 C   0  0  0  0  0  0  0  0  0  0  0  0
   -6.6680   17.7020  -32.5470 N   0  0  0  0  0  0  0  0  0  0  0  0
   -4.1367   15.0753  -33.6633 H   0  0  0  0  0  0  0  0  0  0  0  0
   -4.9366   14.4759  -35.1559 H   0  0  0  0  0  0  0  0  0  0  0  0
   -4.1174   16.0746  -35.1559 H   0  0  0  0  0  0  0  0  0  0  0  0
   -7.6058   15.0738  -33.2181 H   0  0  0  0  0  0  0  0  0  0  0  0
   -7.9680   15.9011  -34.7708 H   0  0  0  0  0  0  0  0  0  0  0  0
   -7.0794   14.3400  -34.7708 H   0  0  0  0  0  0  0  0  0  0  0  0
   -4.5494   20.3431  -34.3475 H   0  0  0  0  0  0  0  0  0  0  0  0
   -7.9119   22.0256  -32.8123 H   0  0  0  0  0  0  0  0  0  0  0  0
   -3.1640   22.5650  -29.1850 H   0  0  0  0  0  0  0  0  0  0  0  0
   -1.0930   25.1119  -29.6004 H   0  0  0  0  0  0  0  0  0  0  0  0
   -0.0219   26.5719  -27.8858 H   0  0  0  0  0  0  0  0  0  0  0  0
   -0.9969   26.7336  -25.5919 H   0  0  0  0  0  0  0  0  0  0  0  0
   -3.0598   25.4499  -25.0197 H   0  0  0  0  0  0  0  0  0  0  0  0
   -4.1405   23.9903  -26.7319 H   0  0  0  0  0  0  0  0  0  0  0  0
   -3.8566   21.3760  -31.2962 H   0  0  0  0  0  0  0  0  0  0  0  0
   -7.2637   19.2187  -31.1724 H   0  0  0  0  0  0  0  0  0  0  0  0
  1  2  1  0
  2  3  1  0
  2  4  1  0
  4  5  2  0
  5  6  1  0
  6  7  2  0
  7  8  1  0
  8  9  2  0
  9 10  1  0
 10 11  1  0
 11 12  1  0
 12 13  2  0
 12 14  1  0
 14 15  1  0
 15 16  2  0
 16 17  1  0
 17 18  2  0
 18 19  1  0
 19 20  2  0
 11 21  2  0
  7 22  1  0
 22 23  2  0
 23  4  1  0
 21  8  1  0
 20 15  1  0
  1 24  1  0
  1 25  1  0
  1 26  1  0
  3 27  1  0
  3 28  1  0
  3 29  1  0
  6 30  1  0
  9 31  1  0
 14 32  1  0
 16 33  1  0
 17 34  1  0
 18 35  1  0
 19 36  1  0
 20 37  1  0
 21 38  1  0
 22 39  1  0
M  END
>  <UniqueID>  (21) 
19

>  <SMILES>  (21) 
CN(C)c1ncc(-c2csc(C(=O)Nc3ccccc3)c2)cn1

>  <Energy>  (21) 
72.3110799564199

>  <Genealogy>  (21) 
CN(C)c1ncc(-c2csc(C(=O)Nc3ccccc3)c2)cn1 (3D coordinates assigned)
CN(C)c1ncc(-c2csc(C(=O)Nc3ccccc3)c2)cn1 (optimized conformer: 72.3110799564199 kcal/mol)

>  <smiles>  (21) 
CN(C)c1ncc(-c2csc(C(=O)Nc3ccccc3)c2)cn1

>  <score_type>  (21) 
oracle

>  <origin>  (21) 
adg

>  <m_score__min__energy>  (21) 
-7.8499999999999996

>  <m_primary>  (21) 
energy

$$$$
21:0
     RDKit          3D

 39 41  0  0  1  0  0  0  0  0999 V2000
   -8.9670   18.5530  -31.5700 C   0  0  0  0  0  0  0  0  0  0  0  0
   -9.0150   19.5570  -32.6920 C   0  0  0  0  0  0  0  0  0  0  0  0
   -9.8200   20.7760  -32.3200 C   0  0  0  0  0  0  0  0  0  0  0  0
   -9.1660   21.5530  -31.1700 C   0  0  0  0  0  0  0  0  0  0  0  0
   -8.4340   22.6240  -31.8180 N   0  0  0  0  0  0  0  0  0  0  0  0
   -7.1550   22.5200  -31.9590 C   0  0  0  0  0  0  0  0  0  0  0  0
   -6.5590   21.5140  -32.6230 N   0  0  0  0  0  0  0  0  0  0  0  0
   -5.2160   21.4870  -32.7190 C   0  0  0  0  0  0  0  0  0  0  0  0
   -4.5970   20.5450  -33.3450 N   0  0  0  0  0  0  0  0  0  0  0  0
   -5.1890   19.2510  -33.3740 C   0  0  0  0  0  0  0  0  0  0  0  0
   -5.5350   18.6390  -34.5800 C   0  0  0  0  0  0  0  0  0  0  0  0
   -6.1080   17.3820  -34.5950 C   0  0  0  0  0  0  0  0  0  0  0  0
   -6.3610   16.6810  -33.4150 C   0  0  0  0  0  0  0  0  0  0  0  0
   -6.0080   17.3140  -32.2460 C   0  0  0  0  0  0  0  0  0  0  0  0
   -5.4400   18.5570  -32.2080 C   0  0  0  0  0  0  0  0  0  0  0  0
   -4.4480   22.4450  -32.1630 N   0  0  0  0  0  0  0  0  0  0  0  0
   -4.9980   23.4690  -31.4890 C   0  0  0  0  0  0  0  0  0  0  0  0
   -4.5220   24.5590  -30.8340 N   0  0  0  0  0  0  0  0  0  0  0  0
   -5.5700   25.2360  -30.3480 C   0  0  0  0  0  0  0  0  0  0  0  0
   -6.7210   24.6170  -30.6700 N   0  0  0  0  0  0  0  0  0  0  0  0
   -6.3670   23.5150  -31.3810 C   0  0  0  0  0  0  0  0  0  0  0  0
   -8.9922   19.0802  -30.6049 H   0  0  0  0  0  0  0  0  0  0  0  0
   -9.8340   17.8799  -31.6429 H   0  0  0  0  0  0  0  0  0  0  0  0
   -8.0398   17.9657  -31.6429 H   0  0  0  0  0  0  0  0  0  0  0  0
   -7.9884   19.8689  -32.9345 H   0  0  0  0  0  0  0  0  0  0  0  0
   -9.4986   19.0795  -33.5569 H   0  0  0  0  0  0  0  0  0  0  0  0
   -9.8974   21.4346  -33.1977 H   0  0  0  0  0  0  0  0  0  0  0  0
  -10.8155   20.4443  -31.9899 H   0  0  0  0  0  0  0  0  0  0  0  0
   -9.9311   21.9606  -30.4929 H   0  0  0  0  0  0  0  0  0  0  0  0
   -8.5133   20.9155  -30.5556 H   0  0  0  0  0  0  0  0  0  0  0  0
   -7.1510   20.7760  -33.0510 H   0  0  0  0  0  0  0  0  0  0  0  0
   -5.3493   19.1634  -35.5289 H   0  0  0  0  0  0  0  0  0  0  0  0
   -6.3710   16.9230  -35.5594 H   0  0  0  0  0  0  0  0  0  0  0  0
   -6.8165   15.6798  -33.4196 H   0  0  0  0  0  0  0  0  0  0  0  0
   -6.1919   16.7942  -31.2942 H   0  0  0  0  0  0  0  0  0  0  0  0
   -5.1806   19.0081  -31.2389 H   0  0  0  0  0  0  0  0  0  0  0  0
   -3.4250   22.4190  -32.2390 H   0  0  0  0  0  0  0  0  0  0  0  0
   -5.5001   26.1675  -29.7670 H   0  0  0  0  0  0  0  0  0  0  0  0
   -7.6920   24.9100  -30.4290 H   0  0  0  0  0  0  0  0  0  0  0  0
  1  2  1  0
  2  3  1  0
  3  4  1  0
  4  5  1  0
  5  6  2  0
  6  7  1  0
  7  8  1  0
  8  9  2  0
  9 10  1  0
 10 11  2  0
 11 12  1  0
 12 13  2  0
 13 14  1  0
 14 15  2  0
  8 16  1  0
 16 17  1  0
 17 18  1  0
 18 19  2  0
 19 20  1  0
 20 21  1  0
 21  6  1  0
 15 10  1  0
 21 17  2  0
  1 22  1  0
  1 23  1  0
  1 24  1  0
  2 25  1  0
  2 26  1  0
  3 27  1  0
  3 28  1  0
  4 29  1  0
  4 30  1  0
  7 31  1  0
 11 32  1  0
 12 33  1  0
 13 34  1  0
 14 35  1  0
 15 36  1  0
 16 37  1  0
 19 38  1  0
 20 39  1  0
M  END
>  <smiles>  (22) 
CCCCN=c1[nH]c(=Nc2ccccc2)[nH]c2nc[nH]c12

>  <score_type>  (22) 
oracle

>  <origin>  (22) 
adg

>  <m_score__min__energy>  (22) 
-7.1799999999999997

>  <m_primary>  (22) 
energy

$$$$
22:0
     RDKit          3D

 46 48  0  0  0  0  0  0  0  0999 V2000
   -1.5260   19.8300  -26.7370 C   0  0  0  0  0  0  0  0  0  0  0  0
   -1.4970   21.2110  -27.3850 C   0  0  0  0  0  0  0  0  0  0  0  0
   -2.8760   21.6810  -27.6480 N   0  0  0  0  0  0  0  0  0  0  0  0
   -2.8970   23.1460  -27.8800 C   0  0  0  0  0  0  0  0  0  0  0  0
   -2.0250   23.5820  -29.0830 C   0  0  0  0  0  0  0  0  0  0  0  0
   -2.7120   23.4330  -30.4530 C   0  0  0  0  0  0  0  0  0  0  0  0
   -2.8370   22.0330  -30.9110 N   0  0  0  0  0  0  0  0  0  0  0  0
   -3.4560   21.7710  -32.1870 C   0  0  0  0  0  0  0  0  0  0  0  0
   -2.7780   21.8670  -33.2470 O   0  0  0  0  0  0  0  0  0  0  0  0
   -4.8670   21.3410  -32.2870 C   0  0  0  0  0  0  0  0  0  0  0  0
   -5.1560   20.2090  -32.9930 N   0  0  0  0  0  0  0  0  0  0  0  0
   -6.4160   19.7040  -33.0630 C   0  0  0  0  0  0  0  0  0  0  0  0
   -7.4690   20.3360  -32.3950 C   0  0  0  0  0  0  0  0  0  0  0  0
   -8.8650   19.7970  -32.4940 C   0  0  0  0  0  0  0  0  0  0  0  0
   -7.2110   21.5230  -31.7010 C   0  0  0  0  0  0  0  0  0  0  0  0
   -5.9130   22.0510  -31.6460 C   0  0  0  0  0  0  0  0  0  0  0  0
   -5.6910   23.3060  -30.9780 N   0  0  0  0  0  0  0  0  0  0  0  0
   -5.8010   23.4690  -29.6670 N   0  0  0  0  0  0  0  0  0  0  0  0
   -5.5510   24.7680  -29.4280 C   0  0  0  0  0  0  0  0  0  0  0  0
   -5.3000   25.3770  -30.6370 C   0  0  0  0  0  0  0  0  0  0  0  0
   -5.4000   24.4410  -31.5970 N   0  0  0  0  0  0  0  0  0  0  0  0
   -2.5560   20.9030  -30.0090 C   0  0  0  0  0  0  0  0  0  0  0  0
   -3.4750   20.9350  -28.7770 C   0  0  0  0  0  0  0  0  0  0  0  0
   -1.5237   19.9385  -25.6424 H   0  0  0  0  0  0  0  0  0  0  0  0
   -2.4355   19.2968  -27.0507 H   0  0  0  0  0  0  0  0  0  0  0  0
   -0.6396   19.2591  -27.0507 H   0  0  0  0  0  0  0  0  0  0  0  0
   -0.9944   21.9189  -26.7095 H   0  0  0  0  0  0  0  0  0  0  0  0
   -0.9509   21.1492  -28.3378 H   0  0  0  0  0  0  0  0  0  0  0  0
   -3.9353   23.4558  -28.0695 H   0  0  0  0  0  0  0  0  0  0  0  0
   -2.4817   23.6267  -26.9820 H   0  0  0  0  0  0  0  0  0  0  0  0
   -1.7547   24.6395  -28.9468 H   0  0  0  0  0  0  0  0  0  0  0  0
   -1.1508   22.9145  -29.0957 H   0  0  0  0  0  0  0  0  0  0  0  0
   -3.7208   23.8661  -30.3836 H   0  0  0  0  0  0  0  0  0  0  0  0
   -2.0786   23.9536  -31.1863 H   0  0  0  0  0  0  0  0  0  0  0  0
   -4.3890   19.6910  -33.4790 H   0  0  0  0  0  0  0  0  0  0  0  0
   -6.6082   18.7929  -33.6486 H   0  0  0  0  0  0  0  0  0  0  0  0
   -9.2702   19.6406  -31.4834 H   0  0  0  0  0  0  0  0  0  0  0  0
   -9.4979   20.5154  -33.0356 H   0  0  0  0  0  0  0  0  0  0  0  0
   -8.8509   18.8397  -33.0356 H   0  0  0  0  0  0  0  0  0  0  0  0
   -8.0342   22.0472  -31.1936 H   0  0  0  0  0  0  0  0  0  0  0  0
   -5.5476   25.2570  -28.4427 H   0  0  0  0  0  0  0  0  0  0  0  0
   -5.0604   26.4396  -30.7902 H   0  0  0  0  0  0  0  0  0  0  0  0
   -2.7174   19.9606  -30.5530 H   0  0  0  0  0  0  0  0  0  0  0  0
   -1.5129   20.9796  -29.6683 H   0  0  0  0  0  0  0  0  0  0  0  0
   -4.4236   21.4171  -29.0558 H   0  0  0  0  0  0  0  0  0  0  0  0
   -3.6329   19.8972  -28.4482 H   0  0  0  0  0  0  0  0  0  0  0  0
  1  2  1  0
  2  3  1  0
  3  4  1  0
  4  5  1  0
  5  6  1  0
  6  7  1  0
  7  8  1  0
  8  9  2  0
  8 10  1  0
 10 11  2  0
 11 12  1  0
 12 13  2  0
 13 14  1  0
 13 15  1  0
 15 16  2  0
 16 17  1  0
 17 18  1  0
 18 19  2  0
 19 20  1  0
 20 21  2  0
  7 22  1  0
 22 23  1  0
 23  3  1  0
 16 10  1  0
 21 17  1  0
  1 24  1  0
  1 25  1  0
  1 26  1  0
  2 27  1  0
  2 28  1  0
  4 29  1  0
  4 30  1  0
  5 31  1  0
  5 32  1  0
  6 33  1  0
  6 34  1  0
 11 35  1  0
 12 36  1  0
 14 37  1  0
 14 38  1  0
 14 39  1  0
 15 40  1  0
 19 41  1  0
 20 42  1  0
 22 43  1  0
 22 44  1  0
 23 45  1  0
 23 46  1  0
M  CHG  1  11   1
M  END
>  <UniqueID>  (23) 
20

>  <SMILES>  (23) 
CCN1CCCN(C(=O)c2[nH+]cc(C)cc2-n2nccn2)CC1

>  <Energy>  (23) 
96.027765913082

>  <Genealogy>  (23) 
CCN1CCCN(C(=O)c2[nH+]cc(C)cc2-n2nccn2)CC1 (protonated)
CCN1CCCN(C(=O)c2[nH+]cc(C)cc2-n2nccn2)CC1 (3D coordinates assigned)
CCN1CCCN(C(=O)c2[nH+]cc(C)cc2-n2nccn2)CC1 (nonaromatic ring conformer: 96.027765913082 kcal/mol)

>  <smiles>  (23) 
CCN1CCCN(C(=O)c2ncc(C)cc2-n2nccn2)CC1

>  <score_type>  (23) 
oracle

>  <origin>  (23) 
adg

>  <m_score__min__energy>  (23) 
-5.0899999999999999

>  <m_primary>  (23) 
energy

$$$$
23:0
     RDKit          3D

 37 39  0  0  0  0  0  0  0  0999 V2000
   -8.7010   18.5470  -32.3040 C   0  0  0  0  0  0  0  0  0  0  0  0
   -7.6610   19.6310  -32.2840 C   0  0  0  0  0  0  0  0  0  0  0  0
   -6.5360   19.4530  -33.0350 N   0  0  0  0  0  0  0  0  0  0  0  0
   -5.5610   20.3610  -33.0830 N   0  0  0  0  0  0  0  0  0  0  0  0
   -5.6640   21.4930  -32.3560 C   0  0  0  0  0  0  0  0  0  0  0  0
   -4.5200   22.7120  -32.2740 S   0  0  0  0  0  0  0  0  0  0  0  0
   -5.3980   23.6300  -31.1630 C   0  0  0  0  0  0  0  0  0  0  0  0
   -4.8890   24.8480  -30.5200 C   0  0  0  0  0  0  0  0  0  0  0  0
   -5.7030   25.6380  -29.9750 O   0  0  0  0  0  0  0  0  0  0  0  0
   -3.4870   25.1390  -30.4640 N   0  0  0  0  0  0  0  0  0  0  0  0
   -2.6020   24.8100  -29.3490 C   0  0  0  0  0  0  0  0  0  0  0  0
   -2.5700   23.3200  -29.1050 C   0  0  0  0  0  0  0  0  0  0  0  0
   -1.8590   22.4770  -29.9780 C   0  0  0  0  0  0  0  0  0  0  0  0
   -1.8740   21.0920  -29.7890 C   0  0  0  0  0  0  0  0  0  0  0  0
   -2.5800   20.5390  -28.7190 C   0  0  0  0  0  0  0  0  0  0  0  0
   -3.2690   21.3700  -27.8320 C   0  0  0  0  0  0  0  0  0  0  0  0
   -3.2640   22.7560  -28.0190 C   0  0  0  0  0  0  0  0  0  0  0  0
   -3.9460   23.5460  -27.1510 F   0  0  0  0  0  0  0  0  0  0  0  0
   -6.5900   22.9720  -30.8350 C   0  0  0  0  0  0  0  0  0  0  0  0
   -7.4260   23.4230  -29.7640 N   0  0  0  0  0  0  0  0  0  0  0  0
   -6.7550   21.7530  -31.5440 C   0  0  0  0  0  0  0  0  0  0  0  0
   -7.8320   20.8340  -31.5410 C   0  0  0  0  0  0  0  0  0  0  0  0
   -9.1230   21.1120  -30.8100 C   0  0  0  0  0  0  0  0  0  0  0  0
   -8.9644   18.2725  -31.2719 H   0  0  0  0  0  0  0  0  0  0  0  0
   -9.5981   18.9092  -32.8274 H   0  0  0  0  0  0  0  0  0  0  0  0
   -8.3019   17.6656  -32.8274 H   0  0  0  0  0  0  0  0  0  0  0  0
   -1.5850   25.1583  -29.5821 H   0  0  0  0  0  0  0  0  0  0  0  0
   -2.9808   25.3055  -28.4429 H   0  0  0  0  0  0  0  0  0  0  0  0
   -1.2886   22.9095  -30.8132 H   0  0  0  0  0  0  0  0  0  0  0  0
   -1.3287   20.4369  -30.4844 H   0  0  0  0  0  0  0  0  0  0  0  0
   -2.5938   19.4487  -28.5742 H   0  0  0  0  0  0  0  0  0  0  0  0
   -3.8169   20.9329  -26.9842 H   0  0  0  0  0  0  0  0  0  0  0  0
   -8.2410   22.8610  -29.4410 H   0  0  0  0  0  0  0  0  0  0  0  0
   -7.1080   24.1910  -29.1330 H   0  0  0  0  0  0  0  0  0  0  0  0
   -8.9456   21.0738  -29.7251 H   0  0  0  0  0  0  0  0  0  0  0  0
   -9.4930   22.1104  -31.0861 H   0  0  0  0  0  0  0  0  0  0  0  0
   -9.8712   20.3544  -31.0861 H   0  0  0  0  0  0  0  0  0  0  0  0
  1  2  1  0
  2  3  2  0
  3  4  1  0
  4  5  2  0
  5  6  1  0
  6  7  1  0
  7  8  1  0
  8  9  2  0
  8 10  1  0
 10 11  1  0
 11 12  1  0
 12 13  2  0
 13 14  1  0
 14 15  2  0
 15 16  1  0
 16 17  2  0
 17 18  1  0
  7 19  2  0
 19 20  1  0
 19 21  1  0
 21 22  2  0
 22 23  1  0
 22  2  1  0
 21  5  1  0
 17 12  1  0
  1 24  1  0
  1 25  1  0
  1 26  1  0
 11 27  1  0
 11 28  1  0
 13 29  1  0
 14 30  1  0
 15 31  1  0
 16 32  1  0
 20 33  1  0
 20 34  1  0
 23 35  1  0
 23 36  1  0
 23 37  1  0
M  CHG  1  10  -1
M  END
>  <UniqueID>  (24) 
21

>  <SMILES>  (24) 
Cc1nnc2sc(C(=O)[N-]Cc3ccccc3F)c(N)c2c1C

>  <Energy>  (24) 
81.18191789751624

>  <Genealogy>  (24) 
Cc1nnc2sc(C(=O)[N-]Cc3ccccc3F)c(N)c2c1C (protonated)
Cc1nnc2sc(C(=O)[N-]Cc3ccccc3F)c(N)c2c1C (3D coordinates assigned)
Cc1nnc2sc(C(=O)[N-]Cc3ccccc3F)c(N)c2c1C (optimized conformer: 81.18191789751624 kcal/mol)

>  <smiles>  (24) 
Cc1nnc2sc(C(=O)NCc3ccccc3F)c(N)c2c1C

>  <score_type>  (24) 
oracle

>  <origin>  (24) 
adg

>  <m_score__min__energy>  (24) 
-10.210000000000001

>  <m_primary>  (24) 
energy

$$$$
24:0
     RDKit          3D

 41 43  0  0  0  0  0  0  0  0999 V2000
   -1.5980   26.0490  -29.7910 H   0  0  0  0  0  0  0  0  0  0  0  0
   -1.9830   25.2200  -29.2860 N   0  0  0  0  0  0  0  0  0  0  0  0
   -3.0210   24.5840  -29.7220 C   0  0  0  0  0  0  0  0  0  0  0  0
   -3.1490   23.2500  -29.5040 N   0  0  0  0  0  0  0  0  0  0  0  0
   -4.2320   22.5660  -29.9550 C   0  0  0  0  0  0  0  0  0  0  0  0
   -4.3131   21.4844  -29.7720 H   0  0  0  0  0  0  0  0  0  0  0  0
   -5.2480   23.2360  -30.6540 C   0  0  0  0  0  0  0  0  0  0  0  0
   -6.4380   22.5010  -31.1470 C   0  0  0  0  0  0  0  0  0  0  0  0
   -7.6090   23.1920  -31.5380 C   0  0  0  0  0  0  0  0  0  0  0  0
   -7.6374   24.2902  -31.4826 H   0  0  0  0  0  0  0  0  0  0  0  0
   -8.7350   22.4900  -31.9960 C   0  0  0  0  0  0  0  0  0  0  0  0
   -9.8620   23.1470  -32.3680 F   0  0  0  0  0  0  0  0  0  0  0  0
   -8.6590   21.1020  -32.0490 C   0  0  0  0  0  0  0  0  0  0  0  0
   -9.6420   20.2720  -32.4560 N   0  0  0  0  0  0  0  0  0  0  0  0
   -9.0940   19.0410  -32.3230 C   0  0  0  0  0  0  0  0  0  0  0  0
   -9.6016   18.0942  -32.5593 H   0  0  0  0  0  0  0  0  0  0  0  0
   -7.7990   19.1520  -31.8450 C   0  0  0  0  0  0  0  0  0  0  0  0
   -6.8490   18.0250  -31.5580 C   0  0  0  0  0  0  0  0  0  0  0  0
   -6.2413   18.2802  -30.6774 H   0  0  0  0  0  0  0  0  0  0  0  0
   -7.4310   17.1112  -31.3677 H   0  0  0  0  0  0  0  0  0  0  0  0
   -5.9570   17.7890  -32.7110 N   0  0  0  0  0  0  0  0  0  0  0  0
   -5.8510   16.3720  -33.1200 C   0  0  0  0  0  0  0  0  0  0  0  0
   -4.8302   16.1924  -33.4882 H   0  0  0  0  0  0  0  0  0  0  0  0
   -6.0916   15.7636  -32.2357 H   0  0  0  0  0  0  0  0  0  0  0  0
   -6.8380   15.9730  -34.2190 C   0  0  0  0  0  0  0  0  0  0  0  0
   -7.7651   15.5982  -33.7608 H   0  0  0  0  0  0  0  0  0  0  0  0
   -7.0658   16.8497  -34.8432 H   0  0  0  0  0  0  0  0  0  0  0  0
   -6.3926   15.1843  -34.8432 H   0  0  0  0  0  0  0  0  0  0  0  0
   -6.0330   18.7640  -33.8280 C   0  0  0  0  0  0  0  0  0  0  0  0
   -5.9981   18.2039  -34.7741 H   0  0  0  0  0  0  0  0  0  0  0  0
   -6.9705   19.3223  -33.6886 H   0  0  0  0  0  0  0  0  0  0  0  0
   -4.9070   19.8080  -33.8490 C   0  0  0  0  0  0  0  0  0  0  0  0
   -4.6278   20.0669  -32.8170 H   0  0  0  0  0  0  0  0  0  0  0  0
   -4.0327   19.3938  -34.3725 H   0  0  0  0  0  0  0  0  0  0  0  0
   -5.2540   20.7111  -34.3725 H   0  0  0  0  0  0  0  0  0  0  0  0
   -7.5420   20.4590  -31.6720 N   0  0  0  0  0  0  0  0  0  0  0  0
   -6.4290   21.0930  -31.2180 C   0  0  0  0  0  0  0  0  0  0  0  0
   -5.5408   20.5203  -30.9127 H   0  0  0  0  0  0  0  0  0  0  0  0
   -5.0890   24.6160  -30.8710 C   0  0  0  0  0  0  0  0  0  0  0  0
   -6.0070   25.3220  -31.5780 F   0  0  0  0  0  0  0  0  0  0  0  0
   -3.9850   25.2550  -30.4030 N   0  0  0  0  0  0  0  0  0  0  0  0
  1  2  1  0
  2  3  2  0
  3  4  1  0
  4  5  2  0
  5  6  1  0
  5  7  1  0
  7  8  1  0
  8  9  1  0
  9 10  1  0
  9 11  2  0
 11 12  1  0
 11 13  1  0
 13 14  2  0
 14 15  1  0
 15 16  1  0
 15 17  2  0
 17 18  1  0
 18 19  1  0
 18 20  1  0
 18 21  1  0
 21 22  1  0
 22 23  1  0
 22 24  1  0
 22 25  1  0
 25 26  1  0
 25 27  1  0
 25 28  1  0
 21 29  1  0
 29 30  1  0
 29 31  1  0
 29 32  1  0
 32 33  1  0
 32 34  1  0
 32 35  1  0
 17 36  1  0
 36 37  1  0
 37 38  1  0
  7 39  2  0
 39 40  1  0
 39 41  1  0
 41  3  1  0
 37  8  2  0
 36 13  1  0
M  CHG  1  41  -1
M  END
>  <UniqueID>  (25) 
22

>  <SMILES>  (25) 
[H]/N=c1\ncc(-c2cc(F)c3ncc(CN(CC)CC)n3c2)c(F)[n-]1

>  <Energy>  (25) 
89.07575617263066

>  <Genealogy>  (25) 
CCN(CC)Cc1cnc2c(F)cc(-c3cnc(=N)[n-]c3F)cn12 (protonated)
[H]/N=c1\ncc(-c2cc(F)c3ncc(CN(CC)CC)n3c2)c(F)[n-]1 (cis-trans isomerization)
[H]/N=c1\ncc(-c2cc(F)c3ncc(CN(CC)CC)n3c2)c(F)[n-]1 (3D coordinates assigned)
[H]/N=c1\ncc(-c2cc(F)c3ncc(CN(CC)CC)n3c2)c(F)[n-]1 (optimized conformer: 89.07575617263066 kcal/mol)

>  <smiles>  (25) 
CCN(CC)Cc1cnc2c(F)cc(-c3cnc(=N)[nH]c3F)cn12

>  <score_type>  (25) 
oracle

>  <origin>  (25) 
adg

>  <m_score__min__energy>  (25) 
-9.5800000000000001

>  <m_primary>  (25) 
energy

$$$$
25:0
     RDKit          3D

 28 30  0  0  0  0  0  0  0  0999 V2000
   -5.6830   15.5510  -33.9030 C   0  0  0  0  0  0  0  0  0  0  0  0
   -6.2710   16.5870  -33.0660 N   0  0  0  0  0  0  0  0  0  0  0  0
   -5.9920   16.8040  -31.7670 C   0  0  0  0  0  0  0  0  0  0  0  0
   -6.8000   17.8240  -31.3120 C   0  0  0  0  0  0  0  0  0  0  0  0
   -7.5600   18.1700  -32.4120 C   0  0  0  0  0  0  0  0  0  0  0  0
   -8.8110   19.4480  -32.4550 S   0  0  0  0  0  0  0  0  0  0  0  0
   -7.6070   20.7510  -32.1910 C   0  0  0  0  0  0  0  0  0  0  0  0
   -6.3730   20.7050  -32.8520 C   0  0  0  0  0  0  0  0  0  0  0  0
   -5.4310   21.7210  -32.6540 C   0  0  0  0  0  0  0  0  0  0  0  0
   -5.7180   22.7870  -31.7960 C   0  0  0  0  0  0  0  0  0  0  0  0
   -4.8230   23.7540  -31.6110 O   0  0  0  0  0  0  0  0  0  0  0  0
   -5.0440   24.7900  -30.8060 C   0  0  0  0  0  0  0  0  0  0  0  0
   -4.1580   25.6730  -30.6710 O   0  0  0  0  0  0  0  0  0  0  0  0
   -6.2530   24.9000  -30.1110 C   0  0  0  0  0  0  0  0  0  0  0  0
   -7.2210   23.9110  -30.2750 C   0  0  0  0  0  0  0  0  0  0  0  0
   -6.9620   22.8330  -31.1260 C   0  0  0  0  0  0  0  0  0  0  0  0
   -7.9020   21.8120  -31.3260 C   0  0  0  0  0  0  0  0  0  0  0  0
   -7.2330   17.4030  -33.4670 N   0  0  0  0  0  0  0  0  0  0  0  0
   -5.2406   14.7716  -33.2652 H   0  0  0  0  0  0  0  0  0  0  0  0
   -6.4632   15.1060  -34.5381 H   0  0  0  0  0  0  0  0  0  0  0  0
   -4.9010   15.9927  -34.5381 H   0  0  0  0  0  0  0  0  0  0  0  0
   -5.2457   16.2596  -31.1698 H   0  0  0  0  0  0  0  0  0  0  0  0
   -6.8321   18.2621  -30.3035 H   0  0  0  0  0  0  0  0  0  0  0  0
   -6.1437   19.8684  -33.5283 H   0  0  0  0  0  0  0  0  0  0  0  0
   -4.4628   21.6808  -33.1745 H   0  0  0  0  0  0  0  0  0  0  0  0
   -6.4371   25.7553  -29.4443 H   0  0  0  0  0  0  0  0  0  0  0  0
   -8.1797   23.9781  -29.7398 H   0  0  0  0  0  0  0  0  0  0  0  0
   -8.8698   21.8444  -30.8042 H   0  0  0  0  0  0  0  0  0  0  0  0
  1  2  1  0
  2  3  1  0
  3  4  2  0
  4  5  1  0
  5  6  1  0
  6  7  1  0
  7  8  2  0
  8  9  1  0
  9 10  2  0
 10 11  1  0
 11 12  1  0
 12 13  2  0
 12 14  1  0
 14 15  2  0
 15 16  1  0
 16 17  2  0
  5 18  2  0
 18  2  1  0
 17  7  1  0
 16 10  1  0
  1 19  1  0
  1 20  1  0
  1 21  1  0
  3 22  1  0
  4 23  1  0
  8 24  1  0
  9 25  1  0
 14 26  1  0
 15 27  1  0
 17 28  1  0
M  END
>  <UniqueID>  (26) 
23

>  <SMILES>  (26) 
Cn1ccc(Sc2ccc3oc(=O)ccc3c2)n1

>  <Energy>  (26) 
58.706256769292466

>  <Genealogy>  (26) 
Cn1ccc(Sc2ccc3oc(=O)ccc3c2)n1 (3D coordinates assigned)
Cn1ccc(Sc2ccc3oc(=O)ccc3c2)n1 (optimized conformer: 58.706256769292466 kcal/mol)

>  <smiles>  (26) 
Cn1ccc(Sc2ccc3oc(=O)ccc3c2)n1

>  <score_type>  (26) 
oracle

>  <origin>  (26) 
adg

>  <m_score__min__energy>  (26) 
-8.3100000000000005

>  <m_primary>  (26) 
energy

$$$$
26:0
     RDKit          3D

 38 40  0  0  0  0  0  0  0  0999 V2000
   -6.5150   23.8180  -31.9930 C   0  0  0  0  0  0  0  0  0  0  0  0
   -7.4160   22.6260  -32.1340 C   0  0  0  0  0  0  0  0  0  0  0  0
   -8.7270   22.6730  -31.6460 C   0  0  0  0  0  0  0  0  0  0  0  0
   -9.5460   21.5500  -31.7330 C   0  0  0  0  0  0  0  0  0  0  0  0
   -9.0670   20.3670  -32.2990 C   0  0  0  0  0  0  0  0  0  0  0  0
   -7.7460   20.2890  -32.8090 C   0  0  0  0  0  0  0  0  0  0  0  0
   -7.1720   19.0700  -33.3900 N   0  0  1  0  0  0  0  0  0  0  0  0
   -5.8780   19.2150  -34.1130 C   0  0  2  0  0  0  0  0  0  0  0  0
   -5.7330   18.0340  -35.1170 C   0  0  0  0  0  0  0  0  0  0  0  0
   -6.3950   16.7360  -34.6060 C   0  0  0  0  0  0  0  0  0  0  0  0
   -6.4540   16.6630  -33.0710 C   0  0  0  0  0  0  0  0  0  0  0  0
   -7.0330   17.9620  -32.4070 C   0  0  1  0  0  0  0  0  0  0  0  0
   -6.1450   18.3960  -31.2180 C   0  0  0  0  0  0  0  0  0  0  0  0
   -4.9720   19.3060  -31.6420 C   0  0  0  0  0  0  0  0  0  0  0  0
   -4.6380   19.2580  -33.1470 C   0  0  0  0  0  0  0  0  0  0  0  0
   -6.9270   21.4340  -32.6860 C   0  0  0  0  0  0  0  0  0  0  0  0
   -6.3536   24.0315  -30.9260 H   0  0  0  0  0  0  0  0  0  0  0  0
   -5.5490   23.6065  -32.4748 H   0  0  0  0  0  0  0  0  0  0  0  0
   -6.9820   24.6897  -32.4748 H   0  0  0  0  0  0  0  0  0  0  0  0
   -9.1112   23.5988  -31.1929 H   0  0  0  0  0  0  0  0  0  0  0  0
  -10.5773   21.5953  -31.3532 H   0  0  0  0  0  0  0  0  0  0  0  0
   -9.7221   19.4848  -32.3500 H   0  0  0  0  0  0  0  0  0  0  0  0
   -7.8920   18.7810  -34.0950 H   0  0  0  0  0  0  0  0  0  0  0  0
   -5.8930   20.1792  -34.6423 H   0  0  0  0  0  0  0  0  0  0  0  0
   -6.2060   18.3200  -36.0681 H   0  0  0  0  0  0  0  0  0  0  0  0
   -4.6588   17.8332  -35.2425 H   0  0  0  0  0  0  0  0  0  0  0  0
   -7.4207   16.6856  -35.0002 H   0  0  0  0  0  0  0  0  0  0  0  0
   -5.7825   15.8916  -34.9550 H   0  0  0  0  0  0  0  0  0  0  0  0
   -7.0909   15.8124  -32.7866 H   0  0  0  0  0  0  0  0  0  0  0  0
   -5.4209   16.5473  -32.7114 H   0  0  0  0  0  0  0  0  0  0  0  0
   -8.0408   17.7274  -32.0337 H   0  0  0  0  0  0  0  0  0  0  0  0
   -6.7691   18.9423  -30.4954 H   0  0  0  0  0  0  0  0  0  0  0  0
   -5.7126   17.4842  -30.7801 H   0  0  0  0  0  0  0  0  0  0  0  0
   -5.2292   20.3429  -31.3799 H   0  0  0  0  0  0  0  0  0  0  0  0
   -4.0817   18.9370  -31.1117 H   0  0  0  0  0  0  0  0  0  0  0  0
   -4.0479   20.1534  -33.3922 H   0  0  0  0  0  0  0  0  0  0  0  0
   -4.0968   18.3138  -33.3070 H   0  0  0  0  0  0  0  0  0  0  0  0
   -5.8834   21.3889  -33.0308 H   0  0  0  0  0  0  0  0  0  0  0  0
  1  2  1  0
  2  3  2  0
  3  4  1  0
  4  5  2  0
  5  6  1  0
  6  7  1  0
  7  8  1  0
  8  9  1  0
  9 10  1  0
 10 11  1  0
 11 12  1  0
 12 13  1  0
 13 14  1  0
 14 15  1  0
  6 16  2  0
 16  2  1  0
 12  7  1  0
 15  8  1  0
  1 17  1  0
  1 18  1  0
  1 19  1  0
  3 20  1  0
  4 21  1  0
  5 22  1  0
  7 23  1  6
  8 24  1  6
  9 25  1  0
  9 26  1  0
 10 27  1  0
 10 28  1  0
 11 29  1  0
 11 30  1  0
 12 31  1  1
 13 32  1  0
 13 33  1  0
 14 34  1  0
 14 35  1  0
 15 36  1  0
 15 37  1  0
 16 38  1  0
M  CHG  1   7   1
M  END
>  <UniqueID>  (27) 
24

>  <SMILES>  (27) 
Cc1cccc([NH+]2C3CCCC2CCC3)c1

>  <Energy>  (27) 
68.3121643546897

>  <Genealogy>  (27) 
Cc1cccc([NH+]2C3CCCC2CCC3)c1 (protonated)
Cc1cccc([NH+]2C3CCCC2CCC3)c1 (3D coordinates assigned)
Cc1cccc([NH+]2C3CCCC2CCC3)c1 (nonaromatic ring conformer: 68.3121643546897 kcal/mol)

>  <smiles>  (27) 
Cc1cccc(N2C3CCCC2CCC3)c1

>  <score_type>  (27) 
oracle

>  <origin>  (27) 
adg

>  <m_score__min__energy>  (27) 
-6.9299999999999997

>  <m_primary>  (27) 
energy

$$$$
27:0
     RDKit          3D

 38 40  0  0  1  0  0  0  0  0999 V2000
   -8.7890   22.8250  -31.9300 C   0  0  0  0  0  0  0  0  0  0  0  0
   -7.7380   22.0430  -32.4470 O   0  0  0  0  0  0  0  0  0  0  0  0
   -7.6770   20.6590  -32.3350 C   0  0  0  0  0  0  0  0  0  0  0  0
   -8.7900   19.9410  -31.8790 C   0  0  0  0  0  0  0  0  0  0  0  0
   -8.7670   18.5710  -31.7550 C   0  0  0  0  0  0  0  0  0  0  0  0
   -7.6290   17.8630  -32.0830 C   0  0  0  0  0  0  0  0  0  0  0  0
   -6.5070   18.5600  -32.5410 C   0  0  0  0  0  0  0  0  0  0  0  0
   -6.5190   19.9440  -32.6700 C   0  0  0  0  0  0  0  0  0  0  0  0
   -5.2960   20.6810  -33.1630 C   0  0  0  0  0  0  0  0  0  0  0  0
   -4.4590   20.8780  -31.9790 N   0  0  0  0  0  0  0  0  0  0  0  0
   -4.3680   22.0620  -31.4570 C   0  0  0  0  0  0  0  0  0  0  0  0
   -3.3580   22.3810  -30.5410 C   0  0  0  0  0  0  0  0  0  0  0  0
   -3.3490   23.6660  -30.0240 C   0  0  0  0  0  0  0  0  0  0  0  0
   -2.3430   24.1050  -29.0770 C   0  0  0  0  0  0  0  0  0  0  0  0
   -2.7630   24.5390  -27.8320 C   0  0  0  0  0  0  0  0  0  0  0  0
   -1.8650   24.9900  -26.8690 C   0  0  0  0  0  0  0  0  0  0  0  0
   -0.5020   25.0000  -27.1800 C   0  0  0  0  0  0  0  0  0  0  0  0
   -0.1080   24.5720  -28.4020 N   0  0  0  0  0  0  0  0  0  0  0  0
   -0.9940   24.1350  -29.3300 C   0  0  0  0  0  0  0  0  0  0  0  0
   -4.2910   24.5540  -30.4080 N   0  0  0  0  0  0  0  0  0  0  0  0
   -5.2610   24.2230  -31.2980 C   0  0  0  0  0  0  0  0  0  0  0  0
   -5.2950   22.9620  -31.8250 N   0  0  0  0  0  0  0  0  0  0  0  0
   -8.7572   22.8013  -30.8307 H   0  0  0  0  0  0  0  0  0  0  0  0
   -8.6792   23.8628  -32.2777 H   0  0  0  0  0  0  0  0  0  0  0  0
   -9.7515   22.4217  -32.2777 H   0  0  0  0  0  0  0  0  0  0  0  0
   -9.7070   20.4872  -31.6129 H   0  0  0  0  0  0  0  0  0  0  0  0
   -9.6588   18.0383  -31.3932 H   0  0  0  0  0  0  0  0  0  0  0  0
   -7.6050   16.7676  -31.9857 H   0  0  0  0  0  0  0  0  0  0  0  0
   -5.5964   18.0020  -32.8046 H   0  0  0  0  0  0  0  0  0  0  0  0
   -4.7630   20.0820  -33.9161 H   0  0  0  0  0  0  0  0  0  0  0  0
   -5.5586   21.6356  -33.6424 H   0  0  0  0  0  0  0  0  0  0  0  0
   -2.6013   21.6400  -30.2436 H   0  0  0  0  0  0  0  0  0  0  0  0
   -3.8375   24.5272  -27.5966 H   0  0  0  0  0  0  0  0  0  0  0  0
   -2.2198   25.3310  -25.8852 H   0  0  0  0  0  0  0  0  0  0  0  0
    0.2373   25.3496  -26.4443 H   0  0  0  0  0  0  0  0  0  0  0  0
   -0.6235   23.7964  -30.3088 H   0  0  0  0  0  0  0  0  0  0  0  0
   -6.0163   24.9660  -31.5938 H   0  0  0  0  0  0  0  0  0  0  0  0
   -6.0640   22.7530  -32.5120 H   0  0  0  0  0  0  0  0  0  0  0  0
  1  2  1  0
  2  3  1  0
  3  4  2  0
  4  5  1  0
  5  6  2  0
  6  7  1  0
  7  8  2  0
  8  9  1  0
  9 10  1  0
 10 11  2  0
 11 12  1  0
 12 13  2  0
 13 14  1  0
 14 15  2  0
 15 16  1  0
 16 17  2  0
 17 18  1  0
 18 19  2  0
 13 20  1  0
 20 21  2  0
 21 22  1  0
  8  3  1  0
 22 11  1  0
 19 14  1  0
  1 23  1  0
  1 24  1  0
  1 25  1  0
  4 26  1  0
  5 27  1  0
  6 28  1  0
  7 29  1  0
  9 30  1  0
  9 31  1  0
 12 32  1  0
 15 33  1  0
 16 34  1  0
 17 35  1  0
 19 36  1  0
 21 37  1  0
 22 38  1  0
M  END
>  <smiles>  (28) 
COc1ccccc1CN=c1cc(-c2cccnc2)nc[nH]1

>  <score_type>  (28) 
oracle

>  <origin>  (28) 
adg

>  <m_score__min__energy>  (28) 
-8.0999999999999996

>  <m_primary>  (28) 
energy

$$$$
28:0
     RDKit          3D

 42 44  0  0  0  0  0  0  0  0999 V2000
   -5.6140   26.7660  -30.1100 O   0  0  0  0  0  0  0  0  0  0  0  0
   -5.2590   25.5750  -30.3170 C   0  0  0  0  0  0  0  0  0  0  0  0
   -6.2760   24.4850  -30.2810 C   0  0  0  0  0  0  0  0  0  0  0  0
   -6.3520   23.8770  -31.5680 O   0  0  0  0  0  0  0  0  0  0  0  0
   -7.0480   22.6910  -31.8430 C   0  0  0  0  0  0  0  0  0  0  0  0
   -6.4150   21.5440  -32.3620 C   0  0  0  0  0  0  0  0  0  0  0  0
   -7.1550   20.3840  -32.6140 C   0  0  0  0  0  0  0  0  0  0  0  0
   -8.5270   20.3590  -32.3540 C   0  0  0  0  0  0  0  0  0  0  0  0
   -9.1630   21.4940  -31.8430 C   0  0  0  0  0  0  0  0  0  0  0  0
   -8.4250   22.6530  -31.5870 C   0  0  0  0  0  0  0  0  0  0  0  0
   -3.8770   25.2350  -30.4700 N   0  0  0  0  0  0  0  0  0  0  0  0
   -3.2760   23.9440  -30.2870 C   0  0  0  0  0  0  0  0  0  0  0  0
   -3.4860   22.9020  -31.2090 C   0  0  0  0  0  0  0  0  0  0  0  0
   -2.8790   21.6570  -31.0190 C   0  0  0  0  0  0  0  0  0  0  0  0
   -2.0660   21.4360  -29.9070 C   0  0  0  0  0  0  0  0  0  0  0  0
   -1.8700   22.4550  -28.9740 C   0  0  0  0  0  0  0  0  0  0  0  0
   -2.4790   23.7070  -29.1460 C   0  0  0  0  0  0  0  0  0  0  0  0
   -2.2660   24.7330  -28.1600 N   0  0  0  0  0  0  0  0  0  0  0  0
   -3.2060   24.9220  -27.0510 C   0  0  0  0  0  0  0  0  0  0  0  0
   -2.4370   25.3660  -25.8040 C   0  0  0  0  0  0  0  0  0  0  0  0
   -1.6240   26.4900  -26.0880 O   0  0  0  0  0  0  0  0  0  0  0  0
   -0.6180   26.1350  -27.0190 C   0  0  0  0  0  0  0  0  0  0  0  0
   -1.2340   25.7500  -28.3670 C   0  0  0  0  0  0  0  0  0  0  0  0
   -5.9831   23.7321  -29.5344 H   0  0  0  0  0  0  0  0  0  0  0  0
   -7.2570   24.9016  -30.0088 H   0  0  0  0  0  0  0  0  0  0  0  0
   -5.3349   21.5609  -32.5697 H   0  0  0  0  0  0  0  0  0  0  0  0
   -6.6558   19.4906  -33.0173 H   0  0  0  0  0  0  0  0  0  0  0  0
   -9.1074   19.4457  -32.5515 H   0  0  0  0  0  0  0  0  0  0  0  0
  -10.2444   21.4750  -31.6423 H   0  0  0  0  0  0  0  0  0  0  0  0
   -8.9293   23.5424  -31.1813 H   0  0  0  0  0  0  0  0  0  0  0  0
   -4.1314   23.0679  -32.0842 H   0  0  0  0  0  0  0  0  0  0  0  0
   -3.0428   20.8497  -31.7480 H   0  0  0  0  0  0  0  0  0  0  0  0
   -1.5799   20.4594  -29.7658 H   0  0  0  0  0  0  0  0  0  0  0  0
   -1.2324   22.2750  -28.0959 H   0  0  0  0  0  0  0  0  0  0  0  0
   -3.9430   25.6925  -27.3216 H   0  0  0  0  0  0  0  0  0  0  0  0
   -3.7264   23.9752  -26.8445 H   0  0  0  0  0  0  0  0  0  0  0  0
   -3.1543   25.6304  -25.0131 H   0  0  0  0  0  0  0  0  0  0  0  0
   -1.7916   24.5384  -25.4746 H   0  0  0  0  0  0  0  0  0  0  0  0
    0.0580   26.9908  -27.1630 H   0  0  0  0  0  0  0  0  0  0  0  0
   -0.0636   25.2702  -26.6255 H   0  0  0  0  0  0  0  0  0  0  0  0
   -1.6841   26.6396  -28.8318 H   0  0  0  0  0  0  0  0  0  0  0  0
   -0.4506   25.3481  -29.0263 H   0  0  0  0  0  0  0  0  0  0  0  0
  1  2  2  0
  2  3  1  0
  3  4  1  0
  4  5  1  0
  5  6  2  0
  6  7  1  0
  7  8  2  0
  8  9  1  0
  9 10  2  0
  2 11  1  0
 11 12  1  0
 12 13  2  0
 13 14  1  0
 14 15  2  0
 15 16  1  0
 16 17  2  0
 17 18  1  0
 18 19  1  0
 19 20  1  0
 20 21  1  0
 21 22  1  0
 22 23  1  0
 10  5  1  0
 17 12  1  0
 23 18  1  0
  3 24  1  0
  3 25  1  0
  6 26  1  0
  7 27  1  0
  8 28  1  0
  9 29  1  0
 10 30  1  0
 13 31  1  0
 14 32  1  0
 15 33  1  0
 16 34  1  0
 19 35  1  0
 19 36  1  0
 20 37  1  0
 20 38  1  0
 22 39  1  0
 22 40  1  0
 23 41  1  0
 23 42  1  0
M  CHG  1  11  -1
M  END
>  <UniqueID>  (29) 
25

>  <SMILES>  (29) 
O=C(COc1ccccc1)[N-]c1ccccc1N1CCOCC1

>  <Energy>  (29) 
51.521849400089636

>  <Genealogy>  (29) 
O=C(COc1ccccc1)[N-]c1ccccc1N1CCOCC1 (protonated)
O=C(COc1ccccc1)[N-]c1ccccc1N1CCOCC1 (3D coordinates assigned)
O=C(COc1ccccc1)[N-]c1ccccc1N1CCOCC1 (nonaromatic ring conformer: 51.521849400089636 kcal/mol)

>  <smiles>  (29) 
O=C(COc1ccccc1)Nc1ccccc1N1CCOCC1

>  <score_type>  (29) 
oracle

>  <origin>  (29) 
adg

>  <m_score__min__energy>  (29) 
-8.7799999999999994

>  <m_primary>  (29) 
energy

$$$$
29:0
     RDKit          3D

 48 51  0  0  0  0  0  0  0  0999 V2000
   -0.5430   26.9000  -27.1740 C   0  0  0  0  0  0  0  0  0  0  0  0
   -1.0740   25.5740  -27.6060 C   0  0  0  0  0  0  0  0  0  0  0  0
   -0.6900   24.4410  -26.9630 N   0  0  0  0  0  0  0  0  0  0  0  0
   -1.1750   23.2490  -27.3130 N   0  0  0  0  0  0  0  0  0  0  0  0
   -2.0820   23.1310  -28.3290 C   0  0  0  0  0  0  0  0  0  0  0  0
   -2.6010   21.8880  -28.7410 C   0  0  0  0  0  0  0  0  0  0  0  0
   -2.1460   20.6030  -28.1650 C   0  0  0  0  0  0  0  0  0  0  0  0
   -2.8670   19.9930  -27.1260 C   0  0  0  0  0  0  0  0  0  0  0  0
   -2.4190   18.7910  -26.5690 C   0  0  0  0  0  0  0  0  0  0  0  0
   -1.2430   18.1980  -27.0370 C   0  0  0  0  0  0  0  0  0  0  0  0
   -0.5120   18.8070  -28.0610 C   0  0  0  0  0  0  0  0  0  0  0  0
   -0.9570   20.0080  -28.6210 C   0  0  0  0  0  0  0  0  0  0  0  0
   -3.5800   21.8670  -29.7450 C   0  0  0  0  0  0  0  0  0  0  0  0
   -4.0460   23.0210  -30.3180 N   0  0  0  0  0  0  0  0  0  0  0  0
   -5.1060   22.9230  -31.3450 C   0  0  0  0  0  0  0  0  0  0  0  0
   -6.2960   22.0130  -30.9350 C   0  0  0  0  0  0  0  0  0  0  0  0
   -6.2560   20.6020  -31.5850 C   0  0  0  0  0  0  0  0  0  0  0  0
   -7.2550   20.4710  -32.7390 C   0  0  0  0  0  0  0  0  0  0  0  0
   -8.7040   20.6940  -32.2590 C   0  0  0  0  0  0  0  0  0  0  0  0
   -8.8130   21.6800  -31.0750 C   0  0  0  0  0  0  0  0  0  0  0  0
   -7.6760   22.7060  -31.0980 C   0  0  0  0  0  0  0  0  0  0  0  0
   -3.4880   24.2290  -29.9780 C   0  0  0  0  0  0  0  0  0  0  0  0
   -3.8300   25.2860  -30.5760 O   0  0  0  0  0  0  0  0  0  0  0  0
   -2.5180   24.3030  -28.9710 C   0  0  0  0  0  0  0  0  0  0  0  0
   -1.9990   25.5000  -28.5950 N   0  0  0  0  0  0  0  0  0  0  0  0
   -0.5241   26.9471  -26.0752 H   0  0  0  0  0  0  0  0  0  0  0  0
    0.4771   27.0313  -27.5642 H   0  0  0  0  0  0  0  0  0  0  0  0
   -1.1905   27.6991  -27.5642 H   0  0  0  0  0  0  0  0  0  0  0  0
   -0.8550   22.4170  -26.7720 H   0  0  0  0  0  0  0  0  0  0  0  0
   -3.7876   20.4623  -26.7488 H   0  0  0  0  0  0  0  0  0  0  0  0
   -2.9926   18.3118  -25.7619 H   0  0  0  0  0  0  0  0  0  0  0  0
   -0.8926   17.2516  -26.5993 H   0  0  0  0  0  0  0  0  0  0  0  0
    0.4147   18.3406  -28.4267 H   0  0  0  0  0  0  0  0  0  0  0  0
   -0.3749   20.4889  -29.4210 H   0  0  0  0  0  0  0  0  0  0  0  0
   -3.9836   20.9003  -30.0807 H   0  0  0  0  0  0  0  0  0  0  0  0
   -5.4939   23.9337  -31.5402 H   0  0  0  0  0  0  0  0  0  0  0  0
   -4.6475   22.4679  -32.2353 H   0  0  0  0  0  0  0  0  0  0  0  0
   -6.1634   21.8428  -29.8564 H   0  0  0  0  0  0  0  0  0  0  0  0
   -5.2424   20.4176  -31.9706 H   0  0  0  0  0  0  0  0  0  0  0  0
   -6.5297   19.8661  -30.8146 H   0  0  0  0  0  0  0  0  0  0  0  0
   -7.0136   21.2199  -33.5077 H   0  0  0  0  0  0  0  0  0  0  0  0
   -7.1792   19.4526  -33.1478 H   0  0  0  0  0  0  0  0  0  0  0  0
   -9.2924   21.0915  -33.0991 H   0  0  0  0  0  0  0  0  0  0  0  0
   -9.0832   19.7227  -31.9087 H   0  0  0  0  0  0  0  0  0  0  0  0
   -9.7750   22.2099  -31.1375 H   0  0  0  0  0  0  0  0  0  0  0  0
   -8.7442   21.1068  -30.1387 H   0  0  0  0  0  0  0  0  0  0  0  0
   -7.6969   23.2443  -32.0571 H   0  0  0  0  0  0  0  0  0  0  0  0
   -7.8180   23.4045  -30.2601 H   0  0  0  0  0  0  0  0  0  0  0  0
  1  2  1  0
  2  3  2  0
  3  4  1  0
  4  5  2  0
  5  6  1  0
  6  7  1  0
  7  8  2  0
  8  9  1  0
  9 10  2  0
 10 11  1  0
 11 12  2  0
  6 13  2  0
 13 14  1  0
 14 15  1  0
 15 16  1  0
 16 17  1  0
 17 18  1  0
 18 19  1  0
 19 20  1  0
 20 21  1  0
 14 22  1  0
 22 23  2  0
 22 24  1  0
 24 25  2  0
 25  2  1  0
 24  5  1  0
 12  7  1  0
 21 16  1  0
  1 26  1  0
  1 27  1  0
  1 28  1  0
  4 29  1  0
  8 30  1  0
  9 31  1  0
 10 32  1  0
 11 33  1  0
 12 34  1  0
 13 35  1  0
 15 36  1  0
 15 37  1  0
 16 38  1  0
 17 39  1  0
 17 40  1  0
 18 41  1  0
 18 42  1  0
 19 43  1  0
 19 44  1  0
 20 45  1  0
 20 46  1  0
 21 47  1  0
 21 48  1  0
M  CHG  1   4   1
M  END
>  <UniqueID>  (30) 
26

>  <SMILES>  (30) 
Cc1n[nH+]c2c(-c3ccccc3)cn(CC3CCCCC3)c(=O)c2n1

>  <Energy>  (30) 
67.41467033565878

>  <Genealogy>  (30) 
Cc1n[nH+]c2c(-c3ccccc3)cn(CC3CCCCC3)c(=O)c2n1 (protonated)
Cc1n[nH+]c2c(-c3ccccc3)cn(CC3CCCCC3)c(=O)c2n1 (3D coordinates assigned)
Cc1n[nH+]c2c(-c3ccccc3)cn(CC3CCCCC3)c(=O)c2n1 (nonaromatic ring conformer: 67.41467033565878 kcal/mol)

>  <smiles>  (30) 
Cc1nnc2c(-c3ccccc3)cn(CC3CCCCC3)c(=O)c2n1

>  <score_type>  (30) 
oracle

>  <origin>  (30) 
adg

>  <m_score__min__energy>  (30) 
-8.5899999999999999

>  <m_primary>  (30) 
energy

$$$$
30:0
     RDKit          3D

 38 40  0  0  0  0  0  0  0  0999 V2000
   -0.5620   21.7390  -31.1110 O   0  0  0  0  0  0  0  0  0  0  0  0
   -1.8220   21.6700  -31.0920 C   0  0  0  0  0  0  0  0  0  0  0  0
   -2.4910   20.8160  -32.0940 C   0  0  0  0  0  0  0  0  0  0  0  0
   -1.8600   20.1440  -33.1260 C   0  0  0  0  0  0  0  0  0  0  0  0
   -2.8610   19.5050  -33.8270 C   0  0  0  0  0  0  0  0  0  0  0  0
   -4.0350   19.8280  -33.1830 C   0  0  0  0  0  0  0  0  0  0  0  0
   -5.7790   19.2500  -33.6880 Br  0  0  0  0  0  0  0  0  0  0  0  0
   -3.7860   20.6070  -32.1570 O   0  0  0  0  0  0  0  0  0  0  0  0
   -2.5590   22.4490  -30.1230 N   0  0  0  0  0  0  0  0  0  0  0  0
   -1.9540   23.7230  -29.6910 C   0  0  0  0  0  0  0  0  0  0  0  0
   -2.7750   24.5450  -28.6730 C   0  0  0  0  0  0  0  0  0  0  0  0
   -4.1830   24.1510  -28.5610 N   0  0  0  0  0  0  0  0  0  0  0  0
   -5.2220   24.8420  -29.7960 S   0  0  0  0  0  0  0  0  0  0  0  0
   -6.0980   25.9010  -29.1850 O   0  0  0  0  0  0  0  0  0  0  0  0
   -4.3540   25.5060  -30.8260 O   0  0  0  0  0  0  0  0  0  0  0  0
   -6.2440   23.6580  -30.6220 C   0  0  0  0  0  0  0  0  0  0  0  0
   -7.2350   22.9650  -29.9080 C   0  0  0  0  0  0  0  0  0  0  0  0
   -8.0490   22.0330  -30.5580 C   0  0  0  0  0  0  0  0  0  0  0  0
   -7.8670   21.7720  -31.9180 C   0  0  0  0  0  0  0  0  0  0  0  0
   -6.8590   22.4300  -32.6270 C   0  0  0  0  0  0  0  0  0  0  0  0
   -6.0420   23.3600  -31.9790 C   0  0  0  0  0  0  0  0  0  0  0  0
   -4.3280   22.7050  -28.3800 C   0  0  0  0  0  0  0  0  0  0  0  0
   -3.8260   21.9260  -29.5890 C   0  0  0  0  0  0  0  0  0  0  0  0
   -0.7817   20.1237  -33.3426 H   0  0  0  0  0  0  0  0  0  0  0  0
   -2.7457   18.8687  -34.7168 H   0  0  0  0  0  0  0  0  0  0  0  0
   -0.9794   23.4962  -29.2342 H   0  0  0  0  0  0  0  0  0  0  0  0
   -1.8896   24.3455  -30.5956 H   0  0  0  0  0  0  0  0  0  0  0  0
   -2.3075   24.4309  -27.6838 H   0  0  0  0  0  0  0  0  0  0  0  0
   -2.7708   25.5832  -29.0364 H   0  0  0  0  0  0  0  0  0  0  0  0
   -7.3711   23.1563  -28.8334 H   0  0  0  0  0  0  0  0  0  0  0  0
   -8.8341   21.5043  -29.9976 H   0  0  0  0  0  0  0  0  0  0  0  0
   -8.5175   21.0482  -32.4309 H   0  0  0  0  0  0  0  0  0  0  0  0
   -6.7085   22.2159  -33.6954 H   0  0  0  0  0  0  0  0  0  0  0  0
   -5.2362   23.8614  -32.5351 H   0  0  0  0  0  0  0  0  0  0  0  0
   -3.7511   22.3981  -27.4951 H   0  0  0  0  0  0  0  0  0  0  0  0
   -5.3981   22.4838  -28.2533 H   0  0  0  0  0  0  0  0  0  0  0  0
   -3.6755   20.8774  -29.2927 H   0  0  0  0  0  0  0  0  0  0  0  0
   -4.5828   22.0238  -30.3813 H   0  0  0  0  0  0  0  0  0  0  0  0
  1  2  2  0
  2  3  1  0
  3  4  2  0
  4  5  1  0
  5  6  2  0
  6  7  1  0
  6  8  1  0
  2  9  1  0
  9 10  1  0
 10 11  1  0
 11 12  1  0
 12 13  1  0
 13 14  2  0
 13 15  2  0
 13 16  1  0
 16 17  2  0
 17 18  1  0
 18 19  2  0
 19 20  1  0
 20 21  2  0
 12 22  1  0
 22 23  1  0
  8  3  1  0
 23  9  1  0
 21 16  1  0
  4 24  1  0
  5 25  1  0
 10 26  1  0
 10 27  1  0
 11 28  1  0
 11 29  1  0
 17 30  1  0
 18 31  1  0
 19 32  1  0
 20 33  1  0
 21 34  1  0
 22 35  1  0
 22 36  1  0
 23 37  1  0
 23 38  1  0
M  END
>  <UniqueID>  (31) 
27

>  <SMILES>  (31) 
O=C(c1ccc(Br)o1)N1CCN(S(=O)(=O)c2ccccc2)CC1

>  <Energy>  (31) 
72.81164529075988

>  <Genealogy>  (31) 
O=C(c1ccc(Br)o1)N1CCN(S(=O)(=O)c2ccccc2)CC1 (3D coordinates assigned)
O=C(c1ccc(Br)o1)N1CCN(S(=O)(=O)c2ccccc2)CC1 (nonaromatic ring conformer: 72.81164529075988 kcal/mol)

>  <smiles>  (31) 
O=C(c1ccc(Br)o1)N1CCN(S(=O)(=O)c2ccccc2)CC1

>  <score_type>  (31) 
oracle

>  <origin>  (31) 
adg

>  <m_score__min__energy>  (31) 
-8.1600000000000001

>  <m_primary>  (31) 
energy

$$$$
31:0
     RDKit          3D

 40 43  0  0  0  0  0  0  0  0999 V2000
   -1.6050   19.7000  -26.8650 C   0  0  0  0  0  0  0  0  0  0  0  0
   -0.6230   20.2360  -27.8660 C   0  0  0  0  0  0  0  0  0  0  0  0
   -1.1520   21.4480  -28.4900 N   0  0  0  0  0  0  0  0  0  0  0  0
   -0.4960   22.5860  -28.7530 C   0  0  0  0  0  0  0  0  0  0  0  0
   -1.3430   23.4520  -29.3300 N   0  0  0  0  0  0  0  0  0  0  0  0
   -2.5790   22.8870  -29.4540 C   0  0  0  0  0  0  0  0  0  0  0  0
   -3.6840   23.6050  -30.0450 C   0  0  0  0  0  0  0  0  0  0  0  0
   -3.7500   24.9580  -30.0790 N   0  0  0  0  0  0  0  0  0  0  0  0
   -4.8790   25.3410  -30.6830 N   0  0  0  0  0  0  0  0  0  0  0  0
   -5.5720   24.2780  -31.0550 C   0  0  0  0  0  0  0  0  0  0  0  0
   -6.7800   24.1610  -31.7010 C   0  0  0  0  0  0  0  0  0  0  0  0
   -7.2360   22.8820  -31.9460 C   0  0  0  0  0  0  0  0  0  0  0  0
   -8.4290   22.7380  -32.5850 F   0  0  0  0  0  0  0  0  0  0  0  0
   -6.5360   21.7560  -31.5730 C   0  0  0  0  0  0  0  0  0  0  0  0
   -7.0810   20.4380  -31.8670 C   0  0  0  0  0  0  0  0  0  0  0  0
   -8.2790   19.9760  -31.3690 C   0  0  0  0  0  0  0  0  0  0  0  0
   -8.7430   18.7170  -31.6830 C   0  0  0  0  0  0  0  0  0  0  0  0
   -7.9770   17.9140  -32.5200 C   0  0  0  0  0  0  0  0  0  0  0  0
   -6.7800   18.3920  -33.0110 C   0  0  0  0  0  0  0  0  0  0  0  0
   -5.9090   17.5810  -33.9120 C   0  0  0  0  0  0  0  0  0  0  0  0
   -6.3940   19.6100  -32.6680 N   0  0  0  0  0  0  0  0  0  0  0  0
   -5.3350   21.9410  -30.9300 C   0  0  0  0  0  0  0  0  0  0  0  0
   -4.8330   23.1820  -30.6600 C   0  0  0  0  0  0  0  0  0  0  0  0
   -2.4380   21.6390  -28.9250 C   0  0  0  0  0  0  0  0  0  0  0  0
   -1.2379   19.9004  -25.8476 H   0  0  0  0  0  0  0  0  0  0  0  0
   -2.5787   20.1918  -27.0069 H   0  0  0  0  0  0  0  0  0  0  0  0
   -1.7180   18.6151  -27.0069 H   0  0  0  0  0  0  0  0  0  0  0  0
    0.3231   20.4722  -27.3570 H   0  0  0  0  0  0  0  0  0  0  0  0
   -0.4507   19.4769  -28.6432 H   0  0  0  0  0  0  0  0  0  0  0  0
    0.5641   22.7790  -28.5320 H   0  0  0  0  0  0  0  0  0  0  0  0
   -3.0800   25.6710  -29.7190 H   0  0  0  0  0  0  0  0  0  0  0  0
   -7.3563   25.0461  -32.0083 H   0  0  0  0  0  0  0  0  0  0  0  0
   -8.8757   20.6231  -30.7093 H   0  0  0  0  0  0  0  0  0  0  0  0
   -9.7001   18.3548  -31.2795 H   0  0  0  0  0  0  0  0  0  0  0  0
   -8.3228   16.9050  -32.7887 H   0  0  0  0  0  0  0  0  0  0  0  0
   -5.2369   16.9552  -33.3065 H   0  0  0  0  0  0  0  0  0  0  0  0
   -6.5362   16.9378  -34.5467 H   0  0  0  0  0  0  0  0  0  0  0  0
   -5.3121   18.2524  -34.5467 H   0  0  0  0  0  0  0  0  0  0  0  0
   -4.7573   21.0571  -30.6217 H   0  0  0  0  0  0  0  0  0  0  0  0
   -3.2418   20.8912  -28.8567 H   0  0  0  0  0  0  0  0  0  0  0  0
  1  2  1  0
  2  3  1  0
  3  4  1  0
  4  5  2  0
  5  6  1  0
  6  7  1  0
  7  8  1  0
  8  9  1  0
  9 10  2  0
 10 11  1  0
 11 12  2  0
 12 13  1  0
 12 14  1  0
 14 15  1  0
 15 16  2  0
 16 17  1  0
 17 18  2  0
 18 19  1  0
 19 20  1  0
 19 21  2  0
 14 22  2  0
 22 23  1  0
  6 24  2  0
 24  3  1  0
 23  7  2  0
 23 10  1  0
 21 15  1  0
  1 25  1  0
  1 26  1  0
  1 27  1  0
  2 28  1  0
  2 29  1  0
  4 30  1  0
  8 31  1  0
 11 32  1  0
 16 33  1  0
 17 34  1  0
 18 35  1  0
 20 36  1  0
 20 37  1  0
 20 38  1  0
 22 39  1  0
 24 40  1  0
M  END
>  <smiles>  (32) 
CCn1cnc(-c2[nH]nc3cc(F)c(-c4cccc(C)n4)cc23)c1

>  <score_type>  (32) 
oracle

>  <origin>  (32) 
adg

>  <m_score__min__energy>  (32) 
-9.0099999999999998

>  <m_primary>  (32) 
energy

$$$$
32:0
     RDKit          3D

 34 36  0  0  0  0  0  0  0  0999 V2000
   -6.1250   17.0830  -34.2250 C   0  0  0  0  0  0  0  0  0  0  0  0
   -5.5690   18.4510  -34.6180 C   0  0  0  0  0  0  0  0  0  0  0  0
   -4.8610   19.1460  -33.4490 C   0  0  0  0  0  0  0  0  0  0  0  0
   -5.6310   20.2970  -32.9750 N   0  0  0  0  0  0  0  0  0  0  0  0
   -5.1950   21.5580  -32.7220 C   0  0  0  0  0  0  0  0  0  0  0  0
   -4.0060   21.9330  -32.9110 O   0  0  0  0  0  0  0  0  0  0  0  0
   -6.1720   22.3770  -32.2480 N   0  0  0  0  0  0  0  0  0  0  0  0
   -6.0670   23.8050  -31.9510 C   0  0  0  0  0  0  0  0  0  0  0  0
   -5.8310   24.0060  -30.4500 C   0  0  0  0  0  0  0  0  0  0  0  0
   -6.0930   25.4160  -29.9440 C   0  0  0  0  0  0  0  0  0  0  0  0
   -4.6650   24.9070  -30.0750 C   0  0  0  0  0  0  0  0  0  0  0  0
   -7.2700   21.5920  -32.2180 C   0  0  0  0  0  0  0  0  0  0  0  0
   -8.5740   21.8920  -31.8300 C   0  0  0  0  0  0  0  0  0  0  0  0
   -9.5200   20.8530  -31.9010 C   0  0  0  0  0  0  0  0  0  0  0  0
   -9.1280   19.5710  -32.3520 C   0  0  0  0  0  0  0  0  0  0  0  0
   -7.8350   19.3290  -32.7230 N   0  0  0  0  0  0  0  0  0  0  0  0
   -6.9350   20.3410  -32.6470 C   0  0  0  0  0  0  0  0  0  0  0  0
   -6.1580   17.0018  -33.1285 H   0  0  0  0  0  0  0  0  0  0  0  0
   -7.1407   16.9694  -34.6318 H   0  0  0  0  0  0  0  0  0  0  0  0
   -5.4766   16.2930  -34.6318 H   0  0  0  0  0  0  0  0  0  0  0  0
   -4.8496   18.3183  -35.4395 H   0  0  0  0  0  0  0  0  0  0  0  0
   -6.4148   19.0838  -34.9249 H   0  0  0  0  0  0  0  0  0  0  0  0
   -4.7422   18.4288  -32.6235 H   0  0  0  0  0  0  0  0  0  0  0  0
   -3.8799   19.5016  -33.7968 H   0  0  0  0  0  0  0  0  0  0  0  0
   -5.2251   24.2343  -32.5139 H   0  0  0  0  0  0  0  0  0  0  0  0
   -7.0015   24.3068  -32.2426 H   0  0  0  0  0  0  0  0  0  0  0  0
   -6.1518   22.9949  -30.1588 H   0  0  0  0  0  0  0  0  0  0  0  0
   -6.4676   26.1871  -30.6333 H   0  0  0  0  0  0  0  0  0  0  0  0
   -6.6920   25.8520  -29.1309 H   0  0  0  0  0  0  0  0  0  0  0  0
   -4.0071   25.3102  -30.8590 H   0  0  0  0  0  0  0  0  0  0  0  0
   -3.8038   24.8227  -29.3958 H   0  0  0  0  0  0  0  0  0  0  0  0
   -8.8521   22.8981  -31.4830 H   0  0  0  0  0  0  0  0  0  0  0  0
  -10.5635   21.0375  -31.6060 H   0  0  0  0  0  0  0  0  0  0  0  0
   -9.8707   18.7612  -32.4046 H   0  0  0  0  0  0  0  0  0  0  0  0
  1  2  1  0
  2  3  1  0
  3  4  1  0
  4  5  1  0
  5  6  2  0
  5  7  1  0
  7  8  1  0
  8  9  1  0
  9 10  1  0
 10 11  1  0
  7 12  1  0
 12 13  2  0
 13 14  1  0
 14 15  2  0
 15 16  1  0
 16 17  2  0
 17  4  1  0
 11  9  1  0
 17 12  1  0
  1 18  1  0
  1 19  1  0
  1 20  1  0
  2 21  1  0
  2 22  1  0
  3 23  1  0
  3 24  1  0
  8 25  1  0
  8 26  1  0
  9 27  1  0
 10 28  1  0
 10 29  1  0
 11 30  1  0
 11 31  1  0
 13 32  1  0
 14 33  1  0
 15 34  1  0
M  END
>  <UniqueID>  (33) 
28

>  <SMILES>  (33) 
CCCn1c(=O)n(CC2CC2)c2cccnc21

>  <Energy>  (33) 
334.8282263255159

>  <Genealogy>  (33) 
CCCn1c(=O)n(CC2CC2)c2cccnc21 (3D coordinates assigned)
CCCn1c(=O)n(CC2CC2)c2cccnc21 (nonaromatic ring conformer: 334.8282263255159 kcal/mol)

>  <smiles>  (33) 
CCCn1c(=O)n(CC2CC2)c2cccnc21

>  <score_type>  (33) 
oracle

>  <origin>  (33) 
adg

>  <m_score__min__energy>  (33) 
-6.4900000000000002

>  <m_primary>  (33) 
energy

$$$$
33:0
     RDKit          3D

 50 52  0  0  0  0  0  0  0  0999 V2000
   -0.4985   25.2019  -27.6052 H   0  0  0  0  0  0  0  0  0  0  0  0
   -1.2380   24.6270  -28.1820 C   0  0  0  0  0  0  0  0  0  0  0  0
   -2.1090   25.2730  -28.9940 N   0  0  0  0  0  0  0  0  0  0  0  0
   -3.0410   24.5880  -29.7100 C   0  0  0  0  0  0  0  0  0  0  0  0
   -3.8670   25.2160  -30.4920 N   0  0  0  0  0  0  0  0  0  0  0  0
   -5.3100   25.2490  -30.2790 C   0  0  0  0  0  0  0  0  0  0  0  0
   -5.5180   25.3702  -29.2057 H   0  0  0  0  0  0  0  0  0  0  0  0
   -5.7403   26.0933  -30.8376 H   0  0  0  0  0  0  0  0  0  0  0  0
   -5.9260   23.9670  -30.7650 C   0  0  0  0  0  0  0  0  0  0  0  0
   -7.0550   23.4370  -30.1150 C   0  0  0  0  0  0  0  0  0  0  0  0
   -7.4911   23.9656  -29.2545 H   0  0  0  0  0  0  0  0  0  0  0  0
   -7.6250   22.2390  -30.5600 C   0  0  0  0  0  0  0  0  0  0  0  0
   -8.5111   21.8298  -30.0527 H   0  0  0  0  0  0  0  0  0  0  0  0
   -7.0690   21.5630  -31.6480 C   0  0  0  0  0  0  0  0  0  0  0  0
   -7.5179   20.6219  -31.9984 H   0  0  0  0  0  0  0  0  0  0  0  0
   -5.9420   22.0820  -32.2920 C   0  0  0  0  0  0  0  0  0  0  0  0
   -5.5062   21.5482  -33.1494 H   0  0  0  0  0  0  0  0  0  0  0  0
   -5.3670   23.2770  -31.8500 C   0  0  0  0  0  0  0  0  0  0  0  0
   -4.4747   23.6766  -32.3541 H   0  0  0  0  0  0  0  0  0  0  0  0
   -3.1110   23.2350  -29.6060 N   0  0  0  0  0  0  0  0  0  0  0  0
   -2.2610   22.5350  -28.8030 C   0  0  0  0  0  0  0  0  0  0  0  0
   -2.4200   21.1070  -28.6900 N   0  0  0  0  0  0  0  0  0  0  0  0
   -1.5270   20.2420  -29.4760 C   0  0  0  0  0  0  0  0  0  0  0  0
   -0.4963   20.3745  -29.1154 H   0  0  0  0  0  0  0  0  0  0  0  0
   -1.8625   19.2022  -29.3487 H   0  0  0  0  0  0  0  0  0  0  0  0
   -1.5740   20.5700  -30.9480 C   0  0  0  0  0  0  0  0  0  0  0  0
   -2.7960   20.5880  -31.6460 C   0  0  0  0  0  0  0  0  0  0  0  0
   -3.7320   20.3600  -31.1150 H   0  0  0  0  0  0  0  0  0  0  0  0
   -2.8280   20.8940  -33.0110 C   0  0  0  0  0  0  0  0  0  0  0  0
   -3.7877   20.9091  -33.5484 H   0  0  0  0  0  0  0  0  0  0  0  0
   -1.6440   21.1800  -33.6910 C   0  0  0  0  0  0  0  0  0  0  0  0
   -1.6719   21.4400  -34.7595 H   0  0  0  0  0  0  0  0  0  0  0  0
   -0.4230   21.1360  -33.0140 C   0  0  0  0  0  0  0  0  0  0  0  0
    0.5115   21.3511  -33.5530 H   0  0  0  0  0  0  0  0  0  0  0  0
   -0.3860   20.8190  -31.6520 C   0  0  0  0  0  0  0  0  0  0  0  0
    0.5805   20.7646  -31.1296 H   0  0  0  0  0  0  0  0  0  0  0  0
   -3.0410   20.5650  -27.4670 C   0  0  0  0  0  0  0  0  0  0  0  0
   -3.9951   20.0874  -27.7344 H   0  0  0  0  0  0  0  0  0  0  0  0
   -3.1972   21.3983  -26.7661 H   0  0  0  0  0  0  0  0  0  0  0  0
   -2.1400   19.5250  -26.7780 C   0  0  0  0  0  0  0  0  0  0  0  0
   -1.4099   20.0535  -26.1474 H   0  0  0  0  0  0  0  0  0  0  0  0
   -1.6448   18.9381  -27.5656 H   0  0  0  0  0  0  0  0  0  0  0  0
   -2.9330   18.5500  -25.9000 C   0  0  0  0  0  0  0  0  0  0  0  0
   -2.7479   18.7776  -24.8398 H   0  0  0  0  0  0  0  0  0  0  0  0
   -4.0068   18.6531  -26.1151 H   0  0  0  0  0  0  0  0  0  0  0  0
   -2.6133   17.5197  -26.1151 H   0  0  0  0  0  0  0  0  0  0  0  0
   -1.2740   23.2320  -28.0730 C   0  0  0  0  0  0  0  0  0  0  0  0
   -0.2780   22.5550  -27.2970 N   0  0  0  0  0  0  0  0  0  0  0  0
    0.7120   22.0550  -27.8610 O   0  0  0  0  0  0  0  0  0  0  0  0
   -0.4890   22.2870  -25.9680 O   0  0  0  0  0  0  0  0  0  0  0  0
  1  2  1  0
  2  3  1  0
  3  4  1  0
  4  5  2  0
  5  6  1  0
  6  7  1  0
  6  8  1  0
  6  9  1  0
  9 10  2  0
 10 11  1  0
 10 12  1  0
 12 13  1  0
 12 14  2  0
 14 15  1  0
 14 16  1  0
 16 17  1  0
 16 18  2  0
 18 19  1  0
  4 20  1  0
 20 21  2  0
 21 22  1  0
 22 23  1  0
 23 24  1  0
 23 25  1  0
 23 26  1  0
 26 27  2  0
 27 28  1  0
 27 29  1  0
 29 30  1  0
 29 31  2  0
 31 32  1  0
 31 33  1  0
 33 34  1  0
 33 35  2  0
 35 36  1  0
 22 37  1  0
 37 38  1  0
 37 39  1  0
 37 40  1  0
 40 41  1  0
 40 42  1  0
 40 43  1  0
 43 44  1  0
 43 45  1  0
 43 46  1  0
 21 47  1  0
 47 48  1  0
 48 49  2  0
 48 50  1  0
 47  2  2  0
 18  9  1  0
 35 26  1  0
M  CHG  3   3  -1  48   1  50  -1
M  END
>  <UniqueID>  (34) 
29

>  <SMILES>  (34) 
CCCN(Cc1ccccc1)c1n/c(=N/Cc2ccccc2)[n-]cc1[N+](=O)[O-]

>  <Energy>  (34) 
58.15629418784791

>  <Genealogy>  (34) 
CCCN(Cc1ccccc1)c1nc(=NCc2ccccc2)[n-]cc1[N+](=O)[O-] (protonated)
CCCN(Cc1ccccc1)c1n/c(=N/Cc2ccccc2)[n-]cc1[N+](=O)[O-] (cis-trans isomerization)
CCCN(Cc1ccccc1)c1n/c(=N/Cc2ccccc2)[n-]cc1[N+](=O)[O-] (3D coordinates assigned)
CCCN(Cc1ccccc1)c1n/c(=N/Cc2ccccc2)[n-]cc1[N+](=O)[O-] (optimized conformer: 58.15629418784791 kcal/mol)

>  <smiles>  (34) 
CCCN(Cc1ccccc1)c1nc(=NCc2ccccc2)[nH]cc1[N+](=O)[O-]

>  <score_type>  (34) 
oracle

>  <origin>  (34) 
adg

>  <m_score__min__energy>  (34) 
-9.3499999999999996

>  <m_primary>  (34) 
energy

$$$$
34:0
     RDKit          3D

 38 40  0  0  0  0  0  0  0  0999 V2000
   -2.2670   24.9290  -28.6110 C   0  0  0  0  0  0  0  0  0  0  0  0
   -3.1220   25.2400  -29.7070 O   0  0  0  0  0  0  0  0  0  0  0  0
   -4.1580   24.4100  -30.1700 C   0  0  0  0  0  0  0  0  0  0  0  0
   -5.5130   24.7600  -30.0200 C   0  0  0  0  0  0  0  0  0  0  0  0
   -6.5190   23.9120  -30.4870 C   0  0  0  0  0  0  0  0  0  0  0  0
   -6.1960   22.7030  -31.1230 C   0  0  0  0  0  0  0  0  0  0  0  0
   -7.2650   21.8030  -31.6240 C   0  0  0  0  0  0  0  0  0  0  0  0
   -8.6210   22.1600  -31.4930 C   0  0  0  0  0  0  0  0  0  0  0  0
   -9.6260   21.3120  -31.9650 C   0  0  0  0  0  0  0  0  0  0  0  0
   -9.2920   20.0990  -32.5720 C   0  0  0  0  0  0  0  0  0  0  0  0
   -7.9510   19.7320  -32.7080 C   0  0  0  0  0  0  0  0  0  0  0  0
   -6.9410   20.5780  -32.2380 C   0  0  0  0  0  0  0  0  0  0  0  0
   -4.8430   22.3580  -31.2790 C   0  0  0  0  0  0  0  0  0  0  0  0
   -3.8230   23.1930  -30.7890 C   0  0  0  0  0  0  0  0  0  0  0  0
   -2.4400   22.8410  -30.9740 N   0  0  0  0  0  0  0  0  0  0  0  0
   -1.9910   21.6820  -31.6980 C   0  0  0  0  0  0  0  0  0  0  0  0
   -1.1490   20.7250  -31.1020 C   0  0  0  0  0  0  0  0  0  0  0  0
   -0.7080   19.6180  -31.8340 C   0  0  0  0  0  0  0  0  0  0  0  0
   -1.0910   19.4640  -33.1690 C   0  0  0  0  0  0  0  0  0  0  0  0
   -1.9080   20.4210  -33.7760 C   0  0  0  0  0  0  0  0  0  0  0  0
   -2.3510   21.5290  -33.0470 C   0  0  0  0  0  0  0  0  0  0  0  0
   -2.7968   25.1217  -27.6665 H   0  0  0  0  0  0  0  0  0  0  0  0
   -1.9790   23.8685  -28.6601 H   0  0  0  0  0  0  0  0  0  0  0  0
   -1.3649   25.5566  -28.6601 H   0  0  0  0  0  0  0  0  0  0  0  0
   -5.7813   25.7083  -29.5314 H   0  0  0  0  0  0  0  0  0  0  0  0
   -7.5741   24.1938  -30.3554 H   0  0  0  0  0  0  0  0  0  0  0  0
   -8.8908   23.1135  -31.0155 H   0  0  0  0  0  0  0  0  0  0  0  0
  -10.6823   21.6000  -31.8584 H   0  0  0  0  0  0  0  0  0  0  0  0
  -10.0849   19.4328  -32.9429 H   0  0  0  0  0  0  0  0  0  0  0  0
   -7.6889   18.7763  -33.1854 H   0  0  0  0  0  0  0  0  0  0  0  0
   -5.8867   20.2843  -32.3488 H   0  0  0  0  0  0  0  0  0  0  0  0
   -4.5778   21.4216  -31.7916 H   0  0  0  0  0  0  0  0  0  0  0  0
   -1.7130   23.4720  -30.5640 H   0  0  0  0  0  0  0  0  0  0  0  0
   -0.8360   20.8483  -30.0547 H   0  0  0  0  0  0  0  0  0  0  0  0
   -0.0591   18.8678  -31.3584 H   0  0  0  0  0  0  0  0  0  0  0  0
   -0.7493   18.5894  -33.7419 H   0  0  0  0  0  0  0  0  0  0  0  0
   -2.2032   20.3027  -34.8290 H   0  0  0  0  0  0  0  0  0  0  0  0
   -2.9851   22.2852  -33.5329 H   0  0  0  0  0  0  0  0  0  0  0  0
  1  2  1  0
  2  3  1  0
  3  4  2  0
  4  5  1  0
  5  6  2  0
  6  7  1  0
  7  8  2  0
  8  9  1  0
  9 10  2  0
 10 11  1  0
 11 12  2  0
  6 13  1  0
 13 14  2  0
 14 15  1  0
 15 16  1  0
 16 17  2  0
 17 18  1  0
 18 19  2  0
 19 20  1  0
 20 21  2  0
 14  3  1  0
 21 16  1  0
 12  7  1  0
  1 22  1  0
  1 23  1  0
  1 24  1  0
  4 25  1  0
  5 26  1  0
  8 27  1  0
  9 28  1  0
 10 29  1  0
 11 30  1  0
 12 31  1  0
 13 32  1  0
 15 33  1  0
 17 34  1  0
 18 35  1  0
 19 36  1  0
 20 37  1  0
 21 38  1  0
M  END
>  <UniqueID>  (35) 
30

>  <SMILES>  (35) 
COc1ccc(-c2ccccc2)cc1Nc1ccccc1

>  <Energy>  (35) 
50.85237208168649

>  <Genealogy>  (35) 
COc1ccc(-c2ccccc2)cc1Nc1ccccc1 (3D coordinates assigned)
COc1ccc(-c2ccccc2)cc1Nc1ccccc1 (optimized conformer: 50.85237208168649 kcal/mol)

>  <smiles>  (35) 
COc1ccc(-c2ccccc2)cc1Nc1ccccc1

>  <score_type>  (35) 
oracle

>  <origin>  (35) 
adg

>  <m_score__min__energy>  (35) 
-8.3200000000000003

>  <m_primary>  (35) 
energy

$$$$
35:0
     RDKit          3D

 35 37  0  0  0  0  0  0  0  0999 V2000
   -2.3100   24.6050  -28.6840 C   0  0  0  0  0  0  0  0  0  0  0  0
   -3.1100   25.1730  -29.7160 O   0  0  0  0  0  0  0  0  0  0  0  0
   -4.2140   24.5370  -30.3030 C   0  0  0  0  0  0  0  0  0  0  0  0
   -5.4650   25.1540  -30.2020 C   0  0  0  0  0  0  0  0  0  0  0  0
   -6.5950   24.5640  -30.7740 C   0  0  0  0  0  0  0  0  0  0  0  0
   -6.4840   23.3490  -31.4520 C   0  0  0  0  0  0  0  0  0  0  0  0
   -5.2390   22.7070  -31.5590 C   0  0  0  0  0  0  0  0  0  0  0  0
   -5.1250   21.4180  -32.2870 C   0  0  0  0  0  0  0  0  0  0  0  0
   -6.1390   20.4560  -32.1730 C   0  0  0  0  0  0  0  0  0  0  0  0
   -6.0390   19.2430  -32.8660 C   0  0  0  0  0  0  0  0  0  0  0  0
   -7.0390   18.2520  -32.7840 C   0  0  0  0  0  0  0  0  0  0  0  0
   -8.1710   18.4820  -31.9820 O   0  0  0  0  0  0  0  0  0  0  0  0
   -9.2610   19.3230  -32.3440 C   0  0  0  0  0  0  0  0  0  0  0  0
   -6.8760   17.0560  -33.5110 C   0  0  0  0  0  0  0  0  0  0  0  0
   -5.7420   16.8520  -34.3000 C   0  0  0  0  0  0  0  0  0  0  0  0
   -4.7550   17.8350  -34.3790 C   0  0  0  0  0  0  0  0  0  0  0  0
   -4.8950   19.0290  -33.6660 C   0  0  0  0  0  0  0  0  0  0  0  0
   -3.9470   19.9570  -33.7470 O   0  0  0  0  0  0  0  0  0  0  0  0
   -4.0140   21.1160  -33.1010 C   0  0  0  0  0  0  0  0  0  0  0  0
   -3.0600   21.9320  -33.2120 O   0  0  0  0  0  0  0  0  0  0  0  0
   -4.1040   23.3100  -30.9880 C   0  0  0  0  0  0  0  0  0  0  0  0
   -2.7169   24.8939  -27.7037 H   0  0  0  0  0  0  0  0  0  0  0  0
   -2.3175   23.5088  -28.7755 H   0  0  0  0  0  0  0  0  0  0  0  0
   -1.2776   24.9735  -28.7755 H   0  0  0  0  0  0  0  0  0  0  0  0
   -5.5601   26.1111  -29.6682 H   0  0  0  0  0  0  0  0  0  0  0  0
   -7.5742   25.0581  -30.6898 H   0  0  0  0  0  0  0  0  0  0  0  0
   -7.3761   22.8917  -31.9049 H   0  0  0  0  0  0  0  0  0  0  0  0
   -7.0149   20.6545  -31.5379 H   0  0  0  0  0  0  0  0  0  0  0  0
   -9.7506   19.7007  -31.4342 H   0  0  0  0  0  0  0  0  0  0  0  0
   -8.8887   20.1702  -32.9387 H   0  0  0  0  0  0  0  0  0  0  0  0
   -9.9860   18.7480  -32.9387 H   0  0  0  0  0  0  0  0  0  0  0  0
   -7.6493   16.2756  -33.4565 H   0  0  0  0  0  0  0  0  0  0  0  0
   -5.6265   15.9130  -34.8612 H   0  0  0  0  0  0  0  0  0  0  0  0
   -3.8648   17.6700  -35.0037 H   0  0  0  0  0  0  0  0  0  0  0  0
   -3.1230   22.8204  -31.0766 H   0  0  0  0  0  0  0  0  0  0  0  0
  1  2  1  0
  2  3  1  0
  3  4  2  0
  4  5  1  0
  5  6  2  0
  6  7  1  0
  7  8  1  0
  8  9  2  0
  9 10  1  0
 10 11  2  0
 11 12  1  0
 12 13  1  0
 11 14  1  0
 14 15  2  0
 15 16  1  0
 16 17  2  0
 17 18  1  0
 18 19  1  0
 19 20  2  0
  7 21  2  0
 21  3  1  0
 19  8  1  0
 17 10  1  0
  1 22  1  0
  1 23  1  0
  1 24  1  0
  4 25  1  0
  5 26  1  0
  6 27  1  0
  9 28  1  0
 13 29  1  0
 13 30  1  0
 13 31  1  0
 14 32  1  0
 15 33  1  0
 16 34  1  0
 21 35  1  0
M  END
>  <UniqueID>  (36) 
31

>  <SMILES>  (36) 
COc1cccc(-c2cc3c(OC)cccc3oc2=O)c1

>  <Energy>  (36) 
47.88198011201115

>  <Genealogy>  (36) 
COc1cccc(-c2cc3c(OC)cccc3oc2=O)c1 (3D coordinates assigned)
COc1cccc(-c2cc3c(OC)cccc3oc2=O)c1 (optimized conformer: 47.88198011201115 kcal/mol)

>  <smiles>  (36) 
COc1cccc(-c2cc3c(OC)cccc3oc2=O)c1

>  <score_type>  (36) 
oracle

>  <origin>  (36) 
adg

>  <m_score__min__energy>  (36) 
-8.0899999999999999

>  <m_primary>  (36) 
energy

$$$$
36:0
     RDKit          3D

 32 34  0  0  0  0  0  0  0  0999 V2000
   -2.8990   23.0400  -31.3700 O   0  0  0  0  0  0  0  0  0  0  0  0
   -3.5680   23.9110  -30.7520 C   0  0  0  0  0  0  0  0  0  0  0  0
   -4.8840   24.2310  -31.2150 N   0  0  0  0  0  0  0  0  0  0  0  0
   -5.9300   23.2870  -31.4800 C   0  0  0  0  0  0  0  0  0  0  0  0
   -7.2290   23.5740  -31.0440 C   0  0  0  0  0  0  0  0  0  0  0  0
   -8.2750   22.6860  -31.3070 C   0  0  0  0  0  0  0  0  0  0  0  0
   -8.0390   21.5090  -32.0240 C   0  0  0  0  0  0  0  0  0  0  0  0
   -9.3810   20.4170  -32.3360 Cl  0  0  0  0  0  0  0  0  0  0  0  0
   -6.7440   21.2250  -32.4900 C   0  0  0  0  0  0  0  0  0  0  0  0
   -6.4080   19.7700  -33.4180 Cl  0  0  0  0  0  0  0  0  0  0  0  0
   -5.6980   22.1170  -32.2260 C   0  0  0  0  0  0  0  0  0  0  0  0
   -2.9790   24.6270  -29.6570 N   0  0  0  0  0  0  0  0  0  0  0  0
   -1.8020   24.1780  -28.9680 C   0  0  0  0  0  0  0  0  0  0  0  0
   -1.4340   22.8270  -29.0540 C   0  0  0  0  0  0  0  0  0  0  0  0
   -0.2930   22.3570  -28.4000 C   0  0  0  0  0  0  0  0  0  0  0  0
    0.5090   23.2320  -27.6650 C   0  0  0  0  0  0  0  0  0  0  0  0
    0.1780   24.5920  -27.5930 C   0  0  0  0  0  0  0  0  0  0  0  0
    0.9860   25.4940  -26.8890 C   0  0  0  0  0  0  0  0  0  0  0  0
    0.6520   26.8490  -26.8600 C   0  0  0  0  0  0  0  0  0  0  0  0
   -0.4870   27.2920  -27.5380 C   0  0  0  0  0  0  0  0  0  0  0  0
   -0.7960   28.5110  -27.5260 O   0  0  0  0  0  0  0  0  0  0  0  0
   -1.2660   26.4040  -28.2120 N   0  0  0  0  0  0  0  0  0  0  0  0
   -0.9770   25.0730  -28.2520 C   0  0  0  0  0  0  0  0  0  0  0  0
   -7.4273   24.5041  -30.4911 H   0  0  0  0  0  0  0  0  0  0  0  0
   -9.2895   22.9140  -30.9481 H   0  0  0  0  0  0  0  0  0  0  0  0
   -4.6878   21.9017  -32.6044 H   0  0  0  0  0  0  0  0  0  0  0  0
   -3.3300   25.5900  -29.4560 H   0  0  0  0  0  0  0  0  0  0  0  0
   -2.0501   22.1311  -29.6423 H   0  0  0  0  0  0  0  0  0  0  0  0
   -0.0249   21.2921  -28.4643 H   0  0  0  0  0  0  0  0  0  0  0  0
    1.4003   22.8542  -27.1426 H   0  0  0  0  0  0  0  0  0  0  0  0
    1.8815   25.1354  -26.3603 H   0  0  0  0  0  0  0  0  0  0  0  0
    1.2806   27.5629  -26.3076 H   0  0  0  0  0  0  0  0  0  0  0  0
  1  2  2  0
  2  3  1  0
  3  4  1  0
  4  5  2  0
  5  6  1  0
  6  7  2  0
  7  8  1  0
  7  9  1  0
  9 10  1  0
  9 11  2  0
  2 12  1  0
 12 13  1  0
 13 14  2  0
 14 15  1  0
 15 16  2  0
 16 17  1  0
 17 18  1  0
 18 19  2  0
 19 20  1  0
 20 21  2  0
 20 22  1  0
 22 23  1  0
 11  4  1  0
 23 13  1  0
 23 17  2  0
  5 24  1  0
  6 25  1  0
 11 26  1  0
 12 27  1  0
 14 28  1  0
 15 29  1  0
 16 30  1  0
 18 31  1  0
 19 32  1  0
M  CHG  2   3  -1  22  -1
M  END
>  <UniqueID>  (37) 
32

>  <SMILES>  (37) 
O=C([N-]c1ccc(Cl)c(Cl)c1)Nc1cccc2ccc(=O)[n-]c12

>  <Energy>  (37) 
47.58271510729059

>  <Genealogy>  (37) 
O=C([N-]c1ccc(Cl)c(Cl)c1)Nc1cccc2ccc(=O)[n-]c12 (protonated)
O=C([N-]c1ccc(Cl)c(Cl)c1)Nc1cccc2ccc(=O)[n-]c12 (3D coordinates assigned)
O=C([N-]c1ccc(Cl)c(Cl)c1)Nc1cccc2ccc(=O)[n-]c12 (optimized conformer: 47.58271510729059 kcal/mol)

>  <smiles>  (37) 
O=C(Nc1ccc(Cl)c(Cl)c1)Nc1cccc2ccc(=O)[nH]c12

>  <score_type>  (37) 
oracle

>  <origin>  (37) 
adg

>  <m_score__min__energy>  (37) 
-10.210000000000001

>  <m_primary>  (37) 
energy

$$$$
37:0
     RDKit          3D

 40 42  0  0  0  0  0  0  0  0999 V2000
   -3.2480   22.8050  -28.5900 C   0  0  0  0  0  0  0  0  0  0  0  0
   -2.4240   23.4330  -29.7090 C   0  0  0  0  0  0  0  0  0  0  0  0
   -3.2400   24.2590  -30.5430 O   0  0  0  0  0  0  0  0  0  0  0  0
   -4.6440   24.2290  -30.6180 C   0  0  0  0  0  0  0  0  0  0  0  0
   -5.4410   25.1980  -29.9720 C   0  0  0  0  0  0  0  0  0  0  0  0
   -6.8310   25.1620  -30.0760 C   0  0  0  0  0  0  0  0  0  0  0  0
   -7.4500   24.1600  -30.8200 C   0  0  0  0  0  0  0  0  0  0  0  0
   -6.6810   23.1840  -31.4550 C   0  0  0  0  0  0  0  0  0  0  0  0
   -5.2770   23.2000  -31.3580 C   0  0  0  0  0  0  0  0  0  0  0  0
   -4.5070   22.1220  -32.0260 C   0  0  0  0  0  0  0  0  0  0  0  0
   -4.9410   20.8480  -32.1660 N   0  0  0  0  0  0  0  0  0  0  0  0
   -3.9420   20.2470  -32.8400 C   0  0  0  0  0  0  0  0  0  0  0  0
   -3.9410   18.7960  -33.2110 C   0  0  0  0  0  0  0  0  0  0  0  0
   -5.2200   18.4470  -34.4660 S   0  0  0  0  0  0  0  0  0  0  0  0
   -6.5950   18.8250  -33.3840 C   0  0  0  0  0  0  0  0  0  0  0  0
   -6.9760   17.9330  -32.4320 N   0  0  0  0  0  0  0  0  0  0  0  0
   -8.0180   18.2000  -31.6040 C   0  0  0  0  0  0  0  0  0  0  0  0
   -8.7150   19.4010  -31.7290 C   0  0  0  0  0  0  0  0  0  0  0  0
   -8.3100   20.3050  -32.7100 C   0  0  0  0  0  0  0  0  0  0  0  0
   -7.2610   20.0020  -33.5190 N   0  0  0  0  0  0  0  0  0  0  0  0
   -2.9420   21.1650  -33.0740 C   0  0  0  0  0  0  0  0  0  0  0  0
   -1.6410   20.9340  -33.7710 C   0  0  0  0  0  0  0  0  0  0  0  0
   -3.3190   22.3090  -32.5640 O   0  0  0  0  0  0  0  0  0  0  0  0
   -2.8409   23.1153  -27.6164 H   0  0  0  0  0  0  0  0  0  0  0  0
   -4.2932   23.1377  -28.6732 H   0  0  0  0  0  0  0  0  0  0  0  0
   -3.2043   21.7090  -28.6732 H   0  0  0  0  0  0  0  0  0  0  0  0
   -1.6247   24.0460  -29.2669 H   0  0  0  0  0  0  0  0  0  0  0  0
   -1.9958   22.6277  -30.3239 H   0  0  0  0  0  0  0  0  0  0  0  0
   -4.9603   25.9906  -29.3798 H   0  0  0  0  0  0  0  0  0  0  0  0
   -7.4396   25.9258  -29.5699 H   0  0  0  0  0  0  0  0  0  0  0  0
   -8.5463   24.1382  -30.9070 H   0  0  0  0  0  0  0  0  0  0  0  0
   -7.1773   22.3938  -32.0375 H   0  0  0  0  0  0  0  0  0  0  0  0
   -2.9545   18.5283  -33.6173 H   0  0  0  0  0  0  0  0  0  0  0  0
   -4.1585   18.2018  -32.3112 H   0  0  0  0  0  0  0  0  0  0  0  0
   -8.3120   17.4699  -30.8356 H   0  0  0  0  0  0  0  0  0  0  0  0
   -9.5647   19.6299  -31.0690 H   0  0  0  0  0  0  0  0  0  0  0  0
   -8.8388   21.2622  -32.8290 H   0  0  0  0  0  0  0  0  0  0  0  0
   -0.8453   20.7927  -33.0248 H   0  0  0  0  0  0  0  0  0  0  0  0
   -1.7169   20.0353  -34.4007 H   0  0  0  0  0  0  0  0  0  0  0  0
   -1.4029   21.8039  -34.4007 H   0  0  0  0  0  0  0  0  0  0  0  0
  1  2  1  0
  2  3  1  0
  3  4  1  0
  4  5  2  0
  5  6  1  0
  6  7  2  0
  7  8  1  0
  8  9  2  0
  9 10  1  0
 10 11  2  0
 11 12  1  0
 12 13  1  0
 13 14  1  0
 14 15  1  0
 15 16  2  0
 16 17  1  0
 17 18  2  0
 18 19  1  0
 19 20  2  0
 12 21  2  0
 21 22  1  0
 21 23  1  0
  9  4  1  0
 23 10  1  0
 20 15  1  0
  1 24  1  0
  1 25  1  0
  1 26  1  0
  2 27  1  0
  2 28  1  0
  5 29  1  0
  6 30  1  0
  7 31  1  0
  8 32  1  0
 13 33  1  0
 13 34  1  0
 17 35  1  0
 18 36  1  0
 19 37  1  0
 22 38  1  0
 22 39  1  0
 22 40  1  0
M  END
>  <UniqueID>  (38) 
33

>  <SMILES>  (38) 
CCOc1ccccc1-c1nc(CSc2ncccn2)c(C)o1

>  <Energy>  (38) 
64.78427114518463

>  <Genealogy>  (38) 
CCOc1ccccc1-c1nc(CSc2ncccn2)c(C)o1 (3D coordinates assigned)
CCOc1ccccc1-c1nc(CSc2ncccn2)c(C)o1 (optimized conformer: 64.78427114518463 kcal/mol)

>  <smiles>  (38) 
CCOc1ccccc1-c1nc(CSc2ncccn2)c(C)o1

>  <score_type>  (38) 
oracle

>  <origin>  (38) 
adg

>  <m_score__min__energy>  (38) 
-7.5

>  <m_primary>  (38) 
energy

$$$$
38:0
     RDKit          3D

 50 52  0  0  0  0  0  0  0  0999 V2000
   -7.5090   17.8900  -32.3590 C   0  0  0  0  0  0  0  0  0  0  0  0
   -8.8930   18.4400  -32.0360 C   0  0  0  0  0  0  0  0  0  0  0  0
   -8.8370   19.8930  -31.9040 N   0  0  0  0  0  0  0  0  0  0  0  0
   -7.9090   20.5880  -31.2190 C   0  0  0  0  0  0  0  0  0  0  0  0
   -8.2850   21.9190  -31.2250 C   0  0  0  0  0  0  0  0  0  0  0  0
   -7.5960   23.0530  -30.5320 C   0  0  0  0  0  0  0  0  0  0  0  0
   -6.4200   23.5230  -31.3030 N   0  0  0  0  0  0  0  0  0  0  0  0
   -6.0980   24.9310  -30.9520 C   0  0  0  0  0  0  0  0  0  0  0  0
   -5.0820   25.0200  -29.7970 C   0  0  0  0  0  0  0  0  0  0  0  0
   -3.7700   24.4020  -30.1340 N   0  0  0  0  0  0  0  0  0  0  0  0
   -3.0590   23.9370  -28.9180 C   0  0  0  0  0  0  0  0  0  0  0  0
   -1.5890   24.3960  -28.8910 C   0  0  0  0  0  0  0  0  0  0  0  0
   -1.5120   25.8080  -28.9670 O   0  0  0  0  0  0  0  0  0  0  0  0
   -0.8830   26.3300  -27.8170 C   0  0  0  0  0  0  0  0  0  0  0  0
   -3.9040   23.3810  -31.2150 C   0  0  1  0  0  0  0  0  0  0  0  0
   -2.7850   22.3350  -31.3460 C   0  0  0  0  0  0  0  0  0  0  0  0
   -3.4870   21.1240  -32.4260 S   0  0  0  0  0  0  0  0  0  0  0  0
   -3.2090   19.7260  -31.9470 O   0  0  0  0  0  0  0  0  0  0  0  0
   -3.0160   21.3080  -33.8410 O   0  0  0  0  0  0  0  0  0  0  0  0
   -5.2000   21.5500  -32.2500 C   0  0  0  0  0  0  0  0  0  0  0  0
   -5.2460   22.6140  -31.1410 C   0  0  2  0  0  0  0  0  0  0  0  0
   -9.4690   21.9690  -31.9370 C   0  0  0  0  0  0  0  0  0  0  0  0
   -9.7790   20.7200  -32.3300 N   0  0  0  0  0  0  0  0  0  0  0  0
   -6.9717   17.6765  -31.4232 H   0  0  0  0  0  0  0  0  0  0  0  0
   -7.6098   16.9636  -32.9435 H   0  0  0  0  0  0  0  0  0  0  0  0
   -6.9464   18.6329  -32.9435 H   0  0  0  0  0  0  0  0  0  0  0  0
   -9.5881   18.1748  -32.8462 H   0  0  0  0  0  0  0  0  0  0  0  0
   -9.2408   18.0054  -31.0873 H   0  0  0  0  0  0  0  0  0  0  0  0
   -7.0110   20.1710  -30.7396 H   0  0  0  0  0  0  0  0  0  0  0  0
   -8.3050   23.8861  -30.4171 H   0  0  0  0  0  0  0  0  0  0  0  0
   -7.2478   22.6990  -29.5505 H   0  0  0  0  0  0  0  0  0  0  0  0
   -5.6748   25.4296  -31.8365 H   0  0  0  0  0  0  0  0  0  0  0  0
   -7.0273   25.4209  -30.6256 H   0  0  0  0  0  0  0  0  0  0  0  0
   -4.9189   26.0802  -29.5533 H   0  0  0  0  0  0  0  0  0  0  0  0
   -5.5003   24.4650  -28.9443 H   0  0  0  0  0  0  0  0  0  0  0  0
   -3.5720   24.3397  -28.0322 H   0  0  0  0  0  0  0  0  0  0  0  0
   -3.0688   22.8370  -28.9215 H   0  0  0  0  0  0  0  0  0  0  0  0
   -1.1205   24.0572  -27.9552 H   0  0  0  0  0  0  0  0  0  0  0  0
   -1.0636   23.9627  -29.7548 H   0  0  0  0  0  0  0  0  0  0  0  0
   -1.3700   25.9258  -26.9173 H   0  0  0  0  0  0  0  0  0  0  0  0
    0.1793   26.0444  -27.8185 H   0  0  0  0  0  0  0  0  0  0  0  0
   -0.9679   27.4267  -27.8185 H   0  0  0  0  0  0  0  0  0  0  0  0
   -3.8396   24.0207  -32.1075 H   0  0  0  0  0  0  0  0  0  0  0  0
   -1.8800   22.7788  -31.7864 H   0  0  0  0  0  0  0  0  0  0  0  0
   -2.4692   21.9182  -30.3783 H   0  0  0  0  0  0  0  0  0  0  0  0
   -5.5933   21.9593  -33.1922 H   0  0  0  0  0  0  0  0  0  0  0  0
   -5.8154   20.6731  -32.0004 H   0  0  0  0  0  0  0  0  0  0  0  0
   -5.3712   22.1493  -30.1519 H   0  0  0  0  0  0  0  0  0  0  0  0
  -10.0570   22.8748  -32.1464 H   0  0  0  0  0  0  0  0  0  0  0  0
  -10.6360   20.4340  -32.8550 H   0  0  0  0  0  0  0  0  0  0  0  0
  1  2  1  0
  2  3  1  0
  3  4  1  0
  4  5  2  0
  5  6  1  0
  6  7  1  0
  7  8  1  0
  8  9  1  0
  9 10  1  0
 10 11  1  0
 11 12  1  0
 12 13  1  0
 13 14  1  0
 10 15  1  0
 15 16  1  0
 16 17  1  0
 17 18  2  0
 17 19  2  0
 17 20  1  0
 20 21  1  0
  5 22  1  0
 22 23  2  0
 23  3  1  0
 21  7  1  0
 21 15  1  0
  1 24  1  0
  1 25  1  0
  1 26  1  0
  2 27  1  0
  2 28  1  0
  4 29  1  0
  6 30  1  0
  6 31  1  0
  8 32  1  0
  8 33  1  0
  9 34  1  0
  9 35  1  0
 11 36  1  0
 11 37  1  0
 12 38  1  0
 12 39  1  0
 14 40  1  0
 14 41  1  0
 14 42  1  0
 15 43  1  6
 16 44  1  0
 16 45  1  0
 20 46  1  0
 20 47  1  0
 21 48  1  1
 22 49  1  0
 23 50  1  0
M  CHG  1  23   1
M  END
>  <UniqueID>  (39) 
34

>  <SMILES>  (39) 
CCn1cc(CN2CCN(CCOC)[C@H]3CS(=O)(=O)C[C@@H]32)c[nH+]1

>  <Energy>  (39) 
97.34074751273732

>  <Genealogy>  (39) 
CCn1cc(CN2CCN(CCOC)C3CS(=O)(=O)CC32)c[nH+]1 (protonated)
CCn1cc(CN2CCN(CCOC)[C@H]3CS(=O)(=O)C[C@@H]32)c[nH+]1 (chirality)
CCn1cc(CN2CCN(CCOC)[C@H]3CS(=O)(=O)C[C@@H]32)c[nH+]1 (3D coordinates assigned)
CCn1cc(CN2CCN(CCOC)[C@H]3CS(=O)(=O)C[C@@H]32)c[nH+]1 (nonaromatic ring conformer: 97.34074751273732 kcal/mol)

>  <smiles>  (39) 
CCn1cc(CN2CCN(CCOC)C3CS(=O)(=O)CC32)cn1

>  <score_type>  (39) 
oracle

>  <origin>  (39) 
adg

>  <m_score__min__energy>  (39) 
-7.54

>  <m_primary>  (39) 
energy

$$$$
39:0
     RDKit          3D

 47 49  0  0  0  0  0  0  0  0999 V2000
   -5.3680   17.5110  -34.7600 C   0  0  0  0  0  0  0  0  0  0  0  0
   -5.1080   18.9070  -34.6780 O   0  0  0  0  0  0  0  0  0  0  0  0
   -4.6890   19.5720  -33.5140 C   0  0  0  0  0  0  0  0  0  0  0  0
   -3.4530   20.2410  -33.4390 C   0  0  0  0  0  0  0  0  0  0  0  0
   -3.0700   20.8880  -32.2640 C   0  0  0  0  0  0  0  0  0  0  0  0
   -3.9080   20.8740  -31.1420 C   0  0  0  0  0  0  0  0  0  0  0  0
   -3.4970   21.5940  -29.8870 C   0  0  0  0  0  0  0  0  0  0  0  0
   -3.1260   22.9800  -30.1980 N   0  0  0  0  0  0  0  0  0  0  0  0
   -1.7330   23.4120  -30.0670 C   0  0  0  0  0  0  0  0  0  0  0  0
   -1.6090   24.3500  -28.9080 C   0  0  0  0  0  0  0  0  0  0  0  0
   -1.7070   23.9990  -27.5780 C   0  0  0  0  0  0  0  0  0  0  0  0
   -1.4780   25.1610  -26.8730 C   0  0  0  0  0  0  0  0  0  0  0  0
   -1.2530   26.1450  -27.8160 C   0  0  0  0  0  0  0  0  0  0  0  0
   -1.3350   25.6290  -29.0210 O   0  0  0  0  0  0  0  0  0  0  0  0
   -4.1440   23.9530  -30.4890 C   0  0  0  0  0  0  0  0  0  0  0  0
   -3.8360   25.1760  -30.5270 O   0  0  0  0  0  0  0  0  0  0  0  0
   -5.5380   23.5430  -30.7680 C   0  0  0  0  0  0  0  0  0  0  0  0
   -6.3590   23.0540  -29.7360 C   0  0  0  0  0  0  0  0  0  0  0  0
   -7.6700   22.6480  -30.0080 C   0  0  0  0  0  0  0  0  0  0  0  0
   -8.1700   22.7200  -31.3100 C   0  0  0  0  0  0  0  0  0  0  0  0
   -7.3600   23.1940  -32.3440 C   0  0  0  0  0  0  0  0  0  0  0  0
   -6.0490   23.6000  -32.0780 C   0  0  0  0  0  0  0  0  0  0  0  0
   -5.1460   20.2190  -31.2150 C   0  0  0  0  0  0  0  0  0  0  0  0
   -5.5410   19.5630  -32.3980 C   0  0  0  0  0  0  0  0  0  0  0  0
   -6.7690   18.8930  -32.5030 O   0  0  0  0  0  0  0  0  0  0  0  0
   -8.0430   19.5080  -32.3470 C   0  0  0  0  0  0  0  0  0  0  0  0
   -5.4460   17.0924  -33.7458 H   0  0  0  0  0  0  0  0  0  0  0  0
   -6.3125   17.3450  -35.2988 H   0  0  0  0  0  0  0  0  0  0  0  0
   -4.5466   17.0161  -35.2988 H   0  0  0  0  0  0  0  0  0  0  0  0
   -2.7847   20.2538  -34.3126 H   0  0  0  0  0  0  0  0  0  0  0  0
   -2.1041   21.4123  -32.2185 H   0  0  0  0  0  0  0  0  0  0  0  0
   -4.3361   21.5930  -29.1758 H   0  0  0  0  0  0  0  0  0  0  0  0
   -2.6306   21.0803  -29.4450 H   0  0  0  0  0  0  0  0  0  0  0  0
   -1.0912   22.5346  -29.8990 H   0  0  0  0  0  0  0  0  0  0  0  0
   -1.4196   23.9242  -30.9886 H   0  0  0  0  0  0  0  0  0  0  0  0
   -1.9225   23.0019  -27.1665 H   0  0  0  0  0  0  0  0  0  0  0  0
   -1.4750   25.2807  -25.7795 H   0  0  0  0  0  0  0  0  0  0  0  0
   -1.0379   27.2002  -27.5918 H   0  0  0  0  0  0  0  0  0  0  0  0
   -5.9683   22.9904  -28.7097 H   0  0  0  0  0  0  0  0  0  0  0  0
   -8.3080   22.2714  -29.1949 H   0  0  0  0  0  0  0  0  0  0  0  0
   -9.2021   22.4033  -31.5210 H   0  0  0  0  0  0  0  0  0  0  0  0
   -7.7542   23.2480  -33.3695 H   0  0  0  0  0  0  0  0  0  0  0  0
   -5.4131   23.9662  -32.8975 H   0  0  0  0  0  0  0  0  0  0  0  0
   -5.8144   20.2173  -30.3413 H   0  0  0  0  0  0  0  0  0  0  0  0
   -8.2688   19.6170  -31.2760 H   0  0  0  0  0  0  0  0  0  0  0  0
   -8.0320   20.5000  -32.8222 H   0  0  0  0  0  0  0  0  0  0  0  0
   -8.8129   18.8823  -32.8222 H   0  0  0  0  0  0  0  0  0  0  0  0
  1  2  1  0
  2  3  1  0
  3  4  2  0
  4  5  1  0
  5  6  2  0
  6  7  1  0
  7  8  1  0
  8  9  1  0
  9 10  1  0
 10 11  2  0
 11 12  1  0
 12 13  2  0
 13 14  1  0
  8 15  1  0
 15 16  2  0
 15 17  1  0
 17 18  2  0
 18 19  1  0
 19 20  2  0
 20 21  1  0
 21 22  2  0
  6 23  1  0
 23 24  2  0
 24 25  1  0
 25 26  1  0
 24  3  1  0
 14 10  1  0
 22 17  1  0
  1 27  1  0
  1 28  1  0
  1 29  1  0
  4 30  1  0
  5 31  1  0
  7 32  1  0
  7 33  1  0
  9 34  1  0
  9 35  1  0
 11 36  1  0
 12 37  1  0
 13 38  1  0
 18 39  1  0
 19 40  1  0
 20 41  1  0
 21 42  1  0
 22 43  1  0
 23 44  1  0
 26 45  1  0
 26 46  1  0
 26 47  1  0
M  END
>  <UniqueID>  (40) 
35

>  <SMILES>  (40) 
COc1ccc(CN(Cc2ccco2)C(=O)c2ccccc2)cc1OC

>  <Energy>  (40) 
74.8245468762441

>  <Genealogy>  (40) 
COc1ccc(CN(Cc2ccco2)C(=O)c2ccccc2)cc1OC (3D coordinates assigned)
COc1ccc(CN(Cc2ccco2)C(=O)c2ccccc2)cc1OC (optimized conformer: 74.8245468762441 kcal/mol)

>  <smiles>  (40) 
COc1ccc(CN(Cc2ccco2)C(=O)c2ccccc2)cc1OC

>  <score_type>  (40) 
oracle

>  <origin>  (40) 
adg

>  <m_score__min__energy>  (40) 
-8.8000000000000007

>  <m_primary>  (40) 
energy

$$$$
40:0
     RDKit          3D

 34 36  0  0  0  0  0  0  0  0999 V2000
   -9.0990   20.3380  -31.6360 C   0  0  0  0  0  0  0  0  0  0  0  0
   -9.0960   21.8270  -31.9580 C   0  0  0  0  0  0  0  0  0  0  0  0
   -7.7630   22.3890  -31.7520 N   0  0  0  0  0  0  0  0  0  0  0  0
   -7.4600   23.5100  -31.0560 C   0  0  0  0  0  0  0  0  0  0  0  0
   -6.0770   23.6870  -30.9990 C   0  0  0  0  0  0  0  0  0  0  0  0
   -5.3820   24.7940  -30.3210 C   0  0  0  0  0  0  0  0  0  0  0  0
   -5.8300   25.2880  -29.0590 N   0  0  0  0  0  0  0  0  0  0  0  0
   -4.3490   25.2880  -30.8450 O   0  0  0  0  0  0  0  0  0  0  0  0
   -5.5340   22.5980  -31.6690 C   0  0  0  0  0  0  0  0  0  0  0  0
   -4.2240   22.1610  -31.8530 C   0  0  0  0  0  0  0  0  0  0  0  0
   -4.0290   20.9490  -32.5390 C   0  0  0  0  0  0  0  0  0  0  0  0
   -5.1470   20.2040  -33.0040 C   0  0  0  0  0  0  0  0  0  0  0  0
   -4.9780   18.9140  -33.7190 C   0  0  0  0  0  0  0  0  0  0  0  0
   -6.0580   18.0310  -33.9070 C   0  0  0  0  0  0  0  0  0  0  0  0
   -5.8540   16.8220  -34.5780 C   0  0  0  0  0  0  0  0  0  0  0  0
   -4.6190   16.4960  -35.0420 N   0  0  0  0  0  0  0  0  0  0  0  0
   -3.5540   17.3230  -34.8690 C   0  0  0  0  0  0  0  0  0  0  0  0
   -3.7130   18.5410  -34.2030 C   0  0  0  0  0  0  0  0  0  0  0  0
   -6.4130   20.6670  -32.7570 N   0  0  0  0  0  0  0  0  0  0  0  0
   -6.5860   21.8440  -32.1060 C   0  0  0  0  0  0  0  0  0  0  0  0
   -9.0993   20.1988  -30.5448 H   0  0  0  0  0  0  0  0  0  0  0  0
   -9.9981   19.8718  -32.0653 H   0  0  0  0  0  0  0  0  0  0  0  0
   -8.2018   19.8682  -32.0653 H   0  0  0  0  0  0  0  0  0  0  0  0
   -9.3923   21.9717  -33.0074 H   0  0  0  0  0  0  0  0  0  0  0  0
   -9.8061   22.3381  -31.2913 H   0  0  0  0  0  0  0  0  0  0  0  0
   -8.1990   24.1853  -30.6002 H   0  0  0  0  0  0  0  0  0  0  0  0
   -6.5330   24.7630  -28.4930 H   0  0  0  0  0  0  0  0  0  0  0  0
   -5.3660   26.1190  -28.6280 H   0  0  0  0  0  0  0  0  0  0  0  0
   -3.3714   22.7440  -31.4746 H   0  0  0  0  0  0  0  0  0  0  0  0
   -3.0092   20.5766  -32.7162 H   0  0  0  0  0  0  0  0  0  0  0  0
   -7.0573   18.2911  -33.5278 H   0  0  0  0  0  0  0  0  0  0  0  0
   -6.6965   16.1316  -34.7311 H   0  0  0  0  0  0  0  0  0  0  0  0
   -2.5653   17.0328  -35.2540 H   0  0  0  0  0  0  0  0  0  0  0  0
   -2.8493   19.2066  -34.0579 H   0  0  0  0  0  0  0  0  0  0  0  0
  1  2  1  0
  2  3  1  0
  3  4  1  0
  4  5  2  0
  5  6  1  0
  6  7  1  0
  6  8  2  0
  5  9  1  0
  9 10  2  0
 10 11  1  0
 11 12  2  0
 12 13  1  0
 13 14  2  0
 14 15  1  0
 15 16  2  0
 16 17  1  0
 17 18  2  0
 12 19  1  0
 19 20  2  0
 20  3  1  0
 20  9  1  0
 18 13  1  0
  1 21  1  0
  1 22  1  0
  1 23  1  0
  2 24  1  0
  2 25  1  0
  4 26  1  0
  7 27  1  0
  7 28  1  0
 10 29  1  0
 11 30  1  0
 14 31  1  0
 15 32  1  0
 17 33  1  0
 18 34  1  0
M  END
>  <UniqueID>  (41) 
36

>  <SMILES>  (41) 
CCn1cc(C(N)=O)c2ccc(-c3ccncc3)nc21

>  <Energy>  (41) 
74.28266192352885

>  <Genealogy>  (41) 
CCn1cc(C(N)=O)c2ccc(-c3ccncc3)nc21 (3D coordinates assigned)
CCn1cc(C(N)=O)c2ccc(-c3ccncc3)nc21 (optimized conformer: 74.28266192352885 kcal/mol)

>  <smiles>  (41) 
CCn1cc(C(N)=O)c2ccc(-c3ccncc3)nc21

>  <score_type>  (41) 
oracle

>  <origin>  (41) 
adg

>  <m_score__min__energy>  (41) 
-8.6099999999999994

>  <m_primary>  (41) 
energy

$$$$
41:0
     RDKit          3D

 36 38  0  0  0  0  0  0  0  0999 V2000
   -9.1434   23.0141  -30.6331 H   0  0  0  0  0  0  0  0  0  0  0  0
   -8.2910   22.7330  -31.2690 C   0  0  0  0  0  0  0  0  0  0  0  0
   -8.5070   21.8880  -32.2380 N   0  0  0  0  0  0  0  0  0  0  0  0
   -7.9250   20.5850  -32.4050 C   0  0  0  0  0  0  0  0  0  0  0  0
   -8.4460   19.4580  -31.7480 C   0  0  0  0  0  0  0  0  0  0  0  0
   -9.3037   19.5684  -31.0682 H   0  0  0  0  0  0  0  0  0  0  0  0
   -7.8800   18.1980  -31.9540 C   0  0  0  0  0  0  0  0  0  0  0  0
   -8.2847   17.3250  -31.4210 H   0  0  0  0  0  0  0  0  0  0  0  0
   -6.7970   18.0350  -32.8370 C   0  0  0  0  0  0  0  0  0  0  0  0
   -6.2100   16.7340  -33.0490 N   0  0  0  0  0  0  0  0  0  0  0  0
   -5.2530   16.1350  -32.3070 C   0  0  0  0  0  0  0  0  0  0  0  0
   -4.7935   16.5939  -31.4192 H   0  0  0  0  0  0  0  0  0  0  0  0
   -4.9220   14.9130  -32.7730 N   0  0  0  0  0  0  0  0  0  0  0  0
   -5.7080   14.7440  -33.8540 C   0  0  0  0  0  0  0  0  0  0  0  0
   -5.7155   13.8534  -34.4996 H   0  0  0  0  0  0  0  0  0  0  0  0
   -6.5000   15.8560  -34.0270 C   0  0  0  0  0  0  0  0  0  0  0  0
   -7.2416   16.0020  -34.8262 H   0  0  0  0  0  0  0  0  0  0  0  0
   -6.3050   19.1620  -33.5200 C   0  0  0  0  0  0  0  0  0  0  0  0
   -5.4660   19.0508  -34.2226 H   0  0  0  0  0  0  0  0  0  0  0  0
   -6.8740   20.4230  -33.3130 C   0  0  0  0  0  0  0  0  0  0  0  0
   -6.4923   21.2926  -33.8680 H   0  0  0  0  0  0  0  0  0  0  0  0
   -6.9750   23.3390  -30.9680 C   0  0  0  0  0  0  0  0  0  0  0  0
   -6.8730   24.5910  -30.3390 C   0  0  0  0  0  0  0  0  0  0  0  0
   -7.7849   25.1477  -30.0773 H   0  0  0  0  0  0  0  0  0  0  0  0
   -5.6190   25.1330  -30.0440 C   0  0  0  0  0  0  0  0  0  0  0  0
   -5.5487   26.1215  -29.5665 H   0  0  0  0  0  0  0  0  0  0  0  0
   -4.4450   24.4200  -30.3550 C   0  0  0  0  0  0  0  0  0  0  0  0
   -3.1670   24.9320  -30.0780 O   0  0  0  0  0  0  0  0  0  0  0  0
   -2.3730   24.5550  -28.9590 C   0  0  0  0  0  0  0  0  0  0  0  0
   -2.9051   24.8077  -28.0300 H   0  0  0  0  0  0  0  0  0  0  0  0
   -2.1853   23.4716  -28.9910 H   0  0  0  0  0  0  0  0  0  0  0  0
   -1.4148   25.0943  -28.9910 H   0  0  0  0  0  0  0  0  0  0  0  0
   -4.5510   23.1560  -30.9530 C   0  0  0  0  0  0  0  0  0  0  0  0
   -2.9820   22.1450  -31.3780 Br  0  0  0  0  0  0  0  0  0  0  0  0
   -5.8080   22.6170  -31.2480 C   0  0  0  0  0  0  0  0  0  0  0  0
   -5.8803   21.6183  -31.7034 H   0  0  0  0  0  0  0  0  0  0  0  0
  1  2  1  0
  2  3  2  0
  3  4  1  0
  4  5  2  0
  5  6  1  0
  5  7  1  0
  7  8  1  0
  7  9  2  0
  9 10  1  0
 10 11  1  0
 11 12  1  0
 11 13  2  0
 13 14  1  0
 14 15  1  0
 14 16  2  0
 16 17  1  0
  9 18  1  0
 18 19  1  0
 18 20  2  0
 20 21  1  0
  2 22  1  0
 22 23  2  0
 23 24  1  0
 23 25  1  0
 25 26  1  0
 25 27  2  0
 27 28  1  0
 28 29  1  0
 29 30  1  0
 29 31  1  0
 29 32  1  0
 27 33  1  0
 33 34  1  0
 33 35  2  0
 35 36  1  0
 20  4  1  0
 35 22  1  0
 16 10  1  0
M  END
>  <UniqueID>  (42) 
37

>  <SMILES>  (42) 
COc1ccc(/C=N\c2ccc(-n3ccnc3)cc2)cc1Br

>  <Energy>  (42) 
81.81212392251322

>  <Genealogy>  (42) 
COc1ccc(/C=N\c2ccc(-n3ccnc3)cc2)cc1Br (cis-trans isomerization)
COc1ccc(/C=N\c2ccc(-n3ccnc3)cc2)cc1Br (3D coordinates assigned)
COc1ccc(/C=N\c2ccc(-n3ccnc3)cc2)cc1Br (optimized conformer: 81.81212392251322 kcal/mol)

>  <smiles>  (42) 
COc1ccc(C=Nc2ccc(-n3ccnc3)cc2)cc1Br

>  <score_type>  (42) 
oracle

>  <origin>  (42) 
adg

>  <m_score__min__energy>  (42) 
-8.4900000000000002

>  <m_primary>  (42) 
energy

$$$$
42:0
     RDKit          3D

 25 27  0  0  0  0  0  0  0  0999 V2000
   -8.0101   24.0105  -29.5600 H   0  0  0  0  0  0  0  0  0  0  0  0
   -7.1250   23.7620  -30.1640 C   0  0  0  0  0  0  0  0  0  0  0  0
   -5.9120   24.4180  -29.9270 C   0  0  0  0  0  0  0  0  0  0  0  0
   -5.8419   25.1692  -29.1265 H   0  0  0  0  0  0  0  0  0  0  0  0
   -4.7800   24.1190  -30.7110 C   0  0  0  0  0  0  0  0  0  0  0  0
   -3.5060   24.7420  -30.4790 N   0  0  0  0  0  0  0  0  0  0  0  0
   -2.7190   24.5530  -29.4590 C   0  0  0  0  0  0  0  0  0  0  0  0
   -1.9090   25.5330  -28.9620 N   0  0  0  0  0  0  0  0  0  0  0  0
   -1.0650   24.8310  -27.7070 S   0  0  0  0  0  0  0  0  0  0  0  0
   -1.6970   23.2950  -27.7820 C   0  0  0  0  0  0  0  0  0  0  0  0
   -1.4270   22.1680  -27.0120 C   0  0  0  0  0  0  0  0  0  0  0  0
   -0.6940   22.2005  -26.1924 H   0  0  0  0  0  0  0  0  0  0  0  0
   -2.1230   20.9880  -27.3180 C   0  0  0  0  0  0  0  0  0  0  0  0
   -1.9374   20.0760  -26.7317 H   0  0  0  0  0  0  0  0  0  0  0  0
   -3.0590   20.9650  -28.3730 C   0  0  0  0  0  0  0  0  0  0  0  0
   -3.5989   20.0346  -28.6028 H   0  0  0  0  0  0  0  0  0  0  0  0
   -3.3080   22.1220  -29.1340 C   0  0  0  0  0  0  0  0  0  0  0  0
   -4.0366   22.1051  -29.9579 H   0  0  0  0  0  0  0  0  0  0  0  0
   -2.6100   23.2960  -28.8220 C   0  0  0  0  0  0  0  0  0  0  0  0
   -4.8730   23.1230  -31.6920 C   0  0  0  0  0  0  0  0  0  0  0  0
   -3.9848   22.8532  -32.2822 H   0  0  0  0  0  0  0  0  0  0  0  0
   -6.0860   22.4700  -31.9260 C   0  0  0  0  0  0  0  0  0  0  0  0
   -6.1530   21.7010  -32.7097 H   0  0  0  0  0  0  0  0  0  0  0  0
   -7.2150   22.7920  -31.1660 C   0  0  0  0  0  0  0  0  0  0  0  0
   -8.8710   21.8960  -31.4840 Br  0  0  0  0  0  0  0  0  0  0  0  0
  1  2  1  0
  2  3  2  0
  3  4  1  0
  3  5  1  0
  5  6  1  0
  6  7  2  0
  7  8  1  0
  8  9  1  0
  9 10  1  0
 10 11  2  0
 11 12  1  0
 11 13  1  0
 13 14  1  0
 13 15  2  0
 15 16  1  0
 15 17  1  0
 17 18  1  0
 17 19  2  0
  5 20  2  0
 20 21  1  0
 20 22  1  0
 22 23  1  0
 22 24  2  0
 24 25  1  0
 24  2  1  0
 19  7  1  0
 19 10  1  0
M  CHG  1   8  -1
M  END
>  <UniqueID>  (43) 
38

>  <SMILES>  (43) 
Brc1ccc(/N=c2\[n-]sc3ccccc23)cc1

>  <Energy>  (43) 
72.10156350252912

>  <Genealogy>  (43) 
Brc1ccc(N=c2[n-]sc3ccccc23)cc1 (protonated)
Brc1ccc(/N=c2\[n-]sc3ccccc23)cc1 (cis-trans isomerization)
Brc1ccc(/N=c2\[n-]sc3ccccc23)cc1 (3D coordinates assigned)
Brc1ccc(/N=c2\[n-]sc3ccccc23)cc1 (optimized conformer: 72.10156350252912 kcal/mol)

>  <smiles>  (43) 
Brc1ccc(N=c2[nH]sc3ccccc23)cc1

>  <score_type>  (43) 
oracle

>  <origin>  (43) 
adg

>  <m_score__min__energy>  (43) 
-8.9199999999999999

>  <m_primary>  (43) 
energy

$$$$
43:0
     RDKit          3D

 45 47  0  0  0  0  0  0  0  0999 V2000
   -9.4160   19.2340  -32.3210 C   0  0  0  0  0  0  0  0  0  0  0  0
   -8.9670   20.6920  -32.3090 C   0  0  0  0  0  0  0  0  0  0  0  0
   -7.9450   20.9450  -31.1960 C   0  0  0  0  0  0  0  0  0  0  0  0
   -6.6970   21.4910  -31.7430 N   0  0  0  0  0  0  0  0  0  0  0  0
   -5.7750   20.8910  -32.5390 C   0  0  0  0  0  0  0  0  0  0  0  0
   -5.8310   19.5020  -33.0290 C   0  0  0  0  0  0  0  0  0  0  0  0
   -5.9910   18.4250  -32.1420 C   0  0  0  0  0  0  0  0  0  0  0  0
   -6.0450   17.1150  -32.6290 C   0  0  0  0  0  0  0  0  0  0  0  0
   -5.9230   16.8700  -33.9990 C   0  0  0  0  0  0  0  0  0  0  0  0
   -5.7370   17.9350  -34.8850 C   0  0  0  0  0  0  0  0  0  0  0  0
   -5.6840   19.2460  -34.4020 C   0  0  0  0  0  0  0  0  0  0  0  0
   -4.7880   21.7450  -32.8850 N   0  0  0  0  0  0  0  0  0  0  0  0
   -5.0660   22.8930  -32.2920 N   0  0  0  0  0  0  0  0  0  0  0  0
   -6.2160   22.7470  -31.6140 C   0  0  0  0  0  0  0  0  0  0  0  0
   -6.9590   24.0600  -30.6380 S   0  0  0  0  0  0  0  0  0  0  0  0
   -5.5190   24.2900  -29.5360 C   0  0  0  0  0  0  0  0  0  0  0  0
   -4.4190   25.0420  -30.2160 C   0  0  0  0  0  0  0  0  0  0  0  0
   -4.6640   25.6440  -31.2930 O   0  0  0  0  0  0  0  0  0  0  0  0
   -3.0830   24.9600  -29.7010 N   0  0  0  0  0  0  0  0  0  0  0  0
   -2.2440   23.8030  -29.5390 C   0  0  0  0  0  0  0  0  0  0  0  0
   -1.2870   23.8240  -28.5140 C   0  0  0  0  0  0  0  0  0  0  0  0
   -0.4270   22.7380  -28.3200 C   0  0  0  0  0  0  0  0  0  0  0  0
   -0.5100   21.6240  -29.1560 C   0  0  0  0  0  0  0  0  0  0  0  0
   -1.4450   21.5970  -30.1930 C   0  0  0  0  0  0  0  0  0  0  0  0
   -2.3100   22.6790  -30.3880 C   0  0  0  0  0  0  0  0  0  0  0  0
   -9.5263   18.8758  -31.2868 H   0  0  0  0  0  0  0  0  0  0  0  0
  -10.3811   19.1518  -32.8424 H   0  0  0  0  0  0  0  0  0  0  0  0
   -8.6643   18.6231  -32.8424 H   0  0  0  0  0  0  0  0  0  0  0  0
   -8.5091   20.9350  -33.2792 H   0  0  0  0  0  0  0  0  0  0  0  0
   -9.8465   21.3270  -32.1268 H   0  0  0  0  0  0  0  0  0  0  0  0
   -8.3667   21.6622  -30.4765 H   0  0  0  0  0  0  0  0  0  0  0  0
   -7.7220   19.9886  -30.7005 H   0  0  0  0  0  0  0  0  0  0  0  0
   -6.0741   18.6122  -31.0612 H   0  0  0  0  0  0  0  0  0  0  0  0
   -6.1839   16.2757  -31.9317 H   0  0  0  0  0  0  0  0  0  0  0  0
   -5.9733   15.8394  -34.3803 H   0  0  0  0  0  0  0  0  0  0  0  0
   -5.6323   17.7416  -35.9628 H   0  0  0  0  0  0  0  0  0  0  0  0
   -5.5264   20.0808  -35.1007 H   0  0  0  0  0  0  0  0  0  0  0  0
   -4.4820   23.7550  -32.3600 H   0  0  0  0  0  0  0  0  0  0  0  0
   -5.8374   24.8513  -28.6452 H   0  0  0  0  0  0  0  0  0  0  0  0
   -5.1361   23.2968  -29.2587 H   0  0  0  0  0  0  0  0  0  0  0  0
   -1.2120   24.7027  -27.8565 H   0  0  0  0  0  0  0  0  0  0  0  0
    0.3149   22.7622  -27.5082 H   0  0  0  0  0  0  0  0  0  0  0  0
    0.1611   20.7669  -28.9983 H   0  0  0  0  0  0  0  0  0  0  0  0
   -1.5014   20.7227  -30.8582 H   0  0  0  0  0  0  0  0  0  0  0  0
   -3.0443   22.6529  -31.2066 H   0  0  0  0  0  0  0  0  0  0  0  0
  1  2  1  0
  2  3  1  0
  3  4  1  0
  4  5  1  0
  5  6  1  0
  6  7  2  0
  7  8  1  0
  8  9  2  0
  9 10  1  0
 10 11  2  0
  5 12  2  0
 12 13  1  0
 13 14  2  0
 14 15  1  0
 15 16  1  0
 16 17  1  0
 17 18  2  0
 17 19  1  0
 19 20  1  0
 20 21  2  0
 21 22  1  0
 22 23  2  0
 23 24  1  0
 24 25  2  0
 14  4  1  0
 25 20  1  0
 11  6  1  0
  1 26  1  0
  1 27  1  0
  1 28  1  0
  2 29  1  0
  2 30  1  0
  3 31  1  0
  3 32  1  0
  7 33  1  0
  8 34  1  0
  9 35  1  0
 10 36  1  0
 11 37  1  0
 13 38  1  0
 16 39  1  0
 16 40  1  0
 21 41  1  0
 22 42  1  0
 23 43  1  0
 24 44  1  0
 25 45  1  0
M  CHG  2  13   1  19  -1
M  END
>  <UniqueID>  (44) 
39

>  <SMILES>  (44) 
CCCn1c(-c2ccccc2)n[nH+]c1SCC(=O)[N-]c1ccccc1

>  <Energy>  (44) 
80.09855645895387

>  <Genealogy>  (44) 
CCCn1c(-c2ccccc2)n[nH+]c1SCC(=O)[N-]c1ccccc1 (protonated)
CCCn1c(-c2ccccc2)n[nH+]c1SCC(=O)[N-]c1ccccc1 (3D coordinates assigned)
CCCn1c(-c2ccccc2)n[nH+]c1SCC(=O)[N-]c1ccccc1 (optimized conformer: 80.09855645895387 kcal/mol)

>  <smiles>  (44) 
CCCn1c(SCC(=O)Nc2ccccc2)nnc1-c1ccccc1

>  <score_type>  (44) 
oracle

>  <origin>  (44) 
adg

>  <m_score__min__energy>  (44) 
-10.220000000000001

>  <m_primary>  (44) 
energy

$$$$
44:0
     RDKit          3D

 56 59  0  0  0  0  0  0  0  0999 V2000
    2.1151   20.0102  -36.5024 H   0  0  0  0  0  0  0  0  0  0  0  0
    1.1820   19.8660  -35.9380 C   0  0  0  0  0  0  0  0  0  0  0  0
    0.6670   18.5790  -35.7550 C   0  0  0  0  0  0  0  0  0  0  0  0
    1.1931   17.7115  -36.1800 H   0  0  0  0  0  0  0  0  0  0  0  0
   -0.5150   18.3930  -35.0330 C   0  0  0  0  0  0  0  0  0  0  0  0
   -0.9236   17.3802  -34.9012 H   0  0  0  0  0  0  0  0  0  0  0  0
   -1.1830   19.4960  -34.4750 C   0  0  0  0  0  0  0  0  0  0  0  0
   -2.4560   19.3080  -33.7450 C   0  0  0  0  0  0  0  0  0  0  0  0
   -3.1790   18.1530  -33.8120 C   0  0  0  0  0  0  0  0  0  0  0  0
   -2.6610   16.8710  -33.1750 C   0  0  0  0  0  0  0  0  0  0  0  0
   -2.2560   15.9860  -34.1570 F   0  0  0  0  0  0  0  0  0  0  0  0
   -1.5940   17.1500  -32.3410 F   0  0  0  0  0  0  0  0  0  0  0  0
   -3.6390   16.2510  -32.4160 F   0  0  0  0  0  0  0  0  0  0  0  0
   -4.4900   18.0760  -34.5820 C   0  0  0  0  0  0  0  0  0  0  0  0
   -4.6032   17.0666  -35.0043 H   0  0  0  0  0  0  0  0  0  0  0  0
   -4.4740   18.8243  -35.3881 H   0  0  0  0  0  0  0  0  0  0  0  0
   -5.6550   18.3660  -33.6700 C   0  0  0  0  0  0  0  0  0  0  0  0
   -6.4630   19.4940  -33.8950 C   0  0  0  0  0  0  0  0  0  0  0  0
   -6.2364   20.1719  -34.7311 H   0  0  0  0  0  0  0  0  0  0  0  0
   -7.5530   19.7580  -33.0610 C   0  0  0  0  0  0  0  0  0  0  0  0
   -8.1807   20.6430  -33.2418 H   0  0  0  0  0  0  0  0  0  0  0  0
   -7.8470   18.9000  -31.9980 C   0  0  0  0  0  0  0  0  0  0  0  0
   -8.9050   19.1580  -31.1910 F   0  0  0  0  0  0  0  0  0  0  0  0
   -7.0470   17.7770  -31.7650 C   0  0  0  0  0  0  0  0  0  0  0  0
   -7.2764   17.1032  -30.9263 H   0  0  0  0  0  0  0  0  0  0  0  0
   -5.9560   17.5100  -32.5970 C   0  0  0  0  0  0  0  0  0  0  0  0
   -5.3297   16.6251  -32.4108 H   0  0  0  0  0  0  0  0  0  0  0  0
   -2.9190   20.4710  -32.9590 C   0  0  0  0  0  0  0  0  0  0  0  0
   -2.2470   20.8480  -31.7870 C   0  0  0  0  0  0  0  0  0  0  0  0
   -1.3824   20.2638  -31.4390 H   0  0  0  0  0  0  0  0  0  0  0  0
   -2.6720   21.9630  -31.0600 C   0  0  0  0  0  0  0  0  0  0  0  0
   -2.1443   22.2493  -30.1383 H   0  0  0  0  0  0  0  0  0  0  0  0
   -3.7730   22.7220  -31.5020 C   0  0  0  0  0  0  0  0  0  0  0  0
   -4.2500   23.8430  -30.8030 O   0  0  0  0  0  0  0  0  0  0  0  0
   -5.3240   23.8310  -29.8610 C   0  0  0  0  0  0  0  0  0  0  0  0
   -5.0531   23.1842  -29.0135 H   0  0  0  0  0  0  0  0  0  0  0  0
   -5.5016   24.8602  -29.5158 H   0  0  0  0  0  0  0  0  0  0  0  0
   -6.5870   23.3100  -30.4960 C   0  0  0  0  0  0  0  0  0  0  0  0
   -7.0070   23.8100  -31.7400 C   0  0  0  0  0  0  0  0  0  0  0  0
   -6.4098   24.5794  -32.2512 H   0  0  0  0  0  0  0  0  0  0  0  0
   -8.1820   23.3330  -32.3310 C   0  0  0  0  0  0  0  0  0  0  0  0
   -8.5027   23.7222  -33.3086 H   0  0  0  0  0  0  0  0  0  0  0  0
   -8.9490   22.3620  -31.6800 C   0  0  0  0  0  0  0  0  0  0  0  0
   -9.8713   21.9854  -32.1464 H   0  0  0  0  0  0  0  0  0  0  0  0
   -8.5430   21.8700  -30.4360 C   0  0  0  0  0  0  0  0  0  0  0  0
   -9.1485   21.1082  -29.9231 H   0  0  0  0  0  0  0  0  0  0  0  0
   -7.3690   22.3440  -29.8420 C   0  0  0  0  0  0  0  0  0  0  0  0
   -7.0572   21.9592  -28.8598 H   0  0  0  0  0  0  0  0  0  0  0  0
   -4.4210   22.3570  -32.6880 C   0  0  0  0  0  0  0  0  0  0  0  0
   -5.2722   22.9525  -33.0498 H   0  0  0  0  0  0  0  0  0  0  0  0
   -3.9960   21.2430  -33.4160 C   0  0  0  0  0  0  0  0  0  0  0  0
   -4.5081   20.9708  -34.3507 H   0  0  0  0  0  0  0  0  0  0  0  0
   -0.6730   20.7880  -34.6810 C   0  0  0  0  0  0  0  0  0  0  0  0
   -1.2060   21.6595  -34.2730 H   0  0  0  0  0  0  0  0  0  0  0  0
    0.5100   20.9700  -35.4030 C   0  0  0  0  0  0  0  0  0  0  0  0
    0.9130   21.9828  -35.5507 H   0  0  0  0  0  0  0  0  0  0  0  0
  1  2  1  0
  2  3  2  0
  3  4  1  0
  3  5  1  0
  5  6  1  0
  5  7  2  0
  7  8  1  0
  8  9  2  0
  9 10  1  0
 10 11  1  0
 10 12  1  0
 10 13  1  0
  9 14  1  0
 14 15  1  0
 14 16  1  0
 14 17  1  0
 17 18  2  0
 18 19  1  0
 18 20  1  0
 20 21  1  0
 20 22  2  0
 22 23  1  0
 22 24  1  0
 24 25  1  0
 24 26  2  0
 26 27  1  0
  8 28  1  0
 28 29  2  0
 29 30  1  0
 29 31  1  0
 31 32  1  0
 31 33  2  0
 33 34  1  0
 34 35  1  0
 35 36  1  0
 35 37  1  0
 35 38  1  0
 38 39  2  0
 39 40  1  0
 39 41  1  0
 41 42  1  0
 41 43  2  0
 43 44  1  0
 43 45  1  0
 45 46  1  0
 45 47  2  0
 47 48  1  0
 33 49  1  0
 49 50  1  0
 49 51  2  0
 51 52  1  0
  7 53  1  0
 53 54  1  0
 53 55  2  0
 55 56  1  0
 55  2  1  0
 26 17  1  0
 51 28  1  0
 47 38  1  0
M  END
>  <UniqueID>  (45) 
40

>  <SMILES>  (45) 
Fc1ccc(C/C(=C(\c2ccccc2)c2ccc(OCc3ccccc3)cc2)C(F)(F)F)cc1

>  <Energy>  (45) 
76.000158870148

>  <Genealogy>  (45) 
Fc1ccc(C/C(=C(\c2ccccc2)c2ccc(OCc3ccccc3)cc2)C(F)(F)F)cc1 (cis-trans isomerization)
Fc1ccc(C/C(=C(\c2ccccc2)c2ccc(OCc3ccccc3)cc2)C(F)(F)F)cc1 (3D coordinates assigned)
Fc1ccc(C/C(=C(\c2ccccc2)c2ccc(OCc3ccccc3)cc2)C(F)(F)F)cc1 (optimized conformer: 76.000158870148 kcal/mol)

>  <smiles>  (45) 
Fc1ccc(CC(=C(c2ccccc2)c2ccc(OCc3ccccc3)cc2)C(F)(F)F)cc1

>  <score_type>  (45) 
oracle

>  <origin>  (45) 
adg

>  <m_score__min__energy>  (45) 
-9.3399999999999999

>  <m_primary>  (45) 
energy

$$$$
46:0
     RDKit          3D

 54 58  0  0  0  0  0  0  0  0999 V2000
   -2.7170   14.5050  -36.9600 C   0  0  0  0  0  0  0  0  0  0  0  0
   -1.5120   14.6810  -36.2510 O   0  0  0  0  0  0  0  0  0  0  0  0
   -1.7860   15.2920  -35.0080 C   0  0  0  0  0  0  0  0  0  0  0  0
   -1.0880   16.6260  -34.9560 C   0  0  0  0  0  0  0  0  0  0  0  0
   -0.3350   17.0310  -36.0100 N   0  0  0  0  0  0  0  0  0  0  0  0
    0.2840   18.2390  -36.0150 C   0  0  0  0  0  0  0  0  0  0  0  0
    1.0580   18.6170  -37.1200 C   0  0  0  0  0  0  0  0  0  0  0  0
    1.6950   19.8540  -37.1510 C   0  0  0  0  0  0  0  0  0  0  0  0
    1.5590   20.7470  -36.0810 C   0  0  0  0  0  0  0  0  0  0  0  0
    2.2280   22.0700  -36.1190 C   0  0  0  0  0  0  0  0  0  0  0  0
    3.2280   22.2610  -36.8620 O   0  0  0  0  0  0  0  0  0  0  0  0
    1.7630   23.1180  -35.3290 O   0  0  0  0  0  0  0  0  0  0  0  0
    0.7790   20.3770  -34.9720 C   0  0  0  0  0  0  0  0  0  0  0  0
    0.1440   19.1110  -34.9050 C   0  0  0  0  0  0  0  0  0  0  0  0
   -0.6080   18.7030  -33.8140 N   0  0  0  0  0  0  0  0  0  0  0  0
   -0.6850   19.5000  -32.5620 C   0  0  0  0  0  0  0  0  0  0  0  0
   -2.0600   20.1030  -32.4040 C   0  0  0  0  0  0  0  0  0  0  0  0
   -2.8130   20.4430  -33.5400 C   0  0  0  0  0  0  0  0  0  0  0  0
   -4.1160   20.9290  -33.4090 C   0  0  0  0  0  0  0  0  0  0  0  0
   -4.6930   21.0680  -32.1390 C   0  0  0  0  0  0  0  0  0  0  0  0
   -6.0820   21.5510  -32.0020 C   0  0  0  0  0  0  0  0  0  0  0  0
   -7.1240   20.6600  -32.3150 C   0  0  0  0  0  0  0  0  0  0  0  0
   -8.4540   21.0780  -32.2620 C   0  0  0  0  0  0  0  0  0  0  0  0
   -8.7600   22.3900  -31.8930 C   0  0  0  0  0  0  0  0  0  0  0  0
   -7.7390   23.2860  -31.5690 C   0  0  0  0  0  0  0  0  0  0  0  0
   -6.3900   22.8830  -31.6070 C   0  0  0  0  0  0  0  0  0  0  0  0
   -5.3510   23.8610  -31.1930 C   0  0  0  0  0  0  0  0  0  0  0  0
   -5.5030   25.1990  -31.1930 N   0  0  0  0  0  0  0  0  0  0  0  0
   -4.3350   25.6760  -30.7930 N   0  0  0  0  0  0  0  0  0  0  0  0
   -3.5000   24.6760  -30.5650 N   0  0  0  0  0  0  0  0  0  0  0  0
   -4.1050   23.5250  -30.8090 N   0  0  0  0  0  0  0  0  0  0  0  0
   -3.9340   20.7630  -30.9990 C   0  0  0  0  0  0  0  0  0  0  0  0
   -2.6270   20.2880  -31.1300 C   0  0  0  0  0  0  0  0  0  0  0  0
   -1.2400   17.4780  -33.8500 C   0  0  0  0  0  0  0  0  0  0  0  0
   -1.9670   17.1010  -32.8870 O   0  0  0  0  0  0  0  0  0  0  0  0
   -3.5469   14.3838  -36.2482 H   0  0  0  0  0  0  0  0  0  0  0  0
   -2.9022   15.3856  -37.5926 H   0  0  0  0  0  0  0  0  0  0  0  0
   -2.6426   13.6082  -37.5926 H   0  0  0  0  0  0  0  0  0  0  0  0
   -2.8708   15.4383  -34.8996 H   0  0  0  0  0  0  0  0  0  0  0  0
   -1.4261   14.6507  -34.1899 H   0  0  0  0  0  0  0  0  0  0  0  0
   -0.2360   16.3980  -36.8390 H   0  0  0  0  0  0  0  0  0  0  0  0
    1.1633   17.9290  -37.9718 H   0  0  0  0  0  0  0  0  0  0  0  0
    2.3086   20.1317  -38.0207 H   0  0  0  0  0  0  0  0  0  0  0  0
    0.6586   21.0845  -34.1384 H   0  0  0  0  0  0  0  0  0  0  0  0
   -0.4755   18.8459  -31.7028 H   0  0  0  0  0  0  0  0  0  0  0  0
    0.0563   20.3112  -32.6100 H   0  0  0  0  0  0  0  0  0  0  0  0
   -2.3728   20.3255  -34.5412 H   0  0  0  0  0  0  0  0  0  0  0  0
   -4.6913   21.2036  -34.3055 H   0  0  0  0  0  0  0  0  0  0  0  0
   -6.8885   19.6251  -32.6040 H   0  0  0  0  0  0  0  0  0  0  0  0
   -9.2619   20.3742  -32.5109 H   0  0  0  0  0  0  0  0  0  0  0  0
   -9.8091   22.7187  -31.8575 H   0  0  0  0  0  0  0  0  0  0  0  0
   -7.9910   24.3173  -31.2811 H   0  0  0  0  0  0  0  0  0  0  0  0
   -4.3699   20.8985  -29.9982 H   0  0  0  0  0  0  0  0  0  0  0  0
   -2.0371   20.0570  -30.2308 H   0  0  0  0  0  0  0  0  0  0  0  0
  1  2  1  0
  2  3  1  0
  3  4  1  0
  4  5  2  0
  5  6  1  0
  6  7  2  0
  7  8  1  0
  8  9  2  0
  9 10  1  0
 10 11  2  0
 10 12  1  0
  9 13  1  0
 13 14  2  0
 14 15  1  0
 15 16  1  0
 16 17  1  0
 17 18  2  0
 18 19  1  0
 19 20  2  0
 20 21  1  0
 21 22  2  0
 22 23  1  0
 23 24  2  0
 24 25  1  0
 25 26  2  0
 26 27  1  0
 27 28  1  0
 28 29  2  0
 29 30  1  0
 30 31  1  0
 20 32  1  0
 32 33  2  0
 15 34  1  0
 34 35  2  0
 34  4  1  0
 14  6  1  0
 33 17  1  0
 26 21  1  0
 31 27  2  0
  1 36  1  0
  1 37  1  0
  1 38  1  0
  3 39  1  0
  3 40  1  0
  5 41  1  0
  7 42  1  0
  8 43  1  0
 13 44  1  0
 16 45  1  0
 16 46  1  0
 18 47  1  0
 19 48  1  0
 22 49  1  0
 23 50  1  0
 24 51  1  0
 25 52  1  0
 32 53  1  0
 33 54  1  0
M  CHG  3   5   1  12  -1  30  -1
M  END
>  <UniqueID>  (46) 
41

>  <SMILES>  (46) 
COCc1[nH+]c2ccc(C(=O)[O-])cc2n(Cc2ccc(-c3ccccc3-c3nn[n-]n3)cc2)c1=O

>  <Energy>  (46) 
122.55297923641328

>  <Genealogy>  (46) 
COCc1[nH+]c2ccc(C(=O)[O-])cc2n(Cc2ccc(-c3ccccc3-c3nn[n-]n3)cc2)c1=O (protonated)
COCc1[nH+]c2ccc(C(=O)[O-])cc2n(Cc2ccc(-c3ccccc3-c3nn[n-]n3)cc2)c1=O (3D coordinates assigned)
COCc1[nH+]c2ccc(C(=O)[O-])cc2n(Cc2ccc(-c3ccccc3-c3nn[n-]n3)cc2)c1=O (optimized conformer: 122.55297923641328 kcal/mol)

>  <smiles>  (46) 
COCc1nc2ccc(C(=O)O)cc2n(Cc2ccc(-c3ccccc3-c3nn[nH]n3)cc2)c1=O

>  <score_type>  (46) 
oracle

>  <origin>  (46) 
adg

>  <m_score__min__energy>  (46) 
-12.800000000000001

>  <m_primary>  (46) 
energy

$$$$
47:0
     RDKit          3D

 34 37  0  0  1  0  0  0  0  0999 V2000
   -1.8020   25.1990  -27.5840 C   0  0  0  0  0  0  0  0  0  0  0  0
   -2.0290   25.4480  -28.9630 O   0  0  0  0  0  0  0  0  0  0  0  0
   -2.8420   24.5560  -29.6570 C   0  0  0  0  0  0  0  0  0  0  0  0
   -4.0750   25.0090  -30.1100 C   0  0  0  0  0  0  0  0  0  0  0  0
   -4.9370   24.1830  -30.8070 C   0  0  0  0  0  0  0  0  0  0  0  0
   -4.5300   22.8820  -31.0380 C   0  0  0  0  0  0  0  0  0  0  0  0
   -5.3530   21.9620  -31.7450 N   0  0  0  0  0  0  0  0  0  0  0  0
   -6.6970   21.8530  -31.6080 C   0  0  0  0  0  0  0  0  0  0  0  0
   -7.3700   22.5660  -30.8270 O   0  0  0  0  0  0  0  0  0  0  0  0
   -7.1220   20.8790  -32.4370 N   0  0  0  0  0  0  0  0  0  0  0  0
   -6.0770   20.4260  -33.0440 N   0  0  0  0  0  0  0  0  0  0  0  0
   -4.9430   21.0550  -32.6610 C   0  0  0  0  0  0  0  0  0  0  0  0
   -3.7610   20.8490  -33.0610 O   0  0  0  0  0  0  0  0  0  0  0  0
   -6.8490   19.4770  -33.7910 C   0  0  1  0  0  0  0  0  0  0  0  0
   -6.5520   18.0540  -33.4940 C   0  0  0  0  0  0  0  0  0  0  0  0
   -7.2490   17.2860  -32.6900 C   0  0  0  0  0  0  0  0  0  0  0  0
   -8.4180   17.8040  -32.0000 C   0  0  0  0  0  0  0  0  0  0  0  0
   -8.7500   19.0540  -32.2040 C   0  0  0  0  0  0  0  0  0  0  0  0
   -8.0260   20.0010  -33.0890 C   0  0  1  0  0  0  0  0  0  0  0  0
   -3.3150   22.4350  -30.5910 C   0  0  0  0  0  0  0  0  0  0  0  0
   -2.4510   23.2420  -29.9010 C   0  0  0  0  0  0  0  0  0  0  0  0
   -2.4221   25.8792  -26.9817 H   0  0  0  0  0  0  0  0  0  0  0  0
   -2.0677   24.1573  -27.3509 H   0  0  0  0  0  0  0  0  0  0  0  0
   -0.7403   25.3675  -27.3509 H   0  0  0  0  0  0  0  0  0  0  0  0
   -4.3721   26.0489  -29.9094 H   0  0  0  0  0  0  0  0  0  0  0  0
   -5.9112   24.5475  -31.1648 H   0  0  0  0  0  0  0  0  0  0  0  0
   -6.7910   19.4220  -34.8881 H   0  0  0  0  0  0  0  0  0  0  0  0
   -5.6767   17.6066  -33.9877 H   0  0  0  0  0  0  0  0  0  0  0  0
   -6.9453   16.2399  -32.5370 H   0  0  0  0  0  0  0  0  0  0  0  0
   -9.0069   17.1647  -31.3259 H   0  0  0  0  0  0  0  0  0  0  0  0
   -9.6377   19.4334  -31.6767 H   0  0  0  0  0  0  0  0  0  0  0  0
   -8.9170   20.3532  -33.6294 H   0  0  0  0  0  0  0  0  0  0  0  0
   -3.0240   21.3936  -30.7930 H   0  0  0  0  0  0  0  0  0  0  0  0
   -1.4790   22.8646  -29.5505 H   0  0  0  0  0  0  0  0  0  0  0  0
  1  2  1  0
  2  3  1  0
  3  4  2  0
  4  5  1  0
  5  6  2  0
  6  7  1  0
  7  8  1  0
  8  9  2  0
  8 10  1  0
 10 11  1  0
 11 12  1  0
 12 13  2  0
 11 14  1  0
 14 15  1  0
 15 16  2  0
 16 17  1  0
 17 18  2  0
 18 19  1  0
  6 20  1  0
 20 21  2  0
 21  3  1  0
 12  7  1  0
 19 14  1  0
 19 10  1  0
  1 22  1  0
  1 23  1  0
  1 24  1  0
  4 25  1  0
  5 26  1  0
 14 27  1  6
 15 28  1  0
 16 29  1  0
 17 30  1  0
 18 31  1  0
 19 32  1  6
 20 33  1  0
 21 34  1  0
M  END
>  <smiles>  (47) 
COc1ccc(-n2c(=O)n3n(c2=O)C2C=CC=CC23)cc1

>  <score_type>  (47) 
oracle

>  <origin>  (47) 
adg

>  <m_score__min__energy>  (47) 
-7.7199999999999998

>  <m_primary>  (47) 
energy

$$$$
48:0
     RDKit          3D

 51 55  0  0  0  0  0  0  0  0999 V2000
   -1.0700   23.2750  -25.0970 F   0  0  0  0  0  0  0  0  0  0  0  0
   -1.0050   24.4180  -25.8270 C   0  0  0  0  0  0  0  0  0  0  0  0
   -0.7040   25.6230  -25.1860 C   0  0  0  0  0  0  0  0  0  0  0  0
   -0.6300   26.8090  -25.9190 C   0  0  0  0  0  0  0  0  0  0  0  0
   -0.8570   26.7940  -27.2970 C   0  0  0  0  0  0  0  0  0  0  0  0
   -1.1590   25.5940  -27.9480 C   0  0  0  0  0  0  0  0  0  0  0  0
   -1.3700   25.6070  -29.2890 F   0  0  0  0  0  0  0  0  0  0  0  0
   -1.2350   24.3920  -27.2170 C   0  0  0  0  0  0  0  0  0  0  0  0
   -1.5460   23.0830  -27.9020 C   0  0  0  0  0  0  0  0  0  0  0  0
   -2.9640   23.0400  -28.3130 N   0  0  0  0  0  0  0  0  0  0  0  0
   -3.7120   24.1840  -27.7400 C   0  0  0  0  0  0  0  0  0  0  0  0
   -4.9920   24.4650  -28.5320 C   0  0  0  0  0  0  0  0  0  0  0  0
   -4.6670   24.8730  -29.9160 N   0  0  0  0  0  0  0  0  0  0  0  0
   -5.8360   24.8490  -30.8210 C   0  0  0  0  0  0  0  0  0  0  0  0
   -6.2550   23.4590  -31.2230 C   0  0  0  0  0  0  0  0  0  0  0  0
   -7.4120   22.8750  -30.8250 N   0  0  0  0  0  0  0  0  0  0  0  0
   -7.5450   21.6180  -31.3230 C   0  0  0  0  0  0  0  0  0  0  0  0
   -8.6320   20.7800  -31.0700 C   0  0  0  0  0  0  0  0  0  0  0  0
   -8.6520   19.4980  -31.6430 C   0  0  0  0  0  0  0  0  0  0  0  0
   -7.5880   19.0610  -32.4650 C   0  0  0  0  0  0  0  0  0  0  0  0
   -7.6080   17.7800  -33.0370 C   0  0  0  0  0  0  0  0  0  0  0  0
   -6.5520   17.3550  -33.8470 C   0  0  0  0  0  0  0  0  0  0  0  0
   -5.4680   18.2030  -34.0950 C   0  0  0  0  0  0  0  0  0  0  0  0
   -5.4310   19.4830  -33.5350 C   0  0  0  0  0  0  0  0  0  0  0  0
   -6.4860   19.9220  -32.7180 C   0  0  0  0  0  0  0  0  0  0  0  0
   -6.4990   21.1940  -32.1320 C   0  0  0  0  0  0  0  0  0  0  0  0
   -5.3610   22.4330  -32.2320 S   0  0  0  0  0  0  0  0  0  0  0  0
   -3.4480   24.2390  -30.4740 C   0  0  0  0  0  0  0  0  0  0  0  0
   -3.1190   22.9030  -29.7860 C   0  0  0  0  0  0  0  0  0  0  0  0
   -0.5249   25.6370  -24.1008 H   0  0  0  0  0  0  0  0  0  0  0  0
   -0.3929   27.7554  -25.4111 H   0  0  0  0  0  0  0  0  0  0  0  0
   -0.7980   27.7297  -27.8723 H   0  0  0  0  0  0  0  0  0  0  0  0
   -0.9076   22.9791  -28.7918 H   0  0  0  0  0  0  0  0  0  0  0  0
   -1.3534   22.2586  -27.1996 H   0  0  0  0  0  0  0  0  0  0  0  0
   -3.9789   23.9519  -26.6984 H   0  0  0  0  0  0  0  0  0  0  0  0
   -3.0711   25.0767  -27.7881 H   0  0  0  0  0  0  0  0  0  0  0  0
   -5.6083   23.5542  -28.5586 H   0  0  0  0  0  0  0  0  0  0  0  0
   -5.5418   25.2813  -28.0408 H   0  0  0  0  0  0  0  0  0  0  0  0
   -6.6814   25.3339  -30.3110 H   0  0  0  0  0  0  0  0  0  0  0  0
   -5.5450   25.3783  -31.7403 H   0  0  0  0  0  0  0  0  0  0  0  0
   -8.1190   23.3380  -30.2110 H   0  0  0  0  0  0  0  0  0  0  0  0
   -9.4609   21.1187  -30.4311 H   0  0  0  0  0  0  0  0  0  0  0  0
   -9.5029   18.8280  -31.4506 H   0  0  0  0  0  0  0  0  0  0  0  0
   -8.4580   17.1081  -32.8471 H   0  0  0  0  0  0  0  0  0  0  0  0
   -6.5733   16.3491  -34.2916 H   0  0  0  0  0  0  0  0  0  0  0  0
   -4.6405   17.8610  -34.7339 H   0  0  0  0  0  0  0  0  0  0  0  0
   -4.5763   20.1462  -33.7339 H   0  0  0  0  0  0  0  0  0  0  0  0
   -3.6042   24.0554  -31.5473 H   0  0  0  0  0  0  0  0  0  0  0  0
   -2.6038   24.9231  -30.3027 H   0  0  0  0  0  0  0  0  0  0  0  0
   -3.9333   22.1921  -29.9898 H   0  0  0  0  0  0  0  0  0  0  0  0
   -2.1594   22.5481  -30.1900 H   0  0  0  0  0  0  0  0  0  0  0  0
  1  2  1  0
  2  3  2  0
  3  4  1  0
  4  5  2  0
  5  6  1  0
  6  7  1  0
  6  8  2  0
  8  9  1  0
  9 10  1  0
 10 11  1  0
 11 12  1  0
 12 13  1  0
 13 14  1  0
 14 15  1  0
 15 16  2  0
 16 17  1  0
 17 18  2  0
 18 19  1  0
 19 20  2  0
 20 21  1  0
 21 22  2  0
 22 23  1  0
 23 24  2  0
 24 25  1  0
 25 26  2  0
 26 27  1  0
 13 28  1  0
 28 29  1  0
  8  2  1  0
 29 10  1  0
 27 15  1  0
 26 17  1  0
 25 20  1  0
  3 30  1  0
  4 31  1  0
  5 32  1  0
  9 33  1  0
  9 34  1  0
 11 35  1  0
 11 36  1  0
 12 37  1  0
 12 38  1  0
 14 39  1  0
 14 40  1  0
 16 41  1  0
 18 42  1  0
 19 43  1  0
 21 44  1  0
 22 45  1  0
 23 46  1  0
 24 47  1  0
 28 48  1  0
 28 49  1  0
 29 50  1  0
 29 51  1  0
M  CHG  1  16   1
M  END
>  <UniqueID>  (48) 
42

>  <SMILES>  (48) 
Fc1cccc(F)c1CN1CCN(Cc2[nH+]c3ccc4ccccc4c3s2)CC1

>  <Energy>  (48) 
108.28558892060997

>  <Genealogy>  (48) 
Fc1cccc(F)c1CN1CCN(Cc2[nH+]c3ccc4ccccc4c3s2)CC1 (protonated)
Fc1cccc(F)c1CN1CCN(Cc2[nH+]c3ccc4ccccc4c3s2)CC1 (3D coordinates assigned)
Fc1cccc(F)c1CN1CCN(Cc2[nH+]c3ccc4ccccc4c3s2)CC1 (nonaromatic ring conformer: 108.28558892060997 kcal/mol)

>  <smiles>  (48) 
Fc1cccc(F)c1CN1CCN(Cc2nc3ccc4ccccc4c3s2)CC1

>  <score_type>  (48) 
oracle

>  <origin>  (48) 
adg

>  <m_score__min__energy>  (48) 
-9.3399999999999999

>  <m_primary>  (48) 
energy

$$$$
