0:0
     RDKit          3D

 42 43  0  0  0  0  0  0  0  0999 V2000
   -6.1240   17.1980  -34.1440 C   0  0  0  0  0  0  0  0  0  0  0  0
   -7.0190   17.3980  -32.9150 C   0  0  0  0  0  0  0  0  0  0  0  0
   -7.8580   18.6170  -33.0130 N   0  0  0  0  0  0  0  0  0  0  0  0
   -8.7110   18.7860  -31.8040 C   0  0  0  0  0  0  0  0  0  0  0  0
   -9.1050   20.2520  -31.5850 C   0  0  0  0  0  0  0  0  0  0  0  0
   -7.9170   21.1100  -31.3420 N   0  0  0  0  0  0  0  0  0  0  0  0
   -8.1830   22.5250  -31.6920 C   0  0  0  0  0  0  0  0  0  0  0  0
   -7.2580   23.4960  -30.9250 C   0  0  0  0  0  0  0  0  0  0  0  0
   -6.5580   22.7890  -29.7330 C   0  0  0  0  0  0  0  0  0  0  0  0
   -5.2180   23.4390  -29.3300 C   0  0  0  0  0  0  0  0  0  0  0  0
   -5.1910   24.9340  -29.6560 C   0  0  0  0  0  0  0  0  0  0  0  0
   -5.3650   25.1900  -31.1660 C   0  0  0  0  0  0  0  0  0  0  0  0
   -6.2200   24.1190  -31.8760 C   0  0  0  0  0  0  0  0  0  0  0  0
   -6.6910   20.6060  -32.0130 C   0  0  0  0  0  0  0  0  0  0  0  0
   -7.0160   19.8140  -33.2910 C   0  0  0  0  0  0  0  0  0  0  0  0
   -5.0988   16.9689  -33.8176 H   0  0  0  0  0  0  0  0  0  0  0  0
   -6.5115   16.3643  -34.7480 H   0  0  0  0  0  0  0  0  0  0  0  0
   -6.1197   18.1173  -34.7480 H   0  0  0  0  0  0  0  0  0  0  0  0
   -7.6786   16.5236  -32.8134 H   0  0  0  0  0  0  0  0  0  0  0  0
   -6.3625   17.5147  -32.0401 H   0  0  0  0  0  0  0  0  0  0  0  0
   -8.4950   18.4960  -33.8380 H   0  0  0  0  0  0  0  0  0  0  0  0
   -9.6249   18.1862  -31.9264 H   0  0  0  0  0  0  0  0  0  0  0  0
   -8.1336   18.4529  -30.9290 H   0  0  0  0  0  0  0  0  0  0  0  0
   -9.6314   20.6170  -32.4792 H   0  0  0  0  0  0  0  0  0  0  0  0
   -9.7527   20.3040  -30.6974 H   0  0  0  0  0  0  0  0  0  0  0  0
   -8.0219   22.6598  -32.7718 H   0  0  0  0  0  0  0  0  0  0  0  0
   -9.2219   22.7541  -31.4123 H   0  0  0  0  0  0  0  0  0  0  0  0
   -7.8829   24.3024  -30.5136 H   0  0  0  0  0  0  0  0  0  0  0  0
   -7.2337   22.8187  -28.8655 H   0  0  0  0  0  0  0  0  0  0  0  0
   -6.3343   21.7609  -30.0539 H   0  0  0  0  0  0  0  0  0  0  0  0
   -5.0697   23.3078  -28.2480 H   0  0  0  0  0  0  0  0  0  0  0  0
   -4.4152   22.9499  -29.9012 H   0  0  0  0  0  0  0  0  0  0  0  0
   -6.0078   25.4323  -29.1132 H   0  0  0  0  0  0  0  0  0  0  0  0
   -4.2133   25.3347  -29.3501 H   0  0  0  0  0  0  0  0  0  0  0  0
   -5.8500   26.1682  -31.3000 H   0  0  0  0  0  0  0  0  0  0  0  0
   -4.3627   25.1568  -31.6181 H   0  0  0  0  0  0  0  0  0  0  0  0
   -6.7464   24.5861  -32.7215 H   0  0  0  0  0  0  0  0  0  0  0  0
   -5.5490   23.3191  -32.2224 H   0  0  0  0  0  0  0  0  0  0  0  0
   -6.0542   21.4627  -32.2787 H   0  0  0  0  0  0  0  0  0  0  0  0
   -6.1769   19.9283  -31.3156 H   0  0  0  0  0  0  0  0  0  0  0  0
   -7.5553   20.4722  -33.9880 H   0  0  0  0  0  0  0  0  0  0  0  0
   -6.0662   19.4655  -33.7228 H   0  0  0  0  0  0  0  0  0  0  0  0
  1  2  1  0
  2  3  1  0
  3  4  1  0
  4  5  1  0
  5  6  1  0
  6  7  1  0
  7  8  1  0
  8  9  1  0
  9 10  1  0
 10 11  1  0
 11 12  1  0
 12 13  1  0
  6 14  1  0
 14 15  1  0
 15  3  1  0
 13  8  1  0
  1 16  1  0
  1 17  1  0
  1 18  1  0
  2 19  1  0
  2 20  1  0
  3 21  1  0
  4 22  1  0
  4 23  1  0
  5 24  1  0
  5 25  1  0
  7 26  1  0
  7 27  1  0
  8 28  1  0
  9 29  1  0
  9 30  1  0
 10 31  1  0
 10 32  1  0
 11 33  1  0
 11 34  1  0
 12 35  1  0
 12 36  1  0
 13 37  1  0
 13 38  1  0
 14 39  1  0
 14 40  1  0
 15 41  1  0
 15 42  1  0
M  CHG  1   3   1
M  END
>  <UniqueID>  (1) 
1

>  <SMILES>  (1) 
CC[NH+]1CCN(CC2CCCCC2)CC1

>  <Energy>  (1) 
52.65171630882433

>  <Genealogy>  (1) 
CC[NH+]1CCN(CC2CCCCC2)CC1 (protonated)
CC[NH+]1CCN(CC2CCCCC2)CC1 (3D coordinates assigned)
CC[NH+]1CCN(CC2CCCCC2)CC1 (nonaromatic ring conformer: 52.65171630882433 kcal/mol)

>  <smiles>  (1) 
CC[N+]1CCN(CC2CCCCC2)CC1

>  <score_type>  (1) 
oracle

>  <origin>  (1) 
adg

>  <m_score__min__energy>  (1) 
-6.0599999999999996

>  <m_primary>  (1) 
energy

$$$$
1:0
     RDKit          3D

 55 57  0  0  0  0  0  0  0  0999 V2000
   -3.7800   18.5560  -26.2380 C   0  0  0  0  0  0  0  0  0  0  0  0
   -2.3710   18.9690  -26.6860 C   0  0  0  0  0  0  0  0  0  0  0  0
   -2.3980   19.9770  -27.7610 N   0  0  0  0  0  0  0  0  0  0  0  0
   -1.0490   20.2900  -28.2660 C   0  0  0  0  0  0  0  0  0  0  0  0
   -1.1130   20.7250  -29.7470 C   0  0  0  0  0  0  0  0  0  0  0  0
   -2.4940   20.8400  -30.2510 N   0  0  0  0  0  0  0  0  0  0  0  0
   -2.5850   20.9200  -31.7160 C   0  0  0  0  0  0  0  0  0  0  0  0
   -3.6340   21.9470  -32.1480 C   0  0  0  0  0  0  0  0  0  0  0  0
   -4.4540   21.4430  -33.2490 N   0  0  0  0  0  0  0  0  0  0  0  0
   -5.6450   20.6910  -32.9670 C   0  0  0  0  0  0  0  0  0  0  0  0
   -6.8030   21.3450  -32.5100 C   0  0  0  0  0  0  0  0  0  0  0  0
   -6.8270   22.7440  -32.3400 C   0  0  0  0  0  0  0  0  0  0  0  0
   -7.9910   23.3920  -31.9400 C   0  0  0  0  0  0  0  0  0  0  0  0
   -9.1500   22.6630  -31.7110 C   0  0  0  0  0  0  0  0  0  0  0  0
   -9.1430   21.2750  -31.8440 C   0  0  0  0  0  0  0  0  0  0  0  0
   -7.9620   20.5800  -32.2090 C   0  0  0  0  0  0  0  0  0  0  0  0
   -7.9230   19.2010  -32.2820 N   0  0  0  0  0  0  0  0  0  0  0  0
   -9.0100   18.3990  -31.6870 C   0  0  0  0  0  0  0  0  0  0  0  0
   -6.8530   18.5720  -32.8910 C   0  0  0  0  0  0  0  0  0  0  0  0
   -6.8920   17.1950  -33.2350 C   0  0  0  0  0  0  0  0  0  0  0  0
   -5.7940   16.5620  -33.8340 C   0  0  0  0  0  0  0  0  0  0  0  0
   -5.8510   15.0970  -34.1630 C   0  0  0  0  0  0  0  0  0  0  0  0
   -4.6300   17.2910  -34.0820 C   0  0  0  0  0  0  0  0  0  0  0  0
   -4.5770   18.6500  -33.7880 C   0  0  0  0  0  0  0  0  0  0  0  0
   -5.6810   19.3090  -33.2100 C   0  0  0  0  0  0  0  0  0  0  0  0
   -3.8261   18.5425  -25.1391 H   0  0  0  0  0  0  0  0  0  0  0  0
   -4.5144   19.2767  -26.6270 H   0  0  0  0  0  0  0  0  0  0  0  0
   -4.0091   17.5529  -26.6270 H   0  0  0  0  0  0  0  0  0  0  0  0
   -1.8338   19.3876  -25.8222 H   0  0  0  0  0  0  0  0  0  0  0  0
   -1.8667   18.0733  -27.0776 H   0  0  0  0  0  0  0  0  0  0  0  0
   -2.9750   19.5940  -28.5460 H   0  0  0  0  0  0  0  0  0  0  0  0
   -2.8610   20.8540  -27.4180 H   0  0  0  0  0  0  0  0  0  0  0  0
   -0.6187   21.1063  -27.6672 H   0  0  0  0  0  0  0  0  0  0  0  0
   -0.4217   19.3899  -28.1864 H   0  0  0  0  0  0  0  0  0  0  0  0
   -0.6199   21.7032  -29.8473 H   0  0  0  0  0  0  0  0  0  0  0  0
   -0.6076   19.9496  -30.3414 H   0  0  0  0  0  0  0  0  0  0  0  0
   -2.9390   21.6880  -29.8350 H   0  0  0  0  0  0  0  0  0  0  0  0
   -1.6057   21.2147  -32.1211 H   0  0  0  0  0  0  0  0  0  0  0  0
   -2.8823   19.9337  -32.1018 H   0  0  0  0  0  0  0  0  0  0  0  0
   -4.2858   22.1744  -31.2916 H   0  0  0  0  0  0  0  0  0  0  0  0
   -3.1111   22.8514  -32.4923 H   0  0  0  0  0  0  0  0  0  0  0  0
   -4.3970   21.9240  -34.1740 H   0  0  0  0  0  0  0  0  0  0  0  0
   -5.9148   23.3300  -32.5258 H   0  0  0  0  0  0  0  0  0  0  0  0
   -7.9931   24.4837  -31.8049 H   0  0  0  0  0  0  0  0  0  0  0  0
  -10.0765   23.1818  -31.4238 H   0  0  0  0  0  0  0  0  0  0  0  0
  -10.0690   20.7097  -31.6628 H   0  0  0  0  0  0  0  0  0  0  0  0
   -8.9436   18.4480  -30.5901 H   0  0  0  0  0  0  0  0  0  0  0  0
   -9.9814   18.7984  -32.0137 H   0  0  0  0  0  0  0  0  0  0  0  0
   -8.9150   17.3530  -32.0137 H   0  0  0  0  0  0  0  0  0  0  0  0
   -7.8021   16.6132  -33.0273 H   0  0  0  0  0  0  0  0  0  0  0  0
   -5.8737   14.5126  -33.2314 H   0  0  0  0  0  0  0  0  0  0  0  0
   -6.7580   14.8879  -34.7492 H   0  0  0  0  0  0  0  0  0  0  0  0
   -4.9630   14.8180  -34.7492 H   0  0  0  0  0  0  0  0  0  0  0  0
   -3.7506   16.7890  -34.5118 H   0  0  0  0  0  0  0  0  0  0  0  0
   -3.6613   19.2178  -34.0096 H   0  0  0  0  0  0  0  0  0  0  0  0
  1  2  1  0
  2  3  1  0
  3  4  1  0
  4  5  1  0
  5  6  1  0
  6  7  1  0
  7  8  1  0
  8  9  1  0
  9 10  1  0
 10 11  2  0
 11 12  1  0
 12 13  2  0
 13 14  1  0
 14 15  2  0
 15 16  1  0
 16 17  2  0
 17 18  1  0
 17 19  1  0
 19 20  2  0
 20 21  1  0
 21 22  1  0
 21 23  2  0
 23 24  1  0
 24 25  2  0
 25 10  1  0
 16 11  1  0
 25 19  1  0
  1 26  1  0
  1 27  1  0
  1 28  1  0
  2 29  1  0
  2 30  1  0
  3 31  1  0
  3 32  1  0
  4 33  1  0
  4 34  1  0
  5 35  1  0
  5 36  1  0
  6 37  1  0
  7 38  1  0
  7 39  1  0
  8 40  1  0
  8 41  1  0
  9 42  1  0
 12 43  1  0
 13 44  1  0
 14 45  1  0
 15 46  1  0
 18 47  1  0
 18 48  1  0
 18 49  1  0
 20 50  1  0
 22 51  1  0
 22 52  1  0
 22 53  1  0
 23 54  1  0
 24 55  1  0
M  CHG  2   3   1  17   1
M  END
>  <UniqueID>  (2) 
2

>  <SMILES>  (2) 
CC[NH2+]CCNCCNc1c2ccccc2[n+](C)c2cc(C)ccc12

>  <Energy>  (2) 
78.51818630174277

>  <Genealogy>  (2) 
CC[NH2+]CCNCCNc1c2ccccc2[n+](C)c2cc(C)ccc12 (protonated)
CC[NH2+]CCNCCNc1c2ccccc2[n+](C)c2cc(C)ccc12 (3D coordinates assigned)
CC[NH2+]CCNCCNc1c2ccccc2[n+](C)c2cc(C)ccc12 (optimized conformer: 78.51818630174277 kcal/mol)

>  <smiles>  (2) 
CCNCCNCCNc1c2ccccc2[n+](C)c2cc(C)ccc12

>  <score_type>  (2) 
oracle

>  <origin>  (2) 
adg

>  <m_score__min__energy>  (2) 
-8.9800000000000004

>  <m_primary>  (2) 
energy

$$$$
2:0
     RDKit          3D

 21 21  0  0  0  0  0  0  0  0999 V2000
   -0.6563   22.8672  -29.0237 H   0  0  0  0  0  0  0  0  0  0  0  0
   -1.3390   23.7140  -29.1880 C   0  0  0  0  0  0  0  0  0  0  0  0
   -0.8680   24.9170  -29.3300 N   0  0  0  0  0  0  0  0  0  0  0  0
   -1.3910   26.0470  -28.7220 O   0  0  0  0  0  0  0  0  0  0  0  0
   -0.8880   26.5990  -27.5070 C   0  0  0  0  0  0  0  0  0  0  0  0
   -1.0060   27.6925  -27.5250 H   0  0  0  0  0  0  0  0  0  0  0  0
    0.1775   26.3458  -27.4037 H   0  0  0  0  0  0  0  0  0  0  0  0
   -1.6600   26.0260  -26.3300 C   0  0  0  0  0  0  0  0  0  0  0  0
   -1.2013   26.3665  -25.3900 H   0  0  0  0  0  0  0  0  0  0  0  0
   -2.7040   26.3696  -26.3741 H   0  0  0  0  0  0  0  0  0  0  0  0
   -1.6334   24.9272  -26.3741 H   0  0  0  0  0  0  0  0  0  0  0  0
   -2.8230   23.4890  -29.2500 C   0  0  1  0  0  0  0  0  0  0  0  0
   -3.0693   22.9185  -28.3423 H   0  0  0  0  0  0  0  0  0  0  0  0
   -3.5180   24.7660  -29.3340 N   0  0  0  0  0  0  0  0  0  0  0  0
   -3.4920   25.5350  -28.6280 H   0  0  0  0  0  0  0  0  0  0  0  0
   -4.2960   24.7430  -30.5070 C   0  0  0  0  0  0  0  0  0  0  0  0
   -5.0350   25.6950  -30.8710 O   0  0  0  0  0  0  0  0  0  0  0  0
   -4.1650   23.5690  -31.2070 O   0  0  0  0  0  0  0  0  0  0  0  0
   -3.2670   22.7040  -30.5210 C   0  0  0  0  0  0  0  0  0  0  0  0
   -2.3973   22.4727  -31.1535 H   0  0  0  0  0  0  0  0  0  0  0  0
   -3.7402   21.7448  -30.2640 H   0  0  0  0  0  0  0  0  0  0  0  0
  1  2  1  0
  2  3  2  0
  3  4  1  0
  4  5  1  0
  5  6  1  0
  5  7  1  0
  5  8  1  0
  8  9  1  0
  8 10  1  0
  8 11  1  0
  2 12  1  0
 12 13  1  1
 12 14  1  0
 14 15  1  0
 14 16  1  0
 16 17  2  0
 16 18  1  0
 18 19  1  0
 19 20  1  0
 19 21  1  0
 19 12  1  0
M  END
>  <UniqueID>  (3) 
3

>  <SMILES>  (3) 
CCO/N=C/[C@@H]1COC(=O)N1

>  <Energy>  (3) 
28.961239290707763

>  <Genealogy>  (3) 
CCON=C[C@@H]1COC(=O)N1 (chirality)
CCO/N=C/[C@@H]1COC(=O)N1 (cis-trans isomerization)
CCO/N=C/[C@@H]1COC(=O)N1 (3D coordinates assigned)
CCO/N=C/[C@@H]1COC(=O)N1 (nonaromatic ring conformer: 28.961239290707763 kcal/mol)

>  <smiles>  (3) 
CCON=CC1COC(=O)N1

>  <score_type>  (3) 
oracle

>  <origin>  (3) 
adg

>  <m_score__min__energy>  (3) 
-4.8099999999999996

>  <m_primary>  (3) 
energy

$$$$
3:0
     RDKit          3D

 34 36  0  0  0  0  0  0  0  0999 V2000
   -3.1400   24.1020  -27.8020 C   0  0  0  0  0  0  0  0  0  0  0  0
   -2.3680   24.5660  -29.0320 C   0  0  0  0  0  0  0  0  0  0  0  0
   -3.2620   24.9250  -30.0860 O   0  0  0  0  0  0  0  0  0  0  0  0
   -4.4070   24.2080  -30.4680 C   0  0  0  0  0  0  0  0  0  0  0  0
   -5.7150   24.6580  -30.1950 C   0  0  0  0  0  0  0  0  0  0  0  0
   -6.8220   23.9050  -30.5980 C   0  0  0  0  0  0  0  0  0  0  0  0
   -6.6400   22.6950  -31.2820 C   0  0  0  0  0  0  0  0  0  0  0  0
   -7.7130   21.8990  -31.7090 C   0  0  0  0  0  0  0  0  0  0  0  0
   -7.4900   20.7210  -32.3770 C   0  0  0  0  0  0  0  0  0  0  0  0
   -6.1830   20.2920  -32.6440 C   0  0  0  0  0  0  0  0  0  0  0  0
   -5.9160   19.0110  -33.3710 C   0  0  0  0  0  0  0  0  0  0  0  0
   -5.1400   21.0650  -32.2280 N   0  0  0  0  0  0  0  0  0  0  0  0
   -5.3290   22.2420  -31.5610 C   0  0  0  0  0  0  0  0  0  0  0  0
   -4.2270   23.0000  -31.1540 C   0  0  0  0  0  0  0  0  0  0  0  0
   -8.7550   20.0350  -32.7400 C   0  0  0  0  0  0  0  0  0  0  0  0
   -9.8570   20.9600  -32.1960 C   0  0  0  0  0  0  0  0  0  0  0  0
   -9.1650   22.1650  -31.5330 C   0  0  0  0  0  0  0  0  0  0  0  0
   -2.6085   24.4214  -26.8934 H   0  0  0  0  0  0  0  0  0  0  0  0
   -4.1469   24.5447  -27.8125 H   0  0  0  0  0  0  0  0  0  0  0  0
   -3.2216   23.0051  -27.8125 H   0  0  0  0  0  0  0  0  0  0  0  0
   -1.7557   25.4400  -28.7650 H   0  0  0  0  0  0  0  0  0  0  0  0
   -1.7276   23.7413  -29.3783 H   0  0  0  0  0  0  0  0  0  0  0  0
   -5.8656   25.6080  -29.6613 H   0  0  0  0  0  0  0  0  0  0  0  0
   -7.8385   24.2630  -30.3777 H   0  0  0  0  0  0  0  0  0  0  0  0
   -5.7478   18.2041  -32.6425 H   0  0  0  0  0  0  0  0  0  0  0  0
   -6.7812   18.7605  -34.0024 H   0  0  0  0  0  0  0  0  0  0  0  0
   -5.0227   19.1270  -34.0024 H   0  0  0  0  0  0  0  0  0  0  0  0
   -3.2096   22.6446  -31.3744 H   0  0  0  0  0  0  0  0  0  0  0  0
   -8.8405   19.9266  -33.8313 H   0  0  0  0  0  0  0  0  0  0  0  0
   -8.8163   19.0181  -32.3250 H   0  0  0  0  0  0  0  0  0  0  0  0
  -10.5000   21.3029  -33.0200 H   0  0  0  0  0  0  0  0  0  0  0  0
  -10.4862   20.4264  -31.4685 H   0  0  0  0  0  0  0  0  0  0  0  0
   -9.4525   23.1022  -32.0320 H   0  0  0  0  0  0  0  0  0  0  0  0
   -9.4454   22.2806  -30.4756 H   0  0  0  0  0  0  0  0  0  0  0  0
  1  2  1  0
  2  3  1  0
  3  4  1  0
  4  5  2  0
  5  6  1  0
  6  7  2  0
  7  8  1  0
  8  9  2  0
  9 10  1  0
 10 11  1  0
 10 12  2  0
 12 13  1  0
 13 14  2  0
  9 15  1  0
 15 16  1  0
 16 17  1  0
 14  4  1  0
 13  7  1  0
 17  8  1  0
  1 18  1  0
  1 19  1  0
  1 20  1  0
  2 21  1  0
  2 22  1  0
  5 23  1  0
  6 24  1  0
 11 25  1  0
 11 26  1  0
 11 27  1  0
 14 28  1  0
 15 29  1  0
 15 30  1  0
 16 31  1  0
 16 32  1  0
 17 33  1  0
 17 34  1  0
M  END
>  <UniqueID>  (4) 
4

>  <SMILES>  (4) 
CCOc1ccc2c3c(c(C)nc2c1)CCC3

>  <Energy>  (4) 
43.160671293353005

>  <Genealogy>  (4) 
CCOc1ccc2c3c(c(C)nc2c1)CCC3 (3D coordinates assigned)
CCOc1ccc2c3c(c(C)nc2c1)CCC3 (nonaromatic ring conformer: 43.160671293353005 kcal/mol)

>  <smiles>  (4) 
CCOc1ccc2c3c(c(C)nc2c1)CCC3

>  <score_type>  (4) 
oracle

>  <origin>  (4) 
adg

>  <m_score__min__energy>  (4) 
-8

>  <m_primary>  (4) 
energy

$$$$
4:0
     RDKit          3D

 65 69  0  0  0  0  0  0  0  0999 V2000
   -0.5460   26.8530  -23.3420 C   0  0  0  0  0  0  0  0  0  0  0  0
   -0.7400   26.1240  -24.6350 C   0  0  0  0  0  0  0  0  0  0  0  0
   -0.8640   24.7420  -24.7490 C   0  0  0  0  0  0  0  0  0  0  0  0
   -1.0450   24.5060  -26.0950 C   0  0  0  0  0  0  0  0  0  0  0  0
   -1.2400   23.3090  -26.7790 C   0  0  0  0  0  0  0  0  0  0  0  0
   -1.4100   23.3660  -28.1800 C   0  0  0  0  0  0  0  0  0  0  0  0
   -1.6490   22.1000  -28.9620 C   0  0  0  0  0  0  0  0  0  0  0  0
   -0.8280   22.0840  -30.1850 N   0  0  0  0  0  0  0  0  0  0  0  0
   -1.4120   21.2220  -31.2360 C   0  0  0  0  0  0  0  0  0  0  0  0
   -0.7750   21.5410  -32.6000 C   0  0  0  0  0  0  0  0  0  0  0  0
   -1.4060   20.7110  -33.7390 C   0  0  0  0  0  0  0  0  0  0  0  0
   -1.9760   19.4150  -33.2950 N   0  0  0  0  0  0  0  0  0  0  0  0
   -3.4430   19.4240  -33.0810 C   0  0  0  0  0  0  0  0  0  0  0  0
   -4.0140   20.8070  -33.4170 C   0  0  0  0  0  0  0  0  0  0  0  0
   -5.3590   21.0370  -32.7380 C   0  0  0  0  0  0  0  0  0  0  0  0
   -6.4390   20.1530  -32.9890 C   0  0  0  0  0  0  0  0  0  0  0  0
   -6.3140   19.0130  -33.8680 C   0  0  0  0  0  0  0  0  0  0  0  0
   -6.2150   18.1010  -34.5730 N   0  0  0  0  0  0  0  0  0  0  0  0
   -7.6740   20.3720  -32.3730 C   0  0  0  0  0  0  0  0  0  0  0  0
   -7.8530   21.4320  -31.5500 N   0  0  0  0  0  0  0  0  0  0  0  0
   -6.8600   22.3180  -31.2900 C   0  0  0  0  0  0  0  0  0  0  0  0
   -7.1150   23.3970  -30.4380 C   0  0  0  0  0  0  0  0  0  0  0  0
   -6.1120   24.3260  -30.1610 C   0  0  0  0  0  0  0  0  0  0  0  0
   -4.8510   24.1850  -30.7380 C   0  0  0  0  0  0  0  0  0  0  0  0
   -3.8800   25.0950  -30.4680 F   0  0  0  0  0  0  0  0  0  0  0  0
   -4.5810   23.1110  -31.5910 C   0  0  0  0  0  0  0  0  0  0  0  0
   -5.5800   22.1530  -31.8810 C   0  0  0  0  0  0  0  0  0  0  0  0
   -1.2290   18.8190  -32.1700 C   0  0  0  0  0  0  0  0  0  0  0  0
   -1.2320   19.7160  -30.9120 C   0  0  0  0  0  0  0  0  0  0  0  0
   -1.4100   24.6210  -28.8390 C   0  0  0  0  0  0  0  0  0  0  0  0
   -1.2120   25.8110  -28.1180 C   0  0  0  0  0  0  0  0  0  0  0  0
   -1.0240   25.7170  -26.7360 C   0  0  0  0  0  0  0  0  0  0  0  0
   -0.8230   26.7180  -25.8540 N   0  0  0  0  0  0  0  0  0  0  0  0
   -0.8010   28.1500  -26.1510 C   0  0  0  0  0  0  0  0  0  0  0  0
   -0.7288   26.1659  -22.5027 H   0  0  0  0  0  0  0  0  0  0  0  0
    0.4846   27.2334  -23.2866 H   0  0  0  0  0  0  0  0  0  0  0  0
   -1.2512   27.6954  -23.2866 H   0  0  0  0  0  0  0  0  0  0  0  0
   -0.8258   23.9984  -23.9393 H   0  0  0  0  0  0  0  0  0  0  0  0
   -1.2610   22.3479  -26.2444 H   0  0  0  0  0  0  0  0  0  0  0  0
   -1.3846   21.2339  -28.3376 H   0  0  0  0  0  0  0  0  0  0  0  0
   -2.7106   22.0536  -29.2465 H   0  0  0  0  0  0  0  0  0  0  0  0
    0.1410   21.7590  -29.9530 H   0  0  0  0  0  0  0  0  0  0  0  0
   -0.7660   23.0640  -30.5500 H   0  0  0  0  0  0  0  0  0  0  0  0
   -2.4908   21.4332  -31.2744 H   0  0  0  0  0  0  0  0  0  0  0  0
   -0.9177   22.6097  -32.8178 H   0  0  0  0  0  0  0  0  0  0  0  0
    0.2937   21.2865  -32.5448 H   0  0  0  0  0  0  0  0  0  0  0  0
   -2.2114   21.3053  -34.1952 H   0  0  0  0  0  0  0  0  0  0  0  0
   -0.5986   20.4779  -34.4488 H   0  0  0  0  0  0  0  0  0  0  0  0
   -3.9104   18.6694  -33.7306 H   0  0  0  0  0  0  0  0  0  0  0  0
   -3.6554   19.1922  -32.0269 H   0  0  0  0  0  0  0  0  0  0  0  0
   -3.3062   21.5777  -33.0780 H   0  0  0  0  0  0  0  0  0  0  0  0
   -4.1632   20.8632  -34.5054 H   0  0  0  0  0  0  0  0  0  0  0  0
   -8.5070   19.6779  -32.5582 H   0  0  0  0  0  0  0  0  0  0  0  0
   -8.1103   23.5137  -29.9845 H   0  0  0  0  0  0  0  0  0  0  0  0
   -6.3164   25.1706  -29.4866 H   0  0  0  0  0  0  0  0  0  0  0  0
   -3.5823   23.0101  -32.0408 H   0  0  0  0  0  0  0  0  0  0  0  0
   -1.6886   17.8528  -31.9146 H   0  0  0  0  0  0  0  0  0  0  0  0
   -0.1837   18.6993  -32.4909 H   0  0  0  0  0  0  0  0  0  0  0  0
   -2.0572   19.3980  -30.2579 H   0  0  0  0  0  0  0  0  0  0  0  0
   -0.2518   19.6010  -30.4261 H   0  0  0  0  0  0  0  0  0  0  0  0
   -1.5667   24.6640  -29.9269 H   0  0  0  0  0  0  0  0  0  0  0  0
   -1.2052   26.7868  -28.6258 H   0  0  0  0  0  0  0  0  0  0  0  0
   -0.7922   28.7195  -25.2100 H   0  0  0  0  0  0  0  0  0  0  0  0
    0.1009   28.3899  -26.7332 H   0  0  0  0  0  0  0  0  0  0  0  0
   -1.6951   28.4175  -26.7332 H   0  0  0  0  0  0  0  0  0  0  0  0
  1  2  1  0
  2  3  2  0
  3  4  1  0
  4  5  2  0
  5  6  1  0
  6  7  1  0
  7  8  1  0
  8  9  1  0
  9 10  1  0
 10 11  1  0
 11 12  1  0
 12 13  1  0
 13 14  1  0
 14 15  1  0
 15 16  2  0
 16 17  1  0
 17 18  3  0
 16 19  1  0
 19 20  2  0
 20 21  1  0
 21 22  2  0
 22 23  1  0
 23 24  2  0
 24 25  1  0
 24 26  1  0
 26 27  2  0
 12 28  1  0
 28 29  1  0
  6 30  2  0
 30 31  1  0
 31 32  2  0
 32 33  1  0
 33 34  1  0
 33  2  1  0
 32  4  1  0
 29  9  1  0
 27 15  1  0
 27 21  1  0
  1 35  1  0
  1 36  1  0
  1 37  1  0
  3 38  1  0
  5 39  1  0
  7 40  1  0
  7 41  1  0
  8 42  1  0
  8 43  1  0
  9 44  1  0
 10 45  1  0
 10 46  1  0
 11 47  1  0
 11 48  1  0
 13 49  1  0
 13 50  1  0
 14 51  1  0
 14 52  1  0
 19 53  1  0
 22 54  1  0
 23 55  1  0
 26 56  1  0
 28 57  1  0
 28 58  1  0
 29 59  1  0
 29 60  1  0
 30 61  1  0
 31 62  1  0
 34 63  1  0
 34 64  1  0
 34 65  1  0
M  CHG  1   8   1
M  END
>  <UniqueID>  (5) 
5

>  <SMILES>  (5) 
Cc1cc2cc(C[NH2+]C3CCN(CCc4c(C#N)cnc5ccc(F)cc45)CC3)ccc2n1C

>  <Energy>  (5) 
117.73633254279905

>  <Genealogy>  (5) 
Cc1cc2cc(C[NH2+]C3CCN(CCc4c(C#N)cnc5ccc(F)cc45)CC3)ccc2n1C (protonated)
Cc1cc2cc(C[NH2+]C3CCN(CCc4c(C#N)cnc5ccc(F)cc45)CC3)ccc2n1C (3D coordinates assigned)
Cc1cc2cc(C[NH2+]C3CCN(CCc4c(C#N)cnc5ccc(F)cc45)CC3)ccc2n1C (nonaromatic ring conformer: 117.73633254279905 kcal/mol)

>  <smiles>  (5) 
Cc1cc2cc(CNC3CCN(CCc4c(C#N)cnc5ccc(F)cc45)CC3)ccc2n1C

>  <score_type>  (5) 
oracle

>  <origin>  (5) 
adg

>  <m_score__min__energy>  (5) 
-10.119999999999999

>  <m_primary>  (5) 
energy

$$$$
5:0
     RDKit          3D

 89 92  0  0  0  0  0  0  0  0999 V2000
    0.2210   23.5700  -27.2020 C   0  0  0  0  0  0  0  0  0  0  0  0
    0.5750   24.7790  -27.9710 N   0  0  0  0  0  0  0  0  0  0  0  0
    1.8590   25.2960  -27.4540 C   0  0  0  0  0  0  0  0  0  0  0  0
   -0.4950   25.7840  -27.8360 C   0  0  0  0  0  0  0  0  0  0  0  0
   -1.8910   25.1580  -27.9610 C   0  0  0  0  0  0  0  0  0  0  0  0
   -2.3190   25.2720  -29.3110 O   0  0  0  0  0  0  0  0  0  0  0  0
   -2.9930   24.0970  -29.7300 C   0  0  0  0  0  0  0  0  0  0  0  0
   -2.3420   22.8650  -29.0810 C   0  0  0  0  0  0  0  0  0  0  0  0
   -1.9110   21.9180  -30.0420 O   0  0  0  0  0  0  0  0  0  0  0  0
   -2.9320   21.5880  -30.9700 C   0  0  0  0  0  0  0  0  0  0  0  0
   -2.4180   21.5850  -32.4260 C   0  0  0  0  0  0  0  0  0  0  0  0
   -3.5320   21.5880  -33.3760 N   0  0  0  0  0  0  0  0  0  0  0  0
   -4.8260   21.0860  -33.0020 C   0  0  0  0  0  0  0  0  0  0  0  0
   -5.7480   21.9540  -32.3880 C   0  0  0  0  0  0  0  0  0  0  0  0
   -5.3530   23.2480  -31.9810 C   0  0  0  0  0  0  0  0  0  0  0  0
   -6.2670   24.1130  -31.3800 C   0  0  0  0  0  0  0  0  0  0  0  0
   -7.5770   23.7020  -31.1530 C   0  0  0  0  0  0  0  0  0  0  0  0
   -7.9830   22.4210  -31.5450 C   0  0  0  0  0  0  0  0  0  0  0  0
   -7.0810   21.5280  -32.1810 C   0  0  0  0  0  0  0  0  0  0  0  0
   -7.4730   20.2720  -32.5970 N   0  0  0  0  0  0  0  0  0  0  0  0
   -8.9120   19.9460  -32.6980 C   0  0  0  0  0  0  0  0  0  0  0  0
   -6.5200   19.3340  -32.9590 C   0  0  0  0  0  0  0  0  0  0  0  0
   -6.8620   17.9690  -33.0450 C   0  0  0  0  0  0  0  0  0  0  0  0
   -5.9410   17.0210  -33.4620 C   0  0  0  0  0  0  0  0  0  0  0  0
   -4.6390   17.4020  -33.7700 C   0  0  0  0  0  0  0  0  0  0  0  0
   -4.2210   18.7460  -33.6510 C   0  0  0  0  0  0  0  0  0  0  0  0
   -2.8760   19.1160  -33.9460 O   0  0  0  0  0  0  0  0  0  0  0  0
   -1.7520   18.2230  -34.1250 C   0  0  0  0  0  0  0  0  0  0  0  0
   -1.2530   17.5940  -32.7900 C   0  0  0  0  0  0  0  0  0  0  0  0
   -0.1610   18.2950  -32.0100 N   0  0  0  0  0  0  0  0  0  0  0  0
    0.5990   19.1370  -32.9780 C   0  0  0  0  0  0  0  0  0  0  0  0
   -0.7860   19.1970  -30.9900 C   0  0  0  0  0  0  0  0  0  0  0  0
    0.2400   19.6380  -29.9190 C   0  0  0  0  0  0  0  0  0  0  0  0
    0.7110   18.4830  -29.0870 N   0  0  0  0  0  0  0  0  0  0  0  0
    2.1150   18.7340  -28.6660 C   0  0  0  0  0  0  0  0  0  0  0  0
   -0.1160   18.3680  -27.8580 C   0  0  0  0  0  0  0  0  0  0  0  0
    0.6270   17.1900  -29.8460 C   0  0  0  0  0  0  0  0  0  0  0  0
    0.8400   17.3790  -31.3570 C   0  0  0  0  0  0  0  0  0  0  0  0
   -5.1740   19.7290  -33.2180 C   0  0  0  0  0  0  0  0  0  0  0  0
    0.2849   23.7882  -26.1258 H   0  0  0  0  0  0  0  0  0  0  0  0
   -0.8048   23.2627  -27.4536 H   0  0  0  0  0  0  0  0  0  0  0  0
    0.9191   22.7580  -27.4536 H   0  0  0  0  0  0  0  0  0  0  0  0
    1.8410   25.2888  -26.3542 H   0  0  0  0  0  0  0  0  0  0  0  0
    2.6814   24.6589  -27.8115 H   0  0  0  0  0  0  0  0  0  0  0  0
    2.0105   26.3252  -27.8115 H   0  0  0  0  0  0  0  0  0  0  0  0
   -0.4083   26.2648  -26.8504 H   0  0  0  0  0  0  0  0  0  0  0  0
   -0.3773   26.5168  -28.6479 H   0  0  0  0  0  0  0  0  0  0  0  0
   -1.8485   24.0970  -27.6739 H   0  0  0  0  0  0  0  0  0  0  0  0
   -2.5973   25.6783  -27.2974 H   0  0  0  0  0  0  0  0  0  0  0  0
   -4.0491   24.1541  -29.4276 H   0  0  0  0  0  0  0  0  0  0  0  0
   -2.9255   24.0098  -30.8245 H   0  0  0  0  0  0  0  0  0  0  0  0
   -1.4726   23.1928  -28.4922 H   0  0  0  0  0  0  0  0  0  0  0  0
   -3.0972   22.3802  -28.4448 H   0  0  0  0  0  0  0  0  0  0  0  0
   -3.3197   20.5872  -30.7291 H   0  0  0  0  0  0  0  0  0  0  0  0
   -3.7195   22.3519  -30.8915 H   0  0  0  0  0  0  0  0  0  0  0  0
   -1.8016   22.4809  -32.5917 H   0  0  0  0  0  0  0  0  0  0  0  0
   -1.8237   20.6732  -32.5858 H   0  0  0  0  0  0  0  0  0  0  0  0
   -3.3820   21.9320  -34.3580 H   0  0  0  0  0  0  0  0  0  0  0  0
   -4.3151   23.5762  -32.1396 H   0  0  0  0  0  0  0  0  0  0  0  0
   -5.9512   25.1243  -31.0842 H   0  0  0  0  0  0  0  0  0  0  0  0
   -8.2918   24.3821  -30.6667 H   0  0  0  0  0  0  0  0  0  0  0  0
   -9.0185   22.1008  -31.3571 H   0  0  0  0  0  0  0  0  0  0  0  0
   -9.3378   19.8495  -31.6884 H   0  0  0  0  0  0  0  0  0  0  0  0
   -9.4327   20.7489  -33.2404 H   0  0  0  0  0  0  0  0  0  0  0  0
   -9.0358   18.9971  -33.2404 H   0  0  0  0  0  0  0  0  0  0  0  0
   -7.8798   17.6501  -32.7759 H   0  0  0  0  0  0  0  0  0  0  0  0
   -6.2399   15.9660  -33.5495 H   0  0  0  0  0  0  0  0  0  0  0  0
   -3.9213   16.6421  -34.1128 H   0  0  0  0  0  0  0  0  0  0  0  0
   -2.0542   17.4113  -34.8031 H   0  0  0  0  0  0  0  0  0  0  0  0
   -0.9233   18.8171  -34.5377 H   0  0  0  0  0  0  0  0  0  0  0  0
   -2.1254   17.5168  -32.1244 H   0  0  0  0  0  0  0  0  0  0  0  0
   -0.7872   16.6478  -33.1027 H   0  0  0  0  0  0  0  0  0  0  0  0
    1.2370   19.8438  -32.4272 H   0  0  0  0  0  0  0  0  0  0  0  0
    1.2271   18.4924  -33.6105 H   0  0  0  0  0  0  0  0  0  0  0  0
   -0.1064   19.6960  -33.6105 H   0  0  0  0  0  0  0  0  0  0  0  0
   -1.1804   20.0903  -31.4965 H   0  0  0  0  0  0  0  0  0  0  0  0
   -1.5931   18.6434  -30.4878 H   0  0  0  0  0  0  0  0  0  0  0  0
    1.1070   20.0907  -30.4222 H   0  0  0  0  0  0  0  0  0  0  0  0
   -0.2529   20.3603  -29.2517 H   0  0  0  0  0  0  0  0  0  0  0  0
    2.1722   18.7442  -27.5675 H   0  0  0  0  0  0  0  0  0  0  0  0
    2.7637   17.9376  -29.0595 H   0  0  0  0  0  0  0  0  0  0  0  0
    2.4476   19.7058  -29.0595 H   0  0  0  0  0  0  0  0  0  0  0  0
    0.5296   18.4578  -26.9719 H   0  0  0  0  0  0  0  0  0  0  0  0
   -0.8686   19.1701  -27.8461 H   0  0  0  0  0  0  0  0  0  0  0  0
   -0.6212   17.3910  -27.8461 H   0  0  0  0  0  0  0  0  0  0  0  0
    1.3990   16.5059  -29.4638 H   0  0  0  0  0  0  0  0  0  0  0  0
   -0.3839   16.7817  -29.6996 H   0  0  0  0  0  0  0  0  0  0  0  0
    1.8450   17.7975  -31.5143 H   0  0  0  0  0  0  0  0  0  0  0  0
    0.7139   16.3896  -31.8209 H   0  0  0  0  0  0  0  0  0  0  0  0
  1  2  1  0
  2  3  1  0
  2  4  1  0
  4  5  1  0
  5  6  1  0
  6  7  1  0
  7  8  1  0
  8  9  1  0
  9 10  1  0
 10 11  1  0
 11 12  1  0
 12 13  1  0
 13 14  2  0
 14 15  1  0
 15 16  2  0
 16 17  1  0
 17 18  2  0
 18 19  1  0
 19 20  2  0
 20 21  1  0
 20 22  1  0
 22 23  2  0
 23 24  1  0
 24 25  2  0
 25 26  1  0
 26 27  1  0
 27 28  1  0
 28 29  1  0
 29 30  1  0
 30 31  1  0
 30 32  1  0
 32 33  1  0
 33 34  1  0
 34 35  1  0
 34 36  1  0
 34 37  1  0
 37 38  1  0
 26 39  2  0
 39 13  1  0
 19 14  1  0
 39 22  1  0
 38 30  1  0
  1 40  1  0
  1 41  1  0
  1 42  1  0
  3 43  1  0
  3 44  1  0
  3 45  1  0
  4 46  1  0
  4 47  1  0
  5 48  1  0
  5 49  1  0
  7 50  1  0
  7 51  1  0
  8 52  1  0
  8 53  1  0
 10 54  1  0
 10 55  1  0
 11 56  1  0
 11 57  1  0
 12 58  1  0
 15 59  1  0
 16 60  1  0
 17 61  1  0
 18 62  1  0
 21 63  1  0
 21 64  1  0
 21 65  1  0
 23 66  1  0
 24 67  1  0
 25 68  1  0
 28 69  1  0
 28 70  1  0
 29 71  1  0
 29 72  1  0
 31 73  1  0
 31 74  1  0
 31 75  1  0
 32 76  1  0
 32 77  1  0
 33 78  1  0
 33 79  1  0
 35 80  1  0
 35 81  1  0
 35 82  1  0
 36 83  1  0
 36 84  1  0
 36 85  1  0
 37 86  1  0
 37 87  1  0
 38 88  1  0
 38 89  1  0
M  CHG  3  20   1  30   1  34   1
M  END
>  <UniqueID>  (6) 
6

>  <SMILES>  (6) 
CN(C)CCOCCOCCNc1c2ccccc2[n+](C)c2cccc(OCC[N+]3(C)CC[N+](C)(C)CC3)c12

>  <Energy>  (6) 
168.8224825507027

>  <Genealogy>  (6) 
CN(C)CCOCCOCCNc1c2ccccc2[n+](C)c2cccc(OCC[N+]3(C)CC[N+](C)(C)CC3)c12 (3D coordinates assigned)
CN(C)CCOCCOCCNc1c2ccccc2[n+](C)c2cccc(OCC[N+]3(C)CC[N+](C)(C)CC3)c12 (nonaromatic ring conformer: 168.8224825507027 kcal/mol)

>  <smiles>  (6) 
CN(C)CCOCCOCCNc1c2ccccc2[n+](C)c2cccc(OCC[N+]3(C)CC[N+](C)(C)CC3)c12

>  <score_type>  (6) 
oracle

>  <origin>  (6) 
adg

>  <m_score__min__energy>  (6) 
-7.5300000000000002

>  <m_primary>  (6) 
energy

$$$$
6:0
     RDKit          3D

 60 63  0  0  0  0  0  0  0  0999 V2000
    1.5040   24.2530  -25.9600 C   0  0  0  0  0  0  0  0  0  0  0  0
    1.9190   24.4970  -27.4030 C   0  0  0  0  0  0  0  0  0  0  0  0
    0.7620   24.6400  -28.2000 O   0  0  0  0  0  0  0  0  0  0  0  0
   -0.3870   24.7980  -27.3900 C   0  0  0  0  0  0  0  0  0  0  0  0
   -1.2000   26.0090  -27.8540 C   0  0  0  0  0  0  0  0  0  0  0  0
   -2.0040   25.6620  -28.9680 O   0  0  0  0  0  0  0  0  0  0  0  0
   -2.1750   24.2600  -29.0400 C   0  0  0  0  0  0  0  0  0  0  0  0
   -3.2470   23.9290  -30.0890 C   0  0  0  0  0  0  0  0  0  0  0  0
   -3.8640   25.1350  -30.6670 N   0  0  0  0  0  0  0  0  0  0  0  0
   -5.3200   25.0000  -30.8440 C   0  0  0  0  0  0  0  0  0  0  0  0
   -5.7250   23.5230  -30.8750 C   0  0  0  0  0  0  0  0  0  0  0  0
   -5.4700   22.9320  -32.1880 N   0  0  0  0  0  0  0  0  0  0  0  0
   -5.8430   21.5750  -32.4510 C   0  0  0  0  0  0  0  0  0  0  0  0
   -4.8920   20.6500  -32.8620 C   0  0  0  0  0  0  0  0  0  0  0  0
   -5.2350   19.3340  -33.1100 C   0  0  0  0  0  0  0  0  0  0  0  0
   -6.5100   18.8630  -32.9340 N   0  0  0  0  0  0  0  0  0  0  0  0
   -6.7880   17.4240  -33.0800 C   0  0  0  0  0  0  0  0  0  0  0  0
   -7.5100   19.7750  -32.6230 C   0  0  0  0  0  0  0  0  0  0  0  0
   -8.8750   19.3980  -32.5840 C   0  0  0  0  0  0  0  0  0  0  0  0
   -9.8640   20.3190  -32.2350 C   0  0  0  0  0  0  0  0  0  0  0  0
   -9.5270   21.6320  -31.9250 C   0  0  0  0  0  0  0  0  0  0  0  0
   -8.1990   22.0470  -31.9850 C   0  0  0  0  0  0  0  0  0  0  0  0
   -7.1820   21.1440  -32.3490 C   0  0  0  0  0  0  0  0  0  0  0  0
   -4.0280   18.6480  -33.6080 C   0  0  0  0  0  0  0  0  0  0  0  0
   -3.8890   17.3840  -34.0870 N   0  0  0  0  0  0  0  0  0  0  0  0
   -2.6800   16.9720  -34.5690 C   0  0  0  0  0  0  0  0  0  0  0  0
   -1.5810   17.8570  -34.5970 C   0  0  0  0  0  0  0  0  0  0  0  0
   -1.7350   19.1730  -34.1340 C   0  0  0  0  0  0  0  0  0  0  0  0
   -2.9810   19.5450  -33.6410 C   0  0  0  0  0  0  0  0  0  0  0  0
   -3.4720   20.8340  -33.1800 C   0  0  0  0  0  0  0  0  0  0  0  0
   -2.8180   21.9090  -33.1320 O   0  0  0  0  0  0  0  0  0  0  0  0
    2.2520   24.6928  -25.2840 H   0  0  0  0  0  0  0  0  0  0  0  0
    0.5247   24.7191  -25.7763 H   0  0  0  0  0  0  0  0  0  0  0  0
    1.4351   23.1706  -25.7763 H   0  0  0  0  0  0  0  0  0  0  0  0
    2.5226   25.4147  -27.4623 H   0  0  0  0  0  0  0  0  0  0  0  0
    2.5152   23.6466  -27.7654 H   0  0  0  0  0  0  0  0  0  0  0  0
   -1.0092   23.8937  -27.4620 H   0  0  0  0  0  0  0  0  0  0  0  0
   -0.0719   24.9558  -26.3480 H   0  0  0  0  0  0  0  0  0  0  0  0
   -1.8464   26.3492  -27.0315 H   0  0  0  0  0  0  0  0  0  0  0  0
   -0.5094   26.8135  -28.1470 H   0  0  0  0  0  0  0  0  0  0  0  0
   -1.2234   23.7886  -29.3267 H   0  0  0  0  0  0  0  0  0  0  0  0
   -2.4918   23.8780  -28.0583 H   0  0  0  0  0  0  0  0  0  0  0  0
   -2.7804   23.3491  -30.8989 H   0  0  0  0  0  0  0  0  0  0  0  0
   -4.0404   23.3568  -29.5860 H   0  0  0  0  0  0  0  0  0  0  0  0
   -3.4250   25.3530  -31.5920 H   0  0  0  0  0  0  0  0  0  0  0  0
   -5.8334   25.4981  -30.0084 H   0  0  0  0  0  0  0  0  0  0  0  0
   -5.6058   25.4661  -31.7985 H   0  0  0  0  0  0  0  0  0  0  0  0
   -5.1454   22.9761  -30.1167 H   0  0  0  0  0  0  0  0  0  0  0  0
   -6.8025   23.4529  -30.6649 H   0  0  0  0  0  0  0  0  0  0  0  0
   -5.1890   23.5320  -32.9980 H   0  0  0  0  0  0  0  0  0  0  0  0
   -6.8767   16.9648  -32.0844 H   0  0  0  0  0  0  0  0  0  0  0  0
   -7.7293   17.2866  -33.6323 H   0  0  0  0  0  0  0  0  0  0  0  0
   -5.9656   16.9459  -33.6323 H   0  0  0  0  0  0  0  0  0  0  0  0
   -9.1595   18.3648  -32.8323 H   0  0  0  0  0  0  0  0  0  0  0  0
  -10.9175   20.0040  -32.2050 H   0  0  0  0  0  0  0  0  0  0  0  0
  -10.3116   22.3449  -31.6315 H   0  0  0  0  0  0  0  0  0  0  0  0
   -7.9424   23.0896  -31.7459 H   0  0  0  0  0  0  0  0  0  0  0  0
   -2.5616   15.9426  -34.9383 H   0  0  0  0  0  0  0  0  0  0  0  0
   -0.6076   17.5168  -34.9802 H   0  0  0  0  0  0  0  0  0  0  0  0
   -0.8981   19.8863  -34.1602 H   0  0  0  0  0  0  0  0  0  0  0  0
  1  2  1  0
  2  3  1  0
  3  4  1  0
  4  5  1  0
  5  6  1  0
  6  7  1  0
  7  8  1  0
  8  9  1  0
  9 10  1  0
 10 11  1  0
 11 12  1  0
 12 13  1  0
 13 14  2  0
 14 15  1  0
 15 16  2  0
 16 17  1  0
 16 18  1  0
 18 19  2  0
 19 20  1  0
 20 21  2  0
 21 22  1  0
 22 23  2  0
 15 24  1  0
 24 25  2  0
 25 26  1  0
 26 27  2  0
 27 28  1  0
 28 29  2  0
 29 30  1  0
 30 31  2  0
 23 13  1  0
 29 24  1  0
 30 14  1  0
 23 18  1  0
  1 32  1  0
  1 33  1  0
  1 34  1  0
  2 35  1  0
  2 36  1  0
  4 37  1  0
  4 38  1  0
  5 39  1  0
  5 40  1  0
  7 41  1  0
  7 42  1  0
  8 43  1  0
  8 44  1  0
  9 45  1  0
 10 46  1  0
 10 47  1  0
 11 48  1  0
 11 49  1  0
 12 50  1  0
 17 51  1  0
 17 52  1  0
 17 53  1  0
 19 54  1  0
 20 55  1  0
 21 56  1  0
 22 57  1  0
 26 58  1  0
 27 59  1  0
 28 60  1  0
M  CHG  1  16   1
M  END
>  <UniqueID>  (7) 
7

>  <SMILES>  (7) 
CCOCCOCCNCCNc1c2c([n+](C)c3ccccc13)-c1ncccc1C2=O

>  <Energy>  (7) 
114.34358225230561

>  <Genealogy>  (7) 
CCOCCOCCNCCNc1c2c([n+](C)c3ccccc13)-c1ncccc1C2=O (3D coordinates assigned)
CCOCCOCCNCCNc1c2c([n+](C)c3ccccc13)-c1ncccc1C2=O (nonaromatic ring conformer: 114.34358225230561 kcal/mol)

>  <smiles>  (7) 
CCOCCOCCNCCNc1c2c([n+](C)c3ccccc13)-c1ncccc1C2=O

>  <score_type>  (7) 
oracle

>  <origin>  (7) 
adg

>  <m_score__min__energy>  (7) 
-9.9600000000000009

>  <m_primary>  (7) 
energy

$$$$
7:0
     RDKit          3D

 63 66  0  0  0  0  0  0  0  0999 V2000
   -5.7090   25.2940  -30.7790 C   0  0  0  0  0  0  0  0  0  0  0  0
   -5.4100   24.7750  -29.3690 C   0  0  0  0  0  0  0  0  0  0  0  0
   -4.8970   23.3240  -29.4140 C   0  0  0  0  0  0  0  0  0  0  0  0
   -3.3810   23.2040  -29.7260 C   0  0  0  0  0  0  0  0  0  0  0  0
   -2.9720   21.9910  -30.4870 N   0  0  2  0  0  0  0  0  0  0  0  0
   -2.9700   20.7810  -29.6210 C   0  0  0  0  0  0  0  0  0  0  0  0
   -2.4860   21.0750  -28.1900 C   0  0  0  0  0  0  0  0  0  0  0  0
   -2.7190   19.8810  -27.2670 C   0  0  0  0  0  0  0  0  0  0  0  0
   -1.6780   22.1910  -31.2060 C   0  0  0  0  0  0  0  0  0  0  0  0
   -1.4630   21.1690  -32.3360 C   0  0  0  0  0  0  0  0  0  0  0  0
   -2.5410   21.2640  -33.3250 N   0  0  0  0  0  0  0  0  0  0  0  0
   -3.5920   20.2910  -33.3550 C   0  0  0  0  0  0  0  0  0  0  0  0
   -4.9010   20.6520  -33.0570 C   0  0  0  0  0  0  0  0  0  0  0  0
   -5.9290   19.7230  -33.0840 C   0  0  0  0  0  0  0  0  0  0  0  0
   -5.7200   18.4280  -33.4910 N   0  0  0  0  0  0  0  0  0  0  0  0
   -6.8680   17.5600  -33.7980 C   0  0  0  0  0  0  0  0  0  0  0  0
   -4.4150   17.9930  -33.6630 C   0  0  0  0  0  0  0  0  0  0  0  0
   -4.1070   16.6250  -33.8610 C   0  0  0  0  0  0  0  0  0  0  0  0
   -2.7940   16.2090  -34.0760 C   0  0  0  0  0  0  0  0  0  0  0  0
   -1.7570   17.1360  -34.0910 C   0  0  0  0  0  0  0  0  0  0  0  0
   -2.0180   18.4870  -33.8660 C   0  0  0  0  0  0  0  0  0  0  0  0
   -3.3310   18.9310  -33.6270 C   0  0  0  0  0  0  0  0  0  0  0  0
   -7.1730   20.4040  -32.6380 C   0  0  0  0  0  0  0  0  0  0  0  0
   -8.4530   19.9150  -32.3310 C   0  0  0  0  0  0  0  0  0  0  0  0
   -9.4310   20.8190  -31.8830 C   0  0  0  0  0  0  0  0  0  0  0  0
   -9.1180   22.1810  -31.7030 C   0  0  0  0  0  0  0  0  0  0  0  0
   -7.8170   22.6460  -31.9430 C   0  0  0  0  0  0  0  0  0  0  0  0
   -6.8670   21.7380  -32.4040 C   0  0  0  0  0  0  0  0  0  0  0  0
   -5.4470   21.9410  -32.6350 C   0  0  0  0  0  0  0  0  0  0  0  0
   -4.8080   23.0070  -32.4220 O   0  0  0  0  0  0  0  0  0  0  0  0
   -6.2571   26.2453  -30.7110 H   0  0  0  0  0  0  0  0  0  0  0  0
   -4.7641   25.4530  -31.3192 H   0  0  0  0  0  0  0  0  0  0  0  0
   -6.3206   24.5563  -31.3192 H   0  0  0  0  0  0  0  0  0  0  0  0
   -4.6437   25.4135  -28.9053 H   0  0  0  0  0  0  0  0  0  0  0  0
   -6.3393   24.8007  -28.7810 H   0  0  0  0  0  0  0  0  0  0  0  0
   -5.0875   22.8585  -28.4357 H   0  0  0  0  0  0  0  0  0  0  0  0
   -5.4329   22.8203  -30.2320 H   0  0  0  0  0  0  0  0  0  0  0  0
   -3.0859   24.0864  -30.3127 H   0  0  0  0  0  0  0  0  0  0  0  0
   -2.8792   23.1288  -28.7500 H   0  0  0  0  0  0  0  0  0  0  0  0
   -3.7350   21.8650  -31.1940 H   0  0  0  0  0  0  0  0  0  0  0  0
   -3.9940   20.3824  -29.5711 H   0  0  0  0  0  0  0  0  0  0  0  0
   -2.2721   20.0560  -30.0652 H   0  0  0  0  0  0  0  0  0  0  0  0
   -1.4102   21.3030  -28.2157 H   0  0  0  0  0  0  0  0  0  0  0  0
   -3.0569   21.9306  -27.8002 H   0  0  0  0  0  0  0  0  0  0  0  0
   -2.6549   20.2096  -26.2192 H   0  0  0  0  0  0  0  0  0  0  0  0
   -3.7165   19.4587  -27.4585 H   0  0  0  0  0  0  0  0  0  0  0  0
   -1.9535   19.1147  -27.4585 H   0  0  0  0  0  0  0  0  0  0  0  0
   -1.6687   23.2020  -31.6393 H   0  0  0  0  0  0  0  0  0  0  0  0
   -0.8671   22.0543  -30.4754 H   0  0  0  0  0  0  0  0  0  0  0  0
   -0.5006   21.3711  -32.8288 H   0  0  0  0  0  0  0  0  0  0  0  0
   -1.4629   20.1568  -31.9054 H   0  0  0  0  0  0  0  0  0  0  0  0
   -2.6470   22.1240  -33.9150 H   0  0  0  0  0  0  0  0  0  0  0  0
   -7.3266   17.2132  -32.8602 H   0  0  0  0  0  0  0  0  0  0  0  0
   -7.6094   18.1254  -34.3816 H   0  0  0  0  0  0  0  0  0  0  0  0
   -6.5261   16.6926  -34.3816 H   0  0  0  0  0  0  0  0  0  0  0  0
   -4.9158   15.8796  -33.8449 H   0  0  0  0  0  0  0  0  0  0  0  0
   -2.5769   15.1424  -34.2346 H   0  0  0  0  0  0  0  0  0  0  0  0
   -0.7264   16.8017  -34.2812 H   0  0  0  0  0  0  0  0  0  0  0  0
   -1.1903   19.2115  -33.8755 H   0  0  0  0  0  0  0  0  0  0  0  0
   -8.6855   18.8453  -32.4391 H   0  0  0  0  0  0  0  0  0  0  0  0
  -10.4491   20.4605  -31.6711 H   0  0  0  0  0  0  0  0  0  0  0  0
   -9.8979   22.8829  -31.3726 H   0  0  0  0  0  0  0  0  0  0  0  0
   -7.5538   23.7002  -31.7717 H   0  0  0  0  0  0  0  0  0  0  0  0
  1  2  1  0
  2  3  1  0
  3  4  1  0
  4  5  1  0
  5  6  1  0
  6  7  1  0
  7  8  1  0
  5  9  1  0
  9 10  1  0
 10 11  1  0
 11 12  1  0
 12 13  2  0
 13 14  1  0
 14 15  2  0
 15 16  1  0
 15 17  1  0
 17 18  2  0
 18 19  1  0
 19 20  2  0
 20 21  1  0
 21 22  2  0
 14 23  1  0
 23 24  2  0
 24 25  1  0
 25 26  2  0
 26 27  1  0
 27 28  2  0
 28 29  1  0
 29 30  2  0
 22 12  1  0
 28 23  1  0
 29 13  1  0
 22 17  1  0
  1 31  1  0
  1 32  1  0
  1 33  1  0
  2 34  1  0
  2 35  1  0
  3 36  1  0
  3 37  1  0
  4 38  1  0
  4 39  1  0
  5 40  1  6
  6 41  1  0
  6 42  1  0
  7 43  1  0
  7 44  1  0
  8 45  1  0
  8 46  1  0
  8 47  1  0
  9 48  1  0
  9 49  1  0
 10 50  1  0
 10 51  1  0
 11 52  1  0
 16 53  1  0
 16 54  1  0
 16 55  1  0
 18 56  1  0
 19 57  1  0
 20 58  1  0
 21 59  1  0
 24 60  1  0
 25 61  1  0
 26 62  1  0
 27 63  1  0
M  CHG  2   5   1  15   1
M  END
>  <UniqueID>  (8) 
8

>  <SMILES>  (8) 
CCCC[N@H+](CCC)CCNc1c2c([n+](C)c3ccccc13)-c1ccccc1C2=O

>  <Energy>  (8) 
120.96262555316825

>  <Genealogy>  (8) 
CCCC[NH+](CCC)CCNc1c2c([n+](C)c3ccccc13)-c1ccccc1C2=O (protonated)
CCCC[N@H+](CCC)CCNc1c2c([n+](C)c3ccccc13)-c1ccccc1C2=O (chirality)
CCCC[N@H+](CCC)CCNc1c2c([n+](C)c3ccccc13)-c1ccccc1C2=O (3D coordinates assigned)
CCCC[N@H+](CCC)CCNc1c2c([n+](C)c3ccccc13)-c1ccccc1C2=O (nonaromatic ring conformer: 120.96262555316825 kcal/mol)

>  <smiles>  (8) 
CCCCN(CCC)CCNc1c2c([n+](C)c3ccccc13)-c1ccccc1C2=O

>  <score_type>  (8) 
oracle

>  <origin>  (8) 
adg

>  <m_score__min__energy>  (8) 
-8.2699999999999996

>  <m_primary>  (8) 
energy

$$$$
8:0
     RDKit          3D

 43 44  0  0  0  0  0  0  0  0999 V2000
   -4.7030   23.5340  -31.5190 H   0  0  0  0  0  0  0  0  0  0  0  0
   -4.8880   23.0500  -32.4250 N   0  0  0  0  0  0  0  0  0  0  0  0
   -5.5720   21.9510  -32.5130 C   0  0  0  0  0  0  0  0  0  0  0  0
   -5.0370   20.7850  -32.9590 N   0  0  0  0  0  0  0  0  0  0  0  0
   -3.6490   20.5320  -33.3530 C   0  0  0  0  0  0  0  0  0  0  0  0
   -3.5532   19.4910  -33.6952 H   0  0  0  0  0  0  0  0  0  0  0  0
   -3.3764   21.2227  -34.1646 H   0  0  0  0  0  0  0  0  0  0  0  0
   -2.7130   20.7610  -32.1730 C   0  0  0  0  0  0  0  0  0  0  0  0
   -3.2680   20.6252  -31.2330 H   0  0  0  0  0  0  0  0  0  0  0  0
   -1.8841   20.0392  -32.2170 H   0  0  0  0  0  0  0  0  0  0  0  0
   -2.3110   21.7840  -32.2170 H   0  0  0  0  0  0  0  0  0  0  0  0
   -6.0390   19.8920  -32.8350 C   0  0  0  0  0  0  0  0  0  0  0  0
   -6.0250   18.5200  -33.0980 C   0  0  0  0  0  0  0  0  0  0  0  0
   -5.1220   18.0245  -33.4840 H   0  0  0  0  0  0  0  0  0  0  0  0
   -7.2030   17.7940  -32.8530 C   0  0  0  0  0  0  0  0  0  0  0  0
   -7.2296   16.7128  -33.0538 H   0  0  0  0  0  0  0  0  0  0  0  0
   -8.3530   18.4420  -32.3510 C   0  0  0  0  0  0  0  0  0  0  0  0
   -9.2688   17.8619  -32.1644 H   0  0  0  0  0  0  0  0  0  0  0  0
   -8.3360   19.8230  -32.0880 C   0  0  0  0  0  0  0  0  0  0  0  0
   -9.2246   20.3364  -31.6920 H   0  0  0  0  0  0  0  0  0  0  0  0
   -7.1530   20.5230  -32.3460 C   0  0  0  0  0  0  0  0  0  0  0  0
   -6.8790   21.8300  -32.1470 N   0  0  0  0  0  0  0  0  0  0  0  0
   -7.7540   22.8480  -31.5530 C   0  0  0  0  0  0  0  0  0  0  0  0
   -7.6306   23.7937  -32.1011 H   0  0  0  0  0  0  0  0  0  0  0  0
   -8.7953   22.4997  -31.6193 H   0  0  0  0  0  0  0  0  0  0  0  0
   -7.4050   23.0730  -30.0790 C   0  0  0  0  0  0  0  0  0  0  0  0
   -8.0580   23.8581  -29.6700 H   0  0  0  0  0  0  0  0  0  0  0  0
   -7.5525   22.1286  -29.5347 H   0  0  0  0  0  0  0  0  0  0  0  0
   -6.0540   23.4720  -29.9350 O   0  0  0  0  0  0  0  0  0  0  0  0
   -5.9550   24.8020  -29.4630 C   0  0  0  0  0  0  0  0  0  0  0  0
   -6.9655   25.2070  -29.3052 H   0  0  0  0  0  0  0  0  0  0  0  0
   -5.3954   24.8044  -28.5160 H   0  0  0  0  0  0  0  0  0  0  0  0
   -5.2150   25.6740  -30.4800 C   0  0  0  0  0  0  0  0  0  0  0  0
   -5.6888   25.5634  -31.4665 H   0  0  0  0  0  0  0  0  0  0  0  0
   -5.2639   26.7240  -30.1557 H   0  0  0  0  0  0  0  0  0  0  0  0
   -3.8590   25.2800  -30.5660 O   0  0  0  0  0  0  0  0  0  0  0  0
   -3.4900   24.5250  -29.4310 C   0  0  0  0  0  0  0  0  0  0  0  0
   -2.8694   25.1420  -28.7646 H   0  0  0  0  0  0  0  0  0  0  0  0
   -4.3931   24.2031  -28.8917 H   0  0  0  0  0  0  0  0  0  0  0  0
   -2.7000   23.3060  -29.8770 C   0  0  0  0  0  0  0  0  0  0  0  0
   -2.3438   22.7564  -28.9932 H   0  0  0  0  0  0  0  0  0  0  0  0
   -3.3459   22.6511  -30.4803 H   0  0  0  0  0  0  0  0  0  0  0  0
   -1.8384   23.6280  -30.4803 H   0  0  0  0  0  0  0  0  0  0  0  0
  1  2  1  0
  2  3  2  0
  3  4  1  0
  4  5  1  0
  5  6  1  0
  5  7  1  0
  5  8  1  0
  8  9  1  0
  8 10  1  0
  8 11  1  0
  4 12  1  0
 12 13  2  0
 13 14  1  0
 13 15  1  0
 15 16  1  0
 15 17  2  0
 17 18  1  0
 17 19  1  0
 19 20  1  0
 19 21  2  0
 21 22  1  0
 22 23  1  0
 23 24  1  0
 23 25  1  0
 23 26  1  0
 26 27  1  0
 26 28  1  0
 26 29  1  0
 29 30  1  0
 30 31  1  0
 30 32  1  0
 30 33  1  0
 33 34  1  0
 33 35  1  0
 33 36  1  0
 36 37  1  0
 37 38  1  0
 37 39  1  0
 37 40  1  0
 40 41  1  0
 40 42  1  0
 40 43  1  0
 22  3  1  0
 21 12  1  0
M  END
>  <UniqueID>  (9) 
9

>  <SMILES>  (9) 
[H]/N=c1/n(CC)c2ccccc2n1CCOCCOCC

>  <Energy>  (9) 
78.26712727048165

>  <Genealogy>  (9) 
[H]/N=c1/n(CC)c2ccccc2n1CCOCCOCC (cis-trans isomerization)
[H]/N=c1/n(CC)c2ccccc2n1CCOCCOCC (3D coordinates assigned)
[H]/N=c1/n(CC)c2ccccc2n1CCOCCOCC (optimized conformer: 78.26712727048165 kcal/mol)

>  <smiles>  (9) 
CCOCCOCCn1c(=N)n(CC)c2ccccc21

>  <score_type>  (9) 
oracle

>  <origin>  (9) 
adg

>  <m_score__min__energy>  (9) 
-7.2699999999999996

>  <m_primary>  (9) 
energy

$$$$
9:0
     RDKit          3D

 48 50  0  0  0  0  0  0  0  0999 V2000
   -2.7250   24.8540  -27.0280 C   0  0  0  0  0  0  0  0  0  0  0  0
   -1.6170   25.3950  -27.9200 C   0  0  0  0  0  0  0  0  0  0  0  0
   -2.0160   25.2880  -29.2700 O   0  0  0  0  0  0  0  0  0  0  0  0
   -2.4860   23.9800  -29.5200 C   0  0  0  0  0  0  0  0  0  0  0  0
   -3.6940   24.0480  -30.4550 C   0  0  0  0  0  0  0  0  0  0  0  0
   -4.0050   25.3900  -30.7810 O   0  0  0  0  0  0  0  0  0  0  0  0
   -5.3610   25.6960  -30.5040 C   0  0  0  0  0  0  0  0  0  0  0  0
   -6.1240   24.4190  -30.1520 C   0  0  0  0  0  0  0  0  0  0  0  0
   -6.9320   23.9830  -31.2440 O   0  0  0  0  0  0  0  0  0  0  0  0
   -7.3730   22.6680  -31.4640 C   0  0  0  0  0  0  0  0  0  0  0  0
   -8.6790   22.2390  -31.1540 C   0  0  0  0  0  0  0  0  0  0  0  0
   -9.0640   20.9160  -31.3920 C   0  0  0  0  0  0  0  0  0  0  0  0
   -8.1520   20.0030  -31.9480 C   0  0  0  0  0  0  0  0  0  0  0  0
   -8.4930   18.6700  -32.2160 C   0  0  0  0  0  0  0  0  0  0  0  0
   -9.6500   18.2320  -31.9670 O   0  0  0  0  0  0  0  0  0  0  0  0
   -7.5410   17.8170  -32.7760 C   0  0  0  0  0  0  0  0  0  0  0  0
   -6.2540   18.3100  -33.0560 C   0  0  0  0  0  0  0  0  0  0  0  0
   -5.1990   17.4550  -33.6600 C   0  0  0  0  0  0  0  0  0  0  0  0
   -5.2570   16.0460  -33.5980 C   0  0  0  0  0  0  0  0  0  0  0  0
   -4.2480   15.2700  -34.1760 C   0  0  0  0  0  0  0  0  0  0  0  0
   -3.1660   15.8850  -34.8110 C   0  0  0  0  0  0  0  0  0  0  0  0
   -3.0890   17.2780  -34.8670 C   0  0  0  0  0  0  0  0  0  0  0  0
   -4.0960   18.0600  -34.2920 C   0  0  0  0  0  0  0  0  0  0  0  0
   -5.9690   19.5850  -32.7930 O   0  0  0  0  0  0  0  0  0  0  0  0
   -6.8460   20.4330  -32.2630 C   0  0  0  0  0  0  0  0  0  0  0  0
   -6.4660   21.7560  -32.0180 C   0  0  0  0  0  0  0  0  0  0  0  0
   -2.4457   24.9904  -25.9728 H   0  0  0  0  0  0  0  0  0  0  0  0
   -3.6591   25.3974  -27.2332 H   0  0  0  0  0  0  0  0  0  0  0  0
   -2.8710   23.7832  -27.2332 H   0  0  0  0  0  0  0  0  0  0  0  0
   -1.4288   26.4506  -27.6742 H   0  0  0  0  0  0  0  0  0  0  0  0
   -0.6960   24.8155  -27.7591 H   0  0  0  0  0  0  0  0  0  0  0  0
   -1.6888   23.3869  -29.9919 H   0  0  0  0  0  0  0  0  0  0  0  0
   -2.7798   23.5061  -28.5718 H   0  0  0  0  0  0  0  0  0  0  0  0
   -3.4659   23.4964  -31.3790 H   0  0  0  0  0  0  0  0  0  0  0  0
   -4.5595   23.6005  -29.9444 H   0  0  0  0  0  0  0  0  0  0  0  0
   -5.4108   26.3954  -29.6564 H   0  0  0  0  0  0  0  0  0  0  0  0
   -5.8165   26.1550  -31.3938 H   0  0  0  0  0  0  0  0  0  0  0  0
   -5.4024   23.6275  -29.9012 H   0  0  0  0  0  0  0  0  0  0  0  0
   -6.7809   24.6307  -29.2955 H   0  0  0  0  0  0  0  0  0  0  0  0
   -9.3998   22.9490  -30.7223 H   0  0  0  0  0  0  0  0  0  0  0  0
  -10.0843   20.5888  -31.1431 H   0  0  0  0  0  0  0  0  0  0  0  0
   -7.7947   16.7696  -32.9962 H   0  0  0  0  0  0  0  0  0  0  0  0
   -6.1014   15.5555  -33.0917 H   0  0  0  0  0  0  0  0  0  0  0  0
   -4.3061   14.1725  -34.1308 H   0  0  0  0  0  0  0  0  0  0  0  0
   -2.3748   15.2717  -35.2668 H   0  0  0  0  0  0  0  0  0  0  0  0
   -2.2350   17.7612  -35.3641 H   0  0  0  0  0  0  0  0  0  0  0  0
   -4.0256   19.1569  -34.3339 H   0  0  0  0  0  0  0  0  0  0  0  0
   -5.4449   22.0837  -32.2627 H   0  0  0  0  0  0  0  0  0  0  0  0
  1  2  1  0
  2  3  1  0
  3  4  1  0
  4  5  1  0
  5  6  1  0
  6  7  1  0
  7  8  1  0
  8  9  1  0
  9 10  1  0
 10 11  2  0
 11 12  1  0
 12 13  2  0
 13 14  1  0
 14 15  2  0
 14 16  1  0
 16 17  2  0
 17 18  1  0
 18 19  2  0
 19 20  1  0
 20 21  2  0
 21 22  1  0
 22 23  2  0
 17 24  1  0
 24 25  1  0
 25 26  2  0
 26 10  1  0
 25 13  1  0
 23 18  1  0
  1 27  1  0
  1 28  1  0
  1 29  1  0
  2 30  1  0
  2 31  1  0
  4 32  1  0
  4 33  1  0
  5 34  1  0
  5 35  1  0
  7 36  1  0
  7 37  1  0
  8 38  1  0
  8 39  1  0
 11 40  1  0
 12 41  1  0
 16 42  1  0
 19 43  1  0
 20 44  1  0
 21 45  1  0
 22 46  1  0
 23 47  1  0
 26 48  1  0
M  END
>  <UniqueID>  (10) 
10

>  <SMILES>  (10) 
CCOCCOCCOc1ccc2c(=O)cc(-c3ccccc3)oc2c1

>  <Energy>  (10) 
56.33337338752506

>  <Genealogy>  (10) 
CCOCCOCCOc1ccc2c(=O)cc(-c3ccccc3)oc2c1 (3D coordinates assigned)
CCOCCOCCOc1ccc2c(=O)cc(-c3ccccc3)oc2c1 (optimized conformer: 56.33337338752506 kcal/mol)

>  <smiles>  (10) 
CCOCCOCCOc1ccc2c(=O)cc(-c3ccccc3)oc2c1

>  <score_type>  (10) 
oracle

>  <origin>  (10) 
adg

>  <m_score__min__energy>  (10) 
-9.0099999999999998

>  <m_primary>  (10) 
energy

$$$$
10:0
     RDKit          3D

 60 63  0  0  0  0  0  0  0  0999 V2000
   -6.1490   25.3190  -29.4890 C   0  0  0  0  0  0  0  0  0  0  0  0
   -5.2120   25.6950  -30.6240 C   0  0  0  0  0  0  0  0  0  0  0  0
   -3.9670   25.0660  -30.4280 O   0  0  0  0  0  0  0  0  0  0  0  0
   -4.0480   24.1280  -29.3690 C   0  0  0  0  0  0  0  0  0  0  0  0
   -2.6620   23.8790  -28.7700 C   0  0  0  0  0  0  0  0  0  0  0  0
   -2.1390   22.6490  -29.2360 O   0  0  0  0  0  0  0  0  0  0  0  0
   -2.2440   22.5640  -30.6400 C   0  0  0  0  0  0  0  0  0  0  0  0
   -0.9800   21.9240  -31.2110 C   0  0  0  0  0  0  0  0  0  0  0  0
   -1.2070   21.5710  -32.5620 O   0  0  0  0  0  0  0  0  0  0  0  0
   -0.5700   20.3480  -32.8800 C   0  0  0  0  0  0  0  0  0  0  0  0
   -1.5060   19.4480  -33.6880 C   0  0  0  0  0  0  0  0  0  0  0  0
   -2.7650   20.1320  -33.9760 N   0  0  0  0  0  0  0  0  0  0  0  0
   -4.0180   19.5170  -33.6480 C   0  0  0  0  0  0  0  0  0  0  0  0
   -5.0390   20.2730  -33.0840 C   0  0  0  0  0  0  0  0  0  0  0  0
   -6.2570   19.7060  -32.7530 C   0  0  0  0  0  0  0  0  0  0  0  0
   -6.4760   18.3550  -32.8630 N   0  0  0  0  0  0  0  0  0  0  0  0
   -7.6540   17.7470  -32.2240 C   0  0  0  0  0  0  0  0  0  0  0  0
   -5.5310   17.5840  -33.5220 C   0  0  0  0  0  0  0  0  0  0  0  0
   -5.7790   16.2310  -33.8590 C   0  0  0  0  0  0  0  0  0  0  0  0
   -4.8000   15.4520  -34.4730 C   0  0  0  0  0  0  0  0  0  0  0  0
   -3.5550   15.9940  -34.7700 C   0  0  0  0  0  0  0  0  0  0  0  0
   -3.2890   17.3320  -34.4880 C   0  0  0  0  0  0  0  0  0  0  0  0
   -4.2680   18.1510  -33.8950 C   0  0  0  0  0  0  0  0  0  0  0  0
   -7.1490   20.7900  -32.2690 C   0  0  0  0  0  0  0  0  0  0  0  0
   -8.5230   20.8170  -31.9900 C   0  0  0  0  0  0  0  0  0  0  0  0
   -9.1140   22.0350  -31.6160 C   0  0  0  0  0  0  0  0  0  0  0  0
   -8.3500   23.2160  -31.5680 C   0  0  0  0  0  0  0  0  0  0  0  0
   -6.9920   23.1930  -31.9150 C   0  0  0  0  0  0  0  0  0  0  0  0
   -6.4200   21.9720  -32.2660 C   0  0  0  0  0  0  0  0  0  0  0  0
   -5.0860   21.6990  -32.7750 C   0  0  0  0  0  0  0  0  0  0  0  0
   -4.1680   22.5440  -32.9460 O   0  0  0  0  0  0  0  0  0  0  0  0
   -5.6560   25.5168  -28.5258 H   0  0  0  0  0  0  0  0  0  0  0  0
   -7.0692   25.9175  -29.5597 H   0  0  0  0  0  0  0  0  0  0  0  0
   -6.4003   24.2504  -29.5597 H   0  0  0  0  0  0  0  0  0  0  0  0
   -5.6433   25.3658  -31.5809 H   0  0  0  0  0  0  0  0  0  0  0  0
   -5.0746   26.7862  -30.6421 H   0  0  0  0  0  0  0  0  0  0  0  0
   -4.7155   24.5203  -28.5876 H   0  0  0  0  0  0  0  0  0  0  0  0
   -4.4427   23.1794  -29.7619 H   0  0  0  0  0  0  0  0  0  0  0  0
   -1.9869   24.6956  -29.0656 H   0  0  0  0  0  0  0  0  0  0  0  0
   -2.7478   23.8390  -27.6741 H   0  0  0  0  0  0  0  0  0  0  0  0
   -3.1171   21.9497  -30.9052 H   0  0  0  0  0  0  0  0  0  0  0  0
   -2.3631   23.5741  -31.0590 H   0  0  0  0  0  0  0  0  0  0  0  0
   -0.1467   22.6397  -31.1527 H   0  0  0  0  0  0  0  0  0  0  0  0
   -0.7272   21.0240  -30.6313 H   0  0  0  0  0  0  0  0  0  0  0  0
    0.3337   20.5543  -33.4723 H   0  0  0  0  0  0  0  0  0  0  0  0
   -0.3028   19.8336  -31.9451 H   0  0  0  0  0  0  0  0  0  0  0  0
   -1.0173   19.1783  -34.6359 H   0  0  0  0  0  0  0  0  0  0  0  0
   -1.7227   18.5454  -33.0979 H   0  0  0  0  0  0  0  0  0  0  0  0
   -2.7690   20.8150  -34.7640 H   0  0  0  0  0  0  0  0  0  0  0  0
   -7.5473   17.8020  -31.1306 H   0  0  0  0  0  0  0  0  0  0  0  0
   -8.5595   18.2904  -32.5319 H   0  0  0  0  0  0  0  0  0  0  0  0
   -7.7357   16.6941  -32.5319 H   0  0  0  0  0  0  0  0  0  0  0  0
   -6.7600   15.7879  -33.6325 H   0  0  0  0  0  0  0  0  0  0  0  0
   -5.0137   14.4025  -34.7239 H   0  0  0  0  0  0  0  0  0  0  0  0
   -2.7780   15.3649  -35.2288 H   0  0  0  0  0  0  0  0  0  0  0  0
   -2.3025   17.7533  -34.7316 H   0  0  0  0  0  0  0  0  0  0  0  0
   -9.1271   19.9006  -32.0628 H   0  0  0  0  0  0  0  0  0  0  0  0
  -10.1830   22.0661  -31.3584 H   0  0  0  0  0  0  0  0  0  0  0  0
   -8.8202   24.1606  -31.2571 H   0  0  0  0  0  0  0  0  0  0  0  0
   -6.3931   24.1157  -31.9103 H   0  0  0  0  0  0  0  0  0  0  0  0
  1  2  1  0
  2  3  1  0
  3  4  1  0
  4  5  1  0
  5  6  1  0
  6  7  1  0
  7  8  1  0
  8  9  1  0
  9 10  1  0
 10 11  1  0
 11 12  1  0
 12 13  1  0
 13 14  2  0
 14 15  1  0
 15 16  2  0
 16 17  1  0
 16 18  1  0
 18 19  2  0
 19 20  1  0
 20 21  2  0
 21 22  1  0
 22 23  2  0
 15 24  1  0
 24 25  2  0
 25 26  1  0
 26 27  2  0
 27 28  1  0
 28 29  2  0
 29 30  1  0
 30 31  2  0
 23 13  1  0
 29 24  1  0
 30 14  1  0
 23 18  1  0
  1 32  1  0
  1 33  1  0
  1 34  1  0
  2 35  1  0
  2 36  1  0
  4 37  1  0
  4 38  1  0
  5 39  1  0
  5 40  1  0
  7 41  1  0
  7 42  1  0
  8 43  1  0
  8 44  1  0
 10 45  1  0
 10 46  1  0
 11 47  1  0
 11 48  1  0
 12 49  1  0
 17 50  1  0
 17 51  1  0
 17 52  1  0
 19 53  1  0
 20 54  1  0
 21 55  1  0
 22 56  1  0
 25 57  1  0
 26 58  1  0
 27 59  1  0
 28 60  1  0
M  CHG  1  16   1
M  END
>  <UniqueID>  (11) 
11

>  <SMILES>  (11) 
CCOCCOCCOCCNc1c2c([n+](C)c3ccccc13)-c1ccccc1C2=O

>  <Energy>  (11) 
114.05077287044864

>  <Genealogy>  (11) 
CCOCCOCCOCCNc1c2c([n+](C)c3ccccc13)-c1ccccc1C2=O (3D coordinates assigned)
CCOCCOCCOCCNc1c2c([n+](C)c3ccccc13)-c1ccccc1C2=O (nonaromatic ring conformer: 114.05077287044864 kcal/mol)

>  <smiles>  (11) 
CCOCCOCCOCCNc1c2c([n+](C)c3ccccc13)-c1ccccc1C2=O

>  <score_type>  (11) 
oracle

>  <origin>  (11) 
adg

>  <m_score__min__energy>  (11) 
-9.3499999999999996

>  <m_primary>  (11) 
energy

$$$$
11:0
     RDKit          3D

 50 52  0  0  0  0  0  0  0  0999 V2000
   -2.7080   24.5300  -27.4850 C   0  0  0  0  0  0  0  0  0  0  0  0
   -4.1950   24.1770  -27.4960 C   0  0  0  0  0  0  0  0  0  0  0  0
   -4.6380   23.5420  -28.8250 C   0  0  0  0  0  0  0  0  0  0  0  0
   -4.7530   24.5550  -29.9730 C   0  0  0  0  0  0  0  0  0  0  0  0
   -4.1760   24.0090  -31.2080 N   0  0  0  0  0  0  0  0  0  0  0  0
   -3.4880   22.7420  -30.9300 C   0  0  0  0  0  0  0  0  0  0  0  0
   -3.4300   21.8630  -32.1900 C   0  0  0  0  0  0  0  0  0  0  0  0
   -4.5640   22.0950  -33.1060 N   0  0  0  0  0  0  0  0  0  0  0  0
   -5.6400   21.1300  -32.9000 C   0  0  0  0  0  0  0  0  0  0  0  0
   -6.9120   21.5280  -32.3960 C   0  0  0  0  0  0  0  0  0  0  0  0
   -7.2100   22.8750  -32.0570 C   0  0  0  0  0  0  0  0  0  0  0  0
   -8.4890   23.2570  -31.6640 C   0  0  0  0  0  0  0  0  0  0  0  0
   -9.5050   22.3190  -31.5890 C   0  0  0  0  0  0  0  0  0  0  0  0
   -9.2390   20.9840  -31.8680 C   0  0  0  0  0  0  0  0  0  0  0  0
   -7.9370   20.5500  -32.2300 C   0  0  0  0  0  0  0  0  0  0  0  0
   -7.6670   19.2130  -32.4330 N   0  0  0  0  0  0  0  0  0  0  0  0
   -8.6120   18.1860  -31.9380 C   0  0  0  0  0  0  0  0  0  0  0  0
   -6.5030   18.8290  -33.0650 C   0  0  0  0  0  0  0  0  0  0  0  0
   -6.3320   17.5030  -33.5420 C   0  0  0  0  0  0  0  0  0  0  0  0
   -5.1340   17.0910  -34.1150 C   0  0  0  0  0  0  0  0  0  0  0  0
   -4.0800   17.9830  -34.2390 C   0  0  0  0  0  0  0  0  0  0  0  0
   -2.9070   17.5720  -34.7820 F   0  0  0  0  0  0  0  0  0  0  0  0
   -4.2310   19.3030  -33.8240 C   0  0  0  0  0  0  0  0  0  0  0  0
   -5.4510   19.7650  -33.2630 C   0  0  0  0  0  0  0  0  0  0  0  0
   -2.3585   24.6130  -26.4453 H   0  0  0  0  0  0  0  0  0  0  0  0
   -2.1402   23.7417  -28.0009 H   0  0  0  0  0  0  0  0  0  0  0  0
   -2.5551   25.4894  -28.0009 H   0  0  0  0  0  0  0  0  0  0  0  0
   -4.3951   23.4660  -26.6809 H   0  0  0  0  0  0  0  0  0  0  0  0
   -4.7619   25.1106  -27.3654 H   0  0  0  0  0  0  0  0  0  0  0  0
   -3.9018   22.7753  -29.1082 H   0  0  0  0  0  0  0  0  0  0  0  0
   -5.6393   23.1157  -28.6648 H   0  0  0  0  0  0  0  0  0  0  0  0
   -5.8143   24.7888  -30.1431 H   0  0  0  0  0  0  0  0  0  0  0  0
   -4.2006   25.4654  -29.6974 H   0  0  0  0  0  0  0  0  0  0  0  0
   -3.4630   24.6940  -31.5540 H   0  0  0  0  0  0  0  0  0  0  0  0
   -2.4632   22.9550  -30.5917 H   0  0  0  0  0  0  0  0  0  0  0  0
   -4.0451   22.2027  -30.1498 H   0  0  0  0  0  0  0  0  0  0  0  0
   -2.4950   22.0809  -32.7270 H   0  0  0  0  0  0  0  0  0  0  0  0
   -3.4798   20.8140  -31.8628 H   0  0  0  0  0  0  0  0  0  0  0  0
   -4.8750   23.0850  -33.0600 H   0  0  0  0  0  0  0  0  0  0  0  0
   -4.2270   22.0330  -34.0930 H   0  0  0  0  0  0  0  0  0  0  0  0
   -6.4131   23.6317  -32.1062 H   0  0  0  0  0  0  0  0  0  0  0  0
   -8.6938   24.3080  -31.4120 H   0  0  0  0  0  0  0  0  0  0  0  0
  -10.5220   22.6306  -31.3087 H   0  0  0  0  0  0  0  0  0  0  0  0
  -10.0544   20.2482  -31.8070 H   0  0  0  0  0  0  0  0  0  0  0  0
   -8.6113   18.1868  -30.8380 H   0  0  0  0  0  0  0  0  0  0  0  0
   -9.6243   18.4123  -32.3041 H   0  0  0  0  0  0  0  0  0  0  0  0
   -8.3024   17.1960  -32.3041 H   0  0  0  0  0  0  0  0  0  0  0  0
   -7.1633   16.7876  -33.4567 H   0  0  0  0  0  0  0  0  0  0  0  0
   -5.0224   16.0560  -34.4704 H   0  0  0  0  0  0  0  0  0  0  0  0
   -3.3887   20.0021  -33.9327 H   0  0  0  0  0  0  0  0  0  0  0  0
  1  2  1  0
  2  3  1  0
  3  4  1  0
  4  5  1  0
  5  6  1  0
  6  7  1  0
  7  8  1  0
  8  9  1  0
  9 10  2  0
 10 11  1  0
 11 12  2  0
 12 13  1  0
 13 14  2  0
 14 15  1  0
 15 16  2  0
 16 17  1  0
 16 18  1  0
 18 19  2  0
 19 20  1  0
 20 21  2  0
 21 22  1  0
 21 23  1  0
 23 24  2  0
 24  9  1  0
 15 10  1  0
 24 18  1  0
  1 25  1  0
  1 26  1  0
  1 27  1  0
  2 28  1  0
  2 29  1  0
  3 30  1  0
  3 31  1  0
  4 32  1  0
  4 33  1  0
  5 34  1  0
  6 35  1  0
  6 36  1  0
  7 37  1  0
  7 38  1  0
  8 39  1  0
  8 40  1  0
 11 41  1  0
 12 42  1  0
 13 43  1  0
 14 44  1  0
 17 45  1  0
 17 46  1  0
 17 47  1  0
 19 48  1  0
 20 49  1  0
 23 50  1  0
M  CHG  2   8   1  16   1
M  END
>  <UniqueID>  (12) 
12

>  <SMILES>  (12) 
CCCCNCC[NH2+]c1c2ccccc2[n+](C)c2ccc(F)cc12

>  <Energy>  (12) 
72.05694195912037

>  <Genealogy>  (12) 
CCCCNCC[NH2+]c1c2ccccc2[n+](C)c2ccc(F)cc12 (protonated)
CCCCNCC[NH2+]c1c2ccccc2[n+](C)c2ccc(F)cc12 (3D coordinates assigned)
CCCCNCC[NH2+]c1c2ccccc2[n+](C)c2ccc(F)cc12 (optimized conformer: 72.05694195912037 kcal/mol)

>  <smiles>  (12) 
CCCCNCCNc1c2ccccc2[n+](C)c2ccc(F)cc12

>  <score_type>  (12) 
oracle

>  <origin>  (12) 
adg

>  <m_score__min__energy>  (12) 
-8.0899999999999999

>  <m_primary>  (12) 
energy

$$$$
12:0
     RDKit          3D

 43 46  0  0  0  0  0  0  0  0999 V2000
   -9.1060   19.3320  -32.1920 C   0  0  0  0  0  0  0  0  0  0  0  0
   -7.7450   19.7000  -32.5630 N   0  0  0  0  0  0  0  0  0  0  0  0
   -7.0300   19.0420  -33.4630 N   0  0  0  0  0  0  0  0  0  0  0  0
   -5.8300   19.6490  -33.5650 C   0  0  0  0  0  0  0  0  0  0  0  0
   -5.7870   20.7220  -32.6950 C   0  0  0  0  0  0  0  0  0  0  0  0
   -7.0250   20.7350  -32.0820 C   0  0  0  0  0  0  0  0  0  0  0  0
   -7.4810   21.7380  -31.0560 C   0  0  0  0  0  0  0  0  0  0  0  0
   -7.5430   23.1640  -31.6310 C   0  0  0  0  0  0  0  0  0  0  0  0
   -6.2250   23.6610  -32.2610 C   0  0  0  0  0  0  0  0  0  0  0  0
   -5.0620   22.8980  -31.7720 N   0  0  0  0  0  0  0  0  0  0  0  0
   -4.4500   23.2020  -30.4980 C   0  0  0  0  0  0  0  0  0  0  0  0
   -3.4970   24.2250  -30.3640 C   0  0  0  0  0  0  0  0  0  0  0  0
   -2.9390   24.4710  -29.1090 C   0  0  0  0  0  0  0  0  0  0  0  0
   -1.9880   25.4880  -28.9670 O   0  0  0  0  0  0  0  0  0  0  0  0
   -1.0800   25.5710  -27.8710 C   0  0  0  0  0  0  0  0  0  0  0  0
   -1.8490   25.7940  -26.5620 C   0  0  0  0  0  0  0  0  0  0  0  0
   -1.1790   26.7270  -25.5670 C   0  0  0  0  0  0  0  0  0  0  0  0
   -1.1920   25.2280  -25.3140 C   0  0  0  0  0  0  0  0  0  0  0  0
   -3.3210   23.7160  -28.0430 N   0  0  0  0  0  0  0  0  0  0  0  0
   -4.2400   22.7280  -28.1810 C   0  0  0  0  0  0  0  0  0  0  0  0
   -4.7920   22.4780  -29.3960 N   0  0  0  0  0  0  0  0  0  0  0  0
   -4.6470   21.6870  -32.5060 C   0  0  0  0  0  0  0  0  0  0  0  0
   -9.1935   19.3083  -31.0957 H   0  0  0  0  0  0  0  0  0  0  0  0
   -9.8101   20.0720  -32.6002 H   0  0  0  0  0  0  0  0  0  0  0  0
   -9.3413   18.3380  -32.6002 H   0  0  0  0  0  0  0  0  0  0  0  0
   -5.0143   19.3390  -34.2348 H   0  0  0  0  0  0  0  0  0  0  0  0
   -8.4832   21.4538  -30.7026 H   0  0  0  0  0  0  0  0  0  0  0  0
   -6.7526   21.7356  -30.2317 H   0  0  0  0  0  0  0  0  0  0  0  0
   -8.3238   23.1879  -32.4055 H   0  0  0  0  0  0  0  0  0  0  0  0
   -7.7548   23.8326  -30.7836 H   0  0  0  0  0  0  0  0  0  0  0  0
   -6.2890   23.5510  -33.3536 H   0  0  0  0  0  0  0  0  0  0  0  0
   -6.0864   24.7146  -31.9769 H   0  0  0  0  0  0  0  0  0  0  0  0
   -3.1949   24.8237  -31.2359 H   0  0  0  0  0  0  0  0  0  0  0  0
   -0.5079   24.6341  -27.8013 H   0  0  0  0  0  0  0  0  0  0  0  0
   -0.3963   26.4171  -28.0344 H   0  0  0  0  0  0  0  0  0  0  0  0
   -2.8489   25.7240  -27.0152 H   0  0  0  0  0  0  0  0  0  0  0  0
   -0.2386   27.2317  -25.8334 H   0  0  0  0  0  0  0  0  0  0  0  0
   -1.4943   27.6145  -24.9988 H   0  0  0  0  0  0  0  0  0  0  0  0
   -0.2610   24.6480  -25.3973 H   0  0  0  0  0  0  0  0  0  0  0  0
   -1.5206   24.5815  -24.4869 H   0  0  0  0  0  0  0  0  0  0  0  0
   -4.5383   22.1289  -27.3080 H   0  0  0  0  0  0  0  0  0  0  0  0
   -4.2660   21.9841  -33.4942 H   0  0  0  0  0  0  0  0  0  0  0  0
   -3.8694   21.1816  -31.9144 H   0  0  0  0  0  0  0  0  0  0  0  0
  1  2  1  0
  2  3  1  0
  3  4  2  0
  4  5  1  0
  5  6  2  0
  6  7  1  0
  7  8  1  0
  8  9  1  0
  9 10  1  0
 10 11  1  0
 11 12  2  0
 12 13  1  0
 13 14  1  0
 14 15  1  0
 15 16  1  0
 16 17  1  0
 17 18  1  0
 13 19  2  0
 19 20  1  0
 20 21  2  0
 10 22  1  0
  6  2  1  0
 21 11  1  0
 22  5  1  0
 18 16  1  0
  1 23  1  0
  1 24  1  0
  1 25  1  0
  4 26  1  0
  7 27  1  0
  7 28  1  0
  8 29  1  0
  8 30  1  0
  9 31  1  0
  9 32  1  0
 12 33  1  0
 15 34  1  0
 15 35  1  0
 16 36  1  0
 17 37  1  0
 17 38  1  0
 18 39  1  0
 18 40  1  0
 20 41  1  0
 22 42  1  0
 22 43  1  0
M  END
>  <UniqueID>  (13) 
13

>  <SMILES>  (13) 
Cn1ncc2c1CCCN(c1cc(OCC3CC3)ncn1)C2

>  <Energy>  (13) 
343.15871276111744

>  <Genealogy>  (13) 
Cn1ncc2c1CCCN(c1cc(OCC3CC3)ncn1)C2 (3D coordinates assigned)
Cn1ncc2c1CCCN(c1cc(OCC3CC3)ncn1)C2 (nonaromatic ring conformer: 343.15871276111744 kcal/mol)

>  <smiles>  (13) 
Cn1ncc2c1CCCN(c1cc(OCC3CC3)ncn1)C2

>  <score_type>  (13) 
oracle

>  <origin>  (13) 
adg

>  <m_score__min__energy>  (13) 
-5.9299999999999997

>  <m_primary>  (13) 
energy

$$$$
13:0
     RDKit          3D

 51 53  0  0  0  0  0  0  0  0999 V2000
    2.2860   22.4140  -35.6870 C   0  0  0  0  0  0  0  0  0  0  0  0
    0.8620   22.9130  -35.8820 C   0  0  0  0  0  0  0  0  0  0  0  0
    0.0140   22.2770  -34.9500 O   0  0  0  0  0  0  0  0  0  0  0  0
    0.5400   21.0180  -34.5740 C   0  0  0  0  0  0  0  0  0  0  0  0
   -0.5570   20.1350  -33.9750 C   0  0  0  0  0  0  0  0  0  0  0  0
   -1.8230   20.8750  -33.9090 N   0  0  0  0  0  0  0  0  0  0  0  0
   -1.9710   21.5220  -32.5990 C   0  0  0  0  0  0  0  0  0  0  0  0
   -3.4550   21.7140  -32.2460 C   0  0  0  0  0  0  0  0  0  0  0  0
   -4.3600   21.5350  -33.4010 N   0  0  0  0  0  0  0  0  0  0  0  0
   -5.5530   20.7710  -33.0490 C   0  0  0  0  0  0  0  0  0  0  0  0
   -6.7260   21.4090  -32.5450 C   0  0  0  0  0  0  0  0  0  0  0  0
   -6.8070   22.8140  -32.3570 C   0  0  0  0  0  0  0  0  0  0  0  0
   -7.9860   23.4220  -31.9340 C   0  0  0  0  0  0  0  0  0  0  0  0
   -9.1170   22.6580  -31.6970 C   0  0  0  0  0  0  0  0  0  0  0  0
   -9.0670   21.2770  -31.8420 C   0  0  0  0  0  0  0  0  0  0  0  0
   -7.8670   20.6180  -32.2210 C   0  0  0  0  0  0  0  0  0  0  0  0
   -7.8070   19.2410  -32.2870 N   0  0  0  0  0  0  0  0  0  0  0  0
   -8.8570   18.4230  -31.6370 C   0  0  0  0  0  0  0  0  0  0  0  0
   -6.7500   18.6230  -32.9190 C   0  0  0  0  0  0  0  0  0  0  0  0
   -6.8020   17.2450  -33.2570 C   0  0  0  0  0  0  0  0  0  0  0  0
   -5.7080   16.5970  -33.8250 C   0  0  0  0  0  0  0  0  0  0  0  0
   -5.8020   14.8880  -34.2190 Cl  0  0  0  0  0  0  0  0  0  0  0  0
   -4.5400   17.3020  -34.0770 C   0  0  0  0  0  0  0  0  0  0  0  0
   -4.4750   18.6650  -33.8040 C   0  0  0  0  0  0  0  0  0  0  0  0
   -5.5830   19.3630  -33.2580 C   0  0  0  0  0  0  0  0  0  0  0  0
    2.5037   22.3377  -34.6115 H   0  0  0  0  0  0  0  0  0  0  0  0
    2.3949   21.4242  -36.1543 H   0  0  0  0  0  0  0  0  0  0  0  0
    2.9889   23.1194  -36.1543 H   0  0  0  0  0  0  0  0  0  0  0  0
    0.8292   24.0014  -35.7258 H   0  0  0  0  0  0  0  0  0  0  0  0
    0.5267   22.6815  -36.9037 H   0  0  0  0  0  0  0  0  0  0  0  0
    0.9598   20.5216  -35.4614 H   0  0  0  0  0  0  0  0  0  0  0  0
    1.3244   21.1719  -33.8184 H   0  0  0  0  0  0  0  0  0  0  0  0
   -0.6898   19.2429  -34.6047 H   0  0  0  0  0  0  0  0  0  0  0  0
   -0.2623   19.8361  -32.9582 H   0  0  0  0  0  0  0  0  0  0  0  0
   -1.7910   21.6130  -34.6490 H   0  0  0  0  0  0  0  0  0  0  0  0
   -1.4967   20.8931  -31.8312 H   0  0  0  0  0  0  0  0  0  0  0  0
   -1.4887   22.5098  -32.6386 H   0  0  0  0  0  0  0  0  0  0  0  0
   -3.7273   20.9808  -31.4725 H   0  0  0  0  0  0  0  0  0  0  0  0
   -3.5747   22.7501  -31.8965 H   0  0  0  0  0  0  0  0  0  0  0  0
   -3.8460   21.0400  -34.1640 H   0  0  0  0  0  0  0  0  0  0  0  0
   -4.5670   22.4440  -33.8570 H   0  0  0  0  0  0  0  0  0  0  0  0
   -5.9198   23.4351  -32.5495 H   0  0  0  0  0  0  0  0  0  0  0  0
   -8.0195   24.5117  -31.7876 H   0  0  0  0  0  0  0  0  0  0  0  0
  -10.0555   23.1451  -31.3937 H   0  0  0  0  0  0  0  0  0  0  0  0
   -9.9743   20.6824  -31.6598 H   0  0  0  0  0  0  0  0  0  0  0  0
   -8.7579   18.5002  -30.5442 H   0  0  0  0  0  0  0  0  0  0  0  0
   -9.8484   18.7892  -31.9421 H   0  0  0  0  0  0  0  0  0  0  0  0
   -8.7445   17.3722  -31.9421 H   0  0  0  0  0  0  0  0  0  0  0  0
   -7.7250   16.6778  -33.0664 H   0  0  0  0  0  0  0  0  0  0  0  0
   -3.6641   16.7828  -34.4932 H   0  0  0  0  0  0  0  0  0  0  0  0
   -3.5450   19.2128  -34.0160 H   0  0  0  0  0  0  0  0  0  0  0  0
  1  2  1  0
  2  3  1  0
  3  4  1  0
  4  5  1  0
  5  6  1  0
  6  7  1  0
  7  8  1  0
  8  9  1  0
  9 10  1  0
 10 11  2  0
 11 12  1  0
 12 13  2  0
 13 14  1  0
 14 15  2  0
 15 16  1  0
 16 17  2  0
 17 18  1  0
 17 19  1  0
 19 20  2  0
 20 21  1  0
 21 22  1  0
 21 23  2  0
 23 24  1  0
 24 25  2  0
 25 10  1  0
 16 11  1  0
 25 19  1  0
  1 26  1  0
  1 27  1  0
  1 28  1  0
  2 29  1  0
  2 30  1  0
  4 31  1  0
  4 32  1  0
  5 33  1  0
  5 34  1  0
  6 35  1  0
  7 36  1  0
  7 37  1  0
  8 38  1  0
  8 39  1  0
  9 40  1  0
  9 41  1  0
 12 42  1  0
 13 43  1  0
 14 44  1  0
 15 45  1  0
 18 46  1  0
 18 47  1  0
 18 48  1  0
 20 49  1  0
 23 50  1  0
 24 51  1  0
M  CHG  2   9   1  17   1
M  END
>  <UniqueID>  (14) 
14

>  <SMILES>  (14) 
CCOCCNCC[NH2+]c1c2ccccc2[n+](C)c2cc(Cl)ccc12

>  <Energy>  (14) 
78.4544636746096

>  <Genealogy>  (14) 
CCOCCNCC[NH2+]c1c2ccccc2[n+](C)c2cc(Cl)ccc12 (protonated)
CCOCCNCC[NH2+]c1c2ccccc2[n+](C)c2cc(Cl)ccc12 (3D coordinates assigned)
CCOCCNCC[NH2+]c1c2ccccc2[n+](C)c2cc(Cl)ccc12 (optimized conformer: 78.4544636746096 kcal/mol)

>  <smiles>  (14) 
CCOCCNCCNc1c2ccccc2[n+](C)c2cc(Cl)ccc12

>  <score_type>  (14) 
oracle

>  <origin>  (14) 
adg

>  <m_score__min__energy>  (14) 
-8.4399999999999995

>  <m_primary>  (14) 
energy

$$$$
14:0
     RDKit          3D

 49 52  0  0  0  0  0  0  0  0999 V2000
   -9.3490   18.9340  -32.7080 C   0  0  0  0  0  0  0  0  0  0  0  0
   -8.9900   20.2740  -32.2520 N   0  0  0  0  0  0  0  0  0  0  0  0
   -9.8350   21.3170  -32.0750 C   0  0  0  0  0  0  0  0  0  0  0  0
   -9.1360   22.4450  -31.6580 C   0  0  0  0  0  0  0  0  0  0  0  0
   -7.8170   22.0500  -31.5900 C   0  0  0  0  0  0  0  0  0  0  0  0
   -6.6770   22.7690  -31.2380 C   0  0  0  0  0  0  0  0  0  0  0  0
   -5.4370   22.0970  -31.2640 C   0  0  0  0  0  0  0  0  0  0  0  0
   -3.9590   22.9620  -30.8560 S   0  0  0  0  0  0  0  0  0  0  0  0
   -4.2410   24.4400  -30.8460 O   0  0  0  0  0  0  0  0  0  0  0  0
   -2.9170   22.6760  -31.9040 O   0  0  0  0  0  0  0  0  0  0  0  0
   -3.4220   22.4500  -29.2730 N   0  0  1  0  0  0  0  0  0  0  0  0
   -2.5830   21.2480  -29.3260 C   0  0  0  0  0  0  0  0  0  0  0  0
   -1.7320   21.2470  -28.0580 C   0  0  0  0  0  0  0  0  0  0  0  0
   -1.9790   22.5990  -27.4000 C   0  0  0  0  0  0  0  0  0  0  0  0
   -2.6680   23.4400  -28.4750 C   0  0  1  0  0  0  0  0  0  0  0  0
   -1.6420   24.2670  -29.2960 C   0  0  0  0  0  0  0  0  0  0  0  0
   -1.6320   25.6370  -28.8830 O   0  0  0  0  0  0  0  0  0  0  0  0
   -1.3460   26.1270  -27.5970 C   0  0  0  0  0  0  0  0  0  0  0  0
   -0.3130   27.0660  -27.4720 C   0  0  0  0  0  0  0  0  0  0  0  0
    0.0240   27.5950  -26.2220 C   0  0  0  0  0  0  0  0  0  0  0  0
   -0.6730   27.1900  -25.0820 C   0  0  0  0  0  0  0  0  0  0  0  0
   -1.7090   26.2600  -25.1900 C   0  0  0  0  0  0  0  0  0  0  0  0
   -2.0480   25.7280  -26.4390 C   0  0  0  0  0  0  0  0  0  0  0  0
   -5.3760   20.7380  -31.6550 C   0  0  0  0  0  0  0  0  0  0  0  0
   -6.5460   20.0400  -32.0040 C   0  0  0  0  0  0  0  0  0  0  0  0
   -7.7580   20.7310  -31.9590 C   0  0  0  0  0  0  0  0  0  0  0  0
   -9.5229   18.2847  -31.8373 H   0  0  0  0  0  0  0  0  0  0  0  0
  -10.2648   18.9864  -33.3151 H   0  0  0  0  0  0  0  0  0  0  0  0
   -8.5297   18.5215  -33.3151 H   0  0  0  0  0  0  0  0  0  0  0  0
  -10.9221   21.2778  -32.2381 H   0  0  0  0  0  0  0  0  0  0  0  0
   -9.5477   23.4395  -31.4310 H   0  0  0  0  0  0  0  0  0  0  0  0
   -6.7417   23.8283  -30.9486 H   0  0  0  0  0  0  0  0  0  0  0  0
   -4.2900   22.2070  -28.7350 H   0  0  0  0  0  0  0  0  0  0  0  0
   -3.2136   20.3473  -29.3594 H   0  0  0  0  0  0  0  0  0  0  0  0
   -1.9502   21.2480  -30.2258 H   0  0  0  0  0  0  0  0  0  0  0  0
   -2.0415   20.4313  -27.3881 H   0  0  0  0  0  0  0  0  0  0  0  0
   -0.6664   21.0912  -28.2821 H   0  0  0  0  0  0  0  0  0  0  0  0
   -2.6293   22.4879  -26.5198 H   0  0  0  0  0  0  0  0  0  0  0  0
   -1.0470   23.0633  -27.0454 H   0  0  0  0  0  0  0  0  0  0  0  0
   -3.3406   24.2084  -28.0663 H   0  0  0  0  0  0  0  0  0  0  0  0
   -0.6385   23.8409  -29.1496 H   0  0  0  0  0  0  0  0  0  0  0  0
   -1.9304   24.2253  -30.3567 H   0  0  0  0  0  0  0  0  0  0  0  0
    0.2386   27.3904  -28.3667 H   0  0  0  0  0  0  0  0  0  0  0  0
    0.8380   28.3300  -26.1370 H   0  0  0  0  0  0  0  0  0  0  0  0
   -0.4059   27.6037  -24.0984 H   0  0  0  0  0  0  0  0  0  0  0  0
   -2.2597   25.9450  -24.2914 H   0  0  0  0  0  0  0  0  0  0  0  0
   -2.8650   24.9958  -26.5189 H   0  0  0  0  0  0  0  0  0  0  0  0
   -4.4045   20.2230  -31.6862 H   0  0  0  0  0  0  0  0  0  0  0  0
   -6.5072   18.9822  -32.3032 H   0  0  0  0  0  0  0  0  0  0  0  0
  1  2  1  0
  2  3  1  0
  3  4  2  0
  4  5  1  0
  5  6  2  0
  6  7  1  0
  7  8  1  0
  8  9  2  0
  8 10  2  0
  8 11  1  0
 11 12  1  0
 12 13  1  0
 13 14  1  0
 14 15  1  0
 15 16  1  0
 16 17  1  0
 17 18  1  0
 18 19  2  0
 19 20  1  0
 20 21  2  0
 21 22  1  0
 22 23  2  0
  7 24  2  0
 24 25  1  0
 25 26  2  0
 26  2  1  0
 26  5  1  0
 15 11  1  0
 23 18  1  0
  1 27  1  0
  1 28  1  0
  1 29  1  0
  3 30  1  0
  4 31  1  0
  6 32  1  0
 11 33  1  1
 12 34  1  0
 12 35  1  0
 13 36  1  0
 13 37  1  0
 14 38  1  0
 14 39  1  0
 15 40  1  1
 16 41  1  0
 16 42  1  0
 19 43  1  0
 20 44  1  0
 21 45  1  0
 22 46  1  0
 23 47  1  0
 24 48  1  0
 25 49  1  0
M  CHG  1  11   1
M  END
>  <UniqueID>  (15) 
15

>  <SMILES>  (15) 
Cn1ccc2cc(S(=O)(=O)[N@H+]3CCC[C@H]3COc3ccccc3)ccc21

>  <Energy>  (15) 
94.5362126343565

>  <Genealogy>  (15) 
Cn1ccc2cc(S(=O)(=O)[NH+]3CCCC3COc3ccccc3)ccc21 (protonated)
Cn1ccc2cc(S(=O)(=O)[N@H+]3CCC[C@H]3COc3ccccc3)ccc21 (chirality)
Cn1ccc2cc(S(=O)(=O)[N@H+]3CCC[C@H]3COc3ccccc3)ccc21 (3D coordinates assigned)
Cn1ccc2cc(S(=O)(=O)[N@H+]3CCC[C@H]3COc3ccccc3)ccc21 (nonaromatic ring conformer: 94.5362126343565 kcal/mol)

>  <smiles>  (15) 
Cn1ccc2cc(S(=O)(=O)N3CCCC3COc3ccccc3)ccc21

>  <score_type>  (15) 
oracle

>  <origin>  (15) 
adg

>  <m_score__min__energy>  (15) 
-9.0800000000000001

>  <m_primary>  (15) 
energy

$$$$
15:0
     RDKit          3D

 50 52  0  0  0  0  0  0  0  0999 V2000
   -1.6820   25.7480  -26.5050 C   0  0  0  0  0  0  0  0  0  0  0  0
   -1.2710   25.9060  -27.9710 C   0  0  0  0  0  0  0  0  0  0  0  0
   -2.2340   25.2930  -28.8980 N   0  0  0  0  0  0  0  0  0  0  0  0
   -3.1280   24.3390  -28.2220 C   0  0  0  0  0  0  0  0  0  0  0  0
   -4.4280   24.1720  -29.0130 C   0  0  0  0  0  0  0  0  0  0  0  0
   -4.2320   24.4940  -30.4620 C   0  0  0  0  0  0  0  0  0  0  0  0
   -4.3280   25.6880  -30.8540 O   0  0  0  0  0  0  0  0  0  0  0  0
   -3.9530   23.4380  -31.3890 N   0  0  0  0  0  0  0  0  0  0  0  0
   -4.8510   22.3800  -31.7760 C   0  0  0  0  0  0  0  0  0  0  0  0
   -6.2260   22.6140  -31.8440 C   0  0  0  0  0  0  0  0  0  0  0  0
   -7.0870   21.5730  -32.1510 C   0  0  0  0  0  0  0  0  0  0  0  0
   -6.5820   20.3200  -32.5340 C   0  0  0  0  0  0  0  0  0  0  0  0
   -7.4420   19.2230  -32.8030 C   0  0  0  0  0  0  0  0  0  0  0  0
   -8.9430   19.2820  -32.6050 C   0  0  0  0  0  0  0  0  0  0  0  0
   -9.4010   18.2470  -31.5810 C   0  0  0  0  0  0  0  0  0  0  0  0
   -6.8970   18.0310  -33.2910 C   0  0  0  0  0  0  0  0  0  0  0  0
   -5.5430   17.9370  -33.6110 C   0  0  0  0  0  0  0  0  0  0  0  0
   -5.0620   16.7750  -34.2390 C   0  0  0  0  0  0  0  0  0  0  0  0
   -3.7490   16.7190  -34.7030 C   0  0  0  0  0  0  0  0  0  0  0  0
   -2.9220   17.8320  -34.5820 C   0  0  0  0  0  0  0  0  0  0  0  0
   -3.3830   18.9840  -33.9420 C   0  0  0  0  0  0  0  0  0  0  0  0
   -4.6740   19.0310  -33.3630 C   0  0  0  0  0  0  0  0  0  0  0  0
   -5.1700   20.1750  -32.6610 C   0  0  0  0  0  0  0  0  0  0  0  0
   -4.3470   21.1450  -32.1030 N   0  0  0  0  0  0  0  0  0  0  0  0
   -2.9770   20.8420  -31.6410 C   0  0  0  0  0  0  0  0  0  0  0  0
   -0.8533   26.0666  -25.8555 H   0  0  0  0  0  0  0  0  0  0  0  0
   -2.5663   26.3703  -26.3030 H   0  0  0  0  0  0  0  0  0  0  0  0
   -1.9217   24.6936  -26.3030 H   0  0  0  0  0  0  0  0  0  0  0  0
   -1.1941   26.9788  -28.2016 H   0  0  0  0  0  0  0  0  0  0  0  0
   -0.3075   25.3921  -28.1039 H   0  0  0  0  0  0  0  0  0  0  0  0
   -2.8080   26.0470  -29.3430 H   0  0  0  0  0  0  0  0  0  0  0  0
   -2.6244   23.3643  -28.1428 H   0  0  0  0  0  0  0  0  0  0  0  0
   -3.3675   24.7238  -27.2197 H   0  0  0  0  0  0  0  0  0  0  0  0
   -4.7714   23.1310  -28.9211 H   0  0  0  0  0  0  0  0  0  0  0  0
   -5.1746   24.8675  -28.6021 H   0  0  0  0  0  0  0  0  0  0  0  0
   -6.6242   23.6217  -31.6544 H   0  0  0  0  0  0  0  0  0  0  0  0
   -8.1744   21.7292  -32.0943 H   0  0  0  0  0  0  0  0  0  0  0  0
   -9.2198   20.2858  -32.2503 H   0  0  0  0  0  0  0  0  0  0  0  0
   -9.4320   19.0642  -33.5660 H   0  0  0  0  0  0  0  0  0  0  0  0
   -9.2295   18.6346  -30.5660 H   0  0  0  0  0  0  0  0  0  0  0  0
  -10.4731   18.0437  -31.7195 H   0  0  0  0  0  0  0  0  0  0  0  0
   -8.8305   17.3168  -31.7195 H   0  0  0  0  0  0  0  0  0  0  0  0
   -7.5468   17.1536  -33.4245 H   0  0  0  0  0  0  0  0  0  0  0  0
   -5.7248   15.9061  -34.3647 H   0  0  0  0  0  0  0  0  0  0  0  0
   -3.3668   15.7964  -35.1642 H   0  0  0  0  0  0  0  0  0  0  0  0
   -1.9017   17.8039  -34.9920 H   0  0  0  0  0  0  0  0  0  0  0  0
   -2.7326   19.8694  -33.8868 H   0  0  0  0  0  0  0  0  0  0  0  0
   -2.9536   20.8368  -30.5413 H   0  0  0  0  0  0  0  0  0  0  0  0
   -2.6725   19.8548  -32.0189 H   0  0  0  0  0  0  0  0  0  0  0  0
   -2.2846   21.6087  -32.0189 H   0  0  0  0  0  0  0  0  0  0  0  0
  1  2  1  0
  2  3  1  0
  3  4  1  0
  4  5  1  0
  5  6  1  0
  6  7  2  0
  6  8  1  0
  8  9  1  0
  9 10  2  0
 10 11  1  0
 11 12  2  0
 12 13  1  0
 13 14  1  0
 14 15  1  0
 13 16  2  0
 16 17  1  0
 17 18  2  0
 18 19  1  0
 19 20  2  0
 20 21  1  0
 21 22  2  0
 22 23  1  0
 23 24  2  0
 24 25  1  0
 24  9  1  0
 23 12  1  0
 22 17  1  0
  1 26  1  0
  1 27  1  0
  1 28  1  0
  2 29  1  0
  2 30  1  0
  3 31  1  0
  4 32  1  0
  4 33  1  0
  5 34  1  0
  5 35  1  0
 10 36  1  0
 11 37  1  0
 14 38  1  0
 14 39  1  0
 15 40  1  0
 15 41  1  0
 15 42  1  0
 16 43  1  0
 18 44  1  0
 19 45  1  0
 20 46  1  0
 21 47  1  0
 25 48  1  0
 25 49  1  0
 25 50  1  0
M  CHG  2   8  -1  24   1
M  END
>  <UniqueID>  (16) 
16

>  <SMILES>  (16) 
CCNCCC(=O)[N-]c1ccc2c(CC)cc3ccccc3c2[n+]1C

>  <Energy>  (16) 
77.93493842069233

>  <Genealogy>  (16) 
CCNCCC(=O)[N-]c1ccc2c(CC)cc3ccccc3c2[n+]1C (protonated)
CCNCCC(=O)[N-]c1ccc2c(CC)cc3ccccc3c2[n+]1C (3D coordinates assigned)
CCNCCC(=O)[N-]c1ccc2c(CC)cc3ccccc3c2[n+]1C (optimized conformer: 77.93493842069233 kcal/mol)

>  <smiles>  (16) 
CCNCCC(=O)Nc1ccc2c(CC)cc3ccccc3c2[n+]1C

>  <score_type>  (16) 
oracle

>  <origin>  (16) 
adg

>  <m_score__min__energy>  (16) 
-9.7899999999999991

>  <m_primary>  (16) 
energy

$$$$
16:0
     RDKit          3D

 81 84  0  0  0  0  0  0  0  0999 V2000
    0.1340   21.2530  -36.2300 C   0  0  0  0  0  0  0  0  0  0  0  0
   -0.3290   21.4510  -34.7910 C   0  0  0  0  0  0  0  0  0  0  0  0
    0.8310   21.2600  -33.8060 C   0  0  0  0  0  0  0  0  0  0  0  0
    0.8240   19.8450  -33.2080 C   0  0  0  0  0  0  0  0  0  0  0  0
   -0.5030   19.2220  -33.3410 N   0  0  0  0  0  0  0  0  0  0  0  0
   -1.5780   19.4660  -32.5220 C   0  0  0  0  0  0  0  0  0  0  0  0
   -2.7660   18.8700  -32.9420 C   0  0  0  0  0  0  0  0  0  0  0  0
   -2.4860   18.0190  -34.3660 S   0  0  0  0  0  0  0  0  0  0  0  0
   -0.8570   18.4330  -34.3890 C   0  0  0  0  0  0  0  0  0  0  0  0
   -0.0630   18.0890  -35.3050 O   0  0  0  0  0  0  0  0  0  0  0  0
   -4.1080   19.1800  -32.3530 C   0  0  0  0  0  0  0  0  0  0  0  0
   -4.5410   20.6360  -32.6310 C   0  0  0  0  0  0  0  0  0  0  0  0
   -3.4000   21.6780  -32.6800 C   0  0  0  0  0  0  0  0  0  0  0  0
   -2.4330   21.5710  -31.5010 C   0  0  0  0  0  0  0  0  0  0  0  0
   -2.3960   22.5580  -30.4980 C   0  0  0  0  0  0  0  0  0  0  0  0
   -3.1760   23.7580  -30.6350 N   0  0  0  0  0  0  0  0  0  0  0  0
   -4.1640   24.1350  -29.6230 C   0  0  0  0  0  0  0  0  0  0  0  0
   -5.5530   24.2840  -30.2490 C   0  0  0  0  0  0  0  0  0  0  0  0
   -5.4450   24.2900  -31.6590 O   0  0  0  0  0  0  0  0  0  0  0  0
   -6.5910   23.7160  -32.2600 C   0  0  0  0  0  0  0  0  0  0  0  0
   -7.0010   22.4790  -31.4590 C   0  0  0  0  0  0  0  0  0  0  0  0
   -7.5870   21.5060  -32.3030 O   0  0  0  0  0  0  0  0  0  0  0  0
   -8.9370   21.2560  -31.9510 C   0  0  0  0  0  0  0  0  0  0  0  0
   -9.1280   19.8430  -31.3730 C   0  0  0  0  0  0  0  0  0  0  0  0
   -8.6970   18.7120  -32.3280 C   0  0  0  0  0  0  0  0  0  0  0  0
   -7.4720   19.0520  -33.0730 N   0  0  0  0  0  0  0  0  0  0  0  0
   -6.8330   17.8330  -33.5930 C   0  0  0  0  0  0  0  0  0  0  0  0
   -5.8970   18.1590  -34.7560 C   0  0  0  0  0  0  0  0  0  0  0  0
   -1.5670   22.3790  -29.3750 C   0  0  0  0  0  0  0  0  0  0  0  0
   -1.5080   23.3540  -28.3550 C   0  0  0  0  0  0  0  0  0  0  0  0
   -0.6760   23.1820  -27.2530 C   0  0  0  0  0  0  0  0  0  0  0  0
    0.1150   22.0440  -27.1470 C   0  0  0  0  0  0  0  0  0  0  0  0
    0.0730   21.0660  -28.1380 C   0  0  0  0  0  0  0  0  0  0  0  0
   -0.7750   21.2040  -29.2690 C   0  0  0  0  0  0  0  0  0  0  0  0
   -0.8350   20.2330  -30.2510 N   0  0  0  0  0  0  0  0  0  0  0  0
   -0.1500   18.9390  -30.0380 C   0  0  0  0  0  0  0  0  0  0  0  0
   -1.5770   20.4450  -31.3950 C   0  0  0  0  0  0  0  0  0  0  0  0
    1.1454   20.8205  -36.2335 H   0  0  0  0  0  0  0  0  0  0  0  0
   -0.5578   20.5720  -36.7474 H   0  0  0  0  0  0  0  0  0  0  0  0
    0.1485   22.2236  -36.7474 H   0  0  0  0  0  0  0  0  0  0  0  0
   -0.7307   22.4690  -34.6798 H   0  0  0  0  0  0  0  0  0  0  0  0
   -1.1037   20.7028  -34.5674 H   0  0  0  0  0  0  0  0  0  0  0  0
    1.7816   21.4212  -34.3354 H   0  0  0  0  0  0  0  0  0  0  0  0
    0.7157   21.9851  -32.9869 H   0  0  0  0  0  0  0  0  0  0  0  0
    1.5656   19.2277  -33.7362 H   0  0  0  0  0  0  0  0  0  0  0  0
    1.0722   19.9155  -32.1387 H   0  0  0  0  0  0  0  0  0  0  0  0
   -4.8531   18.4987  -32.7896 H   0  0  0  0  0  0  0  0  0  0  0  0
   -4.0384   19.0491  -31.2630 H   0  0  0  0  0  0  0  0  0  0  0  0
   -5.0579   20.6552  -33.6018 H   0  0  0  0  0  0  0  0  0  0  0  0
   -5.1759   20.9270  -31.7812 H   0  0  0  0  0  0  0  0  0  0  0  0
   -2.8330   21.5314  -33.6111 H   0  0  0  0  0  0  0  0  0  0  0  0
   -3.8653   22.6735  -32.6306 H   0  0  0  0  0  0  0  0  0  0  0  0
   -3.2300   24.2210  -31.5700 H   0  0  0  0  0  0  0  0  0  0  0  0
   -4.1999   23.3568  -28.8464 H   0  0  0  0  0  0  0  0  0  0  0  0
   -3.8693   25.0998  -29.1845 H   0  0  0  0  0  0  0  0  0  0  0  0
   -6.1873   23.4420  -29.9349 H   0  0  0  0  0  0  0  0  0  0  0  0
   -6.0020   25.2311  -29.9152 H   0  0  0  0  0  0  0  0  0  0  0  0
   -7.4137   24.4462  -32.2593 H   0  0  0  0  0  0  0  0  0  0  0  0
   -6.3652   23.4309  -33.2981 H   0  0  0  0  0  0  0  0  0  0  0  0
   -6.1101   22.0494  -30.9775 H   0  0  0  0  0  0  0  0  0  0  0  0
   -7.7390   22.7786  -30.7003 H   0  0  0  0  0  0  0  0  0  0  0  0
   -9.2503   21.9936  -31.1975 H   0  0  0  0  0  0  0  0  0  0  0  0
   -9.5471   21.3362  -32.8628 H   0  0  0  0  0  0  0  0  0  0  0  0
   -8.5332   19.7629  -30.4511 H   0  0  0  0  0  0  0  0  0  0  0  0
  -10.2057   19.7152  -31.1938 H   0  0  0  0  0  0  0  0  0  0  0  0
   -8.5127   17.8015  -31.7390 H   0  0  0  0  0  0  0  0  0  0  0  0
   -9.5056   18.5585  -33.0578 H   0  0  0  0  0  0  0  0  0  0  0  0
   -7.7140   19.6840  -33.8740 H   0  0  0  0  0  0  0  0  0  0  0  0
   -6.8000   19.5400  -32.4330 H   0  0  0  0  0  0  0  0  0  0  0  0
   -6.2537   17.3587  -32.7871 H   0  0  0  0  0  0  0  0  0  0  0  0
   -7.6181   17.1528  -33.9550 H   0  0  0  0  0  0  0  0  0  0  0  0
   -4.9270   18.4968  -34.3624 H   0  0  0  0  0  0  0  0  0  0  0  0
   -5.7497   17.2592  -35.3714 H   0  0  0  0  0  0  0  0  0  0  0  0
   -6.3405   18.9556  -35.3714 H   0  0  0  0  0  0  0  0  0  0  0  0
   -2.1270   24.2600  -28.4326 H   0  0  0  0  0  0  0  0  0  0  0  0
   -0.6442   23.9481  -26.4643 H   0  0  0  0  0  0  0  0  0  0  0  0
    0.7764   21.9153  -26.2776 H   0  0  0  0  0  0  0  0  0  0  0  0
    0.7070   20.1721  -28.0431 H   0  0  0  0  0  0  0  0  0  0  0  0
   -0.0501   18.7503  -28.9589 H   0  0  0  0  0  0  0  0  0  0  0  0
   -0.7391   18.1321  -30.4984 H   0  0  0  0  0  0  0  0  0  0  0  0
    0.8485   18.9725  -30.4984 H   0  0  0  0  0  0  0  0  0  0  0  0
  1  2  1  0
  2  3  1  0
  3  4  1  0
  4  5  1  0
  5  6  1  0
  6  7  2  0
  7  8  1  0
  8  9  1  0
  9 10  2  0
  7 11  1  0
 11 12  1  0
 12 13  1  0
 13 14  1  0
 14 15  2  0
 15 16  1  0
 16 17  1  0
 17 18  1  0
 18 19  1  0
 19 20  1  0
 20 21  1  0
 21 22  1  0
 22 23  1  0
 23 24  1  0
 24 25  1  0
 25 26  1  0
 26 27  1  0
 27 28  1  0
 15 29  1  0
 29 30  2  0
 30 31  1  0
 31 32  2  0
 32 33  1  0
 33 34  2  0
 34 35  1  0
 35 36  1  0
 35 37  2  0
  9  5  1  0
 37 14  1  0
 37  6  1  0
 34 29  1  0
  1 38  1  0
  1 39  1  0
  1 40  1  0
  2 41  1  0
  2 42  1  0
  3 43  1  0
  3 44  1  0
  4 45  1  0
  4 46  1  0
 11 47  1  0
 11 48  1  0
 12 49  1  0
 12 50  1  0
 13 51  1  0
 13 52  1  0
 16 53  1  0
 17 54  1  0
 17 55  1  0
 18 56  1  0
 18 57  1  0
 20 58  1  0
 20 59  1  0
 21 60  1  0
 21 61  1  0
 23 62  1  0
 23 63  1  0
 24 64  1  0
 24 65  1  0
 25 66  1  0
 25 67  1  0
 26 68  1  0
 26 69  1  0
 27 70  1  0
 27 71  1  0
 28 72  1  0
 28 73  1  0
 28 74  1  0
 30 75  1  0
 31 76  1  0
 32 77  1  0
 33 78  1  0
 36 79  1  0
 36 80  1  0
 36 81  1  0
M  CHG  2  26   1  35   1
M  END
>  <UniqueID>  (17) 
17

>  <SMILES>  (17) 
CCCCn1c2c(sc1=O)CCCc1c(NCCOCCOCCC[NH2+]CC)c3ccccc3[n+](C)c1-2

>  <Energy>  (17) 
135.34084596121946

>  <Genealogy>  (17) 
CCCCn1c2c(sc1=O)CCCc1c(NCCOCCOCCC[NH2+]CC)c3ccccc3[n+](C)c1-2 (protonated)
CCCCn1c2c(sc1=O)CCCc1c(NCCOCCOCCC[NH2+]CC)c3ccccc3[n+](C)c1-2 (3D coordinates assigned)
CCCCn1c2c(sc1=O)CCCc1c(NCCOCCOCCC[NH2+]CC)c3ccccc3[n+](C)c1-2 (nonaromatic ring conformer: 135.34084596121946 kcal/mol)

>  <smiles>  (17) 
CCCCn1c2c(sc1=O)CCCc1c(NCCOCCOCCCNCC)c3ccccc3[n+](C)c1-2

>  <score_type>  (17) 
oracle

>  <origin>  (17) 
adg

>  <m_score__min__energy>  (17) 
-7.4400000000000004

>  <m_primary>  (17) 
energy

$$$$
17:0
     RDKit          3D

 53 55  0  0  0  0  0  0  0  0999 V2000
   -6.4880   25.6290  -29.3620 C   0  0  0  0  0  0  0  0  0  0  0  0
   -5.4630   25.6010  -30.4970 C   0  0  0  0  0  0  0  0  0  0  0  0
   -4.4420   24.4620  -30.3490 C   0  0  0  0  0  0  0  0  0  0  0  0
   -4.8910   23.3930  -29.3340 C   0  0  0  0  0  0  0  0  0  0  0  0
   -3.8160   22.4410  -28.9970 N   0  0  0  0  0  0  0  0  0  0  0  0
   -2.9150   22.0980  -30.1160 C   0  0  0  0  0  0  0  0  0  0  0  0
   -3.5550   21.1150  -31.1170 C   0  0  0  0  0  0  0  0  0  0  0  0
   -3.2460   21.4750  -32.5760 C   0  0  0  0  0  0  0  0  0  0  0  0
   -4.4610   21.4790  -33.3950 N   0  0  0  0  0  0  0  0  0  0  0  0
   -5.6230   20.7160  -33.0160 C   0  0  0  0  0  0  0  0  0  0  0  0
   -6.7710   21.3650  -32.5210 C   0  0  0  0  0  0  0  0  0  0  0  0
   -6.7720   22.7590  -32.2910 C   0  0  0  0  0  0  0  0  0  0  0  0
   -7.9280   23.4110  -31.8710 C   0  0  0  0  0  0  0  0  0  0  0  0
   -9.1010   22.6910  -31.6750 C   0  0  0  0  0  0  0  0  0  0  0  0
   -9.1130   21.3080  -31.8560 C   0  0  0  0  0  0  0  0  0  0  0  0
   -7.9380   20.6080  -32.2320 C   0  0  0  0  0  0  0  0  0  0  0  0
   -7.9140   19.2280  -32.3310 N   0  0  0  0  0  0  0  0  0  0  0  0
   -9.0230   18.4270  -31.7680 C   0  0  0  0  0  0  0  0  0  0  0  0
   -6.8320   18.5930  -32.9160 C   0  0  0  0  0  0  0  0  0  0  0  0
   -6.8710   17.2160  -33.2560 C   0  0  0  0  0  0  0  0  0  0  0  0
   -5.7500   16.5720  -33.7850 C   0  0  0  0  0  0  0  0  0  0  0  0
   -5.8250   14.8660  -34.1900 Cl  0  0  0  0  0  0  0  0  0  0  0  0
   -4.5730   17.2810  -33.9950 C   0  0  0  0  0  0  0  0  0  0  0  0
   -4.5240   18.6440  -33.7210 C   0  0  0  0  0  0  0  0  0  0  0  0
   -5.6500   19.3230  -33.2120 C   0  0  0  0  0  0  0  0  0  0  0  0
   -5.9644   25.6147  -28.3947 H   0  0  0  0  0  0  0  0  0  0  0  0
   -7.0938   26.5440  -29.4375 H   0  0  0  0  0  0  0  0  0  0  0  0
   -7.1429   24.7484  -29.4375 H   0  0  0  0  0  0  0  0  0  0  0  0
   -5.9972   25.4726  -31.4500 H   0  0  0  0  0  0  0  0  0  0  0  0
   -4.9076   26.5500  -30.4654 H   0  0  0  0  0  0  0  0  0  0  0  0
   -4.3050   23.9819  -31.3292 H   0  0  0  0  0  0  0  0  0  0  0  0
   -3.5041   24.9010  -29.9781 H   0  0  0  0  0  0  0  0  0  0  0  0
   -5.2160   23.8975  -28.4122 H   0  0  0  0  0  0  0  0  0  0  0  0
   -5.7095   22.8204  -29.7946 H   0  0  0  0  0  0  0  0  0  0  0  0
   -4.2550   21.5600  -28.6380 H   0  0  0  0  0  0  0  0  0  0  0  0
   -3.2410   22.8380  -28.2180 H   0  0  0  0  0  0  0  0  0  0  0  0
   -2.6508   23.0222  -30.6508 H   0  0  0  0  0  0  0  0  0  0  0  0
   -2.0282   21.6065  -29.6893 H   0  0  0  0  0  0  0  0  0  0  0  0
   -3.1699   20.1048  -30.9141 H   0  0  0  0  0  0  0  0  0  0  0  0
   -4.6457   21.1672  -30.9845 H   0  0  0  0  0  0  0  0  0  0  0  0
   -2.7892   22.4751  -32.6087 H   0  0  0  0  0  0  0  0  0  0  0  0
   -2.5583   20.7180  -32.9810 H   0  0  0  0  0  0  0  0  0  0  0  0
   -4.5530   22.1980  -34.1460 H   0  0  0  0  0  0  0  0  0  0  0  0
   -5.8483   23.3360  -32.4457 H   0  0  0  0  0  0  0  0  0  0  0  0
   -7.9133   24.4966  -31.6941 H   0  0  0  0  0  0  0  0  0  0  0  0
  -10.0219   23.2133  -31.3764 H   0  0  0  0  0  0  0  0  0  0  0  0
  -10.0493   20.7509  -31.7046 H   0  0  0  0  0  0  0  0  0  0  0  0
   -8.9779   18.4596  -30.6694 H   0  0  0  0  0  0  0  0  0  0  0  0
   -9.9837   18.8410  -32.1080 H   0  0  0  0  0  0  0  0  0  0  0  0
   -8.9320   17.3848  -32.1080 H   0  0  0  0  0  0  0  0  0  0  0  0
   -7.7991   16.6464  -33.1005 H   0  0  0  0  0  0  0  0  0  0  0  0
   -3.6805   16.7644  -34.3778 H   0  0  0  0  0  0  0  0  0  0  0  0
   -3.5929   19.2003  -33.9042 H   0  0  0  0  0  0  0  0  0  0  0  0
  1  2  1  0
  2  3  1  0
  3  4  1  0
  4  5  1  0
  5  6  1  0
  6  7  1  0
  7  8  1  0
  8  9  1  0
  9 10  1  0
 10 11  2  0
 11 12  1  0
 12 13  2  0
 13 14  1  0
 14 15  2  0
 15 16  1  0
 16 17  2  0
 17 18  1  0
 17 19  1  0
 19 20  2  0
 20 21  1  0
 21 22  1  0
 21 23  2  0
 23 24  1  0
 24 25  2  0
 25 10  1  0
 16 11  1  0
 25 19  1  0
  1 26  1  0
  1 27  1  0
  1 28  1  0
  2 29  1  0
  2 30  1  0
  3 31  1  0
  3 32  1  0
  4 33  1  0
  4 34  1  0
  5 35  1  0
  5 36  1  0
  6 37  1  0
  6 38  1  0
  7 39  1  0
  7 40  1  0
  8 41  1  0
  8 42  1  0
  9 43  1  0
 12 44  1  0
 13 45  1  0
 14 46  1  0
 15 47  1  0
 18 48  1  0
 18 49  1  0
 18 50  1  0
 20 51  1  0
 23 52  1  0
 24 53  1  0
M  CHG  2   5   1  17   1
M  END
>  <UniqueID>  (18) 
18

>  <SMILES>  (18) 
CCCC[NH2+]CCCNc1c2ccccc2[n+](C)c2cc(Cl)ccc12

>  <Energy>  (18) 
71.96103497737646

>  <Genealogy>  (18) 
CCCC[NH2+]CCCNc1c2ccccc2[n+](C)c2cc(Cl)ccc12 (protonated)
CCCC[NH2+]CCCNc1c2ccccc2[n+](C)c2cc(Cl)ccc12 (3D coordinates assigned)
CCCC[NH2+]CCCNc1c2ccccc2[n+](C)c2cc(Cl)ccc12 (optimized conformer: 71.96103497737646 kcal/mol)

>  <smiles>  (18) 
CCCCNCCCNc1c2ccccc2[n+](C)c2cc(Cl)ccc12

>  <score_type>  (18) 
oracle

>  <origin>  (18) 
adg

>  <m_score__min__energy>  (18) 
-7.7999999999999998

>  <m_primary>  (18) 
energy

$$$$
18:0
     RDKit          3D

 42 43  0  0  0  0  0  0  0  0999 V2000
   -1.1540   25.6950  -25.9950 C   0  0  0  0  0  0  0  0  0  0  0  0
    0.2790   25.7670  -26.5100 C   0  0  0  0  0  0  0  0  0  0  0  0
    0.3660   25.2500  -27.8390 O   0  0  0  0  0  0  0  0  0  0  0  0
   -0.4810   24.2780  -28.3960 C   0  0  0  0  0  0  0  0  0  0  0  0
   -0.2430   22.8980  -28.2690 C   0  0  0  0  0  0  0  0  0  0  0  0
   -1.1180   21.9730  -28.8420 C   0  0  0  0  0  0  0  0  0  0  0  0
   -2.2500   22.4080  -29.5550 C   0  0  0  0  0  0  0  0  0  0  0  0
   -2.5000   23.7930  -29.6810 C   0  0  0  0  0  0  0  0  0  0  0  0
   -1.6090   24.7140  -29.0980 C   0  0  0  0  0  0  0  0  0  0  0  0
   -3.6070   24.2160  -30.3640 N   0  0  0  0  0  0  0  0  0  0  0  0
   -3.8640   25.5650  -30.4910 O   0  0  0  0  0  0  0  0  0  0  0  0
   -4.4640   23.3180  -30.9300 C   0  0  0  0  0  0  0  0  0  0  0  0
   -5.6160   23.7890  -31.6660 C   0  0  0  0  0  0  0  0  0  0  0  0
   -6.5380   24.1650  -32.2560 N   0  0  0  0  0  0  0  0  0  0  0  0
   -4.2090   21.9390  -30.8190 C   0  0  0  0  0  0  0  0  0  0  0  0
   -5.1070   20.9910  -31.4180 N   0  0  0  0  0  0  0  0  0  0  0  0
   -5.2510   20.9010  -32.8740 C   0  0  0  0  0  0  0  0  0  0  0  0
   -6.6220   20.3340  -33.2820 C   0  0  0  0  0  0  0  0  0  0  0  0
   -7.5120   20.1520  -32.1130 N   0  0  0  0  0  0  0  0  0  0  0  0
   -8.4280   21.2930  -31.9490 C   0  0  0  0  0  0  0  0  0  0  0  0
   -8.2960   18.9160  -32.2730 C   0  0  0  0  0  0  0  0  0  0  0  0
   -3.1160   21.5120  -30.1210 N   0  0  0  0  0  0  0  0  0  0  0  0
   -2.9140   20.1610  -29.9410 O   0  0  0  0  0  0  0  0  0  0  0  0
   -1.1488   25.6953  -24.8950 H   0  0  0  0  0  0  0  0  0  0  0  0
   -1.7187   26.5659  -26.3592 H   0  0  0  0  0  0  0  0  0  0  0  0
   -1.6286   24.7719  -26.3592 H   0  0  0  0  0  0  0  0  0  0  0  0
    0.6107   26.8158  -26.5084 H   0  0  0  0  0  0  0  0  0  0  0  0
    0.9211   25.1619  -25.8531 H   0  0  0  0  0  0  0  0  0  0  0  0
    0.6387   22.5447  -27.7143 H   0  0  0  0  0  0  0  0  0  0  0  0
   -0.9207   20.8961  -28.7351 H   0  0  0  0  0  0  0  0  0  0  0  0
   -1.8030   25.7923  -29.1961 H   0  0  0  0  0  0  0  0  0  0  0  0
   -5.8270   20.5480  -30.8030 H   0  0  0  0  0  0  0  0  0  0  0  0
   -5.1398   21.9069  -33.3050 H   0  0  0  0  0  0  0  0  0  0  0  0
   -4.4746   20.2193  -33.2514 H   0  0  0  0  0  0  0  0  0  0  0  0
   -7.0992   21.0297  -33.9879 H   0  0  0  0  0  0  0  0  0  0  0  0
   -6.4606   19.3494  -33.7452 H   0  0  0  0  0  0  0  0  0  0  0  0
   -8.5838   21.4871  -30.8775 H   0  0  0  0  0  0  0  0  0  0  0  0
   -7.9919   22.1845  -32.4235 H   0  0  0  0  0  0  0  0  0  0  0  0
   -9.3926   21.0599  -32.4235 H   0  0  0  0  0  0  0  0  0  0  0  0
   -8.5516   18.5130  -31.2819 H   0  0  0  0  0  0  0  0  0  0  0  0
   -9.2195   19.1369  -32.8283 H   0  0  0  0  0  0  0  0  0  0  0  0
   -7.7026   18.1747  -32.8283 H   0  0  0  0  0  0  0  0  0  0  0  0
  1  2  1  0
  2  3  1  0
  3  4  1  0
  4  5  2  0
  5  6  1  0
  6  7  2  0
  7  8  1  0
  8  9  2  0
  8 10  1  0
 10 11  1  0
 10 12  2  0
 12 13  1  0
 13 14  3  0
 12 15  1  0
 15 16  1  0
 16 17  1  0
 17 18  1  0
 18 19  1  0
 19 20  1  0
 19 21  1  0
 15 22  2  0
 22 23  1  0
  9  4  1  0
 22  7  1  0
  1 24  1  0
  1 25  1  0
  1 26  1  0
  2 27  1  0
  2 28  1  0
  5 29  1  0
  6 30  1  0
  9 31  1  0
 16 32  1  0
 17 33  1  0
 17 34  1  0
 18 35  1  0
 18 36  1  0
 20 37  1  0
 20 38  1  0
 20 39  1  0
 21 40  1  0
 21 41  1  0
 21 42  1  0
M  CHG  4  10   1  11  -1  22   1  23  -1
M  END
>  <UniqueID>  (19) 
19

>  <SMILES>  (19) 
CCOc1ccc2c(c1)[n+]([O-])c(C#N)c(NCCN(C)C)[n+]2[O-]

>  <Energy>  (19) 
51.67552156186187

>  <Genealogy>  (19) 
CCOc1ccc2c(c1)[n+]([O-])c(C#N)c(NCCN(C)C)[n+]2[O-] (3D coordinates assigned)
CCOc1ccc2c(c1)[n+]([O-])c(C#N)c(NCCN(C)C)[n+]2[O-] (optimized conformer: 51.67552156186187 kcal/mol)

>  <smiles>  (19) 
CCOc1ccc2c(c1)[n+]([O-])c(C#N)c(NCCN(C)C)[n+]2[O-]

>  <score_type>  (19) 
oracle

>  <origin>  (19) 
adg

>  <m_score__min__energy>  (19) 
-6.8099999999999996

>  <m_primary>  (19) 
energy

$$$$
19:0
     RDKit          3D

107106  0  0  0  0  0  0  0  0999 V2000
   -0.8120   23.9060  -28.7270 C   0  0  0  0  0  0  0  0  0  0  0  0
   -2.1430   24.6530  -28.6720 C   0  0  0  0  0  0  0  0  0  0  0  0
   -3.2150   23.8220  -27.9530 C   0  0  0  0  0  0  0  0  0  0  0  0
   -4.6250   24.0520  -28.5200 C   0  0  0  0  0  0  0  0  0  0  0  0
   -4.6870   24.9050  -29.8020 C   0  0  0  0  0  0  0  0  0  0  0  0
   -6.0880   24.9850  -30.4510 C   0  0  0  0  0  0  0  0  0  0  0  0
   -6.8470   23.6460  -30.5240 C   0  0  0  0  0  0  0  0  0  0  0  0
   -7.4020   23.3360  -31.9280 C   0  0  0  0  0  0  0  0  0  0  0  0
   -8.7140   22.5290  -31.8870 C   0  0  0  0  0  0  0  0  0  0  0  0
   -8.5670   21.0450  -31.4820 C   0  0  0  0  0  0  0  0  0  0  0  0
   -9.3370   20.0430  -32.3580 C   0  0  0  0  0  0  0  0  0  0  0  0
   -9.1160   18.5820  -31.9490 C   0  0  0  0  0  0  0  0  0  0  0  0
   -7.6320   18.3280  -31.6420 C   0  0  0  0  0  0  0  0  0  0  0  0
   -6.8780   17.6640  -32.8090 C   0  0  0  0  0  0  0  0  0  0  0  0
   -6.3760   18.6500  -33.8830 C   0  0  0  0  0  0  0  0  0  0  0  0
   -5.4180   18.0700  -34.9420 C   0  0  0  0  0  0  0  0  0  0  0  0
   -4.7120   16.7590  -34.5480 C   0  0  0  0  0  0  0  0  0  0  0  0
   -3.1790   16.8900  -34.5150 C   0  0  0  0  0  0  0  0  0  0  0  0
   -2.5910   16.6330  -33.1150 C   0  0  0  0  0  0  0  0  0  0  0  0
   -1.0850   16.9090  -33.0330 C   0  0  0  0  0  0  0  0  0  0  0  0
   -0.8580   17.9970  -32.1650 O   0  0  0  0  0  0  0  0  0  0  0  0
    0.5290   18.2370  -31.9990 C   0  0  0  0  0  0  0  0  0  0  0  0
    0.7500   19.5750  -31.2600 C   0  0  2  0  0  0  0  0  0  0  0  0
    0.1890   19.4780  -29.8210 C   0  0  0  0  0  0  0  0  0  0  0  0
   -1.2720   19.6480  -29.8190 N   0  0  0  0  0  0  0  0  0  0  0  0
   -1.6880   20.5220  -28.7140 C   0  0  0  0  0  0  0  0  0  0  0  0
   -2.0690   19.6780  -27.5000 C   0  0  0  0  0  0  0  0  0  0  0  0
    0.0850   20.6730  -31.9930 N   0  0  0  0  0  0  0  0  0  0  0  0
    0.4200   20.6980  -33.4240 C   0  0  0  0  0  0  0  0  0  0  0  0
   -0.8340   21.0070  -34.2510 C   0  0  0  0  0  0  0  0  0  0  0  0
   -2.0110   20.0570  -33.9540 C   0  0  0  0  0  0  0  0  0  0  0  0
   -2.4710   20.1770  -32.5600 N   0  0  0  0  0  0  0  0  0  0  0  0
   -3.8170   19.6180  -32.3750 C   0  0  0  0  0  0  0  0  0  0  0  0
   -4.7880   20.5880  -31.6790 C   0  0  0  0  0  0  0  0  0  0  0  0
   -4.1120   21.5200  -30.6590 C   0  0  0  0  0  0  0  0  0  0  0  0
   -3.2600   22.6120  -31.3250 C   0  0  0  0  0  0  0  0  0  0  0  0
   -1.8420   22.2530  -31.3230 N   0  0  0  0  0  0  0  0  0  0  0  0
   -0.4599   23.7084  -27.7038 H   0  0  0  0  0  0  0  0  0  0  0  0
   -0.9483   22.9526  -29.2584 H   0  0  0  0  0  0  0  0  0  0  0  0
   -0.0692   24.5190  -29.2584 H   0  0  0  0  0  0  0  0  0  0  0  0
   -2.0009   25.6005  -28.1317 H   0  0  0  0  0  0  0  0  0  0  0  0
   -2.4802   24.8415  -29.7019 H   0  0  0  0  0  0  0  0  0  0  0  0
   -2.9632   22.7564  -28.0583 H   0  0  0  0  0  0  0  0  0  0  0  0
   -3.2262   24.1359  -26.8988 H   0  0  0  0  0  0  0  0  0  0  0  0
   -5.0660   23.0694  -28.7437 H   0  0  0  0  0  0  0  0  0  0  0  0
   -5.1740   24.6163  -27.7518 H   0  0  0  0  0  0  0  0  0  0  0  0
   -4.3657   25.9266  -29.5509 H   0  0  0  0  0  0  0  0  0  0  0  0
   -4.0295   24.4158  -30.5357 H   0  0  0  0  0  0  0  0  0  0  0  0
   -6.6958   25.6908  -29.8658 H   0  0  0  0  0  0  0  0  0  0  0  0
   -5.9282   25.3059  -31.4909 H   0  0  0  0  0  0  0  0  0  0  0  0
   -6.1588   22.8382  -30.2344 H   0  0  0  0  0  0  0  0  0  0  0  0
   -7.7074   23.7214  -29.8428 H   0  0  0  0  0  0  0  0  0  0  0  0
   -7.5901   24.2863  -32.4492 H   0  0  0  0  0  0  0  0  0  0  0  0
   -6.6532   22.7241  -32.4523 H   0  0  0  0  0  0  0  0  0  0  0  0
   -9.3876   23.0129  -31.1644 H   0  0  0  0  0  0  0  0  0  0  0  0
   -9.0998   22.5252  -32.9171 H   0  0  0  0  0  0  0  0  0  0  0  0
   -7.4991   20.7850  -31.5275 H   0  0  0  0  0  0  0  0  0  0  0  0
   -8.9997   20.9616  -30.4741 H   0  0  0  0  0  0  0  0  0  0  0  0
  -10.4112   20.2676  -32.2828 H   0  0  0  0  0  0  0  0  0  0  0  0
   -8.9604   20.1533  -33.3856 H   0  0  0  0  0  0  0  0  0  0  0  0
   -9.7139   18.3627  -31.0521 H   0  0  0  0  0  0  0  0  0  0  0  0
   -9.4244   17.9295  -32.7791 H   0  0  0  0  0  0  0  0  0  0  0  0
   -7.1511   19.2916  -31.4178 H   0  0  0  0  0  0  0  0  0  0  0  0
   -7.5878   17.6365  -30.7876 H   0  0  0  0  0  0  0  0  0  0  0  0
   -6.0084   17.1302  -32.3980 H   0  0  0  0  0  0  0  0  0  0  0  0
   -7.5948   16.9942  -33.3067 H   0  0  0  0  0  0  0  0  0  0  0  0
   -7.2553   19.0504  -34.4088 H   0  0  0  0  0  0  0  0  0  0  0  0
   -5.7916   19.4067  -33.3390 H   0  0  0  0  0  0  0  0  0  0  0  0
   -5.9983   17.8810  -35.8572 H   0  0  0  0  0  0  0  0  0  0  0  0
   -4.6205   18.8167  -35.0701 H   0  0  0  0  0  0  0  0  0  0  0  0
   -5.0602   16.4597  -33.5484 H   0  0  0  0  0  0  0  0  0  0  0  0
   -4.9624   16.0074  -35.3111 H   0  0  0  0  0  0  0  0  0  0  0  0
   -2.7482   16.1609  -35.2170 H   0  0  0  0  0  0  0  0  0  0  0  0
   -2.9275   17.9231  -34.7967 H   0  0  0  0  0  0  0  0  0  0  0  0
   -3.1058   17.2854  -32.3943 H   0  0  0  0  0  0  0  0  0  0  0  0
   -2.7411   15.5672  -32.8878 H   0  0  0  0  0  0  0  0  0  0  0  0
   -0.5683   16.0175  -32.6479 H   0  0  0  0  0  0  0  0  0  0  0  0
   -0.6990   17.1494  -34.0346 H   0  0  0  0  0  0  0  0  0  0  0  0
    0.9723   17.4192  -31.4118 H   0  0  0  0  0  0  0  0  0  0  0  0
    1.0070   18.2883  -32.9884 H   0  0  0  0  0  0  0  0  0  0  0  0
    1.8286   19.7852  -31.2098 H   0  0  0  0  0  0  0  0  0  0  0  0
    0.4382   18.4918  -29.4022 H   0  0  0  0  0  0  0  0  0  0  0  0
    0.6383   20.2764  -29.2121 H   0  0  0  0  0  0  0  0  0  0  0  0
   -1.5370   20.1140  -30.7240 H   0  0  0  0  0  0  0  0  0  0  0  0
   -0.8578   21.1921  -28.4464 H   0  0  0  0  0  0  0  0  0  0  0  0
   -2.5581   21.1163  -29.0298 H   0  0  0  0  0  0  0  0  0  0  0  0
   -1.8212   20.2269  -26.5795 H   0  0  0  0  0  0  0  0  0  0  0  0
   -3.1487   19.4691  -27.5230 H   0  0  0  0  0  0  0  0  0  0  0  0
   -1.5115   18.7300  -27.5230 H   0  0  0  0  0  0  0  0  0  0  0  0
   -0.9570   20.5680  -31.9310 H   0  0  0  0  0  0  0  0  0  0  0  0
    1.1776   21.4742  -33.6072 H   0  0  0  0  0  0  0  0  0  0  0  0
    0.8143   19.7146  -33.7197 H   0  0  0  0  0  0  0  0  0  0  0  0
   -1.1524   22.0366  -34.0306 H   0  0  0  0  0  0  0  0  0  0  0  0
   -0.5668   20.8728  -35.3096 H   0  0  0  0  0  0  0  0  0  0  0  0
   -2.8457   20.3027  -34.6270 H   0  0  0  0  0  0  0  0  0  0  0  0
   -1.6663   19.0246  -34.1131 H   0  0  0  0  0  0  0  0  0  0  0  0
   -1.8350   19.6130  -31.9510 H   0  0  0  0  0  0  0  0  0  0  0  0
   -4.2275   19.3618  -33.3628 H   0  0  0  0  0  0  0  0  0  0  0  0
   -3.7171   18.7353  -31.7263 H   0  0  0  0  0  0  0  0  0  0  0  0
   -5.2696   21.2083  -32.4492 H   0  0  0  0  0  0  0  0  0  0  0  0
   -5.5093   19.9729  -31.1211 H   0  0  0  0  0  0  0  0  0  0  0  0
   -4.8925   22.0035  -30.0532 H   0  0  0  0  0  0  0  0  0  0  0  0
   -3.4400   20.9051  -30.0423 H   0  0  0  0  0  0  0  0  0  0  0  0
   -3.5950   22.7441  -32.3644 H   0  0  0  0  0  0  0  0  0  0  0  0
   -3.3833   23.5450  -30.7555 H   0  0  0  0  0  0  0  0  0  0  0  0
   -1.5170   22.1360  -32.3100 H   0  0  0  0  0  0  0  0  0  0  0  0
   -1.7290   21.3320  -30.8370 H   0  0  0  0  0  0  0  0  0  0  0  0
  1  2  1  0
  2  3  1  0
  3  4  1  0
  4  5  1  0
  5  6  1  0
  6  7  1  0
  7  8  1  0
  8  9  1  0
  9 10  1  0
 10 11  1  0
 11 12  1  0
 12 13  1  0
 13 14  1  0
 14 15  1  0
 15 16  1  0
 16 17  1  0
 17 18  1  0
 18 19  1  0
 19 20  1  0
 20 21  1  0
 21 22  1  0
 22 23  1  0
 23 24  1  0
 24 25  1  0
 25 26  1  0
 26 27  1  0
 23 28  1  0
 28 29  1  0
 29 30  1  0
 30 31  1  0
 31 32  1  0
 32 33  1  0
 33 34  1  0
 34 35  1  0
 35 36  1  0
 36 37  1  0
  1 38  1  0
  1 39  1  0
  1 40  1  0
  2 41  1  0
  2 42  1  0
  3 43  1  0
  3 44  1  0
  4 45  1  0
  4 46  1  0
  5 47  1  0
  5 48  1  0
  6 49  1  0
  6 50  1  0
  7 51  1  0
  7 52  1  0
  8 53  1  0
  8 54  1  0
  9 55  1  0
  9 56  1  0
 10 57  1  0
 10 58  1  0
 11 59  1  0
 11 60  1  0
 12 61  1  0
 12 62  1  0
 13 63  1  0
 13 64  1  0
 14 65  1  0
 14 66  1  0
 15 67  1  0
 15 68  1  0
 16 69  1  0
 16 70  1  0
 17 71  1  0
 17 72  1  0
 18 73  1  0
 18 74  1  0
 19 75  1  0
 19 76  1  0
 20 77  1  0
 20 78  1  0
 22 79  1  0
 22 80  1  0
 23 81  1  1
 24 82  1  0
 24 83  1  0
 25 84  1  0
 26 85  1  0
 26 86  1  0
 27 87  1  0
 27 88  1  0
 27 89  1  0
 28 90  1  0
 29 91  1  0
 29 92  1  0
 30 93  1  0
 30 94  1  0
 31 95  1  0
 31 96  1  0
 32 97  1  0
 33 98  1  0
 33 99  1  0
 34100  1  0
 34101  1  0
 35102  1  0
 35103  1  0
 36104  1  0
 36105  1  0
 37106  1  0
 37107  1  0
M  END
>  <UniqueID>  (20) 
20

>  <SMILES>  (20) 
CCCCCCCCCCCCCCCCCCCCOC[C@H](CNCC)NCCCNCCCCN

>  <Energy>  (20) 
59.39921583655168

>  <Genealogy>  (20) 
CCCCCCCCCCCCCCCCCCCCOC[C@H](CNCC)NCCCNCCCCN (chirality)
CCCCCCCCCCCCCCCCCCCCOC[C@H](CNCC)NCCCNCCCCN (3D coordinates assigned)
CCCCCCCCCCCCCCCCCCCCOC[C@H](CNCC)NCCCNCCCCN (optimized conformer: 59.39921583655168 kcal/mol)

>  <smiles>  (20) 
CCCCCCCCCCCCCCCCCCCCOCC(CNCC)NCCCNCCCCN

>  <score_type>  (20) 
oracle

>  <origin>  (20) 
adg

>  <m_score__min__energy>  (20) 
-5.3499999999999996

>  <m_primary>  (20) 
energy

$$$$
20:0
     RDKit          3D

 61 63  0  0  0  0  0  0  0  0999 V2000
   -6.4740   25.6840  -29.3510 C   0  0  0  0  0  0  0  0  0  0  0  0
   -5.4660   25.1990  -30.3930 C   0  0  0  0  0  0  0  0  0  0  0  0
   -6.1130   24.5270  -31.6260 C   0  0  0  0  0  0  0  0  0  0  0  0
   -5.7980   23.0880  -31.8460 N   0  0  0  0  0  0  0  0  0  0  0  0
   -6.9440   22.1650  -31.6390 C   0  0  0  0  0  0  0  0  0  0  0  0
   -8.3030   22.8260  -31.9250 C   0  0  0  0  0  0  0  0  0  0  0  0
   -9.4730   21.9250  -31.5510 C   0  0  0  0  0  0  0  0  0  0  0  0
   -4.5870   22.6400  -31.1180 C   0  0  0  0  0  0  0  0  0  0  0  0
   -3.4760   22.1760  -32.0810 C   0  0  0  0  0  0  0  0  0  0  0  0
   -3.9800   21.7120  -33.3900 N   0  0  0  0  0  0  0  0  0  0  0  0
   -3.6290   20.3230  -33.6690 C   0  0  0  0  0  0  0  0  0  0  0  0
   -2.2790   19.9300  -33.9160 C   0  0  0  0  0  0  0  0  0  0  0  0
   -1.2020   20.8570  -33.9130 C   0  0  0  0  0  0  0  0  0  0  0  0
    0.1150   20.4400  -34.0810 C   0  0  0  0  0  0  0  0  0  0  0  0
    0.4050   19.0950  -34.2430 C   0  0  0  0  0  0  0  0  0  0  0  0
   -0.6260   18.1620  -34.2800 C   0  0  0  0  0  0  0  0  0  0  0  0
   -1.9840   18.5580  -34.1640 C   0  0  0  0  0  0  0  0  0  0  0  0
   -3.0020   17.6360  -34.2830 N   0  0  0  0  0  0  0  0  0  0  0  0
   -2.7340   16.3130  -34.8900 C   0  0  0  0  0  0  0  0  0  0  0  0
   -4.2790   17.9590  -33.8800 C   0  0  0  0  0  0  0  0  0  0  0  0
   -5.2660   16.9570  -33.7130 C   0  0  0  0  0  0  0  0  0  0  0  0
   -6.5740   17.2770  -33.3670 C   0  0  0  0  0  0  0  0  0  0  0  0
   -6.9480   18.6010  -33.1610 C   0  0  0  0  0  0  0  0  0  0  0  0
   -8.3170   18.8980  -32.8240 N   0  0  0  0  0  0  0  0  0  0  0  0
   -8.9040   18.6490  -31.5100 C   0  0  0  0  0  0  0  0  0  0  0  0
   -5.9770   19.6060  -33.2710 C   0  0  0  0  0  0  0  0  0  0  0  0
   -4.6300   19.3080  -33.6080 C   0  0  0  0  0  0  0  0  0  0  0  0
   -6.0788   25.4938  -28.3422 H   0  0  0  0  0  0  0  0  0  0  0  0
   -6.6449   26.7629  -29.4805 H   0  0  0  0  0  0  0  0  0  0  0  0
   -7.4237   25.1442  -29.4805 H   0  0  0  0  0  0  0  0  0  0  0  0
   -4.8807   26.0643  -30.7375 H   0  0  0  0  0  0  0  0  0  0  0  0
   -4.8434   24.4356  -29.9035 H   0  0  0  0  0  0  0  0  0  0  0  0
   -7.2042   24.6169  -31.5203 H   0  0  0  0  0  0  0  0  0  0  0  0
   -5.6908   25.0515  -32.4958 H   0  0  0  0  0  0  0  0  0  0  0  0
   -6.8252   21.3017  -32.3102 H   0  0  0  0  0  0  0  0  0  0  0  0
   -6.9390   21.8641  -30.5810 H   0  0  0  0  0  0  0  0  0  0  0  0
   -8.3732   23.7570  -31.3433 H   0  0  0  0  0  0  0  0  0  0  0  0
   -8.3612   23.0228  -33.0057 H   0  0  0  0  0  0  0  0  0  0  0  0
   -9.5529   21.8635  -30.4556 H   0  0  0  0  0  0  0  0  0  0  0  0
  -10.4035   22.3420  -31.9637 H   0  0  0  0  0  0  0  0  0  0  0  0
   -9.3075   20.9189  -31.9637 H   0  0  0  0  0  0  0  0  0  0  0  0
   -4.2065   23.4758  -30.5125 H   0  0  0  0  0  0  0  0  0  0  0  0
   -4.8670   21.7860  -30.4837 H   0  0  0  0  0  0  0  0  0  0  0  0
   -2.7902   23.0189  -32.2519 H   0  0  0  0  0  0  0  0  0  0  0  0
   -2.9769   21.3183  -31.6064 H   0  0  0  0  0  0  0  0  0  0  0  0
   -4.9940   21.9260  -33.4760 H   0  0  0  0  0  0  0  0  0  0  0  0
   -3.5840   22.3180  -34.1430 H   0  0  0  0  0  0  0  0  0  0  0  0
   -1.4139   21.9275  -33.7749 H   0  0  0  0  0  0  0  0  0  0  0  0
    0.9283   21.1806  -34.0852 H   0  0  0  0  0  0  0  0  0  0  0  0
    1.4497   18.7652  -34.3423 H   0  0  0  0  0  0  0  0  0  0  0  0
   -0.3840   17.0959  -34.4016 H   0  0  0  0  0  0  0  0  0  0  0  0
   -2.5832   15.5684  -34.0945 H   0  0  0  0  0  0  0  0  0  0  0  0
   -3.5901   16.0154  -35.5133 H   0  0  0  0  0  0  0  0  0  0  0  0
   -1.8296   16.3720  -35.5133 H   0  0  0  0  0  0  0  0  0  0  0  0
   -4.9915   15.9020  -33.8603 H   0  0  0  0  0  0  0  0  0  0  0  0
   -7.3198   16.4762  -33.2551 H   0  0  0  0  0  0  0  0  0  0  0  0
   -8.9310   19.3330  -33.5470 H   0  0  0  0  0  0  0  0  0  0  0  0
   -8.1924   18.9509  -30.7274 H   0  0  0  0  0  0  0  0  0  0  0  0
   -9.8316   19.2311  -31.4065 H   0  0  0  0  0  0  0  0  0  0  0  0
   -9.1301   17.5775  -31.4065 H   0  0  0  0  0  0  0  0  0  0  0  0
   -6.2658   20.6522  -33.0917 H   0  0  0  0  0  0  0  0  0  0  0  0
  1  2  1  0
  2  3  1  0
  3  4  1  0
  4  5  1  0
  5  6  1  0
  6  7  1  0
  4  8  1  0
  8  9  1  0
  9 10  1  0
 10 11  1  0
 11 12  2  0
 12 13  1  0
 13 14  2  0
 14 15  1  0
 15 16  2  0
 16 17  1  0
 17 18  2  0
 18 19  1  0
 18 20  1  0
 20 21  2  0
 21 22  1  0
 22 23  2  0
 23 24  1  0
 24 25  1  0
 23 26  1  0
 26 27  2  0
 27 11  1  0
 17 12  1  0
 27 20  1  0
  1 28  1  0
  1 29  1  0
  1 30  1  0
  2 31  1  0
  2 32  1  0
  3 33  1  0
  3 34  1  0
  5 35  1  0
  5 36  1  0
  6 37  1  0
  6 38  1  0
  7 39  1  0
  7 40  1  0
  7 41  1  0
  8 42  1  0
  8 43  1  0
  9 44  1  0
  9 45  1  0
 10 46  1  0
 10 47  1  0
 13 48  1  0
 14 49  1  0
 15 50  1  0
 16 51  1  0
 19 52  1  0
 19 53  1  0
 19 54  1  0
 21 55  1  0
 22 56  1  0
 24 57  1  0
 25 58  1  0
 25 59  1  0
 25 60  1  0
 26 61  1  0
M  CHG  2  10   1  18   1
M  END
>  <UniqueID>  (21) 
21

>  <SMILES>  (21) 
CCCN(CCC)CC[NH2+]c1c2ccccc2[n+](C)c2ccc(NC)cc12

>  <Energy>  (21) 
88.13197750647744

>  <Genealogy>  (21) 
CCCN(CCC)CC[NH2+]c1c2ccccc2[n+](C)c2ccc(NC)cc12 (protonated)
CCCN(CCC)CC[NH2+]c1c2ccccc2[n+](C)c2ccc(NC)cc12 (3D coordinates assigned)
CCCN(CCC)CC[NH2+]c1c2ccccc2[n+](C)c2ccc(NC)cc12 (optimized conformer: 88.13197750647744 kcal/mol)

>  <smiles>  (21) 
CCCN(CCC)CCNc1c2ccccc2[n+](C)c2ccc(NC)cc12

>  <score_type>  (21) 
oracle

>  <origin>  (21) 
adg

>  <m_score__min__energy>  (21) 
-8.4600000000000009

>  <m_primary>  (21) 
energy

$$$$
21:0
     RDKit          3D

 54 57  0  0  0  0  0  0  0  0999 V2000
   -6.4610   25.3520  -29.6080 C   0  0  0  0  0  0  0  0  0  0  0  0
   -5.5890   25.5680  -30.8330 C   0  0  0  0  0  0  0  0  0  0  0  0
   -4.2340   25.6450  -30.4340 O   0  0  0  0  0  0  0  0  0  0  0  0
   -3.5600   24.5180  -30.8400 N   0  0  0  0  0  0  0  0  0  0  0  0
   -3.4330   23.5960  -29.7060 C   0  0  0  0  0  0  0  0  0  0  0  0
   -2.3650   22.5230  -29.9720 C   0  0  0  0  0  0  0  0  0  0  0  0
   -2.7840   21.4680  -31.0100 C   0  0  0  0  0  0  0  0  0  0  0  0
   -1.9870   21.5690  -32.3150 C   0  0  0  0  0  0  0  0  0  0  0  0
   -2.8630   21.3250  -33.4590 N   0  0  0  0  0  0  0  0  0  0  0  0
   -3.8890   20.3230  -33.4010 C   0  0  0  0  0  0  0  0  0  0  0  0
   -5.1830   20.6610  -33.0160 C   0  0  0  0  0  0  0  0  0  0  0  0
   -6.1950   19.7150  -32.9810 C   0  0  0  0  0  0  0  0  0  0  0  0
   -5.9420   18.3820  -33.1870 N   0  0  0  0  0  0  0  0  0  0  0  0
   -6.9490   17.3760  -32.8110 C   0  0  0  0  0  0  0  0  0  0  0  0
   -4.6990   18.0150  -33.6770 C   0  0  0  0  0  0  0  0  0  0  0  0
   -4.4370   16.6960  -34.1220 C   0  0  0  0  0  0  0  0  0  0  0  0
   -3.1740   16.3320  -34.5870 C   0  0  0  0  0  0  0  0  0  0  0  0
   -2.1450   17.2660  -34.6340 C   0  0  0  0  0  0  0  0  0  0  0  0
   -2.3730   18.5810  -34.2340 C   0  0  0  0  0  0  0  0  0  0  0  0
   -3.6410   18.9800  -33.7650 C   0  0  0  0  0  0  0  0  0  0  0  0
   -7.4400   20.4070  -32.5760 C   0  0  0  0  0  0  0  0  0  0  0  0
   -8.7350   19.9850  -32.6370 N   0  0  0  0  0  0  0  0  0  0  0  0
   -9.7440   20.8450  -32.3060 C   0  0  0  0  0  0  0  0  0  0  0  0
   -9.4630   22.1820  -31.9590 C   0  0  0  0  0  0  0  0  0  0  0  0
   -8.1380   22.6410  -31.9790 C   0  0  0  0  0  0  0  0  0  0  0  0
   -7.1400   21.7270  -32.3020 C   0  0  0  0  0  0  0  0  0  0  0  0
   -5.7240   21.9410  -32.5510 C   0  0  0  0  0  0  0  0  0  0  0  0
   -5.0910   23.0150  -32.3800 O   0  0  0  0  0  0  0  0  0  0  0  0
   -5.8597   25.5009  -28.6990 H   0  0  0  0  0  0  0  0  0  0  0  0
   -7.2933   26.0711  -29.6190 H   0  0  0  0  0  0  0  0  0  0  0  0
   -6.8614   24.3275  -29.6190 H   0  0  0  0  0  0  0  0  0  0  0  0
   -5.7197   24.7272  -31.5301 H   0  0  0  0  0  0  0  0  0  0  0  0
   -5.8801   26.5039  -31.3324 H   0  0  0  0  0  0  0  0  0  0  0  0
   -4.0030   24.0230  -31.6550 H   0  0  0  0  0  0  0  0  0  0  0  0
   -3.1503   24.1678  -28.8098 H   0  0  0  0  0  0  0  0  0  0  0  0
   -4.4001   23.0928  -29.5592 H   0  0  0  0  0  0  0  0  0  0  0  0
   -1.4549   23.0231  -30.3349 H   0  0  0  0  0  0  0  0  0  0  0  0
   -2.2054   21.9903  -29.0229 H   0  0  0  0  0  0  0  0  0  0  0  0
   -2.6264   20.4685  -30.5785 H   0  0  0  0  0  0  0  0  0  0  0  0
   -3.8419   21.6453  -31.2537 H   0  0  0  0  0  0  0  0  0  0  0  0
   -1.5517   22.5758  -32.3984 H   0  0  0  0  0  0  0  0  0  0  0  0
   -1.1866   20.8144  -32.3072 H   0  0  0  0  0  0  0  0  0  0  0  0
   -2.9360   22.0730  -34.1830 H   0  0  0  0  0  0  0  0  0  0  0  0
   -7.0124   17.3126  -31.7147 H   0  0  0  0  0  0  0  0  0  0  0  0
   -7.9283   17.6672  -33.2187 H   0  0  0  0  0  0  0  0  0  0  0  0
   -6.6587   16.3965  -33.2187 H   0  0  0  0  0  0  0  0  0  0  0  0
   -5.2425   15.9472  -34.1004 H   0  0  0  0  0  0  0  0  0  0  0  0
   -2.9904   15.2994  -34.9188 H   0  0  0  0  0  0  0  0  0  0  0  0
   -1.1478   16.9657  -34.9881 H   0  0  0  0  0  0  0  0  0  0  0  0
   -1.5554   19.3151  -34.2847 H   0  0  0  0  0  0  0  0  0  0  0  0
   -8.9880   19.0330  -32.9760 H   0  0  0  0  0  0  0  0  0  0  0  0
  -10.7853   20.4906  -32.3104 H   0  0  0  0  0  0  0  0  0  0  0  0
  -10.2792   22.8621  -31.6739 H   0  0  0  0  0  0  0  0  0  0  0  0
   -7.8958   23.6886  -31.7471 H   0  0  0  0  0  0  0  0  0  0  0  0
  1  2  1  0
  2  3  1  0
  3  4  1  0
  4  5  1  0
  5  6  1  0
  6  7  1  0
  7  8  1  0
  8  9  1  0
  9 10  1  0
 10 11  2  0
 11 12  1  0
 12 13  2  0
 13 14  1  0
 13 15  1  0
 15 16  2  0
 16 17  1  0
 17 18  2  0
 18 19  1  0
 19 20  2  0
 12 21  1  0
 21 22  2  0
 22 23  1  0
 23 24  2  0
 24 25  1  0
 25 26  2  0
 26 27  1  0
 27 28  2  0
 20 10  1  0
 26 21  1  0
 27 11  1  0
 20 15  1  0
  1 29  1  0
  1 30  1  0
  1 31  1  0
  2 32  1  0
  2 33  1  0
  4 34  1  0
  5 35  1  0
  5 36  1  0
  6 37  1  0
  6 38  1  0
  7 39  1  0
  7 40  1  0
  8 41  1  0
  8 42  1  0
  9 43  1  0
 14 44  1  0
 14 45  1  0
 14 46  1  0
 16 47  1  0
 17 48  1  0
 18 49  1  0
 19 50  1  0
 22 51  1  0
 23 52  1  0
 24 53  1  0
 25 54  1  0
M  CHG  2  13   1  22   1
M  END
>  <UniqueID>  (22) 
22

>  <SMILES>  (22) 
CCONCCCCNc1c2c([n+](C)c3ccccc13)-c1[nH+]cccc1C2=O

>  <Energy>  (22) 
109.24226804382863

>  <Genealogy>  (22) 
CCONCCCCNc1c2c([n+](C)c3ccccc13)-c1[nH+]cccc1C2=O (protonated)
CCONCCCCNc1c2c([n+](C)c3ccccc13)-c1[nH+]cccc1C2=O (3D coordinates assigned)
CCONCCCCNc1c2c([n+](C)c3ccccc13)-c1[nH+]cccc1C2=O (nonaromatic ring conformer: 109.24226804382863 kcal/mol)

>  <smiles>  (22) 
CCONCCCCNc1c2c([n+](C)c3ccccc13)-c1ncccc1C2=O

>  <score_type>  (22) 
oracle

>  <origin>  (22) 
adg

>  <m_score__min__energy>  (22) 
-8.8499999999999996

>  <m_primary>  (22) 
energy

$$$$
22:0
     RDKit          3D

 53 54  0  0  0  0  0  0  0  0999 V2000
   -8.7840   19.1780  -31.5890 C   0  0  0  0  0  0  0  0  0  0  0  0
   -9.0260   20.4950  -32.3240 C   0  0  0  0  0  0  0  0  0  0  0  0
   -8.2940   21.6740  -31.6620 C   0  0  0  0  0  0  0  0  0  0  0  0
   -6.8490   21.6610  -31.9740 N   0  0  0  0  0  0  0  0  0  0  0  0
   -6.4270   20.7730  -32.9250 C   0  0  0  0  0  0  0  0  0  0  0  0
   -5.0980   20.7140  -33.3210 C   0  0  0  0  0  0  0  0  0  0  0  0
   -4.1590   21.5730  -32.7520 C   0  0  0  0  0  0  0  0  0  0  0  0
   -2.7940   21.5270  -33.2010 N   0  0  0  0  0  0  0  0  0  0  0  0
   -1.6680   21.3430  -32.2830 C   0  0  0  0  0  0  0  0  0  0  0  0
   -0.4480   20.7640  -33.0130 C   0  0  0  0  0  0  0  0  0  0  0  0
   -0.8190   20.2800  -34.3620 N   0  0  0  0  0  0  0  0  0  0  0  0
   -1.1620   18.8350  -34.3830 C   0  0  0  0  0  0  0  0  0  0  0  0
   -2.6590   18.5330  -34.2180 C   0  0  0  0  0  0  0  0  0  0  0  0
    0.1490   20.7060  -35.3980 C   0  0  0  0  0  0  0  0  0  0  0  0
    0.3080   22.2260  -35.4430 C   0  0  0  0  0  0  0  0  0  0  0  0
   -4.5740   22.4920  -31.7670 C   0  0  0  0  0  0  0  0  0  0  0  0
   -3.6670   23.4090  -31.2000 C   0  0  0  0  0  0  0  0  0  0  0  0
   -4.0800   24.3370  -30.2450 C   0  0  0  0  0  0  0  0  0  0  0  0
   -3.1260   25.2220  -29.7190 O   0  0  0  0  0  0  0  0  0  0  0  0
   -2.2520   24.9160  -28.6390 C   0  0  0  0  0  0  0  0  0  0  0  0
   -5.4230   24.3590  -29.8470 C   0  0  0  0  0  0  0  0  0  0  0  0
   -6.3420   23.4710  -30.4050 C   0  0  0  0  0  0  0  0  0  0  0  0
   -5.9450   22.5250  -31.3800 C   0  0  0  0  0  0  0  0  0  0  0  0
   -8.8161   19.3527  -30.5034 H   0  0  0  0  0  0  0  0  0  0  0  0
   -9.5642   18.4541  -31.8671 H   0  0  0  0  0  0  0  0  0  0  0  0
   -7.7975   18.7788  -31.8671 H   0  0  0  0  0  0  0  0  0  0  0  0
   -8.6692   20.3932  -33.3595 H   0  0  0  0  0  0  0  0  0  0  0  0
  -10.1050   20.7064  -32.2906 H   0  0  0  0  0  0  0  0  0  0  0  0
   -8.7298   22.6155  -32.0276 H   0  0  0  0  0  0  0  0  0  0  0  0
   -8.4117   21.5841  -30.5720 H   0  0  0  0  0  0  0  0  0  0  0  0
   -7.1566   20.0909  -33.3859 H   0  0  0  0  0  0  0  0  0  0  0  0
   -4.7850   19.9878  -34.0856 H   0  0  0  0  0  0  0  0  0  0  0  0
   -2.5920   21.5860  -34.2250 H   0  0  0  0  0  0  0  0  0  0  0  0
   -1.3973   22.3160  -31.8471 H   0  0  0  0  0  0  0  0  0  0  0  0
   -1.9712   20.6372  -31.4957 H   0  0  0  0  0  0  0  0  0  0  0  0
    0.3186   21.5469  -33.1097 H   0  0  0  0  0  0  0  0  0  0  0  0
   -0.0601   19.9156  -32.4301 H   0  0  0  0  0  0  0  0  0  0  0  0
   -0.8313   18.4174  -35.3454 H   0  0  0  0  0  0  0  0  0  0  0  0
   -0.6542   18.3804  -33.5196 H   0  0  0  0  0  0  0  0  0  0  0  0
   -2.9071   18.4829  -33.1475 H   0  0  0  0  0  0  0  0  0  0  0  0
   -3.2486   19.3303  -34.6942 H   0  0  0  0  0  0  0  0  0  0  0  0
   -2.8933   17.5695  -34.6942 H   0  0  0  0  0  0  0  0  0  0  0  0
    1.1270   20.2530  -35.1780 H   0  0  0  0  0  0  0  0  0  0  0  0
   -0.2319   20.3752  -36.3755 H   0  0  0  0  0  0  0  0  0  0  0  0
    0.3493   22.6209  -34.4172 H   0  0  0  0  0  0  0  0  0  0  0  0
    1.2378   22.4819  -35.9721 H   0  0  0  0  0  0  0  0  0  0  0  0
   -0.5487   22.6688  -35.9721 H   0  0  0  0  0  0  0  0  0  0  0  0
   -2.6137   23.3925  -31.5166 H   0  0  0  0  0  0  0  0  0  0  0  0
   -2.7698   25.0973  -27.6856 H   0  0  0  0  0  0  0  0  0  0  0  0
   -1.9520   23.8594  -28.6982 H   0  0  0  0  0  0  0  0  0  0  0  0
   -1.3584   25.5547  -28.6982 H   0  0  0  0  0  0  0  0  0  0  0  0
   -5.7553   25.0827  -29.0881 H   0  0  0  0  0  0  0  0  0  0  0  0
   -7.3929   23.5063  -30.0820 H   0  0  0  0  0  0  0  0  0  0  0  0
  1  2  1  0
  2  3  1  0
  3  4  1  0
  4  5  2  0
  5  6  1  0
  6  7  2  0
  7  8  1  0
  8  9  1  0
  9 10  1  0
 10 11  1  0
 11 12  1  0
 12 13  1  0
 11 14  1  0
 14 15  1  0
  7 16  1  0
 16 17  2  0
 17 18  1  0
 18 19  1  0
 19 20  1  0
 18 21  2  0
 21 22  1  0
 22 23  2  0
 23  4  1  0
 23 16  1  0
  1 24  1  0
  1 25  1  0
  1 26  1  0
  2 27  1  0
  2 28  1  0
  3 29  1  0
  3 30  1  0
  5 31  1  0
  6 32  1  0
  8 33  1  0
  9 34  1  0
  9 35  1  0
 10 36  1  0
 10 37  1  0
 12 38  1  0
 12 39  1  0
 13 40  1  0
 13 41  1  0
 13 42  1  0
 14 43  1  0
 14 44  1  0
 15 45  1  0
 15 46  1  0
 15 47  1  0
 17 48  1  0
 20 49  1  0
 20 50  1  0
 20 51  1  0
 21 52  1  0
 22 53  1  0
M  CHG  1   4   1
M  END
>  <UniqueID>  (23) 
23

>  <SMILES>  (23) 
CCC[n+]1ccc(NCCN(CC)CC)c2cc(OC)ccc21

>  <Energy>  (23) 
55.88561711595329

>  <Genealogy>  (23) 
CCC[n+]1ccc(NCCN(CC)CC)c2cc(OC)ccc21 (3D coordinates assigned)
CCC[n+]1ccc(NCCN(CC)CC)c2cc(OC)ccc21 (optimized conformer: 55.88561711595329 kcal/mol)

>  <smiles>  (23) 
CCC[n+]1ccc(NCCN(CC)CC)c2cc(OC)ccc21

>  <score_type>  (23) 
oracle

>  <origin>  (23) 
adg

>  <m_score__min__energy>  (23) 
-7.2000000000000002

>  <m_primary>  (23) 
energy

$$$$
23:0
     RDKit          3D

 63 65  0  0  0  0  0  0  0  0999 V2000
   -1.4370   26.7520  -24.0880 C   0  0  0  0  0  0  0  0  0  0  0  0
    0.0820   26.9810  -23.9930 C   0  0  0  0  0  0  0  0  0  0  0  0
    0.9190   25.7470  -24.0200 N   0  0  2  0  0  0  0  0  0  0  0  0
    2.3420   25.9840  -24.3290 C   0  0  0  0  0  0  0  0  0  0  0  0
    0.3400   24.6340  -24.8170 C   0  0  0  0  0  0  0  0  0  0  0  0
    0.1190   24.9430  -26.3060 C   0  0  0  0  0  0  0  0  0  0  0  0
   -1.2710   25.0480  -26.5380 O   0  0  0  0  0  0  0  0  0  0  0  0
   -1.6960   24.1310  -27.5290 C   0  0  0  0  0  0  0  0  0  0  0  0
   -2.0090   24.8160  -28.8640 C   0  0  0  0  0  0  0  0  0  0  0  0
   -3.3890   24.7380  -29.1290 O   0  0  0  0  0  0  0  0  0  0  0  0
   -3.5340   24.7910  -30.4820 N   0  0  0  0  0  0  0  0  0  0  0  0
   -4.9620   24.8680  -30.8200 C   0  0  0  0  0  0  0  0  0  0  0  0
   -5.6250   23.4850  -30.8950 C   0  0  0  0  0  0  0  0  0  0  0  0
   -5.5030   22.9440  -32.2470 N   0  0  0  0  0  0  0  0  0  0  0  0
   -5.6670   21.5390  -32.4910 C   0  0  0  0  0  0  0  0  0  0  0  0
   -6.9310   20.9400  -32.3630 C   0  0  0  0  0  0  0  0  0  0  0  0
   -8.0680   21.7150  -32.0490 C   0  0  0  0  0  0  0  0  0  0  0  0
   -9.3260   21.1260  -31.9650 C   0  0  0  0  0  0  0  0  0  0  0  0
   -9.4760   19.7650  -32.2040 C   0  0  0  0  0  0  0  0  0  0  0  0
   -8.3650   18.9780  -32.5010 C   0  0  0  0  0  0  0  0  0  0  0  0
   -7.0620   19.5400  -32.5550 C   0  0  0  0  0  0  0  0  0  0  0  0
   -5.9440   18.7640  -32.7980 N   0  0  0  0  0  0  0  0  0  0  0  0
   -6.0280   17.2900  -32.7000 C   0  0  0  0  0  0  0  0  0  0  0  0
   -4.7380   19.3680  -33.1020 C   0  0  0  0  0  0  0  0  0  0  0  0
   -3.6370   18.6290  -33.6060 C   0  0  0  0  0  0  0  0  0  0  0  0
   -2.4060   19.2410  -33.8390 C   0  0  0  0  0  0  0  0  0  0  0  0
   -2.2420   20.6010  -33.6020 C   0  0  0  0  0  0  0  0  0  0  0  0
   -0.6860   21.3590  -33.8800 Cl  0  0  0  0  0  0  0  0  0  0  0  0
   -3.3210   21.3650  -33.1590 C   0  0  0  0  0  0  0  0  0  0  0  0
   -4.5750   20.7660  -32.9150 C   0  0  0  0  0  0  0  0  0  0  0  0
   -1.8622   26.6879  -23.0755 H   0  0  0  0  0  0  0  0  0  0  0  0
   -1.9011   27.5903  -24.6282 H   0  0  0  0  0  0  0  0  0  0  0  0
   -1.6333   25.8141  -24.6282 H   0  0  0  0  0  0  0  0  0  0  0  0
    0.3833   27.6137  -24.8409 H   0  0  0  0  0  0  0  0  0  0  0  0
    0.2573   27.4441  -23.0107 H   0  0  0  0  0  0  0  0  0  0  0  0
    0.9160   25.3900  -23.0340 H   0  0  0  0  0  0  0  0  0  0  0  0
    2.9099   26.0786  -23.3917 H   0  0  0  0  0  0  0  0  0  0  0  0
    2.7361   25.1391  -24.9128 H   0  0  0  0  0  0  0  0  0  0  0  0
    2.4410   26.9110  -24.9128 H   0  0  0  0  0  0  0  0  0  0  0  0
    1.0214   23.7734  -24.7453 H   0  0  0  0  0  0  0  0  0  0  0  0
   -0.6567   24.4410  -24.3936 H   0  0  0  0  0  0  0  0  0  0  0  0
    0.6117   25.8916  -26.5657 H   0  0  0  0  0  0  0  0  0  0  0  0
    0.5462   24.1411  -26.9260 H   0  0  0  0  0  0  0  0  0  0  0  0
   -0.8986   23.3907  -27.6904 H   0  0  0  0  0  0  0  0  0  0  0  0
   -2.6212   23.6557  -27.1711 H   0  0  0  0  0  0  0  0  0  0  0  0
   -1.7065   25.8723  -28.8120 H   0  0  0  0  0  0  0  0  0  0  0  0
   -1.4559   24.3107  -29.6694 H   0  0  0  0  0  0  0  0  0  0  0  0
   -3.0710   25.6720  -30.8040 H   0  0  0  0  0  0  0  0  0  0  0  0
   -5.4749   25.4636  -30.0504 H   0  0  0  0  0  0  0  0  0  0  0  0
   -5.0452   25.3324  -31.8137 H   0  0  0  0  0  0  0  0  0  0  0  0
   -5.1311   22.8054  -30.1849 H   0  0  0  0  0  0  0  0  0  0  0  0
   -6.6906   23.5815  -30.6399 H   0  0  0  0  0  0  0  0  0  0  0  0
   -5.5860   23.5990  -33.0580 H   0  0  0  0  0  0  0  0  0  0  0  0
   -7.9587   22.7947  -31.8690 H   0  0  0  0  0  0  0  0  0  0  0  0
  -10.2031   21.7385  -31.7090 H   0  0  0  0  0  0  0  0  0  0  0  0
  -10.4753   19.3075  -32.1585 H   0  0  0  0  0  0  0  0  0  0  0  0
   -8.4995   17.9040  -32.6968 H   0  0  0  0  0  0  0  0  0  0  0  0
   -6.0449   16.9933  -31.6409 H   0  0  0  0  0  0  0  0  0  0  0  0
   -6.9475   16.9415  -33.1931 H   0  0  0  0  0  0  0  0  0  0  0  0
   -5.1541   16.8393  -33.1931 H   0  0  0  0  0  0  0  0  0  0  0  0
   -3.7563   17.5559  -33.8164 H   0  0  0  0  0  0  0  0  0  0  0  0
   -1.5604   18.6447  -34.2122 H   0  0  0  0  0  0  0  0  0  0  0  0
   -3.1933   22.4457  -32.9981 H   0  0  0  0  0  0  0  0  0  0  0  0
  1  2  1  0
  2  3  1  0
  3  4  1  0
  3  5  1  0
  5  6  1  0
  6  7  1  0
  7  8  1  0
  8  9  1  0
  9 10  1  0
 10 11  1  0
 11 12  1  0
 12 13  1  0
 13 14  1  0
 14 15  1  0
 15 16  2  0
 16 17  1  0
 17 18  2  0
 18 19  1  0
 19 20  2  0
 20 21  1  0
 21 22  2  0
 22 23  1  0
 22 24  1  0
 24 25  2  0
 25 26  1  0
 26 27  2  0
 27 28  1  0
 27 29  1  0
 29 30  2  0
 30 15  1  0
 21 16  1  0
 30 24  1  0
  1 31  1  0
  1 32  1  0
  1 33  1  0
  2 34  1  0
  2 35  1  0
  3 36  1  1
  4 37  1  0
  4 38  1  0
  4 39  1  0
  5 40  1  0
  5 41  1  0
  6 42  1  0
  6 43  1  0
  8 44  1  0
  8 45  1  0
  9 46  1  0
  9 47  1  0
 11 48  1  0
 12 49  1  0
 12 50  1  0
 13 51  1  0
 13 52  1  0
 14 53  1  0
 17 54  1  0
 18 55  1  0
 19 56  1  0
 20 57  1  0
 23 58  1  0
 23 59  1  0
 23 60  1  0
 25 61  1  0
 26 62  1  0
 29 63  1  0
M  CHG  2   3   1  22   1
M  END
>  <UniqueID>  (24) 
24

>  <SMILES>  (24) 
CC[N@H+](C)CCOCCONCCNc1c2ccccc2[n+](C)c2ccc(Cl)cc12

>  <Energy>  (24) 
88.70935135282524

>  <Genealogy>  (24) 
CC[NH+](C)CCOCCONCCNc1c2ccccc2[n+](C)c2ccc(Cl)cc12 (protonated)
CC[N@H+](C)CCOCCONCCNc1c2ccccc2[n+](C)c2ccc(Cl)cc12 (chirality)
CC[N@H+](C)CCOCCONCCNc1c2ccccc2[n+](C)c2ccc(Cl)cc12 (3D coordinates assigned)
CC[N@H+](C)CCOCCONCCNc1c2ccccc2[n+](C)c2ccc(Cl)cc12 (optimized conformer: 88.70935135282524 kcal/mol)

>  <smiles>  (24) 
CCN(C)CCOCCONCCNc1c2ccccc2[n+](C)c2ccc(Cl)cc12

>  <score_type>  (24) 
oracle

>  <origin>  (24) 
adg

>  <m_score__min__energy>  (24) 
-9.0199999999999996

>  <m_primary>  (24) 
energy

$$$$
