0:0
     RDKit          3D

 31 31  0  0  0  0  0  0  0  0999 V2000
   -8.6610   22.9910  -31.8720 C   0  0  0  0  0  0  0  0  0  0  0  0
   -7.2890   23.4080  -32.4200 C   0  0  0  0  0  0  0  0  0  0  0  0
   -6.2520   23.5130  -31.3600 N   0  0  1  0  0  0  0  0  0  0  0  0
   -6.5750   24.6030  -30.3980 C   0  0  0  0  0  0  0  0  0  0  0  0
   -5.4310   25.6120  -30.2110 C   0  0  0  0  0  0  0  0  0  0  0  0
   -4.2580   25.1370  -30.8110 O   0  0  0  0  0  0  0  0  0  0  0  0
   -6.0350   22.1960  -30.6950 C   0  0  0  0  0  0  0  0  0  0  0  0
   -5.9630   21.0170  -31.6490 C   0  0  0  0  0  0  0  0  0  0  0  0
   -6.9940   20.0620  -31.6810 C   0  0  0  0  0  0  0  0  0  0  0  0
   -6.9270   18.9750  -32.5580 C   0  0  0  0  0  0  0  0  0  0  0  0
   -5.8250   18.8250  -33.4040 C   0  0  0  0  0  0  0  0  0  0  0  0
   -5.7340   17.3400  -34.6020 Br  0  0  0  0  0  0  0  0  0  0  0  0
   -4.7860   19.7580  -33.3670 C   0  0  0  0  0  0  0  0  0  0  0  0
   -4.8490   20.8460  -32.4920 C   0  0  0  0  0  0  0  0  0  0  0  0
   -8.6345   22.9991  -30.7723 H   0  0  0  0  0  0  0  0  0  0  0  0
   -9.4270   23.6969  -32.2255 H   0  0  0  0  0  0  0  0  0  0  0  0
   -8.9046   21.9782  -32.2255 H   0  0  0  0  0  0  0  0  0  0  0  0
   -6.9630   22.6597  -33.1574 H   0  0  0  0  0  0  0  0  0  0  0  0
   -7.4022   24.4045  -32.8719 H   0  0  0  0  0  0  0  0  0  0  0  0
   -5.3460   23.7490  -31.8300 H   0  0  0  0  0  0  0  0  0  0  0  0
   -7.4592   25.1431  -30.7674 H   0  0  0  0  0  0  0  0  0  0  0  0
   -6.7539   24.1307  -29.4208 H   0  0  0  0  0  0  0  0  0  0  0  0
   -5.7128   26.5693  -30.6738 H   0  0  0  0  0  0  0  0  0  0  0  0
   -5.2503   25.7510  -29.1349 H   0  0  0  0  0  0  0  0  0  0  0  0
   -4.1330   25.6730  -31.6360 H   0  0  0  0  0  0  0  0  0  0  0  0
   -5.0890   22.2445  -30.1357 H   0  0  0  0  0  0  0  0  0  0  0  0
   -6.9072   22.0234  -30.0473 H   0  0  0  0  0  0  0  0  0  0  0  0
   -7.8598   20.1706  -31.0112 H   0  0  0  0  0  0  0  0  0  0  0  0
   -7.7426   18.2372  -32.5820 H   0  0  0  0  0  0  0  0  0  0  0  0
   -3.9156   19.6360  -34.0285 H   0  0  0  0  0  0  0  0  0  0  0  0
   -4.0236   21.5725  -32.4620 H   0  0  0  0  0  0  0  0  0  0  0  0
  1  2  1  0
  2  3  1  0
  3  4  1  0
  4  5  1  0
  5  6  1  0
  3  7  1  0
  7  8  1  0
  8  9  2  0
  9 10  1  0
 10 11  2  0
 11 12  1  0
 11 13  1  0
 13 14  2  0
 14  8  1  0
  1 15  1  0
  1 16  1  0
  1 17  1  0
  2 18  1  0
  2 19  1  0
  3 20  1  6
  4 21  1  0
  4 22  1  0
  5 23  1  0
  5 24  1  0
  6 25  1  0
  7 26  1  0
  7 27  1  0
  9 28  1  0
 10 29  1  0
 13 30  1  0
 14 31  1  0
M  CHG  1   3   1
M  END
>  <UniqueID>  (1) 
1

>  <SMILES>  (1) 
CC[N@@H+](CCO)Cc1ccc(Br)cc1

>  <Energy>  (1) 
31.894290775449456

>  <Genealogy>  (1) 
CC[NH+](CCO)Cc1ccc(Br)cc1 (protonated)
CC[N@@H+](CCO)Cc1ccc(Br)cc1 (chirality)
CC[N@@H+](CCO)Cc1ccc(Br)cc1 (3D coordinates assigned)
CC[N@@H+](CCO)Cc1ccc(Br)cc1 (optimized conformer: 31.894290775449456 kcal/mol)

>  <smiles>  (1) 
CCN(CCO)Cc1ccc(Br)cc1

>  <score_type>  (1) 
oracle

>  <origin>  (1) 
adg

>  <m_score__min__energy>  (1) 
-5.4000000000000004

>  <m_primary>  (1) 
energy

$$$$
1:0
     RDKit          3D

 52 54  0  0  0  0  0  0  0  0999 V2000
   -8.9270   20.2760  -32.2200 C   0  0  0  0  0  0  0  0  0  0  0  0
   -8.7880   21.3480  -31.1530 C   0  0  0  0  0  0  0  0  0  0  0  0
   -8.3020   22.5490  -31.7450 O   0  0  0  0  0  0  0  0  0  0  0  0
   -7.0970   23.1750  -31.3940 C   0  0  0  0  0  0  0  0  0  0  0  0
   -7.1430   24.2550  -30.5040 C   0  0  0  0  0  0  0  0  0  0  0  0
   -5.9690   24.9070  -30.1160 C   0  0  0  0  0  0  0  0  0  0  0  0
   -4.7260   24.4970  -30.6350 C   0  0  0  0  0  0  0  0  0  0  0  0
   -3.4890   25.1150  -30.2440 N   0  0  0  0  0  0  0  0  0  0  0  0
   -2.5470   24.6250  -29.2830 C   0  0  0  0  0  0  0  0  0  0  0  0
   -2.6140   24.9850  -28.0730 O   0  0  0  0  0  0  0  0  0  0  0  0
   -1.4480   23.7040  -29.7240 C   0  0  0  0  0  0  0  0  0  0  0  0
   -1.5280   22.4260  -28.9780 N   0  0  0  0  0  0  0  0  0  0  0  0
   -2.9030   21.8540  -28.9660 C   0  0  0  0  0  0  0  0  0  0  0  0
   -2.9930   20.4310  -29.5510 C   0  0  0  0  0  0  0  0  0  0  0  0
   -2.2560   20.2990  -30.8290 N   0  0  0  0  0  0  0  0  0  0  0  0
   -3.0160   20.8240  -31.9830 C   0  0  0  0  0  0  0  0  0  0  0  0
   -3.9390   19.7700  -32.5430 C   0  0  0  0  0  0  0  0  0  0  0  0
   -5.1500   19.4830  -31.8940 C   0  0  0  0  0  0  0  0  0  0  0  0
   -6.0110   18.5050  -32.4020 C   0  0  0  0  0  0  0  0  0  0  0  0
   -5.6650   17.8040  -33.5620 C   0  0  0  0  0  0  0  0  0  0  0  0
   -6.7410   16.5730  -34.1960 Cl  0  0  0  0  0  0  0  0  0  0  0  0
   -4.4610   18.0860  -34.2160 C   0  0  0  0  0  0  0  0  0  0  0  0
   -3.6020   19.0670  -33.7120 C   0  0  0  0  0  0  0  0  0  0  0  0
   -0.8720   20.8400  -30.7770 C   0  0  0  0  0  0  0  0  0  0  0  0
   -0.5040   21.4590  -29.4190 C   0  0  0  0  0  0  0  0  0  0  0  0
   -4.6790   23.4050  -31.5120 C   0  0  0  0  0  0  0  0  0  0  0  0
   -5.8530   22.7500  -31.8970 C   0  0  0  0  0  0  0  0  0  0  0  0
   -9.0542   19.2947  -31.7395 H   0  0  0  0  0  0  0  0  0  0  0  0
   -9.8044   20.4940  -32.8466 H   0  0  0  0  0  0  0  0  0  0  0  0
   -8.0230   20.2630  -32.8466 H   0  0  0  0  0  0  0  0  0  0  0  0
   -9.7694   21.5371  -30.6935 H   0  0  0  0  0  0  0  0  0  0  0  0
   -8.0809   21.0077  -30.3822 H   0  0  0  0  0  0  0  0  0  0  0  0
   -8.1114   24.5933  -30.1067 H   0  0  0  0  0  0  0  0  0  0  0  0
   -6.0164   25.7432  -29.4028 H   0  0  0  0  0  0  0  0  0  0  0  0
   -1.5502   23.5042  -30.8009 H   0  0  0  0  0  0  0  0  0  0  0  0
   -0.4764   24.1791  -29.5234 H   0  0  0  0  0  0  0  0  0  0  0  0
   -3.2562   21.8233  -27.9247 H   0  0  0  0  0  0  0  0  0  0  0  0
   -3.5233   22.5010  -29.6037 H   0  0  0  0  0  0  0  0  0  0  0  0
   -2.5693   19.7226  -28.8239 H   0  0  0  0  0  0  0  0  0  0  0  0
   -4.0532   20.2168  -29.7512 H   0  0  0  0  0  0  0  0  0  0  0  0
   -3.6123   21.6894  -31.6581 H   0  0  0  0  0  0  0  0  0  0  0  0
   -2.3042   21.1211  -32.7673 H   0  0  0  0  0  0  0  0  0  0  0  0
   -5.4235   20.0307  -30.9801 H   0  0  0  0  0  0  0  0  0  0  0  0
   -6.9597   18.2871  -31.8897 H   0  0  0  0  0  0  0  0  0  0  0  0
   -4.1897   17.5348  -35.1285 H   0  0  0  0  0  0  0  0  0  0  0  0
   -2.6588   19.2894  -34.2325 H   0  0  0  0  0  0  0  0  0  0  0  0
   -0.1698   20.0197  -30.9870 H   0  0  0  0  0  0  0  0  0  0  0  0
   -0.8116   21.6442  -31.5251 H   0  0  0  0  0  0  0  0  0  0  0  0
   -0.4212   20.6576  -28.6701 H   0  0  0  0  0  0  0  0  0  0  0  0
    0.4533   21.9901  -29.5263 H   0  0  0  0  0  0  0  0  0  0  0  0
   -3.7097   23.0599  -31.9011 H   0  0  0  0  0  0  0  0  0  0  0  0
   -5.8042   21.9008  -32.5945 H   0  0  0  0  0  0  0  0  0  0  0  0
  1  2  1  0
  2  3  1  0
  3  4  1  0
  4  5  2  0
  5  6  1  0
  6  7  2  0
  7  8  1  0
  8  9  1  0
  9 10  2  0
  9 11  1  0
 11 12  1  0
 12 13  1  0
 13 14  1  0
 14 15  1  0
 15 16  1  0
 16 17  1  0
 17 18  2  0
 18 19  1  0
 19 20  2  0
 20 21  1  0
 20 22  1  0
 22 23  2  0
 15 24  1  0
 24 25  1  0
  7 26  1  0
 26 27  2  0
 27  4  1  0
 25 12  1  0
 23 17  1  0
  1 28  1  0
  1 29  1  0
  1 30  1  0
  2 31  1  0
  2 32  1  0
  5 33  1  0
  6 34  1  0
 11 35  1  0
 11 36  1  0
 13 37  1  0
 13 38  1  0
 14 39  1  0
 14 40  1  0
 16 41  1  0
 16 42  1  0
 18 43  1  0
 19 44  1  0
 22 45  1  0
 23 46  1  0
 24 47  1  0
 24 48  1  0
 25 49  1  0
 25 50  1  0
 26 51  1  0
 27 52  1  0
M  CHG  1   8  -1
M  END
>  <UniqueID>  (2) 
2

>  <SMILES>  (2) 
CCOc1ccc([N-]C(=O)CN2CCN(Cc3ccc(Cl)cc3)CC2)cc1

>  <Energy>  (2) 
68.40784605562513

>  <Genealogy>  (2) 
CCOc1ccc([N-]C(=O)CN2CCN(Cc3ccc(Cl)cc3)CC2)cc1 (protonated)
CCOc1ccc([N-]C(=O)CN2CCN(Cc3ccc(Cl)cc3)CC2)cc1 (3D coordinates assigned)
CCOc1ccc([N-]C(=O)CN2CCN(Cc3ccc(Cl)cc3)CC2)cc1 (nonaromatic ring conformer: 68.40784605562513 kcal/mol)

>  <smiles>  (2) 
CCOc1ccc(NC(=O)CN2CCN(Cc3ccc(Cl)cc3)CC2)cc1

>  <score_type>  (2) 
oracle

>  <origin>  (2) 
adg

>  <m_score__min__energy>  (2) 
-10.130000000000001

>  <m_primary>  (2) 
energy

$$$$
2:0
     RDKit          3D

 51 52  0  0  0  0  0  0  0  0999 V2000
   -8.7340   23.0200  -31.9830 C   0  0  0  0  0  0  0  0  0  0  0  0
   -8.4770   21.5220  -31.8610 C   0  0  0  0  0  0  0  0  0  0  0  0
   -9.5090   20.7940  -32.4990 O   0  0  0  0  0  0  0  0  0  0  0  0
   -9.1080   19.4570  -32.7230 C   0  0  0  0  0  0  0  0  0  0  0  0
   -8.3570   18.9440  -31.4970 C   0  0  0  0  0  0  0  0  0  0  0  0
   -7.3950   17.8890  -31.8900 N   0  0  0  0  0  0  0  0  0  0  0  0
   -7.1920   17.8110  -33.3580 C   0  0  0  0  0  0  0  0  0  0  0  0
   -6.0150   18.6750  -33.8560 C   0  0  0  0  0  0  0  0  0  0  0  0
   -5.7520   19.7640  -32.9030 N   0  0  0  0  0  0  0  0  0  0  0  0
   -4.8840   20.8340  -33.4420 C   0  0  0  0  0  0  0  0  0  0  0  0
   -4.5240   21.9040  -32.4290 C   0  0  0  0  0  0  0  0  0  0  0  0
   -5.4260   22.9370  -32.1390 C   0  0  0  0  0  0  0  0  0  0  0  0
   -5.0950   23.9360  -31.2070 C   0  0  0  0  0  0  0  0  0  0  0  0
   -5.9690   24.9920  -30.9030 O   0  0  0  0  0  0  0  0  0  0  0  0
   -6.6260   25.1600  -29.6500 C   0  0  0  0  0  0  0  0  0  0  0  0
   -3.8560   23.8890  -30.5530 C   0  0  0  0  0  0  0  0  0  0  0  0
   -3.5420   24.8880  -29.6320 O   0  0  0  0  0  0  0  0  0  0  0  0
   -2.9470   22.8500  -30.8230 C   0  0  0  0  0  0  0  0  0  0  0  0
   -1.7160   22.8340  -30.1480 O   0  0  0  0  0  0  0  0  0  0  0  0
   -1.1760   21.7000  -29.4750 C   0  0  0  0  0  0  0  0  0  0  0  0
   -3.2930   21.8580  -31.7590 C   0  0  0  0  0  0  0  0  0  0  0  0
   -5.3020   19.2440  -31.5950 C   0  0  0  0  0  0  0  0  0  0  0  0
   -6.1110   17.9990  -31.1690 C   0  0  0  0  0  0  0  0  0  0  0  0
   -8.8098   23.4620  -30.9786 H   0  0  0  0  0  0  0  0  0  0  0  0
   -7.9036   23.4912  -32.5292 H   0  0  0  0  0  0  0  0  0  0  0  0
   -9.6740   23.1875  -32.5292 H   0  0  0  0  0  0  0  0  0  0  0  0
   -7.5147   21.2790  -32.3352 H   0  0  0  0  0  0  0  0  0  0  0  0
   -8.4515   21.2485  -30.7958 H   0  0  0  0  0  0  0  0  0  0  0  0
   -9.9957   18.8315  -32.8986 H   0  0  0  0  0  0  0  0  0  0  0  0
   -8.4505   19.4119  -33.6037 H   0  0  0  0  0  0  0  0  0  0  0  0
   -7.8115   19.7774  -31.0302 H   0  0  0  0  0  0  0  0  0  0  0  0
   -9.0805   18.5220  -30.7839 H   0  0  0  0  0  0  0  0  0  0  0  0
   -6.9953   16.7631  -33.6284 H   0  0  0  0  0  0  0  0  0  0  0  0
   -8.1051   18.1967  -33.8350 H   0  0  0  0  0  0  0  0  0  0  0  0
   -5.1163   18.0475  -33.9492 H   0  0  0  0  0  0  0  0  0  0  0  0
   -6.2722   19.1060  -34.8348 H   0  0  0  0  0  0  0  0  0  0  0  0
   -3.9531   20.3743  -33.8054 H   0  0  0  0  0  0  0  0  0  0  0  0
   -5.4510   21.3312  -34.2428 H   0  0  0  0  0  0  0  0  0  0  0  0
   -6.4020   22.9662  -32.6455 H   0  0  0  0  0  0  0  0  0  0  0  0
   -5.9114   24.9773  -28.8339 H   0  0  0  0  0  0  0  0  0  0  0  0
   -7.0144   26.1864  -29.5743 H   0  0  0  0  0  0  0  0  0  0  0  0
   -7.4594   24.4461  -29.5743 H   0  0  0  0  0  0  0  0  0  0  0  0
   -4.2540   25.4180  -29.1430 H   0  0  0  0  0  0  0  0  0  0  0  0
   -1.2476   21.8504  -28.3877 H   0  0  0  0  0  0  0  0  0  0  0  0
   -1.7427   20.8009  -29.7589 H   0  0  0  0  0  0  0  0  0  0  0  0
   -0.1209   21.5732  -29.7589 H   0  0  0  0  0  0  0  0  0  0  0  0
   -2.5904   21.0377  -31.9674 H   0  0  0  0  0  0  0  0  0  0  0  0
   -4.2386   18.9716  -31.6659 H   0  0  0  0  0  0  0  0  0  0  0  0
   -5.4570   20.0296  -30.8408 H   0  0  0  0  0  0  0  0  0  0  0  0
   -5.5115   17.1002  -31.3758 H   0  0  0  0  0  0  0  0  0  0  0  0
   -6.3355   18.0954  -30.0965 H   0  0  0  0  0  0  0  0  0  0  0  0
  1  2  1  0
  2  3  1  0
  3  4  1  0
  4  5  1  0
  5  6  1  0
  6  7  1  0
  7  8  1  0
  8  9  1  0
  9 10  1  0
 10 11  1  0
 11 12  2  0
 12 13  1  0
 13 14  1  0
 14 15  1  0
 13 16  2  0
 16 17  1  0
 16 18  1  0
 18 19  1  0
 19 20  1  0
 18 21  2  0
  9 22  1  0
 22 23  1  0
 23  6  1  0
 21 11  1  0
  1 24  1  0
  1 25  1  0
  1 26  1  0
  2 27  1  0
  2 28  1  0
  4 29  1  0
  4 30  1  0
  5 31  1  0
  5 32  1  0
  7 33  1  0
  7 34  1  0
  8 35  1  0
  8 36  1  0
 10 37  1  0
 10 38  1  0
 12 39  1  0
 15 40  1  0
 15 41  1  0
 15 42  1  0
 17 43  1  0
 20 44  1  0
 20 45  1  0
 20 46  1  0
 21 47  1  0
 22 48  1  0
 22 49  1  0
 23 50  1  0
 23 51  1  0
M  END
>  <UniqueID>  (3) 
3

>  <SMILES>  (3) 
CCOCCN1CCN(Cc2cc(OC)c(O)c(OC)c2)CC1

>  <Energy>  (3) 
60.02618058844294

>  <Genealogy>  (3) 
CCOCCN1CCN(Cc2cc(OC)c(O)c(OC)c2)CC1 (3D coordinates assigned)
CCOCCN1CCN(Cc2cc(OC)c(O)c(OC)c2)CC1 (nonaromatic ring conformer: 60.02618058844294 kcal/mol)

>  <smiles>  (3) 
CCOCCN1CCN(Cc2cc(OC)c(O)c(OC)c2)CC1

>  <score_type>  (3) 
oracle

>  <origin>  (3) 
adg

>  <m_score__min__energy>  (3) 
-6.6799999999999997

>  <m_primary>  (3) 
energy

$$$$
3:0
     RDKit          3D

 24 24  0  0  0  0  0  0  0  0999 V2000
   -8.2803   19.0552  -32.1492 H   0  0  0  0  0  0  0  0  0  0  0  0
   -7.5320   19.8350  -32.3540 C   0  0  0  0  0  0  0  0  0  0  0  0
   -6.3150   19.4960  -32.9430 C   0  0  0  0  0  0  0  0  0  0  0  0
   -5.9360   17.6800  -33.3970 Br  0  0  0  0  0  0  0  0  0  0  0  0
   -5.3730   20.4960  -33.1880 C   0  0  0  0  0  0  0  0  0  0  0  0
   -4.4073   20.2376  -33.6470 H   0  0  0  0  0  0  0  0  0  0  0  0
   -5.6430   21.7890  -32.8620 N   0  0  0  0  0  0  0  0  0  0  0  0
   -4.8870   22.4890  -33.0290 H   0  0  0  0  0  0  0  0  0  0  0  0
   -6.8400   22.1550  -32.3010 C   0  0  0  0  0  0  0  0  0  0  0  0
   -7.1020   23.3940  -31.9860 N   0  0  0  0  0  0  0  0  0  0  0  0
   -6.4630   24.1780  -30.9700 C   0  0  0  0  0  0  0  0  0  0  0  0
   -7.1680   24.7020  -30.0680 O   0  0  0  0  0  0  0  0  0  0  0  0
   -5.0210   24.4650  -31.0130 C   0  0  0  0  0  0  0  0  0  0  0  0
   -4.6050   25.6440  -30.8360 O   0  0  0  0  0  0  0  0  0  0  0  0
   -4.1180   23.4190  -31.2400 O   0  0  0  0  0  0  0  0  0  0  0  0
   -3.8150   22.4180  -30.2700 C   0  0  0  0  0  0  0  0  0  0  0  0
   -2.7345   22.2126  -30.2885 H   0  0  0  0  0  0  0  0  0  0  0  0
   -4.3810   21.5067  -30.5135 H   0  0  0  0  0  0  0  0  0  0  0  0
   -4.2120   22.8830  -28.8740 C   0  0  0  0  0  0  0  0  0  0  0  0
   -3.6907   22.2724  -28.1221 H   0  0  0  0  0  0  0  0  0  0  0  0
   -3.9329   23.9393  -28.7462 H   0  0  0  0  0  0  0  0  0  0  0  0
   -5.2990   22.7729  -28.7462 H   0  0  0  0  0  0  0  0  0  0  0  0
   -7.8010   21.1650  -32.0240 C   0  0  0  0  0  0  0  0  0  0  0  0
   -9.4840   21.6000  -31.2170 Br  0  0  0  0  0  0  0  0  0  0  0  0
  1  2  1  0
  2  3  1  0
  3  4  1  0
  3  5  2  0
  5  6  1  0
  5  7  1  0
  7  8  1  0
  7  9  1  0
  9 10  2  0
 10 11  1  0
 11 12  2  0
 11 13  1  0
 13 14  2  0
 13 15  1  0
 15 16  1  0
 16 17  1  0
 16 18  1  0
 16 19  1  0
 19 20  1  0
 19 21  1  0
 19 22  1  0
  9 23  1  0
 23 24  1  0
 23  2  2  0
M  END
>  <UniqueID>  (4) 
4

>  <SMILES>  (4) 
CCOC(=O)C(=O)/N=c1\[nH]cc(Br)cc1Br

>  <Energy>  (4) 
26.8364110915102

>  <Genealogy>  (4) 
CCOC(=O)C(=O)/N=c1\[nH]cc(Br)cc1Br (cis-trans isomerization)
CCOC(=O)C(=O)/N=c1\[nH]cc(Br)cc1Br (3D coordinates assigned)
CCOC(=O)C(=O)/N=c1\[nH]cc(Br)cc1Br (optimized conformer: 26.8364110915102 kcal/mol)

>  <smiles>  (4) 
CCOC(=O)C(=O)N=c1[nH]cc(Br)cc1Br

>  <score_type>  (4) 
oracle

>  <origin>  (4) 
adg

>  <m_score__min__energy>  (4) 
-6.4199999999999999

>  <m_primary>  (4) 
energy

$$$$
4:0
     RDKit          3D

 50 51  0  0  0  0  0  0  0  0999 V2000
   -4.3953   25.0200  -25.6711 H   0  0  0  0  0  0  0  0  0  0  0  0
   -3.7120   24.8760  -26.5210 C   0  0  0  0  0  0  0  0  0  0  0  0
   -4.1220   24.1250  -27.6270 C   0  0  0  0  0  0  0  0  0  0  0  0
   -5.1255   23.6747  -27.6414 H   0  0  0  0  0  0  0  0  0  0  0  0
   -3.2580   23.9430  -28.7200 C   0  0  0  0  0  0  0  0  0  0  0  0
   -3.6870   23.1070  -29.9010 C   0  0  0  0  0  0  0  0  0  0  0  0
   -4.4527   22.3873  -29.5757 H   0  0  0  0  0  0  0  0  0  0  0  0
   -2.8095   22.5749  -30.2971 H   0  0  0  0  0  0  0  0  0  0  0  0
   -4.2490   23.9670  -30.9710 N   0  0  0  0  0  0  0  0  0  0  0  0
   -4.6740   25.2960  -30.4520 C   0  0  0  0  0  0  0  0  0  0  0  0
   -4.3292   26.0674  -31.1563 H   0  0  0  0  0  0  0  0  0  0  0  0
   -4.2285   25.4011  -29.4517 H   0  0  0  0  0  0  0  0  0  0  0  0
   -6.2020   25.4500  -30.2750 C   0  0  0  0  0  0  0  0  0  0  0  0
   -6.6357   25.8034  -31.2221 H   0  0  0  0  0  0  0  0  0  0  0  0
   -6.3797   26.1709  -29.4634 H   0  0  0  0  0  0  0  0  0  0  0  0
   -6.8700   24.1260  -29.8880 C   0  0  0  0  0  0  0  0  0  0  0  0
   -7.9592   24.2759  -29.8533 H   0  0  0  0  0  0  0  0  0  0  0  0
   -6.4753   23.8235  -28.9068 H   0  0  0  0  0  0  0  0  0  0  0  0
   -6.5560   22.9980  -30.8920 C   0  0  0  0  0  0  0  0  0  0  0  0
   -7.4271   22.8569  -31.5487 H   0  0  0  0  0  0  0  0  0  0  0  0
   -6.3344   22.0878  -30.3154 H   0  0  0  0  0  0  0  0  0  0  0  0
   -5.3190   23.3150  -31.7680 C   0  0  2  0  0  0  0  0  0  0  0  0
   -5.6427   24.0354  -32.5336 H   0  0  0  0  0  0  0  0  0  0  0  0
   -4.8180   22.1090  -32.5290 C   0  0  0  0  0  0  0  0  0  0  0  0
   -3.9400   22.2580  -33.4210 O   0  0  0  0  0  0  0  0  0  0  0  0
   -5.2980   20.8000  -32.1710 N   0  0  0  0  0  0  0  0  0  0  0  0
   -5.9010   19.9160  -32.9170 C   0  0  0  0  0  0  0  0  0  0  0  0
   -5.1940   18.7140  -33.4860 C   0  0  0  0  0  0  0  0  0  0  0  0
   -4.8232   18.0837  -32.6643 H   0  0  0  0  0  0  0  0  0  0  0  0
   -5.8954   18.1349  -34.1046 H   0  0  0  0  0  0  0  0  0  0  0  0
   -4.3470   19.0456  -34.1046 H   0  0  0  0  0  0  0  0  0  0  0  0
   -7.3740   20.0890  -33.1770 C   0  0  0  0  0  0  0  0  0  0  0  0
   -7.5328   21.0469  -33.6939 H   0  0  0  0  0  0  0  0  0  0  0  0
   -7.7109   19.2423  -33.7931 H   0  0  0  0  0  0  0  0  0  0  0  0
   -8.1980   20.0850  -31.8730 C   0  0  0  0  0  0  0  0  0  0  0  0
   -7.5191   20.3563  -31.0511 H   0  0  0  0  0  0  0  0  0  0  0  0
   -8.7790   18.6890  -31.6190 C   0  0  0  0  0  0  0  0  0  0  0  0
   -8.8519   18.5138  -30.5355 H   0  0  0  0  0  0  0  0  0  0  0  0
   -9.7801   18.6210  -32.0696 H   0  0  0  0  0  0  0  0  0  0  0  0
   -8.1218   17.9307  -32.0696 H   0  0  0  0  0  0  0  0  0  0  0  0
   -9.3310   21.1230  -31.9110 C   0  0  0  0  0  0  0  0  0  0  0  0
   -9.6202   21.3879  -30.8833 H   0  0  0  0  0  0  0  0  0  0  0  0
   -8.9851   22.0242  -32.4385 H   0  0  0  0  0  0  0  0  0  0  0  0
  -10.1985   20.6997  -32.4385 H   0  0  0  0  0  0  0  0  0  0  0  0
   -1.9720   24.5100  -28.6800 C   0  0  0  0  0  0  0  0  0  0  0  0
   -1.2822   24.3625  -29.5241 H   0  0  0  0  0  0  0  0  0  0  0  0
   -1.5660   25.2600  -27.5730 C   0  0  0  0  0  0  0  0  0  0  0  0
   -0.5608   25.7063  -27.5508 H   0  0  0  0  0  0  0  0  0  0  0  0
   -2.4350   25.4440  -26.4940 C   0  0  0  0  0  0  0  0  0  0  0  0
   -2.0380   26.1700  -25.4210 F   0  0  0  0  0  0  0  0  0  0  0  0
  1  2  1  0
  2  3  2  0
  3  4  1  0
  3  5  1  0
  5  6  1  0
  6  7  1  0
  6  8  1  0
  6  9  1  0
  9 10  1  0
 10 11  1  0
 10 12  1  0
 10 13  1  0
 13 14  1  0
 13 15  1  0
 13 16  1  0
 16 17  1  0
 16 18  1  0
 16 19  1  0
 19 20  1  0
 19 21  1  0
 19 22  1  0
 22 23  1  6
 22 24  1  0
 24 25  2  0
 24 26  1  0
 26 27  2  0
 27 28  1  0
 28 29  1  0
 28 30  1  0
 28 31  1  0
 27 32  1  0
 32 33  1  0
 32 34  1  0
 32 35  1  0
 35 36  1  0
 35 37  1  0
 37 38  1  0
 37 39  1  0
 37 40  1  0
 35 41  1  0
 41 42  1  0
 41 43  1  0
 41 44  1  0
  5 45  2  0
 45 46  1  0
 45 47  1  0
 47 48  1  0
 47 49  2  0
 49 50  1  0
 49  2  1  0
 22  9  1  0
M  END
>  <UniqueID>  (5) 
5

>  <SMILES>  (5) 
C/C(CC(C)C)=N\C(=O)[C@H]1CCCCN1Cc1ccc(F)cc1

>  <Energy>  (5) 
52.9770107098769

>  <Genealogy>  (5) 
CC(CC(C)C)=NC(=O)[C@H]1CCCCN1Cc1ccc(F)cc1 (chirality)
C/C(CC(C)C)=N\C(=O)[C@H]1CCCCN1Cc1ccc(F)cc1 (cis-trans isomerization)
C/C(CC(C)C)=N\C(=O)[C@H]1CCCCN1Cc1ccc(F)cc1 (3D coordinates assigned)
C/C(CC(C)C)=N\C(=O)[C@H]1CCCCN1Cc1ccc(F)cc1 (nonaromatic ring conformer: 52.9770107098769 kcal/mol)

>  <smiles>  (5) 
CC(CC(C)C)=NC(=O)C1CCCCN1Cc1ccc(F)cc1

>  <score_type>  (5) 
oracle

>  <origin>  (5) 
adg

>  <m_score__min__energy>  (5) 
-8.4600000000000009

>  <m_primary>  (5) 
energy

$$$$
5:0
     RDKit          3D

 31 32  0  0  0  0  0  0  0  0999 V2000
   -0.3451   24.9022  -27.9590 H   0  0  0  0  0  0  0  0  0  0  0  0
   -1.2740   24.5230  -28.4100 C   0  0  0  0  0  0  0  0  0  0  0  0
   -1.9870   25.2370  -29.3210 N   0  0  0  0  0  0  0  0  0  0  0  0
   -3.0900   24.5690  -29.7220 C   0  0  0  0  0  0  0  0  0  0  0  0
   -3.9460   25.0080  -30.5970 N   0  0  0  0  0  0  0  0  0  0  0  0
   -5.3540   25.2480  -30.4230 C   0  0  0  0  0  0  0  0  0  0  0  0
   -5.7290   26.4140  -30.1310 O   0  0  0  0  0  0  0  0  0  0  0  0
   -6.4020   24.1810  -30.6020 C   0  0  0  0  0  0  0  0  0  0  0  0
   -7.3956   24.6203  -30.4294 H   0  0  0  0  0  0  0  0  0  0  0  0
   -6.2067   23.3737  -29.8807 H   0  0  0  0  0  0  0  0  0  0  0  0
   -6.3560   23.6340  -31.9200 O   0  0  0  0  0  0  0  0  0  0  0  0
   -6.4340   22.2700  -32.2400 C   0  0  0  0  0  0  0  0  0  0  0  0
   -7.6650   21.6240  -32.0730 C   0  0  0  0  0  0  0  0  0  0  0  0
   -8.5312   22.1917  -31.7022 H   0  0  0  0  0  0  0  0  0  0  0  0
   -7.8060   20.2620  -32.3730 C   0  0  0  0  0  0  0  0  0  0  0  0
   -9.1170   19.5700  -32.1370 C   0  0  0  0  0  0  0  0  0  0  0  0
   -9.2930   19.4771  -31.0552 H   0  0  0  0  0  0  0  0  0  0  0  0
   -9.9286   20.1572  -32.5915 H   0  0  0  0  0  0  0  0  0  0  0  0
   -9.0901   18.5686  -32.5915 H   0  0  0  0  0  0  0  0  0  0  0  0
   -6.6950   19.5350  -32.8220 C   0  0  0  0  0  0  0  0  0  0  0  0
   -6.7914   18.4576  -33.0218 H   0  0  0  0  0  0  0  0  0  0  0  0
   -5.4620   20.1720  -33.0180 C   0  0  0  0  0  0  0  0  0  0  0  0
   -4.2690   19.3830  -33.4740 C   0  0  0  0  0  0  0  0  0  0  0  0
   -3.7149   19.0165  -32.5973 H   0  0  0  0  0  0  0  0  0  0  0  0
   -4.6044   18.5280  -34.0794 H   0  0  0  0  0  0  0  0  0  0  0  0
   -3.6135   20.0263  -34.0794 H   0  0  0  0  0  0  0  0  0  0  0  0
   -5.3310   21.5360  -32.7150 C   0  0  0  0  0  0  0  0  0  0  0  0
   -4.3599   22.0348  -32.8496 H   0  0  0  0  0  0  0  0  0  0  0  0
   -3.2180   23.0700  -28.9790 S   0  0  0  0  0  0  0  0  0  0  0  0
   -1.8050   23.2780  -28.0900 C   0  0  0  0  0  0  0  0  0  0  0  0
   -1.3761   22.5557  -27.3799 H   0  0  0  0  0  0  0  0  0  0  0  0
  1  2  1  0
  2  3  1  0
  3  4  1  0
  4  5  2  0
  5  6  1  0
  6  7  2  0
  6  8  1  0
  8  9  1  0
  8 10  1  0
  8 11  1  0
 11 12  1  0
 12 13  2  0
 13 14  1  0
 13 15  1  0
 15 16  1  0
 16 17  1  0
 16 18  1  0
 16 19  1  0
 15 20  2  0
 20 21  1  0
 20 22  1  0
 22 23  1  0
 23 24  1  0
 23 25  1  0
 23 26  1  0
 22 27  2  0
 27 28  1  0
  4 29  1  0
 29 30  1  0
 30 31  1  0
 30  2  2  0
 27 12  1  0
M  CHG  1   3  -1
M  END
>  <UniqueID>  (6) 
6

>  <SMILES>  (6) 
Cc1cc(C)cc(OCC(=O)/N=c2\[n-]ccs2)c1

>  <Energy>  (6) 
62.601758223484666

>  <Genealogy>  (6) 
Cc1cc(C)cc(OCC(=O)N=c2[n-]ccs2)c1 (protonated)
Cc1cc(C)cc(OCC(=O)/N=c2\[n-]ccs2)c1 (cis-trans isomerization)
Cc1cc(C)cc(OCC(=O)/N=c2\[n-]ccs2)c1 (3D coordinates assigned)
Cc1cc(C)cc(OCC(=O)/N=c2\[n-]ccs2)c1 (optimized conformer: 62.601758223484666 kcal/mol)

>  <smiles>  (6) 
Cc1cc(C)cc(OCC(=O)N=c2[nH]ccs2)c1

>  <score_type>  (6) 
oracle

>  <origin>  (6) 
adg

>  <m_score__min__energy>  (6) 
-8.6500000000000004

>  <m_primary>  (6) 
energy

$$$$
6:0
     RDKit          3D

 40 44  0  0  0  0  0  0  0  0999 V2000
   -0.3880   19.4080  -34.5850 C   0  0  0  0  0  0  0  0  0  0  0  0
   -1.1820   20.0660  -33.4960 C   0  0  0  0  0  0  0  0  0  0  0  0
   -0.9920   19.6920  -32.1570 C   0  0  0  0  0  0  0  0  0  0  0  0
   -1.7580   20.2770  -31.1450 C   0  0  0  0  0  0  0  0  0  0  0  0
   -2.7360   21.2360  -31.4570 C   0  0  0  0  0  0  0  0  0  0  0  0
   -3.5700   21.8640  -30.3560 C   0  0  1  0  0  0  0  0  0  0  0  0
   -2.7780   22.9700  -29.6820 C   0  0  0  0  0  0  0  0  0  0  0  0
   -3.1130   24.3190  -29.8840 C   0  0  0  0  0  0  0  0  0  0  0  0
   -2.3460   25.2990  -29.3420 N   0  0  0  0  0  0  0  0  0  0  0  0
   -1.2570   25.0020  -28.5890 C   0  0  0  0  0  0  0  0  0  0  0  0
   -0.5620   25.9280  -28.0960 O   0  0  0  0  0  0  0  0  0  0  0  0
   -0.9160   23.7070  -28.3680 N   0  0  0  0  0  0  0  0  0  0  0  0
   -1.6460   22.6890  -28.8930 C   0  0  0  0  0  0  0  0  0  0  0  0
   -1.2960   21.5000  -28.6710 O   0  0  0  0  0  0  0  0  0  0  0  0
   -4.2440   24.6660  -30.6230 O   0  0  0  0  0  0  0  0  0  0  0  0
   -5.1560   23.7140  -31.0830 C   0  0  0  0  0  0  0  0  0  0  0  0
   -6.3380   24.1490  -31.6890 C   0  0  0  0  0  0  0  0  0  0  0  0
   -7.2900   23.2280  -32.1280 C   0  0  0  0  0  0  0  0  0  0  0  0
   -7.0660   21.8560  -31.9640 C   0  0  0  0  0  0  0  0  0  0  0  0
   -8.0100   20.9150  -32.3960 C   0  0  0  0  0  0  0  0  0  0  0  0
   -7.7580   19.5510  -32.2290 C   0  0  0  0  0  0  0  0  0  0  0  0
   -6.5660   19.1420  -31.6310 C   0  0  0  0  0  0  0  0  0  0  0  0
   -5.6580   20.0650  -31.2150 N   0  0  0  0  0  0  0  0  0  0  0  0
   -5.8690   21.4030  -31.3610 C   0  0  0  0  0  0  0  0  0  0  0  0
   -4.9020   22.3350  -30.9230 C   0  0  0  0  0  0  0  0  0  0  0  0
   -2.9360   21.5960  -32.8030 C   0  0  0  0  0  0  0  0  0  0  0  0
   -2.1690   21.0100  -33.8130 C   0  0  0  0  0  0  0  0  0  0  0  0
    0.3859   18.7666  -34.1382 H   0  0  0  0  0  0  0  0  0  0  0  0
   -1.0569   18.7958  -35.2078 H   0  0  0  0  0  0  0  0  0  0  0  0
    0.0893   20.1789  -35.2078 H   0  0  0  0  0  0  0  0  0  0  0  0
   -0.2362   18.9344  -31.9025 H   0  0  0  0  0  0  0  0  0  0  0  0
   -1.5941   19.9846  -30.0973 H   0  0  0  0  0  0  0  0  0  0  0  0
   -3.8035   21.1220  -29.5782 H   0  0  0  0  0  0  0  0  0  0  0  0
   -6.5192   25.2259  -31.8209 H   0  0  0  0  0  0  0  0  0  0  0  0
   -8.2173   23.5805  -32.6033 H   0  0  0  0  0  0  0  0  0  0  0  0
   -8.9470   21.2493  -32.8654 H   0  0  0  0  0  0  0  0  0  0  0  0
   -8.4935   18.8058  -32.5663 H   0  0  0  0  0  0  0  0  0  0  0  0
   -6.3599   18.0700  -31.4955 H   0  0  0  0  0  0  0  0  0  0  0  0
   -3.7008   22.3432  -33.0612 H   0  0  0  0  0  0  0  0  0  0  0  0
   -2.3404   21.2908  -34.8627 H   0  0  0  0  0  0  0  0  0  0  0  0
  1  2  1  0
  2  3  2  0
  3  4  1  0
  4  5  2  0
  5  6  1  0
  6  7  1  0
  7  8  2  0
  8  9  1  0
  9 10  1  0
 10 11  2  0
 10 12  1  0
 12 13  1  0
 13 14  2  0
  8 15  1  0
 15 16  1  0
 16 17  2  0
 17 18  1  0
 18 19  2  0
 19 20  1  0
 20 21  2  0
 21 22  1  0
 22 23  2  0
 23 24  1  0
 24 25  2  0
  5 26  1  0
 26 27  2  0
 27  2  1  0
 25  6  1  0
 13  7  1  0
 25 16  1  0
 24 19  1  0
  1 28  1  0
  1 29  1  0
  1 30  1  0
  3 31  1  0
  4 32  1  0
  6 33  1  1
 17 34  1  0
 18 35  1  0
 20 36  1  0
 21 37  1  0
 22 38  1  0
 26 39  1  0
 27 40  1  0
M  CHG  2   9  -1  12  -1
M  END
>  <UniqueID>  (7) 
7

>  <SMILES>  (7) 
Cc1ccc([C@H]2c3c([n-]c(=O)[n-]c3=O)Oc3ccc4cccnc4c32)cc1

>  <Energy>  (7) 
55.046224610806334

>  <Genealogy>  (7) 
Cc1ccc(C2c3c([n-]c(=O)[n-]c3=O)Oc3ccc4cccnc4c32)cc1 (protonated)
Cc1ccc([C@H]2c3c([n-]c(=O)[n-]c3=O)Oc3ccc4cccnc4c32)cc1 (chirality)
Cc1ccc([C@H]2c3c([n-]c(=O)[n-]c3=O)Oc3ccc4cccnc4c32)cc1 (3D coordinates assigned)
Cc1ccc([C@H]2c3c([n-]c(=O)[n-]c3=O)Oc3ccc4cccnc4c32)cc1 (nonaromatic ring conformer: 55.046224610806334 kcal/mol)

>  <smiles>  (7) 
Cc1ccc(C2c3c([nH]c(=O)[nH]c3=O)Oc3ccc4cccnc4c32)cc1

>  <score_type>  (7) 
oracle

>  <origin>  (7) 
adg

>  <m_score__min__energy>  (7) 
-11.970000000000001

>  <m_primary>  (7) 
energy

$$$$
7:0
     RDKit          3D

 30 31  0  0  0  0  0  0  0  0999 V2000
   -5.1290   23.9260  -29.9150 C   0  0  0  0  0  0  0  0  0  0  0  0
   -4.9750   24.1600  -31.2980 O   0  0  0  0  0  0  0  0  0  0  0  0
   -5.1490   22.9570  -32.0210 C   0  0  0  0  0  0  0  0  0  0  0  0
   -6.5820   22.4910  -31.9370 C   0  0  0  0  0  0  0  0  0  0  0  0
   -7.6160   23.4370  -32.0320 C   0  0  0  0  0  0  0  0  0  0  0  0
   -8.9510   23.0340  -31.9710 C   0  0  0  0  0  0  0  0  0  0  0  0
   -9.2680   21.6820  -31.8300 C   0  0  0  0  0  0  0  0  0  0  0  0
   -8.2530   20.7250  -31.7450 C   0  0  0  0  0  0  0  0  0  0  0  0
   -8.7390   18.8770  -31.6280 Br  0  0  0  0  0  0  0  0  0  0  0  0
   -6.9030   21.1260  -31.7890 C   0  0  0  0  0  0  0  0  0  0  0  0
   -5.8780   20.1750  -31.7140 O   0  0  0  0  0  0  0  0  0  0  0  0
   -5.5100   19.3280  -32.7700 C   0  0  0  0  0  0  0  0  0  0  0  0
   -4.3870   18.4850  -32.7050 C   0  0  0  0  0  0  0  0  0  0  0  0
   -4.0680   17.6670  -33.7910 C   0  0  0  0  0  0  0  0  0  0  0  0
   -4.8680   17.7040  -34.9340 C   0  0  0  0  0  0  0  0  0  0  0  0
   -5.9460   18.5320  -34.9870 N   0  0  0  0  0  0  0  0  0  0  0  0
   -6.2770   19.3370  -33.9400 C   0  0  0  0  0  0  0  0  0  0  0  0
   -4.6102   24.7143  -29.3498 H   0  0  0  0  0  0  0  0  0  0  0  0
   -6.1987   23.9344  -29.6586 H   0  0  0  0  0  0  0  0  0  0  0  0
   -4.6982   22.9469  -29.6586 H   0  0  0  0  0  0  0  0  0  0  0  0
   -4.8851   23.1271  -33.0752 H   0  0  0  0  0  0  0  0  0  0  0  0
   -4.4980   22.1841  -31.5865 H   0  0  0  0  0  0  0  0  0  0  0  0
   -7.3720   24.5025  -32.1553 H   0  0  0  0  0  0  0  0  0  0  0  0
   -9.7543   23.7828  -32.0341 H   0  0  0  0  0  0  0  0  0  0  0  0
  -10.3214   21.3683  -31.7856 H   0  0  0  0  0  0  0  0  0  0  0  0
   -3.7609   18.4697  -31.8007 H   0  0  0  0  0  0  0  0  0  0  0  0
   -3.1945   16.9999  -33.7460 H   0  0  0  0  0  0  0  0  0  0  0  0
   -4.6263   17.0621  -35.7940 H   0  0  0  0  0  0  0  0  0  0  0  0
   -6.5340   18.5500  -35.8510 H   0  0  0  0  0  0  0  0  0  0  0  0
   -7.1528   19.9984  -34.0145 H   0  0  0  0  0  0  0  0  0  0  0  0
  1  2  1  0
  2  3  1  0
  3  4  1  0
  4  5  2  0
  5  6  1  0
  6  7  2  0
  7  8  1  0
  8  9  1  0
  8 10  2  0
 10 11  1  0
 11 12  1  0
 12 13  2  0
 13 14  1  0
 14 15  2  0
 15 16  1  0
 16 17  2  0
 10  4  1  0
 17 12  1  0
  1 18  1  0
  1 19  1  0
  1 20  1  0
  3 21  1  0
  3 22  1  0
  5 23  1  0
  6 24  1  0
  7 25  1  0
 13 26  1  0
 14 27  1  0
 15 28  1  0
 16 29  1  0
 17 30  1  0
M  CHG  1  16   1
M  END
>  <UniqueID>  (8) 
8

>  <SMILES>  (8) 
COCc1cccc(Br)c1Oc1ccc[nH+]c1

>  <Energy>  (8) 
40.807605086974

>  <Genealogy>  (8) 
COCc1cccc(Br)c1Oc1ccc[nH+]c1 (protonated)
COCc1cccc(Br)c1Oc1ccc[nH+]c1 (3D coordinates assigned)
COCc1cccc(Br)c1Oc1ccc[nH+]c1 (optimized conformer: 40.807605086974 kcal/mol)

>  <smiles>  (8) 
COCc1cccc(Br)c1Oc1cccnc1

>  <score_type>  (8) 
oracle

>  <origin>  (8) 
adg

>  <m_score__min__energy>  (8) 
-6.4400000000000004

>  <m_primary>  (8) 
energy

$$$$
8:0
     RDKit          3D

 55 56  0  0  0  0  0  0  0  0999 V2000
   -4.1900   23.8150  -28.1760 C   0  0  0  0  0  0  0  0  0  0  0  0
   -3.8460   23.7270  -29.6630 C   0  0  0  0  0  0  0  0  0  0  0  0
   -4.3820   24.9220  -30.4660 C   0  0  0  0  0  0  0  0  0  0  0  0
   -5.7620   25.3890  -29.9710 C   0  0  0  0  0  0  0  0  0  0  0  0
   -6.8710   24.3580  -30.2500 C   0  0  0  0  0  0  0  0  0  0  0  0
   -6.8750   23.8050  -31.6860 C   0  0  0  0  0  0  0  0  0  0  0  0
   -7.5780   22.4700  -31.7880 C   0  0  0  0  0  0  0  0  0  0  0  0
   -8.9770   22.4320  -31.9150 C   0  0  0  0  0  0  0  0  0  0  0  0
   -9.6490   21.2110  -31.9810 C   0  0  0  0  0  0  0  0  0  0  0  0
   -8.9330   20.0160  -31.9180 C   0  0  0  0  0  0  0  0  0  0  0  0
   -7.5430   20.0360  -31.7900 C   0  0  0  0  0  0  0  0  0  0  0  0
   -6.8490   21.2630  -31.7240 C   0  0  0  0  0  0  0  0  0  0  0  0
   -5.4490   21.3250  -31.5890 O   0  0  0  0  0  0  0  0  0  0  0  0
   -4.5360   21.8260  -32.5640 C   0  0  0  0  0  0  0  0  0  0  0  0
   -4.0140   20.6830  -33.4530 C   0  0  0  0  0  0  0  0  0  0  0  0
   -4.6900   19.3920  -33.1650 N   0  0  0  0  0  0  0  0  0  0  0  0
   -3.7160   18.2680  -33.0400 C   0  0  0  0  0  0  0  0  0  0  0  0
   -3.6360   17.4050  -34.3120 C   0  0  0  0  0  0  0  0  0  0  0  0
   -4.9510   16.8290  -34.6880 N   0  0  0  0  0  0  0  0  0  0  0  0
   -5.0860   15.4420  -34.2160 C   0  0  0  0  0  0  0  0  0  0  0  0
   -6.1040   17.6440  -34.2400 C   0  0  0  0  0  0  0  0  0  0  0  0
   -5.7400   19.1320  -34.1840 C   0  0  0  0  0  0  0  0  0  0  0  0
   -3.2952   23.5861  -27.5785 H   0  0  0  0  0  0  0  0  0  0  0  0
   -4.5385   24.8312  -27.9398 H   0  0  0  0  0  0  0  0  0  0  0  0
   -4.9837   23.0910  -27.9398 H   0  0  0  0  0  0  0  0  0  0  0  0
   -2.7517   23.6933  -29.7699 H   0  0  0  0  0  0  0  0  0  0  0  0
   -4.3212   22.8184  -30.0613 H   0  0  0  0  0  0  0  0  0  0  0  0
   -3.6721   25.7571  -30.3731 H   0  0  0  0  0  0  0  0  0  0  0  0
   -4.4917   24.6011  -31.5124 H   0  0  0  0  0  0  0  0  0  0  0  0
   -5.7070   25.5624  -28.8862 H   0  0  0  0  0  0  0  0  0  0  0  0
   -6.0177   26.3093  -30.5165 H   0  0  0  0  0  0  0  0  0  0  0  0
   -6.7395   23.5144  -29.5564 H   0  0  0  0  0  0  0  0  0  0  0  0
   -7.8290   24.8805  -30.1111 H   0  0  0  0  0  0  0  0  0  0  0  0
   -7.3879   24.5252  -32.3404 H   0  0  0  0  0  0  0  0  0  0  0  0
   -5.8286   23.6571  -31.9912 H   0  0  0  0  0  0  0  0  0  0  0  0
   -9.5465   23.3719  -31.9627 H   0  0  0  0  0  0  0  0  0  0  0  0
  -10.7441   21.1910  -32.0828 H   0  0  0  0  0  0  0  0  0  0  0  0
   -9.4651   19.0546  -31.9693 H   0  0  0  0  0  0  0  0  0  0  0  0
   -6.9851   19.0893  -31.7403 H   0  0  0  0  0  0  0  0  0  0  0  0
   -5.0496   22.5679  -33.1931 H   0  0  0  0  0  0  0  0  0  0  0  0
   -3.6839   22.2913  -32.0468 H   0  0  0  0  0  0  0  0  0  0  0  0
   -4.1883   20.9464  -34.5067 H   0  0  0  0  0  0  0  0  0  0  0  0
   -2.9417   20.5559  -33.2431 H   0  0  0  0  0  0  0  0  0  0  0  0
   -5.1860   19.4830  -32.2450 H   0  0  0  0  0  0  0  0  0  0  0  0
   -2.7196   18.6872  -32.8362 H   0  0  0  0  0  0  0  0  0  0  0  0
   -4.0609   17.6200  -32.2208 H   0  0  0  0  0  0  0  0  0  0  0  0
   -3.2742   18.0306  -35.1413 H   0  0  0  0  0  0  0  0  0  0  0  0
   -2.9497   16.5698  -34.1083 H   0  0  0  0  0  0  0  0  0  0  0  0
   -5.0874   15.4275  -33.1161 H   0  0  0  0  0  0  0  0  0  0  0  0
   -6.0297   15.0178  -34.5895 H   0  0  0  0  0  0  0  0  0  0  0  0
   -4.2418   14.8438  -34.5895 H   0  0  0  0  0  0  0  0  0  0  0  0
   -6.9376   17.5044  -34.9440 H   0  0  0  0  0  0  0  0  0  0  0  0
   -6.3916   17.3166  -33.2300 H   0  0  0  0  0  0  0  0  0  0  0  0
   -5.3685   19.4476  -35.1701 H   0  0  0  0  0  0  0  0  0  0  0  0
   -6.6406   19.7000  -33.9079 H   0  0  0  0  0  0  0  0  0  0  0  0
  1  2  1  0
  2  3  1  0
  3  4  1  0
  4  5  1  0
  5  6  1  0
  6  7  1  0
  7  8  2  0
  8  9  1  0
  9 10  2  0
 10 11  1  0
 11 12  2  0
 12 13  1  0
 13 14  1  0
 14 15  1  0
 15 16  1  0
 16 17  1  0
 17 18  1  0
 18 19  1  0
 19 20  1  0
 19 21  1  0
 21 22  1  0
 12  7  1  0
 22 16  1  0
  1 23  1  0
  1 24  1  0
  1 25  1  0
  2 26  1  0
  2 27  1  0
  3 28  1  0
  3 29  1  0
  4 30  1  0
  4 31  1  0
  5 32  1  0
  5 33  1  0
  6 34  1  0
  6 35  1  0
  8 36  1  0
  9 37  1  0
 10 38  1  0
 11 39  1  0
 14 40  1  0
 14 41  1  0
 15 42  1  0
 15 43  1  0
 16 44  1  0
 17 45  1  0
 17 46  1  0
 18 47  1  0
 18 48  1  0
 20 49  1  0
 20 50  1  0
 20 51  1  0
 21 52  1  0
 21 53  1  0
 22 54  1  0
 22 55  1  0
M  CHG  1  16   1
M  END
>  <UniqueID>  (9) 
9

>  <SMILES>  (9) 
CCCCCCc1ccccc1OCC[NH+]1CCN(C)CC1

>  <Energy>  (9) 
56.81896226818748

>  <Genealogy>  (9) 
CCCCCCc1ccccc1OCC[NH+]1CCN(C)CC1 (protonated)
CCCCCCc1ccccc1OCC[NH+]1CCN(C)CC1 (3D coordinates assigned)
CCCCCCc1ccccc1OCC[NH+]1CCN(C)CC1 (nonaromatic ring conformer: 56.81896226818748 kcal/mol)

>  <smiles>  (9) 
CCCCCCc1ccccc1OCCN1CCN(C)CC1

>  <score_type>  (9) 
oracle

>  <origin>  (9) 
adg

>  <m_score__min__energy>  (9) 
-6.2999999999999998

>  <m_primary>  (9) 
energy

$$$$
9:0
     RDKit          3D

 22 23  0  0  0  0  0  0  0  0999 V2000
   -8.1900   19.4680  -32.0870 C   0  0  0  0  0  0  0  0  0  0  0  0
   -7.7150   20.6500  -32.7230 O   0  0  0  0  0  0  0  0  0  0  0  0
   -6.4310   21.1960  -32.5460 C   0  0  0  0  0  0  0  0  0  0  0  0
   -5.2920   20.5770  -33.0970 C   0  0  0  0  0  0  0  0  0  0  0  0
   -4.0260   21.1290  -32.9130 C   0  0  0  0  0  0  0  0  0  0  0  0
   -3.8700   22.3030  -32.1810 C   0  0  0  0  0  0  0  0  0  0  0  0
   -4.9880   22.9420  -31.6210 C   0  0  0  0  0  0  0  0  0  0  0  0
   -6.2780   22.3910  -31.8010 C   0  0  0  0  0  0  0  0  0  0  0  0
   -7.4400   23.0970  -31.1910 C   0  0  0  0  0  0  0  0  0  0  0  0
   -8.6130   22.6550  -31.3170 O   0  0  0  0  0  0  0  0  0  0  0  0
   -7.2310   24.3390  -30.4240 C   0  0  0  0  0  0  0  0  0  0  0  0
   -6.0090   24.8510  -30.2600 C   0  0  0  0  0  0  0  0  0  0  0  0
   -4.8280   24.1930  -30.8400 C   0  0  0  0  0  0  0  0  0  0  0  0
   -3.6890   24.7040  -30.6660 O   0  0  0  0  0  0  0  0  0  0  0  0
   -8.1396   19.5935  -30.9953 H   0  0  0  0  0  0  0  0  0  0  0  0
   -9.2321   19.2836  -32.3872 H   0  0  0  0  0  0  0  0  0  0  0  0
   -7.5653   18.6138  -32.3872 H   0  0  0  0  0  0  0  0  0  0  0  0
   -5.4030   19.6494  -33.6778 H   0  0  0  0  0  0  0  0  0  0  0  0
   -3.1451   20.6346  -33.3484 H   0  0  0  0  0  0  0  0  0  0  0  0
   -2.8668   22.7318  -32.0408 H   0  0  0  0  0  0  0  0  0  0  0  0
   -8.0965   24.8522  -29.9795 H   0  0  0  0  0  0  0  0  0  0  0  0
   -5.8833   25.7788  -29.6825 H   0  0  0  0  0  0  0  0  0  0  0  0
  1  2  1  0
  2  3  1  0
  3  4  2  0
  4  5  1  0
  5  6  2  0
  6  7  1  0
  7  8  2  0
  8  9  1  0
  9 10  2  0
  9 11  1  0
 11 12  2  0
 12 13  1  0
 13 14  2  0
  8  3  1  0
 13  7  1  0
  1 15  1  0
  1 16  1  0
  1 17  1  0
  4 18  1  0
  5 19  1  0
  6 20  1  0
 11 21  1  0
 12 22  1  0
M  END
>  <UniqueID>  (10) 
10

>  <SMILES>  (10) 
COc1cccc2c1C(=O)C=CC2=O

>  <Energy>  (10) 
24.45895559936906

>  <Genealogy>  (10) 
COc1cccc2c1C(=O)C=CC2=O (3D coordinates assigned)
COc1cccc2c1C(=O)C=CC2=O (nonaromatic ring conformer: 24.45895559936906 kcal/mol)

>  <smiles>  (10) 
COc1cccc2c1C(=O)C=CC2=O

>  <score_type>  (10) 
oracle

>  <origin>  (10) 
adg

>  <m_score__min__energy>  (10) 
-6.1399999999999997

>  <m_primary>  (10) 
energy

$$$$
10:0
     RDKit          3D

 35 37  0  0  0  0  0  0  0  0999 V2000
   -4.2250   23.4900  -30.3310 C   0  0  0  0  0  0  0  0  0  0  0  0
   -3.9350   22.7370  -31.2260 C   0  0  0  0  0  0  0  0  0  0  0  0
   -3.5730   21.8170  -32.3150 C   0  0  0  0  0  0  0  0  0  0  0  0
   -4.5910   21.8000  -33.3820 N   0  0  0  0  0  0  0  0  0  0  0  0
   -5.6830   20.8800  -33.0790 C   0  0  0  0  0  0  0  0  0  0  0  0
   -5.5610   19.4830  -33.3300 C   0  0  0  0  0  0  0  0  0  0  0  0
   -4.3710   18.9060  -33.8470 C   0  0  0  0  0  0  0  0  0  0  0  0
   -4.3020   17.5530  -34.1650 C   0  0  0  0  0  0  0  0  0  0  0  0
   -5.4080   16.7380  -33.9870 C   0  0  0  0  0  0  0  0  0  0  0  0
   -6.5770   17.2610  -33.4460 C   0  0  0  0  0  0  0  0  0  0  0  0
   -6.6670   18.6240  -33.0580 C   0  0  0  0  0  0  0  0  0  0  0  0
   -7.7990   19.1140  -32.4420 N   0  0  0  0  0  0  0  0  0  0  0  0
   -8.7930   18.1760  -31.8690 C   0  0  0  0  0  0  0  0  0  0  0  0
   -7.9880   20.4740  -32.3170 C   0  0  0  0  0  0  0  0  0  0  0  0
   -9.2490   21.0090  -31.9430 C   0  0  0  0  0  0  0  0  0  0  0  0
   -9.4220   22.3730  -31.7360 C   0  0  0  0  0  0  0  0  0  0  0  0
   -8.3550   23.2410  -31.9020 C   0  0  0  0  0  0  0  0  0  0  0  0
   -7.1190   22.7570  -32.3180 C   0  0  0  0  0  0  0  0  0  0  0  0
   -6.9180   21.3760  -32.5740 C   0  0  0  0  0  0  0  0  0  0  0  0
   -4.4897   24.1774  -29.5140 H   0  0  0  0  0  0  0  0  0  0  0  0
   -2.6122   22.1359  -32.7453 H   0  0  0  0  0  0  0  0  0  0  0  0
   -3.5024   20.8028  -31.8951 H   0  0  0  0  0  0  0  0  0  0  0  0
   -4.9650   22.7650  -33.5160 H   0  0  0  0  0  0  0  0  0  0  0  0
   -4.1440   21.6200  -34.3050 H   0  0  0  0  0  0  0  0  0  0  0  0
   -3.4860   19.5413  -33.9992 H   0  0  0  0  0  0  0  0  0  0  0  0
   -3.3664   17.1293  -34.5589 H   0  0  0  0  0  0  0  0  0  0  0  0
   -5.3613   15.6771  -34.2737 H   0  0  0  0  0  0  0  0  0  0  0  0
   -7.4505   16.6052  -33.3158 H   0  0  0  0  0  0  0  0  0  0  0  0
   -8.7473   18.2191  -30.7708 H   0  0  0  0  0  0  0  0  0  0  0  0
   -9.8012   18.4595  -32.2054 H   0  0  0  0  0  0  0  0  0  0  0  0
   -8.5683   17.1531  -32.2054 H   0  0  0  0  0  0  0  0  0  0  0  0
  -10.1057   20.3311  -31.8145 H   0  0  0  0  0  0  0  0  0  0  0  0
  -10.4070   22.7633  -31.4402 H   0  0  0  0  0  0  0  0  0  0  0  0
   -8.4855   24.3152  -31.7044 H   0  0  0  0  0  0  0  0  0  0  0  0
   -6.2818   23.4580  -32.4510 H   0  0  0  0  0  0  0  0  0  0  0  0
  1  2  3  0
  2  3  1  0
  3  4  1  0
  4  5  1  0
  5  6  2  0
  6  7  1  0
  7  8  2  0
  8  9  1  0
  9 10  2  0
 10 11  1  0
 11 12  2  0
 12 13  1  0
 12 14  1  0
 14 15  2  0
 15 16  1  0
 16 17  2  0
 17 18  1  0
 18 19  2  0
 19  5  1  0
 11  6  1  0
 19 14  1  0
  1 20  1  0
  3 21  1  0
  3 22  1  0
  4 23  1  0
  4 24  1  0
  7 25  1  0
  8 26  1  0
  9 27  1  0
 10 28  1  0
 13 29  1  0
 13 30  1  0
 13 31  1  0
 15 32  1  0
 16 33  1  0
 17 34  1  0
 18 35  1  0
M  CHG  2   4   1  12   1
M  END
>  <UniqueID>  (11) 
11

>  <SMILES>  (11) 
C#CC[NH2+]c1c2ccccc2[n+](C)c2ccccc12

>  <Energy>  (11) 
65.43299994187326

>  <Genealogy>  (11) 
C#CC[NH2+]c1c2ccccc2[n+](C)c2ccccc12 (protonated)
C#CC[NH2+]c1c2ccccc2[n+](C)c2ccccc12 (3D coordinates assigned)
C#CC[NH2+]c1c2ccccc2[n+](C)c2ccccc12 (optimized conformer: 65.43299994187326 kcal/mol)

>  <smiles>  (11) 
C#CCNc1c2ccccc2[n+](C)c2ccccc12

>  <score_type>  (11) 
oracle

>  <origin>  (11) 
adg

>  <m_score__min__energy>  (11) 
-6.7300000000000004

>  <m_primary>  (11) 
energy

$$$$
11:0
     RDKit          3D

 58 61  0  0  0  0  0  0  0  0999 V2000
    2.8670   18.9850  -35.2920 C   0  0  0  0  0  0  0  0  0  0  0  0
    2.7530   20.3220  -34.5690 C   0  0  0  0  0  0  0  0  0  0  0  0
    1.3460   20.6260  -34.2720 N   0  0  0  0  0  0  0  0  0  0  0  0
    0.6740   21.7000  -35.0150 C   0  0  0  0  0  0  0  0  0  0  0  0
    0.2080   21.1920  -36.3750 C   0  0  0  0  0  0  0  0  0  0  0  0
    0.7440   20.0540  -33.0910 C   0  0  0  0  0  0  0  0  0  0  0  0
    1.3870   20.0660  -32.0050 O   0  0  0  0  0  0  0  0  0  0  0  0
   -0.6330   19.4270  -33.1090 C   0  0  0  0  0  0  0  0  0  0  0  0
   -0.8370   18.5050  -34.3340 C   0  0  0  0  0  0  0  0  0  0  0  0
   -2.2250   17.8500  -34.2890 C   0  0  0  0  0  0  0  0  0  0  0  0
   -3.2700   18.8250  -33.9420 N   0  0  0  0  0  0  0  0  0  0  0  0
   -4.6040   18.3650  -33.6650 C   0  0  0  0  0  0  0  0  0  0  0  0
   -4.9890   17.0850  -33.9740 N   0  0  0  0  0  0  0  0  0  0  0  0
   -6.2640   16.6450  -33.7180 C   0  0  0  0  0  0  0  0  0  0  0  0
   -7.1820   17.4730  -33.1340 N   0  0  0  0  0  0  0  0  0  0  0  0
   -6.7950   18.7350  -32.8230 C   0  0  0  0  0  0  0  0  0  0  0  0
   -5.5480   19.1940  -33.0650 C   0  0  0  0  0  0  0  0  0  0  0  0
   -5.4110   20.4520  -32.6080 N   0  0  0  0  0  0  0  0  0  0  0  0
   -6.6400   20.7210  -32.0840 C   0  0  0  0  0  0  0  0  0  0  0  0
   -7.5160   19.6850  -32.2160 N   0  0  0  0  0  0  0  0  0  0  0  0
   -8.9100   19.6070  -31.7800 C   0  0  0  0  0  0  0  0  0  0  0  0
   -9.7350   20.7770  -32.3400 C   0  0  0  0  0  0  0  0  0  0  0  0
   -9.5230   22.1210  -31.6100 C   0  0  0  0  0  0  0  0  0  0  0  0
   -8.1860   22.7970  -31.9650 C   0  0  0  0  0  0  0  0  0  0  0  0
   -6.9480   22.0460  -31.4270 C   0  0  0  0  0  0  0  0  0  0  0  0
   -2.9500   20.2560  -33.8710 C   0  0  0  0  0  0  0  0  0  0  0  0
   -1.7500   20.4930  -32.9450 C   0  0  0  0  0  0  0  0  0  0  0  0
    2.9362   18.1732  -34.5529 H   0  0  0  0  0  0  0  0  0  0  0  0
    1.9786   18.8321  -35.9224 H   0  0  0  0  0  0  0  0  0  0  0  0
    3.7684   18.9848  -35.9224 H   0  0  0  0  0  0  0  0  0  0  0  0
    3.3200   20.2744  -33.6276 H   0  0  0  0  0  0  0  0  0  0  0  0
    3.1599   21.1131  -35.2159 H   0  0  0  0  0  0  0  0  0  0  0  0
   -0.1966   22.0489  -34.4403 H   0  0  0  0  0  0  0  0  0  0  0  0
    1.3825   22.5278  -35.1661 H   0  0  0  0  0  0  0  0  0  0  0  0
   -0.5294   20.3882  -36.2332 H   0  0  0  0  0  0  0  0  0  0  0  0
   -0.2533   22.0178  -36.9365 H   0  0  0  0  0  0  0  0  0  0  0  0
    1.0704   20.8035  -36.9365 H   0  0  0  0  0  0  0  0  0  0  0  0
   -0.7095   18.7695  -32.2305 H   0  0  0  0  0  0  0  0  0  0  0  0
   -0.7476   19.1008  -35.2543 H   0  0  0  0  0  0  0  0  0  0  0  0
   -0.0707   17.7161  -34.3169 H   0  0  0  0  0  0  0  0  0  0  0  0
   -2.4500   17.4211  -35.2766 H   0  0  0  0  0  0  0  0  0  0  0  0
   -2.2125   17.0676  -33.5159 H   0  0  0  0  0  0  0  0  0  0  0  0
   -4.3130   16.4310  -34.4280 H   0  0  0  0  0  0  0  0  0  0  0  0
   -6.5496   15.6169  -33.9852 H   0  0  0  0  0  0  0  0  0  0  0  0
   -9.3440   18.6603  -32.1341 H   0  0  0  0  0  0  0  0  0  0  0  0
   -8.9343   19.6586  -30.6815 H   0  0  0  0  0  0  0  0  0  0  0  0
   -9.4625   20.9140  -33.3969 H   0  0  0  0  0  0  0  0  0  0  0  0
  -10.7923   20.5087  -32.1981 H   0  0  0  0  0  0  0  0  0  0  0  0
  -10.3428   22.8013  -31.8840 H   0  0  0  0  0  0  0  0  0  0  0  0
   -9.5069   21.9090  -30.5307 H   0  0  0  0  0  0  0  0  0  0  0  0
   -8.1071   22.8564  -33.0606 H   0  0  0  0  0  0  0  0  0  0  0  0
   -8.1915   23.7891  -31.4900 H   0  0  0  0  0  0  0  0  0  0  0  0
   -6.0734   22.6995  -31.5611 H   0  0  0  0  0  0  0  0  0  0  0  0
   -7.1771   21.8103  -30.3773 H   0  0  0  0  0  0  0  0  0  0  0  0
   -2.7073   20.6231  -34.8791 H   0  0  0  0  0  0  0  0  0  0  0  0
   -3.8207   20.7958  -33.4702 H   0  0  0  0  0  0  0  0  0  0  0  0
   -1.3250   21.4825  -33.1693 H   0  0  0  0  0  0  0  0  0  0  0  0
   -2.1167   20.4267  -31.9101 H   0  0  0  0  0  0  0  0  0  0  0  0
  1  2  1  0
  2  3  1  0
  3  4  1  0
  4  5  1  0
  3  6  1  0
  6  7  2  0
  6  8  1  0
  8  9  1  0
  9 10  1  0
 10 11  1  0
 11 12  1  0
 12 13  2  0
 13 14  1  0
 14 15  2  0
 15 16  1  0
 16 17  2  0
 17 18  1  0
 18 19  2  0
 19 20  1  0
 20 21  1  0
 21 22  1  0
 22 23  1  0
 23 24  1  0
 24 25  1  0
 11 26  1  0
 26 27  1  0
 27  8  1  0
 17 12  1  0
 25 19  1  0
 20 16  1  0
  1 28  1  0
  1 29  1  0
  1 30  1  0
  2 31  1  0
  2 32  1  0
  4 33  1  0
  4 34  1  0
  5 35  1  0
  5 36  1  0
  5 37  1  0
  8 38  1  0
  9 39  1  0
  9 40  1  0
 10 41  1  0
 10 42  1  0
 13 43  1  0
 14 44  1  0
 21 45  1  0
 21 46  1  0
 22 47  1  0
 22 48  1  0
 23 49  1  0
 23 50  1  0
 24 51  1  0
 24 52  1  0
 25 53  1  0
 25 54  1  0
 26 55  1  0
 26 56  1  0
 27 57  1  0
 27 58  1  0
M  CHG  1  13   1
M  END
>  <UniqueID>  (12) 
12

>  <SMILES>  (12) 
CCN(CC)C(=O)C1CCN(c2[nH+]cnc3c2nc2n3CCCCC2)CC1

>  <Energy>  (12) 
105.94819887095822

>  <Genealogy>  (12) 
CCN(CC)C(=O)C1CCN(c2[nH+]cnc3c2nc2n3CCCCC2)CC1 (protonated)
CCN(CC)C(=O)C1CCN(c2[nH+]cnc3c2nc2n3CCCCC2)CC1 (3D coordinates assigned)
CCN(CC)C(=O)C1CCN(c2[nH+]cnc3c2nc2n3CCCCC2)CC1 (nonaromatic ring conformer: 105.94819887095822 kcal/mol)

>  <smiles>  (12) 
CCN(CC)C(=O)C1CCN(c2ncnc3c2nc2n3CCCCC2)CC1

>  <score_type>  (12) 
oracle

>  <origin>  (12) 
adg

>  <m_score__min__energy>  (12) 
-5.8700000000000001

>  <m_primary>  (12) 
energy

$$$$
12:0
     RDKit          3D

 45 46  0  0  0  0  0  0  0  0999 V2000
   -3.7090   24.4600  -29.8140 C   0  0  0  0  0  0  0  0  0  0  0  0
   -5.2040   24.4380  -29.4800 C   0  0  0  0  0  0  0  0  0  0  0  0
   -5.9720   23.5570  -30.3740 N   0  0  0  0  0  0  0  0  0  0  0  0
   -7.2310   24.1670  -30.8280 C   0  0  0  0  0  0  0  0  0  0  0  0
   -7.8560   23.2810  -31.9160 C   0  0  0  0  0  0  0  0  0  0  0  0
   -6.9250   22.2540  -32.4250 N   0  0  0  0  0  0  0  0  0  0  0  0
   -7.3690   20.8660  -32.3690 C   0  0  0  0  0  0  0  0  0  0  0  0
   -8.5440   20.4790  -31.6740 C   0  0  0  0  0  0  0  0  0  0  0  0
   -8.9460   19.1440  -31.6290 C   0  0  0  0  0  0  0  0  0  0  0  0
   -8.1750   18.1590  -32.2390 C   0  0  0  0  0  0  0  0  0  0  0  0
   -6.9810   18.4980  -32.8670 C   0  0  0  0  0  0  0  0  0  0  0  0
   -6.5470   19.8350  -32.9170 C   0  0  0  0  0  0  0  0  0  0  0  0
   -5.1850   20.1080  -33.5180 C   0  0  0  0  0  0  0  0  0  0  0  0
   -4.2700   21.3030  -32.5580 S   0  0  0  0  0  0  0  0  0  0  0  0
   -4.7150   21.2470  -31.1250 O   0  0  0  0  0  0  0  0  0  0  0  0
   -4.5670   22.6750  -33.0890 O   0  0  0  0  0  0  0  0  0  0  0  0
   -2.5370   21.0110  -32.6460 C   0  0  0  0  0  0  0  0  0  0  0  0
   -1.9580   20.5600  -33.8430 C   0  0  0  0  0  0  0  0  0  0  0  0
   -0.5750   20.3760  -33.9280 C   0  0  0  0  0  0  0  0  0  0  0  0
    0.2350   20.6380  -32.8190 C   0  0  0  0  0  0  0  0  0  0  0  0
   -0.3400   21.0660  -31.6160 C   0  0  0  0  0  0  0  0  0  0  0  0
   -1.7230   21.2490  -31.5280 C   0  0  0  0  0  0  0  0  0  0  0  0
   -3.1251   24.4686  -28.8818 H   0  0  0  0  0  0  0  0  0  0  0  0
   -3.4510   23.5656  -30.4000 H   0  0  0  0  0  0  0  0  0  0  0  0
   -3.4774   25.3616  -30.4000 H   0  0  0  0  0  0  0  0  0  0  0  0
   -5.3285   24.0849  -28.4457 H   0  0  0  0  0  0  0  0  0  0  0  0
   -5.5888   25.4603  -29.6096 H   0  0  0  0  0  0  0  0  0  0  0  0
   -5.3860   23.3180  -31.2110 H   0  0  0  0  0  0  0  0  0  0  0  0
   -7.9255   24.2531  -29.9793 H   0  0  0  0  0  0  0  0  0  0  0  0
   -7.0311   25.1688  -31.2359 H   0  0  0  0  0  0  0  0  0  0  0  0
   -8.7383   22.7771  -31.4945 H   0  0  0  0  0  0  0  0  0  0  0  0
   -8.1221   23.9334  -32.7607 H   0  0  0  0  0  0  0  0  0  0  0  0
   -6.7110   22.5090  -33.4160 H   0  0  0  0  0  0  0  0  0  0  0  0
   -6.0390   22.3250  -31.8720 H   0  0  0  0  0  0  0  0  0  0  0  0
   -9.1473   21.2436  -31.1627 H   0  0  0  0  0  0  0  0  0  0  0  0
   -9.8757   18.8688  -31.1095 H   0  0  0  0  0  0  0  0  0  0  0  0
   -8.5101   17.1114  -32.2245 H   0  0  0  0  0  0  0  0  0  0  0  0
   -6.3685   17.7105  -33.3304 H   0  0  0  0  0  0  0  0  0  0  0  0
   -4.6156   19.1675  -33.5536 H   0  0  0  0  0  0  0  0  0  0  0  0
   -5.3309   20.5177  -34.5284 H   0  0  0  0  0  0  0  0  0  0  0  0
   -2.5941   20.3510  -34.7157 H   0  0  0  0  0  0  0  0  0  0  0  0
   -0.1238   20.0249  -34.8678 H   0  0  0  0  0  0  0  0  0  0  0  0
    1.3249   20.5078  -32.8915 H   0  0  0  0  0  0  0  0  0  0  0  0
    0.2969   21.2583  -30.7400 H   0  0  0  0  0  0  0  0  0  0  0  0
   -2.1740   21.5801  -30.5809 H   0  0  0  0  0  0  0  0  0  0  0  0
  1  2  1  0
  2  3  1  0
  3  4  1  0
  4  5  1  0
  5  6  1  0
  6  7  1  0
  7  8  2  0
  8  9  1  0
  9 10  2  0
 10 11  1  0
 11 12  2  0
 12 13  1  0
 13 14  1  0
 14 15  2  0
 14 16  2  0
 14 17  1  0
 17 18  2  0
 18 19  1  0
 19 20  2  0
 20 21  1  0
 21 22  2  0
 12  7  1  0
 22 17  1  0
  1 23  1  0
  1 24  1  0
  1 25  1  0
  2 26  1  0
  2 27  1  0
  3 28  1  0
  4 29  1  0
  4 30  1  0
  5 31  1  0
  5 32  1  0
  6 33  1  0
  6 34  1  0
  8 35  1  0
  9 36  1  0
 10 37  1  0
 11 38  1  0
 13 39  1  0
 13 40  1  0
 18 41  1  0
 19 42  1  0
 20 43  1  0
 21 44  1  0
 22 45  1  0
M  CHG  1   6   1
M  END
>  <UniqueID>  (13) 
13

>  <SMILES>  (13) 
CCNCC[NH2+]c1ccccc1CS(=O)(=O)c1ccccc1

>  <Energy>  (13) 
43.8833280359244

>  <Genealogy>  (13) 
CCNCC[NH2+]c1ccccc1CS(=O)(=O)c1ccccc1 (protonated)
CCNCC[NH2+]c1ccccc1CS(=O)(=O)c1ccccc1 (3D coordinates assigned)
CCNCC[NH2+]c1ccccc1CS(=O)(=O)c1ccccc1 (optimized conformer: 43.8833280359244 kcal/mol)

>  <smiles>  (13) 
CCNCCNc1ccccc1CS(=O)(=O)c1ccccc1

>  <score_type>  (13) 
oracle

>  <origin>  (13) 
adg

>  <m_score__min__energy>  (13) 
-6.8499999999999996

>  <m_primary>  (13) 
energy

$$$$
13:0
     RDKit          3D

 36 38  0  0  0  0  0  0  0  0999 V2000
   -4.1010   20.4200  -33.1040 C   0  0  0  0  0  0  0  0  0  0  0  0
   -4.9790   20.2370  -31.9980 O   0  0  0  0  0  0  0  0  0  0  0  0
   -6.3570   19.9870  -32.1000 C   0  0  0  0  0  0  0  0  0  0  0  0
   -6.8440   18.7930  -32.6720 C   0  0  0  0  0  0  0  0  0  0  0  0
   -8.2150   18.5380  -32.7230 C   0  0  0  0  0  0  0  0  0  0  0  0
   -9.1170   19.4630  -32.2050 C   0  0  0  0  0  0  0  0  0  0  0  0
   -8.6540   20.6530  -31.6430 C   0  0  0  0  0  0  0  0  0  0  0  0
   -7.2780   20.9370  -31.5980 C   0  0  0  0  0  0  0  0  0  0  0  0
   -6.8450   22.2240  -31.0010 C   0  0  0  0  0  0  0  0  0  0  0  0
   -5.7640   23.0130  -31.3680 C   0  0  0  0  0  0  0  0  0  0  0  0
   -5.8310   24.0920  -30.5090 C   0  0  0  0  0  0  0  0  0  0  0  0
   -4.9270   25.2580  -30.5100 C   0  0  0  0  0  0  0  0  0  0  0  0
   -5.4170   26.4160  -30.4730 O   0  0  0  0  0  0  0  0  0  0  0  0
   -3.5010   25.1110  -30.4960 N   0  0  0  0  0  0  0  0  0  0  0  0
   -2.7560   24.1790  -29.6990 C   0  0  0  0  0  0  0  0  0  0  0  0
   -2.3100   24.5040  -28.4050 C   0  0  0  0  0  0  0  0  0  0  0  0
   -1.6040   23.5640  -27.6470 C   0  0  0  0  0  0  0  0  0  0  0  0
   -1.3540   22.2910  -28.1680 C   0  0  0  0  0  0  0  0  0  0  0  0
   -1.8150   21.9550  -29.4430 C   0  0  0  0  0  0  0  0  0  0  0  0
   -2.5200   22.8930  -30.2030 C   0  0  0  0  0  0  0  0  0  0  0  0
   -6.9010   23.9410  -29.7060 N   0  0  0  0  0  0  0  0  0  0  0  0
   -7.4850   22.8240  -30.0220 O   0  0  0  0  0  0  0  0  0  0  0  0
   -3.0863   20.6315  -32.7356 H   0  0  0  0  0  0  0  0  0  0  0  0
   -4.0859   19.5057  -33.7154 H   0  0  0  0  0  0  0  0  0  0  0  0
   -4.4525   21.2642  -33.7154 H   0  0  0  0  0  0  0  0  0  0  0  0
   -6.1369   18.0566  -33.0814 H   0  0  0  0  0  0  0  0  0  0  0  0
   -8.5835   17.6045  -33.1733 H   0  0  0  0  0  0  0  0  0  0  0  0
  -10.1967   19.2554  -32.2388 H   0  0  0  0  0  0  0  0  0  0  0  0
   -9.3730   21.3764  -31.2309 H   0  0  0  0  0  0  0  0  0  0  0  0
   -5.0247   22.8228  -32.1600 H   0  0  0  0  0  0  0  0  0  0  0  0
   -2.5171   25.5006  -27.9879 H   0  0  0  0  0  0  0  0  0  0  0  0
   -1.2454   23.8265  -26.6408 H   0  0  0  0  0  0  0  0  0  0  0  0
   -0.7941   21.5538  -27.5737 H   0  0  0  0  0  0  0  0  0  0  0  0
   -1.6231   20.9511  -29.8496 H   0  0  0  0  0  0  0  0  0  0  0  0
   -2.8914   22.6201  -31.2018 H   0  0  0  0  0  0  0  0  0  0  0  0
   -7.2440   24.6030  -28.9760 H   0  0  0  0  0  0  0  0  0  0  0  0
  1  2  1  0
  2  3  1  0
  3  4  2  0
  4  5  1  0
  5  6  2  0
  6  7  1  0
  7  8  2  0
  8  9  1  0
  9 10  2  0
 10 11  1  0
 11 12  1  0
 12 13  2  0
 12 14  1  0
 14 15  1  0
 15 16  2  0
 16 17  1  0
 17 18  2  0
 18 19  1  0
 19 20  2  0
 11 21  2  0
 21 22  1  0
  8  3  1  0
 22  9  1  0
 20 15  1  0
  1 23  1  0
  1 24  1  0
  1 25  1  0
  4 26  1  0
  5 27  1  0
  6 28  1  0
  7 29  1  0
 10 30  1  0
 16 31  1  0
 17 32  1  0
 18 33  1  0
 19 34  1  0
 20 35  1  0
 21 36  1  0
M  CHG  2  14  -1  21   1
M  END
>  <UniqueID>  (14) 
14

>  <SMILES>  (14) 
COc1ccccc1-c1cc(C(=O)[N-]c2ccccc2)[nH+]o1

>  <Energy>  (14) 
77.7007400546271

>  <Genealogy>  (14) 
COc1ccccc1-c1cc(C(=O)[N-]c2ccccc2)[nH+]o1 (protonated)
COc1ccccc1-c1cc(C(=O)[N-]c2ccccc2)[nH+]o1 (3D coordinates assigned)
COc1ccccc1-c1cc(C(=O)[N-]c2ccccc2)[nH+]o1 (optimized conformer: 77.7007400546271 kcal/mol)

>  <smiles>  (14) 
COc1ccccc1-c1cc(C(=O)Nc2ccccc2)no1

>  <score_type>  (14) 
oracle

>  <origin>  (14) 
adg

>  <m_score__min__energy>  (14) 
-9.0399999999999991

>  <m_primary>  (14) 
energy

$$$$
14:0
     RDKit          3D

 48 51  0  0  0  0  0  0  0  0999 V2000
   -6.2180   16.9670  -34.0250 C   0  0  0  0  0  0  0  0  0  0  0  0
   -5.9540   18.3290  -33.5260 N   0  0  0  0  0  0  0  0  0  0  0  0
   -6.9580   19.1030  -32.9650 C   0  0  0  0  0  0  0  0  0  0  0  0
   -8.2500   18.5760  -32.7150 C   0  0  0  0  0  0  0  0  0  0  0  0
   -9.2520   19.3630  -32.1490 C   0  0  0  0  0  0  0  0  0  0  0  0
   -8.9940   20.6850  -31.7970 C   0  0  0  0  0  0  0  0  0  0  0  0
   -7.7300   21.2320  -32.0090 C   0  0  0  0  0  0  0  0  0  0  0  0
   -6.7040   20.4690  -32.6000 C   0  0  0  0  0  0  0  0  0  0  0  0
   -5.4150   21.0200  -32.7940 C   0  0  0  0  0  0  0  0  0  0  0  0
   -5.1530   22.4200  -32.6160 N   0  0  0  0  0  0  0  0  0  0  0  0
   -4.8760   22.9870  -31.2930 C   0  0  0  0  0  0  0  0  0  0  0  0
   -6.1450   23.5910  -30.6600 C   0  0  0  0  0  0  0  0  0  0  0  0
   -5.8770   24.2220  -29.3430 N   0  0  0  0  0  0  0  0  0  0  0  0
   -6.1520   25.6710  -29.3790 C   0  0  0  0  0  0  0  0  0  0  0  0
   -4.4760   23.9990  -28.9420 C   0  0  0  0  0  0  0  0  0  0  0  0
   -4.4090   20.1540  -33.2150 C   0  0  0  0  0  0  0  0  0  0  0  0
   -3.0440   20.3150  -33.3820 C   0  0  0  0  0  0  0  0  0  0  0  0
   -2.1780   21.3740  -33.1050 C   0  0  0  0  0  0  0  0  0  0  0  0
   -0.8080   21.1930  -33.3680 C   0  0  0  0  0  0  0  0  0  0  0  0
   -0.3310   19.9650  -33.8720 C   0  0  0  0  0  0  0  0  0  0  0  0
   -1.2180   18.9010  -34.1090 C   0  0  0  0  0  0  0  0  0  0  0  0
   -2.5730   19.1070  -33.8500 C   0  0  0  0  0  0  0  0  0  0  0  0
   -3.5630   18.2010  -33.9740 N   0  0  0  0  0  0  0  0  0  0  0  0
   -4.6880   18.8520  -33.5810 C   0  0  0  0  0  0  0  0  0  0  0  0
   -6.3504   16.2837  -33.1732 H   0  0  0  0  0  0  0  0  0  0  0  0
   -7.1320   16.9715  -34.6370 H   0  0  0  0  0  0  0  0  0  0  0  0
   -5.3685   16.6297  -34.6370 H   0  0  0  0  0  0  0  0  0  0  0  0
   -8.4656   17.5284  -32.9719 H   0  0  0  0  0  0  0  0  0  0  0  0
  -10.2519   18.9370  -31.9796 H   0  0  0  0  0  0  0  0  0  0  0  0
   -9.7898   21.2992  -31.3505 H   0  0  0  0  0  0  0  0  0  0  0  0
   -7.5311   22.2721  -31.7113 H   0  0  0  0  0  0  0  0  0  0  0  0
   -5.0730   23.0290  -33.4610 H   0  0  0  0  0  0  0  0  0  0  0  0
   -4.4929   22.1919  -30.6365 H   0  0  0  0  0  0  0  0  0  0  0  0
   -4.1333   23.7899  -31.4103 H   0  0  0  0  0  0  0  0  0  0  0  0
   -6.5503   24.3539  -31.3410 H   0  0  0  0  0  0  0  0  0  0  0  0
   -6.8612   22.7718  -30.4991 H   0  0  0  0  0  0  0  0  0  0  0  0
   -6.4900   23.7960  -28.6110 H   0  0  0  0  0  0  0  0  0  0  0  0
   -6.2251   26.0560  -28.3512 H   0  0  0  0  0  0  0  0  0  0  0  0
   -5.3356   26.1862  -29.9063 H   0  0  0  0  0  0  0  0  0  0  0  0
   -7.1004   25.8512  -29.9063 H   0  0  0  0  0  0  0  0  0  0  0  0
   -4.4061   23.9879  -27.8443 H   0  0  0  0  0  0  0  0  0  0  0  0
   -4.1294   23.0344  -29.3413 H   0  0  0  0  0  0  0  0  0  0  0  0
   -3.8471   24.8083  -29.3413 H   0  0  0  0  0  0  0  0  0  0  0  0
   -2.5555   22.3217  -32.6934 H   0  0  0  0  0  0  0  0  0  0  0  0
   -0.1029   22.0159  -33.1791 H   0  0  0  0  0  0  0  0  0  0  0  0
    0.7417   19.8394  -34.0808 H   0  0  0  0  0  0  0  0  0  0  0  0
   -0.8544   17.9343  -34.4876 H   0  0  0  0  0  0  0  0  0  0  0  0
   -3.4450   17.2060  -34.2670 H   0  0  0  0  0  0  0  0  0  0  0  0
  1  2  1  0
  2  3  2  0
  3  4  1  0
  4  5  2  0
  5  6  1  0
  6  7  2  0
  7  8  1  0
  8  9  2  0
  9 10  1  0
 10 11  1  0
 11 12  1  0
 12 13  1  0
 13 14  1  0
 13 15  1  0
  9 16  1  0
 16 17  1  0
 17 18  2  0
 18 19  1  0
 19 20  2  0
 20 21  1  0
 21 22  2  0
 22 23  1  0
 23 24  1  0
 24  2  1  0
  8  3  1  0
 24 16  2  0
 22 17  1  0
  1 25  1  0
  1 26  1  0
  1 27  1  0
  4 28  1  0
  5 29  1  0
  6 30  1  0
  7 31  1  0
 10 32  1  0
 11 33  1  0
 11 34  1  0
 12 35  1  0
 12 36  1  0
 13 37  1  0
 14 38  1  0
 14 39  1  0
 14 40  1  0
 15 41  1  0
 15 42  1  0
 15 43  1  0
 18 44  1  0
 19 45  1  0
 20 46  1  0
 21 47  1  0
 23 48  1  0
M  CHG  2   2   1  13   1
M  END
>  <UniqueID>  (15) 
15

>  <SMILES>  (15) 
C[n+]1c2ccccc2c(NCC[NH+](C)C)c2c3ccccc3[nH]c21

>  <Energy>  (15) 
109.40764938567426

>  <Genealogy>  (15) 
C[n+]1c2ccccc2c(NCC[NH+](C)C)c2c3ccccc3[nH]c21 (protonated)
C[n+]1c2ccccc2c(NCC[NH+](C)C)c2c3ccccc3[nH]c21 (3D coordinates assigned)
C[n+]1c2ccccc2c(NCC[NH+](C)C)c2c3ccccc3[nH]c21 (optimized conformer: 109.40764938567426 kcal/mol)

>  <smiles>  (15) 
CN(C)CCNc1c2ccccc2[n+](C)c2[nH]c3ccccc3c12

>  <score_type>  (15) 
oracle

>  <origin>  (15) 
adg

>  <m_score__min__energy>  (15) 
-7.4199999999999999

>  <m_primary>  (15) 
energy

$$$$
15:0
     RDKit          3D

 36 37  0  0  0  0  0  0  0  0999 V2000
   -5.3060   23.2050  -29.5000 C   0  0  0  0  0  0  0  0  0  0  0  0
   -4.6940   23.7780  -31.0690 S   0  0  0  0  0  0  0  0  0  0  0  0
   -4.8240   25.2730  -31.1650 O   0  0  0  0  0  0  0  0  0  0  0  0
   -3.2390   23.4160  -31.1810 O   0  0  0  0  0  0  0  0  0  0  0  0
   -5.5580   23.0200  -32.3700 N   0  0  0  0  0  0  0  0  0  0  0  0
   -6.8980   22.5040  -32.2620 C   0  0  0  0  0  0  0  0  0  0  0  0
   -7.9610   23.4030  -32.0780 C   0  0  0  0  0  0  0  0  0  0  0  0
   -9.2710   22.9360  -31.9570 C   0  0  0  0  0  0  0  0  0  0  0  0
   -9.5400   21.5690  -32.0420 C   0  0  0  0  0  0  0  0  0  0  0  0
   -8.5000   20.6600  -32.2730 C   0  0  0  0  0  0  0  0  0  0  0  0
   -8.8140   19.2200  -32.3930 C   0  0  0  0  0  0  0  0  0  0  0  0
   -8.3170   18.2560  -31.6000 C   0  0  0  0  0  0  0  0  0  0  0  0
   -6.8990   17.8340  -31.5520 C   0  0  0  0  0  0  0  0  0  0  0  0
   -6.4750   17.3090  -30.4880 O   0  0  0  0  0  0  0  0  0  0  0  0
   -5.9800   17.9580  -32.7120 C   0  0  0  0  0  0  0  0  0  0  0  0
   -4.8730   18.8280  -32.6730 C   0  0  0  0  0  0  0  0  0  0  0  0
   -4.0000   18.9110  -33.7610 C   0  0  0  0  0  0  0  0  0  0  0  0
   -4.2290   18.1420  -34.9040 C   0  0  0  0  0  0  0  0  0  0  0  0
   -5.3390   17.2960  -34.9650 C   0  0  0  0  0  0  0  0  0  0  0  0
   -6.2160   17.2100  -33.8800 C   0  0  0  0  0  0  0  0  0  0  0  0
   -7.1770   21.1280  -32.3530 C   0  0  0  0  0  0  0  0  0  0  0  0
   -4.7644   23.7121  -28.6879 H   0  0  0  0  0  0  0  0  0  0  0  0
   -6.3799   23.4299  -29.4210 H   0  0  0  0  0  0  0  0  0  0  0  0
   -5.1522   22.1187  -29.4210 H   0  0  0  0  0  0  0  0  0  0  0  0
   -5.0970   23.0320  -33.3060 H   0  0  0  0  0  0  0  0  0  0  0  0
   -7.7599   24.4833  -32.0288 H   0  0  0  0  0  0  0  0  0  0  0  0
  -10.0939   23.6476  -31.7942 H   0  0  0  0  0  0  0  0  0  0  0  0
  -10.5716   21.2047  -31.9272 H   0  0  0  0  0  0  0  0  0  0  0  0
   -9.5065   18.9152  -33.1915 H   0  0  0  0  0  0  0  0  0  0  0  0
   -9.0211   17.7382  -30.9321 H   0  0  0  0  0  0  0  0  0  0  0  0
   -4.6946   19.4459  -31.7806 H   0  0  0  0  0  0  0  0  0  0  0  0
   -3.1306   19.5835  -33.7170 H   0  0  0  0  0  0  0  0  0  0  0  0
   -3.5357   18.2024  -35.7559 H   0  0  0  0  0  0  0  0  0  0  0  0
   -5.5232   16.6964  -35.8686 H   0  0  0  0  0  0  0  0  0  0  0  0
   -7.0964   16.5532  -33.9397 H   0  0  0  0  0  0  0  0  0  0  0  0
   -6.3527   20.4123  -32.4879 H   0  0  0  0  0  0  0  0  0  0  0  0
  1  2  1  0
  2  3  2  0
  2  4  2  0
  2  5  1  0
  5  6  1  0
  6  7  2  0
  7  8  1  0
  8  9  2  0
  9 10  1  0
 10 11  1  0
 11 12  2  3
 12 13  1  0
 13 14  2  0
 13 15  1  0
 15 16  2  0
 16 17  1  0
 17 18  2  0
 18 19  1  0
 19 20  2  0
 10 21  2  0
 21  6  1  0
 20 15  1  0
  1 22  1  0
  1 23  1  0
  1 24  1  0
  5 25  1  0
  7 26  1  0
  8 27  1  0
  9 28  1  0
 11 29  1  0
 12 30  1  0
 16 31  1  0
 17 32  1  0
 18 33  1  0
 19 34  1  0
 20 35  1  0
 21 36  1  0
M  END
>  <UniqueID>  (16) 
16

>  <SMILES>  (16) 
CS(=O)(=O)Nc1cccc(C=CC(=O)c2ccccc2)c1

>  <Energy>  (16) 
43.99533482192244

>  <Genealogy>  (16) 
CS(=O)(=O)Nc1cccc(C=CC(=O)c2ccccc2)c1 (3D coordinates assigned)
CS(=O)(=O)Nc1cccc(C=CC(=O)c2ccccc2)c1 (optimized conformer: 43.99533482192244 kcal/mol)

>  <smiles>  (16) 
CS(=O)(=O)Nc1cccc(C=CC(=O)c2ccccc2)c1

>  <score_type>  (16) 
oracle

>  <origin>  (16) 
adg

>  <m_score__min__energy>  (16) 
-8.8300000000000001

>  <m_primary>  (16) 
energy

$$$$
16:0
     RDKit          3D

 48 51  0  0  0  0  0  0  0  0999 V2000
   -0.6470   19.1712  -34.1597 H   0  0  0  0  0  0  0  0  0  0  0  0
   -1.7110   19.3880  -33.9840 C   0  0  0  0  0  0  0  0  0  0  0  0
   -2.6600   18.4820  -34.3680 N   0  0  0  0  0  0  0  0  0  0  0  0
   -3.9680   18.7590  -34.1350 C   0  0  0  0  0  0  0  0  0  0  0  0
   -4.3720   19.9200  -33.5380 C   0  0  0  0  0  0  0  0  0  0  0  0
   -3.4460   20.8790  -33.1350 C   0  0  0  0  0  0  0  0  0  0  0  0
   -3.7655   21.8169  -32.6572 H   0  0  0  0  0  0  0  0  0  0  0  0
   -2.0860   20.6010  -33.3630 C   0  0  0  0  0  0  0  0  0  0  0  0
   -1.3164   21.3257  -33.0588 H   0  0  0  0  0  0  0  0  0  0  0  0
   -5.7520   19.8890  -33.5040 C   0  0  0  0  0  0  0  0  0  0  0  0
   -6.6720   20.9950  -33.0910 C   0  0  0  0  0  0  0  0  0  0  0  0
   -6.9609   21.5853  -33.9731 H   0  0  0  0  0  0  0  0  0  0  0  0
   -6.1663   21.6545  -32.3704 H   0  0  0  0  0  0  0  0  0  0  0  0
   -7.8760   20.4020  -32.4730 N   0  0  0  0  0  0  0  0  0  0  0  0
   -7.5710   19.2430  -31.6000 C   0  0  0  0  0  0  0  0  0  0  0  0
   -7.4495   19.6092  -30.5699 H   0  0  0  0  0  0  0  0  0  0  0  0
   -6.6561   18.7793  -31.9973 H   0  0  0  0  0  0  0  0  0  0  0  0
   -8.6540   18.1550  -31.6000 C   0  0  0  0  0  0  0  0  0  0  0  0
   -8.9127   17.8951  -30.5629 H   0  0  0  0  0  0  0  0  0  0  0  0
   -9.5492   18.5288  -32.1185 H   0  0  0  0  0  0  0  0  0  0  0  0
   -8.2761   17.2615  -32.1185 H   0  0  0  0  0  0  0  0  0  0  0  0
   -8.7960   21.4060  -31.8900 C   0  0  0  0  0  0  0  0  0  0  0  0
   -9.6912   21.4822  -32.5247 H   0  0  0  0  0  0  0  0  0  0  0  0
   -9.0642   21.0809  -30.8740 H   0  0  0  0  0  0  0  0  0  0  0  0
   -8.1340   22.7820  -31.7960 C   0  0  0  0  0  0  0  0  0  0  0  0
   -7.7224   23.0590  -32.7777 H   0  0  0  0  0  0  0  0  0  0  0  0
   -8.8809   23.5287  -31.4885 H   0  0  0  0  0  0  0  0  0  0  0  0
   -7.0550   22.7360  -30.8100 N   0  0  0  0  0  0  0  0  0  0  0  0
   -6.0410   23.5530  -30.7140 C   0  0  0  0  0  0  0  0  0  0  0  0
   -6.1970   24.9460  -30.8590 C   0  0  0  0  0  0  0  0  0  0  0  0
   -7.1891   25.3703  -31.0726 H   0  0  0  0  0  0  0  0  0  0  0  0
   -5.0900   25.7860  -30.7310 C   0  0  0  0  0  0  0  0  0  0  0  0
   -5.2124   26.8734  -30.8430 H   0  0  0  0  0  0  0  0  0  0  0  0
   -3.8630   25.2680  -30.4690 N   0  0  0  0  0  0  0  0  0  0  0  0
   -3.6640   23.9320  -30.3270 C   0  0  0  0  0  0  0  0  0  0  0  0
   -2.3790   23.4460  -30.0610 C   0  0  0  0  0  0  0  0  0  0  0  0
   -1.5371   24.1470  -29.9625 H   0  0  0  0  0  0  0  0  0  0  0  0
   -2.1620   22.0710  -29.9200 C   0  0  0  0  0  0  0  0  0  0  0  0
   -0.5490   21.4690  -29.5860 Cl  0  0  0  0  0  0  0  0  0  0  0  0
   -3.2280   21.1770  -30.0510 C   0  0  0  0  0  0  0  0  0  0  0  0
   -3.0530   20.0963  -29.9444 H   0  0  0  0  0  0  0  0  0  0  0  0
   -4.5160   21.6510  -30.3170 C   0  0  0  0  0  0  0  0  0  0  0  0
   -5.3494   20.9407  -30.4216 H   0  0  0  0  0  0  0  0  0  0  0  0
   -4.7530   23.0350  -30.4520 C   0  0  0  0  0  0  0  0  0  0  0  0
   -6.1140   18.6890  -34.1140 C   0  0  0  0  0  0  0  0  0  0  0  0
   -7.1498   18.3527  -34.2691 H   0  0  0  0  0  0  0  0  0  0  0  0
   -5.0140   17.9950  -34.4890 N   0  0  0  0  0  0  0  0  0  0  0  0
   -4.9870   17.0750  -34.9820 H   0  0  0  0  0  0  0  0  0  0  0  0
  1  2  1  0
  2  3  2  0
  3  4  1  0
  4  5  2  0
  5  6  1  0
  6  7  1  0
  6  8  2  0
  8  9  1  0
  5 10  1  0
 10 11  1  0
 11 12  1  0
 11 13  1  0
 11 14  1  0
 14 15  1  0
 15 16  1  0
 15 17  1  0
 15 18  1  0
 18 19  1  0
 18 20  1  0
 18 21  1  0
 14 22  1  0
 22 23  1  0
 22 24  1  0
 22 25  1  0
 25 26  1  0
 25 27  1  0
 25 28  1  0
 28 29  2  0
 29 30  1  0
 30 31  1  0
 30 32  2  0
 32 33  1  0
 32 34  1  0
 34 35  1  0
 35 36  2  0
 36 37  1  0
 36 38  1  0
 38 39  1  0
 38 40  2  0
 40 41  1  0
 40 42  1  0
 42 43  1  0
 42 44  2  0
 10 45  2  0
 45 46  1  0
 45 47  1  0
 47 48  1  0
  8  2  1  0
 44 29  1  0
 47  4  1  0
 44 35  1  0
M  CHG  1  34  -1
M  END
>  <UniqueID>  (17) 
17

>  <SMILES>  (17) 
CCN(CC/N=c1\cc[n-]c2cc(Cl)ccc12)Cc1c[nH]c2ncccc12

>  <Energy>  (17) 
92.89621447118678

>  <Genealogy>  (17) 
CCN(CCN=c1cc[n-]c2cc(Cl)ccc12)Cc1c[nH]c2ncccc12 (protonated)
CCN(CC/N=c1\cc[n-]c2cc(Cl)ccc12)Cc1c[nH]c2ncccc12 (cis-trans isomerization)
CCN(CC/N=c1\cc[n-]c2cc(Cl)ccc12)Cc1c[nH]c2ncccc12 (3D coordinates assigned)
CCN(CC/N=c1\cc[n-]c2cc(Cl)ccc12)Cc1c[nH]c2ncccc12 (optimized conformer: 92.89621447118678 kcal/mol)

>  <smiles>  (17) 
CCN(CCN=c1cc[nH]c2cc(Cl)ccc12)Cc1c[nH]c2ncccc12

>  <score_type>  (17) 
oracle

>  <origin>  (17) 
adg

>  <m_score__min__energy>  (17) 
-9.9499999999999993

>  <m_primary>  (17) 
energy

$$$$
17:0
     RDKit          3D

 34 36  0  0  0  0  0  0  0  0999 V2000
    0.1580   20.4150  -34.4710 C   0  0  0  0  0  0  0  0  0  0  0  0
   -1.1580   19.7400  -34.2170 C   0  0  0  0  0  0  0  0  0  0  0  0
   -1.3320   18.3890  -34.5500 C   0  0  0  0  0  0  0  0  0  0  0  0
   -2.5690   17.7610  -34.3400 C   0  0  0  0  0  0  0  0  0  0  0  0
   -2.7580   16.3240  -34.7250 C   0  0  0  0  0  0  0  0  0  0  0  0
   -3.6460   18.5050  -33.8360 C   0  0  0  0  0  0  0  0  0  0  0  0
   -3.4890   19.8630  -33.5160 C   0  0  0  0  0  0  0  0  0  0  0  0
   -4.6230   20.6470  -32.9850 C   0  0  0  0  0  0  0  0  0  0  0  0
   -4.4880   21.8870  -32.4400 N   0  0  0  0  0  0  0  0  0  0  0  0
   -5.7560   22.1900  -32.1070 C   0  0  0  0  0  0  0  0  0  0  0  0
   -6.2330   23.3500  -31.4950 C   0  0  0  0  0  0  0  0  0  0  0  0
   -5.3490   24.4280  -31.1370 C   0  0  0  0  0  0  0  0  0  0  0  0
   -4.6370   25.2930  -30.8480 N   0  0  0  0  0  0  0  0  0  0  0  0
   -7.6150   23.4280  -31.2320 C   0  0  0  0  0  0  0  0  0  0  0  0
   -8.4740   22.3610  -31.5850 C   0  0  0  0  0  0  0  0  0  0  0  0
   -7.9620   21.2080  -32.2180 C   0  0  0  0  0  0  0  0  0  0  0  0
   -8.8470   20.0480  -32.5610 C   0  0  0  0  0  0  0  0  0  0  0  0
   -6.5860   21.1650  -32.4480 C   0  0  0  0  0  0  0  0  0  0  0  0
   -5.8730   20.2130  -32.9900 O   0  0  0  0  0  0  0  0  0  0  0  0
   -2.2410   20.4750  -33.7140 C   0  0  0  0  0  0  0  0  0  0  0  0
    0.6357   20.6600  -33.5109 H   0  0  0  0  0  0  0  0  0  0  0  0
    0.8114   19.7407  -35.0441 H   0  0  0  0  0  0  0  0  0  0  0  0
   -0.0084   21.3390  -35.0441 H   0  0  0  0  0  0  0  0  0  0  0  0
   -0.4944   17.8187  -34.9780 H   0  0  0  0  0  0  0  0  0  0  0  0
   -2.8389   15.7087  -33.8168 H   0  0  0  0  0  0  0  0  0  0  0  0
   -3.6773   16.2218  -35.3203 H   0  0  0  0  0  0  0  0  0  0  0  0
   -1.8964   15.9875  -35.3203 H   0  0  0  0  0  0  0  0  0  0  0  0
   -4.6225   18.0201  -33.6901 H   0  0  0  0  0  0  0  0  0  0  0  0
   -8.0290   24.3252  -30.7486 H   0  0  0  0  0  0  0  0  0  0  0  0
   -9.5494   22.4304  -31.3645 H   0  0  0  0  0  0  0  0  0  0  0  0
   -9.2075   19.5755  -31.6353 H   0  0  0  0  0  0  0  0  0  0  0  0
   -9.7056   20.4033  -33.1497 H   0  0  0  0  0  0  0  0  0  0  0  0
   -8.2775   19.3138  -33.1497 H   0  0  0  0  0  0  0  0  0  0  0  0
   -2.1117   21.5403  -33.4724 H   0  0  0  0  0  0  0  0  0  0  0  0
  1  2  1  0
  2  3  2  0
  3  4  1  0
  4  5  1  0
  4  6  2  0
  6  7  1  0
  7  8  1  0
  8  9  2  0
  9 10  1  0
 10 11  2  0
 11 12  1  0
 12 13  3  0
 11 14  1  0
 14 15  2  0
 15 16  1  0
 16 17  1  0
 16 18  2  0
 18 19  1  0
  7 20  2  0
 20  2  1  0
 19  8  1  0
 18 10  1  0
  1 21  1  0
  1 22  1  0
  1 23  1  0
  3 24  1  0
  5 25  1  0
  5 26  1  0
  5 27  1  0
  6 28  1  0
 14 29  1  0
 15 30  1  0
 17 31  1  0
 17 32  1  0
 17 33  1  0
 20 34  1  0
M  END
>  <UniqueID>  (18) 
18

>  <SMILES>  (18) 
Cc1cc(C)cc(-c2nc3c(C#N)ccc(C)c3o2)c1

>  <Energy>  (18) 
70.40406382946718

>  <Genealogy>  (18) 
Cc1cc(C)cc(-c2nc3c(C#N)ccc(C)c3o2)c1 (3D coordinates assigned)
Cc1cc(C)cc(-c2nc3c(C#N)ccc(C)c3o2)c1 (optimized conformer: 70.40406382946718 kcal/mol)

>  <smiles>  (18) 
Cc1cc(C)cc(-c2nc3c(C#N)ccc(C)c3o2)c1

>  <score_type>  (18) 
oracle

>  <origin>  (18) 
adg

>  <m_score__min__energy>  (18) 
-7.4000000000000004

>  <m_primary>  (18) 
energy

$$$$
18:0
     RDKit          3D

 67 66  0  0  0  0  0  0  0  0999 V2000
   -5.5247   25.4465  -31.4797 H   0  0  0  0  0  0  0  0  0  0  0  0
   -5.7180   24.3940  -31.2250 C   0  0  0  0  0  0  0  0  0  0  0  0
   -6.9240   24.0470  -30.7560 C   0  0  0  0  0  0  0  0  0  0  0  0
   -7.2823   24.4877  -29.8140 H   0  0  0  0  0  0  0  0  0  0  0  0
   -7.8010   23.0650  -31.4920 C   0  0  0  0  0  0  0  0  0  0  0  0
   -7.7449   23.2796  -32.5694 H   0  0  0  0  0  0  0  0  0  0  0  0
   -8.8266   23.1800  -31.1114 H   0  0  0  0  0  0  0  0  0  0  0  0
   -7.3920   21.6700  -31.2660 N   0  0  0  0  0  0  0  0  0  0  0  0
   -6.9040   21.3050  -32.1180 H   0  0  0  0  0  0  0  0  0  0  0  0
   -8.5420   20.8080  -30.9630 C   0  0  0  0  0  0  0  0  0  0  0  0
   -9.3643   21.4216  -30.5662 H   0  0  0  0  0  0  0  0  0  0  0  0
   -8.2471   20.0570  -30.2153 H   0  0  0  0  0  0  0  0  0  0  0  0
   -9.0070   20.0970  -32.2410 C   0  0  0  0  0  0  0  0  0  0  0  0
   -8.8194   20.7592  -33.0991 H   0  0  0  0  0  0  0  0  0  0  0  0
  -10.0774   19.8728  -32.1231 H   0  0  0  0  0  0  0  0  0  0  0  0
   -8.2810   18.7650  -32.4820 C   0  0  0  0  0  0  0  0  0  0  0  0
   -8.0700   18.6686  -33.5573 H   0  0  0  0  0  0  0  0  0  0  0  0
   -8.9374   17.9588  -32.1227 H   0  0  0  0  0  0  0  0  0  0  0  0
   -6.9530   18.6640  -31.7080 C   0  0  0  0  0  0  0  0  0  0  0  0
   -6.6527   17.6070  -31.6577 H   0  0  0  0  0  0  0  0  0  0  0  0
   -7.1163   19.0843  -30.7047 H   0  0  0  0  0  0  0  0  0  0  0  0
   -5.8720   19.4330  -32.3470 N   0  0  0  0  0  0  0  0  0  0  0  0
   -5.7710   20.3580  -31.8660 H   0  0  0  0  0  0  0  0  0  0  0  0
   -6.1150   19.6560  -33.7780 C   0  0  0  0  0  0  0  0  0  0  0  0
   -5.5350   20.5277  -34.1153 H   0  0  0  0  0  0  0  0  0  0  0  0
   -7.1875   19.8390  -33.9399 H   0  0  0  0  0  0  0  0  0  0  0  0
   -5.6890   18.4270  -34.5720 C   0  0  0  0  0  0  0  0  0  0  0  0
   -5.4095   17.6208  -33.8778 H   0  0  0  0  0  0  0  0  0  0  0  0
   -6.5236   18.0924  -35.2056 H   0  0  0  0  0  0  0  0  0  0  0  0
   -4.8264   18.6807  -35.2056 H   0  0  0  0  0  0  0  0  0  0  0  0
   -4.6230   23.3830  -31.4120 C   0  0  0  0  0  0  0  0  0  0  0  0
   -3.7173   23.8900  -31.7762 H   0  0  0  0  0  0  0  0  0  0  0  0
   -4.4147   22.8937  -30.4491 H   0  0  0  0  0  0  0  0  0  0  0  0
   -5.0390   22.3670  -32.3900 N   0  0  0  0  0  0  0  0  0  0  0  0
   -5.3420   21.5180  -31.8560 H   0  0  0  0  0  0  0  0  0  0  0  0
   -3.9250   21.9700  -33.2640 C   0  0  0  0  0  0  0  0  0  0  0  0
   -4.2161   21.0814  -33.8434 H   0  0  0  0  0  0  0  0  0  0  0  0
   -3.6887   22.8006  -33.9453 H   0  0  0  0  0  0  0  0  0  0  0  0
   -2.6850   21.6430  -32.4230 C   0  0  0  0  0  0  0  0  0  0  0  0
   -1.8115   21.5646  -33.0870 H   0  0  0  0  0  0  0  0  0  0  0  0
   -2.5412   22.4475  -31.6867 H   0  0  0  0  0  0  0  0  0  0  0  0
   -2.8610   20.3150  -31.6660 C   0  0  0  0  0  0  0  0  0  0  0  0
   -3.1493   19.5341  -32.3850 H   0  0  0  0  0  0  0  0  0  0  0  0
   -1.9047   20.0789  -31.1763 H   0  0  0  0  0  0  0  0  0  0  0  0
   -3.8930   20.3980  -30.6190 N   0  0  0  0  0  0  0  0  0  0  0  0
   -4.7760   20.7820  -31.0300 H   0  0  0  0  0  0  0  0  0  0  0  0
   -3.4760   21.2430  -29.4920 C   0  0  0  0  0  0  0  0  0  0  0  0
   -3.7438   22.2882  -29.7060 H   0  0  0  0  0  0  0  0  0  0  0  0
   -3.9876   20.8965  -28.5820 H   0  0  0  0  0  0  0  0  0  0  0  0
   -1.9600   21.1460  -29.2730 C   0  0  0  0  0  0  0  0  0  0  0  0
   -1.7658   20.3451  -28.5444 H   0  0  0  0  0  0  0  0  0  0  0  0
   -1.5078   20.9423  -30.2548 H   0  0  0  0  0  0  0  0  0  0  0  0
   -1.3210   22.4460  -28.7470 C   0  0  0  0  0  0  0  0  0  0  0  0
   -1.7904   22.6970  -27.7844 H   0  0  0  0  0  0  0  0  0  0  0  0
   -0.2416   22.2550  -28.6557 H   0  0  0  0  0  0  0  0  0  0  0  0
   -1.4810   23.6510  -29.6920 C   0  0  0  0  0  0  0  0  0  0  0  0
   -0.4832   23.9845  -30.0131 H   0  0  0  0  0  0  0  0  0  0  0  0
   -2.0903   23.3296  -30.5496 H   0  0  0  0  0  0  0  0  0  0  0  0
   -2.1750   24.7830  -29.0400 N   0  0  0  0  0  0  0  0  0  0  0  0
   -1.2540   25.4820  -28.1310 C   0  0  0  0  0  0  0  0  0  0  0  0
   -1.5350   25.2688  -27.0891 H   0  0  0  0  0  0  0  0  0  0  0  0
   -0.2261   25.1346  -28.3120 H   0  0  0  0  0  0  0  0  0  0  0  0
   -1.3121   26.5654  -28.3120 H   0  0  0  0  0  0  0  0  0  0  0  0
   -3.3550   24.3230  -28.2860 C   0  0  0  0  0  0  0  0  0  0  0  0
   -3.1542   24.4013  -27.2073 H   0  0  0  0  0  0  0  0  0  0  0  0
   -4.2219   24.9490  -28.5440 H   0  0  0  0  0  0  0  0  0  0  0  0
   -3.5695   23.2754  -28.5440 H   0  0  0  0  0  0  0  0  0  0  0  0
  1  2  1  0
  2  3  2  0
  3  4  1  0
  3  5  1  0
  5  6  1  0
  5  7  1  0
  5  8  1  0
  8  9  1  0
  8 10  1  0
 10 11  1  0
 10 12  1  0
 10 13  1  0
 13 14  1  0
 13 15  1  0
 13 16  1  0
 16 17  1  0
 16 18  1  0
 16 19  1  0
 19 20  1  0
 19 21  1  0
 19 22  1  0
 22 23  1  0
 22 24  1  0
 24 25  1  0
 24 26  1  0
 24 27  1  0
 27 28  1  0
 27 29  1  0
 27 30  1  0
  2 31  1  0
 31 32  1  0
 31 33  1  0
 31 34  1  0
 34 35  1  0
 34 36  1  0
 36 37  1  0
 36 38  1  0
 36 39  1  0
 39 40  1  0
 39 41  1  0
 39 42  1  0
 42 43  1  0
 42 44  1  0
 42 45  1  0
 45 46  1  0
 45 47  1  0
 47 48  1  0
 47 49  1  0
 47 50  1  0
 50 51  1  0
 50 52  1  0
 50 53  1  0
 53 54  1  0
 53 55  1  0
 53 56  1  0
 56 57  1  0
 56 58  1  0
 56 59  1  0
 59 60  1  0
 60 61  1  0
 60 62  1  0
 60 63  1  0
 59 64  1  0
 64 65  1  0
 64 66  1  0
 64 67  1  0
M  END
>  <UniqueID>  (19) 
19

>  <SMILES>  (19) 
CCNCCCCNC/C=C/CNCCCNCCCCN(C)C

>  <Energy>  (19) 
41.06929339390031

>  <Genealogy>  (19) 
CCNCCCCNC/C=C/CNCCCNCCCCN(C)C (cis-trans isomerization)
CCNCCCCNC/C=C/CNCCCNCCCCN(C)C (3D coordinates assigned)
CCNCCCCNC/C=C/CNCCCNCCCCN(C)C (optimized conformer: 41.06929339390031 kcal/mol)

>  <smiles>  (19) 
CCNCCCCNCC=CCNCCCNCCCCN(C)C

>  <score_type>  (19) 
oracle

>  <origin>  (19) 
adg

>  <m_score__min__energy>  (19) 
-5.3899999999999997

>  <m_primary>  (19) 
energy

$$$$
19:0
     RDKit          3D

 41 43  0  0  0  0  0  0  0  0999 V2000
   -1.6830   24.9850  -27.9640 C   0  0  0  0  0  0  0  0  0  0  0  0
   -2.9010   24.7380  -27.0730 C   0  0  0  0  0  0  0  0  0  0  0  0
   -3.9290   23.8030  -27.7320 C   0  0  0  0  0  0  0  0  0  0  0  0
   -4.9570   24.5540  -28.4760 N   0  0  0  0  0  0  0  0  0  0  0  0
   -4.7510   24.4660  -29.9390 C   0  0  0  0  0  0  0  0  0  0  0  0
   -4.6500   23.0130  -30.4440 C   0  0  0  0  0  0  0  0  0  0  0  0
   -5.9610   22.4980  -30.9960 C   0  0  0  0  0  0  0  0  0  0  0  0
   -7.1600   22.8390  -30.3460 C   0  0  0  0  0  0  0  0  0  0  0  0
   -8.3830   22.3520  -30.8100 C   0  0  0  0  0  0  0  0  0  0  0  0
   -8.4240   21.4840  -31.9000 C   0  0  0  0  0  0  0  0  0  0  0  0
   -7.2410   21.1100  -32.5480 C   0  0  0  0  0  0  0  0  0  0  0  0
   -6.0110   21.6530  -32.1280 C   0  0  0  0  0  0  0  0  0  0  0  0
   -4.5440   21.3190  -33.1210 S   0  0  0  0  0  0  0  0  0  0  0  0
   -4.8720   19.5630  -33.2460 C   0  0  0  0  0  0  0  0  0  0  0  0
   -3.8310   18.6380  -33.1050 C   0  0  0  0  0  0  0  0  0  0  0  0
   -4.0680   17.2820  -33.3450 C   0  0  0  0  0  0  0  0  0  0  0  0
   -5.3420   16.8490  -33.7270 C   0  0  0  0  0  0  0  0  0  0  0  0
   -6.3910   17.7690  -33.8430 C   0  0  0  0  0  0  0  0  0  0  0  0
   -6.1640   19.1290  -33.5840 C   0  0  0  0  0  0  0  0  0  0  0  0
   -7.2650   20.0470  -33.5180 N   0  0  0  0  0  0  0  0  0  0  0  0
   -0.7987   25.1643  -27.3348 H   0  0  0  0  0  0  0  0  0  0  0  0
   -1.5086   24.1039  -28.5991 H   0  0  0  0  0  0  0  0  0  0  0  0
   -1.8656   25.8644  -28.5991 H   0  0  0  0  0  0  0  0  0  0  0  0
   -2.5628   24.2830  -26.1304 H   0  0  0  0  0  0  0  0  0  0  0  0
   -3.3917   25.7070  -26.8992 H   0  0  0  0  0  0  0  0  0  0  0  0
   -3.4046   23.1323  -28.4286 H   0  0  0  0  0  0  0  0  0  0  0  0
   -4.4316   23.2336  -26.9363 H   0  0  0  0  0  0  0  0  0  0  0  0
   -4.8890   25.5610  -28.1920 H   0  0  0  0  0  0  0  0  0  0  0  0
   -5.9150   24.2250  -28.2220 H   0  0  0  0  0  0  0  0  0  0  0  0
   -5.5980   24.9546  -30.4428 H   0  0  0  0  0  0  0  0  0  0  0  0
   -3.7966   24.9625  -30.1685 H   0  0  0  0  0  0  0  0  0  0  0  0
   -3.8908   22.9679  -31.2387 H   0  0  0  0  0  0  0  0  0  0  0  0
   -4.3770   22.3799  -29.5868 H   0  0  0  0  0  0  0  0  0  0  0  0
   -7.1341   23.4955  -29.4638 H   0  0  0  0  0  0  0  0  0  0  0  0
   -9.3173   22.6540  -30.3141 H   0  0  0  0  0  0  0  0  0  0  0  0
   -9.3894   21.0916  -32.2521 H   0  0  0  0  0  0  0  0  0  0  0  0
   -2.8285   18.9778  -32.8059 H   0  0  0  0  0  0  0  0  0  0  0  0
   -3.2512   16.5537  -33.2333 H   0  0  0  0  0  0  0  0  0  0  0  0
   -5.5200   15.7839  -33.9366 H   0  0  0  0  0  0  0  0  0  0  0  0
   -7.3936   17.4253  -34.1373 H   0  0  0  0  0  0  0  0  0  0  0  0
   -8.1830   19.7610  -33.9290 H   0  0  0  0  0  0  0  0  0  0  0  0
  1  2  1  0
  2  3  1  0
  3  4  1  0
  4  5  1  0
  5  6  1  0
  6  7  1  0
  7  8  2  0
  8  9  1  0
  9 10  2  0
 10 11  1  0
 11 12  2  0
 12 13  1  0
 13 14  1  0
 14 15  2  0
 15 16  1  0
 16 17  2  0
 17 18  1  0
 18 19  2  0
 19 20  1  0
 12  7  1  0
 19 14  1  0
 20 11  1  0
  1 21  1  0
  1 22  1  0
  1 23  1  0
  2 24  1  0
  2 25  1  0
  3 26  1  0
  3 27  1  0
  4 28  1  0
  4 29  1  0
  5 30  1  0
  5 31  1  0
  6 32  1  0
  6 33  1  0
  8 34  1  0
  9 35  1  0
 10 36  1  0
 15 37  1  0
 16 38  1  0
 17 39  1  0
 18 40  1  0
 20 41  1  0
M  CHG  1   4   1
M  END
>  <UniqueID>  (20) 
20

>  <SMILES>  (20) 
CCC[NH2+]CCc1cccc2c1Sc1ccccc1N2

>  <Energy>  (20) 
52.01373899954124

>  <Genealogy>  (20) 
CCC[NH2+]CCc1cccc2c1Sc1ccccc1N2 (protonated)
CCC[NH2+]CCc1cccc2c1Sc1ccccc1N2 (3D coordinates assigned)
CCC[NH2+]CCc1cccc2c1Sc1ccccc1N2 (nonaromatic ring conformer: 52.01373899954124 kcal/mol)

>  <smiles>  (20) 
CCCNCCc1cccc2c1Sc1ccccc1N2

>  <score_type>  (20) 
oracle

>  <origin>  (20) 
adg

>  <m_score__min__energy>  (20) 
-7.5599999999999996

>  <m_primary>  (20) 
energy

$$$$
20:0
     RDKit          3D

 35 37  0  0  0  0  0  0  0  0999 V2000
   -8.7120   22.1770  -30.9840 C   0  0  0  0  0  0  0  0  0  0  0  0
   -7.2350   22.2740  -31.2830 C   0  0  0  0  0  0  0  0  0  0  0  0
   -6.5360   21.3240  -32.0930 C   0  0  0  0  0  0  0  0  0  0  0  0
   -7.2250   20.1320  -32.7290 C   0  0  0  0  0  0  0  0  0  0  0  0
   -6.4790   19.6230  -33.9720 C   0  0  0  0  0  0  0  0  0  0  0  0
   -5.8870   18.2550  -33.7460 C   0  0  0  0  0  0  0  0  0  0  0  0
   -6.0360   17.6150  -32.5060 C   0  0  0  0  0  0  0  0  0  0  0  0
   -5.4430   16.3680  -32.2810 C   0  0  0  0  0  0  0  0  0  0  0  0
   -4.6930   15.7570  -33.2890 C   0  0  0  0  0  0  0  0  0  0  0  0
   -4.5320   16.3930  -34.5240 C   0  0  0  0  0  0  0  0  0  0  0  0
   -5.1240   17.6380  -34.7530 C   0  0  0  0  0  0  0  0  0  0  0  0
   -5.1580   21.5240  -32.3770 C   0  0  0  0  0  0  0  0  0  0  0  0
   -4.4680   22.6420  -31.8850 C   0  0  0  0  0  0  0  0  0  0  0  0
   -5.1810   23.5520  -31.1190 C   0  0  0  0  0  0  0  0  0  0  0  0
   -4.8030   24.7360  -30.5340 C   0  0  0  0  0  0  0  0  0  0  0  0
   -3.5320   25.2960  -30.5780 O   0  0  0  0  0  0  0  0  0  0  0  0
   -5.8350   25.2770  -29.9220 O   0  0  0  0  0  0  0  0  0  0  0  0
   -6.8840   24.4900  -30.0820 C   0  0  0  0  0  0  0  0  0  0  0  0
   -6.5080   23.3870  -30.8320 C   0  0  0  0  0  0  0  0  0  0  0  0
   -8.8657   22.1669  -29.8948 H   0  0  0  0  0  0  0  0  0  0  0  0
   -9.2319   23.0429  -31.4197 H   0  0  0  0  0  0  0  0  0  0  0  0
   -9.1142   21.2505  -31.4197 H   0  0  0  0  0  0  0  0  0  0  0  0
   -7.2783   19.3185  -31.9905 H   0  0  0  0  0  0  0  0  0  0  0  0
   -8.2283   20.4526  -33.0461 H   0  0  0  0  0  0  0  0  0  0  0  0
   -7.1841   19.5715  -34.8147 H   0  0  0  0  0  0  0  0  0  0  0  0
   -5.6567   20.3210  -34.1881 H   0  0  0  0  0  0  0  0  0  0  0  0
   -6.6212   18.0955  -31.7081 H   0  0  0  0  0  0  0  0  0  0  0  0
   -5.5674   15.8679  -31.3092 H   0  0  0  0  0  0  0  0  0  0  0  0
   -4.2291   14.7756  -33.1112 H   0  0  0  0  0  0  0  0  0  0  0  0
   -3.9387   15.9128  -35.3161 H   0  0  0  0  0  0  0  0  0  0  0  0
   -4.9926   18.1370  -35.7245 H   0  0  0  0  0  0  0  0  0  0  0  0
   -4.6221   20.7881  -32.9944 H   0  0  0  0  0  0  0  0  0  0  0  0
   -3.3995   22.7915  -32.0992 H   0  0  0  0  0  0  0  0  0  0  0  0
   -3.1100   25.6760  -29.7390 H   0  0  0  0  0  0  0  0  0  0  0  0
   -7.8920   24.6794  -29.6845 H   0  0  0  0  0  0  0  0  0  0  0  0
  1  2  1  0
  2  3  2  0
  3  4  1  0
  4  5  1  0
  5  6  1  0
  6  7  2  0
  7  8  1  0
  8  9  2  0
  9 10  1  0
 10 11  2  0
  3 12  1  0
 12 13  2  0
 13 14  1  0
 14 15  2  0
 15 16  1  0
 15 17  1  0
 17 18  1  0
 18 19  2  0
 19  2  1  0
 11  6  1  0
 19 14  1  0
  1 20  1  0
  1 21  1  0
  1 22  1  0
  4 23  1  0
  4 24  1  0
  5 25  1  0
  5 26  1  0
  7 27  1  0
  8 28  1  0
  9 29  1  0
 10 30  1  0
 11 31  1  0
 12 32  1  0
 13 33  1  0
 16 34  1  0
 18 35  1  0
M  END
>  <UniqueID>  (21) 
21

>  <SMILES>  (21) 
Cc1c(CCc2ccccc2)ccc2c(O)occ12

>  <Energy>  (21) 
70.5885363618346

>  <Genealogy>  (21) 
Cc1c(CCc2ccccc2)ccc2c(O)occ12 (3D coordinates assigned)
Cc1c(CCc2ccccc2)ccc2c(O)occ12 (optimized conformer: 70.5885363618346 kcal/mol)

>  <smiles>  (21) 
Cc1c(CCc2ccccc2)ccc2c(O)occ12

>  <score_type>  (21) 
oracle

>  <origin>  (21) 
adg

>  <m_score__min__energy>  (21) 
-8.9700000000000006

>  <m_primary>  (21) 
energy

$$$$
21:0
     RDKit          3D

 45 48  0  0  0  0  0  0  0  0999 V2000
   -1.6480   20.8630  -30.0880 C   0  0  0  0  0  0  0  0  0  0  0  0
   -1.5260   22.1880  -30.8310 C   0  0  0  0  0  0  0  0  0  0  0  0
   -2.7380   22.9170  -30.7410 O   0  0  0  0  0  0  0  0  0  0  0  0
   -3.0200   23.2860  -29.4040 C   0  0  0  0  0  0  0  0  0  0  0  0
   -4.0460   24.4150  -29.3690 C   0  0  0  0  0  0  0  0  0  0  0  0
   -4.1800   24.9560  -30.6660 O   0  0  0  0  0  0  0  0  0  0  0  0
   -5.5070   25.3980  -30.8610 C   0  0  0  0  0  0  0  0  0  0  0  0
   -6.4750   24.2970  -30.4410 C   0  0  0  0  0  0  0  0  0  0  0  0
   -6.3680   23.1500  -31.3420 N   0  0  0  0  0  0  0  0  0  0  0  0
   -5.2100   22.6530  -31.7960 N   0  0  0  0  0  0  0  0  0  0  0  0
   -5.4850   21.5210  -32.4850 C   0  0  0  0  0  0  0  0  0  0  0  0
   -6.8120   21.3180  -32.4410 C   0  0  0  0  0  0  0  0  0  0  0  0
   -7.4630   20.2020  -32.8860 C   0  0  0  0  0  0  0  0  0  0  0  0
   -8.8470   20.1330  -32.6380 C   0  0  0  0  0  0  0  0  0  0  0  0
   -9.4800   21.1830  -31.9090 C   0  0  0  0  0  0  0  0  0  0  0  0
   -8.7300   22.2910  -31.4260 C   0  0  0  0  0  0  0  0  0  0  0  0
   -7.3650   22.3170  -31.7280 C   0  0  0  0  0  0  0  0  0  0  0  0
   -6.6890   19.2030  -33.5100 O   0  0  0  0  0  0  0  0  0  0  0  0
   -5.2740   19.3410  -33.6090 C   0  0  0  0  0  0  0  0  0  0  0  0
   -4.5120   18.3360  -34.2090 C   0  0  0  0  0  0  0  0  0  0  0  0
   -3.1200   18.4660  -34.2920 C   0  0  0  0  0  0  0  0  0  0  0  0
   -2.4810   19.6010  -33.7750 C   0  0  0  0  0  0  0  0  0  0  0  0
   -3.2280   20.6200  -33.1730 C   0  0  0  0  0  0  0  0  0  0  0  0
   -4.6190   20.4970  -33.0900 C   0  0  0  0  0  0  0  0  0  0  0  0
   -1.6310   21.0477  -29.0038 H   0  0  0  0  0  0  0  0  0  0  0  0
   -2.5949   20.3748  -30.3620 H   0  0  0  0  0  0  0  0  0  0  0  0
   -0.8062   20.2101  -30.3620 H   0  0  0  0  0  0  0  0  0  0  0  0
   -0.7128   22.7800  -30.3857 H   0  0  0  0  0  0  0  0  0  0  0  0
   -1.3088   21.9851  -31.8901 H   0  0  0  0  0  0  0  0  0  0  0  0
   -3.4207   22.4152  -28.8645 H   0  0  0  0  0  0  0  0  0  0  0  0
   -2.0918   23.6324  -28.9260 H   0  0  0  0  0  0  0  0  0  0  0  0
   -5.0162   24.0211  -29.0319 H   0  0  0  0  0  0  0  0  0  0  0  0
   -3.7122   25.1984  -28.6727 H   0  0  0  0  0  0  0  0  0  0  0  0
   -5.6874   26.2968  -30.2530 H   0  0  0  0  0  0  0  0  0  0  0  0
   -5.6619   25.6376  -31.9234 H   0  0  0  0  0  0  0  0  0  0  0  0
   -6.2358   23.9761  -29.4164 H   0  0  0  0  0  0  0  0  0  0  0  0
   -7.5015   24.6898  -30.4853 H   0  0  0  0  0  0  0  0  0  0  0  0
   -4.2650   23.0500  -31.5950 H   0  0  0  0  0  0  0  0  0  0  0  0
   -9.4346   19.2777  -33.0029 H   0  0  0  0  0  0  0  0  0  0  0  0
  -10.5622   21.1353  -31.7178 H   0  0  0  0  0  0  0  0  0  0  0  0
   -9.2034   23.0927  -30.8402 H   0  0  0  0  0  0  0  0  0  0  0  0
   -5.0056   17.4415  -34.6167 H   0  0  0  0  0  0  0  0  0  0  0  0
   -2.5244   17.6720  -34.7661 H   0  0  0  0  0  0  0  0  0  0  0  0
   -1.3868   19.6915  -33.8427 H   0  0  0  0  0  0  0  0  0  0  0  0
   -2.7252   21.5107  -32.7683 H   0  0  0  0  0  0  0  0  0  0  0  0
  1  2  1  0
  2  3  1  0
  3  4  1  0
  4  5  1  0
  5  6  1  0
  6  7  1  0
  7  8  1  0
  8  9  1  0
  9 10  1  0
 10 11  2  0
 11 12  1  0
 12 13  2  0
 13 14  1  0
 14 15  2  0
 15 16  1  0
 16 17  2  0
 13 18  1  0
 18 19  1  0
 19 20  2  0
 20 21  1  0
 21 22  2  0
 22 23  1  0
 23 24  2  0
 17  9  1  0
 24 19  1  0
 24 11  1  0
 17 12  1  0
  1 25  1  0
  1 26  1  0
  1 27  1  0
  2 28  1  0
  2 29  1  0
  4 30  1  0
  4 31  1  0
  5 32  1  0
  5 33  1  0
  7 34  1  0
  7 35  1  0
  8 36  1  0
  8 37  1  0
 10 38  1  0
 14 39  1  0
 15 40  1  0
 16 41  1  0
 20 42  1  0
 21 43  1  0
 22 44  1  0
 23 45  1  0
M  CHG  1  10   1
M  END
>  <UniqueID>  (22) 
22

>  <SMILES>  (22) 
CCOCCOCCn1[nH+]c2c3c(cccc31)Oc1ccccc1-2

>  <Energy>  (22) 
100.09256551471195

>  <Genealogy>  (22) 
CCOCCOCCn1[nH+]c2c3c(cccc31)Oc1ccccc1-2 (protonated)
CCOCCOCCn1[nH+]c2c3c(cccc31)Oc1ccccc1-2 (3D coordinates assigned)
CCOCCOCCn1[nH+]c2c3c(cccc31)Oc1ccccc1-2 (nonaromatic ring conformer: 100.09256551471195 kcal/mol)

>  <smiles>  (22) 
CCOCCOCCn1nc2c3c(cccc31)Oc1ccccc1-2

>  <score_type>  (22) 
oracle

>  <origin>  (22) 
adg

>  <m_score__min__energy>  (22) 
-8.2699999999999996

>  <m_primary>  (22) 
energy

$$$$
22:0
     RDKit          3D

 34 36  0  0  1  0  0  0  0  0999 V2000
   -4.0870   25.0820  -30.5450 O   0  0  0  0  0  0  0  0  0  0  0  0
   -5.3340   25.7000  -30.5720 C   0  0  0  0  0  0  0  0  0  0  0  0
   -6.4950   24.7470  -30.3900 C   0  0  0  0  0  0  0  0  0  0  0  0
   -6.2350   23.4070  -30.1930 N   0  0  0  0  0  0  0  0  0  0  0  0
   -5.9680   22.5260  -31.0160 C   0  0  0  0  0  0  0  0  0  0  0  0
   -4.6760   22.3350  -31.3610 N   0  0  0  0  0  0  0  0  0  0  0  0
   -4.2480   21.3950  -32.2120 C   0  0  0  0  0  0  0  0  0  0  0  0
   -2.8610   21.1870  -32.5850 C   0  0  0  0  0  0  0  0  0  0  0  0
   -1.8180   21.4250  -31.6820 C   0  0  0  0  0  0  0  0  0  0  0  0
   -0.5050   21.2430  -31.9920 C   0  0  0  0  0  0  0  0  0  0  0  0
   -0.1780   20.8140  -33.2250 N   0  0  0  0  0  0  0  0  0  0  0  0
   -1.1290   20.5650  -34.1450 C   0  0  0  0  0  0  0  0  0  0  0  0
   -2.4620   20.7480  -33.8360 C   0  0  0  0  0  0  0  0  0  0  0  0
   -5.1650   20.5850  -32.7620 N   0  0  0  0  0  0  0  0  0  0  0  0
   -6.4600   20.7490  -32.4410 C   0  0  0  0  0  0  0  0  0  0  0  0
   -7.3490   19.8720  -33.0570 C   0  0  0  0  0  0  0  0  0  0  0  0
   -8.6720   20.0580  -32.7220 C   0  0  0  0  0  0  0  0  0  0  0  0
   -9.1420   21.0030  -31.8680 C   0  0  0  0  0  0  0  0  0  0  0  0
   -8.2210   21.8810  -31.2540 C   0  0  0  0  0  0  0  0  0  0  0  0
   -6.9110   21.7190  -31.5630 C   0  0  0  0  0  0  0  0  0  0  0  0
   -4.1300   24.1520  -30.2140 H   0  0  0  0  0  0  0  0  0  0  0  0
   -5.3684   26.4459  -29.7642 H   0  0  0  0  0  0  0  0  0  0  0  0
   -5.4449   26.1514  -31.5690 H   0  0  0  0  0  0  0  0  0  0  0  0
   -7.0652   25.0966  -29.5167 H   0  0  0  0  0  0  0  0  0  0  0  0
   -7.0143   24.7754  -31.3593 H   0  0  0  0  0  0  0  0  0  0  0  0
   -3.9400   22.9520  -30.9470 H   0  0  0  0  0  0  0  0  0  0  0  0
   -2.0722   21.7767  -30.6712 H   0  0  0  0  0  0  0  0  0  0  0  0
    0.2775   21.4437  -31.2454 H   0  0  0  0  0  0  0  0  0  0  0  0
   -0.8425   20.2142  -35.1474 H   0  0  0  0  0  0  0  0  0  0  0  0
   -3.2245   20.5403  -34.6011 H   0  0  0  0  0  0  0  0  0  0  0  0
   -7.0199   19.0904  -33.7576 H   0  0  0  0  0  0  0  0  0  0  0  0
   -9.4089   19.3851  -33.1848 H   0  0  0  0  0  0  0  0  0  0  0  0
  -10.2188   21.0835  -31.6582 H   0  0  0  0  0  0  0  0  0  0  0  0
   -8.5528   22.6628  -30.5549 H   0  0  0  0  0  0  0  0  0  0  0  0
  1  2  1  0
  2  3  1  0
  3  4  1  0
  4  5  2  0
  5  6  1  0
  6  7  1  0
  7  8  1  0
  8  9  2  0
  9 10  1  0
 10 11  2  0
 11 12  1  0
 12 13  2  0
  7 14  2  0
 14 15  1  0
 15 16  2  0
 16 17  1  0
 17 18  2  0
 18 19  1  0
 19 20  2  0
 20  5  1  0
 13  8  1  0
 20 15  1  0
  1 21  1  0
  2 22  1  0
  2 23  1  0
  3 24  1  0
  3 25  1  0
  6 26  1  0
  9 27  1  0
 10 28  1  0
 12 29  1  0
 13 30  1  0
 16 31  1  0
 17 32  1  0
 18 33  1  0
 19 34  1  0
M  END
>  <smiles>  (23) 
OCCN=c1[nH]c(-c2ccncc2)nc2ccccc12

>  <score_type>  (23) 
oracle

>  <origin>  (23) 
adg

>  <m_score__min__energy>  (23) 
-8.0600000000000005

>  <m_primary>  (23) 
energy

$$$$
23:0
     RDKit          3D

 54 56  0  0  0  0  0  0  0  0999 V2000
   -8.8980   19.5030  -31.8580 C   0  0  0  0  0  0  0  0  0  0  0  0
   -8.1730   19.6010  -33.1270 N   0  0  0  0  0  0  0  0  0  0  0  0
   -6.9530   20.3570  -32.9540 C   0  0  0  0  0  0  0  0  0  0  0  0
   -7.0280   21.7110  -32.5810 C   0  0  0  0  0  0  0  0  0  0  0  0
   -5.8660   22.4730  -32.4170 C   0  0  0  0  0  0  0  0  0  0  0  0
   -5.9830   24.1950  -31.9270 S   0  0  0  0  0  0  0  0  0  0  0  0
   -4.9890   23.9400  -30.4530 C   0  0  0  0  0  0  0  0  0  0  0  0
   -3.8560   24.7370  -30.2480 C   0  0  0  0  0  0  0  0  0  0  0  0
   -3.0610   24.5520  -29.1160 C   0  0  0  0  0  0  0  0  0  0  0  0
   -3.3960   23.5700  -28.1810 C   0  0  0  0  0  0  0  0  0  0  0  0
   -4.5280   22.7730  -28.3750 C   0  0  0  0  0  0  0  0  0  0  0  0
   -5.3370   22.9520  -29.5150 C   0  0  0  0  0  0  0  0  0  0  0  0
   -6.4840   22.1740  -29.7440 O   0  0  0  0  0  0  0  0  0  0  0  0
   -7.8180   22.6620  -29.6660 C   0  0  0  0  0  0  0  0  0  0  0  0
   -4.6160   21.8920  -32.6360 C   0  0  0  0  0  0  0  0  0  0  0  0
   -4.5220   20.5490  -33.0040 C   0  0  0  0  0  0  0  0  0  0  0  0
   -5.6790   19.7740  -33.1680 C   0  0  0  0  0  0  0  0  0  0  0  0
   -5.5370   18.3930  -33.5290 N   0  0  0  0  0  0  0  0  0  0  0  0
   -5.3710   18.0100  -34.9300 C   0  0  0  0  0  0  0  0  0  0  0  0
   -4.3000   16.9080  -35.0960 C   0  0  0  0  0  0  0  0  0  0  0  0
   -4.1270   16.0120  -33.9030 N   0  0  0  0  0  0  0  0  0  0  0  0
   -3.8550   14.6300  -34.3700 C   0  0  0  0  0  0  0  0  0  0  0  0
   -2.9540   16.4540  -33.1020 C   0  0  0  0  0  0  0  0  0  0  0  0
   -5.3500   15.9780  -33.0520 C   0  0  0  0  0  0  0  0  0  0  0  0
   -5.7150   17.3660  -32.5020 C   0  0  0  0  0  0  0  0  0  0  0  0
   -8.1891   19.5988  -31.0224 H   0  0  0  0  0  0  0  0  0  0  0  0
   -9.6450   20.3083  -31.7993 H   0  0  0  0  0  0  0  0  0  0  0  0
   -9.4044   18.5282  -31.7993 H   0  0  0  0  0  0  0  0  0  0  0  0
   -8.7960   20.0370  -33.8440 H   0  0  0  0  0  0  0  0  0  0  0  0
   -7.9410   18.6370  -33.4620 H   0  0  0  0  0  0  0  0  0  0  0  0
   -8.0111   22.1761  -32.4164 H   0  0  0  0  0  0  0  0  0  0  0  0
   -3.5915   25.5121  -30.9823 H   0  0  0  0  0  0  0  0  0  0  0  0
   -2.1709   25.1793  -28.9602 H   0  0  0  0  0  0  0  0  0  0  0  0
   -2.7677   23.4234  -27.2900 H   0  0  0  0  0  0  0  0  0  0  0  0
   -4.7885   22.0025  -27.6344 H   0  0  0  0  0  0  0  0  0  0  0  0
   -8.1084   22.7682  -28.6104 H   0  0  0  0  0  0  0  0  0  0  0  0
   -7.8800   23.6410  -30.1637 H   0  0  0  0  0  0  0  0  0  0  0  0
   -8.4971   21.9541  -30.1637 H   0  0  0  0  0  0  0  0  0  0  0  0
   -3.7029   22.4939  -32.5183 H   0  0  0  0  0  0  0  0  0  0  0  0
   -3.5332   20.0953  -33.1665 H   0  0  0  0  0  0  0  0  0  0  0  0
   -6.3313   17.6351  -35.3137 H   0  0  0  0  0  0  0  0  0  0  0  0
   -5.0422   18.8965  -35.4922 H   0  0  0  0  0  0  0  0  0  0  0  0
   -4.5832   16.2825  -35.9554 H   0  0  0  0  0  0  0  0  0  0  0  0
   -3.3404   17.4276  -35.2344 H   0  0  0  0  0  0  0  0  0  0  0  0
   -3.7248   13.9683  -33.5010 H   0  0  0  0  0  0  0  0  0  0  0  0
   -4.7005   14.2752  -34.9776 H   0  0  0  0  0  0  0  0  0  0  0  0
   -2.9381   14.6221  -34.9776 H   0  0  0  0  0  0  0  0  0  0  0  0
   -3.1874   16.3660  -32.0307 H   0  0  0  0  0  0  0  0  0  0  0  0
   -2.0869   15.8209  -33.3415 H   0  0  0  0  0  0  0  0  0  0  0  0
   -2.7203   17.5019  -33.3415 H   0  0  0  0  0  0  0  0  0  0  0  0
   -6.1905   15.6039  -33.6550 H   0  0  0  0  0  0  0  0  0  0  0  0
   -5.1463   15.3188  -32.1953 H   0  0  0  0  0  0  0  0  0  0  0  0
   -6.7654   17.3602  -32.1755 H   0  0  0  0  0  0  0  0  0  0  0  0
   -5.0529   17.5955  -31.6541 H   0  0  0  0  0  0  0  0  0  0  0  0
  1  2  1  0
  2  3  1  0
  3  4  2  0
  4  5  1  0
  5  6  1  0
  6  7  1  0
  7  8  2  0
  8  9  1  0
  9 10  2  0
 10 11  1  0
 11 12  2  0
 12 13  1  0
 13 14  1  0
  5 15  2  0
 15 16  1  0
 16 17  2  0
 17 18  1  0
 18 19  1  0
 19 20  1  0
 20 21  1  0
 21 22  1  0
 21 23  1  0
 21 24  1  0
 24 25  1  0
 17  3  1  0
 25 18  1  0
 12  7  1  0
  1 26  1  0
  1 27  1  0
  1 28  1  0
  2 29  1  0
  2 30  1  0
  4 31  1  0
  8 32  1  0
  9 33  1  0
 10 34  1  0
 11 35  1  0
 14 36  1  0
 14 37  1  0
 14 38  1  0
 15 39  1  0
 16 40  1  0
 19 41  1  0
 19 42  1  0
 20 43  1  0
 20 44  1  0
 22 45  1  0
 22 46  1  0
 22 47  1  0
 23 48  1  0
 23 49  1  0
 23 50  1  0
 24 51  1  0
 24 52  1  0
 25 53  1  0
 25 54  1  0
M  CHG  2   2   1  21   1
M  END
>  <UniqueID>  (24) 
23

>  <SMILES>  (24) 
C[NH2+]c1cc(Sc2ccccc2OC)ccc1N1CC[N+](C)(C)CC1

>  <Energy>  (24) 
66.98506764385525

>  <Genealogy>  (24) 
C[NH2+]c1cc(Sc2ccccc2OC)ccc1N1CC[N+](C)(C)CC1 (protonated)
C[NH2+]c1cc(Sc2ccccc2OC)ccc1N1CC[N+](C)(C)CC1 (3D coordinates assigned)
C[NH2+]c1cc(Sc2ccccc2OC)ccc1N1CC[N+](C)(C)CC1 (nonaromatic ring conformer: 66.98506764385525 kcal/mol)

>  <smiles>  (24) 
CNc1cc(Sc2ccccc2OC)ccc1N1CC[N+](C)(C)CC1

>  <score_type>  (24) 
oracle

>  <origin>  (24) 
adg

>  <m_score__min__energy>  (24) 
-7.3099999999999996

>  <m_primary>  (24) 
energy

$$$$
24:0
     RDKit          3D

 42 44  0  0  0  0  0  0  0  0999 V2000
   -8.9480   19.3700  -31.6190 C   0  0  0  0  0  0  0  0  0  0  0  0
   -8.6610   20.7070  -32.2930 C   0  0  0  0  0  0  0  0  0  0  0  0
   -7.2180   20.9100  -32.4360 N   0  0  0  0  0  0  0  0  0  0  0  0
   -6.4610   21.9400  -31.9690 C   0  0  0  0  0  0  0  0  0  0  0  0
   -7.1120   23.3430  -31.0570 S   0  0  0  0  0  0  0  0  0  0  0  0
   -5.8270   24.5240  -31.6080 C   0  0  0  0  0  0  0  0  0  0  0  0
   -5.2390   25.3140  -30.4370 C   0  0  0  0  0  0  0  0  0  0  0  0
   -3.8140   25.2080  -30.4090 O   0  0  0  0  0  0  0  0  0  0  0  0
   -3.0650   24.1840  -29.8040 C   0  0  0  0  0  0  0  0  0  0  0  0
   -3.4090   22.8220  -29.9170 C   0  0  0  0  0  0  0  0  0  0  0  0
   -2.6400   21.8450  -29.2830 C   0  0  0  0  0  0  0  0  0  0  0  0
   -1.5180   22.2100  -28.5400 C   0  0  0  0  0  0  0  0  0  0  0  0
   -1.1580   23.5550  -28.4310 C   0  0  0  0  0  0  0  0  0  0  0  0
   -1.9270   24.5510  -29.0640 C   0  0  0  0  0  0  0  0  0  0  0  0
   -1.6060   25.9130  -28.9670 O   0  0  0  0  0  0  0  0  0  0  0  0
   -0.8790   26.4960  -27.8900 C   0  0  0  0  0  0  0  0  0  0  0  0
   -5.1400   21.8150  -32.2600 N   0  0  0  0  0  0  0  0  0  0  0  0
   -5.0840   20.6460  -32.9190 C   0  0  0  0  0  0  0  0  0  0  0  0
   -3.9600   20.0150  -33.4400 C   0  0  0  0  0  0  0  0  0  0  0  0
   -4.1600   18.7800  -34.0820 C   0  0  0  0  0  0  0  0  0  0  0  0
   -5.4190   18.2420  -34.1770 N   0  0  0  0  0  0  0  0  0  0  0  0
   -6.5170   18.8730  -33.6610 C   0  0  0  0  0  0  0  0  0  0  0  0
   -6.3250   20.0980  -33.0250 C   0  0  0  0  0  0  0  0  0  0  0  0
   -8.9208   19.4967  -30.5267 H   0  0  0  0  0  0  0  0  0  0  0  0
   -9.9433   19.0128  -31.9220 H   0  0  0  0  0  0  0  0  0  0  0  0
   -8.1870   18.6358  -31.9220 H   0  0  0  0  0  0  0  0  0  0  0  0
   -9.1285   20.7182  -33.2886 H   0  0  0  0  0  0  0  0  0  0  0  0
   -9.0739   21.5148  -31.6710 H   0  0  0  0  0  0  0  0  0  0  0  0
   -5.0184   23.9651  -32.1017 H   0  0  0  0  0  0  0  0  0  0  0  0
   -6.2951   25.2387  -32.3008 H   0  0  0  0  0  0  0  0  0  0  0  0
   -5.5186   26.3727  -30.5414 H   0  0  0  0  0  0  0  0  0  0  0  0
   -5.6388   24.8993  -29.4999 H   0  0  0  0  0  0  0  0  0  0  0  0
   -4.2886   22.5273  -30.5082 H   0  0  0  0  0  0  0  0  0  0  0  0
   -2.9197   20.7847  -29.3697 H   0  0  0  0  0  0  0  0  0  0  0  0
   -0.9157   21.4377  -28.0391 H   0  0  0  0  0  0  0  0  0  0  0  0
   -0.2693   23.8380  -27.8478 H   0  0  0  0  0  0  0  0  0  0  0  0
   -1.3037   26.1555  -26.9341 H   0  0  0  0  0  0  0  0  0  0  0  0
    0.1760   26.1907  -27.9520 H   0  0  0  0  0  0  0  0  0  0  0  0
   -0.9478   27.5921  -27.9520 H   0  0  0  0  0  0  0  0  0  0  0  0
   -2.9586   20.4620  -33.3538 H   0  0  0  0  0  0  0  0  0  0  0  0
   -3.3019   18.2417  -34.5108 H   0  0  0  0  0  0  0  0  0  0  0  0
   -7.5194   18.4280  -33.7452 H   0  0  0  0  0  0  0  0  0  0  0  0
  1  2  1  0
  2  3  1  0
  3  4  1  0
  4  5  1  0
  5  6  1  0
  6  7  1  0
  7  8  1  0
  8  9  1  0
  9 10  2  0
 10 11  1  0
 11 12  2  0
 12 13  1  0
 13 14  2  0
 14 15  1  0
 15 16  1  0
  4 17  2  0
 17 18  1  0
 18 19  2  0
 19 20  1  0
 20 21  2  0
 21 22  1  0
 22 23  2  0
 23  3  1  0
 14  9  1  0
 23 18  1  0
  1 24  1  0
  1 25  1  0
  1 26  1  0
  2 27  1  0
  2 28  1  0
  6 29  1  0
  6 30  1  0
  7 31  1  0
  7 32  1  0
 10 33  1  0
 11 34  1  0
 12 35  1  0
 13 36  1  0
 16 37  1  0
 16 38  1  0
 16 39  1  0
 19 40  1  0
 20 41  1  0
 22 42  1  0
M  END
>  <UniqueID>  (25) 
24

>  <SMILES>  (25) 
CCn1c(SCCOc2ccccc2OC)nc2ccncc21

>  <Energy>  (25) 
75.2729161261621

>  <Genealogy>  (25) 
CCn1c(SCCOc2ccccc2OC)nc2ccncc21 (3D coordinates assigned)
CCn1c(SCCOc2ccccc2OC)nc2ccncc21 (optimized conformer: 75.2729161261621 kcal/mol)

>  <smiles>  (25) 
CCn1c(SCCOc2ccccc2OC)nc2ccncc21

>  <score_type>  (25) 
oracle

>  <origin>  (25) 
adg

>  <m_score__min__energy>  (25) 
-8.8000000000000007

>  <m_primary>  (25) 
energy

$$$$
25:0
     RDKit          3D

 41 42  0  0  0  0  0  0  0  0999 V2000
   -1.1720   26.0340  -27.6350 C   0  0  0  0  0  0  0  0  0  0  0  0
   -1.6420   25.6980  -28.9360 O   0  0  0  0  0  0  0  0  0  0  0  0
   -1.9380   24.3950  -29.3640 C   0  0  0  0  0  0  0  0  0  0  0  0
   -1.0900   23.3070  -29.0810 C   0  0  0  0  0  0  0  0  0  0  0  0
   -1.3970   22.0190  -29.5470 C   0  0  0  0  0  0  0  0  0  0  0  0
   -0.4670   20.8620  -29.2530 C   0  0  0  0  0  0  0  0  0  0  0  0
   -0.3270   20.5690  -27.8100 N   0  0  0  0  0  0  0  0  0  0  0  0
   -1.4100   21.0870  -26.9390 C   0  0  0  0  0  0  0  0  0  0  0  0
   -1.9710   20.0360  -25.9720 C   0  0  0  0  0  0  0  0  0  0  0  0
   -2.1720   18.7110  -26.6980 C   0  0  0  0  0  0  0  0  0  0  0  0
   -0.8430   18.1590  -27.2310 C   0  0  0  0  0  0  0  0  0  0  0  0
    0.2320   19.2430  -27.4660 C   0  0  0  0  0  0  0  0  0  0  0  0
   -2.5880   21.8160  -30.2580 C   0  0  0  0  0  0  0  0  0  0  0  0
   -3.4370   22.8870  -30.5350 C   0  0  0  0  0  0  0  0  0  0  0  0
   -3.1180   24.1850  -30.0930 C   0  0  0  0  0  0  0  0  0  0  0  0
   -3.9380   25.2950  -30.3590 O   0  0  0  0  0  0  0  0  0  0  0  0
   -5.3650   25.3100  -30.3110 C   0  0  0  0  0  0  0  0  0  0  0  0
   -5.9620   24.5370  -31.4850 C   0  0  0  0  0  0  0  0  0  0  0  0
   -7.1350   23.1270  -30.8520 Br  0  0  0  0  0  0  0  0  0  0  0  0
   -1.8220   25.5693  -26.8790 H   0  0  0  0  0  0  0  0  0  0  0  0
   -0.1431   25.6655  -27.5103 H   0  0  0  0  0  0  0  0  0  0  0  0
   -1.1877   27.1268  -27.5103 H   0  0  0  0  0  0  0  0  0  0  0  0
   -0.1773   23.4681  -28.4885 H   0  0  0  0  0  0  0  0  0  0  0  0
   -0.8588   19.9645  -29.7540 H   0  0  0  0  0  0  0  0  0  0  0  0
    0.5291   21.1456  -29.6235 H   0  0  0  0  0  0  0  0  0  0  0  0
   -1.0117   21.9258  -26.3492 H   0  0  0  0  0  0  0  0  0  0  0  0
   -2.2357   21.3957  -27.5970 H   0  0  0  0  0  0  0  0  0  0  0  0
   -1.2646   19.8922  -25.1411 H   0  0  0  0  0  0  0  0  0  0  0  0
   -2.9394   20.3844  -25.5837 H   0  0  0  0  0  0  0  0  0  0  0  0
   -2.6080   17.9821  -25.9990 H   0  0  0  0  0  0  0  0  0  0  0  0
   -2.8440   18.8819  -27.5520 H   0  0  0  0  0  0  0  0  0  0  0  0
   -0.4512   17.4341  -26.5023 H   0  0  0  0  0  0  0  0  0  0  0  0
   -1.0550   17.7005  -28.2081 H   0  0  0  0  0  0  0  0  0  0  0  0
    0.8289   19.3452  -26.5477 H   0  0  0  0  0  0  0  0  0  0  0  0
    0.8366   18.9159  -28.3248 H   0  0  0  0  0  0  0  0  0  0  0  0
   -2.8546   20.8050  -30.5997 H   0  0  0  0  0  0  0  0  0  0  0  0
   -4.3632   22.7163  -31.1033 H   0  0  0  0  0  0  0  0  0  0  0  0
   -5.6978   24.8478  -29.3699 H   0  0  0  0  0  0  0  0  0  0  0  0
   -5.7059   26.3542  -30.3702 H   0  0  0  0  0  0  0  0  0  0  0  0
   -6.5376   25.2288  -32.1176 H   0  0  0  0  0  0  0  0  0  0  0  0
   -5.1432   24.0833  -32.0627 H   0  0  0  0  0  0  0  0  0  0  0  0
  1  2  1  0
  2  3  1  0
  3  4  2  0
  4  5  1  0
  5  6  1  0
  6  7  1  0
  7  8  1  0
  8  9  1  0
  9 10  1  0
 10 11  1  0
 11 12  1  0
  5 13  2  0
 13 14  1  0
 14 15  2  0
 15 16  1  0
 16 17  1  0
 17 18  1  0
 18 19  1  0
 15  3  1  0
 12  7  1  0
  1 20  1  0
  1 21  1  0
  1 22  1  0
  4 23  1  0
  6 24  1  0
  6 25  1  0
  8 26  1  0
  8 27  1  0
  9 28  1  0
  9 29  1  0
 10 30  1  0
 10 31  1  0
 11 32  1  0
 11 33  1  0
 12 34  1  0
 12 35  1  0
 13 36  1  0
 14 37  1  0
 17 38  1  0
 17 39  1  0
 18 40  1  0
 18 41  1  0
M  END
>  <UniqueID>  (26) 
25

>  <SMILES>  (26) 
COc1cc(CN2CCCCC2)ccc1OCCBr

>  <Energy>  (26) 
48.14829408133189

>  <Genealogy>  (26) 
COc1cc(CN2CCCCC2)ccc1OCCBr (3D coordinates assigned)
COc1cc(CN2CCCCC2)ccc1OCCBr (nonaromatic ring conformer: 48.14829408133189 kcal/mol)

>  <smiles>  (26) 
COc1cc(CN2CCCCC2)ccc1OCCBr

>  <score_type>  (26) 
oracle

>  <origin>  (26) 
adg

>  <m_score__min__energy>  (26) 
-7.6299999999999999

>  <m_primary>  (26) 
energy

$$$$
26:0
     RDKit          3D

 42 44  0  0  0  0  0  0  0  0999 V2000
   -6.1580   25.4540  -29.4070 C   0  0  0  0  0  0  0  0  0  0  0  0
   -5.1440   24.4160  -28.9330 C   0  0  0  0  0  0  0  0  0  0  0  0
   -3.9940   24.2710  -29.8950 C   0  0  0  0  0  0  0  0  0  0  0  0
   -3.5400   25.2980  -30.4710 O   0  0  0  0  0  0  0  0  0  0  0  0
   -3.4170   22.9820  -30.1910 N   0  0  0  0  0  0  0  0  0  0  0  0
   -3.3880   22.4480  -31.5640 C   0  0  0  0  0  0  0  0  0  0  0  0
   -4.7220   22.0000  -31.9650 N   0  0  0  0  0  0  0  0  0  0  0  0
   -5.9060   22.8020  -31.9810 C   0  0  0  0  0  0  0  0  0  0  0  0
   -5.9100   24.0610  -31.9850 O   0  0  0  0  0  0  0  0  0  0  0  0
   -7.0900   21.9510  -31.9720 C   0  0  0  0  0  0  0  0  0  0  0  0
   -8.4440   22.2780  -31.9620 C   0  0  0  0  0  0  0  0  0  0  0  0
   -9.3760   21.2250  -31.9250 C   0  0  0  0  0  0  0  0  0  0  0  0
   -8.9390   19.8820  -31.8920 C   0  0  0  0  0  0  0  0  0  0  0  0
   -7.5650   19.5810  -31.8960 C   0  0  0  0  0  0  0  0  0  0  0  0
   -6.6620   20.6420  -31.9390 C   0  0  0  0  0  0  0  0  0  0  0  0
   -5.2050   20.6540  -31.9290 C   0  0  0  0  0  0  0  0  0  0  0  0
   -4.4650   19.6350  -31.8840 O   0  0  0  0  0  0  0  0  0  0  0  0
   -2.6640   22.3140  -29.1620 C   0  0  0  0  0  0  0  0  0  0  0  0
   -3.1180   21.0850  -28.6550 C   0  0  0  0  0  0  0  0  0  0  0  0
   -2.4030   20.4240  -27.6540 C   0  0  0  0  0  0  0  0  0  0  0  0
   -2.8520   19.2400  -27.1710 F   0  0  0  0  0  0  0  0  0  0  0  0
   -1.2230   20.9790  -27.1560 C   0  0  0  0  0  0  0  0  0  0  0  0
   -0.7550   22.1950  -27.6570 C   0  0  0  0  0  0  0  0  0  0  0  0
   -1.4720   22.8800  -28.6520 C   0  0  0  0  0  0  0  0  0  0  0  0
   -0.9280   24.1770  -29.1880 C   0  0  0  0  0  0  0  0  0  0  0  0
   -6.6266   25.9337  -28.5350 H   0  0  0  0  0  0  0  0  0  0  0  0
   -5.6466   26.2158  -30.0138 H   0  0  0  0  0  0  0  0  0  0  0  0
   -6.9315   24.9605  -30.0138 H   0  0  0  0  0  0  0  0  0  0  0  0
   -4.7508   24.7251  -27.9533 H   0  0  0  0  0  0  0  0  0  0  0  0
   -5.6568   23.4451  -28.8673 H   0  0  0  0  0  0  0  0  0  0  0  0
   -3.0481   23.2359  -32.2523 H   0  0  0  0  0  0  0  0  0  0  0  0
   -2.6983   21.5918  -31.5995 H   0  0  0  0  0  0  0  0  0  0  0  0
   -8.7742   23.3271  -31.9824 H   0  0  0  0  0  0  0  0  0  0  0  0
  -10.4530   21.4490  -31.9217 H   0  0  0  0  0  0  0  0  0  0  0  0
   -9.6773   19.0671  -31.8630 H   0  0  0  0  0  0  0  0  0  0  0  0
   -7.2135   18.5391  -31.8661 H   0  0  0  0  0  0  0  0  0  0  0  0
   -4.0435   20.6401  -29.0494 H   0  0  0  0  0  0  0  0  0  0  0  0
   -0.6609   20.4573  -26.3674 H   0  0  0  0  0  0  0  0  0  0  0  0
    0.1826   22.6202  -27.2696 H   0  0  0  0  0  0  0  0  0  0  0  0
   -0.6526   24.8335  -28.3495 H   0  0  0  0  0  0  0  0  0  0  0  0
   -0.0387   23.9753  -29.8031 H   0  0  0  0  0  0  0  0  0  0  0  0
   -1.6951   24.6701  -29.8031 H   0  0  0  0  0  0  0  0  0  0  0  0
  1  2  1  0
  2  3  1  0
  3  4  2  0
  3  5  1  0
  5  6  1  0
  6  7  1  0
  7  8  1  0
  8  9  2  0
  8 10  1  0
 10 11  2  0
 11 12  1  0
 12 13  2  0
 13 14  1  0
 14 15  2  0
 15 16  1  0
 16 17  2  0
  5 18  1  0
 18 19  2  0
 19 20  1  0
 20 21  1  0
 20 22  2  0
 22 23  1  0
 23 24  2  0
 24 25  1  0
 16  7  1  0
 24 18  1  0
 15 10  1  0
  1 26  1  0
  1 27  1  0
  1 28  1  0
  2 29  1  0
  2 30  1  0
  6 31  1  0
  6 32  1  0
 11 33  1  0
 12 34  1  0
 13 35  1  0
 14 36  1  0
 19 37  1  0
 22 38  1  0
 23 39  1  0
 25 40  1  0
 25 41  1  0
 25 42  1  0
M  END
>  <UniqueID>  (27) 
26

>  <SMILES>  (27) 
CCC(=O)N(CN1C(=O)c2ccccc2C1=O)c1cc(F)ccc1C

>  <Energy>  (27) 
78.46775405850815

>  <Genealogy>  (27) 
CCC(=O)N(CN1C(=O)c2ccccc2C1=O)c1cc(F)ccc1C (3D coordinates assigned)
CCC(=O)N(CN1C(=O)c2ccccc2C1=O)c1cc(F)ccc1C (nonaromatic ring conformer: 78.46775405850815 kcal/mol)

>  <smiles>  (27) 
CCC(=O)N(CN1C(=O)c2ccccc2C1=O)c1cc(F)ccc1C

>  <score_type>  (27) 
oracle

>  <origin>  (27) 
adg

>  <m_score__min__energy>  (27) 
-8.4800000000000004

>  <m_primary>  (27) 
energy

$$$$
27:0
     RDKit          3D

 47 49  0  0  0  0  0  0  0  0999 V2000
   -9.7014   18.3882  -31.7553 H   0  0  0  0  0  0  0  0  0  0  0  0
   -8.7190   18.8270  -31.9840 C   0  0  0  0  0  0  0  0  0  0  0  0
   -8.6450   20.2970  -32.1240 C   0  0  0  0  0  0  0  0  0  0  0  0
   -9.5630   20.9120  -32.7340 O   0  0  0  0  0  0  0  0  0  0  0  0
   -7.5650   21.0330  -31.5040 N   0  0  0  0  0  0  0  0  0  0  0  0
   -6.9960   20.3670  -30.9270 H   0  0  0  0  0  0  0  0  0  0  0  0
   -6.6780   21.6110  -32.5420 C   0  0  0  0  0  0  0  0  0  0  0  0
   -7.3039   22.0139  -33.3519 H   0  0  0  0  0  0  0  0  0  0  0  0
   -6.0168   20.8049  -32.8928 H   0  0  0  0  0  0  0  0  0  0  0  0
   -5.7750   22.7460  -32.0080 C   0  0  0  0  0  0  0  0  0  0  0  0
   -6.1667   23.7098  -32.3654 H   0  0  0  0  0  0  0  0  0  0  0  0
   -4.7538   22.5708  -32.3774 H   0  0  0  0  0  0  0  0  0  0  0  0
   -5.7300   22.7670  -30.5410 N   0  0  0  0  0  0  0  0  0  0  0  0
   -4.4900   23.0350  -29.8650 C   0  0  0  0  0  0  0  0  0  0  0  0
   -3.9170   22.0430  -29.0550 C   0  0  0  0  0  0  0  0  0  0  0  0
   -4.4425   21.0883  -28.9050 H   0  0  0  0  0  0  0  0  0  0  0  0
   -2.6830   22.2610  -28.4380 C   0  0  0  0  0  0  0  0  0  0  0  0
   -2.2385   21.4774  -27.8068 H   0  0  0  0  0  0  0  0  0  0  0  0
   -2.0140   23.4700  -28.6210 C   0  0  0  0  0  0  0  0  0  0  0  0
   -1.0414   23.6380  -28.1353 H   0  0  0  0  0  0  0  0  0  0  0  0
   -2.5760   24.4690  -29.4200 C   0  0  0  0  0  0  0  0  0  0  0  0
   -2.0432   25.4210  -29.5607 H   0  0  0  0  0  0  0  0  0  0  0  0
   -3.8220   24.2640  -30.0470 C   0  0  0  0  0  0  0  0  0  0  0  0
   -4.4340   25.2510  -30.8380 O   0  0  0  0  0  0  0  0  0  0  0  0
   -5.7620   25.7480  -30.6730 C   0  0  0  0  0  0  0  0  0  0  0  0
   -6.4498   25.1536  -31.2924 H   0  0  0  0  0  0  0  0  0  0  0  0
   -5.7861   26.8034  -30.9821 H   0  0  0  0  0  0  0  0  0  0  0  0
   -6.1940   25.6540  -29.2140 C   0  0  0  0  0  0  0  0  0  0  0  0
   -5.3281   25.8424  -28.5623 H   0  0  0  0  0  0  0  0  0  0  0  0
   -6.9738   26.4035  -29.0135 H   0  0  0  0  0  0  0  0  0  0  0  0
   -6.5919   24.6483  -29.0135 H   0  0  0  0  0  0  0  0  0  0  0  0
   -6.9710   22.6680  -29.7620 C   0  0  0  0  0  0  0  0  0  0  0  0
   -7.2632   23.6720  -29.4205 H   0  0  0  0  0  0  0  0  0  0  0  0
   -6.7944   22.0063  -28.9012 H   0  0  0  0  0  0  0  0  0  0  0  0
   -8.1030   22.0770  -30.6110 C   0  0  0  0  0  0  0  0  0  0  0  0
   -8.5607   22.8741  -31.2153 H   0  0  0  0  0  0  0  0  0  0  0  0
   -8.8604   21.6331  -29.9482 H   0  0  0  0  0  0  0  0  0  0  0  0
   -7.6830   17.9880  -32.1140 C   0  0  0  0  0  0  0  0  0  0  0  0
   -7.8358   16.9461  -31.7959 H   0  0  0  0  0  0  0  0  0  0  0  0
   -6.3510   18.3440  -32.6490 C   0  0  0  0  0  0  0  0  0  0  0  0
   -5.5340   19.1710  -32.0360 O   0  0  0  0  0  0  0  0  0  0  0  0
   -4.4520   19.3070  -32.7680 C   0  0  0  0  0  0  0  0  0  0  0  0
   -2.9580   20.3880  -32.2840 Br  0  0  0  0  0  0  0  0  0  0  0  0
   -4.5620   18.5560  -33.9190 C   0  0  0  0  0  0  0  0  0  0  0  0
   -3.8203   18.4681  -34.7266 H   0  0  0  0  0  0  0  0  0  0  0  0
   -5.7920   17.9380  -33.8500 C   0  0  0  0  0  0  0  0  0  0  0  0
   -6.2378   17.2621  -34.5946 H   0  0  0  0  0  0  0  0  0  0  0  0
  1  2  1  0
  2  3  1  0
  3  4  2  0
  3  5  1  0
  5  6  1  0
  5  7  1  0
  7  8  1  0
  7  9  1  0
  7 10  1  0
 10 11  1  0
 10 12  1  0
 10 13  1  0
 13 14  1  0
 14 15  2  0
 15 16  1  0
 15 17  1  0
 17 18  1  0
 17 19  2  0
 19 20  1  0
 19 21  1  0
 21 22  1  0
 21 23  2  0
 23 24  1  0
 24 25  1  0
 25 26  1  0
 25 27  1  0
 25 28  1  0
 28 29  1  0
 28 30  1  0
 28 31  1  0
 13 32  1  0
 32 33  1  0
 32 34  1  0
 32 35  1  0
 35 36  1  0
 35 37  1  0
  2 38  2  0
 38 39  1  0
 38 40  1  0
 40 41  1  0
 41 42  1  0
 42 43  1  0
 42 44  2  0
 44 45  1  0
 44 46  1  0
 46 47  1  0
 35  5  1  0
 46 40  2  0
 23 14  1  0
M  CHG  1   5   1
M  END
>  <UniqueID>  (28) 
27

>  <SMILES>  (28) 
CCOc1ccccc1N1CC[NH+](C(=O)/C=C\c2ccc(Br)o2)CC1

>  <Energy>  (28) 
90.92540996376823

>  <Genealogy>  (28) 
CCOc1ccccc1N1CC[NH+](C(=O)C=Cc2ccc(Br)o2)CC1 (protonated)
CCOc1ccccc1N1CC[NH+](C(=O)/C=C\c2ccc(Br)o2)CC1 (cis-trans isomerization)
CCOc1ccccc1N1CC[NH+](C(=O)/C=C\c2ccc(Br)o2)CC1 (3D coordinates assigned)
CCOc1ccccc1N1CC[NH+](C(=O)/C=C\c2ccc(Br)o2)CC1 (nonaromatic ring conformer: 90.92540996376823 kcal/mol)

>  <smiles>  (28) 
CCOc1ccccc1N1CCN(C(=O)C=Cc2ccc(Br)o2)CC1

>  <score_type>  (28) 
oracle

>  <origin>  (28) 
adg

>  <m_score__min__energy>  (28) 
-7.6100000000000003

>  <m_primary>  (28) 
energy

$$$$
28:0
     RDKit          3D

 41 43  0  0  0  0  0  0  0  0999 V2000
   -0.7577   22.2217  -27.6430 H   0  0  0  0  0  0  0  0  0  0  0  0
   -1.3580   23.0050  -28.1290 C   0  0  0  0  0  0  0  0  0  0  0  0
   -2.1300   22.8740  -29.6190 S   0  0  0  0  0  0  0  0  0  0  0  0
   -2.7540   24.4280  -29.5410 C   0  0  0  0  0  0  0  0  0  0  0  0
   -3.4920   24.9580  -30.4690 N   0  0  0  0  0  0  0  0  0  0  0  0
   -4.9140   25.2680  -30.3190 C   0  0  0  0  0  0  0  0  0  0  0  0
   -5.0865   25.6840  -29.3154 H   0  0  0  0  0  0  0  0  0  0  0  0
   -5.1953   25.9957  -31.0944 H   0  0  0  0  0  0  0  0  0  0  0  0
   -5.7760   24.0150  -30.4950 C   0  0  0  0  0  0  0  0  0  0  0  0
   -5.3124   23.1738  -29.9589 H   0  0  0  0  0  0  0  0  0  0  0  0
   -6.7804   24.2033  -30.0880 H   0  0  0  0  0  0  0  0  0  0  0  0
   -5.8840   23.6820  -31.9360 N   0  0  0  0  0  0  0  0  0  0  0  0
   -4.9730   22.5940  -32.3450 C   0  0  0  0  0  0  0  0  0  0  0  0
   -4.8529   22.6199  -33.4381 H   0  0  0  0  0  0  0  0  0  0  0  0
   -4.0064   22.7448  -31.8420 H   0  0  0  0  0  0  0  0  0  0  0  0
   -5.5230   21.2150  -31.9340 C   0  0  0  0  0  0  0  0  0  0  0  0
   -4.8534   20.4310  -32.3175 H   0  0  0  0  0  0  0  0  0  0  0  0
   -5.5766   21.1702  -30.8362 H   0  0  0  0  0  0  0  0  0  0  0  0
   -6.8200   21.0140  -32.4590 O   0  0  0  0  0  0  0  0  0  0  0  0
   -7.7030   21.9850  -31.9330 C   0  0  0  0  0  0  0  0  0  0  0  0
   -8.7190   21.7902  -32.3069 H   0  0  0  0  0  0  0  0  0  0  0  0
   -7.6838   21.9243  -30.8348 H   0  0  0  0  0  0  0  0  0  0  0  0
   -7.2700   23.3960  -32.3590 C   0  0  0  0  0  0  0  0  0  0  0  0
   -7.3341   23.4752  -33.4543 H   0  0  0  0  0  0  0  0  0  0  0  0
   -7.9379   24.1249  -31.8767 H   0  0  0  0  0  0  0  0  0  0  0  0
   -2.4010   25.0620  -28.4020 N   0  0  0  0  0  0  0  0  0  0  0  0
   -1.6110   24.2810  -27.6150 C   0  0  0  0  0  0  0  0  0  0  0  0
   -1.1340   24.7690  -26.3070 C   0  0  0  0  0  0  0  0  0  0  0  0
   -1.2520   26.3800  -25.8210 S   0  0  0  0  0  0  0  0  0  0  0  0
   -0.5290   26.1130  -24.3310 C   0  0  0  0  0  0  0  0  0  0  0  0
   -0.2210   27.1770  -23.3310 C   0  0  0  0  0  0  0  0  0  0  0  0
   -0.3386   26.7709  -22.3155 H   0  0  0  0  0  0  0  0  0  0  0  0
    0.8140   27.5225  -23.4702 H   0  0  0  0  0  0  0  0  0  0  0  0
   -0.9114   28.0219  -23.4702 H   0  0  0  0  0  0  0  0  0  0  0  0
   -0.1570   24.8220  -24.1980 N   0  0  0  0  0  0  0  0  0  0  0  0
    0.3420   24.4520  -23.3580 H   0  0  0  0  0  0  0  0  0  0  0  0
   -0.4770   24.0620  -25.2840 C   0  0  0  0  0  0  0  0  0  0  0  0
   -0.1040   22.6120  -25.3490 C   0  0  0  0  0  0  0  0  0  0  0  0
   -0.0015   22.2137  -24.3288 H   0  0  0  0  0  0  0  0  0  0  0  0
   -0.8882   22.0553  -25.8830 H   0  0  0  0  0  0  0  0  0  0  0  0
    0.8515   22.5028  -25.8830 H   0  0  0  0  0  0  0  0  0  0  0  0
  1  2  1  0
  2  3  1  0
  3  4  1  0
  4  5  2  0
  5  6  1  0
  6  7  1  0
  6  8  1  0
  6  9  1  0
  9 10  1  0
  9 11  1  0
  9 12  1  0
 12 13  1  0
 13 14  1  0
 13 15  1  0
 13 16  1  0
 16 17  1  0
 16 18  1  0
 16 19  1  0
 19 20  1  0
 20 21  1  0
 20 22  1  0
 20 23  1  0
 23 24  1  0
 23 25  1  0
  4 26  1  0
 26 27  1  0
 27 28  1  0
 28 29  1  0
 29 30  1  0
 30 31  1  0
 31 32  1  0
 31 33  1  0
 31 34  1  0
 30 35  2  0
 35 36  1  0
 35 37  1  0
 37 38  1  0
 38 39  1  0
 38 40  1  0
 38 41  1  0
 27  2  2  0
 37 28  2  0
 23 12  1  0
M  CHG  2  26  -1  35   1
M  END
>  <UniqueID>  (29) 
28

>  <SMILES>  (29) 
Cc1[nH+]c(C)c(-c2cs/c(=N/CCN3CCOCC3)[n-]2)s1

>  <Energy>  (29) 
105.01857306715965

>  <Genealogy>  (29) 
Cc1[nH+]c(C)c(-c2csc(=NCCN3CCOCC3)[n-]2)s1 (protonated)
Cc1[nH+]c(C)c(-c2cs/c(=N/CCN3CCOCC3)[n-]2)s1 (cis-trans isomerization)
Cc1[nH+]c(C)c(-c2cs/c(=N/CCN3CCOCC3)[n-]2)s1 (3D coordinates assigned)
Cc1[nH+]c(C)c(-c2cs/c(=N/CCN3CCOCC3)[n-]2)s1 (nonaromatic ring conformer: 105.01857306715965 kcal/mol)

>  <smiles>  (29) 
Cc1nc(C)c(-c2csc(=NCCN3CCOCC3)[nH]2)s1

>  <score_type>  (29) 
oracle

>  <origin>  (29) 
adg

>  <m_score__min__energy>  (29) 
-9.2699999999999996

>  <m_primary>  (29) 
energy

$$$$
29:0
     RDKit          3D

 40 42  0  0  0  0  0  0  0  0999 V2000
   -5.7470   16.9500  -31.6620 C   0  0  0  0  0  0  0  0  0  0  0  0
   -6.6640   17.5320  -32.6550 N   0  0  0  0  0  0  0  0  0  0  0  0
   -6.8070   16.6050  -33.7920 C   0  0  0  0  0  0  0  0  0  0  0  0
   -7.9730   17.8180  -32.0310 C   0  0  0  0  0  0  0  0  0  0  0  0
   -8.4970   19.2190  -32.4090 C   0  0  0  0  0  0  0  0  0  0  0  0
   -7.6300   19.9270  -33.3690 N   0  0  0  0  0  0  0  0  0  0  0  0
   -6.7750   20.8870  -32.7130 C   0  0  0  0  0  0  0  0  0  0  0  0
   -7.1160   22.2470  -32.6940 C   0  0  0  0  0  0  0  0  0  0  0  0
   -6.3060   23.1750  -32.0340 C   0  0  0  0  0  0  0  0  0  0  0  0
   -5.1260   22.7730  -31.3660 C   0  0  0  0  0  0  0  0  0  0  0  0
   -4.3210   23.7490  -30.6950 C   0  0  0  0  0  0  0  0  0  0  0  0
   -4.7070   24.9520  -30.7320 O   0  0  0  0  0  0  0  0  0  0  0  0
   -3.1120   23.4610  -29.9860 C   0  0  0  0  0  0  0  0  0  0  0  0
   -2.3970   24.5100  -29.3580 C   0  0  0  0  0  0  0  0  0  0  0  0
   -1.2140   24.2590  -28.6580 C   0  0  0  0  0  0  0  0  0  0  0  0
   -0.7140   22.9610  -28.5650 C   0  0  0  0  0  0  0  0  0  0  0  0
   -1.3960   21.9080  -29.1730 C   0  0  0  0  0  0  0  0  0  0  0  0
   -2.5800   22.1540  -29.8760 C   0  0  0  0  0  0  0  0  0  0  0  0
   -3.4020   20.8840  -30.6090 S   0  0  0  0  0  0  0  0  0  0  0  0
   -4.7970   21.3990  -31.3960 C   0  0  0  0  0  0  0  0  0  0  0  0
   -5.6050   20.4710  -32.0610 C   0  0  0  0  0  0  0  0  0  0  0  0
   -6.1094   17.1800  -30.6492 H   0  0  0  0  0  0  0  0  0  0  0  0
   -5.7044   15.8592  -31.7973 H   0  0  0  0  0  0  0  0  0  0  0  0
   -4.7418   17.3758  -31.7973 H   0  0  0  0  0  0  0  0  0  0  0  0
   -6.9645   15.5837  -33.4149 H   0  0  0  0  0  0  0  0  0  0  0  0
   -7.6692   16.9067  -34.4048 H   0  0  0  0  0  0  0  0  0  0  0  0
   -5.8939   16.6328  -34.4048 H   0  0  0  0  0  0  0  0  0  0  0  0
   -8.6997   17.0639  -32.3675 H   0  0  0  0  0  0  0  0  0  0  0  0
   -7.8444   17.7855  -30.9390 H   0  0  0  0  0  0  0  0  0  0  0  0
   -9.4960   19.1091  -32.8561 H   0  0  0  0  0  0  0  0  0  0  0  0
   -8.5190   19.8182  -31.4868 H   0  0  0  0  0  0  0  0  0  0  0  0
   -7.0660   19.2370  -33.9200 H   0  0  0  0  0  0  0  0  0  0  0  0
   -8.2390   20.4330  -34.0540 H   0  0  0  0  0  0  0  0  0  0  0  0
   -8.0298   22.5866  -33.2035 H   0  0  0  0  0  0  0  0  0  0  0  0
   -6.5913   24.2373  -32.0340 H   0  0  0  0  0  0  0  0  0  0  0  0
   -2.7793   25.5394  -29.4224 H   0  0  0  0  0  0  0  0  0  0  0  0
   -0.6749   25.0892  -28.1783 H   0  0  0  0  0  0  0  0  0  0  0  0
    0.2174   22.7679  -28.0126 H   0  0  0  0  0  0  0  0  0  0  0  0
   -1.0028   20.8833  -29.0999 H   0  0  0  0  0  0  0  0  0  0  0  0
   -5.3211   19.4083  -32.0727 H   0  0  0  0  0  0  0  0  0  0  0  0
  1  2  1  0
  2  3  1  0
  2  4  1  0
  4  5  1  0
  5  6  1  0
  6  7  1  0
  7  8  2  0
  8  9  1  0
  9 10  2  0
 10 11  1  0
 11 12  2  0
 11 13  1  0
 13 14  2  0
 14 15  1  0
 15 16  2  0
 16 17  1  0
 17 18  2  0
 18 19  1  0
 19 20  1  0
 20 21  2  0
 21  7  1  0
 20 10  1  0
 18 13  1  0
  1 22  1  0
  1 23  1  0
  1 24  1  0
  3 25  1  0
  3 26  1  0
  3 27  1  0
  4 28  1  0
  4 29  1  0
  5 30  1  0
  5 31  1  0
  6 32  1  0
  6 33  1  0
  8 34  1  0
  9 35  1  0
 14 36  1  0
 15 37  1  0
 16 38  1  0
 17 39  1  0
 21 40  1  0
M  CHG  1   6   1
M  END
>  <UniqueID>  (30) 
29

>  <SMILES>  (30) 
CN(C)CC[NH2+]c1ccc2c(=O)c3ccccc3sc2c1

>  <Energy>  (30) 
54.051299847400784

>  <Genealogy>  (30) 
CN(C)CC[NH2+]c1ccc2c(=O)c3ccccc3sc2c1 (protonated)
CN(C)CC[NH2+]c1ccc2c(=O)c3ccccc3sc2c1 (3D coordinates assigned)
CN(C)CC[NH2+]c1ccc2c(=O)c3ccccc3sc2c1 (optimized conformer: 54.051299847400784 kcal/mol)

>  <smiles>  (30) 
CN(C)CCNc1ccc2c(=O)c3ccccc3sc2c1

>  <score_type>  (30) 
oracle

>  <origin>  (30) 
adg

>  <m_score__min__energy>  (30) 
-6.7400000000000002

>  <m_primary>  (30) 
energy

$$$$
30:0
     RDKit          3D

 35 36  0  0  0  0  0  0  0  0999 V2000
   -9.7302   23.1177  -30.9965 H   0  0  0  0  0  0  0  0  0  0  0  0
   -9.1090   22.3590  -31.4950 C   0  0  0  0  0  0  0  0  0  0  0  0
   -9.6910   21.1910  -31.9680 C   0  0  0  0  0  0  0  0  0  0  0  0
  -10.7675   21.0165  -31.8244 H   0  0  0  0  0  0  0  0  0  0  0  0
   -8.9140   20.2400  -32.6240 C   0  0  0  0  0  0  0  0  0  0  0  0
   -9.3914   19.3248  -33.0040 H   0  0  0  0  0  0  0  0  0  0  0  0
   -7.5290   20.4240  -32.8120 C   0  0  0  0  0  0  0  0  0  0  0  0
   -6.9090   21.6120  -32.2700 C   0  0  0  0  0  0  0  0  0  0  0  0
   -5.5150   21.8490  -32.3690 C   0  0  0  0  0  0  0  0  0  0  0  0
   -4.7990   22.9630  -31.7110 C   0  0  0  0  0  0  0  0  0  0  0  0
   -3.6710   22.7540  -31.1890 O   0  0  0  0  0  0  0  0  0  0  0  0
   -5.4010   24.2210  -31.6050 O   0  0  0  0  0  0  0  0  0  0  0  0
   -5.2400   25.0580  -30.4650 C   0  0  0  0  0  0  0  0  0  0  0  0
   -4.8200   26.0255  -30.7773 H   0  0  0  0  0  0  0  0  0  0  0  0
   -4.5581   24.5749  -29.7498 H   0  0  0  0  0  0  0  0  0  0  0  0
   -6.5900   25.2820  -29.8040 C   0  0  0  0  0  0  0  0  0  0  0  0
   -6.4707   25.2622  -28.7107 H   0  0  0  0  0  0  0  0  0  0  0  0
   -6.9912   26.2590  -30.1114 H   0  0  0  0  0  0  0  0  0  0  0  0
   -7.2852   24.4869  -30.1114 H   0  0  0  0  0  0  0  0  0  0  0  0
   -4.5990   20.7490  -33.2540 S   0  0  0  0  0  0  0  0  0  0  0  0
   -5.5300   19.4850  -33.8410 C   0  0  0  0  0  0  0  0  0  0  0  0
   -4.9510   18.5580  -34.5510 N   0  0  0  0  0  0  0  0  0  0  0  0
   -5.2820   17.1620  -34.5920 C   0  0  0  0  0  0  0  0  0  0  0  0
   -6.4950   16.8260  -34.6040 O   0  0  0  0  0  0  0  0  0  0  0  0
   -4.2240   16.0880  -34.5370 C   0  0  0  0  0  0  0  0  0  0  0  0
   -4.4410   15.3369  -35.3108 H   0  0  0  0  0  0  0  0  0  0  0  0
   -3.2480   16.5662  -34.7062 H   0  0  0  0  0  0  0  0  0  0  0  0
   -4.1770   15.3940  -33.1770 C   0  0  0  0  0  0  0  0  0  0  0  0
   -4.2281   16.1486  -32.3783 H   0  0  0  0  0  0  0  0  0  0  0  0
   -5.0306   14.7061  -33.0867 H   0  0  0  0  0  0  0  0  0  0  0  0
   -3.2384   14.8275  -33.0867 H   0  0  0  0  0  0  0  0  0  0  0  0
   -6.8540   19.4510  -33.5170 N   0  0  0  0  0  0  0  0  0  0  0  0
   -7.4010   18.6110  -33.8050 H   0  0  0  0  0  0  0  0  0  0  0  0
   -7.7420   22.5740  -31.6490 C   0  0  0  0  0  0  0  0  0  0  0  0
   -7.2997   23.5113  -31.2803 H   0  0  0  0  0  0  0  0  0  0  0  0
  1  2  1  0
  2  3  1  0
  3  4  1  0
  3  5  2  0
  5  6  1  0
  5  7  1  0
  7  8  1  0
  8  9  2  0
  9 10  1  0
 10 11  2  0
 10 12  1  0
 12 13  1  0
 13 14  1  0
 13 15  1  0
 13 16  1  0
 16 17  1  0
 16 18  1  0
 16 19  1  0
  9 20  1  0
 20 21  1  0
 21 22  2  0
 22 23  1  0
 23 24  2  0
 23 25  1  0
 25 26  1  0
 25 27  1  0
 25 28  1  0
 28 29  1  0
 28 30  1  0
 28 31  1  0
 21 32  1  0
 32 33  1  0
  8 34  1  0
 34 35  1  0
 34  2  2  0
 32  7  2  0
M  CHG  1  32   1
M  END
>  <UniqueID>  (31) 
30

>  <SMILES>  (31) 
CCOC(=O)c1s/c(=N/C(=O)CC)[nH+]c2ccccc12

>  <Energy>  (31) 
51.09759008846321

>  <Genealogy>  (31) 
CCOC(=O)c1sc(=NC(=O)CC)[nH+]c2ccccc12 (protonated)
CCOC(=O)c1s/c(=N/C(=O)CC)[nH+]c2ccccc12 (cis-trans isomerization)
CCOC(=O)c1s/c(=N/C(=O)CC)[nH+]c2ccccc12 (3D coordinates assigned)
CCOC(=O)c1s/c(=N/C(=O)CC)[nH+]c2ccccc12 (optimized conformer: 51.09759008846321 kcal/mol)

>  <smiles>  (31) 
CCOC(=O)c1sc(=NC(=O)CC)nc2ccccc12

>  <score_type>  (31) 
oracle

>  <origin>  (31) 
adg

>  <m_score__min__energy>  (31) 
-7.0800000000000001

>  <m_primary>  (31) 
energy

$$$$
31:0
     RDKit          3D

 55 57  0  0  0  0  0  0  0  0999 V2000
   -4.1880   24.8880  -26.4800 C   0  0  0  0  0  0  0  0  0  0  0  0
   -2.6990   25.2300  -26.4250 C   0  0  0  0  0  0  0  0  0  0  0  0
   -1.8310   24.2290  -27.1980 C   0  0  0  0  0  0  0  0  0  0  0  0
   -1.3180   24.7980  -28.5290 C   0  0  0  0  0  0  0  0  0  0  0  0
   -2.4010   25.2960  -29.3150 O   0  0  0  0  0  0  0  0  0  0  0  0
   -3.4830   24.5340  -29.7860 C   0  0  0  0  0  0  0  0  0  0  0  0
   -3.4150   23.1380  -29.9600 C   0  0  0  0  0  0  0  0  0  0  0  0
   -4.5190   22.4340  -30.4500 C   0  0  0  0  0  0  0  0  0  0  0  0
   -5.7140   23.1030  -30.7600 C   0  0  0  0  0  0  0  0  0  0  0  0
   -6.8420   22.3770  -31.2860 N   0  0  0  0  0  0  0  0  0  0  0  0
   -7.8080   21.7640  -30.3600 C   0  0  0  0  0  0  0  0  0  0  0  0
   -8.8040   20.8550  -31.0950 C   0  0  0  0  0  0  0  0  0  0  0  0
   -8.1090   20.0340  -32.0990 N   0  0  0  0  0  0  0  0  0  0  0  0
   -8.4710   18.6460  -32.2690 C   0  0  0  0  0  0  0  0  0  0  0  0
   -9.5530   18.2120  -31.7860 O   0  0  0  0  0  0  0  0  0  0  0  0
   -7.5930   17.6930  -33.0250 C   0  0  0  0  0  0  0  0  0  0  0  0
   -6.3410   17.5680  -32.3610 O   0  0  0  0  0  0  0  0  0  0  0  0
   -5.1720   18.2440  -32.7400 C   0  0  0  0  0  0  0  0  0  0  0  0
   -4.4560   17.9190  -33.9110 C   0  0  0  0  0  0  0  0  0  0  0  0
   -3.2900   18.6170  -34.2410 C   0  0  0  0  0  0  0  0  0  0  0  0
   -2.8270   19.6440  -33.4080 C   0  0  0  0  0  0  0  0  0  0  0  0
   -1.2300   20.5910  -33.8590 Br  0  0  0  0  0  0  0  0  0  0  0  0
   -3.5360   19.9760  -32.2500 C   0  0  0  0  0  0  0  0  0  0  0  0
   -4.7020   19.2790  -31.9180 C   0  0  0  0  0  0  0  0  0  0  0  0
   -7.1340   20.6630  -33.0080 C   0  0  0  0  0  0  0  0  0  0  0  0
   -6.9920   22.1620  -32.7300 C   0  0  0  0  0  0  0  0  0  0  0  0
   -5.7830   24.4940  -30.5720 C   0  0  0  0  0  0  0  0  0  0  0  0
   -4.6770   25.1990  -30.0880 C   0  0  0  0  0  0  0  0  0  0  0  0
   -4.5815   24.7976  -25.4568 H   0  0  0  0  0  0  0  0  0  0  0  0
   -4.7280   25.6855  -27.0114 H   0  0  0  0  0  0  0  0  0  0  0  0
   -4.3259   23.9348  -27.0114 H   0  0  0  0  0  0  0  0  0  0  0  0
   -2.5518   26.2305  -26.8577 H   0  0  0  0  0  0  0  0  0  0  0  0
   -2.3890   25.1924  -25.3703 H   0  0  0  0  0  0  0  0  0  0  0  0
   -0.9666   23.9569  -26.5745 H   0  0  0  0  0  0  0  0  0  0  0  0
   -2.4561   23.3537  -27.4283 H   0  0  0  0  0  0  0  0  0  0  0  0
   -0.6137   25.6177  -28.3239 H   0  0  0  0  0  0  0  0  0  0  0  0
   -0.8156   23.9944  -29.0874 H   0  0  0  0  0  0  0  0  0  0  0  0
   -2.4893   22.5993  -29.7093 H   0  0  0  0  0  0  0  0  0  0  0  0
   -4.4508   21.3456  -30.5941 H   0  0  0  0  0  0  0  0  0  0  0  0
   -7.2594   21.1649  -29.6183 H   0  0  0  0  0  0  0  0  0  0  0  0
   -8.3757   22.5712  -29.8741 H   0  0  0  0  0  0  0  0  0  0  0  0
   -9.2974   20.1949  -30.3664 H   0  0  0  0  0  0  0  0  0  0  0  0
   -9.5500   21.4831  -31.6039 H   0  0  0  0  0  0  0  0  0  0  0  0
   -8.0803   16.7081  -33.0758 H   0  0  0  0  0  0  0  0  0  0  0  0
   -7.4298   18.0762  -34.0431 H   0  0  0  0  0  0  0  0  0  0  0  0
   -4.8163   17.1132  -34.5674 H   0  0  0  0  0  0  0  0  0  0  0  0
   -2.7357   18.3594  -35.1556 H   0  0  0  0  0  0  0  0  0  0  0  0
   -3.1763   20.7865  -31.5991 H   0  0  0  0  0  0  0  0  0  0  0  0
   -5.2551   19.5445  -31.0050 H   0  0  0  0  0  0  0  0  0  0  0  0
   -6.1552   20.1801  -32.8715 H   0  0  0  0  0  0  0  0  0  0  0  0
   -7.4933   20.5363  -34.0399 H   0  0  0  0  0  0  0  0  0  0  0  0
   -6.1055   22.5501  -33.2530 H   0  0  0  0  0  0  0  0  0  0  0  0
   -7.8881   22.6892  -33.0892 H   0  0  0  0  0  0  0  0  0  0  0  0
   -6.7134   25.0316  -30.8072 H   0  0  0  0  0  0  0  0  0  0  0  0
   -4.7458   26.2872  -29.9431 H   0  0  0  0  0  0  0  0  0  0  0  0
  1  2  1  0
  2  3  1  0
  3  4  1  0
  4  5  1  0
  5  6  1  0
  6  7  2  0
  7  8  1  0
  8  9  2  0
  9 10  1  0
 10 11  1  0
 11 12  1  0
 12 13  1  0
 13 14  1  0
 14 15  2  0
 14 16  1  0
 16 17  1  0
 17 18  1  0
 18 19  2  0
 19 20  1  0
 20 21  2  0
 21 22  1  0
 21 23  1  0
 23 24  2  0
 13 25  1  0
 25 26  1  0
  9 27  1  0
 27 28  2  0
 28  6  1  0
 26 10  1  0
 24 18  1  0
  1 29  1  0
  1 30  1  0
  1 31  1  0
  2 32  1  0
  2 33  1  0
  3 34  1  0
  3 35  1  0
  4 36  1  0
  4 37  1  0
  7 38  1  0
  8 39  1  0
 11 40  1  0
 11 41  1  0
 12 42  1  0
 12 43  1  0
 16 44  1  0
 16 45  1  0
 19 46  1  0
 20 47  1  0
 23 48  1  0
 24 49  1  0
 25 50  1  0
 25 51  1  0
 26 52  1  0
 26 53  1  0
 27 54  1  0
 28 55  1  0
M  END
>  <UniqueID>  (32) 
31

>  <SMILES>  (32) 
CCCCOc1ccc(N2CCN(C(=O)COc3ccc(Br)cc3)CC2)cc1

>  <Energy>  (32) 
54.17314076913164

>  <Genealogy>  (32) 
CCCCOc1ccc(N2CCN(C(=O)COc3ccc(Br)cc3)CC2)cc1 (3D coordinates assigned)
CCCCOc1ccc(N2CCN(C(=O)COc3ccc(Br)cc3)CC2)cc1 (nonaromatic ring conformer: 54.17314076913164 kcal/mol)

>  <smiles>  (32) 
CCCCOc1ccc(N2CCN(C(=O)COc3ccc(Br)cc3)CC2)cc1

>  <score_type>  (32) 
oracle

>  <origin>  (32) 
adg

>  <m_score__min__energy>  (32) 
-8.4700000000000006

>  <m_primary>  (32) 
energy

$$$$
32:0
     RDKit          3D

 40 41  0  0  0  0  0  0  0  0999 V2000
   -2.4006   22.8837  -26.4401 H   0  0  0  0  0  0  0  0  0  0  0  0
   -2.1750   23.6620  -27.1840 C   0  0  0  0  0  0  0  0  0  0  0  0
   -1.0920   24.5260  -26.9970 C   0  0  0  0  0  0  0  0  0  0  0  0
   -0.2360   24.4370  -25.7670 C   0  0  0  0  0  0  0  0  0  0  0  0
    0.7327   24.9194  -25.9645 H   0  0  0  0  0  0  0  0  0  0  0  0
   -0.0872   23.3771  -25.5132 H   0  0  0  0  0  0  0  0  0  0  0  0
   -0.9170   25.1380  -24.5870 C   0  0  0  0  0  0  0  0  0  0  0  0
   -0.1620   25.3650  -23.8199 H   0  0  0  0  0  0  0  0  0  0  0  0
   -1.6906   24.4686  -24.1827 H   0  0  0  0  0  0  0  0  0  0  0  0
   -1.5840   26.4370  -25.0290 C   0  0  0  0  0  0  0  0  0  0  0  0
   -1.8815   27.0165  -24.1426 H   0  0  0  0  0  0  0  0  0  0  0  0
   -0.8767   27.0258  -25.6315 H   0  0  0  0  0  0  0  0  0  0  0  0
   -2.4747   26.2053  -25.6315 H   0  0  0  0  0  0  0  0  0  0  0  0
   -0.8470   25.4900  -27.9240 N   0  0  0  0  0  0  0  0  0  0  0  0
   -1.6050   25.6200  -29.0130 N   0  0  0  0  0  0  0  0  0  0  0  0
   -2.6680   24.8030  -29.2480 C   0  0  0  0  0  0  0  0  0  0  0  0
   -3.3970   24.9200  -30.3200 N   0  0  0  0  0  0  0  0  0  0  0  0
   -4.7930   24.6120  -30.4760 C   0  0  0  0  0  0  0  0  0  0  0  0
   -5.2820   24.0410  -31.5920 N   0  0  0  0  0  0  0  0  0  0  0  0
   -6.5760   23.8460  -31.3970 N   0  0  0  0  0  0  0  0  0  0  0  0
   -7.4520   23.1880  -32.3600 C   0  0  0  0  0  0  0  0  0  0  0  0
   -7.7354   23.9066  -33.1431 H   0  0  0  0  0  0  0  0  0  0  0  0
   -6.9180   22.3361  -32.8063 H   0  0  0  0  0  0  0  0  0  0  0  0
   -8.7130   22.6760  -31.6650 C   0  0  0  0  0  0  0  0  0  0  0  0
   -8.9351   23.3154  -30.7979 H   0  0  0  0  0  0  0  0  0  0  0  0
   -9.5514   22.7037  -32.3766 H   0  0  0  0  0  0  0  0  0  0  0  0
   -8.5230   21.3440  -31.2270 O   0  0  0  0  0  0  0  0  0  0  0  0
   -8.1300   20.5190  -32.3050 C   0  0  0  0  0  0  0  0  0  0  0  0
   -8.2310   21.0743  -33.2491 H   0  0  0  0  0  0  0  0  0  0  0  0
   -7.0815   20.2136  -32.1735 H   0  0  0  0  0  0  0  0  0  0  0  0
   -9.0200   19.2870  -32.3420 C   0  0  0  0  0  0  0  0  0  0  0  0
   -9.2494   18.9694  -31.3141 H   0  0  0  0  0  0  0  0  0  0  0  0
   -9.9553   19.5260  -32.8693 H   0  0  0  0  0  0  0  0  0  0  0  0
   -8.4992   18.4742  -32.8693 H   0  0  0  0  0  0  0  0  0  0  0  0
   -6.9220   24.2520  -30.1610 C   0  0  0  0  0  0  0  0  0  0  0  0
   -7.9303   24.1934  -29.7252 H   0  0  0  0  0  0  0  0  0  0  0  0
   -5.8030   24.7530  -29.5330 C   0  0  0  0  0  0  0  0  0  0  0  0
   -5.7268   25.1692  -28.5177 H   0  0  0  0  0  0  0  0  0  0  0  0
   -2.9650   23.7980  -28.3230 C   0  0  0  0  0  0  0  0  0  0  0  0
   -3.8149   23.1207  -28.4931 H   0  0  0  0  0  0  0  0  0  0  0  0
  1  2  1  0
  2  3  1  0
  3  4  1  0
  4  5  1  0
  4  6  1  0
  4  7  1  0
  7  8  1  0
  7  9  1  0
  7 10  1  0
 10 11  1  0
 10 12  1  0
 10 13  1  0
  3 14  2  0
 14 15  1  0
 15 16  1  0
 16 17  2  0
 17 18  1  0
 18 19  2  0
 19 20  1  0
 20 21  1  0
 21 22  1  0
 21 23  1  0
 21 24  1  0
 24 25  1  0
 24 26  1  0
 24 27  1  0
 27 28  1  0
 28 29  1  0
 28 30  1  0
 28 31  1  0
 31 32  1  0
 31 33  1  0
 31 34  1  0
 20 35  1  0
 35 36  1  0
 35 37  2  0
 37 38  1  0
 16 39  1  0
 39 40  1  0
 39  2  2  0
 37 18  1  0
M  CHG  1  15  -1
M  END
>  <UniqueID>  (33) 
32

>  <SMILES>  (33) 
CCCc1cc/c(=N/c2ccn(CCOCC)n2)[n-]n1

>  <Energy>  (33) 
65.59968694605855

>  <Genealogy>  (33) 
CCCc1ccc(=Nc2ccn(CCOCC)n2)[n-]n1 (protonated)
CCCc1cc/c(=N/c2ccn(CCOCC)n2)[n-]n1 (cis-trans isomerization)
CCCc1cc/c(=N/c2ccn(CCOCC)n2)[n-]n1 (3D coordinates assigned)
CCCc1cc/c(=N/c2ccn(CCOCC)n2)[n-]n1 (optimized conformer: 65.59968694605855 kcal/mol)

>  <smiles>  (33) 
CCCc1ccc(=Nc2ccn(CCOCC)n2)[nH]n1

>  <score_type>  (33) 
oracle

>  <origin>  (33) 
adg

>  <m_score__min__energy>  (33) 
-8.6500000000000004

>  <m_primary>  (33) 
energy

$$$$
33:0
     RDKit          3D

 34 36  0  0  1  0  0  0  0  0999 V2000
    0.0630   23.6530  -28.5430 C   0  0  0  0  0  0  0  0  0  0  0  0
   -1.3930   23.9260  -28.5860 C   0  0  0  0  0  0  0  0  0  0  0  0
   -2.1280   24.2870  -27.4680 C   0  0  0  0  0  0  0  0  0  0  0  0
   -3.4970   24.5390  -27.5400 C   0  0  0  0  0  0  0  0  0  0  0  0
   -4.2520   24.9270  -26.3040 C   0  0  0  0  0  0  0  0  0  0  0  0
   -4.1380   24.4310  -28.7170 N   0  0  0  0  0  0  0  0  0  0  0  0
   -5.4010   24.6130  -29.0400 N   0  0  0  0  0  0  0  0  0  0  0  0
   -5.4820   24.3690  -30.3550 C   0  0  0  0  0  0  0  0  0  0  0  0
   -6.5420   24.4310  -31.0880 N   0  0  0  0  0  0  0  0  0  0  0  0
   -6.7000   23.7810  -32.3580 C   0  0  0  0  0  0  0  0  0  0  0  0
   -7.4040   22.4640  -32.1820 C   0  0  0  0  0  0  0  0  0  0  0  0
   -8.7750   22.4790  -31.9170 C   0  0  0  0  0  0  0  0  0  0  0  0
   -9.4490   21.2870  -31.7500 C   0  0  0  0  0  0  0  0  0  0  0  0
   -8.7600   20.0940  -31.8470 C   0  0  0  0  0  0  0  0  0  0  0  0
   -7.3900   20.0640  -32.1110 C   0  0  0  0  0  0  0  0  0  0  0  0
   -6.7140   21.2690  -32.2790 C   0  0  0  0  0  0  0  0  0  0  0  0
   -4.2730   24.0410  -30.8380 N   0  0  0  0  0  0  0  0  0  0  0  0
   -3.4030   24.0790  -29.7860 C   0  0  0  0  0  0  0  0  0  0  0  0
   -2.0880   23.8320  -29.7420 N   0  0  0  0  0  0  0  0  0  0  0  0
    0.3937   23.5910  -27.4957 H   0  0  0  0  0  0  0  0  0  0  0  0
    0.2725   22.6999  -29.0507 H   0  0  0  0  0  0  0  0  0  0  0  0
    0.6035   24.4654  -29.0507 H   0  0  0  0  0  0  0  0  0  0  0  0
   -1.6174   24.3771  -26.4979 H   0  0  0  0  0  0  0  0  0  0  0  0
   -3.6763   24.6311  -25.4146 H   0  0  0  0  0  0  0  0  0  0  0  0
   -4.4063   26.0161  -26.2953 H   0  0  0  0  0  0  0  0  0  0  0  0
   -5.2273   24.4184  -26.2953 H   0  0  0  0  0  0  0  0  0  0  0  0
   -6.2240   24.8850  -28.4620 H   0  0  0  0  0  0  0  0  0  0  0  0
   -7.2935   24.4243  -33.0243 H   0  0  0  0  0  0  0  0  0  0  0  0
   -5.7070   23.6020  -32.7962 H   0  0  0  0  0  0  0  0  0  0  0  0
   -9.3139   23.4350  -31.8419 H   0  0  0  0  0  0  0  0  0  0  0  0
  -10.5289   21.2867  -31.5408 H   0  0  0  0  0  0  0  0  0  0  0  0
   -9.3030   19.1467  -31.7132 H   0  0  0  0  0  0  0  0  0  0  0  0
   -6.8544   19.1060  -32.1849 H   0  0  0  0  0  0  0  0  0  0  0  0
   -5.6341   21.2711  -32.4883 H   0  0  0  0  0  0  0  0  0  0  0  0
  1  2  1  0
  2  3  1  0
  3  4  2  0
  4  5  1  0
  4  6  1  0
  6  7  1  0
  7  8  1  0
  8  9  2  0
  9 10  1  0
 10 11  1  0
 11 12  2  0
 12 13  1  0
 13 14  2  0
 14 15  1  0
 15 16  2  0
  8 17  1  0
 17 18  2  0
 18 19  1  0
 19  2  2  0
 18  6  1  0
 16 11  1  0
  1 20  1  0
  1 21  1  0
  1 22  1  0
  3 23  1  0
  5 24  1  0
  5 25  1  0
  5 26  1  0
  7 27  1  0
 10 28  1  0
 10 29  1  0
 12 30  1  0
 13 31  1  0
 14 32  1  0
 15 33  1  0
 16 34  1  0
M  END
>  <smiles>  (34) 
Cc1cc(C)n2[nH]c(=NCc3ccccc3)nc2n1

>  <score_type>  (34) 
oracle

>  <origin>  (34) 
adg

>  <m_score__min__energy>  (34) 
-7.6299999999999999

>  <m_primary>  (34) 
energy

$$$$
34:0
     RDKit          3D

 40 42  0  0  0  0  0  0  0  0999 V2000
   -5.1530   24.3740  -30.1570 C   0  0  0  0  0  0  0  0  0  0  0  0
   -4.5800   23.8060  -31.3150 O   0  0  0  0  0  0  0  0  0  0  0  0
   -3.8390   22.6460  -30.9840 C   0  0  0  0  0  0  0  0  0  0  0  0
   -3.5310   21.8410  -32.2530 C   0  0  0  0  0  0  0  0  0  0  0  0
   -4.5970   21.9440  -33.2720 N   0  0  0  0  0  0  0  0  0  0  0  0
   -5.6980   21.0180  -33.0270 C   0  0  0  0  0  0  0  0  0  0  0  0
   -6.9560   21.4720  -32.5330 C   0  0  0  0  0  0  0  0  0  0  0  0
   -7.2370   22.8480  -32.3260 C   0  0  0  0  0  0  0  0  0  0  0  0
   -8.4910   23.2740  -31.8980 C   0  0  0  0  0  0  0  0  0  0  0  0
   -9.5020   22.3530  -31.6770 C   0  0  0  0  0  0  0  0  0  0  0  0
   -9.2560   20.9950  -31.8510 C   0  0  0  0  0  0  0  0  0  0  0  0
   -7.9760   20.5210  -32.2400 C   0  0  0  0  0  0  0  0  0  0  0  0
   -7.7240   19.1690  -32.3460 N   0  0  0  0  0  0  0  0  0  0  0  0
   -8.6520   18.1920  -31.7300 C   0  0  0  0  0  0  0  0  0  0  0  0
   -6.5930   18.7250  -32.9980 C   0  0  0  0  0  0  0  0  0  0  0  0
   -6.4540   17.3670  -33.3840 C   0  0  0  0  0  0  0  0  0  0  0  0
   -5.2890   16.9000  -33.9820 C   0  0  0  0  0  0  0  0  0  0  0  0
   -4.2360   17.7700  -34.2220 C   0  0  0  0  0  0  0  0  0  0  0  0
   -4.3560   19.1180  -33.8980 C   0  0  0  0  0  0  0  0  0  0  0  0
   -5.5410   19.6310  -33.3090 C   0  0  0  0  0  0  0  0  0  0  0  0
   -4.6975   23.9225  -29.2633 H   0  0  0  0  0  0  0  0  0  0  0  0
   -4.9717   25.4590  -30.1526 H   0  0  0  0  0  0  0  0  0  0  0  0
   -6.2363   24.1832  -30.1526 H   0  0  0  0  0  0  0  0  0  0  0  0
   -2.8954   22.9416  -30.5020 H   0  0  0  0  0  0  0  0  0  0  0  0
   -4.4301   22.0238  -30.2960 H   0  0  0  0  0  0  0  0  0  0  0  0
   -2.5926   22.2160  -32.6875 H   0  0  0  0  0  0  0  0  0  0  0  0
   -3.4532   20.7830  -31.9622 H   0  0  0  0  0  0  0  0  0  0  0  0
   -4.9670   22.9210  -33.2780 H   0  0  0  0  0  0  0  0  0  0  0  0
   -4.1990   21.8610  -34.2310 H   0  0  0  0  0  0  0  0  0  0  0  0
   -6.4478   23.5925  -32.5075 H   0  0  0  0  0  0  0  0  0  0  0  0
   -8.6799   24.3453  -31.7347 H   0  0  0  0  0  0  0  0  0  0  0  0
  -10.4993   22.6956  -31.3639 H   0  0  0  0  0  0  0  0  0  0  0  0
  -10.0698   20.2741  -31.6838 H   0  0  0  0  0  0  0  0  0  0  0  0
   -8.5847   18.2628  -30.6343 H   0  0  0  0  0  0  0  0  0  0  0  0
   -9.6813   18.4124  -32.0492 H   0  0  0  0  0  0  0  0  0  0  0  0
   -8.3789   17.1754  -32.0492 H   0  0  0  0  0  0  0  0  0  0  0  0
   -7.2853   16.6689  -33.2065 H   0  0  0  0  0  0  0  0  0  0  0  0
   -5.2025   15.8405  -34.2648 H   0  0  0  0  0  0  0  0  0  0  0  0
   -3.3041   17.3938  -34.6693 H   0  0  0  0  0  0  0  0  0  0  0  0
   -3.5165   19.7989  -34.1023 H   0  0  0  0  0  0  0  0  0  0  0  0
  1  2  1  0
  2  3  1  0
  3  4  1  0
  4  5  1  0
  5  6  1  0
  6  7  2  0
  7  8  1  0
  8  9  2  0
  9 10  1  0
 10 11  2  0
 11 12  1  0
 12 13  2  0
 13 14  1  0
 13 15  1  0
 15 16  2  0
 16 17  1  0
 17 18  2  0
 18 19  1  0
 19 20  2  0
 20  6  1  0
 12  7  1  0
 20 15  1  0
  1 21  1  0
  1 22  1  0
  1 23  1  0
  3 24  1  0
  3 25  1  0
  4 26  1  0
  4 27  1  0
  5 28  1  0
  5 29  1  0
  8 30  1  0
  9 31  1  0
 10 32  1  0
 11 33  1  0
 14 34  1  0
 14 35  1  0
 14 36  1  0
 16 37  1  0
 17 38  1  0
 18 39  1  0
 19 40  1  0
M  CHG  2   5   1  13   1
M  END
>  <UniqueID>  (35) 
33

>  <SMILES>  (35) 
COCC[NH2+]c1c2ccccc2[n+](C)c2ccccc12

>  <Energy>  (35) 
72.41618466334627

>  <Genealogy>  (35) 
COCC[NH2+]c1c2ccccc2[n+](C)c2ccccc12 (protonated)
COCC[NH2+]c1c2ccccc2[n+](C)c2ccccc12 (3D coordinates assigned)
COCC[NH2+]c1c2ccccc2[n+](C)c2ccccc12 (optimized conformer: 72.41618466334627 kcal/mol)

>  <smiles>  (35) 
COCCNc1c2ccccc2[n+](C)c2ccccc12

>  <score_type>  (35) 
oracle

>  <origin>  (35) 
adg

>  <m_score__min__energy>  (35) 
-7.04

>  <m_primary>  (35) 
energy

$$$$
35:0
     RDKit          3D

 48 51  0  0  0  0  0  0  0  0999 V2000
   -5.1350   25.1500  -30.5500 C   0  0  0  0  0  0  0  0  0  0  0  0
   -3.9160   24.3230  -30.6200 N   0  0  0  0  0  0  0  0  0  0  0  0
   -3.1200   24.5300  -29.4000 C   0  0  0  0  0  0  0  0  0  0  0  0
   -4.2530   22.8910  -30.7740 C   0  0  0  0  0  0  0  0  0  0  0  0
   -3.5640   22.3020  -32.0110 C   0  0  0  0  0  0  0  0  0  0  0  0
   -4.5270   22.0870  -33.0890 N   0  0  0  0  0  0  0  0  0  0  0  0
   -5.5920   21.1430  -32.9330 C   0  0  0  0  0  0  0  0  0  0  0  0
   -5.3790   19.7930  -33.1960 C   0  0  0  0  0  0  0  0  0  0  0  0
   -6.3920   18.8690  -33.0170 C   0  0  0  0  0  0  0  0  0  0  0  0
   -7.6060   19.2180  -32.4780 N   0  0  0  0  0  0  0  0  0  0  0  0
   -8.5310   18.1750  -32.0030 C   0  0  0  0  0  0  0  0  0  0  0  0
   -7.8990   20.5650  -32.3270 C   0  0  0  0  0  0  0  0  0  0  0  0
   -9.2010   21.0120  -31.9920 C   0  0  0  0  0  0  0  0  0  0  0  0
   -9.4680   22.3690  -31.8070 C   0  0  0  0  0  0  0  0  0  0  0  0
   -8.4570   23.3130  -31.9590 C   0  0  0  0  0  0  0  0  0  0  0  0
   -7.1730   22.9110  -32.3210 C   0  0  0  0  0  0  0  0  0  0  0  0
   -6.8790   21.5480  -32.5230 C   0  0  0  0  0  0  0  0  0  0  0  0
   -5.8670   17.5540  -33.4080 C   0  0  0  0  0  0  0  0  0  0  0  0
   -6.5090   16.3260  -33.6280 C   0  0  0  0  0  0  0  0  0  0  0  0
   -5.7460   15.2410  -34.0870 C   0  0  0  0  0  0  0  0  0  0  0  0
   -4.3760   15.3980  -34.3610 C   0  0  0  0  0  0  0  0  0  0  0  0
   -3.7640   16.6480  -34.2020 C   0  0  0  0  0  0  0  0  0  0  0  0
   -4.5300   17.7160  -33.7350 C   0  0  0  0  0  0  0  0  0  0  0  0
   -4.0980   19.1430  -33.6250 C   0  0  0  0  0  0  0  0  0  0  0  0
   -5.3973   25.3280  -29.4967 H   0  0  0  0  0  0  0  0  0  0  0  0
   -4.9542   26.1127  -31.0506 H   0  0  0  0  0  0  0  0  0  0  0  0
   -5.9627   24.6262  -31.0506 H   0  0  0  0  0  0  0  0  0  0  0  0
   -3.7539   24.3652  -28.5162 H   0  0  0  0  0  0  0  0  0  0  0  0
   -2.2795   23.8206  -29.3858 H   0  0  0  0  0  0  0  0  0  0  0  0
   -2.7316   25.5590  -29.3858 H   0  0  0  0  0  0  0  0  0  0  0  0
   -3.9198   22.3435  -29.8800 H   0  0  0  0  0  0  0  0  0  0  0  0
   -5.3420   22.7951  -30.8964 H   0  0  0  0  0  0  0  0  0  0  0  0
   -2.7859   22.9987  -32.3563 H   0  0  0  0  0  0  0  0  0  0  0  0
   -3.1181   21.3340  -31.7386 H   0  0  0  0  0  0  0  0  0  0  0  0
   -4.3350   22.4530  -34.0490 H   0  0  0  0  0  0  0  0  0  0  0  0
   -8.5394   18.1656  -30.9031 H   0  0  0  0  0  0  0  0  0  0  0  0
   -9.5442   18.3861  -32.3756 H   0  0  0  0  0  0  0  0  0  0  0  0
   -8.2003   17.1943  -32.3756 H   0  0  0  0  0  0  0  0  0  0  0  0
  -10.0129   20.2789  -31.8761 H   0  0  0  0  0  0  0  0  0  0  0  0
  -10.4840   22.6946  -31.5393 H   0  0  0  0  0  0  0  0  0  0  0  0
   -8.6720   24.3789  -31.7930 H   0  0  0  0  0  0  0  0  0  0  0  0
   -6.3819   23.6643  -32.4502 H   0  0  0  0  0  0  0  0  0  0  0  0
   -7.5880   16.2158  -33.4445 H   0  0  0  0  0  0  0  0  0  0  0  0
   -6.2233   14.2608  -34.2334 H   0  0  0  0  0  0  0  0  0  0  0  0
   -3.7828   14.5365  -34.7013 H   0  0  0  0  0  0  0  0  0  0  0  0
   -2.6990   16.7848  -34.4410 H   0  0  0  0  0  0  0  0  0  0  0  0
   -3.3076   19.2695  -32.8705 H   0  0  0  0  0  0  0  0  0  0  0  0
   -3.6627   19.5589  -34.5456 H   0  0  0  0  0  0  0  0  0  0  0  0
  1  2  1  0
  2  3  1  0
  2  4  1  0
  4  5  1  0
  5  6  1  0
  6  7  1  0
  7  8  2  0
  8  9  1  0
  9 10  2  0
 10 11  1  0
 10 12  1  0
 12 13  2  0
 13 14  1  0
 14 15  2  0
 15 16  1  0
 16 17  2  0
  9 18  1  0
 18 19  2  0
 19 20  1  0
 20 21  2  0
 21 22  1  0
 22 23  2  0
 23 24  1  0
 17  7  1  0
 23 18  1  0
 24  8  1  0
 17 12  1  0
  1 25  1  0
  1 26  1  0
  1 27  1  0
  3 28  1  0
  3 29  1  0
  3 30  1  0
  4 31  1  0
  4 32  1  0
  5 33  1  0
  5 34  1  0
  6 35  1  0
 11 36  1  0
 11 37  1  0
 11 38  1  0
 13 39  1  0
 14 40  1  0
 15 41  1  0
 16 42  1  0
 19 43  1  0
 20 44  1  0
 21 45  1  0
 22 46  1  0
 24 47  1  0
 24 48  1  0
M  CHG  1  10   1
M  END
>  <UniqueID>  (36) 
34

>  <SMILES>  (36) 
CN(C)CCNc1c2c([n+](C)c3ccccc13)-c1ccccc1C2

>  <Energy>  (36) 
93.36661745575036

>  <Genealogy>  (36) 
CN(C)CCNc1c2c([n+](C)c3ccccc13)-c1ccccc1C2 (3D coordinates assigned)
CN(C)CCNc1c2c([n+](C)c3ccccc13)-c1ccccc1C2 (nonaromatic ring conformer: 93.36661745575036 kcal/mol)

>  <smiles>  (36) 
CN(C)CCNc1c2c([n+](C)c3ccccc13)-c1ccccc1C2

>  <score_type>  (36) 
oracle

>  <origin>  (36) 
adg

>  <m_score__min__energy>  (36) 
-8.9499999999999993

>  <m_primary>  (36) 
energy

$$$$
36:0
     RDKit          3D

 56 60  0  0  0  0  0  0  0  0999 V2000
   -1.2080   21.6030  -31.0930 C   0  0  0  0  0  0  0  0  0  0  0  0
   -0.9230   20.8410  -32.3470 C   0  0  0  0  0  0  0  0  0  0  0  0
   -1.7550   19.8370  -32.7330 N   0  0  0  0  0  0  0  0  0  0  0  0
   -1.5310   19.1280  -33.8710 C   0  0  0  0  0  0  0  0  0  0  0  0
   -2.4760   18.0590  -34.2470 C   0  0  0  0  0  0  0  0  0  0  0  0
   -2.1360   16.8770  -34.9060 C   0  0  0  0  0  0  0  0  0  0  0  0
   -3.2390   16.1170  -35.1020 N   0  0  0  0  0  0  0  0  0  0  0  0
   -3.2860   14.7880  -35.7020 C   0  0  0  0  0  0  0  0  0  0  0  0
   -4.2650   16.8040  -34.5720 C   0  0  0  0  0  0  0  0  0  0  0  0
   -5.5650   16.4220  -34.5610 N   0  0  0  0  0  0  0  0  0  0  0  0
   -6.5030   17.2560  -34.0210 C   0  0  0  0  0  0  0  0  0  0  0  0
   -6.1340   18.5250  -33.4980 C   0  0  0  0  0  0  0  0  0  0  0  0
   -7.1590   19.4390  -32.9380 C   0  0  0  0  0  0  0  0  0  0  0  0
   -8.4970   19.1660  -32.6950 C   0  0  0  0  0  0  0  0  0  0  0  0
   -9.0870   20.2510  -32.1560 N   0  0  0  0  0  0  0  0  0  0  0  0
   -8.1710   21.2000  -32.0660 N   0  0  0  0  0  0  0  0  0  0  0  0
   -8.4120   22.5070  -31.4600 C   0  0  0  0  0  0  0  0  0  0  0  0
   -7.5530   22.6820  -30.2020 C   0  0  0  0  0  0  0  0  0  0  0  0
   -6.3690   23.5210  -30.4790 N   0  0  0  0  0  0  0  0  0  0  0  0
   -6.6320   24.9300  -30.1380 C   0  0  0  0  0  0  0  0  0  0  0  0
   -5.4000   25.7990  -30.4680 C   0  0  0  0  0  0  0  0  0  0  0  0
   -4.2780   25.0190  -30.8440 O   0  0  0  0  0  0  0  0  0  0  0  0
   -4.0170   24.0500  -29.8490 C   0  0  0  0  0  0  0  0  0  0  0  0
   -5.1770   23.0380  -29.7480 C   0  0  0  0  0  0  0  0  0  0  0  0
   -6.9880   20.7470  -32.5200 C   0  0  0  0  0  0  0  0  0  0  0  0
   -4.7710   18.9030  -33.5270 C   0  0  0  0  0  0  0  0  0  0  0  0
   -3.8510   17.9990  -34.0540 C   0  0  0  0  0  0  0  0  0  0  0  0
   -0.4410   19.4660  -34.6830 C   0  0  0  0  0  0  0  0  0  0  0  0
    0.4000   20.5000  -34.2780 C   0  0  0  0  0  0  0  0  0  0  0  0
    0.1510   21.1670  -33.1200 N   0  0  0  0  0  0  0  0  0  0  0  0
   -0.9731   20.9750  -30.2210 H   0  0  0  0  0  0  0  0  0  0  0  0
   -0.5891   22.5120  -31.0676 H   0  0  0  0  0  0  0  0  0  0  0  0
   -2.2715   21.8827  -31.0676 H   0  0  0  0  0  0  0  0  0  0  0  0
   -1.1184   16.6023  -35.2208 H   0  0  0  0  0  0  0  0  0  0  0  0
   -3.3129   14.0277  -34.9075 H   0  0  0  0  0  0  0  0  0  0  0  0
   -4.1879   14.6989  -36.3255 H   0  0  0  0  0  0  0  0  0  0  0  0
   -2.3927   14.6354  -36.3255 H   0  0  0  0  0  0  0  0  0  0  0  0
   -7.5566   16.9414  -33.9907 H   0  0  0  0  0  0  0  0  0  0  0  0
   -8.9991   18.2110  -32.9092 H   0  0  0  0  0  0  0  0  0  0  0  0
   -8.1575   23.2945  -32.1846 H   0  0  0  0  0  0  0  0  0  0  0  0
   -9.4731   22.5788  -31.1792 H   0  0  0  0  0  0  0  0  0  0  0  0
   -8.1576   23.1614  -29.4180 H   0  0  0  0  0  0  0  0  0  0  0  0
   -7.2092   21.6903  -29.8729 H   0  0  0  0  0  0  0  0  0  0  0  0
   -7.4952   25.2888  -30.7178 H   0  0  0  0  0  0  0  0  0  0  0  0
   -6.8447   25.0043  -29.0613 H   0  0  0  0  0  0  0  0  0  0  0  0
   -5.6554   26.4746  -31.2976 H   0  0  0  0  0  0  0  0  0  0  0  0
   -5.1313   26.3608  -29.5613 H   0  0  0  0  0  0  0  0  0  0  0  0
   -3.0915   23.5127  -30.1036 H   0  0  0  0  0  0  0  0  0  0  0  0
   -3.9109   24.5607  -28.8805 H   0  0  0  0  0  0  0  0  0  0  0  0
   -4.8554   22.0784  -30.1790 H   0  0  0  0  0  0  0  0  0  0  0  0
   -5.4428   22.9153  -28.6877 H   0  0  0  0  0  0  0  0  0  0  0  0
   -6.0481   21.3175  -32.5531 H   0  0  0  0  0  0  0  0  0  0  0  0
   -4.4470   19.8822  -33.1446 H   0  0  0  0  0  0  0  0  0  0  0  0
   -0.2527   18.9254  -35.6223 H   0  0  0  0  0  0  0  0  0  0  0  0
    1.2667   20.7771  -34.8961 H   0  0  0  0  0  0  0  0  0  0  0  0
    0.7890   21.9430  -32.8330 H   0  0  0  0  0  0  0  0  0  0  0  0
  1  2  1  0
  2  3  2  0
  3  4  1  0
  4  5  1  0
  5  6  2  0
  6  7  1  0
  7  8  1  0
  7  9  1  0
  9 10  2  0
 10 11  1  0
 11 12  2  0
 12 13  1  0
 13 14  1  0
 14 15  2  0
 15 16  1  0
 16 17  1  0
 17 18  1  0
 18 19  1  0
 19 20  1  0
 20 21  1  0
 21 22  1  0
 22 23  1  0
 23 24  1  0
 16 25  1  0
 12 26  1  0
 26 27  2  0
  4 28  2  0
 28 29  1  0
 29 30  2  0
 30  2  1  0
 27  5  1  0
 27  9  1  0
 25 13  2  0
 24 19  1  0
  1 31  1  0
  1 32  1  0
  1 33  1  0
  6 34  1  0
  8 35  1  0
  8 36  1  0
  8 37  1  0
 11 38  1  0
 14 39  1  0
 17 40  1  0
 17 41  1  0
 18 42  1  0
 18 43  1  0
 20 44  1  0
 20 45  1  0
 21 46  1  0
 21 47  1  0
 23 48  1  0
 23 49  1  0
 24 50  1  0
 24 51  1  0
 25 52  1  0
 26 53  1  0
 28 54  1  0
 29 55  1  0
 30 56  1  0
M  CHG  1  30   1
M  END
>  <UniqueID>  (37) 
35

>  <SMILES>  (37) 
Cc1nc(-c2cn(C)c3ncc(-c4cnn(CCN5CCOCC5)c4)cc23)cc[nH+]1

>  <Energy>  (37) 
136.86360590255904

>  <Genealogy>  (37) 
Cc1nc(-c2cn(C)c3ncc(-c4cnn(CCN5CCOCC5)c4)cc23)cc[nH+]1 (protonated)
Cc1nc(-c2cn(C)c3ncc(-c4cnn(CCN5CCOCC5)c4)cc23)cc[nH+]1 (3D coordinates assigned)
Cc1nc(-c2cn(C)c3ncc(-c4cnn(CCN5CCOCC5)c4)cc23)cc[nH+]1 (nonaromatic ring conformer: 136.86360590255904 kcal/mol)

>  <smiles>  (37) 
Cc1nccc(-c2cn(C)c3ncc(-c4cnn(CCN5CCOCC5)c4)cc23)n1

>  <score_type>  (37) 
oracle

>  <origin>  (37) 
adg

>  <m_score__min__energy>  (37) 
-9.4100000000000001

>  <m_primary>  (37) 
energy

$$$$
37:0
     RDKit          3D

 40 41  0  0  0  0  0  0  0  0999 V2000
   -3.7310   21.6850  -33.0940 C   0  0  0  0  0  0  0  0  0  0  0  0
   -4.1180   20.2740  -32.6610 C   0  0  0  0  0  0  0  0  0  0  0  0
   -4.3370   19.4520  -33.7930 O   0  0  0  0  0  0  0  0  0  0  0  0
   -5.7190   19.3350  -34.0950 C   0  0  1  0  0  0  0  0  0  0  0  0
   -6.0870   17.8480  -34.3130 C   0  0  0  0  0  0  0  0  0  0  0  0
   -6.5310   17.1760  -33.0120 C   0  0  0  0  0  0  0  0  0  0  0  0
   -7.7360   17.9040  -32.3740 C   0  0  0  0  0  0  0  0  0  0  0  0
   -7.8520   19.3210  -32.8020 N   0  0  1  0  0  0  0  0  0  0  0  0
   -8.6770   20.0700  -31.8710 C   0  0  0  0  0  0  0  0  0  0  0  0
   -9.0660   19.5500  -30.8340 O   0  0  0  0  0  0  0  0  0  0  0  0
   -9.0060   21.5150  -32.1340 C   0  0  0  0  0  0  0  0  0  0  0  0
   -7.9250   22.3970  -31.5710 C   0  0  0  0  0  0  0  0  0  0  0  0
   -7.5360   22.2650  -30.2270 C   0  0  0  0  0  0  0  0  0  0  0  0
   -6.4980   23.0480  -29.7140 C   0  0  0  0  0  0  0  0  0  0  0  0
   -5.8360   23.9620  -30.5390 C   0  0  0  0  0  0  0  0  0  0  0  0
   -6.2090   24.0910  -31.8790 C   0  0  0  0  0  0  0  0  0  0  0  0
   -7.2480   23.3100  -32.3960 C   0  0  0  0  0  0  0  0  0  0  0  0
   -6.5270   19.9610  -32.9340 C   0  0  0  0  0  0  0  0  0  0  0  0
   -3.5602   22.3079  -32.2036 H   0  0  0  0  0  0  0  0  0  0  0  0
   -2.8108   21.6446  -33.6953 H   0  0  0  0  0  0  0  0  0  0  0  0
   -4.5431   22.1197  -33.6953 H   0  0  0  0  0  0  0  0  0  0  0  0
   -3.3066   19.8460  -32.0540 H   0  0  0  0  0  0  0  0  0  0  0  0
   -5.0456   20.3238  -32.0718 H   0  0  0  0  0  0  0  0  0  0  0  0
   -5.9603   19.8708  -35.0249 H   0  0  0  0  0  0  0  0  0  0  0  0
   -6.9076   17.7876  -35.0430 H   0  0  0  0  0  0  0  0  0  0  0  0
   -5.1919   17.3245  -34.6801 H   0  0  0  0  0  0  0  0  0  0  0  0
   -6.8165   16.1358  -33.2276 H   0  0  0  0  0  0  0  0  0  0  0  0
   -5.6917   17.2157  -32.3021 H   0  0  0  0  0  0  0  0  0  0  0  0
   -8.6568   17.3749  -32.6607 H   0  0  0  0  0  0  0  0  0  0  0  0
   -7.5824   17.9013  -31.2848 H   0  0  0  0  0  0  0  0  0  0  0  0
   -8.3170   19.3400  -33.7400 H   0  0  0  0  0  0  0  0  0  0  0  0
   -9.0831   21.6799  -33.2188 H   0  0  0  0  0  0  0  0  0  0  0  0
   -9.9630   21.7622  -31.6513 H   0  0  0  0  0  0  0  0  0  0  0  0
   -8.0504   21.5426  -29.5762 H   0  0  0  0  0  0  0  0  0  0  0  0
   -6.2016   22.9449  -28.6597 H   0  0  0  0  0  0  0  0  0  0  0  0
   -5.0213   24.5796  -30.1330 H   0  0  0  0  0  0  0  0  0  0  0  0
   -5.6850   24.8077  -32.5285 H   0  0  0  0  0  0  0  0  0  0  0  0
   -7.5359   23.4113  -33.4528 H   0  0  0  0  0  0  0  0  0  0  0  0
   -6.6646   21.0346  -33.1301 H   0  0  0  0  0  0  0  0  0  0  0  0
   -5.9700   19.8070  -31.9980 H   0  0  0  0  0  0  0  0  0  0  0  0
  1  2  1  0
  2  3  1  0
  3  4  1  0
  4  5  1  0
  5  6  1  0
  6  7  1  0
  7  8  1  0
  8  9  1  0
  9 10  2  0
  9 11  1  0
 11 12  1  0
 12 13  2  0
 13 14  1  0
 14 15  2  0
 15 16  1  0
 16 17  2  0
  8 18  1  0
 18  4  1  0
 17 12  1  0
  1 19  1  0
  1 20  1  0
  1 21  1  0
  2 22  1  0
  2 23  1  0
  4 24  1  6
  5 25  1  0
  5 26  1  0
  6 27  1  0
  6 28  1  0
  7 29  1  0
  7 30  1  0
  8 31  1  6
 11 32  1  0
 11 33  1  0
 13 34  1  0
 14 35  1  0
 15 36  1  0
 16 37  1  0
 17 38  1  0
 18 39  1  0
 18 40  1  0
M  CHG  1   8   1
M  END
>  <UniqueID>  (38) 
36

>  <SMILES>  (38) 
CCO[C@H]1CCC[N@@H+](C(=O)Cc2ccccc2)C1

>  <Energy>  (38) 
43.42385701702475

>  <Genealogy>  (38) 
CCOC1CCC[NH+](C(=O)Cc2ccccc2)C1 (protonated)
CCO[C@H]1CCC[N@@H+](C(=O)Cc2ccccc2)C1 (chirality)
CCO[C@H]1CCC[N@@H+](C(=O)Cc2ccccc2)C1 (3D coordinates assigned)
CCO[C@H]1CCC[N@@H+](C(=O)Cc2ccccc2)C1 (nonaromatic ring conformer: 43.42385701702475 kcal/mol)

>  <smiles>  (38) 
CCOC1CCCN(C(=O)Cc2ccccc2)C1

>  <score_type>  (38) 
oracle

>  <origin>  (38) 
adg

>  <m_score__min__energy>  (38) 
-6.4500000000000002

>  <m_primary>  (38) 
energy

$$$$
38:0
     RDKit          3D

 38 38  0  0  0  0  0  0  0  0999 V2000
   -7.3960   23.4350  -31.0060 C   0  0  0  0  0  0  0  0  0  0  0  0
   -6.0520   23.1020  -30.3620 C   0  0  0  0  0  0  0  0  0  0  0  0
   -4.9290   23.6900  -31.1300 N   0  0  0  0  0  0  0  0  0  0  0  0
   -4.5090   24.9650  -30.4980 C   0  0  0  0  0  0  0  0  0  0  0  0
   -5.6430   25.9890  -30.4570 C   0  0  0  0  0  0  0  0  0  0  0  0
   -3.7970   22.7300  -31.2510 C   0  0  0  0  0  0  0  0  0  0  0  0
   -4.2110   21.4870  -32.0570 C   0  0  0  0  0  0  0  0  0  0  0  0
   -5.2060   21.8150  -33.0910 N   0  0  0  0  0  0  0  0  0  0  0  0
   -6.4930   21.1390  -32.8500 C   0  0  0  0  0  0  0  0  0  0  0  0
   -6.4250   19.6610  -33.1800 C   0  0  0  0  0  0  0  0  0  0  0  0
   -5.3810   19.1990  -34.0010 C   0  0  0  0  0  0  0  0  0  0  0  0
   -5.2580   17.8410  -34.3010 C   0  0  0  0  0  0  0  0  0  0  0  0
   -6.1760   16.9250  -33.7830 C   0  0  0  0  0  0  0  0  0  0  0  0
   -6.0190   15.2190  -34.1590 Cl  0  0  0  0  0  0  0  0  0  0  0  0
   -7.2190   17.3680  -32.9650 C   0  0  0  0  0  0  0  0  0  0  0  0
   -7.3510   18.7280  -32.6570 C   0  0  0  0  0  0  0  0  0  0  0  0
   -8.6810   19.2100  -31.6100 Cl  0  0  0  0  0  0  0  0  0  0  0  0
   -8.1432   23.6201  -30.2203 H   0  0  0  0  0  0  0  0  0  0  0  0
   -7.2904   24.3341  -31.6308 H   0  0  0  0  0  0  0  0  0  0  0  0
   -7.7224   22.5906  -31.6308 H   0  0  0  0  0  0  0  0  0  0  0  0
   -6.0355   23.5036  -29.3381 H   0  0  0  0  0  0  0  0  0  0  0  0
   -5.9321   22.0086  -30.3519 H   0  0  0  0  0  0  0  0  0  0  0  0
   -4.1802   24.7589  -29.4687 H   0  0  0  0  0  0  0  0  0  0  0  0
   -3.6926   25.3886  -31.1014 H   0  0  0  0  0  0  0  0  0  0  0  0
   -5.8944   26.2160  -29.4104 H   0  0  0  0  0  0  0  0  0  0  0  0
   -5.3234   26.9106  -30.9655 H   0  0  0  0  0  0  0  0  0  0  0  0
   -6.5273   25.5774  -30.9655 H   0  0  0  0  0  0  0  0  0  0  0  0
   -2.9578   23.2260  -31.7607 H   0  0  0  0  0  0  0  0  0  0  0  0
   -3.5001   22.4097  -30.2414 H   0  0  0  0  0  0  0  0  0  0  0  0
   -3.3192   21.0634  -32.5421 H   0  0  0  0  0  0  0  0  0  0  0  0
   -4.6635   20.7634  -31.3630 H   0  0  0  0  0  0  0  0  0  0  0  0
   -5.3770   22.8480  -33.0800 H   0  0  0  0  0  0  0  0  0  0  0  0
   -4.8460   21.5490  -34.0370 H   0  0  0  0  0  0  0  0  0  0  0  0
   -6.7626   21.2548  -31.7898 H   0  0  0  0  0  0  0  0  0  0  0  0
   -7.2482   21.6001  -33.5035 H   0  0  0  0  0  0  0  0  0  0  0  0
   -4.6536   19.9150  -34.4112 H   0  0  0  0  0  0  0  0  0  0  0  0
   -4.4377   17.4925  -34.9456 H   0  0  0  0  0  0  0  0  0  0  0  0
   -7.9412   16.6437  -32.5603 H   0  0  0  0  0  0  0  0  0  0  0  0
  1  2  1  0
  2  3  1  0
  3  4  1  0
  4  5  1  0
  3  6  1  0
  6  7  1  0
  7  8  1  0
  8  9  1  0
  9 10  1  0
 10 11  2  0
 11 12  1  0
 12 13  2  0
 13 14  1  0
 13 15  1  0
 15 16  2  0
 16 17  1  0
 16 10  1  0
  1 18  1  0
  1 19  1  0
  1 20  1  0
  2 21  1  0
  2 22  1  0
  4 23  1  0
  4 24  1  0
  5 25  1  0
  5 26  1  0
  5 27  1  0
  6 28  1  0
  6 29  1  0
  7 30  1  0
  7 31  1  0
  8 32  1  0
  8 33  1  0
  9 34  1  0
  9 35  1  0
 11 36  1  0
 12 37  1  0
 15 38  1  0
M  CHG  1   8   1
M  END
>  <UniqueID>  (39) 
37

>  <SMILES>  (39) 
CCN(CC)CC[NH2+]Cc1ccc(Cl)cc1Cl

>  <Energy>  (39) 
34.42347312815442

>  <Genealogy>  (39) 
CCN(CC)CC[NH2+]Cc1ccc(Cl)cc1Cl (protonated)
CCN(CC)CC[NH2+]Cc1ccc(Cl)cc1Cl (3D coordinates assigned)
CCN(CC)CC[NH2+]Cc1ccc(Cl)cc1Cl (optimized conformer: 34.42347312815442 kcal/mol)

>  <smiles>  (39) 
CCN(CC)CCNCc1ccc(Cl)cc1Cl

>  <score_type>  (39) 
oracle

>  <origin>  (39) 
adg

>  <m_score__min__energy>  (39) 
-6.4299999999999997

>  <m_primary>  (39) 
energy

$$$$
39:0
     RDKit          3D

 59 62  0  0  0  0  0  0  0  0999 V2000
   -9.2510   18.1610  -31.6350 C   0  0  0  0  0  0  0  0  0  0  0  0
   -9.1330   19.3650  -32.5630 C   0  0  0  0  0  0  0  0  0  0  0  0
   -7.7420   19.8150  -32.6390 N   0  0  0  0  0  0  0  0  0  0  0  0
   -6.6890   19.1330  -33.1360 C   0  0  0  0  0  0  0  0  0  0  0  0
   -6.7790   17.9570  -33.5850 O   0  0  0  0  0  0  0  0  0  0  0  0
   -5.5310   19.8450  -33.1300 N   0  0  0  0  0  0  0  0  0  0  0  0
   -4.2720   19.3690  -33.7180 C   0  0  0  0  0  0  0  0  0  0  0  0
   -3.8710   18.0260  -33.1100 C   0  0  0  0  0  0  0  0  0  0  0  0
   -5.8850   21.0620  -32.6220 C   0  0  0  0  0  0  0  0  0  0  0  0
   -5.1170   22.2360  -32.3780 C   0  0  0  0  0  0  0  0  0  0  0  0
   -3.6150   22.2790  -32.6060 C   0  0  0  0  0  0  0  0  0  0  0  0
   -2.7410   21.5860  -31.5430 C   0  0  0  0  0  0  0  0  0  0  0  0
   -2.3280   22.5540  -30.5020 N   0  0  0  0  0  0  0  0  0  0  0  0
   -3.4320   22.7900  -29.5530 C   0  0  0  0  0  0  0  0  0  0  0  0
   -3.0350   23.7140  -28.3780 C   0  0  0  0  0  0  0  0  0  0  0  0
   -1.6000   24.0660  -28.3370 N   0  0  0  0  0  0  0  0  0  0  0  0
   -1.1810   25.2120  -27.5660 C   0  0  0  0  0  0  0  0  0  0  0  0
   -0.9010   26.3950  -28.1820 N   0  0  0  0  0  0  0  0  0  0  0  0
   -0.4940   27.4810  -27.4750 C   0  0  0  0  0  0  0  0  0  0  0  0
   -0.3500   27.3940  -26.0910 C   0  0  0  0  0  0  0  0  0  0  0  0
   -0.6350   26.1770  -25.4630 C   0  0  0  0  0  0  0  0  0  0  0  0
   -0.5180   26.0420  -23.9730 C   0  0  0  0  0  0  0  0  0  0  0  0
   -1.3950   26.9050  -23.3370 F   0  0  0  0  0  0  0  0  0  0  0  0
    0.7770   26.3440  -23.5810 F   0  0  0  0  0  0  0  0  0  0  0  0
   -0.8170   24.7420  -23.5970 F   0  0  0  0  0  0  0  0  0  0  0  0
   -1.0480   25.1170  -26.2140 N   0  0  0  0  0  0  0  0  0  0  0  0
   -0.5630   23.2470  -28.9850 C   0  0  0  0  0  0  0  0  0  0  0  0
   -1.1570   22.0750  -29.7510 C   0  0  0  0  0  0  0  0  0  0  0  0
   -5.8140   23.3470  -31.8270 C   0  0  0  0  0  0  0  0  0  0  0  0
   -7.1940   23.2910  -31.5630 C   0  0  0  0  0  0  0  0  0  0  0  0
   -7.9220   22.1240  -31.8160 C   0  0  0  0  0  0  0  0  0  0  0  0
   -7.2370   21.0270  -32.3340 C   0  0  0  0  0  0  0  0  0  0  0  0
   -9.2178   18.4997  -30.5890 H   0  0  0  0  0  0  0  0  0  0  0  0
  -10.2040   17.6450  -31.8233 H   0  0  0  0  0  0  0  0  0  0  0  0
   -8.4163   17.4697  -31.8233 H   0  0  0  0  0  0  0  0  0  0  0  0
   -9.4784   19.0830  -33.5686 H   0  0  0  0  0  0  0  0  0  0  0  0
   -9.7522   20.1834  -32.1669 H   0  0  0  0  0  0  0  0  0  0  0  0
   -4.4018   19.2504  -34.8039 H   0  0  0  0  0  0  0  0  0  0  0  0
   -3.4813   20.1044  -33.5085 H   0  0  0  0  0  0  0  0  0  0  0  0
   -3.8928   18.0992  -32.0127 H   0  0  0  0  0  0  0  0  0  0  0  0
   -4.5763   17.2490  -33.4398 H   0  0  0  0  0  0  0  0  0  0  0  0
   -2.8551   17.7629  -33.4398 H   0  0  0  0  0  0  0  0  0  0  0  0
   -3.4094   21.7981  -33.5737 H   0  0  0  0  0  0  0  0  0  0  0  0
   -3.3426   23.3437  -32.5597 H   0  0  0  0  0  0  0  0  0  0  0  0
   -3.3161   20.7737  -31.0746 H   0  0  0  0  0  0  0  0  0  0  0  0
   -1.8416   21.1810  -32.0300 H   0  0  0  0  0  0  0  0  0  0  0  0
   -4.2678   23.2546  -30.0968 H   0  0  0  0  0  0  0  0  0  0  0  0
   -3.7101   21.8158  -29.1246 H   0  0  0  0  0  0  0  0  0  0  0  0
   -3.6155   24.6447  -28.4607 H   0  0  0  0  0  0  0  0  0  0  0  0
   -3.2484   23.1567  -27.4539 H   0  0  0  0  0  0  0  0  0  0  0  0
   -0.2785   28.4270  -27.9932 H   0  0  0  0  0  0  0  0  0  0  0  0
   -0.0192   28.2642  -25.5051 H   0  0  0  0  0  0  0  0  0  0  0  0
    0.0021   23.8792  -29.6857 H   0  0  0  0  0  0  0  0  0  0  0  0
    0.0902   22.8419  -28.1981 H   0  0  0  0  0  0  0  0  0  0  0  0
   -0.4090   21.6702  -30.4485 H   0  0  0  0  0  0  0  0  0  0  0  0
   -1.4567   21.2805  -29.0517 H   0  0  0  0  0  0  0  0  0  0  0  0
   -5.2608   24.2709  -31.6024 H   0  0  0  0  0  0  0  0  0  0  0  0
   -7.7062   24.1741  -31.1533 H   0  0  0  0  0  0  0  0  0  0  0  0
   -9.0018   22.0738  -31.6123 H   0  0  0  0  0  0  0  0  0  0  0  0
  1  2  1  0
  2  3  1  0
  3  4  1  0
  4  5  2  0
  4  6  1  0
  6  7  1  0
  7  8  1  0
  6  9  1  0
  9 10  2  0
 10 11  1  0
 11 12  1  0
 12 13  1  0
 13 14  1  0
 14 15  1  0
 15 16  1  0
 16 17  1  0
 17 18  2  0
 18 19  1  0
 19 20  2  0
 20 21  1  0
 21 22  1  0
 22 23  1  0
 22 24  1  0
 22 25  1  0
 21 26  2  0
 16 27  1  0
 27 28  1  0
 10 29  1  0
 29 30  2  0
 30 31  1  0
 31 32  2  0
 32  3  1  0
 32  9  1  0
 28 13  1  0
 26 17  1  0
  1 33  1  0
  1 34  1  0
  1 35  1  0
  2 36  1  0
  2 37  1  0
  7 38  1  0
  7 39  1  0
  8 40  1  0
  8 41  1  0
  8 42  1  0
 11 43  1  0
 11 44  1  0
 12 45  1  0
 12 46  1  0
 14 47  1  0
 14 48  1  0
 15 49  1  0
 15 50  1  0
 19 51  1  0
 20 52  1  0
 27 53  1  0
 27 54  1  0
 28 55  1  0
 28 56  1  0
 29 57  1  0
 30 58  1  0
 31 59  1  0
M  END
>  <UniqueID>  (40) 
38

>  <SMILES>  (40) 
CCn1c(=O)n(CC)c2c(CCN3CCN(c4nccc(C(F)(F)F)n4)CC3)cccc21

>  <Energy>  (40) 
109.82568628951756

>  <Genealogy>  (40) 
CCn1c(=O)n(CC)c2c(CCN3CCN(c4nccc(C(F)(F)F)n4)CC3)cccc21 (3D coordinates assigned)
CCn1c(=O)n(CC)c2c(CCN3CCN(c4nccc(C(F)(F)F)n4)CC3)cccc21 (nonaromatic ring conformer: 109.82568628951756 kcal/mol)

>  <smiles>  (40) 
CCn1c(=O)n(CC)c2c(CCN3CCN(c4nccc(C(F)(F)F)n4)CC3)cccc21

>  <score_type>  (40) 
oracle

>  <origin>  (40) 
adg

>  <m_score__min__energy>  (40) 
-8.9399999999999995

>  <m_primary>  (40) 
energy

$$$$
40:0
     RDKit          3D

 57 60  0  0  0  0  0  0  0  0999 V2000
   -5.7200   25.7210  -30.1090 C   0  0  0  0  0  0  0  0  0  0  0  0
   -4.8180   24.9300  -30.8900 O   0  0  0  0  0  0  0  0  0  0  0  0
   -5.0970   23.6320  -31.3530 C   0  0  0  0  0  0  0  0  0  0  0  0
   -4.1410   22.5990  -31.3230 C   0  0  0  0  0  0  0  0  0  0  0  0
   -4.4750   21.3190  -31.7780 C   0  0  0  0  0  0  0  0  0  0  0  0
   -5.7530   21.0540  -32.2930 C   0  0  0  0  0  0  0  0  0  0  0  0
   -6.0880   19.7440  -32.7830 N   0  0  0  0  0  0  0  0  0  0  0  0
   -6.3270   19.5360  -34.2140 C   0  0  0  0  0  0  0  0  0  0  0  0
   -5.9780   18.0930  -34.5930 C   0  0  0  0  0  0  0  0  0  0  0  0
   -6.7600   17.1030  -33.8070 N   0  0  0  0  0  0  0  0  0  0  0  0
   -6.1100   15.7770  -33.8500 C   0  0  0  0  0  0  0  0  0  0  0  0
   -4.9450   15.7480  -32.8970 C   0  0  0  0  0  0  0  0  0  0  0  0
   -4.9720   14.9390  -31.9310 O   0  0  0  0  0  0  0  0  0  0  0  0
   -3.8460   16.6620  -32.9940 N   0  0  0  0  0  0  0  0  0  0  0  0
   -2.6530   16.5340  -33.7820 C   0  0  0  0  0  0  0  0  0  0  0  0
   -1.9690   15.3070  -33.8870 C   0  0  0  0  0  0  0  0  0  0  0  0
   -0.7950   15.2170  -34.6410 C   0  0  0  0  0  0  0  0  0  0  0  0
   -0.2760   16.3550  -35.2700 C   0  0  0  0  0  0  0  0  0  0  0  0
   -0.9210   17.5880  -35.1350 C   0  0  0  0  0  0  0  0  0  0  0  0
   -2.0990   17.6860  -34.3820 C   0  0  0  0  0  0  0  0  0  0  0  0
   -2.8780   19.3000  -34.1920 S   0  0  0  0  0  0  0  0  0  0  0  0
   -1.7560   19.7940  -32.8770 C   0  0  0  0  0  0  0  0  0  0  0  0
   -1.3700   21.1340  -32.7500 C   0  0  0  0  0  0  0  0  0  0  0  0
   -0.5210   21.5250  -31.7080 C   0  0  0  0  0  0  0  0  0  0  0  0
   -0.0450   20.5740  -30.7990 C   0  0  0  0  0  0  0  0  0  0  0  0
   -0.4210   19.2330  -30.9280 C   0  0  0  0  0  0  0  0  0  0  0  0
   -1.2740   18.8400  -31.9660 C   0  0  0  0  0  0  0  0  0  0  0  0
   -7.0630   17.5210  -32.4100 C   0  0  0  0  0  0  0  0  0  0  0  0
   -6.0980   18.5910  -31.8740 C   0  0  0  0  0  0  0  0  0  0  0  0
   -6.7000   22.0860  -32.3400 C   0  0  0  0  0  0  0  0  0  0  0  0
   -6.3760   23.3620  -31.8620 C   0  0  0  0  0  0  0  0  0  0  0  0
   -5.5256   25.5505  -29.0398 H   0  0  0  0  0  0  0  0  0  0  0  0
   -5.5716   26.7854  -30.3435 H   0  0  0  0  0  0  0  0  0  0  0  0
   -6.7559   25.4349  -30.3435 H   0  0  0  0  0  0  0  0  0  0  0  0
   -3.1290   22.7988  -30.9409 H   0  0  0  0  0  0  0  0  0  0  0  0
   -3.7285   20.5124  -31.7316 H   0  0  0  0  0  0  0  0  0  0  0  0
   -7.3867   19.7268  -34.4390 H   0  0  0  0  0  0  0  0  0  0  0  0
   -5.6957   20.2267  -34.7923 H   0  0  0  0  0  0  0  0  0  0  0  0
   -6.1918   17.9456  -35.6619 H   0  0  0  0  0  0  0  0  0  0  0  0
   -4.9120   17.9337  -34.3731 H   0  0  0  0  0  0  0  0  0  0  0  0
   -6.8375   15.0043  -33.5607 H   0  0  0  0  0  0  0  0  0  0  0  0
   -5.7487   15.5830  -34.8707 H   0  0  0  0  0  0  0  0  0  0  0  0
   -2.3601   14.4161  -33.3737 H   0  0  0  0  0  0  0  0  0  0  0  0
   -0.2785   14.2509  -34.7401 H   0  0  0  0  0  0  0  0  0  0  0  0
    0.6415   16.2788  -35.8719 H   0  0  0  0  0  0  0  0  0  0  0  0
   -0.5034   18.4824  -35.6204 H   0  0  0  0  0  0  0  0  0  0  0  0
   -1.7347   21.8809  -33.4705 H   0  0  0  0  0  0  0  0  0  0  0  0
   -0.2281   22.5801  -31.6039 H   0  0  0  0  0  0  0  0  0  0  0  0
    0.6252   20.8810  -29.9826 H   0  0  0  0  0  0  0  0  0  0  0  0
   -0.0459   18.4862  -30.2128 H   0  0  0  0  0  0  0  0  0  0  0  0
   -1.5666   17.7846  -32.0681 H   0  0  0  0  0  0  0  0  0  0  0  0
   -8.0852   17.9261  -32.3805 H   0  0  0  0  0  0  0  0  0  0  0  0
   -6.9516   16.6320  -31.7719 H   0  0  0  0  0  0  0  0  0  0  0  0
   -6.4278   18.9145  -30.8757 H   0  0  0  0  0  0  0  0  0  0  0  0
   -5.0844   18.1689  -31.8077 H   0  0  0  0  0  0  0  0  0  0  0  0
   -7.7009   21.8933  -32.7536 H   0  0  0  0  0  0  0  0  0  0  0  0
   -7.1321   24.1605  -31.8860 H   0  0  0  0  0  0  0  0  0  0  0  0
  1  2  1  0
  2  3  1  0
  3  4  2  0
  4  5  1  0
  5  6  2  0
  6  7  1  0
  7  8  1  0
  8  9  1  0
  9 10  1  0
 10 11  1  0
 11 12  1  0
 12 13  2  0
 12 14  1  0
 14 15  1  0
 15 16  2  0
 16 17  1  0
 17 18  2  0
 18 19  1  0
 19 20  2  0
 20 21  1  0
 21 22  1  0
 22 23  2  0
 23 24  1  0
 24 25  2  0
 25 26  1  0
 26 27  2  0
 10 28  1  0
 28 29  1  0
  6 30  1  0
 30 31  2  0
 31  3  1  0
 29  7  1  0
 20 15  1  0
 27 22  1  0
  1 32  1  0
  1 33  1  0
  1 34  1  0
  4 35  1  0
  5 36  1  0
  8 37  1  0
  8 38  1  0
  9 39  1  0
  9 40  1  0
 11 41  1  0
 11 42  1  0
 16 43  1  0
 17 44  1  0
 18 45  1  0
 19 46  1  0
 23 47  1  0
 24 48  1  0
 25 49  1  0
 26 50  1  0
 27 51  1  0
 28 52  1  0
 28 53  1  0
 29 54  1  0
 29 55  1  0
 30 56  1  0
 31 57  1  0
M  CHG  1  14  -1
M  END
>  <UniqueID>  (41) 
39

>  <SMILES>  (41) 
COc1ccc(N2CCN(CC(=O)[N-]c3ccccc3Sc3ccccc3)CC2)cc1

>  <Energy>  (41) 
71.6041159800646

>  <Genealogy>  (41) 
COc1ccc(N2CCN(CC(=O)[N-]c3ccccc3Sc3ccccc3)CC2)cc1 (protonated)
COc1ccc(N2CCN(CC(=O)[N-]c3ccccc3Sc3ccccc3)CC2)cc1 (3D coordinates assigned)
COc1ccc(N2CCN(CC(=O)[N-]c3ccccc3Sc3ccccc3)CC2)cc1 (nonaromatic ring conformer: 71.6041159800646 kcal/mol)

>  <smiles>  (41) 
COc1ccc(N2CCN(CC(=O)Nc3ccccc3Sc3ccccc3)CC2)cc1

>  <score_type>  (41) 
oracle

>  <origin>  (41) 
adg

>  <m_score__min__energy>  (41) 
-11.449999999999999

>  <m_primary>  (41) 
energy

$$$$
41:0
     RDKit          3D

 56 58  0  0  0  0  0  0  0  0999 V2000
   -5.7410   25.7020  -30.1070 C   0  0  0  0  0  0  0  0  0  0  0  0
   -6.2320   24.2620  -30.1700 C   0  0  0  0  0  0  0  0  0  0  0  0
   -5.2210   23.3860  -30.8600 C   0  0  0  0  0  0  0  0  0  0  0  0
   -3.8990   23.2580  -30.4570 C   0  0  0  0  0  0  0  0  0  0  0  0
   -3.3640   23.8970  -29.3280 O   0  0  0  0  0  0  0  0  0  0  0  0
   -2.3650   23.3640  -28.4600 C   0  0  0  0  0  0  0  0  0  0  0  0
   -2.9530   22.3280  -27.4900 C   0  0  0  0  0  0  0  0  0  0  0  0
   -2.0330   21.1780  -27.3240 N   0  0  0  0  0  0  0  0  0  0  0  0
   -0.8510   21.3020  -28.2070 C   0  0  0  0  0  0  0  0  0  0  0  0
   -0.5130   19.9480  -28.8250 C   0  0  0  0  0  0  0  0  0  0  0  0
   -2.7350   19.8930  -27.5540 C   0  0  0  0  0  0  0  0  0  0  0  0
   -2.7290   19.0460  -26.2840 C   0  0  0  0  0  0  0  0  0  0  0  0
   -3.2970   22.3960  -31.3660 C   0  0  0  0  0  0  0  0  0  0  0  0
   -1.9860   21.9250  -31.4960 C   0  0  0  0  0  0  0  0  0  0  0  0
   -1.6960   21.0490  -32.5540 C   0  0  0  0  0  0  0  0  0  0  0  0
   -2.7010   20.6690  -33.4640 C   0  0  0  0  0  0  0  0  0  0  0  0
   -4.0060   21.1680  -33.3310 C   0  0  0  0  0  0  0  0  0  0  0  0
   -4.2800   22.0370  -32.2670 C   0  0  0  0  0  0  0  0  0  0  0  0
   -5.4560   22.6380  -31.9690 N   0  0  0  0  0  0  0  0  0  0  0  0
   -6.7480   22.4520  -32.6450 C   0  0  0  0  0  0  0  0  0  0  0  0
   -7.2710   21.0560  -32.4150 C   0  0  0  0  0  0  0  0  0  0  0  0
   -6.7760   19.9770  -33.1690 C   0  0  0  0  0  0  0  0  0  0  0  0
   -7.2500   18.6820  -32.9430 C   0  0  0  0  0  0  0  0  0  0  0  0
   -8.2240   18.4510  -31.9690 C   0  0  0  0  0  0  0  0  0  0  0  0
   -8.7320   19.5190  -31.2240 C   0  0  0  0  0  0  0  0  0  0  0  0
   -8.2630   20.8170  -31.4480 C   0  0  0  0  0  0  0  0  0  0  0  0
   -5.6366   26.0081  -29.0556 H   0  0  0  0  0  0  0  0  0  0  0  0
   -4.7658   25.7792  -30.6099 H   0  0  0  0  0  0  0  0  0  0  0  0
   -6.4659   26.3589  -30.6099 H   0  0  0  0  0  0  0  0  0  0  0  0
   -6.3939   23.8904  -29.1474 H   0  0  0  0  0  0  0  0  0  0  0  0
   -7.1727   24.2332  -30.7394 H   0  0  0  0  0  0  0  0  0  0  0  0
   -1.5847   22.8819  -29.0673 H   0  0  0  0  0  0  0  0  0  0  0  0
   -1.9468   24.1913  -27.8678 H   0  0  0  0  0  0  0  0  0  0  0  0
   -3.1164   22.8029  -26.5113 H   0  0  0  0  0  0  0  0  0  0  0  0
   -3.9044   21.9606  -27.9021 H   0  0  0  0  0  0  0  0  0  0  0  0
   -1.0697   22.0232  -29.0083 H   0  0  0  0  0  0  0  0  0  0  0  0
    0.0068   21.6507  -27.6131 H   0  0  0  0  0  0  0  0  0  0  0  0
   -0.3301   19.2153  -28.0252 H   0  0  0  0  0  0  0  0  0  0  0  0
   -1.3541   19.6089  -29.4476 H   0  0  0  0  0  0  0  0  0  0  0  0
    0.3888   20.0440  -29.4476 H   0  0  0  0  0  0  0  0  0  0  0  0
   -3.7751   20.0964  -27.8486 H   0  0  0  0  0  0  0  0  0  0  0  0
   -2.2159   19.3417  -28.3519 H   0  0  0  0  0  0  0  0  0  0  0  0
   -2.7337   19.7053  -25.4035 H   0  0  0  0  0  0  0  0  0  0  0  0
   -3.6226   18.4048  -26.2667 H   0  0  0  0  0  0  0  0  0  0  0  0
   -1.8264   18.4175  -26.2667 H   0  0  0  0  0  0  0  0  0  0  0  0
   -1.2029   22.2331  -30.7876 H   0  0  0  0  0  0  0  0  0  0  0  0
   -0.6754   20.6563  -32.6730 H   0  0  0  0  0  0  0  0  0  0  0  0
   -2.4618   19.9765  -34.2845 H   0  0  0  0  0  0  0  0  0  0  0  0
   -4.7938   20.8839  -34.0442 H   0  0  0  0  0  0  0  0  0  0  0  0
   -7.4717   23.1792  -32.2482 H   0  0  0  0  0  0  0  0  0  0  0  0
   -6.6084   22.6051  -33.7253 H   0  0  0  0  0  0  0  0  0  0  0  0
   -6.0119   20.1533  -33.9405 H   0  0  0  0  0  0  0  0  0  0  0  0
   -6.8550   17.8424  -33.5337 H   0  0  0  0  0  0  0  0  0  0  0  0
   -8.5909   17.4298  -31.7884 H   0  0  0  0  0  0  0  0  0  0  0  0
   -9.5023   19.3379  -30.4599 H   0  0  0  0  0  0  0  0  0  0  0  0
   -8.6722   21.6551  -30.8648 H   0  0  0  0  0  0  0  0  0  0  0  0
  1  2  1  0
  2  3  1  0
  3  4  2  0
  4  5  1  0
  5  6  1  0
  6  7  1  0
  7  8  1  0
  8  9  1  0
  9 10  1  0
  8 11  1  0
 11 12  1  0
  4 13  1  0
 13 14  2  0
 14 15  1  0
 15 16  2  0
 16 17  1  0
 17 18  2  0
 18 19  1  0
 19 20  1  0
 20 21  1  0
 21 22  2  0
 22 23  1  0
 23 24  2  0
 24 25  1  0
 25 26  2  0
 19  3  1  0
 26 21  1  0
 18 13  1  0
  1 27  1  0
  1 28  1  0
  1 29  1  0
  2 30  1  0
  2 31  1  0
  6 32  1  0
  6 33  1  0
  7 34  1  0
  7 35  1  0
  9 36  1  0
  9 37  1  0
 10 38  1  0
 10 39  1  0
 10 40  1  0
 11 41  1  0
 11 42  1  0
 12 43  1  0
 12 44  1  0
 12 45  1  0
 14 46  1  0
 15 47  1  0
 16 48  1  0
 17 49  1  0
 20 50  1  0
 20 51  1  0
 22 52  1  0
 23 53  1  0
 24 54  1  0
 25 55  1  0
 26 56  1  0
M  END
>  <UniqueID>  (42) 
40

>  <SMILES>  (42) 
CCc1c(OCCN(CC)CC)c2ccccc2n1Cc1ccccc1

>  <Energy>  (42) 
84.03156448614666

>  <Genealogy>  (42) 
CCc1c(OCCN(CC)CC)c2ccccc2n1Cc1ccccc1 (3D coordinates assigned)
CCc1c(OCCN(CC)CC)c2ccccc2n1Cc1ccccc1 (optimized conformer: 84.03156448614666 kcal/mol)

>  <smiles>  (42) 
CCc1c(OCCN(CC)CC)c2ccccc2n1Cc1ccccc1

>  <score_type>  (42) 
oracle

>  <origin>  (42) 
adg

>  <m_score__min__energy>  (42) 
-8.0500000000000007

>  <m_primary>  (42) 
energy

$$$$
42:0
     RDKit          3D

 67 69  0  0  0  0  0  0  0  0999 V2000
    1.4650   29.0390  -23.4780 C   0  0  0  0  0  0  0  0  0  0  0  0
    0.9680   27.7330  -22.8660 C   0  0  0  0  0  0  0  0  0  0  0  0
    0.2200   26.9550  -23.8590 N   0  0  0  0  0  0  0  0  0  0  0  0
   -0.8580   27.5080  -24.4880 C   0  0  0  0  0  0  0  0  0  0  0  0
   -1.5880   26.7580  -25.4120 C   0  0  0  0  0  0  0  0  0  0  0  0
   -1.2220   25.4720  -25.6890 N   0  0  0  0  0  0  0  0  0  0  0  0
   -2.0080   24.6730  -26.6380 C   0  0  0  0  0  0  0  0  0  0  0  0
   -3.5040   24.9110  -26.4160 C   0  0  0  0  0  0  0  0  0  0  0  0
   -4.3380   24.2210  -27.5050 C   0  0  0  0  0  0  0  0  0  0  0  0
   -3.4740   23.6300  -28.6320 C   0  0  0  0  0  0  0  0  0  0  0  0
   -3.8760   24.0860  -30.0450 C   0  0  0  0  0  0  0  0  0  0  0  0
   -5.1340   23.4120  -30.5290 C   0  0  0  0  0  0  0  0  0  0  0  0
   -6.1830   23.1520  -29.6350 C   0  0  0  0  0  0  0  0  0  0  0  0
   -7.3570   22.5390  -30.0820 C   0  0  0  0  0  0  0  0  0  0  0  0
   -7.5060   22.1880  -31.4350 C   0  0  0  0  0  0  0  0  0  0  0  0
   -8.7950   21.5680  -31.9210 C   0  0  0  0  0  0  0  0  0  0  0  0
   -8.6670   20.0740  -32.2780 C   0  0  0  0  0  0  0  0  0  0  0  0
   -7.5440   19.3320  -31.5240 C   0  0  0  0  0  0  0  0  0  0  0  0
   -6.6590   18.5700  -32.4270 N   0  0  0  0  0  0  0  0  0  0  0  0
   -6.5400   18.9950  -33.7240 C   0  0  0  0  0  0  0  0  0  0  0  0
   -5.6470   18.3870  -34.6040 C   0  0  0  0  0  0  0  0  0  0  0  0
   -4.8540   17.3290  -34.1600 C   0  0  0  0  0  0  0  0  0  0  0  0
   -3.8740   16.6690  -35.0830 C   0  0  0  0  0  0  0  0  0  0  0  0
   -5.0290   16.8500  -32.8600 C   0  0  0  0  0  0  0  0  0  0  0  0
   -5.9490   17.4660  -31.9980 C   0  0  0  0  0  0  0  0  0  0  0  0
   -6.1270   16.9130  -30.6850 N   0  0  0  0  0  0  0  0  0  0  0  0
   -6.4280   22.3910  -32.3140 C   0  0  0  0  0  0  0  0  0  0  0  0
   -5.2580   23.0120  -31.8680 C   0  0  0  0  0  0  0  0  0  0  0  0
   -0.1600   24.9100  -25.0400 C   0  0  0  0  0  0  0  0  0  0  0  0
    0.5680   25.6600  -24.1150 C   0  0  0  0  0  0  0  0  0  0  0  0
    1.7324   29.7418  -22.6751 H   0  0  0  0  0  0  0  0  0  0  0  0
    2.3499   28.8390  -24.1001 H   0  0  0  0  0  0  0  0  0  0  0  0
    0.6711   29.4779  -24.1001 H   0  0  0  0  0  0  0  0  0  0  0  0
    1.8299   27.1443  -22.5188 H   0  0  0  0  0  0  0  0  0  0  0  0
    0.3036   27.9653  -22.0206 H   0  0  0  0  0  0  0  0  0  0  0  0
   -1.1516   28.5448  -24.2668 H   0  0  0  0  0  0  0  0  0  0  0  0
   -2.4580   27.2031  -25.9169 H   0  0  0  0  0  0  0  0  0  0  0  0
   -1.7422   24.9633  -27.6652 H   0  0  0  0  0  0  0  0  0  0  0  0
   -1.7864   23.6072  -26.4803 H   0  0  0  0  0  0  0  0  0  0  0  0
   -3.7906   24.5076  -25.4336 H   0  0  0  0  0  0  0  0  0  0  0  0
   -3.6971   25.9930  -26.4593 H   0  0  0  0  0  0  0  0  0  0  0  0
   -4.9166   23.4078  -27.0423 H   0  0  0  0  0  0  0  0  0  0  0  0
   -4.9923   24.9829  -27.9539 H   0  0  0  0  0  0  0  0  0  0  0  0
   -2.4297   23.9287  -28.4579 H   0  0  0  0  0  0  0  0  0  0  0  0
   -3.6185   22.5400  -28.6003 H   0  0  0  0  0  0  0  0  0  0  0  0
   -4.0403   25.1736  -30.0320 H   0  0  0  0  0  0  0  0  0  0  0  0
   -3.0618   23.8100  -30.7313 H   0  0  0  0  0  0  0  0  0  0  0  0
   -6.0812   23.4321  -28.5761 H   0  0  0  0  0  0  0  0  0  0  0  0
   -8.1694   22.3299  -29.3705 H   0  0  0  0  0  0  0  0  0  0  0  0
   -9.5511   21.6724  -31.1289 H   0  0  0  0  0  0  0  0  0  0  0  0
   -9.0784   22.0961  -32.8433 H   0  0  0  0  0  0  0  0  0  0  0  0
   -9.6222   19.5814  -32.0438 H   0  0  0  0  0  0  0  0  0  0  0  0
   -8.4110   20.0277  -33.3468 H   0  0  0  0  0  0  0  0  0  0  0  0
   -6.9385   20.0708  -30.9786 H   0  0  0  0  0  0  0  0  0  0  0  0
   -8.0207   18.6133  -30.8412 H   0  0  0  0  0  0  0  0  0  0  0  0
   -7.1608   19.8316  -34.0771 H   0  0  0  0  0  0  0  0  0  0  0  0
   -5.5679   18.7394  -35.6430 H   0  0  0  0  0  0  0  0  0  0  0  0
   -3.1048   16.1510  -34.4914 H   0  0  0  0  0  0  0  0  0  0  0  0
   -4.4008   15.9410  -35.7174 H   0  0  0  0  0  0  0  0  0  0  0  0
   -3.3974   17.4309  -35.7174 H   0  0  0  0  0  0  0  0  0  0  0  0
   -4.4436   15.9868  -32.5105 H   0  0  0  0  0  0  0  0  0  0  0  0
   -5.8890   15.9270  -30.4490 H   0  0  0  0  0  0  0  0  0  0  0  0
   -6.4410   17.5220  -29.8960 H   0  0  0  0  0  0  0  0  0  0  0  0
   -6.5058   22.0589  -33.3598 H   0  0  0  0  0  0  0  0  0  0  0  0
   -4.4301   23.1880  -32.5705 H   0  0  0  0  0  0  0  0  0  0  0  0
    0.1215   23.8668  -25.2461 H   0  0  0  0  0  0  0  0  0  0  0  0
    1.4230   25.2071  -23.5917 H   0  0  0  0  0  0  0  0  0  0  0  0
  1  2  1  0
  2  3  1  0
  3  4  2  0
  4  5  1  0
  5  6  2  0
  6  7  1  0
  7  8  1  0
  8  9  1  0
  9 10  1  0
 10 11  1  0
 11 12  1  0
 12 13  2  0
 13 14  1  0
 14 15  2  0
 15 16  1  0
 16 17  1  0
 17 18  1  0
 18 19  1  0
 19 20  2  0
 20 21  1  0
 21 22  2  0
 22 23  1  0
 22 24  1  0
 24 25  2  0
 25 26  1  0
 15 27  1  0
 27 28  2  0
  6 29  1  0
 29 30  2  0
 30  3  1  0
 28 12  1  0
 25 19  1  0
  1 31  1  0
  1 32  1  0
  1 33  1  0
  2 34  1  0
  2 35  1  0
  4 36  1  0
  5 37  1  0
  7 38  1  0
  7 39  1  0
  8 40  1  0
  8 41  1  0
  9 42  1  0
  9 43  1  0
 10 44  1  0
 10 45  1  0
 11 46  1  0
 11 47  1  0
 13 48  1  0
 14 49  1  0
 16 50  1  0
 16 51  1  0
 17 52  1  0
 17 53  1  0
 18 54  1  0
 18 55  1  0
 20 56  1  0
 21 57  1  0
 23 58  1  0
 23 59  1  0
 23 60  1  0
 24 61  1  0
 26 62  1  0
 26 63  1  0
 27 64  1  0
 28 65  1  0
 29 66  1  0
 30 67  1  0
M  CHG  3   3   1   6   1  19   1
M  END
>  <UniqueID>  (43) 
41

>  <SMILES>  (43) 
CC[n+]1cc[n+](CCCCCc2ccc(CCC[n+]3ccc(C)cc3N)cc2)cc1

>  <Energy>  (43) 
54.330768239662035

>  <Genealogy>  (43) 
CC[n+]1cc[n+](CCCCCc2ccc(CCC[n+]3ccc(C)cc3N)cc2)cc1 (3D coordinates assigned)
CC[n+]1cc[n+](CCCCCc2ccc(CCC[n+]3ccc(C)cc3N)cc2)cc1 (optimized conformer: 54.330768239662035 kcal/mol)

>  <smiles>  (43) 
CC[n+]1cc[n+](CCCCCc2ccc(CCC[n+]3ccc(C)cc3N)cc2)cc1

>  <score_type>  (43) 
oracle

>  <origin>  (43) 
adg

>  <m_score__min__energy>  (43) 
-7.5999999999999996

>  <m_primary>  (43) 
energy

$$$$
