0:0
     RDKit          3D

 33 33  0  0  0  0  0  0  0  0999 V2000
   -3.6660   22.4840  -28.3280 C   0  0  0  0  0  0  0  0  0  0  0  0
   -3.4300   23.0230  -29.7440 C   0  0  0  0  0  0  0  0  0  0  0  0
   -2.3810   22.1690  -30.4670 C   0  0  0  0  0  0  0  0  0  0  0  0
   -3.0070   24.5010  -29.6890 C   0  0  0  0  0  0  0  0  0  0  0  0
   -3.8530   25.3000  -30.5690 N   0  0  0  0  0  0  0  0  0  0  0  0
   -5.2770   25.4480  -30.4820 C   0  0  0  0  0  0  0  0  0  0  0  0
   -5.7370   26.5860  -30.1990 O   0  0  0  0  0  0  0  0  0  0  0  0
   -6.2250   24.3290  -30.7090 C   0  0  0  0  0  0  0  0  0  0  0  0
   -7.0510   24.0020  -29.8180 O   0  0  0  0  0  0  0  0  0  0  0  0
   -6.2200   23.6260  -31.9640 N   0  0  0  0  0  0  0  0  0  0  0  0
   -6.9510   22.4090  -32.1870 C   0  0  0  0  0  0  0  0  0  0  0  0
   -8.3170   22.3470  -31.8530 C   0  0  0  0  0  0  0  0  0  0  0  0
   -9.0210   21.1480  -31.9680 C   0  0  0  0  0  0  0  0  0  0  0  0
   -8.3720   19.9930  -32.4010 C   0  0  0  0  0  0  0  0  0  0  0  0
   -7.0160   20.0350  -32.7310 C   0  0  0  0  0  0  0  0  0  0  0  0
   -6.2920   21.2380  -32.6370 C   0  0  0  0  0  0  0  0  0  0  0  0
   -4.9070   21.2650  -33.0300 N   0  0  0  0  0  0  0  0  0  0  0  0
   -4.3550   20.2290  -33.4550 O   0  0  0  0  0  0  0  0  0  0  0  0
   -4.2220   22.4560  -33.1040 O   0  0  0  0  0  0  0  0  0  0  0  0
   -3.3383   23.2324  -27.5914 H   0  0  0  0  0  0  0  0  0  0  0  0
   -4.7372   22.2767  -28.1884 H   0  0  0  0  0  0  0  0  0  0  0  0
   -3.0918   21.5562  -28.1884 H   0  0  0  0  0  0  0  0  0  0  0  0
   -4.3693   22.9618  -30.3132 H   0  0  0  0  0  0  0  0  0  0  0  0
   -1.7511   21.6562  -29.7252 H   0  0  0  0  0  0  0  0  0  0  0  0
   -2.8868   21.4226  -31.0972 H   0  0  0  0  0  0  0  0  0  0  0  0
   -1.7527   22.8157  -31.0972 H   0  0  0  0  0  0  0  0  0  0  0  0
   -3.1059   24.8691  -28.6572 H   0  0  0  0  0  0  0  0  0  0  0  0
   -1.9616   24.5878  -30.0200 H   0  0  0  0  0  0  0  0  0  0  0  0
   -5.6720   24.0200  -32.7630 H   0  0  0  0  0  0  0  0  0  0  0  0
   -8.8336   23.2511  -31.4985 H   0  0  0  0  0  0  0  0  0  0  0  0
  -10.0913   21.1141  -31.7162 H   0  0  0  0  0  0  0  0  0  0  0  0
   -8.9285   19.0477  -32.4828 H   0  0  0  0  0  0  0  0  0  0  0  0
   -6.5087   19.1189  -33.0677 H   0  0  0  0  0  0  0  0  0  0  0  0
  1  2  1  0
  2  3  1  0
  2  4  1  0
  4  5  1  0
  5  6  1  0
  6  7  2  0
  6  8  1  0
  8  9  2  0
  8 10  1  0
 10 11  1  0
 11 12  2  0
 12 13  1  0
 13 14  2  0
 14 15  1  0
 15 16  2  0
 16 17  1  0
 17 18  2  0
 17 19  1  0
 16 11  1  0
  1 20  1  0
  1 21  1  0
  1 22  1  0
  2 23  1  0
  3 24  1  0
  3 25  1  0
  3 26  1  0
  4 27  1  0
  4 28  1  0
 10 29  1  0
 12 30  1  0
 13 31  1  0
 14 32  1  0
 15 33  1  0
M  CHG  3   5  -1  17   1  19  -1
M  END
>  <UniqueID>  (1) 
1

>  <SMILES>  (1) 
CC(C)C[N-]C(=O)C(=O)Nc1ccccc1[N+](=O)[O-]

>  <Energy>  (1) 
32.87145505394815

>  <Genealogy>  (1) 
CC(C)C[N-]C(=O)C(=O)Nc1ccccc1[N+](=O)[O-] (protonated)
CC(C)C[N-]C(=O)C(=O)Nc1ccccc1[N+](=O)[O-] (3D coordinates assigned)
CC(C)C[N-]C(=O)C(=O)Nc1ccccc1[N+](=O)[O-] (optimized conformer: 32.87145505394815 kcal/mol)

>  <smiles>  (1) 
CC(C)CNC(=O)C(=O)Nc1ccccc1[N+](=O)[O-]

>  <score_type>  (1) 
oracle

>  <origin>  (1) 
adg

>  <m_score__min__energy>  (1) 
-8.6199999999999992

>  <m_primary>  (1) 
energy

$$$$
1:0
     RDKit          3D

 37 39  0  0  0  0  0  0  0  0999 V2000
   -0.2060   20.8460  -34.9040 C   0  0  0  0  0  0  0  0  0  0  0  0
   -0.8050   21.1150  -33.5260 C   0  0  0  0  0  0  0  0  0  0  0  0
   -1.6960   19.9540  -33.0710 C   0  0  0  0  0  0  0  0  0  0  0  0
   -3.1120   20.3870  -33.0350 N   0  0  0  0  0  0  0  0  0  0  0  0
   -3.9870   19.3130  -32.5250 C   0  0  0  0  0  0  0  0  0  0  0  0
   -5.4210   19.4400  -33.0530 C   0  0  0  0  0  0  0  0  0  0  0  0
   -6.2740   20.4860  -32.3450 C   0  0  0  0  0  0  0  0  0  0  0  0
   -7.5760   20.1090  -31.9380 C   0  0  0  0  0  0  0  0  0  0  0  0
   -8.3440   18.3890  -32.3300 Br  0  0  0  0  0  0  0  0  0  0  0  0
   -8.3740   21.0110  -31.2430 C   0  0  0  0  0  0  0  0  0  0  0  0
   -7.9060   22.2410  -30.9350 N   0  0  0  0  0  0  0  0  0  0  0  0
   -6.6780   22.6740  -31.3200 C   0  0  0  0  0  0  0  0  0  0  0  0
   -6.2610   23.9770  -30.8820 N   0  0  0  0  0  0  0  0  0  0  0  0
   -6.6380   24.5220  -29.7380 N   0  0  0  0  0  0  0  0  0  0  0  0
   -5.9440   25.6750  -29.6800 C   0  0  0  0  0  0  0  0  0  0  0  0
   -5.1470   25.8150  -30.7580 N   0  0  0  0  0  0  0  0  0  0  0  0
   -5.3590   24.7320  -31.4860 N   0  0  0  0  0  0  0  0  0  0  0  0
   -5.8530   21.8370  -32.1230 C   0  0  0  0  0  0  0  0  0  0  0  0
   -4.5760   22.4220  -32.7170 C   0  0  0  0  0  0  0  0  0  0  0  0
   -3.2870   21.6770  -32.3250 C   0  0  0  0  0  0  0  0  0  0  0  0
    0.7919   20.3978  -34.7889 H   0  0  0  0  0  0  0  0  0  0  0  0
   -0.8571   20.1538  -35.4581 H   0  0  0  0  0  0  0  0  0  0  0  0
   -0.1212   21.7925  -35.4581 H   0  0  0  0  0  0  0  0  0  0  0  0
    0.0108   21.2467  -32.8000 H   0  0  0  0  0  0  0  0  0  0  0  0
   -1.4220   22.0237  -33.5865 H   0  0  0  0  0  0  0  0  0  0  0  0
   -1.5892   19.1153  -33.7746 H   0  0  0  0  0  0  0  0  0  0  0  0
   -1.3894   19.6366  -32.0634 H   0  0  0  0  0  0  0  0  0  0  0  0
   -3.5775   18.3419  -32.8399 H   0  0  0  0  0  0  0  0  0  0  0  0
   -4.0205   19.3944  -31.4285 H   0  0  0  0  0  0  0  0  0  0  0  0
   -5.3705   19.7048  -34.1195 H   0  0  0  0  0  0  0  0  0  0  0  0
   -5.9053   18.4698  -32.8684 H   0  0  0  0  0  0  0  0  0  0  0  0
   -9.3918   20.7219  -30.9422 H   0  0  0  0  0  0  0  0  0  0  0  0
   -6.0179   26.4057  -28.8611 H   0  0  0  0  0  0  0  0  0  0  0  0
   -4.6656   22.3992  -33.8131 H   0  0  0  0  0  0  0  0  0  0  0  0
   -4.4824   23.4408  -32.3129 H   0  0  0  0  0  0  0  0  0  0  0  0
   -2.4271   22.3223  -32.5577 H   0  0  0  0  0  0  0  0  0  0  0  0
   -3.3580   21.4491  -31.2512 H   0  0  0  0  0  0  0  0  0  0  0  0
  1  2  1  0
  2  3  1  0
  3  4  1  0
  4  5  1  0
  5  6  1  0
  6  7  1  0
  7  8  2  0
  8  9  1  0
  8 10  1  0
 10 11  2  0
 11 12  1  0
 12 13  1  0
 13 14  1  0
 14 15  2  0
 15 16  1  0
 16 17  2  0
 12 18  2  0
 18 19  1  0
 19 20  1  0
 20  4  1  0
 18  7  1  0
 17 13  1  0
  1 21  1  0
  1 22  1  0
  1 23  1  0
  2 24  1  0
  2 25  1  0
  3 26  1  0
  3 27  1  0
  5 28  1  0
  5 29  1  0
  6 30  1  0
  6 31  1  0
 10 32  1  0
 15 33  1  0
 19 34  1  0
 19 35  1  0
 20 36  1  0
 20 37  1  0
M  END
>  <UniqueID>  (2) 
2

>  <SMILES>  (2) 
CCCN1CCc2c(Br)cnc(-n3ncnn3)c2CC1

>  <Energy>  (2) 
95.68577015725525

>  <Genealogy>  (2) 
CCCN1CCc2c(Br)cnc(-n3ncnn3)c2CC1 (3D coordinates assigned)
CCCN1CCc2c(Br)cnc(-n3ncnn3)c2CC1 (nonaromatic ring conformer: 95.68577015725525 kcal/mol)

>  <smiles>  (2) 
CCCN1CCc2c(Br)cnc(-n3ncnn3)c2CC1

>  <score_type>  (2) 
oracle

>  <origin>  (2) 
adg

>  <m_score__min__energy>  (2) 
-6.8899999999999997

>  <m_primary>  (2) 
energy

$$$$
2:0
     RDKit          3D

 61 64  0  0  0  0  0  0  0  0999 V2000
   -8.7120   20.9544  -29.9286 H   0  0  0  0  0  0  0  0  0  0  0  0
   -8.1510   21.7290  -30.4720 C   0  0  0  0  0  0  0  0  0  0  0  0
   -7.5410   22.7340  -29.7870 N   0  0  0  0  0  0  0  0  0  0  0  0
   -6.8400   23.7180  -30.4220 C   0  0  0  0  0  0  0  0  0  0  0  0
   -6.2060   24.8160  -29.6090 C   0  0  0  0  0  0  0  0  0  0  0  0
   -5.6025   24.3645  -28.8078 H   0  0  0  0  0  0  0  0  0  0  0  0
   -7.0077   25.4420  -29.1902 H   0  0  0  0  0  0  0  0  0  0  0  0
   -5.3010   25.7070  -30.4740 C   0  0  0  0  0  0  0  0  0  0  0  0
   -5.3939   26.7483  -30.1318 H   0  0  0  0  0  0  0  0  0  0  0  0
   -5.6210   25.6060  -31.5216 H   0  0  0  0  0  0  0  0  0  0  0  0
   -3.8970   25.3020  -30.3850 N   0  0  0  0  0  0  0  0  0  0  0  0
   -3.4760   24.0780  -30.4600 C   0  0  0  0  0  0  0  0  0  0  0  0
   -3.8390   23.2140  -31.4340 N   0  0  0  0  0  0  0  0  0  0  0  0
   -3.2520   21.9920  -31.2740 C   0  0  0  0  0  0  0  0  0  0  0  0
   -3.5040   20.8890  -32.2390 C   0  0  0  0  0  0  0  0  0  0  0  0
   -2.4190   20.2610  -32.8750 C   0  0  0  0  0  0  0  0  0  0  0  0
   -1.3932   20.5837  -32.6433 H   0  0  0  0  0  0  0  0  0  0  0  0
   -2.6260   19.2340  -33.7960 C   0  0  0  0  0  0  0  0  0  0  0  0
   -1.7647   18.7566  -34.2861 H   0  0  0  0  0  0  0  0  0  0  0  0
   -3.9300   18.8060  -34.1010 C   0  0  0  0  0  0  0  0  0  0  0  0
   -4.1770   17.7760  -35.0230 O   0  0  0  0  0  0  0  0  0  0  0  0
   -3.2630   16.7300  -35.3360 C   0  0  0  0  0  0  0  0  0  0  0  0
   -2.8776   16.2890  -34.4049 H   0  0  0  0  0  0  0  0  0  0  0  0
   -3.7790   15.9555  -35.9225 H   0  0  0  0  0  0  0  0  0  0  0  0
   -2.4263   17.1375  -35.9225 H   0  0  0  0  0  0  0  0  0  0  0  0
   -5.0250   19.4200  -33.4760 C   0  0  0  0  0  0  0  0  0  0  0  0
   -6.3130   18.9730  -33.8110 O   0  0  0  0  0  0  0  0  0  0  0  0
   -7.2780   18.4910  -32.8800 C   0  0  0  0  0  0  0  0  0  0  0  0
   -7.3774   19.2106  -32.0540 H   0  0  0  0  0  0  0  0  0  0  0  0
   -8.2441   18.3727  -33.3925 H   0  0  0  0  0  0  0  0  0  0  0  0
   -6.8370   17.1280  -32.3170 C   0  0  0  0  0  0  0  0  0  0  0  0
   -6.3798   17.2891  -31.3296 H   0  0  0  0  0  0  0  0  0  0  0  0
   -7.7334   16.4930  -32.2589 H   0  0  0  0  0  0  0  0  0  0  0  0
   -5.8540   16.4260  -33.1840 N   0  0  0  0  0  0  0  0  0  0  0  0
   -5.5310   17.1090  -33.9090 H   0  0  0  0  0  0  0  0  0  0  0  0
   -6.4870   15.2820  -33.9000 C   0  0  0  0  0  0  0  0  0  0  0  0
   -7.1992   14.7903  -33.2210 H   0  0  0  0  0  0  0  0  0  0  0  0
   -6.9920   15.6815  -34.7918 H   0  0  0  0  0  0  0  0  0  0  0  0
   -5.4590   14.2480  -34.3680 C   0  0  0  0  0  0  0  0  0  0  0  0
   -5.9787   13.4454  -34.9119 H   0  0  0  0  0  0  0  0  0  0  0  0
   -4.7314   14.7502  -35.0225 H   0  0  0  0  0  0  0  0  0  0  0  0
   -4.7040   13.6390  -33.1750 C   0  0  0  0  0  0  0  0  0  0  0  0
   -5.2082   12.7069  -32.8799 H   0  0  0  0  0  0  0  0  0  0  0  0
   -3.6676   13.4606  -33.4977 H   0  0  0  0  0  0  0  0  0  0  0  0
   -4.6520   14.5730  -31.9590 C   0  0  0  0  0  0  0  0  0  0  0  0
   -5.5343   14.3919  -31.3275 H   0  0  0  0  0  0  0  0  0  0  0  0
   -3.7291   14.3677  -31.3968 H   0  0  0  0  0  0  0  0  0  0  0  0
   -4.6420   16.0430  -32.3990 C   0  0  0  0  0  0  0  0  0  0  0  0
   -4.5909   16.6771  -31.5016 H   0  0  0  0  0  0  0  0  0  0  0  0
   -3.7686   16.1847  -33.0525 H   0  0  0  0  0  0  0  0  0  0  0  0
   -4.8100   20.4590  -32.5490 C   0  0  0  0  0  0  0  0  0  0  0  0
   -5.6710   20.9400  -32.0618 H   0  0  0  0  0  0  0  0  0  0  0  0
   -2.4160   21.8990  -30.1520 C   0  0  0  0  0  0  0  0  0  0  0  0
   -1.8523   21.0066  -29.8424 H   0  0  0  0  0  0  0  0  0  0  0  0
   -2.4210   23.3840  -29.3590 S   0  0  0  0  0  0  0  0  0  0  0  0
   -6.7240   23.6950  -31.8180 C   0  0  0  0  0  0  0  0  0  0  0  0
   -6.1491   24.4736  -32.3408 H   0  0  0  0  0  0  0  0  0  0  0  0
   -7.3460   22.6730  -32.5390 C   0  0  0  0  0  0  0  0  0  0  0  0
   -7.2707   22.6481  -33.6361 H   0  0  0  0  0  0  0  0  0  0  0  0
   -8.0650   21.6810  -31.8630 C   0  0  0  0  0  0  0  0  0  0  0  0
   -8.5571   20.8720  -32.4228 H   0  0  0  0  0  0  0  0  0  0  0  0
  1  2  1  0
  2  3  2  0
  3  4  1  0
  4  5  1  0
  5  6  1  0
  5  7  1  0
  5  8  1  0
  8  9  1  0
  8 10  1  0
  8 11  1  0
 11 12  2  0
 12 13  1  0
 13 14  1  0
 14 15  1  0
 15 16  2  0
 16 17  1  0
 16 18  1  0
 18 19  1  0
 18 20  2  0
 20 21  1  0
 21 22  1  0
 22 23  1  0
 22 24  1  0
 22 25  1  0
 20 26  1  0
 26 27  1  0
 27 28  1  0
 28 29  1  0
 28 30  1  0
 28 31  1  0
 31 32  1  0
 31 33  1  0
 31 34  1  0
 34 35  1  0
 34 36  1  0
 36 37  1  0
 36 38  1  0
 36 39  1  0
 39 40  1  0
 39 41  1  0
 39 42  1  0
 42 43  1  0
 42 44  1  0
 42 45  1  0
 45 46  1  0
 45 47  1  0
 45 48  1  0
 48 49  1  0
 48 50  1  0
 26 51  2  0
 51 52  1  0
 14 53  2  0
 53 54  1  0
 53 55  1  0
  4 56  2  0
 56 57  1  0
 56 58  1  0
 58 59  1  0
 58 60  2  0
 60 61  1  0
 60  2  1  0
 55 12  1  0
 51 15  1  0
 48 34  1  0
M  CHG  2  13  -1  34   1
M  END
>  <UniqueID>  (3) 
3

>  <SMILES>  (3) 
COc1ccc(-c2cs/c(=N/CCc3ccccn3)[n-]2)cc1OCC[NH+]1CCCCC1

>  <Energy>  (3) 
99.87088420504791

>  <Genealogy>  (3) 
COc1ccc(-c2csc(=NCCc3ccccn3)[n-]2)cc1OCC[NH+]1CCCCC1 (protonated)
COc1ccc(-c2cs/c(=N/CCc3ccccn3)[n-]2)cc1OCC[NH+]1CCCCC1 (cis-trans isomerization)
COc1ccc(-c2cs/c(=N/CCc3ccccn3)[n-]2)cc1OCC[NH+]1CCCCC1 (3D coordinates assigned)
COc1ccc(-c2cs/c(=N/CCc3ccccn3)[n-]2)cc1OCC[NH+]1CCCCC1 (nonaromatic ring conformer: 99.87088420504791 kcal/mol)

>  <smiles>  (3) 
COc1ccc(-c2csc(=NCCc3ccccn3)[nH]2)cc1OCCN1CCCCC1

>  <score_type>  (3) 
oracle

>  <origin>  (3) 
adg

>  <m_score__min__energy>  (3) 
-8.7400000000000002

>  <m_primary>  (3) 
energy

$$$$
3:0
     RDKit          3D

 51 53  0  0  0  0  0  0  0  0999 V2000
   -8.7340   22.9460  -31.9630 C   0  0  0  0  0  0  0  0  0  0  0  0
   -7.3350   22.4970  -31.9520 N   0  0  0  0  0  0  0  0  0  0  0  0
   -6.9420   21.3580  -32.7960 C   0  0  0  0  0  0  0  0  0  0  0  0
   -7.6220   20.1080  -32.3390 C   0  0  0  0  0  0  0  0  0  0  0  0
   -8.9170   19.7390  -32.6420 C   0  0  0  0  0  0  0  0  0  0  0  0
   -9.1180   18.5350  -32.0050 C   0  0  0  0  0  0  0  0  0  0  0  0
   -7.9350   18.2440  -31.3540 C   0  0  0  0  0  0  0  0  0  0  0  0
   -7.0630   19.2010  -31.5720 O   0  0  0  0  0  0  0  0  0  0  0  0
   -6.3990   23.1770  -31.0810 C   0  0  0  0  0  0  0  0  0  0  0  0
   -6.8470   23.9650  -30.2040 O   0  0  0  0  0  0  0  0  0  0  0  0
   -4.9090   22.8820  -31.1220 C   0  0  0  0  0  0  0  0  0  0  0  0
   -4.0370   23.4030  -29.9450 C   0  0  2  0  0  0  0  0  0  0  0  0
   -3.5750   24.8370  -30.0580 C   0  0  0  0  0  0  0  0  0  0  0  0
   -4.2630   25.6870  -30.6860 O   0  0  0  0  0  0  0  0  0  0  0  0
   -2.4420   25.2750  -29.3060 N   0  0  0  0  0  0  0  0  0  0  0  0
   -1.5550   24.3480  -28.6110 C   0  0  0  0  0  0  0  0  0  0  0  0
   -2.2590   23.0070  -28.3300 C   0  0  0  0  0  0  0  0  0  0  0  0
   -2.9390   22.4810  -29.5360 N   0  0  0  0  0  0  0  0  0  0  0  0
   -1.9600   22.1350  -30.5980 C   0  0  0  0  0  0  0  0  0  0  0  0
   -2.5390   21.1570  -31.5900 C   0  0  0  0  0  0  0  0  0  0  0  0
   -3.5440   20.2670  -31.1820 C   0  0  0  0  0  0  0  0  0  0  0  0
   -4.1070   19.3670  -32.0900 C   0  0  0  0  0  0  0  0  0  0  0  0
   -3.6940   19.3630  -33.4360 C   0  0  0  0  0  0  0  0  0  0  0  0
   -4.2080   18.4680  -34.3860 O   0  0  0  0  0  0  0  0  0  0  0  0
   -5.5910   18.1770  -34.5780 C   0  0  0  0  0  0  0  0  0  0  0  0
   -6.3040   19.3500  -34.7450 F   0  0  0  0  0  0  0  0  0  0  0  0
   -5.7330   17.4040  -35.7130 F   0  0  0  0  0  0  0  0  0  0  0  0
   -6.0860   17.4730  -33.4950 F   0  0  0  0  0  0  0  0  0  0  0  0
   -2.7290   20.2870  -33.8530 C   0  0  0  0  0  0  0  0  0  0  0  0
   -2.1630   21.1850  -32.9430 C   0  0  0  0  0  0  0  0  0  0  0  0
   -9.0905   23.0604  -30.9287 H   0  0  0  0  0  0  0  0  0  0  0  0
   -8.8050   23.9120  -32.4843 H   0  0  0  0  0  0  0  0  0  0  0  0
   -9.3539   22.2017  -32.4843 H   0  0  0  0  0  0  0  0  0  0  0  0
   -7.2268   21.5646  -33.8382 H   0  0  0  0  0  0  0  0  0  0  0  0
   -5.8535   21.2185  -32.7206 H   0  0  0  0  0  0  0  0  0  0  0  0
   -9.6379   20.2914  -33.2627 H   0  0  0  0  0  0  0  0  0  0  0  0
  -10.0351   17.9277  -32.0129 H   0  0  0  0  0  0  0  0  0  0  0  0
   -7.7513   17.3465  -30.7452 H   0  0  0  0  0  0  0  0  0  0  0  0
   -4.7913   21.7890  -31.1594 H   0  0  0  0  0  0  0  0  0  0  0  0
   -4.5414   23.4278  -32.0035 H   0  0  0  0  0  0  0  0  0  0  0  0
   -4.7559   23.4095  -29.1124 H   0  0  0  0  0  0  0  0  0  0  0  0
   -0.6684   24.1637  -29.2354 H   0  0  0  0  0  0  0  0  0  0  0  0
   -1.2661   24.7975  -27.6495 H   0  0  0  0  0  0  0  0  0  0  0  0
   -1.5097   22.2745  -27.9954 H   0  0  0  0  0  0  0  0  0  0  0  0
   -3.0200   23.1757  -27.5539 H   0  0  0  0  0  0  0  0  0  0  0  0
   -1.6706   23.0535  -31.1296 H   0  0  0  0  0  0  0  0  0  0  0  0
   -1.0870   21.6652  -30.1213 H   0  0  0  0  0  0  0  0  0  0  0  0
   -3.8915   20.2780  -30.1384 H   0  0  0  0  0  0  0  0  0  0  0  0
   -4.8769   18.6579  -31.7517 H   0  0  0  0  0  0  0  0  0  0  0  0
   -2.4129   20.3069  -34.9064 H   0  0  0  0  0  0  0  0  0  0  0  0
   -1.4189   21.9177  -33.2887 H   0  0  0  0  0  0  0  0  0  0  0  0
  1  2  1  0
  2  3  1  0
  3  4  1  0
  4  5  2  0
  5  6  1  0
  6  7  2  0
  7  8  1  0
  2  9  1  0
  9 10  2  0
  9 11  1  0
 11 12  1  0
 12 13  1  0
 13 14  2  0
 13 15  1  0
 15 16  1  0
 16 17  1  0
 17 18  1  0
 18 19  1  0
 19 20  1  0
 20 21  2  0
 21 22  1  0
 22 23  2  0
 23 24  1  0
 24 25  1  0
 25 26  1  0
 25 27  1  0
 25 28  1  0
 23 29  1  0
 29 30  2  0
  8  4  1  0
 18 12  1  0
 30 20  1  0
  1 31  1  0
  1 32  1  0
  1 33  1  0
  3 34  1  0
  3 35  1  0
  5 36  1  0
  6 37  1  0
  7 38  1  0
 11 39  1  0
 11 40  1  0
 12 41  1  1
 16 42  1  0
 16 43  1  0
 17 44  1  0
 17 45  1  0
 19 46  1  0
 19 47  1  0
 21 48  1  0
 22 49  1  0
 29 50  1  0
 30 51  1  0
M  CHG  1  15  -1
M  END
>  <UniqueID>  (4) 
4

>  <SMILES>  (4) 
CN(Cc1ccco1)C(=O)C[C@@H]1C(=O)[N-]CCN1Cc1ccc(OC(F)(F)F)cc1

>  <Energy>  (4) 
86.17371760750433

>  <Genealogy>  (4) 
CN(Cc1ccco1)C(=O)CC1C(=O)[N-]CCN1Cc1ccc(OC(F)(F)F)cc1 (protonated)
CN(Cc1ccco1)C(=O)C[C@@H]1C(=O)[N-]CCN1Cc1ccc(OC(F)(F)F)cc1 (chirality)
CN(Cc1ccco1)C(=O)C[C@@H]1C(=O)[N-]CCN1Cc1ccc(OC(F)(F)F)cc1 (3D coordinates assigned)
CN(Cc1ccco1)C(=O)C[C@@H]1C(=O)[N-]CCN1Cc1ccc(OC(F)(F)F)cc1 (nonaromatic ring conformer: 86.17371760750433 kcal/mol)

>  <smiles>  (4) 
CN(Cc1ccco1)C(=O)CC1C(=O)NCCN1Cc1ccc(OC(F)(F)F)cc1

>  <score_type>  (4) 
oracle

>  <origin>  (4) 
adg

>  <m_score__min__energy>  (4) 
-9.7200000000000006

>  <m_primary>  (4) 
energy

$$$$
4:0
     RDKit          3D

 45 48  0  0  0  0  0  0  0  0999 V2000
   -5.6640   26.0370  -30.2610 C   0  0  0  0  0  0  0  0  0  0  0  0
   -4.3490   25.5710  -30.5450 O   0  0  0  0  0  0  0  0  0  0  0  0
   -3.9560   24.2230  -30.5110 C   0  0  0  0  0  0  0  0  0  0  0  0
   -4.7470   23.1980  -31.0690 C   0  0  0  0  0  0  0  0  0  0  0  0
   -4.3230   21.8570  -31.0250 C   0  0  0  0  0  0  0  0  0  0  0  0
   -5.1420   20.7610  -31.6010 C   0  0  0  0  0  0  0  0  0  0  0  0
   -6.5480   20.8060  -31.5980 C   0  0  0  0  0  0  0  0  0  0  0  0
   -7.2680   19.7480  -32.1550 C   0  0  0  0  0  0  0  0  0  0  0  0
   -8.5290   19.7850  -32.1530 O   0  0  0  0  0  0  0  0  0  0  0  0
   -6.5770   18.6610  -32.7110 C   0  0  0  0  0  0  0  0  0  0  0  0
   -7.2400   17.5630  -33.2880 C   0  0  0  0  0  0  0  0  0  0  0  0
   -6.5030   16.5080  -33.8350 C   0  0  0  0  0  0  0  0  0  0  0  0
   -5.1050   16.5400  -33.8110 C   0  0  0  0  0  0  0  0  0  0  0  0
   -4.4380   17.6270  -33.2410 C   0  0  0  0  0  0  0  0  0  0  0  0
   -5.1640   18.6880  -32.6900 C   0  0  0  0  0  0  0  0  0  0  0  0
   -4.5190   19.7170  -32.1480 O   0  0  0  0  0  0  0  0  0  0  0  0
   -3.1100   21.5520  -30.3910 C   0  0  0  0  0  0  0  0  0  0  0  0
   -2.3220   22.5610  -29.8360 C   0  0  0  0  0  0  0  0  0  0  0  0
   -2.7360   23.9040  -29.8970 C   0  0  0  0  0  0  0  0  0  0  0  0
   -1.9690   24.9500  -29.3580 O   0  0  0  0  0  0  0  0  0  0  0  0
   -0.8150   24.7900  -28.5320 C   0  0  0  0  0  0  0  0  0  0  0  0
   -0.9830   25.5220  -27.2240 C   0  0  0  0  0  0  0  0  0  0  0  0
   -2.1780   25.3820  -26.4960 C   0  0  0  0  0  0  0  0  0  0  0  0
   -2.3440   26.0430  -25.2770 C   0  0  0  0  0  0  0  0  0  0  0  0
   -1.3170   26.8410  -24.7660 C   0  0  0  0  0  0  0  0  0  0  0  0
   -0.1200   26.9740  -25.4740 C   0  0  0  0  0  0  0  0  0  0  0  0
    0.0540   26.3150  -26.6950 C   0  0  0  0  0  0  0  0  0  0  0  0
    1.2300   26.4530  -27.3590 F   0  0  0  0  0  0  0  0  0  0  0  0
   -5.8077   26.0879  -29.1716 H   0  0  0  0  0  0  0  0  0  0  0  0
   -5.8002   27.0381  -30.6960 H   0  0  0  0  0  0  0  0  0  0  0  0
   -6.4002   25.3450  -30.6960 H   0  0  0  0  0  0  0  0  0  0  0  0
   -5.7066   23.4495  -31.5442 H   0  0  0  0  0  0  0  0  0  0  0  0
   -7.0750   21.6669  -31.1608 H   0  0  0  0  0  0  0  0  0  0  0  0
   -8.3394   17.5341  -33.3090 H   0  0  0  0  0  0  0  0  0  0  0  0
   -7.0243   15.6505  -34.2855 H   0  0  0  0  0  0  0  0  0  0  0  0
   -4.5295   15.7075  -34.2419 H   0  0  0  0  0  0  0  0  0  0  0  0
   -3.3383   17.6486  -33.2254 H   0  0  0  0  0  0  0  0  0  0  0  0
   -2.7760   20.5057  -30.3305 H   0  0  0  0  0  0  0  0  0  0  0  0
   -1.3705   22.3044  -29.3474 H   0  0  0  0  0  0  0  0  0  0  0  0
   -0.6633   23.7196  -28.3287 H   0  0  0  0  0  0  0  0  0  0  0  0
    0.0551   25.2082  -29.0593 H   0  0  0  0  0  0  0  0  0  0  0  0
   -2.9866   24.7482  -26.8889 H   0  0  0  0  0  0  0  0  0  0  0  0
   -3.2852   25.9352  -24.7179 H   0  0  0  0  0  0  0  0  0  0  0  0
   -1.4509   27.3638  -23.8075 H   0  0  0  0  0  0  0  0  0  0  0  0
    0.6891   27.5998  -25.0692 H   0  0  0  0  0  0  0  0  0  0  0  0
  1  2  1  0
  2  3  1  0
  3  4  2  0
  4  5  1  0
  5  6  1  0
  6  7  2  0
  7  8  1  0
  8  9  2  0
  8 10  1  0
 10 11  2  0
 11 12  1  0
 12 13  2  0
 13 14  1  0
 14 15  2  0
 15 16  1  0
  5 17  2  0
 17 18  1  0
 18 19  2  0
 19 20  1  0
 20 21  1  0
 21 22  1  0
 22 23  2  0
 23 24  1  0
 24 25  2  0
 25 26  1  0
 26 27  2  0
 27 28  1  0
 19  3  1  0
 27 22  1  0
 16  6  1  0
 15 10  1  0
  1 29  1  0
  1 30  1  0
  1 31  1  0
  4 32  1  0
  7 33  1  0
 11 34  1  0
 12 35  1  0
 13 36  1  0
 14 37  1  0
 17 38  1  0
 18 39  1  0
 21 40  1  0
 21 41  1  0
 23 42  1  0
 24 43  1  0
 25 44  1  0
 26 45  1  0
M  END
>  <UniqueID>  (5) 
5

>  <SMILES>  (5) 
COc1cc(-c2cc(=O)c3ccccc3o2)ccc1OCc1ccccc1F

>  <Energy>  (5) 
58.55158802431399

>  <Genealogy>  (5) 
COc1cc(-c2cc(=O)c3ccccc3o2)ccc1OCc1ccccc1F (3D coordinates assigned)
COc1cc(-c2cc(=O)c3ccccc3o2)ccc1OCc1ccccc1F (optimized conformer: 58.55158802431399 kcal/mol)

>  <smiles>  (5) 
COc1cc(-c2cc(=O)c3ccccc3o2)ccc1OCc1ccccc1F

>  <score_type>  (5) 
oracle

>  <origin>  (5) 
adg

>  <m_score__min__energy>  (5) 
-9.0399999999999991

>  <m_primary>  (5) 
energy

$$$$
5:0
     RDKit          3D

 42 44  0  0  0  0  0  0  0  0999 V2000
   -4.9760   25.3240  -31.2150 O   0  0  0  0  0  0  0  0  0  0  0  0
   -5.3700   24.2330  -30.8240 C   0  0  0  0  0  0  0  0  0  0  0  0
   -5.4270   23.9730  -29.3310 C   0  0  0  0  0  0  0  0  0  0  0  0
   -4.0800   24.1980  -28.6860 C   0  0  0  0  0  0  0  0  0  0  0  0
   -2.8960   24.0730  -29.4380 C   0  0  0  0  0  0  0  0  0  0  0  0
   -1.6510   24.2590  -28.8260 C   0  0  0  0  0  0  0  0  0  0  0  0
   -1.5770   24.5720  -27.4640 C   0  0  0  0  0  0  0  0  0  0  0  0
   -2.7490   24.6950  -26.7110 C   0  0  0  0  0  0  0  0  0  0  0  0
   -3.9970   24.5070  -27.3180 C   0  0  0  0  0  0  0  0  0  0  0  0
   -5.7350   23.2110  -31.7950 N   0  0  0  0  0  0  0  0  0  0  0  0
   -4.5770   22.3190  -32.1070 C   0  0  0  0  0  0  0  0  0  0  0  0
   -4.8400   20.8360  -31.8000 C   0  0  0  0  0  0  0  0  0  0  0  0
   -6.1200   20.4350  -32.3900 N   0  0  0  0  0  0  0  0  0  0  0  0
   -6.2470   19.1570  -33.0350 C   0  0  0  0  0  0  0  0  0  0  0  0
   -5.5820   18.9190  -34.2490 C   0  0  0  0  0  0  0  0  0  0  0  0
   -5.6960   17.6770  -34.8830 C   0  0  0  0  0  0  0  0  0  0  0  0
   -6.4670   16.6630  -34.3040 C   0  0  0  0  0  0  0  0  0  0  0  0
   -7.1280   16.8920  -33.0910 C   0  0  0  0  0  0  0  0  0  0  0  0
   -7.0210   18.1350  -32.4570 C   0  0  0  0  0  0  0  0  0  0  0  0
   -7.6450   18.3330  -31.2660 F   0  0  0  0  0  0  0  0  0  0  0  0
   -7.2850   21.3180  -32.2680 C   0  0  0  0  0  0  0  0  0  0  0  0
   -6.9630   22.5100  -31.3550 C   0  0  0  0  0  0  0  0  0  0  0  0
   -6.1611   24.6541  -28.8759 H   0  0  0  0  0  0  0  0  0  0  0  0
   -5.7194   22.9248  -29.1707 H   0  0  0  0  0  0  0  0  0  0  0  0
   -2.9497   23.8286  -30.5091 H   0  0  0  0  0  0  0  0  0  0  0  0
   -0.7286   24.1589  -29.4169 H   0  0  0  0  0  0  0  0  0  0  0  0
   -0.5976   24.7212  -26.9860 H   0  0  0  0  0  0  0  0  0  0  0  0
   -2.6905   24.9398  -25.6402 H   0  0  0  0  0  0  0  0  0  0  0  0
   -4.9161   24.6017  -26.7212 H   0  0  0  0  0  0  0  0  0  0  0  0
   -5.9910   23.7030  -32.6870 H   0  0  0  0  0  0  0  0  0  0  0  0
   -4.3423   22.4159  -33.1773 H   0  0  0  0  0  0  0  0  0  0  0  0
   -3.7431   22.6377  -31.4643 H   0  0  0  0  0  0  0  0  0  0  0  0
   -4.0317   20.2241  -32.2269 H   0  0  0  0  0  0  0  0  0  0  0  0
   -4.8757   20.6876  -30.7106 H   0  0  0  0  0  0  0  0  0  0  0  0
   -4.9694   19.7119  -34.7029 H   0  0  0  0  0  0  0  0  0  0  0  0
   -5.1792   17.4975  -35.8373 H   0  0  0  0  0  0  0  0  0  0  0  0
   -6.5539   15.6859  -34.8017 H   0  0  0  0  0  0  0  0  0  0  0  0
   -7.7323   16.0936  -32.6357 H   0  0  0  0  0  0  0  0  0  0  0  0
   -7.5630   21.6904  -33.2650 H   0  0  0  0  0  0  0  0  0  0  0  0
   -8.1183   20.7491  -31.8298 H   0  0  0  0  0  0  0  0  0  0  0  0
   -7.8060   23.2163  -31.3778 H   0  0  0  0  0  0  0  0  0  0  0  0
   -6.7990   22.1309  -30.3355 H   0  0  0  0  0  0  0  0  0  0  0  0
  1  2  2  0
  2  3  1  0
  3  4  1  0
  4  5  2  0
  5  6  1  0
  6  7  2  0
  7  8  1  0
  8  9  2  0
  2 10  1  0
 10 11  1  0
 11 12  1  0
 12 13  1  0
 13 14  1  0
 14 15  2  0
 15 16  1  0
 16 17  2  0
 17 18  1  0
 18 19  2  0
 19 20  1  0
 13 21  1  0
 21 22  1  0
  9  4  1  0
 22 10  1  0
 19 14  1  0
  3 23  1  0
  3 24  1  0
  5 25  1  0
  6 26  1  0
  7 27  1  0
  8 28  1  0
  9 29  1  0
 10 30  1  0
 11 31  1  0
 11 32  1  0
 12 33  1  0
 12 34  1  0
 15 35  1  0
 16 36  1  0
 17 37  1  0
 18 38  1  0
 21 39  1  0
 21 40  1  0
 22 41  1  0
 22 42  1  0
M  CHG  1  10   1
M  END
>  <UniqueID>  (6) 
6

>  <SMILES>  (6) 
O=C(Cc1ccccc1)[NH+]1CCN(c2ccccc2F)CC1

>  <Energy>  (6) 
56.17558917688843

>  <Genealogy>  (6) 
O=C(Cc1ccccc1)[NH+]1CCN(c2ccccc2F)CC1 (protonated)
O=C(Cc1ccccc1)[NH+]1CCN(c2ccccc2F)CC1 (3D coordinates assigned)
O=C(Cc1ccccc1)[NH+]1CCN(c2ccccc2F)CC1 (nonaromatic ring conformer: 56.17558917688843 kcal/mol)

>  <smiles>  (6) 
O=C(Cc1ccccc1)N1CCN(c2ccccc2F)CC1

>  <score_type>  (6) 
oracle

>  <origin>  (6) 
adg

>  <m_score__min__energy>  (6) 
-7.1600000000000001

>  <m_primary>  (6) 
energy

$$$$
6:0
     RDKit          3D

 49 52  0  0  0  0  0  0  0  0999 V2000
   -1.8260   19.2830  -26.6960 C   0  0  0  0  0  0  0  0  0  0  0  0
   -2.7610   19.8560  -27.7540 C   0  0  0  0  0  0  0  0  0  0  0  0
   -2.0100   20.6870  -28.7080 N   0  0  0  0  0  0  0  0  0  0  0  0
   -1.2140   20.0710  -29.7770 C   0  0  0  0  0  0  0  0  0  0  0  0
   -1.8060   20.3970  -31.0840 N   0  0  0  0  0  0  0  0  0  0  0  0
   -3.1640   20.2940  -31.2200 C   0  0  0  0  0  0  0  0  0  0  0  0
   -3.7960   20.6760  -32.4090 C   0  0  0  0  0  0  0  0  0  0  0  0
   -5.2340   20.6250  -32.5160 N   0  0  0  0  0  0  0  0  0  0  0  0
   -5.8410   19.5080  -33.0420 C   0  0  0  0  0  0  0  0  0  0  0  0
   -4.9620   18.2280  -33.5940 S   0  0  0  0  0  0  0  0  0  0  0  0
   -7.2000   19.4340  -33.1080 N   0  0  0  0  0  0  0  0  0  0  0  0
   -7.9940   20.4400  -32.6600 C   0  0  0  0  0  0  0  0  0  0  0  0
   -9.2520   20.3210  -32.7320 O   0  0  0  0  0  0  0  0  0  0  0  0
   -7.4160   21.5950  -32.1220 C   0  0  0  0  0  0  0  0  0  0  0  0
   -8.2090   22.6580  -31.6460 C   0  0  0  0  0  0  0  0  0  0  0  0
   -7.6090   23.8010  -31.1210 C   0  0  0  0  0  0  0  0  0  0  0  0
   -6.2180   23.9010  -31.0680 C   0  0  0  0  0  0  0  0  0  0  0  0
   -5.4680   25.3460  -30.4130 Cl  0  0  0  0  0  0  0  0  0  0  0  0
   -5.4190   22.8560  -31.5380 C   0  0  0  0  0  0  0  0  0  0  0  0
   -6.0020   21.6780  -32.0630 C   0  0  0  0  0  0  0  0  0  0  0  0
   -3.0230   21.1570  -33.4670 C   0  0  0  0  0  0  0  0  0  0  0  0
   -1.6410   21.2550  -33.3250 C   0  0  0  0  0  0  0  0  0  0  0  0
   -1.0400   20.8770  -32.1190 C   0  0  0  0  0  0  0  0  0  0  0  0
    0.2130   20.9890  -32.0000 O   0  0  0  0  0  0  0  0  0  0  0  0
   -2.1170   22.1220  -28.6540 C   0  0  0  0  0  0  0  0  0  0  0  0
   -1.0600   22.9320  -29.1050 C   0  0  0  0  0  0  0  0  0  0  0  0
   -1.1620   24.3260  -29.0320 C   0  0  0  0  0  0  0  0  0  0  0  0
   -2.3180   24.9190  -28.5130 C   0  0  0  0  0  0  0  0  0  0  0  0
   -3.3730   24.1190  -28.0620 C   0  0  0  0  0  0  0  0  0  0  0  0
   -3.2720   22.7250  -28.1300 C   0  0  0  0  0  0  0  0  0  0  0  0
   -2.2150   19.5214  -25.6951 H   0  0  0  0  0  0  0  0  0  0  0  0
   -1.7633   18.1912  -26.8146 H   0  0  0  0  0  0  0  0  0  0  0  0
   -0.8247   19.7228  -26.8146 H   0  0  0  0  0  0  0  0  0  0  0  0
   -3.2446   19.0298  -28.2958 H   0  0  0  0  0  0  0  0  0  0  0  0
   -3.5199   20.4795  -27.2588 H   0  0  0  0  0  0  0  0  0  0  0  0
   -0.1845   20.4562  -29.7351 H   0  0  0  0  0  0  0  0  0  0  0  0
   -1.2046   18.9793  -29.6425 H   0  0  0  0  0  0  0  0  0  0  0  0
   -3.7659   19.9064  -30.3849 H   0  0  0  0  0  0  0  0  0  0  0  0
   -7.6520   18.5800  -33.5070 H   0  0  0  0  0  0  0  0  0  0  0  0
   -9.3058   22.5854  -31.6890 H   0  0  0  0  0  0  0  0  0  0  0  0
   -8.2332   24.6262  -30.7476 H   0  0  0  0  0  0  0  0  0  0  0  0
   -4.3237   22.9498  -31.4996 H   0  0  0  0  0  0  0  0  0  0  0  0
   -3.5037   21.4576  -34.4097 H   0  0  0  0  0  0  0  0  0  0  0  0
   -1.0249   21.6277  -34.1566 H   0  0  0  0  0  0  0  0  0  0  0  0
   -0.1508   22.4691  -29.5162 H   0  0  0  0  0  0  0  0  0  0  0  0
   -0.3318   24.9564  -29.3833 H   0  0  0  0  0  0  0  0  0  0  0  0
   -2.3972   26.0148  -28.4596 H   0  0  0  0  0  0  0  0  0  0  0  0
   -4.2818   24.5855  -27.6540 H   0  0  0  0  0  0  0  0  0  0  0  0
   -4.1017   22.0982  -27.7711 H   0  0  0  0  0  0  0  0  0  0  0  0
  1  2  1  0
  2  3  1  0
  3  4  1  0
  4  5  1  0
  5  6  1  0
  6  7  2  0
  7  8  1  0
  8  9  1  0
  9 10  2  0
  9 11  1  0
 11 12  1  0
 12 13  2  0
 12 14  1  0
 14 15  2  0
 15 16  1  0
 16 17  2  0
 17 18  1  0
 17 19  1  0
 19 20  2  0
  7 21  1  0
 21 22  2  0
 22 23  1  0
 23 24  2  0
  3 25  1  0
 25 26  2  0
 26 27  1  0
 27 28  2  0
 28 29  1  0
 29 30  2  0
 23  5  1  0
 30 25  1  0
 20  8  1  0
 20 14  1  0
  1 31  1  0
  1 32  1  0
  1 33  1  0
  2 34  1  0
  2 35  1  0
  4 36  1  0
  4 37  1  0
  6 38  1  0
 11 39  1  0
 15 40  1  0
 16 41  1  0
 19 42  1  0
 21 43  1  0
 22 44  1  0
 26 45  1  0
 27 46  1  0
 28 47  1  0
 29 48  1  0
 30 49  1  0
M  END
>  <UniqueID>  (7) 
7

>  <SMILES>  (7) 
CCN(Cn1cc(-n2c(=S)[nH]c(=O)c3ccc(Cl)cc32)ccc1=O)c1ccccc1

>  <Energy>  (7) 
72.1440590270354

>  <Genealogy>  (7) 
CCN(Cn1cc(-n2c(=S)[nH]c(=O)c3ccc(Cl)cc32)ccc1=O)c1ccccc1 (3D coordinates assigned)
CCN(Cn1cc(-n2c(=S)[nH]c(=O)c3ccc(Cl)cc32)ccc1=O)c1ccccc1 (optimized conformer: 72.1440590270354 kcal/mol)

>  <smiles>  (7) 
CCN(Cn1cc(-n2c(=S)[nH]c(=O)c3ccc(Cl)cc32)ccc1=O)c1ccccc1

>  <score_type>  (7) 
oracle

>  <origin>  (7) 
adg

>  <m_score__min__energy>  (7) 
-9.3699999999999992

>  <m_primary>  (7) 
energy

$$$$
7:0
     RDKit          3D

 44 46  0  0  0  0  0  0  0  0999 V2000
   -0.2420   20.7210  -29.5210 C   0  0  0  0  0  0  0  0  0  0  0  0
   -0.6020   21.7060  -30.4830 O   0  0  0  0  0  0  0  0  0  0  0  0
   -1.6520   21.5690  -31.4030 C   0  0  0  0  0  0  0  0  0  0  0  0
   -1.5020   20.8830  -32.6230 C   0  0  0  0  0  0  0  0  0  0  0  0
   -2.5810   20.7760  -33.5050 C   0  0  0  0  0  0  0  0  0  0  0  0
   -3.8180   21.3360  -33.1750 C   0  0  0  0  0  0  0  0  0  0  0  0
   -3.9890   22.0000  -31.9520 C   0  0  0  0  0  0  0  0  0  0  0  0
   -5.3040   22.5750  -31.6040 C   0  0  0  0  0  0  0  0  0  0  0  0
   -6.4660   22.0970  -32.0930 N   0  0  0  0  0  0  0  0  0  0  0  0
   -7.4390   22.8760  -31.6440 N   0  0  0  0  0  0  0  0  0  0  0  0
   -8.8540   22.6360  -31.9060 C   0  0  0  0  0  0  0  0  0  0  0  0
   -9.3210   21.3890  -31.1580 C   0  0  0  0  0  0  0  0  0  0  0  0
   -9.0610   20.1840  -31.9540 C   0  0  0  0  0  0  0  0  0  0  0  0
   -8.8560   19.2340  -32.5830 N   0  0  0  0  0  0  0  0  0  0  0  0
   -6.9350   23.8420  -30.8540 C   0  0  0  0  0  0  0  0  0  0  0  0
   -5.5650   23.6800  -30.7970 C   0  0  0  0  0  0  0  0  0  0  0  0
   -4.6370   24.4630  -29.9630 C   0  0  0  0  0  0  0  0  0  0  0  0
   -3.8730   25.3040  -30.5100 O   0  0  0  0  0  0  0  0  0  0  0  0
   -4.6520   24.3290  -28.5350 N   0  0  0  0  0  0  0  0  0  0  0  0
   -3.4980   24.5030  -27.6950 C   0  0  0  0  0  0  0  0  0  0  0  0
   -3.5950   25.1020  -26.4240 C   0  0  0  0  0  0  0  0  0  0  0  0
   -2.4500   25.3010  -25.6490 C   0  0  0  0  0  0  0  0  0  0  0  0
   -1.1970   24.9150  -26.1340 C   0  0  0  0  0  0  0  0  0  0  0  0
   -1.0880   24.3360  -27.4020 C   0  0  0  0  0  0  0  0  0  0  0  0
    0.4860   23.8670  -28.0190 Cl  0  0  0  0  0  0  0  0  0  0  0  0
   -2.2330   24.1370  -28.1810 C   0  0  0  0  0  0  0  0  0  0  0  0
   -2.8900   22.1370  -31.0860 C   0  0  0  0  0  0  0  0  0  0  0  0
   -0.3899   21.1257  -28.5089 H   0  0  0  0  0  0  0  0  0  0  0  0
   -0.8725   19.8297  -29.6553 H   0  0  0  0  0  0  0  0  0  0  0  0
    0.8147   20.4463  -29.6553 H   0  0  0  0  0  0  0  0  0  0  0  0
   -0.5337   20.4303  -32.8827 H   0  0  0  0  0  0  0  0  0  0  0  0
   -2.4560   20.2490  -34.4624 H   0  0  0  0  0  0  0  0  0  0  0  0
   -4.6608   21.2556  -33.8774 H   0  0  0  0  0  0  0  0  0  0  0  0
   -9.4391   23.5039  -31.5678 H   0  0  0  0  0  0  0  0  0  0  0  0
   -9.0001   22.4846  -32.9857 H   0  0  0  0  0  0  0  0  0  0  0  0
   -8.7797   21.3158  -30.2032 H   0  0  0  0  0  0  0  0  0  0  0  0
  -10.4029   21.4681  -30.9758 H   0  0  0  0  0  0  0  0  0  0  0  0
   -7.5141   24.6249  -30.3424 H   0  0  0  0  0  0  0  0  0  0  0  0
   -5.5620   24.0840  -28.0800 H   0  0  0  0  0  0  0  0  0  0  0  0
   -4.5772   25.4146  -26.0398 H   0  0  0  0  0  0  0  0  0  0  0  0
   -2.5345   25.7628  -24.6542 H   0  0  0  0  0  0  0  0  0  0  0  0
   -0.2978   25.0666  -25.5188 H   0  0  0  0  0  0  0  0  0  0  0  0
   -2.1412   23.6903  -29.1820 H   0  0  0  0  0  0  0  0  0  0  0  0
   -3.0054   22.6982  -30.1470 H   0  0  0  0  0  0  0  0  0  0  0  0
  1  2  1  0
  2  3  1  0
  3  4  2  0
  4  5  1  0
  5  6  2  0
  6  7  1  0
  7  8  1  0
  8  9  2  0
  9 10  1  0
 10 11  1  0
 11 12  1  0
 12 13  1  0
 13 14  3  0
 10 15  1  0
 15 16  2  0
 16 17  1  0
 17 18  2  0
 17 19  1  0
 19 20  1  0
 20 21  2  0
 21 22  1  0
 22 23  2  0
 23 24  1  0
 24 25  1  0
 24 26  2  0
  7 27  2  0
 27  3  1  0
 16  8  1  0
 26 20  1  0
  1 28  1  0
  1 29  1  0
  1 30  1  0
  4 31  1  0
  5 32  1  0
  6 33  1  0
 11 34  1  0
 11 35  1  0
 12 36  1  0
 12 37  1  0
 15 38  1  0
 19 39  1  0
 21 40  1  0
 22 41  1  0
 23 42  1  0
 26 43  1  0
 27 44  1  0
M  END
>  <UniqueID>  (8) 
8

>  <SMILES>  (8) 
COc1cccc(-c2nn(CCC#N)cc2C(=O)Nc2cccc(Cl)c2)c1

>  <Energy>  (8) 
78.85728792485679

>  <Genealogy>  (8) 
COc1cccc(-c2nn(CCC#N)cc2C(=O)Nc2cccc(Cl)c2)c1 (3D coordinates assigned)
COc1cccc(-c2nn(CCC#N)cc2C(=O)Nc2cccc(Cl)c2)c1 (optimized conformer: 78.85728792485679 kcal/mol)

>  <smiles>  (8) 
COc1cccc(-c2nn(CCC#N)cc2C(=O)Nc2cccc(Cl)c2)c1

>  <score_type>  (8) 
oracle

>  <origin>  (8) 
adg

>  <m_score__min__energy>  (8) 
-8.8699999999999992

>  <m_primary>  (8) 
energy

$$$$
8:0
     RDKit          3D

 44 47  0  0  0  0  0  0  0  0999 V2000
   -9.4810   21.4010  -31.6130 C   0  0  0  0  0  0  0  0  0  0  0  0
   -9.3840   20.0630  -32.3370 C   0  0  0  0  0  0  0  0  0  0  0  0
   -8.1200   19.4000  -32.0160 N   0  0  0  0  0  0  0  0  0  0  0  0
   -7.9940   18.2170  -31.3820 C   0  0  0  0  0  0  0  0  0  0  0  0
   -6.6570   17.8860  -31.3350 C   0  0  0  0  0  0  0  0  0  0  0  0
   -5.9520   18.8540  -31.9480 N   0  0  0  0  0  0  0  0  0  0  0  0
   -6.8610   19.7620  -32.3580 C   0  0  0  0  0  0  0  0  0  0  0  0
   -6.4840   21.0040  -33.1190 C   0  0  0  0  0  0  0  0  0  0  0  0
   -5.8650   21.9830  -32.2180 N   0  0  0  0  0  0  0  0  0  0  0  0
   -6.5170   23.2860  -31.9660 C   0  0  0  0  0  0  0  0  0  0  0  0
   -6.3380   23.7390  -30.5000 C   0  0  0  0  0  0  0  0  0  0  0  0
   -4.9470   23.5590  -30.0850 N   0  0  0  0  0  0  0  0  0  0  0  0
   -4.2860   24.1400  -29.0730 C   0  0  0  0  0  0  0  0  0  0  0  0
   -3.0440   23.5230  -28.9790 C   0  0  0  0  0  0  0  0  0  0  0  0
   -1.9690   23.8390  -28.0010 C   0  0  0  0  0  0  0  0  0  0  0  0
   -1.5990   22.9020  -27.0140 C   0  0  0  0  0  0  0  0  0  0  0  0
   -0.5920   23.1990  -26.0930 C   0  0  0  0  0  0  0  0  0  0  0  0
    0.0620   24.4310  -26.1420 C   0  0  0  0  0  0  0  0  0  0  0  0
    1.0400   24.7150  -25.2460 F   0  0  0  0  0  0  0  0  0  0  0  0
   -0.2930   25.3700  -27.1100 C   0  0  0  0  0  0  0  0  0  0  0  0
   -1.3020   25.0830  -28.0360 C   0  0  0  0  0  0  0  0  0  0  0  0
   -1.6100   26.0200  -28.9690 F   0  0  0  0  0  0  0  0  0  0  0  0
   -2.9500   22.5480  -29.9150 N   0  0  0  0  0  0  0  0  0  0  0  0
   -4.1330   22.6060  -30.5570 C   0  0  0  0  0  0  0  0  0  0  0  0
   -4.5720   21.7280  -31.6350 C   0  0  0  0  0  0  0  0  0  0  0  0
   -3.8520   20.7680  -32.0190 O   0  0  0  0  0  0  0  0  0  0  0  0
   -9.4687   21.2316  -30.5262 H   0  0  0  0  0  0  0  0  0  0  0  0
   -8.6263   22.0334  -31.8952 H   0  0  0  0  0  0  0  0  0  0  0  0
  -10.4179   21.9035  -31.8952 H   0  0  0  0  0  0  0  0  0  0  0  0
  -10.2201   19.4202  -32.0243 H   0  0  0  0  0  0  0  0  0  0  0  0
   -9.4286   20.2401  -33.4217 H   0  0  0  0  0  0  0  0  0  0  0  0
   -8.8194   17.6169  -30.9713 H   0  0  0  0  0  0  0  0  0  0  0  0
   -6.2362   16.9807  -30.8730 H   0  0  0  0  0  0  0  0  0  0  0  0
   -4.9180   18.8830  -32.0870 H   0  0  0  0  0  0  0  0  0  0  0  0
   -5.7709   20.7404  -33.9140 H   0  0  0  0  0  0  0  0  0  0  0  0
   -7.3911   21.4445  -33.5585 H   0  0  0  0  0  0  0  0  0  0  0  0
   -6.0720   24.0419  -32.6298 H   0  0  0  0  0  0  0  0  0  0  0  0
   -7.5937   23.1749  -32.1621 H   0  0  0  0  0  0  0  0  0  0  0  0
   -6.6096   24.8013  -30.4116 H   0  0  0  0  0  0  0  0  0  0  0  0
   -6.9883   23.1316  -29.8533 H   0  0  0  0  0  0  0  0  0  0  0  0
   -4.6582   24.9549  -28.4348 H   0  0  0  0  0  0  0  0  0  0  0  0
   -2.1084   21.9281  -26.9692 H   0  0  0  0  0  0  0  0  0  0  0  0
   -0.3136   22.4601  -25.3271 H   0  0  0  0  0  0  0  0  0  0  0  0
    0.2227   26.3410  -27.1458 H   0  0  0  0  0  0  0  0  0  0  0  0
  1  2  1  0
  2  3  1  0
  3  4  1  0
  4  5  2  0
  5  6  1  0
  6  7  2  0
  7  8  1  0
  8  9  1  0
  9 10  1  0
 10 11  1  0
 11 12  1  0
 12 13  1  0
 13 14  2  0
 14 15  1  0
 15 16  2  0
 16 17  1  0
 17 18  2  0
 18 19  1  0
 18 20  1  0
 20 21  2  0
 21 22  1  0
 14 23  1  0
 23 24  2  0
 24 25  1  0
 25 26  2  0
  7  3  1  0
 25  9  1  0
 24 12  1  0
 21 15  1  0
  1 27  1  0
  1 28  1  0
  1 29  1  0
  2 30  1  0
  2 31  1  0
  4 32  1  0
  5 33  1  0
  6 34  1  0
  8 35  1  0
  8 36  1  0
 10 37  1  0
 10 38  1  0
 11 39  1  0
 11 40  1  0
 13 41  1  0
 16 42  1  0
 17 43  1  0
 20 44  1  0
M  CHG  1   6   1
M  END
>  <UniqueID>  (9) 
9

>  <SMILES>  (9) 
CCn1cc[nH+]c1CN1CCn2cc(-c3ccc(F)cc3F)nc2C1=O

>  <Energy>  (9) 
106.82517418417802

>  <Genealogy>  (9) 
CCn1cc[nH+]c1CN1CCn2cc(-c3ccc(F)cc3F)nc2C1=O (protonated)
CCn1cc[nH+]c1CN1CCn2cc(-c3ccc(F)cc3F)nc2C1=O (3D coordinates assigned)
CCn1cc[nH+]c1CN1CCn2cc(-c3ccc(F)cc3F)nc2C1=O (nonaromatic ring conformer: 106.82517418417802 kcal/mol)

>  <smiles>  (9) 
CCn1ccnc1CN1CCn2cc(-c3ccc(F)cc3F)nc2C1=O

>  <score_type>  (9) 
oracle

>  <origin>  (9) 
adg

>  <m_score__min__energy>  (9) 
-6.7800000000000002

>  <m_primary>  (9) 
energy

$$$$
9:0
     RDKit          3D

 36 38  0  0  0  0  0  0  0  0999 V2000
   -2.3420   24.4220  -29.0870 C   0  0  0  0  0  0  0  0  0  0  0  0
   -3.1940   24.9450  -30.1030 O   0  0  0  0  0  0  0  0  0  0  0  0
   -4.4980   24.4950  -30.3550 C   0  0  0  0  0  0  0  0  0  0  0  0
   -5.5660   25.2880  -29.9230 C   0  0  0  0  0  0  0  0  0  0  0  0
   -6.8830   24.8870  -30.1510 C   0  0  0  0  0  0  0  0  0  0  0  0
   -7.1460   23.6870  -30.8140 C   0  0  0  0  0  0  0  0  0  0  0  0
   -6.0920   22.8700  -31.2570 C   0  0  0  0  0  0  0  0  0  0  0  0
   -6.4000   21.6020  -31.9600 C   0  0  0  0  0  0  0  0  0  0  0  0
   -5.8080   21.1790  -33.0980 N   0  0  0  0  0  0  0  0  0  0  0  0
   -6.3950   19.9980  -33.3610 C   0  0  0  0  0  0  0  0  0  0  0  0
   -6.1150   19.1570  -34.5670 C   0  0  0  0  0  0  0  0  0  0  0  0
   -5.7170   17.8110  -34.1600 N   0  0  0  0  0  0  0  0  0  0  0  0
   -6.5200   16.7350  -34.0870 C   0  0  0  0  0  0  0  0  0  0  0  0
   -5.7450   15.6470  -33.7490 C   0  0  0  0  0  0  0  0  0  0  0  0
   -4.4580   16.0280  -33.6230 N   0  0  0  0  0  0  0  0  0  0  0  0
   -4.4760   17.3540  -33.8780 C   0  0  0  0  0  0  0  0  0  0  0  0
   -3.2360   18.1890  -33.9100 C   0  0  0  0  0  0  0  0  0  0  0  0
   -7.3300   19.7390  -32.3850 C   0  0  0  0  0  0  0  0  0  0  0  0
   -7.3040   20.7420  -31.5360 O   0  0  0  0  0  0  0  0  0  0  0  0
   -4.7650   23.2840  -31.0240 C   0  0  0  0  0  0  0  0  0  0  0  0
   -2.7528   24.6742  -28.0983 H   0  0  0  0  0  0  0  0  0  0  0  0
   -2.2777   23.3287  -29.1893 H   0  0  0  0  0  0  0  0  0  0  0  0
   -1.3380   24.8595  -29.1893 H   0  0  0  0  0  0  0  0  0  0  0  0
   -5.3664   26.2347  -29.3997 H   0  0  0  0  0  0  0  0  0  0  0  0
   -7.7159   25.5180  -29.8075 H   0  0  0  0  0  0  0  0  0  0  0  0
   -8.1869   23.3784  -30.9911 H   0  0  0  0  0  0  0  0  0  0  0  0
   -5.0660   21.6440  -33.6650 H   0  0  0  0  0  0  0  0  0  0  0  0
   -7.0218   19.0964  -35.1866 H   0  0  0  0  0  0  0  0  0  0  0  0
   -5.2976   19.6151  -35.1431 H   0  0  0  0  0  0  0  0  0  0  0  0
   -7.6053   16.7250  -34.2658 H   0  0  0  0  0  0  0  0  0  0  0  0
   -6.1196   14.6230  -33.6040 H   0  0  0  0  0  0  0  0  0  0  0  0
   -2.9135   18.4062  -32.8810 H   0  0  0  0  0  0  0  0  0  0  0  0
   -2.4395   17.6426  -34.4363 H   0  0  0  0  0  0  0  0  0  0  0  0
   -3.4428   19.1325  -34.4363 H   0  0  0  0  0  0  0  0  0  0  0  0
   -7.9805   18.8539  -32.3261 H   0  0  0  0  0  0  0  0  0  0  0  0
   -3.9300   22.6558  -31.3677 H   0  0  0  0  0  0  0  0  0  0  0  0
  1  2  1  0
  2  3  1  0
  3  4  2  0
  4  5  1  0
  5  6  2  0
  6  7  1  0
  7  8  1  0
  8  9  2  0
  9 10  1  0
 10 11  1  0
 11 12  1  0
 12 13  1  0
 13 14  2  0
 14 15  1  0
 15 16  2  0
 16 17  1  0
 10 18  2  0
 18 19  1  0
  7 20  2  0
 20  3  1  0
 19  8  1  0
 16 12  1  0
  1 21  1  0
  1 22  1  0
  1 23  1  0
  4 24  1  0
  5 25  1  0
  6 26  1  0
  9 27  1  0
 11 28  1  0
 11 29  1  0
 13 30  1  0
 14 31  1  0
 17 32  1  0
 17 33  1  0
 17 34  1  0
 18 35  1  0
 20 36  1  0
M  CHG  1   9   1
M  END
>  <UniqueID>  (10) 
10

>  <SMILES>  (10) 
COc1cccc(-c2[nH+]c(Cn3ccnc3C)co2)c1

>  <Energy>  (10) 
95.05152354399735

>  <Genealogy>  (10) 
COc1cccc(-c2[nH+]c(Cn3ccnc3C)co2)c1 (protonated)
COc1cccc(-c2[nH+]c(Cn3ccnc3C)co2)c1 (3D coordinates assigned)
COc1cccc(-c2[nH+]c(Cn3ccnc3C)co2)c1 (optimized conformer: 95.05152354399735 kcal/mol)

>  <smiles>  (10) 
COc1cccc(-c2nc(Cn3ccnc3C)co2)c1

>  <score_type>  (10) 
oracle

>  <origin>  (10) 
adg

>  <m_score__min__energy>  (10) 
-6.46

>  <m_primary>  (10) 
energy

$$$$
10:0
     RDKit          3D

 48 51  0  0  0  0  0  0  0  0999 V2000
   -3.1140   19.2910  -26.7920 C   0  0  0  0  0  0  0  0  0  0  0  0
   -2.9330   20.3930  -27.6740 O   0  0  0  0  0  0  0  0  0  0  0  0
   -2.1440   21.5190  -27.3910 C   0  0  0  0  0  0  0  0  0  0  0  0
   -1.1160   21.4810  -26.4250 C   0  0  0  0  0  0  0  0  0  0  0  0
   -0.3630   22.6250  -26.1490 C   0  0  0  0  0  0  0  0  0  0  0  0
   -0.6270   23.8180  -26.8220 C   0  0  0  0  0  0  0  0  0  0  0  0
   -1.6410   23.8700  -27.7800 C   0  0  0  0  0  0  0  0  0  0  0  0
   -2.3990   22.7250  -28.0790 C   0  0  0  0  0  0  0  0  0  0  0  0
   -3.4320   22.7990  -29.0790 N   0  0  0  0  0  0  0  0  0  0  0  0
   -4.6370   23.5980  -28.8220 C   0  0  0  0  0  0  0  0  0  0  0  0
   -5.6700   23.3900  -29.9310 C   0  0  0  0  0  0  0  0  0  0  0  0
   -5.0460   23.6160  -31.2530 N   0  0  0  0  0  0  0  0  0  0  0  0
   -6.0420   23.4770  -32.3360 C   0  0  0  0  0  0  0  0  0  0  0  0
   -6.4800   22.0840  -32.4510 N   0  0  0  0  0  0  0  0  0  0  0  0
   -5.7740   21.1380  -33.0500 N   0  0  0  0  0  0  0  0  0  0  0  0
   -6.5160   20.0140  -32.9440 C   0  0  0  0  0  0  0  0  0  0  0  0
   -6.1120   18.6970  -33.4750 C   0  0  0  0  0  0  0  0  0  0  0  0
   -4.9630   18.5810  -34.2740 C   0  0  0  0  0  0  0  0  0  0  0  0
   -4.5950   17.3280  -34.7730 C   0  0  0  0  0  0  0  0  0  0  0  0
   -5.3350   16.2290  -34.4720 N   0  0  0  0  0  0  0  0  0  0  0  0
   -6.4490   16.3110  -33.6960 C   0  0  0  0  0  0  0  0  0  0  0  0
   -6.8590   17.5450  -33.1860 C   0  0  0  0  0  0  0  0  0  0  0  0
   -7.6480   20.2430  -32.3050 O   0  0  0  0  0  0  0  0  0  0  0  0
   -7.6200   21.5190  -32.0060 C   0  0  0  0  0  0  0  0  0  0  0  0
   -8.8230   22.2960  -31.2060 S   0  0  0  0  0  0  0  0  0  0  0  0
   -3.8550   22.7570  -31.5110 C   0  0  0  0  0  0  0  0  0  0  0  0
   -3.3610   21.9670  -30.2850 C   0  0  0  0  0  0  0  0  0  0  0  0
   -3.0565   19.6413  -25.7509 H   0  0  0  0  0  0  0  0  0  0  0  0
   -4.0990   18.8355  -26.9717 H   0  0  0  0  0  0  0  0  0  0  0  0
   -2.3265   18.5443  -26.9717 H   0  0  0  0  0  0  0  0  0  0  0  0
   -0.9063   20.5452  -25.8862 H   0  0  0  0  0  0  0  0  0  0  0  0
    0.4404   22.5848  -25.3988 H   0  0  0  0  0  0  0  0  0  0  0  0
   -0.0359   24.7182  -26.5977 H   0  0  0  0  0  0  0  0  0  0  0  0
   -1.8483   24.8143  -28.3048 H   0  0  0  0  0  0  0  0  0  0  0  0
   -5.0740   23.2932  -27.8596 H   0  0  0  0  0  0  0  0  0  0  0  0
   -4.3571   24.6614  -28.7942 H   0  0  0  0  0  0  0  0  0  0  0  0
   -6.0555   22.3609  -29.8813 H   0  0  0  0  0  0  0  0  0  0  0  0
   -6.4950   24.1046  -29.7944 H   0  0  0  0  0  0  0  0  0  0  0  0
   -6.9113   24.1130  -32.1128 H   0  0  0  0  0  0  0  0  0  0  0  0
   -5.5816   23.7859  -33.2861 H   0  0  0  0  0  0  0  0  0  0  0  0
   -4.3571   19.4694  -34.5055 H   0  0  0  0  0  0  0  0  0  0  0  0
   -3.7041   17.2316  -35.4109 H   0  0  0  0  0  0  0  0  0  0  0  0
   -7.0282   15.4037  -33.4696 H   0  0  0  0  0  0  0  0  0  0  0  0
   -7.7620   17.6132  -32.5616 H   0  0  0  0  0  0  0  0  0  0  0  0
   -4.1148   22.0377  -32.3016 H   0  0  0  0  0  0  0  0  0  0  0  0
   -3.0368   23.4339  -31.7980 H   0  0  0  0  0  0  0  0  0  0  0  0
   -3.9924   21.0766  -30.1489 H   0  0  0  0  0  0  0  0  0  0  0  0
   -2.3158   21.6670  -30.4509 H   0  0  0  0  0  0  0  0  0  0  0  0
  1  2  1  0
  2  3  1  0
  3  4  2  0
  4  5  1  0
  5  6  2  0
  6  7  1  0
  7  8  2  0
  8  9  1  0
  9 10  1  0
 10 11  1  0
 11 12  1  0
 12 13  1  0
 13 14  1  0
 14 15  1  0
 15 16  2  0
 16 17  1  0
 17 18  2  0
 18 19  1  0
 19 20  2  0
 20 21  1  0
 21 22  2  0
 16 23  1  0
 23 24  1  0
 24 25  2  0
 12 26  1  0
 26 27  1  0
  8  3  1  0
 27  9  1  0
 24 14  1  0
 22 17  1  0
  1 28  1  0
  1 29  1  0
  1 30  1  0
  4 31  1  0
  5 32  1  0
  6 33  1  0
  7 34  1  0
 10 35  1  0
 10 36  1  0
 11 37  1  0
 11 38  1  0
 13 39  1  0
 13 40  1  0
 18 41  1  0
 19 42  1  0
 21 43  1  0
 22 44  1  0
 26 45  1  0
 26 46  1  0
 27 47  1  0
 27 48  1  0
M  END
>  <UniqueID>  (11) 
11

>  <SMILES>  (11) 
COc1ccccc1N1CCN(Cn2nc(-c3ccncc3)oc2=S)CC1

>  <Energy>  (11) 
99.87367971752172

>  <Genealogy>  (11) 
COc1ccccc1N1CCN(Cn2nc(-c3ccncc3)oc2=S)CC1 (3D coordinates assigned)
COc1ccccc1N1CCN(Cn2nc(-c3ccncc3)oc2=S)CC1 (nonaromatic ring conformer: 99.87367971752172 kcal/mol)

>  <smiles>  (11) 
COc1ccccc1N1CCN(Cn2nc(-c3ccncc3)oc2=S)CC1

>  <score_type>  (11) 
oracle

>  <origin>  (11) 
adg

>  <m_score__min__energy>  (11) 
-8.1300000000000008

>  <m_primary>  (11) 
energy

$$$$
11:0
     RDKit          3D

 61 63  0  0  0  0  0  0  0  0999 V2000
   -5.2842   26.2631  -31.7916 H   0  0  0  0  0  0  0  0  0  0  0  0
   -5.0750   25.4370  -31.0960 C   0  0  0  0  0  0  0  0  0  0  0  0
   -3.8730   25.3700  -30.4710 N   0  0  0  0  0  0  0  0  0  0  0  0
   -3.5720   24.3700  -29.6040 C   0  0  0  0  0  0  0  0  0  0  0  0
   -2.3160   24.3450  -28.9850 C   0  0  0  0  0  0  0  0  0  0  0  0
   -1.5816   25.1346  -29.2024 H   0  0  0  0  0  0  0  0  0  0  0  0
   -1.9930   23.3200  -28.0920 C   0  0  0  0  0  0  0  0  0  0  0  0
   -0.4170   23.2960  -27.3200 Cl  0  0  0  0  0  0  0  0  0  0  0  0
   -2.9220   22.3140  -27.8140 C   0  0  0  0  0  0  0  0  0  0  0  0
   -2.6637   21.5083  -27.1110 H   0  0  0  0  0  0  0  0  0  0  0  0
   -4.1780   22.3280  -28.4260 C   0  0  0  0  0  0  0  0  0  0  0  0
   -4.9034   21.5318  -28.2027 H   0  0  0  0  0  0  0  0  0  0  0  0
   -4.5220   23.3560  -29.3280 C   0  0  0  0  0  0  0  0  0  0  0  0
   -5.7810   23.4030  -29.9710 C   0  0  0  0  0  0  0  0  0  0  0  0
   -6.6640   22.4710  -29.7230 N   0  0  0  0  0  0  0  0  0  0  0  0
   -7.9900   22.3040  -30.3210 C   0  0  0  0  0  0  0  0  0  0  0  0
   -8.3639   23.2878  -30.6411 H   0  0  0  0  0  0  0  0  0  0  0  0
   -8.6544   21.8581  -29.5662 H   0  0  0  0  0  0  0  0  0  0  0  0
   -7.9470   21.3650  -31.5400 C   0  0  0  0  0  0  0  0  0  0  0  0
   -6.9143   21.3348  -31.9178 H   0  0  0  0  0  0  0  0  0  0  0  0
   -8.6551   21.7681  -32.2790 H   0  0  0  0  0  0  0  0  0  0  0  0
   -8.3930   19.9250  -31.2330 C   0  0  0  0  0  0  0  0  0  0  0  0
   -9.4471   19.9428  -30.9190 H   0  0  0  0  0  0  0  0  0  0  0  0
   -7.7377   19.5370  -30.4392 H   0  0  0  0  0  0  0  0  0  0  0  0
   -8.2570   18.9890  -32.4450 C   0  0  0  0  0  0  0  0  0  0  0  0
   -8.0030   19.5888  -33.3314 H   0  0  0  0  0  0  0  0  0  0  0  0
   -9.2151   18.4663  -32.5826 H   0  0  0  0  0  0  0  0  0  0  0  0
   -7.1650   17.9340  -32.2300 C   0  0  0  0  0  0  0  0  0  0  0  0
   -7.6359   16.9686  -31.9929 H   0  0  0  0  0  0  0  0  0  0  0  0
   -6.5189   18.2547  -31.3995 H   0  0  0  0  0  0  0  0  0  0  0  0
   -6.3460   17.7880  -33.4400 N   0  0  0  0  0  0  0  0  0  0  0  0
   -5.4360   17.3360  -33.1840 H   0  0  0  0  0  0  0  0  0  0  0  0
   -6.0780   19.0850  -34.0820 C   0  0  0  0  0  0  0  0  0  0  0  0
   -6.9386   19.7489  -33.9126 H   0  0  0  0  0  0  0  0  0  0  0  0
   -5.9176   18.9044  -35.1551 H   0  0  0  0  0  0  0  0  0  0  0  0
   -4.8370   19.7470  -33.5320 C   0  0  0  0  0  0  0  0  0  0  0  0
   -3.5730   19.1760  -33.7430 C   0  0  0  0  0  0  0  0  0  0  0  0
   -3.4863   18.2282  -34.2945 H   0  0  0  0  0  0  0  0  0  0  0  0
   -2.4220   19.8050  -33.2560 C   0  0  0  0  0  0  0  0  0  0  0  0
   -1.4350   19.3499  -33.4258 H   0  0  0  0  0  0  0  0  0  0  0  0
   -2.5230   21.0190  -32.5490 C   0  0  0  0  0  0  0  0  0  0  0  0
   -1.4040   21.6970  -32.0380 O   0  0  0  0  0  0  0  0  0  0  0  0
   -0.9240   21.6180  -30.6950 C   0  0  0  0  0  0  0  0  0  0  0  0
   -1.4247   22.3889  -30.0908 H   0  0  0  0  0  0  0  0  0  0  0  0
    0.1646   21.7756  -30.7084 H   0  0  0  0  0  0  0  0  0  0  0  0
   -1.2030   20.2400  -30.0760 C   0  0  0  0  0  0  0  0  0  0  0  0
   -0.9425   19.4673  -30.8143 H   0  0  0  0  0  0  0  0  0  0  0  0
   -2.2691   20.2161  -29.8061 H   0  0  0  0  0  0  0  0  0  0  0  0
   -0.4040   19.9730  -28.7890 C   0  0  0  0  0  0  0  0  0  0  0  0
   -0.0494   20.9346  -28.3895 H   0  0  0  0  0  0  0  0  0  0  0  0
    0.4314   19.3067  -29.0499 H   0  0  0  0  0  0  0  0  0  0  0  0
   -1.2320   19.2730  -27.7130 C   0  0  0  0  0  0  0  0  0  0  0  0
   -0.8729   19.5766  -26.7186 H   0  0  0  0  0  0  0  0  0  0  0  0
   -2.2895   19.5550  -27.8228 H   0  0  0  0  0  0  0  0  0  0  0  0
   -1.1298   18.1833  -27.8228 H   0  0  0  0  0  0  0  0  0  0  0  0
   -3.7850   21.5900  -32.3520 C   0  0  0  0  0  0  0  0  0  0  0  0
   -3.8732   22.5429  -31.8096 H   0  0  0  0  0  0  0  0  0  0  0  0
   -4.9350   20.9610  -32.8380 C   0  0  0  0  0  0  0  0  0  0  0  0
   -5.9210   21.4207  -32.6751 H   0  0  0  0  0  0  0  0  0  0  0  0
   -6.0470   24.4650  -30.8620 C   0  0  0  0  0  0  0  0  0  0  0  0
   -7.0201   24.5258  -31.3712 H   0  0  0  0  0  0  0  0  0  0  0  0
  1  2  1  0
  2  3  1  0
  3  4  1  0
  4  5  2  0
  5  6  1  0
  5  7  1  0
  7  8  1  0
  7  9  2  0
  9 10  1  0
  9 11  1  0
 11 12  1  0
 11 13  2  0
 13 14  1  0
 14 15  2  0
 15 16  1  0
 16 17  1  0
 16 18  1  0
 16 19  1  0
 19 20  1  0
 19 21  1  0
 19 22  1  0
 22 23  1  0
 22 24  1  0
 22 25  1  0
 25 26  1  0
 25 27  1  0
 25 28  1  0
 28 29  1  0
 28 30  1  0
 28 31  1  0
 31 32  1  0
 31 33  1  0
 33 34  1  0
 33 35  1  0
 33 36  1  0
 36 37  2  0
 37 38  1  0
 37 39  1  0
 39 40  1  0
 39 41  2  0
 41 42  1  0
 42 43  1  0
 43 44  1  0
 43 45  1  0
 43 46  1  0
 46 47  1  0
 46 48  1  0
 46 49  1  0
 49 50  1  0
 49 51  1  0
 49 52  1  0
 52 53  1  0
 52 54  1  0
 52 55  1  0
 41 56  1  0
 56 57  1  0
 56 58  2  0
 58 59  1  0
 14 60  1  0
 60 61  1  0
 60  2  2  0
 13  4  1  0
 58 36  1  0
M  CHG  1   3  -1
M  END
>  <UniqueID>  (12) 
12

>  <SMILES>  (12) 
CCCCOc1ccc(CNCCCCC/N=c2\cc[n-]c3cc(Cl)ccc23)cc1

>  <Energy>  (12) 
57.39699867316966

>  <Genealogy>  (12) 
CCCCOc1ccc(CNCCCCCN=c2cc[n-]c3cc(Cl)ccc23)cc1 (protonated)
CCCCOc1ccc(CNCCCCC/N=c2\cc[n-]c3cc(Cl)ccc23)cc1 (cis-trans isomerization)
CCCCOc1ccc(CNCCCCC/N=c2\cc[n-]c3cc(Cl)ccc23)cc1 (3D coordinates assigned)
CCCCOc1ccc(CNCCCCC/N=c2\cc[n-]c3cc(Cl)ccc23)cc1 (optimized conformer: 57.39699867316966 kcal/mol)

>  <smiles>  (12) 
CCCCOc1ccc(CNCCCCCN=c2cc[nH]c3cc(Cl)ccc23)cc1

>  <score_type>  (12) 
oracle

>  <origin>  (12) 
adg

>  <m_score__min__energy>  (12) 
-10.08

>  <m_primary>  (12) 
energy

$$$$
12:0
     RDKit          3D

 38 38  0  0  0  0  0  0  0  0999 V2000
   -3.9441   22.0153  -32.5901 H   0  0  0  0  0  0  0  0  0  0  0  0
   -4.9960   21.8740  -32.3010 C   0  0  0  0  0  0  0  0  0  0  0  0
   -5.6430   20.6730  -32.6030 C   0  0  0  0  0  0  0  0  0  0  0  0
   -5.0893   19.8702  -33.1118 H   0  0  0  0  0  0  0  0  0  0  0  0
   -6.9980   20.4780  -32.2630 C   0  0  0  0  0  0  0  0  0  0  0  0
   -7.6720   19.2300  -32.5750 N   0  0  0  0  0  0  0  0  0  0  0  0
   -6.9180   18.0860  -33.1040 C   0  0  0  0  0  0  0  0  0  0  0  0
   -6.5242   17.4885  -32.2686 H   0  0  0  0  0  0  0  0  0  0  0  0
   -7.5825   17.4621  -33.7198 H   0  0  0  0  0  0  0  0  0  0  0  0
   -6.0826   18.4506  -33.7198 H   0  0  0  0  0  0  0  0  0  0  0  0
   -9.1190   19.0880  -32.3650 C   0  0  0  0  0  0  0  0  0  0  0  0
   -9.3326   19.0670  -31.2861 H   0  0  0  0  0  0  0  0  0  0  0  0
   -9.6417   19.9392  -32.8258 H   0  0  0  0  0  0  0  0  0  0  0  0
   -9.4662   18.1515  -32.8258 H   0  0  0  0  0  0  0  0  0  0  0  0
   -7.6840   21.5310  -31.6210 C   0  0  0  0  0  0  0  0  0  0  0  0
   -8.7443   21.4074  -31.3554 H   0  0  0  0  0  0  0  0  0  0  0  0
   -7.0310   22.7290  -31.3190 C   0  0  0  0  0  0  0  0  0  0  0  0
   -7.5836   23.5453  -30.8308 H   0  0  0  0  0  0  0  0  0  0  0  0
   -5.6750   22.8960  -31.6350 C   0  0  0  0  0  0  0  0  0  0  0  0
   -4.9940   24.1290  -31.3650 N   0  0  0  0  0  0  0  0  0  0  0  0
   -4.9350   24.7450  -30.2170 C   0  0  0  0  0  0  0  0  0  0  0  0
   -6.0770   25.5830  -29.6980 C   0  0  0  0  0  0  0  0  0  0  0  0
   -6.0669   25.5756  -28.5981 H   0  0  0  0  0  0  0  0  0  0  0  0
   -5.9671   26.6163  -30.0587 H   0  0  0  0  0  0  0  0  0  0  0  0
   -7.0298   25.1681  -30.0587 H   0  0  0  0  0  0  0  0  0  0  0  0
   -3.7110   24.5480  -29.3640 C   0  0  0  0  0  0  0  0  0  0  0  0
   -3.9471   24.8544  -28.3342 H   0  0  0  0  0  0  0  0  0  0  0  0
   -2.9042   25.1582  -29.7961 H   0  0  0  0  0  0  0  0  0  0  0  0
   -3.2280   23.0880  -29.3440 C   0  0  0  0  0  0  0  0  0  0  0  0
   -2.1282   23.0852  -29.3668 H   0  0  0  0  0  0  0  0  0  0  0  0
   -3.6660   22.5913  -30.2223 H   0  0  0  0  0  0  0  0  0  0  0  0
   -3.6920   22.3010  -28.1010 C   0  0  0  0  0  0  0  0  0  0  0  0
   -4.7452   22.0151  -28.2391 H   0  0  0  0  0  0  0  0  0  0  0  0
   -3.5576   22.9544  -27.2264 H   0  0  0  0  0  0  0  0  0  0  0  0
   -2.8700   21.0350  -27.8600 C   0  0  0  0  0  0  0  0  0  0  0  0
   -2.7619   20.8685  -26.7781 H   0  0  0  0  0  0  0  0  0  0  0  0
   -3.3816   20.1736  -28.3143 H   0  0  0  0  0  0  0  0  0  0  0  0
   -1.8750   21.1518  -28.3143 H   0  0  0  0  0  0  0  0  0  0  0  0
  1  2  1  0
  2  3  2  0
  3  4  1  0
  3  5  1  0
  5  6  1  0
  6  7  1  0
  7  8  1  0
  7  9  1  0
  7 10  1  0
  6 11  1  0
 11 12  1  0
 11 13  1  0
 11 14  1  0
  5 15  2  0
 15 16  1  0
 15 17  1  0
 17 18  1  0
 17 19  2  0
 19 20  1  0
 20 21  2  0
 21 22  1  0
 22 23  1  0
 22 24  1  0
 22 25  1  0
 21 26  1  0
 26 27  1  0
 26 28  1  0
 26 29  1  0
 29 30  1  0
 29 31  1  0
 29 32  1  0
 32 33  1  0
 32 34  1  0
 32 35  1  0
 35 36  1  0
 35 37  1  0
 35 38  1  0
 19  2  1  0
M  END
>  <UniqueID>  (13) 
13

>  <SMILES>  (13) 
CCCC/C(C)=N/c1ccc(N(C)C)cc1

>  <Energy>  (13) 
36.338327875000154

>  <Genealogy>  (13) 
CCCC/C(C)=N/c1ccc(N(C)C)cc1 (cis-trans isomerization)
CCCC/C(C)=N/c1ccc(N(C)C)cc1 (3D coordinates assigned)
CCCC/C(C)=N/c1ccc(N(C)C)cc1 (optimized conformer: 36.338327875000154 kcal/mol)

>  <smiles>  (13) 
CCCCC(C)=Nc1ccc(N(C)C)cc1

>  <score_type>  (13) 
oracle

>  <origin>  (13) 
adg

>  <m_score__min__energy>  (13) 
-6.2199999999999998

>  <m_primary>  (13) 
energy

$$$$
13:0
     RDKit          3D

 42 42  0  0  0  0  0  0  0  0999 V2000
   -6.8740   24.5810  -30.4480 C   0  0  0  0  0  0  0  0  0  0  0  0
   -6.8720   23.7800  -31.7410 C   0  0  0  0  0  0  0  0  0  0  0  0
   -6.5190   22.4280  -31.4630 O   0  0  0  0  0  0  0  0  0  0  0  0
   -7.3220   21.3150  -31.7640 C   0  0  0  0  0  0  0  0  0  0  0  0
   -8.7090   21.4310  -31.9810 C   0  0  0  0  0  0  0  0  0  0  0  0
   -9.4740   20.2970  -32.2660 C   0  0  0  0  0  0  0  0  0  0  0  0
   -8.8650   19.0440  -32.3410 C   0  0  0  0  0  0  0  0  0  0  0  0
   -7.4900   18.9180  -32.1290 C   0  0  0  0  0  0  0  0  0  0  0  0
   -6.7090   20.0540  -31.8390 C   0  0  0  0  0  0  0  0  0  0  0  0
   -5.3280   19.9700  -31.6070 O   0  0  0  0  0  0  0  0  0  0  0  0
   -4.4010   19.3080  -32.4620 C   0  0  0  0  0  0  0  0  0  0  0  0
   -3.7890   20.3110  -33.4470 C   0  0  0  0  0  0  0  0  0  0  0  0
   -4.0650   21.7080  -33.0800 N   0  0  0  0  0  0  0  0  0  0  0  0
   -3.0600   22.2880  -32.1660 C   0  0  0  0  0  0  0  0  0  0  0  0
   -3.6940   22.9260  -30.9470 C   0  0  0  0  0  0  0  0  0  0  0  0
   -3.7200   24.1490  -30.8660 O   0  0  0  0  0  0  0  0  0  0  0  0
   -4.1990   22.1110  -29.8570 N   0  0  0  0  0  0  0  0  0  0  0  0
   -3.1660   21.1540  -29.4340 C   0  0  0  0  0  0  0  0  0  0  0  0
   -4.6160   22.9560  -28.7260 C   0  0  0  0  0  0  0  0  0  0  0  0
   -6.8723   23.8925  -29.5901 H   0  0  0  0  0  0  0  0  0  0  0  0
   -5.9774   25.2172  -30.4094 H   0  0  0  0  0  0  0  0  0  0  0  0
   -7.7737   25.2127  -30.4094 H   0  0  0  0  0  0  0  0  0  0  0  0
   -7.8743   23.8115  -32.1931 H   0  0  0  0  0  0  0  0  0  0  0  0
   -6.1405   24.2133  -32.4390 H   0  0  0  0  0  0  0  0  0  0  0  0
   -9.1916   22.4179  -31.9259 H   0  0  0  0  0  0  0  0  0  0  0  0
  -10.5573   20.3923  -32.4314 H   0  0  0  0  0  0  0  0  0  0  0  0
   -9.4691   18.1531  -32.5676 H   0  0  0  0  0  0  0  0  0  0  0  0
   -7.0151   17.9276  -32.1888 H   0  0  0  0  0  0  0  0  0  0  0  0
   -3.6011   18.8594  -31.8546 H   0  0  0  0  0  0  0  0  0  0  0  0
   -4.9261   18.5226  -33.0254 H   0  0  0  0  0  0  0  0  0  0  0  0
   -2.6994   20.1618  -33.4695 H   0  0  0  0  0  0  0  0  0  0  0  0
   -4.2450   20.1300  -34.4315 H   0  0  0  0  0  0  0  0  0  0  0  0
   -5.0420   21.8050  -32.7140 H   0  0  0  0  0  0  0  0  0  0  0  0
   -2.3803   21.4892  -31.8344 H   0  0  0  0  0  0  0  0  0  0  0  0
   -2.5188   23.0731  -32.7144 H   0  0  0  0  0  0  0  0  0  0  0  0
   -5.0320   21.5630  -30.1770 H   0  0  0  0  0  0  0  0  0  0  0  0
   -3.1273   21.1181  -28.3353 H   0  0  0  0  0  0  0  0  0  0  0  0
   -3.4093   20.1551  -29.8251 H   0  0  0  0  0  0  0  0  0  0  0  0
   -2.1886   21.4728  -29.8251 H   0  0  0  0  0  0  0  0  0  0  0  0
   -4.3673   22.4519  -27.7805 H   0  0  0  0  0  0  0  0  0  0  0  0
   -4.0908   23.9212  -28.7762 H   0  0  0  0  0  0  0  0  0  0  0  0
   -5.7016   23.1263  -28.7762 H   0  0  0  0  0  0  0  0  0  0  0  0
  1  2  1  0
  2  3  1  0
  3  4  1  0
  4  5  2  0
  5  6  1  0
  6  7  2  0
  7  8  1  0
  8  9  2  0
  9 10  1  0
 10 11  1  0
 11 12  1  0
 12 13  1  0
 13 14  1  0
 14 15  1  0
 15 16  2  0
 15 17  1  0
 17 18  1  0
 17 19  1  0
  9  4  1  0
  1 20  1  0
  1 21  1  0
  1 22  1  0
  2 23  1  0
  2 24  1  0
  5 25  1  0
  6 26  1  0
  7 27  1  0
  8 28  1  0
 11 29  1  0
 11 30  1  0
 12 31  1  0
 12 32  1  0
 13 33  1  0
 14 34  1  0
 14 35  1  0
 17 36  1  0
 18 37  1  0
 18 38  1  0
 18 39  1  0
 19 40  1  0
 19 41  1  0
 19 42  1  0
M  CHG  1  17   1
M  END
>  <UniqueID>  (14) 
14

>  <SMILES>  (14) 
CCOc1ccccc1OCCNCC(=O)[NH+](C)C

>  <Energy>  (14) 
33.71592570411611

>  <Genealogy>  (14) 
CCOc1ccccc1OCCNCC(=O)[NH+](C)C (protonated)
CCOc1ccccc1OCCNCC(=O)[NH+](C)C (3D coordinates assigned)
CCOc1ccccc1OCCNCC(=O)[NH+](C)C (optimized conformer: 33.71592570411611 kcal/mol)

>  <smiles>  (14) 
CCOc1ccccc1OCCNCC(=O)N(C)C

>  <score_type>  (14) 
oracle

>  <origin>  (14) 
adg

>  <m_score__min__energy>  (14) 
-7.3499999999999996

>  <m_primary>  (14) 
energy

$$$$
14:0
     RDKit          3D

 50 52  0  0  0  0  0  0  0  0999 V2000
   -8.1540   19.6460  -32.3270 C   0  0  0  0  0  0  0  0  0  0  0  0
   -6.8780   19.9750  -32.8260 O   0  0  0  0  0  0  0  0  0  0  0  0
   -5.9490   19.9950  -31.7650 C   0  0  0  0  0  0  0  0  0  0  0  0
   -4.7590   20.8030  -32.1850 C   0  0  0  0  0  0  0  0  0  0  0  0
   -4.6240   21.3130  -33.4250 N   0  0  0  0  0  0  0  0  0  0  0  0
   -3.4130   21.8970  -33.4490 C   0  0  0  0  0  0  0  0  0  0  0  0
   -2.8160   21.7270  -32.2190 C   0  0  0  0  0  0  0  0  0  0  0  0
   -3.6590   21.0340  -31.4270 N   0  0  0  0  0  0  0  0  0  0  0  0
   -3.3920   20.6270  -30.0430 C   0  0  0  0  0  0  0  0  0  0  0  0
   -2.5120   21.6450  -29.2980 C   0  0  1  0  0  0  0  0  0  0  0  0
   -3.1980   22.1510  -28.0040 C   0  0  0  0  0  0  0  0  0  0  0  0
   -2.3740   23.1740  -27.3150 N   0  0  0  0  0  0  0  0  0  0  0  0
   -2.8480   24.5410  -27.6200 C   0  0  0  0  0  0  0  0  0  0  0  0
   -3.6980   24.5490  -28.8530 C   0  0  0  0  0  0  0  0  0  0  0  0
   -4.9800   24.1400  -28.8870 N   0  0  0  0  0  0  0  0  0  0  0  0
   -5.2750   24.3130  -30.1930 C   0  0  0  0  0  0  0  0  0  0  0  0
   -6.6100   23.9890  -30.8000 C   0  0  0  0  0  0  0  0  0  0  0  0
   -6.4730   23.7870  -32.3120 C   0  0  0  0  0  0  0  0  0  0  0  0
   -7.2130   22.7480  -30.1340 C   0  0  0  0  0  0  0  0  0  0  0  0
   -4.2320   24.7920  -30.9010 N   0  0  0  0  0  0  0  0  0  0  0  0
   -3.2760   24.9230  -30.0350 O   0  0  0  0  0  0  0  0  0  0  0  0
   -0.9270   23.0270  -27.6080 C   0  0  0  0  0  0  0  0  0  0  0  0
   -0.5670   21.5650  -27.9180 C   0  0  0  0  0  0  0  0  0  0  0  0
   -1.2460   21.0410  -29.0520 O   0  0  0  0  0  0  0  0  0  0  0  0
   -8.1304   19.6521  -31.2273 H   0  0  0  0  0  0  0  0  0  0  0  0
   -8.8881   20.3842  -32.6821 H   0  0  0  0  0  0  0  0  0  0  0  0
   -8.4396   18.6448  -32.6821 H   0  0  0  0  0  0  0  0  0  0  0  0
   -6.4111   20.4504  -30.8767 H   0  0  0  0  0  0  0  0  0  0  0  0
   -5.6380   18.9689  -31.5191 H   0  0  0  0  0  0  0  0  0  0  0  0
   -5.3090   21.2570  -34.2120 H   0  0  0  0  0  0  0  0  0  0  0  0
   -2.9720   22.4233  -34.3084 H   0  0  0  0  0  0  0  0  0  0  0  0
   -1.8199   22.0945  -31.9316 H   0  0  0  0  0  0  0  0  0  0  0  0
   -4.3499   20.5304  -29.5110 H   0  0  0  0  0  0  0  0  0  0  0  0
   -2.8514   19.6694  -30.0707 H   0  0  0  0  0  0  0  0  0  0  0  0
   -2.3633   22.5424  -29.9165 H   0  0  0  0  0  0  0  0  0  0  0  0
   -4.1712   22.5925  -28.2648 H   0  0  0  0  0  0  0  0  0  0  0  0
   -3.3250   21.2956  -27.3241 H   0  0  0  0  0  0  0  0  0  0  0  0
   -3.4404   24.9145  -26.7717 H   0  0  0  0  0  0  0  0  0  0  0  0
   -1.9737   25.1861  -27.7915 H   0  0  0  0  0  0  0  0  0  0  0  0
   -7.2913   24.8351  -30.6271 H   0  0  0  0  0  0  0  0  0  0  0  0
   -5.8655   22.8913  -32.5087 H   0  0  0  0  0  0  0  0  0  0  0  0
   -7.4709   23.6582  -32.7566 H   0  0  0  0  0  0  0  0  0  0  0  0
   -5.9842   24.6664  -32.7566 H   0  0  0  0  0  0  0  0  0  0  0  0
   -7.1603   22.8565  -29.0406 H   0  0  0  0  0  0  0  0  0  0  0  0
   -8.2637   22.6408  -30.4416 H   0  0  0  0  0  0  0  0  0  0  0  0
   -6.6480   21.8557  -30.4416 H   0  0  0  0  0  0  0  0  0  0  0  0
   -0.6719   23.6511  -28.4771 H   0  0  0  0  0  0  0  0  0  0  0  0
   -0.3586   23.3446  -26.7214 H   0  0  0  0  0  0  0  0  0  0  0  0
    0.5158   21.5048  -28.1022 H   0  0  0  0  0  0  0  0  0  0  0  0
   -0.8770   20.9648  -27.0499 H   0  0  0  0  0  0  0  0  0  0  0  0
  1  2  1  0
  2  3  1  0
  3  4  1  0
  4  5  2  0
  5  6  1  0
  6  7  2  0
  7  8  1  0
  8  9  1  0
  9 10  1  0
 10 11  1  0
 11 12  1  0
 12 13  1  0
 13 14  1  0
 14 15  2  0
 15 16  1  0
 16 17  1  0
 17 18  1  0
 17 19  1  0
 16 20  2  0
 20 21  1  0
 12 22  1  0
 22 23  1  0
 23 24  1  0
  8  4  1  0
 24 10  1  0
 21 14  1  0
  1 25  1  0
  1 26  1  0
  1 27  1  0
  3 28  1  0
  3 29  1  0
  5 30  1  0
  6 31  1  0
  7 32  1  0
  9 33  1  0
  9 34  1  0
 10 35  1  6
 11 36  1  0
 11 37  1  0
 13 38  1  0
 13 39  1  0
 17 40  1  0
 18 41  1  0
 18 42  1  0
 18 43  1  0
 19 44  1  0
 19 45  1  0
 19 46  1  0
 22 47  1  0
 22 48  1  0
 23 49  1  0
 23 50  1  0
M  CHG  1   5   1
M  END
>  <UniqueID>  (15) 
15

>  <SMILES>  (15) 
COCc1[nH+]ccn1C[C@H]1CN(Cc2nc(C(C)C)no2)CCO1

>  <Energy>  (15) 
118.81708402796579

>  <Genealogy>  (15) 
COCc1[nH+]ccn1CC1CN(Cc2nc(C(C)C)no2)CCO1 (protonated)
COCc1[nH+]ccn1C[C@H]1CN(Cc2nc(C(C)C)no2)CCO1 (chirality)
COCc1[nH+]ccn1C[C@H]1CN(Cc2nc(C(C)C)no2)CCO1 (3D coordinates assigned)
COCc1[nH+]ccn1C[C@H]1CN(Cc2nc(C(C)C)no2)CCO1 (nonaromatic ring conformer: 118.81708402796579 kcal/mol)

>  <smiles>  (15) 
COCc1nccn1CC1CN(Cc2nc(C(C)C)no2)CCO1

>  <score_type>  (15) 
oracle

>  <origin>  (15) 
adg

>  <m_score__min__energy>  (15) 
-7.3099999999999996

>  <m_primary>  (15) 
energy

$$$$
15:0
     RDKit          3D

 50 53  0  0  0  0  0  0  0  0999 V2000
   -3.3070   22.9210  -27.5270 C   0  0  0  0  0  0  0  0  0  0  0  0
   -3.1060   21.7730  -28.3440 O   0  0  0  0  0  0  0  0  0  0  0  0
   -2.4610   20.5970  -27.9240 C   0  0  0  0  0  0  0  0  0  0  0  0
   -3.0600   19.7150  -27.0020 C   0  0  0  0  0  0  0  0  0  0  0  0
   -2.3930   18.5610  -26.5900 C   0  0  0  0  0  0  0  0  0  0  0  0
   -1.1250   18.2680  -27.0930 C   0  0  0  0  0  0  0  0  0  0  0  0
   -0.5130   19.1360  -27.9970 C   0  0  0  0  0  0  0  0  0  0  0  0
   -1.1760   20.3000  -28.4320 C   0  0  0  0  0  0  0  0  0  0  0  0
   -0.4640   21.2940  -29.3190 C   0  0  0  0  0  0  0  0  0  0  0  0
   -0.5560   20.9430  -30.6980 O   0  0  0  0  0  0  0  0  0  0  0  0
   -1.6760   21.2090  -31.4930 C   0  0  0  0  0  0  0  0  0  0  0  0
   -1.7260   20.7030  -32.7900 C   0  0  0  0  0  0  0  0  0  0  0  0
   -2.8210   21.0210  -33.5900 C   0  0  0  0  0  0  0  0  0  0  0  0
   -3.8170   21.8050  -33.0990 N   0  0  0  0  0  0  0  0  0  0  0  0
   -3.7690   22.2730  -31.8190 C   0  0  0  0  0  0  0  0  0  0  0  0
   -4.8540   23.1260  -31.2930 C   0  0  0  0  0  0  0  0  0  0  0  0
   -4.5500   24.1310  -30.3610 C   0  0  0  0  0  0  0  0  0  0  0  0
   -5.5600   24.9470  -29.8460 C   0  0  0  0  0  0  0  0  0  0  0  0
   -6.8770   24.7800  -30.2710 C   0  0  0  0  0  0  0  0  0  0  0  0
   -7.1900   23.7950  -31.2090 C   0  0  0  0  0  0  0  0  0  0  0  0
   -6.1860   22.9470  -31.7180 C   0  0  0  0  0  0  0  0  0  0  0  0
   -6.4680   21.9810  -32.6990 O   0  0  0  0  0  0  0  0  0  0  0  0
   -7.0940   20.7480  -32.4740 C   0  0  0  0  0  0  0  0  0  0  0  0
   -8.4780   20.6500  -32.2460 C   0  0  0  0  0  0  0  0  0  0  0  0
   -9.0700   19.4010  -32.0340 C   0  0  0  0  0  0  0  0  0  0  0  0
   -8.2830   18.2460  -32.0320 C   0  0  0  0  0  0  0  0  0  0  0  0
   -6.9030   18.3390  -32.2350 C   0  0  0  0  0  0  0  0  0  0  0  0
   -6.3100   19.5880  -32.4440 C   0  0  0  0  0  0  0  0  0  0  0  0
   -2.7020   21.9720  -31.0290 N   0  0  0  0  0  0  0  0  0  0  0  0
   -3.2561   22.6304  -26.4673 H   0  0  0  0  0  0  0  0  0  0  0  0
   -2.5254   23.6648  -27.7411 H   0  0  0  0  0  0  0  0  0  0  0  0
   -4.2948   23.3550  -27.7411 H   0  0  0  0  0  0  0  0  0  0  0  0
   -4.0610   19.9383  -26.6043 H   0  0  0  0  0  0  0  0  0  0  0  0
   -2.8676   17.8809  -25.8673 H   0  0  0  0  0  0  0  0  0  0  0  0
   -0.6071   17.3508  -26.7760 H   0  0  0  0  0  0  0  0  0  0  0  0
    0.4956   18.9097  -28.3733 H   0  0  0  0  0  0  0  0  0  0  0  0
   -0.9162   22.2863  -29.1744 H   0  0  0  0  0  0  0  0  0  0  0  0
    0.6000   21.2964  -29.0399 H   0  0  0  0  0  0  0  0  0  0  0  0
   -0.9167   20.0650  -33.1747 H   0  0  0  0  0  0  0  0  0  0  0  0
   -2.8798   20.6376  -34.6193 H   0  0  0  0  0  0  0  0  0  0  0  0
   -4.6320   22.0280  -33.7130 H   0  0  0  0  0  0  0  0  0  0  0  0
   -3.5098   24.2768  -30.0342 H   0  0  0  0  0  0  0  0  0  0  0  0
   -5.3159   25.7220  -29.1045 H   0  0  0  0  0  0  0  0  0  0  0  0
   -7.6707   25.4254  -29.8666 H   0  0  0  0  0  0  0  0  0  0  0  0
   -8.2282   23.6797  -31.5536 H   0  0  0  0  0  0  0  0  0  0  0  0
   -9.0972   21.5591  -32.2344 H   0  0  0  0  0  0  0  0  0  0  0  0
  -10.1550   19.3275  -31.8688 H   0  0  0  0  0  0  0  0  0  0  0  0
   -8.7498   17.2631  -31.8706 H   0  0  0  0  0  0  0  0  0  0  0  0
   -6.2838   17.4299  -32.2303 H   0  0  0  0  0  0  0  0  0  0  0  0
   -5.2215   19.6598  -32.5857 H   0  0  0  0  0  0  0  0  0  0  0  0
  1  2  1  0
  2  3  1  0
  3  4  2  0
  4  5  1  0
  5  6  2  0
  6  7  1  0
  7  8  2  0
  8  9  1  0
  9 10  1  0
 10 11  1  0
 11 12  2  0
 12 13  1  0
 13 14  2  0
 14 15  1  0
 15 16  1  0
 16 17  2  0
 17 18  1  0
 18 19  2  0
 19 20  1  0
 20 21  2  0
 21 22  1  0
 22 23  1  0
 23 24  2  0
 24 25  1  0
 25 26  2  0
 26 27  1  0
 27 28  2  0
 15 29  2  0
  8  3  1  0
 29 11  1  0
 21 16  1  0
 28 23  1  0
  1 30  1  0
  1 31  1  0
  1 32  1  0
  4 33  1  0
  5 34  1  0
  6 35  1  0
  7 36  1  0
  9 37  1  0
  9 38  1  0
 12 39  1  0
 13 40  1  0
 14 41  1  0
 17 42  1  0
 18 43  1  0
 19 44  1  0
 20 45  1  0
 24 46  1  0
 25 47  1  0
 26 48  1  0
 27 49  1  0
 28 50  1  0
M  CHG  1  14   1
M  END
>  <UniqueID>  (16) 
16

>  <SMILES>  (16) 
COc1ccccc1COc1cc[nH+]c(-c2ccccc2Oc2ccccc2)n1

>  <Energy>  (16) 
60.66923379497893

>  <Genealogy>  (16) 
COc1ccccc1COc1cc[nH+]c(-c2ccccc2Oc2ccccc2)n1 (protonated)
COc1ccccc1COc1cc[nH+]c(-c2ccccc2Oc2ccccc2)n1 (3D coordinates assigned)
COc1ccccc1COc1cc[nH+]c(-c2ccccc2Oc2ccccc2)n1 (optimized conformer: 60.66923379497893 kcal/mol)

>  <smiles>  (16) 
COc1ccccc1COc1ccnc(-c2ccccc2Oc2ccccc2)n1

>  <score_type>  (16) 
oracle

>  <origin>  (16) 
adg

>  <m_score__min__energy>  (16) 
-8.8699999999999992

>  <m_primary>  (16) 
energy

$$$$
16:0
     RDKit          3D

 39 41  0  0  0  0  0  0  0  0999 V2000
   -4.0870   24.1470  -29.5060 C   0  0  0  0  0  0  0  0  0  0  0  0
   -4.1110   24.6060  -30.8390 O   0  0  0  0  0  0  0  0  0  0  0  0
   -5.4290   24.9800  -31.1820 C   0  0  0  0  0  0  0  0  0  0  0  0
   -6.2320   23.7390  -31.4530 C   0  0  0  0  0  0  0  0  0  0  0  0
   -7.6210   23.7180  -31.2240 C   0  0  0  0  0  0  0  0  0  0  0  0
   -8.3580   22.5540  -31.5100 C   0  0  0  0  0  0  0  0  0  0  0  0
   -7.7180   21.4180  -32.0230 C   0  0  0  0  0  0  0  0  0  0  0  0
   -6.3400   21.4880  -32.2280 C   0  0  0  0  0  0  0  0  0  0  0  0
   -5.4730   20.5360  -32.7440 C   0  0  0  0  0  0  0  0  0  0  0  0
   -5.8140   19.1780  -33.2130 C   0  0  0  0  0  0  0  0  0  0  0  0
   -5.4580   18.7640  -34.5060 C   0  0  0  0  0  0  0  0  0  0  0  0
   -5.7950   17.4830  -34.9530 C   0  0  0  0  0  0  0  0  0  0  0  0
   -6.4950   16.6110  -34.1140 C   0  0  0  0  0  0  0  0  0  0  0  0
   -6.8230   15.3690  -34.5490 F   0  0  0  0  0  0  0  0  0  0  0  0
   -6.8600   17.0190  -32.8280 C   0  0  0  0  0  0  0  0  0  0  0  0
   -6.5240   18.3000  -32.3780 C   0  0  0  0  0  0  0  0  0  0  0  0
   -4.2300   21.1820  -32.7590 C   0  0  0  0  0  0  0  0  0  0  0  0
   -2.9270   20.6180  -33.1510 C   0  0  0  0  0  0  0  0  0  0  0  0
   -2.8130   19.3880  -33.4090 O   0  0  0  0  0  0  0  0  0  0  0  0
   -1.8100   21.4560  -33.2090 O   0  0  0  0  0  0  0  0  0  0  0  0
   -0.6370   21.1210  -33.9390 C   0  0  0  0  0  0  0  0  0  0  0  0
   -4.3790   22.4370  -32.2810 N   0  0  0  0  0  0  0  0  0  0  0  0
   -5.6520   22.6120  -31.9610 N   0  0  0  0  0  0  0  0  0  0  0  0
   -4.1320   25.0067  -28.8213 H   0  0  0  0  0  0  0  0  0  0  0  0
   -4.9521   23.4912  -29.3284 H   0  0  0  0  0  0  0  0  0  0  0  0
   -3.1582   23.5850  -29.3284 H   0  0  0  0  0  0  0  0  0  0  0  0
   -5.8825   25.5390  -30.3503 H   0  0  0  0  0  0  0  0  0  0  0  0
   -5.4143   25.6176  -32.0782 H   0  0  0  0  0  0  0  0  0  0  0  0
   -8.1281   24.6080  -30.8231 H   0  0  0  0  0  0  0  0  0  0  0  0
   -9.4430   22.5358  -31.3298 H   0  0  0  0  0  0  0  0  0  0  0  0
   -8.2824   20.5030  -32.2559 H   0  0  0  0  0  0  0  0  0  0  0  0
   -4.9118   19.4500  -35.1701 H   0  0  0  0  0  0  0  0  0  0  0  0
   -5.5093   17.1611  -35.9653 H   0  0  0  0  0  0  0  0  0  0  0  0
   -7.4119   16.3322  -32.1694 H   0  0  0  0  0  0  0  0  0  0  0  0
   -6.8167   18.6206  -31.3673 H   0  0  0  0  0  0  0  0  0  0  0  0
    0.1776   20.8884  -33.2374 H   0  0  0  0  0  0  0  0  0  0  0  0
   -0.8371   20.2441  -34.5722 H   0  0  0  0  0  0  0  0  0  0  0  0
   -0.3439   21.9713  -34.5722 H   0  0  0  0  0  0  0  0  0  0  0  0
   -3.6220   23.1480  -32.1680 H   0  0  0  0  0  0  0  0  0  0  0  0
  1  2  1  0
  2  3  1  0
  3  4  1  0
  4  5  2  0
  5  6  1  0
  6  7  2  0
  7  8  1  0
  8  9  2  0
  9 10  1  0
 10 11  2  0
 11 12  1  0
 12 13  2  0
 13 14  1  0
 13 15  1  0
 15 16  2  0
  9 17  1  0
 17 18  1  0
 18 19  2  0
 18 20  1  0
 20 21  1  0
 17 22  2  0
 22 23  1  0
 23  4  1  0
 23  8  1  0
 16 10  1  0
  1 24  1  0
  1 25  1  0
  1 26  1  0
  3 27  1  0
  3 28  1  0
  5 29  1  0
  6 30  1  0
  7 31  1  0
 11 32  1  0
 12 33  1  0
 15 34  1  0
 16 35  1  0
 21 36  1  0
 21 37  1  0
 21 38  1  0
 22 39  1  0
M  CHG  1  22   1
M  END
>  <UniqueID>  (17) 
17

>  <SMILES>  (17) 
COCc1cccc2c(-c3ccc(F)cc3)c(C(=O)OC)[nH+]n12

>  <Energy>  (17) 
82.01236272958047

>  <Genealogy>  (17) 
COCc1cccc2c(-c3ccc(F)cc3)c(C(=O)OC)[nH+]n12 (protonated)
COCc1cccc2c(-c3ccc(F)cc3)c(C(=O)OC)[nH+]n12 (3D coordinates assigned)
COCc1cccc2c(-c3ccc(F)cc3)c(C(=O)OC)[nH+]n12 (optimized conformer: 82.01236272958047 kcal/mol)

>  <smiles>  (17) 
COCc1cccc2c(-c3ccc(F)cc3)c(C(=O)OC)nn12

>  <score_type>  (17) 
oracle

>  <origin>  (17) 
adg

>  <m_score__min__energy>  (17) 
-6.9000000000000004

>  <m_primary>  (17) 
energy

$$$$
17:0
     RDKit          3D

 35 37  0  0  0  0  0  0  0  0999 V2000
   -8.2824   24.6831  -30.3061 H   0  0  0  0  0  0  0  0  0  0  0  0
   -7.1990   24.5430  -30.4350 C   0  0  0  0  0  0  0  0  0  0  0  0
   -6.0030   25.6320  -29.9700 S   0  0  0  0  0  0  0  0  0  0  0  0
   -4.7550   24.6470  -30.5210 C   0  0  0  0  0  0  0  0  0  0  0  0
   -3.4870   24.9200  -30.4610 N   0  0  0  0  0  0  0  0  0  0  0  0
   -2.5150   24.1360  -29.7040 C   0  0  0  0  0  0  0  0  0  0  0  0
   -2.8979   23.1147  -29.5615 H   0  0  0  0  0  0  0  0  0  0  0  0
   -1.5644   24.0956  -30.2561 H   0  0  0  0  0  0  0  0  0  0  0  0
   -2.2920   24.7790  -28.3660 C   0  0  0  0  0  0  0  0  0  0  0  0
   -1.1870   25.6210  -28.1600 C   0  0  0  0  0  0  0  0  0  0  0  0
   -0.4663   25.7888  -28.9739 H   0  0  0  0  0  0  0  0  0  0  0  0
   -1.0000   26.2470  -26.9230 C   0  0  0  0  0  0  0  0  0  0  0  0
   -0.1280   26.8982  -26.7631 H   0  0  0  0  0  0  0  0  0  0  0  0
   -1.9200   26.0460  -25.8900 C   0  0  0  0  0  0  0  0  0  0  0  0
   -1.7696   26.5356  -24.9165 H   0  0  0  0  0  0  0  0  0  0  0  0
   -3.0310   25.2230  -26.0940 C   0  0  0  0  0  0  0  0  0  0  0  0
   -3.7570   25.0690  -25.2820 H   0  0  0  0  0  0  0  0  0  0  0  0
   -3.2210   24.5950  -27.3290 C   0  0  0  0  0  0  0  0  0  0  0  0
   -4.1011   23.9547  -27.4887 H   0  0  0  0  0  0  0  0  0  0  0  0
   -5.2200   23.5000  -31.0580 N   0  0  0  0  0  0  0  0  0  0  0  0
   -6.5800   23.4280  -31.0140 C   0  0  0  0  0  0  0  0  0  0  0  0
   -7.3100   22.2520  -31.5570 C   0  0  0  0  0  0  0  0  0  0  0  0
   -8.7090   22.1430  -31.4470 C   0  0  0  0  0  0  0  0  0  0  0  0
   -9.2815   22.9409  -30.9515 H   0  0  0  0  0  0  0  0  0  0  0  0
   -9.3750   21.0300  -31.9620 C   0  0  0  0  0  0  0  0  0  0  0  0
  -10.4689   20.9573  -31.8714 H   0  0  0  0  0  0  0  0  0  0  0  0
   -8.6620   20.0090  -32.5910 C   0  0  0  0  0  0  0  0  0  0  0  0
   -9.3370   18.9400  -33.0860 F   0  0  0  0  0  0  0  0  0  0  0  0
   -7.2640   20.0870  -32.7070 C   0  0  0  0  0  0  0  0  0  0  0  0
   -6.5070   18.9740  -33.3930 C   0  0  0  0  0  0  0  0  0  0  0  0
   -5.2210   18.9130  -32.8870 F   0  0  0  0  0  0  0  0  0  0  0  0
   -7.1130   17.7440  -33.2010 F   0  0  0  0  0  0  0  0  0  0  0  0
   -6.4470   19.2240  -34.7520 F   0  0  0  0  0  0  0  0  0  0  0  0
   -6.5970   21.2140  -32.1870 C   0  0  0  0  0  0  0  0  0  0  0  0
   -5.5027   21.2840  -32.2745 H   0  0  0  0  0  0  0  0  0  0  0  0
  1  2  1  0
  2  3  1  0
  3  4  1  0
  4  5  2  0
  5  6  1  0
  6  7  1  0
  6  8  1  0
  6  9  1  0
  9 10  2  0
 10 11  1  0
 10 12  1  0
 12 13  1  0
 12 14  2  0
 14 15  1  0
 14 16  1  0
 16 17  1  0
 16 18  2  0
 18 19  1  0
  4 20  1  0
 20 21  1  0
 21 22  1  0
 22 23  2  0
 23 24  1  0
 23 25  1  0
 25 26  1  0
 25 27  2  0
 27 28  1  0
 27 29  1  0
 29 30  1  0
 30 31  1  0
 30 32  1  0
 30 33  1  0
 29 34  2  0
 34 35  1  0
 21  2  2  0
 34 22  1  0
 18  9  1  0
M  CHG  1  20  -1
M  END
>  <UniqueID>  (18) 
18

>  <SMILES>  (18) 
Fc1ccc(-c2cs/c(=N\Cc3ccccc3)[n-]2)cc1C(F)(F)F

>  <Energy>  (18) 
70.26021181173459

>  <Genealogy>  (18) 
Fc1ccc(-c2csc(=NCc3ccccc3)[n-]2)cc1C(F)(F)F (protonated)
Fc1ccc(-c2cs/c(=N\Cc3ccccc3)[n-]2)cc1C(F)(F)F (cis-trans isomerization)
Fc1ccc(-c2cs/c(=N\Cc3ccccc3)[n-]2)cc1C(F)(F)F (3D coordinates assigned)
Fc1ccc(-c2cs/c(=N\Cc3ccccc3)[n-]2)cc1C(F)(F)F (optimized conformer: 70.26021181173459 kcal/mol)

>  <smiles>  (18) 
Fc1ccc(-c2csc(=NCc3ccccc3)[nH]2)cc1C(F)(F)F

>  <score_type>  (18) 
oracle

>  <origin>  (18) 
adg

>  <m_score__min__energy>  (18) 
-9.4800000000000004

>  <m_primary>  (18) 
energy

$$$$
18:0
     RDKit          3D

 46 48  0  0  0  0  0  0  0  0999 V2000
   -6.7950   18.9270  -32.4250 C   0  0  0  0  0  0  0  0  0  0  0  0
   -7.7330   20.1290  -32.5850 C   0  0  0  0  0  0  0  0  0  0  0  0
   -9.0990   19.8520  -31.9470 C   0  0  0  0  0  0  0  0  0  0  0  0
   -7.1110   21.3900  -32.0140 C   0  0  0  0  0  0  0  0  0  0  0  0
   -7.5970   21.9300  -30.8110 C   0  0  0  0  0  0  0  0  0  0  0  0
   -7.0240   23.0840  -30.2690 C   0  0  0  0  0  0  0  0  0  0  0  0
   -5.9590   23.7180  -30.9230 C   0  0  0  0  0  0  0  0  0  0  0  0
   -5.1960   25.1430  -30.2230 S   0  0  0  0  0  0  0  0  0  0  0  0
   -5.5880   25.2900  -28.7790 O   0  0  0  0  0  0  0  0  0  0  0  0
   -5.6560   26.3640  -30.9680 O   0  0  0  0  0  0  0  0  0  0  0  0
   -3.4680   25.0050  -30.3610 N   0  0  0  0  0  0  0  0  0  0  0  0
   -2.9210   24.0810  -29.3580 C   0  0  1  0  0  0  0  0  0  0  0  0
   -2.1340   22.9760  -30.0450 C   0  0  0  0  0  0  0  0  0  0  0  0
   -2.6860   22.3440  -31.1750 C   0  0  0  0  0  0  0  0  0  0  0  0
   -2.0280   21.2760  -31.7880 C   0  0  0  0  0  0  0  0  0  0  0  0
   -0.8190   20.8130  -31.2730 C   0  0  0  0  0  0  0  0  0  0  0  0
   -0.2700   21.4060  -30.1350 C   0  0  0  0  0  0  0  0  0  0  0  0
   -0.9280   22.4700  -29.4960 C   0  0  0  0  0  0  0  0  0  0  0  0
   -0.2750   23.0940  -28.2860 C   0  0  0  0  0  0  0  0  0  0  0  0
   -1.2480   23.9350  -27.4560 C   0  0  0  0  0  0  0  0  0  0  0  0
   -2.0720   24.8780  -28.3390 C   0  0  1  0  0  0  0  0  0  0  0  0
   -1.2490   25.8390  -28.9570 O   0  0  0  0  0  0  0  0  0  0  0  0
   -5.4710   23.1860  -32.1220 C   0  0  0  0  0  0  0  0  0  0  0  0
   -6.0410   22.0330  -32.6650 C   0  0  0  0  0  0  0  0  0  0  0  0
   -6.6372   18.7248  -31.3553 H   0  0  0  0  0  0  0  0  0  0  0  0
   -7.2454   18.0443  -32.9024 H   0  0  0  0  0  0  0  0  0  0  0  0
   -5.8293   19.1494  -32.9024 H   0  0  0  0  0  0  0  0  0  0  0  0
   -7.8898   20.2897  -33.6618 H   0  0  0  0  0  0  0  0  0  0  0  0
   -9.0027   19.8715  -30.8514 H   0  0  0  0  0  0  0  0  0  0  0  0
   -9.8158   20.6231  -32.2659 H   0  0  0  0  0  0  0  0  0  0  0  0
   -9.4588   18.8626  -32.2659 H   0  0  0  0  0  0  0  0  0  0  0  0
   -8.4345   21.4409  -30.2921 H   0  0  0  0  0  0  0  0  0  0  0  0
   -7.4106   23.4962  -29.3253 H   0  0  0  0  0  0  0  0  0  0  0  0
   -3.7338   23.5923  -28.8007 H   0  0  0  0  0  0  0  0  0  0  0  0
   -3.6466   22.6954  -31.5797 H   0  0  0  0  0  0  0  0  0  0  0  0
   -2.4645   20.7997  -32.6783 H   0  0  0  0  0  0  0  0  0  0  0  0
   -0.2964   19.9789  -31.7640 H   0  0  0  0  0  0  0  0  0  0  0  0
    0.6860   21.0371  -29.7351 H   0  0  0  0  0  0  0  0  0  0  0  0
    0.1269   22.2914  -27.6502 H   0  0  0  0  0  0  0  0  0  0  0  0
    0.5190   23.7646  -28.6464 H   0  0  0  0  0  0  0  0  0  0  0  0
   -1.9313   23.2624  -26.9169 H   0  0  0  0  0  0  0  0  0  0  0  0
   -0.6624   24.5454  -26.7528 H   0  0  0  0  0  0  0  0  0  0  0  0
   -2.7768   25.4285  -27.6986 H   0  0  0  0  0  0  0  0  0  0  0  0
   -1.6350   26.0560  -29.8460 H   0  0  0  0  0  0  0  0  0  0  0  0
   -4.6344   23.6787  -32.6390 H   0  0  0  0  0  0  0  0  0  0  0  0
   -5.6511   21.6238  -33.6087 H   0  0  0  0  0  0  0  0  0  0  0  0
  1  2  1  0
  2  3  1  0
  2  4  1  0
  4  5  2  0
  5  6  1  0
  6  7  2  0
  7  8  1  0
  8  9  2  0
  8 10  2  0
  8 11  1  0
 11 12  1  0
 12 13  1  0
 13 14  2  0
 14 15  1  0
 15 16  2  0
 16 17  1  0
 17 18  2  0
 18 19  1  0
 19 20  1  0
 20 21  1  0
 21 22  1  0
  7 23  1  0
 23 24  2  0
 24  4  1  0
 21 12  1  0
 18 13  1  0
  1 25  1  0
  1 26  1  0
  1 27  1  0
  2 28  1  0
  3 29  1  0
  3 30  1  0
  3 31  1  0
  5 32  1  0
  6 33  1  0
 12 34  1  1
 14 35  1  0
 15 36  1  0
 16 37  1  0
 17 38  1  0
 19 39  1  0
 19 40  1  0
 20 41  1  0
 20 42  1  0
 21 43  1  1
 22 44  1  0
 23 45  1  0
 24 46  1  0
M  CHG  1  11  -1
M  END
>  <UniqueID>  (19) 
19

>  <SMILES>  (19) 
CC(C)c1ccc(S(=O)(=O)[N-][C@H]2c3ccccc3CC[C@H]2O)cc1

>  <Energy>  (19) 
46.09541700400303

>  <Genealogy>  (19) 
CC(C)c1ccc(S(=O)(=O)[N-]C2c3ccccc3CCC2O)cc1 (protonated)
CC(C)c1ccc(S(=O)(=O)[N-][C@H]2c3ccccc3CC[C@H]2O)cc1 (chirality)
CC(C)c1ccc(S(=O)(=O)[N-][C@H]2c3ccccc3CC[C@H]2O)cc1 (3D coordinates assigned)
CC(C)c1ccc(S(=O)(=O)[N-][C@H]2c3ccccc3CC[C@H]2O)cc1 (nonaromatic ring conformer: 46.09541700400303 kcal/mol)

>  <smiles>  (19) 
CC(C)c1ccc(S(=O)(=O)NC2c3ccccc3CCC2O)cc1

>  <score_type>  (19) 
oracle

>  <origin>  (19) 
adg

>  <m_score__min__energy>  (19) 
-11.449999999999999

>  <m_primary>  (19) 
energy

$$$$
19:0
     RDKit          3D

 46 48  0  0  0  0  0  0  0  0999 V2000
   -0.8640   26.3760  -27.9560 C   0  0  0  0  0  0  0  0  0  0  0  0
   -1.5710   25.6850  -28.9610 O   0  0  0  0  0  0  0  0  0  0  0  0
   -1.7130   24.3310  -28.5850 C   0  0  0  0  0  0  0  0  0  0  0  0
   -1.2560   23.4430  -29.7410 C   0  0  0  0  0  0  0  0  0  0  0  0
   -2.1110   22.1720  -29.8860 C   0  0  0  0  0  0  0  0  0  0  0  0
   -3.3190   22.3740  -30.6990 N   0  0  0  0  0  0  0  0  0  0  0  0
   -3.5250   21.9570  -31.9820 C   0  0  0  0  0  0  0  0  0  0  0  0
   -2.3760   20.9370  -32.9160 S   0  0  0  0  0  0  0  0  0  0  0  0
   -3.3530   19.4000  -32.7720 C   0  0  0  0  0  0  0  0  0  0  0  0
   -4.4400   19.3100  -33.8370 C   0  0  0  0  0  0  0  0  0  0  0  0
   -5.4760   20.2490  -33.5560 O   0  0  0  0  0  0  0  0  0  0  0  0
   -6.6840   19.9320  -32.9200 C   0  0  0  0  0  0  0  0  0  0  0  0
   -7.6000   20.9180  -32.4990 C   0  0  0  0  0  0  0  0  0  0  0  0
   -8.7880   20.5480  -31.8610 C   0  0  0  0  0  0  0  0  0  0  0  0
   -9.0740   19.1980  -31.6430 C   0  0  0  0  0  0  0  0  0  0  0  0
   -8.1740   18.2160  -32.0610 C   0  0  0  0  0  0  0  0  0  0  0  0
   -6.9840   18.5820  -32.6980 C   0  0  0  0  0  0  0  0  0  0  0  0
   -4.6380   22.4920  -32.5440 N   0  0  0  0  0  0  0  0  0  0  0  0
   -5.1380   23.2880  -31.5880 C   0  0  0  0  0  0  0  0  0  0  0  0
   -6.2310   24.1440  -31.6470 C   0  0  0  0  0  0  0  0  0  0  0  0
   -6.4800   24.9460  -30.5190 C   0  0  0  0  0  0  0  0  0  0  0  0
   -5.6190   24.8710  -29.4000 C   0  0  0  0  0  0  0  0  0  0  0  0
   -4.5480   24.0190  -29.4030 N   0  0  0  0  0  0  0  0  0  0  0  0
   -4.3390   23.2320  -30.4880 C   0  0  0  0  0  0  0  0  0  0  0  0
   -1.2089   26.0389  -26.9673 H   0  0  0  0  0  0  0  0  0  0  0  0
    0.2120   26.1718  -28.0582 H   0  0  0  0  0  0  0  0  0  0  0  0
   -1.0435   27.4564  -28.0582 H   0  0  0  0  0  0  0  0  0  0  0  0
   -1.0955   24.1280  -27.6976 H   0  0  0  0  0  0  0  0  0  0  0  0
   -2.7662   24.1197  -28.3481 H   0  0  0  0  0  0  0  0  0  0  0  0
   -1.3214   24.0199  -30.6753 H   0  0  0  0  0  0  0  0  0  0  0  0
   -0.2236   23.1272  -29.5300 H   0  0  0  0  0  0  0  0  0  0  0  0
   -1.4980   21.3909  -30.3594 H   0  0  0  0  0  0  0  0  0  0  0  0
   -2.4414   21.8845  -28.8770 H   0  0  0  0  0  0  0  0  0  0  0  0
   -2.6775   18.5387  -32.8809 H   0  0  0  0  0  0  0  0  0  0  0  0
   -3.8428   19.4008  -31.7871 H   0  0  0  0  0  0  0  0  0  0  0  0
   -4.0042   19.5322  -34.8222 H   0  0  0  0  0  0  0  0  0  0  0  0
   -4.8628   18.2945  -33.8370 H   0  0  0  0  0  0  0  0  0  0  0  0
   -7.3793   21.9815  -32.6730 H   0  0  0  0  0  0  0  0  0  0  0  0
   -9.4979   21.3205  -31.5305 H   0  0  0  0  0  0  0  0  0  0  0  0
  -10.0093   18.9085  -31.1415 H   0  0  0  0  0  0  0  0  0  0  0  0
   -8.4011   17.1535  -31.8892 H   0  0  0  0  0  0  0  0  0  0  0  0
   -6.2789   17.8044  -33.0269 H   0  0  0  0  0  0  0  0  0  0  0  0
   -4.9910   22.3620  -33.5170 H   0  0  0  0  0  0  0  0  0  0  0  0
   -6.8741   24.1922  -32.5381 H   0  0  0  0  0  0  0  0  0  0  0  0
   -7.3418   25.6295  -30.5073 H   0  0  0  0  0  0  0  0  0  0  0  0
   -5.8115   25.5024  -28.5201 H   0  0  0  0  0  0  0  0  0  0  0  0
  1  2  1  0
  2  3  1  0
  3  4  1  0
  4  5  1  0
  5  6  1  0
  6  7  1  0
  7  8  1  0
  8  9  1  0
  9 10  1  0
 10 11  1  0
 11 12  1  0
 12 13  2  0
 13 14  1  0
 14 15  2  0
 15 16  1  0
 16 17  2  0
  7 18  2  0
 18 19  1  0
 19 20  2  0
 20 21  1  0
 21 22  2  0
 22 23  1  0
 23 24  2  0
 24  6  1  0
 17 12  1  0
 24 19  1  0
  1 25  1  0
  1 26  1  0
  1 27  1  0
  3 28  1  0
  3 29  1  0
  4 30  1  0
  4 31  1  0
  5 32  1  0
  5 33  1  0
  9 34  1  0
  9 35  1  0
 10 36  1  0
 10 37  1  0
 13 38  1  0
 14 39  1  0
 15 40  1  0
 16 41  1  0
 17 42  1  0
 18 43  1  0
 20 44  1  0
 21 45  1  0
 22 46  1  0
M  CHG  1  18   1
M  END
>  <UniqueID>  (20) 
20

>  <SMILES>  (20) 
COCCCn1c(SCCOc2ccccc2)[nH+]c2cccnc21

>  <Energy>  (20) 
78.39610296104594

>  <Genealogy>  (20) 
COCCCn1c(SCCOc2ccccc2)[nH+]c2cccnc21 (protonated)
COCCCn1c(SCCOc2ccccc2)[nH+]c2cccnc21 (3D coordinates assigned)
COCCCn1c(SCCOc2ccccc2)[nH+]c2cccnc21 (optimized conformer: 78.39610296104594 kcal/mol)

>  <smiles>  (20) 
COCCCn1c(SCCOc2ccccc2)nc2cccnc21

>  <score_type>  (20) 
oracle

>  <origin>  (20) 
adg

>  <m_score__min__energy>  (20) 
-7.3799999999999999

>  <m_primary>  (20) 
energy

$$$$
20:0
     RDKit          3D

 65 69  0  0  0  0  0  0  0  0999 V2000
   -9.7560   21.2090  -31.9200 C   0  0  0  0  0  0  0  0  0  0  0  0
   -9.3640   19.9530  -32.6900 C   0  0  0  0  0  0  0  0  0  0  0  0
   -7.8870   20.0000  -33.1120 C   0  0  0  0  0  0  0  0  0  0  0  0
   -6.9230   20.2250  -31.9240 C   0  0  1  0  0  0  0  0  0  0  0  0
   -5.6150   19.4350  -32.0980 C   0  0  0  0  0  0  0  0  0  0  0  0
   -4.6660   19.7650  -30.9530 C   0  0  0  0  0  0  0  0  0  0  0  0
   -4.4930   21.2140  -30.8400 N   0  0  0  0  0  0  0  0  0  0  0  0
   -5.5560   22.1310  -31.2040 C   0  0  0  0  0  0  0  0  0  0  0  0
   -6.6430   21.6640  -31.7710 N   0  0  0  0  0  0  0  0  0  0  0  0
   -5.3750   23.5670  -30.9850 N   0  0  0  0  0  0  0  0  0  0  0  0
   -6.4670   24.5380  -31.1780 C   0  0  0  0  0  0  0  0  0  0  0  0
   -6.8380   25.2000  -29.8550 C   0  0  0  0  0  0  0  0  0  0  0  0
   -4.0840   24.0590  -30.5470 C   0  0  0  0  0  0  0  0  0  0  0  0
   -3.8630   25.2970  -30.4680 O   0  0  0  0  0  0  0  0  0  0  0  0
   -3.0490   23.0840  -30.1850 C   0  0  0  0  0  0  0  0  0  0  0  0
   -3.2800   21.7530  -30.3040 C   0  0  0  0  0  0  0  0  0  0  0  0
   -2.2300   21.0420  -29.8600 N   0  0  0  0  0  0  0  0  0  0  0  0
   -1.3550   21.9980  -29.4600 C   0  0  0  0  0  0  0  0  0  0  0  0
   -0.0230   21.6480  -28.8570 C   0  0  0  0  0  0  0  0  0  0  0  0
    0.0330   22.0990  -27.4220 C   0  0  0  0  0  0  0  0  0  0  0  0
    0.9390   23.0980  -27.0280 C   0  0  0  0  0  0  0  0  0  0  0  0
    0.9630   23.5460  -25.7050 C   0  0  0  0  0  0  0  0  0  0  0  0
    0.0780   23.0080  -24.7660 C   0  0  0  0  0  0  0  0  0  0  0  0
   -0.8340   22.0220  -25.1520 C   0  0  0  0  0  0  0  0  0  0  0  0
   -0.8620   21.5710  -26.4750 C   0  0  0  0  0  0  0  0  0  0  0  0
   -1.8180   23.2630  -29.6590 N   0  0  0  0  0  0  0  0  0  0  0  0
   -1.1360   24.5220  -29.3280 C   0  0  0  0  0  0  0  0  0  0  0  0
   -1.5810   25.0390  -27.9840 C   0  0  0  0  0  0  0  0  0  0  0  0
   -2.7780   24.5760  -27.4070 C   0  0  0  0  0  0  0  0  0  0  0  0
   -3.1900   25.0550  -26.1600 C   0  0  0  0  0  0  0  0  0  0  0  0
   -2.4090   25.9880  -25.4730 C   0  0  0  0  0  0  0  0  0  0  0  0
   -1.2100   26.4400  -26.0310 C   0  0  0  0  0  0  0  0  0  0  0  0
   -0.7930   25.9640  -27.2780 C   0  0  0  0  0  0  0  0  0  0  0  0
   -9.6942   21.0111  -30.8397 H   0  0  0  0  0  0  0  0  0  0  0  0
   -9.0710   22.0287  -32.1823 H   0  0  0  0  0  0  0  0  0  0  0  0
  -10.7857   21.4935  -32.1823 H   0  0  0  0  0  0  0  0  0  0  0  0
   -9.5266   19.0737  -32.0494 H   0  0  0  0  0  0  0  0  0  0  0  0
   -9.9841   19.8916  -33.5964 H   0  0  0  0  0  0  0  0  0  0  0  0
   -7.6305   19.0456  -33.5950 H   0  0  0  0  0  0  0  0  0  0  0  0
   -7.7686   20.8531  -33.7963 H   0  0  0  0  0  0  0  0  0  0  0  0
   -7.4123   19.8530  -31.0118 H   0  0  0  0  0  0  0  0  0  0  0  0
   -5.8343   18.3571  -32.0933 H   0  0  0  0  0  0  0  0  0  0  0  0
   -5.1454   19.7096  -33.0541 H   0  0  0  0  0  0  0  0  0  0  0  0
   -5.0820   19.3745  -30.0125 H   0  0  0  0  0  0  0  0  0  0  0  0
   -3.6885   19.3018  -31.1528 H   0  0  0  0  0  0  0  0  0  0  0  0
   -7.3910   22.3140  -32.0900 H   0  0  0  0  0  0  0  0  0  0  0  0
   -6.1417   25.3108  -31.8900 H   0  0  0  0  0  0  0  0  0  0  0  0
   -7.3481   24.0073  -31.5679 H   0  0  0  0  0  0  0  0  0  0  0  0
   -6.4874   24.5744  -29.0209 H   0  0  0  0  0  0  0  0  0  0  0  0
   -6.3636   26.1906  -29.7949 H   0  0  0  0  0  0  0  0  0  0  0  0
   -7.9306   25.3124  -29.7949 H   0  0  0  0  0  0  0  0  0  0  0  0
    0.1207   20.5583  -28.9012 H   0  0  0  0  0  0  0  0  0  0  0  0
    0.7718   22.1551  -29.4237 H   0  0  0  0  0  0  0  0  0  0  0  0
    1.6327   23.5294  -27.7647 H   0  0  0  0  0  0  0  0  0  0  0  0
    1.6795   24.3235  -25.4016 H   0  0  0  0  0  0  0  0  0  0  0  0
    0.0995   23.3605  -23.7242 H   0  0  0  0  0  0  0  0  0  0  0  0
   -1.5313   21.5999  -24.4133 H   0  0  0  0  0  0  0  0  0  0  0  0
   -1.5868   20.8003  -26.7761 H   0  0  0  0  0  0  0  0  0  0  0  0
   -0.0501   24.3479  -29.3051 H   0  0  0  0  0  0  0  0  0  0  0  0
   -1.3897   25.2702  -30.0933 H   0  0  0  0  0  0  0  0  0  0  0  0
   -3.3918   23.8344  -27.9392 H   0  0  0  0  0  0  0  0  0  0  0  0
   -4.1315   24.6965  -25.7184 H   0  0  0  0  0  0  0  0  0  0  0  0
   -2.7376   26.3664  -24.4938 H   0  0  0  0  0  0  0  0  0  0  0  0
   -0.5932   27.1715  -25.4883 H   0  0  0  0  0  0  0  0  0  0  0  0
    0.1564   26.3153  -27.7084 H   0  0  0  0  0  0  0  0  0  0  0  0
  1  2  1  0
  2  3  1  0
  3  4  1  0
  4  5  1  0
  5  6  1  0
  6  7  1  0
  7  8  1  0
  8  9  2  0
  8 10  1  0
 10 11  1  0
 11 12  1  0
 10 13  1  0
 13 14  2  0
 13 15  1  0
 15 16  2  0
 16 17  1  0
 17 18  2  0
 18 19  1  0
 19 20  1  0
 20 21  2  0
 21 22  1  0
 22 23  2  0
 23 24  1  0
 24 25  2  0
 18 26  1  0
 26 27  1  0
 27 28  1  0
 28 29  2  0
 29 30  1  0
 30 31  2  0
 31 32  1  0
 32 33  2  0
  9  4  1  0
 26 15  1  0
 33 28  1  0
 16  7  1  0
 25 20  1  0
  1 34  1  0
  1 35  1  0
  1 36  1  0
  2 37  1  0
  2 38  1  0
  3 39  1  0
  3 40  1  0
  4 41  1  1
  5 42  1  0
  5 43  1  0
  6 44  1  0
  6 45  1  0
  9 46  1  0
 11 47  1  0
 11 48  1  0
 12 49  1  0
 12 50  1  0
 12 51  1  0
 19 52  1  0
 19 53  1  0
 21 54  1  0
 22 55  1  0
 23 56  1  0
 24 57  1  0
 25 58  1  0
 27 59  1  0
 27 60  1  0
 29 61  1  0
 30 62  1  0
 31 63  1  0
 32 64  1  0
 33 65  1  0
M  CHG  1   9   1
M  END
>  <UniqueID>  (21) 
21

>  <SMILES>  (21) 
CCC[C@H]1CCN2C(=[NH+]1)N(CC)C(=O)c1c2nc(Cc2ccccc2)n1Cc1ccccc1

>  <Energy>  (21) 
96.76849489042675

>  <Genealogy>  (21) 
CCCC1CCN2C(=[NH+]1)N(CC)C(=O)c1c2nc(Cc2ccccc2)n1Cc1ccccc1 (protonated)
CCC[C@H]1CCN2C(=[NH+]1)N(CC)C(=O)c1c2nc(Cc2ccccc2)n1Cc1ccccc1 (chirality)
CCC[C@H]1CCN2C(=[NH+]1)N(CC)C(=O)c1c2nc(Cc2ccccc2)n1Cc1ccccc1 (3D coordinates assigned)
CCC[C@H]1CCN2C(=[NH+]1)N(CC)C(=O)c1c2nc(Cc2ccccc2)n1Cc1ccccc1 (nonaromatic ring conformer: 96.76849489042675 kcal/mol)

>  <smiles>  (21) 
CCCC1CCN2C(=N1)N(CC)C(=O)c1c2nc(Cc2ccccc2)n1Cc1ccccc1

>  <score_type>  (21) 
oracle

>  <origin>  (21) 
adg

>  <m_score__min__energy>  (21) 
-8.9499999999999993

>  <m_primary>  (21) 
energy

$$$$
21:0
     RDKit          3D

 61 64  0  0  0  0  0  0  0  0999 V2000
   -2.2520   20.3960  -33.7310 C   0  0  0  0  0  0  0  0  0  0  0  0
   -3.0700   19.1130  -33.8770 C   0  0  0  0  0  0  0  0  0  0  0  0
   -4.4870   19.2750  -33.3840 C   0  0  0  0  0  0  0  0  0  0  0  0
   -4.8500   20.3240  -32.6030 N   0  0  0  0  0  0  0  0  0  0  0  0
   -6.1670   20.1460  -32.4150 C   0  0  0  0  0  0  0  0  0  0  0  0
   -7.0310   20.9300  -31.6360 C   0  0  0  0  0  0  0  0  0  0  0  0
   -6.5770   22.1120  -30.9500 N   0  0  0  0  0  0  0  0  0  0  0  0
   -7.3450   22.9640  -30.2390 C   0  0  0  0  0  0  0  0  0  0  0  0
   -6.5710   23.9880  -29.7310 C   0  0  0  0  0  0  0  0  0  0  0  0
   -5.2760   23.7470  -30.1600 C   0  0  0  0  0  0  0  0  0  0  0  0
   -4.0750   24.5630  -29.8940 C   0  0  0  0  0  0  0  0  0  0  0  0
   -3.8650   25.5910  -30.5940 O   0  0  0  0  0  0  0  0  0  0  0  0
   -3.1470   24.2030  -28.8610 N   0  0  0  0  0  0  0  0  0  0  0  0
   -1.9770   25.0320  -28.5720 C   0  0  0  0  0  0  0  0  0  0  0  0
   -1.5370   24.8500  -27.1420 C   0  0  0  0  0  0  0  0  0  0  0  0
   -1.7000   25.8960  -26.2180 C   0  0  0  0  0  0  0  0  0  0  0  0
   -1.2600   25.7470  -24.8990 C   0  0  0  0  0  0  0  0  0  0  0  0
   -1.4280   26.7560  -24.0100 F   0  0  0  0  0  0  0  0  0  0  0  0
   -0.6450   24.5580  -24.4960 C   0  0  0  0  0  0  0  0  0  0  0  0
   -0.4630   23.5200  -25.4130 C   0  0  0  0  0  0  0  0  0  0  0  0
   -0.9010   23.6630  -26.7340 C   0  0  0  0  0  0  0  0  0  0  0  0
   -0.7020   22.6490  -27.6140 F   0  0  0  0  0  0  0  0  0  0  0  0
   -5.3140   22.5880  -30.9110 C   0  0  0  0  0  0  0  0  0  0  0  0
   -8.3730   20.5020  -31.5380 C   0  0  0  0  0  0  0  0  0  0  0  0
   -8.8090   19.3380  -32.2050 C   0  0  0  0  0  0  0  0  0  0  0  0
   -7.9130   18.5800  -32.9770 C   0  0  0  0  0  0  0  0  0  0  0  0
   -6.5860   19.0210  -33.0650 C   0  0  0  0  0  0  0  0  0  0  0  0
   -5.5390   18.4610  -33.7130 N   0  0  0  0  0  0  0  0  0  0  0  0
   -5.5660   17.2120  -34.5080 C   0  0  0  0  0  0  0  0  0  0  0  0
   -5.8370   15.9980  -33.5910 C   0  0  0  0  0  0  0  0  0  0  0  0
   -6.7930   14.9840  -34.2210 C   0  0  0  0  0  0  0  0  0  0  0  0
   -4.3020   17.0310  -35.3810 C   0  0  0  0  0  0  0  0  0  0  0  0
   -3.4290   15.8700  -34.9040 C   0  0  0  0  0  0  0  0  0  0  0  0
   -2.1090   20.6202  -32.6636 H   0  0  0  0  0  0  0  0  0  0  0  0
   -1.2718   20.2627  -34.2122 H   0  0  0  0  0  0  0  0  0  0  0  0
   -2.7865   21.2284  -34.2122 H   0  0  0  0  0  0  0  0  0  0  0  0
   -3.0959   18.8295  -34.9395 H   0  0  0  0  0  0  0  0  0  0  0  0
   -2.5884   18.3366  -33.2643 H   0  0  0  0  0  0  0  0  0  0  0  0
   -8.4292   22.8580  -30.0865 H   0  0  0  0  0  0  0  0  0  0  0  0
   -6.9142   24.8281  -29.1093 H   0  0  0  0  0  0  0  0  0  0  0  0
   -3.3030   23.3300  -28.3100 H   0  0  0  0  0  0  0  0  0  0  0  0
   -1.1546   24.7427  -29.2427 H   0  0  0  0  0  0  0  0  0  0  0  0
   -2.2433   26.0877  -28.7291 H   0  0  0  0  0  0  0  0  0  0  0  0
   -2.1758   26.8362  -26.5336 H   0  0  0  0  0  0  0  0  0  0  0  0
   -0.3044   24.4398  -23.4568 H   0  0  0  0  0  0  0  0  0  0  0  0
    0.0262   22.5873  -25.0955 H   0  0  0  0  0  0  0  0  0  0  0  0
   -4.4467   22.1233  -31.4027 H   0  0  0  0  0  0  0  0  0  0  0  0
   -9.0864   21.0827  -30.9348 H   0  0  0  0  0  0  0  0  0  0  0  0
   -9.8590   19.0213  -32.1199 H   0  0  0  0  0  0  0  0  0  0  0  0
   -8.2430   17.6683  -33.4965 H   0  0  0  0  0  0  0  0  0  0  0  0
   -6.3992   17.2866  -35.2223 H   0  0  0  0  0  0  0  0  0  0  0  0
   -4.8811   15.4963  -33.3797 H   0  0  0  0  0  0  0  0  0  0  0  0
   -6.3105   16.3747  -32.6724 H   0  0  0  0  0  0  0  0  0  0  0  0
   -7.3153   14.4301  -33.4270 H   0  0  0  0  0  0  0  0  0  0  0  0
   -7.5292   15.5124  -34.8445 H   0  0  0  0  0  0  0  0  0  0  0  0
   -6.2222   14.2802  -34.8445 H   0  0  0  0  0  0  0  0  0  0  0  0
   -4.6131   16.8369  -36.4181 H   0  0  0  0  0  0  0  0  0  0  0  0
   -3.7064   17.9528  -35.3062 H   0  0  0  0  0  0  0  0  0  0  0  0
   -3.4141   15.8502  -33.8043 H   0  0  0  0  0  0  0  0  0  0  0  0
   -3.8403   14.9225  -35.2823 H   0  0  0  0  0  0  0  0  0  0  0  0
   -2.4046   16.0020  -35.2823 H   0  0  0  0  0  0  0  0  0  0  0  0
  1  2  1  0
  2  3  1  0
  3  4  2  0
  4  5  1  0
  5  6  2  0
  6  7  1  0
  7  8  1  0
  8  9  2  0
  9 10  1  0
 10 11  1  0
 11 12  2  0
 11 13  1  0
 13 14  1  0
 14 15  1  0
 15 16  2  0
 16 17  1  0
 17 18  1  0
 17 19  2  0
 19 20  1  0
 20 21  2  0
 21 22  1  0
 10 23  2  0
  6 24  1  0
 24 25  2  0
 25 26  1  0
 26 27  2  0
 27 28  1  0
 28 29  1  0
 29 30  1  0
 30 31  1  0
 29 32  1  0
 32 33  1  0
 28  3  1  0
 27  5  1  0
 23  7  1  0
 21 15  1  0
  1 34  1  0
  1 35  1  0
  1 36  1  0
  2 37  1  0
  2 38  1  0
  8 39  1  0
  9 40  1  0
 13 41  1  0
 14 42  1  0
 14 43  1  0
 16 44  1  0
 19 45  1  0
 20 46  1  0
 23 47  1  0
 24 48  1  0
 25 49  1  0
 26 50  1  0
 29 51  1  0
 30 52  1  0
 30 53  1  0
 31 54  1  0
 31 55  1  0
 31 56  1  0
 32 57  1  0
 32 58  1  0
 33 59  1  0
 33 60  1  0
 33 61  1  0
M  END
>  <UniqueID>  (22) 
22

>  <SMILES>  (22) 
CCc1nc2c(-n3ccc(C(=O)NCc4cc(F)ccc4F)c3)cccc2n1C(CC)CC

>  <Energy>  (22) 
123.6306629071332

>  <Genealogy>  (22) 
CCc1nc2c(-n3ccc(C(=O)NCc4cc(F)ccc4F)c3)cccc2n1C(CC)CC (3D coordinates assigned)
CCc1nc2c(-n3ccc(C(=O)NCc4cc(F)ccc4F)c3)cccc2n1C(CC)CC (optimized conformer: 123.6306629071332 kcal/mol)

>  <smiles>  (22) 
CCc1nc2c(-n3ccc(C(=O)NCc4cc(F)ccc4F)c3)cccc2n1C(CC)CC

>  <score_type>  (22) 
oracle

>  <origin>  (22) 
adg

>  <m_score__min__energy>  (22) 
-9.8100000000000005

>  <m_primary>  (22) 
energy

$$$$
22:0
     RDKit          3D

 36 38  0  0  0  0  0  0  0  0999 V2000
   -4.2470   25.6730  -30.8210 O   0  0  0  0  0  0  0  0  0  0  0  0
   -4.1410   24.4500  -30.5340 C   0  0  0  0  0  0  0  0  0  0  0  0
   -3.3700   24.0590  -29.3390 C   0  0  0  0  0  0  0  0  0  0  0  0
   -3.7330   22.9490  -28.5600 C   0  0  0  0  0  0  0  0  0  0  0  0
   -3.0060   22.6400  -27.4550 N   0  0  0  0  0  0  0  0  0  0  0  0
   -1.9360   23.3890  -27.0820 C   0  0  0  0  0  0  0  0  0  0  0  0
   -1.5840   24.5050  -27.8410 C   0  0  0  0  0  0  0  0  0  0  0  0
   -2.3090   24.8170  -28.9470 N   0  0  0  0  0  0  0  0  0  0  0  0
   -4.7660   23.4680  -31.3790 N   0  0  0  0  0  0  0  0  0  0  0  0
   -6.0970   23.7460  -31.9340 C   0  0  0  0  0  0  0  0  0  0  0  0
   -6.8950   22.4430  -32.0840 C   0  0  0  0  0  0  0  0  0  0  0  0
   -6.0660   21.3570  -32.6300 N   0  0  0  0  0  0  0  0  0  0  0  0
   -6.5890   20.0150  -32.6640 C   0  0  0  0  0  0  0  0  0  0  0  0
   -7.7890   19.7010  -32.0020 C   0  0  0  0  0  0  0  0  0  0  0  0
   -8.2880   18.3950  -32.0260 C   0  0  0  0  0  0  0  0  0  0  0  0
   -7.5920   17.3910  -32.7040 C   0  0  0  0  0  0  0  0  0  0  0  0
   -6.3940   17.6910  -33.3590 C   0  0  0  0  0  0  0  0  0  0  0  0
   -5.5150   16.4270  -34.2010 Cl  0  0  0  0  0  0  0  0  0  0  0  0
   -5.8930   18.9970  -33.3380 C   0  0  0  0  0  0  0  0  0  0  0  0
   -4.6860   21.6330  -33.0460 C   0  0  0  0  0  0  0  0  0  0  0  0
   -3.9520   22.3670  -31.9220 C   0  0  0  0  0  0  0  0  0  0  0  0
   -4.6000   22.3338  -28.8425 H   0  0  0  0  0  0  0  0  0  0  0  0
   -1.3526   23.1180  -26.1897 H   0  0  0  0  0  0  0  0  0  0  0  0
   -0.7263   25.1276  -27.5465 H   0  0  0  0  0  0  0  0  0  0  0  0
   -6.6367   24.4263  -31.2588 H   0  0  0  0  0  0  0  0  0  0  0  0
   -5.9816   24.2107  -32.9243 H   0  0  0  0  0  0  0  0  0  0  0  0
   -7.2730   22.1408  -31.0962 H   0  0  0  0  0  0  0  0  0  0  0  0
   -7.7235   22.6269  -32.7838 H   0  0  0  0  0  0  0  0  0  0  0  0
   -8.3381   20.4867  -31.4624 H   0  0  0  0  0  0  0  0  0  0  0  0
   -9.2301   18.1576  -31.5102 H   0  0  0  0  0  0  0  0  0  0  0  0
   -7.9867   16.3644  -32.7224 H   0  0  0  0  0  0  0  0  0  0  0  0
   -4.9485   19.2285  -33.8522 H   0  0  0  0  0  0  0  0  0  0  0  0
   -4.1716   20.6850  -33.2621 H   0  0  0  0  0  0  0  0  0  0  0  0
   -4.6938   22.2601  -33.9497 H   0  0  0  0  0  0  0  0  0  0  0  0
   -3.7296   21.6541  -31.1143 H   0  0  0  0  0  0  0  0  0  0  0  0
   -3.0245   22.7919  -32.3334 H   0  0  0  0  0  0  0  0  0  0  0  0
  1  2  2  0
  2  3  1  0
  3  4  2  0
  4  5  1  0
  5  6  2  0
  6  7  1  0
  7  8  2  0
  2  9  1  0
  9 10  1  0
 10 11  1  0
 11 12  1  0
 12 13  1  0
 13 14  2  0
 14 15  1  0
 15 16  2  0
 16 17  1  0
 17 18  1  0
 17 19  2  0
 12 20  1  0
 20 21  1  0
  8  3  1  0
 21  9  1  0
 19 13  1  0
  4 22  1  0
  6 23  1  0
  7 24  1  0
 10 25  1  0
 10 26  1  0
 11 27  1  0
 11 28  1  0
 14 29  1  0
 15 30  1  0
 16 31  1  0
 19 32  1  0
 20 33  1  0
 20 34  1  0
 21 35  1  0
 21 36  1  0
M  END
>  <UniqueID>  (23) 
23

>  <SMILES>  (23) 
O=C(c1cnccn1)N1CCN(c2cccc(Cl)c2)CC1

>  <Energy>  (23) 
48.44425006964551

>  <Genealogy>  (23) 
O=C(c1cnccn1)N1CCN(c2cccc(Cl)c2)CC1 (3D coordinates assigned)
O=C(c1cnccn1)N1CCN(c2cccc(Cl)c2)CC1 (nonaromatic ring conformer: 48.44425006964551 kcal/mol)

>  <smiles>  (23) 
O=C(c1cnccn1)N1CCN(c2cccc(Cl)c2)CC1

>  <score_type>  (23) 
oracle

>  <origin>  (23) 
adg

>  <m_score__min__energy>  (23) 
-8.1600000000000001

>  <m_primary>  (23) 
energy

$$$$
23:0
     RDKit          3D

 43 45  0  0  0  0  0  0  0  0999 V2000
   -1.4370   20.1260  -31.1600 C   0  0  0  0  0  0  0  0  0  0  0  0
   -1.3580   20.6250  -29.8290 O   0  0  0  0  0  0  0  0  0  0  0  0
   -1.3990   21.9840  -29.4870 C   0  0  0  0  0  0  0  0  0  0  0  0
   -0.5050   22.5560  -28.5640 C   0  0  0  0  0  0  0  0  0  0  0  0
   -0.5660   23.9230  -28.2750 C   0  0  0  0  0  0  0  0  0  0  0  0
   -1.5340   24.7410  -28.8890 C   0  0  0  0  0  0  0  0  0  0  0  0
   -1.5730   26.1280  -28.6710 O   0  0  0  0  0  0  0  0  0  0  0  0
   -0.8620   26.8070  -27.6410 C   0  0  0  0  0  0  0  0  0  0  0  0
   -2.4660   24.1540  -29.7720 C   0  0  0  0  0  0  0  0  0  0  0  0
   -3.4910   24.9290  -30.4130 N   0  0  0  0  0  0  0  0  0  0  0  0
   -4.8820   24.5840  -30.4490 C   0  0  0  0  0  0  0  0  0  0  0  0
   -5.7560   25.4650  -30.6830 O   0  0  0  0  0  0  0  0  0  0  0  0
   -5.3020   23.1780  -30.1820 C   0  0  0  0  0  0  0  0  0  0  0  0
   -5.2450   22.2230  -31.7370 S   0  0  0  0  0  0  0  0  0  0  0  0
   -7.0280   22.2490  -31.9560 C   0  0  0  0  0  0  0  0  0  0  0  0
   -7.7960   23.2960  -31.6100 N   0  0  0  0  0  0  0  0  0  0  0  0
   -9.0630   22.9570  -31.7900 N   0  0  0  0  0  0  0  0  0  0  0  0
   -9.0510   21.6870  -32.2470 C   0  0  0  0  0  0  0  0  0  0  0  0
   -7.7910   21.2110  -32.3680 N   0  0  0  0  0  0  0  0  0  0  0  0
   -7.4040   19.8660  -32.7100 C   0  0  0  0  0  0  0  0  0  0  0  0
   -7.9220   18.7570  -32.0220 C   0  0  0  0  0  0  0  0  0  0  0  0
   -7.5290   17.4650  -32.3730 C   0  0  0  0  0  0  0  0  0  0  0  0
   -6.6060   17.2870  -33.4040 C   0  0  0  0  0  0  0  0  0  0  0  0
   -6.0960   18.3670  -34.0540 N   0  0  0  0  0  0  0  0  0  0  0  0
   -6.4640   19.6360  -33.7300 C   0  0  0  0  0  0  0  0  0  0  0  0
   -2.3660   22.7930  -30.0870 C   0  0  0  0  0  0  0  0  0  0  0  0
   -1.6090   19.0398  -31.1348 H   0  0  0  0  0  0  0  0  0  0  0  0
   -2.2686   20.6168  -31.6868 H   0  0  0  0  0  0  0  0  0  0  0  0
   -0.4944   20.3359  -31.6868 H   0  0  0  0  0  0  0  0  0  0  0  0
    0.2462   21.9247  -28.0668 H   0  0  0  0  0  0  0  0  0  0  0  0
    0.1476   24.3626  -27.5626 H   0  0  0  0  0  0  0  0  0  0  0  0
   -1.2215   26.4637  -26.6597 H   0  0  0  0  0  0  0  0  0  0  0  0
    0.2127   26.5914  -27.7338 H   0  0  0  0  0  0  0  0  0  0  0  0
   -1.0279   27.8904  -27.7338 H   0  0  0  0  0  0  0  0  0  0  0  0
   -4.6203   22.7244  -29.4475 H   0  0  0  0  0  0  0  0  0  0  0  0
   -6.3271   23.1700  -29.7830 H   0  0  0  0  0  0  0  0  0  0  0  0
   -7.4740   24.2180  -31.2400 H   0  0  0  0  0  0  0  0  0  0  0  0
   -9.9552   21.1100  -32.4911 H   0  0  0  0  0  0  0  0  0  0  0  0
   -8.6406   18.9074  -31.2029 H   0  0  0  0  0  0  0  0  0  0  0  0
   -7.9429   16.5951  -31.8420 H   0  0  0  0  0  0  0  0  0  0  0  0
   -6.2908   16.2730  -33.6910 H   0  0  0  0  0  0  0  0  0  0  0  0
   -6.0234   20.4874  -34.2694 H   0  0  0  0  0  0  0  0  0  0  0  0
   -3.0604   22.3544  -30.8188 H   0  0  0  0  0  0  0  0  0  0  0  0
  1  2  1  0
  2  3  1  0
  3  4  2  0
  4  5  1  0
  5  6  2  0
  6  7  1  0
  7  8  1  0
  6  9  1  0
  9 10  1  0
 10 11  1  0
 11 12  2  0
 11 13  1  0
 13 14  1  0
 14 15  1  0
 15 16  2  0
 16 17  1  0
 17 18  2  0
 18 19  1  0
 19 20  1  0
 20 21  2  0
 21 22  1  0
 22 23  2  0
 23 24  1  0
 24 25  2  0
  9 26  2  0
 26  3  1  0
 19 15  1  0
 25 20  1  0
  1 27  1  0
  1 28  1  0
  1 29  1  0
  4 30  1  0
  5 31  1  0
  8 32  1  0
  8 33  1  0
  8 34  1  0
 13 35  1  0
 13 36  1  0
 16 37  1  0
 18 38  1  0
 21 39  1  0
 22 40  1  0
 23 41  1  0
 25 42  1  0
 26 43  1  0
M  CHG  2  10  -1  16   1
M  END
>  <UniqueID>  (24) 
24

>  <SMILES>  (24) 
COc1ccc(OC)c([N-]C(=O)CSc2[nH+]ncn2-c2cccnc2)c1

>  <Energy>  (24) 
86.08225394191275

>  <Genealogy>  (24) 
COc1ccc(OC)c([N-]C(=O)CSc2[nH+]ncn2-c2cccnc2)c1 (protonated)
COc1ccc(OC)c([N-]C(=O)CSc2[nH+]ncn2-c2cccnc2)c1 (3D coordinates assigned)
COc1ccc(OC)c([N-]C(=O)CSc2[nH+]ncn2-c2cccnc2)c1 (optimized conformer: 86.08225394191275 kcal/mol)

>  <smiles>  (24) 
COc1ccc(OC)c(NC(=O)CSc2nncn2-c2cccnc2)c1

>  <score_type>  (24) 
oracle

>  <origin>  (24) 
adg

>  <m_score__min__energy>  (24) 
-9.8599999999999994

>  <m_primary>  (24) 
energy

$$$$
24:0
     RDKit          3D

 46 49  0  0  0  0  0  0  0  0999 V2000
   -6.8430   24.1870  -30.7360 C   0  0  0  0  0  0  0  0  0  0  0  0
   -7.0740   23.4420  -31.9270 O   0  0  0  0  0  0  0  0  0  0  0  0
   -7.7680   22.2220  -31.9870 C   0  0  0  0  0  0  0  0  0  0  0  0
   -9.1680   22.1720  -31.8690 C   0  0  0  0  0  0  0  0  0  0  0  0
   -9.8430   20.9590  -31.9710 C   0  0  0  0  0  0  0  0  0  0  0  0
   -9.1360   19.7820  -32.2020 C   0  0  0  0  0  0  0  0  0  0  0  0
   -7.7380   19.7950  -32.3340 C   0  0  0  0  0  0  0  0  0  0  0  0
   -7.0400   21.0270  -32.1930 C   0  0  0  0  0  0  0  0  0  0  0  0
   -5.6000   21.0700  -32.2620 N   0  0  0  0  0  0  0  0  0  0  0  0
   -4.7580   21.7930  -31.4930 C   0  0  0  0  0  0  0  0  0  0  0  0
   -3.4630   21.6060  -31.8220 N   0  0  0  0  0  0  0  0  0  0  0  0
   -3.4960   20.7160  -32.8350 C   0  0  0  0  0  0  0  0  0  0  0  0
   -2.2750   20.2020  -33.4720 C   0  0  0  0  0  0  0  0  0  0  0  0
   -1.4410   20.9120  -34.2520 N   0  0  0  0  0  0  0  0  0  0  0  0
   -0.5200   19.9980  -34.6090 C   0  0  0  0  0  0  0  0  0  0  0  0
    0.6230   20.2760  -35.5460 C   0  0  0  0  0  0  0  0  0  0  0  0
    0.6540   19.2480  -36.6810 C   0  0  0  0  0  0  0  0  0  0  0  0
    0.5200   21.7000  -36.0980 C   0  0  0  0  0  0  0  0  0  0  0  0
   -0.7910   18.7860  -34.0820 N   0  0  0  0  0  0  0  0  0  0  0  0
   -1.8800   18.9530  -33.3890 O   0  0  0  0  0  0  0  0  0  0  0  0
   -4.8160   20.3970  -33.1180 C   0  0  0  0  0  0  0  0  0  0  0  0
   -5.3660   19.4860  -34.1660 C   0  0  0  0  0  0  0  0  0  0  0  0
   -5.9760   18.3270  -33.5100 N   0  0  0  0  0  0  0  0  0  0  0  0
   -5.5130   16.9720  -33.8340 C   0  0  0  0  0  0  0  0  0  0  0  0
   -7.0540   18.4900  -32.5590 C   0  0  0  0  0  0  0  0  0  0  0  0
   -7.4780   17.4800  -31.9320 O   0  0  0  0  0  0  0  0  0  0  0  0
   -7.0405   23.5502  -29.8611 H   0  0  0  0  0  0  0  0  0  0  0  0
   -5.7972   24.5272  -30.7134 H   0  0  0  0  0  0  0  0  0  0  0  0
   -7.5129   25.0592  -30.7134 H   0  0  0  0  0  0  0  0  0  0  0  0
   -9.7344   23.0987  -31.6947 H   0  0  0  0  0  0  0  0  0  0  0  0
  -10.9379   20.9302  -31.8688 H   0  0  0  0  0  0  0  0  0  0  0  0
   -9.6798   18.8292  -32.2822 H   0  0  0  0  0  0  0  0  0  0  0  0
   -5.0916   22.4618  -30.6859 H   0  0  0  0  0  0  0  0  0  0  0  0
   -1.5210   21.9000  -34.5740 H   0  0  0  0  0  0  0  0  0  0  0  0
    1.5662   20.1892  -34.9867 H   0  0  0  0  0  0  0  0  0  0  0  0
    0.6846   18.2337  -36.2563 H   0  0  0  0  0  0  0  0  0  0  0  0
   -0.2479   19.3589  -37.3009 H   0  0  0  0  0  0  0  0  0  0  0  0
    1.5476   19.4131  -37.3009 H   0  0  0  0  0  0  0  0  0  0  0  0
    0.4683   22.4141  -35.2629 H   0  0  0  0  0  0  0  0  0  0  0  0
    1.4046   21.9194  -36.7139 H   0  0  0  0  0  0  0  0  0  0  0  0
   -0.3870   21.7898  -36.7139 H   0  0  0  0  0  0  0  0  0  0  0  0
   -6.1255   20.0184  -34.7574 H   0  0  0  0  0  0  0  0  0  0  0  0
   -4.5582   19.1549  -34.8352 H   0  0  0  0  0  0  0  0  0  0  0  0
   -5.3234   16.4170  -32.9034 H   0  0  0  0  0  0  0  0  0  0  0  0
   -6.2843   16.4515  -34.4207 H   0  0  0  0  0  0  0  0  0  0  0  0
   -4.5845   17.0323  -34.4207 H   0  0  0  0  0  0  0  0  0  0  0  0
  1  2  1  0
  2  3  1  0
  3  4  2  0
  4  5  1  0
  5  6  2  0
  6  7  1  0
  7  8  2  0
  8  9  1  0
  9 10  1  0
 10 11  2  0
 11 12  1  0
 12 13  1  0
 13 14  2  0
 14 15  1  0
 15 16  1  0
 16 17  1  0
 16 18  1  0
 15 19  2  0
 19 20  1  0
 12 21  2  0
 21 22  1  0
 22 23  1  0
 23 24  1  0
 23 25  1  0
 25 26  2  0
  8  3  1  0
 21  9  1  0
 25  7  1  0
 20 13  1  0
  1 27  1  0
  1 28  1  0
  1 29  1  0
  4 30  1  0
  5 31  1  0
  6 32  1  0
 10 33  1  0
 14 34  1  0
 16 35  1  0
 17 36  1  0
 17 37  1  0
 17 38  1  0
 18 39  1  0
 18 40  1  0
 18 41  1  0
 22 42  1  0
 22 43  1  0
 24 44  1  0
 24 45  1  0
 24 46  1  0
M  CHG  1  14   1
M  END
>  <UniqueID>  (25) 
25

>  <SMILES>  (25) 
COc1cccc2c1-n1cnc(-c3[nH+]c(C(C)C)no3)c1CN(C)C2=O

>  <Energy>  (25) 
123.2099871821559

>  <Genealogy>  (25) 
COc1cccc2c1-n1cnc(-c3[nH+]c(C(C)C)no3)c1CN(C)C2=O (protonated)
COc1cccc2c1-n1cnc(-c3[nH+]c(C(C)C)no3)c1CN(C)C2=O (3D coordinates assigned)
COc1cccc2c1-n1cnc(-c3[nH+]c(C(C)C)no3)c1CN(C)C2=O (nonaromatic ring conformer: 123.2099871821559 kcal/mol)

>  <smiles>  (25) 
COc1cccc2c1-n1cnc(-c3nc(C(C)C)no3)c1CN(C)C2=O

>  <score_type>  (25) 
oracle

>  <origin>  (25) 
adg

>  <m_score__min__energy>  (25) 
-7.4500000000000002

>  <m_primary>  (25) 
energy

$$$$
25:0
     RDKit          3D

 47 51  0  0  0  0  0  0  0  0999 V2000
   -9.1160   19.0060  -32.0210 C   0  0  0  0  0  0  0  0  0  0  0  0
   -7.7280   18.7240  -32.5110 C   0  0  0  0  0  0  0  0  0  0  0  0
   -7.3100   17.3950  -32.7490 C   0  0  0  0  0  0  0  0  0  0  0  0
   -6.0010   17.1260  -33.1790 C   0  0  0  0  0  0  0  0  0  0  0  0
   -5.1380   18.2070  -33.3430 C   0  0  0  0  0  0  0  0  0  0  0  0
   -3.8550   18.1470  -33.7510 N   0  0  0  0  0  0  0  0  0  0  0  0
   -3.4270   19.4320  -33.7440 C   0  0  0  0  0  0  0  0  0  0  0  0
   -2.0390   19.8350  -34.0540 C   0  0  0  0  0  0  0  0  0  0  0  0
   -1.1400   18.8980  -34.5880 C   0  0  0  0  0  0  0  0  0  0  0  0
    0.1650   19.2790  -34.9130 C   0  0  0  0  0  0  0  0  0  0  0  0
    0.5860   20.5960  -34.6990 C   0  0  0  0  0  0  0  0  0  0  0  0
    2.3650   21.1180  -35.1560 Br  0  0  0  0  0  0  0  0  0  0  0  0
   -0.2970   21.5290  -34.1480 C   0  0  0  0  0  0  0  0  0  0  0  0
   -1.6010   21.1500  -33.8180 C   0  0  0  0  0  0  0  0  0  0  0  0
   -4.4860   20.2490  -33.3450 C   0  0  0  0  0  0  0  0  0  0  0  0
   -4.5030   21.6830  -33.2510 N   0  0  0  0  0  0  0  0  0  0  0  0
   -4.5540   22.3980  -32.0060 C   0  0  0  0  0  0  0  0  0  0  0  0
   -5.4980   23.4180  -31.7930 C   0  0  0  0  0  0  0  0  0  0  0  0
   -5.5140   24.1300  -30.5910 C   0  0  0  0  0  0  0  0  0  0  0  0
   -4.5950   23.8250  -29.5780 C   0  0  0  0  0  0  0  0  0  0  0  0
   -4.5950   24.5390  -28.3710 C   0  0  0  0  0  0  0  0  0  0  0  0
   -3.6730   24.2240  -27.3690 C   0  0  0  0  0  0  0  0  0  0  0  0
   -2.7470   23.1960  -27.5640 C   0  0  0  0  0  0  0  0  0  0  0  0
   -2.7370   22.4750  -28.7610 C   0  0  0  0  0  0  0  0  0  0  0  0
   -3.6570   22.7810  -29.7760 C   0  0  0  0  0  0  0  0  0  0  0  0
   -3.6520   22.0700  -30.9840 C   0  0  0  0  0  0  0  0  0  0  0  0
   -5.5450   19.4620  -33.0870 N   0  0  0  0  0  0  0  0  0  0  0  0
   -6.8030   19.7720  -32.6780 C   0  0  0  0  0  0  0  0  0  0  0  0
   -9.1233   19.0075  -30.9210 H   0  0  0  0  0  0  0  0  0  0  0  0
   -9.4429   19.9889  -32.3912 H   0  0  0  0  0  0  0  0  0  0  0  0
   -9.8005   18.2286  -32.3912 H   0  0  0  0  0  0  0  0  0  0  0  0
   -8.0157   16.5652  -32.5961 H   0  0  0  0  0  0  0  0  0  0  0  0
   -5.6683   16.0969  -33.3795 H   0  0  0  0  0  0  0  0  0  0  0  0
   -3.3030   17.2930  -33.9860 H   0  0  0  0  0  0  0  0  0  0  0  0
   -1.4641   17.8596  -34.7513 H   0  0  0  0  0  0  0  0  0  0  0  0
    0.8623   18.5420  -35.3378 H   0  0  0  0  0  0  0  0  0  0  0  0
    0.0350   22.5631  -33.9739 H   0  0  0  0  0  0  0  0  0  0  0  0
   -2.2880   21.8840  -33.3715 H   0  0  0  0  0  0  0  0  0  0  0  0
   -4.4660   22.2320  -34.1390 H   0  0  0  0  0  0  0  0  0  0  0  0
   -6.2296   23.6573  -32.5788 H   0  0  0  0  0  0  0  0  0  0  0  0
   -6.2506   24.9328  -30.4393 H   0  0  0  0  0  0  0  0  0  0  0  0
   -5.3223   25.3488  -28.2125 H   0  0  0  0  0  0  0  0  0  0  0  0
   -3.6763   24.7871  -26.4240 H   0  0  0  0  0  0  0  0  0  0  0  0
   -2.0230   22.9533  -26.7722 H   0  0  0  0  0  0  0  0  0  0  0  0
   -2.0065   21.6658  -28.9082 H   0  0  0  0  0  0  0  0  0  0  0  0
   -2.9352   21.2487  -31.1312 H   0  0  0  0  0  0  0  0  0  0  0  0
   -7.0914   20.8153  -32.4823 H   0  0  0  0  0  0  0  0  0  0  0  0
  1  2  1  0
  2  3  1  0
  3  4  2  0
  4  5  1  0
  5  6  2  0
  6  7  1  0
  7  8  1  0
  8  9  2  0
  9 10  1  0
 10 11  2  0
 11 12  1  0
 11 13  1  0
 13 14  2  0
  7 15  2  0
 15 16  1  0
 16 17  1  0
 17 18  2  0
 18 19  1  0
 19 20  2  0
 20 21  1  0
 21 22  2  0
 22 23  1  0
 23 24  2  0
 24 25  1  0
 25 26  2  0
 15 27  1  0
 27 28  1  0
 28  2  2  0
 27  5  1  0
 14  8  1  0
 26 17  1  0
 25 20  1  0
  1 29  1  0
  1 30  1  0
  1 31  1  0
  3 32  1  0
  4 33  1  0
  6 34  1  0
  9 35  1  0
 10 36  1  0
 13 37  1  0
 14 38  1  0
 16 39  1  0
 18 40  1  0
 19 41  1  0
 21 42  1  0
 22 43  1  0
 23 44  1  0
 24 45  1  0
 26 46  1  0
 28 47  1  0
M  CHG  1   6   1
M  END
>  <UniqueID>  (26) 
26

>  <SMILES>  (26) 
Cc1ccc2[nH+]c(-c3ccc(Br)cc3)c(Nc3ccc4ccccc4c3)n2c1

>  <Energy>  (26) 
100.2117188974796

>  <Genealogy>  (26) 
Cc1ccc2[nH+]c(-c3ccc(Br)cc3)c(Nc3ccc4ccccc4c3)n2c1 (protonated)
Cc1ccc2[nH+]c(-c3ccc(Br)cc3)c(Nc3ccc4ccccc4c3)n2c1 (3D coordinates assigned)
Cc1ccc2[nH+]c(-c3ccc(Br)cc3)c(Nc3ccc4ccccc4c3)n2c1 (optimized conformer: 100.2117188974796 kcal/mol)

>  <smiles>  (26) 
Cc1ccc2nc(-c3ccc(Br)cc3)c(Nc3ccc4ccccc4c3)n2c1

>  <score_type>  (26) 
oracle

>  <origin>  (26) 
adg

>  <m_score__min__energy>  (26) 
-8.9499999999999993

>  <m_primary>  (26) 
energy

$$$$
26:0
     RDKit          3D

 32 34  0  0  0  0  0  0  0  0999 V2000
   -4.3090   25.5150  -30.8460 O   0  0  0  0  0  0  0  0  0  0  0  0
   -3.6190   24.5540  -29.9220 S   0  0  0  0  0  0  0  0  0  0  0  0
   -4.5210   24.2780  -28.7500 O   0  0  0  0  0  0  0  0  0  0  0  0
   -2.1570   25.2780  -29.3310 N   0  0  0  0  0  0  0  0  0  0  0  0
   -1.5330   24.9770  -28.0770 C   0  0  0  0  0  0  0  0  0  0  0  0
   -1.9590   25.5600  -26.8690 C   0  0  0  0  0  0  0  0  0  0  0  0
   -1.3340   25.2180  -25.6660 C   0  0  0  0  0  0  0  0  0  0  0  0
   -0.2830   24.2990  -25.6570 C   0  0  0  0  0  0  0  0  0  0  0  0
    0.1470   23.7180  -26.8540 C   0  0  0  0  0  0  0  0  0  0  0  0
    1.1670   22.8250  -26.8460 F   0  0  0  0  0  0  0  0  0  0  0  0
   -0.4750   24.0590  -28.0590 C   0  0  0  0  0  0  0  0  0  0  0  0
   -3.2770   23.0540  -30.8000 C   0  0  0  0  0  0  0  0  0  0  0  0
   -1.9610   22.5730  -30.8210 C   0  0  0  0  0  0  0  0  0  0  0  0
   -1.6340   21.4500  -31.5780 C   0  0  0  0  0  0  0  0  0  0  0  0
   -0.3590   20.9900  -31.6040 F   0  0  0  0  0  0  0  0  0  0  0  0
   -2.6270   20.8130  -32.3190 C   0  0  0  0  0  0  0  0  0  0  0  0
   -3.9050   21.2760  -32.2890 N   0  0  0  0  0  0  0  0  0  0  0  0
   -4.2650   22.3580  -31.5380 C   0  0  0  0  0  0  0  0  0  0  0  0
   -5.6380   22.7710  -31.5390 N   0  0  0  0  0  0  0  0  0  0  0  0
   -6.5190   22.6730  -30.5300 C   0  0  0  0  0  0  0  0  0  0  0  0
   -7.7450   23.0770  -30.9140 N   0  0  0  0  0  0  0  0  0  0  0  0
   -7.5490   23.4090  -32.2100 C   0  0  0  0  0  0  0  0  0  0  0  0
   -6.2770   23.2110  -32.6060 N   0  0  0  0  0  0  0  0  0  0  0  0
   -2.7853   26.2861  -26.8713 H   0  0  0  0  0  0  0  0  0  0  0  0
   -1.6714   25.6744  -24.7237 H   0  0  0  0  0  0  0  0  0  0  0  0
    0.2065   24.0321  -24.7088 H   0  0  0  0  0  0  0  0  0  0  0  0
   -0.1312   23.6033  -28.9993 H   0  0  0  0  0  0  0  0  0  0  0  0
   -1.1821   23.0847  -30.2367 H   0  0  0  0  0  0  0  0  0  0  0  0
   -2.3764   19.9332  -32.9299 H   0  0  0  0  0  0  0  0  0  0  0  0
   -4.6310   20.7720  -32.8460 H   0  0  0  0  0  0  0  0  0  0  0  0
   -6.2715   22.3101  -29.5215 H   0  0  0  0  0  0  0  0  0  0  0  0
   -8.3404   23.7976  -32.8678 H   0  0  0  0  0  0  0  0  0  0  0  0
  1  2  2  0
  2  3  2  0
  2  4  1  0
  4  5  1  0
  5  6  2  0
  6  7  1  0
  7  8  2  0
  8  9  1  0
  9 10  1  0
  9 11  2  0
  2 12  1  0
 12 13  2  0
 13 14  1  0
 14 15  1  0
 14 16  2  0
 16 17  1  0
 17 18  2  0
 18 19  1  0
 19 20  1  0
 20 21  2  0
 21 22  1  0
 22 23  2  0
 11  5  1  0
 18 12  1  0
 23 19  1  0
  6 24  1  0
  7 25  1  0
  8 26  1  0
 11 27  1  0
 13 28  1  0
 16 29  1  0
 17 30  1  0
 20 31  1  0
 22 32  1  0
M  CHG  2   4  -1  17   1
M  END
>  <UniqueID>  (27) 
27

>  <SMILES>  (27) 
O=S(=O)([N-]c1cccc(F)c1)c1cc(F)c[nH+]c1-n1cncn1

>  <Energy>  (27) 
76.61356830504715

>  <Genealogy>  (27) 
O=S(=O)([N-]c1cccc(F)c1)c1cc(F)c[nH+]c1-n1cncn1 (protonated)
O=S(=O)([N-]c1cccc(F)c1)c1cc(F)c[nH+]c1-n1cncn1 (3D coordinates assigned)
O=S(=O)([N-]c1cccc(F)c1)c1cc(F)c[nH+]c1-n1cncn1 (optimized conformer: 76.61356830504715 kcal/mol)

>  <smiles>  (27) 
O=S(=O)(Nc1cccc(F)c1)c1cc(F)cnc1-n1cncn1

>  <score_type>  (27) 
oracle

>  <origin>  (27) 
adg

>  <m_score__min__energy>  (27) 
-7.54

>  <m_primary>  (27) 
energy

$$$$
27:0
     RDKit          3D

 47 48  0  0  0  0  0  0  0  0999 V2000
   -5.6100   25.4220  -30.7540 C   0  0  0  0  0  0  0  0  0  0  0  0
   -5.3780   24.3320  -31.6400 O   0  0  0  0  0  0  0  0  0  0  0  0
   -6.0800   23.1130  -31.6150 C   0  0  0  0  0  0  0  0  0  0  0  0
   -7.4850   23.0820  -31.6010 C   0  0  0  0  0  0  0  0  0  0  0  0
   -8.1680   21.8670  -31.5540 C   0  0  0  0  0  0  0  0  0  0  0  0
   -9.6700   21.8440  -31.5720 C   0  0  0  0  0  0  0  0  0  0  0  0
   -7.4490   20.6690  -31.5650 C   0  0  0  0  0  0  0  0  0  0  0  0
   -6.0430   20.6640  -31.5970 C   0  0  0  0  0  0  0  0  0  0  0  0
   -5.3460   21.9060  -31.5980 C   0  0  0  0  0  0  0  0  0  0  0  0
   -3.9060   21.9830  -31.6360 N   0  0  0  0  0  0  0  0  0  0  0  0
   -3.0160   20.8970  -31.2510 C   0  0  0  0  0  0  0  0  0  0  0  0
   -3.0620   19.8020  -32.2800 C   0  0  0  0  0  0  0  0  0  0  0  0
   -2.0110   19.4340  -32.7840 O   0  0  0  0  0  0  0  0  0  0  0  0
   -4.3040   19.1470  -32.6510 N   0  0  2  0  0  0  0  0  0  0  0  0
   -4.7740   19.5840  -33.9920 C   0  0  0  0  0  0  0  0  0  0  0  0
   -6.0000   18.7860  -34.4780 C   0  0  0  0  0  0  0  0  0  0  0  0
   -5.7480   17.2660  -34.6030 C   0  0  0  0  0  0  0  0  0  0  0  0
   -4.7570   16.6810  -33.6670 N   0  0  0  0  0  0  0  0  0  0  0  0
   -5.3420   15.8740  -32.5870 C   0  0  0  0  0  0  0  0  0  0  0  0
   -3.6330   15.9950  -34.3240 C   0  0  0  0  0  0  0  0  0  0  0  0
   -5.3490   19.3040  -31.6090 C   0  0  0  0  0  0  0  0  0  0  0  0
   -5.5354   25.0715  -29.7140 H   0  0  0  0  0  0  0  0  0  0  0  0
   -4.8585   26.2053  -30.9317 H   0  0  0  0  0  0  0  0  0  0  0  0
   -6.6154   25.8314  -30.9317 H   0  0  0  0  0  0  0  0  0  0  0  0
   -8.0512   24.0247  -31.6274 H   0  0  0  0  0  0  0  0  0  0  0  0
  -10.0490   21.8382  -30.5394 H   0  0  0  0  0  0  0  0  0  0  0  0
  -10.0441   22.7365  -32.0949 H   0  0  0  0  0  0  0  0  0  0  0  0
  -10.0166   20.9404  -32.0949 H   0  0  0  0  0  0  0  0  0  0  0  0
   -7.9924   19.7127  -31.5483 H   0  0  0  0  0  0  0  0  0  0  0  0
   -3.4490   22.8930  -31.8710 H   0  0  0  0  0  0  0  0  0  0  0  0
   -1.9877   21.2797  -31.1727 H   0  0  0  0  0  0  0  0  0  0  0  0
   -3.3399   20.4929  -30.2805 H   0  0  0  0  0  0  0  0  0  0  0  0
   -4.1040   18.1180  -32.6910 H   0  0  0  0  0  0  0  0  0  0  0  0
   -5.0442   20.6491  -33.9411 H   0  0  0  0  0  0  0  0  0  0  0  0
   -3.9563   19.4073  -34.7062 H   0  0  0  0  0  0  0  0  0  0  0  0
   -6.8213   18.9434  -33.7634 H   0  0  0  0  0  0  0  0  0  0  0  0
   -6.2415   19.1538  -35.4862 H   0  0  0  0  0  0  0  0  0  0  0  0
   -6.7071   16.7534  -34.4378 H   0  0  0  0  0  0  0  0  0  0  0  0
   -5.3209   17.1229  -35.6065 H   0  0  0  0  0  0  0  0  0  0  0  0
   -5.0406   16.2897  -31.6142 H   0  0  0  0  0  0  0  0  0  0  0  0
   -6.4388   15.8913  -32.6692 H   0  0  0  0  0  0  0  0  0  0  0  0
   -4.9844   14.8370  -32.6692 H   0  0  0  0  0  0  0  0  0  0  0  0
   -2.9577   15.5829  -33.5597 H   0  0  0  0  0  0  0  0  0  0  0  0
   -4.0184   15.1780  -34.9517 H   0  0  0  0  0  0  0  0  0  0  0  0
   -3.0827   16.7113  -34.9517 H   0  0  0  0  0  0  0  0  0  0  0  0
   -6.1142   18.5309  -31.7727 H   0  0  0  0  0  0  0  0  0  0  0  0
   -4.8365   19.2097  -30.6403 H   0  0  0  0  0  0  0  0  0  0  0  0
  1  2  1  0
  2  3  1  0
  3  4  2  0
  4  5  1  0
  5  6  1  0
  5  7  2  0
  7  8  1  0
  8  9  2  0
  9 10  1  0
 10 11  1  0
 11 12  1  0
 12 13  2  0
 12 14  1  0
 14 15  1  0
 15 16  1  0
 16 17  1  0
 17 18  1  0
 18 19  1  0
 18 20  1  0
 14 21  1  0
  9  3  1  0
 21  8  1  0
  1 22  1  0
  1 23  1  0
  1 24  1  0
  4 25  1  0
  6 26  1  0
  6 27  1  0
  6 28  1  0
  7 29  1  0
 10 30  1  0
 11 31  1  0
 11 32  1  0
 14 33  1  6
 15 34  1  0
 15 35  1  0
 16 36  1  0
 16 37  1  0
 17 38  1  0
 17 39  1  0
 19 40  1  0
 19 41  1  0
 19 42  1  0
 20 43  1  0
 20 44  1  0
 20 45  1  0
 21 46  1  0
 21 47  1  0
M  CHG  1  14   1
M  END
>  <UniqueID>  (28) 
28

>  <SMILES>  (28) 
COc1cc(C)cc2c1NCC(=O)[N@H+](CCCN(C)C)C2

>  <Energy>  (28) 
62.54504747322674

>  <Genealogy>  (28) 
COc1cc(C)cc2c1NCC(=O)[NH+](CCCN(C)C)C2 (protonated)
COc1cc(C)cc2c1NCC(=O)[N@H+](CCCN(C)C)C2 (chirality)
COc1cc(C)cc2c1NCC(=O)[N@H+](CCCN(C)C)C2 (3D coordinates assigned)
COc1cc(C)cc2c1NCC(=O)[N@H+](CCCN(C)C)C2 (nonaromatic ring conformer: 62.54504747322674 kcal/mol)

>  <smiles>  (28) 
COc1cc(C)cc2c1NCC(=O)N(CCCN(C)C)C2

>  <score_type>  (28) 
oracle

>  <origin>  (28) 
adg

>  <m_score__min__energy>  (28) 
-4.8700000000000001

>  <m_primary>  (28) 
energy

$$$$
28:0
     RDKit          3D

 37 39  0  0  0  0  0  0  0  0999 V2000
   -3.2269   23.7110  -28.7568 H   0  0  0  0  0  0  0  0  0  0  0  0
   -3.0560   24.5470  -29.4510 C   0  0  0  0  0  0  0  0  0  0  0  0
   -2.0450   25.2820  -29.2900 O   0  0  0  0  0  0  0  0  0  0  0  0
   -3.9900   24.7730  -30.5170 N   0  0  0  0  0  0  0  0  0  0  0  0
   -4.8200   23.9020  -31.0140 C   0  0  0  0  0  0  0  0  0  0  0  0
   -6.1700   23.9850  -30.8520 N   0  0  0  0  0  0  0  0  0  0  0  0
   -6.6090   22.8650  -31.4480 C   0  0  0  0  0  0  0  0  0  0  0  0
   -7.9150   22.3990  -31.5410 C   0  0  0  0  0  0  0  0  0  0  0  0
   -8.7595   22.9840  -31.1478 H   0  0  0  0  0  0  0  0  0  0  0  0
   -8.1160   21.1470  -32.1590 C   0  0  0  0  0  0  0  0  0  0  0  0
   -9.5030   20.5850  -32.3180 C   0  0  0  0  0  0  0  0  0  0  0  0
  -10.0387   21.1562  -33.0905 H   0  0  0  0  0  0  0  0  0  0  0  0
  -10.0305   20.6616  -31.3558 H   0  0  0  0  0  0  0  0  0  0  0  0
   -9.4450   19.2250  -32.7010 O   0  0  0  0  0  0  0  0  0  0  0  0
   -9.0980   18.4200  -31.5950 C   0  0  0  0  0  0  0  0  0  0  0  0
   -9.3296   18.9572  -30.6635 H   0  0  0  0  0  0  0  0  0  0  0  0
   -9.6718   17.4821  -31.6297 H   0  0  0  0  0  0  0  0  0  0  0  0
   -8.0222   18.1932  -31.6297 H   0  0  0  0  0  0  0  0  0  0  0  0
   -6.9960   20.4270  -32.6490 C   0  0  0  0  0  0  0  0  0  0  0  0
   -7.1447   19.4503  -33.1327 H   0  0  0  0  0  0  0  0  0  0  0  0
   -5.7330   20.9370  -32.5250 N   0  0  0  0  0  0  0  0  0  0  0  0
   -5.5640   22.1490  -31.9400 C   0  0  0  0  0  0  0  0  0  0  0  0
   -4.4070   22.8010  -31.7090 N   0  0  0  0  0  0  0  0  0  0  0  0
   -3.0210   22.3220  -31.9140 C   0  0  0  0  0  0  0  0  0  0  0  0
   -2.4375   23.2545  -31.9203 H   0  0  0  0  0  0  0  0  0  0  0  0
   -2.5460   21.3600  -30.8290 C   0  0  0  0  0  0  0  0  0  0  0  0
   -2.1648   21.9174  -29.9607 H   0  0  0  0  0  0  0  0  0  0  0  0
   -3.3628   20.7196  -30.4645 H   0  0  0  0  0  0  0  0  0  0  0  0
   -1.4340   20.5470  -31.4680 C   0  0  0  0  0  0  0  0  0  0  0  0
   -0.4584   21.0160  -31.2724 H   0  0  0  0  0  0  0  0  0  0  0  0
   -1.3972   19.5272  -31.0574 H   0  0  0  0  0  0  0  0  0  0  0  0
   -1.7220   20.5320  -32.9650 C   0  0  0  0  0  0  0  0  0  0  0  0
   -0.8284   20.8442  -33.5254 H   0  0  0  0  0  0  0  0  0  0  0  0
   -1.9949   19.5216  -33.3036 H   0  0  0  0  0  0  0  0  0  0  0  0
   -2.8630   21.5160  -33.2060 C   0  0  0  0  0  0  0  0  0  0  0  0
   -2.6174   22.1851  -34.0438 H   0  0  0  0  0  0  0  0  0  0  0  0
   -3.7943   20.9904  -33.4637 H   0  0  0  0  0  0  0  0  0  0  0  0
  1  2  1  0
  2  3  2  0
  2  4  1  0
  4  5  2  0
  5  6  1  0
  6  7  1  0
  7  8  2  0
  8  9  1  0
  8 10  1  0
 10 11  1  0
 11 12  1  0
 11 13  1  0
 11 14  1  0
 14 15  1  0
 15 16  1  0
 15 17  1  0
 15 18  1  0
 10 19  2  0
 19 20  1  0
 19 21  1  0
 21 22  2  0
 22 23  1  0
 23 24  1  0
 24 25  1  0
 24 26  1  0
 26 27  1  0
 26 28  1  0
 26 29  1  0
 29 30  1  0
 29 31  1  0
 29 32  1  0
 32 33  1  0
 32 34  1  0
 32 35  1  0
 35 36  1  0
 35 37  1  0
 23  5  1  0
 35 24  1  0
 22  7  1  0
M  CHG  1   6  -1
M  END
>  <UniqueID>  (29) 
29

>  <SMILES>  (29) 
COCc1cnc2c(c1)[n-]/c(=N\C=O)n2C1CCCC1

>  <Energy>  (29) 
85.08884499103851

>  <Genealogy>  (29) 
COCc1cnc2c(c1)[n-]c(=NC=O)n2C1CCCC1 (protonated)
COCc1cnc2c(c1)[n-]/c(=N\C=O)n2C1CCCC1 (cis-trans isomerization)
COCc1cnc2c(c1)[n-]/c(=N\C=O)n2C1CCCC1 (3D coordinates assigned)
COCc1cnc2c(c1)[n-]/c(=N\C=O)n2C1CCCC1 (nonaromatic ring conformer: 85.08884499103851 kcal/mol)

>  <smiles>  (29) 
COCc1cnc2c(c1)[nH]c(=NC=O)n2C1CCCC1

>  <score_type>  (29) 
oracle

>  <origin>  (29) 
adg

>  <m_score__min__energy>  (29) 
-7.7699999999999996

>  <m_primary>  (29) 
energy

$$$$
29:0
     RDKit          3D

 57 59  0  0  0  0  0  0  0  0999 V2000
   -1.0870   25.5300  -27.2770 C   0  0  0  0  0  0  0  0  0  0  0  0
   -0.6360   24.8500  -28.5050 N   0  0  0  0  0  0  0  0  0  0  0  0
    0.6080   24.1150  -28.2320 C   0  0  0  0  0  0  0  0  0  0  0  0
   -1.6750   23.9250  -29.0110 C   0  0  0  0  0  0  0  0  0  0  0  0
   -3.0790   24.5340  -28.8850 C   0  0  0  0  0  0  0  0  0  0  0  0
   -3.4860   25.2080  -30.1180 N   0  0  0  0  0  0  0  0  0  0  0  0
   -4.7170   25.0070  -30.8260 C   0  0  0  0  0  0  0  0  0  0  0  0
   -5.4170   26.0120  -31.1180 O   0  0  0  0  0  0  0  0  0  0  0  0
   -5.1750   23.6700  -31.2490 C   0  0  0  0  0  0  0  0  0  0  0  0
   -4.2490   22.7380  -31.7390 C   0  0  0  0  0  0  0  0  0  0  0  0
   -4.6700   21.4670  -32.1370 C   0  0  0  0  0  0  0  0  0  0  0  0
   -6.0280   21.1160  -32.0750 C   0  0  0  0  0  0  0  0  0  0  0  0
   -6.4590   19.7600  -32.4830 C   0  0  0  0  0  0  0  0  0  0  0  0
   -5.6080   18.7240  -32.8150 C   0  0  0  0  0  0  0  0  0  0  0  0
   -6.4510   17.6650  -33.1260 C   0  0  0  0  0  0  0  0  0  0  0  0
   -6.0530   16.2980  -33.5420 C   0  0  0  0  0  0  0  0  0  0  0  0
   -4.7510   15.8160  -33.3220 C   0  0  0  0  0  0  0  0  0  0  0  0
   -4.3930   14.5260  -33.7200 C   0  0  0  0  0  0  0  0  0  0  0  0
   -5.3240   13.6790  -34.3530 C   0  0  0  0  0  0  0  0  0  0  0  0
   -4.9510   12.3380  -34.7690 N   0  0  0  0  0  0  0  0  0  0  0  0
   -5.2550   11.8670  -36.1260 C   0  0  0  0  0  0  0  0  0  0  0  0
   -4.2650   11.4320  -33.8400 C   0  0  0  0  0  0  0  0  0  0  0  0
   -6.6280   14.1690  -34.5720 C   0  0  0  0  0  0  0  0  0  0  0  0
   -6.9850   15.4580  -34.1720 C   0  0  0  0  0  0  0  0  0  0  0  0
   -7.7340   18.0630  -32.9980 N   0  0  0  0  0  0  0  0  0  0  0  0
   -7.7340   19.3300  -32.6180 N   0  0  0  0  0  0  0  0  0  0  0  0
   -8.9610   20.0950  -32.4170 C   0  0  0  0  0  0  0  0  0  0  0  0
   -6.9550   22.0530  -31.5870 C   0  0  0  0  0  0  0  0  0  0  0  0
   -6.5320   23.3240  -31.1870 C   0  0  0  0  0  0  0  0  0  0  0  0
   -0.7217   24.9793  -26.3976 H   0  0  0  0  0  0  0  0  0  0  0  0
   -0.6894   26.5555  -27.2586 H   0  0  0  0  0  0  0  0  0  0  0  0
   -2.1864   25.5626  -27.2586 H   0  0  0  0  0  0  0  0  0  0  0  0
    0.7524   24.0297  -27.1449 H   0  0  0  0  0  0  0  0  0  0  0  0
    0.5442   23.1095  -28.6735 H   0  0  0  0  0  0  0  0  0  0  0  0
    1.4580   24.6560  -28.6735 H   0  0  0  0  0  0  0  0  0  0  0  0
   -1.4739   23.7061  -30.0701 H   0  0  0  0  0  0  0  0  0  0  0  0
   -1.6419   23.0053  -28.4084 H   0  0  0  0  0  0  0  0  0  0  0  0
   -3.7977   23.7314  -28.6629 H   0  0  0  0  0  0  0  0  0  0  0  0
   -3.0597   25.2789  -28.0758 H   0  0  0  0  0  0  0  0  0  0  0  0
   -3.1854   23.0092  -31.8103 H   0  0  0  0  0  0  0  0  0  0  0  0
   -3.9328   20.7364  -32.5014 H   0  0  0  0  0  0  0  0  0  0  0  0
   -4.5082   18.7352  -32.8298 H   0  0  0  0  0  0  0  0  0  0  0  0
   -4.0070   16.4610  -32.8317 H   0  0  0  0  0  0  0  0  0  0  0  0
   -3.3698   14.1663  -33.5367 H   0  0  0  0  0  0  0  0  0  0  0  0
   -5.8507   10.9440  -36.0689 H   0  0  0  0  0  0  0  0  0  0  0  0
   -5.8256   12.6391  -36.6629 H   0  0  0  0  0  0  0  0  0  0  0  0
   -4.3164   11.6650  -36.6629 H   0  0  0  0  0  0  0  0  0  0  0  0
   -4.4899   11.7290  -32.8050 H   0  0  0  0  0  0  0  0  0  0  0  0
   -4.6116   10.4019  -34.0094 H   0  0  0  0  0  0  0  0  0  0  0  0
   -3.1795   11.4862  -34.0094 H   0  0  0  0  0  0  0  0  0  0  0  0
   -7.3735   13.5273  -35.0644 H   0  0  0  0  0  0  0  0  0  0  0  0
   -8.0081   15.8196  -34.3525 H   0  0  0  0  0  0  0  0  0  0  0  0
   -9.1480   20.2116  -31.3393 H   0  0  0  0  0  0  0  0  0  0  0  0
   -8.8546   21.0871  -32.8801 H   0  0  0  0  0  0  0  0  0  0  0  0
   -9.8049   19.5628  -32.8801 H   0  0  0  0  0  0  0  0  0  0  0  0
   -8.0196   21.7847  -31.5194 H   0  0  0  0  0  0  0  0  0  0  0  0
   -7.2675   24.0560  -30.8219 H   0  0  0  0  0  0  0  0  0  0  0  0
  1  2  1  0
  2  3  1  0
  2  4  1  0
  4  5  1  0
  5  6  1  0
  6  7  1  0
  7  8  2  0
  7  9  1  0
  9 10  2  0
 10 11  1  0
 11 12  2  0
 12 13  1  0
 13 14  2  0
 14 15  1  0
 15 16  1  0
 16 17  2  0
 17 18  1  0
 18 19  2  0
 19 20  1  0
 20 21  1  0
 20 22  1  0
 19 23  1  0
 23 24  2  0
 15 25  2  0
 25 26  1  0
 26 27  1  0
 12 28  1  0
 28 29  2  0
 29  9  1  0
 26 13  1  0
 24 16  1  0
  1 30  1  0
  1 31  1  0
  1 32  1  0
  3 33  1  0
  3 34  1  0
  3 35  1  0
  4 36  1  0
  4 37  1  0
  5 38  1  0
  5 39  1  0
 10 40  1  0
 11 41  1  0
 14 42  1  0
 17 43  1  0
 18 44  1  0
 21 45  1  0
 21 46  1  0
 21 47  1  0
 22 48  1  0
 22 49  1  0
 22 50  1  0
 23 51  1  0
 24 52  1  0
 27 53  1  0
 27 54  1  0
 27 55  1  0
 28 56  1  0
 29 57  1  0
M  CHG  1   6  -1
M  END
>  <UniqueID>  (30) 
30

>  <SMILES>  (30) 
CN(C)CC[N-]C(=O)c1ccc(-c2cc(-c3ccc(N(C)C)cc3)nn2C)cc1

>  <Energy>  (30) 
98.09253564085354

>  <Genealogy>  (30) 
CN(C)CC[N-]C(=O)c1ccc(-c2cc(-c3ccc(N(C)C)cc3)nn2C)cc1 (protonated)
CN(C)CC[N-]C(=O)c1ccc(-c2cc(-c3ccc(N(C)C)cc3)nn2C)cc1 (3D coordinates assigned)
CN(C)CC[N-]C(=O)c1ccc(-c2cc(-c3ccc(N(C)C)cc3)nn2C)cc1 (optimized conformer: 98.09253564085354 kcal/mol)

>  <smiles>  (30) 
CN(C)CCNC(=O)c1ccc(-c2cc(-c3ccc(N(C)C)cc3)nn2C)cc1

>  <score_type>  (30) 
oracle

>  <origin>  (30) 
adg

>  <m_score__min__energy>  (30) 
-10.130000000000001

>  <m_primary>  (30) 
energy

$$$$
30:0
     RDKit          3D

 40 43  0  0  0  0  0  0  0  0999 V2000
   -3.9730   25.6420  -30.8200 O   0  0  0  0  0  0  0  0  0  0  0  0
   -4.9290   24.8440  -30.6370 C   0  0  0  0  0  0  0  0  0  0  0  0
   -6.2870   25.2590  -30.2390 C   0  0  0  0  0  0  0  0  0  0  0  0
   -7.0550   23.9270  -30.1510 C   0  0  0  0  0  0  0  0  0  0  0  0
   -6.0440   22.7920  -30.4090 C   0  0  0  0  0  0  0  0  0  0  0  0
   -4.8050   23.4450  -30.7870 N   0  0  0  0  0  0  0  0  0  0  0  0
   -3.5790   22.7690  -30.9460 N   0  0  0  0  0  0  0  0  0  0  0  0
   -2.6270   22.8360  -29.9600 C   0  0  0  0  0  0  0  0  0  0  0  0
   -2.8970   23.5310  -28.6790 C   0  0  0  0  0  0  0  0  0  0  0  0
   -4.0320   23.1550  -27.9400 C   0  0  0  0  0  0  0  0  0  0  0  0
   -4.3710   23.8270  -26.7650 C   0  0  0  0  0  0  0  0  0  0  0  0
   -3.5830   24.8840  -26.3130 C   0  0  0  0  0  0  0  0  0  0  0  0
   -2.4500   25.2700  -27.0320 C   0  0  0  0  0  0  0  0  0  0  0  0
   -2.0870   24.5970  -28.2130 C   0  0  0  0  0  0  0  0  0  0  0  0
   -0.9340   25.0410  -28.9440 N   0  0  0  0  0  0  0  0  0  0  0  0
   -0.8750   26.2240  -29.3380 O   0  0  0  0  0  0  0  0  0  0  0  0
    0.2270   24.3050  -28.8930 O   0  0  0  0  0  0  0  0  0  0  0  0
   -1.4380   22.1980  -30.1200 N   0  0  0  0  0  0  0  0  0  0  0  0
   -1.1490   21.5070  -31.2480 C   0  0  0  0  0  0  0  0  0  0  0  0
    0.0930   20.8740  -31.3830 C   0  0  0  0  0  0  0  0  0  0  0  0
    0.3930   20.1620  -32.5480 C   0  0  0  0  0  0  0  0  0  0  0  0
   -0.5460   20.0790  -33.5810 C   0  0  0  0  0  0  0  0  0  0  0  0
   -1.7890   20.7070  -33.4540 C   0  0  0  0  0  0  0  0  0  0  0  0
   -2.1000   21.4260  -32.2840 C   0  0  0  0  0  0  0  0  0  0  0  0
   -3.3310   22.0780  -32.1040 C   0  0  0  0  0  0  0  0  0  0  0  0
   -4.2060   22.0420  -33.0140 O   0  0  0  0  0  0  0  0  0  0  0  0
   -6.2729   25.7705  -29.2652 H   0  0  0  0  0  0  0  0  0  0  0  0
   -6.7420   25.9718  -30.9425 H   0  0  0  0  0  0  0  0  0  0  0  0
   -7.4988   23.8146  -29.1508 H   0  0  0  0  0  0  0  0  0  0  0  0
   -7.8675   23.8983  -30.8919 H   0  0  0  0  0  0  0  0  0  0  0  0
   -5.8990   22.1936  -29.4975 H   0  0  0  0  0  0  0  0  0  0  0  0
   -6.3963   22.1065  -31.1939 H   0  0  0  0  0  0  0  0  0  0  0  0
   -4.6593   22.3226  -28.2915 H   0  0  0  0  0  0  0  0  0  0  0  0
   -5.2610   23.5222  -26.1949 H   0  0  0  0  0  0  0  0  0  0  0  0
   -3.8540   25.4149  -25.3885 H   0  0  0  0  0  0  0  0  0  0  0  0
   -1.8355   26.1082  -26.6717 H   0  0  0  0  0  0  0  0  0  0  0  0
    0.8331   20.9371  -30.5716 H   0  0  0  0  0  0  0  0  0  0  0  0
    1.3693   19.6662  -32.6524 H   0  0  0  0  0  0  0  0  0  0  0  0
   -0.3061   19.5180  -34.4963 H   0  0  0  0  0  0  0  0  0  0  0  0
   -2.5246   20.6392  -34.2690 H   0  0  0  0  0  0  0  0  0  0  0  0
  1  2  2  0
  2  3  1  0
  3  4  1  0
  4  5  1  0
  5  6  1  0
  6  7  1  0
  7  8  1  0
  8  9  1  0
  9 10  2  0
 10 11  1  0
 11 12  2  0
 12 13  1  0
 13 14  2  0
 14 15  1  0
 15 16  2  0
 15 17  1  0
  8 18  2  0
 18 19  1  0
 19 20  2  0
 20 21  1  0
 21 22  2  0
 22 23  1  0
 23 24  2  0
 24 25  1  0
 25 26  2  0
  6  2  1  0
 25  7  1  0
 14  9  1  0
 24 19  1  0
  3 27  1  0
  3 28  1  0
  4 29  1  0
  4 30  1  0
  5 31  1  0
  5 32  1  0
 10 33  1  0
 11 34  1  0
 12 35  1  0
 13 36  1  0
 20 37  1  0
 21 38  1  0
 22 39  1  0
 23 40  1  0
M  CHG  2  15   1  17  -1
M  END
>  <UniqueID>  (31) 
31

>  <SMILES>  (31) 
O=C1CCCN1n1c(-c2ccccc2[N+](=O)[O-])nc2ccccc2c1=O

>  <Energy>  (31) 
75.03294045122918

>  <Genealogy>  (31) 
O=C1CCCN1n1c(-c2ccccc2[N+](=O)[O-])nc2ccccc2c1=O (3D coordinates assigned)
O=C1CCCN1n1c(-c2ccccc2[N+](=O)[O-])nc2ccccc2c1=O (nonaromatic ring conformer: 75.03294045122918 kcal/mol)

>  <smiles>  (31) 
O=C1CCCN1n1c(-c2ccccc2[N+](=O)[O-])nc2ccccc2c1=O

>  <score_type>  (31) 
oracle

>  <origin>  (31) 
adg

>  <m_score__min__energy>  (31) 
-8.6199999999999992

>  <m_primary>  (31) 
energy

$$$$
31:0
     RDKit          3D

 48 50  0  0  0  0  0  0  0  0999 V2000
   -0.5024   24.6647  -27.6489 H   0  0  0  0  0  0  0  0  0  0  0  0
   -1.3800   24.3760  -28.2460 C   0  0  0  0  0  0  0  0  0  0  0  0
   -2.0050   25.2410  -29.0880 N   0  0  0  0  0  0  0  0  0  0  0  0
   -3.0560   24.6540  -29.7020 C   0  0  0  0  0  0  0  0  0  0  0  0
   -3.8640   25.2720  -30.5090 N   0  0  0  0  0  0  0  0  0  0  0  0
   -5.2920   25.1790  -30.4430 C   0  0  0  0  0  0  0  0  0  0  0  0
   -5.9450   26.1710  -30.0250 O   0  0  0  0  0  0  0  0  0  0  0  0
   -6.0040   23.9270  -30.7900 C   0  0  0  0  0  0  0  0  0  0  0  0
   -7.0470   23.4490  -29.9800 C   0  0  0  0  0  0  0  0  0  0  0  0
   -7.2864   23.9630  -29.0374 H   0  0  0  0  0  0  0  0  0  0  0  0
   -7.7830   22.3240  -30.3640 C   0  0  0  0  0  0  0  0  0  0  0  0
   -8.6229   21.9821  -29.7414 H   0  0  0  0  0  0  0  0  0  0  0  0
   -7.4570   21.6270  -31.5400 C   0  0  0  0  0  0  0  0  0  0  0  0
   -8.2940   20.4610  -32.0060 C   0  0  0  0  0  0  0  0  0  0  0  0
   -8.7718   20.7275  -32.9603 H   0  0  0  0  0  0  0  0  0  0  0  0
   -9.0420   20.2510  -31.2273 H   0  0  0  0  0  0  0  0  0  0  0  0
   -7.4880   19.2340  -32.2030 N   0  0  0  0  0  0  0  0  0  0  0  0
   -8.3420   18.0510  -31.9970 C   0  0  0  0  0  0  0  0  0  0  0  0
   -8.4696   17.8742  -30.9188 H   0  0  0  0  0  0  0  0  0  0  0  0
   -9.3252   18.2235  -32.4592 H   0  0  0  0  0  0  0  0  0  0  0  0
   -7.8687   17.1721  -32.4592 H   0  0  0  0  0  0  0  0  0  0  0  0
   -6.8680   19.1830  -33.5480 C   0  0  0  0  0  0  0  0  0  0  0  0
   -6.6567   20.2074  -33.8885 H   0  0  0  0  0  0  0  0  0  0  0  0
   -7.5636   18.6890  -34.2423 H   0  0  0  0  0  0  0  0  0  0  0  0
   -5.5850   18.4010  -33.5060 C   0  0  0  0  0  0  0  0  0  0  0  0
   -5.4160   17.0320  -33.6580 C   0  0  0  0  0  0  0  0  0  0  0  0
   -6.4910   16.0140  -33.8550 C   0  0  0  0  0  0  0  0  0  0  0  0
   -6.8542   15.6700  -32.8753 H   0  0  0  0  0  0  0  0  0  0  0  0
   -7.3228   16.4632  -34.4174 H   0  0  0  0  0  0  0  0  0  0  0  0
   -6.0877   15.1590  -34.4174 H   0  0  0  0  0  0  0  0  0  0  0  0
   -4.1100   16.7190  -33.5380 N   0  0  0  0  0  0  0  0  0  0  0  0
   -3.4460   17.8430  -33.3150 N   0  0  0  0  0  0  0  0  0  0  0  0
   -1.9930   17.9070  -33.2080 C   0  0  0  0  0  0  0  0  0  0  0  0
   -1.7037   17.9197  -32.1468 H   0  0  0  0  0  0  0  0  0  0  0  0
   -1.5501   17.0275  -33.6982 H   0  0  0  0  0  0  0  0  0  0  0  0
   -1.6292   18.8220  -33.6982 H   0  0  0  0  0  0  0  0  0  0  0  0
   -4.3040   18.8860  -33.2940 C   0  0  0  0  0  0  0  0  0  0  0  0
   -3.9010   20.3170  -33.0900 C   0  0  0  0  0  0  0  0  0  0  0  0
   -3.8407   20.5309  -32.0127 H   0  0  0  0  0  0  0  0  0  0  0  0
   -2.9189   20.4911  -33.5539 H   0  0  0  0  0  0  0  0  0  0  0  0
   -4.6479   20.9780  -33.5539 H   0  0  0  0  0  0  0  0  0  0  0  0
   -6.4130   22.1050  -32.3470 C   0  0  0  0  0  0  0  0  0  0  0  0
   -6.1583   21.5782  -33.2784 H   0  0  0  0  0  0  0  0  0  0  0  0
   -5.6950   23.2440  -31.9770 C   0  0  0  0  0  0  0  0  0  0  0  0
   -4.8810   23.6089  -32.6206 H   0  0  0  0  0  0  0  0  0  0  0  0
   -3.2550   23.0570  -29.2310 S   0  0  0  0  0  0  0  0  0  0  0  0
   -1.9300   23.1000  -28.1940 C   0  0  0  0  0  0  0  0  0  0  0  0
   -1.5628   22.2635  -27.5813 H   0  0  0  0  0  0  0  0  0  0  0  0
  1  2  1  0
  2  3  1  0
  3  4  1  0
  4  5  2  0
  5  6  1  0
  6  7  2  0
  6  8  1  0
  8  9  2  0
  9 10  1  0
  9 11  1  0
 11 12  1  0
 11 13  2  0
 13 14  1  0
 14 15  1  0
 14 16  1  0
 14 17  1  0
 17 18  1  0
 18 19  1  0
 18 20  1  0
 18 21  1  0
 17 22  1  0
 22 23  1  0
 22 24  1  0
 22 25  1  0
 25 26  1  0
 26 27  1  0
 27 28  1  0
 27 29  1  0
 27 30  1  0
 26 31  2  0
 31 32  1  0
 32 33  1  0
 33 34  1  0
 33 35  1  0
 33 36  1  0
 32 37  1  0
 37 38  1  0
 38 39  1  0
 38 40  1  0
 38 41  1  0
 13 42  1  0
 42 43  1  0
 42 44  2  0
 44 45  1  0
  4 46  1  0
 46 47  1  0
 47 48  1  0
 47  2  2  0
 44  8  1  0
 37 25  2  0
M  CHG  1   3  -1
M  END
>  <UniqueID>  (32) 
32

>  <SMILES>  (32) 
Cc1nn(C)c(C)c1CN(C)Cc1ccc(C(=O)/N=c2\[n-]ccs2)cc1

>  <Energy>  (32) 
111.9411318945819

>  <Genealogy>  (32) 
Cc1nn(C)c(C)c1CN(C)Cc1ccc(C(=O)N=c2[n-]ccs2)cc1 (protonated)
Cc1nn(C)c(C)c1CN(C)Cc1ccc(C(=O)/N=c2\[n-]ccs2)cc1 (cis-trans isomerization)
Cc1nn(C)c(C)c1CN(C)Cc1ccc(C(=O)/N=c2\[n-]ccs2)cc1 (3D coordinates assigned)
Cc1nn(C)c(C)c1CN(C)Cc1ccc(C(=O)/N=c2\[n-]ccs2)cc1 (optimized conformer: 111.9411318945819 kcal/mol)

>  <smiles>  (32) 
Cc1nn(C)c(C)c1CN(C)Cc1ccc(C(=O)N=c2[nH]ccs2)cc1

>  <score_type>  (32) 
oracle

>  <origin>  (32) 
adg

>  <m_score__min__energy>  (32) 
-11.1

>  <m_primary>  (32) 
energy

$$$$
32:0
     RDKit          3D

 19 20  0  0  0  0  0  0  0  0999 V2000
   -2.6190   24.1540  -29.7010 C   0  0  0  0  0  0  0  0  0  0  0  0
   -3.4870   24.9890  -30.4570 O   0  0  0  0  0  0  0  0  0  0  0  0
   -4.8740   24.8160  -30.4740 C   0  0  0  0  0  0  0  0  0  0  0  0
   -5.8460   25.6100  -29.8630 C   0  0  0  0  0  0  0  0  0  0  0  0
   -7.0790   25.1090  -30.1150 N   0  0  0  0  0  0  0  0  0  0  0  0
   -6.8790   24.0180  -30.8750 C   0  0  0  0  0  0  0  0  0  0  0  0
   -7.8350   23.1920  -31.3690 N   0  0  0  0  0  0  0  0  0  0  0  0
   -7.4400   22.1230  -32.1260 C   0  0  0  0  0  0  0  0  0  0  0  0
   -6.1110   21.9000  -32.3750 N   0  0  0  0  0  0  0  0  0  0  0  0
   -5.1450   22.7280  -31.8790 C   0  0  0  0  0  0  0  0  0  0  0  0
   -5.5540   23.8090  -31.1130 C   0  0  0  0  0  0  0  0  0  0  0  0
   -2.7925   24.3209  -28.6277 H   0  0  0  0  0  0  0  0  0  0  0  0
   -2.8192   23.1003  -29.9453 H   0  0  0  0  0  0  0  0  0  0  0  0
   -1.5739   24.3948  -29.9453 H   0  0  0  0  0  0  0  0  0  0  0  0
   -5.6408   26.5101  -29.2649 H   0  0  0  0  0  0  0  0  0  0  0  0
   -7.9940   25.4930  -29.7870 H   0  0  0  0  0  0  0  0  0  0  0  0
   -8.8460   23.3650  -31.1770 H   0  0  0  0  0  0  0  0  0  0  0  0
   -8.1950   21.4372  -32.5379 H   0  0  0  0  0  0  0  0  0  0  0  0
   -4.0794   22.5438  -32.0802 H   0  0  0  0  0  0  0  0  0  0  0  0
  1  2  1  0
  2  3  1  0
  3  4  2  0
  4  5  1  0
  5  6  1  0
  6  7  2  0
  7  8  1  0
  8  9  2  0
  9 10  1  0
 10 11  2  0
 11  3  1  0
 11  6  1  0
  1 12  1  0
  1 13  1  0
  1 14  1  0
  4 15  1  0
  5 16  1  0
  7 17  1  0
  8 18  1  0
 10 19  1  0
M  CHG  1   7   1
M  END
>  <UniqueID>  (33) 
33

>  <SMILES>  (33) 
COc1c[nH]c2[nH+]cncc12

>  <Energy>  (33) 
54.14303506737408

>  <Genealogy>  (33) 
COc1c[nH]c2[nH+]cncc12 (protonated)
COc1c[nH]c2[nH+]cncc12 (3D coordinates assigned)
COc1c[nH]c2[nH+]cncc12 (optimized conformer: 54.14303506737408 kcal/mol)

>  <smiles>  (33) 
COc1c[nH]c2ncncc12

>  <score_type>  (33) 
oracle

>  <origin>  (33) 
adg

>  <m_score__min__energy>  (33) 
-4.1600000000000001

>  <m_primary>  (33) 
energy

$$$$
33:0
     RDKit          3D

 43 45  0  0  0  0  0  0  0  0999 V2000
   -4.2890   24.4820  -27.8520 C   0  0  0  0  0  0  0  0  0  0  0  0
   -4.0850   23.9690  -29.2120 N   0  0  0  0  0  0  0  0  0  0  0  0
   -4.7160   24.5950  -30.3520 C   0  0  0  0  0  0  0  0  0  0  0  0
   -4.2360   25.6710  -30.8080 O   0  0  0  0  0  0  0  0  0  0  0  0
   -5.9850   24.0430  -30.9770 C   0  0  0  0  0  0  0  0  0  0  0  0
   -5.6730   23.3530  -32.3330 C   0  0  0  0  0  0  0  0  0  0  0  0
   -5.8050   21.8270  -32.2680 C   0  0  0  0  0  0  0  0  0  0  0  0
   -7.1370   21.4560  -31.7680 N   0  0  0  0  0  0  0  0  0  0  0  0
   -7.8990   20.4010  -32.3870 C   0  0  0  0  0  0  0  0  0  0  0  0
   -9.1530   20.5100  -32.4700 O   0  0  0  0  0  0  0  0  0  0  0  0
   -7.2640   19.1770  -32.9150 C   0  0  0  0  0  0  0  0  0  0  0  0
   -7.5340   17.8610  -32.5450 C   0  0  0  0  0  0  0  0  0  0  0  0
   -6.8020   16.9180  -33.2780 C   0  0  0  0  0  0  0  0  0  0  0  0
   -5.9660   17.4780  -34.2360 C   0  0  0  0  0  0  0  0  0  0  0  0
   -6.1420   19.1480  -34.1690 S   0  0  0  0  0  0  0  0  0  0  0  0
   -7.7630   22.2420  -30.6930 C   0  0  0  0  0  0  0  0  0  0  0  0
   -6.7310   23.1220  -29.9810 C   0  0  0  0  0  0  0  0  0  0  0  0
   -3.2550   22.8070  -29.4110 C   0  0  0  0  0  0  0  0  0  0  0  0
   -2.5890   22.6050  -30.6330 C   0  0  0  0  0  0  0  0  0  0  0  0
   -1.7900   21.4730  -30.8220 C   0  0  0  0  0  0  0  0  0  0  0  0
   -1.6490   20.5350  -29.7960 C   0  0  0  0  0  0  0  0  0  0  0  0
   -2.3090   20.7260  -28.5780 C   0  0  0  0  0  0  0  0  0  0  0  0
   -3.1110   21.8560  -28.3860 C   0  0  0  0  0  0  0  0  0  0  0  0
   -3.9849   23.7172  -27.1222 H   0  0  0  0  0  0  0  0  0  0  0  0
   -3.6829   25.3885  -27.7073 H   0  0  0  0  0  0  0  0  0  0  0  0
   -5.3521   24.7247  -27.7073 H   0  0  0  0  0  0  0  0  0  0  0  0
   -6.6684   24.8753  -31.2010 H   0  0  0  0  0  0  0  0  0  0  0  0
   -6.3735   23.7343  -33.0906 H   0  0  0  0  0  0  0  0  0  0  0  0
   -4.6286   23.5842  -32.5894 H   0  0  0  0  0  0  0  0  0  0  0  0
   -5.6641   21.4064  -33.2746 H   0  0  0  0  0  0  0  0  0  0  0  0
   -5.0402   21.4282  -31.5853 H   0  0  0  0  0  0  0  0  0  0  0  0
   -8.2506   17.5896  -31.7558 H   0  0  0  0  0  0  0  0  0  0  0  0
   -6.8818   15.8338  -33.1105 H   0  0  0  0  0  0  0  0  0  0  0  0
   -5.3045   16.9249  -34.9190 H   0  0  0  0  0  0  0  0  0  0  0  0
   -8.5449   22.8835  -31.1255 H   0  0  0  0  0  0  0  0  0  0  0  0
   -8.1959   21.5470  -29.9585 H   0  0  0  0  0  0  0  0  0  0  0  0
   -7.2466   23.7453  -29.2356 H   0  0  0  0  0  0  0  0  0  0  0  0
   -5.9918   22.4651  -29.4992 H   0  0  0  0  0  0  0  0  0  0  0  0
   -2.6970   23.3406  -31.4437 H   0  0  0  0  0  0  0  0  0  0  0  0
   -1.2716   21.3207  -31.7801 H   0  0  0  0  0  0  0  0  0  0  0  0
   -1.0187   19.6461  -29.9464 H   0  0  0  0  0  0  0  0  0  0  0  0
   -2.1975   19.9874  -27.7705 H   0  0  0  0  0  0  0  0  0  0  0  0
   -3.6316   22.0011  -27.4279 H   0  0  0  0  0  0  0  0  0  0  0  0
  1  2  1  0
  2  3  1  0
  3  4  2  0
  3  5  1  0
  5  6  1  0
  6  7  1  0
  7  8  1  0
  8  9  1  0
  9 10  2  0
  9 11  1  0
 11 12  2  0
 12 13  1  0
 13 14  2  0
 14 15  1  0
  8 16  1  0
 16 17  1  0
  2 18  1  0
 18 19  2  0
 19 20  1  0
 20 21  2  0
 21 22  1  0
 22 23  2  0
 17  5  1  0
 23 18  1  0
 15 11  1  0
  1 24  1  0
  1 25  1  0
  1 26  1  0
  5 27  1  0
  6 28  1  0
  6 29  1  0
  7 30  1  0
  7 31  1  0
 12 32  1  0
 13 33  1  0
 14 34  1  0
 16 35  1  0
 16 36  1  0
 17 37  1  0
 17 38  1  0
 19 39  1  0
 20 40  1  0
 21 41  1  0
 22 42  1  0
 23 43  1  0
M  END
>  <UniqueID>  (34) 
34

>  <SMILES>  (34) 
CN(C(=O)C1CCN(C(=O)c2cccs2)CC1)c1ccccc1

>  <Energy>  (34) 
82.00228745888415

>  <Genealogy>  (34) 
CN(C(=O)C1CCN(C(=O)c2cccs2)CC1)c1ccccc1 (3D coordinates assigned)
CN(C(=O)C1CCN(C(=O)c2cccs2)CC1)c1ccccc1 (nonaromatic ring conformer: 82.00228745888415 kcal/mol)

>  <smiles>  (34) 
CN(C(=O)C1CCN(C(=O)c2cccs2)CC1)c1ccccc1

>  <score_type>  (34) 
oracle

>  <origin>  (34) 
adg

>  <m_score__min__energy>  (34) 
-9.2899999999999991

>  <m_primary>  (34) 
energy

$$$$
34:0
     RDKit          3D

 41 43  0  0  0  0  0  0  0  0999 V2000
   -1.7110   25.3840  -25.4300 C   0  0  0  0  0  0  0  0  0  0  0  0
   -2.5040   24.9470  -26.6250 C   0  0  0  0  0  0  0  0  0  0  0  0
   -1.8740   24.6530  -27.8370 C   0  0  0  0  0  0  0  0  0  0  0  0
   -2.6140   24.2980  -28.9180 N   0  0  0  0  0  0  0  0  0  0  0  0
   -3.9720   24.2240  -28.8530 C   0  0  0  0  0  0  0  0  0  0  0  0
   -4.7220   23.8540  -30.0240 N   0  0  0  0  0  0  0  0  0  0  0  0
   -5.7210   24.7900  -30.5580 C   0  0  0  0  0  0  0  0  0  0  0  0
   -6.5720   24.1240  -31.6430 C   0  0  0  0  0  0  0  0  0  0  0  0
   -6.8260   22.7260  -31.2570 N   0  0  0  0  0  0  0  0  0  0  0  0
   -7.9650   22.1070  -31.9700 C   0  0  0  0  0  0  0  0  0  0  0  0
   -7.8160   20.6150  -32.1950 C   0  0  0  0  0  0  0  0  0  0  0  0
   -6.9880   20.1280  -33.2220 C   0  0  0  0  0  0  0  0  0  0  0  0
   -6.8560   18.7510  -33.4290 C   0  0  0  0  0  0  0  0  0  0  0  0
   -7.5560   17.8510  -32.6210 C   0  0  0  0  0  0  0  0  0  0  0  0
   -8.3930   18.3260  -31.6080 C   0  0  0  0  0  0  0  0  0  0  0  0
   -8.5270   19.7010  -31.3980 C   0  0  0  0  0  0  0  0  0  0  0  0
   -5.5970   21.9000  -31.2870 C   0  0  0  0  0  0  0  0  0  0  0  0
   -4.3470   22.6790  -30.8220 C   0  0  0  0  0  0  0  0  0  0  0  0
   -4.6070   24.5430  -27.6880 N   0  0  0  0  0  0  0  0  0  0  0  0
   -3.9010   24.9020  -26.5830 C   0  0  0  0  0  0  0  0  0  0  0  0
   -2.2410   25.0919  -24.5114 H   0  0  0  0  0  0  0  0  0  0  0  0
   -0.7216   24.9037  -25.4509 H   0  0  0  0  0  0  0  0  0  0  0  0
   -1.5886   26.4770  -25.4509 H   0  0  0  0  0  0  0  0  0  0  0  0
   -0.7782   24.7093  -27.9151 H   0  0  0  0  0  0  0  0  0  0  0  0
   -6.3768   25.1218  -29.7396 H   0  0  0  0  0  0  0  0  0  0  0  0
   -5.1952   25.6480  -31.0023 H   0  0  0  0  0  0  0  0  0  0  0  0
   -7.5278   24.6591  -31.7433 H   0  0  0  0  0  0  0  0  0  0  0  0
   -6.0404   24.1547  -32.6056 H   0  0  0  0  0  0  0  0  0  0  0  0
   -8.8769   22.2781  -31.3790 H   0  0  0  0  0  0  0  0  0  0  0  0
   -8.0097   22.5753  -32.9643 H   0  0  0  0  0  0  0  0  0  0  0  0
   -6.4416   20.8332  -33.8655 H   0  0  0  0  0  0  0  0  0  0  0  0
   -6.2004   18.3761  -34.2288 H   0  0  0  0  0  0  0  0  0  0  0  0
   -7.4480   16.7683  -32.7825 H   0  0  0  0  0  0  0  0  0  0  0  0
   -8.9469   17.6169  -30.9753 H   0  0  0  0  0  0  0  0  0  0  0  0
   -9.1929   20.0704  -30.6042 H   0  0  0  0  0  0  0  0  0  0  0  0
   -5.7387   21.0333  -30.6247 H   0  0  0  0  0  0  0  0  0  0  0  0
   -5.4285   21.5907  -32.3291 H   0  0  0  0  0  0  0  0  0  0  0  0
   -3.7173   22.0158  -30.2107 H   0  0  0  0  0  0  0  0  0  0  0  0
   -3.7983   23.0218  -31.7116 H   0  0  0  0  0  0  0  0  0  0  0  0
   -5.6500   24.5520  -27.6360 H   0  0  0  0  0  0  0  0  0  0  0  0
   -4.4302   25.1578  -25.6532 H   0  0  0  0  0  0  0  0  0  0  0  0
  1  2  1  0
  2  3  2  0
  3  4  1  0
  4  5  2  0
  5  6  1  0
  6  7  1  0
  7  8  1  0
  8  9  1  0
  9 10  1  0
 10 11  1  0
 11 12  2  0
 12 13  1  0
 13 14  2  0
 14 15  1  0
 15 16  2  0
  9 17  1  0
 17 18  1  0
  5 19  1  0
 19 20  2  0
 20  2  1  0
 18  6  1  0
 16 11  1  0
  1 21  1  0
  1 22  1  0
  1 23  1  0
  3 24  1  0
  7 25  1  0
  7 26  1  0
  8 27  1  0
  8 28  1  0
 10 29  1  0
 10 30  1  0
 12 31  1  0
 13 32  1  0
 14 33  1  0
 15 34  1  0
 16 35  1  0
 17 36  1  0
 17 37  1  0
 18 38  1  0
 18 39  1  0
 19 40  1  0
 20 41  1  0
M  CHG  1  19   1
M  END
>  <UniqueID>  (35) 
35

>  <SMILES>  (35) 
Cc1cnc(N2CCN(Cc3ccccc3)CC2)[nH+]c1

>  <Energy>  (35) 
53.06661544263767

>  <Genealogy>  (35) 
Cc1cnc(N2CCN(Cc3ccccc3)CC2)[nH+]c1 (protonated)
Cc1cnc(N2CCN(Cc3ccccc3)CC2)[nH+]c1 (3D coordinates assigned)
Cc1cnc(N2CCN(Cc3ccccc3)CC2)[nH+]c1 (nonaromatic ring conformer: 53.06661544263767 kcal/mol)

>  <smiles>  (35) 
Cc1cnc(N2CCN(Cc3ccccc3)CC2)nc1

>  <score_type>  (35) 
oracle

>  <origin>  (35) 
adg

>  <m_score__min__energy>  (35) 
-6.9500000000000002

>  <m_primary>  (35) 
energy

$$$$
35:0
     RDKit          3D

 37 38  0  0  0  0  0  0  0  0999 V2000
   -6.1210   25.6670  -29.8970 C   0  0  0  0  0  0  0  0  0  0  0  0
   -5.0580   24.9750  -30.6800 C   0  0  0  0  0  0  0  0  0  0  0  0
   -3.8510   25.2900  -30.4970 O   0  0  0  0  0  0  0  0  0  0  0  0
   -5.4280   24.0210  -31.6400 O   0  0  0  0  0  0  0  0  0  0  0  0
   -5.9700   22.7150  -31.3810 C   0  0  2  0  0  0  0  0  0  0  0  0
   -7.0640   22.8830  -30.3070 C   0  0  0  0  0  0  0  0  0  0  0  0
   -4.8730   21.7490  -30.8390 C   0  0  0  0  0  0  0  0  0  0  0  0
   -3.6550   21.6690  -31.7160 C   0  0  0  0  0  0  0  0  0  0  0  0
   -3.6400   21.6640  -33.0940 C   0  0  0  0  0  0  0  0  0  0  0  0
   -2.3620   21.5900  -33.4920 N   0  0  0  0  0  0  0  0  0  0  0  0
   -1.6330   21.5500  -32.3610 C   0  0  0  0  0  0  0  0  0  0  0  0
   -2.3930   21.5960  -31.2470 N   0  0  0  0  0  0  0  0  0  0  0  0
   -6.5870   22.1010  -32.6770 C   0  0  0  0  0  0  0  0  0  0  0  0
   -7.3510   20.8080  -32.4590 C   0  0  0  0  0  0  0  0  0  0  0  0
   -6.6830   19.5660  -32.5210 C   0  0  0  0  0  0  0  0  0  0  0  0
   -5.3560   19.5040  -32.7990 F   0  0  0  0  0  0  0  0  0  0  0  0
   -7.3830   18.3750  -32.3030 C   0  0  0  0  0  0  0  0  0  0  0  0
   -8.7520   18.4050  -32.0350 C   0  0  0  0  0  0  0  0  0  0  0  0
   -9.4290   19.6240  -31.9970 C   0  0  0  0  0  0  0  0  0  0  0  0
   -8.7390   20.8210  -32.2130 C   0  0  0  0  0  0  0  0  0  0  0  0
   -9.4380   21.9830  -32.2220 F   0  0  0  0  0  0  0  0  0  0  0  0
   -5.9259   25.5400  -28.8219 H   0  0  0  0  0  0  0  0  0  0  0  0
   -6.1208   26.7385  -30.1456 H   0  0  0  0  0  0  0  0  0  0  0  0
   -7.1008   25.2331  -30.1456 H   0  0  0  0  0  0  0  0  0  0  0  0
   -6.6102   22.8133  -29.3074 H   0  0  0  0  0  0  0  0  0  0  0  0
   -7.5447   23.8655  -30.4238 H   0  0  0  0  0  0  0  0  0  0  0  0
   -7.8173   22.0900  -30.4238 H   0  0  0  0  0  0  0  0  0  0  0  0
   -4.5624   22.0991  -29.8435 H   0  0  0  0  0  0  0  0  0  0  0  0
   -5.3157   20.7425  -30.8092 H   0  0  0  0  0  0  0  0  0  0  0  0
   -4.5208   21.7122  -33.7511 H   0  0  0  0  0  0  0  0  0  0  0  0
   -2.0070   21.5650  -34.4740 H   0  0  0  0  0  0  0  0  0  0  0  0
   -0.5349   21.4866  -32.3465 H   0  0  0  0  0  0  0  0  0  0  0  0
   -7.2774   22.8388  -33.1117 H   0  0  0  0  0  0  0  0  0  0  0  0
   -5.7437   21.8580  -33.3401 H   0  0  0  0  0  0  0  0  0  0  0  0
   -6.8529   17.4120  -32.3429 H   0  0  0  0  0  0  0  0  0  0  0  0
   -9.2975   17.4672  -31.8536 H   0  0  0  0  0  0  0  0  0  0  0  0
  -10.5103   19.6438  -31.7963 H   0  0  0  0  0  0  0  0  0  0  0  0
  1  2  1  0
  2  3  2  0
  2  4  1  0
  5  4  1  6
  5  6  1  0
  5  7  1  0
  7  8  1  0
  8  9  2  0
  9 10  1  0
 10 11  1  0
 11 12  2  0
  5 13  1  0
 13 14  1  0
 14 15  2  0
 15 16  1  0
 15 17  1  0
 17 18  2  0
 18 19  1  0
 19 20  2  0
 20 21  1  0
 12  8  1  0
 20 14  1  0
  1 22  1  0
  1 23  1  0
  1 24  1  0
  6 25  1  0
  6 26  1  0
  6 27  1  0
  7 28  1  0
  7 29  1  0
  9 30  1  0
 10 31  1  0
 11 32  1  0
 13 33  1  0
 13 34  1  0
 17 35  1  0
 18 36  1  0
 19 37  1  0
M  END
>  <UniqueID>  (36) 
36

>  <SMILES>  (36) 
CC(=O)O[C@](C)(Cc1c[nH]cn1)Cc1c(F)cccc1F

>  <Energy>  (36) 
63.17320552932045

>  <Genealogy>  (36) 
CC(=O)O[C@](C)(Cc1c[nH]cn1)Cc1c(F)cccc1F (chirality)
CC(=O)O[C@](C)(Cc1c[nH]cn1)Cc1c(F)cccc1F (3D coordinates assigned)
CC(=O)O[C@](C)(Cc1c[nH]cn1)Cc1c(F)cccc1F (optimized conformer: 63.17320552932045 kcal/mol)

>  <smiles>  (36) 
CC(=O)OC(C)(Cc1c[nH]cn1)Cc1c(F)cccc1F

>  <score_type>  (36) 
oracle

>  <origin>  (36) 
adg

>  <m_score__min__energy>  (36) 
-7.8399999999999999

>  <m_primary>  (36) 
energy

$$$$
36:0
     RDKit          3D

 38 40  0  0  0  0  0  0  0  0999 V2000
   -1.5610   21.7100  -28.5980 C   0  0  0  0  0  0  0  0  0  0  0  0
   -2.6680   22.6990  -28.8110 C   0  0  0  0  0  0  0  0  0  0  0  0
   -3.2880   23.2980  -27.7080 C   0  0  0  0  0  0  0  0  0  0  0  0
   -4.3360   24.2010  -27.8940 C   0  0  0  0  0  0  0  0  0  0  0  0
   -4.7940   24.4930  -29.1820 C   0  0  0  0  0  0  0  0  0  0  0  0
   -6.1240   25.6230  -29.3810 Cl  0  0  0  0  0  0  0  0  0  0  0  0
   -4.2110   23.8720  -30.3000 C   0  0  0  0  0  0  0  0  0  0  0  0
   -4.7420   24.1540  -31.5730 O   0  0  0  0  0  0  0  0  0  0  0  0
   -5.9910   23.6890  -32.0920 C   0  0  0  0  0  0  0  0  0  0  0  0
   -6.4910   22.4420  -31.3440 C   0  0  0  0  0  0  0  0  0  0  0  0
   -6.4610   21.2360  -32.2000 N   0  0  0  0  0  0  0  0  0  0  0  0
   -7.6150   20.5240  -32.5050 C   0  0  0  0  0  0  0  0  0  0  0  0
   -8.9810   21.0060  -32.0810 C   0  0  0  0  0  0  0  0  0  0  0  0
   -7.5400   19.3670  -33.2360 N   0  0  0  0  0  0  0  0  0  0  0  0
   -6.3390   18.9140  -33.6690 C   0  0  0  0  0  0  0  0  0  0  0  0
   -6.1310   17.7410  -34.4030 C   0  0  0  0  0  0  0  0  0  0  0  0
   -4.7850   17.5360  -34.7030 C   0  0  0  0  0  0  0  0  0  0  0  0
   -3.8740   18.8080  -34.0560 S   0  0  0  0  0  0  0  0  0  0  0  0
   -5.1940   19.6160  -33.4010 C   0  0  0  0  0  0  0  0  0  0  0  0
   -5.2430   20.7890  -32.6680 C   0  0  0  0  0  0  0  0  0  0  0  0
   -4.1760   21.4190  -32.4250 O   0  0  0  0  0  0  0  0  0  0  0  0
   -3.1260   22.9930  -30.1050 C   0  0  0  0  0  0  0  0  0  0  0  0
   -1.4002   21.5663  -27.5193 H   0  0  0  0  0  0  0  0  0  0  0  0
   -1.8338   20.7493  -29.0592 H   0  0  0  0  0  0  0  0  0  0  0  0
   -0.6370   22.0889  -29.0592 H   0  0  0  0  0  0  0  0  0  0  0  0
   -2.9478   23.0560  -26.6903 H   0  0  0  0  0  0  0  0  0  0  0  0
   -4.8033   24.6847  -27.0236 H   0  0  0  0  0  0  0  0  0  0  0  0
   -6.7390   24.4891  -31.9902 H   0  0  0  0  0  0  0  0  0  0  0  0
   -5.8432   23.4182  -33.1479 H   0  0  0  0  0  0  0  0  0  0  0  0
   -5.8487   22.2719  -30.4673 H   0  0  0  0  0  0  0  0  0  0  0  0
   -7.5339   22.6204  -31.0431 H   0  0  0  0  0  0  0  0  0  0  0  0
   -9.0381   21.0262  -30.9827 H   0  0  0  0  0  0  0  0  0  0  0  0
   -9.1514   22.0185  -32.4757 H   0  0  0  0  0  0  0  0  0  0  0  0
   -9.7491   20.3246  -32.4757 H   0  0  0  0  0  0  0  0  0  0  0  0
   -8.4030   18.8240  -33.4650 H   0  0  0  0  0  0  0  0  0  0  0  0
   -6.9376   17.0583  -34.7085 H   0  0  0  0  0  0  0  0  0  0  0  0
   -4.3799   16.6844  -35.2692 H   0  0  0  0  0  0  0  0  0  0  0  0
   -2.6339   22.5334  -30.9748 H   0  0  0  0  0  0  0  0  0  0  0  0
  1  2  1  0
  2  3  2  0
  3  4  1  0
  4  5  2  0
  5  6  1  0
  5  7  1  0
  7  8  1  0
  8  9  1  0
  9 10  1  0
 10 11  1  0
 11 12  1  0
 12 13  1  0
 12 14  2  0
 14 15  1  0
 15 16  1  0
 16 17  2  0
 17 18  1  0
 18 19  1  0
 19 20  1  0
 20 21  2  0
  7 22  2  0
 22  2  1  0
 20 11  1  0
 19 15  2  0
  1 23  1  0
  1 24  1  0
  1 25  1  0
  3 26  1  0
  4 27  1  0
  9 28  1  0
  9 29  1  0
 10 30  1  0
 10 31  1  0
 13 32  1  0
 13 33  1  0
 13 34  1  0
 14 35  1  0
 16 36  1  0
 17 37  1  0
 22 38  1  0
M  CHG  1  14   1
M  END
>  <UniqueID>  (37) 
37

>  <SMILES>  (37) 
Cc1ccc(Cl)c(OCCn2c(C)[nH+]c3ccsc3c2=O)c1

>  <Energy>  (37) 
72.03760703652824

>  <Genealogy>  (37) 
Cc1ccc(Cl)c(OCCn2c(C)[nH+]c3ccsc3c2=O)c1 (protonated)
Cc1ccc(Cl)c(OCCn2c(C)[nH+]c3ccsc3c2=O)c1 (3D coordinates assigned)
Cc1ccc(Cl)c(OCCn2c(C)[nH+]c3ccsc3c2=O)c1 (optimized conformer: 72.03760703652824 kcal/mol)

>  <smiles>  (37) 
Cc1ccc(Cl)c(OCCn2c(C)nc3ccsc3c2=O)c1

>  <score_type>  (37) 
oracle

>  <origin>  (37) 
adg

>  <m_score__min__energy>  (37) 
-7.4100000000000001

>  <m_primary>  (37) 
energy

$$$$
37:0
     RDKit          3D

 39 43  0  0  0  0  0  0  0  0999 V2000
  -10.1322   22.4570  -30.8976 H   0  0  0  0  0  0  0  0  0  0  0  0
   -9.2680   21.9770  -31.3800 C   0  0  0  0  0  0  0  0  0  0  0  0
   -9.4280   20.7540  -32.0330 C   0  0  0  0  0  0  0  0  0  0  0  0
  -10.4216   20.2849  -32.0845 H   0  0  0  0  0  0  0  0  0  0  0  0
   -8.3290   20.1250  -32.6210 C   0  0  0  0  0  0  0  0  0  0  0  0
   -8.4534   19.1520  -33.1187 H   0  0  0  0  0  0  0  0  0  0  0  0
   -7.0660   20.7340  -32.5770 C   0  0  0  0  0  0  0  0  0  0  0  0
   -6.9030   22.0020  -31.9690 C   0  0  0  0  0  0  0  0  0  0  0  0
   -8.0150   22.5950  -31.3360 C   0  0  0  0  0  0  0  0  0  0  0  0
   -7.8955   23.5504  -30.8040 H   0  0  0  0  0  0  0  0  0  0  0  0
   -5.5420   22.6380  -31.9730 C   0  0  0  0  0  0  0  0  0  0  0  0
   -5.3580   23.9260  -31.9750 N   0  0  0  0  0  0  0  0  0  0  0  0
   -4.6080   24.5880  -31.0300 O   0  0  0  0  0  0  0  0  0  0  0  0
   -5.0940   24.7440  -29.7060 C   0  0  0  0  0  0  0  0  0  0  0  0
   -4.3082   25.1884  -29.0775 H   0  0  0  0  0  0  0  0  0  0  0  0
   -5.3761   23.7606  -29.3020 H   0  0  0  0  0  0  0  0  0  0  0  0
   -6.3100   25.6540  -29.7140 C   0  0  0  0  0  0  0  0  0  0  0  0
   -6.6079   25.8770  -28.6789 H   0  0  0  0  0  0  0  0  0  0  0  0
   -6.0632   26.5911  -30.2345 H   0  0  0  0  0  0  0  0  0  0  0  0
   -7.1395   25.1530  -30.2345 H   0  0  0  0  0  0  0  0  0  0  0  0
   -4.3240   21.7490  -32.0820 C   0  0  0  0  0  0  0  0  0  0  0  0
   -3.4998   22.3128  -32.5434 H   0  0  0  0  0  0  0  0  0  0  0  0
   -4.0256   21.4148  -31.0774 H   0  0  0  0  0  0  0  0  0  0  0  0
   -4.6370   20.5850  -32.9060 N   0  0  0  0  0  0  0  0  0  0  0  0
   -5.8730   20.0590  -33.1090 C   0  0  0  0  0  0  0  0  0  0  0  0
   -5.8710   18.8500  -33.7530 N   0  0  0  0  0  0  0  0  0  0  0  0
   -4.5510   18.6650  -33.9440 C   0  0  0  0  0  0  0  0  0  0  0  0
   -3.7920   17.6100  -34.4140 C   0  0  0  0  0  0  0  0  0  0  0  0
   -4.2070   16.4020  -34.9640 C   0  0  0  0  0  0  0  0  0  0  0  0
   -5.2753   16.1757  -35.0962 H   0  0  0  0  0  0  0  0  0  0  0  0
   -3.2190   15.4810  -35.3450 C   0  0  0  0  0  0  0  0  0  0  0  0
   -3.5077   14.5174  -35.7902 H   0  0  0  0  0  0  0  0  0  0  0  0
   -1.8550   15.7910  -35.1570 C   0  0  0  0  0  0  0  0  0  0  0  0
   -1.0851   15.0662  -35.4601 H   0  0  0  0  0  0  0  0  0  0  0  0
   -1.4810   16.9830  -34.6020 N   0  0  0  0  0  0  0  0  0  0  0  0
   -0.4700   17.1980  -34.4560 H   0  0  0  0  0  0  0  0  0  0  0  0
   -2.4320   17.8800  -34.2370 C   0  0  0  0  0  0  0  0  0  0  0  0
   -2.1670   19.3990  -33.4810 S   0  0  0  0  0  0  0  0  0  0  0  0
   -3.8310   19.6710  -33.4420 C   0  0  0  0  0  0  0  0  0  0  0  0
  1  2  1  0
  2  3  2  0
  3  4  1  0
  3  5  1  0
  5  6  1  0
  5  7  2  0
  7  8  1  0
  8  9  2  0
  9 10  1  0
  8 11  1  0
 11 12  2  0
 12 13  1  0
 13 14  1  0
 14 15  1  0
 14 16  1  0
 14 17  1  0
 17 18  1  0
 17 19  1  0
 17 20  1  0
 11 21  1  0
 21 22  1  0
 21 23  1  0
 21 24  1  0
 24 25  1  0
 25 26  2  0
 26 27  1  0
 27 28  1  0
 28 29  2  0
 29 30  1  0
 29 31  1  0
 31 32  1  0
 31 33  2  0
 33 34  1  0
 33 35  1  0
 35 36  1  0
 35 37  2  0
 37 38  1  0
 38 39  1  0
  9  2  1  0
 39 24  1  0
 25  7  1  0
 39 27  2  0
 37 28  1  0
M  CHG  1  35   1
M  END
>  <UniqueID>  (38) 
38

>  <SMILES>  (38) 
CCO/N=C1/Cn2c(nc3c4ccc[nH+]c4sc32)-c2ccccc21

>  <Energy>  (38) 
134.3560701379502

>  <Genealogy>  (38) 
CCON=C1Cn2c(nc3c4ccc[nH+]c4sc32)-c2ccccc21 (protonated)
CCO/N=C1/Cn2c(nc3c4ccc[nH+]c4sc32)-c2ccccc21 (cis-trans isomerization)
CCO/N=C1/Cn2c(nc3c4ccc[nH+]c4sc32)-c2ccccc21 (3D coordinates assigned)
CCO/N=C1/Cn2c(nc3c4ccc[nH+]c4sc32)-c2ccccc21 (nonaromatic ring conformer: 134.3560701379502 kcal/mol)

>  <smiles>  (38) 
CCON=C1Cn2c(nc3c4cccnc4sc32)-c2ccccc21

>  <score_type>  (38) 
oracle

>  <origin>  (38) 
adg

>  <m_score__min__energy>  (38) 
-8.8599999999999994

>  <m_primary>  (38) 
energy

$$$$
38:0
     RDKit          3D

 69 74  0  0  0  0  0  0  0  0999 V2000
   -5.3250   25.6260  -30.4650 C   0  0  0  0  0  0  0  0  0  0  0  0
   -3.9400   25.3060  -30.4680 O   0  0  0  0  0  0  0  0  0  0  0  0
   -3.4170   24.0340  -30.1830 C   0  0  0  0  0  0  0  0  0  0  0  0
   -2.7000   23.7610  -29.0020 C   0  0  0  0  0  0  0  0  0  0  0  0
   -2.1950   22.4690  -28.7610 C   0  0  0  0  0  0  0  0  0  0  0  0
   -1.4580   22.1530  -27.6080 O   0  0  0  0  0  0  0  0  0  0  0  0
   -1.6190   20.9560  -26.8530 C   0  0  0  0  0  0  0  0  0  0  0  0
   -2.4220   21.4570  -29.6980 C   0  0  0  0  0  0  0  0  0  0  0  0
   -3.1350   21.7150  -30.8810 C   0  0  0  0  0  0  0  0  0  0  0  0
   -3.3370   20.6770  -31.8640 N   0  0  0  0  0  0  0  0  0  0  0  0
   -4.3800   19.6590  -31.6660 C   0  0  0  0  0  0  0  0  0  0  0  0
   -5.2370   19.4670  -32.9230 C   0  0  0  0  0  0  0  0  0  0  0  0
   -6.6520   19.6420  -32.6010 N   0  0  0  0  0  0  0  0  0  0  0  0
   -7.6540   18.5790  -32.6590 C   0  0  0  0  0  0  0  0  0  0  0  0
   -9.0080   19.2520  -32.3240 C   0  0  0  0  0  0  0  0  0  0  0  0
   -8.6540   20.6940  -32.1920 C   0  0  0  0  0  0  0  0  0  0  0  0
   -9.5100   21.7750  -31.9690 C   0  0  0  0  0  0  0  0  0  0  0  0
   -8.9580   23.0670  -31.9190 C   0  0  0  0  0  0  0  0  0  0  0  0
   -7.5730   23.2540  -32.0960 C   0  0  0  0  0  0  0  0  0  0  0  0
   -6.7330   22.1500  -32.3190 C   0  0  0  0  0  0  0  0  0  0  0  0
   -7.3080   20.8740  -32.3580 C   0  0  0  0  0  0  0  0  0  0  0  0
   -2.2850   20.4310  -32.8100 C   0  0  0  0  0  0  0  0  0  0  0  0
   -2.0420   19.1280  -33.2650 C   0  0  0  0  0  0  0  0  0  0  0  0
   -1.0290   18.8820  -34.1970 C   0  0  0  0  0  0  0  0  0  0  0  0
   -0.2490   19.9440  -34.6820 C   0  0  0  0  0  0  0  0  0  0  0  0
    0.7390   19.7320  -35.5950 N   0  0  0  0  0  0  0  0  0  0  0  0
    1.4890   20.7640  -36.0690 C   0  0  0  0  0  0  0  0  0  0  0  0
    1.2460   22.0710  -35.6150 C   0  0  0  0  0  0  0  0  0  0  0  0
    2.0240   23.2250  -36.1120 C   0  0  0  0  0  0  0  0  0  0  0  0
    3.3690   23.2310  -36.4430 C   0  0  0  0  0  0  0  0  0  0  0  0
    3.7250   24.4670  -36.8450 N   0  0  0  0  0  0  0  0  0  0  0  0
    2.6500   25.2360  -36.7680 N   0  0  0  0  0  0  0  0  0  0  0  0
    2.6230   26.6380  -37.1620 C   0  0  0  0  0  0  0  0  0  0  0  0
    1.5940   24.5200  -36.3370 C   0  0  0  0  0  0  0  0  0  0  0  0
    0.2590   22.2770  -34.7020 N   0  0  0  0  0  0  0  0  0  0  0  0
   -0.4930   21.2530  -34.2230 C   0  0  0  0  0  0  0  0  0  0  0  0
   -1.5070   21.4940  -33.2900 C   0  0  0  0  0  0  0  0  0  0  0  0
   -3.6230   23.0110  -31.1140 C   0  0  0  0  0  0  0  0  0  0  0  0
   -5.6801   25.7080  -29.4271 H   0  0  0  0  0  0  0  0  0  0  0  0
   -5.4811   26.5839  -30.9828 H   0  0  0  0  0  0  0  0  0  0  0  0
   -5.8855   24.8337  -30.9828 H   0  0  0  0  0  0  0  0  0  0  0  0
   -2.5338   24.5604  -28.2649 H   0  0  0  0  0  0  0  0  0  0  0  0
   -1.5872   21.1927  -25.7792 H   0  0  0  0  0  0  0  0  0  0  0  0
   -2.5872   20.4952  -27.0983 H   0  0  0  0  0  0  0  0  0  0  0  0
   -0.8070   20.2557  -27.0983 H   0  0  0  0  0  0  0  0  0  0  0  0
   -2.0371   20.4445  -29.5066 H   0  0  0  0  0  0  0  0  0  0  0  0
   -3.8997   18.7022  -31.4134 H   0  0  0  0  0  0  0  0  0  0  0  0
   -5.0384   19.9989  -30.8530 H   0  0  0  0  0  0  0  0  0  0  0  0
   -4.9423   20.2084  -33.6803 H   0  0  0  0  0  0  0  0  0  0  0  0
   -5.0806   18.4501  -33.3120 H   0  0  0  0  0  0  0  0  0  0  0  0
   -7.6852   18.1373  -33.6660 H   0  0  0  0  0  0  0  0  0  0  0  0
   -7.4219   17.7668  -31.9544 H   0  0  0  0  0  0  0  0  0  0  0  0
   -9.7353   19.0979  -33.1347 H   0  0  0  0  0  0  0  0  0  0  0  0
   -9.4795   18.8411  -31.4191 H   0  0  0  0  0  0  0  0  0  0  0  0
  -10.5907   21.6191  -31.8356 H   0  0  0  0  0  0  0  0  0  0  0  0
   -9.6099   23.9350  -31.7410 H   0  0  0  0  0  0  0  0  0  0  0  0
   -7.1477   24.2678  -32.0595 H   0  0  0  0  0  0  0  0  0  0  0  0
   -5.6504   22.2848  -32.4595 H   0  0  0  0  0  0  0  0  0  0  0  0
   -2.6516   18.2941  -32.8869 H   0  0  0  0  0  0  0  0  0  0  0  0
   -0.8433   17.8569  -34.5501 H   0  0  0  0  0  0  0  0  0  0  0  0
    0.9320   18.7670  -35.9500 H   0  0  0  0  0  0  0  0  0  0  0  0
    2.2836   20.5751  -36.8059 H   0  0  0  0  0  0  0  0  0  0  0  0
    4.0416   22.3624  -36.3865 H   0  0  0  0  0  0  0  0  0  0  0  0
    2.6108   27.2714  -36.2628 H   0  0  0  0  0  0  0  0  0  0  0  0
    3.5169   26.8680  -37.7604 H   0  0  0  0  0  0  0  0  0  0  0  0
    1.7209   26.8334  -37.7604 H   0  0  0  0  0  0  0  0  0  0  0  0
    0.5715   24.8979  -36.1901 H   0  0  0  0  0  0  0  0  0  0  0  0
   -1.6940   22.5175  -32.9329 H   0  0  0  0  0  0  0  0  0  0  0  0
   -4.1748   23.2244  -32.0414 H   0  0  0  0  0  0  0  0  0  0  0  0
  1  2  1  0
  2  3  1  0
  3  4  2  0
  4  5  1  0
  5  6  1  0
  6  7  1  0
  5  8  2  0
  8  9  1  0
  9 10  1  0
 10 11  1  0
 11 12  1  0
 12 13  1  0
 13 14  1  0
 14 15  1  0
 15 16  1  0
 16 17  2  0
 17 18  1  0
 18 19  2  0
 19 20  1  0
 20 21  2  0
 10 22  1  0
 22 23  2  0
 23 24  1  0
 24 25  2  0
 25 26  1  0
 26 27  2  0
 27 28  1  0
 28 29  1  0
 29 30  1  0
 30 31  2  0
 31 32  1  0
 32 33  1  0
 32 34  1  0
 28 35  2  0
 35 36  1  0
 36 37  2  0
  9 38  2  0
 38  3  1  0
 21 13  1  0
 37 22  1  0
 21 16  1  0
 36 25  1  0
 34 29  2  0
  1 39  1  0
  1 40  1  0
  1 41  1  0
  4 42  1  0
  7 43  1  0
  7 44  1  0
  7 45  1  0
  8 46  1  0
 11 47  1  0
 11 48  1  0
 12 49  1  0
 12 50  1  0
 14 51  1  0
 14 52  1  0
 15 53  1  0
 15 54  1  0
 17 55  1  0
 18 56  1  0
 19 57  1  0
 20 58  1  0
 23 59  1  0
 24 60  1  0
 26 61  1  0
 27 62  1  0
 30 63  1  0
 33 64  1  0
 33 65  1  0
 33 66  1  0
 34 67  1  0
 37 68  1  0
 38 69  1  0
M  CHG  1  26   1
M  END
>  <UniqueID>  (39) 
39

>  <SMILES>  (39) 
COc1cc(OC)cc(N(CCN2CCc3ccccc32)c2ccc3[nH+]cc(-c4cnn(C)c4)nc3c2)c1

>  <Energy>  (39) 
129.85122461519376

>  <Genealogy>  (39) 
COc1cc(OC)cc(N(CCN2CCc3ccccc32)c2ccc3[nH+]cc(-c4cnn(C)c4)nc3c2)c1 (protonated)
COc1cc(OC)cc(N(CCN2CCc3ccccc32)c2ccc3[nH+]cc(-c4cnn(C)c4)nc3c2)c1 (3D coordinates assigned)
COc1cc(OC)cc(N(CCN2CCc3ccccc32)c2ccc3[nH+]cc(-c4cnn(C)c4)nc3c2)c1 (nonaromatic ring conformer: 129.85122461519376 kcal/mol)

>  <smiles>  (39) 
COc1cc(OC)cc(N(CCN2CCc3ccccc32)c2ccc3ncc(-c4cnn(C)c4)nc3c2)c1

>  <score_type>  (39) 
oracle

>  <origin>  (39) 
adg

>  <m_score__min__energy>  (39) 
-10.140000000000001

>  <m_primary>  (39) 
energy

$$$$
39:0
     RDKit          3D

 35 38  0  0  0  0  0  0  0  0999 V2000
   -2.5700   24.4940  -28.4400 C   0  0  0  0  0  0  0  0  0  0  0  0
   -3.0860   24.9420  -29.6890 O   0  0  0  0  0  0  0  0  0  0  0  0
   -4.1690   24.3510  -30.3570 C   0  0  0  0  0  0  0  0  0  0  0  0
   -3.9180   23.2650  -31.2010 C   0  0  0  0  0  0  0  0  0  0  0  0
   -4.9630   22.6420  -31.8900 C   0  0  0  0  0  0  0  0  0  0  0  0
   -6.2830   23.1040  -31.7450 C   0  0  0  0  0  0  0  0  0  0  0  0
   -7.4170   22.4420  -32.4890 C   0  0  2  0  0  0  0  0  0  0  0  0
   -9.0380   23.1530  -31.9670 S   0  0  0  0  0  0  0  0  0  0  0  0
   -9.6940   21.5400  -31.3550 C   0  0  0  0  0  0  0  0  0  0  0  0
   -8.6090   20.5730  -31.6110 C   0  0  0  0  0  0  0  0  0  0  0  0
   -8.5820   19.2400  -31.3720 N   0  0  0  0  0  0  0  0  0  0  0  0
   -7.3600   18.8760  -31.8190 C   0  0  0  0  0  0  0  0  0  0  0  0
   -6.7820   17.6090  -31.8270 C   0  0  0  0  0  0  0  0  0  0  0  0
   -5.4820   17.4890  -32.3580 C   0  0  0  0  0  0  0  0  0  0  0  0
   -4.8010   18.6230  -32.8620 C   0  0  0  0  0  0  0  0  0  0  0  0
   -5.4100   19.8920  -32.8420 C   0  0  0  0  0  0  0  0  0  0  0  0
   -6.6940   19.9720  -32.3080 C   0  0  0  0  0  0  0  0  0  0  0  0
   -7.4960   21.0370  -32.1640 N   0  0  0  0  0  0  0  0  0  0  0  0
   -6.5370   24.1910  -30.8940 C   0  0  0  0  0  0  0  0  0  0  0  0
   -5.4910   24.8120  -30.2060 C   0  0  0  0  0  0  0  0  0  0  0  0
   -3.1241   24.9751  -27.6206 H   0  0  0  0  0  0  0  0  0  0  0  0
   -2.6824   23.4022  -28.3672 H   0  0  0  0  0  0  0  0  0  0  0  0
   -1.5048   24.7586  -28.3672 H   0  0  0  0  0  0  0  0  0  0  0  0
   -2.8886   22.8972  -31.3241 H   0  0  0  0  0  0  0  0  0  0  0  0
   -4.7515   21.7866  -32.5484 H   0  0  0  0  0  0  0  0  0  0  0  0
   -7.2226   22.6013  -33.5599 H   0  0  0  0  0  0  0  0  0  0  0  0
   -9.9185   21.5954  -30.2796 H   0  0  0  0  0  0  0  0  0  0  0  0
  -10.6316   21.2554  -31.8548 H   0  0  0  0  0  0  0  0  0  0  0  0
   -9.3270   18.6420  -30.9500 H   0  0  0  0  0  0  0  0  0  0  0  0
   -7.3202   16.7341  -31.4334 H   0  0  0  0  0  0  0  0  0  0  0  0
   -4.9918   16.5045  -32.3810 H   0  0  0  0  0  0  0  0  0  0  0  0
   -3.7868   18.5116  -33.2730 H   0  0  0  0  0  0  0  0  0  0  0  0
   -4.8941   20.7821  -33.2313 H   0  0  0  0  0  0  0  0  0  0  0  0
   -7.5667   24.5567  -30.7677 H   0  0  0  0  0  0  0  0  0  0  0  0
   -5.7013   25.6647  -29.5436 H   0  0  0  0  0  0  0  0  0  0  0  0
  1  2  1  0
  2  3  1  0
  3  4  2  0
  4  5  1  0
  5  6  2  0
  6  7  1  0
  7  8  1  0
  8  9  1  0
  9 10  1  0
 10 11  2  0
 11 12  1  0
 12 13  2  0
 13 14  1  0
 14 15  2  0
 15 16  1  0
 16 17  2  0
 17 18  1  0
  6 19  1  0
 19 20  2  0
 20  3  1  0
 18  7  1  0
 18 10  1  0
 17 12  1  0
  1 21  1  0
  1 22  1  0
  1 23  1  0
  4 24  1  0
  5 25  1  0
  7 26  1  6
  9 27  1  0
  9 28  1  0
 11 29  1  0
 13 30  1  0
 14 31  1  0
 15 32  1  0
 16 33  1  0
 19 34  1  0
 20 35  1  0
M  CHG  1  11   1
M  END
>  <UniqueID>  (40) 
40

>  <SMILES>  (40) 
COc1ccc([C@@H]2SCc3[nH+]c4ccccc4n32)cc1

>  <Energy>  (40) 
83.30927326538648

>  <Genealogy>  (40) 
COc1ccc(C2SCc3[nH+]c4ccccc4n32)cc1 (protonated)
COc1ccc([C@@H]2SCc3[nH+]c4ccccc4n32)cc1 (chirality)
COc1ccc([C@@H]2SCc3[nH+]c4ccccc4n32)cc1 (3D coordinates assigned)
COc1ccc([C@@H]2SCc3[nH+]c4ccccc4n32)cc1 (nonaromatic ring conformer: 83.30927326538648 kcal/mol)

>  <smiles>  (40) 
COc1ccc(C2SCc3nc4ccccc4n32)cc1

>  <score_type>  (40) 
oracle

>  <origin>  (40) 
adg

>  <m_score__min__energy>  (40) 
-8.0099999999999998

>  <m_primary>  (40) 
energy

$$$$
40:0
     RDKit          3D

 27 29  0  0  0  0  0  0  0  0999 V2000
   -5.5870   18.5050  -34.1470 C   0  0  0  0  0  0  0  0  0  0  0  0
   -6.4370   19.3790  -33.2850 C   0  0  0  0  0  0  0  0  0  0  0  0
   -5.9990   20.5290  -32.6350 C   0  0  0  0  0  0  0  0  0  0  0  0
   -7.1280   21.0540  -32.0360 C   0  0  0  0  0  0  0  0  0  0  0  0
   -7.3440   22.2130  -31.2810 C   0  0  0  0  0  0  0  0  0  0  0  0
   -6.2580   23.1390  -30.8900 C   0  0  0  0  0  0  0  0  0  0  0  0
   -4.9940   22.6550  -30.5060 C   0  0  0  0  0  0  0  0  0  0  0  0
   -3.9850   23.5430  -30.1220 C   0  0  0  0  0  0  0  0  0  0  0  0
   -4.2310   24.9180  -30.1040 C   0  0  0  0  0  0  0  0  0  0  0  0
   -5.4890   25.4080  -30.4640 C   0  0  0  0  0  0  0  0  0  0  0  0
   -6.5010   24.5230  -30.8490 C   0  0  0  0  0  0  0  0  0  0  0  0
   -8.6330   22.4870  -30.9150 N   0  0  0  0  0  0  0  0  0  0  0  0
   -9.6550   21.6820  -31.2420 N   0  0  0  0  0  0  0  0  0  0  0  0
   -9.4670   20.5420  -31.9660 C   0  0  0  0  0  0  0  0  0  0  0  0
   -8.1730   20.2380  -32.3640 C   0  0  0  0  0  0  0  0  0  0  0  0
   -7.7700   19.2090  -33.1270 N   0  0  0  0  0  0  0  0  0  0  0  0
   -4.9608   17.8612  -33.5119 H   0  0  0  0  0  0  0  0  0  0  0  0
   -6.2308   17.8788  -34.7821 H   0  0  0  0  0  0  0  0  0  0  0  0
   -4.9431   19.1312  -34.7821 H   0  0  0  0  0  0  0  0  0  0  0  0
   -4.9761   20.9324  -32.6047 H   0  0  0  0  0  0  0  0  0  0  0  0
   -4.7988   21.5725  -30.5080 H   0  0  0  0  0  0  0  0  0  0  0  0
   -2.9956   23.1584  -29.8335 H   0  0  0  0  0  0  0  0  0  0  0  0
   -3.4340   25.6152  -29.8063 H   0  0  0  0  0  0  0  0  0  0  0  0
   -5.6835   26.4905  -30.4446 H   0  0  0  0  0  0  0  0  0  0  0  0
   -7.4931   24.9122  -31.1214 H   0  0  0  0  0  0  0  0  0  0  0  0
  -10.3114   19.8864  -32.2254 H   0  0  0  0  0  0  0  0  0  0  0  0
   -8.3650   18.4550  -33.5380 H   0  0  0  0  0  0  0  0  0  0  0  0
  1  2  1  0
  2  3  2  0
  3  4  1  0
  4  5  2  0
  5  6  1  0
  6  7  2  0
  7  8  1  0
  8  9  2  0
  9 10  1  0
 10 11  2  0
  5 12  1  0
 12 13  2  0
 13 14  1  0
 14 15  2  0
 15 16  1  0
 16  2  1  0
 15  4  1  0
 11  6  1  0
  1 17  1  0
  1 18  1  0
  1 19  1  0
  3 20  1  0
  7 21  1  0
  8 22  1  0
  9 23  1  0
 10 24  1  0
 11 25  1  0
 14 26  1  0
 16 27  1  0
M  END
>  <UniqueID>  (41) 
41

>  <SMILES>  (41) 
Cc1cc2c(-c3ccccc3)nncc2[nH]1

>  <Energy>  (41) 
68.5827719208336

>  <Genealogy>  (41) 
Cc1cc2c(-c3ccccc3)nncc2[nH]1 (3D coordinates assigned)
Cc1cc2c(-c3ccccc3)nncc2[nH]1 (optimized conformer: 68.5827719208336 kcal/mol)

>  <smiles>  (41) 
Cc1cc2c(-c3ccccc3)nncc2[nH]1

>  <score_type>  (41) 
oracle

>  <origin>  (41) 
adg

>  <m_score__min__energy>  (41) 
-7.0099999999999998

>  <m_primary>  (41) 
energy

$$$$
41:0
     RDKit          3D

 57 59  0  0  0  0  0  0  0  0999 V2000
   -3.4480   18.5900  -25.9730 C   0  0  0  0  0  0  0  0  0  0  0  0
   -2.1360   18.9000  -26.6750 C   0  0  0  0  0  0  0  0  0  0  0  0
   -1.5700   20.0850  -26.1260 O   0  0  0  0  0  0  0  0  0  0  0  0
   -1.6110   21.3180  -26.7870 C   0  0  0  0  0  0  0  0  0  0  0  0
   -0.7190   22.1860  -26.5780 O   0  0  0  0  0  0  0  0  0  0  0  0
   -2.7420   21.6230  -27.7280 C   0  0  2  0  0  0  0  0  0  0  0  0
   -2.3400   21.2970  -29.1840 C   0  0  0  0  0  0  0  0  0  0  0  0
   -3.1590   22.1010  -30.2170 C   0  0  0  0  0  0  0  0  0  0  0  0
   -4.4870   22.4730  -29.6830 N   0  0  2  0  0  0  0  0  0  0  0  0
   -5.3060   23.0680  -30.7230 C   0  0  0  0  0  0  0  0  0  0  0  0
   -4.9570   24.1680  -31.2360 O   0  0  0  0  0  0  0  0  0  0  0  0
   -6.5740   22.4380  -31.1830 C   0  0  0  0  0  0  0  0  0  0  0  0
   -7.7120   23.2080  -31.4940 C   0  0  0  0  0  0  0  0  0  0  0  0
   -8.8880   22.5910  -31.9290 C   0  0  0  0  0  0  0  0  0  0  0  0
   -8.9440   21.2030  -32.0700 C   0  0  0  0  0  0  0  0  0  0  0  0
   -7.8170   20.4230  -31.7800 C   0  0  0  0  0  0  0  0  0  0  0  0
   -7.8700   18.6700  -31.9410 S   0  0  0  0  0  0  0  0  0  0  0  0
   -7.0620   18.0300  -30.8450 O   0  0  0  0  0  0  0  0  0  0  0  0
   -9.2990   18.2220  -31.8110 O   0  0  0  0  0  0  0  0  0  0  0  0
   -7.2330   18.2210  -33.5080 N   0  0  0  0  0  0  0  0  0  0  0  0
   -6.1980   19.1740  -33.9830 C   0  0  0  0  0  0  0  0  0  0  0  0
   -4.8030   18.5500  -34.1630 C   0  0  0  0  0  0  0  0  0  0  0  0
   -4.4660   17.6410  -32.9830 C   0  0  0  0  0  0  0  0  0  0  0  0
   -5.5160   16.5310  -32.7930 C   0  0  0  0  0  0  0  0  0  0  0  0
   -6.8280   16.8030  -33.5520 C   0  0  0  0  0  0  0  0  0  0  0  0
   -6.6400   21.0410  -31.3380 C   0  0  0  0  0  0  0  0  0  0  0  0
   -4.3710   23.4090  -28.5370 C   0  0  0  0  0  0  0  0  0  0  0  0
   -3.1810   23.0890  -27.6020 C   0  0  0  0  0  0  0  0  0  0  0  0
   -3.2983   18.6254  -24.8838 H   0  0  0  0  0  0  0  0  0  0  0  0
   -4.2041   19.3342  -26.2636 H   0  0  0  0  0  0  0  0  0  0  0  0
   -3.7911   17.5861  -26.2636 H   0  0  0  0  0  0  0  0  0  0  0  0
   -1.4382   18.0615  -26.5340 H   0  0  0  0  0  0  0  0  0  0  0  0
   -2.3219   19.0472  -27.7491 H   0  0  0  0  0  0  0  0  0  0  0  0
   -3.5966   20.9873  -27.4530 H   0  0  0  0  0  0  0  0  0  0  0  0
   -1.2741   21.5339  -29.3173 H   0  0  0  0  0  0  0  0  0  0  0  0
   -2.5412   20.2292  -29.3555 H   0  0  0  0  0  0  0  0  0  0  0  0
   -2.6079   23.0173  -30.4754 H   0  0  0  0  0  0  0  0  0  0  0  0
   -3.3082   21.4706  -31.1060 H   0  0  0  0  0  0  0  0  0  0  0  0
   -4.9430   21.5870  -29.3620 H   0  0  0  0  0  0  0  0  0  0  0  0
   -7.6746   24.3028  -31.3937 H   0  0  0  0  0  0  0  0  0  0  0  0
   -9.7732   23.2013  -32.1613 H   0  0  0  0  0  0  0  0  0  0  0  0
   -9.8733   20.7218  -32.4089 H   0  0  0  0  0  0  0  0  0  0  0  0
   -6.5220   19.5806  -34.9524 H   0  0  0  0  0  0  0  0  0  0  0  0
   -6.1009   19.9484  -33.2078 H   0  0  0  0  0  0  0  0  0  0  0  0
   -4.7880   17.9591  -35.0907 H   0  0  0  0  0  0  0  0  0  0  0  0
   -4.0569   19.3567  -34.2144 H   0  0  0  0  0  0  0  0  0  0  0  0
   -3.4854   17.1757  -33.1616 H   0  0  0  0  0  0  0  0  0  0  0  0
   -4.4535   18.2570  -32.0718 H   0  0  0  0  0  0  0  0  0  0  0  0
   -5.0923   15.5828  -33.1553 H   0  0  0  0  0  0  0  0  0  0  0  0
   -5.7599   16.4907  -31.7211 H   0  0  0  0  0  0  0  0  0  0  0  0
   -6.6928   16.5090  -34.6033 H   0  0  0  0  0  0  0  0  0  0  0  0
   -7.6203   16.2179  -33.0621 H   0  0  0  0  0  0  0  0  0  0  0  0
   -5.7567   20.4267  -31.1093 H   0  0  0  0  0  0  0  0  0  0  0  0
   -4.2413   24.4280  -28.9305 H   0  0  0  0  0  0  0  0  0  0  0  0
   -5.2896   23.3081  -27.9404 H   0  0  0  0  0  0  0  0  0  0  0  0
   -2.3342   23.7393  -27.8665 H   0  0  0  0  0  0  0  0  0  0  0  0
   -3.5016   23.2644  -26.5645 H   0  0  0  0  0  0  0  0  0  0  0  0
  1  2  1  0
  2  3  1  0
  3  4  1  0
  4  5  2  0
  4  6  1  0
  6  7  1  0
  7  8  1  0
  8  9  1  0
  9 10  1  0
 10 11  2  0
 10 12  1  0
 12 13  2  0
 13 14  1  0
 14 15  2  0
 15 16  1  0
 16 17  1  0
 17 18  2  0
 17 19  2  0
 17 20  1  0
 20 21  1  0
 21 22  1  0
 22 23  1  0
 23 24  1  0
 24 25  1  0
 16 26  2  0
  9 27  1  0
 27 28  1  0
 28  6  1  0
 26 12  1  0
 25 20  1  0
  1 29  1  0
  1 30  1  0
  1 31  1  0
  2 32  1  0
  2 33  1  0
  6 34  1  1
  7 35  1  0
  7 36  1  0
  8 37  1  0
  8 38  1  0
  9 39  1  1
 13 40  1  0
 14 41  1  0
 15 42  1  0
 21 43  1  0
 21 44  1  0
 22 45  1  0
 22 46  1  0
 23 47  1  0
 23 48  1  0
 24 49  1  0
 24 50  1  0
 25 51  1  0
 25 52  1  0
 26 53  1  0
 27 54  1  0
 27 55  1  0
 28 56  1  0
 28 57  1  0
M  CHG  1   9   1
M  END
>  <UniqueID>  (42) 
42

>  <SMILES>  (42) 
CCOC(=O)C1CC[NH+](C(=O)c2cccc(S(=O)(=O)N3CCCCC3)c2)CC1

>  <Energy>  (42) 
68.3250938455695

>  <Genealogy>  (42) 
CCOC(=O)C1CC[NH+](C(=O)c2cccc(S(=O)(=O)N3CCCCC3)c2)CC1 (protonated)
CCOC(=O)C1CC[NH+](C(=O)c2cccc(S(=O)(=O)N3CCCCC3)c2)CC1 (3D coordinates assigned)
CCOC(=O)C1CC[NH+](C(=O)c2cccc(S(=O)(=O)N3CCCCC3)c2)CC1 (nonaromatic ring conformer: 68.3250938455695 kcal/mol)

>  <smiles>  (42) 
CCOC(=O)C1CCN(C(=O)c2cccc(S(=O)(=O)N3CCCCC3)c2)CC1

>  <score_type>  (42) 
oracle

>  <origin>  (42) 
adg

>  <m_score__min__energy>  (42) 
-9.0500000000000007

>  <m_primary>  (42) 
energy

$$$$
42:0
     RDKit          3D

 34 35  0  0  0  0  0  0  0  0999 V2000
   -9.3050   19.9530  -32.6840 C   0  0  0  0  0  0  0  0  0  0  0  0
   -8.2500   20.8860  -32.1680 C   0  0  0  0  0  0  0  0  0  0  0  0
   -8.5530   21.7960  -31.1490 C   0  0  0  0  0  0  0  0  0  0  0  0
   -7.5640   22.6360  -30.6390 C   0  0  0  0  0  0  0  0  0  0  0  0
   -6.2440   22.5750  -31.1220 C   0  0  0  0  0  0  0  0  0  0  0  0
   -5.2550   23.4800  -30.5810 N   0  0  0  0  0  0  0  0  0  0  0  0
   -5.0900   23.2490  -29.1390 C   0  0  0  0  0  0  0  0  0  0  0  0
   -3.6950   23.6220  -28.6990 C   0  0  0  0  0  0  0  0  0  0  0  0
   -3.1280   22.9960  -27.5750 C   0  0  0  0  0  0  0  0  0  0  0  0
   -1.8520   23.3560  -27.1360 C   0  0  0  0  0  0  0  0  0  0  0  0
   -1.1340   24.3500  -27.8040 C   0  0  0  0  0  0  0  0  0  0  0  0
   -1.6950   24.9920  -28.9120 C   0  0  0  0  0  0  0  0  0  0  0  0
   -2.9740   24.6370  -29.3590 C   0  0  0  0  0  0  0  0  0  0  0  0
   -3.5190   25.2990  -30.4540 O   0  0  0  0  0  0  0  0  0  0  0  0
   -5.9320   21.6540  -32.1580 C   0  0  0  0  0  0  0  0  0  0  0  0
   -4.5360   21.5260  -32.7100 C   0  0  0  0  0  0  0  0  0  0  0  0
   -6.9390   20.8070  -32.6550 C   0  0  0  0  0  0  0  0  0  0  0  0
   -9.8302   19.4886  -31.8363 H   0  0  0  0  0  0  0  0  0  0  0  0
  -10.0243   20.5159  -33.2970 H   0  0  0  0  0  0  0  0  0  0  0  0
   -8.8343   19.1703  -33.2970 H   0  0  0  0  0  0  0  0  0  0  0  0
   -9.5762   21.8488  -30.7486 H   0  0  0  0  0  0  0  0  0  0  0  0
   -7.8193   23.3565  -29.8480 H   0  0  0  0  0  0  0  0  0  0  0  0
   -4.3380   23.3200  -31.0630 H   0  0  0  0  0  0  0  0  0  0  0  0
   -5.5200   24.4750  -30.7610 H   0  0  0  0  0  0  0  0  0  0  0  0
   -5.8190   23.8619  -28.5886 H   0  0  0  0  0  0  0  0  0  0  0  0
   -5.2555   22.1820  -28.9288 H   0  0  0  0  0  0  0  0  0  0  0  0
   -3.6922   22.2188  -27.0387 H   0  0  0  0  0  0  0  0  0  0  0  0
   -1.4113   22.8550  -26.2614 H   0  0  0  0  0  0  0  0  0  0  0  0
   -0.1273   24.6278  -27.4586 H   0  0  0  0  0  0  0  0  0  0  0  0
   -1.1302   25.7783  -29.4343 H   0  0  0  0  0  0  0  0  0  0  0  0
   -3.8179   21.4602  -31.8794 H   0  0  0  0  0  0  0  0  0  0  0  0
   -4.4675   20.6178  -33.3268 H   0  0  0  0  0  0  0  0  0  0  0  0
   -4.3034   22.4066  -33.3268 H   0  0  0  0  0  0  0  0  0  0  0  0
   -6.6937   20.0728  -33.4365 H   0  0  0  0  0  0  0  0  0  0  0  0
  1  2  1  0
  2  3  2  0
  3  4  1  0
  4  5  2  0
  5  6  1  0
  6  7  1  0
  7  8  1  0
  8  9  2  0
  9 10  1  0
 10 11  2  0
 11 12  1  0
 12 13  2  0
 13 14  1  0
  5 15  1  0
 15 16  1  0
 15 17  2  0
 17  2  1  0
 13  8  1  0
  1 18  1  0
  1 19  1  0
  1 20  1  0
  3 21  1  0
  4 22  1  0
  6 23  1  0
  6 24  1  0
  7 25  1  0
  7 26  1  0
  9 27  1  0
 10 28  1  0
 11 29  1  0
 12 30  1  0
 16 31  1  0
 16 32  1  0
 16 33  1  0
 17 34  1  0
M  CHG  2   6   1  14  -1
M  END
>  <UniqueID>  (43) 
43

>  <SMILES>  (43) 
Cc1ccc([NH2+]Cc2ccccc2[O-])c(C)c1

>  <Energy>  (43) 
35.19452456037696

>  <Genealogy>  (43) 
Cc1ccc([NH2+]Cc2ccccc2[O-])c(C)c1 (protonated)
Cc1ccc([NH2+]Cc2ccccc2[O-])c(C)c1 (3D coordinates assigned)
Cc1ccc([NH2+]Cc2ccccc2[O-])c(C)c1 (optimized conformer: 35.19452456037696 kcal/mol)

>  <smiles>  (43) 
Cc1ccc(NCc2ccccc2O)c(C)c1

>  <score_type>  (43) 
oracle

>  <origin>  (43) 
adg

>  <m_score__min__energy>  (43) 
-9.0199999999999996

>  <m_primary>  (43) 
energy

$$$$
43:0
     RDKit          3D

 51 54  0  0  0  0  0  0  0  0999 V2000
   -3.3480   20.5470  -29.9380 C   0  0  0  0  0  0  0  0  0  0  0  0
   -3.6030   22.0180  -30.1310 C   0  0  0  0  0  0  0  0  0  0  0  0
   -4.6200   22.5220  -30.9900 C   0  0  0  0  0  0  0  0  0  0  0  0
   -5.4920   21.6440  -31.7990 C   0  0  0  0  0  0  0  0  0  0  0  0
   -6.8780   21.6500  -31.5830 C   0  0  0  0  0  0  0  0  0  0  0  0
   -7.7140   20.8360  -32.3510 C   0  0  0  0  0  0  0  0  0  0  0  0
   -7.1740   20.0160  -33.3430 C   0  0  0  0  0  0  0  0  0  0  0  0
   -5.7950   20.0040  -33.5850 C   0  0  0  0  0  0  0  0  0  0  0  0
   -5.3080   19.1560  -34.5930 O   0  0  0  0  0  0  0  0  0  0  0  0
   -4.2480   18.2090  -34.4440 C   0  0  0  0  0  0  0  0  0  0  0  0
   -4.7900   16.7760  -34.3570 C   0  0  0  0  0  0  0  0  0  0  0  0
   -6.1620   16.7550  -33.8070 N   0  0  0  0  0  0  0  0  0  0  0  0
   -6.8730   15.5260  -34.2000 C   0  0  0  0  0  0  0  0  0  0  0  0
   -6.1230   16.8530  -32.3380 C   0  0  0  0  0  0  0  0  0  0  0  0
   -4.9570   20.8390  -32.8200 C   0  0  0  0  0  0  0  0  0  0  0  0
   -4.8150   23.8770  -31.0660 N   0  0  0  0  0  0  0  0  0  0  0  0
   -4.0450   24.7610  -30.3730 C   0  0  0  0  0  0  0  0  0  0  0  0
   -4.2490   26.0000  -30.4690 O   0  0  0  0  0  0  0  0  0  0  0  0
   -3.0350   24.2540  -29.5680 C   0  0  0  0  0  0  0  0  0  0  0  0
   -2.1650   24.9510  -28.8150 N   0  0  0  0  0  0  0  0  0  0  0  0
   -1.4330   23.9490  -28.2570 C   0  0  0  0  0  0  0  0  0  0  0  0
   -0.3140   24.1800  -27.3190 C   0  0  0  0  0  0  0  0  0  0  0  0
   -0.5660   24.4470  -25.9610 C   0  0  0  0  0  0  0  0  0  0  0  0
    0.4950   24.6650  -25.0750 C   0  0  0  0  0  0  0  0  0  0  0  0
    1.8140   24.6170  -25.5330 C   0  0  0  0  0  0  0  0  0  0  0  0
    3.1420   24.8890  -24.4200 Cl  0  0  0  0  0  0  0  0  0  0  0  0
    2.0740   24.3520  -26.8810 C   0  0  0  0  0  0  0  0  0  0  0  0
    1.0170   24.1340  -27.7710 C   0  0  0  0  0  0  0  0  0  0  0  0
   -1.8380   22.7160  -28.6490 N   0  0  0  0  0  0  0  0  0  0  0  0
   -2.8440   22.9370  -29.4730 N   0  0  0  0  0  0  0  0  0  0  0  0
   -3.3086   20.3197  -28.8625 H   0  0  0  0  0  0  0  0  0  0  0  0
   -4.1595   19.9698  -30.4053 H   0  0  0  0  0  0  0  0  0  0  0  0
   -2.3896   20.2766  -30.4053 H   0  0  0  0  0  0  0  0  0  0  0  0
   -7.3084   22.2984  -30.8056 H   0  0  0  0  0  0  0  0  0  0  0  0
   -8.7996   20.8413  -32.1737 H   0  0  0  0  0  0  0  0  0  0  0  0
   -7.8378   19.3734  -33.9400 H   0  0  0  0  0  0  0  0  0  0  0  0
   -3.5745   18.2856  -35.3103 H   0  0  0  0  0  0  0  0  0  0  0  0
   -3.7093   18.4341  -33.5117 H   0  0  0  0  0  0  0  0  0  0  0  0
   -4.8007   16.3348  -35.3646 H   0  0  0  0  0  0  0  0  0  0  0  0
   -4.1375   16.1973  -33.6867 H   0  0  0  0  0  0  0  0  0  0  0  0
   -7.1885   14.9807  -33.2983 H   0  0  0  0  0  0  0  0  0  0  0  0
   -7.7581   15.7896  -34.7976 H   0  0  0  0  0  0  0  0  0  0  0  0
   -6.2033   14.8901  -34.7976 H   0  0  0  0  0  0  0  0  0  0  0  0
   -6.4958   15.9163  -31.8980 H   0  0  0  0  0  0  0  0  0  0  0  0
   -5.0876   17.0259  -32.0094 H   0  0  0  0  0  0  0  0  0  0  0  0
   -6.7565   17.6900  -32.0094 H   0  0  0  0  0  0  0  0  0  0  0  0
   -3.8761   20.8613  -33.0230 H   0  0  0  0  0  0  0  0  0  0  0  0
   -1.6022   24.4846  -25.5938 H   0  0  0  0  0  0  0  0  0  0  0  0
    0.2899   24.8748  -24.0148 H   0  0  0  0  0  0  0  0  0  0  0  0
    3.1122   24.3148  -27.2425 H   0  0  0  0  0  0  0  0  0  0  0  0
    1.2280   23.9254  -28.8302 H   0  0  0  0  0  0  0  0  0  0  0  0
  1  2  1  0
  2  3  2  0
  3  4  1  0
  4  5  2  0
  5  6  1  0
  6  7  2  0
  7  8  1  0
  8  9  1  0
  9 10  1  0
 10 11  1  0
 11 12  1  0
 12 13  1  0
 12 14  1  0
  8 15  2  0
  3 16  1  0
 16 17  1  0
 17 18  2  0
 17 19  1  0
 19 20  2  0
 20 21  1  0
 21 22  1  0
 22 23  2  0
 23 24  1  0
 24 25  2  0
 25 26  1  0
 25 27  1  0
 27 28  2  0
 21 29  2  0
 29 30  1  0
 30  2  1  0
 15  4  1  0
 30 19  1  0
 28 22  1  0
  1 31  1  0
  1 32  1  0
  1 33  1  0
  5 34  1  0
  6 35  1  0
  7 36  1  0
 10 37  1  0
 10 38  1  0
 11 39  1  0
 11 40  1  0
 13 41  1  0
 13 42  1  0
 13 43  1  0
 14 44  1  0
 14 45  1  0
 14 46  1  0
 15 47  1  0
 23 48  1  0
 24 49  1  0
 27 50  1  0
 28 51  1  0
M  CHG  1  16  -1
M  END
>  <UniqueID>  (44) 
44

>  <SMILES>  (44) 
Cc1c(-c2cccc(OCCN(C)C)c2)[n-]c(=O)c2nc(-c3ccc(Cl)cc3)nn12

>  <Energy>  (44) 
100.89068715089469

>  <Genealogy>  (44) 
Cc1c(-c2cccc(OCCN(C)C)c2)[n-]c(=O)c2nc(-c3ccc(Cl)cc3)nn12 (protonated)
Cc1c(-c2cccc(OCCN(C)C)c2)[n-]c(=O)c2nc(-c3ccc(Cl)cc3)nn12 (3D coordinates assigned)
Cc1c(-c2cccc(OCCN(C)C)c2)[n-]c(=O)c2nc(-c3ccc(Cl)cc3)nn12 (optimized conformer: 100.89068715089469 kcal/mol)

>  <smiles>  (44) 
Cc1c(-c2cccc(OCCN(C)C)c2)[nH]c(=O)c2nc(-c3ccc(Cl)cc3)nn12

>  <score_type>  (44) 
oracle

>  <origin>  (44) 
adg

>  <m_score__min__energy>  (44) 
-9.4900000000000002

>  <m_primary>  (44) 
energy

$$$$
44:0
     RDKit          3D

 15 16  0  0  0  0  0  0  0  0999 V2000
   -6.1210   19.0580  -33.8530 S   0  0  0  0  0  0  0  0  0  0  0  0
   -7.2200   20.0160  -33.1020 C   0  0  0  0  0  0  0  0  0  0  0  0
   -8.5370   19.6820  -33.0560 N   0  0  0  0  0  0  0  0  0  0  0  0
   -9.3200   20.8900  -32.2180 S   0  0  0  0  0  0  0  0  0  0  0  0
   -8.0010   21.8570  -31.8990 C   0  0  0  0  0  0  0  0  0  0  0  0
   -7.9220   23.0660  -31.2170 C   0  0  0  0  0  0  0  0  0  0  0  0
   -6.6610   23.6700  -31.0960 C   0  0  0  0  0  0  0  0  0  0  0  0
   -5.5220   23.0550  -31.6560 C   0  0  0  0  0  0  0  0  0  0  0  0
   -5.6310   21.8330  -32.3420 C   0  0  0  0  0  0  0  0  0  0  0  0
   -6.8930   21.2340  -32.4590 C   0  0  0  0  0  0  0  0  0  0  0  0
   -8.9790   18.8300  -33.4680 H   0  0  0  0  0  0  0  0  0  0  0  0
   -8.8192   23.5342  -30.7860 H   0  0  0  0  0  0  0  0  0  0  0  0
   -6.5606   24.6267  -30.5624 H   0  0  0  0  0  0  0  0  0  0  0  0
   -4.5382   23.5366  -31.5549 H   0  0  0  0  0  0  0  0  0  0  0  0
   -4.7419   21.3552  -32.7792 H   0  0  0  0  0  0  0  0  0  0  0  0
  1  2  2  0
  2  3  1  0
  3  4  1  0
  4  5  1  0
  5  6  2  0
  6  7  1  0
  7  8  2  0
  8  9  1  0
  9 10  2  0
 10  2  1  0
 10  5  1  0
  3 11  1  0
  6 12  1  0
  7 13  1  0
  8 14  1  0
  9 15  1  0
M  END
>  <UniqueID>  (45) 
45

>  <SMILES>  (45) 
S=c1[nH]sc2ccccc12

>  <Energy>  (45) 
55.29861950957465

>  <Genealogy>  (45) 
S=c1[nH]sc2ccccc12 (3D coordinates assigned)
S=c1[nH]sc2ccccc12 (optimized conformer: 55.29861950957465 kcal/mol)

>  <smiles>  (45) 
S=c1[nH]sc2ccccc12

>  <score_type>  (45) 
oracle

>  <origin>  (45) 
adg

>  <m_score__min__energy>  (45) 
-5.3799999999999999

>  <m_primary>  (45) 
energy

$$$$
