0:0
     RDKit          3D

 39 42  0  0  1  0  0  0  0  0999 V2000
   -5.7560   25.9060  -30.4450 C   0  0  0  0  0  0  0  0  0  0  0  0
   -4.8300   24.7590  -30.4840 C   0  0  0  0  0  0  0  0  0  0  0  0
   -5.0470   23.6630  -31.2690 N   0  0  0  0  0  0  0  0  0  0  0  0
   -4.1920   22.6300  -31.3220 C   0  0  0  0  0  0  0  0  0  0  0  0
   -4.4430   21.4560  -32.1520 C   0  0  0  0  0  0  0  0  0  0  0  0
   -3.5200   20.9210  -33.0150 C   0  0  0  0  0  0  0  0  0  0  0  0
   -3.7120   19.7970  -33.7750 C   0  0  0  0  0  0  0  0  0  0  0  0
   -4.9360   19.1000  -33.6980 C   0  0  0  0  0  0  0  0  0  0  0  0
   -5.2910   18.0310  -34.3250 N   0  0  0  0  0  0  0  0  0  0  0  0
   -6.4230   17.4270  -34.2120 C   0  0  0  0  0  0  0  0  0  0  0  0
   -7.2790   18.5620  -32.9300 S   0  0  0  0  0  0  0  0  0  0  0  0
   -5.8600   19.6620  -32.8150 C   0  0  0  0  0  0  0  0  0  0  0  0
   -5.6520   20.7720  -32.0750 C   0  0  0  0  0  0  0  0  0  0  0  0
   -3.0560   22.7170  -30.5310 C   0  0  0  0  0  0  0  0  0  0  0  0
   -2.8000   23.8210  -29.7150 C   0  0  0  0  0  0  0  0  0  0  0  0
   -1.7260   23.8200  -29.0080 N   0  0  0  0  0  0  0  0  0  0  0  0
   -1.4050   24.9700  -28.2510 C   0  0  0  0  0  0  0  0  0  0  0  0
   -1.3780   26.0990  -28.7730 O   0  0  0  0  0  0  0  0  0  0  0  0
   -1.1050   24.7850  -26.8410 C   0  0  0  0  0  0  0  0  0  0  0  0
   -1.4090   25.7960  -25.9520 C   0  0  0  0  0  0  0  0  0  0  0  0
   -1.1020   25.5860  -24.6310 C   0  0  0  0  0  0  0  0  0  0  0  0
   -0.5160   24.4120  -24.2240 C   0  0  0  0  0  0  0  0  0  0  0  0
   -0.2120   23.3940  -25.1210 C   0  0  0  0  0  0  0  0  0  0  0  0
   -0.5160   23.6020  -26.4360 C   0  0  0  0  0  0  0  0  0  0  0  0
   -3.7020   24.7940  -29.7300 N   0  0  0  0  0  0  0  0  0  0  0  0
   -5.9690   26.1699  -29.3986 H   0  0  0  0  0  0  0  0  0  0  0  0
   -5.2960   26.7661  -30.9537 H   0  0  0  0  0  0  0  0  0  0  0  0
   -6.6937   25.6377  -30.9537 H   0  0  0  0  0  0  0  0  0  0  0  0
   -2.5510   21.4341  -33.1036 H   0  0  0  0  0  0  0  0  0  0  0  0
   -2.9144   19.4395  -34.4428 H   0  0  0  0  0  0  0  0  0  0  0  0
   -6.7924   16.5184  -34.7100 H   0  0  0  0  0  0  0  0  0  0  0  0
   -6.4446   21.1384  -31.4060 H   0  0  0  0  0  0  0  0  0  0  0  0
   -2.3324   21.8886  -30.5470 H   0  0  0  0  0  0  0  0  0  0  0  0
   -1.8783   26.7322  -26.2886 H   0  0  0  0  0  0  0  0  0  0  0  0
   -1.3277   26.3666  -23.8896 H   0  0  0  0  0  0  0  0  0  0  0  0
   -0.2807   24.2734  -23.1584 H   0  0  0  0  0  0  0  0  0  0  0  0
    0.2555   22.4569  -24.7843 H   0  0  0  0  0  0  0  0  0  0  0  0
   -0.2905   22.8223  -27.1784 H   0  0  0  0  0  0  0  0  0  0  0  0
   -3.5360   25.6320  -29.1240 H   0  0  0  0  0  0  0  0  0  0  0  0
  1  2  1  0
  2  3  2  0
  3  4  1  0
  4  5  1  0
  5  6  2  0
  6  7  1  0
  7  8  2  0
  8  9  1  0
  9 10  2  0
 10 11  1  0
 11 12  1  0
 12 13  2  0
  4 14  2  0
 14 15  1  0
 15 16  2  0
 16 17  1  0
 17 18  2  0
 17 19  1  0
 19 20  2  0
 20 21  1  0
 21 22  2  0
 22 23  1  0
 23 24  2  0
 15 25  1  0
 25  2  1  0
 13  5  1  0
 24 19  1  0
 12  8  1  0
  1 26  1  0
  1 27  1  0
  1 28  1  0
  6 29  1  0
  7 30  1  0
 10 31  1  0
 13 32  1  0
 14 33  1  0
 20 34  1  0
 21 35  1  0
 22 36  1  0
 23 37  1  0
 24 38  1  0
 25 39  1  0
M  END
>  <smiles>  (1) 
Cc1nc(-c2ccc3ncsc3c2)cc(=NC(=O)c2ccccc2)[nH]1

>  <score_type>  (1) 
oracle

>  <origin>  (1) 
adg

>  <m_score__min__energy>  (1) 
-8.9900000000000002

>  <m_primary>  (1) 
energy

$$$$
1:0
     RDKit          3D

 20 21  0  0  0  0  0  0  0  0999 V2000
   -9.2640   21.8540  -31.6070 C   0  0  0  0  0  0  0  0  0  0  0  0
   -8.3860   23.0550  -31.9450 C   0  0  0  0  0  0  0  0  0  0  0  0
   -6.9580   22.6180  -32.0070 C   0  0  0  0  0  0  0  0  0  0  0  0
   -6.7250   21.3570  -32.5180 C   0  0  0  0  0  0  0  0  0  0  0  0
   -5.4400   20.8590  -32.6180 C   0  0  0  0  0  0  0  0  0  0  0  0
   -4.4200   21.6850  -32.1870 C   0  0  0  0  0  0  0  0  0  0  0  0
   -4.6960   22.9520  -31.6780 C   0  0  0  0  0  0  0  0  0  0  0  0
   -3.8690   23.9240  -31.2020 N   0  0  0  0  0  0  0  0  0  0  0  0
   -4.6390   24.9330  -30.8430 N   0  0  0  0  0  0  0  0  0  0  0  0
   -5.9360   24.6570  -31.0680 C   0  0  0  0  0  0  0  0  0  0  0  0
   -5.9570   23.4170  -31.5890 N   0  0  0  0  0  0  0  0  0  0  0  0
   -9.3394   21.7508  -30.5144 H   0  0  0  0  0  0  0  0  0  0  0  0
  -10.2679   22.0027  -32.0314 H   0  0  0  0  0  0  0  0  0  0  0  0
   -8.8178   20.9426  -32.0314 H   0  0  0  0  0  0  0  0  0  0  0  0
   -8.6869   23.4682  -32.9190 H   0  0  0  0  0  0  0  0  0  0  0  0
   -8.5027   23.8276  -31.1708 H   0  0  0  0  0  0  0  0  0  0  0  0
   -7.5734   20.7405  -32.8499 H   0  0  0  0  0  0  0  0  0  0  0  0
   -5.2393   19.8552  -33.0206 H   0  0  0  0  0  0  0  0  0  0  0  0
   -3.3778   21.3382  -32.2464 H   0  0  0  0  0  0  0  0  0  0  0  0
   -6.7991   25.3089  -30.8678 H   0  0  0  0  0  0  0  0  0  0  0  0
  1  2  1  0
  2  3  1  0
  3  4  2  0
  4  5  1  0
  5  6  2  0
  6  7  1  0
  7  8  2  0
  8  9  1  0
  9 10  2  0
 10 11  1  0
 11  3  1  0
 11  7  1  0
  1 12  1  0
  1 13  1  0
  1 14  1  0
  2 15  1  0
  2 16  1  0
  4 17  1  0
  5 18  1  0
  6 19  1  0
 10 20  1  0
M  END
>  <smiles>  (2) 
CCc1cccc2nncn12

>  <score_type>  (2) 
oracle

>  <origin>  (2) 
adg

>  <m_score__min__energy>  (2) 
-5.6100000000000003

>  <m_primary>  (2) 
energy

$$$$
2:0
     RDKit          3D

 26 28  0  0  0  0  0  0  0  0999 V2000
   -4.6370   25.3060  -31.2140 O   0  0  0  0  0  0  0  0  0  0  0  0
   -4.6770   24.2150  -30.5740 C   0  0  0  0  0  0  0  0  0  0  0  0
   -3.7550   24.0180  -29.5100 C   0  0  0  0  0  0  0  0  0  0  0  0
   -4.2430   24.1670  -28.2000 C   0  0  0  0  0  0  0  0  0  0  0  0
   -3.4210   24.0070  -27.1040 C   0  0  0  0  0  0  0  0  0  0  0  0
   -2.0820   23.6960  -27.2300 C   0  0  0  0  0  0  0  0  0  0  0  0
   -1.5910   23.5470  -28.5100 C   0  0  0  0  0  0  0  0  0  0  0  0
   -2.4240   23.7080  -29.6090 C   0  0  0  0  0  0  0  0  0  0  0  0
   -5.7010   23.2700  -31.0300 C   0  0  0  0  0  0  0  0  0  0  0  0
   -6.8290   23.0820  -30.9620 N   0  0  0  0  0  0  0  0  0  0  0  0
   -7.5660   22.1020  -31.4710 C   0  0  0  0  0  0  0  0  0  0  0  0
   -8.9540   21.8890  -31.3770 C   0  0  0  0  0  0  0  0  0  0  0  0
   -9.4880   20.8000  -31.9900 C   0  0  0  0  0  0  0  0  0  0  0  0
   -8.7860   19.8610  -32.7110 C   0  0  0  0  0  0  0  0  0  0  0  0
   -7.4050   20.0690  -32.8070 C   0  0  0  0  0  0  0  0  0  0  0  0
   -6.8690   21.1910  -32.1740 C   0  0  0  0  0  0  0  0  0  0  0  0
   -5.1680   21.7790  -32.0790 S   0  0  0  0  0  0  0  0  0  0  0  0
   -5.3032   24.4165  -28.0458 H   0  0  0  0  0  0  0  0  0  0  0  0
   -3.8462   24.1312  -26.0971 H   0  0  0  0  0  0  0  0  0  0  0  0
   -1.4355   23.5725  -26.3487 H   0  0  0  0  0  0  0  0  0  0  0  0
   -0.5302   23.2984  -28.6616 H   0  0  0  0  0  0  0  0  0  0  0  0
   -1.9925   23.5799  -30.6127 H   0  0  0  0  0  0  0  0  0  0  0  0
   -9.5931   22.5892  -30.8191 H   0  0  0  0  0  0  0  0  0  0  0  0
  -10.5751   20.6566  -31.9024 H   0  0  0  0  0  0  0  0  0  0  0  0
   -9.2802   18.9992  -33.1832 H   0  0  0  0  0  0  0  0  0  0  0  0
   -6.7630   19.3704  -33.3636 H   0  0  0  0  0  0  0  0  0  0  0  0
  1  2  2  0
  2  3  1  0
  3  4  2  0
  4  5  1  0
  5  6  2  0
  6  7  1  0
  7  8  2  0
  2  9  1  0
  9 10  2  0
 10 11  1  0
 11 12  2  0
 12 13  1  0
 13 14  2  0
 14 15  1  0
 15 16  2  0
 16 17  1  0
  8  3  1  0
 17  9  1  0
 16 11  1  0
  4 18  1  0
  5 19  1  0
  6 20  1  0
  7 21  1  0
  8 22  1  0
 12 23  1  0
 13 24  1  0
 14 25  1  0
 15 26  1  0
M  END
>  <smiles>  (3) 
O=C(c1ccccc1)c1nc2ccccc2s1

>  <score_type>  (3) 
oracle

>  <origin>  (3) 
adg

>  <m_score__min__energy>  (3) 
-7.4400000000000004

>  <m_primary>  (3) 
energy

$$$$
3:0
     RDKit          3D

 47 47  0  0  0  0  0  0  0  0999 V2000
   -5.7560   17.8080  -34.7350 C   0  0  0  0  0  0  0  0  0  0  0  0
   -4.9910   18.5790  -33.6570 C   0  0  0  0  0  0  0  0  0  0  0  0
   -5.3620   20.0300  -33.7660 C   0  0  0  0  0  0  0  0  0  0  0  0
   -5.7380   20.6630  -32.5490 N   0  0  0  0  0  0  0  0  0  0  0  0
   -4.7880   20.9010  -31.4530 C   0  0  0  0  0  0  0  0  0  0  0  0
   -4.2080   22.2950  -31.5470 C   0  0  0  0  0  0  0  0  0  0  0  0
   -3.2240   22.4310  -30.4320 C   0  0  0  0  0  0  0  0  0  0  0  0
   -3.5470   23.4770  -29.4230 C   0  0  0  0  0  0  0  0  0  0  0  0
   -4.2440   22.9230  -28.2000 C   0  0  0  0  0  0  0  0  0  0  0  0
   -2.3370   24.2890  -29.0530 C   0  0  0  0  0  0  0  0  0  0  0  0
   -4.5890   24.3570  -30.0840 C   0  0  0  0  0  0  0  0  0  0  0  0
   -5.9450   23.9960  -29.7380 N   0  0  0  0  0  0  0  0  0  0  0  0
   -4.3130   25.2890  -30.8420 O   0  0  0  0  0  0  0  0  0  0  0  0
   -7.0700   21.1490  -32.2690 C   0  0  0  0  0  0  0  0  0  0  0  0
   -7.1940   22.4970  -32.1940 N   0  0  0  0  0  0  0  0  0  0  0  0
   -8.3710   23.1100  -31.9290 C   0  0  0  0  0  0  0  0  0  0  0  0
   -9.4720   22.2620  -31.7300 C   0  0  0  0  0  0  0  0  0  0  0  0
   -9.3660   20.8940  -31.8000 C   0  0  0  0  0  0  0  0  0  0  0  0
   -8.1360   20.3000  -32.0770 C   0  0  0  0  0  0  0  0  0  0  0  0
   -8.0130   18.8290  -32.1740 C   0  0  0  0  0  0  0  0  0  0  0  0
   -6.4539   17.1047  -34.2572 H   0  0  0  0  0  0  0  0  0  0  0  0
   -6.3196   18.5152  -35.3613 H   0  0  0  0  0  0  0  0  0  0  0  0
   -5.0445   17.2500  -35.3613 H   0  0  0  0  0  0  0  0  0  0  0  0
   -5.2646   18.1984  -32.6619 H   0  0  0  0  0  0  0  0  0  0  0  0
   -3.9072   18.4523  -33.7959 H   0  0  0  0  0  0  0  0  0  0  0  0
   -4.4956   20.5707  -34.1747 H   0  0  0  0  0  0  0  0  0  0  0  0
   -6.2531   20.0644  -34.4100 H   0  0  0  0  0  0  0  0  0  0  0  0
   -5.3101   20.7904  -30.4911 H   0  0  0  0  0  0  0  0  0  0  0  0
   -3.9696   20.1698  -31.5269 H   0  0  0  0  0  0  0  0  0  0  0  0
   -3.7038   22.4305  -32.5152 H   0  0  0  0  0  0  0  0  0  0  0  0
   -4.9981   23.0564  -31.4701 H   0  0  0  0  0  0  0  0  0  0  0  0
   -3.1641   21.4637  -29.9116 H   0  0  0  0  0  0  0  0  0  0  0  0
   -2.2767   22.7399  -30.8980 H   0  0  0  0  0  0  0  0  0  0  0  0
   -3.7566   23.3104  -27.2932 H   0  0  0  0  0  0  0  0  0  0  0  0
   -5.3000   23.2310  -28.2088 H   0  0  0  0  0  0  0  0  0  0  0  0
   -4.1823   21.8248  -28.2088 H   0  0  0  0  0  0  0  0  0  0  0  0
   -2.2538   24.3448  -27.9576 H   0  0  0  0  0  0  0  0  0  0  0  0
   -1.4355   23.8124  -29.4654 H   0  0  0  0  0  0  0  0  0  0  0  0
   -2.4364   25.3039  -29.4654 H   0  0  0  0  0  0  0  0  0  0  0  0
   -6.4620   24.4620  -28.9570 H   0  0  0  0  0  0  0  0  0  0  0  0
   -6.4460   23.2270  -30.2820 H   0  0  0  0  0  0  0  0  0  0  0  0
   -8.4596   24.2050  -31.8730 H   0  0  0  0  0  0  0  0  0  0  0  0
  -10.4532   22.7082  -31.5105 H   0  0  0  0  0  0  0  0  0  0  0  0
  -10.2542   20.2659  -31.6370 H   0  0  0  0  0  0  0  0  0  0  0  0
   -7.9768   18.3966  -31.1632 H   0  0  0  0  0  0  0  0  0  0  0  0
   -8.8804   18.4234  -32.7155 H   0  0  0  0  0  0  0  0  0  0  0  0
   -7.0903   18.5731  -32.7155 H   0  0  0  0  0  0  0  0  0  0  0  0
  1  2  1  0
  2  3  1  0
  3  4  1  0
  4  5  1  0
  5  6  1  0
  6  7  1  0
  7  8  1  0
  8  9  1  0
  8 10  1  0
  8 11  1  0
 11 12  1  0
 11 13  2  0
  4 14  1  0
 14 15  2  0
 15 16  1  0
 16 17  2  0
 17 18  1  0
 18 19  2  0
 19 20  1  0
 19 14  1  0
  1 21  1  0
  1 22  1  0
  1 23  1  0
  2 24  1  0
  2 25  1  0
  3 26  1  0
  3 27  1  0
  5 28  1  0
  5 29  1  0
  6 30  1  0
  6 31  1  0
  7 32  1  0
  7 33  1  0
  9 34  1  0
  9 35  1  0
  9 36  1  0
 10 37  1  0
 10 38  1  0
 10 39  1  0
 12 40  1  0
 12 41  1  0
 16 42  1  0
 17 43  1  0
 18 44  1  0
 20 45  1  0
 20 46  1  0
 20 47  1  0
M  END
>  <smiles>  (4) 
CCCN(CCCC(C)(C)C(N)=O)c1ncccc1C

>  <score_type>  (4) 
oracle

>  <origin>  (4) 
adg

>  <m_score__min__energy>  (4) 
-7.7999999999999998

>  <m_primary>  (4) 
energy

$$$$
4:0
     RDKit          3D

 46 47  0  0  0  0  0  0  0  0999 V2000
   -2.8220   23.7790  -29.7930 C   0  0  0  0  0  0  0  0  0  0  0  0
   -3.5840   24.3570  -30.8450 O   0  0  0  0  0  0  0  0  0  0  0  0
   -4.9460   24.0520  -30.9940 C   0  0  0  0  0  0  0  0  0  0  0  0
   -5.8500   24.6370  -30.1000 C   0  0  0  0  0  0  0  0  0  0  0  0
   -7.2010   24.3930  -30.1720 C   0  0  0  0  0  0  0  0  0  0  0  0
   -7.6550   23.5330  -31.1740 C   0  0  0  0  0  0  0  0  0  0  0  0
   -6.7500   22.9560  -32.0570 C   0  0  0  0  0  0  0  0  0  0  0  0
   -5.4000   23.1990  -31.9870 C   0  0  0  0  0  0  0  0  0  0  0  0
   -4.4630   22.6250  -32.8940 N   0  0  0  0  0  0  0  0  0  0  0  0
   -3.6640   21.4860  -32.5460 C   0  0  0  0  0  0  0  0  0  0  0  0
   -3.8570   20.8700  -31.0660 S   0  0  0  0  0  0  0  0  0  0  0  0
   -2.7440   20.9380  -33.4780 N   0  0  0  0  0  0  0  0  0  0  0  0
   -1.9010   19.8110  -33.2140 C   0  0  0  0  0  0  0  0  0  0  0  0
   -2.6300   18.4730  -33.2560 C   0  0  0  0  0  0  0  0  0  0  0  0
   -3.7540   18.6080  -34.2280 C   0  0  0  0  0  0  0  0  0  0  0  0
   -5.0190   18.0950  -33.8480 N   0  0  0  0  0  0  0  0  0  0  0  0
   -5.2780   18.0340  -32.4380 C   0  0  0  0  0  0  0  0  0  0  0  0
   -6.7860   17.8900  -32.2810 C   0  0  0  0  0  0  0  0  0  0  0  0
   -7.3410   19.3060  -32.4450 C   0  0  0  0  0  0  0  0  0  0  0  0
   -6.5690   19.9460  -33.5840 C   0  0  0  0  0  0  0  0  0  0  0  0
   -6.1060   18.8120  -34.5050 C   0  0  0  0  0  0  0  0  0  0  0  0
   -3.2369   24.0937  -28.8241 H   0  0  0  0  0  0  0  0  0  0  0  0
   -2.8626   22.6825  -29.8705 H   0  0  0  0  0  0  0  0  0  0  0  0
   -1.7770   24.1136  -29.8705 H   0  0  0  0  0  0  0  0  0  0  0  0
   -5.4690   25.3106  -29.3182 H   0  0  0  0  0  0  0  0  0  0  0  0
   -7.9012   24.8598  -29.4637 H   0  0  0  0  0  0  0  0  0  0  0  0
   -8.7288   23.3122  -31.2645 H   0  0  0  0  0  0  0  0  0  0  0  0
   -7.1281   22.2812  -32.8391 H   0  0  0  0  0  0  0  0  0  0  0  0
   -4.3930   23.0880  -33.8340 H   0  0  0  0  0  0  0  0  0  0  0  0
   -2.6730   21.3880  -34.4360 H   0  0  0  0  0  0  0  0  0  0  0  0
   -1.1000   19.7931  -33.9677 H   0  0  0  0  0  0  0  0  0  0  0  0
   -1.5148   19.9330  -32.1913 H   0  0  0  0  0  0  0  0  0  0  0  0
   -1.9420   17.6801  -33.5845 H   0  0  0  0  0  0  0  0  0  0  0  0
   -3.0089   18.2055  -32.2586 H   0  0  0  0  0  0  0  0  0  0  0  0
   -3.8830   19.6808  -34.4340 H   0  0  0  0  0  0  0  0  0  0  0  0
   -3.4522   17.9934  -35.0889 H   0  0  0  0  0  0  0  0  0  0  0  0
   -4.7654   17.1676  -31.9946 H   0  0  0  0  0  0  0  0  0  0  0  0
   -4.9092   18.9353  -31.9265 H   0  0  0  0  0  0  0  0  0  0  0  0
   -7.1930   17.2236  -33.0558 H   0  0  0  0  0  0  0  0  0  0  0  0
   -7.0591   17.4502  -31.3104 H   0  0  0  0  0  0  0  0  0  0  0  0
   -8.4132   19.2675  -32.6879 H   0  0  0  0  0  0  0  0  0  0  0  0
   -7.2302   19.8852  -31.5164 H   0  0  0  0  0  0  0  0  0  0  0  0
   -7.2184   20.6405  -34.1371 H   0  0  0  0  0  0  0  0  0  0  0  0
   -5.7099   20.5177  -33.2032 H   0  0  0  0  0  0  0  0  0  0  0  0
   -6.9427   18.1237  -34.6951 H   0  0  0  0  0  0  0  0  0  0  0  0
   -5.7594   19.2240  -35.4642 H   0  0  0  0  0  0  0  0  0  0  0  0
  1  2  1  0
  2  3  1  0
  3  4  2  0
  4  5  1  0
  5  6  2  0
  6  7  1  0
  7  8  2  0
  8  9  1  0
  9 10  1  0
 10 11  2  0
 10 12  1  0
 12 13  1  0
 13 14  1  0
 14 15  1  0
 15 16  1  0
 16 17  1  0
 17 18  1  0
 18 19  1  0
 19 20  1  0
 20 21  1  0
  8  3  1  0
 21 16  1  0
  1 22  1  0
  1 23  1  0
  1 24  1  0
  4 25  1  0
  5 26  1  0
  6 27  1  0
  7 28  1  0
  9 29  1  0
 12 30  1  0
 13 31  1  0
 13 32  1  0
 14 33  1  0
 14 34  1  0
 15 35  1  0
 15 36  1  0
 17 37  1  0
 17 38  1  0
 18 39  1  0
 18 40  1  0
 19 41  1  0
 19 42  1  0
 20 43  1  0
 20 44  1  0
 21 45  1  0
 21 46  1  0
M  END
>  <smiles>  (5) 
COc1ccccc1NC(=S)NCCCN1CCCCC1

>  <score_type>  (5) 
oracle

>  <origin>  (5) 
adg

>  <m_score__min__energy>  (5) 
-8.4499999999999993

>  <m_primary>  (5) 
energy

$$$$
5:0
     RDKit          3D

 40 42  0  0  1  0  0  0  0  0999 V2000
   -3.1030   18.9120  -26.5920 C   0  0  0  0  0  0  0  0  0  0  0  0
   -2.1460   20.0830  -26.6200 C   0  0  0  0  0  0  0  0  0  0  0  0
   -1.4920   20.2550  -27.9620 C   0  0  0  0  0  0  0  0  0  0  0  0
   -2.2040   21.0990  -28.8700 N   0  0  0  0  0  0  0  0  0  0  0  0
   -2.3040   20.8540  -30.1970 C   0  0  0  0  0  0  0  0  0  0  0  0
   -3.0290   21.8100  -30.8010 N   0  0  0  0  0  0  0  0  0  0  0  0
   -3.4060   22.6850  -29.8750 C   0  0  0  0  0  0  0  0  0  0  0  0
   -4.1440   23.8530  -29.8490 C   0  0  0  0  0  0  0  0  0  0  0  0
   -4.6250   24.2700  -30.9640 N   0  0  0  0  0  0  0  0  0  0  0  0
   -6.0160   24.3530  -31.2780 C   0  0  0  0  0  0  0  0  0  0  0  0
   -6.6280   23.0470  -31.6480 C   0  0  0  0  0  0  0  0  0  0  0  0
   -7.9620   22.7470  -31.3380 C   0  0  0  0  0  0  0  0  0  0  0  0
   -8.5440   21.5540  -31.6690 C   0  0  0  0  0  0  0  0  0  0  0  0
   -7.8480   20.5880  -32.3220 C   0  0  0  0  0  0  0  0  0  0  0  0
   -6.5310   20.8360  -32.6490 C   0  0  0  0  0  0  0  0  0  0  0  0
   -5.9410   22.0530  -32.3100 C   0  0  0  0  0  0  0  0  0  0  0  0
   -4.3690   24.5490  -28.7220 N   0  0  0  0  0  0  0  0  0  0  0  0
   -3.8530   24.0850  -27.5880 C   0  0  0  0  0  0  0  0  0  0  0  0
   -4.1190   24.8790  -26.3450 C   0  0  0  0  0  0  0  0  0  0  0  0
   -3.1150   22.9370  -27.5400 N   0  0  0  0  0  0  0  0  0  0  0  0
   -2.8850   22.2330  -28.6710 C   0  0  0  0  0  0  0  0  0  0  0  0
   -3.3228   18.6430  -25.5483 H   0  0  0  0  0  0  0  0  0  0  0  0
   -4.0365   19.1891  -27.1037 H   0  0  0  0  0  0  0  0  0  0  0  0
   -2.6456   18.0523  -27.1037 H   0  0  0  0  0  0  0  0  0  0  0  0
   -2.7027   21.0003  -26.3779 H   0  0  0  0  0  0  0  0  0  0  0  0
   -1.3535   19.8868  -25.8828 H   0  0  0  0  0  0  0  0  0  0  0  0
   -0.4933   20.6879  -27.8034 H   0  0  0  0  0  0  0  0  0  0  0  0
   -1.4630   19.2569  -28.4235 H   0  0  0  0  0  0  0  0  0  0  0  0
   -1.8539   19.9914  -30.7101 H   0  0  0  0  0  0  0  0  0  0  0  0
   -6.5468   24.7481  -30.3993 H   0  0  0  0  0  0  0  0  0  0  0  0
   -6.1074   25.0096  -32.1558 H   0  0  0  0  0  0  0  0  0  0  0  0
   -8.5639   23.5000  -30.8082 H   0  0  0  0  0  0  0  0  0  0  0  0
   -9.5956   21.3739  -31.4011 H   0  0  0  0  0  0  0  0  0  0  0  0
   -8.3229   19.6310  -32.5839 H   0  0  0  0  0  0  0  0  0  0  0  0
   -5.9443   20.0711  -33.1789 H   0  0  0  0  0  0  0  0  0  0  0  0
   -4.8890   22.2258  -32.5809 H   0  0  0  0  0  0  0  0  0  0  0  0
   -4.9260   25.4220  -28.7380 H   0  0  0  0  0  0  0  0  0  0  0  0
   -3.9108   24.2577  -25.4615 H   0  0  0  0  0  0  0  0  0  0  0  0
   -3.4691   25.7663  -26.3306 H   0  0  0  0  0  0  0  0  0  0  0  0
   -5.1723   25.1957  -26.3306 H   0  0  0  0  0  0  0  0  0  0  0  0
  1  2  1  0
  2  3  1  0
  3  4  1  0
  4  5  1  0
  5  6  2  0
  6  7  1  0
  7  8  1  0
  8  9  2  0
  9 10  1  0
 10 11  1  0
 11 12  2  0
 12 13  1  0
 13 14  2  0
 14 15  1  0
 15 16  2  0
  8 17  1  0
 17 18  1  0
 18 19  1  0
 18 20  2  0
 20 21  1  0
 21  4  1  0
 21  7  2  0
 16 11  1  0
  1 22  1  0
  1 23  1  0
  1 24  1  0
  2 25  1  0
  2 26  1  0
  3 27  1  0
  3 28  1  0
  5 29  1  0
 10 30  1  0
 10 31  1  0
 12 32  1  0
 13 33  1  0
 14 34  1  0
 15 35  1  0
 16 36  1  0
 17 37  1  0
 19 38  1  0
 19 39  1  0
 19 40  1  0
M  END
>  <smiles>  (6) 
CCCn1cnc2c(=NCc3ccccc3)[nH]c(C)nc21

>  <score_type>  (6) 
oracle

>  <origin>  (6) 
adg

>  <m_score__min__energy>  (6) 
-7.2999999999999998

>  <m_primary>  (6) 
energy

$$$$
6:0
     RDKit          3D

 34 36  0  0  0  0  0  0  0  0999 V2000
   -0.4320   21.3690  -32.4350 N   0  0  0  0  0  0  0  0  0  0  0  0
   -1.7140   21.2280  -32.4530 C   0  0  0  0  0  0  0  0  0  0  0  0
   -2.2630   20.1290  -33.0130 N   0  0  0  0  0  0  0  0  0  0  0  0
   -3.6090   19.9820  -33.0330 C   0  0  0  0  0  0  0  0  0  0  0  0
   -4.2360   18.4840  -33.7920 S   0  0  0  0  0  0  0  0  0  0  0  0
   -5.8530   18.8660  -34.5270 C   0  0  0  0  0  0  0  0  0  0  0  0
   -6.8520   18.9680  -33.4270 C   0  0  0  0  0  0  0  0  0  0  0  0
   -7.2060   17.9180  -32.6160 C   0  0  0  0  0  0  0  0  0  0  0  0
   -8.1560   18.1750  -31.6230 C   0  0  0  0  0  0  0  0  0  0  0  0
   -8.7210   19.4170  -31.4510 C   0  0  0  0  0  0  0  0  0  0  0  0
   -8.3580   20.4880  -32.2780 C   0  0  0  0  0  0  0  0  0  0  0  0
   -8.8870   21.7170  -32.1400 F   0  0  0  0  0  0  0  0  0  0  0  0
   -7.4240   20.2340  -33.2560 C   0  0  0  0  0  0  0  0  0  0  0  0
   -4.4020   20.9200  -32.5000 N   0  0  0  0  0  0  0  0  0  0  0  0
   -3.8290   22.0200  -31.9390 C   0  0  0  0  0  0  0  0  0  0  0  0
   -4.7420   23.0020  -31.3640 C   0  0  0  0  0  0  0  0  0  0  0  0
   -6.1130   22.8060  -31.3030 C   0  0  0  0  0  0  0  0  0  0  0  0
   -6.9730   23.7390  -30.7610 C   0  0  0  0  0  0  0  0  0  0  0  0
   -6.4590   24.9260  -30.2540 C   0  0  0  0  0  0  0  0  0  0  0  0
   -5.0960   25.1130  -30.3190 C   0  0  0  0  0  0  0  0  0  0  0  0
   -4.2980   24.1770  -30.8540 N   0  0  0  0  0  0  0  0  0  0  0  0
   -2.5120   22.1690  -31.9170 N   0  0  0  0  0  0  0  0  0  0  0  0
    0.2290   20.5850  -32.2630 H   0  0  0  0  0  0  0  0  0  0  0  0
   -5.7988   19.8209  -35.0704 H   0  0  0  0  0  0  0  0  0  0  0  0
   -6.1454   18.0753  -35.2336 H   0  0  0  0  0  0  0  0  0  0  0  0
   -6.7621   16.9195  -32.7420 H   0  0  0  0  0  0  0  0  0  0  0  0
   -8.4621   17.3554  -30.9562 H   0  0  0  0  0  0  0  0  0  0  0  0
   -9.4655   19.5711  -30.6560 H   0  0  0  0  0  0  0  0  0  0  0  0
   -7.1171   21.0518  -33.9246 H   0  0  0  0  0  0  0  0  0  0  0  0
   -6.5315   21.8703  -31.7022 H   0  0  0  0  0  0  0  0  0  0  0  0
   -8.0553   23.5448  -30.7306 H   0  0  0  0  0  0  0  0  0  0  0  0
   -7.1179   25.6901  -29.8158 H   0  0  0  0  0  0  0  0  0  0  0  0
   -4.6562   26.0420  -29.9271 H   0  0  0  0  0  0  0  0  0  0  0  0
   -2.0470   22.9990  -31.4960 H   0  0  0  0  0  0  0  0  0  0  0  0
  1  2  2  3
  2  3  1  0
  3  4  2  0
  4  5  1  0
  5  6  1  0
  6  7  1  0
  7  8  2  0
  8  9  1  0
  9 10  2  0
 10 11  1  0
 11 12  1  0
 11 13  2  0
  4 14  1  0
 14 15  2  0
 15 16  1  0
 16 17  2  0
 17 18  1  0
 18 19  2  0
 19 20  1  0
 20 21  2  0
 15 22  1  0
 22  2  1  0
 13  7  1  0
 21 16  1  0
  1 23  1  0
  6 24  1  0
  6 25  1  0
  8 26  1  0
  9 27  1  0
 10 28  1  0
 13 29  1  0
 17 30  1  0
 18 31  1  0
 19 32  1  0
 20 33  1  0
 22 34  1  0
M  END
>  <smiles>  (7) 
N=c1nc(SCc2cccc(F)c2)nc(-c2ccccn2)[nH]1

>  <score_type>  (7) 
oracle

>  <origin>  (7) 
adg

>  <m_score__min__energy>  (7) 
-7.5300000000000002

>  <m_primary>  (7) 
energy

$$$$
7:0
     RDKit          3D

 38 40  0  0  0  0  0  0  0  0999 V2000
   -5.7120   25.6440  -30.1350 C   0  0  0  0  0  0  0  0  0  0  0  0
   -4.8750   24.8170  -30.9010 O   0  0  0  0  0  0  0  0  0  0  0  0
   -5.4340   23.7080  -31.4940 C   0  0  0  0  0  0  0  0  0  0  0  0
   -6.7320   23.6510  -31.9490 C   0  0  0  0  0  0  0  0  0  0  0  0
   -7.2430   22.5160  -32.5360 C   0  0  0  0  0  0  0  0  0  0  0  0
   -6.4760   21.3560  -32.7050 C   0  0  0  0  0  0  0  0  0  0  0  0
   -7.0480   20.2180  -33.3150 N   0  0  0  0  0  0  0  0  0  0  0  0
   -6.7090   18.8780  -32.9970 C   0  0  0  0  0  0  0  0  0  0  0  0
   -6.3950   18.4930  -31.8070 N   0  0  0  0  0  0  0  0  0  0  0  0
   -6.0940   17.0970  -31.7390 C   0  0  0  0  0  0  0  0  0  0  0  0
   -6.2700   16.5930  -33.1500 C   0  0  0  0  0  0  0  0  0  0  0  0
   -6.6530   17.7620  -33.8770 N   0  0  0  0  0  0  0  0  0  0  0  0
   -5.1820   21.4290  -32.2460 C   0  0  0  0  0  0  0  0  0  0  0  0
   -4.6600   22.5780  -31.6500 C   0  0  0  0  0  0  0  0  0  0  0  0
   -2.9670   22.6050  -31.0740 S   0  0  0  0  0  0  0  0  0  0  0  0
   -2.7910   23.4440  -29.5220 C   0  0  0  0  0  0  0  0  0  0  0  0
   -3.7350   23.4120  -28.5210 C   0  0  0  0  0  0  0  0  0  0  0  0
   -3.5380   24.0880  -27.3360 C   0  0  0  0  0  0  0  0  0  0  0  0
   -2.3970   24.8250  -27.0930 C   0  0  0  0  0  0  0  0  0  0  0  0
   -2.1430   25.6870  -25.5860 Cl  0  0  0  0  0  0  0  0  0  0  0  0
   -1.4310   24.8670  -28.1020 C   0  0  0  0  0  0  0  0  0  0  0  0
   -1.6490   24.1800  -29.2870 C   0  0  0  0  0  0  0  0  0  0  0  0
   -5.5281   25.4623  -29.0658 H   0  0  0  0  0  0  0  0  0  0  0  0
   -5.5006   26.6977  -30.3695 H   0  0  0  0  0  0  0  0  0  0  0  0
   -6.7631   25.4199  -30.3695 H   0  0  0  0  0  0  0  0  0  0  0  0
   -7.3772   24.5353  -31.8406 H   0  0  0  0  0  0  0  0  0  0  0  0
   -8.2867   22.5198  -32.8835 H   0  0  0  0  0  0  0  0  0  0  0  0
   -7.7780   20.3620  -34.0630 H   0  0  0  0  0  0  0  0  0  0  0  0
   -5.0600   16.9402  -31.3981 H   0  0  0  0  0  0  0  0  0  0  0  0
   -6.7432   16.5676  -31.0261 H   0  0  0  0  0  0  0  0  0  0  0  0
   -5.3285   16.1786  -33.5397 H   0  0  0  0  0  0  0  0  0  0  0  0
   -7.0079   15.7808  -33.2257 H   0  0  0  0  0  0  0  0  0  0  0  0
   -6.8670   17.8090  -34.9180 H   0  0  0  0  0  0  0  0  0  0  0  0
   -4.5328   20.5474  -32.3527 H   0  0  0  0  0  0  0  0  0  0  0  0
   -4.6615   22.8378  -28.6690 H   0  0  0  0  0  0  0  0  0  0  0  0
   -4.3152   24.0384  -26.5592 H   0  0  0  0  0  0  0  0  0  0  0  0
   -0.5039   25.4411  -27.9574 H   0  0  0  0  0  0  0  0  0  0  0  0
   -0.8792   24.2241  -30.0715 H   0  0  0  0  0  0  0  0  0  0  0  0
  1  2  1  0
  2  3  1  0
  3  4  2  0
  4  5  1  0
  5  6  2  0
  6  7  1  0
  7  8  1  0
  8  9  2  0
  9 10  1  0
 10 11  1  0
 11 12  1  0
  6 13  1  0
 13 14  2  0
 14 15  1  0
 15 16  1  0
 16 17  2  0
 17 18  1  0
 18 19  2  0
 19 20  1  0
 19 21  1  0
 21 22  2  0
 14  3  1  0
 22 16  1  0
 12  8  1  0
  1 23  1  0
  1 24  1  0
  1 25  1  0
  4 26  1  0
  5 27  1  0
  7 28  1  0
 10 29  1  0
 10 30  1  0
 11 31  1  0
 11 32  1  0
 12 33  1  0
 13 34  1  0
 17 35  1  0
 18 36  1  0
 21 37  1  0
 22 38  1  0
M  END
>  <smiles>  (8) 
COc1ccc(NC2=NCCN2)cc1Sc1ccc(Cl)cc1

>  <score_type>  (8) 
oracle

>  <origin>  (8) 
adg

>  <m_score__min__energy>  (8) 
-8.1500000000000004

>  <m_primary>  (8) 
energy

$$$$
8:0
     RDKit          3D

 41 43  0  0  0  0  0  0  0  0999 V2000
   -2.4110   24.6180  -28.1890 C   0  0  0  0  0  0  0  0  0  0  0  0
   -2.9770   25.2690  -29.3120 O   0  0  0  0  0  0  0  0  0  0  0  0
   -4.0470   24.7490  -30.0210 C   0  0  0  0  0  0  0  0  0  0  0  0
   -5.3330   25.2940  -29.9300 C   0  0  0  0  0  0  0  0  0  0  0  0
   -6.3320   24.7040  -30.6760 C   0  0  0  0  0  0  0  0  0  0  0  0
   -6.1220   23.6150  -31.4970 C   0  0  0  0  0  0  0  0  0  0  0  0
   -7.1500   23.0410  -32.2370 O   0  0  0  0  0  0  0  0  0  0  0  0
   -8.3360   22.6780  -31.5540 C   0  0  0  0  0  0  0  0  0  0  0  0
   -4.8440   23.0990  -31.5670 C   0  0  0  0  0  0  0  0  0  0  0  0
   -4.5740   21.7310  -32.5980 S   0  0  0  0  0  0  0  0  0  0  0  0
   -3.8170   20.6370  -31.8730 O   0  0  0  0  0  0  0  0  0  0  0  0
   -3.7160   22.1630  -33.7410 O   0  0  0  0  0  0  0  0  0  0  0  0
   -6.0610   21.0840  -33.1250 N   0  0  0  0  0  0  0  0  0  0  0  0
   -6.3690   19.7000  -33.1610 C   0  0  0  0  0  0  0  0  0  0  0  0
   -7.5070   19.1490  -32.6140 C   0  0  0  0  0  0  0  0  0  0  0  0
   -7.7740   17.7940  -32.6680 C   0  0  0  0  0  0  0  0  0  0  0  0
   -6.8850   16.9410  -33.2870 C   0  0  0  0  0  0  0  0  0  0  0  0
   -6.8920   15.6410  -33.4780 O   0  0  0  0  0  0  0  0  0  0  0  0
   -5.8060   15.2750  -34.1350 C   0  0  0  0  0  0  0  0  0  0  0  0
   -5.4150   13.8940  -34.5570 C   0  0  0  0  0  0  0  0  0  0  0  0
   -5.0270   16.3960  -34.3990 C   0  0  0  0  0  0  0  0  0  0  0  0
   -5.7270   17.4620  -33.8520 C   0  0  0  0  0  0  0  0  0  0  0  0
   -5.4690   18.8350  -33.7890 C   0  0  0  0  0  0  0  0  0  0  0  0
   -3.7910   23.6560  -30.8320 C   0  0  0  0  0  0  0  0  0  0  0  0
   -2.8041   25.0701  -27.2665 H   0  0  0  0  0  0  0  0  0  0  0  0
   -2.6724   23.5498  -28.2141 H   0  0  0  0  0  0  0  0  0  0  0  0
   -1.3168   24.7284  -28.2141 H   0  0  0  0  0  0  0  0  0  0  0  0
   -5.5396   26.1619  -29.2865 H   0  0  0  0  0  0  0  0  0  0  0  0
   -7.3473   25.1227  -30.6133 H   0  0  0  0  0  0  0  0  0  0  0  0
   -8.1648   22.7304  -30.4687 H   0  0  0  0  0  0  0  0  0  0  0  0
   -9.1452   23.3696  -31.8314 H   0  0  0  0  0  0  0  0  0  0  0  0
   -8.6194   21.6520  -31.8314 H   0  0  0  0  0  0  0  0  0  0  0  0
   -6.8210   21.7370  -33.4520 H   0  0  0  0  0  0  0  0  0  0  0  0
   -8.2298   19.8119  -32.1159 H   0  0  0  0  0  0  0  0  0  0  0  0
   -8.6953   17.3963  -32.2174 H   0  0  0  0  0  0  0  0  0  0  0  0
   -5.2395   13.2741  -33.6655 H   0  0  0  0  0  0  0  0  0  0  0  0
   -6.2232   13.4516  -35.1579 H   0  0  0  0  0  0  0  0  0  0  0  0
   -4.4948   13.9409  -35.1579 H   0  0  0  0  0  0  0  0  0  0  0  0
   -4.0630   16.4304  -34.9278 H   0  0  0  0  0  0  0  0  0  0  0  0
   -4.5491   19.2378  -34.2380 H   0  0  0  0  0  0  0  0  0  0  0  0
   -2.7777   23.2329  -30.8974 H   0  0  0  0  0  0  0  0  0  0  0  0
  1  2  1  0
  2  3  1  0
  3  4  2  0
  4  5  1  0
  5  6  2  0
  6  7  1  0
  7  8  1  0
  6  9  1  0
  9 10  1  0
 10 11  2  0
 10 12  2  0
 10 13  1  0
 13 14  1  0
 14 15  2  0
 15 16  1  0
 16 17  2  0
 17 18  1  0
 18 19  1  0
 19 20  1  0
 19 21  2  0
 21 22  1  0
 22 23  2  0
  9 24  2  0
 24  3  1  0
 23 14  1  0
 22 17  1  0
  1 25  1  0
  1 26  1  0
  1 27  1  0
  4 28  1  0
  5 29  1  0
  8 30  1  0
  8 31  1  0
  8 32  1  0
 13 33  1  0
 15 34  1  0
 16 35  1  0
 20 36  1  0
 20 37  1  0
 20 38  1  0
 21 39  1  0
 23 40  1  0
 24 41  1  0
M  END
>  <smiles>  (9) 
COc1ccc(OC)c(S(=O)(=O)Nc2ccc3oc(C)cc3c2)c1

>  <score_type>  (9) 
oracle

>  <origin>  (9) 
adg

>  <m_score__min__energy>  (9) 
-8.2899999999999991

>  <m_primary>  (9) 
energy

$$$$
9:0
     RDKit          3D

 31 31  0  0  0  0  0  0  0  0999 V2000
   -2.1800   26.0280  -25.6170 C   0  0  0  0  0  0  0  0  0  0  0  0
   -2.7930   25.2880  -26.6410 O   0  0  0  0  0  0  0  0  0  0  0  0
   -1.7950   24.4370  -27.1410 C   0  0  0  0  0  0  0  0  0  0  0  0
   -1.2010   25.1370  -28.3540 C   0  0  0  0  0  0  0  0  0  0  0  0
   -2.2010   25.2740  -29.3060 O   0  0  0  0  0  0  0  0  0  0  0  0
   -3.0410   24.1510  -29.2750 C   0  0  0  0  0  0  0  0  0  0  0  0
   -4.3620   24.4650  -28.8550 N   0  0  0  0  0  0  0  0  0  0  0  0
   -5.3960   24.9620  -30.1280 S   0  0  0  0  0  0  0  0  0  0  0  0
   -6.4410   25.9110  -29.6480 O   0  0  0  0  0  0  0  0  0  0  0  0
   -4.6080   25.6610  -31.1980 O   0  0  0  0  0  0  0  0  0  0  0  0
   -6.1080   23.4940  -30.7900 C   0  0  0  0  0  0  0  0  0  0  0  0
   -5.4040   22.7470  -31.7360 C   0  0  0  0  0  0  0  0  0  0  0  0
   -5.9570   21.5780  -32.2720 C   0  0  0  0  0  0  0  0  0  0  0  0
   -7.2090   21.1750  -31.8500 C   0  0  0  0  0  0  0  0  0  0  0  0
   -7.9290   21.9060  -30.9060 C   0  0  0  0  0  0  0  0  0  0  0  0
   -9.1610   21.4970  -30.5010 F   0  0  0  0  0  0  0  0  0  0  0  0
   -7.3570   23.0530  -30.3980 C   0  0  0  0  0  0  0  0  0  0  0  0
   -2.5024   25.6388  -24.6400 H   0  0  0  0  0  0  0  0  0  0  0  0
   -1.0871   25.9395  -25.7045 H   0  0  0  0  0  0  0  0  0  0  0  0
   -2.4704   27.0854  -25.7045 H   0  0  0  0  0  0  0  0  0  0  0  0
   -1.0189   24.2722  -26.3791 H   0  0  0  0  0  0  0  0  0  0  0  0
   -2.2080   23.4538  -27.4108 H   0  0  0  0  0  0  0  0  0  0  0  0
   -0.8237   26.1288  -28.0643 H   0  0  0  0  0  0  0  0  0  0  0  0
   -0.3652   24.5492  -28.7615 H   0  0  0  0  0  0  0  0  0  0  0  0
   -3.0866   23.7178  -30.2851 H   0  0  0  0  0  0  0  0  0  0  0  0
   -2.6207   23.4420  -28.5466 H   0  0  0  0  0  0  0  0  0  0  0  0
   -4.4780   24.9910  -27.9860 H   0  0  0  0  0  0  0  0  0  0  0  0
   -4.4076   23.0793  -32.0626 H   0  0  0  0  0  0  0  0  0  0  0  0
   -5.4029   20.9893  -33.0179 H   0  0  0  0  0  0  0  0  0  0  0  0
   -7.6477   20.2570  -32.2680 H   0  0  0  0  0  0  0  0  0  0  0  0
   -7.9158   23.6385  -29.6531 H   0  0  0  0  0  0  0  0  0  0  0  0
  1  2  1  0
  2  3  1  0
  3  4  1  0
  4  5  1  0
  5  6  1  0
  6  7  1  0
  7  8  1  0
  8  9  2  0
  8 10  2  0
  8 11  1  0
 11 12  2  0
 12 13  1  0
 13 14  2  0
 14 15  1  0
 15 16  1  0
 15 17  2  0
 17 11  1  0
  1 18  1  0
  1 19  1  0
  1 20  1  0
  3 21  1  0
  3 22  1  0
  4 23  1  0
  4 24  1  0
  6 25  1  0
  6 26  1  0
  7 27  1  0
 12 28  1  0
 13 29  1  0
 14 30  1  0
 17 31  1  0
M  END
>  <smiles>  (10) 
COCCOCNS(=O)(=O)c1cccc(F)c1

>  <score_type>  (10) 
oracle

>  <origin>  (10) 
adg

>  <m_score__min__energy>  (10) 
-7.0700000000000003

>  <m_primary>  (10) 
energy

$$$$
10:0
     RDKit          3D

 38 40  0  0  1  0  0  0  0  0999 V2000
   -1.1760   26.7750  -24.5340 C   0  0  0  0  0  0  0  0  0  0  0  0
   -1.2390   25.5740  -25.4200 C   0  0  0  0  0  0  0  0  0  0  0  0
   -0.8870   25.8820  -26.8210 N   0  0  0  0  0  0  0  0  0  0  0  0
   -1.5880   25.3800  -27.7760 C   0  0  0  0  0  0  0  0  0  0  0  0
   -1.4450   25.3020  -29.0940 N   0  0  0  0  0  0  0  0  0  0  0  0
   -2.4020   24.6960  -29.7150 N   0  0  0  0  0  0  0  0  0  0  0  0
   -3.3750   24.2010  -29.3390 C   0  0  0  0  0  0  0  0  0  0  0  0
   -4.5500   23.4860  -29.8690 C   0  0  0  0  0  0  0  0  0  0  0  0
   -4.2860   22.2210  -30.3710 C   0  0  0  0  0  0  0  0  0  0  0  0
   -5.2940   21.4460  -30.8960 C   0  0  0  0  0  0  0  0  0  0  0  0
   -6.5860   21.9250  -30.9270 C   0  0  0  0  0  0  0  0  0  0  0  0
   -7.6050   21.0640  -31.4910 C   0  0  0  0  0  0  0  0  0  0  0  0
   -7.2780   19.7240  -31.7100 C   0  0  0  0  0  0  0  0  0  0  0  0
   -8.2250   18.8480  -32.2530 C   0  0  0  0  0  0  0  0  0  0  0  0
   -9.4800   19.3260  -32.5660 C   0  0  0  0  0  0  0  0  0  0  0  0
   -9.7900   20.6520  -32.3450 C   0  0  0  0  0  0  0  0  0  0  0  0
   -8.8750   21.5300  -31.8130 C   0  0  0  0  0  0  0  0  0  0  0  0
   -9.1490   22.8420  -31.5840 F   0  0  0  0  0  0  0  0  0  0  0  0
   -6.8070   23.1760  -30.4230 C   0  0  0  0  0  0  0  0  0  0  0  0
   -5.8110   23.9790  -29.8880 C   0  0  0  0  0  0  0  0  0  0  0  0
   -6.1620   25.3220  -29.3690 C   0  0  0  0  0  0  0  0  0  0  0  0
   -3.2140   24.5130  -27.4790 S   0  0  0  0  0  0  0  0  0  0  0  0
   -1.1928   26.4555  -23.4816 H   0  0  0  0  0  0  0  0  0  0  0  0
   -0.2475   27.3299  -24.7340 H   0  0  0  0  0  0  0  0  0  0  0  0
   -2.0413   27.4240  -24.7340 H   0  0  0  0  0  0  0  0  0  0  0  0
   -0.5371   24.8178  -25.0386 H   0  0  0  0  0  0  0  0  0  0  0  0
   -2.2760   25.2071  -25.4102 H   0  0  0  0  0  0  0  0  0  0  0  0
   -0.5820   25.7240  -29.5670 H   0  0  0  0  0  0  0  0  0  0  0  0
   -3.2573   21.8320  -30.3492 H   0  0  0  0  0  0  0  0  0  0  0  0
   -5.0690   20.4443  -31.2909 H   0  0  0  0  0  0  0  0  0  0  0  0
   -6.2733   19.3560  -31.4550 H   0  0  0  0  0  0  0  0  0  0  0  0
   -7.9714   17.7920  -32.4278 H   0  0  0  0  0  0  0  0  0  0  0  0
  -10.2350   18.6491  -32.9925 H   0  0  0  0  0  0  0  0  0  0  0  0
  -10.7957   21.0166  -32.6011 H   0  0  0  0  0  0  0  0  0  0  0  0
   -7.8343   23.5686  -30.4429 H   0  0  0  0  0  0  0  0  0  0  0  0
   -6.1570   25.3029  -28.2692 H   0  0  0  0  0  0  0  0  0  0  0  0
   -5.4258   26.0571  -29.7263 H   0  0  0  0  0  0  0  0  0  0  0  0
   -7.1637   25.6029  -29.7263 H   0  0  0  0  0  0  0  0  0  0  0  0
  1  2  1  0
  2  3  1  0
  3  4  2  0
  4  5  1  0
  5  6  1  0
  6  7  2  0
  7  8  1  0
  8  9  2  0
  9 10  1  0
 10 11  2  0
 11 12  1  0
 12 13  2  0
 13 14  1  0
 14 15  2  0
 15 16  1  0
 16 17  2  0
 17 18  1  0
 11 19  1  0
 19 20  2  0
 20 21  1  0
  7 22  1  0
 22  4  1  0
 20  8  1  0
 17 12  1  0
  1 23  1  0
  1 24  1  0
  1 25  1  0
  2 26  1  0
  2 27  1  0
  5 28  1  0
  9 29  1  0
 10 30  1  0
 13 31  1  0
 14 32  1  0
 15 33  1  0
 16 34  1  0
 19 35  1  0
 21 36  1  0
 21 37  1  0
 21 38  1  0
M  END
>  <smiles>  (11) 
CCN=c1[nH]nc(-c2ccc(-c3ccccc3F)cc2C)s1

>  <score_type>  (11) 
oracle

>  <origin>  (11) 
adg

>  <m_score__min__energy>  (11) 
-7.9699999999999998

>  <m_primary>  (11) 
energy

$$$$
11:0
     RDKit          3D

 51 55  0  0  0  0  0  0  0  0999 V2000
   -4.2080   25.6670  -30.4160 O   0  0  0  0  0  0  0  0  0  0  0  0
   -5.1130   24.9940  -29.8550 C   0  0  0  0  0  0  0  0  0  0  0  0
   -6.4780   24.8370  -30.4640 C   0  0  0  0  0  0  0  0  0  0  0  0
   -6.6570   23.4620  -30.9420 N   0  0  0  0  0  0  0  0  0  0  0  0
   -7.7580   22.8130  -30.5990 N   0  0  0  0  0  0  0  0  0  0  0  0
   -7.9900   21.5450  -30.9930 C   0  0  0  0  0  0  0  0  0  0  0  0
   -7.0350   20.9350  -31.7770 C   0  0  0  0  0  0  0  0  0  0  0  0
   -6.9910   19.6700  -32.2790 C   0  0  0  0  0  0  0  0  0  0  0  0
   -7.8910   18.6230  -32.1810 C   0  0  0  0  0  0  0  0  0  0  0  0
   -7.6110   17.4150  -32.7800 C   0  0  0  0  0  0  0  0  0  0  0  0
   -6.4450   17.2690  -33.4660 C   0  0  0  0  0  0  0  0  0  0  0  0
   -5.5470   18.3340  -33.5570 C   0  0  0  0  0  0  0  0  0  0  0  0
   -5.7920   19.5570  -32.9700 C   0  0  0  0  0  0  0  0  0  0  0  0
   -5.1050   20.7220  -32.9070 N   0  0  0  0  0  0  0  0  0  0  0  0
   -3.7970   20.9640  -33.4700 C   0  0  0  0  0  0  0  0  0  0  0  0
   -2.6760   20.7790  -32.5360 C   0  0  0  0  0  0  0  0  0  0  0  0
   -2.4150   21.8820  -31.6870 C   0  0  0  0  0  0  0  0  0  0  0  0
   -1.4090   21.8950  -30.7760 C   0  0  0  0  0  0  0  0  0  0  0  0
   -0.5720   20.8160  -30.6250 C   0  0  0  0  0  0  0  0  0  0  0  0
   -0.8020   19.7310  -31.4390 C   0  0  0  0  0  0  0  0  0  0  0  0
   -1.8480   19.7240  -32.3810 C   0  0  0  0  0  0  0  0  0  0  0  0
   -2.0110   18.2700  -33.3130 Cl  0  0  0  0  0  0  0  0  0  0  0  0
   -5.8670   21.5560  -32.1740 C   0  0  0  0  0  0  0  0  0  0  0  0
   -5.7100   22.8670  -31.7150 C   0  0  0  0  0  0  0  0  0  0  0  0
   -4.7050   23.5380  -31.9840 O   0  0  0  0  0  0  0  0  0  0  0  0
   -4.8660   24.3420  -28.5920 N   0  0  0  0  0  0  0  0  0  0  0  0
   -3.5460   24.4750  -27.9820 C   0  0  0  0  0  0  0  0  0  0  0  0
   -2.9680   23.1060  -27.7780 C   0  0  0  0  0  0  0  0  0  0  0  0
   -1.7160   22.8150  -27.2580 C   0  0  0  0  0  0  0  0  0  0  0  0
   -1.6280   21.4310  -27.2610 C   0  0  0  0  0  0  0  0  0  0  0  0
   -2.8100   20.9630  -27.7710 C   0  0  0  0  0  0  0  0  0  0  0  0
   -3.6070   21.9920  -28.0790 O   0  0  0  0  0  0  0  0  0  0  0  0
   -7.2433   25.0622  -29.7066 H   0  0  0  0  0  0  0  0  0  0  0  0
   -6.5779   25.5307  -31.3118 H   0  0  0  0  0  0  0  0  0  0  0  0
   -8.9087   21.0162  -30.6992 H   0  0  0  0  0  0  0  0  0  0  0  0
   -8.8304   18.7559  -31.6244 H   0  0  0  0  0  0  0  0  0  0  0  0
   -8.3212   16.5784  -32.7048 H   0  0  0  0  0  0  0  0  0  0  0  0
   -6.2094   16.3097  -33.9499 H   0  0  0  0  0  0  0  0  0  0  0  0
   -4.6108   18.1923  -34.1169 H   0  0  0  0  0  0  0  0  0  0  0  0
   -3.6555   20.2734  -34.3144 H   0  0  0  0  0  0  0  0  0  0  0  0
   -3.7800   22.0234  -33.7657 H   0  0  0  0  0  0  0  0  0  0  0  0
   -3.0582   22.7705  -31.7698 H   0  0  0  0  0  0  0  0  0  0  0  0
   -1.2612   22.7854  -30.1473 H   0  0  0  0  0  0  0  0  0  0  0  0
    0.2441   20.8195  -29.8875 H   0  0  0  0  0  0  0  0  0  0  0  0
   -0.1527   18.8474  -31.3516 H   0  0  0  0  0  0  0  0  0  0  0  0
   -5.6330   23.7790  -28.1180 H   0  0  0  0  0  0  0  0  0  0  0  0
   -2.8897   25.0585  -28.6444 H   0  0  0  0  0  0  0  0  0  0  0  0
   -3.6313   24.9927  -27.0152 H   0  0  0  0  0  0  0  0  0  0  0  0
   -0.9539   23.5305  -26.9156 H   0  0  0  0  0  0  0  0  0  0  0  0
   -0.7746   20.8264  -26.9200 H   0  0  0  0  0  0  0  0  0  0  0  0
   -3.0651   19.9016  -27.9067 H   0  0  0  0  0  0  0  0  0  0  0  0
  1  2  2  0
  2  3  1  0
  3  4  1  0
  4  5  1  0
  5  6  2  0
  6  7  1  0
  7  8  1  0
  8  9  2  0
  9 10  1  0
 10 11  2  0
 11 12  1  0
 12 13  2  0
 13 14  1  0
 14 15  1  0
 15 16  1  0
 16 17  2  0
 17 18  1  0
 18 19  2  0
 19 20  1  0
 20 21  2  0
 21 22  1  0
 14 23  1  0
 23 24  1  0
 24 25  2  0
  2 26  1  0
 26 27  1  0
 27 28  1  0
 28 29  2  0
 29 30  1  0
 30 31  2  0
 31 32  1  0
 24  4  1  0
 32 28  1  0
 23  7  2  0
 13  8  1  0
 21 16  1  0
  3 33  1  0
  3 34  1  0
  6 35  1  0
  9 36  1  0
 10 37  1  0
 11 38  1  0
 12 39  1  0
 15 40  1  0
 15 41  1  0
 17 42  1  0
 18 43  1  0
 19 44  1  0
 20 45  1  0
 26 46  1  0
 27 47  1  0
 27 48  1  0
 29 49  1  0
 30 50  1  0
 31 51  1  0
M  END
>  <smiles>  (12) 
O=C(Cn1ncc2c3ccccc3n(Cc3ccccc3Cl)c2c1=O)NCc1ccco1

>  <score_type>  (12) 
oracle

>  <origin>  (12) 
adg

>  <m_score__min__energy>  (12) 
-10.119999999999999

>  <m_primary>  (12) 
energy

$$$$
12:0
     RDKit          3D

 40 42  0  0  1  0  0  0  0  0999 V2000
   -2.0700   25.0180  -28.4860 C   0  0  0  0  0  0  0  0  0  0  0  0
   -3.1760   24.3850  -29.2690 C   0  0  0  0  0  0  0  0  0  0  0  0
   -3.8470   23.2770  -28.7980 C   0  0  0  0  0  0  0  0  0  0  0  0
   -4.8660   22.7080  -29.5370 C   0  0  0  0  0  0  0  0  0  0  0  0
   -5.1830   23.2810  -30.7450 C   0  0  0  0  0  0  0  0  0  0  0  0
   -6.2170   22.7500  -31.5550 N   0  0  0  0  0  0  0  0  0  0  0  0
   -7.5960   23.1840  -31.4430 C   0  0  0  0  0  0  0  0  0  0  0  0
   -8.4250   21.9720  -31.8840 C   0  0  0  0  0  0  0  0  0  0  0  0
   -7.7260   20.7700  -31.2510 C   0  0  0  0  0  0  0  0  0  0  0  0
   -6.6070   20.4200  -32.2130 C   0  0  2  0  0  0  0  0  0  0  0  0
   -7.2320   19.7810  -33.4170 C   0  0  0  0  0  0  0  0  0  0  0  0
   -7.0210   18.3010  -33.2280 C   0  0  0  0  0  0  0  0  0  0  0  0
   -5.9120   18.1450  -32.3200 N   0  0  0  0  0  0  0  0  0  0  0  0
   -6.1240   17.0880  -31.3720 C   0  0  0  0  0  0  0  0  0  0  0  0
   -5.6590   19.3970  -31.6810 C   0  0  0  0  0  0  0  0  0  0  0  0
   -5.9230   21.7330  -32.5440 C   0  0  0  0  0  0  0  0  0  0  0  0
   -4.5000   24.3470  -31.1430 N   0  0  0  0  0  0  0  0  0  0  0  0
   -3.5200   24.9160  -30.4610 N   0  0  0  0  0  0  0  0  0  0  0  0
   -2.2701   24.9035  -27.4104 H   0  0  0  0  0  0  0  0  0  0  0  0
   -1.1171   24.5285  -28.7359 H   0  0  0  0  0  0  0  0  0  0  0  0
   -2.0094   26.0875  -28.7359 H   0  0  0  0  0  0  0  0  0  0  0  0
   -3.5690   22.8426  -27.8264 H   0  0  0  0  0  0  0  0  0  0  0  0
   -5.4070   21.8234  -29.1697 H   0  0  0  0  0  0  0  0  0  0  0  0
   -7.8328   23.4583  -30.4044 H   0  0  0  0  0  0  0  0  0  0  0  0
   -7.8025   24.0736  -32.0562 H   0  0  0  0  0  0  0  0  0  0  0  0
   -9.4590   22.0559  -31.5182 H   0  0  0  0  0  0  0  0  0  0  0  0
   -8.4867   21.8873  -32.9790 H   0  0  0  0  0  0  0  0  0  0  0  0
   -7.3194   21.0342  -30.2636 H   0  0  0  0  0  0  0  0  0  0  0  0
   -8.4142   19.9269  -31.0911 H   0  0  0  0  0  0  0  0  0  0  0  0
   -8.3057   20.0152  -33.4653 H   0  0  0  0  0  0  0  0  0  0  0  0
   -6.7874   20.1449  -34.3550 H   0  0  0  0  0  0  0  0  0  0  0  0
   -7.9253   17.8420  -32.8019 H   0  0  0  0  0  0  0  0  0  0  0  0
   -6.8130   17.8086  -34.1894 H   0  0  0  0  0  0  0  0  0  0  0  0
   -6.0435   17.4895  -30.3511 H   0  0  0  0  0  0  0  0  0  0  0  0
   -7.1261   16.6589  -31.5193 H   0  0  0  0  0  0  0  0  0  0  0  0
   -5.3649   16.3057  -31.5193 H   0  0  0  0  0  0  0  0  0  0  0  0
   -5.8025   19.2917  -30.5955 H   0  0  0  0  0  0  0  0  0  0  0  0
   -4.6244   19.7120  -31.8819 H   0  0  0  0  0  0  0  0  0  0  0  0
   -4.8355   21.5709  -32.5773 H   0  0  0  0  0  0  0  0  0  0  0  0
   -6.2976   22.0809  -33.5180 H   0  0  0  0  0  0  0  0  0  0  0  0
  1  2  1  0
  2  3  2  0
  3  4  1  0
  4  5  2  0
  5  6  1  0
  6  7  1  0
  7  8  1  0
  8  9  1  0
 10  9  1  1
 10 11  1  0
 11 12  1  0
 12 13  1  0
 13 14  1  0
 13 15  1  0
 10 16  1  0
  5 17  1  0
 17 18  2  0
 18  2  1  0
 16  6  1  0
 15 10  1  0
  1 19  1  0
  1 20  1  0
  1 21  1  0
  3 22  1  0
  4 23  1  0
  7 24  1  0
  7 25  1  0
  8 26  1  0
  8 27  1  0
  9 28  1  0
  9 29  1  0
 11 30  1  0
 11 31  1  0
 12 32  1  0
 12 33  1  0
 14 34  1  0
 14 35  1  0
 14 36  1  0
 15 37  1  0
 15 38  1  0
 16 39  1  0
 16 40  1  0
M  END
>  <smiles>  (13) 
Cc1ccc(N2CCCC3(CCN(C)C3)C2)nn1

>  <score_type>  (13) 
oracle

>  <origin>  (13) 
adg

>  <m_score__min__energy>  (13) 
-8.0899999999999999

>  <m_primary>  (13) 
energy

$$$$
13:0
     RDKit          3D

 31 33  0  0  0  0  0  0  0  0999 V2000
   -9.4740   22.6800  -31.6740 O   0  0  0  0  0  0  0  0  0  0  0  0
   -8.8050   21.6450  -31.9710 C   0  0  0  0  0  0  0  0  0  0  0  0
   -9.4890   20.4510  -31.8950 C   0  0  0  0  0  0  0  0  0  0  0  0
   -8.8760   19.2660  -32.1920 C   0  0  0  0  0  0  0  0  0  0  0  0
   -7.5450   19.3310  -32.5710 C   0  0  0  0  0  0  0  0  0  0  0  0
   -6.9380   18.1330  -32.8780 C   0  0  0  0  0  0  0  0  0  0  0  0
   -5.6190   18.1200  -33.2720 C   0  0  0  0  0  0  0  0  0  0  0  0
   -4.9710   19.3290  -33.3380 C   0  0  0  0  0  0  0  0  0  0  0  0
   -3.2840   19.3050  -33.8430 Cl  0  0  0  0  0  0  0  0  0  0  0  0
   -5.5860   20.5360  -33.0270 C   0  0  0  0  0  0  0  0  0  0  0  0
   -6.9060   20.5520  -32.6310 C   0  0  0  0  0  0  0  0  0  0  0  0
   -7.4950   21.7220  -32.3420 N   0  0  0  0  0  0  0  0  0  0  0  0
   -6.8560   22.9990  -32.3690 C   0  0  0  0  0  0  0  0  0  0  0  0
   -6.0850   23.3620  -31.1680 C   0  0  0  0  0  0  0  0  0  0  0  0
   -6.3820   24.5570  -30.4970 C   0  0  0  0  0  0  0  0  0  0  0  0
   -5.7000   24.9490  -29.3650 C   0  0  0  0  0  0  0  0  0  0  0  0
   -4.6860   24.1910  -28.8270 C   0  0  0  0  0  0  0  0  0  0  0  0
   -4.3780   23.0130  -29.4720 C   0  0  0  0  0  0  0  0  0  0  0  0
   -5.0700   22.6140  -30.6210 C   0  0  0  0  0  0  0  0  0  0  0  0
  -10.5459   20.4517  -31.5902 H   0  0  0  0  0  0  0  0  0  0  0  0
   -9.4130   18.3078  -32.1330 H   0  0  0  0  0  0  0  0  0  0  0  0
   -7.5040   17.1923  -32.8087 H   0  0  0  0  0  0  0  0  0  0  0  0
   -5.1055   17.1803  -33.5235 H   0  0  0  0  0  0  0  0  0  0  0  0
   -5.0202   21.4768  -33.0968 H   0  0  0  0  0  0  0  0  0  0  0  0
   -6.1680   23.0127  -33.2272 H   0  0  0  0  0  0  0  0  0  0  0  0
   -7.6701   23.7360  -32.4320 H   0  0  0  0  0  0  0  0  0  0  0  0
   -7.1840   25.2015  -30.8860 H   0  0  0  0  0  0  0  0  0  0  0  0
   -5.9748   25.8960  -28.8775 H   0  0  0  0  0  0  0  0  0  0  0  0
   -4.1459   24.5105  -27.9235 H   0  0  0  0  0  0  0  0  0  0  0  0
   -3.5739   22.3749  -29.0767 H   0  0  0  0  0  0  0  0  0  0  0  0
   -4.7911   21.6661  -31.1045 H   0  0  0  0  0  0  0  0  0  0  0  0
  1  2  2  0
  2  3  1  0
  3  4  2  0
  4  5  1  0
  5  6  2  0
  6  7  1  0
  7  8  2  0
  8  9  1  0
  8 10  1  0
 10 11  2  0
 11 12  1  0
 12 13  1  0
 13 14  1  0
 14 15  2  0
 15 16  1  0
 16 17  2  0
 17 18  1  0
 18 19  2  0
 12  2  1  0
 19 14  1  0
 11  5  1  0
  3 20  1  0
  4 21  1  0
  6 22  1  0
  7 23  1  0
 10 24  1  0
 13 25  1  0
 13 26  1  0
 15 27  1  0
 16 28  1  0
 17 29  1  0
 18 30  1  0
 19 31  1  0
M  END
>  <smiles>  (14) 
O=c1ccc2ccc(Cl)cc2n1Cc1ccccc1

>  <score_type>  (14) 
oracle

>  <origin>  (14) 
adg

>  <m_score__min__energy>  (14) 
-7.8600000000000003

>  <m_primary>  (14) 
energy

$$$$
14:0
     RDKit          3D

 35 37  0  0  0  0  0  0  0  0999 V2000
   -2.6820   18.2450  -25.9580 C   0  0  0  0  0  0  0  0  0  0  0  0
   -2.2230   19.3190  -26.8260 N   0  0  0  0  0  0  0  0  0  0  0  0
   -3.0600   20.2780  -27.2720 C   0  0  0  0  0  0  0  0  0  0  0  0
   -2.3040   21.1170  -28.0570 C   0  0  0  0  0  0  0  0  0  0  0  0
   -2.8340   22.2850  -28.7300 C   0  0  0  0  0  0  0  0  0  0  0  0
   -2.8050   22.2620  -30.1260 C   0  0  0  0  0  0  0  0  0  0  0  0
   -3.2900   23.3310  -30.7970 N   0  0  0  0  0  0  0  0  0  0  0  0
   -3.7980   24.4100  -30.1760 C   0  0  0  0  0  0  0  0  0  0  0  0
   -4.2550   25.4180  -30.8430 N   0  0  0  0  0  0  0  0  0  0  0  0
   -5.6820   25.6640  -30.8350 C   0  0  0  0  0  0  0  0  0  0  0  0
   -6.3320   24.3280  -30.9730 C   0  0  0  0  0  0  0  0  0  0  0  0
   -6.3500   23.7050  -32.2210 C   0  0  0  0  0  0  0  0  0  0  0  0
   -6.9450   22.4690  -32.3620 C   0  0  0  0  0  0  0  0  0  0  0  0
   -7.5350   21.8130  -31.2920 C   0  0  0  0  0  0  0  0  0  0  0  0
   -7.5080   22.4480  -30.0490 C   0  0  0  0  0  0  0  0  0  0  0  0
   -6.9180   23.6880  -29.8840 C   0  0  0  0  0  0  0  0  0  0  0  0
   -3.8300   24.4400  -28.8180 N   0  0  0  0  0  0  0  0  0  0  0  0
   -3.3510   23.3840  -28.1130 C   0  0  0  0  0  0  0  0  0  0  0  0
   -0.9960   20.6500  -28.0800 C   0  0  0  0  0  0  0  0  0  0  0  0
   -1.0240   19.5440  -27.3010 N   0  0  0  0  0  0  0  0  0  0  0  0
   -2.5545   18.5432  -24.9069 H   0  0  0  0  0  0  0  0  0  0  0  0
   -3.7451   18.0429  -26.1555 H   0  0  0  0  0  0  0  0  0  0  0  0
   -2.0933   17.3370  -26.1555 H   0  0  0  0  0  0  0  0  0  0  0  0
   -4.1337   20.3707  -27.0517 H   0  0  0  0  0  0  0  0  0  0  0  0
   -2.3974   21.3951  -30.6667 H   0  0  0  0  0  0  0  0  0  0  0  0
   -5.9824   26.1390  -29.8894 H   0  0  0  0  0  0  0  0  0  0  0  0
   -5.9780   26.3414  -31.6495 H   0  0  0  0  0  0  0  0  0  0  0  0
   -5.8908   24.1984  -33.0903 H   0  0  0  0  0  0  0  0  0  0  0  0
   -6.9519   21.9894  -33.3519 H   0  0  0  0  0  0  0  0  0  0  0  0
   -8.0073   20.8276  -31.4182 H   0  0  0  0  0  0  0  0  0  0  0  0
   -7.9663   21.9509  -29.1813 H   0  0  0  0  0  0  0  0  0  0  0  0
   -6.9117   24.1678  -28.8942 H   0  0  0  0  0  0  0  0  0  0  0  0
   -4.2260   25.2800  -28.3050 H   0  0  0  0  0  0  0  0  0  0  0  0
   -3.3810   23.4163  -27.0139 H   0  0  0  0  0  0  0  0  0  0  0  0
   -0.1341   21.0810  -28.6105 H   0  0  0  0  0  0  0  0  0  0  0  0
  1  2  1  0
  2  3  1  0
  3  4  2  0
  4  5  1  0
  5  6  1  0
  6  7  2  0
  7  8  1  0
  8  9  2  3
  9 10  1  0
 10 11  1  0
 11 12  2  0
 12 13  1  0
 13 14  2  0
 14 15  1  0
 15 16  2  0
  8 17  1  0
 17 18  1  0
  4 19  1  0
 19 20  2  0
 20  2  1  0
 18  5  2  0
 16 11  1  0
  1 21  1  0
  1 22  1  0
  1 23  1  0
  3 24  1  0
  6 25  1  0
 10 26  1  0
 10 27  1  0
 12 28  1  0
 13 29  1  0
 14 30  1  0
 15 31  1  0
 16 32  1  0
 17 33  1  0
 18 34  1  0
 19 35  1  0
M  END
>  <smiles>  (15) 
Cn1cc(-c2cnc(=NCc3ccccc3)[nH]c2)cn1

>  <score_type>  (15) 
oracle

>  <origin>  (15) 
adg

>  <m_score__min__energy>  (15) 
-7.4400000000000004

>  <m_primary>  (15) 
energy

$$$$
15:0
     RDKit          3D

 26 26  0  0  0  0  0  0  0  0999 V2000
   -3.9130   21.6170  -32.7230 C   0  0  0  0  0  0  0  0  0  0  0  0
   -5.3650   21.5150  -32.4980 C   0  0  0  0  0  0  0  0  0  0  0  0
   -6.1260   20.4250  -32.6640 N   0  0  0  0  0  0  0  0  0  0  0  0
   -7.3870   20.6440  -32.3830 N   0  0  0  0  0  0  0  0  0  0  0  0
   -8.4690   19.6840  -32.4570 C   0  0  0  0  0  0  0  0  0  0  0  0
   -7.4670   21.9360  -32.0140 C   0  0  0  0  0  0  0  0  0  0  0  0
   -8.7350   22.5840  -31.6070 C   0  0  0  0  0  0  0  0  0  0  0  0
   -6.2120   22.5280  -32.0730 C   0  0  0  0  0  0  0  0  0  0  0  0
   -5.8600   23.9310  -31.7550 C   0  0  0  0  0  0  0  0  0  0  0  0
   -4.9520   24.0210  -30.5530 C   0  0  0  0  0  0  0  0  0  0  0  0
   -4.2670   25.2940  -30.6210 N   0  0  0  0  0  0  0  0  0  0  0  0
   -3.3935   21.6535  -31.7541 H   0  0  0  0  0  0  0  0  0  0  0  0
   -3.5676   20.7409  -33.2915 H   0  0  0  0  0  0  0  0  0  0  0  0
   -3.6935   22.5328  -33.2915 H   0  0  0  0  0  0  0  0  0  0  0  0
   -8.7825   19.4058  -31.4400 H   0  0  0  0  0  0  0  0  0  0  0  0
   -9.3192   20.1304  -32.9936 H   0  0  0  0  0  0  0  0  0  0  0  0
   -8.1270   18.7867  -32.9936 H   0  0  0  0  0  0  0  0  0  0  0  0
   -8.7951   22.6147  -30.5091 H   0  0  0  0  0  0  0  0  0  0  0  0
   -8.7671   23.6090  -32.0048 H   0  0  0  0  0  0  0  0  0  0  0  0
   -9.5845   22.0095  -32.0048 H   0  0  0  0  0  0  0  0  0  0  0  0
   -5.3488   24.3753  -32.6218 H   0  0  0  0  0  0  0  0  0  0  0  0
   -6.7888   24.4732  -31.5239 H   0  0  0  0  0  0  0  0  0  0  0  0
   -5.5454   23.9625  -29.6286 H   0  0  0  0  0  0  0  0  0  0  0  0
   -4.2296   23.1915  -30.5496 H   0  0  0  0  0  0  0  0  0  0  0  0
   -4.6030   25.9680  -29.9170 H   0  0  0  0  0  0  0  0  0  0  0  0
   -4.2430   25.6710  -31.6040 H   0  0  0  0  0  0  0  0  0  0  0  0
  1  2  1  0
  2  3  2  0
  3  4  1  0
  4  5  1  0
  4  6  1  0
  6  7  1  0
  6  8  2  0
  8  9  1  0
  9 10  1  0
 10 11  1  0
  8  2  1  0
  1 12  1  0
  1 13  1  0
  1 14  1  0
  5 15  1  0
  5 16  1  0
  5 17  1  0
  7 18  1  0
  7 19  1  0
  7 20  1  0
  9 21  1  0
  9 22  1  0
 10 23  1  0
 10 24  1  0
 11 25  1  0
 11 26  1  0
M  END
>  <smiles>  (16) 
Cc1nn(C)c(C)c1CCN

>  <score_type>  (16) 
oracle

>  <origin>  (16) 
adg

>  <m_score__min__energy>  (16) 
-5.7599999999999998

>  <m_primary>  (16) 
energy

$$$$
16:0
     RDKit          3D

 35 36  0  0  0  0  0  0  0  0999 V2000
   -1.9670   20.4400  -27.0070 C   0  0  0  0  0  0  0  0  0  0  0  0
   -2.1560   21.8340  -27.4150 C   0  0  0  0  0  0  0  0  0  0  0  0
   -3.0510   22.3760  -28.2640 C   0  0  0  0  0  0  0  0  0  0  0  0
   -3.0520   23.6920  -28.4990 C   0  0  0  0  0  0  0  0  0  0  0  0
   -3.9680   24.4030  -29.3980 C   0  0  0  0  0  0  0  0  0  0  0  0
   -3.5400   24.9150  -30.4720 O   0  0  0  0  0  0  0  0  0  0  0  0
   -5.3490   24.5560  -29.1320 N   0  0  0  0  0  0  0  0  0  0  0  0
   -6.1290   25.2880  -30.1220 C   0  0  0  0  0  0  0  0  0  0  0  0
   -7.1000   24.2810  -30.7130 C   0  0  0  0  0  0  0  0  0  0  0  0
   -6.4160   23.3440  -31.6630 C   0  0  0  0  0  0  0  0  0  0  0  0
   -7.3150   22.1930  -31.9120 C   0  0  0  0  0  0  0  0  0  0  0  0
   -6.8040   20.9940  -32.4210 C   0  0  0  0  0  0  0  0  0  0  0  0
   -7.6180   19.9110  -32.6610 C   0  0  0  0  0  0  0  0  0  0  0  0
   -8.9640   19.9500  -32.4170 C   0  0  0  0  0  0  0  0  0  0  0  0
   -9.4890   21.1240  -31.9160 C   0  0  0  0  0  0  0  0  0  0  0  0
   -8.6700   22.2110  -31.6750 C   0  0  0  0  0  0  0  0  0  0  0  0
   -2.0640   24.4330  -27.8010 C   0  0  0  0  0  0  0  0  0  0  0  0
   -1.1480   23.2390  -26.8170 S   0  0  0  0  0  0  0  0  0  0  0  0
   -1.9585   20.3773  -25.9088 H   0  0  0  0  0  0  0  0  0  0  0  0
   -2.7903   19.8272  -27.4029 H   0  0  0  0  0  0  0  0  0  0  0  0
   -1.0103   20.0686  -27.4029 H   0  0  0  0  0  0  0  0  0  0  0  0
   -3.7862   21.7309  -28.7674 H   0  0  0  0  0  0  0  0  0  0  0  0
   -5.7590   24.1550  -28.2610 H   0  0  0  0  0  0  0  0  0  0  0  0
   -6.6772   26.1130  -29.6436 H   0  0  0  0  0  0  0  0  0  0  0  0
   -5.4856   25.7315  -30.8961 H   0  0  0  0  0  0  0  0  0  0  0  0
   -7.5485   23.6963  -29.8963 H   0  0  0  0  0  0  0  0  0  0  0  0
   -7.8704   24.8335  -31.2708 H   0  0  0  0  0  0  0  0  0  0  0  0
   -6.2056   23.8629  -32.6098 H   0  0  0  0  0  0  0  0  0  0  0  0
   -5.4658   22.9955  -31.2321 H   0  0  0  0  0  0  0  0  0  0  0  0
   -5.7277   20.9155  -32.6340 H   0  0  0  0  0  0  0  0  0  0  0  0
   -7.1741   18.9872  -33.0605 H   0  0  0  0  0  0  0  0  0  0  0  0
   -9.6043   19.0773  -32.6131 H   0  0  0  0  0  0  0  0  0  0  0  0
  -10.5666   21.1951  -31.7071 H   0  0  0  0  0  0  0  0  0  0  0  0
   -9.1217   23.1312  -31.2760 H   0  0  0  0  0  0  0  0  0  0  0  0
   -1.8929   25.5184  -27.8515 H   0  0  0  0  0  0  0  0  0  0  0  0
  1  2  1  0
  2  3  2  0
  3  4  1  0
  4  5  1  0
  5  6  2  0
  5  7  1  0
  7  8  1  0
  8  9  1  0
  9 10  1  0
 10 11  1  0
 11 12  2  0
 12 13  1  0
 13 14  2  0
 14 15  1  0
 15 16  2  0
  4 17  2  0
 17 18  1  0
 18  2  1  0
 16 11  1  0
  1 19  1  0
  1 20  1  0
  1 21  1  0
  3 22  1  0
  7 23  1  0
  8 24  1  0
  8 25  1  0
  9 26  1  0
  9 27  1  0
 10 28  1  0
 10 29  1  0
 12 30  1  0
 13 31  1  0
 14 32  1  0
 15 33  1  0
 16 34  1  0
 17 35  1  0
M  END
>  <smiles>  (17) 
Cc1cc(C(=O)NCCCc2ccccc2)cs1

>  <score_type>  (17) 
oracle

>  <origin>  (17) 
adg

>  <m_score__min__energy>  (17) 
-7.79

>  <m_primary>  (17) 
energy

$$$$
17:0
     RDKit          3D

 32 34  0  0  1  0  0  0  0  0999 V2000
   -4.2610   21.4420  -32.6010 C   0  0  0  0  0  0  0  0  0  0  0  0
   -5.2710   22.3430  -32.0210 C   0  0  0  0  0  0  0  0  0  0  0  0
   -4.9430   23.4850  -31.6010 N   0  0  0  0  0  0  0  0  0  0  0  0
   -5.7780   24.4690  -31.0200 C   0  0  2  0  0  0  0  0  0  0  0  0
   -5.2600   24.8940  -29.6360 C   0  0  0  0  0  0  0  0  0  0  0  0
   -7.2360   24.1730  -30.9160 C   0  0  0  0  0  0  0  0  0  0  0  0
   -7.5540   22.8360  -31.4360 C   0  0  0  0  0  0  0  0  0  0  0  0
   -8.7590   22.2240  -31.5120 N   0  0  0  0  0  0  0  0  0  0  0  0
   -8.6210   21.0210  -32.0440 N   0  0  0  0  0  0  0  0  0  0  0  0
   -7.3000   20.8050  -32.3370 C   0  0  0  0  0  0  0  0  0  0  0  0
   -6.8570   19.5690  -32.9410 C   0  0  0  0  0  0  0  0  0  0  0  0
   -7.1000   18.3690  -32.2600 C   0  0  0  0  0  0  0  0  0  0  0  0
   -6.6740   17.1540  -32.7520 C   0  0  0  0  0  0  0  0  0  0  0  0
   -5.9810   17.0740  -33.9490 C   0  0  0  0  0  0  0  0  0  0  0  0
   -5.7310   18.2480  -34.6360 C   0  0  0  0  0  0  0  0  0  0  0  0
   -6.1690   19.4550  -34.1220 C   0  0  0  0  0  0  0  0  0  0  0  0
   -6.6610   21.9370  -31.9560 C   0  0  0  0  0  0  0  0  0  0  0  0
   -3.7047   20.9457  -31.7922 H   0  0  0  0  0  0  0  0  0  0  0  0
   -4.7598   20.6834  -33.2221 H   0  0  0  0  0  0  0  0  0  0  0  0
   -3.5640   22.0238  -33.2221 H   0  0  0  0  0  0  0  0  0  0  0  0
   -5.7111   25.2827  -31.7572 H   0  0  0  0  0  0  0  0  0  0  0  0
   -5.8581   24.4033  -28.8541 H   0  0  0  0  0  0  0  0  0  0  0  0
   -4.2060   24.5970  -29.5319 H   0  0  0  0  0  0  0  0  0  0  0  0
   -5.3453   25.9857  -29.5319 H   0  0  0  0  0  0  0  0  0  0  0  0
   -7.5367   24.2260  -29.8592 H   0  0  0  0  0  0  0  0  0  0  0  0
   -7.7819   24.9152  -31.5170 H   0  0  0  0  0  0  0  0  0  0  0  0
   -9.6770   22.6090  -31.2080 H   0  0  0  0  0  0  0  0  0  0  0  0
   -7.6462   18.3973  -31.3056 H   0  0  0  0  0  0  0  0  0  0  0  0
   -6.8872   16.2350  -32.1864 H   0  0  0  0  0  0  0  0  0  0  0  0
   -5.6395   16.1048  -34.3416 H   0  0  0  0  0  0  0  0  0  0  0  0
   -5.1844   18.2218  -35.5902 H   0  0  0  0  0  0  0  0  0  0  0  0
   -5.9542   20.3719  -34.6904 H   0  0  0  0  0  0  0  0  0  0  0  0
  1  2  1  0
  2  3  2  0
  3  4  1  0
  4  5  1  0
  4  6  1  0
  6  7  1  0
  7  8  1  0
  8  9  1  0
  9 10  2  0
 10 11  1  0
 11 12  2  0
 12 13  1  0
 13 14  2  0
 14 15  1  0
 15 16  2  0
 10 17  1  0
 17  2  1  0
 17  7  2  0
 16 11  1  0
  1 18  1  0
  1 19  1  0
  1 20  1  0
  4 21  1  6
  5 22  1  0
  5 23  1  0
  5 24  1  0
  6 25  1  0
  6 26  1  0
  8 27  1  0
 12 28  1  0
 13 29  1  0
 14 30  1  0
 15 31  1  0
 16 32  1  0
M  END
>  <smiles>  (18) 
CC1=NC(C)Cc2[nH]nc(-c3ccccc3)c21

>  <score_type>  (18) 
oracle

>  <origin>  (18) 
adg

>  <m_score__min__energy>  (18) 
-7.75

>  <m_primary>  (18) 
energy

$$$$
18:0
     RDKit          3D

 35 37  0  0  1  0  0  0  0  0999 V2000
   -0.1490   21.1760  -34.4690 C   0  0  0  0  0  0  0  0  0  0  0  0
   -0.9140   21.2450  -33.1710 C   0  0  0  0  0  0  0  0  0  0  0  0
   -2.2970   21.5160  -33.4930 N   0  0  0  0  0  0  0  0  0  0  0  0
   -3.3130   20.8240  -32.7790 C   0  0  0  0  0  0  0  0  0  0  0  0
   -3.0240   19.9770  -31.8690 O   0  0  0  0  0  0  0  0  0  0  0  0
   -4.6860   21.0860  -33.0920 N   0  0  0  0  0  0  0  0  0  0  0  0
   -5.7280   20.3810  -32.3660 C   0  0  2  0  0  0  0  0  0  0  0  0
   -6.0520   19.0820  -32.9560 C   0  0  0  0  0  0  0  0  0  0  0  0
   -5.1860   18.6710  -33.9580 C   0  0  0  0  0  0  0  0  0  0  0  0
   -5.3840   17.4580  -34.5960 C   0  0  0  0  0  0  0  0  0  0  0  0
   -6.4590   16.6560  -34.2210 C   0  0  0  0  0  0  0  0  0  0  0  0
   -7.3030   17.0720  -33.2340 N   0  0  0  0  0  0  0  0  0  0  0  0
   -7.1020   18.2570  -32.6170 C   0  0  0  0  0  0  0  0  0  0  0  0
   -8.1260   18.5490  -31.5610 C   0  0  0  0  0  0  0  0  0  0  0  0
   -8.7970   19.7590  -31.8240 O   0  0  0  0  0  0  0  0  0  0  0  0
   -8.2440   21.0510  -31.9800 C   0  0  0  0  0  0  0  0  0  0  0  0
   -9.0140   22.1430  -31.9060 C   0  0  0  0  0  0  0  0  0  0  0  0
   -8.4740   23.3700  -32.0570 C   0  0  0  0  0  0  0  0  0  0  0  0
   -6.6750   23.0670  -32.3410 S   0  0  0  0  0  0  0  0  0  0  0  0
   -6.8890   21.2390  -32.2150 C   0  0  0  0  0  0  0  0  0  0  0  0
    0.9259   21.0790  -34.2564 H   0  0  0  0  0  0  0  0  0  0  0  0
   -0.4882   20.3048  -35.0486 H   0  0  0  0  0  0  0  0  0  0  0  0
   -0.3268   22.0938  -35.0486 H   0  0  0  0  0  0  0  0  0  0  0  0
   -0.8340   20.2867  -32.6370 H   0  0  0  0  0  0  0  0  0  0  0  0
   -0.5060   22.0351  -32.5235 H   0  0  0  0  0  0  0  0  0  0  0  0
   -2.5440   22.2020  -34.2310 H   0  0  0  0  0  0  0  0  0  0  0  0
   -4.9790   21.7680  -33.8270 H   0  0  0  0  0  0  0  0  0  0  0  0
   -5.3461   20.1440  -31.3620 H   0  0  0  0  0  0  0  0  0  0  0  0
   -4.3390   19.3106  -34.2470 H   0  0  0  0  0  0  0  0  0  0  0  0
   -4.6985   17.1309  -35.3917 H   0  0  0  0  0  0  0  0  0  0  0  0
   -6.6268   15.6899  -34.7195 H   0  0  0  0  0  0  0  0  0  0  0  0
   -8.8597   17.7298  -31.5361 H   0  0  0  0  0  0  0  0  0  0  0  0
   -7.6123   18.6386  -30.5925 H   0  0  0  0  0  0  0  0  0  0  0  0
  -10.0934   22.0395  -31.7210 H   0  0  0  0  0  0  0  0  0  0  0  0
   -8.9924   24.3395  -32.0192 H   0  0  0  0  0  0  0  0  0  0  0  0
  1  2  1  0
  2  3  1  0
  3  4  1  0
  4  5  2  0
  4  6  1  0
  6  7  1  0
  7  8  1  0
  8  9  2  0
  9 10  1  0
 10 11  2  0
 11 12  1  0
 12 13  2  0
 13 14  1  0
 14 15  1  0
 15 16  1  0
 16 17  1  0
 17 18  2  0
 18 19  1  0
 19 20  1  0
 20  7  1  0
 13  8  1  0
 20 16  2  0
  1 21  1  0
  1 22  1  0
  1 23  1  0
  2 24  1  0
  2 25  1  0
  3 26  1  0
  6 27  1  0
  7 28  1  1
  9 29  1  0
 10 30  1  0
 11 31  1  0
 14 32  1  0
 14 33  1  0
 17 34  1  0
 18 35  1  0
M  END
>  <smiles>  (19) 
CCNC(=O)NC1c2cccnc2COc2ccsc21

>  <score_type>  (19) 
oracle

>  <origin>  (19) 
adg

>  <m_score__min__energy>  (19) 
-7.6699999999999999

>  <m_primary>  (19) 
energy

$$$$
19:0
     RDKit          3D

 37 39  0  0  0  0  0  0  0  0999 V2000
   -6.0910   25.3150  -29.4980 C   0  0  0  0  0  0  0  0  0  0  0  0
   -5.4530   25.6780  -30.8370 C   0  0  0  0  0  0  0  0  0  0  0  0
   -4.0510   25.5210  -30.7830 O   0  0  0  0  0  0  0  0  0  0  0  0
   -3.5410   24.4400  -30.0830 C   0  0  0  0  0  0  0  0  0  0  0  0
   -2.9020   24.5640  -28.9170 N   0  0  0  0  0  0  0  0  0  0  0  0
   -2.3910   23.5570  -28.2020 C   0  0  0  0  0  0  0  0  0  0  0  0
   -1.7080   23.7820  -26.9340 C   0  0  0  0  0  0  0  0  0  0  0  0
   -1.8490   25.0140  -26.3230 C   0  0  0  0  0  0  0  0  0  0  0  0
   -1.2240   25.2820  -25.1230 C   0  0  0  0  0  0  0  0  0  0  0  0
   -0.4660   24.2810  -24.5720 C   0  0  0  0  0  0  0  0  0  0  0  0
   -0.3170   23.0460  -25.1710 C   0  0  0  0  0  0  0  0  0  0  0  0
   -0.9540   22.8520  -26.3410 N   0  0  0  0  0  0  0  0  0  0  0  0
   -2.5340   22.3100  -28.7000 N   0  0  0  0  0  0  0  0  0  0  0  0
   -3.1730   22.0960  -29.8850 C   0  0  0  0  0  0  0  0  0  0  0  0
   -3.6950   23.1740  -30.6070 C   0  0  0  0  0  0  0  0  0  0  0  0
   -4.3230   22.8830  -31.7870 O   0  0  0  0  0  0  0  0  0  0  0  0
   -5.5210   22.2280  -31.9420 C   0  0  0  0  0  0  0  0  0  0  0  0
   -5.4920   21.0240  -32.6430 C   0  0  0  0  0  0  0  0  0  0  0  0
   -6.6590   20.3040  -32.8410 C   0  0  0  0  0  0  0  0  0  0  0  0
   -7.8630   20.7860  -32.3390 C   0  0  0  0  0  0  0  0  0  0  0  0
   -7.9140   21.9770  -31.6430 C   0  0  0  0  0  0  0  0  0  0  0  0
   -6.7290   22.6600  -31.4680 C   0  0  0  0  0  0  0  0  0  0  0  0
   -5.4538   25.6776  -28.6779 H   0  0  0  0  0  0  0  0  0  0  0  0
   -7.0836   25.7836  -29.4257 H   0  0  0  0  0  0  0  0  0  0  0  0
   -6.1953   24.2223  -29.4257 H   0  0  0  0  0  0  0  0  0  0  0  0
   -5.8596   25.0212  -31.6201 H   0  0  0  0  0  0  0  0  0  0  0  0
   -5.6816   26.7300  -31.0630 H   0  0  0  0  0  0  0  0  0  0  0  0
   -2.4668   25.7895  -26.7993 H   0  0  0  0  0  0  0  0  0  0  0  0
   -1.3293   26.2588  -24.6283 H   0  0  0  0  0  0  0  0  0  0  0  0
    0.0433   24.4693  -23.6153 H   0  0  0  0  0  0  0  0  0  0  0  0
    0.2952   22.2555  -24.7125 H   0  0  0  0  0  0  0  0  0  0  0  0
   -3.2783   21.0726  -30.2744 H   0  0  0  0  0  0  0  0  0  0  0  0
   -4.5393   20.6440  -33.0405 H   0  0  0  0  0  0  0  0  0  0  0  0
   -6.6333   19.3534  -33.3939 H   0  0  0  0  0  0  0  0  0  0  0  0
   -8.7868   20.2106  -32.4986 H   0  0  0  0  0  0  0  0  0  0  0  0
   -8.8624   22.3658  -31.2438 H   0  0  0  0  0  0  0  0  0  0  0  0
   -6.7569   23.6097  -30.9137 H   0  0  0  0  0  0  0  0  0  0  0  0
  1  2  1  0
  2  3  1  0
  3  4  1  0
  4  5  2  0
  5  6  1  0
  6  7  1  0
  7  8  2  0
  8  9  1  0
  9 10  2  0
 10 11  1  0
 11 12  2  0
  6 13  2  0
 13 14  1  0
 14 15  2  0
 15 16  1  0
 16 17  1  0
 17 18  2  0
 18 19  1  0
 19 20  2  0
 20 21  1  0
 21 22  2  0
 15  4  1  0
 22 17  1  0
 12  7  1  0
  1 23  1  0
  1 24  1  0
  1 25  1  0
  2 26  1  0
  2 27  1  0
  8 28  1  0
  9 29  1  0
 10 30  1  0
 11 31  1  0
 14 32  1  0
 18 33  1  0
 19 34  1  0
 20 35  1  0
 21 36  1  0
 22 37  1  0
M  END
>  <smiles>  (20) 
CCOc1nc(-c2ccccn2)ncc1Oc1ccccc1

>  <score_type>  (20) 
oracle

>  <origin>  (20) 
adg

>  <m_score__min__energy>  (20) 
-7.6399999999999997

>  <m_primary>  (20) 
energy

$$$$
20:0
     RDKit          3D

 44 45  0  0  1  0  0  0  0  0999 V2000
   -0.7620   26.8100  -23.5150 C   0  0  0  0  0  0  0  0  0  0  0  0
   -0.2450   26.0840  -24.7390 C   0  0  0  0  0  0  0  0  0  0  0  0
    0.0110   24.7020  -24.5130 N   0  0  0  0  0  0  0  0  0  0  0  0
    0.4330   23.9200  -25.6130 C   0  0  2  0  0  0  0  0  0  0  0  0
    0.6620   24.6690  -26.8450 C   0  0  0  0  0  0  0  0  0  0  0  0
    0.8330   25.2550  -27.8230 N   0  0  0  0  0  0  0  0  0  0  0  0
   -0.4080   22.7140  -25.9190 C   0  0  0  0  0  0  0  0  0  0  0  0
   -1.6320   23.0780  -26.6810 C   0  0  0  0  0  0  0  0  0  0  0  0
   -2.3470   24.2400  -26.4420 C   0  0  0  0  0  0  0  0  0  0  0  0
   -3.4830   24.5280  -27.1860 C   0  0  0  0  0  0  0  0  0  0  0  0
   -3.9010   23.6540  -28.1680 C   0  0  0  0  0  0  0  0  0  0  0  0
   -5.0700   23.9030  -28.9670 N   0  0  0  0  0  0  0  0  0  0  0  0
   -4.9410   24.4250  -30.3070 C   0  0  0  0  0  0  0  0  0  0  0  0
   -3.8160   24.6760  -30.8140 O   0  0  0  0  0  0  0  0  0  0  0  0
   -6.2180   24.6440  -31.0450 C   0  0  0  0  0  0  0  0  0  0  0  0
   -6.6980   23.3190  -31.5210 C   0  0  0  0  0  0  0  0  0  0  0  0
   -8.0840   23.1300  -31.4940 C   0  0  0  0  0  0  0  0  0  0  0  0
   -8.6020   21.9440  -31.9140 C   0  0  0  0  0  0  0  0  0  0  0  0
   -7.7500   20.9690  -32.3520 C   0  0  0  0  0  0  0  0  0  0  0  0
   -6.3800   21.1360  -32.3890 C   0  0  0  0  0  0  0  0  0  0  0  0
   -5.8410   22.3270  -31.9680 C   0  0  0  0  0  0  0  0  0  0  0  0
   -3.1890   22.4820  -28.4180 C   0  0  0  0  0  0  0  0  0  0  0  0
   -2.0560   22.1940  -27.6750 C   0  0  0  0  0  0  0  0  0  0  0  0
   -0.4009   26.3029  -22.6081 H   0  0  0  0  0  0  0  0  0  0  0  0
   -0.3988   27.8483  -23.5238 H   0  0  0  0  0  0  0  0  0  0  0  0
   -1.8620   26.8063  -23.5238 H   0  0  0  0  0  0  0  0  0  0  0  0
   -0.9945   26.1731  -25.5392 H   0  0  0  0  0  0  0  0  0  0  0  0
    0.7132   26.5505  -25.0115 H   0  0  0  0  0  0  0  0  0  0  0  0
    0.5800   24.5320  -23.6820 H   0  0  0  0  0  0  0  0  0  0  0  0
    1.4021   23.5567  -25.2404 H   0  0  0  0  0  0  0  0  0  0  0  0
    0.1865   22.0065  -26.5157 H   0  0  0  0  0  0  0  0  0  0  0  0
   -0.7186   22.2609  -24.9660 H   0  0  0  0  0  0  0  0  0  0  0  0
   -2.0133   24.9374  -25.6595 H   0  0  0  0  0  0  0  0  0  0  0  0
   -4.0488   25.4514  -26.9929 H   0  0  0  0  0  0  0  0  0  0  0  0
   -6.0210   23.7060  -28.5760 H   0  0  0  0  0  0  0  0  0  0  0  0
   -6.9652   25.0947  -30.3753 H   0  0  0  0  0  0  0  0  0  0  0  0
   -6.0602   25.3246  -31.8946 H   0  0  0  0  0  0  0  0  0  0  0  0
   -8.7476   23.9314  -31.1371 H   0  0  0  0  0  0  0  0  0  0  0  0
   -9.6885   21.7726  -31.9013 H   0  0  0  0  0  0  0  0  0  0  0  0
   -8.1735   20.0114  -32.6891 H   0  0  0  0  0  0  0  0  0  0  0  0
   -5.7292   20.3263  -32.7507 H   0  0  0  0  0  0  0  0  0  0  0  0
   -4.7532   22.4894  -31.9854 H   0  0  0  0  0  0  0  0  0  0  0  0
   -3.5257   21.7883  -29.2025 H   0  0  0  0  0  0  0  0  0  0  0  0
   -1.4911   21.2701  -27.8678 H   0  0  0  0  0  0  0  0  0  0  0  0
  1  2  1  0
  2  3  1  0
  3  4  1  0
  4  5  1  0
  5  6  3  0
  4  7  1  0
  7  8  1  0
  8  9  2  0
  9 10  1  0
 10 11  2  0
 11 12  1  0
 12 13  1  0
 13 14  2  0
 13 15  1  0
 15 16  1  0
 16 17  2  0
 17 18  1  0
 18 19  2  0
 19 20  1  0
 20 21  2  0
 11 22  1  0
 22 23  2  0
 23  8  1  0
 21 16  1  0
  1 24  1  0
  1 25  1  0
  1 26  1  0
  2 27  1  0
  2 28  1  0
  3 29  1  0
  4 30  1  1
  7 31  1  0
  7 32  1  0
  9 33  1  0
 10 34  1  0
 12 35  1  0
 15 36  1  0
 15 37  1  0
 17 38  1  0
 18 39  1  0
 19 40  1  0
 20 41  1  0
 21 42  1  0
 22 43  1  0
 23 44  1  0
M  END
>  <smiles>  (21) 
CCNC(C#N)Cc1ccc(NC(=O)Cc2ccccc2)cc1

>  <score_type>  (21) 
oracle

>  <origin>  (21) 
adg

>  <m_score__min__energy>  (21) 
-8.3200000000000003

>  <m_primary>  (21) 
energy

$$$$
21:0
     RDKit          3D

 25 26  0  0  0  0  0  0  0  0999 V2000
   -3.8610   25.2980  -30.5980 O   0  0  0  0  0  0  0  0  0  0  0  0
   -4.2840   24.2120  -30.0670 C   0  0  0  0  0  0  0  0  0  0  0  0
   -3.6150   23.7620  -28.9330 N   0  0  0  0  0  0  0  0  0  0  0  0
   -2.5130   24.3530  -28.2730 C   0  0  0  0  0  0  0  0  0  0  0  0
   -2.5270   24.9250  -27.0370 C   0  0  0  0  0  0  0  0  0  0  0  0
   -1.3710   25.4850  -26.4700 C   0  0  0  0  0  0  0  0  0  0  0  0
   -0.1720   25.4750  -27.1520 C   0  0  0  0  0  0  0  0  0  0  0  0
   -0.1770   24.9070  -28.3700 N   0  0  0  0  0  0  0  0  0  0  0  0
   -1.2660   24.3700  -28.9240 C   0  0  0  0  0  0  0  0  0  0  0  0
   -5.4120   23.5950  -30.7330 C   0  0  0  0  0  0  0  0  0  0  0  0
   -5.2110   22.4070  -31.4590 C   0  0  0  0  0  0  0  0  0  0  0  0
   -6.2360   21.7690  -32.1140 C   0  0  0  0  0  0  0  0  0  0  0  0
   -5.8980   20.1540  -33.0850 Br  0  0  0  0  0  0  0  0  0  0  0  0
   -7.5120   22.2560  -32.0980 C   0  0  0  0  0  0  0  0  0  0  0  0
   -7.7420   23.4190  -31.3960 C   0  0  0  0  0  0  0  0  0  0  0  0
   -6.6950   24.0630  -30.7310 C   0  0  0  0  0  0  0  0  0  0  0  0
   -7.0310   25.1910  -30.0770 F   0  0  0  0  0  0  0  0  0  0  0  0
   -3.9680   22.8590  -28.4960 H   0  0  0  0  0  0  0  0  0  0  0  0
   -3.4683   24.9489  -26.4683 H   0  0  0  0  0  0  0  0  0  0  0  0
   -1.4221   25.9377  -25.4688 H   0  0  0  0  0  0  0  0  0  0  0  0
    0.7418   25.9098  -26.7208 H   0  0  0  0  0  0  0  0  0  0  0  0
   -1.1856   23.9243  -29.9264 H   0  0  0  0  0  0  0  0  0  0  0  0
   -4.2004   21.9750  -31.5036 H   0  0  0  0  0  0  0  0  0  0  0  0
   -8.3263   21.7385  -32.6263 H   0  0  0  0  0  0  0  0  0  0  0  0
   -8.7562   23.8433  -31.3587 H   0  0  0  0  0  0  0  0  0  0  0  0
  1  2  2  0
  2  3  1  0
  3  4  1  0
  4  5  2  0
  5  6  1  0
  6  7  2  0
  7  8  1  0
  8  9  2  0
  2 10  1  0
 10 11  2  0
 11 12  1  0
 12 13  1  0
 12 14  2  0
 14 15  1  0
 15 16  2  0
 16 17  1  0
  9  4  1  0
 16 10  1  0
  3 18  1  0
  5 19  1  0
  6 20  1  0
  7 21  1  0
  9 22  1  0
 11 23  1  0
 14 24  1  0
 15 25  1  0
M  END
>  <smiles>  (22) 
O=C(Nc1cccnc1)c1cc(Br)ccc1F

>  <score_type>  (22) 
oracle

>  <origin>  (22) 
adg

>  <m_score__min__energy>  (22) 
-7.1799999999999997

>  <m_primary>  (22) 
energy

$$$$
22:0
     RDKit          3D

 29 31  0  0  0  0  0  0  0  0999 V2000
   -4.9660   24.7230  -28.4930 N   0  0  0  0  0  0  0  0  0  0  0  0
   -5.3080   24.8580  -30.1770 S   0  0  0  0  0  0  0  0  0  0  0  0
   -6.6020   25.6400  -30.3100 O   0  0  0  0  0  0  0  0  0  0  0  0
   -4.2370   25.6630  -30.8450 O   0  0  0  0  0  0  0  0  0  0  0  0
   -5.4830   23.2690  -30.8840 C   0  0  0  0  0  0  0  0  0  0  0  0
   -4.4110   22.3960  -30.7140 C   0  0  0  0  0  0  0  0  0  0  0  0
   -4.4910   21.1310  -31.2480 C   0  0  0  0  0  0  0  0  0  0  0  0
   -5.6210   20.7540  -31.9390 C   0  0  0  0  0  0  0  0  0  0  0  0
   -5.6350   19.3920  -32.4800 C   0  0  0  0  0  0  0  0  0  0  0  0
   -4.7990   18.5540  -32.8620 N   0  0  0  0  0  0  0  0  0  0  0  0
   -5.0860   17.3680  -33.3180 C   0  0  0  0  0  0  0  0  0  0  0  0
   -4.1890   16.3740  -33.7650 C   0  0  0  0  0  0  0  0  0  0  0  0
   -4.6850   15.1760  -34.2130 C   0  0  0  0  0  0  0  0  0  0  0  0
   -6.0100   14.8440  -34.2690 C   0  0  0  0  0  0  0  0  0  0  0  0
   -6.9020   15.8310  -33.8250 C   0  0  0  0  0  0  0  0  0  0  0  0
   -6.4020   17.0400  -33.3720 C   0  0  0  0  0  0  0  0  0  0  0  0
   -7.2380   18.4860  -32.7480 S   0  0  0  0  0  0  0  0  0  0  0  0
   -6.6940   21.5950  -32.1220 C   0  0  0  0  0  0  0  0  0  0  0  0
   -6.6030   22.8690  -31.5780 C   0  0  0  0  0  0  0  0  0  0  0  0
   -4.7270   25.6510  -28.0850 H   0  0  0  0  0  0  0  0  0  0  0  0
   -5.7140   24.2430  -27.9640 H   0  0  0  0  0  0  0  0  0  0  0  0
   -3.5144   22.7133  -30.1613 H   0  0  0  0  0  0  0  0  0  0  0  0
   -3.6571   20.4244  -31.1238 H   0  0  0  0  0  0  0  0  0  0  0  0
   -3.1045   16.5579  -33.7542 H   0  0  0  0  0  0  0  0  0  0  0  0
   -3.9593   14.4230  -34.5541 H   0  0  0  0  0  0  0  0  0  0  0  0
   -6.3540   13.8666  -34.6382 H   0  0  0  0  0  0  0  0  0  0  0  0
   -7.9864   15.6467  -33.8365 H   0  0  0  0  0  0  0  0  0  0  0  0
   -7.5872   21.2715  -32.6765 H   0  0  0  0  0  0  0  0  0  0  0  0
   -7.4403   23.5712  -31.7036 H   0  0  0  0  0  0  0  0  0  0  0  0
  1  2  1  0
  2  3  2  0
  2  4  2  0
  2  5  1  0
  5  6  2  0
  6  7  1  0
  7  8  2  0
  8  9  1  0
  9 10  2  0
 10 11  1  0
 11 12  2  0
 12 13  1  0
 13 14  2  0
 14 15  1  0
 15 16  2  0
 16 17  1  0
  8 18  1  0
 18 19  2  0
 19  5  1  0
 17  9  1  0
 16 11  1  0
  1 20  1  0
  1 21  1  0
  6 22  1  0
  7 23  1  0
 12 24  1  0
 13 25  1  0
 14 26  1  0
 15 27  1  0
 18 28  1  0
 19 29  1  0
M  END
>  <smiles>  (23) 
NS(=O)(=O)c1ccc(-c2nc3ccccc3s2)cc1

>  <score_type>  (23) 
oracle

>  <origin>  (23) 
adg

>  <m_score__min__energy>  (23) 
-8.1999999999999993

>  <m_primary>  (23) 
energy

$$$$
23:0
     RDKit          3D

 54 56  0  0  0  0  0  0  0  0999 V2000
   -3.8860   24.1270  -27.4790 C   0  0  0  0  0  0  0  0  0  0  0  0
   -3.1980   23.3030  -28.5150 C   0  0  0  0  0  0  0  0  0  0  0  0
   -4.0120   22.2460  -29.1480 C   0  0  0  0  0  0  0  0  0  0  0  0
   -4.8130   22.5900  -30.2830 N   0  0  0  0  0  0  0  0  0  0  0  0
   -5.9980   23.4030  -30.2860 C   0  0  0  0  0  0  0  0  0  0  0  0
   -5.8090   24.8630  -30.4650 C   0  0  0  0  0  0  0  0  0  0  0  0
   -6.4550   25.7280  -29.3990 C   0  0  0  0  0  0  0  0  0  0  0  0
   -4.3640   22.1230  -31.5750 C   0  0  0  0  0  0  0  0  0  0  0  0
   -5.0230   22.3990  -32.6330 O   0  0  0  0  0  0  0  0  0  0  0  0
   -3.1470   21.3130  -31.7740 C   0  0  0  0  0  0  0  0  0  0  0  0
   -3.1180   20.7480  -33.5230 S   0  0  0  0  0  0  0  0  0  0  0  0
   -3.5870   19.0030  -33.4660 C   0  0  0  0  0  0  0  0  0  0  0  0
   -2.8440   17.9470  -33.1560 N   0  0  0  0  0  0  0  0  0  0  0  0
   -3.5990   16.8060  -33.2760 C   0  0  0  0  0  0  0  0  0  0  0  0
   -3.3310   15.4560  -33.0780 C   0  0  0  0  0  0  0  0  0  0  0  0
   -4.8920   14.6510  -33.4620 S   0  0  0  0  0  0  0  0  0  0  0  0
   -5.7470   16.1250  -33.8420 C   0  0  0  0  0  0  0  0  0  0  0  0
   -4.8010   17.1590  -33.6560 C   0  0  0  0  0  0  0  0  0  0  0  0
   -4.8160   18.5250  -33.7810 N   0  0  0  0  0  0  0  0  0  0  0  0
   -5.9070   19.3710  -34.2020 C   0  0  0  0  0  0  0  0  0  0  0  0
   -6.9720   19.4470  -33.1970 C   0  0  0  0  0  0  0  0  0  0  0  0
   -7.5640   18.3960  -32.5610 C   0  0  0  0  0  0  0  0  0  0  0  0
   -8.5670   18.5500  -31.6080 C   0  0  0  0  0  0  0  0  0  0  0  0
   -8.9650   19.8600  -31.3070 C   0  0  0  0  0  0  0  0  0  0  0  0
   -8.3940   20.9520  -31.9250 C   0  0  0  0  0  0  0  0  0  0  0  0
   -8.8140   22.3490  -31.5990 C   0  0  0  0  0  0  0  0  0  0  0  0
   -7.4170   20.7260  -32.8490 C   0  0  0  0  0  0  0  0  0  0  0  0
   -3.5935   23.7767  -26.4781 H   0  0  0  0  0  0  0  0  0  0  0  0
   -3.5965   25.1816  -27.5975 H   0  0  0  0  0  0  0  0  0  0  0  0
   -4.9753   24.0303  -27.5975 H   0  0  0  0  0  0  0  0  0  0  0  0
   -2.8513   23.9812  -29.3086 H   0  0  0  0  0  0  0  0  0  0  0  0
   -2.3892   22.7774  -27.9863 H   0  0  0  0  0  0  0  0  0  0  0  0
   -3.3216   21.4511  -29.4665 H   0  0  0  0  0  0  0  0  0  0  0  0
   -4.7441   21.9699  -28.3748 H   0  0  0  0  0  0  0  0  0  0  0  0
   -6.6423   23.0485  -31.1040 H   0  0  0  0  0  0  0  0  0  0  0  0
   -6.4258   23.2904  -29.2789 H   0  0  0  0  0  0  0  0  0  0  0  0
   -4.7287   25.0700  -30.4641 H   0  0  0  0  0  0  0  0  0  0  0  0
   -6.3024   25.1232  -31.4131 H   0  0  0  0  0  0  0  0  0  0  0  0
   -6.1751   25.3532  -28.4034 H   0  0  0  0  0  0  0  0  0  0  0  0
   -6.1095   26.7664  -29.5104 H   0  0  0  0  0  0  0  0  0  0  0  0
   -7.5487   25.6915  -29.5104 H   0  0  0  0  0  0  0  0  0  0  0  0
   -2.2552   21.9218  -31.5638 H   0  0  0  0  0  0  0  0  0  0  0  0
   -3.1487   20.4485  -31.0938 H   0  0  0  0  0  0  0  0  0  0  0  0
   -2.3862   14.9902  -32.7610 H   0  0  0  0  0  0  0  0  0  0  0  0
   -6.7957   16.2271  -34.1580 H   0  0  0  0  0  0  0  0  0  0  0  0
   -5.5192   20.3842  -34.3838 H   0  0  0  0  0  0  0  0  0  0  0  0
   -6.3372   18.9356  -35.1160 H   0  0  0  0  0  0  0  0  0  0  0  0
   -7.2331   17.3777  -32.8131 H   0  0  0  0  0  0  0  0  0  0  0  0
   -9.0270   17.6820  -31.1130 H   0  0  0  0  0  0  0  0  0  0  0  0
   -9.7540   20.0209  -30.5576 H   0  0  0  0  0  0  0  0  0  0  0  0
   -8.8519   22.4751  -30.5069 H   0  0  0  0  0  0  0  0  0  0  0  0
   -8.0895   23.0586  -32.0251 H   0  0  0  0  0  0  0  0  0  0  0  0
   -9.8097   22.5414  -32.0251 H   0  0  0  0  0  0  0  0  0  0  0  0
   -6.9561   21.5928  -33.3452 H   0  0  0  0  0  0  0  0  0  0  0  0
  1  2  1  0
  2  3  1  0
  3  4  1  0
  4  5  1  0
  5  6  1  0
  6  7  1  0
  4  8  1  0
  8  9  2  0
  8 10  1  0
 10 11  1  0
 11 12  1  0
 12 13  2  0
 13 14  1  0
 14 15  2  0
 15 16  1  0
 16 17  1  0
 17 18  2  0
 18 19  1  0
 19 20  1  0
 20 21  1  0
 21 22  2  0
 22 23  1  0
 23 24  2  0
 24 25  1  0
 25 26  1  0
 25 27  2  0
 19 12  1  0
 27 21  1  0
 18 14  1  0
  1 28  1  0
  1 29  1  0
  1 30  1  0
  2 31  1  0
  2 32  1  0
  3 33  1  0
  3 34  1  0
  5 35  1  0
  5 36  1  0
  6 37  1  0
  6 38  1  0
  7 39  1  0
  7 40  1  0
  7 41  1  0
 10 42  1  0
 10 43  1  0
 15 44  1  0
 17 45  1  0
 20 46  1  0
 20 47  1  0
 22 48  1  0
 23 49  1  0
 24 50  1  0
 26 51  1  0
 26 52  1  0
 26 53  1  0
 27 54  1  0
M  END
>  <smiles>  (24) 
CCCN(CCC)C(=O)CSc1nc2cscc2n1Cc1cccc(C)c1

>  <score_type>  (24) 
oracle

>  <origin>  (24) 
adg

>  <m_score__min__energy>  (24) 
-8.5399999999999991

>  <m_primary>  (24) 
energy

$$$$
24:0
     RDKit          3D

 35 37  0  0  0  0  0  0  0  0999 V2000
   -3.8590   21.8530  -33.2870 C   0  0  0  0  0  0  0  0  0  0  0  0
   -2.7050   21.7490  -32.3230 C   0  0  0  0  0  0  0  0  0  0  0  0
   -1.5160   21.2150  -32.7690 C   0  0  0  0  0  0  0  0  0  0  0  0
   -0.4010   21.0800  -31.9510 C   0  0  0  0  0  0  0  0  0  0  0  0
   -0.5340   21.5070  -30.6600 C   0  0  0  0  0  0  0  0  0  0  0  0
   -1.7290   22.0430  -30.2150 C   0  0  0  0  0  0  0  0  0  0  0  0
   -2.8420   22.1840  -31.0090 C   0  0  0  0  0  0  0  0  0  0  0  0
   -4.0740   22.7150  -30.6250 N   0  0  0  0  0  0  0  0  0  0  0  0
   -4.3580   24.0810  -30.3660 C   0  0  0  0  0  0  0  0  0  0  0  0
   -3.5070   24.9900  -30.4550 O   0  0  0  0  0  0  0  0  0  0  0  0
   -5.7510   24.4830  -29.9610 C   0  0  0  0  0  0  0  0  0  0  0  0
   -6.9230   24.1070  -31.2950 S   0  0  0  0  0  0  0  0  0  0  0  0
   -6.9370   22.2950  -31.5810 C   0  0  0  0  0  0  0  0  0  0  0  0
   -6.2690   21.3810  -31.7050 N   0  0  0  0  0  0  0  0  0  0  0  0
   -6.5410   20.1070  -31.9120 C   0  0  0  0  0  0  0  0  0  0  0  0
   -5.7200   18.9960  -32.0630 C   0  0  0  0  0  0  0  0  0  0  0  0
   -6.2730   17.7780  -32.2670 C   0  0  0  0  0  0  0  0  0  0  0  0
   -7.6280   17.5110  -32.3460 C   0  0  0  0  0  0  0  0  0  0  0  0
   -8.4680   18.6010  -32.1980 C   0  0  0  0  0  0  0  0  0  0  0  0
   -7.8990   19.8600  -31.9870 C   0  0  0  0  0  0  0  0  0  0  0  0
   -8.6850   21.4860  -31.7550 S   0  0  0  0  0  0  0  0  0  0  0  0
   -4.8003   21.9378  -32.7243 H   0  0  0  0  0  0  0  0  0  0  0  0
   -3.7288   22.7431  -33.9201 H   0  0  0  0  0  0  0  0  0  0  0  0
   -3.8900   20.9540  -33.9201 H   0  0  0  0  0  0  0  0  0  0  0  0
   -1.4465   20.8820  -33.8151 H   0  0  0  0  0  0  0  0  0  0  0  0
    0.5409   20.6512  -32.3238 H   0  0  0  0  0  0  0  0  0  0  0  0
    0.3171   21.4238  -29.9681 H   0  0  0  0  0  0  0  0  0  0  0  0
   -1.7920   22.3746  -29.1681 H   0  0  0  0  0  0  0  0  0  0  0  0
   -4.8890   22.0610  -30.5090 H   0  0  0  0  0  0  0  0  0  0  0  0
   -6.0406   23.9292  -29.0558 H   0  0  0  0  0  0  0  0  0  0  0  0
   -5.7692   25.5645  -29.7607 H   0  0  0  0  0  0  0  0  0  0  0  0
   -4.6265   19.1061  -32.0169 H   0  0  0  0  0  0  0  0  0  0  0  0
   -5.5857   16.9266  -32.3798 H   0  0  0  0  0  0  0  0  0  0  0  0
   -8.0141   16.4951  -32.5160 H   0  0  0  0  0  0  0  0  0  0  0  0
   -9.5602   18.4790  -32.2454 H   0  0  0  0  0  0  0  0  0  0  0  0
  1  2  1  0
  2  3  2  0
  3  4  1  0
  4  5  2  0
  5  6  1  0
  6  7  2  0
  7  8  1  0
  8  9  1  0
  9 10  2  0
  9 11  1  0
 11 12  1  0
 12 13  1  0
 13 14  2  0
 14 15  1  0
 15 16  2  0
 16 17  1  0
 17 18  2  0
 18 19  1  0
 19 20  2  0
 20 21  1  0
  7  2  1  0
 21 13  1  0
 20 15  1  0
  1 22  1  0
  1 23  1  0
  1 24  1  0
  3 25  1  0
  4 26  1  0
  5 27  1  0
  6 28  1  0
  8 29  1  0
 11 30  1  0
 11 31  1  0
 16 32  1  0
 17 33  1  0
 18 34  1  0
 19 35  1  0
M  END
>  <smiles>  (25) 
Cc1ccccc1NC(=O)CSc1nc2ccccc2s1

>  <score_type>  (25) 
oracle

>  <origin>  (25) 
adg

>  <m_score__min__energy>  (25) 
-8.2699999999999996

>  <m_primary>  (25) 
energy

$$$$
25:0
     RDKit          3D

 39 40  0  0  0  0  0  0  0  0999 V2000
   -2.1520   24.8950  -28.3100 C   0  0  0  0  0  0  0  0  0  0  0  0
   -2.2860   23.9520  -29.4030 N   0  0  0  0  0  0  0  0  0  0  0  0
   -1.1480   23.0770  -29.6880 C   0  0  0  0  0  0  0  0  0  0  0  0
   -3.4920   23.9100  -30.1420 C   0  0  0  0  0  0  0  0  0  0  0  0
   -3.9320   22.6570  -30.5430 C   0  0  0  0  0  0  0  0  0  0  0  0
   -5.1010   22.5380  -31.2710 C   0  0  0  0  0  0  0  0  0  0  0  0
   -5.8190   23.6790  -31.5910 C   0  0  0  0  0  0  0  0  0  0  0  0
   -7.0710   23.4890  -32.3850 C   0  0  0  0  0  0  0  0  0  0  0  0
   -8.2410   23.3380  -31.5870 N   0  0  0  0  0  0  0  0  0  0  0  0
   -8.4690   22.0490  -31.0220 C   0  0  0  0  0  0  0  0  0  0  0  0
   -9.1990   21.1060  -31.9510 C   0  0  0  0  0  0  0  0  0  0  0  0
   -8.3240   19.9540  -32.3380 C   0  0  0  0  0  0  0  0  0  0  0  0
   -7.1810   20.1440  -33.1140 C   0  0  0  0  0  0  0  0  0  0  0  0
   -6.3950   19.0460  -33.4560 C   0  0  0  0  0  0  0  0  0  0  0  0
   -6.7210   17.7930  -33.0480 C   0  0  0  0  0  0  0  0  0  0  0  0
   -7.8270   17.6070  -32.2960 N   0  0  0  0  0  0  0  0  0  0  0  0
   -8.6060   18.6520  -31.9510 C   0  0  0  0  0  0  0  0  0  0  0  0
   -5.3690   24.9160  -31.1870 C   0  0  0  0  0  0  0  0  0  0  0  0
   -4.2100   24.9920  -30.4690 N   0  0  0  0  0  0  0  0  0  0  0  0
   -2.2281   24.3594  -27.3522 H   0  0  0  0  0  0  0  0  0  0  0  0
   -1.1739   25.3942  -28.3742 H   0  0  0  0  0  0  0  0  0  0  0  0
   -2.9523   25.6469  -28.3742 H   0  0  0  0  0  0  0  0  0  0  0  0
   -0.7028   22.7347  -28.7422 H   0  0  0  0  0  0  0  0  0  0  0  0
   -1.4904   22.2073  -30.2680 H   0  0  0  0  0  0  0  0  0  0  0  0
   -0.3955   23.6313  -30.2680 H   0  0  0  0  0  0  0  0  0  0  0  0
   -3.3516   21.7597  -30.2821 H   0  0  0  0  0  0  0  0  0  0  0  0
   -5.4573   21.5483  -31.5928 H   0  0  0  0  0  0  0  0  0  0  0  0
   -7.2056   24.3660  -33.0352 H   0  0  0  0  0  0  0  0  0  0  0  0
   -6.9499   22.5562  -32.9554 H   0  0  0  0  0  0  0  0  0  0  0  0
   -9.0760   23.5750  -32.1680 H   0  0  0  0  0  0  0  0  0  0  0  0
   -7.4963   21.6033  -30.7668 H   0  0  0  0  0  0  0  0  0  0  0  0
   -9.1068   22.1909  -30.1371 H   0  0  0  0  0  0  0  0  0  0  0  0
  -10.0960   20.7223  -31.4428 H   0  0  0  0  0  0  0  0  0  0  0  0
   -9.4792   21.6561  -32.8614 H   0  0  0  0  0  0  0  0  0  0  0  0
   -6.9024   21.1526  -33.4532 H   0  0  0  0  0  0  0  0  0  0  0  0
   -5.4935   19.1971  -34.0680 H   0  0  0  0  0  0  0  0  0  0  0  0
   -6.0897   16.9367  -33.3275 H   0  0  0  0  0  0  0  0  0  0  0  0
   -9.5004   18.4648  -31.3386 H   0  0  0  0  0  0  0  0  0  0  0  0
   -5.9329   25.8265  -31.4381 H   0  0  0  0  0  0  0  0  0  0  0  0
  1  2  1  0
  2  3  1  0
  2  4  1  0
  4  5  2  0
  5  6  1  0
  6  7  2  0
  7  8  1  0
  8  9  1  0
  9 10  1  0
 10 11  1  0
 11 12  1  0
 12 13  2  0
 13 14  1  0
 14 15  2  0
 15 16  1  0
 16 17  2  0
  7 18  1  0
 18 19  2  0
 19  4  1  0
 17 12  1  0
  1 20  1  0
  1 21  1  0
  1 22  1  0
  3 23  1  0
  3 24  1  0
  3 25  1  0
  5 26  1  0
  6 27  1  0
  8 28  1  0
  8 29  1  0
  9 30  1  0
 10 31  1  0
 10 32  1  0
 11 33  1  0
 11 34  1  0
 13 35  1  0
 14 36  1  0
 15 37  1  0
 17 38  1  0
 18 39  1  0
M  END
>  <smiles>  (26) 
CN(C)c1ccc(CNCCc2cccnc2)cn1

>  <score_type>  (26) 
oracle

>  <origin>  (26) 
adg

>  <m_score__min__energy>  (26) 
-7.1699999999999999

>  <m_primary>  (26) 
energy

$$$$
26:0
     RDKit          3D

 25 26  0  0  0  0  0  0  0  0999 V2000
   -6.1270   24.8570  -30.4850 C   0  0  0  0  0  0  0  0  0  0  0  0
   -6.7140   23.9980  -31.3140 C   0  0  0  0  0  0  0  0  0  0  0  0
   -7.2920   22.7060  -30.9080 C   0  0  0  0  0  0  0  0  0  0  0  0
   -6.9220   21.6020  -31.7740 N   0  0  0  0  0  0  0  0  0  0  0  0
   -7.9330   20.8730  -32.3110 C   0  0  0  0  0  0  0  0  0  0  0  0
   -9.5020   21.2560  -31.9680 S   0  0  0  0  0  0  0  0  0  0  0  0
   -7.6350   19.8400  -33.1220 N   0  0  0  0  0  0  0  0  0  0  0  0
   -6.3780   19.4860  -33.4330 C   0  0  0  0  0  0  0  0  0  0  0  0
   -6.1120   18.4260  -34.2640 C   0  0  0  0  0  0  0  0  0  0  0  0
   -4.8260   18.0460  -34.5960 C   0  0  0  0  0  0  0  0  0  0  0  0
   -3.7920   18.7920  -34.0470 C   0  0  0  0  0  0  0  0  0  0  0  0
   -4.0360   19.8700  -33.2030 C   0  0  0  0  0  0  0  0  0  0  0  0
   -5.3380   20.2180  -32.8950 C   0  0  0  0  0  0  0  0  0  0  0  0
   -5.6480   21.2810  -32.0610 C   0  0  0  0  0  0  0  0  0  0  0  0
   -4.7290   21.9630  -31.5590 O   0  0  0  0  0  0  0  0  0  0  0  0
   -5.7200   25.8032  -30.8710 H   0  0  0  0  0  0  0  0  0  0  0  0
   -6.0486   24.6211  -29.4135 H   0  0  0  0  0  0  0  0  0  0  0  0
   -6.7717   24.2722  -32.3777 H   0  0  0  0  0  0  0  0  0  0  0  0
   -6.9486   22.4773  -29.8883 H   0  0  0  0  0  0  0  0  0  0  0  0
   -8.3853   22.8100  -30.9701 H   0  0  0  0  0  0  0  0  0  0  0  0
   -8.4400   19.3050  -33.5130 H   0  0  0  0  0  0  0  0  0  0  0  0
   -6.9557   17.8571  -34.6817 H   0  0  0  0  0  0  0  0  0  0  0  0
   -4.6308   17.1935  -35.2632 H   0  0  0  0  0  0  0  0  0  0  0  0
   -2.7524   18.5234  -34.2858 H   0  0  0  0  0  0  0  0  0  0  0  0
   -3.1967   20.4433  -32.7823 H   0  0  0  0  0  0  0  0  0  0  0  0
  1  2  2  0
  2  3  1  0
  3  4  1  0
  4  5  1  0
  5  6  2  0
  5  7  1  0
  7  8  1  0
  8  9  2  0
  9 10  1  0
 10 11  2  0
 11 12  1  0
 12 13  2  0
 13 14  1  0
 14 15  2  0
 14  4  1  0
 13  8  1  0
  1 16  1  0
  1 17  1  0
  2 18  1  0
  3 19  1  0
  3 20  1  0
  7 21  1  0
  9 22  1  0
 10 23  1  0
 11 24  1  0
 12 25  1  0
M  END
>  <smiles>  (27) 
C=CCn1c(=S)[nH]c2ccccc2c1=O

>  <score_type>  (27) 
oracle

>  <origin>  (27) 
adg

>  <m_score__min__energy>  (27) 
-6.1399999999999997

>  <m_primary>  (27) 
energy

$$$$
27:0
     RDKit          3D

 25 27  0  0  0  0  0  0  0  0999 V2000
   -6.1110   25.6820  -29.7280 Cl  0  0  0  0  0  0  0  0  0  0  0  0
   -6.2040   24.1160  -30.4930 C   0  0  0  0  0  0  0  0  0  0  0  0
   -5.0470   23.4050  -30.7330 C   0  0  0  0  0  0  0  0  0  0  0  0
   -5.0520   22.1560  -31.3380 C   0  0  0  0  0  0  0  0  0  0  0  0
   -6.2490   21.5610  -31.7320 C   0  0  0  0  0  0  0  0  0  0  0  0
   -6.1790   20.2600  -32.3550 C   0  0  0  0  0  0  0  0  0  0  0  0
   -6.9090   19.1150  -32.2100 C   0  0  0  0  0  0  0  0  0  0  0  0
   -6.4470   18.1390  -33.0360 N   0  0  0  0  0  0  0  0  0  0  0  0
   -6.8440   16.8600  -33.2410 C   0  0  0  0  0  0  0  0  0  0  0  0
   -6.1510   16.1080  -34.1710 C   0  0  0  0  0  0  0  0  0  0  0  0
   -5.0840   16.6640  -34.8660 C   0  0  0  0  0  0  0  0  0  0  0  0
   -4.6870   17.9760  -34.6460 C   0  0  0  0  0  0  0  0  0  0  0  0
   -5.4170   18.6830  -33.7030 C   0  0  0  0  0  0  0  0  0  0  0  0
   -5.2510   19.9560  -33.2990 N   0  0  0  0  0  0  0  0  0  0  0  0
   -7.3910   22.2750  -31.4900 C   0  0  0  0  0  0  0  0  0  0  0  0
   -8.9500   21.6400  -31.9350 Cl  0  0  0  0  0  0  0  0  0  0  0  0
   -7.3860   23.5340  -30.8810 C   0  0  0  0  0  0  0  0  0  0  0  0
   -4.0840   23.8443  -30.4337 H   0  0  0  0  0  0  0  0  0  0  0  0
   -4.1010   21.6301  -31.5083 H   0  0  0  0  0  0  0  0  0  0  0  0
   -7.7563   18.9982  -31.5183 H   0  0  0  0  0  0  0  0  0  0  0  0
   -7.6915   16.4332  -32.6846 H   0  0  0  0  0  0  0  0  0  0  0  0
   -6.4453   15.0654  -34.3616 H   0  0  0  0  0  0  0  0  0  0  0  0
   -4.5438   16.0532  -35.6043 H   0  0  0  0  0  0  0  0  0  0  0  0
   -3.8431   18.4279  -35.1879 H   0  0  0  0  0  0  0  0  0  0  0  0
   -8.3359   24.0621  -30.7115 H   0  0  0  0  0  0  0  0  0  0  0  0
  1  2  1  0
  2  3  2  0
  3  4  1  0
  4  5  2  0
  5  6  1  0
  6  7  2  0
  7  8  1  0
  8  9  1  0
  9 10  2  0
 10 11  1  0
 11 12  2  0
 12 13  1  0
 13 14  2  0
  5 15  1  0
 15 16  1  0
 15 17  2  0
 17  2  1  0
 14  6  1  0
 13  8  1  0
  3 18  1  0
  4 19  1  0
  7 20  1  0
  9 21  1  0
 10 22  1  0
 11 23  1  0
 12 24  1  0
 17 25  1  0
M  END
>  <smiles>  (28) 
Clc1ccc(-c2cn3ccccc3n2)c(Cl)c1

>  <score_type>  (28) 
oracle

>  <origin>  (28) 
adg

>  <m_score__min__energy>  (28) 
-7.0199999999999996

>  <m_primary>  (28) 
energy

$$$$
28:0
     RDKit          3D

 21 21  0  0  0  0  0  0  0  0999 V2000
   -8.3060   20.0780  -33.4510 N   0  0  0  0  0  0  0  0  0  0  0  0
   -7.6090   20.2520  -32.1830 C   0  0  0  0  0  0  0  0  0  0  0  0
   -8.0980   21.5640  -31.6080 C   0  0  0  0  0  0  0  0  0  0  0  0
   -7.0240   22.5310  -31.3970 C   0  0  0  0  0  0  0  0  0  0  0  0
   -5.7540   22.2600  -31.8600 C   0  0  0  0  0  0  0  0  0  0  0  0
   -4.7350   23.1780  -31.6610 C   0  0  0  0  0  0  0  0  0  0  0  0
   -4.9870   24.3740  -30.9960 C   0  0  0  0  0  0  0  0  0  0  0  0
   -3.9410   25.2810  -30.8100 O   0  0  0  0  0  0  0  0  0  0  0  0
   -6.2680   24.6650  -30.5210 C   0  0  0  0  0  0  0  0  0  0  0  0
   -7.2590   23.7190  -30.7410 C   0  0  0  0  0  0  0  0  0  0  0  0
   -8.8830   19.2090  -33.4340 H   0  0  0  0  0  0  0  0  0  0  0  0
   -7.6300   20.0530  -34.2460 H   0  0  0  0  0  0  0  0  0  0  0  0
   -7.8481   19.4237  -31.4998 H   0  0  0  0  0  0  0  0  0  0  0  0
   -6.5180   20.2580  -32.3232 H   0  0  0  0  0  0  0  0  0  0  0  0
   -8.8304   22.0000  -32.3033 H   0  0  0  0  0  0  0  0  0  0  0  0
   -8.5426   21.3469  -30.6255 H   0  0  0  0  0  0  0  0  0  0  0  0
   -5.5497   21.3162  -32.3868 H   0  0  0  0  0  0  0  0  0  0  0  0
   -3.7221   22.9601  -32.0305 H   0  0  0  0  0  0  0  0  0  0  0  0
   -3.3860   25.5980  -31.5900 H   0  0  0  0  0  0  0  0  0  0  0  0
   -6.4825   25.6063  -29.9937 H   0  0  0  0  0  0  0  0  0  0  0  0
   -8.2756   23.9267  -30.3759 H   0  0  0  0  0  0  0  0  0  0  0  0
  1  2  1  0
  2  3  1  0
  3  4  1  0
  4  5  2  0
  5  6  1  0
  6  7  2  0
  7  8  1  0
  7  9  1  0
  9 10  2  0
 10  4  1  0
  1 11  1  0
  1 12  1  0
  2 13  1  0
  2 14  1  0
  3 15  1  0
  3 16  1  0
  5 17  1  0
  6 18  1  0
  8 19  1  0
  9 20  1  0
 10 21  1  0
M  END
>  <smiles>  (29) 
NCCc1ccc(O)cc1

>  <score_type>  (29) 
oracle

>  <origin>  (29) 
adg

>  <m_score__min__energy>  (29) 
-5.9800000000000004

>  <m_primary>  (29) 
energy

$$$$
29:0
     RDKit          3D

 21 23  0  0  0  0  0  0  0  0999 V2000
   -8.9840   22.2980  -30.9160 O   0  0  0  0  0  0  0  0  0  0  0  0
   -7.7780   22.4510  -31.2370 C   0  0  0  0  0  0  0  0  0  0  0  0
   -7.0340   21.4840  -32.0360 C   0  0  0  0  0  0  0  0  0  0  0  0
   -7.4070   20.2780  -32.5950 C   0  0  0  0  0  0  0  0  0  0  0  0
   -6.5050   19.5250  -33.3270 C   0  0  0  0  0  0  0  0  0  0  0  0
   -5.2300   20.0420  -33.4650 C   0  0  0  0  0  0  0  0  0  0  0  0
   -4.8490   21.2480  -32.9090 C   0  0  0  0  0  0  0  0  0  0  0  0
   -5.7610   22.0000  -32.1750 C   0  0  0  0  0  0  0  0  0  0  0  0
   -5.6460   23.2810  -31.4870 C   0  0  0  0  0  0  0  0  0  0  0  0
   -4.8310   24.2420  -31.2170 N   0  0  0  0  0  0  0  0  0  0  0  0
   -5.4400   25.2740  -30.4260 C   0  0  0  0  0  0  0  0  0  0  0  0
   -6.8510   24.8150  -30.2090 C   0  0  0  0  0  0  0  0  0  0  0  0
   -6.9160   23.5450  -30.9070 N   0  0  0  0  0  0  0  0  0  0  0  0
   -8.4346   19.9106  -32.4569 H   0  0  0  0  0  0  0  0  0  0  0  0
   -6.7888   18.5622  -33.7770 H   0  0  0  0  0  0  0  0  0  0  0  0
   -4.4884   19.4694  -34.0413 H   0  0  0  0  0  0  0  0  0  0  0  0
   -3.8212   21.6149  -33.0471 H   0  0  0  0  0  0  0  0  0  0  0  0
   -4.9169   25.3837  -29.4646 H   0  0  0  0  0  0  0  0  0  0  0  0
   -5.3962   26.2548  -30.9220 H   0  0  0  0  0  0  0  0  0  0  0  0
   -7.0593   24.6835  -29.1369 H   0  0  0  0  0  0  0  0  0  0  0  0
   -7.5937   25.5390  -30.5754 H   0  0  0  0  0  0  0  0  0  0  0  0
  1  2  2  0
  2  3  1  0
  3  4  2  0
  4  5  1  0
  5  6  2  0
  6  7  1  0
  7  8  2  0
  8  9  1  0
  9 10  2  0
 10 11  1  0
 11 12  1  0
 12 13  1  0
 13  2  1  0
  8  3  1  0
 13  9  1  0
  4 14  1  0
  5 15  1  0
  6 16  1  0
  7 17  1  0
 11 18  1  0
 11 19  1  0
 12 20  1  0
 12 21  1  0
M  END
>  <smiles>  (30) 
O=C1c2ccccc2C2=NCCN12

>  <score_type>  (30) 
oracle

>  <origin>  (30) 
adg

>  <m_score__min__energy>  (30) 
-6.0499999999999998

>  <m_primary>  (30) 
energy

$$$$
30:0
     RDKit          3D

 37 38  0  0  1  0  0  0  0  0999 V2000
   -2.8000   24.8740  -26.8820 C   0  0  0  0  0  0  0  0  0  0  0  0
   -2.9130   24.0420  -28.1250 C   0  0  0  0  0  0  0  0  0  0  0  0
   -1.7200   24.2580  -29.0140 C   0  0  0  0  0  0  0  0  0  0  0  0
   -4.2280   24.1780  -28.8170 C   0  0  0  0  0  0  0  0  0  0  0  0
   -4.1170   24.2990  -30.3060 C   0  0  2  0  0  0  0  0  0  0  0  0
   -4.1370   25.6260  -30.7340 O   0  0  0  0  0  0  0  0  0  0  0  0
   -5.2410   23.5950  -30.9720 C   0  0  0  0  0  0  0  0  0  0  0  0
   -6.5200   24.1160  -30.8850 C   0  0  0  0  0  0  0  0  0  0  0  0
   -7.5990   23.4980  -31.4840 C   0  0  0  0  0  0  0  0  0  0  0  0
   -7.3620   22.3260  -32.1870 C   0  0  0  0  0  0  0  0  0  0  0  0
   -6.0760   21.7990  -32.2770 C   0  0  0  0  0  0  0  0  0  0  0  0
   -5.8140   20.3030  -33.1810 Cl  0  0  0  0  0  0  0  0  0  0  0  0
   -5.0090   22.4290  -31.6710 C   0  0  0  0  0  0  0  0  0  0  0  0
   -3.6910   21.8240  -31.8080 C   0  0  0  0  0  0  0  0  0  0  0  0
   -3.0360   21.1810  -30.7790 C   0  0  0  0  0  0  0  0  0  0  0  0
   -1.7940   20.6270  -30.9700 C   0  0  0  0  0  0  0  0  0  0  0  0
   -1.2270   20.7410  -32.2390 C   0  0  0  0  0  0  0  0  0  0  0  0
   -1.8880   21.3840  -33.2610 C   0  0  0  0  0  0  0  0  0  0  0  0
   -3.1170   21.9210  -33.0370 N   0  0  0  0  0  0  0  0  0  0  0  0
   -2.8880   24.2258  -25.9976 H   0  0  0  0  0  0  0  0  0  0  0  0
   -1.8246   25.3823  -26.8684 H   0  0  0  0  0  0  0  0  0  0  0  0
   -3.6045   25.6240  -26.8684 H   0  0  0  0  0  0  0  0  0  0  0  0
   -2.8964   22.9847  -27.8218 H   0  0  0  0  0  0  0  0  0  0  0  0
   -0.8256   24.4199  -28.3945 H   0  0  0  0  0  0  0  0  0  0  0  0
   -1.5707   23.3723  -29.6490 H   0  0  0  0  0  0  0  0  0  0  0  0
   -1.8908   25.1398  -29.6490 H   0  0  0  0  0  0  0  0  0  0  0  0
   -4.8354   23.2907  -28.5853 H   0  0  0  0  0  0  0  0  0  0  0  0
   -4.6873   25.1088  -28.4529 H   0  0  0  0  0  0  0  0  0  0  0  0
   -3.1519   23.8466  -30.5779 H   0  0  0  0  0  0  0  0  0  0  0  0
   -3.6250   25.6780  -31.5910 H   0  0  0  0  0  0  0  0  0  0  0  0
   -6.6811   25.0479  -30.3232 H   0  0  0  0  0  0  0  0  0  0  0  0
   -8.6118   23.9203  -31.4066 H   0  0  0  0  0  0  0  0  0  0  0  0
   -8.1984   21.8075  -32.6785 H   0  0  0  0  0  0  0  0  0  0  0  0
   -3.5150   21.1108  -29.7913 H   0  0  0  0  0  0  0  0  0  0  0  0
   -1.2664   20.1129  -30.1531 H   0  0  0  0  0  0  0  0  0  0  0  0
   -0.2330   20.3090  -32.4268 H   0  0  0  0  0  0  0  0  0  0  0  0
   -1.4238   21.4631  -34.2551 H   0  0  0  0  0  0  0  0  0  0  0  0
  1  2  1  0
  2  3  1  0
  2  4  1  0
  4  5  1  0
  5  6  1  0
  5  7  1  0
  7  8  2  0
  8  9  1  0
  9 10  2  0
 10 11  1  0
 11 12  1  0
 11 13  2  0
 13 14  1  0
 14 15  2  0
 15 16  1  0
 16 17  2  0
 17 18  1  0
 18 19  2  0
 13  7  1  0
 19 14  1  0
  1 20  1  0
  1 21  1  0
  1 22  1  0
  2 23  1  0
  3 24  1  0
  3 25  1  0
  3 26  1  0
  4 27  1  0
  4 28  1  0
  5 29  1  6
  6 30  1  0
  8 31  1  0
  9 32  1  0
 10 33  1  0
 15 34  1  0
 16 35  1  0
 17 36  1  0
 18 37  1  0
M  END
>  <smiles>  (31) 
CC(C)CC(O)c1cccc(Cl)c1-c1ccccn1

>  <score_type>  (31) 
oracle

>  <origin>  (31) 
adg

>  <m_score__min__energy>  (31) 
-7.8600000000000003

>  <m_primary>  (31) 
energy

$$$$
31:0
     RDKit          3D

 33 34  0  0  1  0  0  0  0  0999 V2000
   -9.1140   18.9220  -32.5260 C   0  0  0  0  0  0  0  0  0  0  0  0
   -8.8170   20.3170  -32.0810 C   0  0  0  0  0  0  0  0  0  0  0  0
   -9.7250   21.3530  -31.9650 C   0  0  0  0  0  0  0  0  0  0  0  0
   -9.0470   22.4370  -31.5350 N   0  0  0  0  0  0  0  0  0  0  0  0
   -7.7610   22.1200  -31.3800 N   0  0  0  0  0  0  0  0  0  0  0  0
   -6.7510   23.0210  -30.9380 C   0  0  0  0  0  0  0  0  0  0  0  0
   -6.0490   22.7030  -29.7690 C   0  0  0  0  0  0  0  0  0  0  0  0
   -5.0570   23.5190  -29.2710 C   0  0  0  0  0  0  0  0  0  0  0  0
   -4.7720   24.6660  -29.9600 C   0  0  0  0  0  0  0  0  0  0  0  0
   -5.4450   25.0160  -31.1220 C   0  0  0  0  0  0  0  0  0  0  0  0
   -6.4320   24.1870  -31.6020 C   0  0  0  0  0  0  0  0  0  0  0  0
   -7.5790   20.8260  -31.7060 C   0  0  0  0  0  0  0  0  0  0  0  0
   -6.3780   20.0610  -31.6920 N   0  0  0  0  0  0  0  0  0  0  0  0
   -5.7540   19.9400  -32.8150 C   0  0  0  0  0  0  0  0  0  0  0  0
   -4.4550   20.4730  -33.0490 N   0  0  0  0  0  0  0  0  0  0  0  0
   -4.1300   21.8770  -32.8680 C   0  0  0  0  0  0  0  0  0  0  0  0
   -3.4380   19.5250  -33.4870 C   0  0  0  0  0  0  0  0  0  0  0  0
   -9.2512   18.2775  -31.6452 H   0  0  0  0  0  0  0  0  0  0  0  0
  -10.0332   18.9177  -33.1302 H   0  0  0  0  0  0  0  0  0  0  0  0
   -8.2763   18.5437  -33.1302 H   0  0  0  0  0  0  0  0  0  0  0  0
  -10.8020   21.3026  -32.1832 H   0  0  0  0  0  0  0  0  0  0  0  0
   -6.2967   21.7750  -29.2329 H   0  0  0  0  0  0  0  0  0  0  0  0
   -4.5130   23.2574  -28.3514 H   0  0  0  0  0  0  0  0  0  0  0  0
   -3.9836   25.3326  -29.5805 H   0  0  0  0  0  0  0  0  0  0  0  0
   -5.1921   25.9456  -31.6530 H   0  0  0  0  0  0  0  0  0  0  0  0
   -6.9710   24.4560  -32.5224 H   0  0  0  0  0  0  0  0  0  0  0  0
   -6.2510   19.3976  -33.6328 H   0  0  0  0  0  0  0  0  0  0  0  0
   -4.0771   22.1055  -31.7933 H   0  0  0  0  0  0  0  0  0  0  0  0
   -3.1584   22.0918  -33.3368 H   0  0  0  0  0  0  0  0  0  0  0  0
   -4.9084   22.4969  -33.3368 H   0  0  0  0  0  0  0  0  0  0  0  0
   -2.9542   19.0741  -32.6080 H   0  0  0  0  0  0  0  0  0  0  0  0
   -3.9086   18.7358  -34.0918 H   0  0  0  0  0  0  0  0  0  0  0  0
   -2.6837   20.0498  -34.0918 H   0  0  0  0  0  0  0  0  0  0  0  0
  1  2  1  0
  2  3  1  0
  3  4  2  0
  4  5  1  0
  5  6  1  0
  6  7  2  0
  7  8  1  0
  8  9  2  0
  9 10  1  0
 10 11  2  0
  5 12  1  0
 12 13  1  0
 13 14  2  0
 14 15  1  0
 15 16  1  0
 15 17  1  0
 12  2  2  0
 11  6  1  0
  1 18  1  0
  1 19  1  0
  1 20  1  0
  3 21  1  0
  7 22  1  0
  8 23  1  0
  9 24  1  0
 10 25  1  0
 11 26  1  0
 14 27  1  0
 16 28  1  0
 16 29  1  0
 16 30  1  0
 17 31  1  0
 17 32  1  0
 17 33  1  0
M  END
>  <smiles>  (32) 
Cc1cnn(-c2ccccc2)c1N=CN(C)C

>  <score_type>  (32) 
oracle

>  <origin>  (32) 
adg

>  <m_score__min__energy>  (32) 
-6.2599999999999998

>  <m_primary>  (32) 
energy

$$$$
32:0
     RDKit          3D

 41 43  0  0  0  0  0  0  0  0999 V2000
   -5.3570   25.6830  -30.1670 C   0  0  0  0  0  0  0  0  0  0  0  0
   -4.3920   24.9420  -30.8320 O   0  0  0  0  0  0  0  0  0  0  0  0
   -4.2050   23.5820  -30.8210 C   0  0  0  0  0  0  0  0  0  0  0  0
   -3.2310   22.9350  -30.0880 C   0  0  0  0  0  0  0  0  0  0  0  0
   -3.1240   21.5640  -30.1450 C   0  0  0  0  0  0  0  0  0  0  0  0
   -2.1170   20.8150  -29.3990 C   0  0  0  0  0  0  0  0  0  0  0  0
   -0.8280   20.6860  -29.8980 C   0  0  0  0  0  0  0  0  0  0  0  0
    0.1700   20.0080  -29.2660 C   0  0  0  0  0  0  0  0  0  0  0  0
   -0.0970   19.4050  -28.0490 C   0  0  0  0  0  0  0  0  0  0  0  0
   -1.3730   19.5300  -27.5530 C   0  0  0  0  0  0  0  0  0  0  0  0
   -1.6180   18.9250  -26.3490 F   0  0  0  0  0  0  0  0  0  0  0  0
   -2.3780   20.2100  -28.1870 C   0  0  0  0  0  0  0  0  0  0  0  0
   -3.9860   20.8030  -30.9330 C   0  0  0  0  0  0  0  0  0  0  0  0
   -4.9760   21.4540  -31.6790 C   0  0  0  0  0  0  0  0  0  0  0  0
   -5.0730   22.8240  -31.6150 C   0  0  0  0  0  0  0  0  0  0  0  0
   -6.0460   23.6870  -32.3270 C   0  0  0  0  0  0  0  0  0  0  0  0
   -7.3080   22.9470  -32.7150 C   0  0  0  0  0  0  0  0  0  0  0  0
   -7.6500   21.9200  -31.7560 N   0  0  0  0  0  0  0  0  0  0  0  0
   -9.0950   21.9230  -31.6160 C   0  0  0  0  0  0  0  0  0  0  0  0
   -7.2580   20.6050  -32.1920 C   0  0  0  0  0  0  0  0  0  0  0  0
   -5.7830   20.4680  -32.4460 C   0  0  0  0  0  0  0  0  0  0  0  0
   -5.2177   25.5760  -29.0811 H   0  0  0  0  0  0  0  0  0  0  0  0
   -5.2624   26.7428  -30.4462 H   0  0  0  0  0  0  0  0  0  0  0  0
   -6.3564   25.3181  -30.4462 H   0  0  0  0  0  0  0  0  0  0  0  0
   -2.5403   23.5149  -29.4583 H   0  0  0  0  0  0  0  0  0  0  0  0
   -0.5985   21.1607  -30.8634 H   0  0  0  0  0  0  0  0  0  0  0  0
    1.1718   19.9407  -29.7154 H   0  0  0  0  0  0  0  0  0  0  0  0
    0.6789   18.8494  -27.5020 H   0  0  0  0  0  0  0  0  0  0  0  0
   -3.3795   20.2730  -27.7363 H   0  0  0  0  0  0  0  0  0  0  0  0
   -3.8899   19.7078  -30.9682 H   0  0  0  0  0  0  0  0  0  0  0  0
   -6.3181   24.5266  -31.6705 H   0  0  0  0  0  0  0  0  0  0  0  0
   -5.5661   24.0345  -33.2538 H   0  0  0  0  0  0  0  0  0  0  0  0
   -8.1375   23.6669  -32.7755 H   0  0  0  0  0  0  0  0  0  0  0  0
   -7.1319   22.4605  -33.6857 H   0  0  0  0  0  0  0  0  0  0  0  0
   -9.3599   21.9236  -30.5484 H   0  0  0  0  0  0  0  0  0  0  0  0
   -9.5081   22.8220  -32.0968 H   0  0  0  0  0  0  0  0  0  0  0  0
   -9.5118   21.0257  -32.0968 H   0  0  0  0  0  0  0  0  0  0  0  0
   -7.5454   19.8814  -31.4150 H   0  0  0  0  0  0  0  0  0  0  0  0
   -7.7679   20.4179  -33.1486 H   0  0  0  0  0  0  0  0  0  0  0  0
   -5.4685   19.4544  -32.1568 H   0  0  0  0  0  0  0  0  0  0  0  0
   -5.6105   20.6569  -33.5158 H   0  0  0  0  0  0  0  0  0  0  0  0
  1  2  1  0
  2  3  1  0
  3  4  2  0
  4  5  1  0
  5  6  1  0
  6  7  2  0
  7  8  1  0
  8  9  2  0
  9 10  1  0
 10 11  1  0
 10 12  2  0
  5 13  2  0
 13 14  1  0
 14 15  2  0
 15 16  1  0
 16 17  1  0
 17 18  1  0
 18 19  1  0
 18 20  1  0
 20 21  1  0
 15  3  1  0
 12  6  1  0
 21 14  1  0
  1 22  1  0
  1 23  1  0
  1 24  1  0
  4 25  1  0
  7 26  1  0
  8 27  1  0
  9 28  1  0
 12 29  1  0
 13 30  1  0
 16 31  1  0
 16 32  1  0
 17 33  1  0
 17 34  1  0
 19 35  1  0
 19 36  1  0
 19 37  1  0
 20 38  1  0
 20 39  1  0
 21 40  1  0
 21 41  1  0
M  END
>  <smiles>  (33) 
COc1cc(-c2cccc(F)c2)cc2c1CCN(C)CC2

>  <score_type>  (33) 
oracle

>  <origin>  (33) 
adg

>  <m_score__min__energy>  (33) 
-6.21

>  <m_primary>  (33) 
energy

$$$$
34:0
     RDKit          3D

 15 15  0  0  0  0  0  0  0  0999 V2000
   -2.9000   23.2970  -29.8370 O   0  0  0  0  0  0  0  0  0  0  0  0
   -3.7600   23.9420  -30.5140 C   0  0  0  0  0  0  0  0  0  0  0  0
   -3.4930   25.2920  -30.7000 O   0  0  0  0  0  0  0  0  0  0  0  0
   -4.9560   23.3050  -31.0630 C   0  0  0  0  0  0  0  0  0  0  0  0
   -4.7730   22.1860  -31.8560 C   0  0  0  0  0  0  0  0  0  0  0  0
   -5.8840   21.5400  -32.4040 C   0  0  0  0  0  0  0  0  0  0  0  0
   -7.1650   22.0200  -32.1550 C   0  0  0  0  0  0  0  0  0  0  0  0
   -7.3310   23.1460  -31.3570 C   0  0  0  0  0  0  0  0  0  0  0  0
   -6.2350   23.7960  -30.8070 C   0  0  0  0  0  0  0  0  0  0  0  0
   -6.4450   25.3370  -29.7130 Br  0  0  0  0  0  0  0  0  0  0  0  0
   -3.1500   25.6510  -31.6050 H   0  0  0  0  0  0  0  0  0  0  0  0
   -3.7593   21.8074  -32.0537 H   0  0  0  0  0  0  0  0  0  0  0  0
   -5.7449   20.6492  -33.0342 H   0  0  0  0  0  0  0  0  0  0  0  0
   -8.0405   21.5125  -32.5863 H   0  0  0  0  0  0  0  0  0  0  0  0
   -8.3438   23.5267  -31.1589 H   0  0  0  0  0  0  0  0  0  0  0  0
  1  2  2  0
  2  3  1  0
  2  4  1  0
  4  5  2  0
  5  6  1  0
  6  7  2  0
  7  8  1  0
  8  9  2  0
  9 10  1  0
  9  4  1  0
  3 11  1  0
  5 12  1  0
  6 13  1  0
  7 14  1  0
  8 15  1  0
M  END
>  <smiles>  (34) 
O=C(O)c1ccccc1Br

>  <score_type>  (34) 
oracle

>  <origin>  (34) 
adg

>  <m_score__min__energy>  (34) 
-6.0599999999999996

>  <m_primary>  (34) 
energy

$$$$
35:0
     RDKit          3D

 44 46  0  0  1  0  0  0  0  0999 V2000
   -6.5450   18.0900  -31.5350 C   0  0  0  0  0  0  0  0  0  0  0  0
   -7.7170   19.3080  -32.0750 S   0  0  0  0  0  0  0  0  0  0  0  0
   -9.1000   18.6710  -32.0270 O   0  0  0  0  0  0  0  0  0  0  0  0
   -7.3860   19.7450  -33.4540 O   0  0  0  0  0  0  0  0  0  0  0  0
   -7.7130   20.6550  -31.0200 N   0  0  0  0  0  0  0  0  0  0  0  0
   -8.9420   21.4770  -31.1850 C   0  0  0  0  0  0  0  0  0  0  0  0
   -8.7330   22.7670  -31.9580 C   0  0  0  0  0  0  0  0  0  0  0  0
   -7.6090   23.6750  -31.4320 C   0  0  2  0  0  0  0  0  0  0  0  0
   -6.4710   23.8440  -32.3960 C   0  0  0  0  0  0  0  0  0  0  0  0
   -5.2420   23.0290  -32.3150 C   0  0  0  0  0  0  0  0  0  0  0  0
   -5.3640   21.6790  -31.5790 C   0  0  0  0  0  0  0  0  0  0  0  0
   -6.7430   21.5710  -31.3490 C   0  0  2  0  0  0  0  0  0  0  0  0
   -7.0440   22.7200  -30.4290 C   0  0  1  0  0  0  0  0  0  0  0  0
   -5.9430   23.3490  -29.7080 C   0  0  0  0  0  0  0  0  0  0  0  0
   -5.7570   24.6180  -29.6600 O   0  0  0  0  0  0  0  0  0  0  0  0
   -4.9520   22.5960  -28.9750 N   0  0  0  0  0  0  0  0  0  0  0  0
   -3.9380   23.3510  -28.3200 C   0  0  0  0  0  0  0  0  0  0  0  0
   -4.2400   24.1920  -27.2670 C   0  0  0  0  0  0  0  0  0  0  0  0
   -3.2730   24.9380  -26.6120 C   0  0  0  0  0  0  0  0  0  0  0  0
   -1.9640   24.8300  -27.0360 C   0  0  0  0  0  0  0  0  0  0  0  0
   -0.6240   25.8670  -26.1230 Br  0  0  0  0  0  0  0  0  0  0  0  0
   -1.6290   23.9940  -28.0890 C   0  0  0  0  0  0  0  0  0  0  0  0
    0.0440   23.8760  -28.6050 Cl  0  0  0  0  0  0  0  0  0  0  0  0
   -2.6250   23.2510  -28.7340 C   0  0  0  0  0  0  0  0  0  0  0  0
   -6.5217   18.0657  -30.4355 H   0  0  0  0  0  0  0  0  0  0  0  0
   -6.8406   17.1019  -31.9174 H   0  0  0  0  0  0  0  0  0  0  0  0
   -5.5462   18.3474  -31.9174 H   0  0  0  0  0  0  0  0  0  0  0  0
   -9.6909   20.8733  -31.7186 H   0  0  0  0  0  0  0  0  0  0  0  0
   -9.2658   21.7651  -30.1740 H   0  0  0  0  0  0  0  0  0  0  0  0
   -8.4977   22.5042  -32.9999 H   0  0  0  0  0  0  0  0  0  0  0  0
   -9.6644   23.3416  -31.8472 H   0  0  0  0  0  0  0  0  0  0  0  0
   -7.9717   24.6748  -31.1510 H   0  0  0  0  0  0  0  0  0  0  0  0
   -6.8894   23.6692  -33.3982 H   0  0  0  0  0  0  0  0  0  0  0  0
   -6.0982   24.8456  -32.1357 H   0  0  0  0  0  0  0  0  0  0  0  0
   -4.9093   22.8214  -33.3427 H   0  0  0  0  0  0  0  0  0  0  0  0
   -4.5341   23.6245  -31.7197 H   0  0  0  0  0  0  0  0  0  0  0  0
   -5.0016   20.8518  -32.2069 H   0  0  0  0  0  0  0  0  0  0  0  0
   -4.7649   21.6309  -30.6577 H   0  0  0  0  0  0  0  0  0  0  0  0
   -6.8619   21.3011  -32.4087 H   0  0  0  0  0  0  0  0  0  0  0  0
   -7.6643   22.3924  -29.5817 H   0  0  0  0  0  0  0  0  0  0  0  0
   -5.0080   21.5540  -28.9480 H   0  0  0  0  0  0  0  0  0  0  0  0
   -5.2860   24.2727  -26.9362 H   0  0  0  0  0  0  0  0  0  0  0  0
   -3.5419   25.5995  -25.7753 H   0  0  0  0  0  0  0  0  0  0  0  0
   -2.3612   22.5875  -29.5708 H   0  0  0  0  0  0  0  0  0  0  0  0
  1  2  1  0
  2  3  2  0
  2  4  2  0
  2  5  1  0
  5  6  1  0
  6  7  1  0
  7  8  1  0
  8  9  1  0
  9 10  1  0
 10 11  1  0
 11 12  1  0
 12 13  1  0
 13 14  1  0
 14 15  2  0
 14 16  1  0
 16 17  1  0
 17 18  2  0
 18 19  1  0
 19 20  2  0
 20 21  1  0
 20 22  1  0
 22 23  1  0
 22 24  2  0
 12  5  1  0
 24 17  1  0
 13  8  1  0
  1 25  1  0
  1 26  1  0
  1 27  1  0
  6 28  1  0
  6 29  1  0
  7 30  1  0
  7 31  1  0
  8 32  1  1
  9 33  1  0
  9 34  1  0
 10 35  1  0
 10 36  1  0
 11 37  1  0
 11 38  1  0
 12 39  1  6
 13 40  1  1
 16 41  1  0
 18 42  1  0
 19 43  1  0
 24 44  1  0
M  END
>  <smiles>  (35) 
CS(=O)(=O)N1CCC2CCCC1C2C(=O)Nc1ccc(Br)c(Cl)c1

>  <score_type>  (35) 
oracle

>  <origin>  (35) 
adg

>  <m_score__min__energy>  (35) 
-9.0199999999999996

>  <m_primary>  (35) 
energy

$$$$
36:0
     RDKit          3D

 35 37  0  0  1  0  0  0  0  0999 V2000
   -4.6410   15.9470  -34.0980 C   0  0  0  0  0  0  0  0  0  0  0  0
   -5.9420   16.4440  -34.1730 O   0  0  0  0  0  0  0  0  0  0  0  0
   -6.4460   17.5590  -33.5540 C   0  0  0  0  0  0  0  0  0  0  0  0
   -6.0700   18.8010  -34.0200 C   0  0  0  0  0  0  0  0  0  0  0  0
   -6.5130   19.9790  -33.4740 C   0  0  0  0  0  0  0  0  0  0  0  0
   -7.3810   19.9810  -32.4020 C   0  0  0  0  0  0  0  0  0  0  0  0
   -7.8960   21.2530  -31.9740 C   0  0  0  0  0  0  0  0  0  0  0  0
   -7.3160   22.4110  -32.0090 C   0  0  0  0  0  0  0  0  0  0  0  0
   -6.1100   22.8510  -31.3810 C   0  0  0  0  0  0  0  0  0  0  0  0
   -5.5570   24.0990  -31.3500 C   0  0  0  0  0  0  0  0  0  0  0  0
   -4.3570   24.3950  -30.8140 N   0  0  0  0  0  0  0  0  0  0  0  0
   -3.8690   25.6720  -30.8230 O   0  0  0  0  0  0  0  0  0  0  0  0
   -3.6140   23.4240  -30.2540 C   0  0  0  0  0  0  0  0  0  0  0  0
   -2.3990   23.7120  -29.7100 C   0  0  0  0  0  0  0  0  0  0  0  0
   -1.6810   22.6540  -29.1480 C   0  0  0  0  0  0  0  0  0  0  0  0
   -2.1980   21.3730  -29.1510 C   0  0  0  0  0  0  0  0  0  0  0  0
   -1.1620   19.9760  -28.3640 Br  0  0  0  0  0  0  0  0  0  0  0  0
   -3.4310   21.1260  -29.7130 C   0  0  0  0  0  0  0  0  0  0  0  0
   -4.1530   22.1550  -30.2730 C   0  0  0  0  0  0  0  0  0  0  0  0
   -5.3460   21.8660  -30.8080 N   0  0  0  0  0  0  0  0  0  0  0  0
   -7.7650   18.7450  -31.9320 C   0  0  0  0  0  0  0  0  0  0  0  0
   -7.3140   17.5450  -32.4860 C   0  0  0  0  0  0  0  0  0  0  0  0
   -4.3511   15.8362  -33.0427 H   0  0  0  0  0  0  0  0  0  0  0  0
   -4.5934   14.9674  -34.5961 H   0  0  0  0  0  0  0  0  0  0  0  0
   -3.9524   16.6454  -34.5961 H   0  0  0  0  0  0  0  0  0  0  0  0
   -5.3787   18.8499  -34.8742 H   0  0  0  0  0  0  0  0  0  0  0  0
   -6.1713   20.9352  -33.8970 H   0  0  0  0  0  0  0  0  0  0  0  0
   -8.9162   21.2417  -31.5629 H   0  0  0  0  0  0  0  0  0  0  0  0
   -7.8304   23.1717  -32.6146 H   0  0  0  0  0  0  0  0  0  0  0  0
   -6.1336   24.9232  -31.7953 H   0  0  0  0  0  0  0  0  0  0  0  0
   -1.9992   24.7368  -29.7131 H   0  0  0  0  0  0  0  0  0  0  0  0
   -0.6947   22.8425  -28.6989 H   0  0  0  0  0  0  0  0  0  0  0  0
   -3.8392   20.1046  -29.7142 H   0  0  0  0  0  0  0  0  0  0  0  0
   -8.4596   18.7007  -31.0802 H   0  0  0  0  0  0  0  0  0  0  0  0
   -7.6534   16.5860  -32.0676 H   0  0  0  0  0  0  0  0  0  0  0  0
  1  2  1  0
  2  3  1  0
  3  4  2  0
  4  5  1  0
  5  6  2  0
  6  7  1  0
  7  8  2  0
  8  9  1  0
  9 10  2  0
 10 11  1  0
 11 12  1  0
 11 13  2  0
 13 14  1  0
 14 15  2  0
 15 16  1  0
 16 17  1  0
 16 18  2  0
 18 19  1  0
 19 20  2  0
  6 21  1  0
 21 22  2  0
 22  3  1  0
 20  9  1  0
 19 13  1  0
  1 23  1  0
  1 24  1  0
  1 25  1  0
  4 26  1  0
  5 27  1  0
  7 28  1  0
  8 29  1  0
 10 30  1  0
 14 31  1  0
 15 32  1  0
 18 33  1  0
 21 34  1  0
 22 35  1  0
M  CHG  2  11   1  12  -1
M  END
>  <smiles>  (36) 
COc1ccc(C=Cc2c[n+]([O-])c3ccc(Br)cc3n2)cc1

>  <score_type>  (36) 
oracle

>  <origin>  (36) 
adg

>  <m_score__min__energy>  (36) 
-9.2899999999999991

>  <m_primary>  (36) 
energy

$$$$
37:0
     RDKit          3D

 57 62  0  0  0  0  0  0  0  0999 V2000
   -6.1520   14.7170  -34.1880 C   0  0  0  0  0  0  0  0  0  0  0  0
   -5.5810   16.1090  -34.1250 C   0  0  0  0  0  0  0  0  0  0  0  0
   -6.3070   17.1860  -34.5920 C   0  0  0  0  0  0  0  0  0  0  0  0
   -5.7580   18.4700  -34.5220 C   0  0  0  0  0  0  0  0  0  0  0  0
   -4.4950   18.6110  -33.9810 C   0  0  0  0  0  0  0  0  0  0  0  0
   -3.7380   19.7200  -33.7960 N   0  0  0  0  0  0  0  0  0  0  0  0
   -2.5710   19.3570  -33.2290 C   0  0  0  0  0  0  0  0  0  0  0  0
   -1.4110   20.1880  -32.8270 C   0  0  0  0  0  0  0  0  0  0  0  0
   -1.5790   20.8020  -31.5220 N   0  0  0  0  0  0  0  0  0  0  0  0
   -2.2440   21.8990  -31.1710 C   0  0  0  0  0  0  0  0  0  0  0  0
   -2.8850   22.6390  -31.9580 O   0  0  0  0  0  0  0  0  0  0  0  0
   -2.0990   22.0530  -29.8320 N   0  0  0  0  0  0  0  0  0  0  0  0
   -2.6670   23.1340  -29.0140 C   0  0  0  0  0  0  0  0  0  0  0  0
   -3.7410   23.8270  -29.7290 C   0  0  0  0  0  0  0  0  0  0  0  0
   -5.0710   23.3950  -29.7350 C   0  0  0  0  0  0  0  0  0  0  0  0
   -5.8100   24.2420  -30.4800 N   0  0  0  0  0  0  0  0  0  0  0  0
   -7.2310   24.0740  -30.6870 C   0  0  0  0  0  0  0  0  0  0  0  0
   -7.4550   22.7140  -31.2950 C   0  0  0  0  0  0  0  0  0  0  0  0
   -6.5620   22.2280  -32.2270 C   0  0  0  0  0  0  0  0  0  0  0  0
   -6.7200   20.9810  -32.8190 C   0  0  0  0  0  0  0  0  0  0  0  0
   -7.8260   20.2160  -32.4410 C   0  0  0  0  0  0  0  0  0  0  0  0
   -8.7150   20.6990  -31.5130 C   0  0  0  0  0  0  0  0  0  0  0  0
   -8.5570   21.9510  -30.9170 C   0  0  0  0  0  0  0  0  0  0  0  0
   -4.9840   25.1680  -30.9250 N   0  0  0  0  0  0  0  0  0  0  0  0
   -3.7350   24.9390  -30.4870 N   0  0  0  0  0  0  0  0  0  0  0  0
   -1.3440   21.0620  -29.3280 C   0  0  0  0  0  0  0  0  0  0  0  0
   -0.8850   20.7250  -28.0690 C   0  0  0  0  0  0  0  0  0  0  0  0
   -0.0960   19.5980  -27.8690 C   0  0  0  0  0  0  0  0  0  0  0  0
    0.2380   18.7980  -28.9390 C   0  0  0  0  0  0  0  0  0  0  0  0
   -0.2190   19.1320  -30.1990 C   0  0  0  0  0  0  0  0  0  0  0  0
   -1.0120   20.2630  -30.4040 C   0  0  0  0  0  0  0  0  0  0  0  0
   -2.6160   17.9710  -33.0610 C   0  0  0  0  0  0  0  0  0  0  0  0
   -3.8100   17.5430  -33.5320 N   0  0  0  0  0  0  0  0  0  0  0  0
   -4.3200   16.2970  -33.5900 C   0  0  0  0  0  0  0  0  0  0  0  0
   -6.3075   14.3379  -33.1672 H   0  0  0  0  0  0  0  0  0  0  0  0
   -7.1138   14.7390  -34.7214 H   0  0  0  0  0  0  0  0  0  0  0  0
   -5.4518   14.0573  -34.7214 H   0  0  0  0  0  0  0  0  0  0  0  0
   -7.3106   17.0352  -35.0163 H   0  0  0  0  0  0  0  0  0  0  0  0
   -6.3167   19.3441  -34.8878 H   0  0  0  0  0  0  0  0  0  0  0  0
   -0.5149   19.5505  -32.8019 H   0  0  0  0  0  0  0  0  0  0  0  0
   -1.3165   20.9998  -33.5632 H   0  0  0  0  0  0  0  0  0  0  0  0
   -3.0714   22.7068  -28.0845 H   0  0  0  0  0  0  0  0  0  0  0  0
   -1.8705   23.8593  -28.7913 H   0  0  0  0  0  0  0  0  0  0  0  0
   -5.4539   22.5049  -29.2143 H   0  0  0  0  0  0  0  0  0  0  0  0
   -7.7594   24.1444  -29.7248 H   0  0  0  0  0  0  0  0  0  0  0  0
   -7.6155   24.8592  -31.3546 H   0  0  0  0  0  0  0  0  0  0  0  0
   -5.6979   22.8469  -32.5104 H   0  0  0  0  0  0  0  0  0  0  0  0
   -5.9981   20.6085  -33.5607 H   0  0  0  0  0  0  0  0  0  0  0  0
   -7.9851   19.2237  -32.8882 H   0  0  0  0  0  0  0  0  0  0  0  0
   -9.5790   20.0797  -31.2303 H   0  0  0  0  0  0  0  0  0  0  0  0
   -9.2782   22.3224  -30.1741 H   0  0  0  0  0  0  0  0  0  0  0  0
   -1.1485   21.3596  -27.2100 H   0  0  0  0  0  0  0  0  0  0  0  0
    0.2604   19.3461  -26.8593 H   0  0  0  0  0  0  0  0  0  0  0  0
    0.8613   17.9036  -28.7920 H   0  0  0  0  0  0  0  0  0  0  0  0
    0.0465   18.4958  -31.0562 H   0  0  0  0  0  0  0  0  0  0  0  0
   -1.8253   17.3425  -32.6254 H   0  0  0  0  0  0  0  0  0  0  0  0
   -3.7403   15.4401  -33.2163 H   0  0  0  0  0  0  0  0  0  0  0  0
  1  2  1  0
  2  3  1  0
  3  4  2  0
  4  5  1  0
  5  6  2  0
  6  7  1  0
  7  8  1  0
  8  9  1  0
  9 10  1  0
 10 11  2  0
 10 12  1  0
 12 13  1  0
 13 14  1  0
 14 15  2  0
 15 16  1  0
 16 17  1  0
 17 18  1  0
 18 19  2  0
 19 20  1  0
 20 21  2  0
 21 22  1  0
 22 23  2  0
 16 24  1  0
 24 25  2  0
 12 26  1  0
 26 27  2  0
 27 28  1  0
 28 29  2  0
 29 30  1  0
 30 31  2  0
  7 32  2  0
 32 33  1  0
 33 34  1  0
 34  2  2  0
 33  5  1  0
 31  9  1  0
 25 14  1  0
 31 26  1  0
 23 18  1  0
  1 35  1  0
  1 36  1  0
  1 37  1  0
  3 38  1  0
  4 39  1  0
  8 40  1  0
  8 41  1  0
 13 42  1  0
 13 43  1  0
 15 44  1  0
 17 45  1  0
 17 46  1  0
 19 47  1  0
 20 48  1  0
 21 49  1  0
 22 50  1  0
 23 51  1  0
 27 52  1  0
 28 53  1  0
 29 54  1  0
 30 55  1  0
 32 56  1  0
 34 57  1  0
M  END
>  <smiles>  (37) 
Cc1ccc2nc(Cn3c(=O)n(Cc4cn(Cc5ccccc5)nn4)c4ccccc43)cn2c1

>  <score_type>  (37) 
oracle

>  <origin>  (37) 
adg

>  <m_score__min__energy>  (37) 
-10.550000000000001

>  <m_primary>  (37) 
energy

$$$$
38:0
     RDKit          3D

 43 47  0  0  1  0  0  0  0  0999 V2000
   -4.2350   23.8640  -27.3020 C   0  0  0  0  0  0  0  0  0  0  0  0
   -4.3120   23.1970  -28.5030 O   0  0  0  0  0  0  0  0  0  0  0  0
   -3.6300   23.8850  -29.5470 C   0  0  2  0  0  0  0  0  0  0  0  0
   -4.6730   24.3200  -30.5250 C   0  0  0  0  0  0  0  0  0  0  0  0
   -4.6970   25.5150  -30.9060 O   0  0  0  0  0  0  0  0  0  0  0  0
   -5.7300   23.4650  -31.1170 C   0  0  0  0  0  0  0  0  0  0  0  0
   -6.8910   24.1710  -31.3150 C   0  0  0  0  0  0  0  0  0  0  0  0
   -8.0160   23.5310  -31.7530 C   0  0  0  0  0  0  0  0  0  0  0  0
   -7.9590   22.1550  -31.9940 C   0  0  0  0  0  0  0  0  0  0  0  0
   -6.7950   21.4600  -31.7960 C   0  0  0  0  0  0  0  0  0  0  0  0
   -5.6200   22.0880  -31.3490 C   0  0  0  0  0  0  0  0  0  0  0  0
   -4.4660   21.3000  -31.1640 C   0  0  0  0  0  0  0  0  0  0  0  0
   -4.4720   19.9460  -31.3970 C   0  0  0  0  0  0  0  0  0  0  0  0
   -5.6470   19.3320  -31.8350 C   0  0  0  0  0  0  0  0  0  0  0  0
   -5.6330   17.9510  -32.0710 C   0  0  0  0  0  0  0  0  0  0  0  0
   -6.7490   17.2940  -32.5020 C   0  0  0  0  0  0  0  0  0  0  0  0
   -7.8950   18.0230  -32.7030 C   0  0  0  0  0  0  0  0  0  0  0  0
   -7.9040   19.4040  -32.4680 C   0  0  0  0  0  0  0  0  0  0  0  0
   -6.7880   20.0790  -32.0330 C   0  0  0  0  0  0  0  0  0  0  0  0
   -3.1050   21.7810  -30.8460 C   0  0  0  0  0  0  0  0  0  0  0  0
   -2.1770   20.9210  -31.3840 C   0  0  0  0  0  0  0  0  0  0  0  0
   -0.8150   21.1980  -31.2080 C   0  0  0  0  0  0  0  0  0  0  0  0
   -0.4510   22.3120  -30.5140 C   0  0  0  0  0  0  0  0  0  0  0  0
   -1.3680   23.2160  -29.9540 C   0  0  0  0  0  0  0  0  0  0  0  0
   -0.8190   24.3030  -29.2700 N   0  0  0  0  0  0  0  0  0  0  0  0
    0.2680   24.0750  -28.6320 O   0  0  0  0  0  0  0  0  0  0  0  0
   -1.2640   25.5810  -29.1590 O   0  0  0  0  0  0  0  0  0  0  0  0
   -2.6960   22.9210  -30.1380 C   0  0  0  0  0  0  0  0  0  0  0  0
   -4.3183   23.1425  -26.4759 H   0  0  0  0  0  0  0  0  0  0  0  0
   -3.2704   24.3884  -27.2350 H   0  0  0  0  0  0  0  0  0  0  0  0
   -5.0548   24.5944  -27.2350 H   0  0  0  0  0  0  0  0  0  0  0  0
   -3.0683   24.7686  -29.2096 H   0  0  0  0  0  0  0  0  0  0  0  0
   -6.9154   25.2534  -31.1207 H   0  0  0  0  0  0  0  0  0  0  0  0
   -8.9504   24.0888  -31.9132 H   0  0  0  0  0  0  0  0  0  0  0  0
   -8.8568   21.6256  -32.3458 H   0  0  0  0  0  0  0  0  0  0  0  0
   -3.5599   19.3514  -31.2400 H   0  0  0  0  0  0  0  0  0  0  0  0
   -4.7043   17.3851  -31.9057 H   0  0  0  0  0  0  0  0  0  0  0  0
   -6.7308   16.2092  -32.6835 H   0  0  0  0  0  0  0  0  0  0  0  0
   -8.8099   17.5205  -33.0500 H   0  0  0  0  0  0  0  0  0  0  0  0
   -8.8340   19.9666  -32.6370 H   0  0  0  0  0  0  0  0  0  0  0  0
   -2.4986   20.0301  -31.9434 H   0  0  0  0  0  0  0  0  0  0  0  0
   -0.0506   20.5255  -31.6243 H   0  0  0  0  0  0  0  0  0  0  0  0
    0.6224   22.5151  -30.3849 H   0  0  0  0  0  0  0  0  0  0  0  0
  1  2  1  0
  2  3  1  0
  3  4  1  0
  4  5  2  0
  4  6  1  0
  6  7  2  0
  7  8  1  0
  8  9  2  0
  9 10  1  0
 10 11  2  0
 11 12  1  0
 12 13  2  0
 13 14  1  0
 14 15  2  0
 15 16  1  0
 16 17  2  0
 17 18  1  0
 18 19  2  0
 12 20  1  0
 20 21  2  0
 21 22  1  0
 22 23  2  0
 23 24  1  0
 24 25  1  0
 25 26  2  0
 25 27  1  0
 24 28  2  0
 28  3  1  0
 11  6  1  0
 19 14  1  0
 28 20  1  0
 19 10  1  0
  1 29  1  0
  1 30  1  0
  1 31  1  0
  3 32  1  1
  7 33  1  0
  8 34  1  0
  9 35  1  0
 13 36  1  0
 15 37  1  0
 16 38  1  0
 17 39  1  0
 18 40  1  0
 21 41  1  0
 22 42  1  0
 23 43  1  0
M  CHG  2  25   1  27  -1
M  END
>  <smiles>  (38) 
COC1C(=O)c2cccc3c2c(cc2ccccc23)-c2cccc([N+](=O)[O-])c21

>  <score_type>  (38) 
oracle

>  <origin>  (38) 
adg

>  <m_score__min__energy>  (38) 
-10.06

>  <m_primary>  (38) 
energy

$$$$
39:0
     RDKit          3D

 31 33  0  0  0  0  0  0  0  0999 V2000
   -3.9660   25.3470  -30.7970 O   0  0  0  0  0  0  0  0  0  0  0  0
   -4.9620   24.4070  -31.0450 C   0  0  0  0  0  0  0  0  0  0  0  0
   -6.3040   24.7170  -31.0710 C   0  0  0  0  0  0  0  0  0  0  0  0
   -7.2880   23.7550  -31.3230 C   0  0  0  0  0  0  0  0  0  0  0  0
   -6.8830   22.4610  -31.5490 C   0  0  0  0  0  0  0  0  0  0  0  0
   -5.5440   22.1710  -31.5160 C   0  0  0  0  0  0  0  0  0  0  0  0
   -4.5450   23.1170  -31.2710 C   0  0  0  0  0  0  0  0  0  0  0  0
   -4.9430   20.8600  -31.6960 C   0  0  0  0  0  0  0  0  0  0  0  0
   -3.6220   20.7130  -32.2390 C   0  0  0  0  0  0  0  0  0  0  0  0
   -2.4140   21.0040  -31.6910 C   0  0  0  0  0  0  0  0  0  0  0  0
   -1.2080   20.8820  -32.3600 C   0  0  0  0  0  0  0  0  0  0  0  0
   -1.1860   20.4430  -33.6520 C   0  0  0  0  0  0  0  0  0  0  0  0
    0.4300   20.2490  -34.6390 Br  0  0  0  0  0  0  0  0  0  0  0  0
   -2.3870   20.1340  -34.2490 C   0  0  0  0  0  0  0  0  0  0  0  0
   -3.5690   20.2580  -33.5810 C   0  0  0  0  0  0  0  0  0  0  0  0
   -5.6090   19.7500  -31.3750 N   0  0  0  0  0  0  0  0  0  0  0  0
   -6.8980   19.4010  -32.0350 C   0  0  0  0  0  0  0  0  0  0  0  0
   -8.0080   20.2110  -31.4060 C   0  0  0  0  0  0  0  0  0  0  0  0
   -7.9180   21.5580  -31.8030 O   0  0  0  0  0  0  0  0  0  0  0  0
   -3.4090   25.6250  -31.6140 H   0  0  0  0  0  0  0  0  0  0  0  0
   -6.6125   25.7567  -30.8873 H   0  0  0  0  0  0  0  0  0  0  0  0
   -8.3540   24.0260  -31.3398 H   0  0  0  0  0  0  0  0  0  0  0  0
   -3.4797   22.8433  -31.2596 H   0  0  0  0  0  0  0  0  0  0  0  0
   -2.3923   21.3590  -30.6501 H   0  0  0  0  0  0  0  0  0  0  0  0
   -0.2677   21.1389  -31.8502 H   0  0  0  0  0  0  0  0  0  0  0  0
   -2.3933   19.7785  -35.2900 H   0  0  0  0  0  0  0  0  0  0  0  0
   -4.5056   19.9984  -34.0963 H   0  0  0  0  0  0  0  0  0  0  0  0
   -6.8366   19.6310  -33.1089 H   0  0  0  0  0  0  0  0  0  0  0  0
   -7.1025   18.3278  -31.9068 H   0  0  0  0  0  0  0  0  0  0  0  0
   -8.9790   19.8035  -31.7240 H   0  0  0  0  0  0  0  0  0  0  0  0
   -7.9146   20.1547  -30.3114 H   0  0  0  0  0  0  0  0  0  0  0  0
  1  2  1  0
  2  3  2  0
  3  4  1  0
  4  5  2  0
  5  6  1  0
  6  7  2  0
  6  8  1  0
  8  9  1  0
  9 10  2  0
 10 11  1  0
 11 12  2  0
 12 13  1  0
 12 14  1  0
 14 15  2  0
  8 16  2  0
 16 17  1  0
 17 18  1  0
 18 19  1  0
  7  2  1  0
 15  9  1  0
 19  5  1  0
  1 20  1  0
  3 21  1  0
  4 22  1  0
  7 23  1  0
 10 24  1  0
 11 25  1  0
 14 26  1  0
 15 27  1  0
 17 28  1  0
 17 29  1  0
 18 30  1  0
 18 31  1  0
M  END
>  <smiles>  (39) 
Oc1ccc2c(c1)C(c1ccc(Br)cc1)=NCCO2

>  <score_type>  (39) 
oracle

>  <origin>  (39) 
adg

>  <m_score__min__energy>  (39) 
-6.2699999999999996

>  <m_primary>  (39) 
energy

$$$$
40:0
     RDKit          3D

 32 34  0  0  1  0  0  0  0  0999 V2000
   -6.4890   26.0410  -29.3100 C   0  0  0  0  0  0  0  0  0  0  0  0
   -5.7470   24.9380  -29.9940 C   0  0  0  0  0  0  0  0  0  0  0  0
   -6.3410   24.1760  -30.9700 C   0  0  0  0  0  0  0  0  0  0  0  0
   -5.6760   23.1330  -31.6310 C   0  0  0  0  0  0  0  0  0  0  0  0
   -6.3010   22.5160  -32.4880 N   0  0  0  0  0  0  0  0  0  0  0  0
   -7.0160   21.3720  -32.4410 C   0  0  0  0  0  0  0  0  0  0  0  0
   -8.3230   21.3960  -31.8980 C   0  0  0  0  0  0  0  0  0  0  0  0
   -9.0350   20.2250  -31.7350 C   0  0  0  0  0  0  0  0  0  0  0  0
   -8.4900   19.0040  -32.0980 C   0  0  0  0  0  0  0  0  0  0  0  0
   -7.2030   18.9770  -32.6320 C   0  0  0  0  0  0  0  0  0  0  0  0
   -6.5250   17.2460  -33.1070 Br  0  0  0  0  0  0  0  0  0  0  0  0
   -6.4580   20.1230  -32.8120 C   0  0  0  0  0  0  0  0  0  0  0  0
   -4.3830   22.8610  -31.2940 C   0  0  0  0  0  0  0  0  0  0  0  0
   -3.6760   21.8630  -31.8960 C   0  0  0  0  0  0  0  0  0  0  0  0
   -2.3440   21.6170  -31.5170 C   0  0  0  0  0  0  0  0  0  0  0  0
   -1.8410   22.4220  -30.5430 C   0  0  0  0  0  0  0  0  0  0  0  0
   -2.5220   23.4320  -29.9190 C   0  0  0  0  0  0  0  0  0  0  0  0
   -1.7250   24.5000  -28.5670 Br  0  0  0  0  0  0  0  0  0  0  0  0
   -3.8240   23.6490  -30.3090 C   0  0  0  0  0  0  0  0  0  0  0  0
   -4.4750   24.6470  -29.6830 N   0  0  0  0  0  0  0  0  0  0  0  0
   -6.4061   25.9178  -28.2201 H   0  0  0  0  0  0  0  0  0  0  0  0
   -6.0582   27.0097  -29.6033 H   0  0  0  0  0  0  0  0  0  0  0  0
   -7.5486   26.0071  -29.6033 H   0  0  0  0  0  0  0  0  0  0  0  0
   -7.3836   24.3931  -31.2453 H   0  0  0  0  0  0  0  0  0  0  0  0
   -8.7745   22.3550  -31.6038 H   0  0  0  0  0  0  0  0  0  0  0  0
  -10.0493   20.2616  -31.3110 H   0  0  0  0  0  0  0  0  0  0  0  0
   -9.0622   18.0737  -31.9672 H   0  0  0  0  0  0  0  0  0  0  0  0
   -5.4451   20.0688  -33.2374 H   0  0  0  0  0  0  0  0  0  0  0  0
   -4.1473   21.2499  -32.6783 H   0  0  0  0  0  0  0  0  0  0  0  0
   -1.7443   20.8202  -31.9812 H   0  0  0  0  0  0  0  0  0  0  0  0
   -0.8008   22.2469  -30.2309 H   0  0  0  0  0  0  0  0  0  0  0  0
   -4.0240   25.2200  -28.9470 H   0  0  0  0  0  0  0  0  0  0  0  0
  1  2  1  0
  2  3  2  0
  3  4  1  0
  4  5  2  0
  5  6  1  0
  6  7  2  0
  7  8  1  0
  8  9  2  0
  9 10  1  0
 10 11  1  0
 10 12  2  0
  4 13  1  0
 13 14  2  0
 14 15  1  0
 15 16  2  0
 16 17  1  0
 17 18  1  0
 17 19  2  0
 19 20  1  0
 20  2  1  0
 12  6  1  0
 19 13  1  0
  1 21  1  0
  1 22  1  0
  1 23  1  0
  3 24  1  0
  7 25  1  0
  8 26  1  0
  9 27  1  0
 12 28  1  0
 14 29  1  0
 15 30  1  0
 16 31  1  0
 20 32  1  0
M  END
>  <smiles>  (40) 
Cc1cc(=Nc2cccc(Br)c2)c2cccc(Br)c2[nH]1

>  <score_type>  (40) 
oracle

>  <origin>  (40) 
adg

>  <m_score__min__energy>  (40) 
-9.1099999999999994

>  <m_primary>  (40) 
energy

$$$$
41:0
     RDKit          3D

 48 49  0  0  1  0  0  0  0  0999 V2000
   -7.1910   18.9470  -32.0120 C   0  0  0  0  0  0  0  0  0  0  0  0
   -6.4640   20.1320  -32.6640 C   0  0  2  0  0  0  0  0  0  0  0  0
   -7.1970   20.3930  -33.8520 O   0  0  0  0  0  0  0  0  0  0  0  0
   -5.1210   19.6520  -33.0970 C   0  0  0  0  0  0  0  0  0  0  0  0
   -4.0860   19.6800  -32.0370 C   0  0  0  0  0  0  0  0  0  0  0  0
   -4.3490   20.6160  -30.8760 C   0  0  0  0  0  0  0  0  0  0  0  0
   -5.1510   21.8230  -31.2680 C   0  0  1  0  0  0  0  0  0  0  0  0
   -4.2980   22.5380  -32.3060 C   0  0  0  0  0  0  0  0  0  0  0  0
   -6.4670   21.3590  -31.8520 C   0  0  1  0  0  0  0  0  0  0  0  0
   -7.2670   22.4960  -32.4860 C   0  0  0  0  0  0  0  0  0  0  0  0
   -7.5170   23.4950  -31.3780 C   0  0  0  0  0  0  0  0  0  0  0  0
   -6.2160   23.9500  -30.7350 C   0  0  2  0  0  0  0  0  0  0  0  0
   -6.5970   24.9610  -29.6780 C   0  0  0  0  0  0  0  0  0  0  0  0
   -5.5050   24.6170  -31.6940 O   0  0  0  0  0  0  0  0  0  0  0  0
   -5.5390   22.7230  -30.1550 C   0  0  2  0  0  0  0  0  0  0  0  0
   -4.6760   22.9870  -29.0080 C   0  0  0  0  0  0  0  0  0  0  0  0
   -3.2010   23.1190  -29.2020 C   0  0  0  0  0  0  0  0  0  0  0  0
   -2.8060   24.5470  -29.5240 C   0  0  0  0  0  0  0  0  0  0  0  0
   -1.8020   25.0350  -28.8820 O   0  0  0  0  0  0  0  0  0  0  0  0
   -3.4940   25.2960  -30.4690 O   0  0  0  0  0  0  0  0  0  0  0  0
   -7.1343   19.0394  -30.9174 H   0  0  0  0  0  0  0  0  0  0  0  0
   -8.2453   18.9460  -32.3258 H   0  0  0  0  0  0  0  0  0  0  0  0
   -6.7142   18.0067  -32.3258 H   0  0  0  0  0  0  0  0  0  0  0  0
   -7.8950   19.6690  -33.8690 H   0  0  0  0  0  0  0  0  0  0  0  0
   -4.7800   20.2886  -33.9267 H   0  0  0  0  0  0  0  0  0  0  0  0
   -5.2442   18.5977  -33.3854 H   0  0  0  0  0  0  0  0  0  0  0  0
   -3.1357   19.9802  -32.5026 H   0  0  0  0  0  0  0  0  0  0  0  0
   -4.0764   18.6682  -31.6055 H   0  0  0  0  0  0  0  0  0  0  0  0
   -3.3833   20.9528  -30.4711 H   0  0  0  0  0  0  0  0  0  0  0  0
   -4.9344   20.0592  -30.1295 H   0  0  0  0  0  0  0  0  0  0  0  0
   -3.5504   23.1646  -31.7976 H   0  0  0  0  0  0  0  0  0  0  0  0
   -3.7866   21.7948  -32.9353 H   0  0  0  0  0  0  0  0  0  0  0  0
   -4.9405   23.1714  -32.9353 H   0  0  0  0  0  0  0  0  0  0  0  0
   -7.0060   21.0234  -30.9537 H   0  0  0  0  0  0  0  0  0  0  0  0
   -6.6909   22.9623  -33.2988 H   0  0  0  0  0  0  0  0  0  0  0  0
   -8.2091   22.1326  -32.9223 H   0  0  0  0  0  0  0  0  0  0  0  0
   -8.0346   24.3708  -31.7963 H   0  0  0  0  0  0  0  0  0  0  0  0
   -8.1321   23.0087  -30.6066 H   0  0  0  0  0  0  0  0  0  0  0  0
   -6.4337   24.5276  -28.6803 H   0  0  0  0  0  0  0  0  0  0  0  0
   -5.9769   25.8623  -29.7922 H   0  0  0  0  0  0  0  0  0  0  0  0
   -7.6578   25.2289  -29.7922 H   0  0  0  0  0  0  0  0  0  0  0  0
   -5.3250   25.5580  -31.5320 H   0  0  0  0  0  0  0  0  0  0  0  0
   -6.2191   22.0823  -29.5745 H   0  0  0  0  0  0  0  0  0  0  0  0
   -5.0234   23.9290  -28.5585 H   0  0  0  0  0  0  0  0  0  0  0  0
   -4.7722   22.0741  -28.4019 H   0  0  0  0  0  0  0  0  0  0  0  0
   -2.6902   22.8068  -28.2792 H   0  0  0  0  0  0  0  0  0  0  0  0
   -2.9069   22.4814  -30.0488 H   0  0  0  0  0  0  0  0  0  0  0  0
   -3.5410   24.9780  -31.4550 H   0  0  0  0  0  0  0  0  0  0  0  0
  1  2  1  0
  2  3  1  6
  2  4  1  0
  4  5  1  0
  5  6  1  0
  6  7  1  0
  7  8  1  6
  7  9  1  0
  9 10  1  0
 10 11  1  0
 11 12  1  0
 12 13  1  0
 12 14  1  6
 12 15  1  0
 15 16  1  0
 16 17  1  0
 17 18  1  0
 18 19  2  0
 18 20  1  0
  9  2  1  0
 15  7  1  0
  1 21  1  0
  1 22  1  0
  1 23  1  0
  3 24  1  0
  4 25  1  0
  4 26  1  0
  5 27  1  0
  5 28  1  0
  6 29  1  0
  6 30  1  0
  8 31  1  0
  8 32  1  0
  8 33  1  0
  9 34  1  1
 10 35  1  0
 10 36  1  0
 11 37  1  0
 11 38  1  0
 13 39  1  0
 13 40  1  0
 13 41  1  0
 14 42  1  0
 15 43  1  1
 16 44  1  0
 16 45  1  0
 17 46  1  0
 17 47  1  0
 20 48  1  0
M  END
>  <smiles>  (41) 
CC1(O)CCCC2(C)C1CCC(C)(O)C2CCC(=O)O

>  <score_type>  (41) 
oracle

>  <origin>  (41) 
adg

>  <m_score__min__energy>  (41) 
-8.9399999999999995

>  <m_primary>  (41) 
energy

$$$$
42:0
     RDKit          3D

 43 45  0  0  0  0  0  0  0  0999 V2000
   -4.6130   24.8500  -31.0350 O   0  0  0  0  0  0  0  0  0  0  0  0
   -4.4190   23.6420  -30.8610 C   0  0  0  0  0  0  0  0  0  0  0  0
   -4.7890   22.7170  -31.9700 C   0  0  0  0  0  0  0  0  0  0  0  0
   -6.2050   22.3400  -31.9360 C   0  0  0  0  0  0  0  0  0  0  0  0
   -6.6490   21.0240  -31.8720 C   0  0  0  0  0  0  0  0  0  0  0  0
   -7.9940   20.7210  -31.8410 C   0  0  0  0  0  0  0  0  0  0  0  0
   -8.9300   21.7410  -31.8740 C   0  0  0  0  0  0  0  0  0  0  0  0
   -8.5180   23.0500  -31.9380 C   0  0  0  0  0  0  0  0  0  0  0  0
   -7.1580   23.3520  -31.9690 C   0  0  0  0  0  0  0  0  0  0  0  0
   -3.8690   23.1280  -29.6680 N   0  0  0  0  0  0  0  0  0  0  0  0
   -3.4720   23.8650  -28.5390 C   0  0  0  0  0  0  0  0  0  0  0  0
   -2.1510   24.3260  -28.4870 C   0  0  0  0  0  0  0  0  0  0  0  0
   -1.6890   25.0530  -27.4150 C   0  0  0  0  0  0  0  0  0  0  0  0
   -2.4880   25.3700  -26.3390 C   0  0  0  0  0  0  0  0  0  0  0  0
   -1.9680   26.1230  -25.2580 N   0  0  0  0  0  0  0  0  0  0  0  0
   -0.8810   25.6770  -24.4510 C   0  0  0  0  0  0  0  0  0  0  0  0
   -0.2940   24.5780  -24.6320 O   0  0  0  0  0  0  0  0  0  0  0  0
   -0.4560   26.6010  -23.3450 C   0  0  0  0  0  0  0  0  0  0  0  0
   -0.1180   27.9110  -23.9680 C   0  0  0  0  0  0  0  0  0  0  0  0
    1.0780   28.5830  -23.8390 C   0  0  0  0  0  0  0  0  0  0  0  0
    0.9400   29.7370  -24.5790 C   0  0  0  0  0  0  0  0  0  0  0  0
   -0.3330   29.6820  -25.1050 C   0  0  0  0  0  0  0  0  0  0  0  0
   -0.9500   28.5870  -24.7300 O   0  0  0  0  0  0  0  0  0  0  0  0
   -3.7900   24.9240  -26.3750 C   0  0  0  0  0  0  0  0  0  0  0  0
   -4.2550   24.1850  -27.4660 C   0  0  0  0  0  0  0  0  0  0  0  0
   -4.5788   23.2135  -32.9288 H   0  0  0  0  0  0  0  0  0  0  0  0
   -4.1951   21.7986  -31.8522 H   0  0  0  0  0  0  0  0  0  0  0  0
   -5.9122   20.2076  -31.8455 H   0  0  0  0  0  0  0  0  0  0  0  0
   -8.3223   19.6724  -31.7902 H   0  0  0  0  0  0  0  0  0  0  0  0
  -10.0037   21.5031  -31.8490 H   0  0  0  0  0  0  0  0  0  0  0  0
   -9.2619   23.8599  -31.9648 H   0  0  0  0  0  0  0  0  0  0  0  0
   -6.8349   24.4022  -32.0201 H   0  0  0  0  0  0  0  0  0  0  0  0
   -3.7500   22.0700  -29.6400 H   0  0  0  0  0  0  0  0  0  0  0  0
   -1.4689   24.1022  -29.3205 H   0  0  0  0  0  0  0  0  0  0  0  0
   -0.6431   25.3938  -27.4170 H   0  0  0  0  0  0  0  0  0  0  0  0
   -2.4330   27.0580  -25.0690 H   0  0  0  0  0  0  0  0  0  0  0  0
   -1.2770   26.7277  -22.6239 H   0  0  0  0  0  0  0  0  0  0  0  0
    0.4107   26.1907  -22.8061 H   0  0  0  0  0  0  0  0  0  0  0  0
    1.9601   28.2642  -23.2643 H   0  0  0  0  0  0  0  0  0  0  0  0
    1.6865   30.5326  -24.7200 H   0  0  0  0  0  0  0  0  0  0  0  0
   -0.7730   30.4541  -25.7533 H   0  0  0  0  0  0  0  0  0  0  0  0
   -4.4686   25.1509  -25.5395 H   0  0  0  0  0  0  0  0  0  0  0  0
   -5.3010   23.8448  -27.4607 H   0  0  0  0  0  0  0  0  0  0  0  0
  1  2  2  0
  2  3  1  0
  3  4  1  0
  4  5  2  0
  5  6  1  0
  6  7  2  0
  7  8  1  0
  8  9  2  0
  2 10  1  0
 10 11  1  0
 11 12  2  0
 12 13  1  0
 13 14  2  0
 14 15  1  0
 15 16  1  0
 16 17  2  0
 16 18  1  0
 18 19  1  0
 19 20  2  0
 20 21  1  0
 21 22  2  0
 22 23  1  0
 14 24  1  0
 24 25  2  0
  9  4  1  0
 25 11  1  0
 23 19  1  0
  3 26  1  0
  3 27  1  0
  5 28  1  0
  6 29  1  0
  7 30  1  0
  8 31  1  0
  9 32  1  0
 10 33  1  0
 12 34  1  0
 13 35  1  0
 15 36  1  0
 18 37  1  0
 18 38  1  0
 20 39  1  0
 21 40  1  0
 22 41  1  0
 24 42  1  0
 25 43  1  0
M  END
>  <smiles>  (42) 
O=C(Cc1ccccc1)Nc1ccc(NC(=O)Cc2ccco2)cc1

>  <score_type>  (42) 
oracle

>  <origin>  (42) 
adg

>  <m_score__min__energy>  (42) 
-7.9900000000000002

>  <m_primary>  (42) 
energy

$$$$
43:0
     RDKit          3D

 26 27  0  0  0  0  0  0  0  0999 V2000
   -9.4900   22.0610  -31.8770 C   0  0  0  0  0  0  0  0  0  0  0  0
   -8.7270   20.7930  -32.1000 C   0  0  0  0  0  0  0  0  0  0  0  0
   -9.4160   19.5980  -32.1340 C   0  0  0  0  0  0  0  0  0  0  0  0
   -8.6980   18.4320  -32.3410 C   0  0  0  0  0  0  0  0  0  0  0  0
   -7.3260   18.4210  -32.5120 C   0  0  0  0  0  0  0  0  0  0  0  0
   -6.6520   19.6240  -32.4730 C   0  0  0  0  0  0  0  0  0  0  0  0
   -7.3550   20.8160  -32.2660 C   0  0  0  0  0  0  0  0  0  0  0  0
   -6.6190   22.0530  -32.2330 N   0  0  0  0  0  0  0  0  0  0  0  0
   -6.4420   22.6170  -30.9250 C   0  0  0  0  0  0  0  0  0  0  0  0
   -6.9410   21.9820  -29.9570 O   0  0  0  0  0  0  0  0  0  0  0  0
   -5.7180   23.8620  -30.7590 C   0  0  0  0  0  0  0  0  0  0  0  0
   -6.2180   25.1350  -30.5390 C   0  0  0  0  0  0  0  0  0  0  0  0
   -5.1560   25.9430  -30.4560 N   0  0  0  0  0  0  0  0  0  0  0  0
   -4.0350   25.2600  -30.6090 N   0  0  0  0  0  0  0  0  0  0  0  0
   -4.3340   23.9510  -30.8010 C   0  0  0  0  0  0  0  0  0  0  0  0
   -9.5973   22.2393  -30.7969 H   0  0  0  0  0  0  0  0  0  0  0  0
   -8.9472   22.9009  -32.3351 H   0  0  0  0  0  0  0  0  0  0  0  0
  -10.4863   21.9748  -32.3351 H   0  0  0  0  0  0  0  0  0  0  0  0
  -10.5075   19.5721  -32.0001 H   0  0  0  0  0  0  0  0  0  0  0  0
   -9.2412   17.4759  -32.3706 H   0  0  0  0  0  0  0  0  0  0  0  0
   -6.7856   17.4769  -32.6750 H   0  0  0  0  0  0  0  0  0  0  0  0
   -5.5602   19.6462  -32.6048 H   0  0  0  0  0  0  0  0  0  0  0  0
   -6.2420   22.5110  -33.0670 H   0  0  0  0  0  0  0  0  0  0  0  0
   -7.2759   25.4231  -30.4504 H   0  0  0  0  0  0  0  0  0  0  0  0
   -3.0610   25.6730  -30.5830 H   0  0  0  0  0  0  0  0  0  0  0  0
   -3.6229   23.1266  -30.9582 H   0  0  0  0  0  0  0  0  0  0  0  0
  1  2  1  0
  2  3  2  0
  3  4  1  0
  4  5  2  0
  5  6  1  0
  6  7  2  0
  7  8  1  0
  8  9  1  0
  9 10  2  0
  9 11  1  0
 11 12  1  0
 12 13  2  0
 13 14  1  0
 14 15  1  0
  7  2  1  0
 15 11  2  0
  1 16  1  0
  1 17  1  0
  1 18  1  0
  3 19  1  0
  4 20  1  0
  5 21  1  0
  6 22  1  0
  8 23  1  0
 12 24  1  0
 14 25  1  0
 15 26  1  0
M  END
>  <smiles>  (43) 
Cc1ccccc1NC(=O)c1cn[nH]c1

>  <score_type>  (43) 
oracle

>  <origin>  (43) 
adg

>  <m_score__min__energy>  (43) 
-7.2300000000000004

>  <m_primary>  (43) 
energy

$$$$
44:0
     RDKit          3D

 40 43  0  0  0  0  0  0  0  0999 V2000
   -9.4450   21.5490  -30.6510 C   0  0  0  0  0  0  0  0  0  0  0  0
   -8.2000   21.2600  -31.4010 C   0  0  0  0  0  0  0  0  0  0  0  0
   -7.8760   20.0360  -31.9650 C   0  0  0  0  0  0  0  0  0  0  0  0
   -8.2230   18.7520  -32.1940 N   0  0  0  0  0  0  0  0  0  0  0  0
   -7.2260   18.1540  -32.9110 C   0  0  0  0  0  0  0  0  0  0  0  0
   -7.0490   16.8800  -33.4140 C   0  0  0  0  0  0  0  0  0  0  0  0
   -5.9280   16.5000  -34.1280 C   0  0  0  0  0  0  0  0  0  0  0  0
   -4.9180   17.4410  -34.3590 C   0  0  0  0  0  0  0  0  0  0  0  0
   -5.0910   18.7140  -33.8590 C   0  0  0  0  0  0  0  0  0  0  0  0
   -6.2200   19.0680  -33.1500 C   0  0  0  0  0  0  0  0  0  0  0  0
   -6.6380   20.2400  -32.5520 C   0  0  0  0  0  0  0  0  0  0  0  0
   -6.2630   21.4920  -32.3490 N   0  0  0  0  0  0  0  0  0  0  0  0
   -7.2190   22.1200  -31.6430 N   0  0  0  0  0  0  0  0  0  0  0  0
   -7.0840   23.5090  -31.2680 C   0  0  0  0  0  0  0  0  0  0  0  0
   -5.9780   24.2150  -31.9820 C   0  0  0  0  0  0  0  0  0  0  0  0
   -4.9060   24.4350  -31.0250 N   0  0  0  0  0  0  0  0  0  0  0  0
   -5.4550   24.8650  -29.7700 C   0  0  0  0  0  0  0  0  0  0  0  0
   -4.6260   24.2120  -28.6860 C   0  0  0  0  0  0  0  0  0  0  0  0
   -3.4500   23.6430  -29.4470 C   0  0  0  0  0  0  0  0  0  0  0  0
   -4.0630   23.3040  -30.8120 C   0  0  0  0  0  0  0  0  0  0  0  0
   -9.2418   21.5018  -29.5710 H   0  0  0  0  0  0  0  0  0  0  0  0
   -9.8056   22.5547  -30.9127 H   0  0  0  0  0  0  0  0  0  0  0  0
  -10.2118   20.8050  -30.9127 H   0  0  0  0  0  0  0  0  0  0  0  0
   -9.1120   18.3070  -31.8670 H   0  0  0  0  0  0  0  0  0  0  0  0
   -7.8369   16.1328  -33.2382 H   0  0  0  0  0  0  0  0  0  0  0  0
   -5.8311   15.4727  -34.5092 H   0  0  0  0  0  0  0  0  0  0  0  0
   -4.0126   17.1726  -34.9231 H   0  0  0  0  0  0  0  0  0  0  0  0
   -4.3080   19.4674  -34.0300 H   0  0  0  0  0  0  0  0  0  0  0  0
   -8.0292   24.0241  -31.4946 H   0  0  0  0  0  0  0  0  0  0  0  0
   -6.8426   23.5321  -30.1951 H   0  0  0  0  0  0  0  0  0  0  0  0
   -5.6150   23.5963  -32.8160 H   0  0  0  0  0  0  0  0  0  0  0  0
   -6.3323   25.1724  -32.3917 H   0  0  0  0  0  0  0  0  0  0  0  0
   -5.3949   25.9601  -29.6853 H   0  0  0  0  0  0  0  0  0  0  0  0
   -6.5141   24.5807  -29.6834 H   0  0  0  0  0  0  0  0  0  0  0  0
   -4.2943   24.9523  -27.9430 H   0  0  0  0  0  0  0  0  0  0  0  0
   -5.1810   23.4513  -28.1173 H   0  0  0  0  0  0  0  0  0  0  0  0
   -2.6454   24.3863  -29.5472 H   0  0  0  0  0  0  0  0  0  0  0  0
   -2.9860   22.7782  -28.9502 H   0  0  0  0  0  0  0  0  0  0  0  0
   -3.2914   23.2237  -31.5918 H   0  0  0  0  0  0  0  0  0  0  0  0
   -4.5871   22.3374  -30.8443 H   0  0  0  0  0  0  0  0  0  0  0  0
  1  2  1  0
  2  3  2  0
  3  4  1  0
  4  5  1  0
  5  6  2  0
  6  7  1  0
  7  8  2  0
  8  9  1  0
  9 10  2  0
 10 11  1  0
 11 12  2  0
 12 13  1  0
 13 14  1  0
 14 15  1  0
 15 16  1  0
 16 17  1  0
 17 18  1  0
 18 19  1  0
 19 20  1  0
 13  2  1  0
 20 16  1  0
 11  3  1  0
 10  5  1  0
  1 21  1  0
  1 22  1  0
  1 23  1  0
  4 24  1  0
  6 25  1  0
  7 26  1  0
  8 27  1  0
  9 28  1  0
 14 29  1  0
 14 30  1  0
 15 31  1  0
 15 32  1  0
 17 33  1  0
 17 34  1  0
 18 35  1  0
 18 36  1  0
 19 37  1  0
 19 38  1  0
 20 39  1  0
 20 40  1  0
M  END
>  <smiles>  (44) 
Cc1c2[nH]c3ccccc3c2nn1CCN1CCCC1

>  <score_type>  (44) 
oracle

>  <origin>  (44) 
adg

>  <m_score__min__energy>  (44) 
-7.9800000000000004

>  <m_primary>  (44) 
energy

$$$$
45:0
     RDKit          3D

 44 46  0  0  1  0  0  0  0  0999 V2000
   -1.3280   25.6130  -27.7180 C   0  0  0  0  0  0  0  0  0  0  0  0
   -2.0090   25.6670  -28.9580 O   0  0  0  0  0  0  0  0  0  0  0  0
   -2.6290   24.5100  -29.4010 C   0  0  0  0  0  0  0  0  0  0  0  0
   -3.8550   24.6220  -30.0380 C   0  0  0  0  0  0  0  0  0  0  0  0
   -4.5150   23.4760  -30.5010 C   0  0  0  0  0  0  0  0  0  0  0  0
   -3.9150   22.2090  -30.3130 C   0  0  0  0  0  0  0  0  0  0  0  0
   -4.5980   21.1310  -30.9220 N   0  0  0  0  0  0  0  0  0  0  0  0
   -4.5580   20.9910  -32.1920 C   0  0  0  0  0  0  0  0  0  0  0  0
   -5.7530   21.2630  -32.9060 N   0  0  0  0  0  0  0  0  0  0  0  0
   -7.1900   20.4480  -32.4300 S   0  0  0  0  0  0  0  0  0  0  0  0
   -7.5200   20.4330  -30.9940 O   0  0  0  0  0  0  0  0  0  0  0  0
   -8.3250   20.4190  -33.3530 O   0  0  0  0  0  0  0  0  0  0  0  0
   -6.5800   18.7560  -32.5640 C   0  0  0  0  0  0  0  0  0  0  0  0
   -6.4460   18.3120  -33.8590 C   0  0  0  0  0  0  0  0  0  0  0  0
   -5.9460   17.0460  -34.0360 C   0  0  0  0  0  0  0  0  0  0  0  0
   -5.6180   16.3180  -32.9370 C   0  0  0  0  0  0  0  0  0  0  0  0
   -4.9180   14.5550  -33.2210 Br  0  0  0  0  0  0  0  0  0  0  0  0
   -5.7390   16.7310  -31.6350 C   0  0  0  0  0  0  0  0  0  0  0  0
   -6.2500   18.0220  -31.4550 C   0  0  0  0  0  0  0  0  0  0  0  0
   -3.3160   20.6130  -32.9190 C   0  0  0  0  0  0  0  0  0  0  0  0
   -3.2680   19.3030  -33.3430 C   0  0  0  0  0  0  0  0  0  0  0  0
   -2.1100   18.9270  -34.0270 C   0  0  0  0  0  0  0  0  0  0  0  0
   -1.0820   19.8180  -34.2610 C   0  0  0  0  0  0  0  0  0  0  0  0
   -1.1800   21.1230  -33.8160 C   0  0  0  0  0  0  0  0  0  0  0  0
   -2.3090   21.5260  -33.1370 C   0  0  0  0  0  0  0  0  0  0  0  0
   -2.6900   22.1210  -29.6760 C   0  0  0  0  0  0  0  0  0  0  0  0
   -2.0480   23.2640  -29.2210 C   0  0  0  0  0  0  0  0  0  0  0  0
   -2.0571   25.6708  -26.8964 H   0  0  0  0  0  0  0  0  0  0  0  0
   -0.7699   24.6678  -27.6471 H   0  0  0  0  0  0  0  0  0  0  0  0
   -0.6279   26.4584  -27.6471 H   0  0  0  0  0  0  0  0  0  0  0  0
   -4.3109   25.6129  -30.1804 H   0  0  0  0  0  0  0  0  0  0  0  0
   -5.4890   23.5607  -31.0051 H   0  0  0  0  0  0  0  0  0  0  0  0
   -5.7220   21.9350  -33.7390 H   0  0  0  0  0  0  0  0  0  0  0  0
   -6.7271   18.9434  -34.7147 H   0  0  0  0  0  0  0  0  0  0  0  0
   -5.8138   16.6300  -35.0457 H   0  0  0  0  0  0  0  0  0  0  0  0
   -5.4534   16.0902  -30.7878 H   0  0  0  0  0  0  0  0  0  0  0  0
   -6.3836   18.4379  -30.4455 H   0  0  0  0  0  0  0  0  0  0  0  0
   -4.0905   18.5973  -33.1545 H   0  0  0  0  0  0  0  0  0  0  0  0
   -2.0145   17.8927  -34.3891 H   0  0  0  0  0  0  0  0  0  0  0  0
   -0.1830   19.4888  -34.8027 H   0  0  0  0  0  0  0  0  0  0  0  0
   -0.3623   21.8347  -34.0027 H   0  0  0  0  0  0  0  0  0  0  0  0
   -2.4042   22.5604  -32.7750 H   0  0  0  0  0  0  0  0  0  0  0  0
   -2.2211   21.1369  -29.5290 H   0  0  0  0  0  0  0  0  0  0  0  0
   -1.0745   23.1812  -28.7156 H   0  0  0  0  0  0  0  0  0  0  0  0
  1  2  1  0
  2  3  1  0
  3  4  2  0
  4  5  1  0
  5  6  2  0
  6  7  1  0
  7  8  2  0
  8  9  1  0
  9 10  1  0
 10 11  2  0
 10 12  2  0
 10 13  1  0
 13 14  2  0
 14 15  1  0
 15 16  2  0
 16 17  1  0
 16 18  1  0
 18 19  2  0
  8 20  1  0
 20 21  2  0
 21 22  1  0
 22 23  2  0
 23 24  1  0
 24 25  2  0
  6 26  1  0
 26 27  2  0
 27  3  1  0
 19 13  1  0
 25 20  1  0
  1 28  1  0
  1 29  1  0
  1 30  1  0
  4 31  1  0
  5 32  1  0
  9 33  1  0
 14 34  1  0
 15 35  1  0
 18 36  1  0
 19 37  1  0
 21 38  1  0
 22 39  1  0
 23 40  1  0
 24 41  1  0
 25 42  1  0
 26 43  1  0
 27 44  1  0
M  END
>  <smiles>  (45) 
COc1ccc(N=C(NS(=O)(=O)c2ccc(Br)cc2)c2ccccc2)cc1

>  <score_type>  (45) 
oracle

>  <origin>  (45) 
adg

>  <m_score__min__energy>  (45) 
-9.6099999999999994

>  <m_primary>  (45) 
energy

$$$$
46:0
     RDKit          3D

 24 25  0  0  0  0  0  0  0  0999 V2000
   -3.7810   25.3110  -30.1290 N   0  0  0  0  0  0  0  0  0  0  0  0
   -4.8860   24.4710  -30.5030 C   0  0  0  0  0  0  0  0  0  0  0  0
   -6.1910   24.8070  -30.1280 C   0  0  0  0  0  0  0  0  0  0  0  0
   -7.2570   23.9860  -30.4970 C   0  0  0  0  0  0  0  0  0  0  0  0
   -7.0530   22.8260  -31.2390 C   0  0  0  0  0  0  0  0  0  0  0  0
   -5.7460   22.5120  -31.6020 C   0  0  0  0  0  0  0  0  0  0  0  0
   -5.4530   21.3180  -32.3800 C   0  0  0  0  0  0  0  0  0  0  0  0
   -4.1760   20.8900  -32.6780 C   0  0  0  0  0  0  0  0  0  0  0  0
   -3.9690   19.7310  -33.4350 C   0  0  0  0  0  0  0  0  0  0  0  0
   -5.0700   19.0260  -33.8780 C   0  0  0  0  0  0  0  0  0  0  0  0
   -6.3680   19.4280  -33.5960 C   0  0  0  0  0  0  0  0  0  0  0  0
   -6.5560   20.5860  -32.8390 C   0  0  0  0  0  0  0  0  0  0  0  0
   -4.6910   23.3210  -31.2370 C   0  0  0  0  0  0  0  0  0  0  0  0
   -3.0870   25.6680  -30.8200 H   0  0  0  0  0  0  0  0  0  0  0  0
   -3.7310   25.5350  -29.0950 H   0  0  0  0  0  0  0  0  0  0  0  0
   -6.3769   25.7191  -29.5418 H   0  0  0  0  0  0  0  0  0  0  0  0
   -8.2786   24.2607  -30.1957 H   0  0  0  0  0  0  0  0  0  0  0  0
   -7.8950   22.1800  -31.5284 H   0  0  0  0  0  0  0  0  0  0  0  0
   -3.3110   21.4657  -32.3169 H   0  0  0  0  0  0  0  0  0  0  0  0
   -2.9506   19.3892  -33.6719 H   0  0  0  0  0  0  0  0  0  0  0  0
   -4.9133   18.1151  -34.4745 H   0  0  0  0  0  0  0  0  0  0  0  0
   -7.2286   18.8479  -33.9604 H   0  0  0  0  0  0  0  0  0  0  0  0
   -7.5751   20.9253  -32.6018 H   0  0  0  0  0  0  0  0  0  0  0  0
   -3.6705   23.0423  -31.5385 H   0  0  0  0  0  0  0  0  0  0  0  0
  1  2  1  0
  2  3  2  0
  3  4  1  0
  4  5  2  0
  5  6  1  0
  6  7  1  0
  7  8  2  0
  8  9  1  0
  9 10  2  0
 10 11  1  0
 11 12  2  0
  6 13  2  0
 13  2  1  0
 12  7  1  0
  1 14  1  0
  1 15  1  0
  3 16  1  0
  4 17  1  0
  5 18  1  0
  8 19  1  0
  9 20  1  0
 10 21  1  0
 11 22  1  0
 12 23  1  0
 13 24  1  0
M  END
>  <smiles>  (46) 
Nc1cccc(-c2ccccc2)c1

>  <score_type>  (46) 
oracle

>  <origin>  (46) 
adg

>  <m_score__min__energy>  (46) 
-6.6699999999999999

>  <m_primary>  (46) 
energy

$$$$
47:0
     RDKit          3D

 54 56  0  0  0  0  0  0  0  0999 V2000
    1.5310   24.6300  -25.0420 C   0  0  0  0  0  0  0  0  0  0  0  0
    0.2310   24.7150  -24.4500 N   0  0  0  0  0  0  0  0  0  0  0  0
   -0.4700   23.4600  -24.4430 C   0  0  0  0  0  0  0  0  0  0  0  0
   -0.7220   25.9800  -25.1430 S   0  0  0  0  0  0  0  0  0  0  0  0
   -1.6390   26.4970  -24.0710 O   0  0  0  0  0  0  0  0  0  0  0  0
    0.1330   27.1100  -25.6060 O   0  0  0  0  0  0  0  0  0  0  0  0
   -1.6870   25.3910  -26.4710 C   0  0  0  0  0  0  0  0  0  0  0  0
   -1.2290   25.3260  -27.7700 C   0  0  0  0  0  0  0  0  0  0  0  0
   -2.0910   24.8380  -28.7290 C   0  0  0  0  0  0  0  0  0  0  0  0
   -3.3760   24.4160  -28.4540 C   0  0  0  0  0  0  0  0  0  0  0  0
   -4.2840   23.9000  -29.4690 C   0  0  0  0  0  0  0  0  0  0  0  0
   -4.0220   22.7780  -30.2260 C   0  0  0  0  0  0  0  0  0  0  0  0
   -4.9740   22.3820  -31.1690 C   0  0  0  0  0  0  0  0  0  0  0  0
   -6.1460   23.0600  -31.3700 C   0  0  0  0  0  0  0  0  0  0  0  0
   -7.1760   22.6600  -32.3640 C   0  0  0  0  0  0  0  0  0  0  0  0
   -7.5400   21.3030  -32.1350 N   0  0  0  0  0  0  0  0  0  0  0  0
   -6.8440   20.3390  -32.9010 C   0  0  0  0  0  0  0  0  0  0  0  0
   -6.4820   19.1250  -32.0790 C   0  0  0  0  0  0  0  0  0  0  0  0
   -7.5330   18.0650  -32.3750 C   0  0  0  0  0  0  0  0  0  0  0  0
   -8.8220   18.5340  -31.7830 C   0  0  0  0  0  0  0  0  0  0  0  0
   -9.4180   19.7440  -32.4320 C   0  0  0  0  0  0  0  0  0  0  0  0
   -8.9060   21.0410  -31.8690 C   0  0  0  0  0  0  0  0  0  0  0  0
   -6.3820   24.1770  -30.6000 C   0  0  0  0  0  0  0  0  0  0  0  0
   -5.4660   24.5840  -29.6700 C   0  0  0  0  0  0  0  0  0  0  0  0
   -3.8270   24.4860  -27.1360 C   0  0  0  0  0  0  0  0  0  0  0  0
   -2.9810   24.9690  -26.1750 C   0  0  0  0  0  0  0  0  0  0  0  0
    2.2922   24.5802  -24.2495 H   0  0  0  0  0  0  0  0  0  0  0  0
    1.5914   23.7260  -25.6658 H   0  0  0  0  0  0  0  0  0  0  0  0
    1.7086   25.5184  -25.6658 H   0  0  0  0  0  0  0  0  0  0  0  0
   -0.6463   23.1443  -23.4041 H   0  0  0  0  0  0  0  0  0  0  0  0
   -1.4342   23.5757  -24.9598 H   0  0  0  0  0  0  0  0  0  0  0  0
    0.1341   22.6997  -24.9598 H   0  0  0  0  0  0  0  0  0  0  0  0
   -0.2116   25.6521  -28.0319 H   0  0  0  0  0  0  0  0  0  0  0  0
   -1.7357   24.7820  -29.7685 H   0  0  0  0  0  0  0  0  0  0  0  0
   -3.0895   22.2103  -30.0914 H   0  0  0  0  0  0  0  0  0  0  0  0
   -4.7730   21.4869  -31.7760 H   0  0  0  0  0  0  0  0  0  0  0  0
   -8.0621   23.3027  -32.2556 H   0  0  0  0  0  0  0  0  0  0  0  0
   -6.7724   22.7695  -33.3814 H   0  0  0  0  0  0  0  0  0  0  0  0
   -7.4810   20.0236  -33.7405 H   0  0  0  0  0  0  0  0  0  0  0  0
   -5.9119   20.7975  -33.2628 H   0  0  0  0  0  0  0  0  0  0  0  0
   -5.4843   18.7590  -32.3631 H   0  0  0  0  0  0  0  0  0  0  0  0
   -6.4568   19.3675  -31.0064 H   0  0  0  0  0  0  0  0  0  0  0  0
   -7.6430   17.9383  -33.4621 H   0  0  0  0  0  0  0  0  0  0  0  0
   -7.2386   17.0963  -31.9449 H   0  0  0  0  0  0  0  0  0  0  0  0
   -9.5503   17.7132  -31.8595 H   0  0  0  0  0  0  0  0  0  0  0  0
   -8.5945   18.8241  -30.7466 H   0  0  0  0  0  0  0  0  0  0  0  0
   -9.1832   19.7141  -33.5062 H   0  0  0  0  0  0  0  0  0  0  0  0
  -10.5007   19.7134  -32.2403 H   0  0  0  0  0  0  0  0  0  0  0  0
   -9.5019   21.8599  -32.2983 H   0  0  0  0  0  0  0  0  0  0  0  0
   -9.0006   20.9641  -30.7758 H   0  0  0  0  0  0  0  0  0  0  0  0
   -7.3139   24.7458  -30.7340 H   0  0  0  0  0  0  0  0  0  0  0  0
   -5.6764   25.4793  -29.0666 H   0  0  0  0  0  0  0  0  0  0  0  0
   -4.8440   24.1590  -26.8739 H   0  0  0  0  0  0  0  0  0  0  0  0
   -3.3344   25.0258  -25.1349 H   0  0  0  0  0  0  0  0  0  0  0  0
  1  2  1  0
  2  3  1  0
  2  4  1  0
  4  5  2  0
  4  6  2  0
  4  7  1  0
  7  8  2  0
  8  9  1  0
  9 10  2  0
 10 11  1  0
 11 12  2  0
 12 13  1  0
 13 14  2  0
 14 15  1  0
 15 16  1  0
 16 17  1  0
 17 18  1  0
 18 19  1  0
 19 20  1  0
 20 21  1  0
 21 22  1  0
 14 23  1  0
 23 24  2  0
 10 25  1  0
 25 26  2  0
 26  7  1  0
 24 11  1  0
 22 16  1  0
  1 27  1  0
  1 28  1  0
  1 29  1  0
  3 30  1  0
  3 31  1  0
  3 32  1  0
  8 33  1  0
  9 34  1  0
 12 35  1  0
 13 36  1  0
 15 37  1  0
 15 38  1  0
 17 39  1  0
 17 40  1  0
 18 41  1  0
 18 42  1  0
 19 43  1  0
 19 44  1  0
 20 45  1  0
 20 46  1  0
 21 47  1  0
 21 48  1  0
 22 49  1  0
 22 50  1  0
 23 51  1  0
 24 52  1  0
 25 53  1  0
 26 54  1  0
M  END
>  <smiles>  (47) 
CN(C)S(=O)(=O)c1ccc(-c2ccc(CN3CCCCCC3)cc2)cc1

>  <score_type>  (47) 
oracle

>  <origin>  (47) 
adg

>  <m_score__min__energy>  (47) 
-7.3600000000000003

>  <m_primary>  (47) 
energy

$$$$
