0:0
     RDKit          3D

 53 56  0  0  0  0  0  0  0  0999 V2000
   -4.5140   21.2000  -33.2800 C   0  0  0  0  0  0  0  0  0  0  0  0
   -5.7670   21.3140  -32.5700 N   0  0  0  0  0  0  0  0  0  0  0  0
   -6.2830   22.4530  -32.0280 C   0  0  0  0  0  0  0  0  0  0  0  0
   -5.7120   23.8050  -32.0310 C   0  0  0  0  0  0  0  0  0  0  0  0
   -4.6610   24.0100  -31.0560 N   0  0  0  0  0  0  0  0  0  0  0  0
   -5.2700   23.5970  -29.7800 C   0  0  0  0  0  0  0  0  0  0  0  0
   -4.4570   24.1680  -28.6570 C   0  0  0  0  0  0  0  0  0  0  0  0
   -3.1100   23.5940  -28.7840 N   0  0  0  0  0  0  0  0  0  0  0  0
   -2.2040   23.5120  -27.6640 C   0  0  0  0  0  0  0  0  0  0  0  0
   -1.1050   24.5400  -27.8570 C   0  0  0  0  0  0  0  0  0  0  0  0
   -1.0600   25.3230  -26.5420 C   0  0  0  0  0  0  0  0  0  0  0  0
   -0.2610   24.5220  -25.5680 C   0  0  0  0  0  0  0  0  0  0  0  0
   -0.7840   23.1600  -25.2690 C   0  0  0  0  0  0  0  0  0  0  0  0
   -0.5620   22.1400  -26.3580 C   0  0  0  0  0  0  0  0  0  0  0  0
   -1.6200   22.1660  -27.4240 C   0  0  0  0  0  0  0  0  0  0  0  0
   -2.6860   23.1000  -30.0580 C   0  0  0  0  0  0  0  0  0  0  0  0
   -1.5190   22.6000  -30.2060 O   0  0  0  0  0  0  0  0  0  0  0  0
   -3.5370   23.1290  -31.2640 C   0  0  0  0  0  0  0  0  0  0  0  0
   -7.4780   22.1460  -31.4450 N   0  0  0  0  0  0  0  0  0  0  0  0
   -7.6630   20.8190  -31.6470 C   0  0  0  0  0  0  0  0  0  0  0  0
   -8.7090   19.9960  -31.2640 C   0  0  0  0  0  0  0  0  0  0  0  0
   -8.7380   18.6460  -31.5560 C   0  0  0  0  0  0  0  0  0  0  0  0
   -7.6710   18.1290  -32.2570 C   0  0  0  0  0  0  0  0  0  0  0  0
   -6.6090   18.9310  -32.6540 C   0  0  0  0  0  0  0  0  0  0  0  0
   -6.6000   20.2890  -32.3480 C   0  0  0  0  0  0  0  0  0  0  0  0
   -3.6884   21.1249  -32.5570 H   0  0  0  0  0  0  0  0  0  0  0  0
   -4.5312   20.2997  -33.9118 H   0  0  0  0  0  0  0  0  0  0  0  0
   -4.3684   22.0886  -33.9118 H   0  0  0  0  0  0  0  0  0  0  0  0
   -5.2976   24.0018  -33.0308 H   0  0  0  0  0  0  0  0  0  0  0  0
   -6.5282   24.4923  -31.7637 H   0  0  0  0  0  0  0  0  0  0  0  0
   -6.3011   23.9758  -29.7214 H   0  0  0  0  0  0  0  0  0  0  0  0
   -5.2900   22.4994  -29.7102 H   0  0  0  0  0  0  0  0  0  0  0  0
   -4.4124   25.2640  -28.7390 H   0  0  0  0  0  0  0  0  0  0  0  0
   -4.9021   23.9265  -27.6805 H   0  0  0  0  0  0  0  0  0  0  0  0
   -2.7986   23.7197  -26.7622 H   0  0  0  0  0  0  0  0  0  0  0  0
   -0.1410   24.0448  -28.0454 H   0  0  0  0  0  0  0  0  0  0  0  0
   -1.2973   25.1934  -28.7208 H   0  0  0  0  0  0  0  0  0  0  0  0
   -0.5834   26.3011  -26.7038 H   0  0  0  0  0  0  0  0  0  0  0  0
   -2.0768   25.4949  -26.1593 H   0  0  0  0  0  0  0  0  0  0  0  0
    0.7553   24.4121  -25.9742 H   0  0  0  0  0  0  0  0  0  0  0  0
   -0.3045   25.0750  -24.6181 H   0  0  0  0  0  0  0  0  0  0  0  0
   -0.2899   22.7974  -24.3556 H   0  0  0  0  0  0  0  0  0  0  0  0
   -1.8738   23.2650  -25.1628 H   0  0  0  0  0  0  0  0  0  0  0  0
    0.4122   22.3387  -26.8286 H   0  0  0  0  0  0  0  0  0  0  0  0
   -0.6008   21.1472  -25.8860 H   0  0  0  0  0  0  0  0  0  0  0  0
   -1.1727   21.8105  -28.3640 H   0  0  0  0  0  0  0  0  0  0  0  0
   -2.4398   21.5212  -27.0744 H   0  0  0  0  0  0  0  0  0  0  0  0
   -2.9453   23.4894  -32.1184 H   0  0  0  0  0  0  0  0  0  0  0  0
   -3.9079   22.1137  -31.4678 H   0  0  0  0  0  0  0  0  0  0  0  0
   -9.5493   20.4343  -30.7056 H   0  0  0  0  0  0  0  0  0  0  0  0
   -9.5787   18.0101  -31.2416 H   0  0  0  0  0  0  0  0  0  0  0  0
   -7.6598   17.0580  -32.5077 H   0  0  0  0  0  0  0  0  0  0  0  0
   -5.7703   18.4908  -33.2133 H   0  0  0  0  0  0  0  0  0  0  0  0
  1  2  1  0
  2  3  1  0
  3  4  1  0
  4  5  1  0
  5  6  1  0
  6  7  1  0
  7  8  1  0
  8  9  1  0
  9 10  1  0
 10 11  1  0
 11 12  1  0
 12 13  1  0
 13 14  1  0
 14 15  1  0
  8 16  1  0
 16 17  2  0
 16 18  1  0
  3 19  2  0
 19 20  1  0
 20 21  2  0
 21 22  1  0
 22 23  2  0
 23 24  1  0
 24 25  2  0
 25  2  1  0
 18  5  1  0
 25 20  1  0
 15  9  1  0
  1 26  1  0
  1 27  1  0
  1 28  1  0
  4 29  1  0
  4 30  1  0
  6 31  1  0
  6 32  1  0
  7 33  1  0
  7 34  1  0
  9 35  1  0
 10 36  1  0
 10 37  1  0
 11 38  1  0
 11 39  1  0
 12 40  1  0
 12 41  1  0
 13 42  1  0
 13 43  1  0
 14 44  1  0
 14 45  1  0
 15 46  1  0
 15 47  1  0
 18 48  1  0
 18 49  1  0
 21 50  1  0
 22 51  1  0
 23 52  1  0
 24 53  1  0
M  END
>  <smiles>  (1) 
Cn1c(CN2CCN(C3CCCCCC3)C(=O)C2)nc2ccccc21

>  <score_type>  (1) 
oracle

>  <origin>  (1) 
adg

>  <m_score__min__energy>  (1) 
-6.6299999999999999

>  <m_primary>  (1) 
energy

$$$$
1:0
     RDKit          3D

 64 66  0  0  0  0  0  0  0  0999 V2000
   -0.4260   22.5260  -23.9940 C   0  0  0  0  0  0  0  0  0  0  0  0
    0.1090   23.1350  -25.2440 C   0  0  0  0  0  0  0  0  0  0  0  0
   -0.2910   22.5120  -26.4350 O   0  0  0  0  0  0  0  0  0  0  0  0
   -1.1220   23.0560  -27.3960 C   0  0  0  0  0  0  0  0  0  0  0  0
   -2.3350   22.5040  -27.7570 C   0  0  0  0  0  0  0  0  0  0  0  0
   -3.1520   23.0630  -28.7210 C   0  0  0  0  0  0  0  0  0  0  0  0
   -4.3620   22.5090  -29.0790 C   0  0  0  0  0  0  0  0  0  0  0  0
   -5.1740   23.0940  -30.0640 C   0  0  0  0  0  0  0  0  0  0  0  0
   -6.4240   22.4120  -30.4070 C   0  0  0  0  0  0  0  0  0  0  0  0
   -6.4260   21.8210  -31.6660 N   0  0  0  0  0  0  0  0  0  0  0  0
   -7.3120   20.7960  -32.0010 C   0  0  0  0  0  0  0  0  0  0  0  0
   -6.8800   19.4180  -31.5480 C   0  0  0  0  0  0  0  0  0  0  0  0
   -7.2480   18.4120  -32.6170 C   0  0  0  0  0  0  0  0  0  0  0  0
   -6.0620   17.7620  -33.0800 N   0  0  0  0  0  0  0  0  0  0  0  0
   -5.7260   16.6270  -32.2610 C   0  0  0  0  0  0  0  0  0  0  0  0
   -6.1390   17.4050  -34.4930 C   0  0  0  0  0  0  0  0  0  0  0  0
   -5.4220   22.1880  -32.6030 C   0  0  0  0  0  0  0  0  0  0  0  0
   -4.1930   21.3740  -32.5740 C   0  0  0  0  0  0  0  0  0  0  0  0
   -3.0100   21.5690  -31.9110 C   0  0  0  0  0  0  0  0  0  0  0  0
   -2.0340   20.6810  -32.0450 C   0  0  0  0  0  0  0  0  0  0  0  0
   -2.2350   19.5850  -32.8490 C   0  0  0  0  0  0  0  0  0  0  0  0
   -3.9930   19.8520  -33.4740 S   0  0  0  0  0  0  0  0  0  0  0  0
   -4.6840   24.2390  -30.6320 C   0  0  0  0  0  0  0  0  0  0  0  0
   -5.3100   24.8680  -31.5200 O   0  0  0  0  0  0  0  0  0  0  0  0
   -3.4840   24.7860  -30.2760 N   0  0  0  0  0  0  0  0  0  0  0  0
   -2.7060   24.2170  -29.3280 C   0  0  0  0  0  0  0  0  0  0  0  0
   -1.5000   24.7980  -28.9940 C   0  0  0  0  0  0  0  0  0  0  0  0
   -0.7000   24.2170  -28.0240 C   0  0  0  0  0  0  0  0  0  0  0  0
    0.5100   24.7640  -27.6620 O   0  0  0  0  0  0  0  0  0  0  0  0
    0.7260   25.9640  -26.9910 C   0  0  0  0  0  0  0  0  0  0  0  0
   -0.5500   26.3550  -26.2780 C   0  0  0  0  0  0  0  0  0  0  0  0
    0.0166   23.0298  -23.1221 H   0  0  0  0  0  0  0  0  0  0  0  0
   -1.5196   22.6420  -23.9685 H   0  0  0  0  0  0  0  0  0  0  0  0
   -0.1701   21.4565  -23.9685 H   0  0  0  0  0  0  0  0  0  0  0  0
   -0.2238   24.1828  -25.2806 H   0  0  0  0  0  0  0  0  0  0  0  0
    1.2018   23.0201  -25.1938 H   0  0  0  0  0  0  0  0  0  0  0  0
   -2.6645   21.5814  -27.2567 H   0  0  0  0  0  0  0  0  0  0  0  0
   -4.6994   21.5876  -28.5818 H   0  0  0  0  0  0  0  0  0  0  0  0
   -6.6053   21.6274  -29.6577 H   0  0  0  0  0  0  0  0  0  0  0  0
   -7.2101   23.1814  -30.4186 H   0  0  0  0  0  0  0  0  0  0  0  0
   -8.2855   21.0194  -31.5401 H   0  0  0  0  0  0  0  0  0  0  0  0
   -7.3525   20.7650  -33.0998 H   0  0  0  0  0  0  0  0  0  0  0  0
   -5.7916   19.4061  -31.3889 H   0  0  0  0  0  0  0  0  0  0  0  0
   -7.3847   19.1608  -30.6050 H   0  0  0  0  0  0  0  0  0  0  0  0
   -7.9370   17.6644  -32.1970 H   0  0  0  0  0  0  0  0  0  0  0  0
   -7.7381   18.9275  -33.4561 H   0  0  0  0  0  0  0  0  0  0  0  0
   -5.8079   16.9037  -31.1995 H   0  0  0  0  0  0  0  0  0  0  0  0
   -6.4179   15.8000  -32.4788 H   0  0  0  0  0  0  0  0  0  0  0  0
   -4.6955   16.3099  -32.4788 H   0  0  0  0  0  0  0  0  0  0  0  0
   -6.3700   16.3338  -34.5885 H   0  0  0  0  0  0  0  0  0  0  0  0
   -6.9304   17.9954  -34.9778 H   0  0  0  0  0  0  0  0  0  0  0  0
   -5.1745   17.6167  -34.9778 H   0  0  0  0  0  0  0  0  0  0  0  0
   -5.8555   22.1099  -33.6110 H   0  0  0  0  0  0  0  0  0  0  0  0
   -5.1133   23.2074  -32.3283 H   0  0  0  0  0  0  0  0  0  0  0  0
   -2.8709   22.4543  -31.2731 H   0  0  0  0  0  0  0  0  0  0  0  0
   -1.0774   20.8199  -31.5200 H   0  0  0  0  0  0  0  0  0  0  0  0
   -1.5435   18.7591  -33.0719 H   0  0  0  0  0  0  0  0  0  0  0  0
   -3.1400   25.6670  -30.7340 H   0  0  0  0  0  0  0  0  0  0  0  0
   -1.1746   25.7206  -29.4969 H   0  0  0  0  0  0  0  0  0  0  0  0
    1.5364   25.8380  -26.2579 H   0  0  0  0  0  0  0  0  0  0  0  0
    1.0119   26.7486  -27.7070 H   0  0  0  0  0  0  0  0  0  0  0  0
   -0.3920   26.3066  -25.1905 H   0  0  0  0  0  0  0  0  0  0  0  0
   -0.8297   27.3801  -26.5626 H   0  0  0  0  0  0  0  0  0  0  0  0
   -1.3560   25.6626  -26.5626 H   0  0  0  0  0  0  0  0  0  0  0  0
  1  2  1  0
  2  3  1  0
  3  4  1  0
  4  5  2  0
  5  6  1  0
  6  7  1  0
  7  8  2  0
  8  9  1  0
  9 10  1  0
 10 11  1  0
 11 12  1  0
 12 13  1  0
 13 14  1  0
 14 15  1  0
 14 16  1  0
 10 17  1  0
 17 18  1  0
 18 19  2  0
 19 20  1  0
 20 21  2  0
 21 22  1  0
  8 23  1  0
 23 24  2  0
 23 25  1  0
 25 26  1  0
 26 27  1  0
 27 28  2  0
 28 29  1  0
 29 30  1  0
 30 31  1  0
 28  4  1  0
 26  6  2  0
 22 18  1  0
  1 32  1  0
  1 33  1  0
  1 34  1  0
  2 35  1  0
  2 36  1  0
  5 37  1  0
  7 38  1  0
  9 39  1  0
  9 40  1  0
 11 41  1  0
 11 42  1  0
 12 43  1  0
 12 44  1  0
 13 45  1  0
 13 46  1  0
 15 47  1  0
 15 48  1  0
 15 49  1  0
 16 50  1  0
 16 51  1  0
 16 52  1  0
 17 53  1  0
 17 54  1  0
 19 55  1  0
 20 56  1  0
 21 57  1  0
 25 58  1  0
 27 59  1  0
 30 60  1  0
 30 61  1  0
 31 62  1  0
 31 63  1  0
 31 64  1  0
M  END
>  <smiles>  (2) 
CCOc1cc2cc(CN(CCCN(C)C)Cc3cccs3)c(=O)[nH]c2cc1OCC

>  <score_type>  (2) 
oracle

>  <origin>  (2) 
adg

>  <m_score__min__energy>  (2) 
-8.4800000000000004

>  <m_primary>  (2) 
energy

$$$$
2:0
     RDKit          3D

 48 52  0  0  0  0  0  0  0  0999 V2000
   -0.8250   20.9820  -30.0880 C   0  0  0  0  0  0  0  0  0  0  0  0
   -1.1690   21.1200  -31.4830 N   0  0  0  0  0  0  0  0  0  0  0  0
   -0.3350   20.7330  -32.4940 C   0  0  0  0  0  0  0  0  0  0  0  0
   -0.9850   21.0140  -33.6660 C   0  0  0  0  0  0  0  0  0  0  0  0
   -2.1520   21.5440  -33.3320 N   0  0  0  0  0  0  0  0  0  0  0  0
   -2.2910   21.6210  -31.9750 C   0  0  0  0  0  0  0  0  0  0  0  0
   -3.4880   22.1680  -31.3680 C   0  0  0  0  0  0  0  0  0  0  0  0
   -4.7710   21.8520  -31.7040 C   0  0  0  0  0  0  0  0  0  0  0  0
   -5.8880   22.4160  -31.0720 C   0  0  0  0  0  0  0  0  0  0  0  0
   -7.2320   22.0320  -31.4840 C   0  0  0  0  0  0  0  0  0  0  0  0
   -7.4860   20.6900  -31.7650 C   0  0  0  0  0  0  0  0  0  0  0  0
   -8.7420   20.2780  -32.1580 C   0  0  0  0  0  0  0  0  0  0  0  0
   -9.7500   21.2170  -32.2710 C   0  0  0  0  0  0  0  0  0  0  0  0
   -9.4890   22.5110  -31.9960 N   0  0  0  0  0  0  0  0  0  0  0  0
   -8.2680   22.9320  -31.6100 C   0  0  0  0  0  0  0  0  0  0  0  0
   -5.7280   23.3340  -30.0610 C   0  0  0  0  0  0  0  0  0  0  0  0
   -4.4410   23.6630  -29.7110 C   0  0  0  0  0  0  0  0  0  0  0  0
   -3.9910   24.5140  -28.7770 N   0  0  0  0  0  0  0  0  0  0  0  0
   -2.6490   24.5200  -28.7820 C   0  0  0  0  0  0  0  0  0  0  0  0
   -1.8150   25.3410  -27.8840 C   0  0  0  0  0  0  0  0  0  0  0  0
   -0.4090   24.8420  -27.8890 C   0  0  0  0  0  0  0  0  0  0  0  0
    0.4240   25.2710  -26.7220 C   0  0  0  0  0  0  0  0  0  0  0  0
   -0.2610   25.3560  -25.5240 O   0  0  0  0  0  0  0  0  0  0  0  0
   -1.4500   26.0630  -25.6010 C   0  0  0  0  0  0  0  0  0  0  0  0
   -2.4340   25.2980  -26.4930 C   0  0  0  0  0  0  0  0  0  0  0  0
   -2.2780   23.6630  -29.7290 N   0  0  0  0  0  0  0  0  0  0  0  0
   -3.3530   23.1050  -30.3350 C   0  0  0  0  0  0  0  0  0  0  0  0
   -1.6679   21.3201  -29.4673 H   0  0  0  0  0  0  0  0  0  0  0  0
   -0.6069   19.9268  -29.8668 H   0  0  0  0  0  0  0  0  0  0  0  0
    0.0619   21.5939  -29.8668 H   0  0  0  0  0  0  0  0  0  0  0  0
    0.6633   20.2836  -32.3872 H   0  0  0  0  0  0  0  0  0  0  0  0
   -0.6113   20.8347  -34.6849 H   0  0  0  0  0  0  0  0  0  0  0  0
   -4.9374   21.1204  -32.5084 H   0  0  0  0  0  0  0  0  0  0  0  0
   -6.6757   19.9519  -31.6722 H   0  0  0  0  0  0  0  0  0  0  0  0
   -8.9387   19.2184  -32.3782 H   0  0  0  0  0  0  0  0  0  0  0  0
  -10.7592   20.9105  -32.5834 H   0  0  0  0  0  0  0  0  0  0  0  0
   -8.0980   23.9973  -31.3949 H   0  0  0  0  0  0  0  0  0  0  0  0
   -6.5935   23.7857  -29.5541 H   0  0  0  0  0  0  0  0  0  0  0  0
   -4.5920   25.0840  -28.1410 H   0  0  0  0  0  0  0  0  0  0  0  0
   -1.7816   26.3859  -28.2263 H   0  0  0  0  0  0  0  0  0  0  0  0
   -0.4383   23.7424  -27.9002 H   0  0  0  0  0  0  0  0  0  0  0  0
    0.0664   25.2782  -28.7799 H   0  0  0  0  0  0  0  0  0  0  0  0
    1.2411   24.5450  -26.5988 H   0  0  0  0  0  0  0  0  0  0  0  0
    0.7788   26.2869  -26.9500 H   0  0  0  0  0  0  0  0  0  0  0  0
   -1.8773   26.1752  -24.5936 H   0  0  0  0  0  0  0  0  0  0  0  0
   -1.2610   27.0588  -26.0283 H   0  0  0  0  0  0  0  0  0  0  0  0
   -2.5412   24.2587  -26.1488 H   0  0  0  0  0  0  0  0  0  0  0  0
   -3.4411   25.7401  -26.4735 H   0  0  0  0  0  0  0  0  0  0  0  0
  1  2  1  0
  2  3  1  0
  3  4  2  0
  4  5  1  0
  5  6  2  0
  6  7  1  0
  7  8  2  0
  8  9  1  0
  9 10  1  0
 10 11  2  0
 11 12  1  0
 12 13  2  0
 13 14  1  0
 14 15  2  0
  9 16  2  0
 16 17  1  0
 17 18  1  0
 18 19  1  0
 19 20  1  0
 20 21  1  0
 21 22  1  0
 22 23  1  0
 23 24  1  0
 24 25  1  0
 19 26  2  0
 26 27  1  0
  6  2  1  0
 27  7  1  0
 15 10  1  0
 27 17  2  0
 25 20  1  0
  1 28  1  0
  1 29  1  0
  1 30  1  0
  3 31  1  0
  4 32  1  0
  8 33  1  0
 11 34  1  0
 12 35  1  0
 13 36  1  0
 15 37  1  0
 16 38  1  0
 18 39  1  0
 20 40  1  0
 21 41  1  0
 21 42  1  0
 22 43  1  0
 22 44  1  0
 24 45  1  0
 24 46  1  0
 25 47  1  0
 25 48  1  0
M  END
>  <smiles>  (3) 
Cn1ccnc1-c1cc(-c2cccnc2)cc2[nH]c(C3CCOCC3)nc12

>  <score_type>  (3) 
oracle

>  <origin>  (3) 
adg

>  <m_score__min__energy>  (3) 
-8.0999999999999996

>  <m_primary>  (3) 
energy

$$$$
3:0
     RDKit          3D

 44 45  0  0  0  0  0  0  0  0999 V2000
   -6.4630   17.6240  -31.2600 C   0  0  0  0  0  0  0  0  0  0  0  0
   -5.5780   18.7720  -31.5820 C   0  0  0  0  0  0  0  0  0  0  0  0
   -6.1100   19.7520  -32.4950 N   0  0  0  0  0  0  0  0  0  0  0  0
   -5.5600   19.7120  -33.8640 C   0  0  0  0  0  0  0  0  0  0  0  0
   -5.7460   18.3960  -34.5340 C   0  0  0  0  0  0  0  0  0  0  0  0
   -7.1140   20.7010  -32.2160 C   0  0  0  0  0  0  0  0  0  0  0  0
   -8.4300   20.2250  -32.3480 C   0  0  0  0  0  0  0  0  0  0  0  0
   -9.5300   20.9970  -32.0950 C   0  0  0  0  0  0  0  0  0  0  0  0
   -9.3580   22.3000  -31.6920 C   0  0  0  0  0  0  0  0  0  0  0  0
   -8.0720   22.7600  -31.5650 C   0  0  0  0  0  0  0  0  0  0  0  0
   -6.9460   21.9850  -31.8200 C   0  0  0  0  0  0  0  0  0  0  0  0
   -5.3800   22.6830  -31.6400 S   0  0  0  0  0  0  0  0  0  0  0  0
   -5.3590   24.1800  -31.6120 O   0  0  0  0  0  0  0  0  0  0  0  0
   -4.5820   22.3310  -32.9040 O   0  0  0  0  0  0  0  0  0  0  0  0
   -4.4560   21.9900  -30.3550 N   0  0  0  0  0  0  0  0  0  0  0  0
   -3.1360   21.6860  -30.7760 C   0  0  0  0  0  0  0  0  0  0  0  0
   -2.0710   22.6630  -30.4500 C   0  0  0  0  0  0  0  0  0  0  0  0
   -2.2490   23.4410  -29.1880 C   0  0  0  0  0  0  0  0  0  0  0  0
   -3.6580   24.0220  -29.1930 C   0  0  0  0  0  0  0  0  0  0  0  0
   -4.5820   22.8370  -29.2070 C   0  0  0  0  0  0  0  0  0  0  0  0
   -6.5442   17.5186  -30.1681 H   0  0  0  0  0  0  0  0  0  0  0  0
   -7.4615   17.7998  -31.6867 H   0  0  0  0  0  0  0  0  0  0  0  0
   -6.0389   16.7031  -31.6867 H   0  0  0  0  0  0  0  0  0  0  0  0
   -5.3402   19.2865  -30.6393 H   0  0  0  0  0  0  0  0  0  0  0  0
   -4.7073   18.3365  -32.0940 H   0  0  0  0  0  0  0  0  0  0  0  0
   -6.0626   20.4841  -34.4651 H   0  0  0  0  0  0  0  0  0  0  0  0
   -4.4770   19.8880  -33.7857 H   0  0  0  0  0  0  0  0  0  0  0  0
   -5.8572   17.6096  -33.7730 H   0  0  0  0  0  0  0  0  0  0  0  0
   -6.6485   18.4286  -35.1621 H   0  0  0  0  0  0  0  0  0  0  0  0
   -4.8698   18.1772  -35.1621 H   0  0  0  0  0  0  0  0  0  0  0  0
   -8.5819   19.1840  -32.6695 H   0  0  0  0  0  0  0  0  0  0  0  0
  -10.5411   20.5801  -32.2126 H   0  0  0  0  0  0  0  0  0  0  0  0
  -10.2198   22.9497  -31.4792 H   0  0  0  0  0  0  0  0  0  0  0  0
   -7.9230   23.8012  -31.2431 H   0  0  0  0  0  0  0  0  0  0  0  0
   -2.8558   20.7274  -30.3149 H   0  0  0  0  0  0  0  0  0  0  0  0
   -3.1864   21.6833  -31.8748 H   0  0  0  0  0  0  0  0  0  0  0  0
   -1.1226   22.1111  -30.3723 H   0  0  0  0  0  0  0  0  0  0  0  0
   -2.0990   23.4075  -31.2593 H   0  0  0  0  0  0  0  0  0  0  0  0
   -2.1205   22.7789  -28.3191 H   0  0  0  0  0  0  0  0  0  0  0  0
   -1.5020   24.2459  -29.1245 H   0  0  0  0  0  0  0  0  0  0  0  0
   -3.8262   24.6298  -28.2917 H   0  0  0  0  0  0  0  0  0  0  0  0
   -3.8249   24.6793  -30.0591 H   0  0  0  0  0  0  0  0  0  0  0  0
   -4.3763   22.2322  -28.3115 H   0  0  0  0  0  0  0  0  0  0  0  0
   -5.6044   23.2421  -29.2321 H   0  0  0  0  0  0  0  0  0  0  0  0
  1  2  1  0
  2  3  1  0
  3  4  1  0
  4  5  1  0
  3  6  1  0
  6  7  2  0
  7  8  1  0
  8  9  2  0
  9 10  1  0
 10 11  2  0
 11 12  1  0
 12 13  2  0
 12 14  2  0
 12 15  1  0
 15 16  1  0
 16 17  1  0
 17 18  1  0
 18 19  1  0
 19 20  1  0
 11  6  1  0
 20 15  1  0
  1 21  1  0
  1 22  1  0
  1 23  1  0
  2 24  1  0
  2 25  1  0
  4 26  1  0
  4 27  1  0
  5 28  1  0
  5 29  1  0
  5 30  1  0
  7 31  1  0
  8 32  1  0
  9 33  1  0
 10 34  1  0
 16 35  1  0
 16 36  1  0
 17 37  1  0
 17 38  1  0
 18 39  1  0
 18 40  1  0
 19 41  1  0
 19 42  1  0
 20 43  1  0
 20 44  1  0
M  END
>  <smiles>  (4) 
CCN(CC)c1ccccc1S(=O)(=O)N1CCCCC1

>  <score_type>  (4) 
oracle

>  <origin>  (4) 
adg

>  <m_score__min__energy>  (4) 
-7.3799999999999999

>  <m_primary>  (4) 
energy

$$$$
4:0
     RDKit          3D

 95 99  0  0  1  0  0  0  0  0999 V2000
   -3.0780   20.6910  -29.9810 C   0  0  0  0  0  0  0  0  0  0  0  0
   -2.6140   22.1190  -30.0850 C   0  0  0  0  0  0  0  0  0  0  0  0
   -2.9240   22.8930  -28.8970 N   0  0  0  0  0  0  0  0  0  0  0  0
   -2.2310   24.1680  -28.9280 C   0  0  0  0  0  0  0  0  0  0  0  0
   -4.3650   23.1610  -28.9760 C   0  0  0  0  0  0  0  0  0  0  0  0
   -4.5580   24.5390  -29.5110 C   0  0  0  0  0  0  0  0  0  0  0  0
   -4.5800   24.5890  -30.8780 O   0  0  0  0  0  0  0  0  0  0  0  0
   -5.8220   24.6840  -31.4510 C   0  0  0  0  0  0  0  0  0  0  0  0
   -6.0500   23.4860  -32.3300 C   0  0  0  0  0  0  0  0  0  0  0  0
   -5.3440   22.3100  -31.9380 N   0  0  0  0  0  0  0  0  0  0  0  0
   -5.5230   21.0080  -32.4160 C   0  0  0  0  0  0  0  0  0  0  0  0
   -6.6970   20.2780  -32.2910 C   0  0  0  0  0  0  0  0  0  0  0  0
   -7.7970   20.8920  -31.6870 C   0  0  0  0  0  0  0  0  0  0  0  0
   -9.0030   20.2320  -31.5410 C   0  0  0  0  0  0  0  0  0  0  0  0
   -9.0690   18.9480  -32.0190 C   0  0  0  0  0  0  0  0  0  0  0  0
   -7.9790   18.3280  -32.6240 C   0  0  0  0  0  0  0  0  0  0  0  0
   -6.7720   18.9760  -32.7730 C   0  0  0  0  0  0  0  0  0  0  0  0
   -5.7540   18.3550  -33.3710 N   0  0  0  0  0  0  0  0  0  0  0  0
   -5.7830   17.0080  -33.8740 C   0  0  0  0  0  0  0  0  0  0  0  0
   -4.5850   19.0510  -33.5090 C   0  0  0  0  0  0  0  0  0  0  0  0
   -3.4850   18.4900  -34.1230 C   0  0  0  0  0  0  0  0  0  0  0  0
   -2.3080   19.1920  -34.2700 C   0  0  0  0  0  0  0  0  0  0  0  0
   -2.1630   20.4800  -33.8160 C   0  0  0  0  0  0  0  0  0  0  0  0
   -1.0640   21.2580  -33.9020 O   0  0  0  0  0  0  0  0  0  0  0  0
    0.2010   21.1800  -33.3660 C   0  0  0  0  0  0  0  0  0  0  0  0
    0.7970   19.8360  -33.1690 C   0  0  0  0  0  0  0  0  0  0  0  0
    0.7210   19.4400  -31.7460 N   0  0  1  0  0  0  0  0  0  0  0  0
    0.0430   20.5410  -31.0980 C   0  0  0  0  0  0  0  0  0  0  0  0
   -0.0500   18.2460  -31.6040 C   0  0  0  0  0  0  0  0  0  0  0  0
   -0.0730   17.7770  -30.1880 C   0  0  0  0  0  0  0  0  0  0  0  0
    1.2310   17.5180  -29.6080 N   0  0  2  0  0  0  0  0  0  0  0  0
    1.2640   16.1180  -29.2380 C   0  0  0  0  0  0  0  0  0  0  0  0
    1.4080   18.3980  -28.4970 C   0  0  0  0  0  0  0  0  0  0  0  0
    0.2090   18.9520  -27.8760 C   0  0  0  0  0  0  0  0  0  0  0  0
   -0.7770   18.1470  -27.3040 C   0  0  0  0  0  0  0  0  0  0  0  0
   -1.9110   18.6810  -26.7240 C   0  0  0  0  0  0  0  0  0  0  0  0
   -2.1210   20.0370  -26.6840 C   0  0  0  0  0  0  0  0  0  0  0  0
   -1.1420   20.8370  -27.2520 C   0  0  0  0  0  0  0  0  0  0  0  0
   -0.0120   20.3350  -27.8310 C   0  0  0  0  0  0  0  0  0  0  0  0
    2.2170   17.8250  -30.6230 C   0  0  0  0  0  0  0  0  0  0  0  0
    2.0270   19.2070  -31.2080 C   0  0  0  0  0  0  0  0  0  0  0  0
   -3.2910   21.0370  -33.1950 C   0  0  0  0  0  0  0  0  0  0  0  0
   -4.4660   20.3420  -33.0460 C   0  0  0  0  0  0  0  0  0  0  0  0
   -3.1689   20.4113  -28.9211 H   0  0  0  0  0  0  0  0  0  0  0  0
   -4.0563   20.5866  -30.4730 H   0  0  0  0  0  0  0  0  0  0  0  0
   -2.3479   20.0315  -30.4730 H   0  0  0  0  0  0  0  0  0  0  0  0
   -1.5244   22.1256  -30.2357 H   0  0  0  0  0  0  0  0  0  0  0  0
   -3.1427   22.5810  -30.9318 H   0  0  0  0  0  0  0  0  0  0  0  0
   -2.0454   24.5095  -27.8990 H   0  0  0  0  0  0  0  0  0  0  0  0
   -1.2721   24.0514  -29.4543 H   0  0  0  0  0  0  0  0  0  0  0  0
   -2.8503   24.9093  -29.4543 H   0  0  0  0  0  0  0  0  0  0  0  0
   -4.8424   22.4316  -29.6469 H   0  0  0  0  0  0  0  0  0  0  0  0
   -4.8209   23.0752  -27.9786 H   0  0  0  0  0  0  0  0  0  0  0  0
   -5.5134   24.9306  -29.1316 H   0  0  0  0  0  0  0  0  0  0  0  0
   -3.7014   25.1423  -29.1759 H   0  0  0  0  0  0  0  0  0  0  0  0
   -6.5897   24.7149  -30.6638 H   0  0  0  0  0  0  0  0  0  0  0  0
   -5.8837   25.6028  -32.0527 H   0  0  0  0  0  0  0  0  0  0  0  0
   -7.1259   23.2569  -32.3230 H   0  0  0  0  0  0  0  0  0  0  0  0
   -5.6689   23.7570  -33.3256 H   0  0  0  0  0  0  0  0  0  0  0  0
   -4.5920   22.4360  -31.1920 H   0  0  0  0  0  0  0  0  0  0  0  0
   -7.7013   21.9243  -31.3192 H   0  0  0  0  0  0  0  0  0  0  0  0
   -9.8690   20.7140  -31.0639 H   0  0  0  0  0  0  0  0  0  0  0  0
  -10.0124   18.3908  -31.9213 H   0  0  0  0  0  0  0  0  0  0  0  0
   -8.0838   17.2966  -32.9917 H   0  0  0  0  0  0  0  0  0  0  0  0
   -5.7982   16.3019  -33.0307 H   0  0  0  0  0  0  0  0  0  0  0  0
   -6.6844   16.8652  -34.4880 H   0  0  0  0  0  0  0  0  0  0  0  0
   -4.8886   16.8266  -34.4880 H   0  0  0  0  0  0  0  0  0  0  0  0
   -3.5483   17.4599  -34.5037 H   0  0  0  0  0  0  0  0  0  0  0  0
   -1.4566   18.7045  -34.7674 H   0  0  0  0  0  0  0  0  0  0  0  0
    0.8729   21.7402  -34.0329 H   0  0  0  0  0  0  0  0  0  0  0  0
    0.0909   21.5813  -32.3478 H   0  0  0  0  0  0  0  0  0  0  0  0
    0.2477   19.1034  -33.7786 H   0  0  0  0  0  0  0  0  0  0  0  0
    1.8534   19.8667  -33.4741 H   0  0  0  0  0  0  0  0  0  0  0  0
    0.1148   20.4245  -30.0065 H   0  0  0  0  0  0  0  0  0  0  0  0
    0.5141   21.4889  -31.3973 H   0  0  0  0  0  0  0  0  0  0  0  0
   -1.0155   20.5470  -31.3973 H   0  0  0  0  0  0  0  0  0  0  0  0
    0.3898   17.4591  -32.2344 H   0  0  0  0  0  0  0  0  0  0  0  0
   -1.0831   18.4627  -31.9133 H   0  0  0  0  0  0  0  0  0  0  0  0
   -0.6564   16.8454  -30.1463 H   0  0  0  0  0  0  0  0  0  0  0  0
   -0.5147   18.5949  -29.5998 H   0  0  0  0  0  0  0  0  0  0  0  0
    1.2661   16.0284  -28.1417 H   0  0  0  0  0  0  0  0  0  0  0  0
    0.3776   15.6100  -29.6457 H   0  0  0  0  0  0  0  0  0  0  0  0
    2.1734   15.6523  -29.6457 H   0  0  0  0  0  0  0  0  0  0  0  0
    1.9538   17.8420  -27.7205 H   0  0  0  0  0  0  0  0  0  0  0  0
    1.9356   19.2694  -28.9122 H   0  0  0  0  0  0  0  0  0  0  0  0
   -0.6472   17.0547  -27.3154 H   0  0  0  0  0  0  0  0  0  0  0  0
   -2.6609   18.0063  -26.2854 H   0  0  0  0  0  0  0  0  0  0  0  0
   -3.0224   20.4677  -26.2236 H   0  0  0  0  0  0  0  0  0  0  0  0
   -1.2820   21.9279  -27.2355 H   0  0  0  0  0  0  0  0  0  0  0  0
    0.7301   21.0211  -28.2652 H   0  0  0  0  0  0  0  0  0  0  0  0
    2.1347   17.0840  -31.4318 H   0  0  0  0  0  0  0  0  0  0  0  0
    3.2092   17.7935  -30.1490 H   0  0  0  0  0  0  0  0  0  0  0  0
    2.7623   19.3447  -32.0144 H   0  0  0  0  0  0  0  0  0  0  0  0
    2.1621   19.9218  -30.3829 H   0  0  0  0  0  0  0  0  0  0  0  0
   -3.2321   22.0672  -32.8138 H   0  0  0  0  0  0  0  0  0  0  0  0
  1  2  1  0
  2  3  1  0
  3  4  1  0
  3  5  1  0
  5  6  1  0
  6  7  1  0
  7  8  1  0
  8  9  1  0
  9 10  1  0
 10 11  1  0
 11 12  2  0
 12 13  1  0
 13 14  2  0
 14 15  1  0
 15 16  2  0
 16 17  1  0
 17 18  2  0
 18 19  1  0
 18 20  1  0
 20 21  2  0
 21 22  1  0
 22 23  2  0
 23 24  1  0
 24 25  1  0
 25 26  1  0
 27 26  1  6
 27 28  1  0
 27 29  1  0
 29 30  1  0
 30 31  1  0
 31 32  1  1
 31 33  1  0
 33 34  1  0
 34 35  2  0
 35 36  1  0
 36 37  2  0
 37 38  1  0
 38 39  2  0
 31 40  1  0
 40 41  1  0
 23 42  1  0
 42 43  2  0
 43 11  1  0
 17 12  1  0
 43 20  1  0
 41 27  1  0
 39 34  1  0
  1 44  1  0
  1 45  1  0
  1 46  1  0
  2 47  1  0
  2 48  1  0
  4 49  1  0
  4 50  1  0
  4 51  1  0
  5 52  1  0
  5 53  1  0
  6 54  1  0
  6 55  1  0
  8 56  1  0
  8 57  1  0
  9 58  1  0
  9 59  1  0
 10 60  1  0
 13 61  1  0
 14 62  1  0
 15 63  1  0
 16 64  1  0
 19 65  1  0
 19 66  1  0
 19 67  1  0
 21 68  1  0
 22 69  1  0
 25 70  1  0
 25 71  1  0
 26 72  1  0
 26 73  1  0
 28 74  1  0
 28 75  1  0
 28 76  1  0
 29 77  1  0
 29 78  1  0
 30 79  1  0
 30 80  1  0
 32 81  1  0
 32 82  1  0
 32 83  1  0
 33 84  1  0
 33 85  1  0
 35 86  1  0
 36 87  1  0
 37 88  1  0
 38 89  1  0
 39 90  1  0
 40 91  1  0
 40 92  1  0
 41 93  1  0
 41 94  1  0
 42 95  1  0
M  CHG  3  18   1  27   1  31   1
M  END
>  <smiles>  (5) 
CCN(C)CCOCCNc1c2ccccc2[n+](C)c2ccc(OCC[N+]3(C)CC[N+](C)(Cc4ccccc4)CC3)cc12

>  <score_type>  (5) 
oracle

>  <origin>  (5) 
adg

>  <m_score__min__energy>  (5) 
-9.4800000000000004

>  <m_primary>  (5) 
energy

$$$$
5:0
     RDKit          3D

 49 51  0  0  0  0  0  0  0  0999 V2000
   -2.5370   15.8930  -33.8740 C   0  0  0  0  0  0  0  0  0  0  0  0
   -2.8740   17.2440  -33.9940 O   0  0  0  0  0  0  0  0  0  0  0  0
   -4.0680   17.8570  -33.7900 C   0  0  0  0  0  0  0  0  0  0  0  0
   -5.2190   17.3030  -34.3500 C   0  0  0  0  0  0  0  0  0  0  0  0
   -6.4650   17.8640  -34.1900 C   0  0  0  0  0  0  0  0  0  0  0  0
   -6.5430   19.0160  -33.4410 C   0  0  0  0  0  0  0  0  0  0  0  0
   -7.8110   19.6300  -33.2470 N   0  0  0  0  0  0  0  0  0  0  0  0
   -8.4420   19.7440  -31.9420 C   0  0  0  0  0  0  0  0  0  0  0  0
   -8.9460   21.1700  -31.7320 C   0  0  0  0  0  0  0  0  0  0  0  0
   -7.8260   22.0000  -31.4360 N   0  0  0  0  0  0  0  0  0  0  0  0
   -7.6160   23.0780  -32.3430 C   0  0  0  0  0  0  0  0  0  0  0  0
   -7.5720   22.2640  -30.0610 C   0  0  0  0  0  0  0  0  0  0  0  0
   -5.3850   19.5660  -32.8820 C   0  0  0  0  0  0  0  0  0  0  0  0
   -5.2180   20.6560  -32.1300 N   0  0  0  0  0  0  0  0  0  0  0  0
   -3.9110   20.8260  -31.7950 C   0  0  0  0  0  0  0  0  0  0  0  0
   -3.4680   21.9480  -30.9940 C   0  0  0  0  0  0  0  0  0  0  0  0
   -2.4080   21.9650  -30.1450 C   0  0  0  0  0  0  0  0  0  0  0  0
   -2.0170   23.0990  -29.4170 C   0  0  0  0  0  0  0  0  0  0  0  0
   -2.7220   24.2750  -29.5450 C   0  0  0  0  0  0  0  0  0  0  0  0
   -2.3180   25.3490  -28.8280 F   0  0  0  0  0  0  0  0  0  0  0  0
   -3.7880   24.2840  -30.3900 C   0  0  0  0  0  0  0  0  0  0  0  0
   -4.4880   25.4340  -30.5230 F   0  0  0  0  0  0  0  0  0  0  0  0
   -4.1630   23.1690  -31.0980 C   0  0  0  0  0  0  0  0  0  0  0  0
   -3.2620   19.8010  -32.3670 N   0  0  0  0  0  0  0  0  0  0  0  0
   -1.8490   19.5600  -32.3120 C   0  0  0  0  0  0  0  0  0  0  0  0
   -4.1490   19.0110  -33.0410 C   0  0  0  0  0  0  0  0  0  0  0  0
   -2.4701   15.6250  -32.8093 H   0  0  0  0  0  0  0  0  0  0  0  0
   -3.3092   15.2780  -34.3591 H   0  0  0  0  0  0  0  0  0  0  0  0
   -1.5664   15.7127  -34.3591 H   0  0  0  0  0  0  0  0  0  0  0  0
   -5.1269   16.3811  -34.9430 H   0  0  0  0  0  0  0  0  0  0  0  0
   -7.3603   17.4113  -34.6412 H   0  0  0  0  0  0  0  0  0  0  0  0
   -8.3060   20.0140  -34.0780 H   0  0  0  0  0  0  0  0  0  0  0  0
   -9.2896   19.0452  -31.8843 H   0  0  0  0  0  0  0  0  0  0  0  0
   -7.7063   19.5009  -31.1612 H   0  0  0  0  0  0  0  0  0  0  0  0
   -9.4430   21.5275  -32.6459 H   0  0  0  0  0  0  0  0  0  0  0  0
   -9.6693   21.1988  -30.9037 H   0  0  0  0  0  0  0  0  0  0  0  0
   -7.4357   24.0037  -31.7768 H   0  0  0  0  0  0  0  0  0  0  0  0
   -6.7435   22.8597  -32.9763 H   0  0  0  0  0  0  0  0  0  0  0  0
   -8.5067   23.2031  -32.9763 H   0  0  0  0  0  0  0  0  0  0  0  0
   -8.2014   21.6099  -29.4397 H   0  0  0  0  0  0  0  0  0  0  0  0
   -6.5119   22.0704  -29.8402 H   0  0  0  0  0  0  0  0  0  0  0  0
   -7.8064   23.3158  -29.8402 H   0  0  0  0  0  0  0  0  0  0  0  0
   -6.0420   21.2650  -31.8620 H   0  0  0  0  0  0  0  0  0  0  0  0
   -1.8249   21.0405  -30.0215 H   0  0  0  0  0  0  0  0  0  0  0  0
   -1.1480   23.0487  -28.7445 H   0  0  0  0  0  0  0  0  0  0  0  0
   -5.0336   23.2310  -31.7675 H   0  0  0  0  0  0  0  0  0  0  0  0
   -1.5270   19.5051  -31.2616 H   0  0  0  0  0  0  0  0  0  0  0  0
   -1.6192   18.6097  -32.8161 H   0  0  0  0  0  0  0  0  0  0  0  0
   -1.3172   20.3804  -32.8161 H   0  0  0  0  0  0  0  0  0  0  0  0
  1  2  1  0
  2  3  1  0
  3  4  2  0
  4  5  1  0
  5  6  2  0
  6  7  1  0
  7  8  1  0
  8  9  1  0
  9 10  1  0
 10 11  1  0
 10 12  1  0
  6 13  1  0
 13 14  1  0
 14 15  1  0
 15 16  1  0
 16 17  2  0
 17 18  1  0
 18 19  2  0
 19 20  1  0
 19 21  1  0
 21 22  1  0
 21 23  2  0
 15 24  2  0
 24 25  1  0
 24 26  1  0
 26  3  1  0
 26 13  2  0
 23 16  1  0
  1 27  1  0
  1 28  1  0
  1 29  1  0
  4 30  1  0
  5 31  1  0
  7 32  1  0
  8 33  1  0
  8 34  1  0
  9 35  1  0
  9 36  1  0
 11 37  1  0
 11 38  1  0
 11 39  1  0
 12 40  1  0
 12 41  1  0
 12 42  1  0
 14 43  1  0
 17 44  1  0
 18 45  1  0
 23 46  1  0
 25 47  1  0
 25 48  1  0
 25 49  1  0
M  CHG  1  24   1
M  END
>  <smiles>  (6) 
COc1ccc(NCCN(C)C)c2[nH]c(-c3ccc(F)c(F)c3)[n+](C)c12

>  <score_type>  (6) 
oracle

>  <origin>  (6) 
adg

>  <m_score__min__energy>  (6) 
-6.4000000000000004

>  <m_primary>  (6) 
energy

$$$$
7:0
     RDKit          3D

 79 81  0  0  0  0  0  0  0  0999 V2000
   -5.7440   25.6630  -30.9050 C   0  0  0  0  0  0  0  0  0  0  0  0
   -6.0710   25.2840  -29.4540 C   0  0  0  0  0  0  0  0  0  0  0  0
   -4.9700   24.5170  -28.9390 N   0  0  0  0  0  0  0  0  0  0  0  0
   -4.3910   23.6180  -29.8720 C   0  0  0  0  0  0  0  0  0  0  0  0
   -2.9120   23.7920  -30.1260 C   0  0  0  0  0  0  0  0  0  0  0  0
   -2.2750   24.6210  -29.2650 O   0  0  0  0  0  0  0  0  0  0  0  0
   -2.0500   24.1010  -28.0020 C   0  0  0  0  0  0  0  0  0  0  0  0
   -1.1140   22.9320  -27.9990 C   0  0  0  0  0  0  0  0  0  0  0  0
   -1.7520   21.6400  -27.8770 N   0  0  0  0  0  0  0  0  0  0  0  0
   -1.2010   20.9940  -26.6940 C   0  0  0  0  0  0  0  0  0  0  0  0
   -3.1710   21.8660  -27.5410 C   0  0  0  0  0  0  0  0  0  0  0  0
   -1.7520   20.8290  -29.0400 C   0  0  0  0  0  0  0  0  0  0  0  0
   -0.5910   21.1140  -30.0040 C   0  0  0  0  0  0  0  0  0  0  0  0
   -0.3030   19.9550  -30.6550 O   0  0  0  0  0  0  0  0  0  0  0  0
   -0.1410   20.0720  -31.9920 C   0  0  0  0  0  0  0  0  0  0  0  0
   -1.1700   19.4210  -32.8590 C   0  0  0  0  0  0  0  0  0  0  0  0
   -1.7320   20.2470  -33.7950 O   0  0  0  0  0  0  0  0  0  0  0  0
   -2.0380   21.5080  -33.3290 C   0  0  0  0  0  0  0  0  0  0  0  0
   -3.2900   21.4770  -32.5250 C   0  0  0  0  0  0  0  0  0  0  0  0
   -4.4870   21.5130  -33.3960 N   0  0  0  0  0  0  0  0  0  0  0  0
   -5.6170   20.7160  -33.0680 C   0  0  0  0  0  0  0  0  0  0  0  0
   -6.7560   21.3000  -32.5170 C   0  0  0  0  0  0  0  0  0  0  0  0
   -6.6950   22.6630  -32.3210 C   0  0  0  0  0  0  0  0  0  0  0  0
   -7.7690   23.3350  -31.7770 C   0  0  0  0  0  0  0  0  0  0  0  0
   -8.8930   22.6160  -31.4400 C   0  0  0  0  0  0  0  0  0  0  0  0
   -8.9370   21.2330  -31.6470 C   0  0  0  0  0  0  0  0  0  0  0  0
   -7.8750   20.5420  -32.1890 C   0  0  0  0  0  0  0  0  0  0  0  0
   -7.9060   19.1970  -32.3920 N   0  0  0  0  0  0  0  0  0  0  0  0
   -9.0960   18.4910  -32.0350 C   0  0  0  0  0  0  0  0  0  0  0  0
   -6.8040   18.6430  -32.9220 C   0  0  0  0  0  0  0  0  0  0  0  0
   -6.7770   17.2860  -33.1450 C   0  0  0  0  0  0  0  0  0  0  0  0
   -5.6510   16.6800  -33.6920 C   0  0  0  0  0  0  0  0  0  0  0  0
   -4.5210   17.3950  -34.0330 C   0  0  0  0  0  0  0  0  0  0  0  0
   -4.5460   18.7540  -33.8090 C   0  0  0  0  0  0  0  0  0  0  0  0
   -5.6730   19.3540  -33.2630 C   0  0  0  0  0  0  0  0  0  0  0  0
   -5.0254   26.4958  -30.9134 H   0  0  0  0  0  0  0  0  0  0  0  0
   -5.3061   24.7957  -31.4207 H   0  0  0  0  0  0  0  0  0  0  0  0
   -6.6661   25.9691  -31.4207 H   0  0  0  0  0  0  0  0  0  0  0  0
   -6.2067   26.1942  -28.8514 H   0  0  0  0  0  0  0  0  0  0  0  0
   -7.0002   24.6968  -29.4114 H   0  0  0  0  0  0  0  0  0  0  0  0
   -4.3100   25.1030  -28.4210 H   0  0  0  0  0  0  0  0  0  0  0  0
   -4.5508   22.5957  -29.4986 H   0  0  0  0  0  0  0  0  0  0  0  0
   -4.8845   23.8274  -30.8325 H   0  0  0  0  0  0  0  0  0  0  0  0
   -2.4363   22.8023  -30.0611 H   0  0  0  0  0  0  0  0  0  0  0  0
   -2.8242   24.2558  -31.1196 H   0  0  0  0  0  0  0  0  0  0  0  0
   -1.6213   24.8928  -27.3701 H   0  0  0  0  0  0  0  0  0  0  0  0
   -3.0178   23.7435  -27.6205 H   0  0  0  0  0  0  0  0  0  0  0  0
   -0.5478   22.9455  -28.9420 H   0  0  0  0  0  0  0  0  0  0  0  0
   -0.4797   23.0476  -27.1077 H   0  0  0  0  0  0  0  0  0  0  0  0
   -1.6090   21.4724  -25.7914 H   0  0  0  0  0  0  0  0  0  0  0  0
   -1.4722   19.9280  -26.6985 H   0  0  0  0  0  0  0  0  0  0  0  0
   -0.1055   21.0937  -26.6985 H   0  0  0  0  0  0  0  0  0  0  0  0
   -3.2904   21.8850  -26.4477 H   0  0  0  0  0  0  0  0  0  0  0  0
   -3.4989   22.8277  -27.9624 H   0  0  0  0  0  0  0  0  0  0  0  0
   -3.7815   21.0538  -27.9624 H   0  0  0  0  0  0  0  0  0  0  0  0
   -1.6904   19.7763  -28.7269 H   0  0  0  0  0  0  0  0  0  0  0  0
   -2.6798   21.0569  -29.5852 H   0  0  0  0  0  0  0  0  0  0  0  0
   -0.8861   21.8876  -30.7282 H   0  0  0  0  0  0  0  0  0  0  0  0
    0.2891   21.4762  -29.4524 H   0  0  0  0  0  0  0  0  0  0  0  0
   -0.1347   21.1453  -32.2330 H   0  0  0  0  0  0  0  0  0  0  0  0
    0.7969   19.5418  -32.2140 H   0  0  0  0  0  0  0  0  0  0  0  0
   -0.6935   18.5806  -33.3850 H   0  0  0  0  0  0  0  0  0  0  0  0
   -1.9856   19.1057  -32.1916 H   0  0  0  0  0  0  0  0  0  0  0  0
   -1.2124   21.8715  -32.6995 H   0  0  0  0  0  0  0  0  0  0  0  0
   -2.1835   22.1792  -34.1883 H   0  0  0  0  0  0  0  0  0  0  0  0
   -3.3093   20.5542  -31.9266 H   0  0  0  0  0  0  0  0  0  0  0  0
   -3.3071   22.3627  -31.8729 H   0  0  0  0  0  0  0  0  0  0  0  0
   -4.5140   22.1160  -34.2490 H   0  0  0  0  0  0  0  0  0  0  0  0
   -5.7862   23.2166  -32.5996 H   0  0  0  0  0  0  0  0  0  0  0  0
   -7.7283   24.4224  -31.6158 H   0  0  0  0  0  0  0  0  0  0  0  0
   -9.7620   23.1317  -31.0053 H   0  0  0  0  0  0  0  0  0  0  0  0
   -9.8466   20.6806  -31.3687 H   0  0  0  0  0  0  0  0  0  0  0  0
   -9.1785   18.4420  -30.9392 H   0  0  0  0  0  0  0  0  0  0  0  0
   -9.9710   19.0162  -32.4455 H   0  0  0  0  0  0  0  0  0  0  0  0
   -9.0545   17.4713  -32.4455 H   0  0  0  0  0  0  0  0  0  0  0  0
   -7.6544   16.6742  -32.8883 H   0  0  0  0  0  0  0  0  0  0  0  0
   -5.6615   15.5927  -33.8586 H   0  0  0  0  0  0  0  0  0  0  0  0
   -3.6383   16.9010  -34.4651 H   0  0  0  0  0  0  0  0  0  0  0  0
   -3.6689   19.3669  -34.0639 H   0  0  0  0  0  0  0  0  0  0  0  0
  1  2  1  0
  2  3  1  0
  3  4  1  0
  4  5  1  0
  5  6  1  0
  6  7  1  0
  7  8  1  0
  8  9  1  0
  9 10  1  0
  9 11  1  0
  9 12  1  0
 12 13  1  0
 13 14  1  0
 14 15  1  0
 15 16  1  0
 16 17  1  0
 17 18  1  0
 18 19  1  0
 19 20  1  0
 20 21  1  0
 21 22  2  0
 22 23  1  0
 23 24  2  0
 24 25  1  0
 25 26  2  0
 26 27  1  0
 27 28  2  0
 28 29  1  0
 28 30  1  0
 30 31  2  0
 31 32  1  0
 32 33  2  0
 33 34  1  0
 34 35  2  0
 35 21  1  0
 27 22  1  0
 35 30  1  0
  1 36  1  0
  1 37  1  0
  1 38  1  0
  2 39  1  0
  2 40  1  0
  3 41  1  0
  4 42  1  0
  4 43  1  0
  5 44  1  0
  5 45  1  0
  7 46  1  0
  7 47  1  0
  8 48  1  0
  8 49  1  0
 10 50  1  0
 10 51  1  0
 10 52  1  0
 11 53  1  0
 11 54  1  0
 11 55  1  0
 12 56  1  0
 12 57  1  0
 13 58  1  0
 13 59  1  0
 15 60  1  0
 15 61  1  0
 16 62  1  0
 16 63  1  0
 18 64  1  0
 18 65  1  0
 19 66  1  0
 19 67  1  0
 20 68  1  0
 23 69  1  0
 24 70  1  0
 25 71  1  0
 26 72  1  0
 29 73  1  0
 29 74  1  0
 29 75  1  0
 31 76  1  0
 32 77  1  0
 33 78  1  0
 34 79  1  0
M  CHG  2   9   1  28   1
M  END
>  <smiles>  (7) 
CCNCCOCC[N+](C)(C)CCOCCOCCNc1c2ccccc2[n+](C)c2ccccc12

>  <score_type>  (7) 
oracle

>  <origin>  (7) 
adg

>  <m_score__min__energy>  (7) 
-8.6400000000000006

>  <m_primary>  (7) 
energy

$$$$
8:0
     RDKit          3D

 66 68  0  0  0  0  0  0  0  0999 V2000
   -1.7880   14.3880  -32.3530 C   0  0  0  0  0  0  0  0  0  0  0  0
   -1.6130   15.0020  -33.7250 C   0  0  0  0  0  0  0  0  0  0  0  0
   -2.3560   16.2660  -33.8700 C   0  0  0  0  0  0  0  0  0  0  0  0
   -1.7130   17.5040  -33.9350 C   0  0  0  0  0  0  0  0  0  0  0  0
   -0.2520   17.7680  -33.8640 C   0  0  0  0  0  0  0  0  0  0  0  0
   -2.7280   18.4230  -34.0760 C   0  0  0  0  0  0  0  0  0  0  0  0
   -2.5140   19.9100  -34.1940 C   0  0  0  0  0  0  0  0  0  0  0  0
   -2.2660   20.4280  -32.8220 C   0  0  0  0  0  0  0  0  0  0  0  0
   -2.9790   21.6180  -32.4910 N   0  0  0  0  0  0  0  0  0  0  0  0
   -4.3500   21.5630  -32.9170 C   0  0  0  0  0  0  0  0  0  0  0  0
   -5.1230   22.7900  -32.5210 C   0  0  0  0  0  0  0  0  0  0  0  0
   -4.6110   23.3870  -31.2910 N   0  0  0  0  0  0  0  0  0  0  0  0
   -5.6760   24.0960  -30.6300 C   0  0  0  0  0  0  0  0  0  0  0  0
   -5.2180   25.5490  -30.4770 C   0  0  0  0  0  0  0  0  0  0  0  0
   -3.8760   25.6560  -30.7390 O   0  0  0  0  0  0  0  0  0  0  0  0
   -4.1820   22.2630  -30.4590 C   0  0  0  0  0  0  0  0  0  0  0  0
   -2.8650   21.8080  -31.0470 C   0  0  0  0  0  0  0  0  0  0  0  0
   -3.9540   17.7870  -34.0990 C   0  0  0  0  0  0  0  0  0  0  0  0
   -5.4940   18.6360  -34.2890 S   0  0  0  0  0  0  0  0  0  0  0  0
   -6.8170   18.0150  -33.2410 C   0  0  0  0  0  0  0  0  0  0  0  0
   -6.7000   18.6700  -31.8780 C   0  0  0  0  0  0  0  0  0  0  0  0
   -7.6520   19.8280  -31.7770 C   0  0  0  0  0  0  0  0  0  0  0  0
   -8.9010   19.6830  -32.3820 C   0  0  0  0  0  0  0  0  0  0  0  0
   -9.8070   20.7300  -32.3190 C   0  0  0  0  0  0  0  0  0  0  0  0
   -9.4930   21.9100  -31.6690 C   0  0  0  0  0  0  0  0  0  0  0  0
   -8.2420   22.0250  -31.0750 C   0  0  0  0  0  0  0  0  0  0  0  0
   -7.3170   20.9970  -31.1220 C   0  0  0  0  0  0  0  0  0  0  0  0
   -3.7030   16.4650  -33.9710 N   0  0  0  0  0  0  0  0  0  0  0  0
   -4.7210   15.4340  -33.9570 C   0  0  0  0  0  0  0  0  0  0  0  0
   -1.5727   15.1435  -31.5830 H   0  0  0  0  0  0  0  0  0  0  0  0
   -2.8230   14.0333  -32.2393 H   0  0  0  0  0  0  0  0  0  0  0  0
   -1.0955   13.5409  -32.2393 H   0  0  0  0  0  0  0  0  0  0  0  0
   -0.5436   15.1991  -33.8907 H   0  0  0  0  0  0  0  0  0  0  0  0
   -2.0095   14.2914  -34.4651 H   0  0  0  0  0  0  0  0  0  0  0  0
    0.0597   17.8243  -32.8106 H   0  0  0  0  0  0  0  0  0  0  0  0
    0.2925   16.9537  -34.3644 H   0  0  0  0  0  0  0  0  0  0  0  0
   -0.0269   18.7214  -34.3644 H   0  0  0  0  0  0  0  0  0  0  0  0
   -1.6460   20.1161  -34.8375 H   0  0  0  0  0  0  0  0  0  0  0  0
   -3.3924   20.3969  -34.6428 H   0  0  0  0  0  0  0  0  0  0  0  0
   -2.5546   19.6460  -32.1042 H   0  0  0  0  0  0  0  0  0  0  0  0
   -1.1977   20.6865  -32.7785 H   0  0  0  0  0  0  0  0  0  0  0  0
   -4.3759   21.4675  -34.0125 H   0  0  0  0  0  0  0  0  0  0  0  0
   -4.8193   20.6979  -32.4257 H   0  0  0  0  0  0  0  0  0  0  0  0
   -5.0525   23.5307  -33.3312 H   0  0  0  0  0  0  0  0  0  0  0  0
   -6.1667   22.4910  -32.3441 H   0  0  0  0  0  0  0  0  0  0  0  0
   -6.5931   24.0506  -31.2357 H   0  0  0  0  0  0  0  0  0  0  0  0
   -5.8968   23.6484  -29.6498 H   0  0  0  0  0  0  0  0  0  0  0  0
   -5.7768   26.1816  -31.1823 H   0  0  0  0  0  0  0  0  0  0  0  0
   -5.4078   25.8767  -29.4443 H   0  0  0  0  0  0  0  0  0  0  0  0
   -3.5050   24.9100  -31.2840 H   0  0  0  0  0  0  0  0  0  0  0  0
   -4.0469   22.5857  -29.4161 H   0  0  0  0  0  0  0  0  0  0  0  0
   -4.9269   21.4537  -30.4489 H   0  0  0  0  0  0  0  0  0  0  0  0
   -2.0971   22.5687  -30.8430 H   0  0  0  0  0  0  0  0  0  0  0  0
   -2.5861   20.8488  -30.5863 H   0  0  0  0  0  0  0  0  0  0  0  0
   -7.7912   18.2613  -33.6885 H   0  0  0  0  0  0  0  0  0  0  0  0
   -6.7374   16.9224  -33.1418 H   0  0  0  0  0  0  0  0  0  0  0  0
   -6.9406   17.9324  -31.0982 H   0  0  0  0  0  0  0  0  0  0  0  0
   -5.6719   19.0369  -31.7424 H   0  0  0  0  0  0  0  0  0  0  0  0
   -9.1632   18.7499  -32.9022 H   0  0  0  0  0  0  0  0  0  0  0  0
  -10.7930   20.6207  -32.7942 H   0  0  0  0  0  0  0  0  0  0  0  0
  -10.2163   22.7375  -31.6234 H   0  0  0  0  0  0  0  0  0  0  0  0
   -7.9802   22.9577  -30.5538 H   0  0  0  0  0  0  0  0  0  0  0  0
   -6.3317   21.1088  -30.6459 H   0  0  0  0  0  0  0  0  0  0  0  0
   -4.9716   15.1802  -32.9164 H   0  0  0  0  0  0  0  0  0  0  0  0
   -5.6212   15.8006  -34.4720 H   0  0  0  0  0  0  0  0  0  0  0  0
   -4.3430   14.5385  -34.4720 H   0  0  0  0  0  0  0  0  0  0  0  0
  1  2  1  0
  2  3  1  0
  3  4  2  0
  4  5  1  0
  4  6  1  0
  6  7  1  0
  7  8  1  0
  8  9  1  0
  9 10  1  0
 10 11  1  0
 11 12  1  0
 12 13  1  0
 13 14  1  0
 14 15  1  0
 12 16  1  0
 16 17  1  0
  6 18  2  0
 18 19  1  0
 19 20  1  0
 20 21  1  0
 21 22  1  0
 22 23  2  0
 23 24  1  0
 24 25  2  0
 25 26  1  0
 26 27  2  0
 18 28  1  0
 28 29  1  0
 28  3  1  0
 17  9  1  0
 27 22  1  0
  1 30  1  0
  1 31  1  0
  1 32  1  0
  2 33  1  0
  2 34  1  0
  5 35  1  0
  5 36  1  0
  5 37  1  0
  7 38  1  0
  7 39  1  0
  8 40  1  0
  8 41  1  0
 10 42  1  0
 10 43  1  0
 11 44  1  0
 11 45  1  0
 13 46  1  0
 13 47  1  0
 14 48  1  0
 14 49  1  0
 15 50  1  0
 16 51  1  0
 16 52  1  0
 17 53  1  0
 17 54  1  0
 20 55  1  0
 20 56  1  0
 21 57  1  0
 21 58  1  0
 23 59  1  0
 24 60  1  0
 25 61  1  0
 26 62  1  0
 27 63  1  0
 29 64  1  0
 29 65  1  0
 29 66  1  0
M  END
>  <smiles>  (8) 
CCc1c(C)c(CCN2CCN(CCO)CC2)c(SCCc2ccccc2)n1C

>  <score_type>  (8) 
oracle

>  <origin>  (8) 
adg

>  <m_score__min__energy>  (8) 
-9.1600000000000001

>  <m_primary>  (8) 
energy

$$$$
9:0
     RDKit          3D

 52 56  0  0  0  0  0  0  0  0999 V2000
    2.3600   20.9630  -36.0980 C   0  0  0  0  0  0  0  0  0  0  0  0
    1.4140   20.4830  -35.1050 N   0  0  0  0  0  0  0  0  0  0  0  0
    1.6010   19.2490  -34.6580 N   0  0  0  0  0  0  0  0  0  0  0  0
    0.7820   18.7030  -33.7350 C   0  0  0  0  0  0  0  0  0  0  0  0
   -0.2480   19.4580  -33.2740 C   0  0  0  0  0  0  0  0  0  0  0  0
   -0.4670   20.7620  -33.7300 C   0  0  0  0  0  0  0  0  0  0  0  0
    0.4070   21.2730  -34.6790 C   0  0  0  0  0  0  0  0  0  0  0  0
    0.2400   22.4300  -35.1060 O   0  0  0  0  0  0  0  0  0  0  0  0
   -1.6090   21.5470  -33.1930 C   0  0  0  0  0  0  0  0  0  0  0  0
   -1.9880   21.2300  -31.8640 N   0  0  0  0  0  0  0  0  0  0  0  0
   -2.2600   22.3230  -30.9910 C   0  0  0  0  0  0  0  0  0  0  0  0
   -3.7090   22.6920  -31.1860 C   0  0  0  0  0  0  0  0  0  0  0  0
   -4.1080   23.9370  -30.8550 N   0  0  0  0  0  0  0  0  0  0  0  0
   -5.3850   24.3050  -31.0120 C   0  0  0  0  0  0  0  0  0  0  0  0
   -5.8480   25.4240  -30.7360 O   0  0  0  0  0  0  0  0  0  0  0  0
   -6.2740   23.3600  -31.5280 C   0  0  0  0  0  0  0  0  0  0  0  0
   -7.6100   23.4150  -31.8030 C   0  0  0  0  0  0  0  0  0  0  0  0
   -8.0010   22.2260  -32.2910 N   0  0  0  0  0  0  0  0  0  0  0  0
   -6.9150   21.3980  -32.3320 C   0  0  0  0  0  0  0  0  0  0  0  0
   -6.9610   20.0290  -32.8030 C   0  0  0  0  0  0  0  0  0  0  0  0
   -5.6970   19.7510  -33.6100 C   0  0  0  0  0  0  0  0  0  0  0  0
   -6.0470   18.5300  -34.4730 C   0  0  0  0  0  0  0  0  0  0  0  0
   -6.2340   17.4780  -33.5880 O   0  0  0  0  0  0  0  0  0  0  0  0
   -7.3320   17.6640  -32.7610 C   0  0  0  0  0  0  0  0  0  0  0  0
   -7.1670   18.9220  -31.8800 C   0  0  0  0  0  0  0  0  0  0  0  0
   -5.8810   22.1160  -31.8600 N   0  0  0  0  0  0  0  0  0  0  0  0
   -4.6040   21.8290  -31.6750 N   0  0  0  0  0  0  0  0  0  0  0  0
   -1.3660   20.1100  -31.2540 C   0  0  0  0  0  0  0  0  0  0  0  0
   -1.2360   18.9800  -32.2490 C   0  0  0  0  0  0  0  0  0  0  0  0
    3.2307   21.4048  -35.5914 H   0  0  0  0  0  0  0  0  0  0  0  0
    2.6891   20.1228  -36.7271 H   0  0  0  0  0  0  0  0  0  0  0  0
    1.8763   21.7247  -36.7271 H   0  0  0  0  0  0  0  0  0  0  0  0
    0.9437   17.6788  -33.3677 H   0  0  0  0  0  0  0  0  0  0  0  0
   -1.3343   22.6117  -33.2237 H   0  0  0  0  0  0  0  0  0  0  0  0
   -2.4744   21.2979  -33.8247 H   0  0  0  0  0  0  0  0  0  0  0  0
   -2.0830   22.0258  -29.9468 H   0  0  0  0  0  0  0  0  0  0  0  0
   -1.6036   23.1770  -31.2144 H   0  0  0  0  0  0  0  0  0  0  0  0
   -8.2597   24.2894  -31.6501 H   0  0  0  0  0  0  0  0  0  0  0  0
   -7.9051   20.0257  -33.3676 H   0  0  0  0  0  0  0  0  0  0  0  0
   -5.4433   20.6139  -34.2433 H   0  0  0  0  0  0  0  0  0  0  0  0
   -4.8235   19.5695  -32.9665 H   0  0  0  0  0  0  0  0  0  0  0  0
   -6.9680   18.7171  -35.0446 H   0  0  0  0  0  0  0  0  0  0  0  0
   -5.2517   18.3088  -35.2000 H   0  0  0  0  0  0  0  0  0  0  0  0
   -8.2327   17.7776  -33.3821 H   0  0  0  0  0  0  0  0  0  0  0  0
   -7.4209   16.7884  -32.1012 H   0  0  0  0  0  0  0  0  0  0  0  0
   -8.0721   19.0890  -31.2776 H   0  0  0  0  0  0  0  0  0  0  0  0
   -6.3257   18.8176  -31.1791 H   0  0  0  0  0  0  0  0  0  0  0  0
   -4.2650   20.8750  -31.9230 H   0  0  0  0  0  0  0  0  0  0  0  0
   -0.3657   20.3985  -30.8988 H   0  0  0  0  0  0  0  0  0  0  0  0
   -1.9823   19.7738  -30.4071 H   0  0  0  0  0  0  0  0  0  0  0  0
   -0.8650   18.0714  -31.7522 H   0  0  0  0  0  0  0  0  0  0  0  0
   -2.2042   18.7244  -32.7043 H   0  0  0  0  0  0  0  0  0  0  0  0
  1  2  1  0
  2  3  1  0
  3  4  2  0
  4  5  1  0
  5  6  2  0
  6  7  1  0
  7  8  2  0
  6  9  1  0
  9 10  1  0
 10 11  1  0
 11 12  1  0
 12 13  2  0
 13 14  1  0
 14 15  2  0
 14 16  1  0
 16 17  2  0
 17 18  1  0
 18 19  2  0
 19 20  1  0
 20 21  1  0
 21 22  1  0
 22 23  1  0
 23 24  1  0
 24 25  1  0
 19 26  1  0
 26 27  1  0
 10 28  1  0
 28 29  1  0
  7  2  1  0
 27 12  1  0
 29  5  1  0
 26 16  1  0
 25 20  1  0
  1 30  1  0
  1 31  1  0
  1 32  1  0
  4 33  1  0
  9 34  1  0
  9 35  1  0
 11 36  1  0
 11 37  1  0
 17 38  1  0
 20 39  1  0
 21 40  1  0
 21 41  1  0
 22 42  1  0
 22 43  1  0
 24 44  1  0
 24 45  1  0
 25 46  1  0
 25 47  1  0
 27 48  1  0
 28 49  1  0
 28 50  1  0
 29 51  1  0
 29 52  1  0
M  END
>  <smiles>  (9) 
Cn1ncc2c(c1=O)CN(Cc1nc(=O)c3cnc(C4CCOCC4)n3[nH]1)CC2

>  <score_type>  (9) 
oracle

>  <origin>  (9) 
adg

>  <m_score__min__energy>  (9) 
-9.4000000000000004

>  <m_primary>  (9) 
energy

$$$$
11:0
     RDKit          3D

 49 52  0  0  0  0  0  0  0  0999 V2000
   -3.0060   17.2060  -34.5010 C   0  0  0  0  0  0  0  0  0  0  0  0
   -4.1240   17.8860  -35.0250 O   0  0  0  0  0  0  0  0  0  0  0  0
   -5.2940   17.8710  -34.2720 C   0  0  0  0  0  0  0  0  0  0  0  0
   -5.9670   16.6850  -34.0730 C   0  0  0  0  0  0  0  0  0  0  0  0
   -7.1250   16.7530  -33.3030 C   0  0  0  0  0  0  0  0  0  0  0  0
   -7.5850   17.9390  -32.7610 C   0  0  0  0  0  0  0  0  0  0  0  0
   -8.7100   17.9010  -31.9730 C   0  0  0  0  0  0  0  0  0  0  0  0
   -9.1150   19.1060  -31.4020 C   0  0  0  0  0  0  0  0  0  0  0  0
   -8.4190   20.2830  -31.6160 C   0  0  0  0  0  0  0  0  0  0  0  0
   -7.2770   20.3320  -32.4170 C   0  0  0  0  0  0  0  0  0  0  0  0
   -6.6340   21.6160  -32.6170 C   0  0  0  0  0  0  0  0  0  0  0  0
   -5.5450   21.8420  -31.6280 N   0  0  0  0  0  0  0  0  0  0  0  0
   -5.9160   22.5230  -30.4430 C   0  0  0  0  0  0  0  0  0  0  0  0
   -5.2760   23.7970  -30.0440 C   0  0  0  0  0  0  0  0  0  0  0  0
   -3.8080   23.9590  -30.3710 C   0  0  0  0  0  0  0  0  0  0  0  0
   -4.0950   25.3030  -30.8400 N   0  0  0  0  0  0  0  0  0  0  0  0
   -5.4010   24.8470  -31.1960 C   0  0  0  0  0  0  0  0  0  0  0  0
   -4.2960   21.3040  -32.0270 C   0  0  0  0  0  0  0  0  0  0  0  0
   -3.7960   21.6140  -33.3000 C   0  0  0  0  0  0  0  0  0  0  0  0
   -2.5800   21.1000  -33.7500 C   0  0  0  0  0  0  0  0  0  0  0  0
   -1.8030   20.2620  -32.9870 C   0  0  0  0  0  0  0  0  0  0  0  0
   -0.1530   19.5590  -33.5750 Br  0  0  0  0  0  0  0  0  0  0  0  0
   -2.2840   19.9470  -31.7390 C   0  0  0  0  0  0  0  0  0  0  0  0
   -3.5080   20.4670  -31.2900 C   0  0  0  0  0  0  0  0  0  0  0  0
   -6.8950   19.1290  -32.9710 C   0  0  0  0  0  0  0  0  0  0  0  0
   -5.7490   19.0810  -33.7300 C   0  0  0  0  0  0  0  0  0  0  0  0
   -3.0446   17.2295  -33.4019 H   0  0  0  0  0  0  0  0  0  0  0  0
   -3.0172   16.1616  -34.8461 H   0  0  0  0  0  0  0  0  0  0  0  0
   -2.0838   17.6963  -34.8461 H   0  0  0  0  0  0  0  0  0  0  0  0
   -5.6088   15.7363  -34.4993 H   0  0  0  0  0  0  0  0  0  0  0  0
   -7.6945   15.8300  -33.1192 H   0  0  0  0  0  0  0  0  0  0  0  0
   -9.2634   16.9660  -31.8014 H   0  0  0  0  0  0  0  0  0  0  0  0
  -10.0113   19.1221  -30.7645 H   0  0  0  0  0  0  0  0  0  0  0  0
   -8.7768   21.2081  -31.1403 H   0  0  0  0  0  0  0  0  0  0  0  0
   -6.2082   21.6482  -33.6307 H   0  0  0  0  0  0  0  0  0  0  0  0
   -7.3896   22.4042  -32.4837 H   0  0  0  0  0  0  0  0  0  0  0  0
   -6.9924   22.7319  -30.5306 H   0  0  0  0  0  0  0  0  0  0  0  0
   -5.5714   21.8327  -29.6590 H   0  0  0  0  0  0  0  0  0  0  0  0
   -5.6614   23.8659  -29.0160 H   0  0  0  0  0  0  0  0  0  0  0  0
   -3.1407   23.9156  -29.4976 H   0  0  0  0  0  0  0  0  0  0  0  0
   -3.2850   23.2333  -31.0112 H   0  0  0  0  0  0  0  0  0  0  0  0
   -3.4650   25.6670  -31.5560 H   0  0  0  0  0  0  0  0  0  0  0  0
   -6.2002   25.5895  -31.0548 H   0  0  0  0  0  0  0  0  0  0  0  0
   -5.6483   24.5488  -32.2255 H   0  0  0  0  0  0  0  0  0  0  0  0
   -4.3759   22.2775  -33.9584 H   0  0  0  0  0  0  0  0  0  0  0  0
   -2.2292   21.3763  -34.7553 H   0  0  0  0  0  0  0  0  0  0  0  0
   -1.7035   19.2800  -31.0847 H   0  0  0  0  0  0  0  0  0  0  0  0
   -3.8530   20.1834  -30.2847 H   0  0  0  0  0  0  0  0  0  0  0  0
   -5.1815   20.0051  -33.9143 H   0  0  0  0  0  0  0  0  0  0  0  0
  1  2  1  0
  2  3  1  0
  3  4  2  0
  4  5  1  0
  5  6  2  0
  6  7  1  0
  7  8  2  0
  8  9  1  0
  9 10  2  0
 10 11  1  0
 11 12  1  0
 12 13  1  0
 13 14  1  0
 14 15  1  0
 15 16  1  0
 16 17  1  0
 12 18  1  0
 18 19  2  0
 19 20  1  0
 20 21  2  0
 21 22  1  0
 21 23  1  0
 23 24  2  0
 10 25  1  0
 25 26  2  0
 26  3  1  0
 25  6  1  0
 17 14  1  0
 24 18  1  0
  1 27  1  0
  1 28  1  0
  1 29  1  0
  4 30  1  0
  5 31  1  0
  7 32  1  0
  8 33  1  0
  9 34  1  0
 11 35  1  0
 11 36  1  0
 13 37  1  0
 13 38  1  0
 14 39  1  0
 15 40  1  0
 15 41  1  0
 16 42  1  0
 17 43  1  0
 17 44  1  0
 19 45  1  0
 20 46  1  0
 23 47  1  0
 24 48  1  0
 26 49  1  0
M  END
>  <smiles>  (10) 
COc1ccc2cccc(CN(CC3CNC3)c3ccc(Br)cc3)c2c1

>  <score_type>  (10) 
oracle

>  <origin>  (10) 
adg

>  <m_score__min__energy>  (10) 
-9.6799999999999997

>  <m_primary>  (10) 
energy

$$$$
12:0
     RDKit          3D

 44 46  0  0  0  0  0  0  0  0999 V2000
   -1.9040   23.4890  -29.6730 C   0  0  0  0  0  0  0  0  0  0  0  0
   -2.9550   24.4400  -29.7760 N   0  0  0  0  0  0  0  0  0  0  0  0
   -4.0070   24.3430  -28.8610 C   0  0  0  0  0  0  0  0  0  0  0  0
   -5.3540   24.8980  -29.1430 C   0  0  0  0  0  0  0  0  0  0  0  0
   -5.7270   25.3050  -30.5070 C   0  0  0  0  0  0  0  0  0  0  0  0
   -5.2980   24.5520  -31.5840 O   0  0  0  0  0  0  0  0  0  0  0  0
   -5.4910   23.2570  -31.9300 C   0  0  0  0  0  0  0  0  0  0  0  0
   -4.3630   22.5350  -32.3390 C   0  0  0  0  0  0  0  0  0  0  0  0
   -4.4090   21.2260  -32.7120 C   0  0  0  0  0  0  0  0  0  0  0  0
   -5.6060   20.5470  -32.7000 C   0  0  0  0  0  0  0  0  0  0  0  0
   -5.6900   19.2560  -33.0620 N   0  0  0  0  0  0  0  0  0  0  0  0
   -6.8480   18.5690  -33.0590 C   0  0  0  0  0  0  0  0  0  0  0  0
   -6.9350   17.1440  -33.4650 C   0  0  0  0  0  0  0  0  0  0  0  0
   -5.6640   16.5970  -33.8930 N   0  0  0  0  0  0  0  0  0  0  0  0
   -4.9620   15.5620  -33.3450 C   0  0  0  0  0  0  0  0  0  0  0  0
   -3.8320   15.3750  -34.0470 N   0  0  0  0  0  0  0  0  0  0  0  0
   -3.8160   16.2850  -35.0360 C   0  0  0  0  0  0  0  0  0  0  0  0
   -4.9330   17.0240  -34.9350 N   0  0  0  0  0  0  0  0  0  0  0  0
   -7.9970   19.2440  -32.6600 C   0  0  0  0  0  0  0  0  0  0  0  0
   -7.9620   20.5720  -32.2780 C   0  0  0  0  0  0  0  0  0  0  0  0
   -9.1820   21.3190  -31.8470 C   0  0  0  0  0  0  0  0  0  0  0  0
   -6.7300   21.2360  -32.3020 C   0  0  0  0  0  0  0  0  0  0  0  0
   -6.6680   22.5630  -31.9250 C   0  0  0  0  0  0  0  0  0  0  0  0
   -1.6886   23.2941  -28.6121 H   0  0  0  0  0  0  0  0  0  0  0  0
   -2.2076   22.5524  -30.1636 H   0  0  0  0  0  0  0  0  0  0  0  0
   -1.0024   23.8844  -30.1636 H   0  0  0  0  0  0  0  0  0  0  0  0
   -3.2950   24.5680  -30.7390 H   0  0  0  0  0  0  0  0  0  0  0  0
   -4.1510   23.2690  -28.6716 H   0  0  0  0  0  0  0  0  0  0  0  0
   -3.6592   24.9911  -28.0431 H   0  0  0  0  0  0  0  0  0  0  0  0
   -6.0807   24.1324  -28.8335 H   0  0  0  0  0  0  0  0  0  0  0  0
   -5.3464   25.8519  -28.5953 H   0  0  0  0  0  0  0  0  0  0  0  0
   -6.8262   25.3221  -30.5463 H   0  0  0  0  0  0  0  0  0  0  0  0
   -5.2079   26.2656  -30.6407 H   0  0  0  0  0  0  0  0  0  0  0  0
   -3.3916   23.0507  -32.3600 H   0  0  0  0  0  0  0  0  0  0  0  0
   -3.4883   20.7108  -33.0232 H   0  0  0  0  0  0  0  0  0  0  0  0
   -7.2980   16.5573  -32.6082 H   0  0  0  0  0  0  0  0  0  0  0  0
   -7.6217   17.0884  -34.3225 H   0  0  0  0  0  0  0  0  0  0  0  0
   -5.2724   14.9747  -32.4682 H   0  0  0  0  0  0  0  0  0  0  0  0
   -3.0277   16.4035  -35.7939 H   0  0  0  0  0  0  0  0  0  0  0  0
   -8.9573   18.7076  -32.6482 H   0  0  0  0  0  0  0  0  0  0  0  0
   -9.2263   21.3461  -30.7482 H   0  0  0  0  0  0  0  0  0  0  0  0
   -9.1400   22.3464  -32.2377 H   0  0  0  0  0  0  0  0  0  0  0  0
  -10.0780   20.8145  -32.2377 H   0  0  0  0  0  0  0  0  0  0  0  0
   -7.5902   23.0747  -31.6125 H   0  0  0  0  0  0  0  0  0  0  0  0
  1  2  1  0
  2  3  1  0
  3  4  1  0
  4  5  1  0
  5  6  1  0
  6  7  1  0
  7  8  2  0
  8  9  1  0
  9 10  2  0
 10 11  1  0
 11 12  2  0
 12 13  1  0
 13 14  1  0
 14 15  1  0
 15 16  2  0
 16 17  1  0
 17 18  2  0
 12 19  1  0
 19 20  2  0
 20 21  1  0
 20 22  1  0
 22 23  2  0
 23  7  1  0
 22 10  1  0
 18 14  1  0
  1 24  1  0
  1 25  1  0
  1 26  1  0
  2 27  1  0
  3 28  1  0
  3 29  1  0
  4 30  1  0
  4 31  1  0
  5 32  1  0
  5 33  1  0
  8 34  1  0
  9 35  1  0
 13 36  1  0
 13 37  1  0
 15 38  1  0
 17 39  1  0
 19 40  1  0
 21 41  1  0
 21 42  1  0
 21 43  1  0
 23 44  1  0
M  END
>  <smiles>  (11) 
CNCCCOc1ccc2nc(Cn3cncn3)cc(C)c2c1

>  <score_type>  (11) 
oracle

>  <origin>  (11) 
adg

>  <m_score__min__energy>  (11) 
-7.8700000000000001

>  <m_primary>  (11) 
energy

$$$$
13:0
     RDKit          3D

 43 46  0  0  0  0  0  0  0  0999 V2000
   -4.3560   21.7180  -29.9680 C   0  0  0  0  0  0  0  0  0  0  0  0
   -4.3370   23.1210  -30.2980 N   0  0  0  0  0  0  0  0  0  0  0  0
   -5.2390   23.6620  -31.1570 C   0  0  0  0  0  0  0  0  0  0  0  0
   -6.3140   23.0220  -31.9480 C   0  0  0  0  0  0  0  0  0  0  0  0
   -5.9250   21.7280  -32.4740 N   0  0  0  0  0  0  0  0  0  0  0  0
   -4.6210   21.5740  -33.0840 C   0  0  0  0  0  0  0  0  0  0  0  0
   -4.2770   20.1400  -33.3420 C   0  0  0  0  0  0  0  0  0  0  0  0
   -4.9040   19.1960  -32.3490 C   0  0  0  0  0  0  0  0  0  0  0  0
   -6.3820   19.3460  -32.2990 C   0  0  0  0  0  0  0  0  0  0  0  0
   -7.2480   18.2780  -32.1950 C   0  0  0  0  0  0  0  0  0  0  0  0
   -8.6200   18.5100  -32.1630 C   0  0  0  0  0  0  0  0  0  0  0  0
   -9.1160   19.8100  -32.2340 C   0  0  0  0  0  0  0  0  0  0  0  0
   -8.2230   20.8670  -32.3380 C   0  0  0  0  0  0  0  0  0  0  0  0
   -6.8620   20.6460  -32.3700 C   0  0  0  0  0  0  0  0  0  0  0  0
   -5.0100   24.9920  -31.2100 N   0  0  0  0  0  0  0  0  0  0  0  0
   -4.0000   25.2490  -30.4100 N   0  0  0  0  0  0  0  0  0  0  0  0
   -3.5480   24.0900  -29.8190 C   0  0  0  0  0  0  0  0  0  0  0  0
   -2.4810   24.1420  -28.8540 C   0  0  0  0  0  0  0  0  0  0  0  0
   -1.1990   23.8270  -29.3270 C   0  0  0  0  0  0  0  0  0  0  0  0
   -0.0920   23.7860  -28.5150 C   0  0  0  0  0  0  0  0  0  0  0  0
   -0.1930   24.0570  -27.1690 C   0  0  0  0  0  0  0  0  0  0  0  0
   -1.4460   24.3650  -26.6910 C   0  0  0  0  0  0  0  0  0  0  0  0
   -2.5710   24.4060  -27.5180 C   0  0  0  0  0  0  0  0  0  0  0  0
   -4.0870   24.7190  -26.7110 Cl  0  0  0  0  0  0  0  0  0  0  0  0
   -4.3576   21.5985  -28.8745 H   0  0  0  0  0  0  0  0  0  0  0  0
   -5.2605   21.2546  -30.3888 H   0  0  0  0  0  0  0  0  0  0  0  0
   -3.4644   21.2302  -30.3888 H   0  0  0  0  0  0  0  0  0  0  0  0
   -7.1949   22.8895  -31.3027 H   0  0  0  0  0  0  0  0  0  0  0  0
   -6.5327   23.6773  -32.8040 H   0  0  0  0  0  0  0  0  0  0  0  0
   -4.6122   22.1169  -34.0406 H   0  0  0  0  0  0  0  0  0  0  0  0
   -3.8740   21.9773  -32.3845 H   0  0  0  0  0  0  0  0  0  0  0  0
   -4.6267   19.8715  -34.3498 H   0  0  0  0  0  0  0  0  0  0  0  0
   -3.1857   20.0411  -33.2460 H   0  0  0  0  0  0  0  0  0  0  0  0
   -4.6609   18.1628  -32.6380 H   0  0  0  0  0  0  0  0  0  0  0  0
   -4.5032   19.4336  -31.3526 H   0  0  0  0  0  0  0  0  0  0  0  0
   -6.8577   17.2511  -32.1378 H   0  0  0  0  0  0  0  0  0  0  0  0
   -9.3164   17.6625  -32.0812 H   0  0  0  0  0  0  0  0  0  0  0  0
  -10.1999   19.9958  -32.2080 H   0  0  0  0  0  0  0  0  0  0  0  0
   -8.6063   21.8964  -32.3958 H   0  0  0  0  0  0  0  0  0  0  0  0
   -1.0743   23.6026  -30.3966 H   0  0  0  0  0  0  0  0  0  0  0  0
    0.8881   23.5333  -28.9458 H   0  0  0  0  0  0  0  0  0  0  0  0
    0.6855   24.0287  -26.5076 H   0  0  0  0  0  0  0  0  0  0  0  0
   -1.5660   24.5867  -25.6203 H   0  0  0  0  0  0  0  0  0  0  0  0
  1  2  1  0
  2  3  1  0
  3  4  1  0
  4  5  1  0
  5  6  1  0
  6  7  1  0
  7  8  1  0
  8  9  1  0
  9 10  2  0
 10 11  1  0
 11 12  2  0
 12 13  1  0
 13 14  2  0
  3 15  2  0
 15 16  1  0
 16 17  2  0
 17 18  1  0
 18 19  2  0
 19 20  1  0
 20 21  2  0
 21 22  1  0
 22 23  2  0
 23 24  1  0
 17  2  1  0
 23 18  1  0
 14  5  1  0
 14  9  1  0
  1 25  1  0
  1 26  1  0
  1 27  1  0
  4 28  1  0
  4 29  1  0
  6 30  1  0
  6 31  1  0
  7 32  1  0
  7 33  1  0
  8 34  1  0
  8 35  1  0
 10 36  1  0
 11 37  1  0
 12 38  1  0
 13 39  1  0
 19 40  1  0
 20 41  1  0
 21 42  1  0
 22 43  1  0
M  END
>  <smiles>  (12) 
Cn1c(CN2CCCc3ccccc32)nnc1-c1ccccc1Cl

>  <score_type>  (12) 
oracle

>  <origin>  (12) 
adg

>  <m_score__min__energy>  (12) 
-9.6099999999999994

>  <m_primary>  (12) 
energy

$$$$
14:0
     RDKit          3D

 51 54  0  0  1  0  0  0  0  0999 V2000
   -0.9700   18.9240  -32.9230 C   0  0  0  0  0  0  0  0  0  0  0  0
   -2.2190   19.6660  -32.9930 N   0  0  0  0  0  0  0  0  0  0  0  0
   -2.3870   20.9250  -32.5230 C   0  0  0  0  0  0  0  0  0  0  0  0
   -3.7060   21.3310  -32.7510 C   0  0  0  0  0  0  0  0  0  0  0  0
   -4.2460   22.6590  -32.3610 C   0  0  0  0  0  0  0  0  0  0  0  0
   -4.9950   22.5990  -31.1260 N   0  0  0  0  0  0  0  0  0  0  0  0
   -4.1260   22.6920  -29.9640 C   0  0  0  0  0  0  0  0  0  0  0  0
   -4.0090   24.1380  -29.5660 C   0  0  0  0  0  0  0  0  0  0  0  0
   -4.1540   25.0340  -30.6010 O   0  0  0  0  0  0  0  0  0  0  0  0
   -5.3990   24.9920  -31.2230 C   0  0  0  0  0  0  0  0  0  0  0  0
   -6.0110   23.6310  -31.0630 C   0  0  1  0  0  0  0  0  0  0  0  0
   -7.1340   23.3360  -32.0000 C   0  0  0  0  0  0  0  0  0  0  0  0
   -8.2550   22.6740  -31.1970 C   0  0  0  0  0  0  0  0  0  0  0  0
   -8.3570   21.2260  -31.5980 C   0  0  0  0  0  0  0  0  0  0  0  0
   -7.3750   20.3330  -31.2320 C   0  0  0  0  0  0  0  0  0  0  0  0
   -7.4290   18.9820  -31.5810 C   0  0  0  0  0  0  0  0  0  0  0  0
   -8.5180   18.5390  -32.3230 C   0  0  0  0  0  0  0  0  0  0  0  0
   -9.5050   19.4330  -32.6920 C   0  0  0  0  0  0  0  0  0  0  0  0
   -9.4490   20.7830  -32.3420 C   0  0  0  0  0  0  0  0  0  0  0  0
   -4.3350   20.2740  -33.3770 C   0  0  0  0  0  0  0  0  0  0  0  0
   -5.6280   20.1140  -33.8320 C   0  0  0  0  0  0  0  0  0  0  0  0
   -5.9790   18.9100  -34.4360 C   0  0  0  0  0  0  0  0  0  0  0  0
   -5.0470   17.8780  -34.5810 C   0  0  0  0  0  0  0  0  0  0  0  0
   -3.7520   18.0460  -34.1220 C   0  0  0  0  0  0  0  0  0  0  0  0
   -3.4010   19.2440  -33.5220 C   0  0  0  0  0  0  0  0  0  0  0  0
   -0.6980   18.7624  -31.8695 H   0  0  0  0  0  0  0  0  0  0  0  0
   -1.0924   17.9520  -33.4233 H   0  0  0  0  0  0  0  0  0  0  0  0
   -0.1749   19.4964  -33.4233 H   0  0  0  0  0  0  0  0  0  0  0  0
   -1.6087   21.5327  -32.0383 H   0  0  0  0  0  0  0  0  0  0  0  0
   -3.4076   23.3596  -32.2339 H   0  0  0  0  0  0  0  0  0  0  0  0
   -4.9286   22.9943  -33.1557 H   0  0  0  0  0  0  0  0  0  0  0  0
   -4.5551   22.1126  -29.1332 H   0  0  0  0  0  0  0  0  0  0  0  0
   -3.1320   22.2872  -30.2050 H   0  0  0  0  0  0  0  0  0  0  0  0
   -4.7861   24.3510  -28.8172 H   0  0  0  0  0  0  0  0  0  0  0  0
   -2.9875   24.2720  -29.1805 H   0  0  0  0  0  0  0  0  0  0  0  0
   -6.0594   25.7437  -30.7659 H   0  0  0  0  0  0  0  0  0  0  0  0
   -5.2730   25.2059  -32.2946 H   0  0  0  0  0  0  0  0  0  0  0  0
   -6.4687   23.6346  -30.0627 H   0  0  0  0  0  0  0  0  0  0  0  0
   -7.4992   24.2702  -32.4515 H   0  0  0  0  0  0  0  0  0  0  0  0
   -6.7950   22.6690  -32.8063 H   0  0  0  0  0  0  0  0  0  0  0  0
   -8.0298   22.7440  -30.1226 H   0  0  0  0  0  0  0  0  0  0  0  0
   -9.2084   23.1837  -31.4003 H   0  0  0  0  0  0  0  0  0  0  0  0
   -6.5188   20.6962  -30.6447 H   0  0  0  0  0  0  0  0  0  0  0  0
   -6.6319   18.2875  -31.2772 H   0  0  0  0  0  0  0  0  0  0  0  0
   -8.5937   17.4812  -32.6152 H   0  0  0  0  0  0  0  0  0  0  0  0
  -10.3610   19.0696  -33.2795 H   0  0  0  0  0  0  0  0  0  0  0  0
  -10.2454   21.4786  -32.6452 H   0  0  0  0  0  0  0  0  0  0  0  0
   -6.3663   20.9216  -33.7196 H   0  0  0  0  0  0  0  0  0  0  0  0
   -7.0056   18.7683  -34.8049 H   0  0  0  0  0  0  0  0  0  0  0  0
   -5.3428   16.9328  -35.0597 H   0  0  0  0  0  0  0  0  0  0  0  0
   -3.0121   17.2395  -34.2322 H   0  0  0  0  0  0  0  0  0  0  0  0
  1  2  1  0
  2  3  1  0
  3  4  2  0
  4  5  1  0
  5  6  1  0
  6  7  1  0
  7  8  1  0
  8  9  1  0
  9 10  1  0
 10 11  1  0
 11 12  1  0
 12 13  1  0
 13 14  1  0
 14 15  2  0
 15 16  1  0
 16 17  2  0
 17 18  1  0
 18 19  2  0
  4 20  1  0
 20 21  2  0
 21 22  1  0
 22 23  2  0
 23 24  1  0
 24 25  2  0
 25  2  1  0
 11  6  1  0
 19 14  1  0
 25 20  1  0
  1 26  1  0
  1 27  1  0
  1 28  1  0
  3 29  1  0
  5 30  1  0
  5 31  1  0
  7 32  1  0
  7 33  1  0
  8 34  1  0
  8 35  1  0
 10 36  1  0
 10 37  1  0
 11 38  1  1
 12 39  1  0
 12 40  1  0
 13 41  1  0
 13 42  1  0
 15 43  1  0
 16 44  1  0
 17 45  1  0
 18 46  1  0
 19 47  1  0
 21 48  1  0
 22 49  1  0
 23 50  1  0
 24 51  1  0
M  END
>  <smiles>  (13) 
Cn1cc(CN2CCOCC2CCc2ccccc2)c2ccccc21

>  <score_type>  (13) 
oracle

>  <origin>  (13) 
adg

>  <m_score__min__energy>  (13) 
-9.4100000000000001

>  <m_primary>  (13) 
energy

$$$$
15:0
     RDKit          3D

 60 62  0  0  0  0  0  0  0  0999 V2000
   -2.7670   22.0290  -29.2440 C   0  0  0  0  0  0  0  0  0  0  0  0
   -3.9610   22.9560  -29.4240 C   0  0  0  0  0  0  0  0  0  0  0  0
   -3.5000   24.3830  -29.6670 C   0  0  0  0  0  0  0  0  0  0  0  0
   -4.1410   24.9600  -30.8200 N   0  0  0  0  0  0  0  0  0  0  0  0
   -5.3310   25.6770  -30.4700 C   0  0  0  0  0  0  0  0  0  0  0  0
   -6.4940   24.6860  -30.4060 C   0  0  0  0  0  0  0  0  0  0  0  0
   -6.2720   23.6790  -31.2990 O   0  0  0  0  0  0  0  0  0  0  0  0
   -7.2760   23.5240  -32.2770 C   0  0  0  0  0  0  0  0  0  0  0  0
   -8.1450   22.3430  -32.0010 C   0  0  0  0  0  0  0  0  0  0  0  0
   -7.8360   21.3980  -31.1580 O   0  0  0  0  0  0  0  0  0  0  0  0
   -7.8960   20.0690  -31.2230 C   0  0  0  0  0  0  0  0  0  0  0  0
   -8.2550   19.5190  -32.5380 C   0  0  0  0  0  0  0  0  0  0  0  0
   -7.2620   19.6030  -33.5920 N   0  0  0  0  0  0  0  0  0  0  0  0
   -5.9410   19.1280  -33.4840 C   0  0  0  0  0  0  0  0  0  0  0  0
   -5.7290   17.7550  -33.6660 C   0  0  0  0  0  0  0  0  0  0  0  0
   -6.8150   16.9430  -33.9260 C   0  0  0  0  0  0  0  0  0  0  0  0
   -6.6980   15.5730  -34.1210 C   0  0  0  0  0  0  0  0  0  0  0  0
   -5.4380   15.0350  -34.0450 C   0  0  0  0  0  0  0  0  0  0  0  0
   -4.3370   15.8490  -33.7830 C   0  0  0  0  0  0  0  0  0  0  0  0
   -4.4540   17.2100  -33.5880 C   0  0  0  0  0  0  0  0  0  0  0  0
   -3.3600   17.9790  -33.3320 N   0  0  0  0  0  0  0  0  0  0  0  0
   -2.0370   17.3930  -33.2340 C   0  0  0  0  0  0  0  0  0  0  0  0
   -3.5480   19.3070  -33.1530 C   0  0  0  0  0  0  0  0  0  0  0  0
   -2.4990   20.1540  -32.8820 C   0  0  0  0  0  0  0  0  0  0  0  0
   -2.6640   21.5250  -32.6820 C   0  0  0  0  0  0  0  0  0  0  0  0
   -3.9170   22.0820  -32.7530 C   0  0  0  0  0  0  0  0  0  0  0  0
   -4.9690   21.2330  -33.0250 C   0  0  0  0  0  0  0  0  0  0  0  0
   -4.8240   19.8790  -33.2270 C   0  0  0  0  0  0  0  0  0  0  0  0
   -2.5763   21.8809  -28.1708 H   0  0  0  0  0  0  0  0  0  0  0  0
   -2.9818   21.0587  -29.7156 H   0  0  0  0  0  0  0  0  0  0  0  0
   -1.8802   22.4775  -29.7156 H   0  0  0  0  0  0  0  0  0  0  0  0
   -4.5552   22.6167  -30.2853 H   0  0  0  0  0  0  0  0  0  0  0  0
   -4.5694   22.9317  -28.5079 H   0  0  0  0  0  0  0  0  0  0  0  0
   -3.7417   24.9913  -28.7829 H   0  0  0  0  0  0  0  0  0  0  0  0
   -2.4154   24.3669  -29.8495 H   0  0  0  0  0  0  0  0  0  0  0  0
   -4.2320   24.2950  -31.5950 H   0  0  0  0  0  0  0  0  0  0  0  0
   -5.1993   26.1583  -29.4897 H   0  0  0  0  0  0  0  0  0  0  0  0
   -5.5381   26.4529  -31.2217 H   0  0  0  0  0  0  0  0  0  0  0  0
   -6.5669   24.2687  -29.3909 H   0  0  0  0  0  0  0  0  0  0  0  0
   -7.4338   25.2010  -30.6542 H   0  0  0  0  0  0  0  0  0  0  0  0
   -7.9007   24.4293  -32.2918 H   0  0  0  0  0  0  0  0  0  0  0  0
   -6.7840   23.3653  -33.2480 H   0  0  0  0  0  0  0  0  0  0  0  0
   -9.1050   22.7523  -31.6533 H   0  0  0  0  0  0  0  0  0  0  0  0
   -8.0796   21.8036  -32.9574 H   0  0  0  0  0  0  0  0  0  0  0  0
   -6.9088   19.6705  -30.9462 H   0  0  0  0  0  0  0  0  0  0  0  0
   -8.7017   19.7675  -30.5374 H   0  0  0  0  0  0  0  0  0  0  0  0
   -8.4956   18.4551  -32.3958 H   0  0  0  0  0  0  0  0  0  0  0  0
   -9.0882   20.1468  -32.8868 H   0  0  0  0  0  0  0  0  0  0  0  0
   -7.5030   20.0480  -34.5370 H   0  0  0  0  0  0  0  0  0  0  0  0
   -7.8140   17.4001  -33.9809 H   0  0  0  0  0  0  0  0  0  0  0  0
   -7.5778   14.9459  -34.3276 H   0  0  0  0  0  0  0  0  0  0  0  0
   -5.2957   13.9542  -34.1918 H   0  0  0  0  0  0  0  0  0  0  0  0
   -3.3389   15.3897  -33.7298 H   0  0  0  0  0  0  0  0  0  0  0  0
   -1.7666   17.2732  -32.1745 H   0  0  0  0  0  0  0  0  0  0  0  0
   -2.0342   16.4095  -33.7266 H   0  0  0  0  0  0  0  0  0  0  0  0
   -1.3067   18.0518  -33.7266 H   0  0  0  0  0  0  0  0  0  0  0  0
   -1.4851   19.7320  -32.8202 H   0  0  0  0  0  0  0  0  0  0  0  0
   -1.7911   22.1590  -32.4676 H   0  0  0  0  0  0  0  0  0  0  0  0
   -4.0749   23.1597  -32.5994 H   0  0  0  0  0  0  0  0  0  0  0  0
   -5.9804   21.6615  -33.0839 H   0  0  0  0  0  0  0  0  0  0  0  0
  1  2  1  0
  2  3  1  0
  3  4  1  0
  4  5  1  0
  5  6  1  0
  6  7  1  0
  7  8  1  0
  8  9  1  0
  9 10  1  0
 10 11  1  0
 11 12  1  0
 12 13  1  0
 13 14  1  0
 14 15  2  0
 15 16  1  0
 16 17  2  0
 17 18  1  0
 18 19  2  0
 19 20  1  0
 20 21  2  0
 21 22  1  0
 21 23  1  0
 23 24  2  0
 24 25  1  0
 25 26  2  0
 26 27  1  0
 27 28  2  0
 28 14  1  0
 20 15  1  0
 28 23  1  0
  1 29  1  0
  1 30  1  0
  1 31  1  0
  2 32  1  0
  2 33  1  0
  3 34  1  0
  3 35  1  0
  4 36  1  0
  5 37  1  0
  5 38  1  0
  6 39  1  0
  6 40  1  0
  8 41  1  0
  8 42  1  0
  9 43  1  0
  9 44  1  0
 11 45  1  0
 11 46  1  0
 12 47  1  0
 12 48  1  0
 13 49  1  0
 16 50  1  0
 17 51  1  0
 18 52  1  0
 19 53  1  0
 22 54  1  0
 22 55  1  0
 22 56  1  0
 24 57  1  0
 25 58  1  0
 26 59  1  0
 27 60  1  0
M  CHG  1  21   1
M  END
>  <smiles>  (14) 
CCCNCCOCCOCCNc1c2ccccc2[n+](C)c2ccccc12

>  <score_type>  (14) 
oracle

>  <origin>  (14) 
adg

>  <m_score__min__energy>  (14) 
-9.1600000000000001

>  <m_primary>  (14) 
energy

$$$$
16:0
     RDKit          3D

 60 62  0  0  0  0  0  0  0  0999 V2000
   -2.7180   20.2840  -27.6650 C   0  0  0  0  0  0  0  0  0  0  0  0
   -2.6270   20.8500  -29.0920 C   0  0  0  0  0  0  0  0  0  0  0  0
   -3.2460   22.1120  -29.0920 N   0  0  0  0  0  0  0  0  0  0  0  0
   -3.9030   22.3920  -27.8570 C   0  0  0  0  0  0  0  0  0  0  0  0
   -2.6780   23.1990  -29.7760 C   0  0  0  0  0  0  0  0  0  0  0  0
   -3.2610   24.5430  -29.6020 C   0  0  0  0  0  0  0  0  0  0  0  0
   -3.8880   25.1360  -30.6460 O   0  0  0  0  0  0  0  0  0  0  0  0
   -5.2240   25.4490  -30.4770 C   0  0  0  0  0  0  0  0  0  0  0  0
   -5.9180   24.1330  -30.0720 C   0  0  0  0  0  0  0  0  0  0  0  0
   -6.9010   23.7970  -31.1360 C   0  0  0  0  0  0  0  0  0  0  0  0
   -6.4220   23.0490  -32.2480 N   0  0  0  0  0  0  0  0  0  0  0  0
   -6.2400   21.6350  -32.1960 C   0  0  0  0  0  0  0  0  0  0  0  0
   -7.2490   20.7550  -31.8840 C   0  0  0  0  0  0  0  0  0  0  0  0
   -7.0650   19.3690  -31.8720 C   0  0  0  0  0  0  0  0  0  0  0  0
   -5.8500   18.8660  -32.1760 N   0  0  0  0  0  0  0  0  0  0  0  0
   -5.6030   17.4550  -32.1620 C   0  0  0  0  0  0  0  0  0  0  0  0
   -4.8500   19.7140  -32.4830 C   0  0  0  0  0  0  0  0  0  0  0  0
   -3.5700   19.2630  -32.8130 C   0  0  0  0  0  0  0  0  0  0  0  0
   -2.5450   20.1290  -33.1330 C   0  0  0  0  0  0  0  0  0  0  0  0
   -2.7420   21.4890  -33.1410 C   0  0  0  0  0  0  0  0  0  0  0  0
   -3.9950   21.9630  -32.8200 C   0  0  0  0  0  0  0  0  0  0  0  0
   -5.0100   21.0900  -32.5020 C   0  0  0  0  0  0  0  0  0  0  0  0
   -8.2430   18.5540  -31.5400 C   0  0  0  0  0  0  0  0  0  0  0  0
   -9.3970   19.0580  -32.4180 C   0  0  0  0  0  0  0  0  0  0  0  0
   -9.6050   20.5300  -32.3420 C   0  0  0  0  0  0  0  0  0  0  0  0
   -8.5910   21.2430  -31.5020 C   0  0  0  0  0  0  0  0  0  0  0  0
   -2.5869   21.0992  -26.9382 H   0  0  0  0  0  0  0  0  0  0  0  0
   -3.7028   19.8165  -27.5181 H   0  0  0  0  0  0  0  0  0  0  0  0
   -1.9293   19.5314  -27.5181 H   0  0  0  0  0  0  0  0  0  0  0  0
   -1.5725   20.9500  -29.3887 H   0  0  0  0  0  0  0  0  0  0  0  0
   -3.1248   20.1770  -29.8056 H   0  0  0  0  0  0  0  0  0  0  0  0
   -3.2459   22.1120  -27.0204 H   0  0  0  0  0  0  0  0  0  0  0  0
   -4.1327   23.4662  -27.7992 H   0  0  0  0  0  0  0  0  0  0  0  0
   -4.8369   21.8137  -27.7992 H   0  0  0  0  0  0  0  0  0  0  0  0
   -1.6257   23.2620  -29.4618 H   0  0  0  0  0  0  0  0  0  0  0  0
   -2.8647   22.9680  -30.8351 H   0  0  0  0  0  0  0  0  0  0  0  0
   -3.9954   24.4705  -28.7863 H   0  0  0  0  0  0  0  0  0  0  0  0
   -2.3852   25.1850  -29.4267 H   0  0  0  0  0  0  0  0  0  0  0  0
   -5.3431   26.2037  -29.6857 H   0  0  0  0  0  0  0  0  0  0  0  0
   -5.6597   25.8696  -31.3953 H   0  0  0  0  0  0  0  0  0  0  0  0
   -5.1732   23.3285  -29.9818 H   0  0  0  0  0  0  0  0  0  0  0  0
   -6.4229   24.2454  -29.1012 H   0  0  0  0  0  0  0  0  0  0  0  0
   -7.7093   23.2153  -30.6687 H   0  0  0  0  0  0  0  0  0  0  0  0
   -7.2084   24.7661  -31.5559 H   0  0  0  0  0  0  0  0  0  0  0  0
   -6.1750   23.4970  -33.1690 H   0  0  0  0  0  0  0  0  0  0  0  0
   -5.5415   17.1038  -31.1214 H   0  0  0  0  0  0  0  0  0  0  0  0
   -6.4236   16.9340  -32.6769 H   0  0  0  0  0  0  0  0  0  0  0  0
   -4.6542   17.2437  -32.6769 H   0  0  0  0  0  0  0  0  0  0  0  0
   -3.3726   18.1809  -32.8179 H   0  0  0  0  0  0  0  0  0  0  0  0
   -1.5539   19.7244  -33.3859 H   0  0  0  0  0  0  0  0  0  0  0  0
   -1.9237   22.1785  -33.3961 H   0  0  0  0  0  0  0  0  0  0  0  0
   -4.1854   23.0464  -32.8179 H   0  0  0  0  0  0  0  0  0  0  0  0
   -8.0413   17.4937  -31.7526 H   0  0  0  0  0  0  0  0  0  0  0  0
   -8.4937   18.6416  -30.4725 H   0  0  0  0  0  0  0  0  0  0  0  0
   -9.1812   18.7908  -33.4630 H   0  0  0  0  0  0  0  0  0  0  0  0
  -10.3166   18.5828  -32.0459 H   0  0  0  0  0  0  0  0  0  0  0  0
   -9.5595   20.9394  -33.3620 H   0  0  0  0  0  0  0  0  0  0  0  0
  -10.5837   20.6902  -31.8661 H   0  0  0  0  0  0  0  0  0  0  0  0
   -8.6572   22.3268  -31.6783 H   0  0  0  0  0  0  0  0  0  0  0  0
   -8.7766   21.0482  -30.4354 H   0  0  0  0  0  0  0  0  0  0  0  0
  1  2  1  0
  2  3  1  0
  3  4  1  0
  3  5  1  0
  5  6  1  0
  6  7  1  0
  7  8  1  0
  8  9  1  0
  9 10  1  0
 10 11  1  0
 11 12  1  0
 12 13  2  0
 13 14  1  0
 14 15  2  0
 15 16  1  0
 15 17  1  0
 17 18  2  0
 18 19  1  0
 19 20  2  0
 20 21  1  0
 21 22  2  0
 14 23  1  0
 23 24  1  0
 24 25  1  0
 25 26  1  0
 22 12  1  0
 26 13  1  0
 22 17  1  0
  1 27  1  0
  1 28  1  0
  1 29  1  0
  2 30  1  0
  2 31  1  0
  4 32  1  0
  4 33  1  0
  4 34  1  0
  5 35  1  0
  5 36  1  0
  6 37  1  0
  6 38  1  0
  8 39  1  0
  8 40  1  0
  9 41  1  0
  9 42  1  0
 10 43  1  0
 10 44  1  0
 11 45  1  0
 16 46  1  0
 16 47  1  0
 16 48  1  0
 18 49  1  0
 19 50  1  0
 20 51  1  0
 21 52  1  0
 23 53  1  0
 23 54  1  0
 24 55  1  0
 24 56  1  0
 25 57  1  0
 25 58  1  0
 26 59  1  0
 26 60  1  0
M  CHG  1  15   1
M  END
>  <smiles>  (15) 
CCN(C)CCOCCCNc1c2c([n+](C)c3ccccc13)CCCC2

>  <score_type>  (15) 
oracle

>  <origin>  (15) 
adg

>  <m_score__min__energy>  (15) 
-9.2699999999999996

>  <m_primary>  (15) 
energy

$$$$
17:0
     RDKit          3D

 53 56  0  0  0  0  0  0  0  0999 V2000
   -6.4290   24.9560  -30.0790 C   0  0  0  0  0  0  0  0  0  0  0  0
   -5.1210   25.6030  -30.4860 C   0  0  0  0  0  0  0  0  0  0  0  0
   -4.0490   24.6310  -30.5670 N   0  0  0  0  0  0  0  0  0  0  0  0
   -3.2930   24.5580  -29.3330 C   0  0  0  0  0  0  0  0  0  0  0  0
   -3.8810   23.6530  -28.3040 C   0  0  0  0  0  0  0  0  0  0  0  0
   -4.5400   23.3020  -30.8520 C   0  0  0  0  0  0  0  0  0  0  0  0
   -3.6100   22.4780  -31.7060 C   0  0  0  0  0  0  0  0  0  0  0  0
   -4.3730   22.0330  -32.9090 N   0  0  0  0  0  0  0  0  0  0  0  0
   -4.3270   20.6600  -33.1540 C   0  0  0  0  0  0  0  0  0  0  0  0
   -3.0560   20.1970  -33.5710 C   0  0  0  0  0  0  0  0  0  0  0  0
   -2.0150   21.0930  -33.7740 C   0  0  0  0  0  0  0  0  0  0  0  0
   -0.7590   20.7090  -34.1850 C   0  0  0  0  0  0  0  0  0  0  0  0
   -0.5540   19.3660  -34.3970 C   0  0  0  0  0  0  0  0  0  0  0  0
   -1.5810   18.4710  -34.2000 C   0  0  0  0  0  0  0  0  0  0  0  0
   -2.8170   18.8730  -33.7930 C   0  0  0  0  0  0  0  0  0  0  0  0
   -3.7720   17.9680  -33.6220 N   0  0  0  0  0  0  0  0  0  0  0  0
   -3.4850   16.5880  -33.8580 C   0  0  0  0  0  0  0  0  0  0  0  0
   -4.9910   18.3760  -33.2300 C   0  0  0  0  0  0  0  0  0  0  0  0
   -6.0770   17.6260  -33.0160 N   0  0  0  0  0  0  0  0  0  0  0  0
   -7.0550   18.4760  -32.6530 C   0  0  0  0  0  0  0  0  0  0  0  0
   -8.3570   18.1760  -32.3490 C   0  0  0  0  0  0  0  0  0  0  0  0
   -9.2150   19.1890  -32.0230 C   0  0  0  0  0  0  0  0  0  0  0  0
   -8.7460   20.4700  -32.0120 C   0  0  0  0  0  0  0  0  0  0  0  0
   -7.4260   20.7820  -32.3200 C   0  0  0  0  0  0  0  0  0  0  0  0
   -7.0400   22.4700  -32.3340 Cl  0  0  0  0  0  0  0  0  0  0  0  0
   -6.5770   19.7650  -32.6390 C   0  0  0  0  0  0  0  0  0  0  0  0
   -5.2840   19.7240  -32.9920 C   0  0  0  0  0  0  0  0  0  0  0  0
   -6.4958   24.9229  -28.9815 H   0  0  0  0  0  0  0  0  0  0  0  0
   -7.2687   25.5427  -30.4800 H   0  0  0  0  0  0  0  0  0  0  0  0
   -6.4722   23.9326  -30.4800 H   0  0  0  0  0  0  0  0  0  0  0  0
   -5.2482   26.0774  -31.4703 H   0  0  0  0  0  0  0  0  0  0  0  0
   -4.8532   26.3487  -29.7229 H   0  0  0  0  0  0  0  0  0  0  0  0
   -2.2810   24.1980  -29.5701 H   0  0  0  0  0  0  0  0  0  0  0  0
   -3.2975   25.5697  -28.9013 H   0  0  0  0  0  0  0  0  0  0  0  0
   -3.6357   24.0306  -27.3004 H   0  0  0  0  0  0  0  0  0  0  0  0
   -4.9737   23.6197  -28.4263 H   0  0  0  0  0  0  0  0  0  0  0  0
   -3.4674   22.6411  -28.4263 H   0  0  0  0  0  0  0  0  0  0  0  0
   -4.6910   22.7764  -29.8976 H   0  0  0  0  0  0  0  0  0  0  0  0
   -5.4742   23.4215  -31.4203 H   0  0  0  0  0  0  0  0  0  0  0  0
   -2.7466   23.0861  -32.0138 H   0  0  0  0  0  0  0  0  0  0  0  0
   -3.2380   21.6094  -31.1428 H   0  0  0  0  0  0  0  0  0  0  0  0
   -4.8570   22.7460  -33.5180 H   0  0  0  0  0  0  0  0  0  0  0  0
   -2.2034   22.1623  -33.5977 H   0  0  0  0  0  0  0  0  0  0  0  0
    0.0452   21.4439  -34.3372 H   0  0  0  0  0  0  0  0  0  0  0  0
    0.4325   19.0062  -34.7246 H   0  0  0  0  0  0  0  0  0  0  0  0
   -1.3983   17.4007  -34.3763 H   0  0  0  0  0  0  0  0  0  0  0  0
   -3.3765   16.0663  -32.8957 H   0  0  0  0  0  0  0  0  0  0  0  0
   -4.3081   16.1349  -34.4300 H   0  0  0  0  0  0  0  0  0  0  0  0
   -2.5495   16.5007  -34.4300 H   0  0  0  0  0  0  0  0  0  0  0  0
   -6.1640   16.5770  -33.1100 H   0  0  0  0  0  0  0  0  0  0  0  0
   -8.7073   17.1334  -32.3671 H   0  0  0  0  0  0  0  0  0  0  0  0
  -10.2649   18.9751  -31.7740 H   0  0  0  0  0  0  0  0  0  0  0  0
   -9.4364   21.2853  -31.7502 H   0  0  0  0  0  0  0  0  0  0  0  0
  1  2  1  0
  2  3  1  0
  3  4  1  0
  4  5  1  0
  3  6  1  0
  6  7  1  0
  7  8  1  0
  8  9  1  0
  9 10  2  0
 10 11  1  0
 11 12  2  0
 12 13  1  0
 13 14  2  0
 14 15  1  0
 15 16  2  0
 16 17  1  0
 16 18  1  0
 18 19  1  0
 19 20  1  0
 20 21  2  0
 21 22  1  0
 22 23  2  0
 23 24  1  0
 24 25  1  0
 24 26  2  0
 26 27  1  0
 27  9  1  0
 15 10  1  0
 27 18  2  0
 26 20  1  0
  1 28  1  0
  1 29  1  0
  1 30  1  0
  2 31  1  0
  2 32  1  0
  4 33  1  0
  4 34  1  0
  5 35  1  0
  5 36  1  0
  5 37  1  0
  6 38  1  0
  6 39  1  0
  7 40  1  0
  7 41  1  0
  8 42  1  0
 11 43  1  0
 12 44  1  0
 13 45  1  0
 14 46  1  0
 17 47  1  0
 17 48  1  0
 17 49  1  0
 19 50  1  0
 21 51  1  0
 22 52  1  0
 23 53  1  0
M  CHG  1  16   1
M  END
>  <smiles>  (16) 
CCN(CC)CCNc1c2ccccc2[n+](C)c2[nH]c3cccc(Cl)c3c12

>  <score_type>  (16) 
oracle

>  <origin>  (16) 
adg

>  <m_score__min__energy>  (16) 
-9.3800000000000008

>  <m_primary>  (16) 
energy

$$$$
18:0
     RDKit          3D

 27 30  0  0  0  0  0  0  0  0999 V2000
   -1.6410   24.6730  -26.2790 C   0  0  0  0  0  0  0  0  0  0  0  0
   -0.6720   25.4500  -26.7890 C   0  0  0  0  0  0  0  0  0  0  0  0
   -1.2260   25.6680  -28.5800 S   0  0  0  0  0  0  0  0  0  0  0  0
   -2.6420   24.7040  -28.3710 C   0  0  0  0  0  0  0  0  0  0  0  0
   -3.6190   24.4240  -29.4410 C   0  0  0  0  0  0  0  0  0  0  0  0
   -3.9000   25.2030  -30.4800 N   0  0  0  0  0  0  0  0  0  0  0  0
   -4.8420   24.5890  -31.2170 N   0  0  0  0  0  0  0  0  0  0  0  0
   -5.1250   23.4280  -30.6080 C   0  0  0  0  0  0  0  0  0  0  0  0
   -6.1060   22.4570  -31.0920 C   0  0  0  0  0  0  0  0  0  0  0  0
   -5.9260   21.1180  -31.4620 C   0  0  0  0  0  0  0  0  0  0  0  0
   -7.0200   20.4680  -31.8730 C   0  0  0  0  0  0  0  0  0  0  0  0
   -7.0830   19.1120  -32.2950 C   0  0  0  0  0  0  0  0  0  0  0  0
   -8.2760   18.5760  -32.6900 C   0  0  0  0  0  0  0  0  0  0  0  0
   -9.4740   19.2520  -32.7200 C   0  0  0  0  0  0  0  0  0  0  0  0
   -9.4120   20.5900  -32.3040 C   0  0  0  0  0  0  0  0  0  0  0  0
   -8.2060   21.1230  -31.9070 C   0  0  0  0  0  0  0  0  0  0  0  0
   -7.8640   22.7720  -31.3410 S   0  0  0  0  0  0  0  0  0  0  0  0
   -4.3840   23.3650  -29.5630 O   0  0  0  0  0  0  0  0  0  0  0  0
   -2.6510   24.2880  -27.0790 C   0  0  0  0  0  0  0  0  0  0  0  0
   -1.6093   24.3571  -25.2258 H   0  0  0  0  0  0  0  0  0  0  0  0
    0.2195   25.8567  -26.2892 H   0  0  0  0  0  0  0  0  0  0  0  0
   -4.9415   20.6294  -31.4171 H   0  0  0  0  0  0  0  0  0  0  0  0
   -6.1723   18.4950  -32.3035 H   0  0  0  0  0  0  0  0  0  0  0  0
   -8.2790   17.5231  -33.0085 H   0  0  0  0  0  0  0  0  0  0  0  0
  -10.4115   18.7779  -33.0463 H   0  0  0  0  0  0  0  0  0  0  0  0
  -10.3209   21.2096  -32.2949 H   0  0  0  0  0  0  0  0  0  0  0  0
   -3.4633   23.6525  -26.6964 H   0  0  0  0  0  0  0  0  0  0  0  0
  1  2  2  0
  2  3  1  0
  3  4  1  0
  4  5  1  0
  5  6  2  0
  6  7  1  0
  7  8  2  0
  8  9  1  0
  9 10  2  0
 10 11  1  0
 11 12  2  0
 12 13  1  0
 13 14  2  0
 14 15  1  0
 15 16  2  0
 16 17  1  0
  8 18  1  0
  4 19  2  0
 19  1  1  0
 18  5  1  0
 17  9  1  0
 16 11  1  0
  1 20  1  0
  2 21  1  0
 10 22  1  0
 12 23  1  0
 13 24  1  0
 14 25  1  0
 15 26  1  0
 19 27  1  0
M  END
>  <smiles>  (17) 
c1csc(-c2nnc(-c3cc4ccccc4s3)o2)c1

>  <score_type>  (17) 
oracle

>  <origin>  (17) 
adg

>  <m_score__min__energy>  (17) 
-8.2300000000000004

>  <m_primary>  (17) 
energy

$$$$
19:0
     RDKit          3D

 58 60  0  0  0  0  0  0  0  0999 V2000
    1.7620   24.8890  -35.4480 C   0  0  0  0  0  0  0  0  0  0  0  0
    0.5450   24.3310  -36.1670 C   0  0  0  0  0  0  0  0  0  0  0  0
    0.1520   23.0690  -35.7350 N   0  0  0  0  0  0  0  0  0  0  0  0
    0.9700   21.9780  -35.5520 C   0  0  0  0  0  0  0  0  0  0  0  0
    0.4010   20.6090  -35.4400 C   0  0  0  0  0  0  0  0  0  0  0  0
   -0.8060   20.4150  -34.6250 C   0  0  0  0  0  0  0  0  0  0  0  0
   -1.2480   21.5750  -33.8670 N   0  0  0  0  0  0  0  0  0  0  0  0
   -1.9340   21.2260  -32.6710 C   0  0  0  0  0  0  0  0  0  0  0  0
   -3.2300   21.8710  -32.4040 C   0  0  0  0  0  0  0  0  0  0  0  0
   -4.2960   21.7080  -33.3390 N   0  0  0  0  0  0  0  0  0  0  0  0
   -5.4230   20.9020  -33.0740 C   0  0  0  0  0  0  0  0  0  0  0  0
   -6.4780   21.5350  -32.4140 C   0  0  0  0  0  0  0  0  0  0  0  0
   -7.6500   20.8350  -32.0900 C   0  0  0  0  0  0  0  0  0  0  0  0
   -7.8020   19.5350  -32.4030 N   0  0  0  0  0  0  0  0  0  0  0  0
   -8.9850   18.7980  -32.1030 C   0  0  0  0  0  0  0  0  0  0  0  0
   -6.7840   18.9110  -33.0410 C   0  0  0  0  0  0  0  0  0  0  0  0
   -6.8670   17.5530  -33.3830 C   0  0  0  0  0  0  0  0  0  0  0  0
   -5.8290   16.9020  -34.0220 C   0  0  0  0  0  0  0  0  0  0  0  0
   -4.6700   17.5740  -34.3480 C   0  0  0  0  0  0  0  0  0  0  0  0
   -4.6040   18.9020  -34.0080 C   0  0  0  0  0  0  0  0  0  0  0  0
   -5.6040   19.5860  -33.3750 C   0  0  0  0  0  0  0  0  0  0  0  0
   -8.6810   21.6360  -31.3830 C   0  0  0  0  0  0  0  0  0  0  0  0
   -7.9460   22.3120  -30.2140 C   0  0  0  0  0  0  0  0  0  0  0  0
   -6.9670   23.3090  -30.7240 C   0  0  0  0  0  0  0  0  0  0  0  0
   -6.3610   22.9920  -32.0470 C   0  0  0  0  0  0  0  0  0  0  0  0
    1.6096   24.8191  -34.3609 H   0  0  0  0  0  0  0  0  0  0  0  0
    2.6530   24.3095  -35.7314 H   0  0  0  0  0  0  0  0  0  0  0  0
    1.9043   25.9423  -35.7314 H   0  0  0  0  0  0  0  0  0  0  0  0
   -0.2945   25.0247  -36.0120 H   0  0  0  0  0  0  0  0  0  0  0  0
    0.8254   24.2276  -37.2256 H   0  0  0  0  0  0  0  0  0  0  0  0
   -0.8050   23.0410  -35.2880 H   0  0  0  0  0  0  0  0  0  0  0  0
    1.6643   21.9601  -36.4050 H   0  0  0  0  0  0  0  0  0  0  0  0
    1.3867   22.1515  -34.5489 H   0  0  0  0  0  0  0  0  0  0  0  0
    0.1617   20.2726  -36.4596 H   0  0  0  0  0  0  0  0  0  0  0  0
    1.1776   20.0376  -34.9105 H   0  0  0  0  0  0  0  0  0  0  0  0
   -1.6243   20.1191  -35.2979 H   0  0  0  0  0  0  0  0  0  0  0  0
   -0.5442   19.6508  -33.8784 H   0  0  0  0  0  0  0  0  0  0  0  0
   -1.7480   22.1610  -34.5440 H   0  0  0  0  0  0  0  0  0  0  0  0
   -2.1087   20.1403  -32.6991 H   0  0  0  0  0  0  0  0  0  0  0  0
   -1.2778   21.5835  -31.8638 H   0  0  0  0  0  0  0  0  0  0  0  0
   -3.5880   21.4847  -31.4383 H   0  0  0  0  0  0  0  0  0  0  0  0
   -3.0016   22.9459  -32.4533 H   0  0  0  0  0  0  0  0  0  0  0  0
   -4.2530   22.2070  -34.2740 H   0  0  0  0  0  0  0  0  0  0  0  0
   -9.1040   18.7239  -31.0120 H   0  0  0  0  0  0  0  0  0  0  0  0
   -9.8568   19.3131  -32.5328 H   0  0  0  0  0  0  0  0  0  0  0  0
   -8.9069   17.7884  -32.5328 H   0  0  0  0  0  0  0  0  0  0  0  0
   -7.7809   16.9926  -33.1364 H   0  0  0  0  0  0  0  0  0  0  0  0
   -5.9285   15.8357  -34.2734 H   0  0  0  0  0  0  0  0  0  0  0  0
   -3.8362   17.0687  -34.8574 H   0  0  0  0  0  0  0  0  0  0  0  0
   -3.6859   19.4522  -34.2616 H   0  0  0  0  0  0  0  0  0  0  0  0
   -9.1089   22.3927  -32.0571 H   0  0  0  0  0  0  0  0  0  0  0  0
   -9.5151   21.0099  -31.0332 H   0  0  0  0  0  0  0  0  0  0  0  0
   -8.6791   22.8203  -29.5704 H   0  0  0  0  0  0  0  0  0  0  0  0
   -7.4069   21.5442  -29.6397 H   0  0  0  0  0  0  0  0  0  0  0  0
   -7.4824   24.2769  -30.8103 H   0  0  0  0  0  0  0  0  0  0  0  0
   -6.1358   23.3127  -30.0036 H   0  0  0  0  0  0  0  0  0  0  0  0
   -6.8696   23.5896  -32.8178 H   0  0  0  0  0  0  0  0  0  0  0  0
   -5.2890   23.2305  -31.9837 H   0  0  0  0  0  0  0  0  0  0  0  0
  1  2  1  0
  2  3  1  0
  3  4  1  0
  4  5  1  0
  5  6  1  0
  6  7  1  0
  7  8  1  0
  8  9  1  0
  9 10  1  0
 10 11  1  0
 11 12  2  0
 12 13  1  0
 13 14  2  0
 14 15  1  0
 14 16  1  0
 16 17  2  0
 17 18  1  0
 18 19  2  0
 19 20  1  0
 20 21  2  0
 13 22  1  0
 22 23  1  0
 23 24  1  0
 24 25  1  0
 21 11  1  0
 25 12  1  0
 21 16  1  0
  1 26  1  0
  1 27  1  0
  1 28  1  0
  2 29  1  0
  2 30  1  0
  3 31  1  0
  4 32  1  0
  4 33  1  0
  5 34  1  0
  5 35  1  0
  6 36  1  0
  6 37  1  0
  7 38  1  0
  8 39  1  0
  8 40  1  0
  9 41  1  0
  9 42  1  0
 10 43  1  0
 15 44  1  0
 15 45  1  0
 15 46  1  0
 17 47  1  0
 18 48  1  0
 19 49  1  0
 20 50  1  0
 22 51  1  0
 22 52  1  0
 23 53  1  0
 23 54  1  0
 24 55  1  0
 24 56  1  0
 25 57  1  0
 25 58  1  0
M  CHG  1  14   1
M  END
>  <smiles>  (18) 
CCNCCCNCCNc1c2c([n+](C)c3ccccc13)CCCC2

>  <score_type>  (18) 
oracle

>  <origin>  (18) 
adg

>  <m_score__min__energy>  (18) 
-9.5999999999999996

>  <m_primary>  (18) 
energy

$$$$
20:0
     RDKit          3D

 36 39  0  0  0  0  0  0  0  0999 V2000
   -2.1250   19.1620  -26.7810 C   0  0  0  0  0  0  0  0  0  0  0  0
   -1.5440   20.4960  -26.6960 N   0  0  0  0  0  0  0  0  0  0  0  0
   -1.2410   21.1030  -25.5650 N   0  0  0  0  0  0  0  0  0  0  0  0
   -0.7210   22.3240  -25.8070 C   0  0  0  0  0  0  0  0  0  0  0  0
   -0.7170   22.4460  -27.1800 C   0  0  0  0  0  0  0  0  0  0  0  0
   -1.2430   21.2810  -27.7460 C   0  0  0  0  0  0  0  0  0  0  0  0
   -1.3500   21.1590  -29.2280 C   0  0  0  0  0  0  0  0  0  0  0  0
   -1.6030   22.4670  -29.8980 C   0  0  0  0  0  0  0  0  0  0  0  0
   -1.2990   23.6340  -29.1430 N   0  0  0  0  0  0  0  0  0  0  0  0
   -2.4180   24.3810  -28.6610 C   0  0  0  0  0  0  0  0  0  0  0  0
   -3.5440   24.3480  -29.6350 C   0  0  0  0  0  0  0  0  0  0  0  0
   -4.4580   23.3540  -29.8060 N   0  0  0  0  0  0  0  0  0  0  0  0
   -5.3080   23.7090  -30.7850 C   0  0  0  0  0  0  0  0  0  0  0  0
   -6.4660   22.9130  -31.2990 C   0  0  0  0  0  0  0  0  0  0  0  0
   -7.6770   23.4190  -31.4500 C   0  0  0  0  0  0  0  0  0  0  0  0
   -8.6840   22.5750  -31.9410 C   0  0  0  0  0  0  0  0  0  0  0  0
   -7.8750   20.9770  -32.2040 S   0  0  0  0  0  0  0  0  0  0  0  0
   -6.2470   21.5810  -31.6310 C   0  0  0  0  0  0  0  0  0  0  0  0
   -4.9110   24.9210  -31.2110 N   0  0  0  0  0  0  0  0  0  0  0  0
   -3.8590   25.2860  -30.5140 O   0  0  0  0  0  0  0  0  0  0  0  0
   -0.2970   23.4990  -28.1350 C   0  0  0  0  0  0  0  0  0  0  0  0
   -2.2953   18.7710  -25.7671 H   0  0  0  0  0  0  0  0  0  0  0  0
   -3.0825   19.2128  -27.3200 H   0  0  0  0  0  0  0  0  0  0  0  0
   -1.4357   18.4955  -27.3200 H   0  0  0  0  0  0  0  0  0  0  0  0
   -0.3751   23.0623  -25.0686 H   0  0  0  0  0  0  0  0  0  0  0  0
   -0.4087   20.7418  -29.6153 H   0  0  0  0  0  0  0  0  0  0  0  0
   -2.2064   20.5039  -29.4457 H   0  0  0  0  0  0  0  0  0  0  0  0
   -0.9977   22.4953  -30.8161 H   0  0  0  0  0  0  0  0  0  0  0  0
   -2.6893   22.5033  -30.0671 H   0  0  0  0  0  0  0  0  0  0  0  0
   -2.7550   23.9484  -27.7074 H   0  0  0  0  0  0  0  0  0  0  0  0
   -2.1065   25.4268  -28.5223 H   0  0  0  0  0  0  0  0  0  0  0  0
   -7.8888   24.4687  -31.1987 H   0  0  0  0  0  0  0  0  0  0  0  0
   -9.7380   22.8293  -32.1263 H   0  0  0  0  0  0  0  0  0  0  0  0
   -5.3052   21.0167  -31.5640 H   0  0  0  0  0  0  0  0  0  0  0  0
    0.6590   23.2162  -28.5999 H   0  0  0  0  0  0  0  0  0  0  0  0
   -0.1699   24.4544  -27.6049 H   0  0  0  0  0  0  0  0  0  0  0  0
  1  2  1  0
  2  3  1  0
  3  4  2  0
  4  5  1  0
  5  6  2  0
  6  7  1  0
  7  8  1  0
  8  9  1  0
  9 10  1  0
 10 11  1  0
 11 12  2  0
 12 13  1  0
 13 14  1  0
 14 15  1  0
 15 16  2  0
 16 17  1  0
 17 18  1  0
 13 19  2  0
 19 20  1  0
  9 21  1  0
  6  2  1  0
 20 11  1  0
 21  5  1  0
 18 14  2  0
  1 22  1  0
  1 23  1  0
  1 24  1  0
  4 25  1  0
  7 26  1  0
  7 27  1  0
  8 28  1  0
  8 29  1  0
 10 30  1  0
 10 31  1  0
 15 32  1  0
 16 33  1  0
 18 34  1  0
 21 35  1  0
 21 36  1  0
M  END
>  <smiles>  (19) 
Cn1ncc2c1CCN(Cc1nc(-c3ccsc3)no1)C2

>  <score_type>  (19) 
oracle

>  <origin>  (19) 
adg

>  <m_score__min__energy>  (19) 
-8.0299999999999994

>  <m_primary>  (19) 
energy

$$$$
21:0
     RDKit          3D

 49 51  0  0  1  0  0  0  0  0999 V2000
   -3.8380   23.7950  -28.4500 C   0  0  0  0  0  0  0  0  0  0  0  0
   -2.9740   23.6960  -29.6950 C   0  0  1  0  0  0  0  0  0  0  0  0
   -2.0570   22.5310  -29.6710 C   0  0  0  0  0  0  0  0  0  0  0  0
   -1.9040   21.9650  -31.0540 C   0  0  0  0  0  0  0  0  0  0  0  0
   -2.3700   20.5670  -31.2470 C   0  0  0  0  0  0  0  0  0  0  0  0
   -3.1020   20.3710  -32.4850 N   0  0  0  0  0  0  0  0  0  0  0  0
   -3.0230   21.5240  -33.3540 C   0  0  0  0  0  0  0  0  0  0  0  0
   -2.7770   19.1430  -33.1600 C   0  0  0  0  0  0  0  0  0  0  0  0
   -3.7730   23.8620  -30.8720 N   0  0  0  0  0  0  0  0  0  0  0  0
   -4.9760   23.5320  -31.0660 C   0  0  0  0  0  0  0  0  0  0  0  0
   -5.9340   24.4680  -30.9860 N   0  0  0  0  0  0  0  0  0  0  0  0
   -7.2110   24.1160  -31.1950 C   0  0  0  0  0  0  0  0  0  0  0  0
   -7.5810   22.7950  -31.4970 C   0  0  0  0  0  0  0  0  0  0  0  0
   -6.5690   21.8810  -31.5670 C   0  0  0  0  0  0  0  0  0  0  0  0
   -5.3100   22.2390  -31.3590 N   0  0  0  0  0  0  0  0  0  0  0  0
   -6.9300   20.5080  -31.8810 C   0  0  0  0  0  0  0  0  0  0  0  0
   -5.9520   19.5420  -31.9710 C   0  0  0  0  0  0  0  0  0  0  0  0
   -6.2970   18.2350  -32.2750 C   0  0  0  0  0  0  0  0  0  0  0  0
   -7.6210   17.9140  -32.4860 C   0  0  0  0  0  0  0  0  0  0  0  0
   -8.5630   18.9080  -32.3870 C   0  0  0  0  0  0  0  0  0  0  0  0
   -8.2580   20.2330  -32.0820 C   0  0  0  0  0  0  0  0  0  0  0  0
   -9.3820   21.1590  -32.0130 C   0  0  0  0  0  0  0  0  0  0  0  0
   -9.0120   22.5580  -31.7050 C   0  0  0  0  0  0  0  0  0  0  0  0
   -3.2019   23.7221  -27.5555 H   0  0  0  0  0  0  0  0  0  0  0  0
   -4.3667   24.7596  -28.4463 H   0  0  0  0  0  0  0  0  0  0  0  0
   -4.5712   22.9750  -28.4463 H   0  0  0  0  0  0  0  0  0  0  0  0
   -2.2662   24.5378  -29.7148 H   0  0  0  0  0  0  0  0  0  0  0  0
   -1.0728   22.8505  -29.2978 H   0  0  0  0  0  0  0  0  0  0  0  0
   -2.4752   21.7576  -29.0100 H   0  0  0  0  0  0  0  0  0  0  0  0
   -2.4724   22.6063  -31.7437 H   0  0  0  0  0  0  0  0  0  0  0  0
   -0.8208   21.9428  -31.2444 H   0  0  0  0  0  0  0  0  0  0  0  0
   -1.4923   19.9040  -31.2518 H   0  0  0  0  0  0  0  0  0  0  0  0
   -3.0593   20.3367  -30.4213 H   0  0  0  0  0  0  0  0  0  0  0  0
   -2.9604   22.4382  -32.7455 H   0  0  0  0  0  0  0  0  0  0  0  0
   -2.1282   21.4441  -33.9888 H   0  0  0  0  0  0  0  0  0  0  0  0
   -3.9203   21.5669  -33.9888 H   0  0  0  0  0  0  0  0  0  0  0  0
   -2.5697   18.3595  -32.4162 H   0  0  0  0  0  0  0  0  0  0  0  0
   -3.6247   18.8354  -33.7900 H   0  0  0  0  0  0  0  0  0  0  0  0
   -1.8882   19.2950  -33.7900 H   0  0  0  0  0  0  0  0  0  0  0  0
   -7.9935   24.8861  -31.1278 H   0  0  0  0  0  0  0  0  0  0  0  0
   -4.5080   21.5850  -31.3990 H   0  0  0  0  0  0  0  0  0  0  0  0
   -4.8982   19.8080  -31.8017 H   0  0  0  0  0  0  0  0  0  0  0  0
   -5.5204   17.4594  -32.3474 H   0  0  0  0  0  0  0  0  0  0  0  0
   -7.9167   16.8827  -32.7287 H   0  0  0  0  0  0  0  0  0  0  0  0
   -9.6170   18.6437  -32.5580 H   0  0  0  0  0  0  0  0  0  0  0  0
   -9.8964   21.1467  -32.9852 H   0  0  0  0  0  0  0  0  0  0  0  0
  -10.0172   20.8156  -31.1832 H   0  0  0  0  0  0  0  0  0  0  0  0
   -9.3430   23.1895  -32.5426 H   0  0  0  0  0  0  0  0  0  0  0  0
   -9.5027   22.7998  -30.7507 H   0  0  0  0  0  0  0  0  0  0  0  0
  1  2  1  0
  2  3  1  0
  3  4  1  0
  4  5  1  0
  5  6  1  0
  6  7  1  0
  6  8  1  0
  2  9  1  0
  9 10  2  0
 10 11  1  0
 11 12  2  0
 12 13  1  0
 13 14  2  0
 14 15  1  0
 14 16  1  0
 16 17  2  0
 17 18  1  0
 18 19  2  0
 19 20  1  0
 20 21  2  0
 21 22  1  0
 22 23  1  0
 15 10  1  0
 21 16  1  0
 23 13  1  0
  1 24  1  0
  1 25  1  0
  1 26  1  0
  2 27  1  1
  3 28  1  0
  3 29  1  0
  4 30  1  0
  4 31  1  0
  5 32  1  0
  5 33  1  0
  7 34  1  0
  7 35  1  0
  7 36  1  0
  8 37  1  0
  8 38  1  0
  8 39  1  0
 12 40  1  0
 15 41  1  0
 17 42  1  0
 18 43  1  0
 19 44  1  0
 20 45  1  0
 22 46  1  0
 22 47  1  0
 23 48  1  0
 23 49  1  0
M  END
>  <smiles>  (20) 
CC(CCCN(C)C)N=c1ncc2c([nH]1)-c1ccccc1CC2

>  <score_type>  (20) 
oracle

>  <origin>  (20) 
adg

>  <m_score__min__energy>  (20) 
-8.8100000000000005

>  <m_primary>  (20) 
energy

$$$$
22:0
     RDKit          3D

 69 71  0  0  0  0  0  0  0  0999 V2000
    0.1740   24.3610  -26.3180 C   0  0  0  0  0  0  0  0  0  0  0  0
    0.8090   24.1330  -27.6710 C   0  0  0  0  0  0  0  0  0  0  0  0
   -0.1600   24.2440  -28.6850 N   0  0  0  0  0  0  0  0  0  0  0  0
   -0.5010   23.0610  -29.3810 C   0  0  0  0  0  0  0  0  0  0  0  0
   -0.5530   21.8000  -28.5550 C   0  0  0  0  0  0  0  0  0  0  0  0
   -1.2190   25.1560  -28.4630 C   0  0  0  0  0  0  0  0  0  0  0  0
   -2.6140   24.5920  -28.5970 C   0  0  0  0  0  0  0  0  0  0  0  0
   -3.1750   25.2170  -29.7060 O   0  0  0  0  0  0  0  0  0  0  0  0
   -4.3980   24.7390  -30.0880 C   0  0  0  0  0  0  0  0  0  0  0  0
   -4.7600   23.3870  -29.5220 C   0  0  0  0  0  0  0  0  0  0  0  0
   -4.0340   22.2790  -30.2220 C   0  0  0  0  0  0  0  0  0  0  0  0
   -3.4760   22.6600  -31.5700 C   0  0  0  0  0  0  0  0  0  0  0  0
   -3.4160   21.4330  -32.4440 C   0  0  0  0  0  0  0  0  0  0  0  0
   -4.5300   21.4130  -33.4030 N   0  0  0  0  0  0  0  0  0  0  0  0
   -5.6910   20.7330  -33.0160 C   0  0  0  0  0  0  0  0  0  0  0  0
   -5.7040   19.3540  -33.1240 C   0  0  0  0  0  0  0  0  0  0  0  0
   -6.8250   18.6020  -32.7590 C   0  0  0  0  0  0  0  0  0  0  0  0
   -7.9460   19.2040  -32.2790 N   0  0  0  0  0  0  0  0  0  0  0  0
   -9.0630   18.3970  -31.9070 C   0  0  0  0  0  0  0  0  0  0  0  0
   -7.9180   20.5440  -32.1800 C   0  0  0  0  0  0  0  0  0  0  0  0
   -9.0300   21.2270  -31.7010 C   0  0  0  0  0  0  0  0  0  0  0  0
   -9.0300   22.6090  -31.5900 C   0  0  0  0  0  0  0  0  0  0  0  0
   -7.9370   23.3690  -31.9450 C   0  0  0  0  0  0  0  0  0  0  0  0
   -6.8320   22.6960  -32.4200 C   0  0  0  0  0  0  0  0  0  0  0  0
   -6.8350   21.3210  -32.5300 C   0  0  0  0  0  0  0  0  0  0  0  0
   -6.7040   17.1360  -32.9350 C   0  0  0  0  0  0  0  0  0  0  0  0
   -6.1960   16.8920  -34.3440 C   0  0  0  0  0  0  0  0  0  0  0  0
   -4.9730   17.6600  -34.7040 C   0  0  0  0  0  0  0  0  0  0  0  0
   -4.5150   18.6160  -33.6370 C   0  0  0  0  0  0  0  0  0  0  0  0
    0.8935   24.1027  -25.5271 H   0  0  0  0  0  0  0  0  0  0  0  0
   -0.1132   25.4184  -26.2213 H   0  0  0  0  0  0  0  0  0  0  0  0
   -0.7203   23.7278  -26.2213 H   0  0  0  0  0  0  0  0  0  0  0  0
    1.5951   24.8847  -27.8352 H   0  0  0  0  0  0  0  0  0  0  0  0
    1.2448   23.1234  -27.6985 H   0  0  0  0  0  0  0  0  0  0  0  0
   -1.4935   23.2096  -29.8313 H   0  0  0  0  0  0  0  0  0  0  0  0
    0.3058   22.9038  -30.1120 H   0  0  0  0  0  0  0  0  0  0  0  0
   -0.5422   22.0609  -27.4864 H   0  0  0  0  0  0  0  0  0  0  0  0
   -1.4747   21.2467  -28.7881 H   0  0  0  0  0  0  0  0  0  0  0  0
    0.3200   21.1727  -28.7881 H   0  0  0  0  0  0  0  0  0  0  0  0
   -1.1129   25.5540  -27.4430 H   0  0  0  0  0  0  0  0  0  0  0  0
   -1.1279   25.9161  -29.2529 H   0  0  0  0  0  0  0  0  0  0  0  0
   -2.5731   23.5037  -28.7515 H   0  0  0  0  0  0  0  0  0  0  0  0
   -3.2097   24.7702  -27.6896 H   0  0  0  0  0  0  0  0  0  0  0  0
   -5.1626   25.4604  -29.7640 H   0  0  0  0  0  0  0  0  0  0  0  0
   -4.3513   24.6127  -31.1797 H   0  0  0  0  0  0  0  0  0  0  0  0
   -4.4973   23.3660  -28.4540 H   0  0  0  0  0  0  0  0  0  0  0  0
   -5.8396   23.2335  -29.6663 H   0  0  0  0  0  0  0  0  0  0  0  0
   -3.1997   21.9552  -29.5824 H   0  0  0  0  0  0  0  0  0  0  0  0
   -4.7703   21.4811  -30.3989 H   0  0  0  0  0  0  0  0  0  0  0  0
   -4.1260   23.4141  -32.0379 H   0  0  0  0  0  0  0  0  0  0  0  0
   -2.4658   23.0779  -31.4482 H   0  0  0  0  0  0  0  0  0  0  0  0
   -2.4653   21.4318  -32.9973 H   0  0  0  0  0  0  0  0  0  0  0  0
   -3.4903   20.5425  -31.8026 H   0  0  0  0  0  0  0  0  0  0  0  0
   -4.4580   21.8840  -34.3350 H   0  0  0  0  0  0  0  0  0  0  0  0
   -9.1308   18.3480  -30.8102 H   0  0  0  0  0  0  0  0  0  0  0  0
   -9.9855   18.8386  -32.3121 H   0  0  0  0  0  0  0  0  0  0  0  0
   -8.9335   17.3825  -32.3121 H   0  0  0  0  0  0  0  0  0  0  0  0
   -9.9256   20.6611  -31.4049 H   0  0  0  0  0  0  0  0  0  0  0  0
   -9.9293   23.1137  -31.2072 H   0  0  0  0  0  0  0  0  0  0  0  0
   -7.9459   24.4651  -31.8533 H   0  0  0  0  0  0  0  0  0  0  0  0
   -5.9364   23.2625  -32.7151 H   0  0  0  0  0  0  0  0  0  0  0  0
   -5.9934   16.7261  -32.2022 H   0  0  0  0  0  0  0  0  0  0  0  0
   -7.6752   16.6433  -32.7800 H   0  0  0  0  0  0  0  0  0  0  0  0
   -5.9705   15.8202  -34.4465 H   0  0  0  0  0  0  0  0  0  0  0  0
   -6.9898   17.2333  -35.0248 H   0  0  0  0  0  0  0  0  0  0  0  0
   -4.1605   16.9448  -34.8996 H   0  0  0  0  0  0  0  0  0  0  0  0
   -5.2258   18.2656  -35.5868 H   0  0  0  0  0  0  0  0  0  0  0  0
   -4.0419   18.0573  -32.8160 H   0  0  0  0  0  0  0  0  0  0  0  0
   -3.7820   19.3230  -34.0527 H   0  0  0  0  0  0  0  0  0  0  0  0
  1  2  1  0
  2  3  1  0
  3  4  1  0
  4  5  1  0
  3  6  1  0
  6  7  1  0
  7  8  1  0
  8  9  1  0
  9 10  1  0
 10 11  1  0
 11 12  1  0
 12 13  1  0
 13 14  1  0
 14 15  1  0
 15 16  2  0
 16 17  1  0
 17 18  2  0
 18 19  1  0
 18 20  1  0
 20 21  2  0
 21 22  1  0
 22 23  2  0
 23 24  1  0
 24 25  2  0
 17 26  1  0
 26 27  1  0
 27 28  1  0
 28 29  1  0
 25 15  1  0
 29 16  1  0
 25 20  1  0
  1 30  1  0
  1 31  1  0
  1 32  1  0
  2 33  1  0
  2 34  1  0
  4 35  1  0
  4 36  1  0
  5 37  1  0
  5 38  1  0
  5 39  1  0
  6 40  1  0
  6 41  1  0
  7 42  1  0
  7 43  1  0
  9 44  1  0
  9 45  1  0
 10 46  1  0
 10 47  1  0
 11 48  1  0
 11 49  1  0
 12 50  1  0
 12 51  1  0
 13 52  1  0
 13 53  1  0
 14 54  1  0
 19 55  1  0
 19 56  1  0
 19 57  1  0
 21 58  1  0
 22 59  1  0
 23 60  1  0
 24 61  1  0
 26 62  1  0
 26 63  1  0
 27 64  1  0
 27 65  1  0
 28 66  1  0
 28 67  1  0
 29 68  1  0
 29 69  1  0
M  CHG  1  18   1
M  END
>  <smiles>  (21) 
CCN(CC)CCOCCCCCNc1c2c([n+](C)c3ccccc13)CCCC2

>  <score_type>  (21) 
oracle

>  <origin>  (21) 
adg

>  <m_score__min__energy>  (21) 
-9.2699999999999996

>  <m_primary>  (21) 
energy

$$$$
23:0
     RDKit          3D

 40 41  0  0  0  0  0  0  0  0999 V2000
   -3.3020   21.3830  -32.4450 C   0  0  0  0  0  0  0  0  0  0  0  0
   -3.3270   22.2840  -31.2440 C   0  0  0  0  0  0  0  0  0  0  0  0
   -4.1760   23.4270  -31.4350 N   0  0  0  0  0  0  0  0  0  0  0  0
   -3.8620   24.4520  -30.4510 C   0  0  0  0  0  0  0  0  0  0  0  0
   -5.1070   24.8800  -29.7030 C   0  0  0  0  0  0  0  0  0  0  0  0
   -6.0740   23.8160  -29.6440 N   0  0  0  0  0  0  0  0  0  0  0  0
   -7.2420   24.1060  -30.4590 C   0  0  0  0  0  0  0  0  0  0  0  0
   -7.5600   22.8800  -31.2280 C   0  0  0  0  0  0  0  0  0  0  0  0
   -8.8300   22.5890  -31.7250 C   0  0  0  0  0  0  0  0  0  0  0  0
   -8.7660   21.4470  -32.3520 O   0  0  0  0  0  0  0  0  0  0  0  0
   -7.5320   20.9630  -32.3000 C   0  0  0  0  0  0  0  0  0  0  0  0
   -7.0730   19.7100  -32.8860 C   0  0  0  0  0  0  0  0  0  0  0  0
   -6.0310   19.6890  -33.8060 C   0  0  0  0  0  0  0  0  0  0  0  0
   -5.5950   18.4920  -34.3580 C   0  0  0  0  0  0  0  0  0  0  0  0
   -6.1990   17.3080  -33.9940 C   0  0  0  0  0  0  0  0  0  0  0  0
   -7.2350   17.3280  -33.0800 C   0  0  0  0  0  0  0  0  0  0  0  0
   -7.6880   18.5250  -32.5120 C   0  0  0  0  0  0  0  0  0  0  0  0
   -8.8150   18.5200  -31.5210 C   0  0  0  0  0  0  0  0  0  0  0  0
   -6.7780   21.8550  -31.6000 N   0  0  0  0  0  0  0  0  0  0  0  0
   -3.2729   20.3338  -32.1157 H   0  0  0  0  0  0  0  0  0  0  0  0
   -4.2052   21.5527  -33.0495 H   0  0  0  0  0  0  0  0  0  0  0  0
   -2.4096   21.6025  -33.0495 H   0  0  0  0  0  0  0  0  0  0  0  0
   -3.6948   21.7111  -30.3800 H   0  0  0  0  0  0  0  0  0  0  0  0
   -2.3032   22.6504  -31.0780 H   0  0  0  0  0  0  0  0  0  0  0  0
   -5.1660   23.1830  -31.4770 H   0  0  0  0  0  0  0  0  0  0  0  0
   -3.1305   24.0512  -29.7338 H   0  0  0  0  0  0  0  0  0  0  0  0
   -3.4470   25.3265  -30.9735 H   0  0  0  0  0  0  0  0  0  0  0  0
   -4.8282   25.1679  -28.6786 H   0  0  0  0  0  0  0  0  0  0  0  0
   -5.5579   25.7293  -30.2372 H   0  0  0  0  0  0  0  0  0  0  0  0
   -5.6680   22.9080  -29.9350 H   0  0  0  0  0  0  0  0  0  0  0  0
   -8.0918   24.3774  -29.8154 H   0  0  0  0  0  0  0  0  0  0  0  0
   -7.0436   24.9495  -31.1366 H   0  0  0  0  0  0  0  0  0  0  0  0
   -9.7283   23.2131  -31.6087 H   0  0  0  0  0  0  0  0  0  0  0  0
   -5.5463   20.6317  -34.1000 H   0  0  0  0  0  0  0  0  0  0  0  0
   -4.7690   18.4887  -35.0845 H   0  0  0  0  0  0  0  0  0  0  0  0
   -5.8594   16.3556  -34.4272 H   0  0  0  0  0  0  0  0  0  0  0  0
   -7.7152   16.3813  -32.7918 H   0  0  0  0  0  0  0  0  0  0  0  0
   -8.4055   18.5218  -30.5001 H   0  0  0  0  0  0  0  0  0  0  0  0
   -9.4367   19.4154  -31.6683 H   0  0  0  0  0  0  0  0  0  0  0  0
   -9.4288   17.6191  -31.6683 H   0  0  0  0  0  0  0  0  0  0  0  0
  1  2  1  0
  2  3  1  0
  3  4  1  0
  4  5  1  0
  5  6  1  0
  6  7  1  0
  7  8  1  0
  8  9  2  0
  9 10  1  0
 10 11  1  0
 11 12  1  0
 12 13  2  0
 13 14  1  0
 14 15  2  0
 15 16  1  0
 16 17  2  0
 17 18  1  0
 11 19  2  0
 19  8  1  0
 17 12  1  0
  1 20  1  0
  1 21  1  0
  1 22  1  0
  2 23  1  0
  2 24  1  0
  3 25  1  0
  4 26  1  0
  4 27  1  0
  5 28  1  0
  5 29  1  0
  6 30  1  0
  7 31  1  0
  7 32  1  0
  9 33  1  0
 13 34  1  0
 14 35  1  0
 15 36  1  0
 16 37  1  0
 18 38  1  0
 18 39  1  0
 18 40  1  0
M  END
>  <smiles>  (22) 
CCNCCNCc1coc(-c2ccccc2C)n1

>  <score_type>  (22) 
oracle

>  <origin>  (22) 
adg

>  <m_score__min__energy>  (22) 
-6.7300000000000004

>  <m_primary>  (22) 
energy

$$$$
