0:0
     RDKit          3D

 32 33  0  0  0  0  0  0  0  0999 V2000
   -3.6710   22.4810  -31.3230 C   0  0  0  0  0  0  0  0  0  0  0  0
   -2.7300   23.2010  -30.3500 C   0  0  0  0  0  0  0  0  0  0  0  0
   -3.2990   24.4850  -29.6760 C   0  0  0  0  0  0  0  0  0  0  0  0
   -2.2310   25.2990  -29.0660 N   0  0  0  0  0  0  0  0  0  0  0  0
   -1.1590   24.4530  -27.9720 S   0  0  0  0  0  0  0  0  0  0  0  0
   -1.6600   23.0510  -27.7710 O   0  0  0  0  0  0  0  0  0  0  0  0
    0.1920   24.3610  -28.6240 O   0  0  0  0  0  0  0  0  0  0  0  0
   -0.9530   25.2270  -26.3970 C   0  0  0  0  0  0  0  0  0  0  0  0
   -1.4180   26.5280  -26.1700 C   0  0  0  0  0  0  0  0  0  0  0  0
   -1.2440   27.1220  -24.9190 C   0  0  0  0  0  0  0  0  0  0  0  0
   -0.6180   26.4010  -23.9010 C   0  0  0  0  0  0  0  0  0  0  0  0
   -0.4430   26.9670  -22.6810 F   0  0  0  0  0  0  0  0  0  0  0  0
   -0.1890   25.1300  -24.1280 N   0  0  0  0  0  0  0  0  0  0  0  0
   -0.3470   24.5320  -25.3410 C   0  0  0  0  0  0  0  0  0  0  0  0
   -4.3750   25.2960  -30.4290 C   0  0  0  0  0  0  0  0  0  0  0  0
   -5.4100   24.9010  -29.3870 C   0  0  0  0  0  0  0  0  0  0  0  0
   -4.3490   24.1420  -28.6060 C   0  0  0  0  0  0  0  0  0  0  0  0
   -4.4188   21.9089  -30.7542 H   0  0  0  0  0  0  0  0  0  0  0  0
   -4.1805   23.2221  -31.9564 H   0  0  0  0  0  0  0  0  0  0  0  0
   -3.0889   21.7955  -31.9564 H   0  0  0  0  0  0  0  0  0  0  0  0
   -2.4633   22.4919  -29.5525 H   0  0  0  0  0  0  0  0  0  0  0  0
   -1.8760   23.5372  -30.9564 H   0  0  0  0  0  0  0  0  0  0  0  0
   -1.9201   27.0816  -26.9771 H   0  0  0  0  0  0  0  0  0  0  0  0
   -1.5967   28.1480  -24.7372 H   0  0  0  0  0  0  0  0  0  0  0  0
    0.2740   24.5990  -23.3560 H   0  0  0  0  0  0  0  0  0  0  0  0
    0.0021   23.5000  -25.4929 H   0  0  0  0  0  0  0  0  0  0  0  0
   -4.1729   26.3764  -30.4730 H   0  0  0  0  0  0  0  0  0  0  0  0
   -4.5637   25.1103  -31.4967 H   0  0  0  0  0  0  0  0  0  0  0  0
   -5.8437   25.7523  -28.8418 H   0  0  0  0  0  0  0  0  0  0  0  0
   -6.3385   24.3967  -29.6928 H   0  0  0  0  0  0  0  0  0  0  0  0
   -4.1332   24.5675  -27.6149 H   0  0  0  0  0  0  0  0  0  0  0  0
   -4.5200   23.0951  -28.3149 H   0  0  0  0  0  0  0  0  0  0  0  0
  1  2  1  0
  2  3  1  0
  3  4  1  0
  4  5  1  0
  5  6  2  0
  5  7  2  0
  5  8  1  0
  8  9  2  0
  9 10  1  0
 10 11  2  0
 11 12  1  0
 11 13  1  0
 13 14  2  0
  3 15  1  0
 15 16  1  0
 16 17  1  0
 17  3  1  0
 14  8  1  0
  1 18  1  0
  1 19  1  0
  1 20  1  0
  2 21  1  0
  2 22  1  0
  9 23  1  0
 10 24  1  0
 13 25  1  0
 14 26  1  0
 15 27  1  0
 15 28  1  0
 16 29  1  0
 16 30  1  0
 17 31  1  0
 17 32  1  0
M  CHG  2   4  -1  13   1
M  END
>  <UniqueID>  (1) 
1

>  <SMILES>  (1) 
CCC1([N-]S(=O)(=O)c2ccc(F)[nH+]c2)CCC1

>  <Energy>  (1) 
96.75257141402179

>  <Genealogy>  (1) 
CCC1([N-]S(=O)(=O)c2ccc(F)[nH+]c2)CCC1 (protonated)
CCC1([N-]S(=O)(=O)c2ccc(F)[nH+]c2)CCC1 (3D coordinates assigned)
CCC1([N-]S(=O)(=O)c2ccc(F)[nH+]c2)CCC1 (nonaromatic ring conformer: 96.75257141402179 kcal/mol)

>  <smiles>  (1) 
CCC1(NS(=O)(=O)c2ccc(F)nc2)CCC1

>  <score_type>  (1) 
oracle

>  <origin>  (1) 
adg

>  <m_score__min__energy>  (1) 
-8.0299999999999994

>  <m_primary>  (1) 
energy

$$$$
1:0
     RDKit          3D

 19 20  0  0  0  0  0  0  0  0999 V2000
   -8.5000   21.1810  -31.9260 C   0  0  0  0  0  0  0  0  0  0  0  0
   -7.9330   22.0630  -31.3320 C   0  0  0  0  0  0  0  0  0  0  0  0
   -7.2450   23.1360  -30.6090 C   0  0  0  0  0  0  0  0  0  0  0  0
   -6.1140   24.0260  -31.7280 S   0  0  0  0  0  0  0  0  0  0  0  0
   -4.7410   24.0230  -30.5760 C   0  0  0  0  0  0  0  0  0  0  0  0
   -4.5000   22.9850  -29.7310 N   0  0  0  0  0  0  0  0  0  0  0  0
   -3.4060   23.4030  -29.0780 C   0  0  0  0  0  0  0  0  0  0  0  0
   -2.6920   22.7500  -28.0800 C   0  0  0  0  0  0  0  0  0  0  0  0
   -1.5680   23.4140  -27.5540 C   0  0  0  0  0  0  0  0  0  0  0  0
   -0.5260   22.5940  -26.1810 Br  0  0  0  0  0  0  0  0  0  0  0  0
   -1.2140   24.6920  -28.0490 C   0  0  0  0  0  0  0  0  0  0  0  0
   -1.9560   25.2850  -29.0340 N   0  0  0  0  0  0  0  0  0  0  0  0
   -3.0350   24.6270  -29.5250 C   0  0  0  0  0  0  0  0  0  0  0  0
   -3.8640   25.0580  -30.4820 N   0  0  0  0  0  0  0  0  0  0  0  0
   -9.0176   20.3759  -32.4682 H   0  0  0  0  0  0  0  0  0  0  0  0
   -7.9896   23.8404  -30.2097 H   0  0  0  0  0  0  0  0  0  0  0  0
   -6.6628   22.6973  -29.7853 H   0  0  0  0  0  0  0  0  0  0  0  0
   -2.9927   21.7562  -27.7167 H   0  0  0  0  0  0  0  0  0  0  0  0
   -0.3359   25.2123  -27.6388 H   0  0  0  0  0  0  0  0  0  0  0  0
  1  2  3  0
  2  3  1  0
  3  4  1  0
  4  5  1  0
  5  6  2  0
  6  7  1  0
  7  8  2  0
  8  9  1  0
  9 10  1  0
  9 11  2  0
 11 12  1  0
 12 13  2  0
 13 14  1  0
 14  5  1  0
 13  7  1  0
  1 15  1  0
  3 16  1  0
  3 17  1  0
  8 18  1  0
 11 19  1  0
M  CHG  1  14  -1
M  END
>  <UniqueID>  (2) 
2

>  <SMILES>  (2) 
C#CCSc1nc2cc(Br)cnc2[n-]1

>  <Energy>  (2) 
50.25855376618558

>  <Genealogy>  (2) 
C#CCSc1nc2cc(Br)cnc2[n-]1 (protonated)
C#CCSc1nc2cc(Br)cnc2[n-]1 (3D coordinates assigned)
C#CCSc1nc2cc(Br)cnc2[n-]1 (optimized conformer: 50.25855376618558 kcal/mol)

>  <smiles>  (2) 
C#CCSc1nc2cc(Br)cnc2[nH]1

>  <score_type>  (2) 
oracle

>  <origin>  (2) 
adg

>  <m_score__min__energy>  (2) 
-7.0899999999999999

>  <m_primary>  (2) 
energy

$$$$
2:0
     RDKit          3D

 32 34  0  0  0  0  0  0  0  0999 V2000
   -3.9750   23.1420  -29.4570 C   0  0  0  0  0  0  0  0  0  0  0  0
   -3.4290   24.4010  -29.7100 C   0  0  0  0  0  0  0  0  0  0  0  0
   -4.1080   25.2980  -30.4730 N   0  0  0  0  0  0  0  0  0  0  0  0
   -5.3260   25.0090  -31.0020 C   0  0  0  0  0  0  0  0  0  0  0  0
   -5.9220   23.7620  -30.7610 C   0  0  0  0  0  0  0  0  0  0  0  0
   -7.2450   23.4140  -31.3820 C   0  0  0  0  0  0  0  0  0  0  0  0
   -7.0410   22.5160  -32.5170 N   0  0  0  0  0  0  0  0  0  0  0  0
   -7.4460   21.1430  -32.4430 C   0  0  0  0  0  0  0  0  0  0  0  0
   -8.7260   20.8430  -31.9580 C   0  0  0  0  0  0  0  0  0  0  0  0
   -9.1420   19.5190  -31.8200 C   0  0  0  0  0  0  0  0  0  0  0  0
   -8.2890   18.4730  -32.1730 C   0  0  0  0  0  0  0  0  0  0  0  0
   -7.0120   18.7470  -32.6870 C   0  0  0  0  0  0  0  0  0  0  0  0
   -6.1630   17.6940  -33.0640 C   0  0  0  0  0  0  0  0  0  0  0  0
   -4.9030   17.9660  -33.6010 C   0  0  0  0  0  0  0  0  0  0  0  0
   -4.4840   19.2860  -33.7720 C   0  0  0  0  0  0  0  0  0  0  0  0
   -5.3170   20.3450  -33.4000 C   0  0  0  0  0  0  0  0  0  0  0  0
   -6.5830   20.0920  -32.8360 C   0  0  0  0  0  0  0  0  0  0  0  0
   -5.2250   22.8200  -29.9910 C   0  0  0  0  0  0  0  0  0  0  0  0
   -3.4272   22.4112  -28.8439 H   0  0  0  0  0  0  0  0  0  0  0  0
   -2.4475   24.6680  -29.2913 H   0  0  0  0  0  0  0  0  0  0  0  0
   -5.8461   25.7550  -31.6209 H   0  0  0  0  0  0  0  0  0  0  0  0
   -7.8799   22.9173  -30.6335 H   0  0  0  0  0  0  0  0  0  0  0  0
   -7.7341   24.3350  -31.7322 H   0  0  0  0  0  0  0  0  0  0  0  0
   -7.0090   22.9570  -33.4640 H   0  0  0  0  0  0  0  0  0  0  0  0
   -9.4095   21.6599  -31.6834 H   0  0  0  0  0  0  0  0  0  0  0  0
  -10.1471   19.2985  -31.4311 H   0  0  0  0  0  0  0  0  0  0  0  0
   -8.6181   17.4308  -32.0482 H   0  0  0  0  0  0  0  0  0  0  0  0
   -6.4914   16.6520  -32.9360 H   0  0  0  0  0  0  0  0  0  0  0  0
   -4.2392   17.1378  -33.8899 H   0  0  0  0  0  0  0  0  0  0  0  0
   -3.4931   19.4942  -34.2018 H   0  0  0  0  0  0  0  0  0  0  0  0
   -4.9821   21.3822  -33.5485 H   0  0  0  0  0  0  0  0  0  0  0  0
   -5.6625   21.8276  -29.8075 H   0  0  0  0  0  0  0  0  0  0  0  0
  1  2  2  0
  2  3  1  0
  3  4  2  0
  4  5  1  0
  5  6  1  0
  6  7  1  0
  7  8  1  0
  8  9  2  0
  9 10  1  0
 10 11  2  0
 11 12  1  0
 12 13  2  0
 13 14  1  0
 14 15  2  0
 15 16  1  0
 16 17  2  0
  5 18  2  0
 18  1  1  0
 17  8  1  0
 17 12  1  0
  1 19  1  0
  2 20  1  0
  4 21  1  0
  6 22  1  0
  6 23  1  0
  7 24  1  0
  9 25  1  0
 10 26  1  0
 11 27  1  0
 13 28  1  0
 14 29  1  0
 15 30  1  0
 16 31  1  0
 18 32  1  0
M  END
>  <UniqueID>  (3) 
3

>  <SMILES>  (3) 
c1cncc(CNc2cccc3ccccc23)c1

>  <Energy>  (3) 
42.94287555305261

>  <Genealogy>  (3) 
c1cncc(CNc2cccc3ccccc23)c1 (3D coordinates assigned)
c1cncc(CNc2cccc3ccccc23)c1 (optimized conformer: 42.94287555305261 kcal/mol)

>  <smiles>  (3) 
c1cncc(CNc2cccc3ccccc23)c1

>  <score_type>  (3) 
oracle

>  <origin>  (3) 
adg

>  <m_score__min__energy>  (3) 
-8.1400000000000006

>  <m_primary>  (3) 
energy

$$$$
3:0
     RDKit          3D

 57 60  0  0  0  0  0  0  0  0999 V2000
   -5.4190   25.7150  -30.3190 C   0  0  0  0  0  0  0  0  0  0  0  0
   -4.9060   24.5770  -31.0040 O   0  0  0  0  0  0  0  0  0  0  0  0
   -5.6780   23.4710  -31.3940 C   0  0  0  0  0  0  0  0  0  0  0  0
   -7.0770   23.4430  -31.2530 C   0  0  0  0  0  0  0  0  0  0  0  0
   -7.8050   22.3220  -31.6530 C   0  0  0  0  0  0  0  0  0  0  0  0
   -7.1500   21.2110  -32.2000 C   0  0  0  0  0  0  0  0  0  0  0  0
   -7.8850   20.0850  -32.6020 C   0  0  0  0  0  0  0  0  0  0  0  0
   -7.2320   18.9780  -33.1460 C   0  0  0  0  0  0  0  0  0  0  0  0
   -5.8460   18.9840  -33.2980 C   0  0  0  0  0  0  0  0  0  0  0  0
   -5.0900   20.0960  -32.9040 C   0  0  0  0  0  0  0  0  0  0  0  0
   -3.6670   20.0610  -33.0810 N   0  0  0  0  0  0  0  0  0  0  0  0
   -2.9620   18.7770  -33.0620 C   0  0  0  0  0  0  0  0  0  0  0  0
   -1.6110   18.8760  -32.3150 C   0  0  0  0  0  0  0  0  0  0  0  0
   -1.0630   20.2530  -32.2120 N   0  0  0  0  0  0  0  0  0  0  0  0
   -1.3730   20.8690  -30.9000 C   0  0  0  0  0  0  0  0  0  0  0  0
   -0.6190   22.1830  -30.6830 C   0  0  0  0  0  0  0  0  0  0  0  0
   -1.5550   23.2340  -30.4590 O   0  0  0  0  0  0  0  0  0  0  0  0
   -2.4390   23.2950  -29.3690 C   0  0  0  0  0  0  0  0  0  0  0  0
   -3.2820   22.2180  -29.0290 C   0  0  0  0  0  0  0  0  0  0  0  0
   -4.1470   22.3170  -27.9380 C   0  0  0  0  0  0  0  0  0  0  0  0
   -4.1810   23.4860  -27.1770 C   0  0  0  0  0  0  0  0  0  0  0  0
   -3.3510   24.5600  -27.5050 C   0  0  0  0  0  0  0  0  0  0  0  0
   -2.4730   24.4720  -28.6040 C   0  0  0  0  0  0  0  0  0  0  0  0
   -1.6230   25.5290  -28.9650 O   0  0  0  0  0  0  0  0  0  0  0  0
   -0.8350   26.2800  -28.0480 C   0  0  0  0  0  0  0  0  0  0  0  0
   -1.4460   21.0820  -33.3760 C   0  0  0  0  0  0  0  0  0  0  0  0
   -2.9630   21.2920  -33.4450 C   0  0  0  0  0  0  0  0  0  0  0  0
   -5.7400   21.2250  -32.3500 C   0  0  0  0  0  0  0  0  0  0  0  0
   -5.0200   22.3630  -31.9400 C   0  0  0  0  0  0  0  0  0  0  0  0
   -5.3461   25.5532  -29.2334 H   0  0  0  0  0  0  0  0  0  0  0  0
   -4.8348   26.6046  -30.5972 H   0  0  0  0  0  0  0  0  0  0  0  0
   -6.4724   25.8664  -30.5972 H   0  0  0  0  0  0  0  0  0  0  0  0
   -7.6006   24.3104  -30.8246 H   0  0  0  0  0  0  0  0  0  0  0  0
   -8.8989   22.3105  -31.5383 H   0  0  0  0  0  0  0  0  0  0  0  0
   -8.9790   20.0749  -32.4880 H   0  0  0  0  0  0  0  0  0  0  0  0
   -7.8132   18.0971  -33.4561 H   0  0  0  0  0  0  0  0  0  0  0  0
   -5.3415   18.1078  -33.7312 H   0  0  0  0  0  0  0  0  0  0  0  0
   -3.5940   18.0309  -32.5580 H   0  0  0  0  0  0  0  0  0  0  0  0
   -2.7575   18.4831  -34.1021 H   0  0  0  0  0  0  0  0  0  0  0  0
   -1.7523   18.4854  -31.2964 H   0  0  0  0  0  0  0  0  0  0  0  0
   -0.8856   18.2939  -32.9023 H   0  0  0  0  0  0  0  0  0  0  0  0
   -2.4536   21.0686  -30.8493 H   0  0  0  0  0  0  0  0  0  0  0  0
   -1.0572   20.1661  -30.1150 H   0  0  0  0  0  0  0  0  0  0  0  0
    0.0415   22.0871  -29.8086 H   0  0  0  0  0  0  0  0  0  0  0  0
   -0.0155   22.4119  -31.5737 H   0  0  0  0  0  0  0  0  0  0  0  0
   -3.2582   21.2947  -29.6264 H   0  0  0  0  0  0  0  0  0  0  0  0
   -4.8024   21.4727  -27.6779 H   0  0  0  0  0  0  0  0  0  0  0  0
   -4.8628   23.5617  -26.3171 H   0  0  0  0  0  0  0  0  0  0  0  0
   -3.3826   25.4797  -26.9024 H   0  0  0  0  0  0  0  0  0  0  0  0
   -1.1157   26.0125  -27.0186 H   0  0  0  0  0  0  0  0  0  0  0  0
    0.2295   26.0538  -28.2084 H   0  0  0  0  0  0  0  0  0  0  0  0
   -1.0098   27.3541  -28.2084 H   0  0  0  0  0  0  0  0  0  0  0  0
   -0.9534   22.0621  -33.2937 H   0  0  0  0  0  0  0  0  0  0  0  0
   -1.1294   20.5585  -34.2901 H   0  0  0  0  0  0  0  0  0  0  0  0
   -3.2499   22.0930  -32.7478 H   0  0  0  0  0  0  0  0  0  0  0  0
   -3.2379   21.5688  -34.4735 H   0  0  0  0  0  0  0  0  0  0  0  0
   -3.9257   22.3817  -32.0502 H   0  0  0  0  0  0  0  0  0  0  0  0
  1  2  1  0
  2  3  1  0
  3  4  2  0
  4  5  1  0
  5  6  2  0
  6  7  1  0
  7  8  2  0
  8  9  1  0
  9 10  2  0
 10 11  1  0
 11 12  1  0
 12 13  1  0
 13 14  1  0
 14 15  1  0
 15 16  1  0
 16 17  1  0
 17 18  1  0
 18 19  2  0
 19 20  1  0
 20 21  2  0
 21 22  1  0
 22 23  2  0
 23 24  1  0
 24 25  1  0
 14 26  1  0
 26 27  1  0
 10 28  1  0
 28 29  2  0
 29  3  1  0
 28  6  1  0
 27 11  1  0
 23 18  1  0
  1 30  1  0
  1 31  1  0
  1 32  1  0
  4 33  1  0
  5 34  1  0
  7 35  1  0
  8 36  1  0
  9 37  1  0
 12 38  1  0
 12 39  1  0
 13 40  1  0
 13 41  1  0
 15 42  1  0
 15 43  1  0
 16 44  1  0
 16 45  1  0
 19 46  1  0
 20 47  1  0
 21 48  1  0
 22 49  1  0
 25 50  1  0
 25 51  1  0
 25 52  1  0
 26 53  1  0
 26 54  1  0
 27 55  1  0
 27 56  1  0
 29 57  1  0
M  END
>  <UniqueID>  (4) 
4

>  <SMILES>  (4) 
COc1ccc2cccc(N3CCN(CCOc4ccccc4OC)CC3)c2c1

>  <Energy>  (4) 
75.99353238838792

>  <Genealogy>  (4) 
COc1ccc2cccc(N3CCN(CCOc4ccccc4OC)CC3)c2c1 (3D coordinates assigned)
COc1ccc2cccc(N3CCN(CCOc4ccccc4OC)CC3)c2c1 (nonaromatic ring conformer: 75.99353238838792 kcal/mol)

>  <smiles>  (4) 
COc1ccc2cccc(N3CCN(CCOc4ccccc4OC)CC3)c2c1

>  <score_type>  (4) 
oracle

>  <origin>  (4) 
adg

>  <m_score__min__energy>  (4) 
-9.1500000000000004

>  <m_primary>  (4) 
energy

$$$$
4:0
     RDKit          3D

 39 41  0  0  0  0  0  0  0  0999 V2000
   -9.1190   21.5560  -30.8600 C   0  0  0  0  0  0  0  0  0  0  0  0
   -8.4480   21.3100  -32.2110 C   0  0  0  0  0  0  0  0  0  0  0  0
   -7.6860   20.0540  -32.2070 N   0  0  0  0  0  0  0  0  0  0  0  0
   -8.1900   18.8310  -31.9400 C   0  0  0  0  0  0  0  0  0  0  0  0
   -7.2130   17.8900  -32.1710 C   0  0  0  0  0  0  0  0  0  0  0  0
   -6.1040   18.5190  -32.6000 N   0  0  0  0  0  0  0  0  0  0  0  0
   -6.4110   19.8330  -32.6190 C   0  0  0  0  0  0  0  0  0  0  0  0
   -5.4500   20.8900  -33.1230 C   0  0  0  0  0  0  0  0  0  0  0  0
   -4.8890   21.7660  -32.0700 N   0  0  0  0  0  0  0  0  0  0  0  0
   -4.8460   21.1730  -30.7250 C   0  0  0  0  0  0  0  0  0  0  0  0
   -5.1260   22.2890  -29.7180 C   0  0  0  0  0  0  0  0  0  0  0  0
   -5.1350   23.5760  -30.5450 C   0  0  1  0  0  0  0  0  0  0  0  0
   -6.0580   24.6510  -30.0190 C   0  0  0  0  0  0  0  0  0  0  0  0
   -5.3840   25.9300  -30.4850 C   0  0  0  0  0  0  0  0  0  0  0  0
   -4.0300   25.6720  -30.7910 O   0  0  0  0  0  0  0  0  0  0  0  0
   -3.7910   24.3040  -30.5510 C   0  0  0  0  0  0  0  0  0  0  0  0
   -5.5140   23.0840  -31.9440 C   0  0  0  0  0  0  0  0  0  0  0  0
   -8.4193   21.2995  -30.0509 H   0  0  0  0  0  0  0  0  0  0  0  0
   -9.4012   22.6161  -30.7784 H   0  0  0  0  0  0  0  0  0  0  0  0
  -10.0195   20.9295  -30.7784 H   0  0  0  0  0  0  0  0  0  0  0  0
   -9.2217   21.2574  -32.9912 H   0  0  0  0  0  0  0  0  0  0  0  0
   -7.7517   22.1382  -32.4091 H   0  0  0  0  0  0  0  0  0  0  0  0
   -9.2131   18.6210  -31.5947 H   0  0  0  0  0  0  0  0  0  0  0  0
   -7.3208   16.8046  -32.0286 H   0  0  0  0  0  0  0  0  0  0  0  0
   -5.2130   18.0670  -32.9040 H   0  0  0  0  0  0  0  0  0  0  0  0
   -4.6149   20.3818  -33.6273 H   0  0  0  0  0  0  0  0  0  0  0  0
   -6.0280   21.5415  -33.7949 H   0  0  0  0  0  0  0  0  0  0  0  0
   -5.6111   20.3876  -30.6368 H   0  0  0  0  0  0  0  0  0  0  0  0
   -3.8624   20.7189  -30.5345 H   0  0  0  0  0  0  0  0  0  0  0  0
   -6.1006   22.1352  -29.2316 H   0  0  0  0  0  0  0  0  0  0  0  0
   -4.3745   22.3191  -28.9153 H   0  0  0  0  0  0  0  0  0  0  0  0
   -7.0654   24.5541  -30.4500 H   0  0  0  0  0  0  0  0  0  0  0  0
   -6.2023   24.6066  -28.9294 H   0  0  0  0  0  0  0  0  0  0  0  0
   -5.8961   26.3067  -31.3827 H   0  0  0  0  0  0  0  0  0  0  0  0
   -5.4388   26.6824  -29.6844 H   0  0  0  0  0  0  0  0  0  0  0  0
   -3.1492   23.8937  -31.3446 H   0  0  0  0  0  0  0  0  0  0  0  0
   -3.2839   24.1718  -29.5838 H   0  0  0  0  0  0  0  0  0  0  0  0
   -6.6067   23.0036  -32.0417 H   0  0  0  0  0  0  0  0  0  0  0  0
   -5.1753   23.7762  -32.7289 H   0  0  0  0  0  0  0  0  0  0  0  0
  1  2  1  0
  2  3  1  0
  3  4  1  0
  4  5  2  0
  5  6  1  0
  6  7  2  0
  7  8  1  0
  8  9  1  0
  9 10  1  0
 10 11  1  0
 12 11  1  1
 12 13  1  0
 13 14  1  0
 14 15  1  0
 15 16  1  0
 12 17  1  0
  7  3  1  0
 17  9  1  0
 16 12  1  0
  1 18  1  0
  1 19  1  0
  1 20  1  0
  2 21  1  0
  2 22  1  0
  4 23  1  0
  5 24  1  0
  6 25  1  0
  8 26  1  0
  8 27  1  0
 10 28  1  0
 10 29  1  0
 11 30  1  0
 11 31  1  0
 13 32  1  0
 13 33  1  0
 14 34  1  0
 14 35  1  0
 16 36  1  0
 16 37  1  0
 17 38  1  0
 17 39  1  0
M  CHG  1   6   1
M  END
>  <UniqueID>  (5) 
5

>  <SMILES>  (5) 
CCn1cc[nH+]c1CN1CC[C@]2(CCOC2)C1

>  <Energy>  (5) 
77.52741749211712

>  <Genealogy>  (5) 
CCn1cc[nH+]c1CN1CCC2(CCOC2)C1 (protonated)
CCn1cc[nH+]c1CN1CC[C@]2(CCOC2)C1 (chirality)
CCn1cc[nH+]c1CN1CC[C@]2(CCOC2)C1 (3D coordinates assigned)
CCn1cc[nH+]c1CN1CC[C@]2(CCOC2)C1 (nonaromatic ring conformer: 77.52741749211712 kcal/mol)

>  <smiles>  (5) 
CCn1ccnc1CN1CCC2(CCOC2)C1

>  <score_type>  (5) 
oracle

>  <origin>  (5) 
adg

>  <m_score__min__energy>  (5) 
-6.0499999999999998

>  <m_primary>  (5) 
energy

$$$$
5:0
     RDKit          3D

 48 51  0  0  0  0  0  0  0  0999 V2000
   -5.5030   25.5430  -30.4630 C   0  0  0  0  0  0  0  0  0  0  0  0
   -4.2850   24.8860  -30.7920 O   0  0  0  0  0  0  0  0  0  0  0  0
   -3.4910   24.1660  -29.8820 C   0  0  0  0  0  0  0  0  0  0  0  0
   -2.4720   24.7950  -29.1370 C   0  0  0  0  0  0  0  0  0  0  0  0
   -1.6810   24.0570  -28.2560 C   0  0  0  0  0  0  0  0  0  0  0  0
   -1.8950   22.6890  -28.1000 C   0  0  0  0  0  0  0  0  0  0  0  0
   -2.9020   22.0520  -28.8260 C   0  0  0  0  0  0  0  0  0  0  0  0
   -3.7090   22.7780  -29.7240 C   0  0  0  0  0  0  0  0  0  0  0  0
   -4.7890   22.0870  -30.4730 C   0  0  0  0  0  0  0  0  0  0  0  0
   -4.5270   20.9320  -31.2260 C   0  0  0  0  0  0  0  0  0  0  0  0
   -5.5580   20.3010  -31.9380 C   0  0  0  0  0  0  0  0  0  0  0  0
   -5.2150   19.1270  -32.7670 C   0  0  0  0  0  0  0  0  0  0  0  0
   -4.2590   18.3840  -32.4140 O   0  0  0  0  0  0  0  0  0  0  0  0
   -5.9300   18.8670  -33.9890 N   0  0  0  0  0  0  0  0  0  0  0  0
   -5.7430   17.6760  -34.8270 C   0  0  0  0  0  0  0  0  0  0  0  0
   -6.3680   16.4190  -34.2070 C   0  0  0  0  0  0  0  0  0  0  0  0
   -5.2340   15.4180  -34.0260 C   0  0  0  0  0  0  0  0  0  0  0  0
   -4.1300   15.8610  -34.9720 C   0  0  0  0  0  0  0  0  0  0  0  0
   -4.2620   17.3710  -35.0740 C   0  0  0  0  0  0  0  0  0  0  0  0
   -6.8730   20.8200  -31.8520 C   0  0  0  0  0  0  0  0  0  0  0  0
   -7.9800   20.1970  -32.4660 C   0  0  0  0  0  0  0  0  0  0  0  0
   -9.2570   20.7570  -32.3570 C   0  0  0  0  0  0  0  0  0  0  0  0
   -9.4510   21.9310  -31.6270 C   0  0  0  0  0  0  0  0  0  0  0  0
   -8.3710   22.5450  -30.9890 C   0  0  0  0  0  0  0  0  0  0  0  0
   -7.0890   21.9930  -31.0880 C   0  0  0  0  0  0  0  0  0  0  0  0
   -6.0550   22.5810  -30.4340 N   0  0  0  0  0  0  0  0  0  0  0  0
   -5.6058   25.5985  -29.3692 H   0  0  0  0  0  0  0  0  0  0  0  0
   -5.4961   26.5598  -30.8827 H   0  0  0  0  0  0  0  0  0  0  0  0
   -6.3489   24.9788  -30.8827 H   0  0  0  0  0  0  0  0  0  0  0  0
   -2.2996   25.8754  -29.2514 H   0  0  0  0  0  0  0  0  0  0  0  0
   -0.8861   24.5566  -27.6828 H   0  0  0  0  0  0  0  0  0  0  0  0
   -1.2696   22.1108  -27.4039 H   0  0  0  0  0  0  0  0  0  0  0  0
   -3.0674   20.9723  -28.6959 H   0  0  0  0  0  0  0  0  0  0  0  0
   -3.5079   20.5193  -31.2581 H   0  0  0  0  0  0  0  0  0  0  0  0
   -6.6440   19.5640  -34.3000 H   0  0  0  0  0  0  0  0  0  0  0  0
   -6.2463   17.9172  -35.7749 H   0  0  0  0  0  0  0  0  0  0  0  0
   -6.8213   16.6600  -33.2342 H   0  0  0  0  0  0  0  0  0  0  0  0
   -7.1614   16.0101  -34.8499 H   0  0  0  0  0  0  0  0  0  0  0  0
   -4.8748   15.4311  -32.9864 H   0  0  0  0  0  0  0  0  0  0  0  0
   -5.5638   14.3915  -34.2439 H   0  0  0  0  0  0  0  0  0  0  0  0
   -3.1445   15.5881  -34.5668 H   0  0  0  0  0  0  0  0  0  0  0  0
   -4.2181   15.3770  -35.9559 H   0  0  0  0  0  0  0  0  0  0  0  0
   -3.6373   17.8627  -34.3138 H   0  0  0  0  0  0  0  0  0  0  0  0
   -3.9294   17.7420  -36.0547 H   0  0  0  0  0  0  0  0  0  0  0  0
   -7.8379   19.2656  -33.0337 H   0  0  0  0  0  0  0  0  0  0  0  0
  -10.1122   20.2702  -32.8486 H   0  0  0  0  0  0  0  0  0  0  0  0
  -10.4557   22.3730  -31.5542 H   0  0  0  0  0  0  0  0  0  0  0  0
   -8.5286   23.4651  -30.4071 H   0  0  0  0  0  0  0  0  0  0  0  0
  1  2  1  0
  2  3  1  0
  3  4  2  0
  4  5  1  0
  5  6  2  0
  6  7  1  0
  7  8  2  0
  8  9  1  0
  9 10  2  0
 10 11  1  0
 11 12  1  0
 12 13  2  0
 12 14  1  0
 14 15  1  0
 15 16  1  0
 16 17  1  0
 17 18  1  0
 18 19  1  0
 11 20  2  0
 20 21  1  0
 21 22  2  0
 22 23  1  0
 23 24  2  0
 24 25  1  0
 25 26  2  0
  8  3  1  0
 26  9  1  0
 19 15  1  0
 25 20  1  0
  1 27  1  0
  1 28  1  0
  1 29  1  0
  4 30  1  0
  5 31  1  0
  6 32  1  0
  7 33  1  0
 10 34  1  0
 14 35  1  0
 15 36  1  0
 16 37  1  0
 16 38  1  0
 17 39  1  0
 17 40  1  0
 18 41  1  0
 18 42  1  0
 19 43  1  0
 19 44  1  0
 21 45  1  0
 22 46  1  0
 23 47  1  0
 24 48  1  0
M  END
>  <UniqueID>  (6) 
6

>  <SMILES>  (6) 
COc1ccccc1-c1cc(C(=O)NC2CCCC2)c2ccccc2n1

>  <Energy>  (6) 
65.70480422534241

>  <Genealogy>  (6) 
COc1ccccc1-c1cc(C(=O)NC2CCCC2)c2ccccc2n1 (3D coordinates assigned)
COc1ccccc1-c1cc(C(=O)NC2CCCC2)c2ccccc2n1 (nonaromatic ring conformer: 65.70480422534241 kcal/mol)

>  <smiles>  (6) 
COc1ccccc1-c1cc(C(=O)NC2CCCC2)c2ccccc2n1

>  <score_type>  (6) 
oracle

>  <origin>  (6) 
adg

>  <m_score__min__energy>  (6) 
-8.9399999999999995

>  <m_primary>  (6) 
energy

$$$$
6:0
     RDKit          3D

 42 45  0  0  0  0  0  0  0  0999 V2000
   -2.9250   24.7360  -27.7020 O   0  0  0  0  0  0  0  0  0  0  0  0
   -2.3540   24.5920  -29.0840 S   0  0  0  0  0  0  0  0  0  0  0  0
   -1.0880   25.3950  -29.1780 O   0  0  0  0  0  0  0  0  0  0  0  0
   -3.4980   25.1920  -30.2410 N   0  0  0  0  0  0  0  0  0  0  0  0
   -4.8330   24.6980  -30.4210 C   0  0  0  0  0  0  0  0  0  0  0  0
   -5.9590   25.4170  -29.9900 C   0  0  0  0  0  0  0  0  0  0  0  0
   -7.2390   24.8910  -30.1750 C   0  0  0  0  0  0  0  0  0  0  0  0
   -7.4080   23.6500  -30.7900 C   0  0  0  0  0  0  0  0  0  0  0  0
   -6.2940   22.9150  -31.2370 C   0  0  0  0  0  0  0  0  0  0  0  0
   -6.4830   21.5950  -31.8920 C   0  0  0  0  0  0  0  0  0  0  0  0
   -7.6890   21.0260  -32.3030 C   0  0  0  0  0  0  0  0  0  0  0  0
   -7.5480   19.7610  -32.8910 C   0  0  0  0  0  0  0  0  0  0  0  0
   -6.2300   19.3110  -32.9530 C   0  0  0  0  0  0  0  0  0  0  0  0
   -5.7510   18.0210  -33.5130 C   0  0  0  0  0  0  0  0  0  0  0  0
   -4.5340   17.9620  -34.2220 C   0  0  0  0  0  0  0  0  0  0  0  0
   -4.0770   16.7510  -34.7520 C   0  0  0  0  0  0  0  0  0  0  0  0
   -4.8240   15.5850  -34.5800 C   0  0  0  0  0  0  0  0  0  0  0  0
   -6.0300   15.6270  -33.8780 C   0  0  0  0  0  0  0  0  0  0  0  0
   -6.4920   16.8350  -33.3470 C   0  0  0  0  0  0  0  0  0  0  0  0
   -5.2550   20.5040  -32.2700 S   0  0  0  0  0  0  0  0  0  0  0  0
   -5.0070   23.4540  -31.0420 C   0  0  0  0  0  0  0  0  0  0  0  0
   -1.9880   22.9080  -29.4180 C   0  0  0  0  0  0  0  0  0  0  0  0
   -2.5220   21.8940  -28.6140 C   0  0  0  0  0  0  0  0  0  0  0  0
   -2.2050   20.5640  -28.8910 C   0  0  0  0  0  0  0  0  0  0  0  0
   -1.3640   20.2590  -29.9630 C   0  0  0  0  0  0  0  0  0  0  0  0
   -0.8510   21.2970  -30.7450 C   0  0  0  0  0  0  0  0  0  0  0  0
   -1.1710   22.5870  -30.4580 N   0  0  0  0  0  0  0  0  0  0  0  0
   -5.8326   26.3965  -29.5057 H   0  0  0  0  0  0  0  0  0  0  0  0
   -8.1182   25.4575  -29.8344 H   0  0  0  0  0  0  0  0  0  0  0  0
   -8.4206   23.2426  -30.9267 H   0  0  0  0  0  0  0  0  0  0  0  0
   -8.6615   21.5244  -32.1772 H   0  0  0  0  0  0  0  0  0  0  0  0
   -8.3999   19.1767  -33.2690 H   0  0  0  0  0  0  0  0  0  0  0  0
   -3.9385   18.8765  -34.3596 H   0  0  0  0  0  0  0  0  0  0  0  0
   -3.1270   16.7177  -35.3054 H   0  0  0  0  0  0  0  0  0  0  0  0
   -4.4629   14.6334  -34.9972 H   0  0  0  0  0  0  0  0  0  0  0  0
   -6.6182   14.7074  -33.7423 H   0  0  0  0  0  0  0  0  0  0  0  0
   -7.4429   16.8593  -32.7946 H   0  0  0  0  0  0  0  0  0  0  0  0
   -4.1259   22.8901  -31.3822 H   0  0  0  0  0  0  0  0  0  0  0  0
   -3.1849   22.1434  -27.7723 H   0  0  0  0  0  0  0  0  0  0  0  0
   -2.6166   19.7575  -28.2664 H   0  0  0  0  0  0  0  0  0  0  0  0
   -1.1082   19.2134  -30.1893 H   0  0  0  0  0  0  0  0  0  0  0  0
   -0.1881   21.0706  -31.5931 H   0  0  0  0  0  0  0  0  0  0  0  0
  1  2  2  0
  2  3  2  0
  2  4  1  0
  4  5  1  0
  5  6  2  0
  6  7  1  0
  7  8  2  0
  8  9  1  0
  9 10  1  0
 10 11  2  0
 11 12  1  0
 12 13  2  0
 13 14  1  0
 14 15  2  0
 15 16  1  0
 16 17  2  0
 17 18  1  0
 18 19  2  0
 13 20  1  0
  9 21  2  0
  2 22  1  0
 22 23  2  0
 23 24  1  0
 24 25  2  0
 25 26  1  0
 26 27  2  0
 21  5  1  0
 27 22  1  0
 20 10  1  0
 19 14  1  0
  6 28  1  0
  7 29  1  0
  8 30  1  0
 11 31  1  0
 12 32  1  0
 15 33  1  0
 16 34  1  0
 17 35  1  0
 18 36  1  0
 19 37  1  0
 21 38  1  0
 23 39  1  0
 24 40  1  0
 25 41  1  0
 26 42  1  0
M  CHG  1   4  -1
M  END
>  <UniqueID>  (7) 
7

>  <SMILES>  (7) 
O=S(=O)([N-]c1cccc(-c2ccc(-c3ccccc3)s2)c1)c1ccccn1

>  <Energy>  (7) 
81.48771336148505

>  <Genealogy>  (7) 
O=S(=O)([N-]c1cccc(-c2ccc(-c3ccccc3)s2)c1)c1ccccn1 (protonated)
O=S(=O)([N-]c1cccc(-c2ccc(-c3ccccc3)s2)c1)c1ccccn1 (3D coordinates assigned)
O=S(=O)([N-]c1cccc(-c2ccc(-c3ccccc3)s2)c1)c1ccccn1 (optimized conformer: 81.48771336148505 kcal/mol)

>  <smiles>  (7) 
O=S(=O)(Nc1cccc(-c2ccc(-c3ccccc3)s2)c1)c1ccccn1

>  <score_type>  (7) 
oracle

>  <origin>  (7) 
adg

>  <m_score__min__energy>  (7) 
-11.18

>  <m_primary>  (7) 
energy

$$$$
7:0
     RDKit          3D

 52 55  0  0  0  0  0  0  0  0999 V2000
    0.4170   18.6920  -29.7040 C   0  0  0  0  0  0  0  0  0  0  0  0
    0.6140   19.4950  -30.8640 O   0  0  0  0  0  0  0  0  0  0  0  0
   -0.3480   19.6900  -31.8680 C   0  0  0  0  0  0  0  0  0  0  0  0
   -0.3850   20.9310  -32.5150 C   0  0  0  0  0  0  0  0  0  0  0  0
   -1.3130   21.1730  -33.5310 C   0  0  0  0  0  0  0  0  0  0  0  0
   -2.2230   20.1800  -33.8980 C   0  0  0  0  0  0  0  0  0  0  0  0
   -2.2230   18.9380  -33.2480 C   0  0  0  0  0  0  0  0  0  0  0  0
   -3.1750   17.9510  -33.6740 N   0  0  0  0  0  0  0  0  0  0  0  0
   -4.4600   18.1630  -34.2790 C   0  0  0  0  0  0  0  0  0  0  0  0
   -4.6740   17.7970  -35.4640 O   0  0  0  0  0  0  0  0  0  0  0  0
   -5.5530   18.7750  -33.4870 C   0  0  0  0  0  0  0  0  0  0  0  0
   -6.6130   17.9900  -33.0110 C   0  0  0  0  0  0  0  0  0  0  0  0
   -7.6540   18.5690  -32.2860 C   0  0  0  0  0  0  0  0  0  0  0  0
   -7.6560   19.9400  -32.0070 C   0  0  0  0  0  0  0  0  0  0  0  0
   -6.5610   20.7420  -32.4170 C   0  0  0  0  0  0  0  0  0  0  0  0
   -5.5400   20.1490  -33.1900 C   0  0  0  0  0  0  0  0  0  0  0  0
   -6.4470   22.1180  -31.9880 N   0  0  0  0  0  0  0  0  0  0  0  0
   -4.8810   22.8620  -31.7670 S   0  0  0  0  0  0  0  0  0  0  0  0
   -4.0210   22.6630  -32.9820 O   0  0  0  0  0  0  0  0  0  0  0  0
   -5.0640   24.3420  -31.5640 O   0  0  0  0  0  0  0  0  0  0  0  0
   -4.0800   22.1420  -30.3730 C   0  0  0  0  0  0  0  0  0  0  0  0
   -3.2690   21.0140  -30.5440 C   0  0  0  0  0  0  0  0  0  0  0  0
   -2.6290   20.4320  -29.4440 C   0  0  0  0  0  0  0  0  0  0  0  0
   -2.7970   20.9700  -28.1610 C   0  0  0  0  0  0  0  0  0  0  0  0
   -2.0920   20.3500  -26.9910 C   0  0  0  0  0  0  0  0  0  0  0  0
   -3.6110   22.1030  -27.9900 C   0  0  0  0  0  0  0  0  0  0  0  0
   -4.2500   22.6830  -29.0920 C   0  0  0  0  0  0  0  0  0  0  0  0
   -7.6390   22.8520  -31.5610 C   0  0  0  0  0  0  0  0  0  0  0  0
   -8.3610   22.0650  -30.4800 C   0  0  0  0  0  0  0  0  0  0  0  0
   -9.1440   20.6170  -31.2380 S   0  0  0  0  0  0  0  0  0  0  0  0
   -1.2620   18.6870  -32.2470 C   0  0  0  0  0  0  0  0  0  0  0  0
    0.5675   19.3055  -28.8035 H   0  0  0  0  0  0  0  0  0  0  0  0
   -0.6066   18.2892  -29.7064 H   0  0  0  0  0  0  0  0  0  0  0  0
    1.1380   17.8612  -29.7064 H   0  0  0  0  0  0  0  0  0  0  0  0
    0.3216   21.7212  -32.2213 H   0  0  0  0  0  0  0  0  0  0  0  0
   -1.3266   22.1469  -34.0422 H   0  0  0  0  0  0  0  0  0  0  0  0
   -2.9461   20.3738  -34.7040 H   0  0  0  0  0  0  0  0  0  0  0  0
   -6.6234   16.9084  -33.2112 H   0  0  0  0  0  0  0  0  0  0  0  0
   -8.4833   17.9405  -31.9293 H   0  0  0  0  0  0  0  0  0  0  0  0
   -4.7176   20.7744  -33.5676 H   0  0  0  0  0  0  0  0  0  0  0  0
   -3.1342   20.5833  -31.5472 H   0  0  0  0  0  0  0  0  0  0  0  0
   -1.9907   19.5476  -29.5872 H   0  0  0  0  0  0  0  0  0  0  0  0
   -2.5271   20.7326  -26.0560 H   0  0  0  0  0  0  0  0  0  0  0  0
   -2.2091   19.2569  -27.0295 H   0  0  0  0  0  0  0  0  0  0  0  0
   -1.0229   20.6058  -27.0295 H   0  0  0  0  0  0  0  0  0  0  0  0
   -3.7462   22.5350  -26.9875 H   0  0  0  0  0  0  0  0  0  0  0  0
   -4.8886   23.5676  -28.9516 H   0  0  0  0  0  0  0  0  0  0  0  0
   -7.3418   23.8334  -31.1629 H   0  0  0  0  0  0  0  0  0  0  0  0
   -8.3100   22.9921  -32.4213 H   0  0  0  0  0  0  0  0  0  0  0  0
   -7.6399   21.7382  -29.7163 H   0  0  0  0  0  0  0  0  0  0  0  0
   -9.1250   22.6972  -30.0039 H   0  0  0  0  0  0  0  0  0  0  0  0
   -1.2257   17.7019  -31.7590 H   0  0  0  0  0  0  0  0  0  0  0  0
  1  2  1  0
  2  3  1  0
  3  4  2  0
  4  5  1  0
  5  6  2  0
  6  7  1  0
  7  8  1  0
  8  9  1  0
  9 10  2  0
  9 11  1  0
 11 12  2  0
 12 13  1  0
 13 14  2  0
 14 15  1  0
 15 16  2  0
 15 17  1  0
 17 18  1  0
 18 19  2  0
 18 20  2  0
 18 21  1  0
 21 22  2  0
 22 23  1  0
 23 24  2  0
 24 25  1  0
 24 26  1  0
 26 27  2  0
 17 28  1  0
 28 29  1  0
 29 30  1  0
  7 31  2  0
 31  3  1  0
 16 11  1  0
 27 21  1  0
 30 14  1  0
  1 32  1  0
  1 33  1  0
  1 34  1  0
  4 35  1  0
  5 36  1  0
  6 37  1  0
 12 38  1  0
 13 39  1  0
 16 40  1  0
 22 41  1  0
 23 42  1  0
 25 43  1  0
 25 44  1  0
 25 45  1  0
 26 46  1  0
 27 47  1  0
 28 48  1  0
 28 49  1  0
 29 50  1  0
 29 51  1  0
 31 52  1  0
M  CHG  1   8  -1
M  END
>  <UniqueID>  (8) 
8

>  <SMILES>  (8) 
COc1cccc([N-]C(=O)c2ccc3c(c2)N(S(=O)(=O)c2ccc(C)cc2)CCS3)c1

>  <Energy>  (8) 
69.85612822103396

>  <Genealogy>  (8) 
COc1cccc([N-]C(=O)c2ccc3c(c2)N(S(=O)(=O)c2ccc(C)cc2)CCS3)c1 (protonated)
COc1cccc([N-]C(=O)c2ccc3c(c2)N(S(=O)(=O)c2ccc(C)cc2)CCS3)c1 (3D coordinates assigned)
COc1cccc([N-]C(=O)c2ccc3c(c2)N(S(=O)(=O)c2ccc(C)cc2)CCS3)c1 (nonaromatic ring conformer: 69.85612822103396 kcal/mol)

>  <smiles>  (8) 
COc1cccc(NC(=O)c2ccc3c(c2)N(S(=O)(=O)c2ccc(C)cc2)CCS3)c1

>  <score_type>  (8) 
oracle

>  <origin>  (8) 
adg

>  <m_score__min__energy>  (8) 
-11.640000000000001

>  <m_primary>  (8) 
energy

$$$$
8:0
     RDKit          3D

 48 50  0  0  0  0  0  0  0  0999 V2000
   -6.5200   16.6600  -33.7600 C   0  0  0  0  0  0  0  0  0  0  0  0
   -7.6090   17.2550  -33.0630 O   0  0  0  0  0  0  0  0  0  0  0  0
   -7.6310   18.5840  -32.6140 C   0  0  0  0  0  0  0  0  0  0  0  0
   -8.5450   19.0390  -31.6440 C   0  0  0  0  0  0  0  0  0  0  0  0
   -8.5270   20.3750  -31.2310 C   0  0  0  0  0  0  0  0  0  0  0  0
   -7.6050   21.2760  -31.7830 C   0  0  0  0  0  0  0  0  0  0  0  0
   -7.5650   22.7070  -31.3170 C   0  0  0  0  0  0  0  0  0  0  0  0
   -6.6950   23.5570  -32.2650 C   0  0  0  0  0  0  0  0  0  0  0  0
   -5.3280   23.8020  -31.7560 N   0  0  0  0  0  0  0  0  0  0  0  0
   -5.2970   24.5250  -30.4620 C   0  0  0  0  0  0  0  0  0  0  0  0
   -4.0050   24.2670  -29.6870 C   0  0  0  0  0  0  0  0  0  0  0  0
   -3.8550   22.8250  -29.4770 N   0  0  0  0  0  0  0  0  0  0  0  0
   -3.6490   22.3050  -28.1520 C   0  0  0  0  0  0  0  0  0  0  0  0
   -4.2780   22.8080  -27.1820 O   0  0  0  0  0  0  0  0  0  0  0  0
   -2.7170   21.1830  -27.9030 C   0  0  0  0  0  0  0  0  0  0  0  0
   -3.1160   20.0950  -27.1060 C   0  0  0  0  0  0  0  0  0  0  0  0
   -2.2330   19.0390  -26.8610 C   0  0  0  0  0  0  0  0  0  0  0  0
   -0.9420   19.0650  -27.3960 C   0  0  0  0  0  0  0  0  0  0  0  0
   -0.0870   18.0410  -27.1540 F   0  0  0  0  0  0  0  0  0  0  0  0
   -0.5310   20.1500  -28.1760 C   0  0  0  0  0  0  0  0  0  0  0  0
   -1.4120   21.2080  -28.4270 C   0  0  0  0  0  0  0  0  0  0  0  0
   -4.1560   21.9030  -30.5810 C   0  0  0  0  0  0  0  0  0  0  0  0
   -4.3930   22.6590  -31.9000 C   0  0  0  0  0  0  0  0  0  0  0  0
   -6.6820   20.8180  -32.7370 C   0  0  0  0  0  0  0  0  0  0  0  0
   -6.7020   19.4830  -33.1510 C   0  0  0  0  0  0  0  0  0  0  0  0
   -5.7938   16.2632  -33.0353 H   0  0  0  0  0  0  0  0  0  0  0  0
   -6.8929   15.8403  -34.3917 H   0  0  0  0  0  0  0  0  0  0  0  0
   -6.0317   17.4166  -34.3917 H   0  0  0  0  0  0  0  0  0  0  0  0
   -9.2758   18.3410  -31.2096 H   0  0  0  0  0  0  0  0  0  0  0  0
   -9.2403   20.7212  -30.4686 H   0  0  0  0  0  0  0  0  0  0  0  0
   -8.5876   23.1122  -31.3025 H   0  0  0  0  0  0  0  0  0  0  0  0
   -7.1305   22.7413  -30.3070 H   0  0  0  0  0  0  0  0  0  0  0  0
   -6.6181   23.0333  -33.2293 H   0  0  0  0  0  0  0  0  0  0  0  0
   -7.1844   24.5377  -32.3586 H   0  0  0  0  0  0  0  0  0  0  0  0
   -5.3836   25.6041  -30.6570 H   0  0  0  0  0  0  0  0  0  0  0  0
   -6.1358   24.1599  -29.8511 H   0  0  0  0  0  0  0  0  0  0  0  0
   -3.1478   24.6471  -30.2620 H   0  0  0  0  0  0  0  0  0  0  0  0
   -4.0449   24.7819  -28.7158 H   0  0  0  0  0  0  0  0  0  0  0  0
   -4.1272   20.0748  -26.6735 H   0  0  0  0  0  0  0  0  0  0  0  0
   -2.5550   18.1858  -26.2458 H   0  0  0  0  0  0  0  0  0  0  0  0
    0.4866   20.1721  -28.5931 H   0  0  0  0  0  0  0  0  0  0  0  0
   -1.0826   22.0624  -29.0364 H   0  0  0  0  0  0  0  0  0  0  0  0
   -3.3089   21.2136  -30.7117 H   0  0  0  0  0  0  0  0  0  0  0  0
   -5.0745   21.3525  -30.3295 H   0  0  0  0  0  0  0  0  0  0  0  0
   -3.4273   23.0403  -32.2633 H   0  0  0  0  0  0  0  0  0  0  0  0
   -4.8483   21.9500  -32.6071 H   0  0  0  0  0  0  0  0  0  0  0  0
   -5.9408   21.5120  -33.1599 H   0  0  0  0  0  0  0  0  0  0  0  0
   -5.9811   19.1357  -33.9057 H   0  0  0  0  0  0  0  0  0  0  0  0
  1  2  1  0
  2  3  1  0
  3  4  2  0
  4  5  1  0
  5  6  2  0
  6  7  1  0
  7  8  1  0
  8  9  1  0
  9 10  1  0
 10 11  1  0
 11 12  1  0
 12 13  1  0
 13 14  2  0
 13 15  1  0
 15 16  2  0
 16 17  1  0
 17 18  2  0
 18 19  1  0
 18 20  1  0
 20 21  2  0
 12 22  1  0
 22 23  1  0
  6 24  1  0
 24 25  2  0
 25  3  1  0
 23  9  1  0
 21 15  1  0
  1 26  1  0
  1 27  1  0
  1 28  1  0
  4 29  1  0
  5 30  1  0
  7 31  1  0
  7 32  1  0
  8 33  1  0
  8 34  1  0
 10 35  1  0
 10 36  1  0
 11 37  1  0
 11 38  1  0
 16 39  1  0
 17 40  1  0
 20 41  1  0
 21 42  1  0
 22 43  1  0
 22 44  1  0
 23 45  1  0
 23 46  1  0
 24 47  1  0
 25 48  1  0
M  END
>  <UniqueID>  (9) 
9

>  <SMILES>  (9) 
COc1ccc(CCN2CCN(C(=O)c3ccc(F)cc3)CC2)cc1

>  <Energy>  (9) 
62.60888593781579

>  <Genealogy>  (9) 
COc1ccc(CCN2CCN(C(=O)c3ccc(F)cc3)CC2)cc1 (3D coordinates assigned)
COc1ccc(CCN2CCN(C(=O)c3ccc(F)cc3)CC2)cc1 (nonaromatic ring conformer: 62.60888593781579 kcal/mol)

>  <smiles>  (9) 
COc1ccc(CCN2CCN(C(=O)c3ccc(F)cc3)CC2)cc1

>  <score_type>  (9) 
oracle

>  <origin>  (9) 
adg

>  <m_score__min__energy>  (9) 
-8.0800000000000001

>  <m_primary>  (9) 
energy

$$$$
9:0
     RDKit          3D

 52 55  0  0  0  0  0  0  0  0999 V2000
    0.7680   21.6460  -35.5110 C   0  0  0  0  0  0  0  0  0  0  0  0
    0.0630   21.6670  -34.2740 O   0  0  0  0  0  0  0  0  0  0  0  0
   -1.0030   20.8130  -33.9550 C   0  0  0  0  0  0  0  0  0  0  0  0
   -0.8210   19.4340  -34.1120 C   0  0  0  0  0  0  0  0  0  0  0  0
   -1.8520   18.5440  -33.8070 C   0  0  0  0  0  0  0  0  0  0  0  0
   -3.0760   19.0220  -33.3340 C   0  0  0  0  0  0  0  0  0  0  0  0
   -3.2760   20.4020  -33.1600 C   0  0  0  0  0  0  0  0  0  0  0  0
   -4.5630   20.9250  -32.6370 C   0  0  0  0  0  0  0  0  0  0  0  0
   -5.6680   20.1340  -32.6720 N   0  0  0  0  0  0  0  0  0  0  0  0
   -6.8850   20.5980  -32.2870 C   0  0  0  0  0  0  0  0  0  0  0  0
   -8.0090   19.7610  -32.3660 C   0  0  0  0  0  0  0  0  0  0  0  0
   -9.2710   20.2380  -32.0200 C   0  0  0  0  0  0  0  0  0  0  0  0
   -9.4250   21.5560  -31.5980 C   0  0  0  0  0  0  0  0  0  0  0  0
   -8.3170   22.4030  -31.5110 C   0  0  0  0  0  0  0  0  0  0  0  0
   -7.0190   21.9370  -31.8380 C   0  0  0  0  0  0  0  0  0  0  0  0
   -5.8990   22.7440  -31.7750 N   0  0  0  0  0  0  0  0  0  0  0  0
   -5.9890   24.1660  -31.3640 C   0  0  0  0  0  0  0  0  0  0  0  0
   -4.7810   24.5830  -30.5680 C   0  0  0  0  0  0  0  0  0  0  0  0
   -4.2060   25.6700  -30.8340 O   0  0  0  0  0  0  0  0  0  0  0  0
   -4.3750   23.8390  -29.4130 N   0  0  0  0  0  0  0  0  0  0  0  0
   -3.1420   23.1140  -29.3310 C   0  0  0  0  0  0  0  0  0  0  0  0
   -3.1340   21.7100  -29.3450 C   0  0  0  0  0  0  0  0  0  0  0  0
   -1.9330   21.0090  -29.2170 C   0  0  0  0  0  0  0  0  0  0  0  0
   -0.7300   21.7050  -29.0900 C   0  0  0  0  0  0  0  0  0  0  0  0
   -0.7240   23.1030  -29.0960 C   0  0  0  0  0  0  0  0  0  0  0  0
   -1.9320   23.8190  -29.2130 C   0  0  0  0  0  0  0  0  0  0  0  0
   -1.9710   25.2210  -29.1830 O   0  0  0  0  0  0  0  0  0  0  0  0
   -1.2620   26.0260  -28.2470 C   0  0  0  0  0  0  0  0  0  0  0  0
   -4.6790   22.2490  -32.1770 C   0  0  0  0  0  0  0  0  0  0  0  0
   -3.6580   22.9940  -32.1790 O   0  0  0  0  0  0  0  0  0  0  0  0
   -2.2400   21.2940  -33.4830 C   0  0  0  0  0  0  0  0  0  0  0  0
    1.8501   21.6138  -35.3158 H   0  0  0  0  0  0  0  0  0  0  0  0
    0.4725   20.7563  -36.0864 H   0  0  0  0  0  0  0  0  0  0  0  0
    0.5260   22.5518  -36.0864 H   0  0  0  0  0  0  0  0  0  0  0  0
    0.1419   19.0488  -34.4786 H   0  0  0  0  0  0  0  0  0  0  0  0
   -1.7000   17.4627  -33.9396 H   0  0  0  0  0  0  0  0  0  0  0  0
   -3.8858   18.3163  -33.0970 H   0  0  0  0  0  0  0  0  0  0  0  0
   -5.5780   19.1490  -33.0110 H   0  0  0  0  0  0  0  0  0  0  0  0
   -7.8923   18.7206  -32.7037 H   0  0  0  0  0  0  0  0  0  0  0  0
  -10.1457   19.5738  -32.0801 H   0  0  0  0  0  0  0  0  0  0  0  0
  -10.4238   21.9323  -31.3318 H   0  0  0  0  0  0  0  0  0  0  0  0
   -8.4539   23.4445  -31.1846 H   0  0  0  0  0  0  0  0  0  0  0  0
   -6.0600   24.7951  -32.2635 H   0  0  0  0  0  0  0  0  0  0  0  0
   -6.8807   24.2888  -30.7317 H   0  0  0  0  0  0  0  0  0  0  0  0
   -4.0794   21.1590  -29.4575 H   0  0  0  0  0  0  0  0  0  0  0  0
   -1.9352   19.9090  -29.2163 H   0  0  0  0  0  0  0  0  0  0  0  0
    0.2154   21.1525  -28.9850 H   0  0  0  0  0  0  0  0  0  0  0  0
    0.2283   23.6467  -29.0090 H   0  0  0  0  0  0  0  0  0  0  0  0
   -1.5301   25.7216  -27.2245 H   0  0  0  0  0  0  0  0  0  0  0  0
   -0.1801   25.8955  -28.3966 H   0  0  0  0  0  0  0  0  0  0  0  0
   -1.5281   27.0828  -28.3966 H   0  0  0  0  0  0  0  0  0  0  0  0
   -2.3959   22.3766  -33.3664 H   0  0  0  0  0  0  0  0  0  0  0  0
  1  2  1  0
  2  3  1  0
  3  4  2  0
  4  5  1  0
  5  6  2  0
  6  7  1  0
  7  8  1  0
  8  9  2  0
  9 10  1  0
 10 11  2  0
 11 12  1  0
 12 13  2  0
 13 14  1  0
 14 15  2  0
 15 16  1  0
 16 17  1  0
 17 18  1  0
 18 19  2  0
 18 20  1  0
 20 21  1  0
 21 22  2  0
 22 23  1  0
 23 24  2  0
 24 25  1  0
 25 26  2  0
 26 27  1  0
 27 28  1  0
 16 29  1  0
 29 30  2  0
  7 31  2  0
 31  3  1  0
 29  8  1  0
 15 10  1  0
 26 21  1  0
  1 32  1  0
  1 33  1  0
  1 34  1  0
  4 35  1  0
  5 36  1  0
  6 37  1  0
  9 38  1  0
 11 39  1  0
 12 40  1  0
 13 41  1  0
 14 42  1  0
 17 43  1  0
 17 44  1  0
 22 45  1  0
 23 46  1  0
 24 47  1  0
 25 48  1  0
 28 49  1  0
 28 50  1  0
 28 51  1  0
 31 52  1  0
M  CHG  2   9   1  20  -1
M  END
>  <UniqueID>  (10) 
10

>  <SMILES>  (10) 
COc1cccc(-c2[nH+]c3ccccc3n(CC(=O)[N-]c3ccccc3OC)c2=O)c1

>  <Energy>  (10) 
74.90399064124418

>  <Genealogy>  (10) 
COc1cccc(-c2[nH+]c3ccccc3n(CC(=O)[N-]c3ccccc3OC)c2=O)c1 (protonated)
COc1cccc(-c2[nH+]c3ccccc3n(CC(=O)[N-]c3ccccc3OC)c2=O)c1 (3D coordinates assigned)
COc1cccc(-c2[nH+]c3ccccc3n(CC(=O)[N-]c3ccccc3OC)c2=O)c1 (optimized conformer: 74.90399064124418 kcal/mol)

>  <smiles>  (10) 
COc1cccc(-c2nc3ccccc3n(CC(=O)Nc3ccccc3OC)c2=O)c1

>  <score_type>  (10) 
oracle

>  <origin>  (10) 
adg

>  <m_score__min__energy>  (10) 
-11.1

>  <m_primary>  (10) 
energy

$$$$
10:0
     RDKit          3D

 33 36  0  0  0  0  0  0  0  0999 V2000
   -4.2440   25.6690  -30.8160 O   0  0  0  0  0  0  0  0  0  0  0  0
   -4.4630   24.4480  -30.5880 C   0  0  0  0  0  0  0  0  0  0  0  0
   -5.6350   23.8570  -31.0600 C   0  0  0  0  0  0  0  0  0  0  0  0
   -5.8730   22.4990  -30.7980 C   0  0  0  0  0  0  0  0  0  0  0  0
   -7.1030   21.8380  -31.2930 C   0  0  0  0  0  0  0  0  0  0  0  0
   -8.2830   22.5980  -31.3720 C   0  0  0  0  0  0  0  0  0  0  0  0
   -9.4540   22.0470  -31.8910 C   0  0  0  0  0  0  0  0  0  0  0  0
   -9.4710   20.7300  -32.3430 C   0  0  0  0  0  0  0  0  0  0  0  0
   -8.3160   19.9410  -32.2650 C   0  0  0  0  0  0  0  0  0  0  0  0
   -8.3460   18.6090  -32.7090 C   0  0  0  0  0  0  0  0  0  0  0  0
   -7.2080   17.8090  -32.6110 C   0  0  0  0  0  0  0  0  0  0  0  0
   -6.0340   18.3240  -32.0650 C   0  0  0  0  0  0  0  0  0  0  0  0
   -5.9850   19.6490  -31.6210 C   0  0  0  0  0  0  0  0  0  0  0  0
   -7.1160   20.4870  -31.7300 C   0  0  0  0  0  0  0  0  0  0  0  0
   -4.9810   21.7890  -30.1100 O   0  0  0  0  0  0  0  0  0  0  0  0
   -3.8510   22.3100  -29.6390 C   0  0  0  0  0  0  0  0  0  0  0  0
   -2.9630   21.5030  -28.9200 C   0  0  0  0  0  0  0  0  0  0  0  0
   -1.7740   22.0400  -28.4200 C   0  0  0  0  0  0  0  0  0  0  0  0
   -1.4650   23.3870  -28.6370 C   0  0  0  0  0  0  0  0  0  0  0  0
   -2.3450   24.2030  -29.3540 C   0  0  0  0  0  0  0  0  0  0  0  0
   -3.5450   23.6720  -29.8610 C   0  0  0  0  0  0  0  0  0  0  0  0
   -6.3649   24.4491  -31.6315 H   0  0  0  0  0  0  0  0  0  0  0  0
   -8.2825   23.6402  -31.0201 H   0  0  0  0  0  0  0  0  0  0  0  0
  -10.3688   22.6556  -31.9436 H   0  0  0  0  0  0  0  0  0  0  0  0
  -10.3955   20.3072  -32.7632 H   0  0  0  0  0  0  0  0  0  0  0  0
   -9.2713   18.1949  -33.1360 H   0  0  0  0  0  0  0  0  0  0  0  0
   -7.2372   16.7682  -32.9658 H   0  0  0  0  0  0  0  0  0  0  0  0
   -5.1420   17.6855  -31.9829 H   0  0  0  0  0  0  0  0  0  0  0  0
   -5.0561   20.0424  -31.1824 H   0  0  0  0  0  0  0  0  0  0  0  0
   -3.2014   20.4430  -28.7478 H   0  0  0  0  0  0  0  0  0  0  0  0
   -1.0791   21.4020  -27.8543 H   0  0  0  0  0  0  0  0  0  0  0  0
   -0.5272   23.8052  -28.2425 H   0  0  0  0  0  0  0  0  0  0  0  0
   -2.0987   25.2618  -29.5220 H   0  0  0  0  0  0  0  0  0  0  0  0
  1  2  2  0
  2  3  1  0
  3  4  2  0
  4  5  1  0
  5  6  2  0
  6  7  1  0
  7  8  2  0
  8  9  1  0
  9 10  2  0
 10 11  1  0
 11 12  2  0
 12 13  1  0
 13 14  2  0
  4 15  1  0
 15 16  1  0
 16 17  2  0
 17 18  1  0
 18 19  2  0
 19 20  1  0
 20 21  2  0
 21  2  1  0
 14  5  1  0
 21 16  1  0
 14  9  1  0
  3 22  1  0
  6 23  1  0
  7 24  1  0
  8 25  1  0
 10 26  1  0
 11 27  1  0
 12 28  1  0
 13 29  1  0
 17 30  1  0
 18 31  1  0
 19 32  1  0
 20 33  1  0
M  END
>  <UniqueID>  (11) 
11

>  <SMILES>  (11) 
O=c1cc(-c2cccc3ccccc23)oc2ccccc12

>  <Energy>  (11) 
53.87747615070663

>  <Genealogy>  (11) 
O=c1cc(-c2cccc3ccccc23)oc2ccccc12 (3D coordinates assigned)
O=c1cc(-c2cccc3ccccc23)oc2ccccc12 (optimized conformer: 53.87747615070663 kcal/mol)

>  <smiles>  (11) 
O=c1cc(-c2cccc3ccccc23)oc2ccccc12

>  <score_type>  (11) 
oracle

>  <origin>  (11) 
adg

>  <m_score__min__energy>  (11) 
-8.6799999999999997

>  <m_primary>  (11) 
energy

$$$$
11:0
     RDKit          3D

 36 37  0  0  0  0  0  0  0  0999 V2000
   -6.0970   25.7730  -29.7110 C   0  0  0  0  0  0  0  0  0  0  0  0
   -5.0100   24.5000  -30.3160 S   0  0  0  0  0  0  0  0  0  0  0  0
   -4.9830   23.3770  -29.3180 O   0  0  0  0  0  0  0  0  0  0  0  0
   -3.6150   25.0340  -30.4810 O   0  0  0  0  0  0  0  0  0  0  0  0
   -5.5930   23.8850  -31.8290 N   0  0  0  0  0  0  0  0  0  0  0  0
   -6.4200   22.7230  -32.0130 C   0  0  0  0  0  0  0  0  0  0  0  0
   -7.8190   22.7950  -31.8900 C   0  0  0  0  0  0  0  0  0  0  0  0
   -8.6040   21.6510  -32.0430 C   0  0  0  0  0  0  0  0  0  0  0  0
   -8.0070   20.4250  -32.3270 C   0  0  0  0  0  0  0  0  0  0  0  0
   -6.6200   20.3320  -32.4560 C   0  0  0  0  0  0  0  0  0  0  0  0
   -6.0730   19.1320  -32.7790 F   0  0  0  0  0  0  0  0  0  0  0  0
   -5.8110   21.4760  -32.2970 C   0  0  0  0  0  0  0  0  0  0  0  0
   -4.3410   21.3640  -32.4430 C   0  0  0  0  0  0  0  0  0  0  0  0
   -3.8590   20.6020  -33.3260 O   0  0  0  0  0  0  0  0  0  0  0  0
   -3.4640   22.1150  -31.5900 N   0  0  0  0  0  0  0  0  0  0  0  0
   -2.0130   21.8920  -31.5770 C   0  0  0  0  0  0  0  0  0  0  0  0
   -1.3460   22.6860  -30.4590 C   0  0  0  0  0  0  0  0  0  0  0  0
   -1.4110   21.7970  -29.2230 C   0  0  0  0  0  0  0  0  0  0  0  0
   -1.6270   20.3680  -29.7200 C   0  0  0  0  0  0  0  0  0  0  0  0
   -1.7040   20.4370  -31.2400 C   0  0  0  0  0  0  0  0  0  0  0  0
   -6.0920   25.7672  -28.6110 H   0  0  0  0  0  0  0  0  0  0  0  0
   -5.7524   26.7525  -30.0740 H   0  0  0  0  0  0  0  0  0  0  0  0
   -7.1184   25.5861  -30.0740 H   0  0  0  0  0  0  0  0  0  0  0  0
   -8.2985   23.7606  -31.6715 H   0  0  0  0  0  0  0  0  0  0  0  0
   -9.6970   21.7178  -31.9390 H   0  0  0  0  0  0  0  0  0  0  0  0
   -8.6304   19.5271  -32.4500 H   0  0  0  0  0  0  0  0  0  0  0  0
   -3.8760   22.8720  -30.9970 H   0  0  0  0  0  0  0  0  0  0  0  0
   -1.6467   22.1879  -32.5711 H   0  0  0  0  0  0  0  0  0  0  0  0
   -0.2999   22.9069  -30.7175 H   0  0  0  0  0  0  0  0  0  0  0  0
   -1.8486   23.6500  -30.2914 H   0  0  0  0  0  0  0  0  0  0  0  0
   -0.4694   21.8636  -28.6583 H   0  0  0  0  0  0  0  0  0  0  0  0
   -2.2254   22.1100  -28.5531 H   0  0  0  0  0  0  0  0  0  0  0  0
   -0.7863   19.7289  -29.4121 H   0  0  0  0  0  0  0  0  0  0  0  0
   -2.5472   19.9382  -29.2975 H   0  0  0  0  0  0  0  0  0  0  0  0
   -0.7444   20.1364  -31.6858 H   0  0  0  0  0  0  0  0  0  0  0  0
   -2.4734   19.7583  -31.6367 H   0  0  0  0  0  0  0  0  0  0  0  0
  1  2  1  0
  2  3  2  0
  2  4  2  0
  2  5  1  0
  5  6  1  0
  6  7  2  0
  7  8  1  0
  8  9  2  0
  9 10  1  0
 10 11  1  0
 10 12  2  0
 12 13  1  0
 13 14  2  0
 13 15  1  0
 15 16  1  0
 16 17  1  0
 17 18  1  0
 18 19  1  0
 19 20  1  0
 12  6  1  0
 20 16  1  0
  1 21  1  0
  1 22  1  0
  1 23  1  0
  7 24  1  0
  8 25  1  0
  9 26  1  0
 15 27  1  0
 16 28  1  0
 17 29  1  0
 17 30  1  0
 18 31  1  0
 18 32  1  0
 19 33  1  0
 19 34  1  0
 20 35  1  0
 20 36  1  0
M  CHG  1   5  -1
M  END
>  <UniqueID>  (12) 
12

>  <SMILES>  (12) 
CS(=O)(=O)[N-]c1cccc(F)c1C(=O)NC1CCCC1

>  <Energy>  (12) 
38.07792895531741

>  <Genealogy>  (12) 
CS(=O)(=O)[N-]c1cccc(F)c1C(=O)NC1CCCC1 (protonated)
CS(=O)(=O)[N-]c1cccc(F)c1C(=O)NC1CCCC1 (3D coordinates assigned)
CS(=O)(=O)[N-]c1cccc(F)c1C(=O)NC1CCCC1 (nonaromatic ring conformer: 38.07792895531741 kcal/mol)

>  <smiles>  (12) 
CS(=O)(=O)Nc1cccc(F)c1C(=O)NC1CCCC1

>  <score_type>  (12) 
oracle

>  <origin>  (12) 
adg

>  <m_score__min__energy>  (12) 
-7.5099999999999998

>  <m_primary>  (12) 
energy

$$$$
12:0
     RDKit          3D

 49 51  0  0  0  0  0  0  0  0999 V2000
   -5.3110   25.3520  -30.6000 C   0  0  0  0  0  0  0  0  0  0  0  0
   -3.9070   25.3000  -30.4590 O   0  0  0  0  0  0  0  0  0  0  0  0
   -3.5450   24.2610  -29.5720 C   0  0  0  0  0  0  0  0  0  0  0  0
   -3.2000   23.0160  -30.3270 C   0  0  0  0  0  0  0  0  0  0  0  0
   -4.0720   22.0200  -30.5800 N   0  0  0  0  0  0  0  0  0  0  0  0
   -3.3930   21.1320  -31.2860 N   0  0  0  0  0  0  0  0  0  0  0  0
   -2.1440   21.6070  -31.4430 C   0  0  0  0  0  0  0  0  0  0  0  0
   -1.0610   20.9130  -32.2290 C   0  0  0  0  0  0  0  0  0  0  0  0
   -1.2250   21.1290  -33.7530 C   0  0  0  0  0  0  0  0  0  0  0  0
   -2.0150   19.9980  -34.4410 C   0  0  0  0  0  0  0  0  0  0  0  0
   -2.9590   19.3850  -33.4910 N   0  0  0  0  0  0  0  0  0  0  0  0
   -4.0430   18.6060  -34.1340 C   0  0  0  0  0  0  0  0  0  0  0  0
   -5.4170   18.8080  -33.5060 C   0  0  0  0  0  0  0  0  0  0  0  0
   -5.7850   20.1030  -33.0960 C   0  0  0  0  0  0  0  0  0  0  0  0
   -7.0400   20.3530  -32.5260 C   0  0  0  0  0  0  0  0  0  0  0  0
   -7.4310   21.7500  -32.1460 C   0  0  0  0  0  0  0  0  0  0  0  0
   -7.9470   19.3000  -32.3690 C   0  0  0  0  0  0  0  0  0  0  0  0
   -7.5870   18.0030  -32.7320 C   0  0  0  0  0  0  0  0  0  0  0  0
   -6.3250   17.7350  -33.2920 C   0  0  0  0  0  0  0  0  0  0  0  0
   -5.9590   16.3030  -33.5880 C   0  0  0  0  0  0  0  0  0  0  0  0
   -2.2670   18.6570  -32.4050 C   0  0  0  0  0  0  0  0  0  0  0  0
   -1.0250   19.4150  -31.8850 C   0  0  0  0  0  0  0  0  0  0  0  0
   -2.0220   22.7740  -30.8580 O   0  0  0  0  0  0  0  0  0  0  0  0
   -5.7791   25.3693  -29.6047 H   0  0  0  0  0  0  0  0  0  0  0  0
   -5.5906   26.2611  -31.1526 H   0  0  0  0  0  0  0  0  0  0  0  0
   -5.6571   24.4661  -31.1526 H   0  0  0  0  0  0  0  0  0  0  0  0
   -2.6730   24.5782  -28.9813 H   0  0  0  0  0  0  0  0  0  0  0  0
   -4.3977   24.0481  -28.9105 H   0  0  0  0  0  0  0  0  0  0  0  0
   -3.7820   20.2370  -31.6550 H   0  0  0  0  0  0  0  0  0  0  0  0
   -0.0991   21.3626  -31.9416 H   0  0  0  0  0  0  0  0  0  0  0  0
   -1.7567   22.0778  -33.9172 H   0  0  0  0  0  0  0  0  0  0  0  0
   -0.2172   21.1410  -34.1936 H   0  0  0  0  0  0  0  0  0  0  0  0
   -2.5744   20.4119  -35.2929 H   0  0  0  0  0  0  0  0  0  0  0  0
   -1.3098   19.2301  -34.7917 H   0  0  0  0  0  0  0  0  0  0  0  0
   -4.1004   18.9032  -35.1915 H   0  0  0  0  0  0  0  0  0  0  0  0
   -3.7890   17.5439  -34.0020 H   0  0  0  0  0  0  0  0  0  0  0  0
   -5.0750   20.9332  -33.2253 H   0  0  0  0  0  0  0  0  0  0  0  0
   -7.4558   21.8385  -31.0498 H   0  0  0  0  0  0  0  0  0  0  0  0
   -6.6971   22.4602  -32.5547 H   0  0  0  0  0  0  0  0  0  0  0  0
   -8.4269   21.9760  -32.5547 H   0  0  0  0  0  0  0  0  0  0  0  0
   -8.9482   19.4959  -31.9576 H   0  0  0  0  0  0  0  0  0  0  0  0
   -8.2991   17.1787  -32.5785 H   0  0  0  0  0  0  0  0  0  0  0  0
   -5.8195   15.7574  -32.6431 H   0  0  0  0  0  0  0  0  0  0  0  0
   -6.7654   15.8309  -34.1685 H   0  0  0  0  0  0  0  0  0  0  0  0
   -5.0250   16.2757  -34.1685 H   0  0  0  0  0  0  0  0  0  0  0  0
   -2.9698   18.5162  -31.5706 H   0  0  0  0  0  0  0  0  0  0  0  0
   -1.9256   17.6937  -32.8118 H   0  0  0  0  0  0  0  0  0  0  0  0
   -0.9774   19.3055  -30.7915 H   0  0  0  0  0  0  0  0  0  0  0  0
   -0.1404   18.9815  -32.3745 H   0  0  0  0  0  0  0  0  0  0  0  0
  1  2  1  0
  2  3  1  0
  3  4  1  0
  4  5  2  0
  5  6  1  0
  6  7  2  0
  7  8  1  0
  8  9  1  0
  9 10  1  0
 10 11  1  0
 11 12  1  0
 12 13  1  0
 13 14  2  0
 14 15  1  0
 15 16  1  0
 15 17  2  0
 17 18  1  0
 18 19  2  0
 19 20  1  0
 11 21  1  0
 21 22  1  0
  7 23  1  0
 23  4  1  0
 22  8  1  0
 19 13  1  0
  1 24  1  0
  1 25  1  0
  1 26  1  0
  3 27  1  0
  3 28  1  0
  6 29  1  0
  8 30  1  0
  9 31  1  0
  9 32  1  0
 10 33  1  0
 10 34  1  0
 12 35  1  0
 12 36  1  0
 14 37  1  0
 16 38  1  0
 16 39  1  0
 16 40  1  0
 17 41  1  0
 18 42  1  0
 20 43  1  0
 20 44  1  0
 20 45  1  0
 21 46  1  0
 21 47  1  0
 22 48  1  0
 22 49  1  0
M  CHG  1   6   1
M  END
>  <UniqueID>  (13) 
13

>  <SMILES>  (13) 
COCc1n[nH+]c(C2CCN(Cc3cc(C)ccc3C)CC2)o1

>  <Energy>  (13) 
94.96799187497258

>  <Genealogy>  (13) 
COCc1n[nH+]c(C2CCN(Cc3cc(C)ccc3C)CC2)o1 (protonated)
COCc1n[nH+]c(C2CCN(Cc3cc(C)ccc3C)CC2)o1 (3D coordinates assigned)
COCc1n[nH+]c(C2CCN(Cc3cc(C)ccc3C)CC2)o1 (nonaromatic ring conformer: 94.96799187497258 kcal/mol)

>  <smiles>  (13) 
COCc1nnc(C2CCN(Cc3cc(C)ccc3C)CC2)o1

>  <score_type>  (13) 
oracle

>  <origin>  (13) 
adg

>  <m_score__min__energy>  (13) 
-6.8799999999999999

>  <m_primary>  (13) 
energy

$$$$
13:0
     RDKit          3D

 37 39  0  0  0  0  0  0  0  0999 V2000
   -6.8470   25.1650  -29.7670 C   0  0  0  0  0  0  0  0  0  0  0  0
   -6.6110   23.8760  -30.5000 C   0  0  0  0  0  0  0  0  0  0  0  0
   -7.6920   23.1480  -30.8870 N   0  0  0  0  0  0  0  0  0  0  0  0
   -7.5620   21.9830  -31.5690 C   0  0  0  0  0  0  0  0  0  0  0  0
   -8.6950   21.2580  -31.9560 C   0  0  0  0  0  0  0  0  0  0  0  0
   -8.5470   20.0590  -32.6610 C   0  0  0  0  0  0  0  0  0  0  0  0
   -7.2700   19.5850  -32.9810 C   0  0  0  0  0  0  0  0  0  0  0  0
   -6.1340   20.3070  -32.5960 C   0  0  0  0  0  0  0  0  0  0  0  0
   -6.2750   21.5110  -31.8890 C   0  0  0  0  0  0  0  0  0  0  0  0
   -5.1850   22.2300  -31.5000 N   0  0  0  0  0  0  0  0  0  0  0  0
   -5.3130   23.4020  -30.8090 C   0  0  0  0  0  0  0  0  0  0  0  0
   -4.0860   24.1280  -30.3980 C   0  0  0  0  0  0  0  0  0  0  0  0
   -3.8620   25.2830  -30.8500 O   0  0  0  0  0  0  0  0  0  0  0  0
   -3.1710   23.5520  -29.4450 N   0  0  0  0  0  0  0  0  0  0  0  0
   -2.5410   22.2600  -29.7420 C   0  0  0  0  0  0  0  0  0  0  0  0
   -2.7140   24.3420  -28.3250 C   0  0  0  0  0  0  0  0  0  0  0  0
   -1.4350   24.9330  -28.3260 C   0  0  0  0  0  0  0  0  0  0  0  0
   -1.0040   25.6900  -27.2320 C   0  0  0  0  0  0  0  0  0  0  0  0
   -1.8400   25.8650  -26.1270 C   0  0  0  0  0  0  0  0  0  0  0  0
   -3.1090   25.2820  -26.1140 C   0  0  0  0  0  0  0  0  0  0  0  0
   -3.5450   24.5250  -27.2040 C   0  0  0  0  0  0  0  0  0  0  0  0
   -6.8135   24.9818  -28.6829 H   0  0  0  0  0  0  0  0  0  0  0  0
   -6.0668   25.8905  -30.0406 H   0  0  0  0  0  0  0  0  0  0  0  0
   -7.8337   25.5670  -30.0406 H   0  0  0  0  0  0  0  0  0  0  0  0
   -9.6995   21.6303  -31.7063 H   0  0  0  0  0  0  0  0  0  0  0  0
   -9.4365   19.4875  -32.9645 H   0  0  0  0  0  0  0  0  0  0  0  0
   -7.1583   18.6423  -33.5367 H   0  0  0  0  0  0  0  0  0  0  0  0
   -5.1314   19.9307  -32.8476 H   0  0  0  0  0  0  0  0  0  0  0  0
   -4.2300   21.8670  -31.7230 H   0  0  0  0  0  0  0  0  0  0  0  0
   -2.2916   21.7486  -28.8006 H   0  0  0  0  0  0  0  0  0  0  0  0
   -3.2369   21.6379  -30.3240 H   0  0  0  0  0  0  0  0  0  0  0  0
   -1.6223   22.4252  -30.3240 H   0  0  0  0  0  0  0  0  0  0  0  0
   -0.7713   24.7981  -29.1928 H   0  0  0  0  0  0  0  0  0  0  0  0
   -0.0042   26.1487  -27.2418 H   0  0  0  0  0  0  0  0  0  0  0  0
   -1.4993   26.4614  -25.2678 H   0  0  0  0  0  0  0  0  0  0  0  0
   -3.7669   25.4193  -25.2432 H   0  0  0  0  0  0  0  0  0  0  0  0
   -4.5456   24.0684  -27.1860 H   0  0  0  0  0  0  0  0  0  0  0  0
  1  2  1  0
  2  3  2  0
  3  4  1  0
  4  5  2  0
  5  6  1  0
  6  7  2  0
  7  8  1  0
  8  9  2  0
  9 10  1  0
 10 11  2  0
 11 12  1  0
 12 13  2  0
 12 14  1  0
 14 15  1  0
 14 16  1  0
 16 17  2  0
 17 18  1  0
 18 19  2  0
 19 20  1  0
 20 21  2  0
 11  2  1  0
 21 16  1  0
  9  4  1  0
  1 22  1  0
  1 23  1  0
  1 24  1  0
  5 25  1  0
  6 26  1  0
  7 27  1  0
  8 28  1  0
 10 29  1  0
 15 30  1  0
 15 31  1  0
 15 32  1  0
 17 33  1  0
 18 34  1  0
 19 35  1  0
 20 36  1  0
 21 37  1  0
M  CHG  1  10   1
M  END
>  <UniqueID>  (14) 
14

>  <SMILES>  (14) 
Cc1nc2ccccc2[nH+]c1C(=O)N(C)c1ccccc1

>  <Energy>  (14) 
53.773180496374

>  <Genealogy>  (14) 
Cc1nc2ccccc2[nH+]c1C(=O)N(C)c1ccccc1 (protonated)
Cc1nc2ccccc2[nH+]c1C(=O)N(C)c1ccccc1 (3D coordinates assigned)
Cc1nc2ccccc2[nH+]c1C(=O)N(C)c1ccccc1 (optimized conformer: 53.773180496374 kcal/mol)

>  <smiles>  (14) 
Cc1nc2ccccc2nc1C(=O)N(C)c1ccccc1

>  <score_type>  (14) 
oracle

>  <origin>  (14) 
adg

>  <m_score__min__energy>  (14) 
-7.6299999999999999

>  <m_primary>  (14) 
energy

$$$$
14:0
     RDKit          3D

 51 54  0  0  0  0  0  0  0  0999 V2000
   -3.7810   20.9780  -33.1030 C   0  0  0  0  0  0  0  0  0  0  0  0
   -5.0610   20.2630  -33.0070 N   0  0  0  0  0  0  0  0  0  0  0  0
   -5.3100   19.8480  -31.6130 C   0  0  0  0  0  0  0  0  0  0  0  0
   -6.5040   18.8720  -31.5110 C   0  0  0  0  0  0  0  0  0  0  0  0
   -7.2950   18.8150  -32.7570 N   0  0  0  0  0  0  0  0  0  0  0  0
   -8.0700   20.0520  -33.0100 C   0  0  0  0  0  0  0  0  0  0  0  0
   -8.6490   20.5660  -31.6870 C   0  0  0  0  0  0  0  0  0  0  0  0
   -8.6670   22.0970  -31.6100 C   0  0  0  0  0  0  0  0  0  0  0  0
   -7.3170   22.6360  -31.4600 N   0  0  0  0  0  0  0  0  0  0  0  0
   -6.6040   22.7280  -30.3240 C   0  0  0  0  0  0  0  0  0  0  0  0
   -5.3810   23.2820  -30.6760 C   0  0  0  0  0  0  0  0  0  0  0  0
   -4.2380   23.6070  -29.7870 C   0  0  0  0  0  0  0  0  0  0  0  0
   -2.9260   23.3400  -30.2180 C   0  0  0  0  0  0  0  0  0  0  0  0
   -1.8320   23.6350  -29.4030 C   0  0  0  0  0  0  0  0  0  0  0  0
   -2.0300   24.2000  -28.1350 C   0  0  0  0  0  0  0  0  0  0  0  0
   -0.9360   24.4920  -27.3050 C   0  0  0  0  0  0  0  0  0  0  0  0
   -1.1440   25.0490  -26.0390 C   0  0  0  0  0  0  0  0  0  0  0  0
   -2.4420   25.3210  -25.5980 C   0  0  0  0  0  0  0  0  0  0  0  0
   -3.5400   25.0380  -26.4160 C   0  0  0  0  0  0  0  0  0  0  0  0
   -3.3450   24.4750  -27.6880 C   0  0  0  0  0  0  0  0  0  0  0  0
   -4.4390   24.1800  -28.5160 C   0  0  0  0  0  0  0  0  0  0  0  0
   -5.3890   23.5000  -32.0110 N   0  0  0  0  0  0  0  0  0  0  0  0
   -6.5710   23.0960  -32.4500 N   0  0  0  0  0  0  0  0  0  0  0  0
   -6.4550   18.4200  -33.9070 C   0  0  0  0  0  0  0  0  0  0  0  0
   -5.0650   19.0940  -33.9010 C   0  0  0  0  0  0  0  0  0  0  0  0
   -3.4024   21.1895  -32.0921 H   0  0  0  0  0  0  0  0  0  0  0  0
   -3.0532   20.3558  -33.6444 H   0  0  0  0  0  0  0  0  0  0  0  0
   -3.9291   21.9240  -33.6444 H   0  0  0  0  0  0  0  0  0  0  0  0
   -4.4094   19.3513  -31.2228 H   0  0  0  0  0  0  0  0  0  0  0  0
   -5.5508   20.7465  -31.0259 H   0  0  0  0  0  0  0  0  0  0  0  0
   -6.1191   17.8653  -31.2910 H   0  0  0  0  0  0  0  0  0  0  0  0
   -7.1657   19.2354  -30.7109 H   0  0  0  0  0  0  0  0  0  0  0  0
   -7.4096   20.8171  -33.4441 H   0  0  0  0  0  0  0  0  0  0  0  0
   -8.8891   19.8368  -33.7120 H   0  0  0  0  0  0  0  0  0  0  0  0
   -9.6797   20.1955  -31.5853 H   0  0  0  0  0  0  0  0  0  0  0  0
   -8.0051   20.1978  -30.8747 H   0  0  0  0  0  0  0  0  0  0  0  0
   -9.1123   22.4972  -32.5328 H   0  0  0  0  0  0  0  0  0  0  0  0
   -9.2594   22.3940  -30.7320 H   0  0  0  0  0  0  0  0  0  0  0  0
   -6.9256   22.4248  -29.3167 H   0  0  0  0  0  0  0  0  0  0  0  0
   -2.7601   22.8933  -31.2094 H   0  0  0  0  0  0  0  0  0  0  0  0
   -0.8119   23.4237  -29.7563 H   0  0  0  0  0  0  0  0  0  0  0  0
    0.0869   24.2823  -27.6511 H   0  0  0  0  0  0  0  0  0  0  0  0
   -0.2849   25.2733  -25.3896 H   0  0  0  0  0  0  0  0  0  0  0  0
   -2.6006   25.7601  -24.6020 H   0  0  0  0  0  0  0  0  0  0  0  0
   -4.5585   25.2567  -26.0628 H   0  0  0  0  0  0  0  0  0  0  0  0
   -5.4603   24.3977  -28.1702 H   0  0  0  0  0  0  0  0  0  0  0  0
   -6.8670   23.1350  -33.4510 H   0  0  0  0  0  0  0  0  0  0  0  0
   -6.3154   17.3292  -33.8805 H   0  0  0  0  0  0  0  0  0  0  0  0
   -6.9742   18.7463  -34.8202 H   0  0  0  0  0  0  0  0  0  0  0  0
   -4.3135   18.3700  -33.5530 H   0  0  0  0  0  0  0  0  0  0  0  0
   -4.8276   19.4272  -34.9221 H   0  0  0  0  0  0  0  0  0  0  0  0
  1  2  1  0
  2  3  1  0
  3  4  1  0
  4  5  1  0
  5  6  1  0
  6  7  1  0
  7  8  1  0
  8  9  1  0
  9 10  1  0
 10 11  2  0
 11 12  1  0
 12 13  2  0
 13 14  1  0
 14 15  2  0
 15 16  1  0
 16 17  2  0
 17 18  1  0
 18 19  2  0
 19 20  1  0
 20 21  2  0
 11 22  1  0
 22 23  2  0
  5 24  1  0
 24 25  1  0
 25  2  1  0
 23  9  1  0
 21 12  1  0
 20 15  1  0
  1 26  1  0
  1 27  1  0
  1 28  1  0
  3 29  1  0
  3 30  1  0
  4 31  1  0
  4 32  1  0
  6 33  1  0
  6 34  1  0
  7 35  1  0
  7 36  1  0
  8 37  1  0
  8 38  1  0
 10 39  1  0
 13 40  1  0
 14 41  1  0
 16 42  1  0
 17 43  1  0
 18 44  1  0
 19 45  1  0
 21 46  1  0
 23 47  1  0
 24 48  1  0
 24 49  1  0
 25 50  1  0
 25 51  1  0
M  CHG  1  23   1
M  END
>  <UniqueID>  (15) 
15

>  <SMILES>  (15) 
CN1CCN(CCCn2cc(-c3ccc4ccccc4c3)n[nH+]2)CC1

>  <Energy>  (15) 
99.75149225358018

>  <Genealogy>  (15) 
CN1CCN(CCCn2cc(-c3ccc4ccccc4c3)n[nH+]2)CC1 (protonated)
CN1CCN(CCCn2cc(-c3ccc4ccccc4c3)n[nH+]2)CC1 (3D coordinates assigned)
CN1CCN(CCCn2cc(-c3ccc4ccccc4c3)n[nH+]2)CC1 (nonaromatic ring conformer: 99.75149225358018 kcal/mol)

>  <smiles>  (15) 
CN1CCN(CCCn2cc(-c3ccc4ccccc4c3)nn2)CC1

>  <score_type>  (15) 
oracle

>  <origin>  (15) 
adg

>  <m_score__min__energy>  (15) 
-8.6899999999999995

>  <m_primary>  (15) 
energy

$$$$
15:0
     RDKit          3D

 58 60  0  0  0  0  0  0  0  0999 V2000
   -5.8130   18.2550  -34.7750 C   0  0  0  0  0  0  0  0  0  0  0  0
   -6.7020   17.3630  -33.9080 C   0  0  0  0  0  0  0  0  0  0  0  0
   -6.7430   17.8490  -32.5080 N   0  0  0  0  0  0  0  0  0  0  0  0
   -5.7090   17.2180  -31.6420 C   0  0  0  0  0  0  0  0  0  0  0  0
   -5.0230   15.9840  -32.2500 C   0  0  0  0  0  0  0  0  0  0  0  0
   -8.1180   17.7960  -31.9580 C   0  0  0  0  0  0  0  0  0  0  0  0
   -8.8380   19.1510  -32.0660 C   0  0  0  0  0  0  0  0  0  0  0  0
   -8.0800   20.0810  -32.9190 N   0  0  0  0  0  0  0  0  0  0  0  0
   -8.0300   21.4410  -32.3550 C   0  0  0  0  0  0  0  0  0  0  0  0
   -6.6020   21.8980  -32.0940 C   0  0  0  0  0  0  0  0  0  0  0  0
   -5.5710   21.1090  -32.6350 C   0  0  0  0  0  0  0  0  0  0  0  0
   -4.2200   21.4270  -32.4350 C   0  0  0  0  0  0  0  0  0  0  0  0
   -3.1510   20.5720  -33.0160 C   0  0  0  0  0  0  0  0  0  0  0  0
   -3.3160   19.1790  -33.1020 C   0  0  0  0  0  0  0  0  0  0  0  0
   -2.3110   18.3760  -33.6500 C   0  0  0  0  0  0  0  0  0  0  0  0
   -1.1190   18.9550  -34.1240 C   0  0  0  0  0  0  0  0  0  0  0  0
   -0.0850   18.1930  -34.6880 O   0  0  0  0  0  0  0  0  0  0  0  0
    0.5680   18.5070  -35.9130 C   0  0  0  0  0  0  0  0  0  0  0  0
   -0.9520   20.3410  -34.0340 C   0  0  0  0  0  0  0  0  0  0  0  0
   -1.9560   21.1450  -33.4890 C   0  0  0  0  0  0  0  0  0  0  0  0
   -3.8920   22.5590  -31.6790 C   0  0  0  0  0  0  0  0  0  0  0  0
   -4.8940   23.3630  -31.1200 C   0  0  0  0  0  0  0  0  0  0  0  0
   -4.5340   24.4860  -30.3560 C   0  0  0  0  0  0  0  0  0  0  0  0
   -5.5150   25.2920  -29.7820 C   0  0  0  0  0  0  0  0  0  0  0  0
   -6.8620   24.9860  -29.9600 C   0  0  0  0  0  0  0  0  0  0  0  0
   -7.2390   23.8730  -30.7160 C   0  0  0  0  0  0  0  0  0  0  0  0
   -6.2650   23.0410  -31.3150 C   0  0  0  0  0  0  0  0  0  0  0  0
   -5.1847   18.8855  -34.1287 H   0  0  0  0  0  0  0  0  0  0  0  0
   -5.1712   17.6266  -35.4100 H   0  0  0  0  0  0  0  0  0  0  0  0
   -6.4435   18.8947  -35.4100 H   0  0  0  0  0  0  0  0  0  0  0  0
   -7.7224   17.3649  -34.3189 H   0  0  0  0  0  0  0  0  0  0  0  0
   -6.2852   16.3450  -33.9122 H   0  0  0  0  0  0  0  0  0  0  0  0
   -4.9348   17.9702  -31.4303 H   0  0  0  0  0  0  0  0  0  0  0  0
   -6.2327   16.8678  -30.7403 H   0  0  0  0  0  0  0  0  0  0  0  0
   -4.6601   15.3311  -31.4425 H   0  0  0  0  0  0  0  0  0  0  0  0
   -5.7440   15.4325  -32.8713 H   0  0  0  0  0  0  0  0  0  0  0  0
   -4.1740   16.3053  -32.8713 H   0  0  0  0  0  0  0  0  0  0  0  0
   -8.6941   17.0430  -32.5157 H   0  0  0  0  0  0  0  0  0  0  0  0
   -8.0461   17.5351  -30.8918 H   0  0  0  0  0  0  0  0  0  0  0  0
   -9.8361   18.9950  -32.5012 H   0  0  0  0  0  0  0  0  0  0  0  0
   -8.9221   19.5860  -31.0592 H   0  0  0  0  0  0  0  0  0  0  0  0
   -7.1060   19.7220  -33.0600 H   0  0  0  0  0  0  0  0  0  0  0  0
   -8.5450   20.1350  -33.8560 H   0  0  0  0  0  0  0  0  0  0  0  0
   -8.5016   22.1371  -33.0642 H   0  0  0  0  0  0  0  0  0  0  0  0
   -8.5642   21.4298  -31.3935 H   0  0  0  0  0  0  0  0  0  0  0  0
   -5.8308   20.2207  -33.2295 H   0  0  0  0  0  0  0  0  0  0  0  0
   -4.2440   18.7163  -32.7350 H   0  0  0  0  0  0  0  0  0  0  0  0
   -2.4527   17.2869  -33.7109 H   0  0  0  0  0  0  0  0  0  0  0  0
    1.5407   18.9747  -35.7006 H   0  0  0  0  0  0  0  0  0  0  0  0
    0.7232   17.5851  -36.4926 H   0  0  0  0  0  0  0  0  0  0  0  0
   -0.0552   19.2039  -36.4926 H   0  0  0  0  0  0  0  0  0  0  0  0
   -0.0212   20.8022  -34.3958 H   0  0  0  0  0  0  0  0  0  0  0  0
   -1.8114   22.2338  -33.4292 H   0  0  0  0  0  0  0  0  0  0  0  0
   -2.8350   22.8202  -31.5221 H   0  0  0  0  0  0  0  0  0  0  0  0
   -3.4714   24.7303  -30.2102 H   0  0  0  0  0  0  0  0  0  0  0  0
   -5.2252   26.1710  -29.1876 H   0  0  0  0  0  0  0  0  0  0  0  0
   -7.6330   25.6238  -29.5031 H   0  0  0  0  0  0  0  0  0  0  0  0
   -8.3063   23.6412  -30.8468 H   0  0  0  0  0  0  0  0  0  0  0  0
  1  2  1  0
  2  3  1  0
  3  4  1  0
  4  5  1  0
  3  6  1  0
  6  7  1  0
  7  8  1  0
  8  9  1  0
  9 10  1  0
 10 11  2  0
 11 12  1  0
 12 13  1  0
 13 14  2  0
 14 15  1  0
 15 16  2  0
 16 17  1  0
 17 18  1  0
 16 19  1  0
 19 20  2  0
 12 21  2  0
 21 22  1  0
 22 23  2  0
 23 24  1  0
 24 25  2  0
 25 26  1  0
 26 27  2  0
 27 10  1  0
 20 13  1  0
 27 22  1  0
  1 28  1  0
  1 29  1  0
  1 30  1  0
  2 31  1  0
  2 32  1  0
  4 33  1  0
  4 34  1  0
  5 35  1  0
  5 36  1  0
  5 37  1  0
  6 38  1  0
  6 39  1  0
  7 40  1  0
  7 41  1  0
  8 42  1  0
  8 43  1  0
  9 44  1  0
  9 45  1  0
 11 46  1  0
 14 47  1  0
 15 48  1  0
 18 49  1  0
 18 50  1  0
 18 51  1  0
 19 52  1  0
 20 53  1  0
 21 54  1  0
 23 55  1  0
 24 56  1  0
 25 57  1  0
 26 58  1  0
M  CHG  1   8   1
M  END
>  <UniqueID>  (16) 
16

>  <SMILES>  (16) 
CCN(CC)CC[NH2+]Cc1cc(-c2ccc(OC)cc2)cc2ccccc12

>  <Energy>  (16) 
71.8859440997223

>  <Genealogy>  (16) 
CCN(CC)CC[NH2+]Cc1cc(-c2ccc(OC)cc2)cc2ccccc12 (protonated)
CCN(CC)CC[NH2+]Cc1cc(-c2ccc(OC)cc2)cc2ccccc12 (3D coordinates assigned)
CCN(CC)CC[NH2+]Cc1cc(-c2ccc(OC)cc2)cc2ccccc12 (optimized conformer: 71.8859440997223 kcal/mol)

>  <smiles>  (16) 
CCN(CC)CCNCc1cc(-c2ccc(OC)cc2)cc2ccccc12

>  <score_type>  (16) 
oracle

>  <origin>  (16) 
adg

>  <m_score__min__energy>  (16) 
-7.3899999999999997

>  <m_primary>  (16) 
energy

$$$$
16:0
     RDKit          3D

 36 37  0  0  0  0  0  0  0  0999 V2000
   -3.1640   24.9210  -26.7400 C   0  0  0  0  0  0  0  0  0  0  0  0
   -1.9540   25.1390  -27.6430 C   0  0  0  0  0  0  0  0  0  0  0  0
   -2.3640   25.4070  -28.9840 O   0  0  0  0  0  0  0  0  0  0  0  0
   -3.1380   24.5540  -29.7880 C   0  0  0  0  0  0  0  0  0  0  0  0
   -2.6520   23.3340  -30.2960 C   0  0  0  0  0  0  0  0  0  0  0  0
   -3.4700   22.5260  -31.0930 C   0  0  0  0  0  0  0  0  0  0  0  0
   -4.7800   22.9270  -31.4070 C   0  0  0  0  0  0  0  0  0  0  0  0
   -5.6470   22.1050  -32.2050 N   0  0  0  0  0  0  0  0  0  0  0  0
   -6.8620   21.5100  -31.7210 C   0  0  0  0  0  0  0  0  0  0  0  0
   -7.1470   21.5410  -30.4930 O   0  0  0  0  0  0  0  0  0  0  0  0
   -7.7800   20.7990  -32.6700 C   0  0  0  0  0  0  0  0  0  0  0  0
   -7.2950   19.4390  -32.9380 N   0  0  0  0  0  0  0  0  0  0  0  0
   -7.8790   18.2900  -32.4690 C   0  0  0  0  0  0  0  0  0  0  0  0
   -9.1220   18.2760  -31.6280 C   0  0  0  0  0  0  0  0  0  0  0  0
   -7.2160   17.1140  -32.8240 C   0  0  0  0  0  0  0  0  0  0  0  0
   -5.8690   17.5210  -33.7460 S   0  0  0  0  0  0  0  0  0  0  0  0
   -6.1780   19.1660  -33.6570 C   0  0  0  0  0  0  0  0  0  0  0  0
   -5.4560   20.0460  -34.1960 O   0  0  0  0  0  0  0  0  0  0  0  0
   -5.2690   24.1300  -30.8770 C   0  0  0  0  0  0  0  0  0  0  0  0
   -4.4510   24.9370  -30.0810 C   0  0  0  0  0  0  0  0  0  0  0  0
   -2.8507   24.9775  -25.6871 H   0  0  0  0  0  0  0  0  0  0  0  0
   -3.9162   25.6981  -26.9409 H   0  0  0  0  0  0  0  0  0  0  0  0
   -3.5977   23.9303  -26.9409 H   0  0  0  0  0  0  0  0  0  0  0  0
   -1.3721   25.9931  -27.2663 H   0  0  0  0  0  0  0  0  0  0  0  0
   -1.3409   24.2257  -27.6376 H   0  0  0  0  0  0  0  0  0  0  0  0
   -1.6249   23.0149  -30.0652 H   0  0  0  0  0  0  0  0  0  0  0  0
   -3.0851   21.5697  -31.4768 H   0  0  0  0  0  0  0  0  0  0  0  0
   -5.3280   21.8500  -33.1670 H   0  0  0  0  0  0  0  0  0  0  0  0
   -8.7853   20.7434  -32.2270 H   0  0  0  0  0  0  0  0  0  0  0  0
   -7.8117   21.3570  -33.6174 H   0  0  0  0  0  0  0  0  0  0  0  0
   -8.8446   18.2791  -30.5636 H   0  0  0  0  0  0  0  0  0  0  0  0
   -9.7263   19.1674  -31.8520 H   0  0  0  0  0  0  0  0  0  0  0  0
   -9.7061   17.3712  -31.8520 H   0  0  0  0  0  0  0  0  0  0  0  0
   -7.5223   16.0943  -32.5478 H   0  0  0  0  0  0  0  0  0  0  0  0
   -6.3028   24.4404  -31.0891 H   0  0  0  0  0  0  0  0  0  0  0  0
   -4.8440   25.8832  -29.6808 H   0  0  0  0  0  0  0  0  0  0  0  0
  1  2  1  0
  2  3  1  0
  3  4  1  0
  4  5  2  0
  5  6  1  0
  6  7  2  0
  7  8  1  0
  8  9  1  0
  9 10  2  0
  9 11  1  0
 11 12  1  0
 12 13  1  0
 13 14  1  0
 13 15  2  0
 15 16  1  0
 16 17  1  0
 17 18  2  0
  7 19  1  0
 19 20  2  0
 20  4  1  0
 17 12  1  0
  1 21  1  0
  1 22  1  0
  1 23  1  0
  2 24  1  0
  2 25  1  0
  5 26  1  0
  6 27  1  0
  8 28  1  0
 11 29  1  0
 11 30  1  0
 14 31  1  0
 14 32  1  0
 14 33  1  0
 15 34  1  0
 19 35  1  0
 20 36  1  0
M  END
>  <UniqueID>  (17) 
17

>  <SMILES>  (17) 
CCOc1ccc(NC(=O)Cn2c(C)csc2=O)cc1

>  <Energy>  (17) 
66.23995976639047

>  <Genealogy>  (17) 
CCOc1ccc(NC(=O)Cn2c(C)csc2=O)cc1 (3D coordinates assigned)
CCOc1ccc(NC(=O)Cn2c(C)csc2=O)cc1 (optimized conformer: 66.23995976639047 kcal/mol)

>  <smiles>  (17) 
CCOc1ccc(NC(=O)Cn2c(C)csc2=O)cc1

>  <score_type>  (17) 
oracle

>  <origin>  (17) 
adg

>  <m_score__min__energy>  (17) 
-6.7999999999999998

>  <m_primary>  (17) 
energy

$$$$
17:0
     RDKit          3D

 42 44  0  0  0  0  0  0  0  0999 V2000
   -3.9520   25.6730  -28.9450 H   0  0  0  0  0  0  0  0  0  0  0  0
   -3.6150   25.2990  -29.8240 O   0  0  0  0  0  0  0  0  0  0  0  0
   -4.2150   24.1930  -30.4290 C   0  0  0  0  0  0  0  0  0  0  0  0
   -3.4120   23.1440  -30.8930 C   0  0  0  0  0  0  0  0  0  0  0  0
   -2.3186   23.2047  -30.7895 H   0  0  0  0  0  0  0  0  0  0  0  0
   -3.9910   22.0240  -31.4850 C   0  0  0  0  0  0  0  0  0  0  0  0
   -3.3541   21.2023  -31.8444 H   0  0  0  0  0  0  0  0  0  0  0  0
   -5.3750   21.9420  -31.6230 C   0  0  0  0  0  0  0  0  0  0  0  0
   -5.8246   21.0477  -32.0792 H   0  0  0  0  0  0  0  0  0  0  0  0
   -6.2030   22.9910  -31.1850 C   0  0  0  0  0  0  0  0  0  0  0  0
   -7.6700   22.8720  -31.3940 C   0  0  0  0  0  0  0  0  0  0  0  0
   -8.2780   23.7970  -31.9960 O   0  0  0  0  0  0  0  0  0  0  0  0
   -8.4700   21.7490  -30.8460 C   0  0  0  0  0  0  0  0  0  0  0  0
   -8.7066   21.7767  -29.7721 H   0  0  0  0  0  0  0  0  0  0  0  0
   -8.9300   20.7010  -31.5500 C   0  0  0  0  0  0  0  0  0  0  0  0
  -10.0200   20.5765  -31.6299 H   0  0  0  0  0  0  0  0  0  0  0  0
   -8.0740   19.7060  -32.2230 C   0  0  0  0  0  0  0  0  0  0  0  0
   -8.0780   18.3770  -31.7820 C   0  0  0  0  0  0  0  0  0  0  0  0
   -8.7786   18.0624  -30.9944 H   0  0  0  0  0  0  0  0  0  0  0  0
   -7.1940   17.4490  -32.3400 C   0  0  0  0  0  0  0  0  0  0  0  0
   -7.1920   16.4106  -31.9772 H   0  0  0  0  0  0  0  0  0  0  0  0
   -6.3070   17.8330  -33.3620 C   0  0  0  0  0  0  0  0  0  0  0  0
   -5.3210   16.8690  -33.9070 C   0  0  0  0  0  0  0  0  0  0  0  0
   -5.3690   15.5130  -33.5290 C   0  0  0  0  0  0  0  0  0  0  0  0
   -6.1379   15.1695  -32.8213 H   0  0  0  0  0  0  0  0  0  0  0  0
   -4.4450   14.6010  -34.0480 C   0  0  0  0  0  0  0  0  0  0  0  0
   -4.4892   13.5437  -33.7477 H   0  0  0  0  0  0  0  0  0  0  0  0
   -3.4660   15.0300  -34.9470 C   0  0  0  0  0  0  0  0  0  0  0  0
   -2.7400   14.3109  -35.3542 H   0  0  0  0  0  0  0  0  0  0  0  0
   -3.4090   16.3730  -35.3290 C   0  0  0  0  0  0  0  0  0  0  0  0
   -2.6370   16.7104  -36.0363 H   0  0  0  0  0  0  0  0  0  0  0  0
   -4.3310   17.2880  -34.8140 C   0  0  0  0  0  0  0  0  0  0  0  0
   -4.2822   18.3434  -35.1201 H   0  0  0  0  0  0  0  0  0  0  0  0
   -6.3550   19.1520  -33.8460 C   0  0  0  0  0  0  0  0  0  0  0  0
   -5.6898   19.4578  -34.6670 H   0  0  0  0  0  0  0  0  0  0  0  0
   -7.2430   20.0770  -33.2900 C   0  0  0  0  0  0  0  0  0  0  0  0
   -7.2903   21.1002  -33.6910 H   0  0  0  0  0  0  0  0  0  0  0  0
   -5.6180   24.1340  -30.5780 C   0  0  0  0  0  0  0  0  0  0  0  0
   -6.4700   25.2770  -30.0800 C   0  0  0  0  0  0  0  0  0  0  0  0
   -6.4725   25.2803  -28.9800 H   0  0  0  0  0  0  0  0  0  0  0  0
   -6.0590   26.2284  -30.4486 H   0  0  0  0  0  0  0  0  0  0  0  0
   -7.4992   25.1549  -30.4486 H   0  0  0  0  0  0  0  0  0  0  0  0
  1  2  1  0
  2  3  1  0
  3  4  2  0
  4  5  1  0
  4  6  1  0
  6  7  1  0
  6  8  2  0
  8  9  1  0
  8 10  1  0
 10 11  1  0
 11 12  2  0
 11 13  1  0
 13 14  1  0
 13 15  2  0
 15 16  1  0
 15 17  1  0
 17 18  2  0
 18 19  1  0
 18 20  1  0
 20 21  1  0
 20 22  2  0
 22 23  1  0
 23 24  2  0
 24 25  1  0
 24 26  1  0
 26 27  1  0
 26 28  2  0
 28 29  1  0
 28 30  1  0
 30 31  1  0
 30 32  2  0
 32 33  1  0
 22 34  1  0
 34 35  1  0
 34 36  2  0
 36 37  1  0
 10 38  2  0
 38 39  1  0
 39 40  1  0
 39 41  1  0
 39 42  1  0
 38  3  1  0
 36 17  1  0
 32 23  1  0
M  END
>  <UniqueID>  (18) 
18

>  <SMILES>  (18) 
Cc1c(O)cccc1C(=O)/C=C\c1ccc(-c2ccccc2)cc1

>  <Energy>  (18) 
61.46338806198269

>  <Genealogy>  (18) 
Cc1c(O)cccc1C(=O)/C=C\c1ccc(-c2ccccc2)cc1 (cis-trans isomerization)
Cc1c(O)cccc1C(=O)/C=C\c1ccc(-c2ccccc2)cc1 (3D coordinates assigned)
Cc1c(O)cccc1C(=O)/C=C\c1ccc(-c2ccccc2)cc1 (optimized conformer: 61.46338806198269 kcal/mol)

>  <smiles>  (18) 
Cc1c(O)cccc1C(=O)C=Cc1ccc(-c2ccccc2)cc1

>  <score_type>  (18) 
oracle

>  <origin>  (18) 
adg

>  <m_score__min__energy>  (18) 
-10.25

>  <m_primary>  (18) 
energy

$$$$
18:0
     RDKit          3D

 48 51  0  0  0  0  0  0  0  0999 V2000
   -1.6660   26.1530  -24.7790 C   0  0  0  0  0  0  0  0  0  0  0  0
   -2.1700   25.4630  -26.0020 C   0  0  0  0  0  0  0  0  0  0  0  0
   -3.5200   25.2620  -26.3080 C   0  0  0  0  0  0  0  0  0  0  0  0
   -3.5070   24.6860  -27.5100 N   0  0  0  0  0  0  0  0  0  0  0  0
   -4.4370   24.3350  -28.3820 N   0  0  0  0  0  0  0  0  0  0  0  0
   -3.8580   23.8900  -29.5350 C   0  0  0  0  0  0  0  0  0  0  0  0
   -4.6010   23.4630  -30.6930 N   0  0  0  0  0  0  0  0  0  0  0  0
   -5.7350   24.2680  -31.1840 C   0  0  0  0  0  0  0  0  0  0  0  0
   -7.0790   23.5110  -31.1250 C   0  0  0  0  0  0  0  0  0  0  0  0
   -7.0200   22.0940  -30.5200 C   0  0  0  0  0  0  0  0  0  0  0  0
   -6.3970   21.0770  -31.4000 N   0  0  0  0  0  0  0  0  0  0  0  0
   -7.4010   20.3780  -32.2300 C   0  0  0  0  0  0  0  0  0  0  0  0
   -6.7540   19.2960  -33.0440 C   0  0  0  0  0  0  0  0  0  0  0  0
   -6.3590   19.3760  -34.3670 C   0  0  0  0  0  0  0  0  0  0  0  0
   -5.7500   18.2260  -34.7190 N   0  0  0  0  0  0  0  0  0  0  0  0
   -5.7470   17.4280  -33.6620 N   0  0  0  0  0  0  0  0  0  0  0  0
   -5.1480   16.0980  -33.6600 C   0  0  0  0  0  0  0  0  0  0  0  0
   -6.3600   18.0380  -32.6260 C   0  0  0  0  0  0  0  0  0  0  0  0
   -6.4570   17.4890  -31.2350 C   0  0  0  0  0  0  0  0  0  0  0  0
   -5.2580   21.5620  -32.2210 C   0  0  0  0  0  0  0  0  0  0  0  0
   -4.1520   22.2420  -31.3940 C   0  0  0  0  0  0  0  0  0  0  0  0
   -2.1340   23.9840  -29.4640 S   0  0  0  0  0  0  0  0  0  0  0  0
   -2.2590   24.5730  -27.8980 C   0  0  0  0  0  0  0  0  0  0  0  0
   -1.3590   25.0490  -27.0210 N   0  0  0  0  0  0  0  0  0  0  0  0
   -2.0436   25.6361  -23.8845 H   0  0  0  0  0  0  0  0  0  0  0  0
   -0.5661   26.1361  -24.7754 H   0  0  0  0  0  0  0  0  0  0  0  0
   -2.0167   27.1956  -24.7754 H   0  0  0  0  0  0  0  0  0  0  0  0
   -4.3956   25.5210  -25.6946 H   0  0  0  0  0  0  0  0  0  0  0  0
   -5.4610   24.4480  -28.2060 H   0  0  0  0  0  0  0  0  0  0  0  0
   -5.8154   25.1746  -30.5663 H   0  0  0  0  0  0  0  0  0  0  0  0
   -5.5372   24.5079  -32.2392 H   0  0  0  0  0  0  0  0  0  0  0  0
   -7.7774   24.1082  -30.5204 H   0  0  0  0  0  0  0  0  0  0  0  0
   -7.3958   23.3788  -32.1701 H   0  0  0  0  0  0  0  0  0  0  0  0
   -6.4402   22.1426  -29.5865 H   0  0  0  0  0  0  0  0  0  0  0  0
   -8.0614   21.7767  -30.3626 H   0  0  0  0  0  0  0  0  0  0  0  0
   -8.1631   19.9306  -31.5749 H   0  0  0  0  0  0  0  0  0  0  0  0
   -7.8647   21.1054  -32.9125 H   0  0  0  0  0  0  0  0  0  0  0  0
   -6.5168   20.2413  -35.0276 H   0  0  0  0  0  0  0  0  0  0  0  0
   -4.9980   15.7650  -32.6224 H   0  0  0  0  0  0  0  0  0  0  0  0
   -5.8161   15.3942  -34.1780 H   0  0  0  0  0  0  0  0  0  0  0  0
   -4.1782   16.1318  -34.1780 H   0  0  0  0  0  0  0  0  0  0  0  0
   -6.3132   18.3026  -30.5088 H   0  0  0  0  0  0  0  0  0  0  0  0
   -7.4489   17.0370  -31.0876 H   0  0  0  0  0  0  0  0  0  0  0  0
   -5.6800   16.7244  -31.0876 H   0  0  0  0  0  0  0  0  0  0  0  0
   -4.8193   20.7031  -32.7500 H   0  0  0  0  0  0  0  0  0  0  0  0
   -5.6564   22.3184  -32.9132 H   0  0  0  0  0  0  0  0  0  0  0  0
   -3.7884   21.5245  -30.6437 H   0  0  0  0  0  0  0  0  0  0  0  0
   -3.3645   22.5469  -32.0989 H   0  0  0  0  0  0  0  0  0  0  0  0
  1  2  1  0
  2  3  2  0
  3  4  1  0
  4  5  1  0
  5  6  2  0
  6  7  1  0
  7  8  1  0
  8  9  1  0
  9 10  1  0
 10 11  1  0
 11 12  1  0
 12 13  1  0
 13 14  1  0
 14 15  2  0
 15 16  1  0
 16 17  1  0
 16 18  1  0
 18 19  1  0
 11 20  1  0
 20 21  1  0
  6 22  1  0
 22 23  1  0
 23 24  2  0
 24  2  1  0
 23  4  1  0
 21  7  1  0
 18 13  2  0
  1 25  1  0
  1 26  1  0
  1 27  1  0
  3 28  1  0
  5 29  1  0
  8 30  1  0
  8 31  1  0
  9 32  1  0
  9 33  1  0
 10 34  1  0
 10 35  1  0
 12 36  1  0
 12 37  1  0
 14 38  1  0
 17 39  1  0
 17 40  1  0
 17 41  1  0
 19 42  1  0
 19 43  1  0
 19 44  1  0
 20 45  1  0
 20 46  1  0
 21 47  1  0
 21 48  1  0
M  CHG  1   5   1
M  END
>  <UniqueID>  (19) 
19

>  <SMILES>  (19) 
Cc1cn2[nH+]c(N3CCCN(Cc4cnn(C)c4C)CC3)sc2n1

>  <Energy>  (19) 
175.71711006118716

>  <Genealogy>  (19) 
Cc1cn2[nH+]c(N3CCCN(Cc4cnn(C)c4C)CC3)sc2n1 (protonated)
Cc1cn2[nH+]c(N3CCCN(Cc4cnn(C)c4C)CC3)sc2n1 (3D coordinates assigned)
Cc1cn2[nH+]c(N3CCCN(Cc4cnn(C)c4C)CC3)sc2n1 (nonaromatic ring conformer: 175.71711006118716 kcal/mol)

>  <smiles>  (19) 
Cc1cn2nc(N3CCCN(Cc4cnn(C)c4C)CC3)sc2n1

>  <score_type>  (19) 
oracle

>  <origin>  (19) 
adg

>  <m_score__min__energy>  (19) 
-6.29

>  <m_primary>  (19) 
energy

$$$$
19:0
     RDKit          3D

 45 47  0  0  0  0  0  0  0  0999 V2000
   -8.1110   18.9540  -32.0420 C   0  0  0  0  0  0  0  0  0  0  0  0
   -8.5920   20.2920  -32.1200 O   0  0  0  0  0  0  0  0  0  0  0  0
   -7.8490   21.4230  -31.7520 C   0  0  0  0  0  0  0  0  0  0  0  0
   -8.0320   21.9510  -30.4680 C   0  0  0  0  0  0  0  0  0  0  0  0
   -7.3170   23.0780  -30.0530 C   0  0  0  0  0  0  0  0  0  0  0  0
   -6.4110   23.7010  -30.9260 C   0  0  0  0  0  0  0  0  0  0  0  0
   -5.6120   24.8920  -30.4660 C   0  0  0  0  0  0  0  0  0  0  0  0
   -5.2610   24.7580  -29.0450 N   0  0  0  0  0  0  0  0  0  0  0  0
   -4.2950   23.7020  -28.8720 C   0  0  0  0  0  0  0  0  0  0  0  0
   -3.6750   23.1150  -29.9900 C   0  0  0  0  0  0  0  0  0  0  0  0
   -2.7170   22.1130  -29.8210 C   0  0  0  0  0  0  0  0  0  0  0  0
   -2.3610   21.6800  -28.5340 C   0  0  0  0  0  0  0  0  0  0  0  0
   -1.3370   20.6270  -28.3510 C   0  0  0  0  0  0  0  0  0  0  0  0
   -0.0990   20.7720  -29.0020 C   0  0  0  0  0  0  0  0  0  0  0  0
    0.8870   19.7900  -28.8790 C   0  0  0  0  0  0  0  0  0  0  0  0
    0.6490   18.6540  -28.1080 C   0  0  0  0  0  0  0  0  0  0  0  0
   -0.5690   18.4990  -27.4440 C   0  0  0  0  0  0  0  0  0  0  0  0
   -1.5660   19.4860  -27.5400 C   0  0  0  0  0  0  0  0  0  0  0  0
   -2.8560   19.2910  -26.7880 C   0  0  0  0  0  0  0  0  0  0  0  0
   -2.9600   22.2820  -27.4170 C   0  0  0  0  0  0  0  0  0  0  0  0
   -3.9190   23.2840  -27.5840 C   0  0  0  0  0  0  0  0  0  0  0  0
   -6.2140   23.1670  -32.2080 C   0  0  0  0  0  0  0  0  0  0  0  0
   -6.9300   22.0410  -32.6220 C   0  0  0  0  0  0  0  0  0  0  0  0
   -8.0064   18.6629  -30.9864 H   0  0  0  0  0  0  0  0  0  0  0  0
   -8.8227   18.2789  -32.5397 H   0  0  0  0  0  0  0  0  0  0  0  0
   -7.1323   18.8866  -32.5397 H   0  0  0  0  0  0  0  0  0  0  0  0
   -8.7452   21.4743  -29.7795 H   0  0  0  0  0  0  0  0  0  0  0  0
   -7.4646   23.4782  -29.0391 H   0  0  0  0  0  0  0  0  0  0  0  0
   -4.6899   24.9614  -31.0618 H   0  0  0  0  0  0  0  0  0  0  0  0
   -6.2182   25.8002  -30.5988 H   0  0  0  0  0  0  0  0  0  0  0  0
   -6.1210   24.5440  -28.4880 H   0  0  0  0  0  0  0  0  0  0  0  0
   -4.8640   25.6610  -28.6930 H   0  0  0  0  0  0  0  0  0  0  0  0
   -3.9463   23.4471  -31.0030 H   0  0  0  0  0  0  0  0  0  0  0  0
   -2.2384   21.6602  -30.7019 H   0  0  0  0  0  0  0  0  0  0  0  0
    0.0946   21.6659  -29.6131 H   0  0  0  0  0  0  0  0  0  0  0  0
    1.8525   19.9137  -29.3914 H   0  0  0  0  0  0  0  0  0  0  0  0
    1.4231   17.8772  -28.0224 H   0  0  0  0  0  0  0  0  0  0  0  0
   -0.7504   17.5973  -26.8406 H   0  0  0  0  0  0  0  0  0  0  0  0
   -2.6580   19.3209  -25.7064 H   0  0  0  0  0  0  0  0  0  0  0  0
   -3.5604   20.0929  -27.0542 H   0  0  0  0  0  0  0  0  0  0  0  0
   -3.2919   18.3168  -27.0542 H   0  0  0  0  0  0  0  0  0  0  0  0
   -2.6728   21.9632  -26.4041 H   0  0  0  0  0  0  0  0  0  0  0  0
   -4.3829   23.7489  -26.7016 H   0  0  0  0  0  0  0  0  0  0  0  0
   -5.4917   23.6374  -32.8913 H   0  0  0  0  0  0  0  0  0  0  0  0
   -6.7752   21.6351  -33.6326 H   0  0  0  0  0  0  0  0  0  0  0  0
  1  2  1  0
  2  3  1  0
  3  4  2  0
  4  5  1  0
  5  6  2  0
  6  7  1  0
  7  8  1  0
  8  9  1  0
  9 10  2  0
 10 11  1  0
 11 12  2  0
 12 13  1  0
 13 14  2  0
 14 15  1  0
 15 16  2  0
 16 17  1  0
 17 18  2  0
 18 19  1  0
 12 20  1  0
 20 21  2  0
  6 22  1  0
 22 23  2  0
 23  3  1  0
 21  9  1  0
 18 13  1  0
  1 24  1  0
  1 25  1  0
  1 26  1  0
  4 27  1  0
  5 28  1  0
  7 29  1  0
  7 30  1  0
  8 31  1  0
  8 32  1  0
 10 33  1  0
 11 34  1  0
 14 35  1  0
 15 36  1  0
 16 37  1  0
 17 38  1  0
 19 39  1  0
 19 40  1  0
 19 41  1  0
 20 42  1  0
 21 43  1  0
 22 44  1  0
 23 45  1  0
M  CHG  1   8   1
M  END
>  <UniqueID>  (20) 
20

>  <SMILES>  (20) 
COc1ccc(C[NH2+]c2ccc(-c3ccccc3C)cc2)cc1

>  <Energy>  (20) 
53.893044962958044

>  <Genealogy>  (20) 
COc1ccc(C[NH2+]c2ccc(-c3ccccc3C)cc2)cc1 (protonated)
COc1ccc(C[NH2+]c2ccc(-c3ccccc3C)cc2)cc1 (3D coordinates assigned)
COc1ccc(C[NH2+]c2ccc(-c3ccccc3C)cc2)cc1 (optimized conformer: 53.893044962958044 kcal/mol)

>  <smiles>  (20) 
COc1ccc(CNc2ccc(-c3ccccc3C)cc2)cc1

>  <score_type>  (20) 
oracle

>  <origin>  (20) 
adg

>  <m_score__min__energy>  (20) 
-7.9199999999999999

>  <m_primary>  (20) 
energy

$$$$
20:0
     RDKit          3D

 40 41  0  0  0  0  0  0  0  0999 V2000
   -5.2940   14.6850  -33.7750 C   0  0  0  0  0  0  0  0  0  0  0  0
   -6.3710   15.5030  -34.2170 O   0  0  0  0  0  0  0  0  0  0  0  0
   -6.5770   16.8020  -33.7450 C   0  0  0  0  0  0  0  0  0  0  0  0
   -5.8970   17.8650  -34.3450 C   0  0  0  0  0  0  0  0  0  0  0  0
   -6.1000   19.1640  -33.8750 C   0  0  0  0  0  0  0  0  0  0  0  0
   -6.9820   19.4000  -32.8080 C   0  0  0  0  0  0  0  0  0  0  0  0
   -7.2080   20.7760  -32.2960 C   0  0  0  0  0  0  0  0  0  0  0  0
   -8.5080   21.2290  -32.0210 C   0  0  0  0  0  0  0  0  0  0  0  0
   -8.7180   22.5200  -31.5370 C   0  0  0  0  0  0  0  0  0  0  0  0
   -7.6370   23.3780  -31.3220 C   0  0  0  0  0  0  0  0  0  0  0  0
   -6.3220   22.9540  -31.5930 C   0  0  0  0  0  0  0  0  0  0  0  0
   -5.1400   23.8440  -31.3730 C   0  0  0  0  0  0  0  0  0  0  0  0
   -5.3390   25.0830  -31.2290 O   0  0  0  0  0  0  0  0  0  0  0  0
   -3.7810   23.3320  -31.3550 N   0  0  2  0  0  0  0  0  0  0  0  0
   -3.5590   22.3450  -32.4310 C   0  0  0  0  0  0  0  0  0  0  0  0
   -3.3890   22.8080  -30.0210 C   0  0  0  0  0  0  0  0  0  0  0  0
   -2.9700   23.8770  -28.9920 C   0  0  0  0  0  0  0  0  0  0  0  0
   -3.1170   25.1600  -29.5330 O   0  0  0  0  0  0  0  0  0  0  0  0
   -6.1220   21.6450  -32.0790 C   0  0  0  0  0  0  0  0  0  0  0  0
   -7.6430   18.3000  -32.2350 C   0  0  0  0  0  0  0  0  0  0  0  0
   -7.4290   17.0450  -32.7110 N   0  0  0  0  0  0  0  0  0  0  0  0
   -5.2730   14.6691  -32.6753 H   0  0  0  0  0  0  0  0  0  0  0  0
   -5.4314   13.6615  -34.1540 H   0  0  0  0  0  0  0  0  0  0  0  0
   -4.3449   15.0920  -34.1540 H   0  0  0  0  0  0  0  0  0  0  0  0
   -5.2069   17.6798  -35.1814 H   0  0  0  0  0  0  0  0  0  0  0  0
   -5.5672   20.0054  -34.3421 H   0  0  0  0  0  0  0  0  0  0  0  0
   -9.3663   20.5616  -32.1883 H   0  0  0  0  0  0  0  0  0  0  0  0
   -9.7406   22.8645  -31.3234 H   0  0  0  0  0  0  0  0  0  0  0  0
   -7.8145   24.3933  -30.9378 H   0  0  0  0  0  0  0  0  0  0  0  0
   -3.1300   24.1180  -31.5820 H   0  0  0  0  0  0  0  0  0  0  0  0
   -3.3381   21.3628  -31.9877 H   0  0  0  0  0  0  0  0  0  0  0  0
   -4.4630   22.2714  -33.0533 H   0  0  0  0  0  0  0  0  0  0  0  0
   -2.7105   22.6656  -33.0533 H   0  0  0  0  0  0  0  0  0  0  0  0
   -4.2455   22.2552  -29.6076 H   0  0  0  0  0  0  0  0  0  0  0  0
   -2.5005   22.1815  -30.1886 H   0  0  0  0  0  0  0  0  0  0  0  0
   -3.6032   23.7864  -28.0971 H   0  0  0  0  0  0  0  0  0  0  0  0
   -1.9142   23.7211  -28.7257 H   0  0  0  0  0  0  0  0  0  0  0  0
   -4.0810   25.3830  -29.4580 H   0  0  0  0  0  0  0  0  0  0  0  0
   -5.1003   21.2974  -32.2920 H   0  0  0  0  0  0  0  0  0  0  0  0
   -8.3376   18.4556  -31.3964 H   0  0  0  0  0  0  0  0  0  0  0  0
  1  2  1  0
  2  3  1  0
  3  4  2  0
  4  5  1  0
  5  6  2  0
  6  7  1  0
  7  8  2  0
  8  9  1  0
  9 10  2  0
 10 11  1  0
 11 12  1  0
 12 13  2  0
 12 14  1  0
 14 15  1  0
 14 16  1  0
 16 17  1  0
 17 18  1  0
 11 19  2  0
  6 20  1  0
 20 21  2  0
 21  3  1  0
 19  7  1  0
  1 22  1  0
  1 23  1  0
  1 24  1  0
  4 25  1  0
  5 26  1  0
  8 27  1  0
  9 28  1  0
 10 29  1  0
 14 30  1  6
 15 31  1  0
 15 32  1  0
 15 33  1  0
 16 34  1  0
 16 35  1  0
 17 36  1  0
 17 37  1  0
 18 38  1  0
 19 39  1  0
 20 40  1  0
M  CHG  1  14   1
M  END
>  <UniqueID>  (21) 
21

>  <SMILES>  (21) 
COc1ccc(-c2cccc(C(=O)[N@H+](C)CCO)c2)cn1

>  <Energy>  (21) 
51.13188868823035

>  <Genealogy>  (21) 
COc1ccc(-c2cccc(C(=O)[NH+](C)CCO)c2)cn1 (protonated)
COc1ccc(-c2cccc(C(=O)[N@H+](C)CCO)c2)cn1 (chirality)
COc1ccc(-c2cccc(C(=O)[N@H+](C)CCO)c2)cn1 (3D coordinates assigned)
COc1ccc(-c2cccc(C(=O)[N@H+](C)CCO)c2)cn1 (optimized conformer: 51.13188868823035 kcal/mol)

>  <smiles>  (21) 
COc1ccc(-c2cccc(C(=O)N(C)CCO)c2)cn1

>  <score_type>  (21) 
oracle

>  <origin>  (21) 
adg

>  <m_score__min__energy>  (21) 
-7.9500000000000002

>  <m_primary>  (21) 
energy

$$$$
21:0
     RDKit          3D

 47 48  0  0  0  0  0  0  0  0999 V2000
    1.3030   23.8540  -36.0020 C   0  0  0  0  0  0  0  0  0  0  0  0
    0.4510   22.9320  -35.3620 O   0  0  0  0  0  0  0  0  0  0  0  0
    1.1050   21.6880  -35.2420 C   0  0  0  0  0  0  0  0  0  0  0  0
    0.1230   20.6200  -34.7360 C   0  0  0  0  0  0  0  0  0  0  0  0
   -1.2390   21.1560  -34.5300 N   0  0  0  0  0  0  0  0  0  0  0  0
   -1.8180   20.7170  -33.2500 C   0  0  0  0  0  0  0  0  0  0  0  0
   -2.7730   19.5690  -33.4590 C   0  0  0  0  0  0  0  0  0  0  0  0
   -2.3120   18.3280  -33.9150 C   0  0  0  0  0  0  0  0  0  0  0  0
   -3.2060   17.2700  -34.0870 C   0  0  0  0  0  0  0  0  0  0  0  0
   -4.5640   17.4420  -33.8060 C   0  0  0  0  0  0  0  0  0  0  0  0
   -5.0560   18.6860  -33.3600 C   0  0  0  0  0  0  0  0  0  0  0  0
   -6.4650   18.8640  -33.0550 N   0  0  0  0  0  0  0  0  0  0  0  0
   -7.1910   17.8220  -32.3160 C   0  0  0  0  0  0  0  0  0  0  0  0
   -7.1970   20.0720  -33.4820 C   0  0  0  0  0  0  0  0  0  0  0  0
   -7.2880   21.0740  -32.3590 C   0  0  0  0  0  0  0  0  0  0  0  0
   -8.3610   21.0230  -31.4550 C   0  0  0  0  0  0  0  0  0  0  0  0
   -8.4400   21.9390  -30.4020 C   0  0  0  0  0  0  0  0  0  0  0  0
   -7.4530   22.9170  -30.2470 C   0  0  0  0  0  0  0  0  0  0  0  0
   -6.3840   22.9840  -31.1490 C   0  0  0  0  0  0  0  0  0  0  0  0
   -5.3660   23.9880  -30.9900 C   0  0  0  0  0  0  0  0  0  0  0  0
   -4.5480   24.7950  -30.8600 N   0  0  0  0  0  0  0  0  0  0  0  0
   -6.3060   22.0690  -32.2070 C   0  0  0  0  0  0  0  0  0  0  0  0
   -4.1430   19.7490  -33.2070 C   0  0  0  0  0  0  0  0  0  0  0  0
    1.8444   24.4399  -35.2446 H   0  0  0  0  0  0  0  0  0  0  0  0
    2.0245   23.3114  -36.6305 H   0  0  0  0  0  0  0  0  0  0  0  0
    0.7052   24.5305  -36.6305 H   0  0  0  0  0  0  0  0  0  0  0  0
    1.4954   21.3862  -36.2251 H   0  0  0  0  0  0  0  0  0  0  0  0
    1.9323   21.7848  -34.5235 H   0  0  0  0  0  0  0  0  0  0  0  0
    0.0741   19.8070  -35.4754 H   0  0  0  0  0  0  0  0  0  0  0  0
    0.4915   20.2607  -33.7638 H   0  0  0  0  0  0  0  0  0  0  0  0
   -1.2280   22.2020  -34.5880 H   0  0  0  0  0  0  0  0  0  0  0  0
   -1.8540   20.8030  -35.3010 H   0  0  0  0  0  0  0  0  0  0  0  0
   -1.0077   20.3944  -32.5796 H   0  0  0  0  0  0  0  0  0  0  0  0
   -2.3705   21.5584  -32.8063 H   0  0  0  0  0  0  0  0  0  0  0  0
   -1.2441   18.1867  -34.1379 H   0  0  0  0  0  0  0  0  0  0  0  0
   -2.8400   16.2965  -34.4453 H   0  0  0  0  0  0  0  0  0  0  0  0
   -5.2570   16.5974  -33.9342 H   0  0  0  0  0  0  0  0  0  0  0  0
   -7.0740   17.9899  -31.2352 H   0  0  0  0  0  0  0  0  0  0  0  0
   -8.2582   17.8614  -32.5798 H   0  0  0  0  0  0  0  0  0  0  0  0
   -6.7843   16.8346  -32.5798 H   0  0  0  0  0  0  0  0  0  0  0  0
   -6.6697   20.5307  -34.3314 H   0  0  0  0  0  0  0  0  0  0  0  0
   -8.2164   19.7792  -33.7738 H   0  0  0  0  0  0  0  0  0  0  0  0
   -9.1430   20.2589  -31.5759 H   0  0  0  0  0  0  0  0  0  0  0  0
   -9.2804   21.8902  -29.6939 H   0  0  0  0  0  0  0  0  0  0  0  0
   -7.5163   23.6346  -29.4157 H   0  0  0  0  0  0  0  0  0  0  0  0
   -5.4725   22.1292  -32.9223 H   0  0  0  0  0  0  0  0  0  0  0  0
   -4.5092   20.7351  -32.8852 H   0  0  0  0  0  0  0  0  0  0  0  0
  1  2  1  0
  2  3  1  0
  3  4  1  0
  4  5  1  0
  5  6  1  0
  6  7  1  0
  7  8  2  0
  8  9  1  0
  9 10  2  0
 10 11  1  0
 11 12  1  0
 12 13  1  0
 12 14  1  0
 14 15  1  0
 15 16  2  0
 16 17  1  0
 17 18  2  0
 18 19  1  0
 19 20  1  0
 20 21  3  0
 19 22  2  0
 11 23  2  0
 23  7  1  0
 22 15  1  0
  1 24  1  0
  1 25  1  0
  1 26  1  0
  3 27  1  0
  3 28  1  0
  4 29  1  0
  4 30  1  0
  5 31  1  0
  5 32  1  0
  6 33  1  0
  6 34  1  0
  8 35  1  0
  9 36  1  0
 10 37  1  0
 13 38  1  0
 13 39  1  0
 13 40  1  0
 14 41  1  0
 14 42  1  0
 16 43  1  0
 17 44  1  0
 18 45  1  0
 22 46  1  0
 23 47  1  0
M  CHG  1   5   1
M  END
>  <UniqueID>  (22) 
22

>  <SMILES>  (22) 
COCC[NH2+]Cc1cccc(N(C)Cc2cccc(C#N)c2)c1

>  <Energy>  (22) 
46.168021372660014

>  <Genealogy>  (22) 
COCC[NH2+]Cc1cccc(N(C)Cc2cccc(C#N)c2)c1 (protonated)
COCC[NH2+]Cc1cccc(N(C)Cc2cccc(C#N)c2)c1 (3D coordinates assigned)
COCC[NH2+]Cc1cccc(N(C)Cc2cccc(C#N)c2)c1 (optimized conformer: 46.168021372660014 kcal/mol)

>  <smiles>  (22) 
COCCNCc1cccc(N(C)Cc2cccc(C#N)c2)c1

>  <score_type>  (22) 
oracle

>  <origin>  (22) 
adg

>  <m_score__min__energy>  (22) 
-7.3200000000000003

>  <m_primary>  (22) 
energy

$$$$
22:0
     RDKit          3D

 61 63  0  0  0  0  0  0  0  0999 V2000
    0.7850   20.7290  -28.0660 H   0  0  0  0  0  0  0  0  0  0  0  0
   -0.2100   20.8250  -28.2240 O   0  0  0  0  0  0  0  0  0  0  0  0
   -0.7880   21.9560  -28.8110 C   0  0  0  0  0  0  0  0  0  0  0  0
   -0.3910   23.2570  -28.4130 C   0  0  0  0  0  0  0  0  0  0  0  0
    0.8100   23.4880  -27.6870 C   0  0  0  0  0  0  0  0  0  0  0  0
    1.7410   22.4810  -27.4590 O   0  0  0  0  0  0  0  0  0  0  0  0
    1.1250   24.7670  -27.2320 C   0  0  0  0  0  0  0  0  0  0  0  0
    2.0343   24.9248  -26.6335 H   0  0  0  0  0  0  0  0  0  0  0  0
    0.3010   25.8420  -27.5280 C   0  0  0  0  0  0  0  0  0  0  0  0
    0.5465   26.8416  -27.1399 H   0  0  0  0  0  0  0  0  0  0  0  0
   -0.8350   25.6650  -28.3130 C   0  0  0  0  0  0  0  0  0  0  0  0
   -1.6000   26.7900  -28.6030 O   0  0  0  0  0  0  0  0  0  0  0  0
   -1.1870   24.3720  -28.7900 C   0  0  0  0  0  0  0  0  0  0  0  0
   -2.2960   24.1840  -29.6440 C   0  0  0  0  0  0  0  0  0  0  0  0
   -3.0230   25.2960  -30.0520 O   0  0  0  0  0  0  0  0  0  0  0  0
   -2.6330   22.8950  -30.1360 C   0  0  0  0  0  0  0  0  0  0  0  0
   -3.7370   22.6890  -31.0200 C   0  0  0  0  0  0  0  0  0  0  0  0
   -4.6650   23.7420  -31.3440 N   0  0  0  0  0  0  0  0  0  0  0  0
   -4.2880   24.6870  -31.5800 H   0  0  0  0  0  0  0  0  0  0  0  0
   -6.1180   23.6080  -31.2120 C   0  0  0  0  0  0  0  0  0  0  0  0
   -6.5739   24.6077  -31.2635 H   0  0  0  0  0  0  0  0  0  0  0  0
   -6.3307   23.1258  -30.2465 H   0  0  0  0  0  0  0  0  0  0  0  0
   -6.7140   22.7310  -32.3260 C   0  0  0  0  0  0  0  0  0  0  0  0
   -5.9414   22.5476  -33.0872 H   0  0  0  0  0  0  0  0  0  0  0  0
   -7.5744   23.2629  -32.7582 H   0  0  0  0  0  0  0  0  0  0  0  0
   -7.1910   21.4290  -31.8020 N   0  0  0  0  0  0  0  0  0  0  0  0
   -8.5900   21.5420  -31.3220 C   0  0  0  0  0  0  0  0  0  0  0  0
   -8.5867   21.6987  -30.2332 H   0  0  0  0  0  0  0  0  0  0  0  0
   -9.1259   20.6146  -31.5723 H   0  0  0  0  0  0  0  0  0  0  0  0
   -9.2980   22.7150  -31.9950 C   0  0  0  0  0  0  0  0  0  0  0  0
   -9.7043   23.3882  -31.2258 H   0  0  0  0  0  0  0  0  0  0  0  0
   -8.5810   23.2651  -32.6221 H   0  0  0  0  0  0  0  0  0  0  0  0
  -10.1189   22.3369  -32.6221 H   0  0  0  0  0  0  0  0  0  0  0  0
   -7.0780   20.3690  -32.8310 C   0  0  0  0  0  0  0  0  0  0  0  0
   -7.4318   20.7614  -33.7958 H   0  0  0  0  0  0  0  0  0  0  0  0
   -6.0251   20.0607  -32.9112 H   0  0  0  0  0  0  0  0  0  0  0  0
   -7.9200   19.1570  -32.4420 C   0  0  0  0  0  0  0  0  0  0  0  0
   -7.9715   19.0829  -31.3457 H   0  0  0  0  0  0  0  0  0  0  0  0
   -8.9353   19.2697  -32.8500 H   0  0  0  0  0  0  0  0  0  0  0  0
   -7.4601   18.2448  -32.8500 H   0  0  0  0  0  0  0  0  0  0  0  0
   -3.9780   21.4140  -31.5420 C   0  0  0  0  0  0  0  0  0  0  0  0
   -4.8285   21.2600  -32.2224 H   0  0  0  0  0  0  0  0  0  0  0  0
   -3.1650   20.3440  -31.2170 C   0  0  0  0  0  0  0  0  0  0  0  0
   -3.3711   19.3549  -31.6521 H   0  0  0  0  0  0  0  0  0  0  0  0
   -2.0830   20.5010  -30.3420 C   0  0  0  0  0  0  0  0  0  0  0  0
   -1.2380   19.3760  -30.0370 N   0  0  0  0  0  0  0  0  0  0  0  0
   -0.3120   18.8810  -30.8030 C   0  0  0  0  0  0  0  0  0  0  0  0
   -0.5769   18.4457  -31.7779 H   0  0  0  0  0  0  0  0  0  0  0  0
    1.1150   18.9050  -30.3550 C   0  0  0  0  0  0  0  0  0  0  0  0
    1.6595   18.0788  -30.8356 H   0  0  0  0  0  0  0  0  0  0  0  0
    1.5617   19.8690  -30.6398 H   0  0  0  0  0  0  0  0  0  0  0  0
    1.1980   18.7540  -28.8880 N   0  0  0  0  0  0  0  0  0  0  0  0
    0.7880   17.3990  -28.4750 C   0  0  0  0  0  0  0  0  0  0  0  0
    0.7702   17.3401  -27.3767 H   0  0  0  0  0  0  0  0  0  0  0  0
   -0.2157   17.1832  -28.8701 H   0  0  0  0  0  0  0  0  0  0  0  0
    1.5037   16.6630  -28.8701 H   0  0  0  0  0  0  0  0  0  0  0  0
    2.5740   19.0090  -28.4340 C   0  0  0  0  0  0  0  0  0  0  0  0
    2.6023   19.0142  -27.3344 H   0  0  0  0  0  0  0  0  0  0  0  0
    3.2379   18.2186  -28.8141 H   0  0  0  0  0  0  0  0  0  0  0  0
    2.9106   19.9848  -28.8141 H   0  0  0  0  0  0  0  0  0  0  0  0
   -1.8270   21.7780  -29.7600 C   0  0  0  0  0  0  0  0  0  0  0  0
  1  2  1  0
  2  3  1  0
  3  4  2  0
  4  5  1  0
  5  6  1  0
  5  7  2  0
  7  8  1  0
  7  9  1  0
  9 10  1  0
  9 11  2  0
 11 12  1  0
 11 13  1  0
 13 14  2  0
 14 15  1  0
 14 16  1  0
 16 17  2  0
 17 18  1  0
 18 19  1  0
 18 20  1  0
 20 21  1  0
 20 22  1  0
 20 23  1  0
 23 24  1  0
 23 25  1  0
 23 26  1  0
 26 27  1  0
 27 28  1  0
 27 29  1  0
 27 30  1  0
 30 31  1  0
 30 32  1  0
 30 33  1  0
 26 34  1  0
 34 35  1  0
 34 36  1  0
 34 37  1  0
 37 38  1  0
 37 39  1  0
 37 40  1  0
 17 41  1  0
 41 42  1  0
 41 43  2  0
 43 44  1  0
 43 45  1  0
 45 46  1  0
 46 47  2  0
 47 48  1  0
 47 49  1  0
 49 50  1  0
 49 51  1  0
 49 52  1  0
 52 53  1  0
 53 54  1  0
 53 55  1  0
 53 56  1  0
 52 57  1  0
 57 58  1  0
 57 59  1  0
 57 60  1  0
 45 61  2  0
 61  3  1  0
 13  4  1  0
 61 16  1  0
M  CHG  3   6  -1  12  -1  15  -1
M  END
>  <UniqueID>  (23) 
23

>  <SMILES>  (23) 
CCN(CC)CCNc1ccc(/N=C/CN(C)C)c2c(O)c3c([O-])ccc([O-])c3c([O-])c12

>  <Energy>  (23) 
91.02190606974965

>  <Genealogy>  (23) 
CCN(CC)CCNc1ccc(N=CCN(C)C)c2c(O)c3c([O-])ccc([O-])c3c([O-])c12 (protonated)
CCN(CC)CCNc1ccc(/N=C/CN(C)C)c2c(O)c3c([O-])ccc([O-])c3c([O-])c12 (cis-trans isomerization)
CCN(CC)CCNc1ccc(/N=C/CN(C)C)c2c(O)c3c([O-])ccc([O-])c3c([O-])c12 (3D coordinates assigned)
CCN(CC)CCNc1ccc(/N=C/CN(C)C)c2c(O)c3c([O-])ccc([O-])c3c([O-])c12 (optimized conformer: 91.02190606974965 kcal/mol)

>  <smiles>  (23) 
CCN(CC)CCNc1ccc(N=CCN(C)C)c2c(O)c3c(O)ccc(O)c3c(O)c12

>  <score_type>  (23) 
oracle

>  <origin>  (23) 
adg

>  <m_score__min__energy>  (23) 
-11.67

>  <m_primary>  (23) 
energy

$$$$
23:0
     RDKit          3D

 41 44  0  0  0  0  0  0  0  0999 V2000
   -0.5520   26.6290  -23.5860 C   0  0  0  0  0  0  0  0  0  0  0  0
   -0.9140   27.0960  -24.8810 O   0  0  0  0  0  0  0  0  0  0  0  0
   -1.4900   26.2940  -25.8780 C   0  0  0  0  0  0  0  0  0  0  0  0
   -2.7300   25.6550  -25.7070 C   0  0  0  0  0  0  0  0  0  0  0  0
   -3.2520   24.8460  -26.7200 C   0  0  0  0  0  0  0  0  0  0  0  0
   -2.5550   24.6790  -27.9290 C   0  0  0  0  0  0  0  0  0  0  0  0
   -3.0610   23.8060  -28.9540 N   0  0  0  0  0  0  0  0  0  0  0  0
   -2.4770   22.6620  -29.3910 C   0  0  0  0  0  0  0  0  0  0  0  0
   -3.2280   22.0160  -30.3140 N   0  0  0  0  0  0  0  0  0  0  0  0
   -4.3170   22.7900  -30.4660 C   0  0  0  0  0  0  0  0  0  0  0  0
   -5.4130   22.5770  -31.3020 C   0  0  0  0  0  0  0  0  0  0  0  0
   -5.4600   21.4300  -32.1050 O   0  0  0  0  0  0  0  0  0  0  0  0
   -6.4740   21.1720  -33.0730 C   0  0  0  0  0  0  0  0  0  0  0  0
   -7.2850   19.9910  -32.6380 C   0  0  0  0  0  0  0  0  0  0  0  0
   -6.8640   18.6630  -32.8100 C   0  0  0  0  0  0  0  0  0  0  0  0
   -7.7670   17.7260  -32.3260 C   0  0  0  0  0  0  0  0  0  0  0  0
   -9.0870   18.5460  -31.6760 S   0  0  0  0  0  0  0  0  0  0  0  0
   -8.5240   20.0930  -32.0090 C   0  0  0  0  0  0  0  0  0  0  0  0
   -9.3760   21.5740  -31.6040 Cl  0  0  0  0  0  0  0  0  0  0  0  0
   -6.4350   23.5570  -31.2890 C   0  0  0  0  0  0  0  0  0  0  0  0
   -6.3170   24.7030  -30.4730 C   0  0  0  0  0  0  0  0  0  0  0  0
   -5.1940   24.8800  -29.6420 C   0  0  0  0  0  0  0  0  0  0  0  0
   -4.2180   23.8810  -29.6480 C   0  0  0  0  0  0  0  0  0  0  0  0
   -1.3190   25.3210  -28.0980 C   0  0  0  0  0  0  0  0  0  0  0  0
   -0.7950   26.1270  -27.0820 C   0  0  0  0  0  0  0  0  0  0  0  0
   -1.0368   27.2544  -22.8219 H   0  0  0  0  0  0  0  0  0  0  0  0
   -0.8796   25.5856  -23.4677 H   0  0  0  0  0  0  0  0  0  0  0  0
    0.5401   26.6861  -23.4677 H   0  0  0  0  0  0  0  0  0  0  0  0
   -3.2922   25.7922  -24.7716 H   0  0  0  0  0  0  0  0  0  0  0  0
   -4.2152   24.3363  -26.5700 H   0  0  0  0  0  0  0  0  0  0  0  0
   -1.5014   22.2995  -29.0349 H   0  0  0  0  0  0  0  0  0  0  0  0
   -3.0080   21.1170  -30.7950 H   0  0  0  0  0  0  0  0  0  0  0  0
   -7.1270   22.0524  -33.1646 H   0  0  0  0  0  0  0  0  0  0  0  0
   -6.0082   20.9604  -34.0468 H   0  0  0  0  0  0  0  0  0  0  0  0
   -5.9092   18.3905  -33.2834 H   0  0  0  0  0  0  0  0  0  0  0  0
   -7.6417   16.6337  -32.3611 H   0  0  0  0  0  0  0  0  0  0  0  0
   -7.3269   23.4245  -31.9190 H   0  0  0  0  0  0  0  0  0  0  0  0
   -7.1101   25.4651  -30.4865 H   0  0  0  0  0  0  0  0  0  0  0  0
   -5.0891   25.7742  -29.0100 H   0  0  0  0  0  0  0  0  0  0  0  0
   -0.7585   25.1897  -29.0353 H   0  0  0  0  0  0  0  0  0  0  0  0
    0.1702   26.6334  -27.2300 H   0  0  0  0  0  0  0  0  0  0  0  0
  1  2  1  0
  2  3  1  0
  3  4  2  0
  4  5  1  0
  5  6  2  0
  6  7  1  0
  7  8  1  0
  8  9  2  0
  9 10  1  0
 10 11  2  0
 11 12  1  0
 12 13  1  0
 13 14  1  0
 14 15  1  0
 15 16  2  0
 16 17  1  0
 17 18  1  0
 18 19  1  0
 11 20  1  0
 20 21  2  0
 21 22  1  0
 22 23  2  0
  6 24  1  0
 24 25  2  0
 25  3  1  0
 23  7  1  0
 23 10  1  0
 18 14  2  0
  1 26  1  0
  1 27  1  0
  1 28  1  0
  4 29  1  0
  5 30  1  0
  8 31  1  0
  9 32  1  0
 13 33  1  0
 13 34  1  0
 15 35  1  0
 16 36  1  0
 20 37  1  0
 21 38  1  0
 22 39  1  0
 24 40  1  0
 25 41  1  0
M  CHG  1   9   1
M  END
>  <UniqueID>  (24) 
24

>  <SMILES>  (24) 
COc1ccc(-n2c[nH+]c3c(OCc4ccsc4Cl)cccc32)cc1

>  <Energy>  (24) 
113.72960731292626

>  <Genealogy>  (24) 
COc1ccc(-n2c[nH+]c3c(OCc4ccsc4Cl)cccc32)cc1 (protonated)
COc1ccc(-n2c[nH+]c3c(OCc4ccsc4Cl)cccc32)cc1 (3D coordinates assigned)
COc1ccc(-n2c[nH+]c3c(OCc4ccsc4Cl)cccc32)cc1 (optimized conformer: 113.72960731292626 kcal/mol)

>  <smiles>  (24) 
COc1ccc(-n2cnc3c(OCc4ccsc4Cl)cccc32)cc1

>  <score_type>  (24) 
oracle

>  <origin>  (24) 
adg

>  <m_score__min__energy>  (24) 
-7.5

>  <m_primary>  (24) 
energy

$$$$
24:0
     RDKit          3D

 52 54  0  0  0  0  0  0  0  0999 V2000
   -2.7760   19.1820  -26.6660 C   0  0  0  0  0  0  0  0  0  0  0  0
   -2.7490   20.3740  -27.6250 C   0  0  0  0  0  0  0  0  0  0  0  0
   -1.5560   20.3460  -28.5010 N   0  0  0  0  0  0  0  0  0  0  0  0
   -0.6210   21.4280  -28.1280 C   0  0  0  0  0  0  0  0  0  0  0  0
   -1.9660   20.4840  -29.9190 C   0  0  0  0  0  0  0  0  0  0  0  0
   -2.3140   21.9360  -30.2710 C   0  0  0  0  0  0  0  0  0  0  0  0
   -3.0250   22.0840  -31.9530 S   0  0  0  0  0  0  0  0  0  0  0  0
   -4.7370   22.2050  -31.3920 C   0  0  0  0  0  0  0  0  0  0  0  0
   -5.1740   23.2370  -30.5400 C   0  0  0  0  0  0  0  0  0  0  0  0
   -4.3280   24.2030  -29.8050 C   0  0  0  0  0  0  0  0  0  0  0  0
   -3.8640   25.2030  -30.4130 O   0  0  0  0  0  0  0  0  0  0  0  0
   -3.9830   23.9600  -28.4270 N   0  0  0  0  0  0  0  0  0  0  0  0
   -2.9570   24.6620  -27.6990 C   0  0  0  0  0  0  0  0  0  0  0  0
   -3.1380   25.0620  -26.3610 C   0  0  0  0  0  0  0  0  0  0  0  0
   -2.1130   25.7160  -25.6720 C   0  0  0  0  0  0  0  0  0  0  0  0
   -0.8930   25.9680  -26.3030 C   0  0  0  0  0  0  0  0  0  0  0  0
    0.1000   26.6000  -25.6310 F   0  0  0  0  0  0  0  0  0  0  0  0
   -0.6940   25.5610  -27.6230 C   0  0  0  0  0  0  0  0  0  0  0  0
   -1.7170   24.9050  -28.3170 C   0  0  0  0  0  0  0  0  0  0  0  0
   -1.5020   24.5190  -29.6020 F   0  0  0  0  0  0  0  0  0  0  0  0
   -6.8510   23.1440  -30.3670 S   0  0  0  0  0  0  0  0  0  0  0  0
   -7.0260   21.7960  -31.3360 C   0  0  0  0  0  0  0  0  0  0  0  0
   -8.1950   21.1780  -31.6260 N   0  0  0  0  0  0  0  0  0  0  0  0
   -8.2020   20.0770  -32.4240 C   0  0  0  0  0  0  0  0  0  0  0  0
   -9.4960   19.3920  -32.7310 C   0  0  0  0  0  0  0  0  0  0  0  0
   -6.9920   19.5630  -32.9250 C   0  0  0  0  0  0  0  0  0  0  0  0
   -5.7660   20.1910  -32.6190 C   0  0  0  0  0  0  0  0  0  0  0  0
   -4.4930   19.5670  -33.1230 C   0  0  0  0  0  0  0  0  0  0  0  0
   -5.7980   21.3610  -31.8180 C   0  0  0  0  0  0  0  0  0  0  0  0
   -2.7678   19.5462  -25.6281 H   0  0  0  0  0  0  0  0  0  0  0  0
   -3.6877   18.5918  -26.8403 H   0  0  0  0  0  0  0  0  0  0  0  0
   -1.8919   18.5511  -26.8403 H   0  0  0  0  0  0  0  0  0  0  0  0
   -3.6523   20.3473  -28.2522 H   0  0  0  0  0  0  0  0  0  0  0  0
   -2.7121   21.2954  -27.0253 H   0  0  0  0  0  0  0  0  0  0  0  0
   -0.5602   21.4984  -27.0319 H   0  0  0  0  0  0  0  0  0  0  0  0
    0.3761   21.2082  -28.5372 H   0  0  0  0  0  0  0  0  0  0  0  0
   -0.9830   22.3827  -28.5372 H   0  0  0  0  0  0  0  0  0  0  0  0
   -1.1394   20.1495  -30.5631 H   0  0  0  0  0  0  0  0  0  0  0  0
   -2.8638   19.8684  -30.0775 H   0  0  0  0  0  0  0  0  0  0  0  0
   -3.0464   22.3123  -29.5416 H   0  0  0  0  0  0  0  0  0  0  0  0
   -1.3849   22.5242  -30.2423 H   0  0  0  0  0  0  0  0  0  0  0  0
   -4.4120   23.1300  -27.9600 H   0  0  0  0  0  0  0  0  0  0  0  0
   -4.0930   24.8582  -25.8545 H   0  0  0  0  0  0  0  0  0  0  0  0
   -2.2676   26.0330  -24.6301 H   0  0  0  0  0  0  0  0  0  0  0  0
    0.2684   25.7561  -28.1187 H   0  0  0  0  0  0  0  0  0  0  0  0
  -10.0013   19.1245  -31.7912 H   0  0  0  0  0  0  0  0  0  0  0  0
  -10.1393   20.0677  -33.3138 H   0  0  0  0  0  0  0  0  0  0  0  0
   -9.2989   18.4801  -33.3138 H   0  0  0  0  0  0  0  0  0  0  0  0
   -7.0017   18.6648  -33.5600 H   0  0  0  0  0  0  0  0  0  0  0  0
   -3.8709   19.2620  -32.2686 H   0  0  0  0  0  0  0  0  0  0  0  0
   -4.7341   18.6849  -33.7344 H   0  0  0  0  0  0  0  0  0  0  0  0
   -3.9434   20.2979  -33.7344 H   0  0  0  0  0  0  0  0  0  0  0  0
  1  2  1  0
  2  3  1  0
  3  4  1  0
  3  5  1  0
  5  6  1  0
  6  7  1  0
  7  8  1  0
  8  9  2  0
  9 10  1  0
 10 11  2  0
 10 12  1  0
 12 13  1  0
 13 14  2  0
 14 15  1  0
 15 16  2  0
 16 17  1  0
 16 18  1  0
 18 19  2  0
 19 20  1  0
  9 21  1  0
 21 22  1  0
 22 23  2  0
 23 24  1  0
 24 25  1  0
 24 26  2  0
 26 27  1  0
 27 28  1  0
 27 29  2  0
 29  8  1  0
 19 13  1  0
 29 22  1  0
  1 30  1  0
  1 31  1  0
  1 32  1  0
  2 33  1  0
  2 34  1  0
  4 35  1  0
  4 36  1  0
  4 37  1  0
  5 38  1  0
  5 39  1  0
  6 40  1  0
  6 41  1  0
 12 42  1  0
 14 43  1  0
 15 44  1  0
 18 45  1  0
 25 46  1  0
 25 47  1  0
 25 48  1  0
 26 49  1  0
 28 50  1  0
 28 51  1  0
 28 52  1  0
M  END
>  <UniqueID>  (25) 
25

>  <SMILES>  (25) 
CCN(C)CCSc1c(C(=O)Nc2ccc(F)cc2F)sc2nc(C)cc(C)c12

>  <Energy>  (25) 
88.78246245279165

>  <Genealogy>  (25) 
CCN(C)CCSc1c(C(=O)Nc2ccc(F)cc2F)sc2nc(C)cc(C)c12 (3D coordinates assigned)
CCN(C)CCSc1c(C(=O)Nc2ccc(F)cc2F)sc2nc(C)cc(C)c12 (optimized conformer: 88.78246245279165 kcal/mol)

>  <smiles>  (25) 
CCN(C)CCSc1c(C(=O)Nc2ccc(F)cc2F)sc2nc(C)cc(C)c12

>  <score_type>  (25) 
oracle

>  <origin>  (25) 
adg

>  <m_score__min__energy>  (25) 
-8.9000000000000004

>  <m_primary>  (25) 
energy

$$$$
25:0
     RDKit          3D

 36 38  0  0  0  0  0  0  0  0999 V2000
   -2.6400   24.9790  -29.2200 O   0  0  0  0  0  0  0  0  0  0  0  0
   -3.4100   24.5060  -30.1000 C   0  0  0  0  0  0  0  0  0  0  0  0
   -4.2730   25.3750  -30.8420 N   0  0  0  0  0  0  0  0  0  0  0  0
   -5.7250   25.3680  -30.7130 C   0  0  0  0  0  0  0  0  0  0  0  0
   -6.2400   23.9630  -30.7280 C   0  0  0  0  0  0  0  0  0  0  0  0
   -7.0950   23.4000  -29.8070 C   0  0  0  0  0  0  0  0  0  0  0  0
   -7.2920   22.1570  -30.1690 O   0  0  0  0  0  0  0  0  0  0  0  0
   -6.5930   21.9510  -31.2640 C   0  0  0  0  0  0  0  0  0  0  0  0
   -6.5540   20.6590  -31.9790 C   0  0  0  0  0  0  0  0  0  0  0  0
   -7.6810   19.8210  -31.9820 C   0  0  0  0  0  0  0  0  0  0  0  0
   -7.6510   18.5990  -32.6580 C   0  0  0  0  0  0  0  0  0  0  0  0
   -6.4970   18.1970  -33.3400 C   0  0  0  0  0  0  0  0  0  0  0  0
   -6.4980   16.6520  -34.1800 Cl  0  0  0  0  0  0  0  0  0  0  0  0
   -5.3630   19.0270  -33.3420 C   0  0  0  0  0  0  0  0  0  0  0  0
   -3.8910   18.5570  -34.1830 Cl  0  0  0  0  0  0  0  0  0  0  0  0
   -5.3960   20.2520  -32.6640 C   0  0  0  0  0  0  0  0  0  0  0  0
   -5.9140   23.0490  -31.6620 N   0  0  0  0  0  0  0  0  0  0  0  0
   -3.4010   23.1030  -30.3990 N   0  0  0  0  0  0  0  0  0  0  0  0
   -2.7980   22.1020  -29.5620 C   0  0  0  0  0  0  0  0  0  0  0  0
   -3.2830   21.8360  -28.2670 C   0  0  0  0  0  0  0  0  0  0  0  0
   -2.6950   20.8350  -27.4870 C   0  0  0  0  0  0  0  0  0  0  0  0
   -1.6330   20.0820  -27.9930 C   0  0  0  0  0  0  0  0  0  0  0  0
   -1.1610   20.3240  -29.2860 C   0  0  0  0  0  0  0  0  0  0  0  0
   -1.7440   21.3240  -30.0690 C   0  0  0  0  0  0  0  0  0  0  0  0
   -6.0075   25.8481  -29.7645 H   0  0  0  0  0  0  0  0  0  0  0  0
   -6.1624   25.9189  -31.5586 H   0  0  0  0  0  0  0  0  0  0  0  0
   -7.5313   23.9011  -28.9304 H   0  0  0  0  0  0  0  0  0  0  0  0
   -8.5926   20.1287  -31.4489 H   0  0  0  0  0  0  0  0  0  0  0  0
   -8.5388   17.9495  -32.6543 H   0  0  0  0  0  0  0  0  0  0  0  0
   -4.5081   20.9013  -32.6676 H   0  0  0  0  0  0  0  0  0  0  0  0
   -3.8070   22.8050  -31.3150 H   0  0  0  0  0  0  0  0  0  0  0  0
   -4.1271   22.4174  -27.8676 H   0  0  0  0  0  0  0  0  0  0  0  0
   -3.0702   20.6401  -26.4715 H   0  0  0  0  0  0  0  0  0  0  0  0
   -1.1688   19.2996  -27.3747 H   0  0  0  0  0  0  0  0  0  0  0  0
   -0.3295   19.7265  -29.6879 H   0  0  0  0  0  0  0  0  0  0  0  0
   -1.3749   21.5032  -31.0896 H   0  0  0  0  0  0  0  0  0  0  0  0
  1  2  2  0
  2  3  1  0
  3  4  1  0
  4  5  1  0
  5  6  2  0
  6  7  1  0
  7  8  1  0
  8  9  1  0
  9 10  2  0
 10 11  1  0
 11 12  2  0
 12 13  1  0
 12 14  1  0
 14 15  1  0
 14 16  2  0
  8 17  2  0
  2 18  1  0
 18 19  1  0
 19 20  2  0
 20 21  1  0
 21 22  2  0
 22 23  1  0
 23 24  2  0
 17  5  1  0
 24 19  1  0
 16  9  1  0
  4 25  1  0
  4 26  1  0
  6 27  1  0
 10 28  1  0
 11 29  1  0
 16 30  1  0
 18 31  1  0
 20 32  1  0
 21 33  1  0
 22 34  1  0
 23 35  1  0
 24 36  1  0
M  CHG  1   3  -1
M  END
>  <UniqueID>  (26) 
26

>  <SMILES>  (26) 
O=C([N-]Cc1coc(-c2ccc(Cl)c(Cl)c2)n1)Nc1ccccc1

>  <Energy>  (26) 
69.26211308868643

>  <Genealogy>  (26) 
O=C([N-]Cc1coc(-c2ccc(Cl)c(Cl)c2)n1)Nc1ccccc1 (protonated)
O=C([N-]Cc1coc(-c2ccc(Cl)c(Cl)c2)n1)Nc1ccccc1 (3D coordinates assigned)
O=C([N-]Cc1coc(-c2ccc(Cl)c(Cl)c2)n1)Nc1ccccc1 (optimized conformer: 69.26211308868643 kcal/mol)

>  <smiles>  (26) 
O=C(NCc1coc(-c2ccc(Cl)c(Cl)c2)n1)Nc1ccccc1

>  <score_type>  (26) 
oracle

>  <origin>  (26) 
adg

>  <m_score__min__energy>  (26) 
-9.5899999999999999

>  <m_primary>  (26) 
energy

$$$$
26:0
     RDKit          3D

 44 45  0  0  0  0  0  0  0  0999 V2000
   -3.1360   20.0280  -33.3600 C   0  0  0  0  0  0  0  0  0  0  0  0
   -4.3670   19.1690  -33.0280 C   0  0  0  0  0  0  0  0  0  0  0  0
   -5.5660   19.4910  -33.8520 N   0  0  0  0  0  0  0  0  0  0  0  0
   -5.7090   18.5160  -34.9730 C   0  0  0  0  0  0  0  0  0  0  0  0
   -5.3590   17.0690  -34.5920 C   0  0  0  0  0  0  0  0  0  0  0  0
   -6.7680   19.6450  -32.9550 C   0  0  1  0  0  0  0  0  0  0  0  0
   -6.9600   18.4650  -31.9780 C   0  0  0  0  0  0  0  0  0  0  0  0
   -6.8890   21.0120  -32.2460 C   0  0  0  0  0  0  0  0  0  0  0  0
   -5.7240   21.7620  -31.9730 C   0  0  0  0  0  0  0  0  0  0  0  0
   -5.7870   23.0140  -31.3630 C   0  0  0  0  0  0  0  0  0  0  0  0
   -7.0220   23.5380  -30.9620 C   0  0  0  0  0  0  0  0  0  0  0  0
   -8.1870   22.8040  -31.1910 C   0  0  0  0  0  0  0  0  0  0  0  0
   -8.1410   21.5360  -31.8020 C   0  0  0  0  0  0  0  0  0  0  0  0
   -9.4380   20.7740  -31.9220 C   0  0  0  0  0  0  0  0  0  0  0  0
   -7.0950   24.9060  -30.3280 C   0  0  0  0  0  0  0  0  0  0  0  0
   -5.7580   25.3070  -29.6910 C   0  0  0  0  0  0  0  0  0  0  0  0
   -4.6140   25.0840  -30.6840 C   0  0  0  0  0  0  0  0  0  0  0  0
   -4.6060   23.7300  -31.1330 O   0  0  0  0  0  0  0  0  0  0  0  0
   -2.6587   20.3610  -32.4266 H   0  0  0  0  0  0  0  0  0  0  0  0
   -2.4203   19.4322  -33.9455 H   0  0  0  0  0  0  0  0  0  0  0  0
   -3.4482   20.9053  -33.9455 H   0  0  0  0  0  0  0  0  0  0  0  0
   -4.1071   18.1128  -33.1920 H   0  0  0  0  0  0  0  0  0  0  0  0
   -4.6318   19.3803  -31.9815 H   0  0  0  0  0  0  0  0  0  0  0  0
   -5.3780   20.4330  -34.2710 H   0  0  0  0  0  0  0  0  0  0  0  0
   -6.7524   18.5393  -35.3206 H   0  0  0  0  0  0  0  0  0  0  0  0
   -4.9955   18.8210  -35.7527 H   0  0  0  0  0  0  0  0  0  0  0  0
   -5.3359   16.9737  -33.4964 H   0  0  0  0  0  0  0  0  0  0  0  0
   -6.1182   16.3876  -35.0034 H   0  0  0  0  0  0  0  0  0  0  0  0
   -4.3723   16.8099  -35.0034 H   0  0  0  0  0  0  0  0  0  0  0  0
   -7.6118   19.6187  -33.6602 H   0  0  0  0  0  0  0  0  0  0  0  0
   -6.9002   18.8325  -30.9429 H   0  0  0  0  0  0  0  0  0  0  0  0
   -7.9448   18.0051  -32.1475 H   0  0  0  0  0  0  0  0  0  0  0  0
   -6.1718   17.7167  -32.1475 H   0  0  0  0  0  0  0  0  0  0  0  0
   -4.7427   21.3482  -32.2484 H   0  0  0  0  0  0  0  0  0  0  0  0
   -9.1580   23.2234  -30.8889 H   0  0  0  0  0  0  0  0  0  0  0  0
   -9.8242   20.5471  -30.9174 H   0  0  0  0  0  0  0  0  0  0  0  0
  -10.1725   21.3841  -32.4681 H   0  0  0  0  0  0  0  0  0  0  0  0
   -9.2626   19.8354  -32.4681 H   0  0  0  0  0  0  0  0  0  0  0  0
   -7.3575   25.6437  -31.1006 H   0  0  0  0  0  0  0  0  0  0  0  0
   -7.8578   24.8772  -29.5360 H   0  0  0  0  0  0  0  0  0  0  0  0
   -5.7934   26.3698  -29.4095 H   0  0  0  0  0  0  0  0  0  0  0  0
   -5.5850   24.6887  -28.7978 H   0  0  0  0  0  0  0  0  0  0  0  0
   -4.7475   25.7521  -31.5476 H   0  0  0  0  0  0  0  0  0  0  0  0
   -3.6585   25.3012  -30.1842 H   0  0  0  0  0  0  0  0  0  0  0  0
  1  2  1  0
  2  3  1  0
  3  4  1  0
  4  5  1  0
  3  6  1  0
  6  7  1  0
  6  8  1  0
  8  9  2  0
  9 10  1  0
 10 11  2  0
 11 12  1  0
 12 13  2  0
 13 14  1  0
 11 15  1  0
 15 16  1  0
 16 17  1  0
 17 18  1  0
 13  8  1  0
 18 10  1  0
  1 19  1  0
  1 20  1  0
  1 21  1  0
  2 22  1  0
  2 23  1  0
  3 24  1  0
  4 25  1  0
  4 26  1  0
  5 27  1  0
  5 28  1  0
  5 29  1  0
  6 30  1  6
  7 31  1  0
  7 32  1  0
  7 33  1  0
  9 34  1  0
 12 35  1  0
 14 36  1  0
 14 37  1  0
 14 38  1  0
 15 39  1  0
 15 40  1  0
 16 41  1  0
 16 42  1  0
 17 43  1  0
 17 44  1  0
M  CHG  1   3   1
M  END
>  <UniqueID>  (27) 
27

>  <SMILES>  (27) 
CC[NH+](CC)[C@@H](C)c1cc2c(cc1C)CCCO2

>  <Energy>  (27) 
58.04857788021312

>  <Genealogy>  (27) 
CC[NH+](CC)C(C)c1cc2c(cc1C)CCCO2 (protonated)
CC[NH+](CC)[C@@H](C)c1cc2c(cc1C)CCCO2 (chirality)
CC[NH+](CC)[C@@H](C)c1cc2c(cc1C)CCCO2 (3D coordinates assigned)
CC[NH+](CC)[C@@H](C)c1cc2c(cc1C)CCCO2 (nonaromatic ring conformer: 58.04857788021312 kcal/mol)

>  <smiles>  (27) 
CCN(CC)C(C)c1cc2c(cc1C)CCCO2

>  <score_type>  (27) 
oracle

>  <origin>  (27) 
adg

>  <m_score__min__energy>  (27) 
-6.4299999999999997

>  <m_primary>  (27) 
energy

$$$$
27:0
     RDKit          3D

 64 66  0  0  0  0  0  0  0  0999 V2000
   -0.1360   20.7810  -31.2730 C   0  0  0  0  0  0  0  0  0  0  0  0
   -1.4720   20.1710  -30.8560 C   0  0  0  0  0  0  0  0  0  0  0  0
   -2.1000   19.3700  -32.0050 C   0  0  0  0  0  0  0  0  0  0  0  0
   -3.3550   20.0070  -32.4720 N   0  0  0  0  0  0  0  0  0  0  0  0
   -3.0530   21.0370  -33.4950 C   0  0  0  0  0  0  0  0  0  0  0  0
   -1.7110   20.7780  -34.1780 C   0  0  0  0  0  0  0  0  0  0  0  0
   -4.3260   18.9990  -32.9740 C   0  0  0  0  0  0  0  0  0  0  0  0
   -5.3730   19.6610  -33.8750 C   0  0  0  0  0  0  0  0  0  0  0  0
   -6.5360   20.0690  -33.0780 N   0  0  0  0  0  0  0  0  0  0  0  0
   -6.5000   21.4990  -32.7370 C   0  0  0  0  0  0  0  0  0  0  0  0
   -6.6290   21.7260  -31.2230 C   0  0  0  0  0  0  0  0  0  0  0  0
   -5.5660   22.6620  -30.7040 C   0  0  0  0  0  0  0  0  0  0  0  0
   -5.8750   24.0010  -30.4240 C   0  0  0  0  0  0  0  0  0  0  0  0
   -4.8810   24.8750  -29.9750 C   0  0  0  0  0  0  0  0  0  0  0  0
   -3.5620   24.4250  -29.8190 C   0  0  0  0  0  0  0  0  0  0  0  0
   -2.5360   25.2930  -29.3330 N   0  0  0  0  0  0  0  0  0  0  0  0
   -1.5090   24.8950  -27.9950 S   0  0  0  0  0  0  0  0  0  0  0  0
   -0.1500   25.4890  -28.2300 O   0  0  0  0  0  0  0  0  0  0  0  0
   -2.0780   25.4900  -26.7380 O   0  0  0  0  0  0  0  0  0  0  0  0
   -1.3290   23.1630  -27.7980 C   0  0  0  0  0  0  0  0  0  0  0  0
   -2.2560   22.3140  -27.2170 C   0  0  0  0  0  0  0  0  0  0  0  0
   -1.8330   20.9790  -27.1820 C   0  0  0  0  0  0  0  0  0  0  0  0
   -0.5650   20.7800  -27.7360 C   0  0  0  0  0  0  0  0  0  0  0  0
    0.1620   19.4920  -27.8480 C   0  0  0  0  0  0  0  0  0  0  0  0
   -0.4430   18.2860  -27.4480 C   0  0  0  0  0  0  0  0  0  0  0  0
    0.2570   17.0850  -27.5760 C   0  0  0  0  0  0  0  0  0  0  0  0
    1.5480   17.0880  -28.0990 C   0  0  0  0  0  0  0  0  0  0  0  0
    2.1240   18.2970  -28.4880 C   0  0  0  0  0  0  0  0  0  0  0  0
    1.4300   19.4620  -28.3600 N   0  0  0  0  0  0  0  0  0  0  0  0
    0.0170   22.2730  -28.2610 S   0  0  0  0  0  0  0  0  0  0  0  0
   -3.2550   23.0860  -30.0840 C   0  0  0  0  0  0  0  0  0  0  0  0
   -4.2470   22.2110  -30.5360 C   0  0  0  0  0  0  0  0  0  0  0  0
    0.4425   21.0452  -30.3755 H   0  0  0  0  0  0  0  0  0  0  0  0
    0.4291   20.0517  -31.8720 H   0  0  0  0  0  0  0  0  0  0  0  0
   -0.3170   21.6857  -31.8720 H   0  0  0  0  0  0  0  0  0  0  0  0
   -1.3085   19.5010  -29.9991 H   0  0  0  0  0  0  0  0  0  0  0  0
   -2.1579   20.9872  -30.5852 H   0  0  0  0  0  0  0  0  0  0  0  0
   -1.3876   19.3222  -32.8418 H   0  0  0  0  0  0  0  0  0  0  0  0
   -2.3343   18.3589  -31.6407 H   0  0  0  0  0  0  0  0  0  0  0  0
   -3.8477   21.0280  -34.2555 H   0  0  0  0  0  0  0  0  0  0  0  0
   -2.9994   22.0141  -32.9927 H   0  0  0  0  0  0  0  0  0  0  0  0
   -0.9338   20.6280  -33.4142 H   0  0  0  0  0  0  0  0  0  0  0  0
   -1.7867   19.8779  -34.8058 H   0  0  0  0  0  0  0  0  0  0  0  0
   -1.4463   21.6416  -34.8058 H   0  0  0  0  0  0  0  0  0  0  0  0
   -3.7863   18.2326  -33.5496 H   0  0  0  0  0  0  0  0  0  0  0  0
   -4.8369   18.5401  -32.1147 H   0  0  0  0  0  0  0  0  0  0  0  0
   -4.9321   20.5467  -34.3557 H   0  0  0  0  0  0  0  0  0  0  0  0
   -5.6956   18.9417  -34.6421 H   0  0  0  0  0  0  0  0  0  0  0  0
   -6.5070   19.5310  -32.1800 H   0  0  0  0  0  0  0  0  0  0  0  0
   -5.5453   21.9235  -33.0810 H   0  0  0  0  0  0  0  0  0  0  0  0
   -7.3510   21.9907  -33.2310 H   0  0  0  0  0  0  0  0  0  0  0  0
   -7.6181   22.1580  -31.0108 H   0  0  0  0  0  0  0  0  0  0  0  0
   -6.5050   20.7556  -30.7201 H   0  0  0  0  0  0  0  0  0  0  0  0
   -6.9043   24.3650  -30.5584 H   0  0  0  0  0  0  0  0  0  0  0  0
   -5.1343   25.9200  -29.7431 H   0  0  0  0  0  0  0  0  0  0  0  0
   -3.2255   22.6532  -26.8232 H   0  0  0  0  0  0  0  0  0  0  0  0
   -2.4404   20.1652  -26.7591 H   0  0  0  0  0  0  0  0  0  0  0  0
   -1.4630   18.2897  -27.0363 H   0  0  0  0  0  0  0  0  0  0  0  0
   -0.2097   16.1388  -27.2647 H   0  0  0  0  0  0  0  0  0  0  0  0
    2.1073   16.1466  -28.2041 H   0  0  0  0  0  0  0  0  0  0  0  0
    3.1438   18.3099  -28.9002 H   0  0  0  0  0  0  0  0  0  0  0  0
    1.9030   20.3450  -28.6570 H   0  0  0  0  0  0  0  0  0  0  0  0
   -2.2283   22.7201  -29.9360 H   0  0  0  0  0  0  0  0  0  0  0  0
   -3.9932   21.1646  -30.7610 H   0  0  0  0  0  0  0  0  0  0  0  0
  1  2  1  0
  2  3  1  0
  3  4  1  0
  4  5  1  0
  5  6  1  0
  4  7  1  0
  7  8  1  0
  8  9  1  0
  9 10  1  0
 10 11  1  0
 11 12  1  0
 12 13  2  0
 13 14  1  0
 14 15  2  0
 15 16  1  0
 16 17  1  0
 17 18  2  0
 17 19  2  0
 17 20  1  0
 20 21  2  0
 21 22  1  0
 22 23  2  0
 23 24  1  0
 24 25  2  0
 25 26  1  0
 26 27  2  0
 27 28  1  0
 28 29  2  0
 23 30  1  0
 15 31  1  0
 31 32  2  0
 32 12  1  0
 30 20  1  0
 29 24  1  0
  1 33  1  0
  1 34  1  0
  1 35  1  0
  2 36  1  0
  2 37  1  0
  3 38  1  0
  3 39  1  0
  5 40  1  0
  5 41  1  0
  6 42  1  0
  6 43  1  0
  6 44  1  0
  7 45  1  0
  7 46  1  0
  8 47  1  0
  8 48  1  0
  9 49  1  0
 10 50  1  0
 10 51  1  0
 11 52  1  0
 11 53  1  0
 13 54  1  0
 14 55  1  0
 21 56  1  0
 22 57  1  0
 25 58  1  0
 26 59  1  0
 27 60  1  0
 28 61  1  0
 29 62  1  0
 31 63  1  0
 32 64  1  0
M  CHG  2  16  -1  29   1
M  END
>  <UniqueID>  (28) 
28

>  <SMILES>  (28) 
CCCN(CC)CCNCCc1ccc([N-]S(=O)(=O)c2ccc(-c3cccc[nH+]3)s2)cc1

>  <Energy>  (28) 
92.4273192985573

>  <Genealogy>  (28) 
CCCN(CC)CCNCCc1ccc([N-]S(=O)(=O)c2ccc(-c3cccc[nH+]3)s2)cc1 (protonated)
CCCN(CC)CCNCCc1ccc([N-]S(=O)(=O)c2ccc(-c3cccc[nH+]3)s2)cc1 (3D coordinates assigned)
CCCN(CC)CCNCCc1ccc([N-]S(=O)(=O)c2ccc(-c3cccc[nH+]3)s2)cc1 (optimized conformer: 92.4273192985573 kcal/mol)

>  <smiles>  (28) 
CCCN(CC)CCNCCc1ccc(NS(=O)(=O)c2ccc(-c3ccccn3)s2)cc1

>  <score_type>  (28) 
oracle

>  <origin>  (28) 
adg

>  <m_score__min__energy>  (28) 
-10.1

>  <m_primary>  (28) 
energy

$$$$
28:0
     RDKit          3D

 32 34  0  0  0  0  0  0  0  0999 V2000
   -9.4880   20.5750  -31.9690 C   0  0  0  0  0  0  0  0  0  0  0  0
   -8.9300   21.6820  -31.0810 C   0  0  0  0  0  0  0  0  0  0  0  0
   -8.4500   22.8740  -31.9160 C   0  0  0  0  0  0  0  0  0  0  0  0
   -6.9440   23.0070  -31.8480 C   0  0  0  0  0  0  0  0  0  0  0  0
   -6.4030   24.1390  -31.2250 C   0  0  0  0  0  0  0  0  0  0  0  0
   -5.0190   24.2820  -31.1370 C   0  0  0  0  0  0  0  0  0  0  0  0
   -4.5270   25.3030  -30.5870 O   0  0  0  0  0  0  0  0  0  0  0  0
   -4.2140   23.3510  -31.6290 O   0  0  0  0  0  0  0  0  0  0  0  0
   -4.6600   22.2440  -32.2200 C   0  0  0  0  0  0  0  0  0  0  0  0
   -6.0560   22.0200  -32.3490 C   0  0  0  0  0  0  0  0  0  0  0  0
   -6.5040   20.8330  -32.9610 C   0  0  0  0  0  0  0  0  0  0  0  0
   -5.5940   19.8920  -33.4450 C   0  0  0  0  0  0  0  0  0  0  0  0
   -4.2160   20.1120  -33.3290 C   0  0  0  0  0  0  0  0  0  0  0  0
   -3.3050   19.1630  -33.8180 C   0  0  0  0  0  0  0  0  0  0  0  0
   -1.9310   19.3810  -33.6990 C   0  0  0  0  0  0  0  0  0  0  0  0
   -1.4550   20.5450  -33.0920 C   0  0  0  0  0  0  0  0  0  0  0  0
   -2.3510   21.4980  -32.5990 C   0  0  0  0  0  0  0  0  0  0  0  0
   -3.7400   21.2940  -32.7120 C   0  0  0  0  0  0  0  0  0  0  0  0
   -9.8940   19.7695  -31.3394 H   0  0  0  0  0  0  0  0  0  0  0  0
  -10.2883   20.9827  -32.6041 H   0  0  0  0  0  0  0  0  0  0  0  0
   -8.6842   20.1742  -32.6041 H   0  0  0  0  0  0  0  0  0  0  0  0
   -9.7179   22.0207  -30.3921 H   0  0  0  0  0  0  0  0  0  0  0  0
   -8.0719   21.2805  -30.5220 H   0  0  0  0  0  0  0  0  0  0  0  0
   -8.7519   22.7254  -32.9633 H   0  0  0  0  0  0  0  0  0  0  0  0
   -8.9033   23.7917  -31.5130 H   0  0  0  0  0  0  0  0  0  0  0  0
   -7.0664   24.9108  -30.8076 H   0  0  0  0  0  0  0  0  0  0  0  0
   -7.5835   20.6456  -33.0586 H   0  0  0  0  0  0  0  0  0  0  0  0
   -5.9619   18.9710  -33.9209 H   0  0  0  0  0  0  0  0  0  0  0  0
   -3.6747   18.2442  -34.2967 H   0  0  0  0  0  0  0  0  0  0  0  0
   -1.2216   18.6338  -34.0844 H   0  0  0  0  0  0  0  0  0  0  0  0
   -0.3716   20.7125  -33.0015 H   0  0  0  0  0  0  0  0  0  0  0  0
   -1.9693   22.4119  -32.1204 H   0  0  0  0  0  0  0  0  0  0  0  0
  1  2  1  0
  2  3  1  0
  3  4  1  0
  4  5  2  0
  5  6  1  0
  6  7  2  0
  6  8  1  0
  8  9  1  0
  9 10  2  0
 10 11  1  0
 11 12  2  0
 12 13  1  0
 13 14  2  0
 14 15  1  0
 15 16  2  0
 16 17  1  0
 17 18  2  0
 10  4  1  0
 18 13  1  0
 18  9  1  0
  1 19  1  0
  1 20  1  0
  1 21  1  0
  2 22  1  0
  2 23  1  0
  3 24  1  0
  3 25  1  0
  5 26  1  0
 11 27  1  0
 12 28  1  0
 14 29  1  0
 15 30  1  0
 16 31  1  0
 17 32  1  0
M  END
>  <UniqueID>  (29) 
29

>  <SMILES>  (29) 
CCCc1cc(=O)oc2c1ccc1ccccc12

>  <Energy>  (29) 
39.53410507266552

>  <Genealogy>  (29) 
CCCc1cc(=O)oc2c1ccc1ccccc12 (3D coordinates assigned)
CCCc1cc(=O)oc2c1ccc1ccccc12 (optimized conformer: 39.53410507266552 kcal/mol)

>  <smiles>  (29) 
CCCc1cc(=O)oc2c1ccc1ccccc12

>  <score_type>  (29) 
oracle

>  <origin>  (29) 
adg

>  <m_score__min__energy>  (29) 
-7.9000000000000004

>  <m_primary>  (29) 
energy

$$$$
29:0
     RDKit          3D

 55 57  0  0  0  0  0  0  0  0999 V2000
   -3.1200   20.9190  -32.3220 C   0  0  0  0  0  0  0  0  0  0  0  0
   -3.7620   22.2680  -32.0430 C   0  0  0  0  0  0  0  0  0  0  0  0
   -4.0920   22.3520  -30.6610 O   0  0  0  0  0  0  0  0  0  0  0  0
   -3.3410   22.9750  -29.6430 C   0  0  0  0  0  0  0  0  0  0  0  0
   -3.1840   24.3850  -29.5440 C   0  0  0  0  0  0  0  0  0  0  0  0
   -3.8290   25.2270  -30.4660 O   0  0  0  0  0  0  0  0  0  0  0  0
   -5.2390   25.4050  -30.6060 C   0  0  0  0  0  0  0  0  0  0  0  0
   -6.0210   24.4160  -29.7300 C   0  0  0  0  0  0  0  0  0  0  0  0
   -6.5340   23.2780  -30.5140 N   0  0  0  0  0  0  0  0  0  0  0  0
   -7.1410   23.7330  -31.7800 C   0  0  0  0  0  0  0  0  0  0  0  0
   -8.5640   23.1620  -31.9700 C   0  0  0  0  0  0  0  0  0  0  0  0
   -8.6700   21.7220  -31.4680 C   0  0  0  0  0  0  0  0  0  0  0  0
   -7.3690   21.1420  -31.4300 O   0  0  0  0  0  0  0  0  0  0  0  0
   -6.9910   19.9710  -32.1010 C   0  0  0  0  0  0  0  0  0  0  0  0
   -7.2510   18.6840  -31.5920 C   0  0  0  0  0  0  0  0  0  0  0  0
   -6.8640   17.5500  -32.3150 C   0  0  0  0  0  0  0  0  0  0  0  0
   -6.2140   17.6900  -33.5420 C   0  0  0  0  0  0  0  0  0  0  0  0
   -5.9510   18.9640  -34.0520 C   0  0  0  0  0  0  0  0  0  0  0  0
   -6.3380   20.0990  -33.3330 C   0  0  0  0  0  0  0  0  0  0  0  0
   -2.3750   24.9150  -28.5220 C   0  0  0  0  0  0  0  0  0  0  0  0
   -1.7750   24.0860  -27.5790 C   0  0  0  0  0  0  0  0  0  0  0  0
   -1.9460   22.7060  -27.6430 C   0  0  0  0  0  0  0  0  0  0  0  0
   -1.3380   21.8730  -26.6880 C   0  0  0  0  0  0  0  0  0  0  0  0
   -1.4860   20.4870  -26.7670 C   0  0  0  0  0  0  0  0  0  0  0  0
   -2.2350   19.9220  -27.8010 C   0  0  0  0  0  0  0  0  0  0  0  0
   -2.8520   20.7390  -28.7520 C   0  0  0  0  0  0  0  0  0  0  0  0
   -2.7200   22.1410  -28.6840 C   0  0  0  0  0  0  0  0  0  0  0  0
   -2.8833   20.4216  -31.3698 H   0  0  0  0  0  0  0  0  0  0  0  0
   -3.8170   20.2935  -32.8990 H   0  0  0  0  0  0  0  0  0  0  0  0
   -2.1950   21.0655  -32.8990 H   0  0  0  0  0  0  0  0  0  0  0  0
   -3.0572   23.0717  -32.3025 H   0  0  0  0  0  0  0  0  0  0  0  0
   -4.6743   22.3755  -32.6481 H   0  0  0  0  0  0  0  0  0  0  0  0
   -5.5010   26.4309  -30.3080 H   0  0  0  0  0  0  0  0  0  0  0  0
   -5.5072   25.2218  -31.6569 H   0  0  0  0  0  0  0  0  0  0  0  0
   -5.3549   24.0343  -28.9422 H   0  0  0  0  0  0  0  0  0  0  0  0
   -6.8807   24.9483  -29.2970 H   0  0  0  0  0  0  0  0  0  0  0  0
   -7.2350   22.7290  -29.9600 H   0  0  0  0  0  0  0  0  0  0  0  0
   -5.7330   22.6440  -30.7400 H   0  0  0  0  0  0  0  0  0  0  0  0
   -7.1957   24.8316  -31.7743 H   0  0  0  0  0  0  0  0  0  0  0  0
   -6.5140   23.3734  -32.6092 H   0  0  0  0  0  0  0  0  0  0  0  0
   -9.2760   23.7871  -31.4112 H   0  0  0  0  0  0  0  0  0  0  0  0
   -8.7933   23.1666  -33.0458 H   0  0  0  0  0  0  0  0  0  0  0  0
   -9.1053   21.7157  -30.4578 H   0  0  0  0  0  0  0  0  0  0  0  0
   -9.3139   21.1412  -32.1448 H   0  0  0  0  0  0  0  0  0  0  0  0
   -7.7597   18.5697  -30.6234 H   0  0  0  0  0  0  0  0  0  0  0  0
   -7.0725   16.5466  -31.9155 H   0  0  0  0  0  0  0  0  0  0  0  0
   -5.9087   16.7973  -34.1077 H   0  0  0  0  0  0  0  0  0  0  0  0
   -5.4393   19.0741  -35.0195 H   0  0  0  0  0  0  0  0  0  0  0  0
   -6.1279   21.0999  -33.7382 H   0  0  0  0  0  0  0  0  0  0  0  0
   -2.2143   26.0018  -28.4676 H   0  0  0  0  0  0  0  0  0  0  0  0
   -1.1616   24.5240  -26.7778 H   0  0  0  0  0  0  0  0  0  0  0  0
   -0.7431   22.3149  -25.8751 H   0  0  0  0  0  0  0  0  0  0  0  0
   -1.0123   19.8398  -26.0142 H   0  0  0  0  0  0  0  0  0  0  0  0
   -2.3398   18.8290  -27.8673 H   0  0  0  0  0  0  0  0  0  0  0  0
   -3.4450   20.2850  -29.5596 H   0  0  0  0  0  0  0  0  0  0  0  0
  1  2  1  0
  2  3  1  0
  3  4  1  0
  4  5  2  0
  5  6  1  0
  6  7  1  0
  7  8  1  0
  8  9  1  0
  9 10  1  0
 10 11  1  0
 11 12  1  0
 12 13  1  0
 13 14  1  0
 14 15  2  0
 15 16  1  0
 16 17  2  0
 17 18  1  0
 18 19  2  0
  5 20  1  0
 20 21  2  0
 21 22  1  0
 22 23  2  0
 23 24  1  0
 24 25  2  0
 25 26  1  0
 26 27  2  0
 27  4  1  0
 19 14  1  0
 27 22  1  0
  1 28  1  0
  1 29  1  0
  1 30  1  0
  2 31  1  0
  2 32  1  0
  7 33  1  0
  7 34  1  0
  8 35  1  0
  8 36  1  0
  9 37  1  0
  9 38  1  0
 10 39  1  0
 10 40  1  0
 11 41  1  0
 11 42  1  0
 12 43  1  0
 12 44  1  0
 15 45  1  0
 16 46  1  0
 17 47  1  0
 18 48  1  0
 19 49  1  0
 20 50  1  0
 21 51  1  0
 23 52  1  0
 24 53  1  0
 25 54  1  0
 26 55  1  0
M  CHG  1   9   1
M  END
>  <UniqueID>  (30) 
30

>  <SMILES>  (30) 
CCOc1c(OCC[NH2+]CCCOc2ccccc2)ccc2ccccc12

>  <Energy>  (30) 
56.22761207081053

>  <Genealogy>  (30) 
CCOc1c(OCC[NH2+]CCCOc2ccccc2)ccc2ccccc12 (protonated)
CCOc1c(OCC[NH2+]CCCOc2ccccc2)ccc2ccccc12 (3D coordinates assigned)
CCOc1c(OCC[NH2+]CCCOc2ccccc2)ccc2ccccc12 (optimized conformer: 56.22761207081053 kcal/mol)

>  <smiles>  (30) 
CCOc1c(OCCNCCCOc2ccccc2)ccc2ccccc12

>  <score_type>  (30) 
oracle

>  <origin>  (30) 
adg

>  <m_score__min__energy>  (30) 
-7.2800000000000002

>  <m_primary>  (30) 
energy

$$$$
30:0
     RDKit          3D

 56 59  0  0  0  0  0  0  0  0999 V2000
   -9.1350   19.7910  -32.3310 C   0  0  0  0  0  0  0  0  0  0  0  0
   -8.5140   20.6150  -31.4830 C   0  0  0  0  0  0  0  0  0  0  0  0
   -8.8840   22.0660  -31.3730 C   0  0  0  0  0  0  0  0  0  0  0  0
   -7.7040   22.9080  -31.5370 N   0  0  0  0  0  0  0  0  0  0  0  0
   -7.2320   23.8190  -30.6680 C   0  0  0  0  0  0  0  0  0  0  0  0
   -6.1120   24.3630  -31.2640 C   0  0  0  0  0  0  0  0  0  0  0  0
   -5.2590   25.4760  -30.7350 C   0  0  0  0  0  0  0  0  0  0  0  0
   -3.9270   25.0270  -30.4760 O   0  0  0  0  0  0  0  0  0  0  0  0
   -3.5850   23.8580  -29.7780 C   0  0  0  0  0  0  0  0  0  0  0  0
   -3.5690   23.8040  -28.3710 C   0  0  0  0  0  0  0  0  0  0  0  0
   -3.1740   22.6410  -27.7040 C   0  0  0  0  0  0  0  0  0  0  0  0
   -2.7800   21.5010  -28.4260 C   0  0  0  0  0  0  0  0  0  0  0  0
   -2.3530   20.2610  -27.7200 C   0  0  0  0  0  0  0  0  0  0  0  0
   -1.1580   19.5810  -27.8820 C   0  0  0  0  0  0  0  0  0  0  0  0
   -1.2170   18.5020  -27.0250 C   0  0  0  0  0  0  0  0  0  0  0  0
   -2.3570   18.5110  -26.3760 O   0  0  0  0  0  0  0  0  0  0  0  0
   -3.0630   19.5480  -26.7660 C   0  0  0  0  0  0  0  0  0  0  0  0
   -2.7970   21.5560  -29.8300 C   0  0  0  0  0  0  0  0  0  0  0  0
   -3.2160   22.7090  -30.5060 C   0  0  0  0  0  0  0  0  0  0  0  0
   -3.2060   22.6940  -31.9060 O   0  0  0  0  0  0  0  0  0  0  0  0
   -3.1480   21.5040  -32.6940 C   0  0  0  0  0  0  0  0  0  0  0  0
   -4.5060   21.1900  -33.3440 C   0  0  0  0  0  0  0  0  0  0  0  0
   -4.9300   19.7900  -33.1020 N   0  0  0  0  0  0  0  0  0  0  0  0
   -5.2660   19.5940  -31.6730 C   0  0  0  0  0  0  0  0  0  0  0  0
   -6.0880   18.3090  -31.4570 C   0  0  0  0  0  0  0  0  0  0  0  0
   -5.8630   17.4010  -32.5140 O   0  0  0  0  0  0  0  0  0  0  0  0
   -6.4230   17.9100  -33.7140 C   0  0  0  0  0  0  0  0  0  0  0  0
   -6.0650   19.3960  -33.9620 C   0  0  0  0  0  0  0  0  0  0  0  0
   -5.9620   23.8060  -32.4810 N   0  0  0  0  0  0  0  0  0  0  0  0
   -6.9420   22.9220  -32.6180 N   0  0  0  0  0  0  0  0  0  0  0  0
   -8.8388   18.7331  -32.3862 H   0  0  0  0  0  0  0  0  0  0  0  0
   -9.9427   20.1703  -32.9743 H   0  0  0  0  0  0  0  0  0  0  0  0
   -7.7084   20.2193  -30.8470 H   0  0  0  0  0  0  0  0  0  0  0  0
   -9.6166   22.3131  -32.1555 H   0  0  0  0  0  0  0  0  0  0  0  0
   -9.3158   22.2486  -30.3779 H   0  0  0  0  0  0  0  0  0  0  0  0
   -7.6518   24.0775  -29.6847 H   0  0  0  0  0  0  0  0  0  0  0  0
   -5.2264   26.2872  -31.4772 H   0  0  0  0  0  0  0  0  0  0  0  0
   -5.6967   25.8322  -29.7908 H   0  0  0  0  0  0  0  0  0  0  0  0
   -3.8710   24.6878  -27.7898 H   0  0  0  0  0  0  0  0  0  0  0  0
   -3.1714   22.6175  -26.6043 H   0  0  0  0  0  0  0  0  0  0  0  0
   -0.3306   19.8469  -28.5564 H   0  0  0  0  0  0  0  0  0  0  0  0
   -0.4264   17.7468  -26.9038 H   0  0  0  0  0  0  0  0  0  0  0  0
   -4.0640   19.8104  -26.3929 H   0  0  0  0  0  0  0  0  0  0  0  0
   -2.4754   20.6776  -30.4087 H   0  0  0  0  0  0  0  0  0  0  0  0
   -2.3953   21.6359  -33.4852 H   0  0  0  0  0  0  0  0  0  0  0  0
   -2.8802   20.6661  -32.0335 H   0  0  0  0  0  0  0  0  0  0  0  0
   -5.2647   21.8677  -32.9255 H   0  0  0  0  0  0  0  0  0  0  0  0
   -4.4018   21.3293  -34.4302 H   0  0  0  0  0  0  0  0  0  0  0  0
   -4.3339   19.5237  -31.0931 H   0  0  0  0  0  0  0  0  0  0  0  0
   -5.8708   20.4504  -31.3402 H   0  0  0  0  0  0  0  0  0  0  0  0
   -5.7886   17.8419  -30.5072 H   0  0  0  0  0  0  0  0  0  0  0  0
   -7.1567   18.5680  -31.4287 H   0  0  0  0  0  0  0  0  0  0  0  0
   -6.0473   17.3127  -34.5579 H   0  0  0  0  0  0  0  0  0  0  0  0
   -7.5172   17.8446  -33.6219 H   0  0  0  0  0  0  0  0  0  0  0  0
   -5.7876   19.5331  -35.0176 H   0  0  0  0  0  0  0  0  0  0  0  0
   -6.9361   20.0233  -33.7220 H   0  0  0  0  0  0  0  0  0  0  0  0
  1  2  2  0
  2  3  1  0
  3  4  1  0
  4  5  1  0
  5  6  2  0
  6  7  1  0
  7  8  1  0
  8  9  1  0
  9 10  2  0
 10 11  1  0
 11 12  2  0
 12 13  1  0
 13 14  1  0
 14 15  2  0
 15 16  1  0
 16 17  1  0
 12 18  1  0
 18 19  2  0
 19 20  1  0
 20 21  1  0
 21 22  1  0
 22 23  1  0
 23 24  1  0
 24 25  1  0
 25 26  1  0
 26 27  1  0
 27 28  1  0
  6 29  1  0
 29 30  2  0
 30  4  1  0
 19  9  1  0
 28 23  1  0
 17 13  2  0
  1 31  1  0
  1 32  1  0
  2 33  1  0
  3 34  1  0
  3 35  1  0
  5 36  1  0
  7 37  1  0
  7 38  1  0
 10 39  1  0
 11 40  1  0
 14 41  1  0
 15 42  1  0
 17 43  1  0
 18 44  1  0
 21 45  1  0
 21 46  1  0
 22 47  1  0
 22 48  1  0
 24 49  1  0
 24 50  1  0
 25 51  1  0
 25 52  1  0
 27 53  1  0
 27 54  1  0
 28 55  1  0
 28 56  1  0
M  END
>  <UniqueID>  (31) 
31

>  <SMILES>  (31) 
C=CCn1cc(COc2ccc(-c3ccoc3)cc2OCCN2CCOCC2)nn1

>  <Energy>  (31) 
130.2786643331616

>  <Genealogy>  (31) 
C=CCn1cc(COc2ccc(-c3ccoc3)cc2OCCN2CCOCC2)nn1 (3D coordinates assigned)
C=CCn1cc(COc2ccc(-c3ccoc3)cc2OCCN2CCOCC2)nn1 (nonaromatic ring conformer: 130.2786643331616 kcal/mol)

>  <smiles>  (31) 
C=CCn1cc(COc2ccc(-c3ccoc3)cc2OCCN2CCOCC2)nn1

>  <score_type>  (31) 
oracle

>  <origin>  (31) 
adg

>  <m_score__min__energy>  (31) 
-9.2400000000000002

>  <m_primary>  (31) 
energy

$$$$
31:0
     RDKit          3D

 18 18  0  0  0  0  0  0  0  0999 V2000
   -1.8100   25.6660  -28.9450 O   0  0  0  0  0  0  0  0  0  0  0  0
   -2.8060   24.9120  -29.1030 C   0  0  0  0  0  0  0  0  0  0  0  0
   -3.4810   24.9230  -30.3700 N   0  0  0  0  0  0  0  0  0  0  0  0
   -4.7930   24.4130  -30.6480 C   0  0  0  0  0  0  0  0  0  0  0  0
   -5.9420   25.0780  -30.1890 C   0  0  0  0  0  0  0  0  0  0  0  0
   -7.2110   24.5510  -30.4430 C   0  0  0  0  0  0  0  0  0  0  0  0
   -7.3440   23.3500  -31.1420 C   0  0  0  0  0  0  0  0  0  0  0  0
   -6.2060   22.6650  -31.5800 C   0  0  0  0  0  0  0  0  0  0  0  0
   -6.3480   21.4920  -32.2460 F   0  0  0  0  0  0  0  0  0  0  0  0
   -4.9300   23.1880  -31.3260 C   0  0  0  0  0  0  0  0  0  0  0  0
   -3.5090   22.3100  -31.8800 Cl  0  0  0  0  0  0  0  0  0  0  0  0
   -3.2730   24.0730  -27.9460 C   0  0  0  0  0  0  0  0  0  0  0  0
   -3.4440   22.7650  -28.3550 F   0  0  0  0  0  0  0  0  0  0  0  0
   -2.3200   24.1030  -26.9430 F   0  0  0  0  0  0  0  0  0  0  0  0
   -4.4620   24.5560  -27.4310 F   0  0  0  0  0  0  0  0  0  0  0  0
   -5.8423   26.0182  -29.6268 H   0  0  0  0  0  0  0  0  0  0  0  0
   -8.1070   25.0836  -30.0914 H   0  0  0  0  0  0  0  0  0  0  0  0
   -8.3445   22.9421  -31.3485 H   0  0  0  0  0  0  0  0  0  0  0  0
  1  2  2  0
  2  3  1  0
  3  4  1  0
  4  5  2  0
  5  6  1  0
  6  7  2  0
  7  8  1  0
  8  9  1  0
  8 10  2  0
 10 11  1  0
  2 12  1  0
 12 13  1  0
 12 14  1  0
 12 15  1  0
 10  4  1  0
  5 16  1  0
  6 17  1  0
  7 18  1  0
M  CHG  1   3  -1
M  END
>  <UniqueID>  (32) 
32

>  <SMILES>  (32) 
O=C([N-]c1cccc(F)c1Cl)C(F)(F)F

>  <Energy>  (32) 
22.387423046267898

>  <Genealogy>  (32) 
O=C([N-]c1cccc(F)c1Cl)C(F)(F)F (protonated)
O=C([N-]c1cccc(F)c1Cl)C(F)(F)F (3D coordinates assigned)
O=C([N-]c1cccc(F)c1Cl)C(F)(F)F (optimized conformer: 22.387423046267898 kcal/mol)

>  <smiles>  (32) 
O=C(Nc1cccc(F)c1Cl)C(F)(F)F

>  <score_type>  (32) 
oracle

>  <origin>  (32) 
adg

>  <m_score__min__energy>  (32) 
-6.1600000000000001

>  <m_primary>  (32) 
energy

$$$$
32:0
     RDKit          3D

 52 55  0  0  0  0  0  0  0  0999 V2000
   -2.0640   19.7220  -26.5190 C   0  0  0  0  0  0  0  0  0  0  0  0
   -1.8560   20.8460  -27.5190 C   0  0  0  0  0  0  0  0  0  0  0  0
   -2.5910   20.5640  -28.7030 O   0  0  0  0  0  0  0  0  0  0  0  0
   -2.0800   20.8520  -29.9760 C   0  0  0  0  0  0  0  0  0  0  0  0
   -2.6930   21.7580  -30.7830 C   0  0  0  0  0  0  0  0  0  0  0  0
   -3.8290   22.6110  -30.3310 C   0  0  0  0  0  0  0  0  0  0  0  0
   -4.7890   22.9820  -31.2200 C   0  0  0  0  0  0  0  0  0  0  0  0
   -4.7140   22.6290  -32.7010 C   0  0  0  0  0  0  0  0  0  0  0  0
   -3.5610   21.6750  -33.1090 C   0  0  2  0  0  0  0  0  0  0  0  0
   -3.9890   20.2090  -33.1260 C   0  0  0  0  0  0  0  0  0  0  0  0
   -3.2890   19.2960  -33.9390 C   0  0  0  0  0  0  0  0  0  0  0  0
   -3.6180   17.9390  -33.9340 C   0  0  0  0  0  0  0  0  0  0  0  0
   -4.6480   17.4700  -33.1140 C   0  0  0  0  0  0  0  0  0  0  0  0
   -5.0890   15.6120  -33.0970 Br  0  0  0  0  0  0  0  0  0  0  0  0
   -5.3470   18.3620  -32.2990 C   0  0  0  0  0  0  0  0  0  0  0  0
   -5.0230   19.7210  -32.3030 C   0  0  0  0  0  0  0  0  0  0  0  0
   -2.3110   21.9240  -32.2380 C   0  0  2  0  0  0  0  0  0  0  0  0
   -1.1390   21.0770  -32.6710 C   0  0  0  0  0  0  0  0  0  0  0  0
   -0.5010   21.3880  -33.6640 O   0  0  0  0  0  0  0  0  0  0  0  0
   -0.7670   19.8580  -31.8900 C   0  0  0  0  0  0  0  0  0  0  0  0
   -0.7790   20.1840  -30.3930 C   0  0  2  0  0  0  0  0  0  0  0  0
   -0.4930   18.9120  -29.5820 C   0  0  0  0  0  0  0  0  0  0  0  0
   -5.8940   23.8790  -30.7870 C   0  0  0  0  0  0  0  0  0  0  0  0
   -6.8550   24.1180  -31.5680 O   0  0  0  0  0  0  0  0  0  0  0  0
   -5.9100   24.4860  -29.4140 C   0  0  0  0  0  0  0  0  0  0  0  0
   -4.5000   24.5260  -28.8270 C   0  0  0  0  0  0  0  0  0  0  0  0
   -3.8610   23.1370  -28.9030 C   0  0  0  0  0  0  0  0  0  0  0  0
   -1.9900   20.1221  -25.4970 H   0  0  0  0  0  0  0  0  0  0  0  0
   -3.0595   19.2783  -26.6679 H   0  0  0  0  0  0  0  0  0  0  0  0
   -1.2932   18.9515  -26.6679 H   0  0  0  0  0  0  0  0  0  0  0  0
   -2.2079   21.7936  -27.0851 H   0  0  0  0  0  0  0  0  0  0  0  0
   -0.7863   20.9306  -27.7609 H   0  0  0  0  0  0  0  0  0  0  0  0
   -5.6637   22.1507  -32.9827 H   0  0  0  0  0  0  0  0  0  0  0  0
   -4.5181   23.5762  -33.2248 H   0  0  0  0  0  0  0  0  0  0  0  0
   -3.2886   21.9088  -34.1488 H   0  0  0  0  0  0  0  0  0  0  0  0
   -2.4745   19.6560  -34.5847 H   0  0  0  0  0  0  0  0  0  0  0  0
   -3.0655   17.2378  -34.5767 H   0  0  0  0  0  0  0  0  0  0  0  0
   -6.1560   17.9935  -31.6511 H   0  0  0  0  0  0  0  0  0  0  0  0
   -5.5802   20.4161  -31.6578 H   0  0  0  0  0  0  0  0  0  0  0  0
   -1.9566   22.9563  -32.3749 H   0  0  0  0  0  0  0  0  0  0  0  0
   -1.4912   19.0560  -32.0959 H   0  0  0  0  0  0  0  0  0  0  0  0
    0.2404   19.5286  -32.1843 H   0  0  0  0  0  0  0  0  0  0  0  0
    0.0194   20.9107  -30.1821 H   0  0  0  0  0  0  0  0  0  0  0  0
   -0.5449   19.1427  -28.5077 H   0  0  0  0  0  0  0  0  0  0  0  0
   -1.2409   18.1440  -29.8286 H   0  0  0  0  0  0  0  0  0  0  0  0
    0.5117   18.5380  -29.8286 H   0  0  0  0  0  0  0  0  0  0  0  0
   -6.3047   25.5108  -29.4764 H   0  0  0  0  0  0  0  0  0  0  0  0
   -6.5481   23.8714  -28.7621 H   0  0  0  0  0  0  0  0  0  0  0  0
   -3.8881   25.2401  -29.3977 H   0  0  0  0  0  0  0  0  0  0  0  0
   -4.5562   24.8402  -27.7743 H   0  0  0  0  0  0  0  0  0  0  0  0
   -2.8309   23.1968  -28.5217 H   0  0  0  0  0  0  0  0  0  0  0  0
   -4.4657   22.4470  -28.2962 H   0  0  0  0  0  0  0  0  0  0  0  0
  1  2  1  0
  2  3  1  0
  3  4  1  0
  4  5  2  0
  5  6  1  0
  6  7  2  0
  7  8  1  0
  8  9  1  0
  9 10  1  0
 10 11  2  0
 11 12  1  0
 12 13  2  0
 13 14  1  0
 13 15  1  0
 15 16  2  0
  9 17  1  0
 17 18  1  0
 18 19  2  0
 18 20  1  0
 20 21  1  0
 21 22  1  0
  7 23  1  0
 23 24  2  0
 23 25  1  0
 25 26  1  0
 26 27  1  0
 21  4  1  0
 17  5  1  0
 27  6  1  0
 16 10  1  0
  1 28  1  0
  1 29  1  0
  1 30  1  0
  2 31  1  0
  2 32  1  0
  8 33  1  0
  8 34  1  0
  9 35  1  6
 11 36  1  0
 12 37  1  0
 15 38  1  0
 16 39  1  0
 17 40  1  1
 20 41  1  0
 20 42  1  0
 21 43  1  6
 22 44  1  0
 22 45  1  0
 22 46  1  0
 25 47  1  0
 25 48  1  0
 26 49  1  0
 26 50  1  0
 27 51  1  0
 27 52  1  0
M  END
>  <UniqueID>  (33) 
33

>  <SMILES>  (33) 
CCOC1=C2C3=C(C[C@H](c4ccc(Br)cc4)[C@@H]2C(=O)CC1C)C(=O)CCC3

>  <Energy>  (33) 
64.95866600964365

>  <Genealogy>  (33) 
CCOC1=C2C3=C(C[C@H](c4ccc(Br)cc4)[C@@H]2C(=O)CC1C)C(=O)CCC3 (chirality)
CCOC1=C2C3=C(C[C@H](c4ccc(Br)cc4)[C@@H]2C(=O)CC1C)C(=O)CCC3 (3D coordinates assigned)
CCOC1=C2C3=C(C[C@H](c4ccc(Br)cc4)[C@@H]2C(=O)CC1C)C(=O)CCC3 (nonaromatic ring conformer: 64.95866600964365 kcal/mol)

>  <smiles>  (33) 
CCOC1=C2C3=C(CC(c4ccc(Br)cc4)C2C(=O)CC1C)C(=O)CCC3

>  <score_type>  (33) 
oracle

>  <origin>  (33) 
adg

>  <m_score__min__energy>  (33) 
-8.2799999999999994

>  <m_primary>  (33) 
energy

$$$$
33:0
     RDKit          3D

 38 41  0  0  0  0  0  0  0  0999 V2000
   -1.2880   26.8230  -25.1010 C   0  0  0  0  0  0  0  0  0  0  0  0
   -1.1440   25.3080  -25.1780 C   0  0  0  0  0  0  0  0  0  0  0  0
   -1.0790   24.8730  -26.5740 N   0  0  0  0  0  0  0  0  0  0  0  0
    0.0520   24.6490  -27.2840 C   0  0  0  0  0  0  0  0  0  0  0  0
   -0.2540   24.1840  -28.5570 C   0  0  0  0  0  0  0  0  0  0  0  0
   -1.6310   24.1190  -28.6000 C   0  0  0  0  0  0  0  0  0  0  0  0
   -2.4810   23.7050  -29.6220 C   0  0  0  0  0  0  0  0  0  0  0  0
   -3.8770   23.7220  -29.3840 C   0  0  0  0  0  0  0  0  0  0  0  0
   -4.8130   23.3060  -30.4010 N   0  0  0  0  0  0  0  0  0  0  0  0
   -5.6940   22.2840  -30.3520 C   0  0  0  0  0  0  0  0  0  0  0  0
   -6.3640   22.2770  -31.5590 C   0  0  0  0  0  0  0  0  0  0  0  0
   -7.4250   21.3320  -31.9680 C   0  0  0  0  0  0  0  0  0  0  0  0
   -7.1310   20.0110  -32.3510 C   0  0  0  0  0  0  0  0  0  0  0  0
   -8.1720   19.1600  -32.7290 C   0  0  0  0  0  0  0  0  0  0  0  0
   -9.4880   19.6220  -32.7220 C   0  0  0  0  0  0  0  0  0  0  0  0
   -9.7460   20.9380  -32.3370 C   0  0  0  0  0  0  0  0  0  0  0  0
   -8.7200   21.7540  -31.9720 N   0  0  0  0  0  0  0  0  0  0  0  0
   -5.8690   23.2900  -32.2980 N   0  0  0  0  0  0  0  0  0  0  0  0
   -4.9350   23.8960  -31.5830 N   0  0  0  0  0  0  0  0  0  0  0  0
   -4.3570   24.1510  -28.1180 C   0  0  0  0  0  0  0  0  0  0  0  0
   -3.4700   24.5610  -27.1060 C   0  0  0  0  0  0  0  0  0  0  0  0
   -2.1030   24.5360  -27.3840 C   0  0  0  0  0  0  0  0  0  0  0  0
   -1.3177   27.1354  -24.0467 H   0  0  0  0  0  0  0  0  0  0  0  0
   -0.4310   27.2986  -25.6004 H   0  0  0  0  0  0  0  0  0  0  0  0
   -2.2192   27.1287  -25.6004 H   0  0  0  0  0  0  0  0  0  0  0  0
   -0.2221   25.0046  -24.6603 H   0  0  0  0  0  0  0  0  0  0  0  0
   -2.0172   24.8413  -24.6986 H   0  0  0  0  0  0  0  0  0  0  0  0
    1.0718   24.8125  -26.9054 H   0  0  0  0  0  0  0  0  0  0  0  0
    0.4516   23.9233  -29.3596 H   0  0  0  0  0  0  0  0  0  0  0  0
   -2.0783   23.3729  -30.5903 H   0  0  0  0  0  0  0  0  0  0  0  0
   -5.8482   21.5906  -29.5121 H   0  0  0  0  0  0  0  0  0  0  0  0
   -6.0914   19.6516  -32.3528 H   0  0  0  0  0  0  0  0  0  0  0  0
   -7.9540   18.1253  -33.0322 H   0  0  0  0  0  0  0  0  0  0  0  0
  -10.3129   18.9566  -33.0166 H   0  0  0  0  0  0  0  0  0  0  0  0
  -10.7790   21.3160  -32.3285 H   0  0  0  0  0  0  0  0  0  0  0  0
   -6.1420   23.5770  -33.2620 H   0  0  0  0  0  0  0  0  0  0  0  0
   -5.4400   24.1629  -27.9257 H   0  0  0  0  0  0  0  0  0  0  0  0
   -3.8429   24.8913  -26.1253 H   0  0  0  0  0  0  0  0  0  0  0  0
  1  2  1  0
  2  3  1  0
  3  4  1  0
  4  5  2  0
  5  6  1  0
  6  7  2  0
  7  8  1  0
  8  9  1  0
  9 10  1  0
 10 11  2  0
 11 12  1  0
 12 13  2  0
 13 14  1  0
 14 15  2  0
 15 16  1  0
 16 17  2  0
 11 18  1  0
 18 19  2  0
  8 20  2  0
 20 21  1  0
 21 22  2  0
 22  3  1  0
 22  6  1  0
 19  9  1  0
 17 12  1  0
  1 23  1  0
  1 24  1  0
  1 25  1  0
  2 26  1  0
  2 27  1  0
  4 28  1  0
  5 29  1  0
  7 30  1  0
 10 31  1  0
 13 32  1  0
 14 33  1  0
 15 34  1  0
 16 35  1  0
 18 36  1  0
 20 37  1  0
 21 38  1  0
M  CHG  1  18   1
M  END
>  <UniqueID>  (34) 
34

>  <SMILES>  (34) 
CCn1ccc2cc(-n3cc(-c4ccccn4)[nH+]n3)ccc21

>  <Energy>  (34) 
111.55194297629342

>  <Genealogy>  (34) 
CCn1ccc2cc(-n3cc(-c4ccccn4)[nH+]n3)ccc21 (protonated)
CCn1ccc2cc(-n3cc(-c4ccccn4)[nH+]n3)ccc21 (3D coordinates assigned)
CCn1ccc2cc(-n3cc(-c4ccccn4)[nH+]n3)ccc21 (optimized conformer: 111.55194297629342 kcal/mol)

>  <smiles>  (34) 
CCn1ccc2cc(-n3cc(-c4ccccn4)nn3)ccc21

>  <score_type>  (34) 
oracle

>  <origin>  (34) 
adg

>  <m_score__min__energy>  (34) 
-7.3099999999999996

>  <m_primary>  (34) 
energy

$$$$
34:0
     RDKit          3D

 55 57  0  0  0  0  0  0  0  0999 V2000
   -1.1830   27.4670  -25.7130 C   0  0  0  0  0  0  0  0  0  0  0  0
   -1.8160   26.2220  -25.1040 C   0  0  0  0  0  0  0  0  0  0  0  0
   -2.5870   25.5000  -26.1170 N   0  0  0  0  0  0  0  0  0  0  0  0
   -3.8910   25.2930  -26.0280 N   0  0  0  0  0  0  0  0  0  0  0  0
   -4.2830   24.5150  -27.0520 C   0  0  0  0  0  0  0  0  0  0  0  0
   -3.1760   24.1930  -27.8190 C   0  0  0  0  0  0  0  0  0  0  0  0
   -3.1700   23.3090  -29.0450 C   0  0  0  0  0  0  0  0  0  0  0  0
   -4.3320   23.5150  -29.9490 N   0  0  0  0  0  0  0  0  0  0  0  0
   -4.6980   24.9390  -30.0480 C   0  0  0  0  0  0  0  0  0  0  0  0
   -6.0700   25.1150  -30.7280 C   0  0  0  0  0  0  0  0  0  0  0  0
   -6.5010   23.9310  -31.5030 N   0  0  0  0  0  0  0  0  0  0  0  0
   -7.2900   22.9670  -30.6990 C   0  0  0  0  0  0  0  0  0  0  0  0
   -8.4400   22.3450  -31.5190 C   0  0  0  0  0  0  0  0  0  0  0  0
   -8.1520   20.9260  -31.9470 C   0  0  0  0  0  0  0  0  0  0  0  0
   -7.0570   20.6490  -32.7840 C   0  0  0  0  0  0  0  0  0  0  0  0
   -6.7800   19.3360  -33.1720 C   0  0  0  0  0  0  0  0  0  0  0  0
   -7.5830   18.2860  -32.7160 C   0  0  0  0  0  0  0  0  0  0  0  0
   -8.6610   18.5490  -31.8680 C   0  0  0  0  0  0  0  0  0  0  0  0
   -8.9430   19.8620  -31.4790 C   0  0  0  0  0  0  0  0  0  0  0  0
   -5.3660   23.3230  -32.2280 C   0  0  0  0  0  0  0  0  0  0  0  0
   -4.1870   22.9060  -31.2980 C   0  0  2  0  0  0  0  0  0  0  0  0
   -4.0900   21.3700  -31.2130 C   0  0  0  0  0  0  0  0  0  0  0  0
   -2.1110   24.8490  -27.2040 C   0  0  0  0  0  0  0  0  0  0  0  0
   -0.6690   24.8200  -27.6180 C   0  0  0  0  0  0  0  0  0  0  0  0
   -0.8428   28.1361  -24.9089 H   0  0  0  0  0  0  0  0  0  0  0  0
   -0.3240   27.1748  -26.3349 H   0  0  0  0  0  0  0  0  0  0  0  0
   -1.9252   27.9889  -26.3349 H   0  0  0  0  0  0  0  0  0  0  0  0
   -1.0242   25.5656  -24.7138 H   0  0  0  0  0  0  0  0  0  0  0  0
   -2.4893   26.5241  -24.2883 H   0  0  0  0  0  0  0  0  0  0  0  0
   -4.5060   25.6640  -25.2700 H   0  0  0  0  0  0  0  0  0  0  0  0
   -5.3146   24.1877  -27.2484 H   0  0  0  0  0  0  0  0  0  0  0  0
   -2.2503   23.5128  -29.6130 H   0  0  0  0  0  0  0  0  0  0  0  0
   -3.2276   22.2705  -28.6869 H   0  0  0  0  0  0  0  0  0  0  0  0
   -4.7407   25.3698  -29.0368 H   0  0  0  0  0  0  0  0  0  0  0  0
   -3.9389   25.4526  -30.6562 H   0  0  0  0  0  0  0  0  0  0  0  0
   -6.8214   25.3139  -29.9496 H   0  0  0  0  0  0  0  0  0  0  0  0
   -5.9742   25.9493  -31.4385 H   0  0  0  0  0  0  0  0  0  0  0  0
   -6.6241   22.1630  -30.3524 H   0  0  0  0  0  0  0  0  0  0  0  0
   -7.7298   23.5092  -29.8489 H   0  0  0  0  0  0  0  0  0  0  0  0
   -9.3521   22.3485  -30.9041 H   0  0  0  0  0  0  0  0  0  0  0  0
   -8.5606   22.9482  -32.4309 H   0  0  0  0  0  0  0  0  0  0  0  0
   -6.4151   21.4704  -33.1352 H   0  0  0  0  0  0  0  0  0  0  0  0
   -5.9290   19.1278  -33.8372 H   0  0  0  0  0  0  0  0  0  0  0  0
   -7.3656   17.2530  -33.0252 H   0  0  0  0  0  0  0  0  0  0  0  0
   -9.2892   17.7219  -31.5056 H   0  0  0  0  0  0  0  0  0  0  0  0
   -9.7876   20.0635  -30.8037 H   0  0  0  0  0  0  0  0  0  0  0  0
   -5.7283   22.4274  -32.7540 H   0  0  0  0  0  0  0  0  0  0  0  0
   -4.9785   24.0849  -32.9204 H   0  0  0  0  0  0  0  0  0  0  0  0
   -3.2494   23.2846  -31.7312 H   0  0  0  0  0  0  0  0  0  0  0  0
   -4.0705   21.0617  -30.1573 H   0  0  0  0  0  0  0  0  0  0  0  0
   -4.9615   20.9195  -31.7105 H   0  0  0  0  0  0  0  0  0  0  0  0
   -3.1688   21.0327  -31.7105 H   0  0  0  0  0  0  0  0  0  0  0  0
   -0.0306   24.8072  -26.7223 H   0  0  0  0  0  0  0  0  0  0  0  0
   -0.4777   23.9178  -28.2176 H   0  0  0  0  0  0  0  0  0  0  0  0
   -0.4416   25.7138  -28.2176 H   0  0  0  0  0  0  0  0  0  0  0  0
  1  2  1  0
  2  3  1  0
  3  4  1  0
  4  5  2  0
  5  6  1  0
  6  7  1  0
  7  8  1  0
  8  9  1  0
  9 10  1  0
 10 11  1  0
 11 12  1  0
 12 13  1  0
 13 14  1  0
 14 15  2  0
 15 16  1  0
 16 17  2  0
 17 18  1  0
 18 19  2  0
 11 20  1  0
 20 21  1  0
 21 22  1  0
  6 23  2  0
 23 24  1  0
 23  3  1  0
 21  8  1  0
 19 14  1  0
  1 25  1  0
  1 26  1  0
  1 27  1  0
  2 28  1  0
  2 29  1  0
  4 30  1  0
  5 31  1  0
  7 32  1  0
  7 33  1  0
  9 34  1  0
  9 35  1  0
 10 36  1  0
 10 37  1  0
 12 38  1  0
 12 39  1  0
 13 40  1  0
 13 41  1  0
 15 42  1  0
 16 43  1  0
 17 44  1  0
 18 45  1  0
 19 46  1  0
 20 47  1  0
 20 48  1  0
 21 49  1  6
 22 50  1  0
 22 51  1  0
 22 52  1  0
 24 53  1  0
 24 54  1  0
 24 55  1  0
M  CHG  1   4   1
M  END
>  <UniqueID>  (35) 
35

>  <SMILES>  (35) 
CCn1[nH+]cc(CN2CCN(CCc3ccccc3)C[C@@H]2C)c1C

>  <Energy>  (35) 
97.08973891615115

>  <Genealogy>  (35) 
CCn1[nH+]cc(CN2CCN(CCc3ccccc3)CC2C)c1C (protonated)
CCn1[nH+]cc(CN2CCN(CCc3ccccc3)C[C@@H]2C)c1C (chirality)
CCn1[nH+]cc(CN2CCN(CCc3ccccc3)C[C@@H]2C)c1C (3D coordinates assigned)
CCn1[nH+]cc(CN2CCN(CCc3ccccc3)C[C@@H]2C)c1C (nonaromatic ring conformer: 97.08973891615115 kcal/mol)

>  <smiles>  (35) 
CCn1ncc(CN2CCN(CCc3ccccc3)CC2C)c1C

>  <score_type>  (35) 
oracle

>  <origin>  (35) 
adg

>  <m_score__min__energy>  (35) 
-8.3300000000000001

>  <m_primary>  (35) 
energy

$$$$
35:0
     RDKit          3D

 38 40  0  0  0  0  0  0  0  0999 V2000
   -4.7150   15.1080  -32.9830 C   0  0  0  0  0  0  0  0  0  0  0  0
   -5.6100   14.7060  -34.1500 C   0  0  0  0  0  0  0  0  0  0  0  0
   -6.4190   15.8050  -34.5710 O   0  0  0  0  0  0  0  0  0  0  0  0
   -6.4690   17.0670  -33.9540 C   0  0  0  0  0  0  0  0  0  0  0  0
   -7.1870   17.3070  -32.7670 C   0  0  0  0  0  0  0  0  0  0  0  0
   -7.2040   18.5850  -32.1990 C   0  0  0  0  0  0  0  0  0  0  0  0
   -6.5080   19.6460  -32.8030 C   0  0  0  0  0  0  0  0  0  0  0  0
   -6.5250   21.0030  -32.2000 C   0  0  0  0  0  0  0  0  0  0  0  0
   -7.7420   21.6750  -31.9920 C   0  0  0  0  0  0  0  0  0  0  0  0
   -7.7590   22.9490  -31.4190 C   0  0  0  0  0  0  0  0  0  0  0  0
   -6.5640   23.5710  -31.0340 C   0  0  0  0  0  0  0  0  0  0  0  0
   -5.3350   22.9190  -31.2620 C   0  0  0  0  0  0  0  0  0  0  0  0
   -5.3260   21.6340  -31.8250 C   0  0  0  0  0  0  0  0  0  0  0  0
   -4.0350   23.5420  -30.8090 C   0  0  0  0  0  0  0  0  0  0  0  0
   -4.1390   24.9990  -30.6490 N   0  0  0  0  0  0  0  0  0  0  0  0
   -5.2810   25.3480  -29.7950 C   0  0  0  0  0  0  0  0  0  0  0  0
   -6.6050   24.9670  -30.4680 C   0  0  0  0  0  0  0  0  0  0  0  0
   -5.7960   19.4010  -33.9910 C   0  0  0  0  0  0  0  0  0  0  0  0
   -5.7810   18.1230  -34.5570 C   0  0  0  0  0  0  0  0  0  0  0  0
   -5.2239   14.8794  -32.0350 H   0  0  0  0  0  0  0  0  0  0  0  0
   -3.7697   14.5480  -33.0360 H   0  0  0  0  0  0  0  0  0  0  0  0
   -4.5057   16.1866  -33.0360 H   0  0  0  0  0  0  0  0  0  0  0  0
   -4.9809   14.3785  -34.9908 H   0  0  0  0  0  0  0  0  0  0  0  0
   -6.2690   13.8880  -33.8234 H   0  0  0  0  0  0  0  0  0  0  0  0
   -7.7370   16.4858  -32.2842 H   0  0  0  0  0  0  0  0  0  0  0  0
   -7.7674   18.7613  -31.2708 H   0  0  0  0  0  0  0  0  0  0  0  0
   -8.6878   21.1943  -32.2825 H   0  0  0  0  0  0  0  0  0  0  0  0
   -8.7175   23.4675  -31.2690 H   0  0  0  0  0  0  0  0  0  0  0  0
   -4.3686   21.1136  -31.9749 H   0  0  0  0  0  0  0  0  0  0  0  0
   -3.7488   23.0999  -29.8433 H   0  0  0  0  0  0  0  0  0  0  0  0
   -3.2792   23.3422  -31.5829 H   0  0  0  0  0  0  0  0  0  0  0  0
   -4.2700   25.4360  -31.5910 H   0  0  0  0  0  0  0  0  0  0  0  0
   -5.1944   24.8090  -28.8400 H   0  0  0  0  0  0  0  0  0  0  0  0
   -5.2734   26.4348  -29.6253 H   0  0  0  0  0  0  0  0  0  0  0  0
   -7.4126   25.0257  -29.7235 H   0  0  0  0  0  0  0  0  0  0  0  0
   -6.7805   25.6673  -31.2979 H   0  0  0  0  0  0  0  0  0  0  0  0
   -5.2473   20.2206  -34.4780 H   0  0  0  0  0  0  0  0  0  0  0  0
   -5.2213   17.9467  -35.4874 H   0  0  0  0  0  0  0  0  0  0  0  0
  1  2  1  0
  2  3  1  0
  3  4  1  0
  4  5  2  0
  5  6  1  0
  6  7  2  0
  7  8  1  0
  8  9  2  0
  9 10  1  0
 10 11  2  0
 11 12  1  0
 12 13  2  0
 12 14  1  0
 14 15  1  0
 15 16  1  0
 16 17  1  0
  7 18  1  0
 18 19  2  0
 19  4  1  0
 13  8  1  0
 17 11  1  0
  1 20  1  0
  1 21  1  0
  1 22  1  0
  2 23  1  0
  2 24  1  0
  5 25  1  0
  6 26  1  0
  9 27  1  0
 10 28  1  0
 13 29  1  0
 14 30  1  0
 14 31  1  0
 15 32  1  0
 16 33  1  0
 16 34  1  0
 17 35  1  0
 17 36  1  0
 18 37  1  0
 19 38  1  0
M  END
>  <UniqueID>  (36) 
36

>  <SMILES>  (36) 
CCOc1ccc(-c2ccc3c(c2)CNCC3)cc1

>  <Energy>  (36) 
44.55386330576322

>  <Genealogy>  (36) 
CCOc1ccc(-c2ccc3c(c2)CNCC3)cc1 (3D coordinates assigned)
CCOc1ccc(-c2ccc3c(c2)CNCC3)cc1 (nonaromatic ring conformer: 44.55386330576322 kcal/mol)

>  <smiles>  (36) 
CCOc1ccc(-c2ccc3c(c2)CNCC3)cc1

>  <score_type>  (36) 
oracle

>  <origin>  (36) 
adg

>  <m_score__min__energy>  (36) 
-8.2899999999999991

>  <m_primary>  (36) 
energy

$$$$
36:0
     RDKit          3D

 61 62  0  0  0  0  0  0  0  0999 V2000
   -5.7250   16.9030  -32.3210 C   0  0  0  0  0  0  0  0  0  0  0  0
   -6.0410   17.0160  -33.8100 C   0  0  0  0  0  0  0  0  0  0  0  0
   -5.7360   18.4060  -34.3860 C   0  0  0  0  0  0  0  0  0  0  0  0
   -5.5150   19.3900  -33.2990 N   0  0  0  0  0  0  0  0  0  0  0  0
   -6.7010   20.2510  -33.0670 C   0  0  0  0  0  0  0  0  0  0  0  0
   -7.6910   19.6230  -32.0720 C   0  0  0  0  0  0  0  0  0  0  0  0
   -9.1360   20.0190  -32.3650 C   0  0  0  0  0  0  0  0  0  0  0  0
   -4.2340   20.1320  -33.4380 C   0  0  0  0  0  0  0  0  0  0  0  0
   -3.9080   21.0430  -32.2670 C   0  0  0  0  0  0  0  0  0  0  0  0
   -3.1330   20.5870  -31.1900 C   0  0  0  0  0  0  0  0  0  0  0  0
   -2.8290   21.4390  -30.1270 C   0  0  0  0  0  0  0  0  0  0  0  0
   -3.3100   22.7550  -30.1070 C   0  0  0  0  0  0  0  0  0  0  0  0
   -2.9700   23.6320  -28.9680 C   0  0  0  0  0  0  0  0  0  0  0  0
   -1.7830   24.3830  -28.9810 C   0  0  0  0  0  0  0  0  0  0  0  0
   -1.4650   25.2130  -27.9010 C   0  0  0  0  0  0  0  0  0  0  0  0
   -2.3240   25.2940  -26.8010 C   0  0  0  0  0  0  0  0  0  0  0  0
   -3.4980   24.5340  -26.7740 C   0  0  0  0  0  0  0  0  0  0  0  0
   -3.8220   23.7060  -27.8530 C   0  0  0  0  0  0  0  0  0  0  0  0
   -4.1010   23.2260  -31.1730 C   0  0  0  0  0  0  0  0  0  0  0  0
   -4.5590   24.5560  -31.1490 O   0  0  0  0  0  0  0  0  0  0  0  0
   -5.3980   25.1030  -30.1330 C   0  0  0  0  0  0  0  0  0  0  0  0
   -6.8760   24.7600  -30.4090 C   0  0  0  0  0  0  0  0  0  0  0  0
   -7.1090   23.4340  -31.0370 N   0  0  0  0  0  0  0  0  0  0  0  0
   -7.2270   22.3470  -30.0470 C   0  0  0  0  0  0  0  0  0  0  0  0
   -8.2580   23.4310  -31.9570 C   0  0  0  0  0  0  0  0  0  0  0  0
   -4.3990   22.3600  -32.2430 C   0  0  0  0  0  0  0  0  0  0  0  0
   -6.6017   17.2165  -31.7353 H   0  0  0  0  0  0  0  0  0  0  0  0
   -5.4752   15.8598  -32.0773 H   0  0  0  0  0  0  0  0  0  0  0  0
   -4.8704   17.5512  -32.0773 H   0  0  0  0  0  0  0  0  0  0  0  0
   -5.4395   16.2722  -34.3531 H   0  0  0  0  0  0  0  0  0  0  0  0
   -7.1201   16.8402  -33.9308 H   0  0  0  0  0  0  0  0  0  0  0  0
   -4.8312   18.3476  -35.0089 H   0  0  0  0  0  0  0  0  0  0  0  0
   -6.5956   18.7340  -34.9888 H   0  0  0  0  0  0  0  0  0  0  0  0
   -6.3632   21.2185  -32.6673 H   0  0  0  0  0  0  0  0  0  0  0  0
   -7.2215   20.3738  -34.0282 H   0  0  0  0  0  0  0  0  0  0  0  0
   -7.6053   18.5279  -32.1311 H   0  0  0  0  0  0  0  0  0  0  0  0
   -7.4380   19.9919  -31.0671 H   0  0  0  0  0  0  0  0  0  0  0  0
   -9.6750   20.1667  -31.4176 H   0  0  0  0  0  0  0  0  0  0  0  0
   -9.1497   20.9540  -32.9443 H   0  0  0  0  0  0  0  0  0  0  0  0
   -9.6245   19.2216  -32.9443 H   0  0  0  0  0  0  0  0  0  0  0  0
   -3.4206   19.3986  -33.5405 H   0  0  0  0  0  0  0  0  0  0  0  0
   -4.3399   20.7799  -34.3206 H   0  0  0  0  0  0  0  0  0  0  0  0
   -2.7625   19.5513  -31.1833 H   0  0  0  0  0  0  0  0  0  0  0  0
   -2.2060   21.0740  -29.2972 H   0  0  0  0  0  0  0  0  0  0  0  0
   -1.1020   24.3182  -29.8424 H   0  0  0  0  0  0  0  0  0  0  0  0
   -0.5370   25.8033  -27.9172 H   0  0  0  0  0  0  0  0  0  0  0  0
   -2.0768   25.9550  -25.9572 H   0  0  0  0  0  0  0  0  0  0  0  0
   -4.1672   24.5878  -25.9027 H   0  0  0  0  0  0  0  0  0  0  0  0
   -4.7467   23.1107  -27.8290 H   0  0  0  0  0  0  0  0  0  0  0  0
   -5.1055   24.6851  -29.1584 H   0  0  0  0  0  0  0  0  0  0  0  0
   -5.2822   26.1969  -30.1273 H   0  0  0  0  0  0  0  0  0  0  0  0
   -7.4157   24.7827  -29.4508 H   0  0  0  0  0  0  0  0  0  0  0  0
   -7.2341   25.5081  -31.1316 H   0  0  0  0  0  0  0  0  0  0  0  0
   -6.2580   23.2260  -31.6140 H   0  0  0  0  0  0  0  0  0  0  0  0
   -7.1812   22.7688  -29.0321 H   0  0  0  0  0  0  0  0  0  0  0  0
   -8.1868   21.8277  -30.1853 H   0  0  0  0  0  0  0  0  0  0  0  0
   -6.4010   21.6338  -30.1853 H   0  0  0  0  0  0  0  0  0  0  0  0
   -9.1924   23.4286  -31.3766 H   0  0  0  0  0  0  0  0  0  0  0  0
   -8.2225   24.3292  -32.5910 H   0  0  0  0  0  0  0  0  0  0  0  0
   -8.2178   22.5330  -32.5910 H   0  0  0  0  0  0  0  0  0  0  0  0
   -5.0255   22.7197  -33.0725 H   0  0  0  0  0  0  0  0  0  0  0  0
  1  2  1  0
  2  3  1  0
  3  4  1  0
  4  5  1  0
  5  6  1  0
  6  7  1  0
  4  8  1  0
  8  9  1  0
  9 10  2  0
 10 11  1  0
 11 12  2  0
 12 13  1  0
 13 14  2  0
 14 15  1  0
 15 16  2  0
 16 17  1  0
 17 18  2  0
 12 19  1  0
 19 20  1  0
 20 21  1  0
 21 22  1  0
 22 23  1  0
 23 24  1  0
 23 25  1  0
 19 26  2  0
 26  9  1  0
 18 13  1  0
  1 27  1  0
  1 28  1  0
  1 29  1  0
  2 30  1  0
  2 31  1  0
  3 32  1  0
  3 33  1  0
  5 34  1  0
  5 35  1  0
  6 36  1  0
  6 37  1  0
  7 38  1  0
  7 39  1  0
  7 40  1  0
  8 41  1  0
  8 42  1  0
 10 43  1  0
 11 44  1  0
 14 45  1  0
 15 46  1  0
 16 47  1  0
 17 48  1  0
 18 49  1  0
 21 50  1  0
 21 51  1  0
 22 52  1  0
 22 53  1  0
 23 54  1  0
 24 55  1  0
 24 56  1  0
 24 57  1  0
 25 58  1  0
 25 59  1  0
 25 60  1  0
 26 61  1  0
M  CHG  1  23   1
M  END
>  <UniqueID>  (37) 
37

>  <SMILES>  (37) 
CCCN(CCC)Cc1ccc(-c2ccccc2)c(OCC[NH+](C)C)c1

>  <Energy>  (37) 
66.39444875146523

>  <Genealogy>  (37) 
CCCN(CCC)Cc1ccc(-c2ccccc2)c(OCC[NH+](C)C)c1 (protonated)
CCCN(CCC)Cc1ccc(-c2ccccc2)c(OCC[NH+](C)C)c1 (3D coordinates assigned)
CCCN(CCC)Cc1ccc(-c2ccccc2)c(OCC[NH+](C)C)c1 (optimized conformer: 66.39444875146523 kcal/mol)

>  <smiles>  (37) 
CCCN(CCC)Cc1ccc(-c2ccccc2)c(OCCN(C)C)c1

>  <score_type>  (37) 
oracle

>  <origin>  (37) 
adg

>  <m_score__min__energy>  (37) 
-7.1600000000000001

>  <m_primary>  (37) 
energy

$$$$
37:0
     RDKit          3D

 42 43  0  0  0  0  0  0  0  0999 V2000
   -5.7180   18.1630  -34.6160 C   0  0  0  0  0  0  0  0  0  0  0  0
   -5.7060   18.4780  -33.1770 N   0  0  0  0  0  0  0  0  0  0  0  0
   -6.3500   17.3820  -32.4330 C   0  0  0  0  0  0  0  0  0  0  0  0
   -4.3150   18.6910  -32.7170 C   0  0  0  0  0  0  0  0  0  0  0  0
   -4.1100   20.0970  -32.1220 C   0  0  0  0  0  0  0  0  0  0  0  0
   -3.8170   21.1710  -33.1800 C   0  0  0  0  0  0  0  0  0  0  0  0
   -4.7390   22.3000  -33.0550 N   0  0  0  0  0  0  0  0  0  0  0  0
   -5.9810   22.2040  -32.3440 C   0  0  0  0  0  0  0  0  0  0  0  0
   -6.8480   21.1400  -32.6360 C   0  0  0  0  0  0  0  0  0  0  0  0
   -8.0550   20.9960  -31.9460 C   0  0  0  0  0  0  0  0  0  0  0  0
   -9.1090   19.6400  -32.2960 Cl  0  0  0  0  0  0  0  0  0  0  0  0
   -8.4170   21.9310  -30.9730 C   0  0  0  0  0  0  0  0  0  0  0  0
   -7.5840   23.0190  -30.7030 C   0  0  0  0  0  0  0  0  0  0  0  0
   -6.3730   23.1730  -31.3930 C   0  0  0  0  0  0  0  0  0  0  0  0
   -5.4060   24.6600  -31.0920 S   0  0  0  0  0  0  0  0  0  0  0  0
   -4.3920   23.8660  -29.8440 C   0  0  0  0  0  0  0  0  0  0  0  0
   -3.3770   22.9790  -30.2230 C   0  0  0  0  0  0  0  0  0  0  0  0
   -2.5900   22.3560  -29.2490 C   0  0  0  0  0  0  0  0  0  0  0  0
   -2.8150   22.6220  -27.8940 C   0  0  0  0  0  0  0  0  0  0  0  0
   -3.8240   23.5110  -27.5130 C   0  0  0  0  0  0  0  0  0  0  0  0
   -4.6120   24.1350  -28.4860 C   0  0  0  0  0  0  0  0  0  0  0  0
   -5.7596   17.0723  -34.7522 H   0  0  0  0  0  0  0  0  0  0  0  0
   -6.5992   18.6250  -35.0851 H   0  0  0  0  0  0  0  0  0  0  0  0
   -4.8042   18.5566  -35.0851 H   0  0  0  0  0  0  0  0  0  0  0  0
   -6.2449   17.5608  -31.3527 H   0  0  0  0  0  0  0  0  0  0  0  0
   -7.4174   17.3383  -32.6953 H   0  0  0  0  0  0  0  0  0  0  0  0
   -5.8687   16.4283  -32.6953 H   0  0  0  0  0  0  0  0  0  0  0  0
   -4.0774   17.9420  -31.9472 H   0  0  0  0  0  0  0  0  0  0  0  0
   -3.6512   18.5921  -33.5886 H   0  0  0  0  0  0  0  0  0  0  0  0
   -5.0233   20.3824  -31.5793 H   0  0  0  0  0  0  0  0  0  0  0  0
   -3.2323   20.0448  -31.4610 H   0  0  0  0  0  0  0  0  0  0  0  0
   -2.7865   21.5327  -33.0487 H   0  0  0  0  0  0  0  0  0  0  0  0
   -3.9462   20.7236  -34.1766 H   0  0  0  0  0  0  0  0  0  0  0  0
   -4.6140   23.0960  -33.7200 H   0  0  0  0  0  0  0  0  0  0  0  0
   -6.5753   20.4127  -33.4149 H   0  0  0  0  0  0  0  0  0  0  0  0
   -9.3595   21.8100  -30.4188 H   0  0  0  0  0  0  0  0  0  0  0  0
   -7.8795   23.7592  -29.9449 H   0  0  0  0  0  0  0  0  0  0  0  0
   -3.1983   22.7718  -31.2884 H   0  0  0  0  0  0  0  0  0  0  0  0
   -1.7947   21.6574  -29.5481 H   0  0  0  0  0  0  0  0  0  0  0  0
   -2.1972   22.1310  -27.1277 H   0  0  0  0  0  0  0  0  0  0  0  0
   -3.9986   23.7202  -26.4473 H   0  0  0  0  0  0  0  0  0  0  0  0
   -5.4041   24.8366  -28.1855 H   0  0  0  0  0  0  0  0  0  0  0  0
  1  2  1  0
  2  3  1  0
  2  4  1  0
  4  5  1  0
  5  6  1  0
  6  7  1  0
  7  8  1  0
  8  9  2  0
  9 10  1  0
 10 11  1  0
 10 12  2  0
 12 13  1  0
 13 14  2  0
 14 15  1  0
 15 16  1  0
 16 17  2  0
 17 18  1  0
 18 19  2  0
 19 20  1  0
 20 21  2  0
 14  8  1  0
 21 16  1  0
  1 22  1  0
  1 23  1  0
  1 24  1  0
  3 25  1  0
  3 26  1  0
  3 27  1  0
  4 28  1  0
  4 29  1  0
  5 30  1  0
  5 31  1  0
  6 32  1  0
  6 33  1  0
  7 34  1  0
  9 35  1  0
 12 36  1  0
 13 37  1  0
 17 38  1  0
 18 39  1  0
 19 40  1  0
 20 41  1  0
 21 42  1  0
M  END
>  <UniqueID>  (38) 
38

>  <SMILES>  (38) 
CN(C)CCCNc1cc(Cl)ccc1Sc1ccccc1

>  <Energy>  (38) 
36.76797674776454

>  <Genealogy>  (38) 
CN(C)CCCNc1cc(Cl)ccc1Sc1ccccc1 (3D coordinates assigned)
CN(C)CCCNc1cc(Cl)ccc1Sc1ccccc1 (optimized conformer: 36.76797674776454 kcal/mol)

>  <smiles>  (38) 
CN(C)CCCNc1cc(Cl)ccc1Sc1ccccc1

>  <score_type>  (38) 
oracle

>  <origin>  (38) 
adg

>  <m_score__min__energy>  (38) 
-7.4500000000000002

>  <m_primary>  (38) 
energy

$$$$
38:0
     RDKit          3D

 69 72  0  0  0  0  0  0  0  0999 V2000
   -1.0960   26.9820  -24.7830 C   0  0  0  0  0  0  0  0  0  0  0  0
   -0.3690   26.2300  -23.6610 C   0  0  0  0  0  0  0  0  0  0  0  0
    0.9820   26.7490  -23.3100 N   0  0  0  0  0  0  0  0  0  0  0  0
    1.0680   28.2390  -23.3620 C   0  0  0  0  0  0  0  0  0  0  0  0
    1.8480   28.9080  -22.2140 C   0  0  0  0  0  0  0  0  0  0  0  0
    2.0950   26.0410  -24.0100 C   0  0  0  0  0  0  0  0  0  0  0  0
    2.2620   26.4550  -25.4920 C   0  0  0  0  0  0  0  0  0  0  0  0
    2.3350   25.2850  -26.4850 C   0  0  0  0  0  0  0  0  0  0  0  0
    1.2720   25.3580  -27.4920 N   0  0  0  0  0  0  0  0  0  0  0  0
    0.1790   24.4230  -27.5680 C   0  0  0  0  0  0  0  0  0  0  0  0
    0.0930   23.4010  -26.6150 C   0  0  0  0  0  0  0  0  0  0  0  0
   -0.9600   22.4890  -26.6490 C   0  0  0  0  0  0  0  0  0  0  0  0
   -1.9560   22.5850  -27.6340 C   0  0  0  0  0  0  0  0  0  0  0  0
   -1.8740   23.5910  -28.6160 C   0  0  0  0  0  0  0  0  0  0  0  0
   -0.8090   24.5110  -28.5650 C   0  0  0  0  0  0  0  0  0  0  0  0
   -2.9400   23.8020  -29.6300 C   0  0  0  0  0  0  0  0  0  0  0  0
   -3.2810   25.0020  -29.8410 O   0  0  0  0  0  0  0  0  0  0  0  0
   -3.6100   22.7240  -30.4380 C   0  0  0  0  0  0  0  0  0  0  0  0
   -4.3160   23.1400  -31.5910 C   0  0  0  0  0  0  0  0  0  0  0  0
   -4.9980   22.2330  -32.4000 C   0  0  0  0  0  0  0  0  0  0  0  0
   -4.9850   20.8710  -32.1010 C   0  0  0  0  0  0  0  0  0  0  0  0
   -5.7010   19.9310  -32.9300 N   0  0  0  0  0  0  0  0  0  0  0  0
   -4.9590   19.0150  -33.8190 C   0  0  0  0  0  0  0  0  0  0  0  0
   -5.8890   17.9820  -34.4770 C   0  0  0  0  0  0  0  0  0  0  0  0
   -6.8530   17.3830  -33.4450 C   0  0  0  0  0  0  0  0  0  0  0  0
   -7.6490   18.4500  -32.6550 C   0  0  0  0  0  0  0  0  0  0  0  0
   -7.1700   19.8850  -32.9130 C   0  0  0  0  0  0  0  0  0  0  0  0
   -4.2700   20.4280  -30.9820 C   0  0  0  0  0  0  0  0  0  0  0  0
   -3.6100   21.3290  -30.1240 C   0  0  0  0  0  0  0  0  0  0  0  0
   -2.9130   20.7250  -28.9270 C   0  0  0  0  0  0  0  0  0  0  0  0
   -3.0590   21.5730  -27.6700 C   0  0  0  0  0  0  0  0  0  0  0  0
   -1.7970   27.7071  -24.3440 H   0  0  0  0  0  0  0  0  0  0  0  0
   -0.3604   27.5133  -25.4048 H   0  0  0  0  0  0  0  0  0  0  0  0
   -1.6519   26.2648  -25.4048 H   0  0  0  0  0  0  0  0  0  0  0  0
   -0.9959   26.2799  -22.7585 H   0  0  0  0  0  0  0  0  0  0  0  0
   -0.2111   25.2081  -24.0363 H   0  0  0  0  0  0  0  0  0  0  0  0
    1.0750   26.5330  -22.2900 H   0  0  0  0  0  0  0  0  0  0  0  0
    1.5568   28.5157  -24.3078 H   0  0  0  0  0  0  0  0  0  0  0  0
    0.0332   28.6005  -23.2694 H   0  0  0  0  0  0  0  0  0  0  0  0
    1.4471   28.5641  -21.2491 H   0  0  0  0  0  0  0  0  0  0  0  0
    2.9116   28.6370  -22.2866 H   0  0  0  0  0  0  0  0  0  0  0  0
    1.7422   30.0005  -22.2866 H   0  0  0  0  0  0  0  0  0  0  0  0
    3.0337   26.2607  -23.4803 H   0  0  0  0  0  0  0  0  0  0  0  0
    1.8491   24.9689  -24.0018 H   0  0  0  0  0  0  0  0  0  0  0  0
    1.4047   27.0859  -25.7694 H   0  0  0  0  0  0  0  0  0  0  0  0
    3.2271   26.9785  -25.5597 H   0  0  0  0  0  0  0  0  0  0  0  0
    3.3099   25.3103  -26.9939 H   0  0  0  0  0  0  0  0  0  0  0  0
    2.2076   24.3494  -25.9207 H   0  0  0  0  0  0  0  0  0  0  0  0
    1.3210   26.1020  -28.2270 H   0  0  0  0  0  0  0  0  0  0  0  0
    0.8625   23.3173  -25.8334 H   0  0  0  0  0  0  0  0  0  0  0  0
   -1.0114   21.6871  -25.8978 H   0  0  0  0  0  0  0  0  0  0  0  0
   -0.7489   25.3114  -29.3172 H   0  0  0  0  0  0  0  0  0  0  0  0
   -4.3270   24.2075  -31.8561 H   0  0  0  0  0  0  0  0  0  0  0  0
   -5.5502   22.5939  -33.2802 H   0  0  0  0  0  0  0  0  0  0  0  0
   -4.4667   19.6041  -34.6068 H   0  0  0  0  0  0  0  0  0  0  0  0
   -4.2196   18.4724  -33.2116 H   0  0  0  0  0  0  0  0  0  0  0  0
   -6.4703   18.4739  -35.2708 H   0  0  0  0  0  0  0  0  0  0  0  0
   -5.2752   17.1722  -34.8983 H   0  0  0  0  0  0  0  0  0  0  0  0
   -7.5680   16.7337  -33.9715 H   0  0  0  0  0  0  0  0  0  0  0  0
   -6.2444   16.8269  -32.7167 H   0  0  0  0  0  0  0  0  0  0  0  0
   -8.7081   18.3791  -32.9437 H   0  0  0  0  0  0  0  0  0  0  0  0
   -7.4939   18.2440  -31.5856 H   0  0  0  0  0  0  0  0  0  0  0  0
   -7.5562   20.2286  -33.8840 H   0  0  0  0  0  0  0  0  0  0  0  0
   -7.5417   20.5388  -32.1103 H   0  0  0  0  0  0  0  0  0  0  0  0
   -4.2225   19.3501  -30.7676 H   0  0  0  0  0  0  0  0  0  0  0  0
   -3.3443   19.7318  -28.7332 H   0  0  0  0  0  0  0  0  0  0  0  0
   -1.8404   20.6646  -29.1635 H   0  0  0  0  0  0  0  0  0  0  0  0
   -4.0312   22.0874  -27.6830 H   0  0  0  0  0  0  0  0  0  0  0  0
   -3.0027   20.9300  -26.7793 H   0  0  0  0  0  0  0  0  0  0  0  0
  1  2  1  0
  2  3  1  0
  3  4  1  0
  4  5  1  0
  3  6  1  0
  6  7  1  0
  7  8  1  0
  8  9  1  0
  9 10  1  0
 10 11  2  0
 11 12  1  0
 12 13  2  0
 13 14  1  0
 14 15  2  0
 14 16  1  0
 16 17  2  0
 16 18  1  0
 18 19  2  0
 19 20  1  0
 20 21  2  0
 21 22  1  0
 22 23  1  0
 23 24  1  0
 24 25  1  0
 25 26  1  0
 26 27  1  0
 21 28  1  0
 28 29  2  0
 29 30  1  0
 30 31  1  0
 15 10  1  0
 29 18  1  0
 31 13  1  0
 27 22  1  0
  1 32  1  0
  1 33  1  0
  1 34  1  0
  2 35  1  0
  2 36  1  0
  3 37  1  0
  4 38  1  0
  4 39  1  0
  5 40  1  0
  5 41  1  0
  5 42  1  0
  6 43  1  0
  6 44  1  0
  7 45  1  0
  7 46  1  0
  8 47  1  0
  8 48  1  0
  9 49  1  0
 11 50  1  0
 12 51  1  0
 15 52  1  0
 19 53  1  0
 20 54  1  0
 23 55  1  0
 23 56  1  0
 24 57  1  0
 24 58  1  0
 25 59  1  0
 25 60  1  0
 26 61  1  0
 26 62  1  0
 27 63  1  0
 27 64  1  0
 28 65  1  0
 30 66  1  0
 30 67  1  0
 31 68  1  0
 31 69  1  0
M  CHG  1   3   1
M  END
>  <UniqueID>  (39) 
39

>  <SMILES>  (39) 
CC[NH+](CC)CCCNc1ccc2c(c1)C(=O)c1ccc(N3CCCCC3)cc1CC2

>  <Energy>  (39) 
102.12345055304824

>  <Genealogy>  (39) 
CC[NH+](CC)CCCNc1ccc2c(c1)C(=O)c1ccc(N3CCCCC3)cc1CC2 (protonated)
CC[NH+](CC)CCCNc1ccc2c(c1)C(=O)c1ccc(N3CCCCC3)cc1CC2 (3D coordinates assigned)
CC[NH+](CC)CCCNc1ccc2c(c1)C(=O)c1ccc(N3CCCCC3)cc1CC2 (nonaromatic ring conformer: 102.12345055304824 kcal/mol)

>  <smiles>  (39) 
CCN(CC)CCCNc1ccc2c(c1)C(=O)c1ccc(N3CCCCC3)cc1CC2

>  <score_type>  (39) 
oracle

>  <origin>  (39) 
adg

>  <m_score__min__energy>  (39) 
-7.5999999999999996

>  <m_primary>  (39) 
energy

$$$$
39:0
     RDKit          3D

 57 60  0  0  0  0  0  0  0  0999 V2000
   -1.0150   18.2670  -27.1930 C   0  0  0  0  0  0  0  0  0  0  0  0
   -2.3740   18.6480  -26.6300 C   0  0  0  0  0  0  0  0  0  0  0  0
   -2.6090   20.0180  -26.8820 O   0  0  0  0  0  0  0  0  0  0  0  0
   -1.5990   20.7930  -26.2690 C   0  0  0  0  0  0  0  0  0  0  0  0
   -1.4560   22.1400  -26.9970 C   0  0  0  0  0  0  0  0  0  0  0  0
   -2.4410   22.3140  -28.0950 N   0  0  0  0  0  0  0  0  0  0  0  0
   -3.0180   23.6860  -28.1040 C   0  0  0  0  0  0  0  0  0  0  0  0
   -3.5360   24.1490  -29.4860 C   0  0  0  0  0  0  0  0  0  0  0  0
   -3.8420   23.0160  -30.3690 N   0  0  0  0  0  0  0  0  0  0  0  0
   -4.9070   23.1330  -31.3360 C   0  0  0  0  0  0  0  0  0  0  0  0
   -5.3700   24.2690  -31.6280 O   0  0  0  0  0  0  0  0  0  0  0  0
   -5.4980   21.9350  -31.9730 C   0  0  0  0  0  0  0  0  0  0  0  0
   -4.6350   21.0100  -32.5770 C   0  0  0  0  0  0  0  0  0  0  0  0
   -5.1450   19.8430  -33.1670 C   0  0  0  0  0  0  0  0  0  0  0  0
   -4.2580   18.8520  -33.8280 C   0  0  0  0  0  0  0  0  0  0  0  0
   -4.7850   17.8030  -34.6090 C   0  0  0  0  0  0  0  0  0  0  0  0
   -3.9330   16.8710  -35.2100 C   0  0  0  0  0  0  0  0  0  0  0  0
   -2.5510   16.9680  -35.0340 C   0  0  0  0  0  0  0  0  0  0  0  0
   -2.0170   17.9970  -34.2550 C   0  0  0  0  0  0  0  0  0  0  0  0
   -2.8640   18.9300  -33.6510 C   0  0  0  0  0  0  0  0  0  0  0  0
   -6.4830   19.6060  -33.1160 N   0  0  0  0  0  0  0  0  0  0  0  0
   -7.3570   20.4710  -32.5370 C   0  0  0  0  0  0  0  0  0  0  0  0
   -8.7230   20.1690  -32.5320 C   0  0  0  0  0  0  0  0  0  0  0  0
   -9.6360   21.0610  -31.9630 C   0  0  0  0  0  0  0  0  0  0  0  0
   -9.1890   22.2600  -31.4060 C   0  0  0  0  0  0  0  0  0  0  0  0
   -7.8260   22.5720  -31.4030 C   0  0  0  0  0  0  0  0  0  0  0  0
   -6.8880   21.6730  -31.9550 C   0  0  0  0  0  0  0  0  0  0  0  0
   -2.8770   21.9130  -30.4850 C   0  0  0  0  0  0  0  0  0  0  0  0
   -1.8080   21.9950  -29.3910 C   0  0  0  0  0  0  0  0  0  0  0  0
   -0.3171   18.0713  -26.3656 H   0  0  0  0  0  0  0  0  0  0  0  0
   -1.1145   17.3621  -27.8105 H   0  0  0  0  0  0  0  0  0  0  0  0
   -0.6296   19.0917  -27.8105 H   0  0  0  0  0  0  0  0  0  0  0  0
   -3.1560   18.0446  -27.1141 H   0  0  0  0  0  0  0  0  0  0  0  0
   -2.3927   18.4611  -25.5462 H   0  0  0  0  0  0  0  0  0  0  0  0
   -1.8661   20.9737  -25.2173 H   0  0  0  0  0  0  0  0  0  0  0  0
   -0.6439   20.2499  -26.3229 H   0  0  0  0  0  0  0  0  0  0  0  0
   -1.5986   22.9500  -26.2666 H   0  0  0  0  0  0  0  0  0  0  0  0
   -0.4530   22.1653  -27.4479 H   0  0  0  0  0  0  0  0  0  0  0  0
   -3.2190   21.6270  -27.9410 H   0  0  0  0  0  0  0  0  0  0  0  0
   -3.8585   23.7110  -27.3949 H   0  0  0  0  0  0  0  0  0  0  0  0
   -2.2042   24.3721  -27.8263 H   0  0  0  0  0  0  0  0  0  0  0  0
   -4.4504   24.7430  -29.3413 H   0  0  0  0  0  0  0  0  0  0  0  0
   -2.7439   24.7455  -29.9623 H   0  0  0  0  0  0  0  0  0  0  0  0
   -3.5516   21.1999  -32.5886 H   0  0  0  0  0  0  0  0  0  0  0  0
   -5.8730   17.7172  -34.7464 H   0  0  0  0  0  0  0  0  0  0  0  0
   -4.3524   16.0595  -35.8229 H   0  0  0  0  0  0  0  0  0  0  0  0
   -1.8831   16.2342  -35.5088 H   0  0  0  0  0  0  0  0  0  0  0  0
   -0.9284   18.0731  -34.1168 H   0  0  0  0  0  0  0  0  0  0  0  0
   -2.4373   19.7327  -33.0316 H   0  0  0  0  0  0  0  0  0  0  0  0
   -9.0790   19.2280  -32.9766 H   0  0  0  0  0  0  0  0  0  0  0  0
  -10.7087   20.8177  -31.9541 H   0  0  0  0  0  0  0  0  0  0  0  0
   -9.9124   22.9630  -30.9672 H   0  0  0  0  0  0  0  0  0  0  0  0
   -7.4830   23.5225  -30.9684 H   0  0  0  0  0  0  0  0  0  0  0  0
   -3.4124   20.9566  -30.3925 H   0  0  0  0  0  0  0  0  0  0  0  0
   -2.3802   21.9863  -31.4637 H   0  0  0  0  0  0  0  0  0  0  0  0
   -1.2882   21.0285  -29.3153 H   0  0  0  0  0  0  0  0  0  0  0  0
   -1.0867   22.7851  -29.6469 H   0  0  0  0  0  0  0  0  0  0  0  0
  1  2  1  0
  2  3  1  0
  3  4  1  0
  4  5  1  0
  5  6  1  0
  6  7  1  0
  7  8  1  0
  8  9  1  0
  9 10  1  0
 10 11  2  0
 10 12  1  0
 12 13  2  0
 13 14  1  0
 14 15  1  0
 15 16  2  0
 16 17  1  0
 17 18  2  0
 18 19  1  0
 19 20  2  0
 14 21  2  0
 21 22  1  0
 22 23  2  0
 23 24  1  0
 24 25  2  0
 25 26  1  0
 26 27  2  0
  9 28  1  0
 28 29  1  0
 29  6  1  0
 27 12  1  0
 20 15  1  0
 27 22  1  0
  1 30  1  0
  1 31  1  0
  1 32  1  0
  2 33  1  0
  2 34  1  0
  4 35  1  0
  4 36  1  0
  5 37  1  0
  5 38  1  0
  6 39  1  0
  7 40  1  0
  7 41  1  0
  8 42  1  0
  8 43  1  0
 13 44  1  0
 16 45  1  0
 17 46  1  0
 18 47  1  0
 19 48  1  0
 20 49  1  0
 23 50  1  0
 24 51  1  0
 25 52  1  0
 26 53  1  0
 28 54  1  0
 28 55  1  0
 29 56  1  0
 29 57  1  0
M  CHG  1   6   1
M  END
>  <UniqueID>  (40) 
40

>  <SMILES>  (40) 
CCOCC[NH+]1CCN(C(=O)c2cc(-c3ccccc3)nc3ccccc23)CC1

>  <Energy>  (40) 
79.02333103569406

>  <Genealogy>  (40) 
CCOCC[NH+]1CCN(C(=O)c2cc(-c3ccccc3)nc3ccccc23)CC1 (protonated)
CCOCC[NH+]1CCN(C(=O)c2cc(-c3ccccc3)nc3ccccc23)CC1 (3D coordinates assigned)
CCOCC[NH+]1CCN(C(=O)c2cc(-c3ccccc3)nc3ccccc23)CC1 (nonaromatic ring conformer: 79.02333103569406 kcal/mol)

>  <smiles>  (40) 
CCOCCN1CCN(C(=O)c2cc(-c3ccccc3)nc3ccccc23)CC1

>  <score_type>  (40) 
oracle

>  <origin>  (40) 
adg

>  <m_score__min__energy>  (40) 
-8.2300000000000004

>  <m_primary>  (40) 
energy

$$$$
40:0
     RDKit          3D

 39 41  0  0  0  0  0  0  0  0999 V2000
   -0.4480   26.0140  -25.8240 C   0  0  0  0  0  0  0  0  0  0  0  0
   -1.4890   25.5270  -26.7870 C   0  0  0  0  0  0  0  0  0  0  0  0
   -2.7100   25.0220  -26.3330 C   0  0  0  0  0  0  0  0  0  0  0  0
   -3.6230   24.5500  -27.2210 N   0  0  0  0  0  0  0  0  0  0  0  0
   -3.3740   24.5430  -28.5600 C   0  0  0  0  0  0  0  0  0  0  0  0
   -4.3620   24.0390  -29.4870 N   0  0  0  0  0  0  0  0  0  0  0  0
   -4.2630   22.6620  -30.0060 C   0  0  0  0  0  0  0  0  0  0  0  0
   -4.7070   22.5930  -31.4710 C   0  0  0  0  0  0  0  0  0  0  0  0
   -6.0290   23.2920  -31.6420 C   0  0  0  0  0  0  0  0  0  0  0  0
   -7.0180   22.7020  -32.3410 C   0  0  0  0  0  0  0  0  0  0  0  0
   -7.3180   21.2570  -32.3200 C   0  0  0  0  0  0  0  0  0  0  0  0
   -6.5490   20.3470  -33.0650 C   0  0  0  0  0  0  0  0  0  0  0  0
   -6.8800   18.9880  -33.0740 C   0  0  0  0  0  0  0  0  0  0  0  0
   -7.9890   18.5330  -32.3580 C   0  0  0  0  0  0  0  0  0  0  0  0
   -8.7770   19.4380  -31.6410 C   0  0  0  0  0  0  0  0  0  0  0  0
   -8.4500   20.7970  -31.6290 C   0  0  0  0  0  0  0  0  0  0  0  0
   -6.0900   24.7080  -31.1230 C   0  0  0  0  0  0  0  0  0  0  0  0
   -5.6470   24.7420  -29.6600 C   0  0  0  0  0  0  0  0  0  0  0  0
   -2.1790   25.0150  -29.0130 N   0  0  0  0  0  0  0  0  0  0  0  0
   -1.2380   25.4970  -28.1630 C   0  0  0  0  0  0  0  0  0  0  0  0
   -0.7968   25.8508  -24.7936 H   0  0  0  0  0  0  0  0  0  0  0  0
    0.4888   25.4607  -25.9860 H   0  0  0  0  0  0  0  0  0  0  0  0
   -0.2724   27.0877  -25.9860 H   0  0  0  0  0  0  0  0  0  0  0  0
   -2.9321   25.0066  -25.2558 H   0  0  0  0  0  0  0  0  0  0  0  0
   -3.2191   22.3234  -29.9304 H   0  0  0  0  0  0  0  0  0  0  0  0
   -4.9227   22.0148  -29.4094 H   0  0  0  0  0  0  0  0  0  0  0  0
   -3.9518   23.0821  -32.1039 H   0  0  0  0  0  0  0  0  0  0  0  0
   -4.8152   21.5389  -31.7661 H   0  0  0  0  0  0  0  0  0  0  0  0
   -7.6482   23.3442  -32.9738 H   0  0  0  0  0  0  0  0  0  0  0  0
   -5.6840   20.7045  -33.6429 H   0  0  0  0  0  0  0  0  0  0  0  0
   -6.2658   18.2768  -33.6459 H   0  0  0  0  0  0  0  0  0  0  0  0
   -8.2425   17.4626  -32.3581 H   0  0  0  0  0  0  0  0  0  0  0  0
   -9.6561   19.0800  -31.0851 H   0  0  0  0  0  0  0  0  0  0  0  0
   -9.0816   21.5081  -31.0764 H   0  0  0  0  0  0  0  0  0  0  0  0
   -5.4228   25.3456  -31.7216 H   0  0  0  0  0  0  0  0  0  0  0  0
   -7.1228   25.0788  -31.1988 H   0  0  0  0  0  0  0  0  0  0  0  0
   -5.5314   25.7887  -29.3421 H   0  0  0  0  0  0  0  0  0  0  0  0
   -6.4101   24.2389  -29.0480 H   0  0  0  0  0  0  0  0  0  0  0  0
   -0.2782   25.8640  -28.5554 H   0  0  0  0  0  0  0  0  0  0  0  0
  1  2  1  0
  2  3  2  0
  3  4  1  0
  4  5  2  0
  5  6  1  0
  6  7  1  0
  7  8  1  0
  8  9  1  0
  9 10  2  3
 10 11  1  0
 11 12  2  0
 12 13  1  0
 13 14  2  0
 14 15  1  0
 15 16  2  0
  9 17  1  0
 17 18  1  0
  5 19  1  0
 19 20  2  0
 20  2  1  0
 18  6  1  0
 16 11  1  0
  1 21  1  0
  1 22  1  0
  1 23  1  0
  3 24  1  0
  7 25  1  0
  7 26  1  0
  8 27  1  0
  8 28  1  0
 10 29  1  0
 12 30  1  0
 13 31  1  0
 14 32  1  0
 15 33  1  0
 16 34  1  0
 17 35  1  0
 17 36  1  0
 18 37  1  0
 18 38  1  0
 20 39  1  0
M  END
>  <UniqueID>  (41) 
41

>  <SMILES>  (41) 
Cc1cnc(N2CCC(=Cc3ccccc3)CC2)nc1

>  <Energy>  (41) 
48.85478527306381

>  <Genealogy>  (41) 
Cc1cnc(N2CCC(=Cc3ccccc3)CC2)nc1 (3D coordinates assigned)
Cc1cnc(N2CCC(=Cc3ccccc3)CC2)nc1 (nonaromatic ring conformer: 48.85478527306381 kcal/mol)

>  <smiles>  (41) 
Cc1cnc(N2CCC(=Cc3ccccc3)CC2)nc1

>  <score_type>  (41) 
oracle

>  <origin>  (41) 
adg

>  <m_score__min__energy>  (41) 
-7.8700000000000001

>  <m_primary>  (41) 
energy

$$$$
41:0
     RDKit          3D

 38 39  0  0  0  0  0  0  0  0999 V2000
   -4.2010   23.5100  -28.1720 C   0  0  0  0  0  0  0  0  0  0  0  0
   -3.5250   24.4640  -29.1660 C   0  0  0  0  0  0  0  0  0  0  0  0
   -4.2120   24.5480  -30.4720 N   0  0  0  0  0  0  0  0  0  0  0  0
   -4.2240   23.2680  -31.2210 C   0  0  0  0  0  0  0  0  0  0  0  0
   -5.3840   23.1860  -32.2140 C   0  0  0  0  0  0  0  0  0  0  0  0
   -6.6450   23.3920  -31.4950 N   0  0  0  0  0  0  0  0  0  0  0  0
   -7.8320   22.6770  -31.8780 C   0  0  0  0  0  0  0  0  0  0  0  0
   -8.9020   23.3160  -32.0700 O   0  0  0  0  0  0  0  0  0  0  0  0
   -7.8290   21.2040  -32.0330 C   0  0  0  0  0  0  0  0  0  0  0  0
   -8.7390   20.4090  -31.3160 C   0  0  0  0  0  0  0  0  0  0  0  0
   -8.7400   19.0220  -31.4730 C   0  0  0  0  0  0  0  0  0  0  0  0
   -7.8430   18.4140  -32.3530 C   0  0  0  0  0  0  0  0  0  0  0  0
   -6.9370   19.1860  -33.0890 C   0  0  0  0  0  0  0  0  0  0  0  0
   -6.0600   18.5280  -33.9630 O   0  0  0  0  0  0  0  0  0  0  0  0
   -6.0730   17.1260  -34.2130 C   0  0  0  0  0  0  0  0  0  0  0  0
   -6.9370   20.5860  -32.9290 C   0  0  0  0  0  0  0  0  0  0  0  0
   -6.7320   24.4420  -30.4740 C   0  0  0  0  0  0  0  0  0  0  0  0
   -5.4740   25.3270  -30.4630 C   0  0  0  0  0  0  0  0  0  0  0  0
   -3.9741   23.8301  -27.1444 H   0  0  0  0  0  0  0  0  0  0  0  0
   -5.2895   23.5273  -28.3296 H   0  0  0  0  0  0  0  0  0  0  0  0
   -3.8239   22.4888  -28.3296 H   0  0  0  0  0  0  0  0  0  0  0  0
   -3.5018   25.4696  -28.7208 H   0  0  0  0  0  0  0  0  0  0  0  0
   -2.5177   24.0660  -29.3583 H   0  0  0  0  0  0  0  0  0  0  0  0
   -3.2779   23.1732  -31.7740 H   0  0  0  0  0  0  0  0  0  0  0  0
   -4.3475   22.4534  -30.4922 H   0  0  0  0  0  0  0  0  0  0  0  0
   -5.2667   23.9640  -32.9828 H   0  0  0  0  0  0  0  0  0  0  0  0
   -5.3896   22.1979  -32.6973 H   0  0  0  0  0  0  0  0  0  0  0  0
   -9.4544   20.8821  -30.6273 H   0  0  0  0  0  0  0  0  0  0  0  0
   -9.4499   18.4061  -30.9014 H   0  0  0  0  0  0  0  0  0  0  0  0
   -7.8483   17.3201  -32.4688 H   0  0  0  0  0  0  0  0  0  0  0  0
   -6.0780   16.5830  -33.2564 H   0  0  0  0  0  0  0  0  0  0  0  0
   -6.9736   16.8644  -34.7879 H   0  0  0  0  0  0  0  0  0  0  0  0
   -5.1774   16.8477  -34.7879 H   0  0  0  0  0  0  0  0  0  0  0  0
   -6.2337   21.2011  -33.5095 H   0  0  0  0  0  0  0  0  0  0  0  0
   -7.6095   25.0715  -30.6833 H   0  0  0  0  0  0  0  0  0  0  0  0
   -6.8210   23.9584  -29.4900 H   0  0  0  0  0  0  0  0  0  0  0  0
   -5.4928   25.9726  -31.3535 H   0  0  0  0  0  0  0  0  0  0  0  0
   -5.4921   25.9096  -29.5301 H   0  0  0  0  0  0  0  0  0  0  0  0
  1  2  1  0
  2  3  1  0
  3  4  1  0
  4  5  1  0
  5  6  1  0
  6  7  1  0
  7  8  2  0
  7  9  1  0
  9 10  2  0
 10 11  1  0
 11 12  2  0
 12 13  1  0
 13 14  1  0
 14 15  1  0
 13 16  2  0
  6 17  1  0
 17 18  1  0
 18  3  1  0
 16  9  1  0
  1 19  1  0
  1 20  1  0
  1 21  1  0
  2 22  1  0
  2 23  1  0
  4 24  1  0
  4 25  1  0
  5 26  1  0
  5 27  1  0
 10 28  1  0
 11 29  1  0
 12 30  1  0
 15 31  1  0
 15 32  1  0
 15 33  1  0
 16 34  1  0
 17 35  1  0
 17 36  1  0
 18 37  1  0
 18 38  1  0
M  END
>  <UniqueID>  (42) 
42

>  <SMILES>  (42) 
CCN1CCN(C(=O)c2cccc(OC)c2)CC1

>  <Energy>  (42) 
49.59946604059579

>  <Genealogy>  (42) 
CCN1CCN(C(=O)c2cccc(OC)c2)CC1 (3D coordinates assigned)
CCN1CCN(C(=O)c2cccc(OC)c2)CC1 (nonaromatic ring conformer: 49.59946604059579 kcal/mol)

>  <smiles>  (42) 
CCN1CCN(C(=O)c2cccc(OC)c2)CC1

>  <score_type>  (42) 
oracle

>  <origin>  (42) 
adg

>  <m_score__min__energy>  (42) 
-7.3899999999999997

>  <m_primary>  (42) 
energy

$$$$
42:0
     RDKit          3D

 38 40  0  0  0  0  0  0  0  0999 V2000
   -2.0840   24.9030  -28.1630 C   0  0  0  0  0  0  0  0  0  0  0  0
   -2.7500   25.2970  -29.3590 O   0  0  0  0  0  0  0  0  0  0  0  0
   -3.7390   24.5390  -30.0020 C   0  0  0  0  0  0  0  0  0  0  0  0
   -5.0790   24.9130  -29.8290 C   0  0  0  0  0  0  0  0  0  0  0  0
   -6.1050   24.1940  -30.4470 C   0  0  0  0  0  0  0  0  0  0  0  0
   -5.8040   23.0880  -31.2460 C   0  0  0  0  0  0  0  0  0  0  0  0
   -6.7820   22.4070  -31.8340 O   0  0  0  0  0  0  0  0  0  0  0  0
   -6.5620   21.3440  -32.6040 C   0  0  0  0  0  0  0  0  0  0  0  0
   -7.5430   20.7760  -33.1510 O   0  0  0  0  0  0  0  0  0  0  0  0
   -5.2470   20.8820  -32.8230 C   0  0  0  0  0  0  0  0  0  0  0  0
   -4.9530   19.6950  -33.6550 C   0  0  0  0  0  0  0  0  0  0  0  0
   -3.8320   19.1270  -33.5400 O   0  0  0  0  0  0  0  0  0  0  0  0
   -5.9440   19.1530  -34.5430 N   0  0  0  0  0  0  0  0  0  0  0  0
   -5.7530   17.8930  -35.2600 C   0  0  0  0  0  0  0  0  0  0  0  0
   -5.9990   16.7010  -34.3300 C   0  0  0  0  0  0  0  0  0  0  0  0
   -6.4990   17.1470  -33.0300 N   0  0  0  0  0  0  0  0  0  0  0  0
   -7.6540   17.7830  -32.7830 C   0  0  0  0  0  0  0  0  0  0  0  0
   -7.6880   18.0900  -31.4420 C   0  0  0  0  0  0  0  0  0  0  0  0
   -6.5560   17.6540  -30.8490 N   0  0  0  0  0  0  0  0  0  0  0  0
   -5.8520   17.0870  -31.8510 C   0  0  0  0  0  0  0  0  0  0  0  0
   -4.1910   21.5900  -32.2320 C   0  0  0  0  0  0  0  0  0  0  0  0
   -4.4610   22.7020  -31.4290 C   0  0  0  0  0  0  0  0  0  0  0  0
   -3.4320   23.4250  -30.8080 C   0  0  0  0  0  0  0  0  0  0  0  0
   -2.6620   25.2449  -27.2918 H   0  0  0  0  0  0  0  0  0  0  0  0
   -1.9952   23.8069  -28.1368 H   0  0  0  0  0  0  0  0  0  0  0  0
   -1.0806   25.3529  -28.1368 H   0  0  0  0  0  0  0  0  0  0  0  0
   -5.3250   25.7814  -29.2003 H   0  0  0  0  0  0  0  0  0  0  0  0
   -7.1521   24.4992  -30.3043 H   0  0  0  0  0  0  0  0  0  0  0  0
   -6.9100   19.5500  -34.5280 H   0  0  0  0  0  0  0  0  0  0  0  0
   -6.4587   17.8459  -36.1025 H   0  0  0  0  0  0  0  0  0  0  0  0
   -4.7174   17.8478  -35.6281 H   0  0  0  0  0  0  0  0  0  0  0  0
   -6.7407   16.0319  -34.7908 H   0  0  0  0  0  0  0  0  0  0  0  0
   -5.0466   16.1723  -34.1773 H   0  0  0  0  0  0  0  0  0  0  0  0
   -8.4351   18.0175  -33.5212 H   0  0  0  0  0  0  0  0  0  0  0  0
   -8.5114   18.6109  -30.9313 H   0  0  0  0  0  0  0  0  0  0  0  0
   -4.8612   16.6276  -31.7192 H   0  0  0  0  0  0  0  0  0  0  0  0
   -3.1517   21.2710  -32.3999 H   0  0  0  0  0  0  0  0  0  0  0  0
   -2.3842   23.1219  -30.9504 H   0  0  0  0  0  0  0  0  0  0  0  0
  1  2  1  0
  2  3  1  0
  3  4  2  0
  4  5  1  0
  5  6  2  0
  6  7  1  0
  7  8  1  0
  8  9  2  0
  8 10  1  0
 10 11  1  0
 11 12  2  0
 11 13  1  0
 13 14  1  0
 14 15  1  0
 15 16  1  0
 16 17  1  0
 17 18  2  0
 18 19  1  0
 19 20  2  0
 10 21  2  0
 21 22  1  0
 22 23  2  0
 23  3  1  0
 22  6  1  0
 20 16  1  0
  1 24  1  0
  1 25  1  0
  1 26  1  0
  4 27  1  0
  5 28  1  0
 13 29  1  0
 14 30  1  0
 14 31  1  0
 15 32  1  0
 15 33  1  0
 17 34  1  0
 18 35  1  0
 20 36  1  0
 21 37  1  0
 23 38  1  0
M  END
>  <UniqueID>  (43) 
43

>  <SMILES>  (43) 
COc1ccc2oc(=O)c(C(=O)NCCn3ccnc3)cc2c1

>  <Energy>  (43) 
71.70638314122644

>  <Genealogy>  (43) 
COc1ccc2oc(=O)c(C(=O)NCCn3ccnc3)cc2c1 (3D coordinates assigned)
COc1ccc2oc(=O)c(C(=O)NCCn3ccnc3)cc2c1 (optimized conformer: 71.70638314122644 kcal/mol)

>  <smiles>  (43) 
COc1ccc2oc(=O)c(C(=O)NCCn3ccnc3)cc2c1

>  <score_type>  (43) 
oracle

>  <origin>  (43) 
adg

>  <m_score__min__energy>  (43) 
-7.2800000000000002

>  <m_primary>  (43) 
energy

$$$$
43:0
     RDKit          3D

 54 57  0  0  0  0  0  0  0  0999 V2000
   -9.7820   21.1940  -31.9960 C   0  0  0  0  0  0  0  0  0  0  0  0
   -8.4050   21.4840  -32.2180 O   0  0  0  0  0  0  0  0  0  0  0  0
   -7.3960   20.5140  -32.3110 C   0  0  0  0  0  0  0  0  0  0  0  0
   -7.6880   19.2090  -31.9000 C   0  0  0  0  0  0  0  0  0  0  0  0
   -6.7200   18.2060  -31.9830 C   0  0  0  0  0  0  0  0  0  0  0  0
   -5.4470   18.5000  -32.4750 C   0  0  0  0  0  0  0  0  0  0  0  0
   -5.1270   19.8050  -32.8810 C   0  0  0  0  0  0  0  0  0  0  0  0
   -3.8190   20.1050  -33.4050 N   0  0  0  0  0  0  0  0  0  0  0  0
   -2.9320   19.0430  -33.8890 C   0  0  0  0  0  0  0  0  0  0  0  0
   -1.5590   19.1120  -33.1850 C   0  0  0  0  0  0  0  0  0  0  0  0
   -1.2230   20.4560  -32.6450 N   0  0  0  0  0  0  0  0  0  0  0  0
   -1.5460   20.5600  -31.2000 C   0  0  0  0  0  0  0  0  0  0  0  0
   -0.8470   21.7550  -30.5350 C   0  0  0  0  0  0  0  0  0  0  0  0
   -1.7000   22.3370  -29.4030 C   0  0  0  0  0  0  0  0  0  0  0  0
   -2.9040   22.9640  -29.9480 N   0  0  0  0  0  0  0  0  0  0  0  0
   -3.1990   24.2870  -29.9650 C   0  0  0  0  0  0  0  0  0  0  0  0
   -2.3590   25.2950  -29.5060 O   0  0  0  0  0  0  0  0  0  0  0  0
   -4.4940   24.4430  -30.4050 C   0  0  0  0  0  0  0  0  0  0  0  0
   -5.0140   23.2510  -30.6250 N   0  0  0  0  0  0  0  0  0  0  0  0
   -4.0630   22.3570  -30.3020 C   0  0  0  0  0  0  0  0  0  0  0  0
   -4.2550   21.1120  -30.2510 O   0  0  0  0  0  0  0  0  0  0  0  0
   -6.4560   23.2390  -30.6020 C   0  0  0  0  0  0  0  0  0  0  0  0
   -6.8230   24.7400  -30.4700 C   0  0  0  0  0  0  0  0  0  0  0  0
   -5.4960   25.5120  -30.2340 C   0  0  0  0  0  0  0  0  0  0  0  0
   -1.8110   21.5360  -33.4730 C   0  0  0  0  0  0  0  0  0  0  0  0
   -3.3470   21.4930  -33.4600 C   0  0  0  0  0  0  0  0  0  0  0  0
   -6.1100   20.8080  -32.8040 C   0  0  0  0  0  0  0  0  0  0  0  0
   -9.9783   21.1527  -30.9144 H   0  0  0  0  0  0  0  0  0  0  0  0
  -10.4006   21.9816  -32.4511 H   0  0  0  0  0  0  0  0  0  0  0  0
  -10.0304   20.2238  -32.4511 H   0  0  0  0  0  0  0  0  0  0  0  0
   -8.6880   18.9711  -31.5084 H   0  0  0  0  0  0  0  0  0  0  0  0
   -6.9609   17.1824  -31.6601 H   0  0  0  0  0  0  0  0  0  0  0  0
   -4.6905   17.7045  -32.5449 H   0  0  0  0  0  0  0  0  0  0  0  0
   -3.3938   18.0660  -33.6838 H   0  0  0  0  0  0  0  0  0  0  0  0
   -2.7808   19.1754  -34.9705 H   0  0  0  0  0  0  0  0  0  0  0  0
   -1.5616   18.3949  -32.3509 H   0  0  0  0  0  0  0  0  0  0  0  0
   -0.7996   18.8754  -33.9448 H   0  0  0  0  0  0  0  0  0  0  0  0
   -2.6338   20.6782  -31.0876 H   0  0  0  0  0  0  0  0  0  0  0  0
   -1.1905   19.6431  -30.7071 H   0  0  0  0  0  0  0  0  0  0  0  0
    0.1173   21.4227  -30.1230 H   0  0  0  0  0  0  0  0  0  0  0  0
   -0.6961   22.5365  -31.2942 H   0  0  0  0  0  0  0  0  0  0  0  0
   -1.9907   21.5293  -28.7151 H   0  0  0  0  0  0  0  0  0  0  0  0
   -1.1127   23.0957  -28.8650 H   0  0  0  0  0  0  0  0  0  0  0  0
   -6.8615   22.8145  -31.5323 H   0  0  0  0  0  0  0  0  0  0  0  0
   -6.8685   22.6219  -29.7902 H   0  0  0  0  0  0  0  0  0  0  0  0
   -7.3068   25.0933  -31.3925 H   0  0  0  0  0  0  0  0  0  0  0  0
   -7.5246   24.9013  -29.6383 H   0  0  0  0  0  0  0  0  0  0  0  0
   -5.3598   26.3118  -30.9768 H   0  0  0  0  0  0  0  0  0  0  0  0
   -5.4431   26.0223  -29.2609 H   0  0  0  0  0  0  0  0  0  0  0  0
   -1.4787   22.5078  -33.0790 H   0  0  0  0  0  0  0  0  0  0  0  0
   -1.4737   21.3937  -34.5103 H   0  0  0  0  0  0  0  0  0  0  0  0
   -3.7174   22.0371  -32.5786 H   0  0  0  0  0  0  0  0  0  0  0  0
   -3.7250   21.9624  -34.3802 H   0  0  0  0  0  0  0  0  0  0  0  0
   -5.8723   21.8308  -33.1317 H   0  0  0  0  0  0  0  0  0  0  0  0
  1  2  1  0
  2  3  1  0
  3  4  2  0
  4  5  1  0
  5  6  2  0
  6  7  1  0
  7  8  1  0
  8  9  1  0
  9 10  1  0
 10 11  1  0
 11 12  1  0
 12 13  1  0
 13 14  1  0
 14 15  1  0
 15 16  1  0
 16 17  1  0
 16 18  2  0
 18 19  1  0
 19 20  1  0
 20 21  2  0
 19 22  1  0
 22 23  1  0
 23 24  1  0
 11 25  1  0
 25 26  1  0
  7 27  2  0
 27  3  1  0
 26  8  1  0
 20 15  1  0
 24 18  1  0
  1 28  1  0
  1 29  1  0
  1 30  1  0
  4 31  1  0
  5 32  1  0
  6 33  1  0
  9 34  1  0
  9 35  1  0
 10 36  1  0
 10 37  1  0
 12 38  1  0
 12 39  1  0
 13 40  1  0
 13 41  1  0
 14 42  1  0
 14 43  1  0
 22 44  1  0
 22 45  1  0
 23 46  1  0
 23 47  1  0
 24 48  1  0
 24 49  1  0
 25 50  1  0
 25 51  1  0
 26 52  1  0
 26 53  1  0
 27 54  1  0
M  CHG  1  17  -1
M  END
>  <UniqueID>  (44) 
44

>  <SMILES>  (44) 
COc1cccc(N2CCN(CCCn3c([O-])c4n(c3=O)CCC4)CC2)c1

>  <Energy>  (44) 
120.39917754852503

>  <Genealogy>  (44) 
COc1cccc(N2CCN(CCCn3c([O-])c4n(c3=O)CCC4)CC2)c1 (protonated)
COc1cccc(N2CCN(CCCn3c([O-])c4n(c3=O)CCC4)CC2)c1 (3D coordinates assigned)
COc1cccc(N2CCN(CCCn3c([O-])c4n(c3=O)CCC4)CC2)c1 (nonaromatic ring conformer: 120.39917754852503 kcal/mol)

>  <smiles>  (44) 
COc1cccc(N2CCN(CCCn3c(O)c4n(c3=O)CCC4)CC2)c1

>  <score_type>  (44) 
oracle

>  <origin>  (44) 
adg

>  <m_score__min__energy>  (44) 
-10.99

>  <m_primary>  (44) 
energy

$$$$
44:0
     RDKit          3D

 66 68  0  0  0  0  0  0  0  0999 V2000
   -2.0440   21.9850  -30.4860 C   0  0  0  0  0  0  0  0  0  0  0  0
   -1.1970   20.7030  -30.4400 C   0  0  0  0  0  0  0  0  0  0  0  0
   -0.9550   20.1120  -31.7840 N   0  0  0  0  0  0  0  0  0  0  0  0
   -0.8340   21.1760  -32.8140 C   0  0  0  0  0  0  0  0  0  0  0  0
   -0.9670   20.6220  -34.2380 C   0  0  0  0  0  0  0  0  0  0  0  0
    0.2730   19.2550  -31.7510 C   0  0  0  0  0  0  0  0  0  0  0  0
   -0.0330   17.7780  -32.0530 C   0  0  0  0  0  0  0  0  0  0  0  0
   -1.4170   17.5750  -32.2750 O   0  0  0  0  0  0  0  0  0  0  0  0
   -1.6490   16.6970  -33.3590 C   0  0  0  0  0  0  0  0  0  0  0  0
   -2.3380   17.4400  -34.5100 C   0  0  0  0  0  0  0  0  0  0  0  0
   -3.6810   16.8720  -34.7610 N   0  0  0  0  0  0  0  0  0  0  0  0
   -4.0700   15.8780  -33.7260 C   0  0  0  0  0  0  0  0  0  0  0  0
   -5.0510   16.4610  -32.7010 C   0  0  0  0  0  0  0  0  0  0  0  0
   -6.3070   16.8970  -33.3520 N   0  0  0  0  0  0  0  0  0  0  0  0
   -7.0620   17.8310  -32.4900 C   0  0  0  0  0  0  0  0  0  0  0  0
   -6.1130   18.5370  -31.5140 C   0  0  0  0  0  0  0  0  0  0  0  0
   -5.8170   19.9030  -31.9780 N   0  0  0  0  0  0  0  0  0  0  0  0
   -4.4860   20.2250  -32.4390 C   0  0  0  0  0  0  0  0  0  0  0  0
   -3.5460   19.3920  -32.3260 O   0  0  0  0  0  0  0  0  0  0  0  0
   -4.2200   21.5310  -33.1250 C   0  0  0  0  0  0  0  0  0  0  0  0
   -5.1150   22.5400  -32.6640 O   0  0  0  0  0  0  0  0  0  0  0  0
   -6.4420   22.2600  -32.3250 C   0  0  0  0  0  0  0  0  0  0  0  0
   -7.3730   23.3030  -32.2850 C   0  0  0  0  0  0  0  0  0  0  0  0
   -8.7080   23.0410  -31.9710 C   0  0  0  0  0  0  0  0  0  0  0  0
   -9.1160   21.7350  -31.6970 C   0  0  0  0  0  0  0  0  0  0  0  0
   -8.1890   20.6890  -31.7200 C   0  0  0  0  0  0  0  0  0  0  0  0
   -6.8310   20.9410  -32.0170 C   0  0  0  0  0  0  0  0  0  0  0  0
   -6.1110   17.4300  -34.7250 C   0  0  0  0  0  0  0  0  0  0  0  0
   -4.6830   17.9500  -34.9470 C   0  0  0  0  0  0  0  0  0  0  0  0
   -2.2631   22.3167  -29.4603 H   0  0  0  0  0  0  0  0  0  0  0  0
   -1.4881   22.7729  -31.0153 H   0  0  0  0  0  0  0  0  0  0  0  0
   -2.9868   21.7828  -31.0153 H   0  0  0  0  0  0  0  0  0  0  0  0
   -0.2254   20.9421  -29.9831 H   0  0  0  0  0  0  0  0  0  0  0  0
   -1.7583   19.9612  -29.8529 H   0  0  0  0  0  0  0  0  0  0  0  0
   -1.7940   19.5290  -32.0270 H   0  0  0  0  0  0  0  0  0  0  0  0
   -1.6261   21.9210  -32.6484 H   0  0  0  0  0  0  0  0  0  0  0  0
    0.1652   21.6260  -32.7188 H   0  0  0  0  0  0  0  0  0  0  0  0
   -1.2236   19.5533  -34.1932 H   0  0  0  0  0  0  0  0  0  0  0  0
   -1.7597   21.1674  -34.7711 H   0  0  0  0  0  0  0  0  0  0  0  0
   -0.0131   20.7480  -34.7711 H   0  0  0  0  0  0  0  0  0  0  0  0
    0.9847   19.6288  -32.5019 H   0  0  0  0  0  0  0  0  0  0  0  0
    0.6921   19.3093  -30.7354 H   0  0  0  0  0  0  0  0  0  0  0  0
    0.5228   17.4733  -32.9521 H   0  0  0  0  0  0  0  0  0  0  0  0
    0.2718   17.1753  -31.1847 H   0  0  0  0  0  0  0  0  0  0  0  0
   -0.6880   16.2941  -33.7113 H   0  0  0  0  0  0  0  0  0  0  0  0
   -2.3011   15.8778  -33.0217 H   0  0  0  0  0  0  0  0  0  0  0  0
   -2.4378   18.5033  -34.2465 H   0  0  0  0  0  0  0  0  0  0  0  0
   -1.7292   17.3311  -35.4197 H   0  0  0  0  0  0  0  0  0  0  0  0
   -4.5449   15.0184  -34.2215 H   0  0  0  0  0  0  0  0  0  0  0  0
   -3.1590   15.5774  -33.1878 H   0  0  0  0  0  0  0  0  0  0  0  0
   -5.2841   15.6923  -31.9496 H   0  0  0  0  0  0  0  0  0  0  0  0
   -4.5817   17.3358  -32.2272 H   0  0  0  0  0  0  0  0  0  0  0  0
   -7.5613   18.5827  -33.1190 H   0  0  0  0  0  0  0  0  0  0  0  0
   -7.8100   17.2642  -31.9161 H   0  0  0  0  0  0  0  0  0  0  0  0
   -6.5854   18.5863  -30.5218 H   0  0  0  0  0  0  0  0  0  0  0  0
   -5.1727   17.9688  -31.4590 H   0  0  0  0  0  0  0  0  0  0  0  0
   -3.1864   21.8436  -32.9157 H   0  0  0  0  0  0  0  0  0  0  0  0
   -4.3695   21.3964  -34.2064 H   0  0  0  0  0  0  0  0  0  0  0  0
   -7.0525   24.3327  -32.5016 H   0  0  0  0  0  0  0  0  0  0  0  0
   -9.4377   23.8636  -31.9396 H   0  0  0  0  0  0  0  0  0  0  0  0
  -10.1705   21.5279  -31.4622 H   0  0  0  0  0  0  0  0  0  0  0  0
   -8.5194   19.6620  -31.5052 H   0  0  0  0  0  0  0  0  0  0  0  0
   -6.3120   16.6266  -35.4490 H   0  0  0  0  0  0  0  0  0  0  0  0
   -6.8029   18.2742  -34.8615 H   0  0  0  0  0  0  0  0  0  0  0  0
   -4.6002   18.3432  -35.9710 H   0  0  0  0  0  0  0  0  0  0  0  0
   -4.4830   18.7406  -34.2087 H   0  0  0  0  0  0  0  0  0  0  0  0
  1  2  1  0
  2  3  1  0
  3  4  1  0
  4  5  1  0
  3  6  1  0
  6  7  1  0
  7  8  1  0
  8  9  1  0
  9 10  1  0
 10 11  1  0
 11 12  1  0
 12 13  1  0
 13 14  1  0
 14 15  1  0
 15 16  1  0
 16 17  1  0
 17 18  1  0
 18 19  2  0
 18 20  1  0
 20 21  1  0
 21 22  1  0
 22 23  2  0
 23 24  1  0
 24 25  2  0
 25 26  1  0
 26 27  2  0
 14 28  1  0
 28 29  1  0
 29 11  1  0
 27 17  1  0
 27 22  1  0
  1 30  1  0
  1 31  1  0
  1 32  1  0
  2 33  1  0
  2 34  1  0
  3 35  1  0
  4 36  1  0
  4 37  1  0
  5 38  1  0
  5 39  1  0
  5 40  1  0
  6 41  1  0
  6 42  1  0
  7 43  1  0
  7 44  1  0
  9 45  1  0
  9 46  1  0
 10 47  1  0
 10 48  1  0
 12 49  1  0
 12 50  1  0
 13 51  1  0
 13 52  1  0
 15 53  1  0
 15 54  1  0
 16 55  1  0
 16 56  1  0
 20 57  1  0
 20 58  1  0
 23 59  1  0
 24 60  1  0
 25 61  1  0
 26 62  1  0
 28 63  1  0
 28 64  1  0
 29 65  1  0
 29 66  1  0
M  CHG  1   3   1
M  END
>  <UniqueID>  (45) 
45

>  <SMILES>  (45) 
CC[NH+](CC)CCOCCN1CCN(CCN2C(=O)COc3ccccc32)CC1

>  <Energy>  (45) 
87.53184980062248

>  <Genealogy>  (45) 
CC[NH+](CC)CCOCCN1CCN(CCN2C(=O)COc3ccccc32)CC1 (protonated)
CC[NH+](CC)CCOCCN1CCN(CCN2C(=O)COc3ccccc32)CC1 (3D coordinates assigned)
CC[NH+](CC)CCOCCN1CCN(CCN2C(=O)COc3ccccc32)CC1 (nonaromatic ring conformer: 87.53184980062248 kcal/mol)

>  <smiles>  (45) 
CCN(CC)CCOCCN1CCN(CCN2C(=O)COc3ccccc32)CC1

>  <score_type>  (45) 
oracle

>  <origin>  (45) 
adg

>  <m_score__min__energy>  (45) 
-8.2799999999999994

>  <m_primary>  (45) 
energy

$$$$
45:0
     RDKit          3D

 54 57  0  0  0  0  0  0  0  0999 V2000
   -0.6620   28.8820  -25.4430 C   0  0  0  0  0  0  0  0  0  0  0  0
   -0.3880   27.6510  -26.1040 O   0  0  0  0  0  0  0  0  0  0  0  0
   -1.0190   26.4510  -25.7530 C   0  0  0  0  0  0  0  0  0  0  0  0
   -1.6610   26.3580  -24.6710 O   0  0  0  0  0  0  0  0  0  0  0  0
   -0.9740   25.2920  -26.7120 C   0  0  2  0  0  0  0  0  0  0  0  0
   -1.5460   25.6100  -28.0600 C   0  0  0  0  0  0  0  0  0  0  0  0
   -1.2350   26.4040  -28.9880 O   0  0  0  0  0  0  0  0  0  0  0  0
   -2.5820   24.5610  -27.8670 N   0  0  0  0  0  0  0  0  0  0  0  0
   -3.2010   23.5780  -28.7480 C   0  0  1  0  0  0  0  0  0  0  0  0
   -3.8110   24.2110  -29.9730 C   0  0  0  0  0  0  0  0  0  0  0  0
   -3.3680   25.2940  -30.4410 O   0  0  0  0  0  0  0  0  0  0  0  0
   -4.8920   23.5950  -30.5930 O   0  0  0  0  0  0  0  0  0  0  0  0
   -2.1480   22.5290  -29.0400 C   0  0  0  0  0  0  0  0  0  0  0  0
   -1.9770   21.9500  -30.3850 C   0  0  0  0  0  0  0  0  0  0  0  0
   -0.8260   21.9500  -31.0350 O   0  0  0  0  0  0  0  0  0  0  0  0
   -1.0340   21.4120  -32.2150 C   0  0  0  0  0  0  0  0  0  0  0  0
   -0.1080   21.2350  -33.2420 C   0  0  0  0  0  0  0  0  0  0  0  0
   -0.5650   20.6760  -34.4500 C   0  0  0  0  0  0  0  0  0  0  0  0
   -1.9230   20.3150  -34.6050 C   0  0  0  0  0  0  0  0  0  0  0  0
   -2.8350   20.4990  -33.5490 C   0  0  0  0  0  0  0  0  0  0  0  0
   -2.3490   21.0450  -32.3610 C   0  0  0  0  0  0  0  0  0  0  0  0
   -2.9740   21.3780  -31.1770 C   0  0  0  0  0  0  0  0  0  0  0  0
   -4.3890   21.3740  -30.9190 N   0  0  0  0  0  0  0  0  0  0  0  0
   -4.9850   20.1110  -31.3810 C   0  0  0  0  0  0  0  0  0  0  0  0
   -6.4250   20.3320  -31.8790 C   0  0  0  0  0  0  0  0  0  0  0  0
   -6.9740   21.6160  -31.3800 N   0  0  0  0  0  0  0  0  0  0  0  0
   -6.9330   22.6260  -32.4510 C   0  0  0  0  0  0  0  0  0  0  0  0
   -8.3660   21.4530  -30.9110 C   0  0  0  0  0  0  0  0  0  0  0  0
   -1.3170   22.1320  -28.0600 C   0  0  0  0  0  0  0  0  0  0  0  0
   -1.5280   22.6010  -26.3170 S   0  0  0  0  0  0  0  0  0  0  0  0
   -2.0550   24.3510  -26.5390 C   0  0  1  0  0  0  0  0  0  0  0  0
   -0.6280   28.7290  -24.3542 H   0  0  0  0  0  0  0  0  0  0  0  0
    0.0918   29.6291  -25.7321 H   0  0  0  0  0  0  0  0  0  0  0  0
   -1.6616   29.2388  -25.7321 H   0  0  0  0  0  0  0  0  0  0  0  0
    0.0766   24.9928  -26.5830 H   0  0  0  0  0  0  0  0  0  0  0  0
   -4.0627   23.0942  -28.2649 H   0  0  0  0  0  0  0  0  0  0  0  0
    0.9457   21.5229  -33.1123 H   0  0  0  0  0  0  0  0  0  0  0  0
    0.1398   20.5188  -35.2798 H   0  0  0  0  0  0  0  0  0  0  0  0
   -2.2692   19.8874  -35.5575 H   0  0  0  0  0  0  0  0  0  0  0  0
   -3.8941   20.2219  -33.6567 H   0  0  0  0  0  0  0  0  0  0  0  0
   -4.5510   21.4880  -29.8920 H   0  0  0  0  0  0  0  0  0  0  0  0
   -4.8330   22.1760  -31.4200 H   0  0  0  0  0  0  0  0  0  0  0  0
   -4.3776   19.7061  -32.2039 H   0  0  0  0  0  0  0  0  0  0  0  0
   -5.0095   19.4051  -30.5377 H   0  0  0  0  0  0  0  0  0  0  0  0
   -6.4263   20.3446  -32.9789 H   0  0  0  0  0  0  0  0  0  0  0  0
   -7.0542   19.5133  -31.4997 H   0  0  0  0  0  0  0  0  0  0  0  0
   -6.8922   23.6311  -32.0058 H   0  0  0  0  0  0  0  0  0  0  0  0
   -6.0407   22.4642  -33.0736 H   0  0  0  0  0  0  0  0  0  0  0  0
   -7.8355   22.5371  -33.0736 H   0  0  0  0  0  0  0  0  0  0  0  0
   -8.3845   21.4508  -29.8112 H   0  0  0  0  0  0  0  0  0  0  0  0
   -8.9793   22.2855  -31.2864 H   0  0  0  0  0  0  0  0  0  0  0  0
   -8.7703   20.5014  -31.2864 H   0  0  0  0  0  0  0  0  0  0  0  0
   -0.4649   21.4898  -28.3275 H   0  0  0  0  0  0  0  0  0  0  0  0
   -2.6974   24.4979  -25.6582 H   0  0  0  0  0  0  0  0  0  0  0  0
  1  2  1  0
  2  3  1  0
  3  4  2  0
  3  5  1  0
  5  6  1  0
  6  7  2  0
  6  8  1  0
  8  9  1  0
  9 10  1  0
 10 11  2  0
 10 12  1  0
  9 13  1  0
 13 14  1  0
 14 15  1  0
 15 16  1  0
 16 17  2  0
 17 18  1  0
 18 19  2  0
 19 20  1  0
 20 21  2  0
 21 22  1  0
 22 23  1  0
 23 24  1  0
 24 25  1  0
 25 26  1  0
 26 27  1  0
 26 28  1  0
 13 29  2  0
 29 30  1  0
 30 31  1  0
 31  5  1  0
 31  8  1  0
 22 14  2  0
 21 16  1  0
  1 32  1  0
  1 33  1  0
  1 34  1  0
  5 35  1  6
  9 36  1  1
 17 37  1  0
 18 38  1  0
 19 39  1  0
 20 40  1  0
 23 41  1  0
 23 42  1  0
 24 43  1  0
 24 44  1  0
 25 45  1  0
 25 46  1  0
 27 47  1  0
 27 48  1  0
 27 49  1  0
 28 50  1  0
 28 51  1  0
 28 52  1  0
 29 53  1  0
 31 54  1  1
M  CHG  2  12  -1  23   1
M  END
>  <UniqueID>  (46) 
46

>  <SMILES>  (46) 
COC(=O)[C@@H]1C(=O)N2C1SC=C(c1oc3ccccc3c1[NH2+]CCN(C)C)[C@@H]2C(=O)[O-]

>  <Energy>  (46) 
142.3882856014954

>  <Genealogy>  (46) 
COC(=O)C1C(=O)N2C(C(=O)[O-])C(c3oc4ccccc4c3[NH2+]CCN(C)C)=CSC12 (protonated)
COC(=O)[C@@H]1C(=O)N2C1SC=C(c1oc3ccccc3c1[NH2+]CCN(C)C)[C@@H]2C(=O)[O-] (chirality)
COC(=O)[C@@H]1C(=O)N2C1SC=C(c1oc3ccccc3c1[NH2+]CCN(C)C)[C@@H]2C(=O)[O-] (3D coordinates assigned)
COC(=O)[C@@H]1C(=O)N2C1SC=C(c1oc3ccccc3c1[NH2+]CCN(C)C)[C@@H]2C(=O)[O-] (nonaromatic ring conformer: 142.3882856014954 kcal/mol)

>  <smiles>  (46) 
COC(=O)C1C(=O)N2C(C(=O)O)C(c3oc4ccccc4c3NCCN(C)C)=CSC12

>  <score_type>  (46) 
oracle

>  <origin>  (46) 
adg

>  <m_score__min__energy>  (46) 
-8.6699999999999999

>  <m_primary>  (46) 
energy

$$$$
46:0
     RDKit          3D

 50 53  0  0  0  0  0  0  0  0999 V2000
   -4.0350   21.4810  -30.8330 C   0  0  0  0  0  0  0  0  0  0  0  0
   -4.8930   22.2270  -31.8520 C   0  0  0  0  0  0  0  0  0  0  0  0
   -6.3160   22.1090  -31.5210 N   0  0  0  0  0  0  0  0  0  0  0  0
   -7.1350   23.0800  -31.0620 C   0  0  0  0  0  0  0  0  0  0  0  0
   -6.6350   24.7690  -30.7180 S   0  0  0  0  0  0  0  0  0  0  0  0
   -5.3280   24.3380  -29.5110 C   0  0  0  0  0  0  0  0  0  0  0  0
   -3.9640   24.8150  -29.9320 C   0  0  0  0  0  0  0  0  0  0  0  0
   -3.8720   25.6700  -30.8510 O   0  0  0  0  0  0  0  0  0  0  0  0
   -2.7710   24.4130  -29.2460 N   0  0  0  0  0  0  0  0  0  0  0  0
   -2.2510   24.9950  -28.0440 C   0  0  0  0  0  0  0  0  0  0  0  0
   -1.0270   25.6730  -28.0890 C   0  0  0  0  0  0  0  0  0  0  0  0
   -0.4850   26.2280  -26.9260 C   0  0  0  0  0  0  0  0  0  0  0  0
   -1.1580   26.1000  -25.7010 C   0  0  0  0  0  0  0  0  0  0  0  0
   -0.5580   26.6580  -24.4460 C   0  0  0  0  0  0  0  0  0  0  0  0
   -2.3580   25.3740  -25.6480 C   0  0  0  0  0  0  0  0  0  0  0  0
   -2.8990   24.8220  -26.8130 C   0  0  0  0  0  0  0  0  0  0  0  0
   -8.3970   22.6400  -30.9160 N   0  0  0  0  0  0  0  0  0  0  0  0
   -8.4080   21.3710  -31.2970 N   0  0  0  0  0  0  0  0  0  0  0  0
   -7.1490   21.0500  -31.6560 C   0  0  0  0  0  0  0  0  0  0  0  0
   -6.7910   19.7220  -32.1980 C   0  0  0  0  0  0  0  0  0  0  0  0
   -7.5870   18.5940  -31.9430 C   0  0  0  0  0  0  0  0  0  0  0  0
   -7.2470   17.3480  -32.4780 C   0  0  0  0  0  0  0  0  0  0  0  0
   -6.1130   17.2160  -33.2890 C   0  0  0  0  0  0  0  0  0  0  0  0
   -5.7620   15.9680  -33.8300 C   0  0  0  0  0  0  0  0  0  0  0  0
   -4.6310   15.8500  -34.6430 C   0  0  0  0  0  0  0  0  0  0  0  0
   -3.8450   16.9710  -34.9220 C   0  0  0  0  0  0  0  0  0  0  0  0
   -4.1840   18.2190  -34.3890 C   0  0  0  0  0  0  0  0  0  0  0  0
   -5.3170   18.3510  -33.5710 C   0  0  0  0  0  0  0  0  0  0  0  0
   -5.6670   19.5970  -33.0300 C   0  0  0  0  0  0  0  0  0  0  0  0
   -4.3513   21.7560  -29.8160 H   0  0  0  0  0  0  0  0  0  0  0  0
   -4.1571   20.3970  -30.9744 H   0  0  0  0  0  0  0  0  0  0  0  0
   -2.9785   21.7525  -30.9744 H   0  0  0  0  0  0  0  0  0  0  0  0
   -4.6099   23.2899  -31.8524 H   0  0  0  0  0  0  0  0  0  0  0  0
   -4.7245   21.7852  -32.8452 H   0  0  0  0  0  0  0  0  0  0  0  0
   -5.5778   24.7979  -28.5435 H   0  0  0  0  0  0  0  0  0  0  0  0
   -5.2886   23.2408  -29.4437 H   0  0  0  0  0  0  0  0  0  0  0  0
   -0.4893   25.7695  -29.0438 H   0  0  0  0  0  0  0  0  0  0  0  0
    0.4727   26.7672  -26.9711 H   0  0  0  0  0  0  0  0  0  0  0  0
   -1.0471   26.2031  -23.5720 H   0  0  0  0  0  0  0  0  0  0  0  0
    0.5184   26.4325  -24.4225 H   0  0  0  0  0  0  0  0  0  0  0  0
   -0.7049   27.7479  -24.4225 H   0  0  0  0  0  0  0  0  0  0  0  0
   -2.8747   25.2388  -24.6864 H   0  0  0  0  0  0  0  0  0  0  0  0
   -3.8370   24.2496  -26.7635 H   0  0  0  0  0  0  0  0  0  0  0  0
   -8.4861   18.6915  -31.3168 H   0  0  0  0  0  0  0  0  0  0  0  0
   -7.8718   16.4690  -32.2614 H   0  0  0  0  0  0  0  0  0  0  0  0
   -6.3778   15.0826  -33.6136 H   0  0  0  0  0  0  0  0  0  0  0  0
   -4.3588   14.8711  -35.0646 H   0  0  0  0  0  0  0  0  0  0  0  0
   -2.9566   16.8717  -35.5630 H   0  0  0  0  0  0  0  0  0  0  0  0
   -3.5617   19.0984  -34.6112 H   0  0  0  0  0  0  0  0  0  0  0  0
   -5.0563   20.4827  -33.2593 H   0  0  0  0  0  0  0  0  0  0  0  0
  1  2  1  0
  2  3  1  0
  3  4  1  0
  4  5  1  0
  5  6  1  0
  6  7  1  0
  7  8  2  0
  7  9  1  0
  9 10  1  0
 10 11  2  0
 11 12  1  0
 12 13  2  0
 13 14  1  0
 13 15  1  0
 15 16  2  0
  4 17  2  0
 17 18  1  0
 18 19  2  0
 19 20  1  0
 20 21  2  0
 21 22  1  0
 22 23  2  0
 23 24  1  0
 24 25  2  0
 25 26  1  0
 26 27  2  0
 27 28  1  0
 28 29  2  0
 19  3  1  0
 29 20  1  0
 16 10  1  0
 28 23  1  0
  1 30  1  0
  1 31  1  0
  1 32  1  0
  2 33  1  0
  2 34  1  0
  6 35  1  0
  6 36  1  0
 11 37  1  0
 12 38  1  0
 14 39  1  0
 14 40  1  0
 14 41  1  0
 15 42  1  0
 16 43  1  0
 21 44  1  0
 22 45  1  0
 24 46  1  0
 25 47  1  0
 26 48  1  0
 27 49  1  0
 29 50  1  0
M  CHG  1   9  -1
M  END
>  <UniqueID>  (47) 
47

>  <SMILES>  (47) 
CCn1c(SCC(=O)[N-]c2ccc(C)cc2)nnc1-c1ccc2ccccc2c1

>  <Energy>  (47) 
95.03742815242396

>  <Genealogy>  (47) 
CCn1c(SCC(=O)[N-]c2ccc(C)cc2)nnc1-c1ccc2ccccc2c1 (protonated)
CCn1c(SCC(=O)[N-]c2ccc(C)cc2)nnc1-c1ccc2ccccc2c1 (3D coordinates assigned)
CCn1c(SCC(=O)[N-]c2ccc(C)cc2)nnc1-c1ccc2ccccc2c1 (optimized conformer: 95.03742815242396 kcal/mol)

>  <smiles>  (47) 
CCn1c(SCC(=O)Nc2ccc(C)cc2)nnc1-c1ccc2ccccc2c1

>  <score_type>  (47) 
oracle

>  <origin>  (47) 
adg

>  <m_score__min__energy>  (47) 
-11.48

>  <m_primary>  (47) 
energy

$$$$
47:0
     RDKit          3D

 24 24  0  0  0  0  0  0  0  0999 V2000
   -6.2280   24.5000  -30.8990 C   0  0  0  0  0  0  0  0  0  0  0  0
   -5.2940   25.7050  -30.8460 C   0  0  0  0  0  0  0  0  0  0  0  0
   -3.9470   25.2930  -30.4690 N   0  0  0  0  0  0  0  0  0  0  0  0
   -3.6620   24.4270  -29.3660 C   0  0  0  0  0  0  0  0  0  0  0  0
   -4.4640   24.3390  -28.3980 O   0  0  0  0  0  0  0  0  0  0  0  0
   -2.4290   23.5810  -29.3900 C   0  0  0  0  0  0  0  0  0  0  0  0
   -1.4770   24.0200  -28.3090 C   0  0  0  0  0  0  0  0  0  0  0  0
   -1.1820   23.1510  -27.2450 C   0  0  0  0  0  0  0  0  0  0  0  0
   -0.3240   23.5560  -26.2190 C   0  0  0  0  0  0  0  0  0  0  0  0
    0.2390   24.8340  -26.2400 C   0  0  0  0  0  0  0  0  0  0  0  0
   -0.0590   25.7120  -27.2860 C   0  0  0  0  0  0  0  0  0  0  0  0
   -0.9170   25.3130  -28.3160 C   0  0  0  0  0  0  0  0  0  0  0  0
   -1.2100   26.2070  -29.3420 O   0  0  0  0  0  0  0  0  0  0  0  0
   -6.4746   24.1819  -29.8753 H   0  0  0  0  0  0  0  0  0  0  0  0
   -7.1513   24.7748  -31.4300 H   0  0  0  0  0  0  0  0  0  0  0  0
   -5.7316   23.6744  -31.4300 H   0  0  0  0  0  0  0  0  0  0  0  0
   -5.2624   26.1819  -31.8367 H   0  0  0  0  0  0  0  0  0  0  0  0
   -5.6717   26.4141  -30.0947 H   0  0  0  0  0  0  0  0  0  0  0  0
   -2.7064   22.5294  -29.2250 H   0  0  0  0  0  0  0  0  0  0  0  0
   -1.9373   23.6903  -30.3679 H   0  0  0  0  0  0  0  0  0  0  0  0
   -1.6290   22.1462  -27.2195 H   0  0  0  0  0  0  0  0  0  0  0  0
   -0.0917   22.8671  -25.3935 H   0  0  0  0  0  0  0  0  0  0  0  0
    0.9170   25.1496  -25.4333 H   0  0  0  0  0  0  0  0  0  0  0  0
    0.3825   26.7194  -27.2991 H   0  0  0  0  0  0  0  0  0  0  0  0
  1  2  1  0
  2  3  1  0
  3  4  1  0
  4  5  2  0
  4  6  1  0
  6  7  1  0
  7  8  2  0
  8  9  1  0
  9 10  2  0
 10 11  1  0
 11 12  2  0
 12 13  1  0
 12  7  1  0
  1 14  1  0
  1 15  1  0
  1 16  1  0
  2 17  1  0
  2 18  1  0
  6 19  1  0
  6 20  1  0
  8 21  1  0
  9 22  1  0
 10 23  1  0
 11 24  1  0
M  CHG  2   3  -1  13  -1
M  END
>  <UniqueID>  (48) 
48

>  <SMILES>  (48) 
CC[N-]C(=O)Cc1ccccc1[O-]

>  <Energy>  (48) 
16.341782474228104

>  <Genealogy>  (48) 
CC[N-]C(=O)Cc1ccccc1[O-] (protonated)
CC[N-]C(=O)Cc1ccccc1[O-] (3D coordinates assigned)
CC[N-]C(=O)Cc1ccccc1[O-] (optimized conformer: 16.341782474228104 kcal/mol)

>  <smiles>  (48) 
CCNC(=O)Cc1ccccc1O

>  <score_type>  (48) 
oracle

>  <origin>  (48) 
adg

>  <m_score__min__energy>  (48) 
-9.6099999999999994

>  <m_primary>  (48) 
energy

$$$$
48:0
     RDKit          3D

 45 47  0  0  0  0  0  0  0  0999 V2000
    0.0158   24.0629  -27.5143 H   0  0  0  0  0  0  0  0  0  0  0  0
   -0.7370   23.7650  -28.2590 C   0  0  0  0  0  0  0  0  0  0  0  0
   -1.6710   24.5890  -28.7910 N   0  0  0  0  0  0  0  0  0  0  0  0
   -2.3540   23.7930  -29.6410 C   0  0  0  0  0  0  0  0  0  0  0  0
   -3.4480   24.1420  -30.4550 C   0  0  0  0  0  0  0  0  0  0  0  0
   -3.9760   25.3330  -30.5010 N   0  0  0  0  0  0  0  0  0  0  0  0
   -5.3680   25.6810  -30.7840 C   0  0  0  0  0  0  0  0  0  0  0  0
   -5.6511   25.2793  -31.7681 H   0  0  0  0  0  0  0  0  0  0  0  0
   -5.4738   26.7759  -30.7835 H   0  0  0  0  0  0  0  0  0  0  0  0
   -6.2830   25.0880  -29.7130 C   0  0  0  0  0  0  0  0  0  0  0  0
   -7.1255   25.7740  -29.5407 H   0  0  0  0  0  0  0  0  0  0  0  0
   -5.6986   24.9529  -28.7909 H   0  0  0  0  0  0  0  0  0  0  0  0
   -6.8170   23.7550  -30.1360 C   0  0  0  0  0  0  0  0  0  0  0  0
   -6.4580   22.7120  -29.5250 O   0  0  0  0  0  0  0  0  0  0  0  0
   -7.6750   23.6770  -31.2380 O   0  0  0  0  0  0  0  0  0  0  0  0
   -7.2070   23.4320  -32.5580 C   0  0  0  0  0  0  0  0  0  0  0  0
   -6.2333   22.9222  -32.5131 H   0  0  0  0  0  0  0  0  0  0  0  0
   -7.9294   22.7964  -33.0911 H   0  0  0  0  0  0  0  0  0  0  0  0
   -7.0963   24.3878  -33.0911 H   0  0  0  0  0  0  0  0  0  0  0  0
   -3.9820   23.1600  -31.2360 N   0  0  0  0  0  0  0  0  0  0  0  0
   -3.5030   21.8760  -31.2560 C   0  0  0  0  0  0  0  0  0  0  0  0
   -4.1560   20.8680  -32.1300 C   0  0  0  0  0  0  0  0  0  0  0  0
   -3.4170   20.1240  -33.0660 C   0  0  0  0  0  0  0  0  0  0  0  0
   -2.3323   20.2837  -33.1556 H   0  0  0  0  0  0  0  0  0  0  0  0
   -4.0480   19.1840  -33.8830 C   0  0  0  0  0  0  0  0  0  0  0  0
   -3.4560   18.6050  -34.6071 H   0  0  0  0  0  0  0  0  0  0  0  0
   -5.4350   18.9720  -33.7870 C   0  0  0  0  0  0  0  0  0  0  0  0
   -6.1020   18.0330  -34.5900 O   0  0  0  0  0  0  0  0  0  0  0  0
   -6.4710   16.7250  -34.1670 C   0  0  0  0  0  0  0  0  0  0  0  0
   -6.4824   16.6847  -33.0678 H   0  0  0  0  0  0  0  0  0  0  0  0
   -7.4723   16.4836  -34.5531 H   0  0  0  0  0  0  0  0  0  0  0  0
   -5.7435   15.9959  -34.5531 H   0  0  0  0  0  0  0  0  0  0  0  0
   -6.1860   19.7150  -32.8660 C   0  0  0  0  0  0  0  0  0  0  0  0
   -7.5700   19.4860  -32.7960 O   0  0  0  0  0  0  0  0  0  0  0  0
   -8.4560   20.1550  -31.9040 C   0  0  0  0  0  0  0  0  0  0  0  0
   -8.1657   19.9358  -30.8659 H   0  0  0  0  0  0  0  0  0  0  0  0
   -8.4021   21.2397  -32.0786 H   0  0  0  0  0  0  0  0  0  0  0  0
   -9.4845   19.8062  -32.0786 H   0  0  0  0  0  0  0  0  0  0  0  0
   -5.5440   20.6620  -32.0450 C   0  0  0  0  0  0  0  0  0  0  0  0
   -6.1366   21.2485  -31.3275 H   0  0  0  0  0  0  0  0  0  0  0  0
   -2.4130   21.5510  -30.4250 C   0  0  0  0  0  0  0  0  0  0  0  0
   -2.0009   20.5314  -30.4014 H   0  0  0  0  0  0  0  0  0  0  0  0
   -1.8890   22.5350  -29.6560 N   0  0  0  0  0  0  0  0  0  0  0  0
   -0.8680   22.4940  -28.7890 C   0  0  0  0  0  0  0  0  0  0  0  0
   -0.2513   21.6164  -28.5451 H   0  0  0  0  0  0  0  0  0  0  0  0
  1  2  1  0
  2  3  1  0
  3  4  2  0
  4  5  1  0
  5  6  2  0
  6  7  1  0
  7  8  1  0
  7  9  1  0
  7 10  1  0
 10 11  1  0
 10 12  1  0
 10 13  1  0
 13 14  2  0
 13 15  1  0
 15 16  1  0
 16 17  1  0
 16 18  1  0
 16 19  1  0
  5 20  1  0
 20 21  1  0
 21 22  1  0
 22 23  2  0
 23 24  1  0
 23 25  1  0
 25 26  1  0
 25 27  2  0
 27 28  1  0
 28 29  1  0
 29 30  1  0
 29 31  1  0
 29 32  1  0
 27 33  1  0
 33 34  1  0
 34 35  1  0
 35 36  1  0
 35 37  1  0
 35 38  1  0
 33 39  2  0
 39 40  1  0
 21 41  2  0
 41 42  1  0
 41 43  1  0
 43 44  1  0
 44 45  1  0
 44  2  2  0
 43  4  1  0
 39 22  1  0
M  CHG  1  20  -1
M  END
>  <UniqueID>  (49) 
49

>  <SMILES>  (49) 
COC(=O)CC/N=c1/[n-]c(-c2ccc(OC)c(OC)c2)cn2ccnc12

>  <Energy>  (49) 
82.6518391280217

>  <Genealogy>  (49) 
COC(=O)CCN=c1[n-]c(-c2ccc(OC)c(OC)c2)cn2ccnc12 (protonated)
COC(=O)CC/N=c1/[n-]c(-c2ccc(OC)c(OC)c2)cn2ccnc12 (cis-trans isomerization)
COC(=O)CC/N=c1/[n-]c(-c2ccc(OC)c(OC)c2)cn2ccnc12 (3D coordinates assigned)
COC(=O)CC/N=c1/[n-]c(-c2ccc(OC)c(OC)c2)cn2ccnc12 (optimized conformer: 82.6518391280217 kcal/mol)

>  <smiles>  (49) 
COC(=O)CCN=c1[nH]c(-c2ccc(OC)c(OC)c2)cn2ccnc12

>  <score_type>  (49) 
oracle

>  <origin>  (49) 
adg

>  <m_score__min__energy>  (49) 
-8.1999999999999993

>  <m_primary>  (49) 
energy

$$$$
