0:0
     RDKit          3D

 52 54  0  0  0  0  0  0  0  0999 V2000
   -0.8470   26.5710  -23.7630 C   0  0  0  0  0  0  0  0  0  0  0  0
   -1.4430   26.9540  -25.1230 C   0  0  0  0  0  0  0  0  0  0  0  0
   -1.6440   25.7750  -25.9990 N   0  0  0  0  0  0  0  0  0  0  0  0
   -1.1920   24.5180  -25.3390 C   0  0  0  0  0  0  0  0  0  0  0  0
   -0.6470   23.4620  -26.3270 C   0  0  0  0  0  0  0  0  0  0  0  0
   -1.3390   23.5020  -27.6290 N   0  0  0  0  0  0  0  0  0  0  0  0
   -2.7180   22.9770  -27.5410 C   0  0  0  0  0  0  0  0  0  0  0  0
   -3.7160   24.0420  -27.9170 C   0  0  0  0  0  0  0  0  0  0  0  0
   -4.0190   24.9250  -27.0690 O   0  0  0  0  0  0  0  0  0  0  0  0
   -4.3280   24.0690  -29.2200 N   0  0  0  0  0  0  0  0  0  0  0  0
   -5.7120   24.5540  -29.3410 C   0  0  0  0  0  0  0  0  0  0  0  0
   -6.2510   24.3570  -30.7630 C   0  0  0  0  0  0  0  0  0  0  0  0
   -5.8540   23.0350  -31.2660 N   0  0  0  0  0  0  0  0  0  0  0  0
   -6.8430   22.1020  -31.7440 C   0  0  0  0  0  0  0  0  0  0  0  0
   -8.2040   22.2920  -31.4480 C   0  0  0  0  0  0  0  0  0  0  0  0
   -9.1600   21.3770  -31.9010 C   0  0  0  0  0  0  0  0  0  0  0  0
   -8.7670   20.2650  -32.6480 C   0  0  0  0  0  0  0  0  0  0  0  0
   -7.4150   20.0640  -32.9420 C   0  0  0  0  0  0  0  0  0  0  0  0
   -6.4560   20.9750  -32.4900 C   0  0  0  0  0  0  0  0  0  0  0  0
   -4.4410   22.6270  -31.2030 C   0  0  0  0  0  0  0  0  0  0  0  0
   -3.6000   23.6450  -30.4250 C   0  0  0  0  0  0  0  0  0  0  0  0
   -1.2650   24.8390  -28.2720 C   0  0  0  0  0  0  0  0  0  0  0  0
   -0.9520   25.9840  -27.2860 C   0  0  0  0  0  0  0  0  0  0  0  0
   -1.4783   26.9767  -22.9587 H   0  0  0  0  0  0  0  0  0  0  0  0
   -0.8032   25.4752  -23.6774 H   0  0  0  0  0  0  0  0  0  0  0  0
    0.1680   26.9864  -23.6774 H   0  0  0  0  0  0  0  0  0  0  0  0
   -2.4146   27.4430  -24.9588 H   0  0  0  0  0  0  0  0  0  0  0  0
   -0.7340   27.6296  -25.6239 H   0  0  0  0  0  0  0  0  0  0  0  0
   -2.6690   25.7050  -26.2010 H   0  0  0  0  0  0  0  0  0  0  0  0
   -0.3953   24.7682  -24.6230 H   0  0  0  0  0  0  0  0  0  0  0  0
   -2.0721   24.0768  -24.8483 H   0  0  0  0  0  0  0  0  0  0  0  0
    0.4244   23.6503  -26.4902 H   0  0  0  0  0  0  0  0  0  0  0  0
   -0.8184   22.4691  -25.8858 H   0  0  0  0  0  0  0  0  0  0  0  0
   -2.8244   22.1236  -28.2268 H   0  0  0  0  0  0  0  0  0  0  0  0
   -2.9112   22.6595  -26.5057 H   0  0  0  0  0  0  0  0  0  0  0  0
   -6.3488   23.9987  -28.6366 H   0  0  0  0  0  0  0  0  0  0  0  0
   -5.7233   25.6299  -29.1122 H   0  0  0  0  0  0  0  0  0  0  0  0
   -7.3486   24.4288  -30.7509 H   0  0  0  0  0  0  0  0  0  0  0  0
   -5.8363   25.1356  -31.4201 H   0  0  0  0  0  0  0  0  0  0  0  0
   -8.5188   23.1648  -30.8571 H   0  0  0  0  0  0  0  0  0  0  0  0
  -10.2236   21.5339  -31.6682 H   0  0  0  0  0  0  0  0  0  0  0  0
   -9.5205   19.5475  -33.0050 H   0  0  0  0  0  0  0  0  0  0  0  0
   -7.1054   19.1874  -33.5300 H   0  0  0  0  0  0  0  0  0  0  0  0
   -5.3930   20.8092  -32.7192 H   0  0  0  0  0  0  0  0  0  0  0  0
   -4.3725   21.6495  -30.7032 H   0  0  0  0  0  0  0  0  0  0  0  0
   -4.0512   22.5681  -32.2299 H   0  0  0  0  0  0  0  0  0  0  0  0
   -2.6453   23.1836  -30.1324 H   0  0  0  0  0  0  0  0  0  0  0  0
   -3.4062   24.5209  -31.0615 H   0  0  0  0  0  0  0  0  0  0  0  0
   -0.4749   24.8134  -29.0369 H   0  0  0  0  0  0  0  0  0  0  0  0
   -2.2568   25.0454  -28.7006 H   0  0  0  0  0  0  0  0  0  0  0  0
    0.1331   26.0208  -27.1096 H   0  0  0  0  0  0  0  0  0  0  0  0
   -1.3025   26.9303  -27.7238 H   0  0  0  0  0  0  0  0  0  0  0  0
  1  2  1  0
  2  3  1  0
  3  4  1  0
  4  5  1  0
  5  6  1  0
  6  7  1  0
  7  8  1  0
  8  9  2  0
  8 10  1  0
 10 11  1  0
 11 12  1  0
 12 13  1  0
 13 14  1  0
 14 15  2  0
 15 16  1  0
 16 17  2  0
 17 18  1  0
 18 19  2  0
 13 20  1  0
 20 21  1  0
  6 22  1  0
 22 23  1  0
 23  3  1  0
 21 10  1  0
 19 14  1  0
  1 24  1  0
  1 25  1  0
  1 26  1  0
  2 27  1  0
  2 28  1  0
  3 29  1  0
  4 30  1  0
  4 31  1  0
  5 32  1  0
  5 33  1  0
  7 34  1  0
  7 35  1  0
 11 36  1  0
 11 37  1  0
 12 38  1  0
 12 39  1  0
 15 40  1  0
 16 41  1  0
 17 42  1  0
 18 43  1  0
 19 44  1  0
 20 45  1  0
 20 46  1  0
 21 47  1  0
 21 48  1  0
 22 49  1  0
 22 50  1  0
 23 51  1  0
 23 52  1  0
M  CHG  1   3   1
M  END
>  <UniqueID>  (1) 
1

>  <SMILES>  (1) 
CC[NH+]1CCN(CC(=O)N2CCN(c3ccccc3)CC2)CC1

>  <Energy>  (1) 
69.40410581326596

>  <Genealogy>  (1) 
CC[NH+]1CCN(CC(=O)N2CCN(c3ccccc3)CC2)CC1 (protonated)
CC[NH+]1CCN(CC(=O)N2CCN(c3ccccc3)CC2)CC1 (3D coordinates assigned)
CC[NH+]1CCN(CC(=O)N2CCN(c3ccccc3)CC2)CC1 (nonaromatic ring conformer: 69.40410581326596 kcal/mol)

>  <smiles>  (1) 
CCN1CCN(CC(=O)N2CCN(c3ccccc3)CC2)CC1

>  <score_type>  (1) 
oracle

>  <origin>  (1) 
adg

>  <m_score__min__energy>  (1) 
-7.5

>  <m_primary>  (1) 
energy

$$$$
1:0
     RDKit          3D

 63 65  0  0  0  0  0  0  0  0999 V2000
   -6.1380   25.3820  -30.0560 C   0  0  0  0  0  0  0  0  0  0  0  0
   -6.5040   24.3460  -31.1280 C   0  0  0  0  0  0  0  0  0  0  0  0
   -6.3640   22.9380  -30.6850 N   0  0  0  0  0  0  0  0  0  0  0  0
   -7.6110   22.3400  -30.1580 C   0  0  0  0  0  0  0  0  0  0  0  0
   -8.6050   22.0470  -31.2810 C   0  0  0  0  0  0  0  0  0  0  0  0
   -5.7180   22.0810  -31.7040 C   0  0  0  0  0  0  0  0  0  0  0  0
   -4.3650   22.6690  -32.1490 C   0  0  0  0  0  0  0  0  0  0  0  0
   -3.6930   23.4390  -31.0880 N   0  0  0  0  0  0  0  0  0  0  0  0
   -2.6480   22.6660  -30.3970 C   0  0  0  0  0  0  0  0  0  0  0  0
   -3.1270   22.2600  -28.9840 C   0  0  1  0  0  0  0  0  0  0  0  0
   -2.3720   21.0340  -28.5010 C   0  0  0  0  0  0  0  0  0  0  0  0
   -1.3020   20.5210  -29.2540 C   0  0  0  0  0  0  0  0  0  0  0  0
   -0.5880   19.4080  -28.8030 C   0  0  0  0  0  0  0  0  0  0  0  0
   -0.9190   18.7920  -27.5910 C   0  0  0  0  0  0  0  0  0  0  0  0
   -0.1730   17.6750  -27.1840 O   0  0  0  0  0  0  0  0  0  0  0  0
    1.0700   17.2870  -27.7590 C   0  0  0  0  0  0  0  0  0  0  0  0
   -1.9790   19.3110  -26.8260 C   0  0  0  0  0  0  0  0  0  0  0  0
   -2.6940   20.4250  -27.2740 C   0  0  0  0  0  0  0  0  0  0  0  0
   -3.0550   23.3830  -27.9380 C   0  0  0  0  0  0  0  0  0  0  0  0
   -4.2410   23.8950  -27.3720 C   0  0  0  0  0  0  0  0  0  0  0  0
   -4.2100   24.9090  -26.4220 C   0  0  0  0  0  0  0  0  0  0  0  0
   -3.0010   25.4600  -26.0200 C   0  0  0  0  0  0  0  0  0  0  0  0
   -1.7880   25.0190  -26.5800 C   0  0  0  0  0  0  0  0  0  0  0  0
   -0.5500   25.6010  -26.1900 C   0  0  0  0  0  0  0  0  0  0  0  0
   -0.4700   26.6940  -25.1520 C   0  0  0  0  0  0  0  0  0  0  0  0
    0.6390   25.1580  -26.7860 C   0  0  0  0  0  0  0  0  0  0  0  0
    0.6180   24.1610  -27.7520 C   0  0  0  0  0  0  0  0  0  0  0  0
   -0.5850   23.5780  -28.1400 C   0  0  0  0  0  0  0  0  0  0  0  0
   -1.8100   23.9790  -27.5600 C   0  0  0  0  0  0  0  0  0  0  0  0
   -6.2918   24.9466  -29.0576 H   0  0  0  0  0  0  0  0  0  0  0  0
   -5.0831   25.6717  -30.1711 H   0  0  0  0  0  0  0  0  0  0  0  0
   -6.7768   26.2701  -30.1711 H   0  0  0  0  0  0  0  0  0  0  0  0
   -7.5500   24.5118  -31.4252 H   0  0  0  0  0  0  0  0  0  0  0  0
   -5.7974   24.4878  -31.9591 H   0  0  0  0  0  0  0  0  0  0  0  0
   -7.3670   21.4000  -29.6414 H   0  0  0  0  0  0  0  0  0  0  0  0
   -8.0733   23.0573  -29.4640 H   0  0  0  0  0  0  0  0  0  0  0  0
   -9.5746   21.7612  -30.8471 H   0  0  0  0  0  0  0  0  0  0  0  0
   -8.7319   22.9459  -31.9021 H   0  0  0  0  0  0  0  0  0  0  0  0
   -8.2240   21.2229  -31.9021 H   0  0  0  0  0  0  0  0  0  0  0  0
   -5.5519   21.0803  -31.2784 H   0  0  0  0  0  0  0  0  0  0  0  0
   -6.3789   22.0241  -32.5815 H   0  0  0  0  0  0  0  0  0  0  0  0
   -3.7063   21.8417  -32.4520 H   0  0  0  0  0  0  0  0  0  0  0  0
   -4.5654   23.3612  -32.9801 H   0  0  0  0  0  0  0  0  0  0  0  0
   -4.3990   23.7730  -30.3910 H   0  0  0  0  0  0  0  0  0  0  0  0
   -2.4229   21.7596  -30.9782 H   0  0  0  0  0  0  0  0  0  0  0  0
   -1.7454   23.2878  -30.3040 H   0  0  0  0  0  0  0  0  0  0  0  0
   -4.1967   22.0267  -29.0905 H   0  0  0  0  0  0  0  0  0  0  0  0
   -1.0247   20.9991  -30.2051 H   0  0  0  0  0  0  0  0  0  0  0  0
    0.2422   19.0122  -29.4064 H   0  0  0  0  0  0  0  0  0  0  0  0
    1.7901   17.0622  -26.9584 H   0  0  0  0  0  0  0  0  0  0  0  0
    0.9226   16.3921  -28.3815 H   0  0  0  0  0  0  0  0  0  0  0  0
    1.4579   18.1068  -28.3815 H   0  0  0  0  0  0  0  0  0  0  0  0
   -2.2467   18.8375  -25.8699 H   0  0  0  0  0  0  0  0  0  0  0  0
   -3.5147   20.8288  -26.6629 H   0  0  0  0  0  0  0  0  0  0  0  0
   -5.2106   23.4833  -27.6890 H   0  0  0  0  0  0  0  0  0  0  0  0
   -5.1501   25.2775  -25.9856 H   0  0  0  0  0  0  0  0  0  0  0  0
   -2.9912   26.2503  -25.2550 H   0  0  0  0  0  0  0  0  0  0  0  0
   -0.5026   26.2482  -24.1469 H   0  0  0  0  0  0  0  0  0  0  0  0
    0.4712   27.2496  -25.2763 H   0  0  0  0  0  0  0  0  0  0  0  0
   -1.3203   27.3807  -25.2763 H   0  0  0  0  0  0  0  0  0  0  0  0
    1.5982   25.6048  -26.4853 H   0  0  0  0  0  0  0  0  0  0  0  0
    1.5594   23.8292  -28.2143 H   0  0  0  0  0  0  0  0  0  0  0  0
   -0.5823   22.7927  -28.9103 H   0  0  0  0  0  0  0  0  0  0  0  0
  1  2  1  0
  2  3  1  0
  3  4  1  0
  4  5  1  0
  3  6  1  0
  6  7  1  0
  7  8  1  0
  8  9  1  0
  9 10  1  0
 10 11  1  0
 11 12  2  0
 12 13  1  0
 13 14  2  0
 14 15  1  0
 15 16  1  0
 14 17  1  0
 17 18  2  0
 10 19  1  0
 19 20  2  0
 20 21  1  0
 21 22  2  0
 22 23  1  0
 23 24  2  0
 24 25  1  0
 24 26  1  0
 26 27  2  0
 27 28  1  0
 28 29  2  0
 18 11  1  0
 29 19  1  0
 29 23  1  0
  1 30  1  0
  1 31  1  0
  1 32  1  0
  2 33  1  0
  2 34  1  0
  4 35  1  0
  4 36  1  0
  5 37  1  0
  5 38  1  0
  5 39  1  0
  6 40  1  0
  6 41  1  0
  7 42  1  0
  7 43  1  0
  8 44  1  0
  9 45  1  0
  9 46  1  0
 10 47  1  6
 12 48  1  0
 13 49  1  0
 16 50  1  0
 16 51  1  0
 16 52  1  0
 17 53  1  0
 18 54  1  0
 20 55  1  0
 21 56  1  0
 22 57  1  0
 25 58  1  0
 25 59  1  0
 25 60  1  0
 26 61  1  0
 27 62  1  0
 28 63  1  0
M  END
>  <UniqueID>  (2) 
2

>  <SMILES>  (2) 
CCN(CC)CCNC[C@@H](c1ccc(OC)cc1)c1cccc2c(C)cccc12

>  <Energy>  (2) 
74.06216053864672

>  <Genealogy>  (2) 
CCN(CC)CCNC[C@@H](c1ccc(OC)cc1)c1cccc2c(C)cccc12 (chirality)
CCN(CC)CCNC[C@@H](c1ccc(OC)cc1)c1cccc2c(C)cccc12 (3D coordinates assigned)
CCN(CC)CCNC[C@@H](c1ccc(OC)cc1)c1cccc2c(C)cccc12 (optimized conformer: 74.06216053864672 kcal/mol)

>  <smiles>  (2) 
CCN(CC)CCNCC(c1ccc(OC)cc1)c1cccc2c(C)cccc12

>  <score_type>  (2) 
oracle

>  <origin>  (2) 
adg

>  <m_score__min__energy>  (2) 
-8.9299999999999997

>  <m_primary>  (2) 
energy

$$$$
2:0
     RDKit          3D

 55 59  0  0  0  0  0  0  0  0999 V2000
   -2.6610   19.3970  -26.7410 C   0  0  0  0  0  0  0  0  0  0  0  0
   -1.4390   19.9950  -27.1100 O   0  0  0  0  0  0  0  0  0  0  0  0
   -1.3910   21.3100  -26.6020 C   0  0  0  0  0  0  0  0  0  0  0  0
   -2.4060   22.1710  -27.3480 C   0  0  0  0  0  0  0  0  0  0  0  0
   -1.8130   22.7660  -28.5520 N   0  0  0  0  0  0  0  0  0  0  0  0
   -2.0680   22.1850  -29.8440 C   0  0  0  0  0  0  0  0  0  0  0  0
   -3.2210   22.5380  -30.5470 C   0  0  0  0  0  0  0  0  0  0  0  0
   -4.2720   23.4080  -30.3250 C   0  0  0  0  0  0  0  0  0  0  0  0
   -4.5590   24.2880  -29.2790 C   0  0  0  0  0  0  0  0  0  0  0  0
   -5.7320   25.0590  -29.3640 C   0  0  0  0  0  0  0  0  0  0  0  0
   -6.5850   24.9440  -30.4800 C   0  0  0  0  0  0  0  0  0  0  0  0
   -6.2730   24.0610  -31.5270 C   0  0  0  0  0  0  0  0  0  0  0  0
   -5.1070   23.3030  -31.4260 C   0  0  0  0  0  0  0  0  0  0  0  0
   -4.6580   22.4270  -32.3520 N   0  0  0  0  0  0  0  0  0  0  0  0
   -3.5050   21.9560  -31.8260 C   0  0  0  0  0  0  0  0  0  0  0  0
   -2.6310   21.0470  -32.3960 C   0  0  0  0  0  0  0  0  0  0  0  0
   -2.8940   20.4740  -33.6510 C   0  0  0  0  0  0  0  0  0  0  0  0
   -1.9950   19.5690  -34.2090 C   0  0  0  0  0  0  0  0  0  0  0  0
   -0.8320   19.2280  -33.5240 C   0  0  0  0  0  0  0  0  0  0  0  0
   -0.5550   19.7890  -32.2740 C   0  0  0  0  0  0  0  0  0  0  0  0
   -1.4460   20.7140  -31.6710 C   0  0  0  0  0  0  0  0  0  0  0  0
   -1.1850   21.2830  -30.4220 N   0  0  0  0  0  0  0  0  0  0  0  0
    0.0550   20.9140  -29.7100 C   0  0  0  0  0  0  0  0  0  0  0  0
   -0.9930   24.2980  -28.4590 S   0  0  0  0  0  0  0  0  0  0  0  0
   -1.6930   25.3120  -29.3180 O   0  0  0  0  0  0  0  0  0  0  0  0
    0.4160   24.1460  -28.9660 O   0  0  0  0  0  0  0  0  0  0  0  0
   -0.9630   24.8650  -26.7920 C   0  0  0  0  0  0  0  0  0  0  0  0
   -1.7670   25.9440  -26.3920 C   0  0  0  0  0  0  0  0  0  0  0  0
   -1.7180   26.4040  -25.0710 C   0  0  0  0  0  0  0  0  0  0  0  0
   -0.8670   25.7900  -24.1470 C   0  0  0  0  0  0  0  0  0  0  0  0
   -0.0660   24.7150  -24.5420 C   0  0  0  0  0  0  0  0  0  0  0  0
   -0.1130   24.2530  -25.8610 C   0  0  0  0  0  0  0  0  0  0  0  0
   -2.7350   19.3608  -25.6441 H   0  0  0  0  0  0  0  0  0  0  0  0
   -3.4956   19.9885  -27.1455 H   0  0  0  0  0  0  0  0  0  0  0  0
   -2.7060   18.3751  -27.1455 H   0  0  0  0  0  0  0  0  0  0  0  0
   -1.6346   21.2996  -25.5294 H   0  0  0  0  0  0  0  0  0  0  0  0
   -0.3813   21.7240  -26.7403 H   0  0  0  0  0  0  0  0  0  0  0  0
   -3.2615   21.5447  -27.6411 H   0  0  0  0  0  0  0  0  0  0  0  0
   -2.7311   22.9834  -26.6814 H   0  0  0  0  0  0  0  0  0  0  0  0
   -3.8864   24.3755  -28.4130 H   0  0  0  0  0  0  0  0  0  0  0  0
   -5.9858   25.7574  -28.5530 H   0  0  0  0  0  0  0  0  0  0  0  0
   -7.5016   25.5500  -30.5315 H   0  0  0  0  0  0  0  0  0  0  0  0
   -6.9313   23.9699  -32.4036 H   0  0  0  0  0  0  0  0  0  0  0  0
   -3.8124   20.7408  -34.1944 H   0  0  0  0  0  0  0  0  0  0  0  0
   -2.2040   19.1228  -35.1925 H   0  0  0  0  0  0  0  0  0  0  0  0
   -0.1259   18.5119  -33.9697 H   0  0  0  0  0  0  0  0  0  0  0  0
    0.3698   19.5085  -31.7487 H   0  0  0  0  0  0  0  0  0  0  0  0
   -0.1164   20.9650  -28.6246 H   0  0  0  0  0  0  0  0  0  0  0  0
    0.3464   19.8902  -29.9875 H   0  0  0  0  0  0  0  0  0  0  0  0
    0.8587   21.6119  -29.9875 H   0  0  0  0  0  0  0  0  0  0  0  0
   -2.4365   26.4287  -27.1178 H   0  0  0  0  0  0  0  0  0  0  0  0
   -2.3494   27.2492  -24.7595 H   0  0  0  0  0  0  0  0  0  0  0  0
   -0.8279   26.1530  -23.1094 H   0  0  0  0  0  0  0  0  0  0  0  0
    0.6024   24.2316  -23.8143 H   0  0  0  0  0  0  0  0  0  0  0  0
    0.5190   23.4069  -26.1686 H   0  0  0  0  0  0  0  0  0  0  0  0
  1  2  1  0
  2  3  1  0
  3  4  1  0
  4  5  1  0
  5  6  1  0
  6  7  2  0
  7  8  1  0
  8  9  2  0
  9 10  1  0
 10 11  2  0
 11 12  1  0
 12 13  2  0
 13 14  1  0
 14 15  2  0
 15 16  1  0
 16 17  2  0
 17 18  1  0
 18 19  2  0
 19 20  1  0
 20 21  2  0
 21 22  1  0
 22 23  1  0
  5 24  1  0
 24 25  2  0
 24 26  2  0
 24 27  1  0
 27 28  2  0
 28 29  1  0
 29 30  2  0
 30 31  1  0
 31 32  2  0
 22  6  1  0
 32 27  1  0
 15  7  1  0
 21 16  1  0
 13  8  1  0
  1 33  1  0
  1 34  1  0
  1 35  1  0
  3 36  1  0
  3 37  1  0
  4 38  1  0
  4 39  1  0
  9 40  1  0
 10 41  1  0
 11 42  1  0
 12 43  1  0
 17 44  1  0
 18 45  1  0
 19 46  1  0
 20 47  1  0
 23 48  1  0
 23 49  1  0
 23 50  1  0
 28 51  1  0
 29 52  1  0
 30 53  1  0
 31 54  1  0
 32 55  1  0
M  END
>  <UniqueID>  (3) 
3

>  <SMILES>  (3) 
COCCN(c1c2c3ccccc3nc-2c2ccccc2n1C)S(=O)(=O)c1ccccc1

>  <Energy>  (3) 
114.25880271589192

>  <Genealogy>  (3) 
COCCN(c1c2c3ccccc3nc-2c2ccccc2n1C)S(=O)(=O)c1ccccc1 (3D coordinates assigned)
COCCN(c1c2c3ccccc3nc-2c2ccccc2n1C)S(=O)(=O)c1ccccc1 (optimized conformer: 114.25880271589192 kcal/mol)

>  <smiles>  (3) 
COCCN(c1c2c3ccccc3nc-2c2ccccc2n1C)S(=O)(=O)c1ccccc1

>  <score_type>  (3) 
oracle

>  <origin>  (3) 
adg

>  <m_score__min__energy>  (3) 
-9.5800000000000001

>  <m_primary>  (3) 
energy

$$$$
3:0
     RDKit          3D

 50 52  0  0  0  0  0  0  0  0999 V2000
   -3.3410   24.6170  -26.9180 C   0  0  0  0  0  0  0  0  0  0  0  0
   -4.2340   24.0070  -28.0120 C   0  0  0  0  0  0  0  0  0  0  0  0
   -3.5150   23.2270  -29.0470 N   0  0  0  0  0  0  0  0  0  0  0  0
   -3.4680   21.7720  -28.7950 C   0  0  0  0  0  0  0  0  0  0  0  0
   -2.3430   21.4300  -27.8220 C   0  0  0  0  0  0  0  0  0  0  0  0
   -4.0520   23.6300  -30.6690 S   0  0  0  0  0  0  0  0  0  0  0  0
   -4.0570   25.1270  -30.8210 O   0  0  0  0  0  0  0  0  0  0  0  0
   -3.0950   23.0750  -31.6860 O   0  0  0  0  0  0  0  0  0  0  0  0
   -5.6660   23.0180  -31.0220 C   0  0  0  0  0  0  0  0  0  0  0  0
   -6.7450   23.9030  -31.1470 C   0  0  0  0  0  0  0  0  0  0  0  0
   -8.0170   23.4200  -31.4590 C   0  0  0  0  0  0  0  0  0  0  0  0
   -8.2250   22.0500  -31.6570 C   0  0  0  0  0  0  0  0  0  0  0  0
   -9.8480   21.4840  -32.0300 Cl  0  0  0  0  0  0  0  0  0  0  0  0
   -7.1450   21.1550  -31.5330 C   0  0  0  0  0  0  0  0  0  0  0  0
   -7.3180   19.7130  -31.7740 C   0  0  0  0  0  0  0  0  0  0  0  0
   -8.2940   19.1250  -31.2370 O   0  0  0  0  0  0  0  0  0  0  0  0
   -6.3930   18.9730  -32.5930 N   0  0  0  0  0  0  0  0  0  0  0  0
   -5.9040   17.6500  -32.1600 C   0  0  0  0  0  0  0  0  0  0  0  0
   -4.8000   17.1830  -33.1360 C   0  0  1  0  0  0  0  0  0  0  0  0
   -5.4100   17.1380  -34.5590 C   0  0  0  0  0  0  0  0  0  0  0  0
   -5.9640   18.5340  -34.9560 C   0  0  0  0  0  0  0  0  0  0  0  0
   -5.7590   19.5390  -33.8010 C   0  0  2  0  0  0  0  0  0  0  0  0
   -4.2430   19.6440  -33.5190 C   0  0  0  0  0  0  0  0  0  0  0  0
   -3.6760   18.2500  -33.1300 C   0  0  0  0  0  0  0  0  0  0  0  0
   -5.8740   21.6440  -31.2020 C   0  0  0  0  0  0  0  0  0  0  0  0
   -3.7372   24.3464  -25.9281 H   0  0  0  0  0  0  0  0  0  0  0  0
   -2.3170   24.2288  -27.0218 H   0  0  0  0  0  0  0  0  0  0  0  0
   -3.3302   25.7120  -27.0218 H   0  0  0  0  0  0  0  0  0  0  0  0
   -4.9609   23.3397  -27.5259 H   0  0  0  0  0  0  0  0  0  0  0  0
   -4.7000   24.8548  -28.5355 H   0  0  0  0  0  0  0  0  0  0  0  0
   -4.4277   21.4485  -28.3657 H   0  0  0  0  0  0  0  0  0  0  0  0
   -3.2823   21.2536  -29.7472 H   0  0  0  0  0  0  0  0  0  0  0  0
   -2.7053   21.5401  -26.7892 H   0  0  0  0  0  0  0  0  0  0  0  0
   -2.0177   20.3924  -27.9877 H   0  0  0  0  0  0  0  0  0  0  0  0
   -1.4952   22.1110  -27.9877 H   0  0  0  0  0  0  0  0  0  0  0  0
   -6.5893   24.9818  -30.9988 H   0  0  0  0  0  0  0  0  0  0  0  0
   -8.8607   24.1200  -31.5498 H   0  0  0  0  0  0  0  0  0  0  0  0
   -5.4915   17.7231  -31.1429 H   0  0  0  0  0  0  0  0  0  0  0  0
   -6.7329   16.9269  -32.1598 H   0  0  0  0  0  0  0  0  0  0  0  0
   -4.4076   16.1973  -32.8454 H   0  0  0  0  0  0  0  0  0  0  0  0
   -4.6323   16.8392  -35.2773 H   0  0  0  0  0  0  0  0  0  0  0  0
   -6.2351   16.4106  -34.5703 H   0  0  0  0  0  0  0  0  0  0  0  0
   -5.4333   18.8946  -35.8495 H   0  0  0  0  0  0  0  0  0  0  0  0
   -7.0399   18.4457  -35.1674 H   0  0  0  0  0  0  0  0  0  0  0  0
   -6.1846   20.5203  -34.0576 H   0  0  0  0  0  0  0  0  0  0  0  0
   -3.7291   20.0073  -34.4212 H   0  0  0  0  0  0  0  0  0  0  0  0
   -4.0784   20.3452  -32.6876 H   0  0  0  0  0  0  0  0  0  0  0  0
   -2.8993   17.9610  -33.8533 H   0  0  0  0  0  0  0  0  0  0  0  0
   -3.2497   18.3104  -32.1178 H   0  0  0  0  0  0  0  0  0  0  0  0
   -5.0337   20.9442  -31.0827 H   0  0  0  0  0  0  0  0  0  0  0  0
  1  2  1  0
  2  3  1  0
  3  4  1  0
  4  5  1  0
  3  6  1  0
  6  7  2  0
  6  8  2  0
  6  9  1  0
  9 10  2  0
 10 11  1  0
 11 12  2  0
 12 13  1  0
 12 14  1  0
 14 15  1  0
 15 16  2  0
 15 17  1  0
 17 18  1  0
 18 19  1  0
 19 20  1  0
 20 21  1  0
 21 22  1  0
 22 23  1  0
 23 24  1  0
 14 25  2  0
 25  9  1  0
 22 17  1  0
 24 19  1  0
  1 26  1  0
  1 27  1  0
  1 28  1  0
  2 29  1  0
  2 30  1  0
  4 31  1  0
  4 32  1  0
  5 33  1  0
  5 34  1  0
  5 35  1  0
 10 36  1  0
 11 37  1  0
 18 38  1  0
 18 39  1  0
 19 40  1  1
 20 41  1  0
 20 42  1  0
 21 43  1  0
 21 44  1  0
 22 45  1  6
 23 46  1  0
 23 47  1  0
 24 48  1  0
 24 49  1  0
 25 50  1  0
M  END
>  <UniqueID>  (4) 
4

>  <SMILES>  (4) 
CCN(CC)S(=O)(=O)c1ccc(Cl)c(C(=O)N2CC3CCC2CC3)c1

>  <Energy>  (4) 
66.75759011618163

>  <Genealogy>  (4) 
CCN(CC)S(=O)(=O)c1ccc(Cl)c(C(=O)N2CC3CCC2CC3)c1 (3D coordinates assigned)
CCN(CC)S(=O)(=O)c1ccc(Cl)c(C(=O)N2CC3CCC2CC3)c1 (nonaromatic ring conformer: 66.75759011618163 kcal/mol)

>  <smiles>  (4) 
CCN(CC)S(=O)(=O)c1ccc(Cl)c(C(=O)N2CC3CCC2CC3)c1

>  <score_type>  (4) 
oracle

>  <origin>  (4) 
adg

>  <m_score__min__energy>  (4) 
-9.5800000000000001

>  <m_primary>  (4) 
energy

$$$$
4:0
     RDKit          3D

 45 47  0  0  0  0  0  0  0  0999 V2000
   -2.5490   22.4850  -30.9010 C   0  0  0  0  0  0  0  0  0  0  0  0
   -3.9530   22.9980  -31.2520 C   0  0  0  0  0  0  0  0  0  0  0  0
   -4.2600   24.3670  -30.7580 N   0  0  0  0  0  0  0  0  0  0  0  0
   -4.0440   24.5430  -29.3020 C   0  0  0  0  0  0  0  0  0  0  0  0
   -4.5940   23.3710  -28.4880 C   0  0  0  0  0  0  0  0  0  0  0  0
   -5.6040   24.8590  -31.1490 C   0  0  0  0  0  0  0  0  0  0  0  0
   -6.6530   23.7320  -31.1890 C   0  0  0  0  0  0  0  0  0  0  0  0
   -6.6860   23.0580  -32.4910 N   0  0  0  0  0  0  0  0  0  0  0  0
   -6.6390   21.6240  -32.6300 C   0  0  0  0  0  0  0  0  0  0  0  0
   -5.4810   20.9870  -33.1080 C   0  0  0  0  0  0  0  0  0  0  0  0
   -5.4420   19.5970  -33.2520 C   0  0  0  0  0  0  0  0  0  0  0  0
   -4.0470   18.8530  -33.8280 S   0  0  0  0  0  0  0  0  0  0  0  0
   -4.2090   17.1830  -33.9270 C   0  0  0  0  0  0  0  0  0  0  0  0
   -3.1430   16.4010  -34.3870 C   0  0  0  0  0  0  0  0  0  0  0  0
   -3.2780   15.0170  -34.4680 C   0  0  0  0  0  0  0  0  0  0  0  0
   -4.4760   14.4110  -34.0900 C   0  0  0  0  0  0  0  0  0  0  0  0
   -5.5440   15.1870  -33.6300 C   0  0  0  0  0  0  0  0  0  0  0  0
   -5.4360   16.5960  -33.5360 C   0  0  0  0  0  0  0  0  0  0  0  0
   -6.5460   17.3650  -33.0620 C   0  0  0  0  0  0  0  0  0  0  0  0
   -7.5970   16.7400  -32.7390 O   0  0  0  0  0  0  0  0  0  0  0  0
   -6.5530   18.7910  -32.9260 C   0  0  0  0  0  0  0  0  0  0  0  0
   -7.7100   19.4430  -32.4450 C   0  0  0  0  0  0  0  0  0  0  0  0
   -7.7580   20.8350  -32.2970 C   0  0  0  0  0  0  0  0  0  0  0  0
   -9.3700   21.6020  -31.5920 Br  0  0  0  0  0  0  0  0  0  0  0  0
   -2.4364   22.4439  -29.8076 H   0  0  0  0  0  0  0  0  0  0  0  0
   -2.4106   21.4782  -31.3220 H   0  0  0  0  0  0  0  0  0  0  0  0
   -1.7941   23.1654  -31.3220 H   0  0  0  0  0  0  0  0  0  0  0  0
   -4.0525   22.9995  -32.3475 H   0  0  0  0  0  0  0  0  0  0  0  0
   -4.6627   22.3226  -30.7518 H   0  0  0  0  0  0  0  0  0  0  0  0
   -2.9639   24.6294  -29.1125 H   0  0  0  0  0  0  0  0  0  0  0  0
   -4.5805   25.4510  -28.9895 H   0  0  0  0  0  0  0  0  0  0  0  0
   -4.4914   23.5897  -27.4149 H   0  0  0  0  0  0  0  0  0  0  0  0
   -5.6562   23.2217  -28.7318 H   0  0  0  0  0  0  0  0  0  0  0  0
   -4.0301   22.4586  -28.7318 H   0  0  0  0  0  0  0  0  0  0  0  0
   -5.9280   25.6175  -30.4212 H   0  0  0  0  0  0  0  0  0  0  0  0
   -5.5254   25.2801  -32.1621 H   0  0  0  0  0  0  0  0  0  0  0  0
   -6.4092   22.9922  -30.4123 H   0  0  0  0  0  0  0  0  0  0  0  0
   -7.6415   24.1817  -31.0141 H   0  0  0  0  0  0  0  0  0  0  0  0
   -6.7850   23.6420  -33.3490 H   0  0  0  0  0  0  0  0  0  0  0  0
   -4.5976   21.5874  -33.3711 H   0  0  0  0  0  0  0  0  0  0  0  0
   -2.1984   16.8796  -34.6846 H   0  0  0  0  0  0  0  0  0  0  0  0
   -2.4405   14.4025  -34.8298 H   0  0  0  0  0  0  0  0  0  0  0  0
   -4.5809   13.3179  -34.1541 H   0  0  0  0  0  0  0  0  0  0  0  0
   -6.4832   14.6954  -33.3364 H   0  0  0  0  0  0  0  0  0  0  0  0
   -8.5937   18.8437  -32.1805 H   0  0  0  0  0  0  0  0  0  0  0  0
  1  2  1  0
  2  3  1  0
  3  4  1  0
  4  5  1  0
  3  6  1  0
  6  7  1  0
  7  8  1  0
  8  9  1  0
  9 10  2  0
 10 11  1  0
 11 12  1  0
 12 13  1  0
 13 14  2  0
 14 15  1  0
 15 16  2  0
 16 17  1  0
 17 18  2  0
 18 19  1  0
 19 20  2  0
 19 21  1  0
 21 22  1  0
 22 23  2  0
 23 24  1  0
 23  9  1  0
 21 11  2  0
 18 13  1  0
  1 25  1  0
  1 26  1  0
  1 27  1  0
  2 28  1  0
  2 29  1  0
  4 30  1  0
  4 31  1  0
  5 32  1  0
  5 33  1  0
  5 34  1  0
  6 35  1  0
  6 36  1  0
  7 37  1  0
  7 38  1  0
  8 39  1  0
 10 40  1  0
 14 41  1  0
 15 42  1  0
 16 43  1  0
 17 44  1  0
 22 45  1  0
M  END
>  <UniqueID>  (5) 
5

>  <SMILES>  (5) 
CCN(CC)CCNc1cc2sc3ccccc3c(=O)c2cc1Br

>  <Energy>  (5) 
63.19567245956078

>  <Genealogy>  (5) 
CCN(CC)CCNc1cc2sc3ccccc3c(=O)c2cc1Br (3D coordinates assigned)
CCN(CC)CCNc1cc2sc3ccccc3c(=O)c2cc1Br (optimized conformer: 63.19567245956078 kcal/mol)

>  <smiles>  (5) 
CCN(CC)CCNc1cc2sc3ccccc3c(=O)c2cc1Br

>  <score_type>  (5) 
oracle

>  <origin>  (5) 
adg

>  <m_score__min__energy>  (5) 
-8.5999999999999996

>  <m_primary>  (5) 
energy

$$$$
5:0
     RDKit          3D

 45 47  0  0  0  0  0  0  0  0999 V2000
    0.7550   22.3900  -27.0430 C   0  0  0  0  0  0  0  0  0  0  0  0
    0.0930   23.7150  -27.4210 C   0  0  0  0  0  0  0  0  0  0  0  0
   -1.0660   24.0430  -26.5510 N   0  0  0  0  0  0  0  0  0  0  0  0
   -0.6210   24.9730  -25.4840 C   0  0  0  0  0  0  0  0  0  0  0  0
   -1.6620   26.0590  -25.2200 C   0  0  0  0  0  0  0  0  0  0  0  0
   -2.1890   24.6290  -27.3340 C   0  0  0  0  0  0  0  0  0  0  0  0
   -2.2680   24.0190  -28.7420 C   0  0  0  0  0  0  0  0  0  0  0  0
   -3.2680   24.7040  -29.5640 N   0  0  0  0  0  0  0  0  0  0  0  0
   -4.4680   24.1070  -30.0950 C   0  0  0  0  0  0  0  0  0  0  0  0
   -5.6030   24.9140  -30.2770 C   0  0  0  0  0  0  0  0  0  0  0  0
   -6.7950   24.3740  -30.7640 C   0  0  0  0  0  0  0  0  0  0  0  0
   -6.8740   23.0090  -31.0860 C   0  0  0  0  0  0  0  0  0  0  0  0
   -8.0550   22.4220  -31.5730 C   0  0  0  0  0  0  0  0  0  0  0  0
   -9.0950   23.1190  -31.7370 O   0  0  0  0  0  0  0  0  0  0  0  0
   -8.0650   21.0490  -31.8740 C   0  0  0  0  0  0  0  0  0  0  0  0
   -9.2120   20.3970  -32.3640 C   0  0  0  0  0  0  0  0  0  0  0  0
   -9.1750   19.0290  -32.6490 C   0  0  0  0  0  0  0  0  0  0  0  0
   -7.9980   18.3010  -32.4500 C   0  0  0  0  0  0  0  0  0  0  0  0
   -6.8530   18.9370  -31.9650 C   0  0  0  0  0  0  0  0  0  0  0  0
   -6.8780   20.3050  -31.6760 C   0  0  0  0  0  0  0  0  0  0  0  0
   -5.7820   20.8980  -31.2130 O   0  0  0  0  0  0  0  0  0  0  0  0
   -5.7330   22.1920  -30.9160 C   0  0  0  0  0  0  0  0  0  0  0  0
   -4.5430   22.7420  -30.4310 C   0  0  0  0  0  0  0  0  0  0  0  0
    0.7992   22.3016  -25.9474 H   0  0  0  0  0  0  0  0  0  0  0  0
    0.1677   21.5561  -27.4548 H   0  0  0  0  0  0  0  0  0  0  0  0
    1.7745   22.3589  -27.4548 H   0  0  0  0  0  0  0  0  0  0  0  0
    0.8384   24.5191  -27.3329 H   0  0  0  0  0  0  0  0  0  0  0  0
   -0.2802   23.6191  -28.4513 H   0  0  0  0  0  0  0  0  0  0  0  0
   -0.4565   24.4025  -24.5580 H   0  0  0  0  0  0  0  0  0  0  0  0
    0.3091   25.4586  -25.8144 H   0  0  0  0  0  0  0  0  0  0  0  0
   -1.7879   26.1903  -24.1351 H   0  0  0  0  0  0  0  0  0  0  0  0
   -1.3256   27.0059  -25.6674 H   0  0  0  0  0  0  0  0  0  0  0  0
   -2.6223   25.7629  -25.6674 H   0  0  0  0  0  0  0  0  0  0  0  0
   -3.1339   24.4339  -26.8057 H   0  0  0  0  0  0  0  0  0  0  0  0
   -2.0144   25.7104  -27.4342 H   0  0  0  0  0  0  0  0  0  0  0  0
   -1.2844   24.1076  -29.2265 H   0  0  0  0  0  0  0  0  0  0  0  0
   -2.5615   22.9632  -28.6467 H   0  0  0  0  0  0  0  0  0  0  0  0
   -3.1030   25.7210  -29.7440 H   0  0  0  0  0  0  0  0  0  0  0  0
   -5.5522   25.9853  -30.0327 H   0  0  0  0  0  0  0  0  0  0  0  0
   -7.6755   25.0200  -30.8960 H   0  0  0  0  0  0  0  0  0  0  0  0
  -10.1402   20.9655  -32.5231 H   0  0  0  0  0  0  0  0  0  0  0  0
  -10.0744   18.5238  -33.0309 H   0  0  0  0  0  0  0  0  0  0  0  0
   -7.9737   17.2247  -32.6760 H   0  0  0  0  0  0  0  0  0  0  0  0
   -5.9292   18.3603  -31.8100 H   0  0  0  0  0  0  0  0  0  0  0  0
   -3.6565   22.1020  -30.3107 H   0  0  0  0  0  0  0  0  0  0  0  0
  1  2  1  0
  2  3  1  0
  3  4  1  0
  4  5  1  0
  3  6  1  0
  6  7  1  0
  7  8  1  0
  8  9  1  0
  9 10  2  0
 10 11  1  0
 11 12  2  0
 12 13  1  0
 13 14  2  0
 13 15  1  0
 15 16  2  0
 16 17  1  0
 17 18  2  0
 18 19  1  0
 19 20  2  0
 20 21  1  0
 21 22  1  0
 22 23  2  0
 23  9  1  0
 22 12  1  0
 20 15  1  0
  1 24  1  0
  1 25  1  0
  1 26  1  0
  2 27  1  0
  2 28  1  0
  4 29  1  0
  4 30  1  0
  5 31  1  0
  5 32  1  0
  5 33  1  0
  6 34  1  0
  6 35  1  0
  7 36  1  0
  7 37  1  0
  8 38  1  0
 10 39  1  0
 11 40  1  0
 16 41  1  0
 17 42  1  0
 18 43  1  0
 19 44  1  0
 23 45  1  0
M  END
>  <UniqueID>  (6) 
6

>  <SMILES>  (6) 
CCN(CC)CCNc1ccc2c(=O)c3ccccc3oc2c1

>  <Energy>  (6) 
53.54497805226887

>  <Genealogy>  (6) 
CCN(CC)CCNc1ccc2c(=O)c3ccccc3oc2c1 (3D coordinates assigned)
CCN(CC)CCNc1ccc2c(=O)c3ccccc3oc2c1 (optimized conformer: 53.54497805226887 kcal/mol)

>  <smiles>  (6) 
CCN(CC)CCNc1ccc2c(=O)c3ccccc3oc2c1

>  <score_type>  (6) 
oracle

>  <origin>  (6) 
adg

>  <m_score__min__energy>  (6) 
-8.1799999999999997

>  <m_primary>  (6) 
energy

$$$$
6:0
     RDKit          3D

 71 73  0  0  0  0  0  0  0  0999 V2000
   -1.3470   20.9500  -26.4170 C   0  0  0  0  0  0  0  0  0  0  0  0
   -1.3650   22.1780  -27.3300 C   0  0  0  0  0  0  0  0  0  0  0  0
   -2.4060   22.0300  -28.3750 N   0  0  0  0  0  0  0  0  0  0  0  0
   -3.7400   22.4360  -27.8690 C   0  0  0  0  0  0  0  0  0  0  0  0
   -3.6630   23.8180  -27.2200 C   0  0  0  0  0  0  0  0  0  0  0  0
   -2.4260   20.6600  -28.9580 C   0  0  0  0  0  0  0  0  0  0  0  0
   -1.2470   20.4900  -29.9210 C   0  0  0  0  0  0  0  0  0  0  0  0
   -0.9780   21.7340  -30.6620 N   0  0  0  0  0  0  0  0  0  0  0  0
   -1.0780   21.5290  -32.1170 C   0  0  0  0  0  0  0  0  0  0  0  0
   -2.4540   21.0150  -32.5110 C   0  0  0  0  0  0  0  0  0  0  0  0
   -2.5310   19.8830  -33.3280 C   0  0  0  0  0  0  0  0  0  0  0  0
   -3.7540   19.4350  -33.8130 C   0  0  0  0  0  0  0  0  0  0  0  0
   -4.9470   20.1150  -33.5160 C   0  0  0  0  0  0  0  0  0  0  0  0
   -6.1850   19.6370  -34.0980 N   0  0  0  0  0  0  0  0  0  0  0  0
   -6.0940   18.2180  -34.4990 C   0  0  0  0  0  0  0  0  0  0  0  0
   -6.7850   17.2600  -33.5060 C   0  0  0  0  0  0  0  0  0  0  0  0
   -6.9950   17.9060  -32.1880 N   0  0  0  0  0  0  0  0  0  0  0  0
   -6.2600   17.2170  -31.0950 C   0  0  0  0  0  0  0  0  0  0  0  0
   -5.3590   16.0610  -31.5630 C   0  0  0  0  0  0  0  0  0  0  0  0
   -8.4250   18.1420  -31.8960 C   0  0  0  0  0  0  0  0  0  0  0  0
   -8.7100   19.6240  -31.6740 C   0  0  0  0  0  0  0  0  0  0  0  0
   -4.8940   21.2540  -32.6610 C   0  0  0  0  0  0  0  0  0  0  0  0
   -6.0480   21.9780  -32.2950 C   0  0  0  0  0  0  0  0  0  0  0  0
   -5.9500   23.0900  -31.4520 C   0  0  0  0  0  0  0  0  0  0  0  0
   -7.0870   23.8300  -31.0920 C   0  0  0  0  0  0  0  0  0  0  0  0
   -6.9600   24.9420  -30.2560 C   0  0  0  0  0  0  0  0  0  0  0  0
   -5.7030   25.3160  -29.7690 C   0  0  0  0  0  0  0  0  0  0  0  0
   -4.5680   24.5810  -30.1200 C   0  0  0  0  0  0  0  0  0  0  0  0
   -4.6860   23.4730  -30.9650 C   0  0  0  0  0  0  0  0  0  0  0  0
   -3.5810   22.7730  -31.3300 N   0  0  0  0  0  0  0  0  0  0  0  0
   -3.6400   21.6910  -32.1560 C   0  0  0  0  0  0  0  0  0  0  0  0
   -1.3518   21.2744  -25.3659 H   0  0  0  0  0  0  0  0  0  0  0  0
   -2.2362   20.3333  -26.6144 H   0  0  0  0  0  0  0  0  0  0  0  0
   -0.4401   20.3596  -26.6144 H   0  0  0  0  0  0  0  0  0  0  0  0
   -1.5799   23.0736  -26.7286 H   0  0  0  0  0  0  0  0  0  0  0  0
   -0.3830   22.2756  -27.8160 H   0  0  0  0  0  0  0  0  0  0  0  0
   -4.4518   22.4678  -28.7071 H   0  0  0  0  0  0  0  0  0  0  0  0
   -4.0751   21.7059  -27.1176 H   0  0  0  0  0  0  0  0  0  0  0  0
   -3.6690   23.7099  -26.1253 H   0  0  0  0  0  0  0  0  0  0  0  0
   -2.7355   24.3193  -27.5338 H   0  0  0  0  0  0  0  0  0  0  0  0
   -4.5290   24.4192  -27.5338 H   0  0  0  0  0  0  0  0  0  0  0  0
   -2.3477   19.9178  -28.1499 H   0  0  0  0  0  0  0  0  0  0  0  0
   -3.3679   20.5118  -29.5065 H   0  0  0  0  0  0  0  0  0  0  0  0
   -0.3509   20.2148  -29.3454 H   0  0  0  0  0  0  0  0  0  0  0  0
   -1.5011   19.7022  -30.6455 H   0  0  0  0  0  0  0  0  0  0  0  0
   -1.6610   22.4700  -30.3790 H   0  0  0  0  0  0  0  0  0  0  0  0
   -0.8938   22.4861  -32.6269 H   0  0  0  0  0  0  0  0  0  0  0  0
   -0.3300   20.7789  -32.4134 H   0  0  0  0  0  0  0  0  0  0  0  0
   -1.6113   19.3397  -33.5904 H   0  0  0  0  0  0  0  0  0  0  0  0
   -3.7885   18.5321  -34.4404 H   0  0  0  0  0  0  0  0  0  0  0  0
   -6.4380   20.2240  -34.9260 H   0  0  0  0  0  0  0  0  0  0  0  0
   -6.9770   19.7590  -33.4250 H   0  0  0  0  0  0  0  0  0  0  0  0
   -6.5688   18.1021  -35.4845 H   0  0  0  0  0  0  0  0  0  0  0  0
   -5.0268   17.9523  -34.5206 H   0  0  0  0  0  0  0  0  0  0  0  0
   -7.7603   16.9607  -33.9173 H   0  0  0  0  0  0  0  0  0  0  0  0
   -6.1362   16.3834  -33.3624 H   0  0  0  0  0  0  0  0  0  0  0  0
   -5.6292   17.9592  -30.5839 H   0  0  0  0  0  0  0  0  0  0  0  0
   -7.0214   16.7737  -30.4364 H   0  0  0  0  0  0  0  0  0  0  0  0
   -4.9503   15.5367  -30.6866 H   0  0  0  0  0  0  0  0  0  0  0  0
   -5.9496   15.3578  -32.1685 H   0  0  0  0  0  0  0  0  0  0  0  0
   -4.5328   16.4620  -32.1685 H   0  0  0  0  0  0  0  0  0  0  0  0
   -9.0273   17.7848  -32.7443 H   0  0  0  0  0  0  0  0  0  0  0  0
   -8.6852   17.5976  -30.9762 H   0  0  0  0  0  0  0  0  0  0  0  0
   -8.7500   19.8320  -30.5946 H   0  0  0  0  0  0  0  0  0  0  0  0
   -7.9108   20.2240  -32.1337 H   0  0  0  0  0  0  0  0  0  0  0  0
   -9.6747   19.8847  -32.1337 H   0  0  0  0  0  0  0  0  0  0  0  0
   -7.0319   21.6659  -32.6752 H   0  0  0  0  0  0  0  0  0  0  0  0
   -8.0776   23.5345  -31.4680 H   0  0  0  0  0  0  0  0  0  0  0  0
   -7.8509   25.5252  -29.9799 H   0  0  0  0  0  0  0  0  0  0  0  0
   -5.6081   26.1905  -29.1085 H   0  0  0  0  0  0  0  0  0  0  0  0
   -3.5814   24.8738  -29.7317 H   0  0  0  0  0  0  0  0  0  0  0  0
  1  2  1  0
  2  3  1  0
  3  4  1  0
  4  5  1  0
  3  6  1  0
  6  7  1  0
  7  8  1  0
  8  9  1  0
  9 10  1  0
 10 11  2  0
 11 12  1  0
 12 13  2  0
 13 14  1  0
 14 15  1  0
 15 16  1  0
 16 17  1  0
 17 18  1  0
 18 19  1  0
 17 20  1  0
 20 21  1  0
 13 22  1  0
 22 23  2  0
 23 24  1  0
 24 25  2  0
 25 26  1  0
 26 27  2  0
 27 28  1  0
 28 29  2  0
 29 30  1  0
 30 31  2  0
 31 10  1  0
 31 22  1  0
 29 24  1  0
  1 32  1  0
  1 33  1  0
  1 34  1  0
  2 35  1  0
  2 36  1  0
  4 37  1  0
  4 38  1  0
  5 39  1  0
  5 40  1  0
  5 41  1  0
  6 42  1  0
  6 43  1  0
  7 44  1  0
  7 45  1  0
  8 46  1  0
  9 47  1  0
  9 48  1  0
 11 49  1  0
 12 50  1  0
 14 51  1  0
 14 52  1  0
 15 53  1  0
 15 54  1  0
 16 55  1  0
 16 56  1  0
 18 57  1  0
 18 58  1  0
 19 59  1  0
 19 60  1  0
 19 61  1  0
 20 62  1  0
 20 63  1  0
 21 64  1  0
 21 65  1  0
 21 66  1  0
 23 67  1  0
 25 68  1  0
 26 69  1  0
 27 70  1  0
 28 71  1  0
M  CHG  1  14   1
M  END
>  <UniqueID>  (7) 
7

>  <SMILES>  (7) 
CCN(CC)CCNCc1ccc([NH2+]CCN(CC)CC)c2cc3ccccc3nc12

>  <Energy>  (7) 
78.83055365471805

>  <Genealogy>  (7) 
CCN(CC)CCNCc1ccc([NH2+]CCN(CC)CC)c2cc3ccccc3nc12 (protonated)
CCN(CC)CCNCc1ccc([NH2+]CCN(CC)CC)c2cc3ccccc3nc12 (3D coordinates assigned)
CCN(CC)CCNCc1ccc([NH2+]CCN(CC)CC)c2cc3ccccc3nc12 (optimized conformer: 78.83055365471805 kcal/mol)

>  <smiles>  (7) 
CCN(CC)CCNCc1ccc(NCCN(CC)CC)c2cc3ccccc3nc12

>  <score_type>  (7) 
oracle

>  <origin>  (7) 
adg

>  <m_score__min__energy>  (7) 
-8.5500000000000007

>  <m_primary>  (7) 
energy

$$$$
7:0
     RDKit          3D

 54 56  0  0  0  0  0  0  0  0999 V2000
   -4.1760   24.2440  -27.2830 C   0  0  0  0  0  0  0  0  0  0  0  0
   -4.0440   22.8530  -27.8980 C   0  0  0  0  0  0  0  0  0  0  0  0
   -2.7250   22.6980  -28.5540 N   0  0  0  0  0  0  0  0  0  0  0  0
   -2.2860   23.9660  -29.1810 C   0  0  0  0  0  0  0  0  0  0  0  0
   -0.9990   24.4720  -28.5300 C   0  0  0  0  0  0  0  0  0  0  0  0
   -2.7260   21.5770  -29.5310 C   0  0  0  0  0  0  0  0  0  0  0  0
   -2.0350   21.9990  -30.8340 C   0  0  0  0  0  0  0  0  0  0  0  0
   -2.0920   20.9370  -31.9440 C   0  0  0  0  0  0  0  0  0  0  0  0
   -3.1340   21.2310  -32.9330 N   0  0  0  0  0  0  0  0  0  0  0  0
   -4.5150   20.8780  -32.7220 C   0  0  0  0  0  0  0  0  0  0  0  0
   -5.0410   19.6870  -33.2520 C   0  0  0  0  0  0  0  0  0  0  0  0
   -4.3240   18.9410  -34.2110 C   0  0  0  0  0  0  0  0  0  0  0  0
   -4.8600   17.7750  -34.7530 C   0  0  0  0  0  0  0  0  0  0  0  0
   -6.1260   17.3490  -34.3710 C   0  0  0  0  0  0  0  0  0  0  0  0
   -6.8650   18.0830  -33.4440 C   0  0  0  0  0  0  0  0  0  0  0  0
   -6.3360   19.2590  -32.8530 C   0  0  0  0  0  0  0  0  0  0  0  0
   -7.0540   19.9980  -31.9330 N   0  0  0  0  0  0  0  0  0  0  0  0
   -8.2530   19.4160  -31.2900 C   0  0  0  0  0  0  0  0  0  0  0  0
   -6.6500   21.2800  -31.6130 C   0  0  0  0  0  0  0  0  0  0  0  0
   -7.4980   22.1780  -30.9210 C   0  0  0  0  0  0  0  0  0  0  0  0
   -7.0650   23.4560  -30.5730 C   0  0  0  0  0  0  0  0  0  0  0  0
   -5.7840   23.8970  -30.9220 C   0  0  0  0  0  0  0  0  0  0  0  0
   -5.3390   25.2200  -30.5660 N   0  0  0  0  0  0  0  0  0  0  0  0
   -6.1070   26.0150  -29.9860 O   0  0  0  0  0  0  0  0  0  0  0  0
   -4.0550   25.6260  -30.8460 O   0  0  0  0  0  0  0  0  0  0  0  0
   -4.9460   23.0370  -31.6440 C   0  0  0  0  0  0  0  0  0  0  0  0
   -5.3600   21.7340  -31.9940 C   0  0  0  0  0  0  0  0  0  0  0  0
   -4.1682   24.1622  -26.1861 H   0  0  0  0  0  0  0  0  0  0  0  0
   -3.3333   24.8709  -27.6099 H   0  0  0  0  0  0  0  0  0  0  0  0
   -5.1216   24.7012  -27.6099 H   0  0  0  0  0  0  0  0  0  0  0  0
   -4.1455   22.0962  -27.1062 H   0  0  0  0  0  0  0  0  0  0  0  0
   -4.8338   22.7215  -28.6523 H   0  0  0  0  0  0  0  0  0  0  0  0
   -2.1060   23.7958  -30.2527 H   0  0  0  0  0  0  0  0  0  0  0  0
   -3.0737   24.7211  -29.0421 H   0  0  0  0  0  0  0  0  0  0  0  0
   -1.1013   24.4318  -27.4355 H   0  0  0  0  0  0  0  0  0  0  0  0
   -0.1561   23.8383  -28.8430 H   0  0  0  0  0  0  0  0  0  0  0  0
   -0.8133   25.5101  -28.8430 H   0  0  0  0  0  0  0  0  0  0  0  0
   -2.1900   20.7194  -29.0984 H   0  0  0  0  0  0  0  0  0  0  0  0
   -3.7671   21.3004  -29.7539 H   0  0  0  0  0  0  0  0  0  0  0  0
   -2.5229   22.9128  -31.2041 H   0  0  0  0  0  0  0  0  0  0  0  0
   -0.9724   22.1533  -30.5953 H   0  0  0  0  0  0  0  0  0  0  0  0
   -1.1178   20.9036  -32.4538 H   0  0  0  0  0  0  0  0  0  0  0  0
   -2.3302   19.9700  -31.4769 H   0  0  0  0  0  0  0  0  0  0  0  0
   -2.8650   21.7170  -33.8180 H   0  0  0  0  0  0  0  0  0  0  0  0
   -3.3302   19.2840  -34.5345 H   0  0  0  0  0  0  0  0  0  0  0  0
   -4.2807   17.1914  -35.4836 H   0  0  0  0  0  0  0  0  0  0  0  0
   -6.5472   16.4286  -34.8017 H   0  0  0  0  0  0  0  0  0  0  0  0
   -7.8743   17.7447  -33.1666 H   0  0  0  0  0  0  0  0  0  0  0  0
   -8.1447   19.4686  -30.1966 H   0  0  0  0  0  0  0  0  0  0  0  0
   -9.1450   19.9814  -31.5977 H   0  0  0  0  0  0  0  0  0  0  0  0
   -8.3606   18.3654  -31.5977 H   0  0  0  0  0  0  0  0  0  0  0  0
   -8.5168   21.8613  -30.6533 H   0  0  0  0  0  0  0  0  0  0  0  0
   -7.7381   24.1257  -30.0176 H   0  0  0  0  0  0  0  0  0  0  0  0
   -3.9462   23.3841  -31.9438 H   0  0  0  0  0  0  0  0  0  0  0  0
  1  2  1  0
  2  3  1  0
  3  4  1  0
  4  5  1  0
  3  6  1  0
  6  7  1  0
  7  8  1  0
  8  9  1  0
  9 10  1  0
 10 11  2  0
 11 12  1  0
 12 13  2  0
 13 14  1  0
 14 15  2  0
 15 16  1  0
 16 17  2  0
 17 18  1  0
 17 19  1  0
 19 20  2  0
 20 21  1  0
 21 22  2  0
 22 23  1  0
 23 24  2  0
 23 25  1  0
 22 26  1  0
 26 27  2  0
 27 10  1  0
 16 11  1  0
 27 19  1  0
  1 28  1  0
  1 29  1  0
  1 30  1  0
  2 31  1  0
  2 32  1  0
  4 33  1  0
  4 34  1  0
  5 35  1  0
  5 36  1  0
  5 37  1  0
  6 38  1  0
  6 39  1  0
  7 40  1  0
  7 41  1  0
  8 42  1  0
  8 43  1  0
  9 44  1  0
 12 45  1  0
 13 46  1  0
 14 47  1  0
 15 48  1  0
 18 49  1  0
 18 50  1  0
 18 51  1  0
 20 52  1  0
 21 53  1  0
 26 54  1  0
M  CHG  3  17   1  23   1  25  -1
M  END
>  <UniqueID>  (8) 
8

>  <SMILES>  (8) 
CCN(CC)CCCNc1c2ccccc2[n+](C)c2ccc([N+](=O)[O-])cc12

>  <Energy>  (8) 
80.05169584968064

>  <Genealogy>  (8) 
CCN(CC)CCCNc1c2ccccc2[n+](C)c2ccc([N+](=O)[O-])cc12 (3D coordinates assigned)
CCN(CC)CCCNc1c2ccccc2[n+](C)c2ccc([N+](=O)[O-])cc12 (optimized conformer: 80.05169584968064 kcal/mol)

>  <smiles>  (8) 
CCN(CC)CCCNc1c2ccccc2[n+](C)c2ccc([N+](=O)[O-])cc12

>  <score_type>  (8) 
oracle

>  <origin>  (8) 
adg

>  <m_score__min__energy>  (8) 
-8.7300000000000004

>  <m_primary>  (8) 
energy

$$$$
8:0
     RDKit          3D

 36 38  0  0  0  0  0  0  0  0999 V2000
   -5.7280   17.5640  -33.6560 C   0  0  0  0  0  0  0  0  0  0  0  0
   -6.1110   17.1890  -32.2220 C   0  0  0  0  0  0  0  0  0  0  0  0
   -7.1250   18.0910  -31.6520 N   0  0  0  0  0  0  0  0  0  0  0  0
   -7.8380   18.8530  -32.6860 C   0  0  0  0  0  0  0  0  0  0  0  0
   -7.9340   20.2970  -32.2680 C   0  0  0  0  0  0  0  0  0  0  0  0
   -9.1720   20.9600  -32.3190 C   0  0  0  0  0  0  0  0  0  0  0  0
   -9.2730   22.3070  -31.9580 C   0  0  0  0  0  0  0  0  0  0  0  0
   -8.1390   23.0150  -31.5540 C   0  0  0  0  0  0  0  0  0  0  0  0
   -6.8960   22.3760  -31.5140 C   0  0  0  0  0  0  0  0  0  0  0  0
   -5.7850   23.0590  -31.1340 N   0  0  0  0  0  0  0  0  0  0  0  0
   -4.5590   22.4680  -31.0910 C   0  0  0  0  0  0  0  0  0  0  0  0
   -3.4030   23.1890  -30.6940 C   0  0  0  0  0  0  0  0  0  0  0  0
   -3.4460   24.6250  -30.2950 C   0  0  0  0  0  0  0  0  0  0  0  0
   -2.4990   25.1710  -29.3770 N   0  0  0  0  0  0  0  0  0  0  0  0
   -4.3300   25.3870  -30.7720 O   0  0  0  0  0  0  0  0  0  0  0  0
   -2.1660   22.5130  -30.6780 C   0  0  0  0  0  0  0  0  0  0  0  0
   -2.0750   21.1670  -31.0430 C   0  0  0  0  0  0  0  0  0  0  0  0
   -3.2140   20.4650  -31.4300 C   0  0  0  0  0  0  0  0  0  0  0  0
   -4.4530   21.1070  -31.4560 C   0  0  0  0  0  0  0  0  0  0  0  0
   -5.5650   20.4220  -31.8350 N   0  0  0  0  0  0  0  0  0  0  0  0
   -6.7870   21.0160  -31.8730 C   0  0  0  0  0  0  0  0  0  0  0  0
   -4.9421   18.3334  -33.6363 H   0  0  0  0  0  0  0  0  0  0  0  0
   -5.3550   16.6723  -34.1810 H   0  0  0  0  0  0  0  0  0  0  0  0
   -6.6117   17.9558  -34.1810 H   0  0  0  0  0  0  0  0  0  0  0  0
   -6.5107   16.1642  -32.2208 H   0  0  0  0  0  0  0  0  0  0  0  0
   -5.2056   17.2724  -31.6030 H   0  0  0  0  0  0  0  0  0  0  0  0
   -6.6640   18.7610  -30.9920 H   0  0  0  0  0  0  0  0  0  0  0  0
   -7.2901   18.7821  -33.6372 H   0  0  0  0  0  0  0  0  0  0  0  0
   -8.8494   18.4401  -32.8143 H   0  0  0  0  0  0  0  0  0  0  0  0
  -10.0695   20.4144  -32.6458 H   0  0  0  0  0  0  0  0  0  0  0  0
  -10.2500   22.8113  -31.9923 H   0  0  0  0  0  0  0  0  0  0  0  0
   -8.2236   24.0737  -31.2677 H   0  0  0  0  0  0  0  0  0  0  0  0
   -1.6160   25.6120  -29.7130 H   0  0  0  0  0  0  0  0  0  0  0  0
   -1.2578   23.0537  -30.3733 H   0  0  0  0  0  0  0  0  0  0  0  0
   -1.0992   20.6596  -31.0246 H   0  0  0  0  0  0  0  0  0  0  0  0
   -3.1371   19.4053  -31.7150 H   0  0  0  0  0  0  0  0  0  0  0  0
  1  2  1  0
  2  3  1  0
  3  4  1  0
  4  5  1  0
  5  6  2  0
  6  7  1  0
  7  8  2  0
  8  9  1  0
  9 10  2  0
 10 11  1  0
 11 12  2  0
 12 13  1  0
 13 14  1  0
 13 15  2  0
 12 16  1  0
 16 17  2  0
 17 18  1  0
 18 19  2  0
 19 20  1  0
 20 21  2  0
 21  5  1  0
 21  9  1  0
 19 11  1  0
  1 22  1  0
  1 23  1  0
  1 24  1  0
  2 25  1  0
  2 26  1  0
  3 27  1  0
  4 28  1  0
  4 29  1  0
  6 30  1  0
  7 31  1  0
  8 32  1  0
 14 33  1  0
 16 34  1  0
 17 35  1  0
 18 36  1  0
M  CHG  1  14  -1
M  END
>  <UniqueID>  (9) 
9

>  <SMILES>  (9) 
CCNCc1cccc2nc3c(C([NH-])=O)cccc3nc12

>  <Energy>  (9) 
44.80036948061114

>  <Genealogy>  (9) 
CCNCc1cccc2nc3c(C([NH-])=O)cccc3nc12 (protonated)
CCNCc1cccc2nc3c(C([NH-])=O)cccc3nc12 (3D coordinates assigned)
CCNCc1cccc2nc3c(C([NH-])=O)cccc3nc12 (optimized conformer: 44.80036948061114 kcal/mol)

>  <smiles>  (9) 
CCNCc1cccc2nc3c(C(N)=O)cccc3nc12

>  <score_type>  (9) 
oracle

>  <origin>  (9) 
adg

>  <m_score__min__energy>  (9) 
-10.24

>  <m_primary>  (9) 
energy

$$$$
9:0
     RDKit          3D

 47 49  0  0  0  0  0  0  0  0999 V2000
   -6.5160   17.9080  -31.0640 C   0  0  0  0  0  0  0  0  0  0  0  0
   -6.8340   18.7030  -32.2470 N   0  0  0  0  0  0  0  0  0  0  0  0
   -7.4320   19.9130  -32.2930 C   0  0  0  0  0  0  0  0  0  0  0  0
   -8.1010   20.7840  -30.8720 S   0  0  0  0  0  0  0  0  0  0  0  0
   -8.2970   22.3940  -31.7230 C   0  0  0  0  0  0  0  0  0  0  0  0
   -6.9480   22.9650  -32.1860 C   0  0  0  0  0  0  0  0  0  0  0  0
   -6.0350   23.2180  -31.0500 N   0  0  0  0  0  0  0  0  0  0  0  0
   -6.3020   24.5290  -30.4070 C   0  0  0  0  0  0  0  0  0  0  0  0
   -5.2620   25.5900  -30.8080 C   0  0  0  0  0  0  0  0  0  0  0  0
   -3.9290   25.2350  -30.4670 O   0  0  0  0  0  0  0  0  0  0  0  0
   -3.6890   23.8330  -30.4860 C   0  0  0  0  0  0  0  0  0  0  0  0
   -4.6130   23.0600  -31.4400 C   0  0  0  0  0  0  0  0  0  0  0  0
   -7.4330   20.4250  -33.5400 N   0  0  0  0  0  0  0  0  0  0  0  0
   -6.8300   19.5310  -34.3040 N   0  0  0  0  0  0  0  0  0  0  0  0
   -6.4640   18.4930  -33.5290 C   0  0  0  0  0  0  0  0  0  0  0  0
   -5.6470   17.3370  -34.0260 C   0  0  0  0  0  0  0  0  0  0  0  0
   -4.3790   17.8230  -34.5670 N   0  0  0  0  0  0  0  0  0  0  0  0
   -3.4850   18.6740  -33.8300 C   0  0  0  0  0  0  0  0  0  0  0  0
   -3.7490   20.0440  -33.6570 C   0  0  0  0  0  0  0  0  0  0  0  0
   -2.8590   20.8490  -32.9380 C   0  0  0  0  0  0  0  0  0  0  0  0
   -1.7060   20.2940  -32.3780 C   0  0  0  0  0  0  0  0  0  0  0  0
   -0.5910   21.3070  -31.4800 Cl  0  0  0  0  0  0  0  0  0  0  0  0
   -1.4460   18.9290  -32.5270 C   0  0  0  0  0  0  0  0  0  0  0  0
   -2.3350   18.1210  -33.2440 C   0  0  0  0  0  0  0  0  0  0  0  0
   -6.7482   18.4884  -30.1589 H   0  0  0  0  0  0  0  0  0  0  0  0
   -7.1141   16.9848  -31.0710 H   0  0  0  0  0  0  0  0  0  0  0  0
   -5.4462   17.6519  -31.0710 H   0  0  0  0  0  0  0  0  0  0  0  0
   -8.9448   22.2556  -32.6011 H   0  0  0  0  0  0  0  0  0  0  0  0
   -8.7415   23.1044  -31.0105 H   0  0  0  0  0  0  0  0  0  0  0  0
   -6.4736   22.2457  -32.8697 H   0  0  0  0  0  0  0  0  0  0  0  0
   -7.1394   23.9245  -32.6888 H   0  0  0  0  0  0  0  0  0  0  0  0
   -7.3001   24.8772  -30.7114 H   0  0  0  0  0  0  0  0  0  0  0  0
   -6.2440   24.3911  -29.3172 H   0  0  0  0  0  0  0  0  0  0  0  0
   -5.3156   25.7359  -31.8970 H   0  0  0  0  0  0  0  0  0  0  0  0
   -5.5048   26.5073  -30.2515 H   0  0  0  0  0  0  0  0  0  0  0  0
   -2.6479   23.6633  -30.7978 H   0  0  0  0  0  0  0  0  0  0  0  0
   -3.8900   23.4591  -29.4712 H   0  0  0  0  0  0  0  0  0  0  0  0
   -4.4760   23.4431  -32.4620 H   0  0  0  0  0  0  0  0  0  0  0  0
   -4.3532   21.9923  -31.3895 H   0  0  0  0  0  0  0  0  0  0  0  0
   -6.6540   19.6460  -35.3260 H   0  0  0  0  0  0  0  0  0  0  0  0
   -5.4480   16.6459  -33.1937 H   0  0  0  0  0  0  0  0  0  0  0  0
   -6.2027   16.8133  -34.8178 H   0  0  0  0  0  0  0  0  0  0  0  0
   -4.2750   17.7930  -35.6070 H   0  0  0  0  0  0  0  0  0  0  0  0
   -4.6595   20.4849  -34.0889 H   0  0  0  0  0  0  0  0  0  0  0  0
   -3.0677   21.9218  -32.8133 H   0  0  0  0  0  0  0  0  0  0  0  0
   -0.5419   18.4897  -32.0803 H   0  0  0  0  0  0  0  0  0  0  0  0
   -2.1317   17.0451  -33.3494 H   0  0  0  0  0  0  0  0  0  0  0  0
  1  2  1  0
  2  3  1  0
  3  4  1  0
  4  5  1  0
  5  6  1  0
  6  7  1  0
  7  8  1  0
  8  9  1  0
  9 10  1  0
 10 11  1  0
 11 12  1  0
  3 13  2  0
 13 14  1  0
 14 15  2  0
 15 16  1  0
 16 17  1  0
 17 18  1  0
 18 19  2  0
 19 20  1  0
 20 21  2  0
 21 22  1  0
 21 23  1  0
 23 24  2  0
 15  2  1  0
 24 18  1  0
 12  7  1  0
  1 25  1  0
  1 26  1  0
  1 27  1  0
  5 28  1  0
  5 29  1  0
  6 30  1  0
  6 31  1  0
  8 32  1  0
  8 33  1  0
  9 34  1  0
  9 35  1  0
 11 36  1  0
 11 37  1  0
 12 38  1  0
 12 39  1  0
 14 40  1  0
 16 41  1  0
 16 42  1  0
 17 43  1  0
 19 44  1  0
 20 45  1  0
 23 46  1  0
 24 47  1  0
M  CHG  1  14   1
M  END
>  <UniqueID>  (10) 
10

>  <SMILES>  (10) 
Cn1c(SCCN2CCOCC2)n[nH+]c1CNc1ccc(Cl)cc1

>  <Energy>  (10) 
91.83404483383576

>  <Genealogy>  (10) 
Cn1c(SCCN2CCOCC2)n[nH+]c1CNc1ccc(Cl)cc1 (protonated)
Cn1c(SCCN2CCOCC2)n[nH+]c1CNc1ccc(Cl)cc1 (3D coordinates assigned)
Cn1c(SCCN2CCOCC2)n[nH+]c1CNc1ccc(Cl)cc1 (nonaromatic ring conformer: 91.83404483383576 kcal/mol)

>  <smiles>  (10) 
Cn1c(CNc2ccc(Cl)cc2)nnc1SCCN1CCOCC1

>  <score_type>  (10) 
oracle

>  <origin>  (10) 
adg

>  <m_score__min__energy>  (10) 
-7.9000000000000004

>  <m_primary>  (10) 
energy

$$$$
10:0
     RDKit          3D

 73 72  0  0  0  0  0  0  0  0999 V2000
   -1.8710   20.0220  -27.5530 C   0  0  0  0  0  0  0  0  0  0  0  0
   -3.0620   20.9320  -27.8320 C   0  0  0  0  0  0  0  0  0  0  0  0
   -3.1150   21.2730  -29.2620 N   0  0  0  0  0  0  0  0  0  0  0  0
   -1.9510   20.7380  -29.9870 C   0  0  0  0  0  0  0  0  0  0  0  0
   -2.3370   20.3750  -31.4300 C   0  0  0  0  0  0  0  0  0  0  0  0
   -2.5740   21.6160  -32.3070 C   0  0  0  0  0  0  0  0  0  0  0  0
   -3.9510   22.2560  -32.0660 C   0  0  0  0  0  0  0  0  0  0  0  0
   -3.8380   23.3770  -31.1200 N   0  0  0  0  0  0  0  0  0  0  0  0
   -5.1310   23.8270  -30.5750 C   0  0  0  0  0  0  0  0  0  0  0  0
   -5.0330   24.6010  -29.2410 C   0  0  0  0  0  0  0  0  0  0  0  0
   -3.9770   24.0890  -28.2460 C   0  0  0  0  0  0  0  0  0  0  0  0
   -2.6310   24.8130  -28.3660 C   0  0  0  0  0  0  0  0  0  0  0  0
   -1.6700   23.9540  -29.0710 N   0  0  0  0  0  0  0  0  0  0  0  0
   -0.7850   23.2430  -28.1360 C   0  0  0  0  0  0  0  0  0  0  0  0
    0.6440   23.8000  -28.2300 C   0  0  0  0  0  0  0  0  0  0  0  0
    1.1740   24.3050  -26.8780 C   0  0  0  0  0  0  0  0  0  0  0  0
    0.6330   23.4980  -25.6890 C   0  0  0  0  0  0  0  0  0  0  0  0
    0.1520   24.4030  -24.6340 N   0  0  0  0  0  0  0  0  0  0  0  0
   -1.2370   24.8470  -24.8460 C   0  0  0  0  0  0  0  0  0  0  0  0
   -1.3400   26.3790  -24.9680 C   0  0  0  0  0  0  0  0  0  0  0  0
   -0.8080   27.1130  -23.7250 C   0  0  0  0  0  0  0  0  0  0  0  0
    0.6800   27.5150  -23.8330 C   0  0  0  0  0  0  0  0  0  0  0  0
    1.5690   26.4460  -23.3400 N   0  0  0  0  0  0  0  0  0  0  0  0
    2.7690   26.2850  -24.1820 C   0  0  0  0  0  0  0  0  0  0  0  0
    3.4330   24.9160  -24.0000 C   0  0  0  0  0  0  0  0  0  0  0  0
   -1.7354   19.9184  -26.4663 H   0  0  0  0  0  0  0  0  0  0  0  0
   -2.0545   19.0319  -27.9957 H   0  0  0  0  0  0  0  0  0  0  0  0
   -0.9639   20.4592  -27.9957 H   0  0  0  0  0  0  0  0  0  0  0  0
   -3.9898   20.4143  -27.5470 H   0  0  0  0  0  0  0  0  0  0  0  0
   -2.9533   21.8564  -27.2457 H   0  0  0  0  0  0  0  0  0  0  0  0
   -3.0820   22.3170  -29.3390 H   0  0  0  0  0  0  0  0  0  0  0  0
   -1.1553   21.4973  -30.0050 H   0  0  0  0  0  0  0  0  0  0  0  0
   -1.5978   19.8313  -29.4740 H   0  0  0  0  0  0  0  0  0  0  0  0
   -1.5249   19.7799  -31.8732 H   0  0  0  0  0  0  0  0  0  0  0  0
   -3.2792   19.8087  -31.3912 H   0  0  0  0  0  0  0  0  0  0  0  0
   -1.7955   22.3600  -32.0824 H   0  0  0  0  0  0  0  0  0  0  0  0
   -2.5358   21.2935  -33.3580 H   0  0  0  0  0  0  0  0  0  0  0  0
   -4.3502   22.6271  -33.0215 H   0  0  0  0  0  0  0  0  0  0  0  0
   -4.6268   21.4986  -31.6421 H   0  0  0  0  0  0  0  0  0  0  0  0
   -3.1830   23.1230  -30.3460 H   0  0  0  0  0  0  0  0  0  0  0  0
   -5.6067   24.4836  -31.3184 H   0  0  0  0  0  0  0  0  0  0  0  0
   -5.7142   22.9181  -30.3657 H   0  0  0  0  0  0  0  0  0  0  0  0
   -4.7956   25.6491  -29.4756 H   0  0  0  0  0  0  0  0  0  0  0  0
   -6.0042   24.4629  -28.7434 H   0  0  0  0  0  0  0  0  0  0  0  0
   -4.3607   24.2318  -27.2250 H   0  0  0  0  0  0  0  0  0  0  0  0
   -3.7987   23.0283  -28.4765 H   0  0  0  0  0  0  0  0  0  0  0  0
   -2.7674   25.7483  -28.9287 H   0  0  0  0  0  0  0  0  0  0  0  0
   -2.2479   25.0406  -27.3603 H   0  0  0  0  0  0  0  0  0  0  0  0
   -2.2190   23.2340  -29.6010 H   0  0  0  0  0  0  0  0  0  0  0  0
   -1.1594   23.3745  -27.1101 H   0  0  0  0  0  0  0  0  0  0  0  0
   -0.7715   22.1745  -28.3969 H   0  0  0  0  0  0  0  0  0  0  0  0
    1.3093   23.0028  -28.5932 H   0  0  0  0  0  0  0  0  0  0  0  0
    0.6219   24.6569  -28.9193 H   0  0  0  0  0  0  0  0  0  0  0  0
    2.2716   24.2330  -26.8815 H   0  0  0  0  0  0  0  0  0  0  0  0
    0.8341   25.3440  -26.7557 H   0  0  0  0  0  0  0  0  0  0  0  0
   -0.1984   22.8634  -26.0295 H   0  0  0  0  0  0  0  0  0  0  0  0
    1.4422   22.8733  -25.2829 H   0  0  0  0  0  0  0  0  0  0  0  0
    0.2280   23.9230  -23.7060 H   0  0  0  0  0  0  0  0  0  0  0  0
   -1.6186   24.3905  -25.7712 H   0  0  0  0  0  0  0  0  0  0  0  0
   -1.8307   24.5346  -23.9743 H   0  0  0  0  0  0  0  0  0  0  0  0
   -0.7571   26.7019  -25.8432 H   0  0  0  0  0  0  0  0  0  0  0  0
   -2.4055   26.6322  -25.0715 H   0  0  0  0  0  0  0  0  0  0  0  0
   -1.4048   28.0253  -23.5780 H   0  0  0  0  0  0  0  0  0  0  0  0
   -0.8930   26.4161  -22.8782 H   0  0  0  0  0  0  0  0  0  0  0  0
    0.9187   27.7199  -24.8871 H   0  0  0  0  0  0  0  0  0  0  0  0
    0.8405   28.4091  -23.2126 H   0  0  0  0  0  0  0  0  0  0  0  0
    1.8880   26.6770  -22.3710 H   0  0  0  0  0  0  0  0  0  0  0  0
    1.0400   25.5420  -23.2970 H   0  0  0  0  0  0  0  0  0  0  0  0
    2.4780   26.3987  -25.2367 H   0  0  0  0  0  0  0  0  0  0  0  0
    3.4961   27.0526  -23.8786 H   0  0  0  0  0  0  0  0  0  0  0  0
    3.5381   24.6993  -22.9267 H   0  0  0  0  0  0  0  0  0  0  0  0
    2.8107   24.1411  -24.4713 H   0  0  0  0  0  0  0  0  0  0  0  0
    4.4269   24.9250  -24.4713 H   0  0  0  0  0  0  0  0  0  0  0  0
  1  2  1  0
  2  3  1  0
  3  4  1  0
  4  5  1  0
  5  6  1  0
  6  7  1  0
  7  8  1  0
  8  9  1  0
  9 10  1  0
 10 11  1  0
 11 12  1  0
 12 13  1  0
 13 14  1  0
 14 15  1  0
 15 16  1  0
 16 17  1  0
 17 18  1  0
 18 19  1  0
 19 20  1  0
 20 21  1  0
 21 22  1  0
 22 23  1  0
 23 24  1  0
 24 25  1  0
  1 26  1  0
  1 27  1  0
  1 28  1  0
  2 29  1  0
  2 30  1  0
  3 31  1  0
  4 32  1  0
  4 33  1  0
  5 34  1  0
  5 35  1  0
  6 36  1  0
  6 37  1  0
  7 38  1  0
  7 39  1  0
  8 40  1  0
  9 41  1  0
  9 42  1  0
 10 43  1  0
 10 44  1  0
 11 45  1  0
 11 46  1  0
 12 47  1  0
 12 48  1  0
 13 49  1  0
 14 50  1  0
 14 51  1  0
 15 52  1  0
 15 53  1  0
 16 54  1  0
 16 55  1  0
 17 56  1  0
 17 57  1  0
 18 58  1  0
 19 59  1  0
 19 60  1  0
 20 61  1  0
 20 62  1  0
 21 63  1  0
 21 64  1  0
 22 65  1  0
 22 66  1  0
 23 67  1  0
 23 68  1  0
 24 69  1  0
 24 70  1  0
 25 71  1  0
 25 72  1  0
 25 73  1  0
M  CHG  1  23   1
M  END
>  <UniqueID>  (11) 
11

>  <SMILES>  (11) 
CCNCCCCNCCCCNCCCCNCCCC[NH2+]CC

>  <Energy>  (11) 
49.37504690084936

>  <Genealogy>  (11) 
CCNCCCCNCCCCNCCCCNCCCC[NH2+]CC (protonated)
CCNCCCCNCCCCNCCCCNCCCC[NH2+]CC (3D coordinates assigned)
CCNCCCCNCCCCNCCCCNCCCC[NH2+]CC (optimized conformer: 49.37504690084936 kcal/mol)

>  <smiles>  (11) 
CCNCCCCNCCCCNCCCCNCCCCNCC

>  <score_type>  (11) 
oracle

>  <origin>  (11) 
adg

>  <m_score__min__energy>  (11) 
-7.7800000000000002

>  <m_primary>  (11) 
energy

$$$$
11:0
     RDKit          3D

 27 27  0  0  0  0  0  0  0  0999 V2000
   -8.0970   23.4010  -32.0710 C   0  0  0  0  0  0  0  0  0  0  0  0
   -6.6470   23.7520  -31.7160 C   0  0  1  0  0  0  0  0  0  0  0  0
   -6.6060   24.4910  -30.3670 C   0  0  0  0  0  0  0  0  0  0  0  0
   -5.5670   25.6180  -30.3690 C   0  0  0  0  0  0  0  0  0  0  0  0
   -4.2680   25.1020  -30.7890 N   0  0  0  0  0  0  0  0  0  0  0  0
   -5.8660   22.5590  -31.6150 O   0  0  0  0  0  0  0  0  0  0  0  0
   -6.2020   21.2750  -32.0830 C   0  0  0  0  0  0  0  0  0  0  0  0
   -5.4060   20.7450  -33.1080 C   0  0  0  0  0  0  0  0  0  0  0  0
   -5.6660   19.4760  -33.6320 C   0  0  0  0  0  0  0  0  0  0  0  0
   -6.7300   18.7210  -33.1400 C   0  0  0  0  0  0  0  0  0  0  0  0
   -6.9810   17.4900  -33.6510 F   0  0  0  0  0  0  0  0  0  0  0  0
   -7.5410   19.2360  -32.1250 C   0  0  0  0  0  0  0  0  0  0  0  0
   -8.5800   18.5020  -31.6550 F   0  0  0  0  0  0  0  0  0  0  0  0
   -7.2870   20.5080  -31.5940 C   0  0  0  0  0  0  0  0  0  0  0  0
   -8.1170   20.9690  -30.6280 F   0  0  0  0  0  0  0  0  0  0  0  0
   -8.6770   23.2606  -31.1470 H   0  0  0  0  0  0  0  0  0  0  0  0
   -8.5383   24.2182  -32.6603 H   0  0  0  0  0  0  0  0  0  0  0  0
   -8.1157   22.4724  -32.6603 H   0  0  0  0  0  0  0  0  0  0  0  0
   -6.2354   24.3963  -32.5069 H   0  0  0  0  0  0  0  0  0  0  0  0
   -7.5982   24.9213  -30.1660 H   0  0  0  0  0  0  0  0  0  0  0  0
   -6.3250   23.7670  -29.5880 H   0  0  0  0  0  0  0  0  0  0  0  0
   -5.8874   26.4070  -31.0653 H   0  0  0  0  0  0  0  0  0  0  0  0
   -5.4796   26.0288  -29.3523 H   0  0  0  0  0  0  0  0  0  0  0  0
   -4.4040   24.1300  -31.1510 H   0  0  0  0  0  0  0  0  0  0  0  0
   -3.9440   25.6770  -31.6000 H   0  0  0  0  0  0  0  0  0  0  0  0
   -4.5667   21.3352  -33.5046 H   0  0  0  0  0  0  0  0  0  0  0  0
   -5.0304   19.0721  -34.4338 H   0  0  0  0  0  0  0  0  0  0  0  0
  1  2  1  0
  2  3  1  0
  3  4  1  0
  4  5  1  0
  2  6  1  0
  6  7  1  0
  7  8  2  0
  8  9  1  0
  9 10  2  0
 10 11  1  0
 10 12  1  0
 12 13  1  0
 12 14  2  0
 14 15  1  0
 14  7  1  0
  1 16  1  0
  1 17  1  0
  1 18  1  0
  2 19  1  6
  3 20  1  0
  3 21  1  0
  4 22  1  0
  4 23  1  0
  5 24  1  0
  5 25  1  0
  8 26  1  0
  9 27  1  0
M  END
>  <UniqueID>  (12) 
12

>  <SMILES>  (12) 
C[C@@H](CCN)Oc1ccc(F)c(F)c1F

>  <Energy>  (12) 
21.142930539889207

>  <Genealogy>  (12) 
C[C@@H](CCN)Oc1ccc(F)c(F)c1F (chirality)
C[C@@H](CCN)Oc1ccc(F)c(F)c1F (3D coordinates assigned)
C[C@@H](CCN)Oc1ccc(F)c(F)c1F (optimized conformer: 21.142930539889207 kcal/mol)

>  <smiles>  (12) 
CC(CCN)Oc1ccc(F)c(F)c1F

>  <score_type>  (12) 
oracle

>  <origin>  (12) 
adg

>  <m_score__min__energy>  (12) 
-5.9100000000000001

>  <m_primary>  (12) 
energy

$$$$
12:0
     RDKit          3D

 44 46  0  0  0  0  0  0  0  0999 V2000
   -5.9720   25.4750  -29.5820 C   0  0  0  0  0  0  0  0  0  0  0  0
   -5.1580   25.6800  -30.8560 C   0  0  0  0  0  0  0  0  0  0  0  0
   -3.8820   24.9540  -30.7760 N   0  0  0  0  0  0  0  0  0  0  0  0
   -3.7750   24.1930  -29.5250 C   0  0  0  0  0  0  0  0  0  0  0  0
   -4.4700   22.8380  -29.6790 C   0  0  0  0  0  0  0  0  0  0  0  0
   -4.1530   22.2410  -30.9790 N   0  0  0  0  0  0  0  0  0  0  0  0
   -2.9160   21.9120  -31.3990 C   0  0  0  0  0  0  0  0  0  0  0  0
   -3.0240   21.2740  -32.6230 C   0  0  0  0  0  0  0  0  0  0  0  0
   -1.9090   20.7350  -33.4410 C   0  0  0  0  0  0  0  0  0  0  0  0
   -1.8980   19.3850  -33.8400 C   0  0  0  0  0  0  0  0  0  0  0  0
   -0.8460   18.8810  -34.6100 C   0  0  0  0  0  0  0  0  0  0  0  0
    0.2070   19.7160  -34.9910 C   0  0  0  0  0  0  0  0  0  0  0  0
    1.2260   19.2250  -35.7380 F   0  0  0  0  0  0  0  0  0  0  0  0
    0.2090   21.0570  -34.6030 C   0  0  0  0  0  0  0  0  0  0  0  0
   -0.8410   21.5660  -33.8330 C   0  0  0  0  0  0  0  0  0  0  0  0
   -4.3300   21.2070  -32.9570 N   0  0  0  0  0  0  0  0  0  0  0  0
   -4.9960   21.8080  -31.9480 C   0  0  0  0  0  0  0  0  0  0  0  0
   -6.4700   21.9240  -31.9250 C   0  0  0  0  0  0  0  0  0  0  0  0
   -7.0990   23.1780  -32.0040 C   0  0  0  0  0  0  0  0  0  0  0  0
   -8.4940   23.2690  -32.0030 C   0  0  0  0  0  0  0  0  0  0  0  0
   -9.2720   22.1100  -31.9360 C   0  0  0  0  0  0  0  0  0  0  0  0
   -8.6550   20.8570  -31.8780 C   0  0  0  0  0  0  0  0  0  0  0  0
   -7.2600   20.7620  -31.8780 C   0  0  0  0  0  0  0  0  0  0  0  0
   -5.3278   25.6372  -28.7052 H   0  0  0  0  0  0  0  0  0  0  0  0
   -6.8069   26.1909  -29.5611 H   0  0  0  0  0  0  0  0  0  0  0  0
   -6.3682   24.4490  -29.5611 H   0  0  0  0  0  0  0  0  0  0  0  0
   -5.7329   25.3072  -31.7165 H   0  0  0  0  0  0  0  0  0  0  0  0
   -4.9490   26.7534  -30.9750 H   0  0  0  0  0  0  0  0  0  0  0  0
   -3.1130   25.6670  -30.7760 H   0  0  0  0  0  0  0  0  0  0  0  0
   -2.7135   24.0333  -29.2848 H   0  0  0  0  0  0  0  0  0  0  0  0
   -4.2585   24.7582  -28.7146 H   0  0  0  0  0  0  0  0  0  0  0  0
   -4.1297   22.1641  -28.8790 H   0  0  0  0  0  0  0  0  0  0  0  0
   -5.5578   22.9877  -29.6131 H   0  0  0  0  0  0  0  0  0  0  0  0
   -1.9787   22.1158  -30.8606 H   0  0  0  0  0  0  0  0  0  0  0  0
   -2.7238   18.7216  -33.5435 H   0  0  0  0  0  0  0  0  0  0  0  0
   -0.8473   17.8246  -34.9166 H   0  0  0  0  0  0  0  0  0  0  0  0
    1.0382   21.7143  -34.9036 H   0  0  0  0  0  0  0  0  0  0  0  0
   -0.8332   22.6237  -33.5308 H   0  0  0  0  0  0  0  0  0  0  0  0
   -4.7490   20.8040  -33.8240 H   0  0  0  0  0  0  0  0  0  0  0  0
   -6.4908   24.0924  -32.0669 H   0  0  0  0  0  0  0  0  0  0  0  0
   -8.9801   24.2544  -32.0550 H   0  0  0  0  0  0  0  0  0  0  0  0
  -10.3695   22.1837  -31.9289 H   0  0  0  0  0  0  0  0  0  0  0  0
   -9.2677   19.9446  -31.8323 H   0  0  0  0  0  0  0  0  0  0  0  0
   -6.7785   19.7737  -31.8411 H   0  0  0  0  0  0  0  0  0  0  0  0
  1  2  1  0
  2  3  1  0
  3  4  1  0
  4  5  1  0
  5  6  1  0
  6  7  1  0
  7  8  2  0
  8  9  1  0
  9 10  2  0
 10 11  1  0
 11 12  2  0
 12 13  1  0
 12 14  1  0
 14 15  2  0
  8 16  1  0
 16 17  2  0
 17 18  1  0
 18 19  2  0
 19 20  1  0
 20 21  2  0
 21 22  1  0
 22 23  2  0
 17  6  1  0
 23 18  1  0
 15  9  1  0
  1 24  1  0
  1 25  1  0
  1 26  1  0
  2 27  1  0
  2 28  1  0
  3 29  1  0
  4 30  1  0
  4 31  1  0
  5 32  1  0
  5 33  1  0
  7 34  1  0
 10 35  1  0
 11 36  1  0
 14 37  1  0
 15 38  1  0
 16 39  1  0
 19 40  1  0
 20 41  1  0
 21 42  1  0
 22 43  1  0
 23 44  1  0
M  CHG  1  16   1
M  END
>  <UniqueID>  (13) 
13

>  <SMILES>  (13) 
CCNCCn1cc(-c2ccc(F)cc2)[nH+]c1-c1ccccc1

>  <Energy>  (13) 
78.49851617316297

>  <Genealogy>  (13) 
CCNCCn1cc(-c2ccc(F)cc2)[nH+]c1-c1ccccc1 (protonated)
CCNCCn1cc(-c2ccc(F)cc2)[nH+]c1-c1ccccc1 (3D coordinates assigned)
CCNCCn1cc(-c2ccc(F)cc2)[nH+]c1-c1ccccc1 (optimized conformer: 78.49851617316297 kcal/mol)

>  <smiles>  (13) 
CCNCCn1cc(-c2ccc(F)cc2)nc1-c1ccccc1

>  <score_type>  (13) 
oracle

>  <origin>  (13) 
adg

>  <m_score__min__energy>  (13) 
-7.2599999999999998

>  <m_primary>  (13) 
energy

$$$$
13:0
     RDKit          3D

 43 45  0  0  0  0  0  0  0  0999 V2000
   -8.4310   19.6390  -32.4140 C   0  0  0  0  0  0  0  0  0  0  0  0
   -7.7910   20.9760  -32.1530 C   0  0  0  0  0  0  0  0  0  0  0  0
   -8.5370   21.9540  -31.4760 C   0  0  0  0  0  0  0  0  0  0  0  0
   -7.9920   23.2100  -31.2080 C   0  0  0  0  0  0  0  0  0  0  0  0
   -6.6870   23.5140  -31.6130 C   0  0  0  0  0  0  0  0  0  0  0  0
   -6.0650   24.8390  -31.2520 C   0  0  0  0  0  0  0  0  0  0  0  0
   -4.5940   24.7500  -31.2130 N   0  0  0  0  0  0  0  0  0  0  0  0
   -4.0690   24.5990  -29.8440 C   0  0  0  0  0  0  0  0  0  0  0  0
   -3.4880   23.2220  -29.6470 C   0  0  0  0  0  0  0  0  0  0  0  0
   -2.7750   22.5900  -30.6800 C   0  0  0  0  0  0  0  0  0  0  0  0
   -2.1830   21.3420  -30.4680 C   0  0  0  0  0  0  0  0  0  0  0  0
   -2.3070   20.7090  -29.2280 C   0  0  0  0  0  0  0  0  0  0  0  0
   -3.0290   21.3210  -28.2000 C   0  0  0  0  0  0  0  0  0  0  0  0
   -3.6220   22.5710  -28.4090 C   0  0  0  0  0  0  0  0  0  0  0  0
   -5.9420   22.5540  -32.3130 C   0  0  0  0  0  0  0  0  0  0  0  0
   -6.4610   21.2710  -32.5510 C   0  0  0  0  0  0  0  0  0  0  0  0
   -5.5740   20.2650  -33.1780 C   0  0  0  0  0  0  0  0  0  0  0  0
   -4.2220   20.0810  -32.9590 C   0  0  0  0  0  0  0  0  0  0  0  0
   -3.8220   19.1350  -33.8290 N   0  0  0  0  0  0  0  0  0  0  0  0
   -2.4570   18.6780  -34.0430 C   0  0  0  0  0  0  0  0  0  0  0  0
   -4.8570   18.7750  -34.5720 N   0  0  0  0  0  0  0  0  0  0  0  0
   -5.9310   19.4470  -34.1890 N   0  0  0  0  0  0  0  0  0  0  0  0
   -8.6646   19.1511  -31.4562 H   0  0  0  0  0  0  0  0  0  0  0  0
   -9.3582   19.7822  -32.9883 H   0  0  0  0  0  0  0  0  0  0  0  0
   -7.7380   19.0066  -32.9883 H   0  0  0  0  0  0  0  0  0  0  0  0
   -9.5637   21.7271  -31.1530 H   0  0  0  0  0  0  0  0  0  0  0  0
   -8.5903   23.9645  -30.6762 H   0  0  0  0  0  0  0  0  0  0  0  0
   -6.3584   25.5883  -32.0020 H   0  0  0  0  0  0  0  0  0  0  0  0
   -6.4209   25.1275  -30.2520 H   0  0  0  0  0  0  0  0  0  0  0  0
   -4.2230   25.6510  -31.5940 H   0  0  0  0  0  0  0  0  0  0  0  0
   -3.2840   25.3504  -29.6730 H   0  0  0  0  0  0  0  0  0  0  0  0
   -4.8939   24.7411  -29.1303 H   0  0  0  0  0  0  0  0  0  0  0  0
   -2.6824   23.0801  -31.6604 H   0  0  0  0  0  0  0  0  0  0  0  0
   -1.6186   20.8571  -31.2782 H   0  0  0  0  0  0  0  0  0  0  0  0
   -1.8362   19.7289  -29.0614 H   0  0  0  0  0  0  0  0  0  0  0  0
   -3.1312   20.8199  -27.2261 H   0  0  0  0  0  0  0  0  0  0  0  0
   -4.1960   23.0465  -27.6000 H   0  0  0  0  0  0  0  0  0  0  0  0
   -4.9373   22.8095  -32.6807 H   0  0  0  0  0  0  0  0  0  0  0  0
   -3.5968   20.6039  -32.2203 H   0  0  0  0  0  0  0  0  0  0  0  0
   -1.9685   18.5144  -33.0711 H   0  0  0  0  0  0  0  0  0  0  0  0
   -2.4705   17.7354  -34.6098 H   0  0  0  0  0  0  0  0  0  0  0  0
   -1.9002   19.4387  -34.6098 H   0  0  0  0  0  0  0  0  0  0  0  0
   -6.8750   19.3530  -34.6240 H   0  0  0  0  0  0  0  0  0  0  0  0
  1  2  1  0
  2  3  2  0
  3  4  1  0
  4  5  2  0
  5  6  1  0
  6  7  1  0
  7  8  1  0
  8  9  1  0
  9 10  2  0
 10 11  1  0
 11 12  2  0
 12 13  1  0
 13 14  2  0
  5 15  1  0
 15 16  2  0
 16 17  1  0
 17 18  2  0
 18 19  1  0
 19 20  1  0
 19 21  1  0
 21 22  2  0
 16  2  1  0
 22 17  1  0
 14  9  1  0
  1 23  1  0
  1 24  1  0
  1 25  1  0
  3 26  1  0
  4 27  1  0
  6 28  1  0
  6 29  1  0
  7 30  1  0
  8 31  1  0
  8 32  1  0
 10 33  1  0
 11 34  1  0
 12 35  1  0
 13 36  1  0
 14 37  1  0
 15 38  1  0
 18 39  1  0
 20 40  1  0
 20 41  1  0
 20 42  1  0
 22 43  1  0
M  CHG  1  22   1
M  END
>  <UniqueID>  (14) 
14

>  <SMILES>  (14) 
Cc1ccc(CNCc2ccccc2)cc1-c1cn(C)n[nH+]1

>  <Energy>  (14) 
80.22113245876507

>  <Genealogy>  (14) 
Cc1ccc(CNCc2ccccc2)cc1-c1cn(C)n[nH+]1 (protonated)
Cc1ccc(CNCc2ccccc2)cc1-c1cn(C)n[nH+]1 (3D coordinates assigned)
Cc1ccc(CNCc2ccccc2)cc1-c1cn(C)n[nH+]1 (optimized conformer: 80.22113245876507 kcal/mol)

>  <smiles>  (14) 
Cc1ccc(CNCc2ccccc2)cc1-c1cn(C)nn1

>  <score_type>  (14) 
oracle

>  <origin>  (14) 
adg

>  <m_score__min__energy>  (14) 
-8.7799999999999994

>  <m_primary>  (14) 
energy

$$$$
14:0
     RDKit          3D

 47 48  0  0  0  0  0  0  0  0999 V2000
   -2.0010   21.8310  -31.5350 C   0  0  0  0  0  0  0  0  0  0  0  0
   -3.4510   22.3190  -31.5160 C   0  0  0  0  0  0  0  0  0  0  0  0
   -3.9130   22.5610  -30.1330 N   0  0  0  0  0  0  0  0  0  0  0  0
   -2.8360   22.3220  -29.1480 C   0  0  0  0  0  0  0  0  0  0  0  0
   -3.0790   21.0030  -28.4220 C   0  0  0  0  0  0  0  0  0  0  0  0
   -4.5490   24.1950  -29.9740 S   0  0  0  0  0  0  0  0  0  0  0  0
   -4.7430   24.5400  -28.5230 O   0  0  0  0  0  0  0  0  0  0  0  0
   -3.5790   25.1890  -30.5560 O   0  0  0  0  0  0  0  0  0  0  0  0
   -6.1070   24.3500  -30.7590 N   0  0  0  0  0  0  0  0  0  0  0  0
   -7.2120   23.8350  -29.9210 C   0  0  0  0  0  0  0  0  0  0  0  0
   -7.4490   22.3240  -30.0960 C   0  0  0  0  0  0  0  0  0  0  0  0
   -7.3070   21.9150  -31.4970 N   0  0  0  0  0  0  0  0  0  0  0  0
   -7.1240   20.5220  -31.8270 C   0  0  0  0  0  0  0  0  0  0  0  0
   -8.2190   19.6420  -31.8540 C   0  0  0  0  0  0  0  0  0  0  0  0
   -8.0450   18.3030  -32.2150 C   0  0  0  0  0  0  0  0  0  0  0  0
   -6.7790   17.8180  -32.5560 C   0  0  0  0  0  0  0  0  0  0  0  0
   -6.6550   16.4660  -32.9130 O   0  0  0  0  0  0  0  0  0  0  0  0
   -6.8560   15.9600  -34.2270 C   0  0  0  0  0  0  0  0  0  0  0  0
   -5.6790   18.6960  -32.5330 C   0  0  0  0  0  0  0  0  0  0  0  0
   -5.8530   20.0350  -32.1740 C   0  0  0  0  0  0  0  0  0  0  0  0
   -7.2440   22.9580  -32.5230 C   0  0  0  0  0  0  0  0  0  0  0  0
   -6.1060   23.9230  -32.1800 C   0  0  0  0  0  0  0  0  0  0  0  0
   -1.6413   21.7099  -30.5025 H   0  0  0  0  0  0  0  0  0  0  0  0
   -1.9461   20.8649  -32.0581 H   0  0  0  0  0  0  0  0  0  0  0  0
   -1.3731   22.5673  -32.0581 H   0  0  0  0  0  0  0  0  0  0  0  0
   -3.5222   23.2561  -32.0877 H   0  0  0  0  0  0  0  0  0  0  0  0
   -4.0869   21.5423  -31.9659 H   0  0  0  0  0  0  0  0  0  0  0  0
   -1.8683   22.2784  -29.6692 H   0  0  0  0  0  0  0  0  0  0  0  0
   -2.8274   23.1422  -28.4151 H   0  0  0  0  0  0  0  0  0  0  0  0
   -3.0480   21.1714  -27.3354 H   0  0  0  0  0  0  0  0  0  0  0  0
   -4.0654   20.6058  -28.7035 H   0  0  0  0  0  0  0  0  0  0  0  0
   -2.2989   20.2804  -28.7035 H   0  0  0  0  0  0  0  0  0  0  0  0
   -6.9721   24.0318  -28.8657 H   0  0  0  0  0  0  0  0  0  0  0  0
   -8.1311   24.3500  -30.2374 H   0  0  0  0  0  0  0  0  0  0  0  0
   -6.7156   21.7746  -29.4875 H   0  0  0  0  0  0  0  0  0  0  0  0
   -8.4757   22.0967  -29.7731 H   0  0  0  0  0  0  0  0  0  0  0  0
   -9.2212   20.0098  -31.5889 H   0  0  0  0  0  0  0  0  0  0  0  0
   -8.9113   17.6253  -32.2309 H   0  0  0  0  0  0  0  0  0  0  0  0
   -7.2615   14.9391  -34.1687 H   0  0  0  0  0  0  0  0  0  0  0  0
   -7.5657   16.6063  -34.7642 H   0  0  0  0  0  0  0  0  0  0  0  0
   -5.8963   15.9432  -34.7642 H   0  0  0  0  0  0  0  0  0  0  0  0
   -4.6777   18.3262  -32.7989 H   0  0  0  0  0  0  0  0  0  0  0  0
   -4.9873   20.7136  -32.1630 H   0  0  0  0  0  0  0  0  0  0  0  0
   -7.0558   22.4992  -33.5049 H   0  0  0  0  0  0  0  0  0  0  0  0
   -8.1981   23.5043  -32.5581 H   0  0  0  0  0  0  0  0  0  0  0  0
   -5.1491   23.4246  -32.3941 H   0  0  0  0  0  0  0  0  0  0  0  0
   -6.2489   24.8260  -32.7917 H   0  0  0  0  0  0  0  0  0  0  0  0
  1  2  1  0
  2  3  1  0
  3  4  1  0
  4  5  1  0
  3  6  1  0
  6  7  2  0
  6  8  2  0
  6  9  1  0
  9 10  1  0
 10 11  1  0
 11 12  1  0
 12 13  1  0
 13 14  2  0
 14 15  1  0
 15 16  2  0
 16 17  1  0
 17 18  1  0
 16 19  1  0
 19 20  2  0
 12 21  1  0
 21 22  1  0
 22  9  1  0
 20 13  1  0
  1 23  1  0
  1 24  1  0
  1 25  1  0
  2 26  1  0
  2 27  1  0
  4 28  1  0
  4 29  1  0
  5 30  1  0
  5 31  1  0
  5 32  1  0
 10 33  1  0
 10 34  1  0
 11 35  1  0
 11 36  1  0
 14 37  1  0
 15 38  1  0
 18 39  1  0
 18 40  1  0
 18 41  1  0
 19 42  1  0
 20 43  1  0
 21 44  1  0
 21 45  1  0
 22 46  1  0
 22 47  1  0
M  END
>  <UniqueID>  (15) 
15

>  <SMILES>  (15) 
CCN(CC)S(=O)(=O)N1CCN(c2ccc(OC)cc2)CC1

>  <Energy>  (15) 
50.87319620129887

>  <Genealogy>  (15) 
CCN(CC)S(=O)(=O)N1CCN(c2ccc(OC)cc2)CC1 (3D coordinates assigned)
CCN(CC)S(=O)(=O)N1CCN(c2ccc(OC)cc2)CC1 (nonaromatic ring conformer: 50.87319620129887 kcal/mol)

>  <smiles>  (15) 
CCN(CC)S(=O)(=O)N1CCN(c2ccc(OC)cc2)CC1

>  <score_type>  (15) 
oracle

>  <origin>  (15) 
adg

>  <m_score__min__energy>  (15) 
-7.7999999999999998

>  <m_primary>  (15) 
energy

$$$$
15:0
     RDKit          3D

 47 50  0  0  0  0  0  0  0  0999 V2000
   -9.0210   20.1090  -31.2920 C   0  0  0  0  0  0  0  0  0  0  0  0
   -8.7790   18.6210  -31.5180 C   0  0  0  0  0  0  0  0  0  0  0  0
   -7.3810   18.3320  -31.5340 O   0  0  0  0  0  0  0  0  0  0  0  0
   -6.6320   17.9360  -32.6570 C   0  0  0  0  0  0  0  0  0  0  0  0
   -6.1300   16.6270  -32.7990 C   0  0  0  0  0  0  0  0  0  0  0  0
   -5.3770   16.2760  -33.9200 C   0  0  0  0  0  0  0  0  0  0  0  0
   -5.1070   17.2210  -34.9080 C   0  0  0  0  0  0  0  0  0  0  0  0
   -5.5950   18.5230  -34.7810 C   0  0  0  0  0  0  0  0  0  0  0  0
   -6.3680   18.8880  -33.6660 C   0  0  0  0  0  0  0  0  0  0  0  0
   -6.8510   20.3100  -33.5340 C   0  0  0  0  0  0  0  0  0  0  0  0
   -5.8810   21.1110  -32.7150 C   0  0  0  0  0  0  0  0  0  0  0  0
   -4.6240   20.5950  -32.3850 C   0  0  0  0  0  0  0  0  0  0  0  0
   -3.7080   21.3790  -31.6660 C   0  0  0  0  0  0  0  0  0  0  0  0
   -2.3770   20.8010  -31.3660 C   0  0  0  0  0  0  0  0  0  0  0  0
   -1.4070   20.4740  -32.3090 C   0  0  0  0  0  0  0  0  0  0  0  0
   -0.2070   20.0250  -31.7420 C   0  0  0  0  0  0  0  0  0  0  0  0
   -0.2160   20.0120  -30.3550 C   0  0  0  0  0  0  0  0  0  0  0  0
   -1.7170   20.5620  -29.8350 S   0  0  0  0  0  0  0  0  0  0  0  0
   -4.0880   22.6810  -31.2570 C   0  0  0  0  0  0  0  0  0  0  0  0
   -5.3590   23.1670  -31.6350 C   0  0  0  0  0  0  0  0  0  0  0  0
   -6.2080   22.3730  -32.3380 N   0  0  0  0  0  0  0  0  0  0  0  0
   -5.8520   24.5200  -31.1860 C   0  0  0  0  0  0  0  0  0  0  0  0
   -4.7580   25.4130  -30.7860 N   0  0  0  0  0  0  0  0  0  0  0  0
   -3.8820   24.7490  -29.8150 C   0  0  0  0  0  0  0  0  0  0  0  0
   -3.1520   23.5680  -30.4630 C   0  0  0  0  0  0  0  0  0  0  0  0
   -9.0545   20.3151  -30.2120 H   0  0  0  0  0  0  0  0  0  0  0  0
   -8.2051   20.6870  -31.7505 H   0  0  0  0  0  0  0  0  0  0  0  0
   -9.9780   20.3986  -31.7505 H   0  0  0  0  0  0  0  0  0  0  0  0
   -9.2560   18.0507  -30.7073 H   0  0  0  0  0  0  0  0  0  0  0  0
   -9.2091   18.3372  -32.4898 H   0  0  0  0  0  0  0  0  0  0  0  0
   -6.3332   15.8767  -32.0207 H   0  0  0  0  0  0  0  0  0  0  0  0
   -4.9951   15.2497  -34.0243 H   0  0  0  0  0  0  0  0  0  0  0  0
   -4.5093   16.9411  -35.7880 H   0  0  0  0  0  0  0  0  0  0  0  0
   -5.3728   19.2680  -35.5592 H   0  0  0  0  0  0  0  0  0  0  0  0
   -6.9394   20.7585  -34.5345 H   0  0  0  0  0  0  0  0  0  0  0  0
   -7.8311   20.3121  -33.0346 H   0  0  0  0  0  0  0  0  0  0  0  0
   -4.3525   19.5733  -32.6892 H   0  0  0  0  0  0  0  0  0  0  0  0
   -1.5669   20.5597  -33.3939 H   0  0  0  0  0  0  0  0  0  0  0  0
    0.6611   19.7121  -32.3408 H   0  0  0  0  0  0  0  0  0  0  0  0
    0.6152   19.6964  -29.7074 H   0  0  0  0  0  0  0  0  0  0  0  0
   -6.4035   24.9874  -32.0151 H   0  0  0  0  0  0  0  0  0  0  0  0
   -6.4959   24.3662  -30.3075 H   0  0  0  0  0  0  0  0  0  0  0  0
   -4.2010   25.6720  -31.6350 H   0  0  0  0  0  0  0  0  0  0  0  0
   -3.1407   25.4720  -29.4439 H   0  0  0  0  0  0  0  0  0  0  0  0
   -4.4966   24.3720  -28.9842 H   0  0  0  0  0  0  0  0  0  0  0  0
   -2.3766   23.9587  -31.1384 H   0  0  0  0  0  0  0  0  0  0  0  0
   -2.7135   22.9601  -29.6579 H   0  0  0  0  0  0  0  0  0  0  0  0
  1  2  1  0
  2  3  1  0
  3  4  1  0
  4  5  2  0
  5  6  1  0
  6  7  2  0
  7  8  1  0
  8  9  2  0
  9 10  1  0
 10 11  1  0
 11 12  2  0
 12 13  1  0
 13 14  1  0
 14 15  2  0
 15 16  1  0
 16 17  2  0
 17 18  1  0
 13 19  2  0
 19 20  1  0
 20 21  2  0
 20 22  1  0
 22 23  1  0
 23 24  1  0
 24 25  1  0
  9  4  1  0
 21 11  1  0
 18 14  1  0
 25 19  1  0
  1 26  1  0
  1 27  1  0
  1 28  1  0
  2 29  1  0
  2 30  1  0
  5 31  1  0
  6 32  1  0
  7 33  1  0
  8 34  1  0
 10 35  1  0
 10 36  1  0
 12 37  1  0
 15 38  1  0
 16 39  1  0
 17 40  1  0
 22 41  1  0
 22 42  1  0
 23 43  1  0
 24 44  1  0
 24 45  1  0
 25 46  1  0
 25 47  1  0
M  END
>  <UniqueID>  (16) 
16

>  <SMILES>  (16) 
CCOc1ccccc1Cc1cc(-c2cccs2)c2c(n1)CNCC2

>  <Energy>  (16) 
81.39905364310393

>  <Genealogy>  (16) 
CCOc1ccccc1Cc1cc(-c2cccs2)c2c(n1)CNCC2 (3D coordinates assigned)
CCOc1ccccc1Cc1cc(-c2cccs2)c2c(n1)CNCC2 (nonaromatic ring conformer: 81.39905364310393 kcal/mol)

>  <smiles>  (16) 
CCOc1ccccc1Cc1cc(-c2cccs2)c2c(n1)CNCC2

>  <score_type>  (16) 
oracle

>  <origin>  (16) 
adg

>  <m_score__min__energy>  (16) 
-9.9000000000000004

>  <m_primary>  (16) 
energy

$$$$
16:0
     RDKit          3D

 49 51  0  0  0  0  0  0  0  0999 V2000
   -4.0600   23.7360  -28.5350 C   0  0  0  0  0  0  0  0  0  0  0  0
   -3.4450   24.5360  -29.6800 C   0  0  0  0  0  0  0  0  0  0  0  0
   -4.3990   24.6710  -30.8130 N   0  0  0  0  0  0  0  0  0  0  0  0
   -5.4610   25.6470  -30.4670 C   0  0  0  0  0  0  0  0  0  0  0  0
   -6.7530   24.9250  -30.0890 C   0  0  0  0  0  0  0  0  0  0  0  0
   -4.9810   23.3470  -31.1430 C   0  0  0  0  0  0  0  0  0  0  0  0
   -4.0130   22.4400  -31.9250 C   0  0  0  0  0  0  0  0  0  0  0  0
   -4.6270   21.8370  -33.1140 N   0  0  0  0  0  0  0  0  0  0  0  0
   -5.1080   20.4800  -33.1540 C   0  0  0  0  0  0  0  0  0  0  0  0
   -4.2560   19.4150  -33.5050 C   0  0  0  0  0  0  0  0  0  0  0  0
   -2.8580   19.5970  -33.5770 C   0  0  0  0  0  0  0  0  0  0  0  0
   -2.0190   18.5400  -33.9200 C   0  0  0  0  0  0  0  0  0  0  0  0
   -2.5480   17.2780  -34.1610 C   0  0  0  0  0  0  0  0  0  0  0  0
   -1.3840   15.8250  -34.5900 Br  0  0  0  0  0  0  0  0  0  0  0  0
   -3.9230   17.0640  -34.0540 C   0  0  0  0  0  0  0  0  0  0  0  0
   -4.8070   18.1250  -33.7320 C   0  0  0  0  0  0  0  0  0  0  0  0
   -6.1690   17.9240  -33.6060 N   0  0  0  0  0  0  0  0  0  0  0  0
   -6.7890   16.6870  -34.1220 C   0  0  0  0  0  0  0  0  0  0  0  0
   -6.9540   18.8880  -33.0080 C   0  0  0  0  0  0  0  0  0  0  0  0
   -8.2390   18.6120  -32.6040 N   0  0  0  0  0  0  0  0  0  0  0  0
   -9.0530   19.5660  -32.0790 C   0  0  0  0  0  0  0  0  0  0  0  0
   -8.5980   20.8690  -31.9200 C   0  0  0  0  0  0  0  0  0  0  0  0
   -7.2920   21.1820  -32.2750 C   0  0  0  0  0  0  0  0  0  0  0  0
   -6.4410   20.1940  -32.8060 C   0  0  0  0  0  0  0  0  0  0  0  0
   -3.7335   24.1607  -27.5742 H   0  0  0  0  0  0  0  0  0  0  0  0
   -5.1569   23.7828  -28.6028 H   0  0  0  0  0  0  0  0  0  0  0  0
   -3.7328   22.6880  -28.6028 H   0  0  0  0  0  0  0  0  0  0  0  0
   -3.1774   25.5384  -29.3145 H   0  0  0  0  0  0  0  0  0  0  0  0
   -2.5516   24.0031  -30.0376 H   0  0  0  0  0  0  0  0  0  0  0  0
   -5.1265   26.2586  -29.6161 H   0  0  0  0  0  0  0  0  0  0  0  0
   -5.6545   26.2852  -31.3418 H   0  0  0  0  0  0  0  0  0  0  0  0
   -6.8391   24.8769  -28.9934 H   0  0  0  0  0  0  0  0  0  0  0  0
   -7.6133   25.4731  -30.5007 H   0  0  0  0  0  0  0  0  0  0  0  0
   -6.7370   23.9051  -30.5007 H   0  0  0  0  0  0  0  0  0  0  0  0
   -5.2544   22.8412  -30.2053 H   0  0  0  0  0  0  0  0  0  0  0  0
   -5.8561   23.5241  -31.7855 H   0  0  0  0  0  0  0  0  0  0  0  0
   -3.1489   23.0416  -32.2435 H   0  0  0  0  0  0  0  0  0  0  0  0
   -3.7171   21.6192  -31.2551 H   0  0  0  0  0  0  0  0  0  0  0  0
   -4.6050   22.3880  -34.0020 H   0  0  0  0  0  0  0  0  0  0  0  0
   -2.4265   20.5852  -33.3596 H   0  0  0  0  0  0  0  0  0  0  0  0
   -0.9344   18.7045  -34.0004 H   0  0  0  0  0  0  0  0  0  0  0  0
   -4.3279   16.0552  -34.2223 H   0  0  0  0  0  0  0  0  0  0  0  0
   -7.1053   16.0559  -33.2784 H   0  0  0  0  0  0  0  0  0  0  0  0
   -7.6647   16.9443  -34.7360 H   0  0  0  0  0  0  0  0  0  0  0  0
   -6.0588   16.1394  -34.7360 H   0  0  0  0  0  0  0  0  0  0  0  0
   -8.6300   17.6460  -32.6430 H   0  0  0  0  0  0  0  0  0  0  0  0
  -10.0783   19.3046  -31.7782 H   0  0  0  0  0  0  0  0  0  0  0  0
   -9.2653   21.6451  -31.5170 H   0  0  0  0  0  0  0  0  0  0  0  0
   -6.9202   22.2085  -32.1404 H   0  0  0  0  0  0  0  0  0  0  0  0
  1  2  1  0
  2  3  1  0
  3  4  1  0
  4  5  1  0
  3  6  1  0
  6  7  1  0
  7  8  1  0
  8  9  1  0
  9 10  2  0
 10 11  1  0
 11 12  2  0
 12 13  1  0
 13 14  1  0
 13 15  2  0
 15 16  1  0
 16 17  2  0
 17 18  1  0
 17 19  1  0
 19 20  2  0
 20 21  1  0
 21 22  2  0
 22 23  1  0
 23 24  2  0
 24  9  1  0
 16 10  1  0
 24 19  1  0
  1 25  1  0
  1 26  1  0
  1 27  1  0
  2 28  1  0
  2 29  1  0
  4 30  1  0
  4 31  1  0
  5 32  1  0
  5 33  1  0
  5 34  1  0
  6 35  1  0
  6 36  1  0
  7 37  1  0
  7 38  1  0
  8 39  1  0
 11 40  1  0
 12 41  1  0
 15 42  1  0
 18 43  1  0
 18 44  1  0
 18 45  1  0
 20 46  1  0
 21 47  1  0
 22 48  1  0
 23 49  1  0
M  CHG  2  17   1  20   1
M  END
>  <UniqueID>  (17) 
17

>  <SMILES>  (17) 
CCN(CC)CCNc1c2ccc(Br)cc2[n+](C)c2[nH+]cccc12

>  <Energy>  (17) 
71.70723542976879

>  <Genealogy>  (17) 
CCN(CC)CCNc1c2ccc(Br)cc2[n+](C)c2[nH+]cccc12 (protonated)
CCN(CC)CCNc1c2ccc(Br)cc2[n+](C)c2[nH+]cccc12 (3D coordinates assigned)
CCN(CC)CCNc1c2ccc(Br)cc2[n+](C)c2[nH+]cccc12 (optimized conformer: 71.70723542976879 kcal/mol)

>  <smiles>  (17) 
CCN(CC)CCNc1c2ccc(Br)cc2[n+](C)c2ncccc12

>  <score_type>  (17) 
oracle

>  <origin>  (17) 
adg

>  <m_score__min__energy>  (17) 
-7.5800000000000001

>  <m_primary>  (17) 
energy

$$$$
17:0
     RDKit          3D

 50 52  0  0  0  0  0  0  0  0999 V2000
   -6.2120   25.1220  -29.8910 C   0  0  0  0  0  0  0  0  0  0  0  0
   -5.0180   25.2800  -30.8350 C   0  0  0  0  0  0  0  0  0  0  0  0
   -3.9420   24.2910  -30.6060 N   0  0  0  0  0  0  0  0  0  0  0  0
   -3.1070   24.5480  -29.4040 C   0  0  0  0  0  0  0  0  0  0  0  0
   -3.6390   23.9380  -28.0990 C   0  0  0  0  0  0  0  0  0  0  0  0
   -4.3480   22.8900  -30.8520 C   0  0  0  0  0  0  0  0  0  0  0  0
   -3.6270   22.3200  -32.0770 C   0  0  0  0  0  0  0  0  0  0  0  0
   -4.5980   21.9510  -33.1040 N   0  0  0  0  0  0  0  0  0  0  0  0
   -5.6700   21.0390  -32.8230 C   0  0  0  0  0  0  0  0  0  0  0  0
   -5.4530   19.6640  -32.8820 C   0  0  0  0  0  0  0  0  0  0  0  0
   -6.4550   18.7770  -32.5870 C   0  0  0  0  0  0  0  0  0  0  0  0
   -7.7190   19.1910  -32.2450 N   0  0  0  0  0  0  0  0  0  0  0  0
   -8.7760   18.1980  -31.9710 C   0  0  0  0  0  0  0  0  0  0  0  0
   -7.9770   20.5490  -32.1460 C   0  0  0  0  0  0  0  0  0  0  0  0
   -9.2480   21.0360  -31.7550 C   0  0  0  0  0  0  0  0  0  0  0  0
   -9.4940   22.4070  -31.6660 C   0  0  0  0  0  0  0  0  0  0  0  0
   -8.4890   23.3220  -31.9580 C   0  0  0  0  0  0  0  0  0  0  0  0
   -7.2250   22.8770  -32.3390 C   0  0  0  0  0  0  0  0  0  0  0  0
   -6.9470   21.4980  -32.4340 C   0  0  0  0  0  0  0  0  0  0  0  0
   -5.9710   17.3680  -32.6690 C   0  0  0  0  0  0  0  0  0  0  0  0
   -4.4630   17.4950  -32.9340 C   0  0  0  0  0  0  0  0  0  0  0  0
   -4.1700   18.9800  -33.1910 C   0  0  0  0  0  0  0  0  0  0  0  0
   -5.8639   25.1681  -28.8486 H   0  0  0  0  0  0  0  0  0  0  0  0
   -6.9330   25.9326  -30.0729 H   0  0  0  0  0  0  0  0  0  0  0  0
   -6.6974   24.1518  -30.0729 H   0  0  0  0  0  0  0  0  0  0  0  0
   -5.3763   25.1697  -31.8691 H   0  0  0  0  0  0  0  0  0  0  0  0
   -4.5866   26.2735  -30.6431 H   0  0  0  0  0  0  0  0  0  0  0  0
   -2.1051   24.1339  -29.5902 H   0  0  0  0  0  0  0  0  0  0  0  0
   -3.1099   25.6380  -29.2562 H   0  0  0  0  0  0  0  0  0  0  0  0
   -3.1867   24.4566  -27.2408 H   0  0  0  0  0  0  0  0  0  0  0  0
   -4.7326   24.0506  -28.0607 H   0  0  0  0  0  0  0  0  0  0  0  0
   -3.3788   22.8699  -28.0607 H   0  0  0  0  0  0  0  0  0  0  0  0
   -4.0964   22.2819  -29.9706 H   0  0  0  0  0  0  0  0  0  0  0  0
   -5.4318   22.8654  -31.0386 H   0  0  0  0  0  0  0  0  0  0  0  0
   -2.9407   23.0788  -32.4810 H   0  0  0  0  0  0  0  0  0  0  0  0
   -3.0614   21.4252  -31.7780 H   0  0  0  0  0  0  0  0  0  0  0  0
   -4.3470   22.1340  -34.1020 H   0  0  0  0  0  0  0  0  0  0  0  0
   -8.8983   18.0831  -30.8839 H   0  0  0  0  0  0  0  0  0  0  0  0
   -9.7237   18.5400  -32.4125 H   0  0  0  0  0  0  0  0  0  0  0  0
   -8.4938   17.2308  -32.4125 H   0  0  0  0  0  0  0  0  0  0  0  0
  -10.0524   20.3240  -31.5182 H   0  0  0  0  0  0  0  0  0  0  0  0
  -10.4888   22.7655  -31.3631 H   0  0  0  0  0  0  0  0  0  0  0  0
   -8.6924   24.4008  -31.8880 H   0  0  0  0  0  0  0  0  0  0  0  0
   -6.4362   23.6086  -32.5680 H   0  0  0  0  0  0  0  0  0  0  0  0
   -6.1564   16.8374  -31.7234 H   0  0  0  0  0  0  0  0  0  0  0  0
   -6.4867   16.7931  -33.4523 H   0  0  0  0  0  0  0  0  0  0  0  0
   -3.8959   17.1451  -32.0588 H   0  0  0  0  0  0  0  0  0  0  0  0
   -4.1659   16.8833  -33.7986 H   0  0  0  0  0  0  0  0  0  0  0  0
   -3.3674   19.3393  -32.5301 H   0  0  0  0  0  0  0  0  0  0  0  0
   -3.8283   19.1701  -34.2192 H   0  0  0  0  0  0  0  0  0  0  0  0
  1  2  1  0
  2  3  1  0
  3  4  1  0
  4  5  1  0
  3  6  1  0
  6  7  1  0
  7  8  1  0
  8  9  1  0
  9 10  2  0
 10 11  1  0
 11 12  2  0
 12 13  1  0
 12 14  1  0
 14 15  2  0
 15 16  1  0
 16 17  2  0
 17 18  1  0
 18 19  2  0
 11 20  1  0
 20 21  1  0
 21 22  1  0
 19  9  1  0
 22 10  1  0
 19 14  1  0
  1 23  1  0
  1 24  1  0
  1 25  1  0
  2 26  1  0
  2 27  1  0
  4 28  1  0
  4 29  1  0
  5 30  1  0
  5 31  1  0
  5 32  1  0
  6 33  1  0
  6 34  1  0
  7 35  1  0
  7 36  1  0
  8 37  1  0
 13 38  1  0
 13 39  1  0
 13 40  1  0
 15 41  1  0
 16 42  1  0
 17 43  1  0
 18 44  1  0
 20 45  1  0
 20 46  1  0
 21 47  1  0
 21 48  1  0
 22 49  1  0
 22 50  1  0
M  CHG  1  12   1
M  END
>  <UniqueID>  (18) 
18

>  <SMILES>  (18) 
CCN(CC)CCNc1c2c([n+](C)c3ccccc13)CCC2

>  <Energy>  (18) 
76.28547541385743

>  <Genealogy>  (18) 
CCN(CC)CCNc1c2c([n+](C)c3ccccc13)CCC2 (3D coordinates assigned)
CCN(CC)CCNc1c2c([n+](C)c3ccccc13)CCC2 (nonaromatic ring conformer: 76.28547541385743 kcal/mol)

>  <smiles>  (18) 
CCN(CC)CCNc1c2c([n+](C)c3ccccc13)CCC2

>  <score_type>  (18) 
oracle

>  <origin>  (18) 
adg

>  <m_score__min__energy>  (18) 
-8.3900000000000006

>  <m_primary>  (18) 
energy

$$$$
18:0
     RDKit          3D

 67 69  0  0  0  0  0  0  0  0999 V2000
   -0.8610   26.8280  -23.8460 C   0  0  0  0  0  0  0  0  0  0  0  0
   -1.2380   26.8550  -25.3320 C   0  0  0  0  0  0  0  0  0  0  0  0
   -1.5840   25.5360  -25.9310 N   0  0  0  0  0  0  0  0  0  0  0  0
   -0.8890   24.3920  -25.2730 C   0  0  0  0  0  0  0  0  0  0  0  0
   -0.2710   23.3410  -26.2160 C   0  0  0  0  0  0  0  0  0  0  0  0
   -3.0400   25.2990  -26.1370 C   0  0  0  0  0  0  0  0  0  0  0  0
   -3.3680   24.5410  -27.4390 C   0  0  0  0  0  0  0  0  0  0  0  0
   -2.4320   24.8280  -28.4600 O   0  0  0  0  0  0  0  0  0  0  0  0
   -2.3040   23.7470  -29.3700 C   0  0  0  0  0  0  0  0  0  0  0  0
   -3.4430   23.7620  -30.3960 C   0  0  0  0  0  0  0  0  0  0  0  0
   -3.8970   25.0870  -30.5810 O   0  0  0  0  0  0  0  0  0  0  0  0
   -5.2880   25.0980  -30.8320 C   0  0  0  0  0  0  0  0  0  0  0  0
   -5.7970   23.6600  -30.9110 C   0  0  0  0  0  0  0  0  0  0  0  0
   -5.8330   23.2010  -32.3000 N   0  0  0  0  0  0  0  0  0  0  0  0
   -5.8730   21.8030  -32.6330 C   0  0  0  0  0  0  0  0  0  0  0  0
   -7.0690   21.0770  -32.4980 C   0  0  0  0  0  0  0  0  0  0  0  0
   -8.2540   21.7020  -32.0550 C   0  0  0  0  0  0  0  0  0  0  0  0
   -9.4340   20.9720  -31.9190 C   0  0  0  0  0  0  0  0  0  0  0  0
   -9.4540   19.6140  -32.2220 C   0  0  0  0  0  0  0  0  0  0  0  0
   -8.3020   18.9840  -32.6890 C   0  0  0  0  0  0  0  0  0  0  0  0
   -7.0920   19.7050  -32.8600 C   0  0  0  0  0  0  0  0  0  0  0  0
   -5.9600   19.1030  -33.3740 N   0  0  0  0  0  0  0  0  0  0  0  0
   -6.1190   17.9030  -34.2190 C   0  0  0  0  0  0  0  0  0  0  0  0
   -4.7320   19.7380  -33.2770 C   0  0  0  0  0  0  0  0  0  0  0  0
   -3.4790   19.0520  -33.4120 C   0  0  0  0  0  0  0  0  0  0  0  0
   -3.3240   17.5580  -33.2770 C   0  0  0  0  0  0  0  0  0  0  0  0
   -2.2960   19.7940  -33.5570 C   0  0  0  0  0  0  0  0  0  0  0  0
   -2.3060   21.1790  -33.4650 C   0  0  0  0  0  0  0  0  0  0  0  0
   -3.4890   21.8450  -33.1720 C   0  0  0  0  0  0  0  0  0  0  0  0
   -4.7000   21.1380  -33.0310 C   0  0  0  0  0  0  0  0  0  0  0  0
   -1.7734   26.8933  -23.2350 H   0  0  0  0  0  0  0  0  0  0  0  0
   -0.3337   25.8898  -23.6185 H   0  0  0  0  0  0  0  0  0  0  0  0
   -0.2054   27.6815  -23.6185 H   0  0  0  0  0  0  0  0  0  0  0  0
   -2.1075   27.5185  -25.4488 H   0  0  0  0  0  0  0  0  0  0  0  0
   -0.3401   27.2017  -25.8645 H   0  0  0  0  0  0  0  0  0  0  0  0
   -1.1640   25.5740  -26.8920 H   0  0  0  0  0  0  0  0  0  0  0  0
   -0.0799   24.8029  -24.6514 H   0  0  0  0  0  0  0  0  0  0  0  0
   -1.6674   23.8596  -24.7067 H   0  0  0  0  0  0  0  0  0  0  0  0
    0.1976   22.5440  -25.6200 H   0  0  0  0  0  0  0  0  0  0  0  0
   -1.0590   22.9092  -26.8505 H   0  0  0  0  0  0  0  0  0  0  0  0
    0.4894   23.8197  -26.8505 H   0  0  0  0  0  0  0  0  0  0  0  0
   -3.4194   24.7111  -25.2882 H   0  0  0  0  0  0  0  0  0  0  0  0
   -3.5184   26.2867  -26.2116 H   0  0  0  0  0  0  0  0  0  0  0  0
   -3.3539   23.4600  -27.2357 H   0  0  0  0  0  0  0  0  0  0  0  0
   -4.3616   24.8637  -27.7833 H   0  0  0  0  0  0  0  0  0  0  0  0
   -1.3423   23.8313  -29.8973 H   0  0  0  0  0  0  0  0  0  0  0  0
   -2.3496   22.8037  -28.8060 H   0  0  0  0  0  0  0  0  0  0  0  0
   -3.0781   23.3630  -31.3539 H   0  0  0  0  0  0  0  0  0  0  0  0
   -4.2726   23.1394  -30.0298 H   0  0  0  0  0  0  0  0  0  0  0  0
   -5.8044   25.6266  -30.0172 H   0  0  0  0  0  0  0  0  0  0  0  0
   -5.4871   25.6127  -31.7836 H   0  0  0  0  0  0  0  0  0  0  0  0
   -5.1271   23.0073  -30.3320 H   0  0  0  0  0  0  0  0  0  0  0  0
   -6.8161   23.6218  -30.4988 H   0  0  0  0  0  0  0  0  0  0  0  0
   -5.7240   23.8990  -33.0750 H   0  0  0  0  0  0  0  0  0  0  0  0
   -8.2467   22.7754  -31.8147 H   0  0  0  0  0  0  0  0  0  0  0  0
  -10.3509   21.4705  -31.5715 H   0  0  0  0  0  0  0  0  0  0  0  0
  -10.3812   19.0365  -32.0926 H   0  0  0  0  0  0  0  0  0  0  0  0
   -8.3312   17.9109  -32.9288 H   0  0  0  0  0  0  0  0  0  0  0  0
   -6.2365   17.0165  -33.5785 H   0  0  0  0  0  0  0  0  0  0  0  0
   -7.0099   18.0172  -34.8541 H   0  0  0  0  0  0  0  0  0  0  0  0
   -5.2291   17.7812  -34.8541 H   0  0  0  0  0  0  0  0  0  0  0  0
   -3.2959   17.2871  -32.2113 H   0  0  0  0  0  0  0  0  0  0  0  0
   -4.1749   17.0559  -33.7606 H   0  0  0  0  0  0  0  0  0  0  0  0
   -2.3882   17.2413  -33.7606 H   0  0  0  0  0  0  0  0  0  0  0  0
   -1.3474   19.2702  -33.7463 H   0  0  0  0  0  0  0  0  0  0  0  0
   -1.3783   21.7483  -33.6239 H   0  0  0  0  0  0  0  0  0  0  0  0
   -3.4807   22.9380  -33.0484 H   0  0  0  0  0  0  0  0  0  0  0  0
  1  2  1  0
  2  3  1  0
  3  4  1  0
  4  5  1  0
  3  6  1  0
  6  7  1  0
  7  8  1  0
  8  9  1  0
  9 10  1  0
 10 11  1  0
 11 12  1  0
 12 13  1  0
 13 14  1  0
 14 15  1  0
 15 16  2  0
 16 17  1  0
 17 18  2  0
 18 19  1  0
 19 20  2  0
 20 21  1  0
 21 22  2  0
 22 23  1  0
 22 24  1  0
 24 25  2  0
 25 26  1  0
 25 27  1  0
 27 28  2  0
 28 29  1  0
 29 30  2  0
 30 15  1  0
 21 16  1  0
 30 24  1  0
  1 31  1  0
  1 32  1  0
  1 33  1  0
  2 34  1  0
  2 35  1  0
  3 36  1  0
  4 37  1  0
  4 38  1  0
  5 39  1  0
  5 40  1  0
  5 41  1  0
  6 42  1  0
  6 43  1  0
  7 44  1  0
  7 45  1  0
  9 46  1  0
  9 47  1  0
 10 48  1  0
 10 49  1  0
 12 50  1  0
 12 51  1  0
 13 52  1  0
 13 53  1  0
 14 54  1  0
 17 55  1  0
 18 56  1  0
 19 57  1  0
 20 58  1  0
 23 59  1  0
 23 60  1  0
 23 61  1  0
 26 62  1  0
 26 63  1  0
 26 64  1  0
 27 65  1  0
 28 66  1  0
 29 67  1  0
M  CHG  2   3   1  22   1
M  END
>  <UniqueID>  (19) 
19

>  <SMILES>  (19) 
CC[NH+](CC)CCOCCOCCNc1c2ccccc2[n+](C)c2c(C)cccc12

>  <Energy>  (19) 
115.73943744239207

>  <Genealogy>  (19) 
CC[NH+](CC)CCOCCOCCNc1c2ccccc2[n+](C)c2c(C)cccc12 (protonated)
CC[NH+](CC)CCOCCOCCNc1c2ccccc2[n+](C)c2c(C)cccc12 (3D coordinates assigned)
CC[NH+](CC)CCOCCOCCNc1c2ccccc2[n+](C)c2c(C)cccc12 (optimized conformer: 115.73943744239207 kcal/mol)

>  <smiles>  (19) 
CCN(CC)CCOCCOCCNc1c2ccccc2[n+](C)c2c(C)cccc12

>  <score_type>  (19) 
oracle

>  <origin>  (19) 
adg

>  <m_score__min__energy>  (19) 
-9.0299999999999994

>  <m_primary>  (19) 
energy

$$$$
19:0
     RDKit          3D

 52 54  0  0  0  0  0  0  0  0999 V2000
   -9.2850   22.6720  -31.9710 C   0  0  0  0  0  0  0  0  0  0  0  0
   -9.5230   21.1670  -32.0050 C   0  0  0  0  0  0  0  0  0  0  0  0
   -8.2590   20.4390  -32.3370 C   0  0  0  0  0  0  0  0  0  0  0  0
   -7.0350   21.0350  -32.6210 C   0  0  0  0  0  0  0  0  0  0  0  0
   -6.0360   20.1020  -32.9370 C   0  0  0  0  0  0  0  0  0  0  0  0
   -4.7030   20.3890  -33.2290 C   0  0  0  0  0  0  0  0  0  0  0  0
   -4.2330   21.7460  -33.1780 N   0  0  0  0  0  0  0  0  0  0  0  0
   -3.6450   22.2910  -31.9550 C   0  0  0  0  0  0  0  0  0  0  0  0
   -4.7020   23.0270  -31.1200 C   0  0  0  0  0  0  0  0  0  0  0  0
   -4.2960   24.4230  -30.8380 N   0  0  0  0  0  0  0  0  0  0  0  0
   -5.4840   25.3060  -30.7850 C   0  0  0  0  0  0  0  0  0  0  0  0
   -6.7460   24.5230  -30.4190 C   0  0  0  0  0  0  0  0  0  0  0  0
   -3.4800   24.5180  -29.5990 C   0  0  0  0  0  0  0  0  0  0  0  0
   -4.0250   23.5550  -28.5520 C   0  0  0  0  0  0  0  0  0  0  0  0
   -3.8410   19.3160  -33.5550 C   0  0  0  0  0  0  0  0  0  0  0  0
   -2.5080   19.5540  -33.9430 C   0  0  0  0  0  0  0  0  0  0  0  0
   -1.6600   18.4960  -34.2600 C   0  0  0  0  0  0  0  0  0  0  0  0
   -2.1250   17.1860  -34.2080 C   0  0  0  0  0  0  0  0  0  0  0  0
   -3.4470   16.9210  -33.8500 C   0  0  0  0  0  0  0  0  0  0  0  0
   -4.3380   17.9730  -33.5230 C   0  0  0  0  0  0  0  0  0  0  0  0
   -5.6590   17.7230  -33.1880 N   0  0  0  0  0  0  0  0  0  0  0  0
   -6.1870   16.3470  -33.1390 C   0  0  0  0  0  0  0  0  0  0  0  0
   -6.4770   18.7880  -32.9160 C   0  0  0  0  0  0  0  0  0  0  0  0
   -8.1150   18.7670  -32.5030 S   0  0  0  0  0  0  0  0  0  0  0  0
   -9.2314   23.0112  -30.9260 H   0  0  0  0  0  0  0  0  0  0  0  0
   -8.3388   22.9052  -32.4812 H   0  0  0  0  0  0  0  0  0  0  0  0
  -10.1131   23.1858  -32.4812 H   0  0  0  0  0  0  0  0  0  0  0  0
   -9.8822   20.8359  -31.0194 H   0  0  0  0  0  0  0  0  0  0  0  0
  -10.2726   20.9450  -32.7788 H   0  0  0  0  0  0  0  0  0  0  0  0
   -6.8679   22.1220  -32.6001 H   0  0  0  0  0  0  0  0  0  0  0  0
   -4.6240   22.4260  -33.8680 H   0  0  0  0  0  0  0  0  0  0  0  0
   -3.2249   21.4672  -31.3592 H   0  0  0  0  0  0  0  0  0  0  0  0
   -2.8561   23.0056  -32.2324 H   0  0  0  0  0  0  0  0  0  0  0  0
   -5.6522   23.0362  -31.6741 H   0  0  0  0  0  0  0  0  0  0  0  0
   -4.8126   22.4996  -30.1611 H   0  0  0  0  0  0  0  0  0  0  0  0
   -5.3158   26.0872  -30.0291 H   0  0  0  0  0  0  0  0  0  0  0  0
   -5.6293   25.7507  -31.7806 H   0  0  0  0  0  0  0  0  0  0  0  0
   -6.8377   24.4661  -29.3243 H   0  0  0  0  0  0  0  0  0  0  0  0
   -7.6275   25.0331  -30.8347 H   0  0  0  0  0  0  0  0  0  0  0  0
   -6.6804   23.5067  -30.8347 H   0  0  0  0  0  0  0  0  0  0  0  0
   -2.4360   24.2575  -29.8276 H   0  0  0  0  0  0  0  0  0  0  0  0
   -3.5267   25.5455  -29.2092 H   0  0  0  0  0  0  0  0  0  0  0  0
   -3.8051   23.9436  -27.5467 H   0  0  0  0  0  0  0  0  0  0  0  0
   -5.1134   23.4554  -28.6766 H   0  0  0  0  0  0  0  0  0  0  0  0
   -3.5501   22.5707  -28.6766 H   0  0  0  0  0  0  0  0  0  0  0  0
   -2.1329   20.5867  -33.9962 H   0  0  0  0  0  0  0  0  0  0  0  0
   -0.6188   18.6968  -34.5525 H   0  0  0  0  0  0  0  0  0  0  0  0
   -1.4467   16.3547  -34.4505 H   0  0  0  0  0  0  0  0  0  0  0  0
   -3.8027   15.8805  -33.8212 H   0  0  0  0  0  0  0  0  0  0  0  0
   -6.3059   16.0370  -32.0903 H   0  0  0  0  0  0  0  0  0  0  0  0
   -7.1630   16.3105  -33.6451 H   0  0  0  0  0  0  0  0  0  0  0  0
   -5.4859   15.6670  -33.6451 H   0  0  0  0  0  0  0  0  0  0  0  0
  1  2  1  0
  2  3  1  0
  3  4  2  0
  4  5  1  0
  5  6  2  0
  6  7  1  0
  7  8  1  0
  8  9  1  0
  9 10  1  0
 10 11  1  0
 11 12  1  0
 10 13  1  0
 13 14  1  0
  6 15  1  0
 15 16  2  0
 16 17  1  0
 17 18  2  0
 18 19  1  0
 19 20  2  0
 20 21  1  0
 21 22  1  0
 21 23  2  0
 23 24  1  0
 24  3  1  0
 23  5  1  0
 20 15  1  0
  1 25  1  0
  1 26  1  0
  1 27  1  0
  2 28  1  0
  2 29  1  0
  4 30  1  0
  7 31  1  0
  8 32  1  0
  8 33  1  0
  9 34  1  0
  9 35  1  0
 11 36  1  0
 11 37  1  0
 12 38  1  0
 12 39  1  0
 12 40  1  0
 13 41  1  0
 13 42  1  0
 14 43  1  0
 14 44  1  0
 14 45  1  0
 16 46  1  0
 17 47  1  0
 18 48  1  0
 19 49  1  0
 22 50  1  0
 22 51  1  0
 22 52  1  0
M  CHG  1  21   1
M  END
>  <UniqueID>  (20) 
20

>  <SMILES>  (20) 
CCc1cc2c(NCCN(CC)CC)c3ccccc3[n+](C)c2s1

>  <Energy>  (20) 
90.4380765843485

>  <Genealogy>  (20) 
CCc1cc2c(NCCN(CC)CC)c3ccccc3[n+](C)c2s1 (3D coordinates assigned)
CCc1cc2c(NCCN(CC)CC)c3ccccc3[n+](C)c2s1 (optimized conformer: 90.4380765843485 kcal/mol)

>  <smiles>  (20) 
CCc1cc2c(NCCN(CC)CC)c3ccccc3[n+](C)c2s1

>  <score_type>  (20) 
oracle

>  <origin>  (20) 
adg

>  <m_score__min__energy>  (20) 
-8.5899999999999999

>  <m_primary>  (20) 
energy

$$$$
20:0
     RDKit          3D

 30 32  0  0  0  0  0  0  0  0999 V2000
   -4.4390   21.8820  -33.2520 O   0  0  0  0  0  0  0  0  0  0  0  0
   -5.2940   21.8200  -32.3280 C   0  0  0  0  0  0  0  0  0  0  0  0
   -5.3240   22.8800  -31.2920 C   0  0  0  0  0  0  0  0  0  0  0  0
   -5.8250   24.1570  -31.6020 C   0  0  0  0  0  0  0  0  0  0  0  0
   -5.8510   25.1630  -30.6310 C   0  0  0  0  0  0  0  0  0  0  0  0
   -5.3700   24.9080  -29.3450 C   0  0  0  0  0  0  0  0  0  0  0  0
   -4.8590   23.6470  -29.0270 C   0  0  0  0  0  0  0  0  0  0  0  0
   -4.8310   22.6380  -29.9940 C   0  0  0  0  0  0  0  0  0  0  0  0
   -6.2280   20.6730  -32.3020 C   0  0  0  0  0  0  0  0  0  0  0  0
   -7.4550   20.6100  -31.6510 C   0  0  0  0  0  0  0  0  0  0  0  0
   -8.0860   21.6850  -30.8240 C   0  0  0  0  0  0  0  0  0  0  0  0
   -9.0770   22.8930  -31.9670 Br  0  0  0  0  0  0  0  0  0  0  0  0
   -8.0170   19.3910  -31.8320 N   0  0  0  0  0  0  0  0  0  0  0  0
   -7.1160   18.7410  -32.5970 C   0  0  0  0  0  0  0  0  0  0  0  0
   -7.2330   17.4260  -33.0430 C   0  0  0  0  0  0  0  0  0  0  0  0
   -6.1760   16.8950  -33.7980 C   0  0  0  0  0  0  0  0  0  0  0  0
   -5.0380   17.6760  -34.0750 C   0  0  0  0  0  0  0  0  0  0  0  0
   -3.7090   17.0060  -35.0010 Cl  0  0  0  0  0  0  0  0  0  0  0  0
   -4.9720   18.9940  -33.5970 C   0  0  0  0  0  0  0  0  0  0  0  0
   -6.0300   19.4790  -32.8910 N   0  0  0  0  0  0  0  0  0  0  0  0
   -6.1990   24.3659  -32.6152 H   0  0  0  0  0  0  0  0  0  0  0  0
   -6.2510   26.1568  -30.8806 H   0  0  0  0  0  0  0  0  0  0  0  0
   -5.3934   25.7001  -28.5821 H   0  0  0  0  0  0  0  0  0  0  0  0
   -4.4782   23.4480  -28.0144 H   0  0  0  0  0  0  0  0  0  0  0  0
   -4.4217   21.6490  -29.7403 H   0  0  0  0  0  0  0  0  0  0  0  0
   -8.7704   21.2295  -30.0931 H   0  0  0  0  0  0  0  0  0  0  0  0
   -7.3007   22.2459  -30.2960 H   0  0  0  0  0  0  0  0  0  0  0  0
   -8.1241   16.8243  -32.8110 H   0  0  0  0  0  0  0  0  0  0  0  0
   -6.2370   15.8635  -34.1752 H   0  0  0  0  0  0  0  0  0  0  0  0
   -4.0875   19.6194  -33.7881 H   0  0  0  0  0  0  0  0  0  0  0  0
  1  2  2  0
  2  3  1  0
  3  4  2  0
  4  5  1  0
  5  6  2  0
  6  7  1  0
  7  8  2  0
  2  9  1  0
  9 10  2  0
 10 11  1  0
 11 12  1  0
 10 13  1  0
 13 14  2  0
 14 15  1  0
 15 16  2  0
 16 17  1  0
 17 18  1  0
 17 19  2  0
 19 20  1  0
  8  3  1  0
 20  9  1  0
 20 14  1  0
  4 21  1  0
  5 22  1  0
  6 23  1  0
  7 24  1  0
  8 25  1  0
 11 26  1  0
 11 27  1  0
 15 28  1  0
 16 29  1  0
 19 30  1  0
M  END
>  <UniqueID>  (21) 
21

>  <SMILES>  (21) 
O=C(c1ccccc1)c1c(CBr)nc2ccc(Cl)cn12

>  <Energy>  (21) 
72.39175375862663

>  <Genealogy>  (21) 
O=C(c1ccccc1)c1c(CBr)nc2ccc(Cl)cn12 (3D coordinates assigned)
O=C(c1ccccc1)c1c(CBr)nc2ccc(Cl)cn12 (optimized conformer: 72.39175375862663 kcal/mol)

>  <smiles>  (21) 
O=C(c1ccccc1)c1c(CBr)nc2ccc(Cl)cn12

>  <score_type>  (21) 
oracle

>  <origin>  (21) 
adg

>  <m_score__min__energy>  (21) 
-7.5899999999999999

>  <m_primary>  (21) 
energy

$$$$
21:0
     RDKit          3D

 51 52  0  0  0  0  0  0  0  0999 V2000
   -6.5970   25.6690  -29.2600 C   0  0  0  0  0  0  0  0  0  0  0  0
   -5.7450   25.8150  -30.5170 C   0  0  0  0  0  0  0  0  0  0  0  0
   -5.4560   24.4970  -31.1040 N   0  0  0  0  0  0  0  0  0  0  0  0
   -6.4880   23.8330  -31.9190 C   0  0  0  0  0  0  0  0  0  0  0  0
   -7.2320   22.7410  -31.1140 C   0  0  0  0  0  0  0  0  0  0  0  0
   -8.5580   22.3700  -31.8260 C   0  0  0  0  0  0  0  0  0  0  0  0
   -9.0090   20.9420  -31.5080 C   0  0  0  0  0  0  0  0  0  0  0  0
   -7.9700   19.9790  -31.9080 N   0  0  0  0  0  0  0  0  0  0  0  0
   -8.3510   18.6460  -32.3050 C   0  0  0  0  0  0  0  0  0  0  0  0
   -9.4900   18.2020  -31.9900 O   0  0  0  0  0  0  0  0  0  0  0  0
   -7.3980   17.7480  -33.0440 C   0  0  0  0  0  0  0  0  0  0  0  0
   -6.4920   17.1580  -32.1350 O   0  0  0  0  0  0  0  0  0  0  0  0
   -5.2050   17.1310  -32.7090 C   0  0  0  0  0  0  0  0  0  0  0  0
   -6.5530   20.3790  -31.8670 C   0  0  0  0  0  0  0  0  0  0  0  0
   -6.3340   21.5020  -30.8480 C   0  0  0  0  0  0  0  0  0  0  0  0
   -4.2320   23.8210  -30.7510 C   0  0  0  0  0  0  0  0  0  0  0  0
   -3.5800   24.0790  -29.5360 C   0  0  0  0  0  0  0  0  0  0  0  0
   -2.3960   23.3920  -29.2490 C   0  0  0  0  0  0  0  0  0  0  0  0
   -1.6870   23.6160  -27.9520 C   0  0  0  0  0  0  0  0  0  0  0  0
   -1.9180   22.4760  -30.1310 N   0  0  0  0  0  0  0  0  0  0  0  0
   -2.5580   22.2310  -31.3050 C   0  0  0  0  0  0  0  0  0  0  0  0
   -2.0370   21.1890  -32.2360 C   0  0  0  0  0  0  0  0  0  0  0  0
   -3.7100   22.8910  -31.5960 N   0  0  0  0  0  0  0  0  0  0  0  0
   -5.9595   25.7782  -28.3702 H   0  0  0  0  0  0  0  0  0  0  0  0
   -7.3746   26.4470  -29.2517 H   0  0  0  0  0  0  0  0  0  0  0  0
   -7.0712   24.6765  -29.2517 H   0  0  0  0  0  0  0  0  0  0  0  0
   -6.2879   26.4269  -31.2524 H   0  0  0  0  0  0  0  0  0  0  0  0
   -4.7946   26.2983  -30.2465 H   0  0  0  0  0  0  0  0  0  0  0  0
   -7.2155   24.5858  -32.2569 H   0  0  0  0  0  0  0  0  0  0  0  0
   -5.9939   23.3527  -32.7764 H   0  0  0  0  0  0  0  0  0  0  0  0
   -7.4817   23.1473  -30.1227 H   0  0  0  0  0  0  0  0  0  0  0  0
   -9.3421   23.0693  -31.5001 H   0  0  0  0  0  0  0  0  0  0  0  0
   -8.3869   22.4350  -32.9107 H   0  0  0  0  0  0  0  0  0  0  0  0
   -9.1918   20.8510  -30.4271 H   0  0  0  0  0  0  0  0  0  0  0  0
   -9.9325   20.7252  -32.0650 H   0  0  0  0  0  0  0  0  0  0  0  0
   -7.9653   16.9582  -33.5583 H   0  0  0  0  0  0  0  0  0  0  0  0
   -6.8373   18.3422  -33.7806 H   0  0  0  0  0  0  0  0  0  0  0  0
   -4.4479   17.1151  -31.9111 H   0  0  0  0  0  0  0  0  0  0  0  0
   -5.1002   16.2305  -33.3319 H   0  0  0  0  0  0  0  0  0  0  0  0
   -5.0625   18.0264  -33.3319 H   0  0  0  0  0  0  0  0  0  0  0  0
   -5.9411   19.5101  -31.5832 H   0  0  0  0  0  0  0  0  0  0  0  0
   -6.2608   20.7443  -32.8626 H   0  0  0  0  0  0  0  0  0  0  0  0
   -6.5594   21.1139  -29.8437 H   0  0  0  0  0  0  0  0  0  0  0  0
   -5.2869   21.8277  -30.9347 H   0  0  0  0  0  0  0  0  0  0  0  0
   -3.9921   24.8078  -28.8225 H   0  0  0  0  0  0  0  0  0  0  0  0
   -2.3710   23.3999  -27.1181 H   0  0  0  0  0  0  0  0  0  0  0  0
   -0.8136   22.9500  -27.8918 H   0  0  0  0  0  0  0  0  0  0  0  0
   -1.3547   24.6629  -27.8918 H   0  0  0  0  0  0  0  0  0  0  0  0
   -1.6194   20.3537  -31.6547 H   0  0  0  0  0  0  0  0  0  0  0  0
   -2.8570   20.8207  -32.8700 H   0  0  0  0  0  0  0  0  0  0  0  0
   -1.2503   21.6240  -32.8700 H   0  0  0  0  0  0  0  0  0  0  0  0
  1  2  1  0
  2  3  1  0
  3  4  1  0
  4  5  1  0
  5  6  1  0
  6  7  1  0
  7  8  1  0
  8  9  1  0
  9 10  2  0
  9 11  1  0
 11 12  1  0
 12 13  1  0
  8 14  1  0
 14 15  1  0
  3 16  1  0
 16 17  2  0
 17 18  1  0
 18 19  1  0
 18 20  2  0
 20 21  1  0
 21 22  1  0
 21 23  2  0
 15  5  1  0
 23 16  1  0
  1 24  1  0
  1 25  1  0
  1 26  1  0
  2 27  1  0
  2 28  1  0
  4 29  1  0
  4 30  1  0
  5 31  1  0
  6 32  1  0
  6 33  1  0
  7 34  1  0
  7 35  1  0
 11 36  1  0
 11 37  1  0
 13 38  1  0
 13 39  1  0
 13 40  1  0
 14 41  1  0
 14 42  1  0
 15 43  1  0
 15 44  1  0
 17 45  1  0
 19 46  1  0
 19 47  1  0
 19 48  1  0
 22 49  1  0
 22 50  1  0
 22 51  1  0
M  END
>  <UniqueID>  (22) 
22

>  <SMILES>  (22) 
CCN(CC1CCN(C(=O)COC)CC1)c1cc(C)nc(C)n1

>  <Energy>  (22) 
48.23417354990999

>  <Genealogy>  (22) 
CCN(CC1CCN(C(=O)COC)CC1)c1cc(C)nc(C)n1 (3D coordinates assigned)
CCN(CC1CCN(C(=O)COC)CC1)c1cc(C)nc(C)n1 (nonaromatic ring conformer: 48.23417354990999 kcal/mol)

>  <smiles>  (22) 
CCN(CC1CCN(C(=O)COC)CC1)c1cc(C)nc(C)n1

>  <score_type>  (22) 
oracle

>  <origin>  (22) 
adg

>  <m_score__min__energy>  (22) 
-8.2200000000000006

>  <m_primary>  (22) 
energy

$$$$
22:0
     RDKit          3D

 68 70  0  0  0  0  0  0  0  0999 V2000
   -4.2500   24.5530  -26.7650 C   0  0  0  0  0  0  0  0  0  0  0  0
   -3.8110   24.1720  -28.1890 C   0  0  0  0  0  0  0  0  0  0  0  0
   -4.9280   23.7890  -29.0980 N   0  0  0  0  0  0  0  0  0  0  0  0
   -5.3590   24.9520  -29.9230 C   0  0  0  0  0  0  0  0  0  0  0  0
   -6.6390   25.6140  -29.3930 C   0  0  0  0  0  0  0  0  0  0  0  0
   -4.6180   22.6120  -29.9540 C   0  0  0  0  0  0  0  0  0  0  0  0
   -3.8460   22.9930  -31.2360 C   0  0  0  0  0  0  0  0  0  0  0  0
   -3.5350   21.7670  -32.1060 C   0  0  0  0  0  0  0  0  0  0  0  0
   -4.5370   21.5860  -33.1600 N   0  0  0  0  0  0  0  0  0  0  0  0
   -5.6910   20.7610  -32.9370 C   0  0  0  0  0  0  0  0  0  0  0  0
   -6.8830   21.3560  -32.4830 C   0  0  0  0  0  0  0  0  0  0  0  0
   -6.9450   22.7430  -32.2180 C   0  0  0  0  0  0  0  0  0  0  0  0
   -8.1400   23.3440  -31.8310 C   0  0  0  0  0  0  0  0  0  0  0  0
   -9.2930   22.5780  -31.7050 C   0  0  0  0  0  0  0  0  0  0  0  0
   -9.2490   21.2030  -31.9280 C   0  0  0  0  0  0  0  0  0  0  0  0
   -8.0360   20.5550  -32.2820 C   0  0  0  0  0  0  0  0  0  0  0  0
   -7.9640   19.1870  -32.4430 N   0  0  0  0  0  0  0  0  0  0  0  0
   -9.0620   18.3310  -31.9390 C   0  0  0  0  0  0  0  0  0  0  0  0
   -6.8510   18.6130  -33.0290 C   0  0  0  0  0  0  0  0  0  0  0  0
   -6.8660   17.2650  -33.4620 C   0  0  0  0  0  0  0  0  0  0  0  0
   -5.7300   16.6650  -33.9910 C   0  0  0  0  0  0  0  0  0  0  0  0
   -4.5500   17.3800  -34.1040 C   0  0  0  0  0  0  0  0  0  0  0  0
   -4.4900   18.7280  -33.7210 C   0  0  0  0  0  0  0  0  0  0  0  0
   -3.2830   19.4270  -33.8640 O   0  0  0  0  0  0  0  0  0  0  0  0
   -2.0010   18.8730  -33.5590 C   0  0  0  0  0  0  0  0  0  0  0  0
   -0.9030   19.5490  -34.4000 C   0  0  0  0  0  0  0  0  0  0  0  0
   -0.6370   20.9660  -34.0550 N   0  0  0  0  0  0  0  0  0  0  0  0
    0.2680   21.6370  -34.9980 C   0  0  0  0  0  0  0  0  0  0  0  0
   -0.1940   21.1510  -32.6640 C   0  0  0  0  0  0  0  0  0  0  0  0
   -5.6640   19.3770  -33.2310 C   0  0  0  0  0  0  0  0  0  0  0  0
   -3.6295   24.0145  -26.0336 H   0  0  0  0  0  0  0  0  0  0  0  0
   -4.1285   25.6368  -26.6215 H   0  0  0  0  0  0  0  0  0  0  0  0
   -5.3059   24.2802  -26.6215 H   0  0  0  0  0  0  0  0  0  0  0  0
   -3.2893   25.0342  -28.6300 H   0  0  0  0  0  0  0  0  0  0  0  0
   -3.1685   23.2845  -28.0915 H   0  0  0  0  0  0  0  0  0  0  0  0
   -5.7300   23.5270  -28.4750 H   0  0  0  0  0  0  0  0  0  0  0  0
   -4.5519   25.6994  -29.9261 H   0  0  0  0  0  0  0  0  0  0  0  0
   -5.5730   24.5793  -30.9356 H   0  0  0  0  0  0  0  0  0  0  0  0
   -6.6267   25.6076  -28.2931 H   0  0  0  0  0  0  0  0  0  0  0  0
   -6.6911   26.6521  -29.7531 H   0  0  0  0  0  0  0  0  0  0  0  0
   -7.5163   25.0566  -29.7531 H   0  0  0  0  0  0  0  0  0  0  0  0
   -4.0075   21.9054  -29.3727 H   0  0  0  0  0  0  0  0  0  0  0  0
   -5.5745   22.1653  -30.2631 H   0  0  0  0  0  0  0  0  0  0  0  0
   -4.4549   23.6982  -31.8208 H   0  0  0  0  0  0  0  0  0  0  0  0
   -2.8904   23.4470  -30.9348 H   0  0  0  0  0  0  0  0  0  0  0  0
   -2.5473   21.9007  -32.5714 H   0  0  0  0  0  0  0  0  0  0  0  0
   -3.5480   20.8754  -31.4618 H   0  0  0  0  0  0  0  0  0  0  0  0
   -4.4500   22.0780  -34.0760 H   0  0  0  0  0  0  0  0  0  0  0  0
   -6.0371   23.3558  -32.3188 H   0  0  0  0  0  0  0  0  0  0  0  0
   -8.1715   24.4241  -31.6252 H   0  0  0  0  0  0  0  0  0  0  0  0
  -10.2431   23.0585  -31.4284 H   0  0  0  0  0  0  0  0  0  0  0  0
  -10.1697   20.6095  -31.8281 H   0  0  0  0  0  0  0  0  0  0  0  0
   -9.0555   18.3361  -30.8390 H   0  0  0  0  0  0  0  0  0  0  0  0
  -10.0253   18.7188  -32.3018 H   0  0  0  0  0  0  0  0  0  0  0  0
   -8.9209   17.3022  -32.3018 H   0  0  0  0  0  0  0  0  0  0  0  0
   -7.7948   16.6817  -33.3780 H   0  0  0  0  0  0  0  0  0  0  0  0
   -5.7684   15.6166  -34.3217 H   0  0  0  0  0  0  0  0  0  0  0  0
   -3.6499   16.8857  -34.4983 H   0  0  0  0  0  0  0  0  0  0  0  0
   -1.7852   19.0279  -32.4915 H   0  0  0  0  0  0  0  0  0  0  0  0
   -2.0150   17.7983  -33.7931 H   0  0  0  0  0  0  0  0  0  0  0  0
    0.0300   18.9828  -34.2627 H   0  0  0  0  0  0  0  0  0  0  0  0
   -1.2644   19.5467  -35.4389 H   0  0  0  0  0  0  0  0  0  0  0  0
    1.0286   22.2009  -34.4381 H   0  0  0  0  0  0  0  0  0  0  0  0
    0.7614   20.8848  -35.6310 H   0  0  0  0  0  0  0  0  0  0  0  0
   -0.3084   22.3277  -35.6310 H   0  0  0  0  0  0  0  0  0  0  0  0
   -0.9882   20.8193  -31.9791 H   0  0  0  0  0  0  0  0  0  0  0  0
    0.7148   20.5572  -32.4866 H   0  0  0  0  0  0  0  0  0  0  0  0
    0.0226   22.2148  -32.4866 H   0  0  0  0  0  0  0  0  0  0  0  0
  1  2  1  0
  2  3  1  0
  3  4  1  0
  4  5  1  0
  3  6  1  0
  6  7  1  0
  7  8  1  0
  8  9  1  0
  9 10  1  0
 10 11  2  0
 11 12  1  0
 12 13  2  0
 13 14  1  0
 14 15  2  0
 15 16  1  0
 16 17  2  0
 17 18  1  0
 17 19  1  0
 19 20  2  0
 20 21  1  0
 21 22  2  0
 22 23  1  0
 23 24  1  0
 24 25  1  0
 25 26  1  0
 26 27  1  0
 27 28  1  0
 27 29  1  0
 23 30  2  0
 30 10  1  0
 16 11  1  0
 30 19  1  0
  1 31  1  0
  1 32  1  0
  1 33  1  0
  2 34  1  0
  2 35  1  0
  3 36  1  0
  4 37  1  0
  4 38  1  0
  5 39  1  0
  5 40  1  0
  5 41  1  0
  6 42  1  0
  6 43  1  0
  7 44  1  0
  7 45  1  0
  8 46  1  0
  8 47  1  0
  9 48  1  0
 12 49  1  0
 13 50  1  0
 14 51  1  0
 15 52  1  0
 18 53  1  0
 18 54  1  0
 18 55  1  0
 20 56  1  0
 21 57  1  0
 22 58  1  0
 25 59  1  0
 25 60  1  0
 26 61  1  0
 26 62  1  0
 28 63  1  0
 28 64  1  0
 28 65  1  0
 29 66  1  0
 29 67  1  0
 29 68  1  0
M  CHG  2   3   1  17   1
M  END
>  <UniqueID>  (23) 
23

>  <SMILES>  (23) 
CC[NH+](CC)CCCNc1c2ccccc2[n+](C)c2cccc(OCCN(C)C)c12

>  <Energy>  (23) 
102.33018773731744

>  <Genealogy>  (23) 
CC[NH+](CC)CCCNc1c2ccccc2[n+](C)c2cccc(OCCN(C)C)c12 (protonated)
CC[NH+](CC)CCCNc1c2ccccc2[n+](C)c2cccc(OCCN(C)C)c12 (3D coordinates assigned)
CC[NH+](CC)CCCNc1c2ccccc2[n+](C)c2cccc(OCCN(C)C)c12 (optimized conformer: 102.33018773731744 kcal/mol)

>  <smiles>  (23) 
CCN(CC)CCCNc1c2ccccc2[n+](C)c2cccc(OCCN(C)C)c12

>  <score_type>  (23) 
oracle

>  <origin>  (23) 
adg

>  <m_score__min__energy>  (23) 
-7.6299999999999999

>  <m_primary>  (23) 
energy

$$$$
23:0
     RDKit          3D

 22 23  0  0  0  0  0  0  0  0999 V2000
   -9.2210   21.7070  -31.1940 C   0  0  0  0  0  0  0  0  0  0  0  0
   -8.5130   20.5700  -31.8670 C   0  0  0  0  0  0  0  0  0  0  0  0
   -9.0020   19.2490  -31.7470 C   0  0  0  0  0  0  0  0  0  0  0  0
   -8.3190   18.1780  -32.3430 C   0  0  0  0  0  0  0  0  0  0  0  0
   -7.1450   18.4670  -33.0420 C   0  0  0  0  0  0  0  0  0  0  0  0
   -6.3380   17.5950  -33.6790 N   0  0  0  0  0  0  0  0  0  0  0  0
   -6.4910   16.1470  -33.7870 C   0  0  0  0  0  0  0  0  0  0  0  0
   -5.3320   18.3460  -34.1840 C   0  0  0  0  0  0  0  0  0  0  0  0
   -5.5510   19.6740  -33.8430 C   0  0  0  0  0  0  0  0  0  0  0  0
   -6.6900   19.7280  -33.1300 N   0  0  0  0  0  0  0  0  0  0  0  0
   -7.3140   20.7930  -32.5700 C   0  0  0  0  0  0  0  0  0  0  0  0
   -9.1481   21.5899  -30.1027 H   0  0  0  0  0  0  0  0  0  0  0  0
   -8.7548   22.6575  -31.4927 H   0  0  0  0  0  0  0  0  0  0  0  0
  -10.2797   21.7080  -31.4927 H   0  0  0  0  0  0  0  0  0  0  0  0
   -9.9261   19.0591  -31.1814 H   0  0  0  0  0  0  0  0  0  0  0  0
   -8.6949   17.1474  -32.2625 H   0  0  0  0  0  0  0  0  0  0  0  0
   -6.5375   15.7071  -32.7799 H   0  0  0  0  0  0  0  0  0  0  0  0
   -7.4186   15.9159  -34.3312 H   0  0  0  0  0  0  0  0  0  0  0  0
   -5.6322   15.7271  -34.3312 H   0  0  0  0  0  0  0  0  0  0  0  0
   -4.4808   17.9668  -34.7685 H   0  0  0  0  0  0  0  0  0  0  0  0
   -4.9093   20.5272  -34.1080 H   0  0  0  0  0  0  0  0  0  0  0  0
   -6.8943   21.8055  -32.6625 H   0  0  0  0  0  0  0  0  0  0  0  0
  1  2  1  0
  2  3  2  0
  3  4  1  0
  4  5  2  0
  5  6  1  0
  6  7  1  0
  6  8  1  0
  8  9  2  0
  9 10  1  0
 10 11  2  0
 11  2  1  0
 10  5  1  0
  1 12  1  0
  1 13  1  0
  1 14  1  0
  3 15  1  0
  4 16  1  0
  7 17  1  0
  7 18  1  0
  7 19  1  0
  8 20  1  0
  9 21  1  0
 11 22  1  0
M  CHG  1  10   1
M  END
>  <UniqueID>  (24) 
24

>  <SMILES>  (24) 
Cc1ccc2n(C)cc[n+]2c1

>  <Energy>  (24) 
57.224664022814565

>  <Genealogy>  (24) 
Cc1ccc2n(C)cc[n+]2c1 (3D coordinates assigned)
Cc1ccc2n(C)cc[n+]2c1 (optimized conformer: 57.224664022814565 kcal/mol)

>  <smiles>  (24) 
Cc1ccc2n(C)cc[n+]2c1

>  <score_type>  (24) 
oracle

>  <origin>  (24) 
adg

>  <m_score__min__energy>  (24) 
-4.5300000000000002

>  <m_primary>  (24) 
energy

$$$$
24:0
     RDKit          3D

 71 74  0  0  0  0  0  0  0  0999 V2000
   -3.8403   25.9484  -31.1297 H   0  0  0  0  0  0  0  0  0  0  0  0
   -4.5420   25.4170  -30.4700 C   0  0  0  0  0  0  0  0  0  0  0  0
   -4.1943   25.0150  -29.5069 H   0  0  0  0  0  0  0  0  0  0  0  0
   -5.8150   25.2600  -30.8380 C   0  0  0  0  0  0  0  0  0  0  0  0
   -6.1501   25.6667  -31.8036 H   0  0  0  0  0  0  0  0  0  0  0  0
   -6.8030   24.5380  -29.9600 C   0  0  0  0  0  0  0  0  0  0  0  0
   -7.1236   25.2101  -29.1504 H   0  0  0  0  0  0  0  0  0  0  0  0
   -7.6647   24.2376  -30.5742 H   0  0  0  0  0  0  0  0  0  0  0  0
   -6.2010   23.3320  -29.3740 N   0  0  0  0  0  0  0  0  0  0  0  0
   -6.2010   23.2660  -28.3340 H   0  0  0  0  0  0  0  0  0  0  0  0
   -5.5840   22.4140  -30.0750 C   0  0  0  0  0  0  0  0  0  0  0  0
   -3.8260   22.0740  -29.8180 S   0  0  0  0  0  0  0  0  0  0  0  0
   -3.7550   22.4310  -28.0130 C   0  0  0  0  0  0  0  0  0  0  0  0
   -4.7079   22.8974  -27.7225 H   0  0  0  0  0  0  0  0  0  0  0  0
   -3.5649   21.4650  -27.5224 H   0  0  0  0  0  0  0  0  0  0  0  0
   -2.6030   23.3730  -27.5590 C   0  0  1  0  0  0  0  0  0  0  0  0
   -1.8850   23.9240  -28.8290 C   0  0  0  0  0  0  0  0  0  0  0  0
   -2.6097   24.4803  -29.4417 H   0  0  0  0  0  0  0  0  0  0  0  0
   -1.4748   23.0783  -29.4005 H   0  0  0  0  0  0  0  0  0  0  0  0
   -0.7270   24.8660  -28.4310 C   0  0  2  0  0  0  0  0  0  0  0  0
   -0.2307   25.2403  -29.3385 H   0  0  0  0  0  0  0  0  0  0  0  0
    0.2930   24.0920  -27.5680 C   0  0  0  0  0  0  0  0  0  0  0  0
    1.1174   24.7629  -27.2848 H   0  0  0  0  0  0  0  0  0  0  0  0
    0.6915   23.2438  -28.1440 H   0  0  0  0  0  0  0  0  0  0  0  0
   -0.4030   23.5670  -26.2950 C   0  0  1  0  0  0  0  0  0  0  0  0
    0.3285   23.0243  -25.6782 H   0  0  0  0  0  0  0  0  0  0  0  0
   -0.9750   24.7530  -25.4880 C   0  0  0  0  0  0  0  0  0  0  0  0
   -0.1550   25.4254  -25.1955 H   0  0  0  0  0  0  0  0  0  0  0  0
   -1.4791   24.3714  -24.5879 H   0  0  0  0  0  0  0  0  0  0  0  0
   -1.9910   25.5290  -26.3520 C   0  0  1  0  0  0  0  0  0  0  0  0
   -2.3923   26.3742  -25.7736 H   0  0  0  0  0  0  0  0  0  0  0  0
   -1.2870   26.0560  -27.6210 C   0  0  0  0  0  0  0  0  0  0  0  0
   -0.4618   26.7236  -27.3321 H   0  0  0  0  0  0  0  0  0  0  0  0
   -2.0094   26.6114  -28.2372 H   0  0  0  0  0  0  0  0  0  0  0  0
   -3.1490   24.5910  -26.7600 C   0  0  0  0  0  0  0  0  0  0  0  0
   -3.8616   25.1464  -27.3875 H   0  0  0  0  0  0  0  0  0  0  0  0
   -3.6505   24.2264  -25.8514 H   0  0  0  0  0  0  0  0  0  0  0  0
   -1.5540   22.6160  -26.6930 C   0  0  0  0  0  0  0  0  0  0  0  0
   -1.1458   21.7737  -27.2709 H   0  0  0  0  0  0  0  0  0  0  0  0
   -2.0434   22.2440  -25.7808 H   0  0  0  0  0  0  0  0  0  0  0  0
   -6.3070   21.5470  -30.9710 N   0  0  0  0  0  0  0  0  0  0  0  0
   -5.7490   20.8520  -31.5180 H   0  0  0  0  0  0  0  0  0  0  0  0
   -7.7620   21.3910  -30.9990 C   0  0  0  0  0  0  0  0  0  0  0  0
   -8.0480   20.5949  -30.2958 H   0  0  0  0  0  0  0  0  0  0  0  0
   -8.2138   22.3526  -30.7139 H   0  0  0  0  0  0  0  0  0  0  0  0
   -8.2700   21.0230  -32.3980 C   0  0  0  0  0  0  0  0  0  0  0  0
   -8.7646   21.9004  -32.8402 H   0  0  0  0  0  0  0  0  0  0  0  0
   -7.4079   20.7097  -33.0051 H   0  0  0  0  0  0  0  0  0  0  0  0
   -9.4650   19.6330  -32.3400 S   0  0  0  0  0  0  0  0  0  0  0  0
   -8.3370   18.4050  -31.5970 C   0  0  0  0  0  0  0  0  0  0  0  0
   -8.0777   18.7243  -30.5768 H   0  0  0  0  0  0  0  0  0  0  0  0
   -8.8433   17.4287  -31.5755 H   0  0  0  0  0  0  0  0  0  0  0  0
   -7.0850   18.2780  -32.4040 C   0  0  0  0  0  0  0  0  0  0  0  0
   -6.1040   19.1510  -32.3820 O   0  0  0  0  0  0  0  0  0  0  0  0
   -5.1840   18.7570  -33.2320 C   0  0  0  0  0  0  0  0  0  0  0  0
   -3.9200   19.5250  -33.5240 C   0  0  0  0  0  0  0  0  0  0  0  0
   -3.0669   18.8349  -33.4472 H   0  0  0  0  0  0  0  0  0  0  0  0
   -4.0225   19.9478  -34.5343 H   0  0  0  0  0  0  0  0  0  0  0  0
   -3.6930   20.6580  -32.5960 N   0  0  0  0  0  0  0  0  0  0  0  0
   -4.1940   21.9320  -33.1360 C   0  0  0  0  0  0  0  0  0  0  0  0
   -4.4581   22.6036  -32.3058 H   0  0  0  0  0  0  0  0  0  0  0  0
   -3.4134   22.4010  -33.7529 H   0  0  0  0  0  0  0  0  0  0  0  0
   -5.0850   21.7437  -33.7529 H   0  0  0  0  0  0  0  0  0  0  0  0
   -2.2830   20.7790  -32.1960 C   0  0  0  0  0  0  0  0  0  0  0  0
   -2.2125   20.7850  -31.0983 H   0  0  0  0  0  0  0  0  0  0  0  0
   -1.7141   19.9264  -32.5953 H   0  0  0  0  0  0  0  0  0  0  0  0
   -1.8677   21.7161  -32.5953 H   0  0  0  0  0  0  0  0  0  0  0  0
   -5.5680   17.5740  -33.8310 C   0  0  0  0  0  0  0  0  0  0  0  0
   -5.0059   16.9972  -34.5803 H   0  0  0  0  0  0  0  0  0  0  0  0
   -6.8010   17.2640  -33.2970 C   0  0  0  0  0  0  0  0  0  0  0  0
   -7.4274   16.3912  -33.5332 H   0  0  0  0  0  0  0  0  0  0  0  0
  1  2  1  0
  2  3  1  0
  2  4  2  0
  4  5  1  0
  4  6  1  0
  6  7  1  0
  6  8  1  0
  6  9  1  0
  9 10  1  0
  9 11  2  0
 11 12  1  0
 12 13  1  0
 13 14  1  0
 13 15  1  0
 16 13  1  6
 16 17  1  0
 17 18  1  0
 17 19  1  0
 17 20  1  0
 20 21  1  6
 20 22  1  0
 22 23  1  0
 22 24  1  0
 22 25  1  0
 25 26  1  1
 25 27  1  0
 27 28  1  0
 27 29  1  0
 27 30  1  0
 30 31  1  1
 30 32  1  0
 32 33  1  0
 32 34  1  0
 30 35  1  0
 35 36  1  0
 35 37  1  0
 25 38  1  0
 38 39  1  0
 38 40  1  0
 11 41  1  0
 41 42  1  0
 41 43  1  0
 43 44  1  0
 43 45  1  0
 43 46  1  0
 46 47  1  0
 46 48  1  0
 46 49  1  0
 49 50  1  0
 50 51  1  0
 50 52  1  0
 50 53  1  0
 53 54  1  0
 54 55  1  0
 55 56  1  0
 56 57  1  0
 56 58  1  0
 56 59  1  0
 59 60  1  0
 60 61  1  0
 60 62  1  0
 60 63  1  0
 59 64  1  0
 64 65  1  0
 64 66  1  0
 64 67  1  0
 55 68  2  0
 68 69  1  0
 68 70  1  0
 70 71  1  0
 35 16  1  0
 70 53  2  0
 38 16  1  0
 32 20  1  0
M  CHG  1   9   1
M  END
>  <UniqueID>  (25) 
25

>  <SMILES>  (25) 
C=CC/[NH+]=C(/NCCSCc1ccc(CN(C)C)o1)SCC12CC3CC(CC(C3)C1)C2

>  <Energy>  (25) 
83.44104348056995

>  <Genealogy>  (25) 
C=CC[NH+]=C(NCCSCc1ccc(CN(C)C)o1)SCC12CC3CC(CC(C3)C1)C2 (protonated)
C=CC/[NH+]=C(/NCCSCc1ccc(CN(C)C)o1)SCC12CC3CC(CC(C3)C1)C2 (cis-trans isomerization)
C=CC/[NH+]=C(/NCCSCc1ccc(CN(C)C)o1)SCC12CC3CC(CC(C3)C1)C2 (3D coordinates assigned)
C=CC/[NH+]=C(/NCCSCc1ccc(CN(C)C)o1)SCC12CC3CC(CC(C3)C1)C2 (nonaromatic ring conformer: 83.44104348056995 kcal/mol)

>  <smiles>  (25) 
C=CCN=C(NCCSCc1ccc(CN(C)C)o1)SCC12CC3CC(CC(C3)C1)C2

>  <score_type>  (25) 
oracle

>  <origin>  (25) 
adg

>  <m_score__min__energy>  (25) 
-8.1300000000000008

>  <m_primary>  (25) 
energy

$$$$
25:0
     RDKit          3D

 49 51  0  0  0  0  0  0  0  0999 V2000
   -6.8710   24.0700  -30.0800 C   0  0  0  0  0  0  0  0  0  0  0  0
   -6.2590   23.7760  -31.3320 O   0  0  0  0  0  0  0  0  0  0  0  0
   -5.1540   22.9180  -31.4380 C   0  0  0  0  0  0  0  0  0  0  0  0
   -3.8740   23.3440  -31.0290 C   0  0  0  0  0  0  0  0  0  0  0  0
   -3.6690   24.6610  -30.3950 C   0  0  0  0  0  0  0  0  0  0  0  0
   -4.2880   25.6640  -30.8420 O   0  0  0  0  0  0  0  0  0  0  0  0
   -2.7520   24.8390  -29.3080 N   0  0  0  0  0  0  0  0  0  0  0  0
   -1.3890   24.3190  -29.2980 C   0  0  0  0  0  0  0  0  0  0  0  0
   -1.0580   23.6820  -27.9320 C   0  0  0  0  0  0  0  0  0  0  0  0
   -1.3780   22.2400  -27.8200 N   0  0  0  0  0  0  0  0  0  0  0  0
   -2.8170   21.9400  -27.9960 C   0  0  0  0  0  0  0  0  0  0  0  0
   -3.0910   20.4240  -28.1350 C   0  0  0  0  0  0  0  0  0  0  0  0
   -1.9820   19.5620  -27.5000 C   0  0  0  0  0  0  0  0  0  0  0  0
   -1.9960   19.6780  -25.9660 C   0  0  0  0  0  0  0  0  0  0  0  0
   -0.5920   19.9160  -28.0890 C   0  0  0  0  0  0  0  0  0  0  0  0
   -0.5090   21.3600  -28.6180 C   0  0  0  0  0  0  0  0  0  0  0  0
   -2.7710   22.5030  -31.2080 C   0  0  0  0  0  0  0  0  0  0  0  0
   -2.9230   21.2240  -31.7470 C   0  0  0  0  0  0  0  0  0  0  0  0
   -1.3390   20.1560  -31.9400 Br  0  0  0  0  0  0  0  0  0  0  0  0
   -4.2050   20.7630  -32.1200 C   0  0  0  0  0  0  0  0  0  0  0  0
   -4.3970   19.4740  -32.6580 C   0  0  0  0  0  0  0  0  0  0  0  0
   -5.6730   19.0440  -33.0260 C   0  0  0  0  0  0  0  0  0  0  0  0
   -6.7730   19.8860  -32.8640 C   0  0  0  0  0  0  0  0  0  0  0  0
   -6.6060   21.1670  -32.3380 C   0  0  0  0  0  0  0  0  0  0  0  0
   -5.3280   21.6210  -31.9580 C   0  0  0  0  0  0  0  0  0  0  0  0
   -6.2068   23.7509  -29.2633 H   0  0  0  0  0  0  0  0  0  0  0  0
   -7.0505   25.1526  -30.0049 H   0  0  0  0  0  0  0  0  0  0  0  0
   -7.8284   23.5335  -30.0049 H   0  0  0  0  0  0  0  0  0  0  0  0
   -1.2872   23.5578  -30.0855 H   0  0  0  0  0  0  0  0  0  0  0  0
   -0.6920   25.1506  -29.4785 H   0  0  0  0  0  0  0  0  0  0  0  0
    0.0193   23.8077  -27.7489 H   0  0  0  0  0  0  0  0  0  0  0  0
   -1.6895   24.1955  -27.1921 H   0  0  0  0  0  0  0  0  0  0  0  0
   -3.3664   22.3195  -27.1218 H   0  0  0  0  0  0  0  0  0  0  0  0
   -3.1499   22.4273  -28.9243 H   0  0  0  0  0  0  0  0  0  0  0  0
   -4.0454   20.1914  -27.6399 H   0  0  0  0  0  0  0  0  0  0  0  0
   -3.1237   20.1878  -29.2088 H   0  0  0  0  0  0  0  0  0  0  0  0
   -2.1866   18.5105  -27.7502 H   0  0  0  0  0  0  0  0  0  0  0  0
   -1.8754   18.6790  -25.5216 H   0  0  0  0  0  0  0  0  0  0  0  0
   -1.1696   20.3266  -25.6398 H   0  0  0  0  0  0  0  0  0  0  0  0
   -2.9530   20.1114  -25.6398 H   0  0  0  0  0  0  0  0  0  0  0  0
    0.1648   19.7879  -27.3011 H   0  0  0  0  0  0  0  0  0  0  0  0
   -0.4169   19.2440  -28.9421 H   0  0  0  0  0  0  0  0  0  0  0  0
    0.5301   21.7141  -28.5485 H   0  0  0  0  0  0  0  0  0  0  0  0
   -0.8409   21.3797  -29.6665 H   0  0  0  0  0  0  0  0  0  0  0  0
   -1.7692   22.8543  -30.9200 H   0  0  0  0  0  0  0  0  0  0  0  0
   -3.5355   18.8027  -32.7886 H   0  0  0  0  0  0  0  0  0  0  0  0
   -5.8116   18.0367  -33.4456 H   0  0  0  0  0  0  0  0  0  0  0  0
   -7.7761   19.5385  -33.1521 H   0  0  0  0  0  0  0  0  0  0  0  0
   -7.4780   21.8269  -32.2192 H   0  0  0  0  0  0  0  0  0  0  0  0
  1  2  1  0
  2  3  1  0
  3  4  2  0
  4  5  1  0
  5  6  2  0
  5  7  1  0
  7  8  1  0
  8  9  1  0
  9 10  1  0
 10 11  1  0
 11 12  1  0
 12 13  1  0
 13 14  1  0
 13 15  1  0
 15 16  1  0
  4 17  1  0
 17 18  2  0
 18 19  1  0
 18 20  1  0
 20 21  2  0
 21 22  1  0
 22 23  2  0
 23 24  1  0
 24 25  2  0
 25  3  1  0
 16 10  1  0
 25 20  1  0
  1 26  1  0
  1 27  1  0
  1 28  1  0
  8 29  1  0
  8 30  1  0
  9 31  1  0
  9 32  1  0
 11 33  1  0
 11 34  1  0
 12 35  1  0
 12 36  1  0
 13 37  1  0
 14 38  1  0
 14 39  1  0
 14 40  1  0
 15 41  1  0
 15 42  1  0
 16 43  1  0
 16 44  1  0
 17 45  1  0
 21 46  1  0
 22 47  1  0
 23 48  1  0
 24 49  1  0
M  CHG  1   7  -1
M  END
>  <UniqueID>  (26) 
26

>  <SMILES>  (26) 
COc1c(C(=O)[N-]CCN2CCC(C)CC2)cc(Br)c2ccccc12

>  <Energy>  (26) 
73.40772513185978

>  <Genealogy>  (26) 
COc1c(C(=O)[N-]CCN2CCC(C)CC2)cc(Br)c2ccccc12 (protonated)
COc1c(C(=O)[N-]CCN2CCC(C)CC2)cc(Br)c2ccccc12 (3D coordinates assigned)
COc1c(C(=O)[N-]CCN2CCC(C)CC2)cc(Br)c2ccccc12 (nonaromatic ring conformer: 73.40772513185978 kcal/mol)

>  <smiles>  (26) 
COc1c(C(=O)NCCN2CCC(C)CC2)cc(Br)c2ccccc12

>  <score_type>  (26) 
oracle

>  <origin>  (26) 
adg

>  <m_score__min__energy>  (26) 
-10.93

>  <m_primary>  (26) 
energy

$$$$
26:0
     RDKit          3D

 27 28  0  0  0  0  0  0  0  0999 V2000
   -8.6960   18.4330  -31.5830 C   0  0  0  0  0  0  0  0  0  0  0  0
   -9.1770   19.6650  -32.3410 C   0  0  0  0  0  0  0  0  0  0  0  0
   -8.0730   20.2800  -33.0760 N   0  0  0  0  0  0  0  0  0  0  0  0
   -7.1770   21.2300  -32.4770 C   0  0  0  0  0  0  0  0  0  0  0  0
   -7.6700   22.6040  -31.6220 S   0  0  0  0  0  0  0  0  0  0  0  0
   -6.1160   23.1850  -31.3630 C   0  0  0  0  0  0  0  0  0  0  0  0
   -5.7220   24.3470  -30.7000 C   0  0  0  0  0  0  0  0  0  0  0  0
   -6.7130   25.2770  -30.0760 C   0  0  0  0  0  0  0  0  0  0  0  0
   -4.3900   24.6220  -30.6400 N   0  0  0  0  0  0  0  0  0  0  0  0
   -3.4780   23.8160  -31.1950 N   0  0  0  0  0  0  0  0  0  0  0  0
   -3.8280   22.6740  -31.8510 C   0  0  0  0  0  0  0  0  0  0  0  0
   -2.9300   21.9590  -32.3720 O   0  0  0  0  0  0  0  0  0  0  0  0
   -5.1870   22.3310  -31.9370 C   0  0  0  0  0  0  0  0  0  0  0  0
   -5.7740   21.2020  -32.5590 C   0  0  0  0  0  0  0  0  0  0  0  0
   -4.9900   20.1090  -33.2350 C   0  0  0  0  0  0  0  0  0  0  0  0
   -8.7679   18.6170  -30.5009 H   0  0  0  0  0  0  0  0  0  0  0  0
   -9.3232   17.5698  -31.8506 H   0  0  0  0  0  0  0  0  0  0  0  0
   -7.6499   18.2231  -31.8506 H   0  0  0  0  0  0  0  0  0  0  0  0
   -9.9633   19.3687  -33.0508 H   0  0  0  0  0  0  0  0  0  0  0  0
   -9.5721   20.3943  -31.6185 H   0  0  0  0  0  0  0  0  0  0  0  0
   -7.9980   20.0660  -34.0940 H   0  0  0  0  0  0  0  0  0  0  0  0
   -6.6404   25.2089  -28.9805 H   0  0  0  0  0  0  0  0  0  0  0  0
   -6.4992   26.3080  -30.3942 H   0  0  0  0  0  0  0  0  0  0  0  0
   -7.7284   24.9982  -30.3942 H   0  0  0  0  0  0  0  0  0  0  0  0
   -4.5276   19.4644  -32.4730 H   0  0  0  0  0  0  0  0  0  0  0  0
   -5.6646   19.5085  -33.8630 H   0  0  0  0  0  0  0  0  0  0  0  0
   -4.2050   20.5555  -33.8630 H   0  0  0  0  0  0  0  0  0  0  0  0
  1  2  1  0
  2  3  1  0
  3  4  1  0
  4  5  1  0
  5  6  1  0
  6  7  1  0
  7  8  1  0
  7  9  2  0
  9 10  1  0
 10 11  1  0
 11 12  2  0
 11 13  1  0
 13 14  1  0
 14 15  1  0
 14  4  2  0
 13  6  2  0
  1 16  1  0
  1 17  1  0
  1 18  1  0
  2 19  1  0
  2 20  1  0
  3 21  1  0
  8 22  1  0
  8 23  1  0
  8 24  1  0
 15 25  1  0
 15 26  1  0
 15 27  1  0
M  CHG  1  10  -1
M  END
>  <UniqueID>  (27) 
27

>  <SMILES>  (27) 
CCNc1sc2c(C)n[n-]c(=O)c2c1C

>  <Energy>  (27) 
57.71009339027565

>  <Genealogy>  (27) 
CCNc1sc2c(C)n[n-]c(=O)c2c1C (protonated)
CCNc1sc2c(C)n[n-]c(=O)c2c1C (3D coordinates assigned)
CCNc1sc2c(C)n[n-]c(=O)c2c1C (optimized conformer: 57.71009339027565 kcal/mol)

>  <smiles>  (27) 
CCNc1sc2c(C)n[nH]c(=O)c2c1C

>  <score_type>  (27) 
oracle

>  <origin>  (27) 
adg

>  <m_score__min__energy>  (27) 
-7.9299999999999997

>  <m_primary>  (27) 
energy

$$$$
27:0
     RDKit          3D

 55 58  0  0  0  0  0  0  0  0999 V2000
   -3.8410   23.3870  -28.2040 C   0  0  0  0  0  0  0  0  0  0  0  0
   -3.4280   24.5680  -29.0810 C   0  0  0  0  0  0  0  0  0  0  0  0
   -3.9000   24.3930  -30.4740 N   0  0  0  0  0  0  0  0  0  0  0  0
   -5.0340   25.2990  -30.7960 C   0  0  0  0  0  0  0  0  0  0  0  0
   -6.1400   25.1300  -29.7590 C   0  0  0  0  0  0  0  0  0  0  0  0
   -4.2370   22.9750  -30.7400 C   0  0  0  0  0  0  0  0  0  0  0  0
   -3.0040   22.1780  -31.2000 C   0  0  0  0  0  0  0  0  0  0  0  0
   -3.0670   21.7360  -32.6700 C   0  0  0  0  0  0  0  0  0  0  0  0
   -4.3980   21.9460  -33.2440 N   0  0  0  0  0  0  0  0  0  0  0  0
   -5.4890   21.0320  -33.0250 C   0  0  0  0  0  0  0  0  0  0  0  0
   -6.7600   21.4830  -32.6010 C   0  0  0  0  0  0  0  0  0  0  0  0
   -7.0210   22.8570  -32.4100 C   0  0  0  0  0  0  0  0  0  0  0  0
   -8.2790   23.2910  -31.9940 C   0  0  0  0  0  0  0  0  0  0  0  0
   -9.2950   22.3710  -31.7620 C   0  0  0  0  0  0  0  0  0  0  0  0
   -9.0570   21.0060  -31.9210 C   0  0  0  0  0  0  0  0  0  0  0  0
   -7.7850   20.5270  -32.3170 C   0  0  0  0  0  0  0  0  0  0  0  0
   -7.5270   19.1700  -32.4230 N   0  0  0  0  0  0  0  0  0  0  0  0
   -8.3950   18.2020  -31.7290 C   0  0  0  0  0  0  0  0  0  0  0  0
   -6.3740   18.7600  -33.0550 C   0  0  0  0  0  0  0  0  0  0  0  0
   -5.3450   19.6730  -33.2910 C   0  0  0  0  0  0  0  0  0  0  0  0
   -4.0150   18.8980  -33.9820 S   0  0  0  0  0  0  0  0  0  0  0  0
   -4.7370   17.3870  -34.0170 C   0  0  0  0  0  0  0  0  0  0  0  0
   -4.1890   16.2180  -34.5380 C   0  0  0  0  0  0  0  0  0  0  0  0
   -4.9890   15.0710  -34.5860 C   0  0  0  0  0  0  0  0  0  0  0  0
   -6.3220   15.1230  -34.1500 C   0  0  0  0  0  0  0  0  0  0  0  0
   -6.8610   16.3140  -33.6350 C   0  0  0  0  0  0  0  0  0  0  0  0
   -6.0390   17.4530  -33.5170 C   0  0  0  0  0  0  0  0  0  0  0  0
   -3.7436   23.6655  -27.1443 H   0  0  0  0  0  0  0  0  0  0  0  0
   -4.8862   23.1191  -28.4182 H   0  0  0  0  0  0  0  0  0  0  0  0
   -3.1906   22.5261  -28.4182 H   0  0  0  0  0  0  0  0  0  0  0  0
   -3.8626   25.4904  -28.6683 H   0  0  0  0  0  0  0  0  0  0  0  0
   -2.3296   24.6267  -29.0907 H   0  0  0  0  0  0  0  0  0  0  0  0
   -4.6824   26.3413  -30.7885 H   0  0  0  0  0  0  0  0  0  0  0  0
   -5.4281   25.0483  -31.7919 H   0  0  0  0  0  0  0  0  0  0  0  0
   -5.7089   25.1959  -28.7491 H   0  0  0  0  0  0  0  0  0  0  0  0
   -6.8900   25.9240  -29.8901 H   0  0  0  0  0  0  0  0  0  0  0  0
   -6.6186   24.1483  -29.8901 H   0  0  0  0  0  0  0  0  0  0  0  0
   -4.6313   22.5225  -29.8182 H   0  0  0  0  0  0  0  0  0  0  0  0
   -4.9871   22.9440  -31.5440 H   0  0  0  0  0  0  0  0  0  0  0  0
   -2.1128   22.8085  -31.0649 H   0  0  0  0  0  0  0  0  0  0  0  0
   -2.9673   21.2629  -30.5907 H   0  0  0  0  0  0  0  0  0  0  0  0
   -2.3339   22.3174  -33.2484 H   0  0  0  0  0  0  0  0  0  0  0  0
   -2.8413   20.6603  -32.7138 H   0  0  0  0  0  0  0  0  0  0  0  0
   -4.5930   22.8760  -33.6790 H   0  0  0  0  0  0  0  0  0  0  0  0
   -6.2237   23.5929  -32.5912 H   0  0  0  0  0  0  0  0  0  0  0  0
   -8.4682   24.3649  -31.8489 H   0  0  0  0  0  0  0  0  0  0  0  0
  -10.2906   22.7210  -31.4518 H   0  0  0  0  0  0  0  0  0  0  0  0
   -9.8711   20.2898  -31.7357 H   0  0  0  0  0  0  0  0  0  0  0  0
   -8.2849   18.3248  -30.6414 H   0  0  0  0  0  0  0  0  0  0  0  0
   -9.4427   18.3790  -32.0138 H   0  0  0  0  0  0  0  0  0  0  0  0
   -8.1053   17.1798  -32.0138 H   0  0  0  0  0  0  0  0  0  0  0  0
   -3.1516   16.1966  -34.9033 H   0  0  0  0  0  0  0  0  0  0  0  0
   -4.5723   14.1267  -34.9662 H   0  0  0  0  0  0  0  0  0  0  0  0
   -6.9509   14.2226  -34.2121 H   0  0  0  0  0  0  0  0  0  0  0  0
   -7.9159   16.3572  -33.3264 H   0  0  0  0  0  0  0  0  0  0  0  0
  1  2  1  0
  2  3  1  0
  3  4  1  0
  4  5  1  0
  3  6  1  0
  6  7  1  0
  7  8  1  0
  8  9  1  0
  9 10  1  0
 10 11  2  0
 11 12  1  0
 12 13  2  0
 13 14  1  0
 14 15  2  0
 15 16  1  0
 16 17  2  0
 17 18  1  0
 17 19  1  0
 19 20  2  0
 20 21  1  0
 21 22  1  0
 22 23  2  0
 23 24  1  0
 24 25  2  0
 25 26  1  0
 26 27  2  0
 20 10  1  0
 27 22  1  0
 16 11  1  0
 27 19  1  0
  1 28  1  0
  1 29  1  0
  1 30  1  0
  2 31  1  0
  2 32  1  0
  4 33  1  0
  4 34  1  0
  5 35  1  0
  5 36  1  0
  5 37  1  0
  6 38  1  0
  6 39  1  0
  7 40  1  0
  7 41  1  0
  8 42  1  0
  8 43  1  0
  9 44  1  0
 12 45  1  0
 13 46  1  0
 14 47  1  0
 15 48  1  0
 18 49  1  0
 18 50  1  0
 18 51  1  0
 23 52  1  0
 24 53  1  0
 25 54  1  0
 26 55  1  0
M  CHG  1  17   1
M  END
>  <UniqueID>  (28) 
28

>  <SMILES>  (28) 
CCN(CC)CCCNc1c2ccccc2[n+](C)c2c1sc1ccccc12

>  <Energy>  (28) 
111.19650441790262

>  <Genealogy>  (28) 
CCN(CC)CCCNc1c2ccccc2[n+](C)c2c1sc1ccccc12 (3D coordinates assigned)
CCN(CC)CCCNc1c2ccccc2[n+](C)c2c1sc1ccccc12 (optimized conformer: 111.19650441790262 kcal/mol)

>  <smiles>  (28) 
CCN(CC)CCCNc1c2ccccc2[n+](C)c2c1sc1ccccc12

>  <score_type>  (28) 
oracle

>  <origin>  (28) 
adg

>  <m_score__min__energy>  (28) 
-9.5999999999999996

>  <m_primary>  (28) 
energy

$$$$
28:0
     RDKit          3D

 40 41  0  0  0  0  0  0  0  0999 V2000
   -6.0830   25.4140  -29.5810 C   0  0  0  0  0  0  0  0  0  0  0  0
   -5.2100   25.5100  -30.8280 C   0  0  0  0  0  0  0  0  0  0  0  0
   -3.8360   25.2980  -30.5010 O   0  0  0  0  0  0  0  0  0  0  0  0
   -3.3290   24.2340  -29.7350 C   0  0  0  0  0  0  0  0  0  0  0  0
   -3.9080   22.9520  -29.7460 C   0  0  0  0  0  0  0  0  0  0  0  0
   -3.3710   21.9250  -28.9690 C   0  0  0  0  0  0  0  0  0  0  0  0
   -2.2480   22.1550  -28.1590 C   0  0  0  0  0  0  0  0  0  0  0  0
   -1.6900   21.0520  -27.3400 C   0  0  0  0  0  0  0  0  0  0  0  0
   -1.5560   21.2160  -26.0960 O   0  0  0  0  0  0  0  0  0  0  0  0
   -1.2840   19.8110  -27.9400 N   0  0  0  0  0  0  0  0  0  0  0  0
   -0.8220   18.6760  -27.1450 C   0  0  0  0  0  0  0  0  0  0  0  0
    0.0590   17.7940  -27.9700 C   0  0  0  0  0  0  0  0  0  0  0  0
    0.8170   16.7400  -27.5020 C   0  0  0  0  0  0  0  0  0  0  0  0
    1.4740   16.2370  -28.6050 C   0  0  0  0  0  0  0  0  0  0  0  0
    1.0770   17.0160  -29.6740 C   0  0  0  0  0  0  0  0  0  0  0  0
    0.2350   17.9370  -29.2640 O   0  0  0  0  0  0  0  0  0  0  0  0
   -1.6570   23.4300  -28.1600 C   0  0  0  0  0  0  0  0  0  0  0  0
   -2.1950   24.4720  -28.9430 C   0  0  0  0  0  0  0  0  0  0  0  0
   -1.6290   25.7570  -28.9630 O   0  0  0  0  0  0  0  0  0  0  0  0
   -0.8400   26.3120  -27.9140 C   0  0  0  0  0  0  0  0  0  0  0  0
   -1.5760   26.1580  -26.5920 C   0  0  0  0  0  0  0  0  0  0  0  0
   -5.4500   25.4836  -28.6840 H   0  0  0  0  0  0  0  0  0  0  0  0
   -6.8125   26.2373  -29.5798 H   0  0  0  0  0  0  0  0  0  0  0  0
   -6.6161   24.4518  -29.5798 H   0  0  0  0  0  0  0  0  0  0  0  0
   -5.5305   24.7469  -31.5525 H   0  0  0  0  0  0  0  0  0  0  0  0
   -5.3193   26.5161  -31.2591 H   0  0  0  0  0  0  0  0  0  0  0  0
   -4.7912   22.7576  -30.3722 H   0  0  0  0  0  0  0  0  0  0  0  0
   -3.8317   20.9264  -28.9914 H   0  0  0  0  0  0  0  0  0  0  0  0
   -1.2530   19.7180  -28.9800 H   0  0  0  0  0  0  0  0  0  0  0  0
   -0.2560   19.0461  -26.2775 H   0  0  0  0  0  0  0  0  0  0  0  0
   -1.6932   18.0969  -26.8049 H   0  0  0  0  0  0  0  0  0  0  0  0
    0.8832   16.3770  -26.4657 H   0  0  0  0  0  0  0  0  0  0  0  0
    2.1726   15.3876  -28.6287 H   0  0  0  0  0  0  0  0  0  0  0  0
    1.4150   16.8849  -30.7125 H   0  0  0  0  0  0  0  0  0  0  0  0
   -0.7654   23.6171  -27.5435 H   0  0  0  0  0  0  0  0  0  0  0  0
    0.1236   25.7842  -27.8611 H   0  0  0  0  0  0  0  0  0  0  0  0
   -0.6624   27.3791  -28.1133 H   0  0  0  0  0  0  0  0  0  0  0  0
   -0.8711   26.3055  -25.7605 H   0  0  0  0  0  0  0  0  0  0  0  0
   -2.3786   26.9077  -26.5297 H   0  0  0  0  0  0  0  0  0  0  0  0
   -2.0107   25.1495  -26.5297 H   0  0  0  0  0  0  0  0  0  0  0  0
  1  2  1  0
  2  3  1  0
  3  4  1  0
  4  5  2  0
  5  6  1  0
  6  7  2  0
  7  8  1  0
  8  9  2  0
  8 10  1  0
 10 11  1  0
 11 12  1  0
 12 13  2  0
 13 14  1  0
 14 15  2  0
 15 16  1  0
  7 17  1  0
 17 18  2  0
 18 19  1  0
 19 20  1  0
 20 21  1  0
 18  4  1  0
 16 12  1  0
  1 22  1  0
  1 23  1  0
  1 24  1  0
  2 25  1  0
  2 26  1  0
  5 27  1  0
  6 28  1  0
 10 29  1  0
 11 30  1  0
 11 31  1  0
 13 32  1  0
 14 33  1  0
 15 34  1  0
 17 35  1  0
 20 36  1  0
 20 37  1  0
 21 38  1  0
 21 39  1  0
 21 40  1  0
M  END
>  <UniqueID>  (29) 
29

>  <SMILES>  (29) 
CCOc1ccc(C(=O)NCc2ccco2)cc1OCC

>  <Energy>  (29) 
59.8979202185795

>  <Genealogy>  (29) 
CCOc1ccc(C(=O)NCc2ccco2)cc1OCC (3D coordinates assigned)
CCOc1ccc(C(=O)NCc2ccco2)cc1OCC (optimized conformer: 59.8979202185795 kcal/mol)

>  <smiles>  (29) 
CCOc1ccc(C(=O)NCc2ccco2)cc1OCC

>  <score_type>  (29) 
oracle

>  <origin>  (29) 
adg

>  <m_score__min__energy>  (29) 
-7.5300000000000002

>  <m_primary>  (29) 
energy

$$$$
