0:0
     RDKit          3D

 34 35  0  0  0  0  0  0  0  0999 V2000
   -3.2190   21.5410  -32.7590 C   0  0  0  0  0  0  0  0  0  0  0  0
   -4.6650   21.1900  -32.5210 C   0  0  0  0  0  0  0  0  0  0  0  0
   -5.0290   19.8330  -32.4760 C   0  0  0  0  0  0  0  0  0  0  0  0
   -6.3610   19.4570  -32.2970 C   0  0  0  0  0  0  0  0  0  0  0  0
   -7.3510   20.4300  -32.1740 C   0  0  0  0  0  0  0  0  0  0  0  0
   -9.0260   19.9540  -31.9530 Cl  0  0  0  0  0  0  0  0  0  0  0  0
   -7.0110   21.7830  -32.2210 C   0  0  0  0  0  0  0  0  0  0  0  0
   -5.6720   22.1870  -32.3880 C   0  0  0  0  0  0  0  0  0  0  0  0
   -5.3600   23.6030  -32.3850 N   0  0  0  0  0  0  0  0  0  0  0  0
   -6.1420   24.3350  -31.3740 C   0  0  0  0  0  0  0  0  0  0  0  0
   -5.3100   25.3470  -30.6400 C   0  0  0  0  0  0  0  0  0  0  0  0
   -5.8720   26.3000  -30.0390 O   0  0  0  0  0  0  0  0  0  0  0  0
   -3.8830   25.1980  -30.6220 N   0  0  0  0  0  0  0  0  0  0  0  0
   -3.0990   24.3910  -29.7310 C   0  0  0  0  0  0  0  0  0  0  0  0
   -3.3770   23.0190  -29.6580 C   0  0  0  0  0  0  0  0  0  0  0  0
   -2.6210   22.1850  -28.8290 C   0  0  0  0  0  0  0  0  0  0  0  0
   -1.5700   22.7130  -28.0760 C   0  0  0  0  0  0  0  0  0  0  0  0
   -0.8350   21.9030  -27.2740 F   0  0  0  0  0  0  0  0  0  0  0  0
   -1.2700   24.0760  -28.1580 C   0  0  0  0  0  0  0  0  0  0  0  0
   -2.0250   24.9140  -28.9850 C   0  0  0  0  0  0  0  0  0  0  0  0
   -2.7080   21.6650  -31.7928 H   0  0  0  0  0  0  0  0  0  0  0  0
   -2.7349   20.7343  -33.3289 H   0  0  0  0  0  0  0  0  0  0  0  0
   -3.1586   22.4799  -33.3289 H   0  0  0  0  0  0  0  0  0  0  0  0
   -4.2551   19.0586  -32.5831 H   0  0  0  0  0  0  0  0  0  0  0  0
   -6.6298   18.3912  -32.2529 H   0  0  0  0  0  0  0  0  0  0  0  0
   -7.7995   22.5441  -32.1263 H   0  0  0  0  0  0  0  0  0  0  0  0
   -4.3420   23.7870  -32.2410 H   0  0  0  0  0  0  0  0  0  0  0  0
   -5.5970   23.9950  -33.3270 H   0  0  0  0  0  0  0  0  0  0  0  0
   -6.9718   24.8546  -31.8754 H   0  0  0  0  0  0  0  0  0  0  0  0
   -6.5135   23.6052  -30.6396 H   0  0  0  0  0  0  0  0  0  0  0  0
   -4.1962   22.5954  -30.2576 H   0  0  0  0  0  0  0  0  0  0  0  0
   -2.8542   21.1116  -28.7697 H   0  0  0  0  0  0  0  0  0  0  0  0
   -0.4377   24.4906  -27.5703 H   0  0  0  0  0  0  0  0  0  0  0  0
   -1.7794   25.9841  -29.0529 H   0  0  0  0  0  0  0  0  0  0  0  0
  1  2  1  0
  2  3  2  0
  3  4  1  0
  4  5  2  0
  5  6  1  0
  5  7  1  0
  7  8  2  0
  8  9  1  0
  9 10  1  0
 10 11  1  0
 11 12  2  0
 11 13  1  0
 13 14  1  0
 14 15  2  0
 15 16  1  0
 16 17  2  0
 17 18  1  0
 17 19  1  0
 19 20  2  0
  8  2  1  0
 20 14  1  0
  1 21  1  0
  1 22  1  0
  1 23  1  0
  3 24  1  0
  4 25  1  0
  7 26  1  0
  9 27  1  0
  9 28  1  0
 10 29  1  0
 10 30  1  0
 15 31  1  0
 16 32  1  0
 19 33  1  0
 20 34  1  0
M  CHG  2   9   1  13  -1
M  END
>  <UniqueID>  (1) 
1

>  <SMILES>  (1) 
Cc1ccc(Cl)cc1[NH2+]CC(=O)[N-]c1ccc(F)cc1

>  <Energy>  (1) 
38.2816311850085

>  <Genealogy>  (1) 
Cc1ccc(Cl)cc1[NH2+]CC(=O)[N-]c1ccc(F)cc1 (protonated)
Cc1ccc(Cl)cc1[NH2+]CC(=O)[N-]c1ccc(F)cc1 (3D coordinates assigned)
Cc1ccc(Cl)cc1[NH2+]CC(=O)[N-]c1ccc(F)cc1 (optimized conformer: 38.2816311850085 kcal/mol)

>  <smiles>  (1) 
Cc1ccc(Cl)cc1NCC(=O)Nc1ccc(F)cc1

>  <score_type>  (1) 
oracle

>  <origin>  (1) 
adg

>  <m_score__min__energy>  (1) 
-8.5199999999999996

>  <m_primary>  (1) 
energy

$$$$
1:0
     RDKit          3D

 44 46  0  0  0  0  0  0  0  0999 V2000
   -0.7810   20.2000  -27.4880 C   0  0  0  0  0  0  0  0  0  0  0  0
   -1.7230   21.3330  -27.7710 C   0  0  0  0  0  0  0  0  0  0  0  0
   -3.1060   21.1390  -27.6740 C   0  0  0  0  0  0  0  0  0  0  0  0
   -3.9830   22.2000  -27.9040 C   0  0  0  0  0  0  0  0  0  0  0  0
   -3.4960   23.4830  -28.2140 C   0  0  0  0  0  0  0  0  0  0  0  0
   -4.4120   24.5690  -28.4510 N   0  0  0  0  0  0  0  0  0  0  0  0
   -5.1640   24.8410  -29.9910 S   0  0  0  0  0  0  0  0  0  0  0  0
   -4.2500   25.6720  -30.8460 O   0  0  0  0  0  0  0  0  0  0  0  0
   -6.4570   25.5810  -29.7910 O   0  0  0  0  0  0  0  0  0  0  0  0
   -5.5130   23.2970  -30.7630 C   0  0  0  0  0  0  0  0  0  0  0  0
   -6.8240   22.8080  -30.8250 C   0  0  0  0  0  0  0  0  0  0  0  0
   -7.0920   21.5940  -31.4630 C   0  0  0  0  0  0  0  0  0  0  0  0
   -6.0550   20.8540  -32.0560 C   0  0  0  0  0  0  0  0  0  0  0  0
   -6.3250   19.5980  -32.7100 N   0  0  0  0  0  0  0  0  0  0  0  0
   -5.7270   19.1730  -33.9660 C   0  0  0  0  0  0  0  0  0  0  0  0
   -6.1230   17.6970  -34.1500 C   0  0  0  0  0  0  0  0  0  0  0  0
   -7.2240   17.3950  -33.1240 C   0  0  0  0  0  0  0  0  0  0  0  0
   -7.2200   18.5930  -32.2620 C   0  0  0  0  0  0  0  0  0  0  0  0
   -7.9870   18.7360  -31.2730 O   0  0  0  0  0  0  0  0  0  0  0  0
   -4.7380   21.3420  -31.9730 C   0  0  0  0  0  0  0  0  0  0  0  0
   -4.4720   22.5560  -31.3340 C   0  0  0  0  0  0  0  0  0  0  0  0
   -2.0970   23.6870  -28.2920 C   0  0  0  0  0  0  0  0  0  0  0  0
   -1.5240   25.0450  -28.5980 C   0  0  0  0  0  0  0  0  0  0  0  0
   -1.2250   22.6090  -28.0670 C   0  0  0  0  0  0  0  0  0  0  0  0
   -0.6759   20.0735  -26.4004 H   0  0  0  0  0  0  0  0  0  0  0  0
   -1.1789   19.2737  -27.9281 H   0  0  0  0  0  0  0  0  0  0  0  0
    0.2024   20.4221  -27.9281 H   0  0  0  0  0  0  0  0  0  0  0  0
   -3.5031   20.1463  -27.4155 H   0  0  0  0  0  0  0  0  0  0  0  0
   -5.0682   22.0311  -27.8422 H   0  0  0  0  0  0  0  0  0  0  0  0
   -4.7450   25.1570  -27.6570 H   0  0  0  0  0  0  0  0  0  0  0  0
   -7.6452   23.3813  -30.3701 H   0  0  0  0  0  0  0  0  0  0  0  0
   -8.1237   21.2143  -31.5014 H   0  0  0  0  0  0  0  0  0  0  0  0
   -6.1153   19.7789  -34.7979 H   0  0  0  0  0  0  0  0  0  0  0  0
   -4.6341   19.2970  -33.9528 H   0  0  0  0  0  0  0  0  0  0  0  0
   -6.5015   17.5320  -35.1696 H   0  0  0  0  0  0  0  0  0  0  0  0
   -5.2559   17.0369  -34.0002 H   0  0  0  0  0  0  0  0  0  0  0  0
   -8.1988   17.2675  -33.6175 H   0  0  0  0  0  0  0  0  0  0  0  0
   -7.0504   16.4624  -32.5671 H   0  0  0  0  0  0  0  0  0  0  0  0
   -3.9124   20.7642  -32.4140 H   0  0  0  0  0  0  0  0  0  0  0  0
   -3.4393   22.9311  -31.2795 H   0  0  0  0  0  0  0  0  0  0  0  0
   -1.3025   25.5700  -27.6571 H   0  0  0  0  0  0  0  0  0  0  0  0
   -0.5979   24.9295  -29.1803 H   0  0  0  0  0  0  0  0  0  0  0  0
   -2.2529   25.6278  -29.1803 H   0  0  0  0  0  0  0  0  0  0  0  0
   -0.1381   22.7683  -28.1238 H   0  0  0  0  0  0  0  0  0  0  0  0
  1  2  1  0
  2  3  2  0
  3  4  1  0
  4  5  2  0
  5  6  1  0
  6  7  1  0
  7  8  2  0
  7  9  2  0
  7 10  1  0
 10 11  2  0
 11 12  1  0
 12 13  2  0
 13 14  1  0
 14 15  1  0
 15 16  1  0
 16 17  1  0
 17 18  1  0
 18 19  2  0
 13 20  1  0
 20 21  2  0
  5 22  1  0
 22 23  1  0
 22 24  2  0
 24  2  1  0
 21 10  1  0
 18 14  1  0
  1 25  1  0
  1 26  1  0
  1 27  1  0
  3 28  1  0
  4 29  1  0
  6 30  1  0
 11 31  1  0
 12 32  1  0
 15 33  1  0
 15 34  1  0
 16 35  1  0
 16 36  1  0
 17 37  1  0
 17 38  1  0
 20 39  1  0
 21 40  1  0
 23 41  1  0
 23 42  1  0
 23 43  1  0
 24 44  1  0
M  END
>  <UniqueID>  (2) 
2

>  <SMILES>  (2) 
Cc1ccc(NS(=O)(=O)c2ccc(N3CCCC3=O)cc2)c(C)c1

>  <Energy>  (2) 
58.422752284591766

>  <Genealogy>  (2) 
Cc1ccc(NS(=O)(=O)c2ccc(N3CCCC3=O)cc2)c(C)c1 (3D coordinates assigned)
Cc1ccc(NS(=O)(=O)c2ccc(N3CCCC3=O)cc2)c(C)c1 (nonaromatic ring conformer: 58.422752284591766 kcal/mol)

>  <smiles>  (2) 
Cc1ccc(NS(=O)(=O)c2ccc(N3CCCC3=O)cc2)c(C)c1

>  <score_type>  (2) 
oracle

>  <origin>  (2) 
adg

>  <m_score__min__energy>  (2) 
-9.4299999999999997

>  <m_primary>  (2) 
energy

$$$$
2:0
     RDKit          3D

 27 28  0  0  0  0  0  0  0  0999 V2000
   -2.1910   23.3900  -29.6770 C   0  0  0  0  0  0  0  0  0  0  0  0
   -3.5870   23.7560  -30.0560 C   0  0  0  0  0  0  0  0  0  0  0  0
   -4.4580   24.5140  -29.2970 C   0  0  0  0  0  0  0  0  0  0  0  0
   -5.5840   24.6240  -30.0880 C   0  0  0  0  0  0  0  0  0  0  0  0
   -6.8620   25.2980  -29.6940 C   0  0  0  0  0  0  0  0  0  0  0  0
   -5.3670   23.9660  -31.2490 N   0  0  0  0  0  0  0  0  0  0  0  0
   -6.3130   23.7710  -32.3460 C   0  0  0  0  0  0  0  0  0  0  0  0
   -7.1300   22.5360  -32.1060 C   0  0  0  0  0  0  0  0  0  0  0  0
   -6.6880   21.2790  -32.5460 C   0  0  0  0  0  0  0  0  0  0  0  0
   -7.4870   20.1560  -32.3250 C   0  0  0  0  0  0  0  0  0  0  0  0
   -8.7140   20.2940  -31.6720 C   0  0  0  0  0  0  0  0  0  0  0  0
   -9.1250   21.5590  -31.2510 C   0  0  0  0  0  0  0  0  0  0  0  0
   -8.3330   22.6420  -31.4760 N   0  0  0  0  0  0  0  0  0  0  0  0
   -4.1530   23.4380  -31.2370 N   0  0  0  0  0  0  0  0  0  0  0  0
   -2.1028   23.3669  -28.5808 H   0  0  0  0  0  0  0  0  0  0  0  0
   -1.9483   22.3979  -30.0854 H   0  0  0  0  0  0  0  0  0  0  0  0
   -1.4928   24.1354  -30.0854 H   0  0  0  0  0  0  0  0  0  0  0  0
   -4.2923   24.9332  -28.2936 H   0  0  0  0  0  0  0  0  0  0  0  0
   -6.9336   25.3357  -28.5970 H   0  0  0  0  0  0  0  0  0  0  0  0
   -6.8766   26.3211  -30.0978 H   0  0  0  0  0  0  0  0  0  0  0  0
   -7.7145   24.7322  -30.0978 H   0  0  0  0  0  0  0  0  0  0  0  0
   -6.9808   24.6427  -32.4103 H   0  0  0  0  0  0  0  0  0  0  0  0
   -5.7555   23.6576  -33.2875 H   0  0  0  0  0  0  0  0  0  0  0  0
   -5.7208   21.1795  -33.0603 H   0  0  0  0  0  0  0  0  0  0  0  0
   -7.1512   19.1649  -32.6642 H   0  0  0  0  0  0  0  0  0  0  0  0
   -9.3496   19.4145  -31.4916 H   0  0  0  0  0  0  0  0  0  0  0  0
  -10.0898   21.6808  -30.7369 H   0  0  0  0  0  0  0  0  0  0  0  0
  1  2  1  0
  2  3  1  0
  3  4  2  0
  4  5  1  0
  4  6  1  0
  6  7  1  0
  7  8  1  0
  8  9  2  0
  9 10  1  0
 10 11  2  0
 11 12  1  0
 12 13  2  0
  6 14  1  0
 14  2  2  0
 13  8  1  0
  1 15  1  0
  1 16  1  0
  1 17  1  0
  3 18  1  0
  5 19  1  0
  5 20  1  0
  5 21  1  0
  7 22  1  0
  7 23  1  0
  9 24  1  0
 10 25  1  0
 11 26  1  0
 12 27  1  0
M  END
>  <UniqueID>  (3) 
3

>  <SMILES>  (3) 
Cc1cc(C)n(Cc2ccccn2)n1

>  <Energy>  (3) 
53.43060668511969

>  <Genealogy>  (3) 
Cc1cc(C)n(Cc2ccccn2)n1 (3D coordinates assigned)
Cc1cc(C)n(Cc2ccccn2)n1 (optimized conformer: 53.43060668511969 kcal/mol)

>  <smiles>  (3) 
Cc1cc(C)n(Cc2ccccn2)n1

>  <score_type>  (3) 
oracle

>  <origin>  (3) 
adg

>  <m_score__min__energy>  (3) 
-5.8700000000000001

>  <m_primary>  (3) 
energy

$$$$
3:0
     RDKit          3D

 28 29  0  0  0  0  0  0  0  0999 V2000
   -5.7400   25.7160  -30.0960 C   0  0  0  0  0  0  0  0  0  0  0  0
   -5.5200   24.3630  -30.6930 C   0  0  0  0  0  0  0  0  0  0  0  0
   -6.6080   23.5780  -31.0870 C   0  0  0  0  0  0  0  0  0  0  0  0
   -6.3610   22.3130  -31.6430 C   0  0  0  0  0  0  0  0  0  0  0  0
   -7.4290   21.4500  -32.0700 N   0  0  0  0  0  0  0  0  0  0  0  0
   -7.3840   20.4360  -32.9590 C   0  0  0  0  0  0  0  0  0  0  0  0
   -8.5970   19.8720  -33.0840 N   0  0  0  0  0  0  0  0  0  0  0  0
   -9.3730   20.5800  -32.2420 C   0  0  0  0  0  0  0  0  0  0  0  0
   -8.6700   21.5460  -31.6180 N   0  0  0  0  0  0  0  0  0  0  0  0
   -5.0750   21.8920  -31.7790 N   0  0  0  0  0  0  0  0  0  0  0  0
   -4.0220   22.6640  -31.3930 C   0  0  0  0  0  0  0  0  0  0  0  0
   -2.6730   22.1860  -31.5530 N   0  0  0  0  0  0  0  0  0  0  0  0
   -2.2740   21.5440  -32.8090 C   0  0  0  0  0  0  0  0  0  0  0  0
   -1.7090   22.3450  -30.4600 C   0  0  0  0  0  0  0  0  0  0  0  0
   -4.2560   23.8910  -30.8540 N   0  0  0  0  0  0  0  0  0  0  0  0
   -5.7275   25.6391  -28.9988 H   0  0  0  0  0  0  0  0  0  0  0  0
   -4.9407   26.3963  -30.4250 H   0  0  0  0  0  0  0  0  0  0  0  0
   -6.7137   26.1080  -30.4250 H   0  0  0  0  0  0  0  0  0  0  0  0
   -7.6377   23.9447  -30.9636 H   0  0  0  0  0  0  0  0  0  0  0  0
   -6.4831   20.1168  -33.5035 H   0  0  0  0  0  0  0  0  0  0  0  0
   -8.8740   19.0700  -33.6940 H   0  0  0  0  0  0  0  0  0  0  0  0
  -10.4454   20.3937  -32.0833 H   0  0  0  0  0  0  0  0  0  0  0  0
   -1.7052   20.6287  -32.5884 H   0  0  0  0  0  0  0  0  0  0  0  0
   -3.1715   21.2867  -33.3905 H   0  0  0  0  0  0  0  0  0  0  0  0
   -1.6459   22.2349  -33.3905 H   0  0  0  0  0  0  0  0  0  0  0  0
   -2.2308   22.2589  -29.4955 H   0  0  0  0  0  0  0  0  0  0  0  0
   -0.9403   21.5615  -30.5322 H   0  0  0  0  0  0  0  0  0  0  0  0
   -1.2326   23.3339  -30.5322 H   0  0  0  0  0  0  0  0  0  0  0  0
  1  2  1  0
  2  3  2  0
  3  4  1  0
  4  5  1  0
  5  6  1  0
  6  7  2  0
  7  8  1  0
  8  9  2  0
  4 10  2  0
 10 11  1  0
 11 12  1  0
 12 13  1  0
 12 14  1  0
 11 15  2  0
 15  2  1  0
  9  5  1  0
  1 16  1  0
  1 17  1  0
  1 18  1  0
  3 19  1  0
  6 20  1  0
  7 21  1  0
  8 22  1  0
 13 23  1  0
 13 24  1  0
 13 25  1  0
 14 26  1  0
 14 27  1  0
 14 28  1  0
M  CHG  1   7   1
M  END
>  <UniqueID>  (4) 
4

>  <SMILES>  (4) 
Cc1cc(-n2c[nH+]cn2)nc(N(C)C)n1

>  <Energy>  (4) 
60.17743105458008

>  <Genealogy>  (4) 
Cc1cc(-n2c[nH+]cn2)nc(N(C)C)n1 (protonated)
Cc1cc(-n2c[nH+]cn2)nc(N(C)C)n1 (3D coordinates assigned)
Cc1cc(-n2c[nH+]cn2)nc(N(C)C)n1 (optimized conformer: 60.17743105458008 kcal/mol)

>  <smiles>  (4) 
Cc1cc(-n2cncn2)nc(N(C)C)n1

>  <score_type>  (4) 
oracle

>  <origin>  (4) 
adg

>  <m_score__min__energy>  (4) 
-5.4400000000000004

>  <m_primary>  (4) 
energy

$$$$
4:0
     RDKit          3D

 39 41  0  0  0  0  0  0  0  0999 V2000
   -4.2390   24.5370  -27.0060 C   0  0  0  0  0  0  0  0  0  0  0  0
   -3.1810   24.1000  -27.9360 N   0  0  0  0  0  0  0  0  0  0  0  0
   -3.6740   23.9850  -29.3250 C   0  0  0  0  0  0  0  0  0  0  0  0
   -5.0930   24.5470  -29.4540 C   0  0  0  0  0  0  0  0  0  0  0  0
   -5.9400   23.6050  -30.1810 N   0  0  0  0  0  0  0  0  0  0  0  0
   -7.1350   23.1960  -29.7630 N   0  0  0  0  0  0  0  0  0  0  0  0
   -7.5380   22.2860  -30.6760 C   0  0  0  0  0  0  0  0  0  0  0  0
   -8.7340   21.5730  -30.6720 C   0  0  0  0  0  0  0  0  0  0  0  0
   -8.9470   20.6620  -31.7210 C   0  0  0  0  0  0  0  0  0  0  0  0
   -7.9740   20.4900  -32.7290 C   0  0  0  0  0  0  0  0  0  0  0  0
   -6.7870   21.2350  -32.6790 C   0  0  0  0  0  0  0  0  0  0  0  0
   -6.6290   22.1030  -31.6490 N   0  0  0  0  0  0  0  0  0  0  0  0
   -5.6340   22.9360  -31.3130 C   0  0  0  0  0  0  0  0  0  0  0  0
   -4.5590   23.0670  -31.9580 O   0  0  0  0  0  0  0  0  0  0  0  0
   -1.9720   24.9530  -27.8360 C   0  0  0  0  0  0  0  0  0  0  0  0
   -1.3470   24.9640  -26.4560 C   0  0  0  0  0  0  0  0  0  0  0  0
   -1.3930   26.1190  -25.6600 C   0  0  0  0  0  0  0  0  0  0  0  0
   -0.8180   26.1040  -24.3880 C   0  0  0  0  0  0  0  0  0  0  0  0
   -0.2130   24.9780  -23.9220 N   0  0  0  0  0  0  0  0  0  0  0  0
   -0.1470   23.8470  -24.6760 C   0  0  0  0  0  0  0  0  0  0  0  0
   -0.7090   23.8200  -25.9540 C   0  0  0  0  0  0  0  0  0  0  0  0
   -3.8976   24.3960  -25.9699 H   0  0  0  0  0  0  0  0  0  0  0  0
   -4.4614   25.6006  -27.1773 H   0  0  0  0  0  0  0  0  0  0  0  0
   -5.1471   23.9404  -27.1773 H   0  0  0  0  0  0  0  0  0  0  0  0
   -3.0032   24.5462  -29.9921 H   0  0  0  0  0  0  0  0  0  0  0  0
   -3.6928   22.9207  -29.6024 H   0  0  0  0  0  0  0  0  0  0  0  0
   -5.5114   24.7133  -28.4504 H   0  0  0  0  0  0  0  0  0  0  0  0
   -5.0556   25.4982  -30.0053 H   0  0  0  0  0  0  0  0  0  0  0  0
   -9.4827   21.7170  -29.8791 H   0  0  0  0  0  0  0  0  0  0  0  0
   -9.8789   20.0787  -31.7567 H   0  0  0  0  0  0  0  0  0  0  0  0
   -8.1457   19.7763  -33.5483 H   0  0  0  0  0  0  0  0  0  0  0  0
   -6.0102   21.1193  -33.4492 H   0  0  0  0  0  0  0  0  0  0  0  0
   -1.2247   24.5817  -28.5527 H   0  0  0  0  0  0  0  0  0  0  0  0
   -2.2870   25.9840  -28.0545 H   0  0  0  0  0  0  0  0  0  0  0  0
   -1.8794   27.0310  -26.0363 H   0  0  0  0  0  0  0  0  0  0  0  0
   -0.8542   27.0063  -23.7599 H   0  0  0  0  0  0  0  0  0  0  0  0
    0.2120   24.9820  -22.9690 H   0  0  0  0  0  0  0  0  0  0  0  0
    0.3509   22.9508  -24.2773 H   0  0  0  0  0  0  0  0  0  0  0  0
   -0.6517   22.9064  -26.5639 H   0  0  0  0  0  0  0  0  0  0  0  0
  1  2  1  0
  2  3  1  0
  3  4  1  0
  4  5  1  0
  5  6  1  0
  6  7  2  0
  7  8  1  0
  8  9  2  0
  9 10  1  0
 10 11  2  0
 11 12  1  0
 12 13  1  0
 13 14  2  0
  2 15  1  0
 15 16  1  0
 16 17  2  0
 17 18  1  0
 18 19  2  0
 19 20  1  0
 20 21  2  0
 13  5  1  0
 21 16  1  0
 12  7  1  0
  1 22  1  0
  1 23  1  0
  1 24  1  0
  3 25  1  0
  3 26  1  0
  4 27  1  0
  4 28  1  0
  8 29  1  0
  9 30  1  0
 10 31  1  0
 11 32  1  0
 15 33  1  0
 15 34  1  0
 17 35  1  0
 18 36  1  0
 19 37  1  0
 20 38  1  0
 21 39  1  0
M  CHG  1  19   1
M  END
>  <UniqueID>  (5) 
5

>  <SMILES>  (5) 
CN(CCn1nc2ccccn2c1=O)Cc1cc[nH+]cc1

>  <Energy>  (5) 
85.83490329341713

>  <Genealogy>  (5) 
CN(CCn1nc2ccccn2c1=O)Cc1cc[nH+]cc1 (protonated)
CN(CCn1nc2ccccn2c1=O)Cc1cc[nH+]cc1 (3D coordinates assigned)
CN(CCn1nc2ccccn2c1=O)Cc1cc[nH+]cc1 (optimized conformer: 85.83490329341713 kcal/mol)

>  <smiles>  (5) 
CN(CCn1nc2ccccn2c1=O)Cc1ccncc1

>  <score_type>  (5) 
oracle

>  <origin>  (5) 
adg

>  <m_score__min__energy>  (5) 
-7.2300000000000004

>  <m_primary>  (5) 
energy

$$$$
5:0
     RDKit          3D

 40 42  0  0  0  0  0  0  0  0999 V2000
   -6.3269   26.2327  -29.8727 H   0  0  0  0  0  0  0  0  0  0  0  0
   -5.8280   25.4470  -30.4590 C   0  0  0  0  0  0  0  0  0  0  0  0
   -4.6070   25.6280  -30.8670 N   0  0  0  0  0  0  0  0  0  0  0  0
   -3.5060   24.9210  -30.4070 O   0  0  0  0  0  0  0  0  0  0  0  0
   -3.3640   23.5090  -30.5320 C   0  0  0  0  0  0  0  0  0  0  0  0
   -4.3582   23.0383  -30.5241 H   0  0  0  0  0  0  0  0  0  0  0  0
   -2.8547   23.2739  -31.4782 H   0  0  0  0  0  0  0  0  0  0  0  0
   -2.5400   22.9760  -29.3650 C   0  0  0  0  0  0  0  0  0  0  0  0
   -3.1365   22.2394  -28.8068 H   0  0  0  0  0  0  0  0  0  0  0  0
   -1.6279   22.5038  -29.7589 H   0  0  0  0  0  0  0  0  0  0  0  0
   -2.1600   24.0660  -28.4690 N   0  0  0  0  0  0  0  0  0  0  0  0
   -2.9200   24.5540  -27.3610 C   0  0  0  0  0  0  0  0  0  0  0  0
   -4.1370   24.2960  -27.1670 O   0  0  0  0  0  0  0  0  0  0  0  0
   -2.0710   25.3570  -26.4870 C   0  0  0  0  0  0  0  0  0  0  0  0
   -2.3630   26.0340  -25.3040 C   0  0  0  0  0  0  0  0  0  0  0  0
   -3.3802   26.0299  -24.8854 H   0  0  0  0  0  0  0  0  0  0  0  0
   -1.3190   26.7220  -24.6620 C   0  0  0  0  0  0  0  0  0  0  0  0
   -1.5180   27.2701  -23.7293 H   0  0  0  0  0  0  0  0  0  0  0  0
   -0.0160   26.7140  -25.2070 C   0  0  0  0  0  0  0  0  0  0  0  0
    0.7930   27.2556  -24.6950 H   0  0  0  0  0  0  0  0  0  0  0  0
    0.2550   26.0190  -26.3990 C   0  0  0  0  0  0  0  0  0  0  0  0
    1.2674   26.0038  -26.8289 H   0  0  0  0  0  0  0  0  0  0  0  0
   -0.7990   25.3500  -27.0190 C   0  0  0  0  0  0  0  0  0  0  0  0
   -0.8330   24.5420  -28.2330 C   0  0  0  0  0  0  0  0  0  0  0  0
    0.1580   24.2720  -28.9620 O   0  0  0  0  0  0  0  0  0  0  0  0
   -6.5540   24.1990  -30.7730 C   0  0  0  0  0  0  0  0  0  0  0  0
   -7.2060   23.4560  -29.7730 C   0  0  0  0  0  0  0  0  0  0  0  0
   -7.1806   23.8033  -28.7296 H   0  0  0  0  0  0  0  0  0  0  0  0
   -7.8860   22.2790  -30.0970 C   0  0  0  0  0  0  0  0  0  0  0  0
   -8.3930   21.7071  -29.3058 H   0  0  0  0  0  0  0  0  0  0  0  0
   -7.9280   21.8210  -31.4190 C   0  0  0  0  0  0  0  0  0  0  0  0
   -8.6240   20.6340  -31.6920 O   0  0  0  0  0  0  0  0  0  0  0  0
   -8.1080   19.5640  -32.4760 C   0  0  0  0  0  0  0  0  0  0  0  0
   -7.7269   18.7738  -31.8124 H   0  0  0  0  0  0  0  0  0  0  0  0
   -8.9081   19.1555  -33.1108 H   0  0  0  0  0  0  0  0  0  0  0  0
   -7.2901   19.9358  -33.1108 H   0  0  0  0  0  0  0  0  0  0  0  0
   -7.2760   22.5630  -32.4220 C   0  0  0  0  0  0  0  0  0  0  0  0
   -7.3023   22.2145  -33.4650 H   0  0  0  0  0  0  0  0  0  0  0  0
   -6.5950   23.7410  -32.0990 C   0  0  0  0  0  0  0  0  0  0  0  0
   -6.0878   24.3128  -32.8900 H   0  0  0  0  0  0  0  0  0  0  0  0
  1  2  1  0
  2  3  2  0
  3  4  1  0
  4  5  1  0
  5  6  1  0
  5  7  1  0
  5  8  1  0
  8  9  1  0
  8 10  1  0
  8 11  1  0
 11 12  1  0
 12 13  2  0
 12 14  1  0
 14 15  2  0
 15 16  1  0
 15 17  1  0
 17 18  1  0
 17 19  2  0
 19 20  1  0
 19 21  1  0
 21 22  1  0
 21 23  2  0
 23 24  1  0
 24 25  2  0
  2 26  1  0
 26 27  2  0
 27 28  1  0
 27 29  1  0
 29 30  1  0
 29 31  2  0
 31 32  1  0
 32 33  1  0
 33 34  1  0
 33 35  1  0
 33 36  1  0
 31 37  1  0
 37 38  1  0
 37 39  2  0
 39 40  1  0
 24 11  1  0
 39 26  1  0
 23 14  1  0
M  END
>  <UniqueID>  (6) 
6

>  <SMILES>  (6) 
COc1ccc(/C=N/OCCN2C(=O)c3ccccc3C2=O)cc1

>  <Energy>  (6) 
70.80124037226881

>  <Genealogy>  (6) 
COc1ccc(/C=N/OCCN2C(=O)c3ccccc3C2=O)cc1 (cis-trans isomerization)
COc1ccc(/C=N/OCCN2C(=O)c3ccccc3C2=O)cc1 (3D coordinates assigned)
COc1ccc(/C=N/OCCN2C(=O)c3ccccc3C2=O)cc1 (nonaromatic ring conformer: 70.80124037226881 kcal/mol)

>  <smiles>  (6) 
COc1ccc(C=NOCCN2C(=O)c3ccccc3C2=O)cc1

>  <score_type>  (6) 
oracle

>  <origin>  (6) 
adg

>  <m_score__min__energy>  (6) 
-8.9199999999999999

>  <m_primary>  (6) 
energy

$$$$
6:0
     RDKit          3D

 44 47  0  0  0  0  0  0  0  0999 V2000
   -5.8420   18.0170  -34.1340 C   0  0  0  0  0  0  0  0  0  0  0  0
   -4.4460   17.9460  -34.1120 C   0  0  0  0  0  0  0  0  0  0  0  0
   -3.6940   19.0720  -33.7620 C   0  0  0  0  0  0  0  0  0  0  0  0
   -4.3360   20.2750  -33.4240 C   0  0  0  0  0  0  0  0  0  0  0  0
   -3.5330   21.5020  -33.0860 C   0  0  0  0  0  0  0  0  0  0  0  0
   -4.4250   22.6080  -32.7490 N   0  0  0  0  0  0  0  0  0  0  0  0
   -4.5900   23.0510  -31.3970 C   0  0  0  0  0  0  0  0  0  0  0  0
   -3.6300   23.5750  -30.6720 O   0  0  0  0  0  0  0  0  0  0  0  0
   -4.1350   23.8190  -29.4810 C   0  0  0  0  0  0  0  0  0  0  0  0
   -3.3540   24.4310  -28.3800 C   0  0  0  0  0  0  0  0  0  0  0  0
   -2.0460   24.8860  -28.6300 C   0  0  0  0  0  0  0  0  0  0  0  0
   -1.2910   25.4680  -27.6080 C   0  0  0  0  0  0  0  0  0  0  0  0
   -1.8300   25.6000  -26.3270 C   0  0  0  0  0  0  0  0  0  0  0  0
   -3.1260   25.1500  -26.0650 C   0  0  0  0  0  0  0  0  0  0  0  0
   -3.8860   24.5670  -27.0840 C   0  0  0  0  0  0  0  0  0  0  0  0
   -5.4360   23.4550  -29.4050 N   0  0  0  0  0  0  0  0  0  0  0  0
   -5.7360   22.9760  -30.6270 C   0  0  0  0  0  0  0  0  0  0  0  0
   -7.0810   22.5180  -31.0320 C   0  0  0  0  0  0  0  0  0  0  0  0
   -7.9820   23.4240  -31.6150 C   0  0  0  0  0  0  0  0  0  0  0  0
   -9.2520   22.9960  -32.0180 C   0  0  0  0  0  0  0  0  0  0  0  0
   -9.6260   21.6600  -31.8530 C   0  0  0  0  0  0  0  0  0  0  0  0
   -8.7290   20.7480  -31.2920 C   0  0  0  0  0  0  0  0  0  0  0  0
   -7.4590   21.1710  -30.8860 C   0  0  0  0  0  0  0  0  0  0  0  0
   -5.7380   20.3400  -33.4570 C   0  0  0  0  0  0  0  0  0  0  0  0
   -6.4880   19.2120  -33.8070 C   0  0  0  0  0  0  0  0  0  0  0  0
   -6.4327   17.1308  -34.4091 H   0  0  0  0  0  0  0  0  0  0  0  0
   -3.9390   17.0045  -34.3700 H   0  0  0  0  0  0  0  0  0  0  0  0
   -2.5955   19.0155  -33.7513 H   0  0  0  0  0  0  0  0  0  0  0  0
   -2.8815   21.2852  -32.2266 H   0  0  0  0  0  0  0  0  0  0  0  0
   -2.9226   21.7840  -33.9565 H   0  0  0  0  0  0  0  0  0  0  0  0
   -4.9870   23.0470  -33.5120 H   0  0  0  0  0  0  0  0  0  0  0  0
   -1.6149   24.7829  -29.6367 H   0  0  0  0  0  0  0  0  0  0  0  0
   -0.2702   25.8227  -27.8133 H   0  0  0  0  0  0  0  0  0  0  0  0
   -1.2341   26.0584  -25.5240 H   0  0  0  0  0  0  0  0  0  0  0  0
   -3.5497   25.2543  -25.0553 H   0  0  0  0  0  0  0  0  0  0  0  0
   -4.9054   24.2127  -26.8714 H   0  0  0  0  0  0  0  0  0  0  0  0
   -6.0930   23.5590  -28.6000 H   0  0  0  0  0  0  0  0  0  0  0  0
   -7.6881   24.4747  -31.7555 H   0  0  0  0  0  0  0  0  0  0  0  0
   -9.9567   23.7124  -32.4653 H   0  0  0  0  0  0  0  0  0  0  0  0
  -10.6267   21.3264  -32.1648 H   0  0  0  0  0  0  0  0  0  0  0  0
   -9.0219   19.6949  -31.1692 H   0  0  0  0  0  0  0  0  0  0  0  0
   -6.7535   20.4478  -30.4511 H   0  0  0  0  0  0  0  0  0  0  0  0
   -6.2488   21.2815  -33.2067 H   0  0  0  0  0  0  0  0  0  0  0  0
   -7.5865   19.2659  -33.8247 H   0  0  0  0  0  0  0  0  0  0  0  0
  1  2  2  0
  2  3  1  0
  3  4  2  0
  4  5  1  0
  5  6  1  0
  6  7  1  0
  7  8  1  0
  8  9  1  0
  9 10  1  0
 10 11  2  0
 11 12  1  0
 12 13  2  0
 13 14  1  0
 14 15  2  0
  9 16  2  0
 16 17  1  0
 17 18  1  0
 18 19  2  0
 19 20  1  0
 20 21  2  0
 21 22  1  0
 22 23  2  0
  4 24  1  0
 24 25  2  0
 25  1  1  0
 17  7  2  0
 23 18  1  0
 15 10  1  0
  1 26  1  0
  2 27  1  0
  3 28  1  0
  5 29  1  0
  5 30  1  0
  6 31  1  0
 11 32  1  0
 12 33  1  0
 13 34  1  0
 14 35  1  0
 15 36  1  0
 16 37  1  0
 19 38  1  0
 20 39  1  0
 21 40  1  0
 22 41  1  0
 23 42  1  0
 24 43  1  0
 25 44  1  0
M  CHG  1  16   1
M  END
>  <UniqueID>  (7) 
7

>  <SMILES>  (7) 
c1ccc(CNc2oc(-c3ccccc3)[nH+]c2-c2ccccc2)cc1

>  <Energy>  (7) 
82.07039393887885

>  <Genealogy>  (7) 
c1ccc(CNc2oc(-c3ccccc3)[nH+]c2-c2ccccc2)cc1 (protonated)
c1ccc(CNc2oc(-c3ccccc3)[nH+]c2-c2ccccc2)cc1 (3D coordinates assigned)
c1ccc(CNc2oc(-c3ccccc3)[nH+]c2-c2ccccc2)cc1 (optimized conformer: 82.07039393887885 kcal/mol)

>  <smiles>  (7) 
c1ccc(CNc2oc(-c3ccccc3)nc2-c2ccccc2)cc1

>  <score_type>  (7) 
oracle

>  <origin>  (7) 
adg

>  <m_score__min__energy>  (7) 
-8.5

>  <m_primary>  (7) 
energy

$$$$
7:0
     RDKit          3D

 29 31  0  0  0  0  0  0  0  0999 V2000
   -1.3850   25.1990  -27.9840 C   0  0  0  0  0  0  0  0  0  0  0  0
   -2.0030   25.3050  -29.2620 O   0  0  0  0  0  0  0  0  0  0  0  0
   -3.0140   24.4510  -29.7260 C   0  0  0  0  0  0  0  0  0  0  0  0
   -2.7280   23.0870  -29.8520 C   0  0  0  0  0  0  0  0  0  0  0  0
   -3.7020   22.1950  -30.3090 C   0  0  0  0  0  0  0  0  0  0  0  0
   -4.9860   22.6520  -30.6530 C   0  0  0  0  0  0  0  0  0  0  0  0
   -6.0070   21.6900  -31.1370 C   0  0  0  0  0  0  0  0  0  0  0  0
   -7.3120   21.9840  -31.5240 C   0  0  0  0  0  0  0  0  0  0  0  0
   -7.8820   20.8280  -31.8890 N   0  0  0  0  0  0  0  0  0  0  0  0
   -9.1360   20.5780  -32.3410 C   0  0  0  0  0  0  0  0  0  0  0  0
   -9.4740   19.2530  -32.6570 C   0  0  0  0  0  0  0  0  0  0  0  0
   -8.5120   18.2360  -32.4950 C   0  0  0  0  0  0  0  0  0  0  0  0
   -7.2260   18.5440  -32.0220 C   0  0  0  0  0  0  0  0  0  0  0  0
   -6.9480   19.8770  -31.7270 C   0  0  0  0  0  0  0  0  0  0  0  0
   -5.7770   20.3580  -31.2660 N   0  0  0  0  0  0  0  0  0  0  0  0
   -5.2730   24.0240  -30.5270 C   0  0  0  0  0  0  0  0  0  0  0  0
   -4.2980   24.9150  -30.0690 C   0  0  0  0  0  0  0  0  0  0  0  0
   -2.1435   25.3291  -27.1980 H   0  0  0  0  0  0  0  0  0  0  0  0
   -0.9188   24.2078  -27.8832 H   0  0  0  0  0  0  0  0  0  0  0  0
   -0.6152   25.9782  -27.8832 H   0  0  0  0  0  0  0  0  0  0  0  0
   -1.7274   22.7134  -29.5889 H   0  0  0  0  0  0  0  0  0  0  0  0
   -3.4616   21.1255  -30.4003 H   0  0  0  0  0  0  0  0  0  0  0  0
   -7.7850   22.9771  -31.5290 H   0  0  0  0  0  0  0  0  0  0  0  0
   -9.8678   21.3911  -32.4567 H   0  0  0  0  0  0  0  0  0  0  0  0
  -10.4808   19.0105  -33.0278 H   0  0  0  0  0  0  0  0  0  0  0  0
   -8.7698   17.1952  -32.7404 H   0  0  0  0  0  0  0  0  0  0  0  0
   -6.4653   17.7607  -31.8892 H   0  0  0  0  0  0  0  0  0  0  0  0
   -6.2730   24.3985  -30.7911 H   0  0  0  0  0  0  0  0  0  0  0  0
   -4.5356   25.9850  -29.9761 H   0  0  0  0  0  0  0  0  0  0  0  0
  1  2  1  0
  2  3  1  0
  3  4  2  0
  4  5  1  0
  5  6  2  0
  6  7  1  0
  7  8  2  0
  8  9  1  0
  9 10  1  0
 10 11  2  0
 11 12  1  0
 12 13  2  0
 13 14  1  0
 14 15  2  0
  6 16  1  0
 16 17  2  0
 17  3  1  0
 15  7  1  0
 14  9  1  0
  1 18  1  0
  1 19  1  0
  1 20  1  0
  4 21  1  0
  5 22  1  0
  8 23  1  0
 10 24  1  0
 11 25  1  0
 12 26  1  0
 13 27  1  0
 16 28  1  0
 17 29  1  0
M  END
>  <UniqueID>  (8) 
8

>  <SMILES>  (8) 
COc1ccc(-c2cn3ccccc3n2)cc1

>  <Energy>  (8) 
66.97651446789742

>  <Genealogy>  (8) 
COc1ccc(-c2cn3ccccc3n2)cc1 (3D coordinates assigned)
COc1ccc(-c2cn3ccccc3n2)cc1 (optimized conformer: 66.97651446789742 kcal/mol)

>  <smiles>  (8) 
COc1ccc(-c2cn3ccccc3n2)cc1

>  <score_type>  (8) 
oracle

>  <origin>  (8) 
adg

>  <m_score__min__energy>  (8) 
-6.5099999999999998

>  <m_primary>  (8) 
energy

$$$$
8:0
     RDKit          3D

 55 57  0  0  0  0  0  0  0  0999 V2000
   -0.1000   27.1050  -22.8800 C   0  0  0  0  0  0  0  0  0  0  0  0
   -0.1340   25.7670  -23.4730 N   0  0  0  0  0  0  0  0  0  0  0  0
   -0.5270   25.8490  -24.8590 C   0  0  0  0  0  0  0  0  0  0  0  0
    0.0010   26.8530  -25.6890 C   0  0  0  0  0  0  0  0  0  0  0  0
   -0.3470   26.9040  -27.0410 C   0  0  0  0  0  0  0  0  0  0  0  0
   -1.2150   25.9530  -27.5790 C   0  0  0  0  0  0  0  0  0  0  0  0
   -1.7480   24.9400  -26.7660 C   0  0  0  0  0  0  0  0  0  0  0  0
   -2.6230   23.8670  -27.3620 C   0  0  0  0  0  0  0  0  0  0  0  0
   -4.0760   24.3390  -27.5200 C   0  0  0  0  0  0  0  0  0  0  0  0
   -4.5690   24.1660  -28.9350 C   0  0  0  0  0  0  0  0  0  0  0  0
   -5.7500   24.7980  -29.3550 C   0  0  0  0  0  0  0  0  0  0  0  0
   -6.2370   24.5910  -30.6470 C   0  0  0  0  0  0  0  0  0  0  0  0
   -5.5610   23.7400  -31.5250 C   0  0  0  0  0  0  0  0  0  0  0  0
   -4.3960   23.0750  -31.1090 C   0  0  0  0  0  0  0  0  0  0  0  0
   -3.6680   22.1510  -32.0530 C   0  0  0  0  0  0  0  0  0  0  0  0
   -4.3340   20.8330  -32.1410 N   0  0  0  0  0  0  0  0  0  0  0  0
   -3.3430   19.7560  -32.3010 C   0  0  0  0  0  0  0  0  0  0  0  0
   -5.4100   20.7680  -33.1600 C   0  0  0  0  0  0  0  0  0  0  0  0
   -6.7020   20.1530  -32.6630 C   0  0  0  0  0  0  0  0  0  0  0  0
   -7.7870   20.9720  -32.3040 C   0  0  0  0  0  0  0  0  0  0  0  0
   -8.9790   20.4060  -31.8440 C   0  0  0  0  0  0  0  0  0  0  0  0
   -9.0950   19.0190  -31.7260 C   0  0  0  0  0  0  0  0  0  0  0  0
   -8.0170   18.1960  -32.0630 C   0  0  0  0  0  0  0  0  0  0  0  0
   -6.8230   18.7590  -32.5240 C   0  0  0  0  0  0  0  0  0  0  0  0
   -3.8930   23.3100  -29.8180 C   0  0  0  0  0  0  0  0  0  0  0  0
   -1.3950   24.8880  -25.4080 C   0  0  0  0  0  0  0  0  0  0  0  0
   -0.1022   27.0202  -21.7833 H   0  0  0  0  0  0  0  0  0  0  0  0
    0.8117   27.6273  -23.2056 H   0  0  0  0  0  0  0  0  0  0  0  0
   -0.9840   27.6729  -23.2056 H   0  0  0  0  0  0  0  0  0  0  0  0
    0.8140   25.3300  -23.3940 H   0  0  0  0  0  0  0  0  0  0  0  0
   -0.8100   25.1710  -22.9410 H   0  0  0  0  0  0  0  0  0  0  0  0
    0.6910   27.6015  -25.2723 H   0  0  0  0  0  0  0  0  0  0  0  0
    0.0645   27.6963  -27.6835 H   0  0  0  0  0  0  0  0  0  0  0  0
   -1.4829   25.9972  -28.6450 H   0  0  0  0  0  0  0  0  0  0  0  0
   -2.2277   23.5939  -28.3515 H   0  0  0  0  0  0  0  0  0  0  0  0
   -2.6161   23.0028  -26.6815 H   0  0  0  0  0  0  0  0  0  0  0  0
   -4.7166   23.7522  -26.8452 H   0  0  0  0  0  0  0  0  0  0  0  0
   -4.1172   25.4098  -27.2714 H   0  0  0  0  0  0  0  0  0  0  0  0
   -6.2937   25.4587  -28.6637 H   0  0  0  0  0  0  0  0  0  0  0  0
   -7.1557   25.0995  -30.9747 H   0  0  0  0  0  0  0  0  0  0  0  0
   -5.9426   23.5903  -32.5458 H   0  0  0  0  0  0  0  0  0  0  0  0
   -3.6449   22.6076  -33.0535 H   0  0  0  0  0  0  0  0  0  0  0  0
   -2.6485   21.9981  -31.6693 H   0  0  0  0  0  0  0  0  0  0  0  0
   -3.0199   19.4048  -31.3099 H   0  0  0  0  0  0  0  0  0  0  0  0
   -3.7953   18.9211  -32.8563 H   0  0  0  0  0  0  0  0  0  0  0  0
   -2.4734   20.1374  -32.8563 H   0  0  0  0  0  0  0  0  0  0  0  0
   -5.6243   21.7917  -33.5007 H   0  0  0  0  0  0  0  0  0  0  0  0
   -5.0412   20.1177  -33.9669 H   0  0  0  0  0  0  0  0  0  0  0  0
   -7.6970   22.0653  -32.3858 H   0  0  0  0  0  0  0  0  0  0  0  0
   -9.8266   21.0533  -31.5746 H   0  0  0  0  0  0  0  0  0  0  0  0
  -10.0352   18.5744  -31.3677 H   0  0  0  0  0  0  0  0  0  0  0  0
   -8.1079   17.1041  -31.9655 H   0  0  0  0  0  0  0  0  0  0  0  0
   -5.9739   18.1080  -32.7793 H   0  0  0  0  0  0  0  0  0  0  0  0
   -2.9623   22.8192  -29.4972 H   0  0  0  0  0  0  0  0  0  0  0  0
   -1.8003   24.0898  -24.7687 H   0  0  0  0  0  0  0  0  0  0  0  0
  1  2  1  0
  2  3  1  0
  3  4  2  0
  4  5  1  0
  5  6  2  0
  6  7  1  0
  7  8  1  0
  8  9  1  0
  9 10  1  0
 10 11  2  0
 11 12  1  0
 12 13  2  0
 13 14  1  0
 14 15  1  0
 15 16  1  0
 16 17  1  0
 16 18  1  0
 18 19  1  0
 19 20  2  0
 20 21  1  0
 21 22  2  0
 22 23  1  0
 23 24  2  0
 14 25  2  0
  7 26  2  0
 26  3  1  0
 25 10  1  0
 24 19  1  0
  1 27  1  0
  1 28  1  0
  1 29  1  0
  2 30  1  0
  2 31  1  0
  4 32  1  0
  5 33  1  0
  6 34  1  0
  8 35  1  0
  8 36  1  0
  9 37  1  0
  9 38  1  0
 11 39  1  0
 12 40  1  0
 13 41  1  0
 15 42  1  0
 15 43  1  0
 17 44  1  0
 17 45  1  0
 17 46  1  0
 18 47  1  0
 18 48  1  0
 20 49  1  0
 21 50  1  0
 22 51  1  0
 23 52  1  0
 24 53  1  0
 25 54  1  0
 26 55  1  0
M  CHG  1   2   1
M  END
>  <UniqueID>  (9) 
9

>  <SMILES>  (9) 
C[NH2+]c1cccc(CCc2cccc(CN(C)Cc3ccccc3)c2)c1

>  <Energy>  (9) 
54.35652743754519

>  <Genealogy>  (9) 
C[NH2+]c1cccc(CCc2cccc(CN(C)Cc3ccccc3)c2)c1 (protonated)
C[NH2+]c1cccc(CCc2cccc(CN(C)Cc3ccccc3)c2)c1 (3D coordinates assigned)
C[NH2+]c1cccc(CCc2cccc(CN(C)Cc3ccccc3)c2)c1 (optimized conformer: 54.35652743754519 kcal/mol)

>  <smiles>  (9) 
CNc1cccc(CCc2cccc(CN(C)Cc3ccccc3)c2)c1

>  <score_type>  (9) 
oracle

>  <origin>  (9) 
adg

>  <m_score__min__energy>  (9) 
-9.3399999999999999

>  <m_primary>  (9) 
energy

$$$$
9:0
     RDKit          3D

 32 34  0  0  0  0  0  0  0  0999 V2000
   -3.6530   24.9110  -29.3480 N   0  0  0  0  0  0  0  0  0  0  0  0
   -4.4500   24.1450  -30.0190 C   0  0  0  0  0  0  0  0  0  0  0  0
   -4.0660   23.6670  -31.2100 N   0  0  0  0  0  0  0  0  0  0  0  0
   -4.8560   22.8600  -31.9590 C   0  0  0  0  0  0  0  0  0  0  0  0
   -4.5170   22.3920  -33.0940 N   0  0  0  0  0  0  0  0  0  0  0  0
   -6.0900   22.5480  -31.4310 C   0  0  0  0  0  0  0  0  0  0  0  0
   -6.8900   21.7590  -32.1390 N   0  0  0  0  0  0  0  0  0  0  0  0
   -8.1040   21.4270  -31.6650 C   0  0  0  0  0  0  0  0  0  0  0  0
   -8.9870   20.5410  -32.4770 C   0  0  0  0  0  0  0  0  0  0  0  0
   -8.6260   18.7880  -32.1300 S   0  0  0  0  0  0  0  0  0  0  0  0
   -7.1250   18.3090  -32.9720 C   0  0  0  0  0  0  0  0  0  0  0  0
   -6.4410   19.1460  -33.8240 C   0  0  0  0  0  0  0  0  0  0  0  0
   -5.2790   18.6780  -34.4310 C   0  0  0  0  0  0  0  0  0  0  0  0
   -4.8020   17.3960  -34.1960 C   0  0  0  0  0  0  0  0  0  0  0  0
   -3.3220   16.8190  -34.9780 Cl  0  0  0  0  0  0  0  0  0  0  0  0
   -5.5000   16.5710  -33.3400 C   0  0  0  0  0  0  0  0  0  0  0  0
   -6.6590   17.0240  -32.7290 C   0  0  0  0  0  0  0  0  0  0  0  0
   -8.4890   21.9230  -30.4370 C   0  0  0  0  0  0  0  0  0  0  0  0
   -7.7080   22.7270  -29.6870 N   0  0  0  0  0  0  0  0  0  0  0  0
   -6.4830   23.0460  -30.1920 C   0  0  0  0  0  0  0  0  0  0  0  0
   -5.6430   23.8530  -29.4880 N   0  0  0  0  0  0  0  0  0  0  0  0
   -3.8820   25.3190  -28.4300 H   0  0  0  0  0  0  0  0  0  0  0  0
   -3.1240   23.8920  -31.6360 H   0  0  0  0  0  0  0  0  0  0  0  0
   -5.2000   21.9320  -33.7010 H   0  0  0  0  0  0  0  0  0  0  0  0
  -10.0377   20.7504  -32.2277 H   0  0  0  0  0  0  0  0  0  0  0  0
   -8.8039   20.7374  -33.5437 H   0  0  0  0  0  0  0  0  0  0  0  0
   -6.8055   20.1649  -34.0214 H   0  0  0  0  0  0  0  0  0  0  0  0
   -4.7256   19.3401  -35.1132 H   0  0  0  0  0  0  0  0  0  0  0  0
   -5.1368   15.5518  -33.1415 H   0  0  0  0  0  0  0  0  0  0  0  0
   -7.2127   16.3614  -32.0476 H   0  0  0  0  0  0  0  0  0  0  0  0
   -9.4818   21.6494  -30.0503 H   0  0  0  0  0  0  0  0  0  0  0  0
   -5.9330   24.2400  -28.5420 H   0  0  0  0  0  0  0  0  0  0  0  0
  1  2  2  3
  2  3  1  0
  3  4  1  0
  4  5  2  3
  4  6  1  0
  6  7  2  0
  7  8  1  0
  8  9  1  0
  9 10  1  0
 10 11  1  0
 11 12  2  0
 12 13  1  0
 13 14  2  0
 14 15  1  0
 14 16  1  0
 16 17  2  0
  8 18  2  0
 18 19  1  0
 19 20  2  0
 20 21  1  0
 21  2  1  0
 20  6  1  0
 17 11  1  0
  1 22  1  0
  3 23  1  0
  5 24  1  0
  9 25  1  0
  9 26  1  0
 12 27  1  0
 13 28  1  0
 16 29  1  0
 17 30  1  0
 18 31  1  0
 21 32  1  0
M  END
>  <smiles>  (10) 
N=c1[nH]c(=N)c2nc(CSc3ccc(Cl)cc3)cnc2[nH]1

>  <score_type>  (10) 
oracle

>  <origin>  (10) 
adg

>  <m_score__min__energy>  (10) 
-8.1600000000000001

>  <m_primary>  (10) 
energy

$$$$
10:0
     RDKit          3D

 52 55  0  0  0  0  0  0  0  0999 V2000
   -0.9950   18.8840  -34.4740 C   0  0  0  0  0  0  0  0  0  0  0  0
   -1.9030   18.5490  -33.4650 C   0  0  0  0  0  0  0  0  0  0  0  0
   -2.3740   19.5330  -32.5910 C   0  0  0  0  0  0  0  0  0  0  0  0
   -1.9300   20.8600  -32.7140 C   0  0  0  0  0  0  0  0  0  0  0  0
   -2.4700   21.9280  -31.8000 C   0  0  0  0  0  0  0  0  0  0  0  0
   -3.9080   22.2990  -32.2010 C   0  0  0  0  0  0  0  0  0  0  0  0
   -4.8460   22.4300  -31.0640 N   0  0  0  0  0  0  0  0  0  0  0  0
   -4.1840   22.8720  -29.8070 C   0  0  0  0  0  0  0  0  0  0  0  0
   -4.9370   23.9860  -29.0600 C   0  0  0  0  0  0  0  0  0  0  0  0
   -5.3810   25.0880  -30.0250 C   0  0  0  0  0  0  0  0  0  0  0  0
   -6.2080   24.5500  -31.2120 C   0  0  0  0  0  0  0  0  0  0  0  0
   -6.1980   23.0050  -31.3060 C   0  0  1  0  0  0  0  0  0  0  0  0
   -7.0010   22.3680  -32.4860 C   0  0  0  0  0  0  0  0  0  0  0  0
   -7.5000   20.9310  -32.3300 C   0  0  0  0  0  0  0  0  0  0  0  0
   -8.5570   20.7140  -31.4250 C   0  0  0  0  0  0  0  0  0  0  0  0
   -9.0990   19.4480  -31.2270 C   0  0  0  0  0  0  0  0  0  0  0  0
   -8.5670   18.3490  -31.8860 C   0  0  0  0  0  0  0  0  0  0  0  0
   -7.4530   18.4980  -32.7190 C   0  0  0  0  0  0  0  0  0  0  0  0
   -6.8940   17.3630  -33.3260 C   0  0  0  0  0  0  0  0  0  0  0  0
   -5.7610   17.4780  -34.1270 C   0  0  0  0  0  0  0  0  0  0  0  0
   -5.1680   18.7210  -34.3190 C   0  0  0  0  0  0  0  0  0  0  0  0
   -5.7100   19.8640  -33.7260 C   0  0  0  0  0  0  0  0  0  0  0  0
   -6.8830   19.7880  -32.9360 C   0  0  0  0  0  0  0  0  0  0  0  0
   -1.0270   21.1910  -33.7380 C   0  0  0  0  0  0  0  0  0  0  0  0
   -0.5590   20.2040  -34.6110 C   0  0  0  0  0  0  0  0  0  0  0  0
   -0.6240   18.1082  -35.1599 H   0  0  0  0  0  0  0  0  0  0  0  0
   -2.2472   17.5097  -33.3588 H   0  0  0  0  0  0  0  0  0  0  0  0
   -3.0950   19.2672  -31.8040 H   0  0  0  0  0  0  0  0  0  0  0  0
   -2.4669   21.5552  -30.7651 H   0  0  0  0  0  0  0  0  0  0  0  0
   -1.8346   22.8223  -31.8811 H   0  0  0  0  0  0  0  0  0  0  0  0
   -3.8789   23.2601  -32.7353 H   0  0  0  0  0  0  0  0  0  0  0  0
   -4.2830   21.4731  -32.8233 H   0  0  0  0  0  0  0  0  0  0  0  0
   -4.0987   22.0034  -29.1374 H   0  0  0  0  0  0  0  0  0  0  0  0
   -3.2055   23.2859  -30.0919 H   0  0  0  0  0  0  0  0  0  0  0  0
   -5.8240   23.5561  -28.5717 H   0  0  0  0  0  0  0  0  0  0  0  0
   -4.2613   24.4258  -28.3116 H   0  0  0  0  0  0  0  0  0  0  0  0
   -5.9940   25.8139  -29.4706 H   0  0  0  0  0  0  0  0  0  0  0  0
   -4.4725   25.5503  -30.4384 H   0  0  0  0  0  0  0  0  0  0  0  0
   -7.2485   24.8872  -31.0955 H   0  0  0  0  0  0  0  0  0  0  0  0
   -5.7509   24.9384  -32.1340 H   0  0  0  0  0  0  0  0  0  0  0  0
   -6.8170   22.6787  -30.4573 H   0  0  0  0  0  0  0  0  0  0  0  0
   -7.8829   23.0021  -32.6597 H   0  0  0  0  0  0  0  0  0  0  0  0
   -6.2757   22.3157  -33.3114 H   0  0  0  0  0  0  0  0  0  0  0  0
   -8.9640   21.5662  -30.8609 H   0  0  0  0  0  0  0  0  0  0  0  0
   -9.9525   19.3179  -30.5454 H   0  0  0  0  0  0  0  0  0  0  0  0
   -9.0229   17.3568  -31.7530 H   0  0  0  0  0  0  0  0  0  0  0  0
   -7.3538   16.3763  -33.1680 H   0  0  0  0  0  0  0  0  0  0  0  0
   -5.3348   16.5853  -34.6081 H   0  0  0  0  0  0  0  0  0  0  0  0
   -4.2656   18.8050  -34.9423 H   0  0  0  0  0  0  0  0  0  0  0  0
   -5.2187   20.8369  -33.8748 H   0  0  0  0  0  0  0  0  0  0  0  0
   -0.6868   22.2307  -33.8535 H   0  0  0  0  0  0  0  0  0  0  0  0
    0.1534   20.4674  -35.4067 H   0  0  0  0  0  0  0  0  0  0  0  0
  1  2  2  0
  2  3  1  0
  3  4  2  0
  4  5  1  0
  5  6  1  0
  6  7  1  0
  7  8  1  0
  8  9  1  0
  9 10  1  0
 10 11  1  0
 11 12  1  0
 12 13  1  0
 13 14  1  0
 14 15  2  0
 15 16  1  0
 16 17  2  0
 17 18  1  0
 18 19  2  0
 19 20  1  0
 20 21  2  0
 21 22  1  0
 22 23  2  0
  4 24  1  0
 24 25  2  0
 25  1  1  0
 12  7  1  0
 23 14  1  0
 23 18  1  0
  1 26  1  0
  2 27  1  0
  3 28  1  0
  5 29  1  0
  5 30  1  0
  6 31  1  0
  6 32  1  0
  8 33  1  0
  8 34  1  0
  9 35  1  0
  9 36  1  0
 10 37  1  0
 10 38  1  0
 11 39  1  0
 11 40  1  0
 12 41  1  1
 13 42  1  0
 13 43  1  0
 15 44  1  0
 16 45  1  0
 17 46  1  0
 19 47  1  0
 20 48  1  0
 21 49  1  0
 22 50  1  0
 24 51  1  0
 25 52  1  0
M  END
>  <UniqueID>  (11) 
10

>  <SMILES>  (11) 
c1ccc(CCN2CCCC[C@H]2Cc2cccc3ccccc23)cc1

>  <Energy>  (11) 
82.15363615603205

>  <Genealogy>  (11) 
c1ccc(CCN2CCCC[C@H]2Cc2cccc3ccccc23)cc1 (chirality)
c1ccc(CCN2CCCC[C@H]2Cc2cccc3ccccc23)cc1 (3D coordinates assigned)
c1ccc(CCN2CCCC[C@H]2Cc2cccc3ccccc23)cc1 (nonaromatic ring conformer: 82.15363615603205 kcal/mol)

>  <smiles>  (11) 
c1ccc(CCN2CCCCC2Cc2cccc3ccccc23)cc1

>  <score_type>  (11) 
oracle

>  <origin>  (11) 
adg

>  <m_score__min__energy>  (11) 
-9.4900000000000002

>  <m_primary>  (11) 
energy

$$$$
11:0
     RDKit          3D

 68 73  0  0  0  0  0  0  0  0999 V2000
   -2.3610   20.1170  -30.8430 C   0  0  0  0  0  0  0  0  0  0  0  0
   -2.7370   20.4800  -32.2840 C   0  0  2  0  0  0  0  0  0  0  0  0
   -4.2270   20.1550  -32.5620 C   0  0  0  0  0  0  0  0  0  0  0  0
   -4.3980   19.5500  -33.8280 O   0  0  0  0  0  0  0  0  0  0  0  0
   -3.7710   18.2800  -33.8380 C   0  0  0  0  0  0  0  0  0  0  0  0
   -2.2470   18.3920  -33.6340 C   0  0  0  0  0  0  0  0  0  0  0  0
   -1.8800   19.7570  -33.2370 N   0  0  0  0  0  0  0  0  0  0  0  0
   -0.7420   20.4090  -33.8390 C   0  0  0  0  0  0  0  0  0  0  0  0
   -0.9030   21.6110  -34.4680 N   0  0  0  0  0  0  0  0  0  0  0  0
    0.1380   22.2580  -35.0600 C   0  0  0  0  0  0  0  0  0  0  0  0
   -0.0720   23.4290  -35.7210 N   0  0  0  0  0  0  0  0  0  0  0  0
    0.9310   24.1160  -36.3410 C   0  0  0  0  0  0  0  0  0  0  0  0
    0.6280   25.3430  -37.0590 N   0  0  0  0  0  0  0  0  0  0  0  0
    1.5790   25.8850  -38.0460 C   0  0  0  0  0  0  0  0  0  0  0  0
    0.8550   26.3120  -39.3310 C   0  0  0  0  0  0  0  0  0  0  0  0
   -0.4940   27.0220  -39.0810 C   0  0  0  0  0  0  0  0  0  0  0  0
   -0.7190   27.3870  -37.6040 C   0  0  1  0  0  0  0  0  0  0  0  0
   -2.0520   27.9670  -37.4310 N   0  0  0  0  0  0  0  0  0  0  0  0
   -0.5770   26.1290  -36.7270 C   0  0  0  0  0  0  0  0  0  0  0  0
    2.2420   23.6020  -36.2730 C   0  0  0  0  0  0  0  0  0  0  0  0
    2.4870   22.3990  -35.6070 C   0  0  0  0  0  0  0  0  0  0  0  0
    1.4320   21.7110  -35.0020 C   0  0  0  0  0  0  0  0  0  0  0  0
    1.6290   20.4890  -34.3560 C   0  0  0  0  0  0  0  0  0  0  0  0
    0.5390   19.8160  -33.7890 C   0  0  0  0  0  0  0  0  0  0  0  0
    0.7520   18.4840  -33.1960 C   0  0  0  0  0  0  0  0  0  0  0  0
    1.0540   17.3870  -34.0170 C   0  0  0  0  0  0  0  0  0  0  0  0
    1.2270   16.1190  -33.4560 C   0  0  0  0  0  0  0  0  0  0  0  0
    1.0880   15.9310  -32.0710 C   0  0  0  0  0  0  0  0  0  0  0  0
    1.2410   14.5790  -31.5020 C   0  0  0  0  0  0  0  0  0  0  0  0
    2.4260   14.0440  -31.1580 N   0  0  0  0  0  0  0  0  0  0  0  0
    2.1400   12.8230  -30.7230 N   0  0  0  0  0  0  0  0  0  0  0  0
    0.8370   12.6040  -30.8050 N   0  0  0  0  0  0  0  0  0  0  0  0
    0.2520   13.6890  -31.2790 N   0  0  0  0  0  0  0  0  0  0  0  0
   -1.1430   13.7340  -31.7050 C   0  0  0  0  0  0  0  0  0  0  0  0
    0.8470   17.0430  -31.2440 C   0  0  0  0  0  0  0  0  0  0  0  0
    0.8050   16.9060  -29.8940 F   0  0  0  0  0  0  0  0  0  0  0  0
    0.6830   18.3120  -31.8060 C   0  0  0  0  0  0  0  0  0  0  0  0
   -2.9725   20.7073  -30.1447 H   0  0  0  0  0  0  0  0  0  0  0  0
   -2.5442   19.0454  -30.6751 H   0  0  0  0  0  0  0  0  0  0  0  0
   -1.2965   20.3377  -30.6751 H   0  0  0  0  0  0  0  0  0  0  0  0
   -2.5831   21.5613  -32.4144 H   0  0  0  0  0  0  0  0  0  0  0  0
   -4.5939   19.4681  -31.7851 H   0  0  0  0  0  0  0  0  0  0  0  0
   -4.7937   21.0977  -32.5507 H   0  0  0  0  0  0  0  0  0  0  0  0
   -4.1945   17.6675  -33.0284 H   0  0  0  0  0  0  0  0  0  0  0  0
   -3.9514   17.8175  -34.8196 H   0  0  0  0  0  0  0  0  0  0  0  0
   -1.9346   17.6898  -32.8470 H   0  0  0  0  0  0  0  0  0  0  0  0
   -1.7427   18.1493  -34.5810 H   0  0  0  0  0  0  0  0  0  0  0  0
   -1.8440   22.0580  -34.4910 H   0  0  0  0  0  0  0  0  0  0  0  0
    2.0882   26.7585  -37.6128 H   0  0  0  0  0  0  0  0  0  0  0  0
    2.3073   25.1003  -38.2984 H   0  0  0  0  0  0  0  0  0  0  0  0
    1.5106   26.9989  -39.8863 H   0  0  0  0  0  0  0  0  0  0  0  0
    0.6336   25.3933  -39.8939 H   0  0  0  0  0  0  0  0  0  0  0  0
   -0.5193   27.9458  -39.6777 H   0  0  0  0  0  0  0  0  0  0  0  0
   -1.2917   26.3223  -39.3712 H   0  0  0  0  0  0  0  0  0  0  0  0
    0.0359   28.1261  -37.2976 H   0  0  0  0  0  0  0  0  0  0  0  0
   -2.7100   27.2010  -37.1620 H   0  0  0  0  0  0  0  0  0  0  0  0
   -2.3810   28.3140  -38.3620 H   0  0  0  0  0  0  0  0  0  0  0  0
   -0.5174   26.4383  -35.6731 H   0  0  0  0  0  0  0  0  0  0  0  0
   -1.4541   25.4913  -36.9117 H   0  0  0  0  0  0  0  0  0  0  0  0
    3.0721   24.1485  -36.7445 H   0  0  0  0  0  0  0  0  0  0  0  0
    3.5086   21.9939  -35.5589 H   0  0  0  0  0  0  0  0  0  0  0  0
    2.6380   20.0556  -34.2924 H   0  0  0  0  0  0  0  0  0  0  0  0
    1.1547   17.5253  -35.1036 H   0  0  0  0  0  0  0  0  0  0  0  0
    1.4733   15.2637  -34.1023 H   0  0  0  0  0  0  0  0  0  0  0  0
   -1.7961   13.7551  -30.8201 H   0  0  0  0  0  0  0  0  0  0  0  0
   -1.3133   14.6381  -32.3080 H   0  0  0  0  0  0  0  0  0  0  0  0
   -1.3712   12.8427  -32.3080 H   0  0  0  0  0  0  0  0  0  0  0  0
    0.4990   19.1796  -31.1553 H   0  0  0  0  0  0  0  0  0  0  0  0
  1  2  1  0
  2  3  1  0
  3  4  1  0
  4  5  1  0
  5  6  1  0
  6  7  1  0
  7  8  1  0
  8  9  2  0
  9 10  1  0
 10 11  2  0
 11 12  1  0
 12 13  1  0
 13 14  1  0
 14 15  1  0
 15 16  1  0
 16 17  1  0
 17 18  1  0
 17 19  1  0
 12 20  2  0
 20 21  1  0
 21 22  2  0
 22 23  1  0
 23 24  2  0
 24 25  1  0
 25 26  2  0
 26 27  1  0
 27 28  2  0
 28 29  1  0
 29 30  2  0
 30 31  1  0
 31 32  2  0
 32 33  1  0
 33 34  1  0
 28 35  1  0
 35 36  1  0
 35 37  2  0
  7  2  1  0
 24  8  1  0
 37 25  1  0
 22 10  1  0
 33 29  1  0
 19 13  1  0
  1 38  1  0
  1 39  1  0
  1 40  1  0
  2 41  1  1
  3 42  1  0
  3 43  1  0
  5 44  1  0
  5 45  1  0
  6 46  1  0
  6 47  1  0
  9 48  1  0
 14 49  1  0
 14 50  1  0
 15 51  1  0
 15 52  1  0
 16 53  1  0
 16 54  1  0
 17 55  1  1
 18 56  1  0
 18 57  1  0
 19 58  1  0
 19 59  1  0
 20 60  1  0
 21 61  1  0
 23 62  1  0
 26 63  1  0
 27 64  1  0
 34 65  1  0
 34 66  1  0
 34 67  1  0
 37 68  1  0
M  CHG  1   9   1
M  END
>  <UniqueID>  (12) 
11

>  <SMILES>  (12) 
C[C@@H]1COCCN1c1[nH+]c2nc(N3CCC[C@@H](N)C3)ccc2cc1-c1ccc(-c2nnnn2C)c(F)c1

>  <Energy>  (12) 
143.56310296018063

>  <Genealogy>  (12) 
CC1COCCN1c1[nH+]c2nc(N3CCCC(N)C3)ccc2cc1-c1ccc(-c2nnnn2C)c(F)c1 (protonated)
C[C@@H]1COCCN1c1[nH+]c2nc(N3CCC[C@@H](N)C3)ccc2cc1-c1ccc(-c2nnnn2C)c(F)c1 (chirality)
C[C@@H]1COCCN1c1[nH+]c2nc(N3CCC[C@@H](N)C3)ccc2cc1-c1ccc(-c2nnnn2C)c(F)c1 (3D coordinates assigned)
C[C@@H]1COCCN1c1[nH+]c2nc(N3CCC[C@@H](N)C3)ccc2cc1-c1ccc(-c2nnnn2C)c(F)c1 (nonaromatic ring conformer: 143.56310296018063 kcal/mol)

>  <smiles>  (12) 
CC1COCCN1c1nc2nc(N3CCCC(N)C3)ccc2cc1-c1ccc(-c2nnnn2C)c(F)c1

>  <score_type>  (12) 
oracle

>  <origin>  (12) 
adg

>  <m_score__min__energy>  (12) 
-8.8800000000000008

>  <m_primary>  (12) 
energy

$$$$
12:0
     RDKit          3D

 51 54  0  0  0  0  0  0  0  0999 V2000
   -4.6040   22.9030  -34.0200 H   0  0  0  0  0  0  0  0  0  0  0  0
   -4.5710   22.7040  -32.9950 N   0  0  0  0  0  0  0  0  0  0  0  0
   -3.6920   21.9040  -32.4800 C   0  0  0  0  0  0  0  0  0  0  0  0
   -2.4980   21.6800  -33.1600 O   0  0  0  0  0  0  0  0  0  0  0  0
   -1.4100   20.9950  -32.5990 C   0  0  0  0  0  0  0  0  0  0  0  0
   -1.4410   20.6040  -31.3030 C   0  0  0  0  0  0  0  0  0  0  0  0
   -0.2240   19.9830  -30.6600 C   0  0  0  0  0  0  0  0  0  0  0  0
    0.4263   20.7823  -30.2751 H   0  0  0  0  0  0  0  0  0  0  0  0
   -0.5571   19.3279  -29.8415 H   0  0  0  0  0  0  0  0  0  0  0  0
    0.5600   19.1430  -31.6650 C   0  0  0  0  0  0  0  0  0  0  0  0
    1.4586   18.7367  -31.1778 H   0  0  0  0  0  0  0  0  0  0  0  0
   -0.0759   18.3191  -32.0211 H   0  0  0  0  0  0  0  0  0  0  0  0
    0.9760   20.0060  -32.8550 C   0  0  0  0  0  0  0  0  0  0  0  0
    1.7158   20.7472  -32.5182 H   0  0  0  0  0  0  0  0  0  0  0  0
    1.4046   19.3487  -33.6259 H   0  0  0  0  0  0  0  0  0  0  0  0
   -0.2130   20.7330  -33.4550 C   0  0  0  0  0  0  0  0  0  0  0  0
   -0.2150   21.1500  -34.7400 C   0  0  0  0  0  0  0  0  0  0  0  0
   -0.9804   20.7214  -35.4037 H   0  0  0  0  0  0  0  0  0  0  0  0
    0.7180   22.1300  -35.3350 C   0  0  0  0  0  0  0  0  0  0  0  0
    0.3450   23.3410  -35.6810 O   0  0  0  0  0  0  0  0  0  0  0  0
    1.3890   23.9930  -36.1360 C   0  0  0  0  0  0  0  0  0  0  0  0
    1.3768   25.0286  -36.5067 H   0  0  0  0  0  0  0  0  0  0  0  0
    2.5040   23.1830  -36.0790 C   0  0  0  0  0  0  0  0  0  0  0  0
    3.5269   23.4430  -36.3890 H   0  0  0  0  0  0  0  0  0  0  0  0
    2.0770   21.9820  -35.5550 C   0  0  0  0  0  0  0  0  0  0  0  0
    2.6890   21.0905  -35.3533 H   0  0  0  0  0  0  0  0  0  0  0  0
   -2.6630   20.8350  -30.4270 C   0  0  1  0  0  0  0  0  0  0  0  0
   -2.8549   19.8524  -29.9714 H   0  0  0  0  0  0  0  0  0  0  0  0
   -2.3930   21.8270  -29.2920 C   0  0  0  0  0  0  0  0  0  0  0  0
   -2.2250   23.1850  -29.6310 C   0  0  0  0  0  0  0  0  0  0  0  0
   -2.3029   23.4893  -30.6852 H   0  0  0  0  0  0  0  0  0  0  0  0
   -1.9600   24.1600  -28.6520 C   0  0  0  0  0  0  0  0  0  0  0  0
   -1.8000   25.5170  -28.9750 O   0  0  0  0  0  0  0  0  0  0  0  0
   -0.8720   26.3950  -28.3440 C   0  0  0  0  0  0  0  0  0  0  0  0
   -0.9668   26.3053  -27.2518 H   0  0  0  0  0  0  0  0  0  0  0  0
    0.1509   26.1263  -28.6465 H   0  0  0  0  0  0  0  0  0  0  0  0
   -1.0836   27.4312  -28.6465 H   0  0  0  0  0  0  0  0  0  0  0  0
   -1.8490   23.7800  -27.3110 C   0  0  0  0  0  0  0  0  0  0  0  0
   -1.5880   24.7760  -26.3550 O   0  0  0  0  0  0  0  0  0  0  0  0
   -0.8330   24.5750  -25.1650 C   0  0  0  0  0  0  0  0  0  0  0  0
   -1.4763   24.7463  -24.2893 H   0  0  0  0  0  0  0  0  0  0  0  0
   -0.4507   23.5438  -25.1431 H   0  0  0  0  0  0  0  0  0  0  0  0
    0.0114   25.2796  -25.1431 H   0  0  0  0  0  0  0  0  0  0  0  0
   -1.9990   22.4290  -26.9600 C   0  0  0  0  0  0  0  0  0  0  0  0
   -1.9082   22.1307  -25.9051 H   0  0  0  0  0  0  0  0  0  0  0  0
   -2.2620   21.4560  -27.9300 C   0  0  0  0  0  0  0  0  0  0  0  0
   -2.4100   19.8010  -27.3540 Cl  0  0  0  0  0  0  0  0  0  0  0  0
   -3.9710   21.1750  -31.2000 C   0  0  2  0  0  0  0  0  0  0  0  0
   -4.5645   21.8187  -30.5340 H   0  0  0  0  0  0  0  0  0  0  0  0
   -4.7160   19.9490  -31.5340 C   0  0  0  0  0  0  0  0  0  0  0  0
   -5.3010   18.9860  -31.7980 N   0  0  0  0  0  0  0  0  0  0  0  0
  1  2  1  0
  2  3  2  0
  3  4  1  0
  4  5  1  0
  5  6  2  0
  6  7  1  0
  7  8  1  0
  7  9  1  0
  7 10  1  0
 10 11  1  0
 10 12  1  0
 10 13  1  0
 13 14  1  0
 13 15  1  0
 13 16  1  0
 16 17  2  0
 17 18  1  0
 17 19  1  0
 19 20  1  0
 20 21  1  0
 21 22  1  0
 21 23  2  0
 23 24  1  0
 23 25  1  0
 25 26  1  0
  6 27  1  0
 27 28  1  1
 27 29  1  0
 29 30  2  0
 30 31  1  0
 30 32  1  0
 32 33  1  0
 33 34  1  0
 34 35  1  0
 34 36  1  0
 34 37  1  0
 32 38  2  0
 38 39  1  0
 39 40  1  0
 40 41  1  0
 40 42  1  0
 40 43  1  0
 38 44  1  0
 44 45  1  0
 44 46  2  0
 46 47  1  0
 27 48  1  0
 48 49  1  1
 48 50  1  0
 50 51  3  0
 48  3  1  0
 16  5  1  0
 25 19  2  0
 46 29  1  0
M  END
>  <UniqueID>  (13) 
12

>  <SMILES>  (13) 
[H]/N=C1/OC2=C(CCC/C2=C\c2ccco2)[C@@H](c2cc(OC)c(OC)cc2Cl)[C@@H]1C#N

>  <Energy>  (13) 
91.17153919663657

>  <Genealogy>  (13) 
COc1cc(Cl)c([C@@H]2C3=C(OC(=N)[C@H]2C#N)C(=Cc2ccco2)CCC3)cc1OC (chirality)
[H]/N=C1/OC2=C(CCC/C2=C\c2ccco2)[C@@H](c2cc(OC)c(OC)cc2Cl)[C@@H]1C#N (cis-trans isomerization)
[H]/N=C1/OC2=C(CCC/C2=C\c2ccco2)[C@@H](c2cc(OC)c(OC)cc2Cl)[C@@H]1C#N (3D coordinates assigned)
[H]/N=C1/OC2=C(CCC/C2=C\c2ccco2)[C@@H](c2cc(OC)c(OC)cc2Cl)[C@@H]1C#N (nonaromatic ring conformer: 91.17153919663657 kcal/mol)

>  <smiles>  (13) 
COc1cc(Cl)c(C2C3=C(OC(=N)C2C#N)C(=Cc2ccco2)CCC3)cc1OC

>  <score_type>  (13) 
oracle

>  <origin>  (13) 
adg

>  <m_score__min__energy>  (13) 
-8.0299999999999994

>  <m_primary>  (13) 
energy

$$$$
13:0
     RDKit          3D

 42 45  0  0  0  0  0  0  0  0999 V2000
   -5.7510   25.2990  -28.6870 N   0  0  0  0  0  0  0  0  0  0  0  0
   -6.5500   25.2190  -29.9080 C   0  0  0  0  0  0  0  0  0  0  0  0
   -5.6480   25.1470  -31.1420 C   0  0  0  0  0  0  0  0  0  0  0  0
   -5.1210   23.7970  -31.3240 N   0  0  0  0  0  0  0  0  0  0  0  0
   -5.2310   23.0820  -32.4400 N   0  0  0  0  0  0  0  0  0  0  0  0
   -4.5700   21.9070  -32.2810 C   0  0  0  0  0  0  0  0  0  0  0  0
   -4.4360   20.8570  -33.3460 C   0  0  0  0  0  0  0  0  0  0  0  0
   -5.2500   19.6310  -32.9910 C   0  0  0  0  0  0  0  0  0  0  0  0
   -4.6150   18.3770  -33.0370 C   0  0  0  0  0  0  0  0  0  0  0  0
   -5.3160   17.2090  -32.7430 C   0  0  0  0  0  0  0  0  0  0  0  0
   -6.6660   17.2650  -32.4040 C   0  0  0  0  0  0  0  0  0  0  0  0
   -7.3330   18.4960  -32.3610 C   0  0  0  0  0  0  0  0  0  0  0  0
   -8.6960   18.5420  -32.0280 C   0  0  0  0  0  0  0  0  0  0  0  0
   -9.3710   19.7610  -31.9910 C   0  0  0  0  0  0  0  0  0  0  0  0
   -8.6950   20.9440  -32.2840 C   0  0  0  0  0  0  0  0  0  0  0  0
   -7.3390   20.9190  -32.6140 C   0  0  0  0  0  0  0  0  0  0  0  0
   -6.6310   19.6980  -32.6570 C   0  0  0  0  0  0  0  0  0  0  0  0
   -4.0070   21.9000  -31.0170 C   0  0  0  0  0  0  0  0  0  0  0  0
   -3.2060   20.9970  -30.3240 C   0  0  0  0  0  0  0  0  0  0  0  0
   -2.8020   21.3620  -29.0260 C   0  0  0  0  0  0  0  0  0  0  0  0
   -3.2060   22.6070  -28.4850 C   0  0  0  0  0  0  0  0  0  0  0  0
   -3.9880   23.4610  -29.2120 N   0  0  0  0  0  0  0  0  0  0  0  0
   -4.3750   23.0900  -30.4580 C   0  0  0  0  0  0  0  0  0  0  0  0
   -4.7580   25.4890  -28.9570 H   0  0  0  0  0  0  0  0  0  0  0  0
   -5.7550   24.3520  -28.2440 H   0  0  0  0  0  0  0  0  0  0  0  0
   -7.1802   24.3183  -29.8686 H   0  0  0  0  0  0  0  0  0  0  0  0
   -7.1761   26.1206  -29.9802 H   0  0  0  0  0  0  0  0  0  0  0  0
   -6.2309   25.4290  -32.0312 H   0  0  0  0  0  0  0  0  0  0  0  0
   -4.8038   25.8380  -31.0012 H   0  0  0  0  0  0  0  0  0  0  0  0
   -5.7320   23.3980  -33.2990 H   0  0  0  0  0  0  0  0  0  0  0  0
   -4.7948   21.2646  -34.3026 H   0  0  0  0  0  0  0  0  0  0  0  0
   -3.3777   20.5684  -33.4283 H   0  0  0  0  0  0  0  0  0  0  0  0
   -3.5507   18.3173  -33.3087 H   0  0  0  0  0  0  0  0  0  0  0  0
   -4.8007   16.2378  -32.7788 H   0  0  0  0  0  0  0  0  0  0  0  0
   -7.2105   16.3386  -32.1691 H   0  0  0  0  0  0  0  0  0  0  0  0
   -9.2341   17.6113  -31.7951 H   0  0  0  0  0  0  0  0  0  0  0  0
  -10.4392   19.7893  -31.7301 H   0  0  0  0  0  0  0  0  0  0  0  0
   -9.2332   21.9029  -32.2550 H   0  0  0  0  0  0  0  0  0  0  0  0
   -6.8168   21.8597  -32.8428 H   0  0  0  0  0  0  0  0  0  0  0  0
   -2.9018   20.0393  -30.7714 H   0  0  0  0  0  0  0  0  0  0  0  0
   -2.1736   20.6814  -28.4328 H   0  0  0  0  0  0  0  0  0  0  0  0
   -2.8877   22.8895  -27.4706 H   0  0  0  0  0  0  0  0  0  0  0  0
  1  2  1  0
  2  3  1  0
  3  4  1  0
  4  5  1  0
  5  6  2  0
  6  7  1  0
  7  8  1  0
  8  9  2  0
  9 10  1  0
 10 11  2  0
 11 12  1  0
 12 13  2  0
 13 14  1  0
 14 15  2  0
 15 16  1  0
 16 17  2  0
  6 18  1  0
 18 19  2  0
 19 20  1  0
 20 21  2  0
 21 22  1  0
 22 23  2  0
 23  4  1  0
 17  8  1  0
 23 18  1  0
 17 12  1  0
  1 24  1  0
  1 25  1  0
  2 26  1  0
  2 27  1  0
  3 28  1  0
  3 29  1  0
  5 30  1  0
  7 31  1  0
  7 32  1  0
  9 33  1  0
 10 34  1  0
 11 35  1  0
 13 36  1  0
 14 37  1  0
 15 38  1  0
 16 39  1  0
 19 40  1  0
 20 41  1  0
 21 42  1  0
M  CHG  1   5   1
M  END
>  <UniqueID>  (14) 
13

>  <SMILES>  (14) 
NCCn1[nH+]c(Cc2cccc3ccccc23)c2cccnc21

>  <Energy>  (14) 
87.35473660117228

>  <Genealogy>  (14) 
NCCn1[nH+]c(Cc2cccc3ccccc23)c2cccnc21 (protonated)
NCCn1[nH+]c(Cc2cccc3ccccc23)c2cccnc21 (3D coordinates assigned)
NCCn1[nH+]c(Cc2cccc3ccccc23)c2cccnc21 (optimized conformer: 87.35473660117228 kcal/mol)

>  <smiles>  (14) 
NCCn1nc(Cc2cccc3ccccc23)c2cccnc21

>  <score_type>  (14) 
oracle

>  <origin>  (14) 
adg

>  <m_score__min__energy>  (14) 
-8.6500000000000004

>  <m_primary>  (14) 
energy

$$$$
14:0
     RDKit          3D

 46 48  0  0  0  0  0  0  0  0999 V2000
   -6.8550   19.7060  -32.2640 C   0  0  0  0  0  0  0  0  0  0  0  0
   -6.8140   21.1720  -32.7230 C   0  0  0  0  0  0  0  0  0  0  0  0
   -6.9700   22.1640  -31.6320 N   0  0  0  0  0  0  0  0  0  0  0  0
   -8.1750   21.9870  -30.7860 C   0  0  0  0  0  0  0  0  0  0  0  0
   -9.4630   21.7260  -31.5710 C   0  0  0  0  0  0  0  0  0  0  0  0
   -6.6510   23.5600  -31.9930 C   0  0  0  0  0  0  0  0  0  0  0  0
   -5.3730   23.9990  -31.3440 C   0  0  0  0  0  0  0  0  0  0  0  0
   -5.0190   25.2870  -31.1460 N   0  0  0  0  0  0  0  0  0  0  0  0
   -3.8610   25.2770  -30.5430 O   0  0  0  0  0  0  0  0  0  0  0  0
   -3.4550   24.0450  -30.3430 C   0  0  0  0  0  0  0  0  0  0  0  0
   -4.3770   23.1850  -30.8550 C   0  0  0  0  0  0  0  0  0  0  0  0
   -4.2900   21.6970  -30.7120 C   0  0  0  0  0  0  0  0  0  0  0  0
   -2.8950   21.2740  -30.4190 N   0  0  0  0  0  0  0  0  0  0  0  0
   -2.0530   21.2340  -31.6340 C   0  0  0  0  0  0  0  0  0  0  0  0
   -2.4950   20.1180  -32.5420 C   0  0  0  0  0  0  0  0  0  0  0  0
   -1.7920   18.9040  -32.5870 C   0  0  0  0  0  0  0  0  0  0  0  0
   -2.2080   17.8900  -33.4510 C   0  0  0  0  0  0  0  0  0  0  0  0
   -3.3230   18.0980  -34.2640 C   0  0  0  0  0  0  0  0  0  0  0  0
   -3.9920   19.2810  -34.2130 N   0  0  0  0  0  0  0  0  0  0  0  0
   -3.6060   20.2840  -33.3810 C   0  0  0  0  0  0  0  0  0  0  0  0
   -2.2800   22.0960  -29.3410 C   0  0  0  0  0  0  0  0  0  0  0  0
   -2.1850   23.6000  -29.7000 C   0  0  0  0  0  0  0  0  0  0  0  0
   -6.8561   19.6659  -31.1647 H   0  0  0  0  0  0  0  0  0  0  0  0
   -7.7669   19.2265  -32.6494 H   0  0  0  0  0  0  0  0  0  0  0  0
   -5.9713   19.1763  -32.6494 H   0  0  0  0  0  0  0  0  0  0  0  0
   -5.8461   21.3511  -33.2140 H   0  0  0  0  0  0  0  0  0  0  0  0
   -7.6717   21.3121  -33.3973 H   0  0  0  0  0  0  0  0  0  0  0  0
   -8.0020   21.1333  -30.1143 H   0  0  0  0  0  0  0  0  0  0  0  0
   -8.3220   22.9335  -30.2452 H   0  0  0  0  0  0  0  0  0  0  0  0
  -10.2927   21.5579  -30.8687 H   0  0  0  0  0  0  0  0  0  0  0  0
   -9.6893   22.5965  -32.2042 H   0  0  0  0  0  0  0  0  0  0  0  0
   -9.3325   20.8360  -32.2042 H   0  0  0  0  0  0  0  0  0  0  0  0
   -6.5450   23.6348  -33.0853 H   0  0  0  0  0  0  0  0  0  0  0  0
   -7.4661   24.2100  -31.6420 H   0  0  0  0  0  0  0  0  0  0  0  0
   -4.9446   21.3752  -29.8886 H   0  0  0  0  0  0  0  0  0  0  0  0
   -4.6071   21.2334  -31.6578 H   0  0  0  0  0  0  0  0  0  0  0  0
   -2.1409   22.1919  -32.1676 H   0  0  0  0  0  0  0  0  0  0  0  0
   -1.0078   21.0607  -31.3383 H   0  0  0  0  0  0  0  0  0  0  0  0
   -0.9141   18.7519  -31.9419 H   0  0  0  0  0  0  0  0  0  0  0  0
   -1.6621   16.9358  -33.4908 H   0  0  0  0  0  0  0  0  0  0  0  0
   -3.6611   17.3045  -34.9467 H   0  0  0  0  0  0  0  0  0  0  0  0
   -4.1675   21.2298  -33.3658 H   0  0  0  0  0  0  0  0  0  0  0  0
   -2.8890   21.9915  -28.4310 H   0  0  0  0  0  0  0  0  0  0  0  0
   -1.2533   21.7290  -29.1952 H   0  0  0  0  0  0  0  0  0  0  0  0
   -2.0148   24.1845  -28.7838 H   0  0  0  0  0  0  0  0  0  0  0  0
   -1.3494   23.7556  -30.3983 H   0  0  0  0  0  0  0  0  0  0  0  0
  1  2  1  0
  2  3  1  0
  3  4  1  0
  4  5  1  0
  3  6  1  0
  6  7  1  0
  7  8  2  0
  8  9  1  0
  9 10  1  0
 10 11  2  0
 11 12  1  0
 12 13  1  0
 13 14  1  0
 14 15  1  0
 15 16  2  0
 16 17  1  0
 17 18  2  0
 18 19  1  0
 19 20  2  0
 13 21  1  0
 21 22  1  0
 11  7  1  0
 20 15  1  0
 22 10  1  0
  1 23  1  0
  1 24  1  0
  1 25  1  0
  2 26  1  0
  2 27  1  0
  4 28  1  0
  4 29  1  0
  5 30  1  0
  5 31  1  0
  5 32  1  0
  6 33  1  0
  6 34  1  0
 12 35  1  0
 12 36  1  0
 14 37  1  0
 14 38  1  0
 16 39  1  0
 17 40  1  0
 18 41  1  0
 20 42  1  0
 21 43  1  0
 21 44  1  0
 22 45  1  0
 22 46  1  0
M  END
>  <UniqueID>  (15) 
14

>  <SMILES>  (15) 
CCN(CC)Cc1noc2c1CN(Cc1cccnc1)CC2

>  <Energy>  (15) 
90.223181887129

>  <Genealogy>  (15) 
CCN(CC)Cc1noc2c1CN(Cc1cccnc1)CC2 (3D coordinates assigned)
CCN(CC)Cc1noc2c1CN(Cc1cccnc1)CC2 (nonaromatic ring conformer: 90.223181887129 kcal/mol)

>  <smiles>  (15) 
CCN(CC)Cc1noc2c1CN(Cc1cccnc1)CC2

>  <score_type>  (15) 
oracle

>  <origin>  (15) 
adg

>  <m_score__min__energy>  (15) 
-7.8799999999999999

>  <m_primary>  (15) 
energy

$$$$
15:0
     RDKit          3D

 43 46  0  0  0  0  0  0  0  0999 V2000
   -7.2640   23.8090  -31.5150 C   0  0  0  0  0  0  0  0  0  0  0  0
   -6.0700   23.6240  -30.6290 C   0  0  0  0  0  0  0  0  0  0  0  0
   -5.7070   24.4850  -29.6120 C   0  0  0  0  0  0  0  0  0  0  0  0
   -4.5650   23.9560  -29.0360 C   0  0  0  0  0  0  0  0  0  0  0  0
   -3.8790   24.5180  -27.8550 C   0  0  0  0  0  0  0  0  0  0  0  0
   -4.5140   24.8850  -26.7170 N   0  0  0  0  0  0  0  0  0  0  0  0
   -3.7020   25.3120  -25.7520 N   0  0  0  0  0  0  0  0  0  0  0  0
   -2.3980   25.3000  -26.1100 C   0  0  0  0  0  0  0  0  0  0  0  0
   -1.2800   25.6520  -25.1870 C   0  0  0  0  0  0  0  0  0  0  0  0
   -1.6700   26.6770  -24.3440 F   0  0  0  0  0  0  0  0  0  0  0  0
   -0.1860   26.0600  -25.9260 F   0  0  0  0  0  0  0  0  0  0  0  0
   -0.9300   24.5520  -24.4250 F   0  0  0  0  0  0  0  0  0  0  0  0
   -2.2100   24.7010  -27.6740 S   0  0  0  0  0  0  0  0  0  0  0  0
   -4.2750   22.7860  -29.7320 C   0  0  0  0  0  0  0  0  0  0  0  0
   -3.1180   21.8950  -29.5030 C   0  0  0  0  0  0  0  0  0  0  0  0
   -3.1090   21.0160  -28.4090 C   0  0  0  0  0  0  0  0  0  0  0  0
   -2.0030   20.1910  -28.1800 C   0  0  0  0  0  0  0  0  0  0  0  0
   -0.8980   20.2470  -29.0340 C   0  0  0  0  0  0  0  0  0  0  0  0
    0.1740   19.4490  -28.8090 F   0  0  0  0  0  0  0  0  0  0  0  0
   -0.8980   21.1280  -30.1200 C   0  0  0  0  0  0  0  0  0  0  0  0
   -2.0030   21.9530  -30.3540 C   0  0  0  0  0  0  0  0  0  0  0  0
   -5.2060   22.5850  -30.6950 N   0  0  0  0  0  0  0  0  0  0  0  0
   -5.2360   21.5100  -31.6500 C   0  0  0  0  0  0  0  0  0  0  0  0
   -6.3170   20.6150  -31.6750 C   0  0  0  0  0  0  0  0  0  0  0  0
   -6.3370   19.5610  -32.5940 C   0  0  0  0  0  0  0  0  0  0  0  0
   -5.2780   19.3920  -33.4930 C   0  0  0  0  0  0  0  0  0  0  0  0
   -5.2980   18.3050  -34.4360 C   0  0  0  0  0  0  0  0  0  0  0  0
   -5.3140   17.4310  -35.1940 N   0  0  0  0  0  0  0  0  0  0  0  0
   -4.1960   20.2810  -33.4700 C   0  0  0  0  0  0  0  0  0  0  0  0
   -4.1760   21.3360  -32.5530 C   0  0  0  0  0  0  0  0  0  0  0  0
   -8.1622   23.9482  -30.8955 H   0  0  0  0  0  0  0  0  0  0  0  0
   -7.1157   24.6949  -32.1500 H   0  0  0  0  0  0  0  0  0  0  0  0
   -7.3907   22.9198  -32.1500 H   0  0  0  0  0  0  0  0  0  0  0  0
   -6.2242   25.4101  -29.3174 H   0  0  0  0  0  0  0  0  0  0  0  0
   -5.5490   24.8430  -26.5860 H   0  0  0  0  0  0  0  0  0  0  0  0
   -3.9736   20.9758  -27.7302 H   0  0  0  0  0  0  0  0  0  0  0  0
   -2.0028   19.4971  -27.3265 H   0  0  0  0  0  0  0  0  0  0  0  0
   -0.0277   21.1723  -30.7912 H   0  0  0  0  0  0  0  0  0  0  0  0
   -1.9983   22.6484  -31.2063 H   0  0  0  0  0  0  0  0  0  0  0  0
   -7.1511   20.7430  -30.9695 H   0  0  0  0  0  0  0  0  0  0  0  0
   -7.1872   18.8632  -32.6102 H   0  0  0  0  0  0  0  0  0  0  0  0
   -3.3612   20.1490  -34.1741 H   0  0  0  0  0  0  0  0  0  0  0  0
   -3.3252   22.0331  -32.5392 H   0  0  0  0  0  0  0  0  0  0  0  0
  1  2  1  0
  2  3  2  0
  3  4  1  0
  4  5  1  0
  5  6  2  0
  6  7  1  0
  7  8  2  0
  8  9  1  0
  9 10  1  0
  9 11  1  0
  9 12  1  0
  8 13  1  0
  4 14  2  0
 14 15  1  0
 15 16  2  0
 16 17  1  0
 17 18  2  0
 18 19  1  0
 18 20  1  0
 20 21  2  0
 14 22  1  0
 22 23  1  0
 23 24  2  0
 24 25  1  0
 25 26  2  0
 26 27  1  0
 27 28  3  0
 26 29  1  0
 29 30  2  0
 22  2  1  0
 30 23  1  0
 13  5  1  0
 21 15  1  0
  1 31  1  0
  1 32  1  0
  1 33  1  0
  3 34  1  0
  6 35  1  0
 16 36  1  0
 17 37  1  0
 20 38  1  0
 21 39  1  0
 24 40  1  0
 25 41  1  0
 29 42  1  0
 30 43  1  0
M  CHG  1   6   1
M  END
>  <UniqueID>  (16) 
15

>  <SMILES>  (16) 
Cc1cc(-c2[nH+]nc(C(F)(F)F)s2)c(-c2ccc(F)cc2)n1-c1ccc(C#N)cc1

>  <Energy>  (16) 
116.6644009830336

>  <Genealogy>  (16) 
Cc1cc(-c2[nH+]nc(C(F)(F)F)s2)c(-c2ccc(F)cc2)n1-c1ccc(C#N)cc1 (protonated)
Cc1cc(-c2[nH+]nc(C(F)(F)F)s2)c(-c2ccc(F)cc2)n1-c1ccc(C#N)cc1 (3D coordinates assigned)
Cc1cc(-c2[nH+]nc(C(F)(F)F)s2)c(-c2ccc(F)cc2)n1-c1ccc(C#N)cc1 (optimized conformer: 116.6644009830336 kcal/mol)

>  <smiles>  (16) 
Cc1cc(-c2nnc(C(F)(F)F)s2)c(-c2ccc(F)cc2)n1-c1ccc(C#N)cc1

>  <score_type>  (16) 
oracle

>  <origin>  (16) 
adg

>  <m_score__min__energy>  (16) 
-7.7599999999999998

>  <m_primary>  (16) 
energy

$$$$
16:0
     RDKit          3D

 43 45  0  0  0  0  0  0  0  0999 V2000
   -4.1940   15.6760  -34.4430 C   0  0  0  0  0  0  0  0  0  0  0  0
   -3.8030   16.9560  -35.0680 N   0  0  0  0  0  0  0  0  0  0  0  0
   -4.9810   17.8010  -35.3610 C   0  0  0  0  0  0  0  0  0  0  0  0
   -5.6570   18.3450  -34.0810 C   0  0  0  0  0  0  0  0  0  0  0  0
   -4.7540   18.3140  -32.9120 N   0  0  0  0  0  0  0  0  0  0  0  0
   -5.2840   19.1570  -31.8220 C   0  0  0  0  0  0  0  0  0  0  0  0
   -6.7640   19.3800  -32.0050 C   0  0  0  0  0  0  0  0  0  0  0  0
   -7.6760   18.3460  -31.7500 C   0  0  0  0  0  0  0  0  0  0  0  0
   -9.0430   18.5590  -31.9280 C   0  0  0  0  0  0  0  0  0  0  0  0
   -9.4900   19.8060  -32.3660 C   0  0  0  0  0  0  0  0  0  0  0  0
   -8.5960   20.7990  -32.6130 N   0  0  0  0  0  0  0  0  0  0  0  0
   -7.2550   20.6240  -32.4430 C   0  0  0  0  0  0  0  0  0  0  0  0
   -6.3630   21.6670  -32.7220 O   0  0  0  0  0  0  0  0  0  0  0  0
   -6.0670   22.6960  -31.8200 C   0  0  0  0  0  0  0  0  0  0  0  0
   -7.1110   23.5110  -31.3630 C   0  0  0  0  0  0  0  0  0  0  0  0
   -6.8560   24.5450  -30.4590 C   0  0  0  0  0  0  0  0  0  0  0  0
   -5.5530   24.7790  -30.0140 C   0  0  0  0  0  0  0  0  0  0  0  0
   -4.5010   23.9870  -30.4820 C   0  0  0  0  0  0  0  0  0  0  0  0
   -4.7490   22.9490  -31.3890 C   0  0  0  0  0  0  0  0  0  0  0  0
   -3.3830   22.0410  -32.0260 Cl  0  0  0  0  0  0  0  0  0  0  0  0
   -3.3940   18.7210  -33.3000 C   0  0  0  0  0  0  0  0  0  0  0  0
   -2.7850   17.6790  -34.2610 C   0  0  0  0  0  0  0  0  0  0  0  0
   -4.1629   15.7779  -33.3482 H   0  0  0  0  0  0  0  0  0  0  0  0
   -5.2141   15.4108  -34.7577 H   0  0  0  0  0  0  0  0  0  0  0  0
   -3.4962   14.8860  -34.7577 H   0  0  0  0  0  0  0  0  0  0  0  0
   -3.3630   16.7140  -35.9870 H   0  0  0  0  0  0  0  0  0  0  0  0
   -4.6587   18.6526  -35.9781 H   0  0  0  0  0  0  0  0  0  0  0  0
   -5.7175   17.1747  -35.8858 H   0  0  0  0  0  0  0  0  0  0  0  0
   -5.9679   19.3848  -34.2601 H   0  0  0  0  0  0  0  0  0  0  0  0
   -6.5194   17.7001  -33.8565 H   0  0  0  0  0  0  0  0  0  0  0  0
   -5.1089   18.6564  -30.8583 H   0  0  0  0  0  0  0  0  0  0  0  0
   -4.7707   20.1297  -31.8402 H   0  0  0  0  0  0  0  0  0  0  0  0
   -7.3129   17.3652  -31.4090 H   0  0  0  0  0  0  0  0  0  0  0  0
   -9.7618   17.7515  -31.7250 H   0  0  0  0  0  0  0  0  0  0  0  0
  -10.5655   19.9852  -32.5113 H   0  0  0  0  0  0  0  0  0  0  0  0
   -8.1372   23.3357  -31.7181 H   0  0  0  0  0  0  0  0  0  0  0  0
   -7.6819   25.1752  -30.0974 H   0  0  0  0  0  0  0  0  0  0  0  0
   -5.3547   25.5872  -29.2947 H   0  0  0  0  0  0  0  0  0  0  0  0
   -3.4745   24.1795  -30.1368 H   0  0  0  0  0  0  0  0  0  0  0  0
   -3.4358   19.6989  -33.8020 H   0  0  0  0  0  0  0  0  0  0  0  0
   -2.7671   18.7906  -32.3988 H   0  0  0  0  0  0  0  0  0  0  0  0
   -2.0988   18.1966  -34.9475 H   0  0  0  0  0  0  0  0  0  0  0  0
   -2.2676   16.9301  -33.6434 H   0  0  0  0  0  0  0  0  0  0  0  0
  1  2  1  0
  2  3  1  0
  3  4  1  0
  4  5  1  0
  5  6  1  0
  6  7  1  0
  7  8  2  0
  8  9  1  0
  9 10  2  0
 10 11  1  0
 11 12  2  0
 12 13  1  0
 13 14  1  0
 14 15  2  0
 15 16  1  0
 16 17  2  0
 17 18  1  0
 18 19  2  0
 19 20  1  0
  5 21  1  0
 21 22  1  0
 22  2  1  0
 12  7  1  0
 19 14  1  0
  1 23  1  0
  1 24  1  0
  1 25  1  0
  2 26  1  0
  3 27  1  0
  3 28  1  0
  4 29  1  0
  4 30  1  0
  6 31  1  0
  6 32  1  0
  8 33  1  0
  9 34  1  0
 10 35  1  0
 15 36  1  0
 16 37  1  0
 17 38  1  0
 18 39  1  0
 21 40  1  0
 21 41  1  0
 22 42  1  0
 22 43  1  0
M  CHG  1   2   1
M  END
>  <UniqueID>  (17) 
16

>  <SMILES>  (17) 
C[NH+]1CCN(Cc2cccnc2Oc2ccccc2Cl)CC1

>  <Energy>  (17) 
61.79927555754423

>  <Genealogy>  (17) 
C[NH+]1CCN(Cc2cccnc2Oc2ccccc2Cl)CC1 (protonated)
C[NH+]1CCN(Cc2cccnc2Oc2ccccc2Cl)CC1 (3D coordinates assigned)
C[NH+]1CCN(Cc2cccnc2Oc2ccccc2Cl)CC1 (nonaromatic ring conformer: 61.79927555754423 kcal/mol)

>  <smiles>  (17) 
CN1CCN(Cc2cccnc2Oc2ccccc2Cl)CC1

>  <score_type>  (17) 
oracle

>  <origin>  (17) 
adg

>  <m_score__min__energy>  (17) 
-7.0899999999999999

>  <m_primary>  (17) 
energy

$$$$
17:0
     RDKit          3D

 35 36  0  0  0  0  0  0  0  0999 V2000
   -6.4640   25.6400  -29.3930 C   0  0  0  0  0  0  0  0  0  0  0  0
   -5.9810   24.3120  -29.5520 O   0  0  0  0  0  0  0  0  0  0  0  0
   -5.7540   23.7370  -30.8070 C   0  0  0  0  0  0  0  0  0  0  0  0
   -4.8330   24.1800  -31.5460 O   0  0  0  0  0  0  0  0  0  0  0  0
   -6.6420   22.6530  -31.2770 C   0  0  0  0  0  0  0  0  0  0  0  0
   -7.8390   22.4390  -30.5690 C   0  0  0  0  0  0  0  0  0  0  0  0
   -8.7340   21.4430  -30.9620 C   0  0  0  0  0  0  0  0  0  0  0  0
   -8.4440   20.6370  -32.0590 C   0  0  0  0  0  0  0  0  0  0  0  0
   -7.2550   20.8170  -32.7640 C   0  0  0  0  0  0  0  0  0  0  0  0
   -6.3340   21.8170  -32.3910 C   0  0  0  0  0  0  0  0  0  0  0  0
   -5.0710   21.9040  -33.0950 N   0  0  0  0  0  0  0  0  0  0  0  0
   -4.0530   21.1480  -32.4060 C   0  0  0  0  0  0  0  0  0  0  0  0
   -3.0990   21.8790  -31.2860 S   0  0  0  0  0  0  0  0  0  0  0  0
   -3.7920   19.7760  -32.7410 N   0  0  0  0  0  0  0  0  0  0  0  0
   -4.8140   18.8080  -33.0310 C   0  0  0  0  0  0  0  0  0  0  0  0
   -5.5880   18.2880  -31.9820 C   0  0  0  0  0  0  0  0  0  0  0  0
   -6.5990   17.3570  -32.2420 C   0  0  0  0  0  0  0  0  0  0  0  0
   -6.8570   16.9530  -33.5540 C   0  0  0  0  0  0  0  0  0  0  0  0
   -6.1090   17.4840  -34.6090 C   0  0  0  0  0  0  0  0  0  0  0  0
   -5.0970   18.4130  -34.3520 C   0  0  0  0  0  0  0  0  0  0  0  0
   -6.5489   25.8734  -28.3214 H   0  0  0  0  0  0  0  0  0  0  0  0
   -5.7643   26.3439  -29.8673 H   0  0  0  0  0  0  0  0  0  0  0  0
   -7.4524   25.7299  -29.8673 H   0  0  0  0  0  0  0  0  0  0  0  0
   -8.0722   23.0646  -29.6948 H   0  0  0  0  0  0  0  0  0  0  0  0
   -9.6702   21.2947  -30.4039 H   0  0  0  0  0  0  0  0  0  0  0  0
   -9.1542   19.8567  -32.3702 H   0  0  0  0  0  0  0  0  0  0  0  0
   -7.0320   20.1689  -33.6244 H   0  0  0  0  0  0  0  0  0  0  0  0
   -4.8010   22.9040  -33.2080 H   0  0  0  0  0  0  0  0  0  0  0  0
   -5.1600   21.5180  -34.0640 H   0  0  0  0  0  0  0  0  0  0  0  0
   -2.7970   19.4550  -32.7380 H   0  0  0  0  0  0  0  0  0  0  0  0
   -5.3984   18.6147  -30.9489 H   0  0  0  0  0  0  0  0  0  0  0  0
   -7.1913   16.9427  -31.4128 H   0  0  0  0  0  0  0  0  0  0  0  0
   -7.6488   16.2170  -33.7571 H   0  0  0  0  0  0  0  0  0  0  0  0
   -6.3172   17.1703  -35.6425 H   0  0  0  0  0  0  0  0  0  0  0  0
   -4.5189   18.8375  -35.1860 H   0  0  0  0  0  0  0  0  0  0  0  0
  1  2  1  0
  2  3  1  0
  3  4  2  0
  3  5  1  0
  5  6  2  0
  6  7  1  0
  7  8  2  0
  8  9  1  0
  9 10  2  0
 10 11  1  0
 11 12  1  0
 12 13  2  0
 12 14  1  0
 14 15  1  0
 15 16  2  0
 16 17  1  0
 17 18  2  0
 18 19  1  0
 19 20  2  0
 10  5  1  0
 20 15  1  0
  1 21  1  0
  1 22  1  0
  1 23  1  0
  6 24  1  0
  7 25  1  0
  8 26  1  0
  9 27  1  0
 11 28  1  0
 11 29  1  0
 14 30  1  0
 16 31  1  0
 17 32  1  0
 18 33  1  0
 19 34  1  0
 20 35  1  0
M  CHG  1  11   1
M  END
>  <UniqueID>  (18) 
17

>  <SMILES>  (18) 
COC(=O)c1ccccc1[NH2+]C(=S)Nc1ccccc1

>  <Energy>  (18) 
44.87190183351994

>  <Genealogy>  (18) 
COC(=O)c1ccccc1[NH2+]C(=S)Nc1ccccc1 (protonated)
COC(=O)c1ccccc1[NH2+]C(=S)Nc1ccccc1 (3D coordinates assigned)
COC(=O)c1ccccc1[NH2+]C(=S)Nc1ccccc1 (optimized conformer: 44.87190183351994 kcal/mol)

>  <smiles>  (18) 
COC(=O)c1ccccc1NC(=S)Nc1ccccc1

>  <score_type>  (18) 
oracle

>  <origin>  (18) 
adg

>  <m_score__min__energy>  (18) 
-6.8799999999999999

>  <m_primary>  (18) 
energy

$$$$
18:0
     RDKit          3D

 29 30  0  0  0  0  0  0  0  0999 V2000
   -3.0090   24.5440  -29.4270 C   0  0  0  0  0  0  0  0  0  0  0  0
   -3.7920   25.1910  -30.4700 N   0  0  0  0  0  0  0  0  0  0  0  0
   -4.9930   24.6410  -31.0230 C   0  0  0  0  0  0  0  0  0  0  0  0
   -6.0250   25.3580  -31.0880 O   0  0  0  0  0  0  0  0  0  0  0  0
   -5.0580   23.2410  -31.4890 C   0  0  0  0  0  0  0  0  0  0  0  0
   -3.8740   22.6300  -31.9170 C   0  0  0  0  0  0  0  0  0  0  0  0
   -3.8990   21.3130  -32.3880 C   0  0  0  0  0  0  0  0  0  0  0  0
   -2.6370   20.6530  -32.8630 C   0  0  0  0  0  0  0  0  0  0  0  0
   -2.1540   19.7790  -31.9050 F   0  0  0  0  0  0  0  0  0  0  0  0
   -1.6760   21.6150  -33.1160 F   0  0  0  0  0  0  0  0  0  0  0  0
   -2.8920   19.9470  -34.0250 F   0  0  0  0  0  0  0  0  0  0  0  0
   -5.0750   20.6320  -32.4200 N   0  0  0  0  0  0  0  0  0  0  0  0
   -6.2500   21.1780  -32.0020 C   0  0  0  0  0  0  0  0  0  0  0  0
   -7.4400   20.4170  -32.0500 C   0  0  0  0  0  0  0  0  0  0  0  0
   -7.4220   18.9980  -32.5760 C   0  0  0  0  0  0  0  0  0  0  0  0
   -8.6970   18.4730  -32.6910 F   0  0  0  0  0  0  0  0  0  0  0  0
   -6.6940   18.1960  -31.7160 F   0  0  0  0  0  0  0  0  0  0  0  0
   -6.8280   18.9750  -33.8260 F   0  0  0  0  0  0  0  0  0  0  0  0
   -8.6380   20.9960  -31.5920 C   0  0  0  0  0  0  0  0  0  0  0  0
   -8.6540   22.2990  -31.0970 C   0  0  0  0  0  0  0  0  0  0  0  0
   -7.4820   23.0530  -31.0530 C   0  0  0  0  0  0  0  0  0  0  0  0
   -6.2680   22.5090  -31.5140 C   0  0  0  0  0  0  0  0  0  0  0  0
   -3.3846   24.8543  -28.4408 H   0  0  0  0  0  0  0  0  0  0  0  0
   -3.0975   23.4521  -29.5261 H   0  0  0  0  0  0  0  0  0  0  0  0
   -1.9533   24.8368  -29.5261 H   0  0  0  0  0  0  0  0  0  0  0  0
   -2.9247   23.1847  -31.8831 H   0  0  0  0  0  0  0  0  0  0  0  0
   -9.5712   20.4146  -31.6249 H   0  0  0  0  0  0  0  0  0  0  0  0
   -9.5979   22.7355  -30.7386 H   0  0  0  0  0  0  0  0  0  0  0  0
   -7.5060   24.0785  -30.6559 H   0  0  0  0  0  0  0  0  0  0  0  0
  1  2  1  0
  2  3  1  0
  3  4  2  0
  3  5  1  0
  5  6  2  0
  6  7  1  0
  7  8  1  0
  8  9  1  0
  8 10  1  0
  8 11  1  0
  7 12  2  0
 12 13  1  0
 13 14  2  0
 14 15  1  0
 15 16  1  0
 15 17  1  0
 15 18  1  0
 14 19  1  0
 19 20  2  0
 20 21  1  0
 21 22  2  0
 22  5  1  0
 22 13  1  0
  1 23  1  0
  1 24  1  0
  1 25  1  0
  6 26  1  0
 19 27  1  0
 20 28  1  0
 21 29  1  0
M  CHG  1   2  -1
M  END
>  <UniqueID>  (19) 
18

>  <SMILES>  (19) 
C[N-]C(=O)c1cc(C(F)(F)F)nc2c(C(F)(F)F)cccc12

>  <Energy>  (19) 
39.81078068912352

>  <Genealogy>  (19) 
C[N-]C(=O)c1cc(C(F)(F)F)nc2c(C(F)(F)F)cccc12 (protonated)
C[N-]C(=O)c1cc(C(F)(F)F)nc2c(C(F)(F)F)cccc12 (3D coordinates assigned)
C[N-]C(=O)c1cc(C(F)(F)F)nc2c(C(F)(F)F)cccc12 (optimized conformer: 39.81078068912352 kcal/mol)

>  <smiles>  (19) 
CNC(=O)c1cc(C(F)(F)F)nc2c(C(F)(F)F)cccc12

>  <score_type>  (19) 
oracle

>  <origin>  (19) 
adg

>  <m_score__min__energy>  (19) 
-8.2799999999999994

>  <m_primary>  (19) 
energy

$$$$
19:0
     RDKit          3D

 38 40  0  0  0  0  0  0  0  0999 V2000
   -5.6900   18.0070  -34.4170 C   0  0  0  0  0  0  0  0  0  0  0  0
   -5.4240   19.4050  -34.3560 O   0  0  0  0  0  0  0  0  0  0  0  0
   -4.6380   20.0180  -33.3690 C   0  0  0  0  0  0  0  0  0  0  0  0
   -3.4950   19.3470  -32.9180 C   0  0  0  0  0  0  0  0  0  0  0  0
   -2.6720   19.9230  -31.9480 C   0  0  0  0  0  0  0  0  0  0  0  0
   -2.9960   21.1680  -31.4060 C   0  0  0  0  0  0  0  0  0  0  0  0
   -4.1560   21.8400  -31.8160 C   0  0  0  0  0  0  0  0  0  0  0  0
   -4.4850   23.1520  -31.2250 C   0  0  0  0  0  0  0  0  0  0  0  0
   -3.6080   24.1760  -31.2000 N   0  0  0  0  0  0  0  0  0  0  0  0
   -4.1930   25.1800  -30.5660 N   0  0  0  0  0  0  0  0  0  0  0  0
   -5.4150   24.7500  -30.2060 C   0  0  0  0  0  0  0  0  0  0  0  0
   -6.4660   25.6700  -29.3500 S   0  0  0  0  0  0  0  0  0  0  0  0
   -5.6430   23.4790  -30.6020 N   0  0  0  0  0  0  0  0  0  0  0  0
   -6.7800   22.6230  -30.2360 C   0  0  0  0  0  0  0  0  0  0  0  0
   -7.7880   22.5070  -31.3870 C   0  0  0  0  0  0  0  0  0  0  0  0
   -8.0930   21.0700  -31.7210 C   0  0  0  0  0  0  0  0  0  0  0  0
   -9.2620   20.7350  -32.4250 C   0  0  0  0  0  0  0  0  0  0  0  0
   -9.5470   19.3990  -32.7210 C   0  0  0  0  0  0  0  0  0  0  0  0
   -8.6750   18.3880  -32.3070 C   0  0  0  0  0  0  0  0  0  0  0  0
   -7.5170   18.7120  -31.5960 C   0  0  0  0  0  0  0  0  0  0  0  0
   -7.2250   20.0480  -31.3030 C   0  0  0  0  0  0  0  0  0  0  0  0
   -4.9560   21.2780  -32.8240 C   0  0  0  0  0  0  0  0  0  0  0  0
   -5.7668   17.6035  -33.3966 H   0  0  0  0  0  0  0  0  0  0  0  0
   -6.6366   17.8368  -34.9508 H   0  0  0  0  0  0  0  0  0  0  0  0
   -4.8720   17.5011  -34.9508 H   0  0  0  0  0  0  0  0  0  0  0  0
   -3.2434   18.3589  -33.3307 H   0  0  0  0  0  0  0  0  0  0  0  0
   -1.7677   19.3953  -31.6107 H   0  0  0  0  0  0  0  0  0  0  0  0
   -2.3371   21.6245  -30.6527 H   0  0  0  0  0  0  0  0  0  0  0  0
   -6.4060   21.6193  -29.9855 H   0  0  0  0  0  0  0  0  0  0  0  0
   -7.2906   23.0764  -29.3736 H   0  0  0  0  0  0  0  0  0  0  0  0
   -8.7214   23.0105  -31.0949 H   0  0  0  0  0  0  0  0  0  0  0  0
   -7.3462   22.9785  -32.2772 H   0  0  0  0  0  0  0  0  0  0  0  0
   -9.9554   21.5270  -32.7443 H   0  0  0  0  0  0  0  0  0  0  0  0
  -10.4588   19.1428  -33.2805 H   0  0  0  0  0  0  0  0  0  0  0  0
   -8.9007   17.3372  -32.5411 H   0  0  0  0  0  0  0  0  0  0  0  0
   -6.8340   17.9153  -31.2662 H   0  0  0  0  0  0  0  0  0  0  0  0
   -6.3121   20.2993  -30.7431 H   0  0  0  0  0  0  0  0  0  0  0  0
   -5.8370   21.8251  -33.1907 H   0  0  0  0  0  0  0  0  0  0  0  0
  1  2  1  0
  2  3  1  0
  3  4  2  0
  4  5  1  0
  5  6  2  0
  6  7  1  0
  7  8  1  0
  8  9  2  0
  9 10  1  0
 10 11  1  0
 11 12  2  0
 11 13  1  0
 13 14  1  0
 14 15  1  0
 15 16  1  0
 16 17  2  0
 17 18  1  0
 18 19  2  0
 19 20  1  0
 20 21  2  0
  7 22  2  0
 22  3  1  0
 13  8  1  0
 21 16  1  0
  1 23  1  0
  1 24  1  0
  1 25  1  0
  4 26  1  0
  5 27  1  0
  6 28  1  0
 14 29  1  0
 14 30  1  0
 15 31  1  0
 15 32  1  0
 17 33  1  0
 18 34  1  0
 19 35  1  0
 20 36  1  0
 21 37  1  0
 22 38  1  0
M  CHG  1  10  -1
M  END
>  <UniqueID>  (20) 
19

>  <SMILES>  (20) 
COc1cccc(-c2n[n-]c(=S)n2CCc2ccccc2)c1

>  <Energy>  (20) 
73.88094581855813

>  <Genealogy>  (20) 
COc1cccc(-c2n[n-]c(=S)n2CCc2ccccc2)c1 (protonated)
COc1cccc(-c2n[n-]c(=S)n2CCc2ccccc2)c1 (3D coordinates assigned)
COc1cccc(-c2n[n-]c(=S)n2CCc2ccccc2)c1 (optimized conformer: 73.88094581855813 kcal/mol)

>  <smiles>  (20) 
COc1cccc(-c2n[nH]c(=S)n2CCc2ccccc2)c1

>  <score_type>  (20) 
oracle

>  <origin>  (20) 
adg

>  <m_score__min__energy>  (20) 
-9.1699999999999999

>  <m_primary>  (20) 
energy

$$$$
20:0
     RDKit          3D

 48 51  0  0  0  0  0  0  0  0999 V2000
   -8.1530   18.1500  -32.0270 C   0  0  0  0  0  0  0  0  0  0  0  0
   -9.1200   19.3280  -32.0570 C   0  0  0  0  0  0  0  0  0  0  0  0
   -8.3770   20.6290  -31.9720 C   0  0  0  0  0  0  0  0  0  0  0  0
   -9.0700   21.8460  -31.9460 C   0  0  0  0  0  0  0  0  0  0  0  0
   -8.3500   23.0390  -31.9090 C   0  0  0  0  0  0  0  0  0  0  0  0
   -6.9550   23.0130  -31.9110 C   0  0  0  0  0  0  0  0  0  0  0  0
   -6.2850   21.7770  -31.9600 C   0  0  0  0  0  0  0  0  0  0  0  0
   -4.8090   21.6800  -31.9900 C   0  0  0  0  0  0  0  0  0  0  0  0
   -4.0700   21.6700  -33.2030 C   0  0  0  0  0  0  0  0  0  0  0  0
   -2.6720   21.5330  -33.1780 C   0  0  0  0  0  0  0  0  0  0  0  0
   -2.0770   21.4040  -31.9330 C   0  0  0  0  0  0  0  0  0  0  0  0
   -0.7730   21.2620  -31.6380 N   0  0  0  0  0  0  0  0  0  0  0  0
   -0.6730   21.1890  -30.3120 N   0  0  0  0  0  0  0  0  0  0  0  0
   -1.9350   21.2720  -29.8210 C   0  0  0  0  0  0  0  0  0  0  0  0
   -2.2740   21.3360  -28.3630 C   0  0  0  0  0  0  0  0  0  0  0  0
   -2.4860   22.7410  -27.9490 N   0  0  0  0  0  0  0  0  0  0  0  0
   -1.7070   23.0480  -26.7380 C   0  0  0  0  0  0  0  0  0  0  0  0
   -2.1600   23.6840  -29.0370 C   0  0  0  0  0  0  0  0  0  0  0  0
   -3.4160   24.3120  -29.5580 C   0  0  0  0  0  0  0  0  0  0  0  0
   -4.5830   24.3250  -28.8880 N   0  0  0  0  0  0  0  0  0  0  0  0
   -5.3790   24.9770  -29.7590 C   0  0  0  0  0  0  0  0  0  0  0  0
   -6.8130   25.2880  -29.4940 C   0  0  0  0  0  0  0  0  0  0  0  0
   -4.7320   25.3480  -30.8790 N   0  0  0  0  0  0  0  0  0  0  0  0
   -3.5190   24.9160  -30.7170 O   0  0  0  0  0  0  0  0  0  0  0  0
   -2.8130   21.4160  -30.8260 N   0  0  0  0  0  0  0  0  0  0  0  0
   -4.1370   21.5450  -30.8070 N   0  0  0  0  0  0  0  0  0  0  0  0
   -7.0160   20.6280  -31.9840 N   0  0  0  0  0  0  0  0  0  0  0  0
   -7.9334   17.8824  -30.9829 H   0  0  0  0  0  0  0  0  0  0  0  0
   -8.6081   17.2889  -32.5382 H   0  0  0  0  0  0  0  0  0  0  0  0
   -7.2197   18.4286  -32.5382 H   0  0  0  0  0  0  0  0  0  0  0  0
   -9.6930   19.3005  -32.9956 H   0  0  0  0  0  0  0  0  0  0  0  0
   -9.7967   19.2511  -31.1932 H   0  0  0  0  0  0  0  0  0  0  0  0
  -10.1699   21.8601  -31.9547 H   0  0  0  0  0  0  0  0  0  0  0  0
   -8.8819   24.0014  -31.8782 H   0  0  0  0  0  0  0  0  0  0  0  0
   -6.3833   23.9521  -31.8745 H   0  0  0  0  0  0  0  0  0  0  0  0
   -4.5940   21.7698  -34.1650 H   0  0  0  0  0  0  0  0  0  0  0  0
   -2.0774   21.5283  -34.1034 H   0  0  0  0  0  0  0  0  0  0  0  0
    0.0300   21.2250  -32.3030 H   0  0  0  0  0  0  0  0  0  0  0  0
   -3.1927   20.7600  -28.1779 H   0  0  0  0  0  0  0  0  0  0  0  0
   -1.4417   20.9122  -27.7819 H   0  0  0  0  0  0  0  0  0  0  0  0
   -2.3066   22.8117  -25.8466 H   0  0  0  0  0  0  0  0  0  0  0  0
   -0.7869   22.4452  -26.7313 H   0  0  0  0  0  0  0  0  0  0  0  0
   -1.4455   24.1164  -26.7313 H   0  0  0  0  0  0  0  0  0  0  0  0
   -1.4919   24.4686  -28.6522 H   0  0  0  0  0  0  0  0  0  0  0  0
   -1.6613   23.1393  -29.8522 H   0  0  0  0  0  0  0  0  0  0  0  0
   -6.9855   25.3254  -28.4083 H   0  0  0  0  0  0  0  0  0  0  0  0
   -7.0653   26.2618  -29.9391 H   0  0  0  0  0  0  0  0  0  0  0  0
   -7.4461   24.5063  -29.9391 H   0  0  0  0  0  0  0  0  0  0  0  0
  1  2  1  0
  2  3  1  0
  3  4  2  0
  4  5  1  0
  5  6  2  0
  6  7  1  0
  7  8  1  0
  8  9  1  0
  9 10  2  0
 10 11  1  0
 11 12  2  0
 12 13  1  0
 13 14  2  0
 14 15  1  0
 15 16  1  0
 16 17  1  0
 16 18  1  0
 18 19  1  0
 19 20  2  0
 20 21  1  0
 21 22  1  0
 21 23  2  0
 23 24  1  0
 14 25  1  0
 25 26  1  0
  7 27  2  0
 27  3  1  0
 26  8  2  0
 25 11  1  0
 24 19  1  0
  1 28  1  0
  1 29  1  0
  1 30  1  0
  2 31  1  0
  2 32  1  0
  4 33  1  0
  5 34  1  0
  6 35  1  0
  9 36  1  0
 10 37  1  0
 12 38  1  0
 15 39  1  0
 15 40  1  0
 17 41  1  0
 17 42  1  0
 17 43  1  0
 18 44  1  0
 18 45  1  0
 22 46  1  0
 22 47  1  0
 22 48  1  0
M  CHG  1  12   1
M  END
>  <UniqueID>  (21) 
20

>  <SMILES>  (21) 
CCc1cccc(-c2ccc3[nH+]nc(CN(C)Cc4nc(C)no4)n3n2)n1

>  <Energy>  (21) 
123.99461622917764

>  <Genealogy>  (21) 
CCc1cccc(-c2ccc3[nH+]nc(CN(C)Cc4nc(C)no4)n3n2)n1 (protonated)
CCc1cccc(-c2ccc3[nH+]nc(CN(C)Cc4nc(C)no4)n3n2)n1 (3D coordinates assigned)
CCc1cccc(-c2ccc3[nH+]nc(CN(C)Cc4nc(C)no4)n3n2)n1 (optimized conformer: 123.99461622917764 kcal/mol)

>  <smiles>  (21) 
CCc1cccc(-c2ccc3nnc(CN(C)Cc4nc(C)no4)n3n2)n1

>  <score_type>  (21) 
oracle

>  <origin>  (21) 
adg

>  <m_score__min__energy>  (21) 
-9.0999999999999996

>  <m_primary>  (21) 
energy

$$$$
21:0
     RDKit          3D

 52 53  0  0  0  0  0  0  0  0999 V2000
   -0.6010   26.8814  -28.8795 H   0  0  0  0  0  0  0  0  0  0  0  0
   -1.2070   26.1590  -28.3130 C   0  0  0  0  0  0  0  0  0  0  0  0
   -1.9950   25.2680  -28.9720 N   0  0  0  0  0  0  0  0  0  0  0  0
   -2.7660   24.3500  -28.3250 C   0  0  0  0  0  0  0  0  0  0  0  0
   -3.4810   23.5380  -29.0580 N   0  0  0  0  0  0  0  0  0  0  0  0
   -3.1240   22.6720  -30.1510 C   0  0  0  0  0  0  0  0  0  0  0  0
   -2.3900   23.0590  -31.0990 O   0  0  0  0  0  0  0  0  0  0  0  0
   -3.6850   21.2800  -30.1830 C   0  0  0  0  0  0  0  0  0  0  0  0
   -4.0987   21.0415  -29.1921 H   0  0  0  0  0  0  0  0  0  0  0  0
   -2.8694   20.5924  -30.4512 H   0  0  0  0  0  0  0  0  0  0  0  0
   -4.7980   21.1280  -31.2350 C   0  0  0  0  0  0  0  0  0  0  0  0
   -5.5738   20.4660  -30.8229 H   0  0  0  0  0  0  0  0  0  0  0  0
   -4.3238   20.7186  -32.1392 H   0  0  0  0  0  0  0  0  0  0  0  0
   -5.4540   22.4340  -31.6410 C   0  0  0  0  0  0  0  0  0  0  0  0
   -4.9660   23.1050  -32.5390 O   0  0  0  0  0  0  0  0  0  0  0  0
   -6.6540   22.8840  -30.9510 N   0  0  1  0  0  0  0  0  0  0  0  0
   -7.0640   23.6260  -31.5690 H   0  0  0  0  0  0  0  0  0  0  0  0
   -7.7290   21.8560  -30.9200 C   0  0  0  0  0  0  0  0  0  0  0  0
   -7.3548   21.0003  -30.3388 H   0  0  0  0  0  0  0  0  0  0  0  0
   -8.6010   22.3640  -30.4823 H   0  0  0  0  0  0  0  0  0  0  0  0
   -8.2180   21.3160  -32.2880 C   0  0  0  0  0  0  0  0  0  0  0  0
   -9.3076   21.1761  -32.2321 H   0  0  0  0  0  0  0  0  0  0  0  0
   -7.9166   22.0580  -33.0420 H   0  0  0  0  0  0  0  0  0  0  0  0
   -7.5950   20.0040  -32.7050 C   0  0  0  0  0  0  0  0  0  0  0  0
   -7.8740   18.8210  -31.9950 C   0  0  0  0  0  0  0  0  0  0  0  0
   -8.5852   18.8416  -31.1561 H   0  0  0  0  0  0  0  0  0  0  0  0
   -7.2520   17.6190  -32.3500 C   0  0  0  0  0  0  0  0  0  0  0  0
   -7.4856   16.6961  -31.7988 H   0  0  0  0  0  0  0  0  0  0  0  0
   -6.3350   17.5890  -33.4030 C   0  0  0  0  0  0  0  0  0  0  0  0
   -5.8486   16.6428  -33.6826 H   0  0  0  0  0  0  0  0  0  0  0  0
   -6.0360   18.7620  -34.1010 C   0  0  0  0  0  0  0  0  0  0  0  0
   -5.3152   18.7374  -34.9315 H   0  0  0  0  0  0  0  0  0  0  0  0
   -6.6500   19.9660  -33.7470 C   0  0  0  0  0  0  0  0  0  0  0  0
   -6.3932   20.8898  -34.2861 H   0  0  0  0  0  0  0  0  0  0  0  0
   -6.4220   23.5900  -29.6570 C   0  0  0  0  0  0  0  0  0  0  0  0
   -5.4203   23.3136  -29.2963 H   0  0  0  0  0  0  0  0  0  0  0  0
   -7.2392   23.2731  -28.9924 H   0  0  0  0  0  0  0  0  0  0  0  0
   -6.4980   25.1330  -29.7110 C   0  0  0  0  0  0  0  0  0  0  0  0
   -6.0817   25.5462  -28.7804 H   0  0  0  0  0  0  0  0  0  0  0  0
   -7.5515   25.4276  -29.8269 H   0  0  0  0  0  0  0  0  0  0  0  0
   -5.7030   25.6830  -30.9040 C   0  0  0  0  0  0  0  0  0  0  0  0
   -5.8620   26.7694  -30.9705 H   0  0  0  0  0  0  0  0  0  0  0  0
   -6.0557   25.1820  -31.8175 H   0  0  0  0  0  0  0  0  0  0  0  0
   -4.2730   25.4190  -30.7550 N   0  0  0  0  0  0  0  0  0  0  0  0
   -4.0080   25.5540  -29.7520 H   0  0  0  0  0  0  0  0  0  0  0  0
   -4.0850   24.4200  -31.0010 H   0  0  0  0  0  0  0  0  0  0  0  0
   -2.7530   24.3310  -26.9060 C   0  0  0  0  0  0  0  0  0  0  0  0
   -3.3719   23.6071  -26.3556 H   0  0  0  0  0  0  0  0  0  0  0  0
   -1.9470   25.2400  -26.2130 C   0  0  0  0  0  0  0  0  0  0  0  0
   -1.9285   25.2314  -25.1132 H   0  0  0  0  0  0  0  0  0  0  0  0
   -1.1670   26.1570  -26.9160 C   0  0  0  0  0  0  0  0  0  0  0  0
   -0.5271   26.8712  -26.3771 H   0  0  0  0  0  0  0  0  0  0  0  0
  1  2  1  0
  2  3  1  0
  3  4  1  0
  4  5  2  0
  5  6  1  0
  6  7  2  0
  6  8  1  0
  8  9  1  0
  8 10  1  0
  8 11  1  0
 11 12  1  0
 11 13  1  0
 11 14  1  0
 14 15  2  0
 14 16  1  0
 16 17  1  6
 16 18  1  0
 18 19  1  0
 18 20  1  0
 18 21  1  0
 21 22  1  0
 21 23  1  0
 21 24  1  0
 24 25  2  0
 25 26  1  0
 25 27  1  0
 27 28  1  0
 27 29  2  0
 29 30  1  0
 29 31  1  0
 31 32  1  0
 31 33  2  0
 33 34  1  0
 16 35  1  0
 35 36  1  0
 35 37  1  0
 35 38  1  0
 38 39  1  0
 38 40  1  0
 38 41  1  0
 41 42  1  0
 41 43  1  0
 41 44  1  0
 44 45  1  0
 44 46  1  0
  4 47  1  0
 47 48  1  0
 47 49  2  0
 49 50  1  0
 49 51  1  0
 51 52  1  0
 51  2  2  0
 33 24  1  0
M  CHG  2   3  -1  16   1
M  END
>  <UniqueID>  (22) 
21

>  <SMILES>  (22) 
NCCC[N@H+](CCc1ccccc1)C(=O)CCC(=O)/N=c1\cccc[n-]1

>  <Energy>  (22) 
64.42554713946905

>  <Genealogy>  (22) 
NCCC[NH+](CCc1ccccc1)C(=O)CCC(=O)N=c1cccc[n-]1 (protonated)
NCCC[N@H+](CCc1ccccc1)C(=O)CCC(=O)N=c1cccc[n-]1 (chirality)
NCCC[N@H+](CCc1ccccc1)C(=O)CCC(=O)/N=c1\cccc[n-]1 (cis-trans isomerization)
NCCC[N@H+](CCc1ccccc1)C(=O)CCC(=O)/N=c1\cccc[n-]1 (3D coordinates assigned)
NCCC[N@H+](CCc1ccccc1)C(=O)CCC(=O)/N=c1\cccc[n-]1 (optimized conformer: 64.42554713946905 kcal/mol)

>  <smiles>  (22) 
NCCCN(CCc1ccccc1)C(=O)CCC(=O)N=c1cccc[nH]1

>  <score_type>  (22) 
oracle

>  <origin>  (22) 
adg

>  <m_score__min__energy>  (22) 
-8.9299999999999997

>  <m_primary>  (22) 
energy

$$$$
22:0
     RDKit          3D

 48 50  0  0  0  0  0  0  0  0999 V2000
   -5.6000   24.5120  -30.6680 C   0  0  0  0  0  0  0  0  0  0  0  0
   -4.2210   24.2290  -30.8680 O   0  0  0  0  0  0  0  0  0  0  0  0
   -3.7250   23.0100  -31.3560 C   0  0  0  0  0  0  0  0  0  0  0  0
   -4.2320   22.3960  -32.5190 C   0  0  0  0  0  0  0  0  0  0  0  0
   -3.7000   21.1800  -32.9650 C   0  0  0  0  0  0  0  0  0  0  0  0
   -2.6600   20.5550  -32.2570 C   0  0  0  0  0  0  0  0  0  0  0  0
   -2.1230   19.2930  -32.7120 N   0  0  0  0  0  0  0  0  0  0  0  0
   -3.0030   18.6380  -33.6980 C   0  0  0  0  0  0  0  0  0  0  0  0
   -3.8100   17.4690  -33.1040 C   0  0  0  0  0  0  0  0  0  0  0  0
   -4.8380   16.9830  -34.0520 N   0  0  0  0  0  0  0  0  0  0  0  0
   -5.2950   18.0290  -34.9830 C   0  0  0  0  0  0  0  0  0  0  0  0
   -6.1030   19.0810  -34.2790 C   0  0  0  0  0  0  0  0  0  0  0  0
   -6.8480   18.7950  -33.1940 C   0  0  0  0  0  0  0  0  0  0  0  0
   -7.5760   19.8820  -32.4690 C   0  0  0  0  0  0  0  0  0  0  0  0
   -8.9710   20.0480  -32.6170 C   0  0  0  0  0  0  0  0  0  0  0  0
   -9.6410   21.0870  -31.9630 C   0  0  0  0  0  0  0  0  0  0  0  0
   -8.9350   21.9820  -31.1600 C   0  0  0  0  0  0  0  0  0  0  0  0
   -7.5560   21.8390  -31.0110 C   0  0  0  0  0  0  0  0  0  0  0  0
   -6.8790   20.7990  -31.6590 C   0  0  0  0  0  0  0  0  0  0  0  0
   -6.8910   17.3800  -32.6380 C   0  0  0  0  0  0  0  0  0  0  0  0
   -6.0010   16.3630  -33.3880 C   0  0  0  0  0  0  0  0  0  0  0  0
   -2.1510   21.1750  -31.1020 C   0  0  0  0  0  0  0  0  0  0  0  0
   -2.6850   22.3880  -30.6560 C   0  0  0  0  0  0  0  0  0  0  0  0
   -5.8127   24.5557  -29.5896 H   0  0  0  0  0  0  0  0  0  0  0  0
   -5.8465   25.4795  -31.1298 H   0  0  0  0  0  0  0  0  0  0  0  0
   -6.2076   23.7198  -31.1298 H   0  0  0  0  0  0  0  0  0  0  0  0
   -5.0493   22.8742  -33.0788 H   0  0  0  0  0  0  0  0  0  0  0  0
   -4.0993   20.7108  -33.8763 H   0  0  0  0  0  0  0  0  0  0  0  0
   -1.9450   18.6490  -31.9050 H   0  0  0  0  0  0  0  0  0  0  0  0
   -1.1960   19.4750  -33.1640 H   0  0  0  0  0  0  0  0  0  0  0  0
   -3.7075   19.3863  -34.0902 H   0  0  0  0  0  0  0  0  0  0  0  0
   -2.3595   18.2244  -34.4885 H   0  0  0  0  0  0  0  0  0  0  0  0
   -3.1225   16.6434  -32.8680 H   0  0  0  0  0  0  0  0  0  0  0  0
   -4.3185   17.8264  -32.1964 H   0  0  0  0  0  0  0  0  0  0  0  0
   -4.4171   18.5034  -35.4458 H   0  0  0  0  0  0  0  0  0  0  0  0
   -5.9334   17.5570  -35.7443 H   0  0  0  0  0  0  0  0  0  0  0  0
   -6.0859   20.1129  -34.6597 H   0  0  0  0  0  0  0  0  0  0  0  0
   -9.5368   19.3521  -33.2539 H   0  0  0  0  0  0  0  0  0  0  0  0
  -10.7288   21.1985  -32.0825 H   0  0  0  0  0  0  0  0  0  0  0  0
   -9.4640   22.7980  -30.6459 H   0  0  0  0  0  0  0  0  0  0  0  0
   -6.9973   22.5469  -30.3811 H   0  0  0  0  0  0  0  0  0  0  0  0
   -5.7909   20.6971  -31.5341 H   0  0  0  0  0  0  0  0  0  0  0  0
   -6.5624   17.4142  -31.5888 H   0  0  0  0  0  0  0  0  0  0  0  0
   -7.9276   17.0316  -32.7563 H   0  0  0  0  0  0  0  0  0  0  0  0
   -5.6347   15.6196  -32.6647 H   0  0  0  0  0  0  0  0  0  0  0  0
   -6.6199   15.9064  -34.1744 H   0  0  0  0  0  0  0  0  0  0  0  0
   -1.3277   20.7029  -30.5459 H   0  0  0  0  0  0  0  0  0  0  0  0
   -2.2837   22.8579  -29.7460 H   0  0  0  0  0  0  0  0  0  0  0  0
  1  2  1  0
  2  3  1  0
  3  4  2  0
  4  5  1  0
  5  6  2  0
  6  7  1  0
  7  8  1  0
  8  9  1  0
  9 10  1  0
 10 11  1  0
 11 12  1  0
 12 13  2  0
 13 14  1  0
 14 15  2  0
 15 16  1  0
 16 17  2  0
 17 18  1  0
 18 19  2  0
 13 20  1  0
 20 21  1  0
  6 22  1  0
 22 23  2  0
 23  3  1  0
 21 10  1  0
 19 14  1  0
  1 24  1  0
  1 25  1  0
  1 26  1  0
  4 27  1  0
  5 28  1  0
  7 29  1  0
  7 30  1  0
  8 31  1  0
  8 32  1  0
  9 33  1  0
  9 34  1  0
 11 35  1  0
 11 36  1  0
 12 37  1  0
 15 38  1  0
 16 39  1  0
 17 40  1  0
 18 41  1  0
 19 42  1  0
 20 43  1  0
 20 44  1  0
 21 45  1  0
 21 46  1  0
 22 47  1  0
 23 48  1  0
M  CHG  1   7   1
M  END
>  <UniqueID>  (23) 
22

>  <SMILES>  (23) 
COc1ccc([NH2+]CCN2CC=C(c3ccccc3)CC2)cc1

>  <Energy>  (23) 
60.34726762347065

>  <Genealogy>  (23) 
COc1ccc([NH2+]CCN2CC=C(c3ccccc3)CC2)cc1 (protonated)
COc1ccc([NH2+]CCN2CC=C(c3ccccc3)CC2)cc1 (3D coordinates assigned)
COc1ccc([NH2+]CCN2CC=C(c3ccccc3)CC2)cc1 (nonaromatic ring conformer: 60.34726762347065 kcal/mol)

>  <smiles>  (23) 
COc1ccc(NCCN2CC=C(c3ccccc3)CC2)cc1

>  <score_type>  (23) 
oracle

>  <origin>  (23) 
adg

>  <m_score__min__energy>  (23) 
-7.6200000000000001

>  <m_primary>  (23) 
energy

$$$$
23:0
     RDKit          3D

 35 37  0  0  0  0  0  0  0  0999 V2000
   -8.9980   21.8300  -31.3520 O   0  0  0  0  0  0  0  0  0  0  0  0
   -7.8520   22.3260  -31.5280 C   0  0  0  0  0  0  0  0  0  0  0  0
   -7.5950   23.7440  -31.1250 C   0  0  0  0  0  0  0  0  0  0  0  0
   -6.1970   23.8980  -30.7470 N   0  0  0  0  0  0  0  0  0  0  0  0
   -5.1950   23.9770  -31.6060 N   0  0  0  0  0  0  0  0  0  0  0  0
   -4.0760   24.2070  -30.9370 N   0  0  0  0  0  0  0  0  0  0  0  0
   -4.4540   24.2740  -29.6440 C   0  0  0  0  0  0  0  0  0  0  0  0
   -3.5420   24.5460  -28.5280 C   0  0  0  0  0  0  0  0  0  0  0  0
   -3.8690   24.5110  -27.1780 C   0  0  0  0  0  0  0  0  0  0  0  0
   -2.7860   24.8050  -26.3430 C   0  0  0  0  0  0  0  0  0  0  0  0
   -1.6070   25.0720  -27.0290 C   0  0  0  0  0  0  0  0  0  0  0  0
   -1.9150   24.9410  -28.6770 S   0  0  0  0  0  0  0  0  0  0  0  0
   -5.7800   24.0910  -29.5080 N   0  0  0  0  0  0  0  0  0  0  0  0
   -6.7700   21.5170  -32.0190 N   0  0  0  0  0  0  0  0  0  0  0  0
   -6.9050   20.1270  -32.3570 C   0  0  0  0  0  0  0  0  0  0  0  0
   -7.9540   19.3580  -31.8230 C   0  0  0  0  0  0  0  0  0  0  0  0
   -8.0930   18.0150  -32.1750 C   0  0  0  0  0  0  0  0  0  0  0  0
   -7.1960   17.4290  -33.0670 C   0  0  0  0  0  0  0  0  0  0  0  0
   -6.1570   18.1850  -33.6170 C   0  0  0  0  0  0  0  0  0  0  0  0
   -6.0040   19.5420  -33.2690 C   0  0  0  0  0  0  0  0  0  0  0  0
   -4.9690   20.3380  -33.7920 O   0  0  0  0  0  0  0  0  0  0  0  0
   -3.8790   20.8770  -33.0480 C   0  0  0  0  0  0  0  0  0  0  0  0
   -4.0410   20.6070  -31.7000 F   0  0  0  0  0  0  0  0  0  0  0  0
   -2.6850   20.3420  -33.4960 F   0  0  0  0  0  0  0  0  0  0  0  0
   -3.8480   22.2470  -33.2270 F   0  0  0  0  0  0  0  0  0  0  0  0
   -7.8217   24.4115  -31.9694 H   0  0  0  0  0  0  0  0  0  0  0  0
   -8.2358   24.0027  -30.2692 H   0  0  0  0  0  0  0  0  0  0  0  0
   -4.8765   24.2761  -26.8041 H   0  0  0  0  0  0  0  0  0  0  0  0
   -2.8604   24.8232  -25.2457 H   0  0  0  0  0  0  0  0  0  0  0  0
   -0.6389   25.3254  -26.5724 H   0  0  0  0  0  0  0  0  0  0  0  0
   -5.8100   21.9290  -32.0010 H   0  0  0  0  0  0  0  0  0  0  0  0
   -8.6686   19.8174  -31.1243 H   0  0  0  0  0  0  0  0  0  0  0  0
   -8.9119   17.4175  -31.7479 H   0  0  0  0  0  0  0  0  0  0  0  0
   -7.3063   16.3688  -33.3387 H   0  0  0  0  0  0  0  0  0  0  0  0
   -5.4556   17.7187  -34.3246 H   0  0  0  0  0  0  0  0  0  0  0  0
  1  2  2  0
  2  3  1  0
  3  4  1  0
  4  5  1  0
  5  6  2  0
  6  7  1  0
  7  8  1  0
  8  9  2  0
  9 10  1  0
 10 11  2  0
 11 12  1  0
  7 13  2  0
  2 14  1  0
 14 15  1  0
 15 16  2  0
 16 17  1  0
 17 18  2  0
 18 19  1  0
 19 20  2  0
 20 21  1  0
 21 22  1  0
 22 23  1  0
 22 24  1  0
 22 25  1  0
 13  4  1  0
 20 15  1  0
 12  8  1  0
  3 26  1  0
  3 27  1  0
  9 28  1  0
 10 29  1  0
 11 30  1  0
 14 31  1  0
 16 32  1  0
 17 33  1  0
 18 34  1  0
 19 35  1  0
M  END
>  <UniqueID>  (24) 
23

>  <SMILES>  (24) 
O=C(Cn1nnc(-c2cccs2)n1)Nc1ccccc1OC(F)(F)F

>  <Energy>  (24) 
102.09658109168979

>  <Genealogy>  (24) 
O=C(Cn1nnc(-c2cccs2)n1)Nc1ccccc1OC(F)(F)F (3D coordinates assigned)
O=C(Cn1nnc(-c2cccs2)n1)Nc1ccccc1OC(F)(F)F (optimized conformer: 102.09658109168979 kcal/mol)

>  <smiles>  (24) 
O=C(Cn1nnc(-c2cccs2)n1)Nc1ccccc1OC(F)(F)F

>  <score_type>  (24) 
oracle

>  <origin>  (24) 
adg

>  <m_score__min__energy>  (24) 
-7.75

>  <m_primary>  (24) 
energy

$$$$
24:0
     RDKit          3D

 30 32  0  0  0  0  0  0  0  0999 V2000
   -9.4480   21.7840  -30.8320 C   0  0  0  0  0  0  0  0  0  0  0  0
   -8.5890   20.8210  -31.5940 C   0  0  0  0  0  0  0  0  0  0  0  0
   -9.0570   19.6740  -32.1250 N   0  0  0  0  0  0  0  0  0  0  0  0
   -8.0040   19.1000  -32.7350 C   0  0  0  0  0  0  0  0  0  0  0  0
   -6.8950   19.9070  -32.5560 C   0  0  0  0  0  0  0  0  0  0  0  0
   -5.5290   19.5900  -33.0240 C   0  0  0  0  0  0  0  0  0  0  0  0
   -4.9850   18.3130  -33.1210 C   0  0  0  0  0  0  0  0  0  0  0  0
   -3.6490   18.3050  -33.5400 C   0  0  0  0  0  0  0  0  0  0  0  0
   -3.1260   19.5710  -33.7620 C   0  0  0  0  0  0  0  0  0  0  0  0
   -4.3280   20.6970  -33.4350 S   0  0  0  0  0  0  0  0  0  0  0  0
   -7.2680   20.9890  -31.8310 N   0  0  0  0  0  0  0  0  0  0  0  0
   -6.4800   22.1390  -31.4860 C   0  0  0  0  0  0  0  0  0  0  0  0
   -5.3310   21.9970  -30.6950 C   0  0  0  0  0  0  0  0  0  0  0  0
   -4.5720   23.1200  -30.3510 C   0  0  0  0  0  0  0  0  0  0  0  0
   -4.9590   24.3890  -30.7930 C   0  0  0  0  0  0  0  0  0  0  0  0
   -4.2210   25.4760  -30.4590 F   0  0  0  0  0  0  0  0  0  0  0  0
   -6.1070   24.5370  -31.5770 C   0  0  0  0  0  0  0  0  0  0  0  0
   -6.8690   23.4160  -31.9210 C   0  0  0  0  0  0  0  0  0  0  0  0
   -9.3071   21.6261  -29.7525 H   0  0  0  0  0  0  0  0  0  0  0  0
   -9.1634   22.8142  -31.0921 H   0  0  0  0  0  0  0  0  0  0  0  0
  -10.5039   21.6185  -31.0921 H   0  0  0  0  0  0  0  0  0  0  0  0
  -10.0320   19.3050  -32.0800 H   0  0  0  0  0  0  0  0  0  0  0  0
   -8.0221   18.1473  -33.2847 H   0  0  0  0  0  0  0  0  0  0  0  0
   -5.5501   17.3978  -32.8907 H   0  0  0  0  0  0  0  0  0  0  0  0
   -3.0682   17.3814  -33.6801 H   0  0  0  0  0  0  0  0  0  0  0  0
   -2.1022   19.7975  -34.0944 H   0  0  0  0  0  0  0  0  0  0  0  0
   -5.0260   21.0000  -30.3443 H   0  0  0  0  0  0  0  0  0  0  0  0
   -3.6698   23.0051  -29.7322 H   0  0  0  0  0  0  0  0  0  0  0  0
   -6.4111   25.5358  -31.9235 H   0  0  0  0  0  0  0  0  0  0  0  0
   -7.7749   23.5349  -32.5336 H   0  0  0  0  0  0  0  0  0  0  0  0
  1  2  1  0
  2  3  2  0
  3  4  1  0
  4  5  2  0
  5  6  1  0
  6  7  2  0
  7  8  1  0
  8  9  2  0
  9 10  1  0
  5 11  1  0
 11 12  1  0
 12 13  2  0
 13 14  1  0
 14 15  2  0
 15 16  1  0
 15 17  1  0
 17 18  2  0
 11  2  1  0
 18 12  1  0
 10  6  1  0
  1 19  1  0
  1 20  1  0
  1 21  1  0
  3 22  1  0
  4 23  1  0
  7 24  1  0
  8 25  1  0
  9 26  1  0
 13 27  1  0
 14 28  1  0
 17 29  1  0
 18 30  1  0
M  CHG  1   3   1
M  END
>  <UniqueID>  (25) 
24

>  <SMILES>  (25) 
Cc1[nH+]cc(-c2cccs2)n1-c1ccc(F)cc1

>  <Energy>  (25) 
96.11150016546897

>  <Genealogy>  (25) 
Cc1[nH+]cc(-c2cccs2)n1-c1ccc(F)cc1 (protonated)
Cc1[nH+]cc(-c2cccs2)n1-c1ccc(F)cc1 (3D coordinates assigned)
Cc1[nH+]cc(-c2cccs2)n1-c1ccc(F)cc1 (optimized conformer: 96.11150016546897 kcal/mol)

>  <smiles>  (25) 
Cc1ncc(-c2cccs2)n1-c1ccc(F)cc1

>  <score_type>  (25) 
oracle

>  <origin>  (25) 
adg

>  <m_score__min__energy>  (25) 
-6.0599999999999996

>  <m_primary>  (25) 
energy

$$$$
25:0
     RDKit          3D

 31 33  0  0  0  0  0  0  0  0999 V2000
   -2.2000   24.2710  -29.2300 C   0  0  0  0  0  0  0  0  0  0  0  0
   -3.1310   24.9260  -30.0850 O   0  0  0  0  0  0  0  0  0  0  0  0
   -4.3990   24.4210  -30.4140 C   0  0  0  0  0  0  0  0  0  0  0  0
   -5.5240   25.1560  -30.0260 C   0  0  0  0  0  0  0  0  0  0  0  0
   -6.8090   24.6960  -30.3160 C   0  0  0  0  0  0  0  0  0  0  0  0
   -6.9890   23.4950  -31.0080 C   0  0  0  0  0  0  0  0  0  0  0  0
   -8.2210   23.0650  -31.2560 O   0  0  0  0  0  0  0  0  0  0  0  0
   -8.4680   21.9300  -31.8990 C   0  0  0  0  0  0  0  0  0  0  0  0
   -9.6590   21.5750  -32.0990 O   0  0  0  0  0  0  0  0  0  0  0  0
   -7.4170   21.1330  -32.3560 C   0  0  0  0  0  0  0  0  0  0  0  0
   -6.0950   21.5420  -32.1390 C   0  0  0  0  0  0  0  0  0  0  0  0
   -4.9980   20.7050  -32.6750 C   0  0  0  0  0  0  0  0  0  0  0  0
   -3.8570   21.3020  -33.2370 C   0  0  0  0  0  0  0  0  0  0  0  0
   -2.8320   20.5080  -33.7590 C   0  0  0  0  0  0  0  0  0  0  0  0
   -2.9430   19.1150  -33.7330 C   0  0  0  0  0  0  0  0  0  0  0  0
   -4.0800   18.5140  -33.1880 C   0  0  0  0  0  0  0  0  0  0  0  0
   -5.1080   19.3040  -32.6640 C   0  0  0  0  0  0  0  0  0  0  0  0
   -5.8650   22.7460  -31.4320 C   0  0  0  0  0  0  0  0  0  0  0  0
   -4.5720   23.2100  -31.1130 C   0  0  0  0  0  0  0  0  0  0  0  0
   -2.4696   24.4607  -28.1806 H   0  0  0  0  0  0  0  0  0  0  0  0
   -2.2223   23.1885  -29.4244 H   0  0  0  0  0  0  0  0  0  0  0  0
   -1.1887   24.6577  -29.4244 H   0  0  0  0  0  0  0  0  0  0  0  0
   -5.3944   26.1061  -29.4869 H   0  0  0  0  0  0  0  0  0  0  0  0
   -7.6846   25.2813  -29.9985 H   0  0  0  0  0  0  0  0  0  0  0  0
   -7.6256   20.1902  -32.8829 H   0  0  0  0  0  0  0  0  0  0  0  0
   -3.7701   22.3982  -33.2663 H   0  0  0  0  0  0  0  0  0  0  0  0
   -1.9371   20.9799  -34.1907 H   0  0  0  0  0  0  0  0  0  0  0  0
   -2.1343   18.4915  -34.1420 H   0  0  0  0  0  0  0  0  0  0  0  0
   -4.1669   17.4176  -33.1710 H   0  0  0  0  0  0  0  0  0  0  0  0
   -6.0052   18.8275  -32.2421 H   0  0  0  0  0  0  0  0  0  0  0  0
   -3.6918   22.6220  -31.4122 H   0  0  0  0  0  0  0  0  0  0  0  0
  1  2  1  0
  2  3  1  0
  3  4  2  0
  4  5  1  0
  5  6  2  0
  6  7  1  0
  7  8  1  0
  8  9  2  0
  8 10  1  0
 10 11  2  0
 11 12  1  0
 12 13  2  0
 13 14  1  0
 14 15  2  0
 15 16  1  0
 16 17  2  0
 11 18  1  0
 18 19  2  0
 19  3  1  0
 18  6  1  0
 17 12  1  0
  1 20  1  0
  1 21  1  0
  1 22  1  0
  4 23  1  0
  5 24  1  0
 10 25  1  0
 13 26  1  0
 14 27  1  0
 15 28  1  0
 16 29  1  0
 17 30  1  0
 19 31  1  0
M  END
>  <UniqueID>  (26) 
25

>  <SMILES>  (26) 
COc1ccc2oc(=O)cc(-c3ccccc3)c2c1

>  <Energy>  (26) 
45.579762875684146

>  <Genealogy>  (26) 
COc1ccc2oc(=O)cc(-c3ccccc3)c2c1 (3D coordinates assigned)
COc1ccc2oc(=O)cc(-c3ccccc3)c2c1 (optimized conformer: 45.579762875684146 kcal/mol)

>  <smiles>  (26) 
COc1ccc2oc(=O)cc(-c3ccccc3)c2c1

>  <score_type>  (26) 
oracle

>  <origin>  (26) 
adg

>  <m_score__min__energy>  (26) 
-7.46

>  <m_primary>  (26) 
energy

$$$$
26:0
     RDKit          3D

 39 40  0  0  0  0  0  0  0  0999 V2000
   -6.2050   16.7890  -33.7580 C   0  0  0  0  0  0  0  0  0  0  0  0
   -6.8630   18.0280  -33.2280 C   0  0  0  0  0  0  0  0  0  0  0  0
   -6.3600   19.2950  -33.5640 C   0  0  0  0  0  0  0  0  0  0  0  0
   -6.9510   20.4490  -33.0420 C   0  0  0  0  0  0  0  0  0  0  0  0
   -8.0430   20.3520  -32.1660 C   0  0  0  0  0  0  0  0  0  0  0  0
   -8.6790   21.5990  -31.6140 C   0  0  0  0  0  0  0  0  0  0  0  0
   -7.6360   22.3310  -30.3010 S   0  0  0  0  0  0  0  0  0  0  0  0
   -7.2720   23.9100  -31.1540 C   0  0  0  0  0  0  0  0  0  0  0  0
   -6.6730   24.9400  -30.1920 C   0  0  0  0  0  0  0  0  0  0  0  0
   -5.6340   24.3390  -29.3570 N   0  0  0  0  0  0  0  0  0  0  0  0
   -4.2330   24.5300  -29.6100 C   0  0  0  0  0  0  0  0  0  0  0  0
   -3.8600   25.2530  -30.5730 O   0  0  0  0  0  0  0  0  0  0  0  0
   -3.2210   23.9010  -28.7320 C   0  0  0  0  0  0  0  0  0  0  0  0
   -2.8120   24.5710  -27.5650 C   0  0  0  0  0  0  0  0  0  0  0  0
   -1.8440   24.0130  -26.7250 C   0  0  0  0  0  0  0  0  0  0  0  0
   -1.2740   22.7790  -27.0390 C   0  0  0  0  0  0  0  0  0  0  0  0
   -1.6720   22.0990  -28.1920 C   0  0  0  0  0  0  0  0  0  0  0  0
   -2.6410   22.6490  -29.0420 C   0  0  0  0  0  0  0  0  0  0  0  0
   -3.1790   21.6100  -30.5640 Br  0  0  0  0  0  0  0  0  0  0  0  0
   -8.5320   19.0850  -31.8140 C   0  0  0  0  0  0  0  0  0  0  0  0
   -7.9420   17.9300  -32.3370 C   0  0  0  0  0  0  0  0  0  0  0  0
   -5.8722   16.1624  -32.9174 H   0  0  0  0  0  0  0  0  0  0  0  0
   -6.9233   16.2267  -34.3727 H   0  0  0  0  0  0  0  0  0  0  0  0
   -5.3368   17.0692  -34.3727 H   0  0  0  0  0  0  0  0  0  0  0  0
   -5.4971   19.3798  -34.2409 H   0  0  0  0  0  0  0  0  0  0  0  0
   -6.5581   21.4383  -33.3193 H   0  0  0  0  0  0  0  0  0  0  0  0
   -8.8035   22.3306  -32.4260 H   0  0  0  0  0  0  0  0  0  0  0  0
   -9.6565   21.3363  -31.1834 H   0  0  0  0  0  0  0  0  0  0  0  0
   -6.5556   23.7207  -31.9670 H   0  0  0  0  0  0  0  0  0  0  0  0
   -8.2149   24.3144  -31.5507 H   0  0  0  0  0  0  0  0  0  0  0  0
   -6.2339   25.7631  -30.7749 H   0  0  0  0  0  0  0  0  0  0  0  0
   -7.4742   25.3139  -29.5375 H   0  0  0  0  0  0  0  0  0  0  0  0
   -5.9350   23.7510  -28.5480 H   0  0  0  0  0  0  0  0  0  0  0  0
   -3.2583   25.5437  -27.3108 H   0  0  0  0  0  0  0  0  0  0  0  0
   -1.5315   24.5473  -25.8157 H   0  0  0  0  0  0  0  0  0  0  0  0
   -0.5110   22.3416  -26.3783 H   0  0  0  0  0  0  0  0  0  0  0  0
   -1.2219   21.1251  -28.4347 H   0  0  0  0  0  0  0  0  0  0  0  0
   -9.3837   18.9997  -31.1232 H   0  0  0  0  0  0  0  0  0  0  0  0
   -8.3257   16.9403  -32.0484 H   0  0  0  0  0  0  0  0  0  0  0  0
  1  2  1  0
  2  3  2  0
  3  4  1  0
  4  5  2  0
  5  6  1  0
  6  7  1  0
  7  8  1  0
  8  9  1  0
  9 10  1  0
 10 11  1  0
 11 12  2  0
 11 13  1  0
 13 14  2  0
 14 15  1  0
 15 16  2  0
 16 17  1  0
 17 18  2  0
 18 19  1  0
  5 20  1  0
 20 21  2  0
 21  2  1  0
 18 13  1  0
  1 22  1  0
  1 23  1  0
  1 24  1  0
  3 25  1  0
  4 26  1  0
  6 27  1  0
  6 28  1  0
  8 29  1  0
  8 30  1  0
  9 31  1  0
  9 32  1  0
 10 33  1  0
 14 34  1  0
 15 35  1  0
 16 36  1  0
 17 37  1  0
 20 38  1  0
 21 39  1  0
M  END
>  <UniqueID>  (27) 
26

>  <SMILES>  (27) 
Cc1ccc(CSCCNC(=O)c2ccccc2Br)cc1

>  <Energy>  (27) 
36.93776221342522

>  <Genealogy>  (27) 
Cc1ccc(CSCCNC(=O)c2ccccc2Br)cc1 (3D coordinates assigned)
Cc1ccc(CSCCNC(=O)c2ccccc2Br)cc1 (optimized conformer: 36.93776221342522 kcal/mol)

>  <smiles>  (27) 
Cc1ccc(CSCCNC(=O)c2ccccc2Br)cc1

>  <score_type>  (27) 
oracle

>  <origin>  (27) 
adg

>  <m_score__min__energy>  (27) 
-8.7799999999999994

>  <m_primary>  (27) 
energy

$$$$
27:0
     RDKit          3D

 51 54  0  0  0  0  0  0  0  0999 V2000
   -1.5220   20.3130  -34.2620 C   0  0  0  0  0  0  0  0  0  0  0  0
   -1.1740   20.6870  -32.8520 C   0  0  0  0  0  0  0  0  0  0  0  0
   -0.0350   20.1430  -32.2410 C   0  0  0  0  0  0  0  0  0  0  0  0
    0.2660   20.4500  -30.9120 C   0  0  0  0  0  0  0  0  0  0  0  0
   -0.5690   21.2970  -30.1780 C   0  0  0  0  0  0  0  0  0  0  0  0
   -0.2780   21.5640  -28.8780 N   0  0  0  0  0  0  0  0  0  0  0  0
   -1.0650   22.3630  -28.1110 C   0  0  0  0  0  0  0  0  0  0  0  0
   -0.7040   22.6110  -26.6820 C   0  0  0  0  0  0  0  0  0  0  0  0
   -2.2160   22.9400  -28.6590 C   0  0  0  0  0  0  0  0  0  0  0  0
   -2.5450   22.7100  -30.0020 C   0  0  0  0  0  0  0  0  0  0  0  0
   -3.7580   23.3600  -30.5420 C   0  0  0  0  0  0  0  0  0  0  0  0
   -3.8780   24.6950  -30.6730 N   0  0  0  0  0  0  0  0  0  0  0  0
   -5.0600   24.9250  -31.2280 N   0  0  0  0  0  0  0  0  0  0  0  0
   -5.6490   23.7280  -31.4220 C   0  0  0  0  0  0  0  0  0  0  0  0
   -6.9750   23.5500  -32.1110 C   0  0  0  0  0  0  0  0  0  0  0  0
   -8.0270   22.8590  -31.2270 C   0  0  0  0  0  0  0  0  0  0  0  0
   -8.9440   21.8940  -32.0010 C   0  0  0  0  0  0  0  0  0  0  0  0
   -8.2920   20.5640  -32.2760 C   0  0  0  0  0  0  0  0  0  0  0  0
   -7.2550   20.4550  -33.2200 C   0  0  0  0  0  0  0  0  0  0  0  0
   -6.6580   19.2150  -33.4700 C   0  0  0  0  0  0  0  0  0  0  0  0
   -7.0800   18.0810  -32.7750 C   0  0  0  0  0  0  0  0  0  0  0  0
   -8.1090   18.1790  -31.8350 C   0  0  0  0  0  0  0  0  0  0  0  0
   -8.7170   19.4120  -31.5890 C   0  0  0  0  0  0  0  0  0  0  0  0
   -4.8430   22.7190  -31.0290 N   0  0  0  0  0  0  0  0  0  0  0  0
   -5.0660   21.2820  -31.1920 C   0  0  0  0  0  0  0  0  0  0  0  0
   -1.7220   21.8580  -30.7780 C   0  0  0  0  0  0  0  0  0  0  0  0
   -2.0230   21.5240  -32.1140 C   0  0  0  0  0  0  0  0  0  0  0  0
   -2.2713   19.5077  -34.2535 H   0  0  0  0  0  0  0  0  0  0  0  0
   -1.9325   21.1903  -34.7834 H   0  0  0  0  0  0  0  0  0  0  0  0
   -0.6174   19.9667  -34.7834 H   0  0  0  0  0  0  0  0  0  0  0  0
    0.6242   19.4716  -32.8108 H   0  0  0  0  0  0  0  0  0  0  0  0
    1.1639   20.0234  -30.4411 H   0  0  0  0  0  0  0  0  0  0  0  0
   -1.4327   22.1104  -26.0275 H   0  0  0  0  0  0  0  0  0  0  0  0
    0.3018   22.2123  -26.4834 H   0  0  0  0  0  0  0  0  0  0  0  0
   -0.7154   23.6929  -26.4834 H   0  0  0  0  0  0  0  0  0  0  0  0
   -2.8630   23.5745  -28.0355 H   0  0  0  0  0  0  0  0  0  0  0  0
   -7.3559   24.5411  -32.3984 H   0  0  0  0  0  0  0  0  0  0  0  0
   -6.8060   22.9040  -32.9851 H   0  0  0  0  0  0  0  0  0  0  0  0
   -7.5040   22.2896  -30.4445 H   0  0  0  0  0  0  0  0  0  0  0  0
   -8.6684   23.6497  -30.8106 H   0  0  0  0  0  0  0  0  0  0  0  0
   -9.8548   21.7231  -31.4083 H   0  0  0  0  0  0  0  0  0  0  0  0
   -9.1704   22.3591  -32.9718 H   0  0  0  0  0  0  0  0  0  0  0  0
   -6.9124   21.3479  -33.7635 H   0  0  0  0  0  0  0  0  0  0  0  0
   -5.8539   19.1336  -34.2162 H   0  0  0  0  0  0  0  0  0  0  0  0
   -6.6021   17.1091  -32.9674 H   0  0  0  0  0  0  0  0  0  0  0  0
   -8.4406   17.2841  -31.2881 H   0  0  0  0  0  0  0  0  0  0  0  0
   -9.5325   19.4829  -30.8542 H   0  0  0  0  0  0  0  0  0  0  0  0
   -5.1396   20.8078  -30.2022 H   0  0  0  0  0  0  0  0  0  0  0  0
   -6.0005   21.1167  -31.7482 H   0  0  0  0  0  0  0  0  0  0  0  0
   -4.2255   20.8413  -31.7482 H   0  0  0  0  0  0  0  0  0  0  0  0
   -2.9340   21.9244  -32.5828 H   0  0  0  0  0  0  0  0  0  0  0  0
  1  2  1  0
  2  3  2  0
  3  4  1  0
  4  5  2  0
  5  6  1  0
  6  7  2  0
  7  8  1  0
  7  9  1  0
  9 10  2  0
 10 11  1  0
 11 12  2  0
 12 13  1  0
 13 14  2  0
 14 15  1  0
 15 16  1  0
 16 17  1  0
 17 18  1  0
 18 19  2  0
 19 20  1  0
 20 21  2  0
 21 22  1  0
 22 23  2  0
 14 24  1  0
 24 25  1  0
 10 26  1  0
 26 27  2  0
 27  2  1  0
 26  5  1  0
 24 11  1  0
 23 18  1  0
  1 28  1  0
  1 29  1  0
  1 30  1  0
  3 31  1  0
  4 32  1  0
  8 33  1  0
  8 34  1  0
  8 35  1  0
  9 36  1  0
 15 37  1  0
 15 38  1  0
 16 39  1  0
 16 40  1  0
 17 41  1  0
 17 42  1  0
 19 43  1  0
 20 44  1  0
 21 45  1  0
 22 46  1  0
 23 47  1  0
 25 48  1  0
 25 49  1  0
 25 50  1  0
 27 51  1  0
M  END
>  <UniqueID>  (28) 
27

>  <SMILES>  (28) 
Cc1ccc2nc(C)cc(-c3nnc(CCCc4ccccc4)n3C)c2c1

>  <Energy>  (28) 
90.93588922861167

>  <Genealogy>  (28) 
Cc1ccc2nc(C)cc(-c3nnc(CCCc4ccccc4)n3C)c2c1 (3D coordinates assigned)
Cc1ccc2nc(C)cc(-c3nnc(CCCc4ccccc4)n3C)c2c1 (optimized conformer: 90.93588922861167 kcal/mol)

>  <smiles>  (28) 
Cc1ccc2nc(C)cc(-c3nnc(CCCc4ccccc4)n3C)c2c1

>  <score_type>  (28) 
oracle

>  <origin>  (28) 
adg

>  <m_score__min__energy>  (28) 
-10.140000000000001

>  <m_primary>  (28) 
energy

$$$$
28:0
     RDKit          3D

 58 57  0  0  0  0  0  0  0  0999 V2000
   -7.5321   20.4086  -34.1536 H   0  0  0  0  0  0  0  0  0  0  0  0
   -7.3080   20.3240  -33.0800 C   0  0  0  0  0  0  0  0  0  0  0  0
   -8.3260   20.1320  -32.2220 C   0  0  0  0  0  0  0  0  0  0  0  0
   -9.3590   21.6050  -31.5370 Br  0  0  0  0  0  0  0  0  0  0  0  0
   -8.7120   18.7390  -31.7950 C   0  0  0  0  0  0  0  0  0  0  0  0
   -8.9590   18.7479  -30.7231 H   0  0  0  0  0  0  0  0  0  0  0  0
   -9.5800   18.4203  -32.3908 H   0  0  0  0  0  0  0  0  0  0  0  0
   -7.5730   17.7520  -32.0350 C   0  0  0  0  0  0  0  0  0  0  0  0
   -7.1761   17.4081  -31.0685 H   0  0  0  0  0  0  0  0  0  0  0  0
   -7.9491   16.8895  -32.6048 H   0  0  0  0  0  0  0  0  0  0  0  0
   -6.7728   18.2470  -32.6048 H   0  0  0  0  0  0  0  0  0  0  0  0
   -5.8730   20.4280  -32.6310 C   0  0  0  0  0  0  0  0  0  0  0  0
   -5.2368   19.8411  -33.3099 H   0  0  0  0  0  0  0  0  0  0  0  0
   -5.7895   20.0383  -31.6057 H   0  0  0  0  0  0  0  0  0  0  0  0
   -5.4310   21.8420  -32.6470 N   0  0  0  0  0  0  0  0  0  0  0  0
   -5.8120   22.5260  -31.3890 C   0  0  0  0  0  0  0  0  0  0  0  0
   -6.4662   21.8639  -30.8028 H   0  0  0  0  0  0  0  0  0  0  0  0
   -4.8972   22.7596  -30.8246 H   0  0  0  0  0  0  0  0  0  0  0  0
   -6.5550   23.8350  -31.6820 C   0  0  0  0  0  0  0  0  0  0  0  0
   -5.9789   24.4195  -32.4144 H   0  0  0  0  0  0  0  0  0  0  0  0
   -7.5506   23.5912  -32.0811 H   0  0  0  0  0  0  0  0  0  0  0  0
   -6.7230   24.6300  -30.4580 C   0  0  0  0  0  0  0  0  0  0  0  0
   -6.8560   25.2580  -29.4940 N   0  0  0  0  0  0  0  0  0  0  0  0
   -3.9730   21.9360  -32.8910 C   0  0  0  0  0  0  0  0  0  0  0  0
   -3.6716   22.9939  -32.8941 H   0  0  0  0  0  0  0  0  0  0  0  0
   -3.7393   21.4788  -33.8638 H   0  0  0  0  0  0  0  0  0  0  0  0
   -3.2070   21.1920  -31.7870 C   0  0  0  0  0  0  0  0  0  0  0  0
   -2.4530   20.5444  -32.2582 H   0  0  0  0  0  0  0  0  0  0  0  0
   -3.9413   20.6116  -31.2092 H   0  0  0  0  0  0  0  0  0  0  0  0
   -2.4970   22.1400  -30.8100 C   0  0  0  0  0  0  0  0  0  0  0  0
   -2.4828   23.1494  -31.2468 H   0  0  0  0  0  0  0  0  0  0  0  0
   -1.4804   21.7515  -30.6499 H   0  0  0  0  0  0  0  0  0  0  0  0
   -3.1880   22.2070  -29.4420 C   0  0  0  0  0  0  0  0  0  0  0  0
   -2.4464   22.0189  -28.6517 H   0  0  0  0  0  0  0  0  0  0  0  0
   -3.9810   21.4456  -29.4049 H   0  0  0  0  0  0  0  0  0  0  0  0
   -3.7850   23.5230  -29.2380 N   0  0  0  0  0  0  0  0  0  0  0  0
   -3.2630   24.7270  -29.8130 C   0  0  0  0  0  0  0  0  0  0  0  0
   -3.8700   25.2960  -30.7590 O   0  0  0  0  0  0  0  0  0  0  0  0
   -2.0430   25.2870  -29.3290 N   0  0  0  0  0  0  0  0  0  0  0  0
   -1.6040   25.1550  -27.9460 C   0  0  0  0  0  0  0  0  0  0  0  0
   -2.4832   25.0389  -27.2952 H   0  0  0  0  0  0  0  0  0  0  0  0
   -1.0417   26.0562  -27.6602 H   0  0  0  0  0  0  0  0  0  0  0  0
   -0.6970   23.9310  -27.7940 C   0  0  0  0  0  0  0  0  0  0  0  0
    0.2752   24.2555  -27.3945 H   0  0  0  0  0  0  0  0  0  0  0  0
   -0.5818   23.4655  -28.7840 H   0  0  0  0  0  0  0  0  0  0  0  0
   -1.3010   22.8900  -26.8450 C   0  0  0  0  0  0  0  0  0  0  0  0
   -2.3654   22.7535  -27.0866 H   0  0  0  0  0  0  0  0  0  0  0  0
   -1.1913   23.2445  -25.8095 H   0  0  0  0  0  0  0  0  0  0  0  0
   -0.5910   21.5810  -26.9880 C   0  0  0  0  0  0  0  0  0  0  0  0
    0.5770   21.5510  -27.4650 O   0  0  0  0  0  0  0  0  0  0  0  0
   -1.2140   20.4080  -26.5440 O   0  0  0  0  0  0  0  0  0  0  0  0
   -2.4540   19.9330  -27.0670 C   0  0  0  0  0  0  0  0  0  0  0  0
   -2.2752   19.4510  -28.0395 H   0  0  0  0  0  0  0  0  0  0  0  0
   -3.1389   20.7856  -27.1849 H   0  0  0  0  0  0  0  0  0  0  0  0
   -3.0860   18.9230  -26.1160 C   0  0  0  0  0  0  0  0  0  0  0  0
   -2.8948   19.2285  -25.0767 H   0  0  0  0  0  0  0  0  0  0  0  0
   -4.1710   18.8823  -26.2925 H   0  0  0  0  0  0  0  0  0  0  0  0
   -2.6482   17.9294  -26.2925 H   0  0  0  0  0  0  0  0  0  0  0  0
  1  2  1  0
  2  3  2  0
  3  4  1  0
  3  5  1  0
  5  6  1  0
  5  7  1  0
  5  8  1  0
  8  9  1  0
  8 10  1  0
  8 11  1  0
  2 12  1  0
 12 13  1  0
 12 14  1  0
 12 15  1  0
 15 16  1  0
 16 17  1  0
 16 18  1  0
 16 19  1  0
 19 20  1  0
 19 21  1  0
 19 22  1  0
 22 23  3  0
 15 24  1  0
 24 25  1  0
 24 26  1  0
 24 27  1  0
 27 28  1  0
 27 29  1  0
 27 30  1  0
 30 31  1  0
 30 32  1  0
 30 33  1  0
 33 34  1  0
 33 35  1  0
 33 36  1  0
 36 37  1  0
 37 38  2  0
 37 39  1  0
 39 40  1  0
 40 41  1  0
 40 42  1  0
 40 43  1  0
 43 44  1  0
 43 45  1  0
 43 46  1  0
 46 47  1  0
 46 48  1  0
 46 49  1  0
 49 50  2  0
 49 51  1  0
 51 52  1  0
 52 53  1  0
 52 54  1  0
 52 55  1  0
 55 56  1  0
 55 57  1  0
 55 58  1  0
M  CHG  2  36  -1  39  -1
M  END
>  <UniqueID>  (29) 
28

>  <SMILES>  (29) 
CCOC(=O)CCC[N-]C(=O)[N-]CCCCN(C/C=C(\Br)CC)CCC#N

>  <Energy>  (29) 
27.72587277791541

>  <Genealogy>  (29) 
CCOC(=O)CCC[N-]C(=O)[N-]CCCCN(CC=C(Br)CC)CCC#N (protonated)
CCOC(=O)CCC[N-]C(=O)[N-]CCCCN(C/C=C(\Br)CC)CCC#N (cis-trans isomerization)
CCOC(=O)CCC[N-]C(=O)[N-]CCCCN(C/C=C(\Br)CC)CCC#N (3D coordinates assigned)
CCOC(=O)CCC[N-]C(=O)[N-]CCCCN(C/C=C(\Br)CC)CCC#N (optimized conformer: 27.72587277791541 kcal/mol)

>  <smiles>  (29) 
CCOC(=O)CCCNC(=O)NCCCCN(CC=C(Br)CC)CCC#N

>  <score_type>  (29) 
oracle

>  <origin>  (29) 
adg

>  <m_score__min__energy>  (29) 
-10.210000000000001

>  <m_primary>  (29) 
energy

$$$$
29:0
     RDKit          3D

 64 67  0  0  0  0  0  0  0  0999 V2000
   -2.4270   24.4200  -28.9130 C   0  0  0  0  0  0  0  0  0  0  0  0
   -3.2080   24.8660  -30.0150 O   0  0  0  0  0  0  0  0  0  0  0  0
   -4.5090   24.4220  -30.3000 C   0  0  0  0  0  0  0  0  0  0  0  0
   -5.6450   25.0240  -29.7200 C   0  0  0  0  0  0  0  0  0  0  0  0
   -6.9250   24.5490  -30.0190 C   0  0  0  0  0  0  0  0  0  0  0  0
   -7.0910   23.4750  -30.8970 C   0  0  0  0  0  0  0  0  0  0  0  0
   -5.9740   22.8710  -31.4800 C   0  0  0  0  0  0  0  0  0  0  0  0
   -4.6800   23.3410  -31.1910 C   0  0  0  0  0  0  0  0  0  0  0  0
   -3.4800   22.6600  -31.8070 C   0  0  0  0  0  0  0  0  0  0  0  0
   -3.0950   21.4670  -31.0220 N   0  0  0  0  0  0  0  0  0  0  0  0
   -1.6350   21.4030  -30.7990 C   0  0  0  0  0  0  0  0  0  0  0  0
   -0.8080   21.1520  -32.0730 C   0  0  0  0  0  0  0  0  0  0  0  0
   -0.5250   19.6700  -32.4100 C   0  0  0  0  0  0  0  0  0  0  0  0
   -1.7560   18.8570  -32.5970 N   0  0  2  0  0  0  0  0  0  0  0  0
   -1.5400   17.8880  -33.7000 C   0  0  0  0  0  0  0  0  0  0  0  0
   -2.3480   16.6220  -33.5160 C   0  0  0  0  0  0  0  0  0  0  0  0
   -1.7100   15.3740  -33.4460 C   0  0  0  0  0  0  0  0  0  0  0  0
   -2.4620   14.2090  -33.2850 C   0  0  0  0  0  0  0  0  0  0  0  0
   -3.8520   14.2800  -33.1810 C   0  0  0  0  0  0  0  0  0  0  0  0
   -4.5070   15.5160  -33.2350 C   0  0  0  0  0  0  0  0  0  0  0  0
   -5.9020   15.5340  -33.1030 O   0  0  0  0  0  0  0  0  0  0  0  0
   -6.7900   16.2310  -33.9740 C   0  0  0  0  0  0  0  0  0  0  0  0
   -7.0130   17.6150  -33.4400 C   0  0  0  0  0  0  0  0  0  0  0  0
   -7.8850   17.8260  -32.3580 C   0  0  0  0  0  0  0  0  0  0  0  0
   -8.0440   19.1080  -31.8230 C   0  0  0  0  0  0  0  0  0  0  0  0
   -7.3370   20.1870  -32.3640 C   0  0  0  0  0  0  0  0  0  0  0  0
   -6.4640   19.9840  -33.4350 C   0  0  0  0  0  0  0  0  0  0  0  0
   -6.2900   18.7000  -33.9650 C   0  0  0  0  0  0  0  0  0  0  0  0
   -3.7470   16.6890  -33.4090 C   0  0  0  0  0  0  0  0  0  0  0  0
   -3.0070   19.6570  -32.8250 C   0  0  0  0  0  0  0  0  0  0  0  0
   -3.7090   20.2350  -31.5710 C   0  0  0  0  0  0  0  0  0  0  0  0
   -2.9234   24.7035  -27.9732 H   0  0  0  0  0  0  0  0  0  0  0  0
   -2.3222   23.3259  -28.9568 H   0  0  0  0  0  0  0  0  0  0  0  0
   -1.4314   24.8857  -28.9568 H   0  0  0  0  0  0  0  0  0  0  0  0
   -5.5230   25.8713  -29.0291 H   0  0  0  0  0  0  0  0  0  0  0  0
   -7.8057   25.0229  -29.5610 H   0  0  0  0  0  0  0  0  0  0  0  0
   -8.1006   23.1051  -31.1292 H   0  0  0  0  0  0  0  0  0  0  0  0
   -6.1072   22.0236  -32.1685 H   0  0  0  0  0  0  0  0  0  0  0  0
   -3.7272   22.3522  -32.8337 H   0  0  0  0  0  0  0  0  0  0  0  0
   -2.6369   23.3665  -31.8126 H   0  0  0  0  0  0  0  0  0  0  0  0
   -1.3115   22.3590  -30.3615 H   0  0  0  0  0  0  0  0  0  0  0  0
   -1.4561   20.5451  -30.1342 H   0  0  0  0  0  0  0  0  0  0  0  0
   -1.3523   21.5930  -32.9211 H   0  0  0  0  0  0  0  0  0  0  0  0
    0.1750   21.6090  -31.8861 H   0  0  0  0  0  0  0  0  0  0  0  0
    0.0624   19.6306  -33.3392 H   0  0  0  0  0  0  0  0  0  0  0  0
    0.0175   19.2422  -31.5540 H   0  0  0  0  0  0  0  0  0  0  0  0
   -1.8810   18.2890  -31.7260 H   0  0  0  0  0  0  0  0  0  0  0  0
   -1.8334   18.3605  -34.6490 H   0  0  0  0  0  0  0  0  0  0  0  0
   -0.4754   17.6114  -33.7024 H   0  0  0  0  0  0  0  0  0  0  0  0
   -0.6140   15.3136  -33.5182 H   0  0  0  0  0  0  0  0  0  0  0  0
   -1.9577   13.2324  -33.2400 H   0  0  0  0  0  0  0  0  0  0  0  0
   -4.4375   13.3573  -33.0556 H   0  0  0  0  0  0  0  0  0  0  0  0
   -6.3486   16.2906  -34.9798 H   0  0  0  0  0  0  0  0  0  0  0  0
   -7.7495   15.6962  -34.0315 H   0  0  0  0  0  0  0  0  0  0  0  0
   -8.4439   16.9803  -31.9310 H   0  0  0  0  0  0  0  0  0  0  0  0
   -8.7263   19.2684  -30.9752 H   0  0  0  0  0  0  0  0  0  0  0  0
   -7.4687   21.1958  -31.9457 H   0  0  0  0  0  0  0  0  0  0  0  0
   -5.9124   20.8342  -33.8627 H   0  0  0  0  0  0  0  0  0  0  0  0
   -5.5856   18.5398  -34.7945 H   0  0  0  0  0  0  0  0  0  0  0  0
   -4.2526   17.6645  -33.4615 H   0  0  0  0  0  0  0  0  0  0  0  0
   -2.7461   20.5023  -33.4787 H   0  0  0  0  0  0  0  0  0  0  0  0
   -3.7277   18.9452  -33.2539 H   0  0  0  0  0  0  0  0  0  0  0  0
   -4.7515   20.4630  -31.8380 H   0  0  0  0  0  0  0  0  0  0  0  0
   -3.6168   19.4694  -30.7865 H   0  0  0  0  0  0  0  0  0  0  0  0
  1  2  1  0
  2  3  1  0
  3  4  2  0
  4  5  1  0
  5  6  2  0
  6  7  1  0
  7  8  2  0
  8  9  1  0
  9 10  1  0
 10 11  1  0
 11 12  1  0
 12 13  1  0
 13 14  1  0
 14 15  1  0
 15 16  1  0
 16 17  2  0
 17 18  1  0
 18 19  2  0
 19 20  1  0
 20 21  1  0
 21 22  1  0
 22 23  1  0
 23 24  2  0
 24 25  1  0
 25 26  2  0
 26 27  1  0
 27 28  2  0
 20 29  2  0
 14 30  1  0
 30 31  1  0
  8  3  1  0
 31 10  1  0
 29 16  1  0
 28 23  1  0
  1 32  1  0
  1 33  1  0
  1 34  1  0
  4 35  1  0
  5 36  1  0
  6 37  1  0
  7 38  1  0
  9 39  1  0
  9 40  1  0
 11 41  1  0
 11 42  1  0
 12 43  1  0
 12 44  1  0
 13 45  1  0
 13 46  1  0
 14 47  1  1
 15 48  1  0
 15 49  1  0
 17 50  1  0
 18 51  1  0
 19 52  1  0
 22 53  1  0
 22 54  1  0
 24 55  1  0
 25 56  1  0
 26 57  1  0
 27 58  1  0
 28 59  1  0
 29 60  1  0
 30 61  1  0
 30 62  1  0
 31 63  1  0
 31 64  1  0
M  CHG  1  14   1
M  END
>  <UniqueID>  (30) 
29

>  <SMILES>  (30) 
COc1ccccc1CN1CCC[N@H+](Cc2cccc(OCc3ccccc3)c2)CC1

>  <Energy>  (30) 
89.23636717953626

>  <Genealogy>  (30) 
COc1ccccc1CN1CCC[NH+](Cc2cccc(OCc3ccccc3)c2)CC1 (protonated)
COc1ccccc1CN1CCC[N@H+](Cc2cccc(OCc3ccccc3)c2)CC1 (chirality)
COc1ccccc1CN1CCC[N@H+](Cc2cccc(OCc3ccccc3)c2)CC1 (3D coordinates assigned)
COc1ccccc1CN1CCC[N@H+](Cc2cccc(OCc3ccccc3)c2)CC1 (nonaromatic ring conformer: 89.23636717953626 kcal/mol)

>  <smiles>  (30) 
COc1ccccc1CN1CCCN(Cc2cccc(OCc3ccccc3)c2)CC1

>  <score_type>  (30) 
oracle

>  <origin>  (30) 
adg

>  <m_score__min__energy>  (30) 
-7.0700000000000003

>  <m_primary>  (30) 
energy

$$$$
30:0
     RDKit          3D

 46 49  0  0  0  0  0  0  0  0999 V2000
   -1.4000   24.7070  -26.8900 C   0  0  0  0  0  0  0  0  0  0  0  0
   -1.1230   24.4680  -28.2370 C   0  0  0  0  0  0  0  0  0  0  0  0
   -2.1660   24.2680  -29.1470 C   0  0  0  0  0  0  0  0  0  0  0  0
   -3.5050   24.3060  -28.7120 C   0  0  0  0  0  0  0  0  0  0  0  0
   -4.6340   24.0980  -29.6510 C   0  0  0  0  0  0  0  0  0  0  0  0
   -5.7180   23.3300  -29.4070 N   0  0  0  0  0  0  0  0  0  0  0  0
   -6.4620   23.4360  -30.5210 C   0  0  0  0  0  0  0  0  0  0  0  0
   -7.7550   22.7180  -30.7570 C   0  0  0  0  0  0  0  0  0  0  0  0
   -7.5020   21.3880  -31.3450 N   0  0  0  0  0  0  0  0  0  0  0  0
   -6.9000   21.5230  -32.6930 C   0  0  0  0  0  0  0  0  0  0  0  0
   -7.0080   20.2320  -33.5340 C   0  0  0  0  0  0  0  0  0  0  0  0
   -7.2590   19.0670  -32.6750 N   0  0  0  0  0  0  0  0  0  0  0  0
   -6.4930   17.8560  -32.8280 C   0  0  0  0  0  0  0  0  0  0  0  0
   -6.1010   17.4180  -34.1050 C   0  0  0  0  0  0  0  0  0  0  0  0
   -5.3460   16.2500  -34.2510 C   0  0  0  0  0  0  0  0  0  0  0  0
   -4.9720   15.5120  -33.1260 C   0  0  0  0  0  0  0  0  0  0  0  0
   -5.3490   15.9430  -31.8510 C   0  0  0  0  0  0  0  0  0  0  0  0
   -6.1020   17.1110  -31.7000 C   0  0  0  0  0  0  0  0  0  0  0  0
   -8.3630   19.1250  -31.7080 C   0  0  0  0  0  0  0  0  0  0  0  0
   -8.7340   20.5780  -31.3950 C   0  0  0  0  0  0  0  0  0  0  0  0
   -5.8080   24.2570  -31.4140 C   0  0  0  0  0  0  0  0  0  0  0  0
   -4.6910   24.6480  -30.8460 O   0  0  0  0  0  0  0  0  0  0  0  0
   -3.7720   24.5470  -27.3520 C   0  0  0  0  0  0  0  0  0  0  0  0
   -2.7240   24.7460  -26.4480 C   0  0  0  0  0  0  0  0  0  0  0  0
   -0.5766   24.8644  -26.1778 H   0  0  0  0  0  0  0  0  0  0  0  0
   -0.0797   24.4368  -28.5843 H   0  0  0  0  0  0  0  0  0  0  0  0
   -1.9396   24.0802  -30.2069 H   0  0  0  0  0  0  0  0  0  0  0  0
   -5.9430   22.7630  -28.5600 H   0  0  0  0  0  0  0  0  0  0  0  0
   -8.2830   22.5971  -29.7996 H   0  0  0  0  0  0  0  0  0  0  0  0
   -8.3693   23.3067  -31.4542 H   0  0  0  0  0  0  0  0  0  0  0  0
   -7.4161   22.3340  -33.2278 H   0  0  0  0  0  0  0  0  0  0  0  0
   -5.8299   21.7377  -32.5556 H   0  0  0  0  0  0  0  0  0  0  0  0
   -7.8364   20.3368  -34.2501 H   0  0  0  0  0  0  0  0  0  0  0  0
   -6.0576   20.0784  -34.0662 H   0  0  0  0  0  0  0  0  0  0  0  0
   -6.3898   17.9973  -34.9944 H   0  0  0  0  0  0  0  0  0  0  0  0
   -5.0461   15.9119  -35.2539 H   0  0  0  0  0  0  0  0  0  0  0  0
   -4.3809   14.5918  -33.2433 H   0  0  0  0  0  0  0  0  0  0  0  0
   -5.0527   15.3622  -30.9650 H   0  0  0  0  0  0  0  0  0  0  0  0
   -6.3905   17.4496  -30.6940 H   0  0  0  0  0  0  0  0  0  0  0  0
   -9.2396   18.6115  -32.1298 H   0  0  0  0  0  0  0  0  0  0  0  0
   -8.0435   18.6336  -30.7772 H   0  0  0  0  0  0  0  0  0  0  0  0
   -9.3991   20.9663  -32.1805 H   0  0  0  0  0  0  0  0  0  0  0  0
   -9.2519   20.6289  -30.4259 H   0  0  0  0  0  0  0  0  0  0  0  0
   -6.1581   24.5341  -32.4193 H   0  0  0  0  0  0  0  0  0  0  0  0
   -4.8127   24.5791  -26.9972 H   0  0  0  0  0  0  0  0  0  0  0  0
   -2.9430   24.9337  -25.3865 H   0  0  0  0  0  0  0  0  0  0  0  0
  1  2  2  0
  2  3  1  0
  3  4  2  0
  4  5  1  0
  5  6  2  0
  6  7  1  0
  7  8  1  0
  8  9  1  0
  9 10  1  0
 10 11  1  0
 11 12  1  0
 12 13  1  0
 13 14  2  0
 14 15  1  0
 15 16  2  0
 16 17  1  0
 17 18  2  0
 12 19  1  0
 19 20  1  0
  7 21  2  0
 21 22  1  0
  4 23  1  0
 23 24  2  0
 24  1  1  0
 22  5  1  0
 20  9  1  0
 18 13  1  0
  1 25  1  0
  2 26  1  0
  3 27  1  0
  6 28  1  0
  8 29  1  0
  8 30  1  0
 10 31  1  0
 10 32  1  0
 11 33  1  0
 11 34  1  0
 14 35  1  0
 15 36  1  0
 16 37  1  0
 17 38  1  0
 18 39  1  0
 19 40  1  0
 19 41  1  0
 20 42  1  0
 20 43  1  0
 21 44  1  0
 23 45  1  0
 24 46  1  0
M  CHG  1   6   1
M  END
>  <UniqueID>  (31) 
30

>  <SMILES>  (31) 
c1ccc(-c2[nH+]c(CN3CCN(c4ccccc4)CC3)co2)cc1

>  <Energy>  (31) 
90.42375214115708

>  <Genealogy>  (31) 
c1ccc(-c2[nH+]c(CN3CCN(c4ccccc4)CC3)co2)cc1 (protonated)
c1ccc(-c2[nH+]c(CN3CCN(c4ccccc4)CC3)co2)cc1 (3D coordinates assigned)
c1ccc(-c2[nH+]c(CN3CCN(c4ccccc4)CC3)co2)cc1 (nonaromatic ring conformer: 90.42375214115708 kcal/mol)

>  <smiles>  (31) 
c1ccc(-c2nc(CN3CCN(c4ccccc4)CC3)co2)cc1

>  <score_type>  (31) 
oracle

>  <origin>  (31) 
adg

>  <m_score__min__energy>  (31) 
-7.9699999999999998

>  <m_primary>  (31) 
energy

$$$$
31:0
     RDKit          3D

 49 52  0  0  0  0  0  0  0  0999 V2000
   -2.5910   21.5230  -32.9860 C   0  0  0  0  0  0  0  0  0  0  0  0
   -3.0870   22.3290  -31.9240 O   0  0  0  0  0  0  0  0  0  0  0  0
   -3.1230   21.9370  -30.5770 C   0  0  0  0  0  0  0  0  0  0  0  0
   -2.4380   20.7960  -30.1130 C   0  0  0  0  0  0  0  0  0  0  0  0
   -2.4530   20.4660  -28.7540 C   0  0  0  0  0  0  0  0  0  0  0  0
   -3.1400   21.2710  -27.8460 C   0  0  0  0  0  0  0  0  0  0  0  0
   -3.8280   22.4000  -28.2940 C   0  0  0  0  0  0  0  0  0  0  0  0
   -3.8480   22.7220  -29.6590 C   0  0  0  0  0  0  0  0  0  0  0  0
   -4.5700   23.8810  -30.0950 N   0  0  0  0  0  0  0  0  0  0  0  0
   -3.9810   25.0230  -30.4060 N   0  0  0  0  0  0  0  0  0  0  0  0
   -4.8750   25.9080  -30.8240 N   0  0  0  0  0  0  0  0  0  0  0  0
   -6.0800   25.3080  -30.7760 C   0  0  0  0  0  0  0  0  0  0  0  0
   -5.8970   24.0250  -30.3000 C   0  0  0  0  0  0  0  0  0  0  0  0
   -6.9870   23.0090  -30.0230 C   0  0  0  0  0  0  0  0  0  0  0  0
   -7.4260   22.2550  -31.2190 N   0  0  0  0  0  0  0  0  0  0  0  0
   -8.0620   20.9530  -30.9090 C   0  0  0  0  0  0  0  0  0  0  0  0
   -8.0880   20.0180  -32.1240 C   0  0  0  0  0  0  0  0  0  0  0  0
   -6.7230   19.8150  -32.6280 N   0  0  0  0  0  0  0  0  0  0  0  0
   -6.3580   18.5820  -33.2870 C   0  0  0  0  0  0  0  0  0  0  0  0
   -7.0020   17.3740  -32.9570 C   0  0  0  0  0  0  0  0  0  0  0  0
   -6.6480   16.1820  -33.5990 C   0  0  0  0  0  0  0  0  0  0  0  0
   -5.6490   16.1820  -34.5740 C   0  0  0  0  0  0  0  0  0  0  0  0
   -5.0030   17.3730  -34.9130 C   0  0  0  0  0  0  0  0  0  0  0  0
   -5.3540   18.5680  -34.2750 C   0  0  0  0  0  0  0  0  0  0  0  0
   -5.7380   20.8950  -32.4760 C   0  0  0  0  0  0  0  0  0  0  0  0
   -6.4480   22.2470  -32.3300 C   0  0  0  0  0  0  0  0  0  0  0  0
   -2.0574   20.6558  -32.5698 H   0  0  0  0  0  0  0  0  0  0  0  0
   -3.4310   21.1742  -33.6047 H   0  0  0  0  0  0  0  0  0  0  0  0
   -1.9011   22.1157  -33.6047 H   0  0  0  0  0  0  0  0  0  0  0  0
   -1.8884   20.1614  -30.8238 H   0  0  0  0  0  0  0  0  0  0  0  0
   -1.9219   19.5698  -28.4008 H   0  0  0  0  0  0  0  0  0  0  0  0
   -3.1398   21.0162  -26.7759 H   0  0  0  0  0  0  0  0  0  0  0  0
   -4.3571   23.0403  -27.5729 H   0  0  0  0  0  0  0  0  0  0  0  0
   -7.0402   25.7603  -31.0650 H   0  0  0  0  0  0  0  0  0  0  0  0
   -6.6094   22.2905  -29.2806 H   0  0  0  0  0  0  0  0  0  0  0  0
   -7.8613   23.5708  -29.6626 H   0  0  0  0  0  0  0  0  0  0  0  0
   -7.4977   20.4667  -30.0996 H   0  0  0  0  0  0  0  0  0  0  0  0
   -9.1025   21.1478  -30.6101 H   0  0  0  0  0  0  0  0  0  0  0  0
   -8.5159   19.0485  -31.8291 H   0  0  0  0  0  0  0  0  0  0  0  0
   -8.7030   20.4703  -32.9160 H   0  0  0  0  0  0  0  0  0  0  0  0
   -7.7893   17.3673  -32.1888 H   0  0  0  0  0  0  0  0  0  0  0  0
   -7.1577   15.2437  -33.3349 H   0  0  0  0  0  0  0  0  0  0  0  0
   -5.3704   15.2435  -35.0756 H   0  0  0  0  0  0  0  0  0  0  0  0
   -4.2171   17.3717  -35.6827 H   0  0  0  0  0  0  0  0  0  0  0  0
   -4.8423   19.5030  -34.5469 H   0  0  0  0  0  0  0  0  0  0  0  0
   -5.1285   20.7067  -31.5799 H   0  0  0  0  0  0  0  0  0  0  0  0
   -5.0967   20.9225  -33.3693 H   0  0  0  0  0  0  0  0  0  0  0  0
   -5.6925   23.0239  -32.1409 H   0  0  0  0  0  0  0  0  0  0  0  0
   -6.9991   22.4383  -33.2626 H   0  0  0  0  0  0  0  0  0  0  0  0
  1  2  1  0
  2  3  1  0
  3  4  2  0
  4  5  1  0
  5  6  2  0
  6  7  1  0
  7  8  2  0
  8  9  1  0
  9 10  1  0
 10 11  2  0
 11 12  1  0
 12 13  2  0
 13 14  1  0
 14 15  1  0
 15 16  1  0
 16 17  1  0
 17 18  1  0
 18 19  1  0
 19 20  2  0
 20 21  1  0
 21 22  2  0
 22 23  1  0
 23 24  2  0
 18 25  1  0
 25 26  1  0
  8  3  1  0
 13  9  1  0
 26 15  1  0
 24 19  1  0
  1 27  1  0
  1 28  1  0
  1 29  1  0
  4 30  1  0
  5 31  1  0
  6 32  1  0
  7 33  1  0
 12 34  1  0
 14 35  1  0
 14 36  1  0
 16 37  1  0
 16 38  1  0
 17 39  1  0
 17 40  1  0
 20 41  1  0
 21 42  1  0
 22 43  1  0
 23 44  1  0
 24 45  1  0
 25 46  1  0
 25 47  1  0
 26 48  1  0
 26 49  1  0
M  END
>  <UniqueID>  (32) 
31

>  <SMILES>  (32) 
COc1ccccc1-n1nncc1CN1CCN(c2ccccc2)CC1

>  <Energy>  (32) 
104.9630832175606

>  <Genealogy>  (32) 
COc1ccccc1-n1nncc1CN1CCN(c2ccccc2)CC1 (3D coordinates assigned)
COc1ccccc1-n1nncc1CN1CCN(c2ccccc2)CC1 (nonaromatic ring conformer: 104.9630832175606 kcal/mol)

>  <smiles>  (32) 
COc1ccccc1-n1nncc1CN1CCN(c2ccccc2)CC1

>  <score_type>  (32) 
oracle

>  <origin>  (32) 
adg

>  <m_score__min__energy>  (32) 
-8.4399999999999995

>  <m_primary>  (32) 
energy

$$$$
32:0
     RDKit          3D

 36 38  0  0  0  0  0  0  0  0999 V2000
   -4.9470   24.4810  -30.0870 C   0  0  0  0  0  0  0  0  0  0  0  0
   -4.9280   22.9550  -30.0100 C   0  0  0  0  0  0  0  0  0  0  0  0
   -6.0280   22.3500  -30.8500 C   0  0  0  0  0  0  0  0  0  0  0  0
   -7.2220   22.2830  -30.3270 N   0  0  0  0  0  0  0  0  0  0  0  0
   -8.3230   21.8150  -31.0970 C   0  0  0  0  0  0  0  0  0  0  0  0
   -9.6030   21.7540  -30.7010 N   0  0  0  0  0  0  0  0  0  0  0  0
  -10.2280   21.1800  -31.7280 N   0  0  0  0  0  0  0  0  0  0  0  0
   -9.3640   20.8950  -32.6970 N   0  0  0  0  0  0  0  0  0  0  0  0
   -8.1710   21.3080  -32.3140 N   0  0  0  0  0  0  0  0  0  0  0  0
   -6.8840   21.0630  -32.9520 C   0  0  2  0  0  0  0  0  0  0  0  0
   -6.5220   19.5930  -32.8180 C   0  0  0  0  0  0  0  0  0  0  0  0
   -5.9780   18.8730  -33.9000 C   0  0  0  0  0  0  0  0  0  0  0  0
   -5.6780   17.5140  -33.7670 C   0  0  0  0  0  0  0  0  0  0  0  0
   -5.9210   16.8570  -32.5580 C   0  0  0  0  0  0  0  0  0  0  0  0
   -6.4670   17.5580  -31.4800 C   0  0  0  0  0  0  0  0  0  0  0  0
   -6.7690   18.9180  -31.6080 C   0  0  0  0  0  0  0  0  0  0  0  0
   -5.8070   22.0310  -32.3440 C   0  0  2  0  0  0  0  0  0  0  0  0
   -4.4080   21.5570  -32.6570 C   0  0  0  0  0  0  0  0  0  0  0  0
   -3.7560   22.0780  -33.6040 O   0  0  0  0  0  0  0  0  0  0  0  0
   -3.8230   20.5770  -31.8510 O   0  0  0  0  0  0  0  0  0  0  0  0
   -2.7950   19.7120  -32.3210 C   0  0  0  0  0  0  0  0  0  0  0  0
   -4.9522   24.8994  -29.0697 H   0  0  0  0  0  0  0  0  0  0  0  0
   -4.0532   24.8322  -30.6234 H   0  0  0  0  0  0  0  0  0  0  0  0
   -5.8493   24.8099  -30.6234 H   0  0  0  0  0  0  0  0  0  0  0  0
   -3.9565   22.5898  -30.3745 H   0  0  0  0  0  0  0  0  0  0  0  0
   -5.0871   22.6579  -28.9629 H   0  0  0  0  0  0  0  0  0  0  0  0
   -6.9321   21.2786  -34.0296 H   0  0  0  0  0  0  0  0  0  0  0  0
   -5.7881   19.3835  -34.8557 H   0  0  0  0  0  0  0  0  0  0  0  0
   -5.2498   16.9608  -34.6159 H   0  0  0  0  0  0  0  0  0  0  0  0
   -5.6824   15.7881  -32.4551 H   0  0  0  0  0  0  0  0  0  0  0  0
   -6.6598   17.0398  -30.5290 H   0  0  0  0  0  0  0  0  0  0  0  0
   -7.2026   19.4636  -30.7569 H   0  0  0  0  0  0  0  0  0  0  0  0
   -5.9379   23.0015  -32.8449 H   0  0  0  0  0  0  0  0  0  0  0  0
   -2.2681   19.2687  -31.4632 H   0  0  0  0  0  0  0  0  0  0  0  0
   -3.2395   18.9122  -32.9315 H   0  0  0  0  0  0  0  0  0  0  0  0
   -2.0829   20.2866  -32.9315 H   0  0  0  0  0  0  0  0  0  0  0  0
  1  2  1  0
  2  3  1  0
  3  4  2  0
  4  5  1  0
  5  6  2  0
  6  7  1  0
  7  8  2  0
  8  9  1  0
  9 10  1  0
 10 11  1  0
 11 12  2  0
 12 13  1  0
 13 14  2  0
 14 15  1  0
 15 16  2  0
 10 17  1  0
 17 18  1  0
 18 19  2  0
 18 20  1  0
 20 21  1  0
 17  3  1  0
  9  5  1  0
 16 11  1  0
  1 22  1  0
  1 23  1  0
  1 24  1  0
  2 25  1  0
  2 26  1  0
 10 27  1  6
 12 28  1  0
 13 29  1  0
 14 30  1  0
 15 31  1  0
 16 32  1  0
 17 33  1  6
 21 34  1  0
 21 35  1  0
 21 36  1  0
M  END
>  <UniqueID>  (33) 
32

>  <SMILES>  (33) 
CCC1=Nc2nnnn2[C@H](c2ccccc2)[C@@H]1C(=O)OC

>  <Energy>  (33) 
81.21566735635749

>  <Genealogy>  (33) 
CCC1=Nc2nnnn2[C@H](c2ccccc2)[C@@H]1C(=O)OC (chirality)
CCC1=Nc2nnnn2[C@H](c2ccccc2)[C@@H]1C(=O)OC (3D coordinates assigned)
CCC1=Nc2nnnn2[C@H](c2ccccc2)[C@@H]1C(=O)OC (nonaromatic ring conformer: 81.21566735635749 kcal/mol)

>  <smiles>  (33) 
CCC1=Nc2nnnn2C(c2ccccc2)C1C(=O)OC

>  <score_type>  (33) 
oracle

>  <origin>  (33) 
adg

>  <m_score__min__energy>  (33) 
-7.0199999999999996

>  <m_primary>  (33) 
energy

$$$$
33:0
     RDKit          3D

 38 41  0  0  0  0  0  0  0  0999 V2000
   -3.1120   21.0490  -28.9830 C   0  0  0  0  0  0  0  0  0  0  0  0
   -3.4700   20.4570  -30.2260 O   0  0  0  0  0  0  0  0  0  0  0  0
   -2.7410   20.6040  -31.4170 C   0  0  0  0  0  0  0  0  0  0  0  0
   -1.3350   20.6750  -31.4280 C   0  0  0  0  0  0  0  0  0  0  0  0
   -0.6450   20.8250  -32.6350 C   0  0  0  0  0  0  0  0  0  0  0  0
   -1.3480   20.9060  -33.8390 C   0  0  0  0  0  0  0  0  0  0  0  0
   -2.7410   20.8360  -33.8400 C   0  0  0  0  0  0  0  0  0  0  0  0
   -3.4450   20.6810  -32.6340 C   0  0  0  0  0  0  0  0  0  0  0  0
   -4.8880   20.5900  -32.6500 N   0  0  0  0  0  0  0  0  0  0  0  0
   -5.4940   19.4440  -33.1180 C   0  0  0  0  0  0  0  0  0  0  0  0
   -4.7330   18.3070  -33.6820 C   0  0  0  0  0  0  0  0  0  0  0  0
   -3.6700   17.6320  -33.0900 C   0  0  0  0  0  0  0  0  0  0  0  0
   -3.1260   16.6340  -33.9060 C   0  0  0  0  0  0  0  0  0  0  0  0
   -3.7400   16.5280  -35.1460 C   0  0  0  0  0  0  0  0  0  0  0  0
   -4.9600   17.6830  -35.2260 S   0  0  0  0  0  0  0  0  0  0  0  0
   -6.8410   19.3120  -33.0500 N   0  0  0  0  0  0  0  0  0  0  0  0
   -7.6350   20.2890  -32.5590 C   0  0  0  0  0  0  0  0  0  0  0  0
   -9.0210   20.0980  -32.5260 C   0  0  0  0  0  0  0  0  0  0  0  0
   -9.8550   21.1000  -32.0250 C   0  0  0  0  0  0  0  0  0  0  0  0
   -9.3080   22.2940  -31.5560 C   0  0  0  0  0  0  0  0  0  0  0  0
   -7.9250   22.4920  -31.5830 C   0  0  0  0  0  0  0  0  0  0  0  0
   -7.0650   21.4880  -32.0870 C   0  0  0  0  0  0  0  0  0  0  0  0
   -5.6540   21.6160  -32.1320 C   0  0  0  0  0  0  0  0  0  0  0  0
   -4.9290   22.9740  -31.5170 S   0  0  0  0  0  0  0  0  0  0  0  0
   -3.4886   20.4262  -28.1583 H   0  0  0  0  0  0  0  0  0  0  0  0
   -2.0167   21.1245  -28.9148 H   0  0  0  0  0  0  0  0  0  0  0  0
   -3.5538   22.0541  -28.9148 H   0  0  0  0  0  0  0  0  0  0  0  0
   -0.7764   20.6122  -30.4825 H   0  0  0  0  0  0  0  0  0  0  0  0
    0.4537   20.8793  -32.6361 H   0  0  0  0  0  0  0  0  0  0  0  0
   -0.8029   21.0251  -34.7870 H   0  0  0  0  0  0  0  0  0  0  0  0
   -3.2914   20.9025  -34.7901 H   0  0  0  0  0  0  0  0  0  0  0  0
   -3.2949   17.8601  -32.0814 H   0  0  0  0  0  0  0  0  0  0  0  0
   -2.2888   15.9926  -33.5934 H   0  0  0  0  0  0  0  0  0  0  0  0
   -3.4749   15.8129  -35.9387 H   0  0  0  0  0  0  0  0  0  0  0  0
   -9.4544   19.1569  -32.8954 H   0  0  0  0  0  0  0  0  0  0  0  0
  -10.9441   20.9473  -32.0003 H   0  0  0  0  0  0  0  0  0  0  0  0
   -9.9672   23.0823  -31.1636 H   0  0  0  0  0  0  0  0  0  0  0  0
   -7.5016   23.4360  -31.2094 H   0  0  0  0  0  0  0  0  0  0  0  0
  1  2  1  0
  2  3  1  0
  3  4  2  0
  4  5  1  0
  5  6  2  0
  6  7  1  0
  7  8  2  0
  8  9  1  0
  9 10  1  0
 10 11  1  0
 11 12  2  0
 12 13  1  0
 13 14  2  0
 14 15  1  0
 10 16  2  0
 16 17  1  0
 17 18  2  0
 18 19  1  0
 19 20  2  0
 20 21  1  0
 21 22  2  0
 22 23  1  0
 23 24  2  0
  8  3  1  0
 23  9  1  0
 15 11  1  0
 22 17  1  0
  1 25  1  0
  1 26  1  0
  1 27  1  0
  4 28  1  0
  5 29  1  0
  6 30  1  0
  7 31  1  0
 12 32  1  0
 13 33  1  0
 14 34  1  0
 18 35  1  0
 19 36  1  0
 20 37  1  0
 21 38  1  0
M  END
>  <UniqueID>  (34) 
33

>  <SMILES>  (34) 
COc1ccccc1-n1c(-c2cccs2)nc2ccccc2c1=S

>  <Energy>  (34) 
90.66048672365011

>  <Genealogy>  (34) 
COc1ccccc1-n1c(-c2cccs2)nc2ccccc2c1=S (3D coordinates assigned)
COc1ccccc1-n1c(-c2cccs2)nc2ccccc2c1=S (optimized conformer: 90.66048672365011 kcal/mol)

>  <smiles>  (34) 
COc1ccccc1-n1c(-c2cccs2)nc2ccccc2c1=S

>  <score_type>  (34) 
oracle

>  <origin>  (34) 
adg

>  <m_score__min__energy>  (34) 
-7.5499999999999998

>  <m_primary>  (34) 
energy

$$$$
34:0
     RDKit          3D

 48 50  0  0  0  0  0  0  0  0999 V2000
   -8.4091   21.2813  -30.8980 H   0  0  0  0  0  0  0  0  0  0  0  0
   -7.6370   21.0100  -31.6330 C   0  0  0  0  0  0  0  0  0  0  0  0
   -7.6430   19.6450  -32.6150 S   0  0  0  0  0  0  0  0  0  0  0  0
   -6.1780   20.0270  -33.3580 C   0  0  0  0  0  0  0  0  0  0  0  0
   -5.5460   19.2920  -34.2320 N   0  0  0  0  0  0  0  0  0  0  0  0
   -5.2490   17.8910  -34.1340 C   0  0  0  0  0  0  0  0  0  0  0  0
   -4.1870   17.4240  -34.6260 O   0  0  0  0  0  0  0  0  0  0  0  0
   -6.2140   16.9530  -33.4480 C   0  0  0  0  0  0  0  0  0  0  0  0
   -7.2060   17.4282  -33.4510 H   0  0  0  0  0  0  0  0  0  0  0  0
   -6.3610   15.6190  -34.1920 C   0  0  0  0  0  0  0  0  0  0  0  0
   -6.4512   14.8004  -33.4627 H   0  0  0  0  0  0  0  0  0  0  0  0
   -7.2613   15.6485  -34.8233 H   0  0  0  0  0  0  0  0  0  0  0  0
   -5.4758   15.4518  -34.8233 H   0  0  0  0  0  0  0  0  0  0  0  0
   -5.7550   16.7150  -32.0030 C   0  0  0  0  0  0  0  0  0  0  0  0
   -6.5122   17.1076  -31.3084 H   0  0  0  0  0  0  0  0  0  0  0  0
   -5.6253   15.6361  -31.8325 H   0  0  0  0  0  0  0  0  0  0  0  0
   -4.7985   17.2307  -31.8325 H   0  0  0  0  0  0  0  0  0  0  0  0
   -5.6710   21.1900  -32.8740 N   0  0  0  0  0  0  0  0  0  0  0  0
   -4.4000   21.7870  -33.3180 C   0  0  0  0  0  0  0  0  0  0  0  0
   -4.3925   21.8405  -34.4167 H   0  0  0  0  0  0  0  0  0  0  0  0
   -4.3151   22.7931  -32.8816 H   0  0  0  0  0  0  0  0  0  0  0  0
   -3.2240   20.9640  -32.8570 C   0  0  0  0  0  0  0  0  0  0  0  0
   -2.4340   21.3950  -31.7810 C   0  0  0  0  0  0  0  0  0  0  0  0
   -2.6435   22.3565  -31.2893 H   0  0  0  0  0  0  0  0  0  0  0  0
   -1.3790   20.5930  -31.3390 C   0  0  0  0  0  0  0  0  0  0  0  0
   -0.7519   20.9272  -30.4993 H   0  0  0  0  0  0  0  0  0  0  0  0
   -1.1180   19.3750  -31.9550 C   0  0  0  0  0  0  0  0  0  0  0  0
   -0.2930   18.7365  -31.6062 H   0  0  0  0  0  0  0  0  0  0  0  0
   -1.9230   18.9760  -33.0260 C   0  0  0  0  0  0  0  0  0  0  0  0
   -1.7330   18.0135  -33.5234 H   0  0  0  0  0  0  0  0  0  0  0  0
   -2.9420   19.7720  -33.4580 N   0  0  0  0  0  0  0  0  0  0  0  0
   -3.5150   19.4460  -34.2650 H   0  0  0  0  0  0  0  0  0  0  0  0
   -6.4820   21.7370  -31.9140 C   0  0  0  0  0  0  0  0  0  0  0  0
   -6.1450   22.9710  -31.1890 C   0  0  0  0  0  0  0  0  0  0  0  0
   -7.1640   23.8300  -30.7520 C   0  0  0  0  0  0  0  0  0  0  0  0
   -8.2178   23.5676  -30.9273 H   0  0  0  0  0  0  0  0  0  0  0  0
   -6.8400   25.0190  -30.0940 C   0  0  0  0  0  0  0  0  0  0  0  0
   -7.6394   25.6902  -29.7469 H   0  0  0  0  0  0  0  0  0  0  0  0
   -5.5000   25.3570  -29.8760 C   0  0  0  0  0  0  0  0  0  0  0  0
   -5.2518   26.2959  -29.3594 H   0  0  0  0  0  0  0  0  0  0  0  0
   -4.4710   24.5100  -30.3100 C   0  0  0  0  0  0  0  0  0  0  0  0
   -3.1420   24.9010  -30.0810 O   0  0  0  0  0  0  0  0  0  0  0  0
   -2.2110   24.1620  -29.3000 C   0  0  0  0  0  0  0  0  0  0  0  0
   -2.4170   24.3255  -28.2319 H   0  0  0  0  0  0  0  0  0  0  0  0
   -2.3063   23.0910  -29.5320 H   0  0  0  0  0  0  0  0  0  0  0  0
   -1.1896   24.4979  -29.5320 H   0  0  0  0  0  0  0  0  0  0  0  0
   -4.8010   23.3050  -30.9620 C   0  0  0  0  0  0  0  0  0  0  0  0
   -4.0030   22.6245  -31.2939 H   0  0  0  0  0  0  0  0  0  0  0  0
  1  2  1  0
  2  3  1  0
  3  4  1  0
  4  5  2  0
  5  6  1  0
  6  7  2  0
  6  8  1  0
  8  9  1  0
  8 10  1  0
 10 11  1  0
 10 12  1  0
 10 13  1  0
  8 14  1  0
 14 15  1  0
 14 16  1  0
 14 17  1  0
  4 18  1  0
 18 19  1  0
 19 20  1  0
 19 21  1  0
 19 22  1  0
 22 23  2  0
 23 24  1  0
 23 25  1  0
 25 26  1  0
 25 27  2  0
 27 28  1  0
 27 29  1  0
 29 30  1  0
 29 31  2  0
 31 32  1  0
 18 33  1  0
 33 34  1  0
 34 35  2  0
 35 36  1  0
 35 37  1  0
 37 38  1  0
 37 39  2  0
 39 40  1  0
 39 41  1  0
 41 42  1  0
 42 43  1  0
 43 44  1  0
 43 45  1  0
 43 46  1  0
 41 47  2  0
 47 48  1  0
 33  2  2  0
 47 34  1  0
 31 22  1  0
M  CHG  1  31   1
M  END
>  <UniqueID>  (35) 
34

>  <SMILES>  (35) 
COc1cccc(-c2cs/c(=N\C(=O)C(C)C)n2Cc2cccc[nH+]2)c1

>  <Energy>  (35) 
83.6532970141072

>  <Genealogy>  (35) 
COc1cccc(-c2csc(=NC(=O)C(C)C)n2Cc2cccc[nH+]2)c1 (protonated)
COc1cccc(-c2cs/c(=N\C(=O)C(C)C)n2Cc2cccc[nH+]2)c1 (cis-trans isomerization)
COc1cccc(-c2cs/c(=N\C(=O)C(C)C)n2Cc2cccc[nH+]2)c1 (3D coordinates assigned)
COc1cccc(-c2cs/c(=N\C(=O)C(C)C)n2Cc2cccc[nH+]2)c1 (optimized conformer: 83.6532970141072 kcal/mol)

>  <smiles>  (35) 
COc1cccc(-c2csc(=NC(=O)C(C)C)n2Cc2ccccn2)c1

>  <score_type>  (35) 
oracle

>  <origin>  (35) 
adg

>  <m_score__min__energy>  (35) 
-7.9500000000000002

>  <m_primary>  (35) 
energy

$$$$
35:0
     RDKit          3D

 36 37  0  0  0  0  0  0  0  0999 V2000
   -6.0800   18.2250  -34.1900 C   0  0  0  0  0  0  0  0  0  0  0  0
   -6.1330   19.6730  -33.8380 C   0  0  0  0  0  0  0  0  0  0  0  0
   -6.8710   19.9630  -32.6000 N   0  0  0  0  0  0  0  0  0  0  0  0
   -7.5750   18.8300  -32.0390 C   0  0  0  0  0  0  0  0  0  0  0  0
   -9.0810   18.9470  -32.1090 C   0  0  0  0  0  0  0  0  0  0  0  0
   -6.8890   21.2700  -32.0320 C   0  0  0  0  0  0  0  0  0  0  0  0
   -7.9430   22.1330  -32.2490 C   0  0  0  0  0  0  0  0  0  0  0  0
   -7.9740   23.4210  -31.7010 C   0  0  0  0  0  0  0  0  0  0  0  0
   -6.9480   23.8870  -30.9150 C   0  0  0  0  0  0  0  0  0  0  0  0
   -5.8920   23.0300  -30.6940 C   0  0  0  0  0  0  0  0  0  0  0  0
   -4.7810   23.4950  -29.8570 C   0  0  0  0  0  0  0  0  0  0  0  0
   -3.4680   23.5350  -30.2010 N   0  0  0  0  0  0  0  0  0  0  0  0
   -2.7340   24.0150  -29.2120 N   0  0  0  0  0  0  0  0  0  0  0  0
   -1.3030   24.1810  -29.2800 C   0  0  0  0  0  0  0  0  0  0  0  0
   -3.5840   24.2930  -28.2080 C   0  0  0  0  0  0  0  0  0  0  0  0
   -3.1370   24.9130  -26.7570 S   0  0  0  0  0  0  0  0  0  0  0  0
   -4.8370   23.9700  -28.6110 N   0  0  0  0  0  0  0  0  0  0  0  0
   -5.8600   21.7400  -31.2430 C   0  0  0  0  0  0  0  0  0  0  0  0
   -6.0580   17.6243  -33.2688 H   0  0  0  0  0  0  0  0  0  0  0  0
   -6.9690   17.9584  -34.7804 H   0  0  0  0  0  0  0  0  0  0  0  0
   -5.1739   18.0241  -34.7804 H   0  0  0  0  0  0  0  0  0  0  0  0
   -5.1020   20.0376  -33.7191 H   0  0  0  0  0  0  0  0  0  0  0  0
   -6.6708   20.1783  -34.6537 H   0  0  0  0  0  0  0  0  0  0  0  0
   -7.2720   17.9271  -32.5895 H   0  0  0  0  0  0  0  0  0  0  0  0
   -7.3080   18.7849  -30.9729 H   0  0  0  0  0  0  0  0  0  0  0  0
   -9.4940   18.9791  -31.0900 H   0  0  0  0  0  0  0  0  0  0  0  0
   -9.3527   19.8690  -32.6440 H   0  0  0  0  0  0  0  0  0  0  0  0
   -9.4918   18.0781  -32.6440 H   0  0  0  0  0  0  0  0  0  0  0  0
   -8.7856   21.7988  -32.8722 H   0  0  0  0  0  0  0  0  0  0  0  0
   -8.8367   24.0726  -31.9037 H   0  0  0  0  0  0  0  0  0  0  0  0
   -6.9687   24.8980  -30.4820 H   0  0  0  0  0  0  0  0  0  0  0  0
   -0.8906   24.2288  -28.2614 H   0  0  0  0  0  0  0  0  0  0  0  0
   -0.8600   23.3282  -29.8153 H   0  0  0  0  0  0  0  0  0  0  0  0
   -1.0670   25.1125  -29.8153 H   0  0  0  0  0  0  0  0  0  0  0  0
   -5.7240   24.0670  -28.0650 H   0  0  0  0  0  0  0  0  0  0  0  0
   -4.9964   21.0895  -31.0402 H   0  0  0  0  0  0  0  0  0  0  0  0
  1  2  1  0
  2  3  1  0
  3  4  1  0
  4  5  1  0
  3  6  1  0
  6  7  2  0
  7  8  1  0
  8  9  2  0
  9 10  1  0
 10 11  1  0
 11 12  2  0
 12 13  1  0
 13 14  1  0
 13 15  1  0
 15 16  2  0
 15 17  1  0
 10 18  2  0
 18  6  1  0
 17 11  1  0
  1 19  1  0
  1 20  1  0
  1 21  1  0
  2 22  1  0
  2 23  1  0
  4 24  1  0
  4 25  1  0
  5 26  1  0
  5 27  1  0
  5 28  1  0
  7 29  1  0
  8 30  1  0
  9 31  1  0
 14 32  1  0
 14 33  1  0
 14 34  1  0
 17 35  1  0
 18 36  1  0
M  END
>  <smiles>  (36) 
CCN(CC)c1cccc(-c2nn(C)c(=S)[nH]2)c1

>  <score_type>  (36) 
oracle

>  <origin>  (36) 
adg

>  <m_score__min__energy>  (36) 
-6.5999999999999996

>  <m_primary>  (36) 
energy

$$$$
36:0
     RDKit          3D

 52 54  0  0  0  0  0  0  0  0999 V2000
    0.6150   26.8620  -27.0910 C   0  0  0  0  0  0  0  0  0  0  0  0
   -0.8680   26.8700  -27.4890 C   0  0  0  0  0  0  0  0  0  0  0  0
   -1.5530   25.5690  -27.2470 N   0  0  1  0  0  0  0  0  0  0  0  0
   -0.9570   24.4170  -27.9840 C   0  0  0  0  0  0  0  0  0  0  0  0
   -1.5400   24.1400  -29.3800 C   0  0  0  0  0  0  0  0  0  0  0  0
   -2.7220   24.9120  -29.5810 O   0  0  0  0  0  0  0  0  0  0  0  0
   -3.9150   24.4180  -30.1270 C   0  0  0  0  0  0  0  0  0  0  0  0
   -5.0440   25.2480  -30.1100 C   0  0  0  0  0  0  0  0  0  0  0  0
   -6.2540   24.8140  -30.6550 C   0  0  0  0  0  0  0  0  0  0  0  0
   -6.3540   23.5340  -31.2240 C   0  0  0  0  0  0  0  0  0  0  0  0
   -7.5430   23.0590  -31.7960 C   0  0  0  0  0  0  0  0  0  0  0  0
   -8.5810   23.7750  -31.8280 O   0  0  0  0  0  0  0  0  0  0  0  0
   -7.5740   21.7760  -32.3440 C   0  0  0  0  0  0  0  0  0  0  0  0
   -6.4150   20.9780  -32.3000 C   0  0  0  0  0  0  0  0  0  0  0  0
   -6.3900   19.6030  -32.8610 C   0  0  0  0  0  0  0  0  0  0  0  0
   -6.9430   18.5060  -32.1670 C   0  0  0  0  0  0  0  0  0  0  0  0
   -6.8930   17.2200  -32.7170 C   0  0  0  0  0  0  0  0  0  0  0  0
   -6.2840   17.0100  -33.9550 C   0  0  0  0  0  0  0  0  0  0  0  0
   -5.7170   18.0840  -34.6440 C   0  0  0  0  0  0  0  0  0  0  0  0
   -5.7660   19.3720  -34.1020 C   0  0  0  0  0  0  0  0  0  0  0  0
   -5.3020   21.4690  -31.7580 O   0  0  0  0  0  0  0  0  0  0  0  0
   -5.2230   22.6870  -31.2320 C   0  0  0  0  0  0  0  0  0  0  0  0
   -4.0130   23.1300  -30.6870 C   0  0  0  0  0  0  0  0  0  0  0  0
   -1.7960   25.2700  -25.7920 C   0  0  0  0  0  0  0  0  0  0  0  0
   -0.8520   24.2030  -25.1890 C   0  0  0  0  0  0  0  0  0  0  0  0
   -1.7250   26.5490  -24.9350 C   0  0  0  0  0  0  0  0  0  0  0  0
    0.7003   26.8615  -25.9943 H   0  0  0  0  0  0  0  0  0  0  0  0
    1.0987   25.9612  -27.4968 H   0  0  0  0  0  0  0  0  0  0  0  0
    1.1084   27.7575  -27.4968 H   0  0  0  0  0  0  0  0  0  0  0  0
   -1.3814   27.6482  -26.9052 H   0  0  0  0  0  0  0  0  0  0  0  0
   -0.9127   27.0641  -28.5708 H   0  0  0  0  0  0  0  0  0  0  0  0
   -2.5000   25.6720  -27.6880 H   0  0  0  0  0  0  0  0  0  0  0  0
    0.1193   24.6117  -28.1006 H   0  0  0  0  0  0  0  0  0  0  0  0
   -1.1886   23.5260  -27.3820 H   0  0  0  0  0  0  0  0  0  0  0  0
   -0.7960   24.4085  -30.1445 H   0  0  0  0  0  0  0  0  0  0  0  0
   -1.7906   23.0719  -29.4594 H   0  0  0  0  0  0  0  0  0  0  0  0
   -4.9763   26.2508  -29.6631 H   0  0  0  0  0  0  0  0  0  0  0  0
   -7.1317   25.4768  -30.6386 H   0  0  0  0  0  0  0  0  0  0  0  0
   -8.4954   21.3918  -32.8060 H   0  0  0  0  0  0  0  0  0  0  0  0
   -7.4168   18.6626  -31.1867 H   0  0  0  0  0  0  0  0  0  0  0  0
   -7.3348   16.3727  -32.1721 H   0  0  0  0  0  0  0  0  0  0  0  0
   -6.2507   15.9992  -34.3877 H   0  0  0  0  0  0  0  0  0  0  0  0
   -5.2303   17.9163  -35.6161 H   0  0  0  0  0  0  0  0  0  0  0  0
   -5.3133   20.2118  -34.6496 H   0  0  0  0  0  0  0  0  0  0  0  0
   -3.1340   22.4688  -30.6961 H   0  0  0  0  0  0  0  0  0  0  0  0
   -2.8119   24.8491  -25.7661 H   0  0  0  0  0  0  0  0  0  0  0  0
   -0.8961   24.2529  -24.0910 H   0  0  0  0  0  0  0  0  0  0  0  0
   -1.1670   23.2036  -25.5236 H   0  0  0  0  0  0  0  0  0  0  0  0
    0.1783   24.3938  -25.5236 H   0  0  0  0  0  0  0  0  0  0  0  0
   -1.7401   26.2775  -23.8691 H   0  0  0  0  0  0  0  0  0  0  0  0
   -0.7954   27.0914  -25.1621 H   0  0  0  0  0  0  0  0  0  0  0  0
   -2.5889   27.1910  -25.1621 H   0  0  0  0  0  0  0  0  0  0  0  0
  1  2  1  0
  2  3  1  0
  3  4  1  0
  4  5  1  0
  5  6  1  0
  6  7  1  0
  7  8  2  0
  8  9  1  0
  9 10  2  0
 10 11  1  0
 11 12  2  0
 11 13  1  0
 13 14  2  0
 14 15  1  0
 15 16  2  0
 16 17  1  0
 17 18  2  0
 18 19  1  0
 19 20  2  0
 14 21  1  0
 21 22  1  0
 22 23  2  0
  3 24  1  0
 24 25  1  0
 24 26  1  0
 23  7  1  0
 22 10  1  0
 20 15  1  0
  1 27  1  0
  1 28  1  0
  1 29  1  0
  2 30  1  0
  2 31  1  0
  3 32  1  6
  4 33  1  0
  4 34  1  0
  5 35  1  0
  5 36  1  0
  8 37  1  0
  9 38  1  0
 13 39  1  0
 16 40  1  0
 17 41  1  0
 18 42  1  0
 19 43  1  0
 20 44  1  0
 23 45  1  0
 24 46  1  0
 25 47  1  0
 25 48  1  0
 25 49  1  0
 26 50  1  0
 26 51  1  0
 26 52  1  0
M  CHG  1   3   1
M  END
>  <UniqueID>  (37) 
35

>  <SMILES>  (37) 
CC[N@@H+](CCOc1ccc2c(=O)cc(-c3ccccc3)oc2c1)C(C)C

>  <Energy>  (37) 
70.17575144271218

>  <Genealogy>  (37) 
CC[NH+](CCOc1ccc2c(=O)cc(-c3ccccc3)oc2c1)C(C)C (protonated)
CC[N@@H+](CCOc1ccc2c(=O)cc(-c3ccccc3)oc2c1)C(C)C (chirality)
CC[N@@H+](CCOc1ccc2c(=O)cc(-c3ccccc3)oc2c1)C(C)C (3D coordinates assigned)
CC[N@@H+](CCOc1ccc2c(=O)cc(-c3ccccc3)oc2c1)C(C)C (optimized conformer: 70.17575144271218 kcal/mol)

>  <smiles>  (37) 
CCN(CCOc1ccc2c(=O)cc(-c3ccccc3)oc2c1)C(C)C

>  <score_type>  (37) 
oracle

>  <origin>  (37) 
adg

>  <m_score__min__energy>  (37) 
-8.0800000000000001

>  <m_primary>  (37) 
energy

$$$$
37:0
     RDKit          3D

 39 39  0  0  0  0  0  0  0  0999 V2000
   -4.3260   23.6160  -30.4490 C   0  0  0  0  0  0  0  0  0  0  0  0
   -5.1690   24.5410  -31.2240 N   0  0  0  0  0  0  0  0  0  0  0  0
   -5.7450   25.5510  -30.3190 C   0  0  0  0  0  0  0  0  0  0  0  0
   -6.2330   23.7910  -31.9270 C   0  0  0  0  0  0  0  0  0  0  0  0
   -7.0660   22.9720  -30.9340 C   0  0  0  0  0  0  0  0  0  0  0  0
   -8.5660   22.2950  -31.7310 S   0  0  0  0  0  0  0  0  0  0  0  0
   -7.7950   20.7590  -32.2560 C   0  0  0  0  0  0  0  0  0  0  0  0
   -6.6530   20.7880  -33.0570 C   0  0  0  0  0  0  0  0  0  0  0  0
   -6.0510   19.5960  -33.4670 C   0  0  0  0  0  0  0  0  0  0  0  0
   -6.5730   18.3420  -33.0770 C   0  0  0  0  0  0  0  0  0  0  0  0
   -5.8830   17.0470  -33.5530 C   0  0  0  0  0  0  0  0  0  0  0  0
   -5.2130   16.3480  -32.3500 C   0  0  0  0  0  0  0  0  0  0  0  0
   -4.8080   17.3950  -34.6060 C   0  0  0  0  0  0  0  0  0  0  0  0
   -6.8630   16.0380  -34.1980 C   0  0  0  0  0  0  0  0  0  0  0  0
   -7.7250   18.3370  -32.2520 C   0  0  0  0  0  0  0  0  0  0  0  0
   -8.3220   19.5340  -31.8450 C   0  0  0  0  0  0  0  0  0  0  0  0
   -4.4838   23.7892  -29.3742 H   0  0  0  0  0  0  0  0  0  0  0  0
   -4.5960   22.5788  -30.6968 H   0  0  0  0  0  0  0  0  0  0  0  0
   -3.2683   23.7888  -30.6968 H   0  0  0  0  0  0  0  0  0  0  0  0
   -5.5728   25.2490  -29.2754 H   0  0  0  0  0  0  0  0  0  0  0  0
   -5.2659   26.5240  -30.5030 H   0  0  0  0  0  0  0  0  0  0  0  0
   -6.8263   25.6341  -30.5030 H   0  0  0  0  0  0  0  0  0  0  0  0
   -6.8903   24.5014  -32.4498 H   0  0  0  0  0  0  0  0  0  0  0  0
   -5.7644   23.1036  -32.6466 H   0  0  0  0  0  0  0  0  0  0  0  0
   -6.4551   22.1401  -30.5535 H   0  0  0  0  0  0  0  0  0  0  0  0
   -7.3764   23.6328  -30.1112 H   0  0  0  0  0  0  0  0  0  0  0  0
   -6.2252   21.7529  -33.3668 H   0  0  0  0  0  0  0  0  0  0  0  0
   -5.1553   19.6341  -34.1044 H   0  0  0  0  0  0  0  0  0  0  0  0
   -5.6130   16.7653  -31.4141 H   0  0  0  0  0  0  0  0  0  0  0  0
   -5.4228   15.2689  -32.3895 H   0  0  0  0  0  0  0  0  0  0  0  0
   -4.1260   16.5119  -32.3895 H   0  0  0  0  0  0  0  0  0  0  0  0
   -3.8801   17.6954  -34.0973 H   0  0  0  0  0  0  0  0  0  0  0  0
   -4.6125   16.5142  -35.2353 H   0  0  0  0  0  0  0  0  0  0  0  0
   -5.1658   18.2232  -35.2353 H   0  0  0  0  0  0  0  0  0  0  0  0
   -7.3964   15.4888  -33.4081 H   0  0  0  0  0  0  0  0  0  0  0  0
   -7.5889   16.5797  -34.8222 H   0  0  0  0  0  0  0  0  0  0  0  0
   -6.3003   15.3282  -34.8222 H   0  0  0  0  0  0  0  0  0  0  0  0
   -8.1555   17.3782  -31.9273 H   0  0  0  0  0  0  0  0  0  0  0  0
   -9.2112   19.5100  -31.1979 H   0  0  0  0  0  0  0  0  0  0  0  0
  1  2  1  0
  2  3  1  0
  2  4  1  0
  4  5  1  0
  5  6  1  0
  6  7  1  0
  7  8  2  0
  8  9  1  0
  9 10  2  0
 10 11  1  0
 11 12  1  0
 11 13  1  0
 11 14  1  0
 10 15  1  0
 15 16  2  0
 16  7  1  0
  1 17  1  0
  1 18  1  0
  1 19  1  0
  3 20  1  0
  3 21  1  0
  3 22  1  0
  4 23  1  0
  4 24  1  0
  5 25  1  0
  5 26  1  0
  8 27  1  0
  9 28  1  0
 12 29  1  0
 12 30  1  0
 12 31  1  0
 13 32  1  0
 13 33  1  0
 13 34  1  0
 14 35  1  0
 14 36  1  0
 14 37  1  0
 15 38  1  0
 16 39  1  0
M  END
>  <UniqueID>  (38) 
36

>  <SMILES>  (38) 
CN(C)CCSc1ccc(C(C)(C)C)cc1

>  <Energy>  (38) 
32.350874674603304

>  <Genealogy>  (38) 
CN(C)CCSc1ccc(C(C)(C)C)cc1 (3D coordinates assigned)
CN(C)CCSc1ccc(C(C)(C)C)cc1 (optimized conformer: 32.350874674603304 kcal/mol)

>  <smiles>  (38) 
CN(C)CCSc1ccc(C(C)(C)C)cc1

>  <score_type>  (38) 
oracle

>  <origin>  (38) 
adg

>  <m_score__min__energy>  (38) 
-7.0800000000000001

>  <m_primary>  (38) 
energy

$$$$
38:0
     RDKit          3D

 40 42  0  0  0  0  0  0  0  0999 V2000
   -1.9130   24.9040  -28.1830 C   0  0  0  0  0  0  0  0  0  0  0  0
   -2.6500   25.2640  -29.3460 O   0  0  0  0  0  0  0  0  0  0  0  0
   -3.7930   24.5880  -29.7980 C   0  0  0  0  0  0  0  0  0  0  0  0
   -3.8320   23.1910  -29.9590 C   0  0  0  0  0  0  0  0  0  0  0  0
   -4.9970   22.5650  -30.4120 C   0  0  0  0  0  0  0  0  0  0  0  0
   -6.1410   23.3230  -30.7130 C   0  0  0  0  0  0  0  0  0  0  0  0
   -7.3740   22.6660  -31.1940 C   0  0  0  0  0  0  0  0  0  0  0  0
   -7.5430   21.3260  -31.2400 N   0  0  0  0  0  0  0  0  0  0  0  0
   -8.7830   21.1920  -31.7440 C   0  0  0  0  0  0  0  0  0  0  0  0
   -9.4650   19.8770  -31.9640 C   0  0  0  0  0  0  0  0  0  0  0  0
   -8.7890   19.1200  -33.0170 N   0  0  0  0  0  0  0  0  0  0  0  0
   -7.3760   18.8290  -33.0320 C   0  0  0  0  0  0  0  0  0  0  0  0
   -6.5130   19.6670  -33.7550 C   0  0  0  0  0  0  0  0  0  0  0  0
   -5.1400   19.4110  -33.7950 C   0  0  0  0  0  0  0  0  0  0  0  0
   -4.6030   18.3200  -33.0980 C   0  0  0  0  0  0  0  0  0  0  0  0
   -3.1350   18.0220  -33.1740 C   0  0  0  0  0  0  0  0  0  0  0  0
   -5.4610   17.4700  -32.3850 C   0  0  0  0  0  0  0  0  0  0  0  0
   -6.8350   17.7250  -32.3450 C   0  0  0  0  0  0  0  0  0  0  0  0
   -9.3280   22.4360  -31.9710 C   0  0  0  0  0  0  0  0  0  0  0  0
   -8.4290   23.3230  -31.6250 O   0  0  0  0  0  0  0  0  0  0  0  0
   -6.1000   24.7160  -30.5530 C   0  0  0  0  0  0  0  0  0  0  0  0
   -4.9340   25.3410  -30.0980 C   0  0  0  0  0  0  0  0  0  0  0  0
   -2.4846   25.1832  -27.2856 H   0  0  0  0  0  0  0  0  0  0  0  0
   -1.7366   23.8182  -28.1822 H   0  0  0  0  0  0  0  0  0  0  0  0
   -0.9482   25.4323  -28.1822 H   0  0  0  0  0  0  0  0  0  0  0  0
   -2.9415   22.5883  -29.7273 H   0  0  0  0  0  0  0  0  0  0  0  0
   -5.0181   21.4719  -30.5336 H   0  0  0  0  0  0  0  0  0  0  0  0
   -9.4428   19.2968  -31.0297 H   0  0  0  0  0  0  0  0  0  0  0  0
  -10.5051   20.0622  -32.2704 H   0  0  0  0  0  0  0  0  0  0  0  0
   -9.3810   18.7560  -33.7980 H   0  0  0  0  0  0  0  0  0  0  0  0
   -6.9215   20.5337  -34.2954 H   0  0  0  0  0  0  0  0  0  0  0  0
   -4.4773   20.0689  -34.3763 H   0  0  0  0  0  0  0  0  0  0  0  0
   -2.7246   17.9387  -32.1568 H   0  0  0  0  0  0  0  0  0  0  0  0
   -2.9805   17.0742  -33.7105 H   0  0  0  0  0  0  0  0  0  0  0  0
   -2.6232   18.8346  -33.7105 H   0  0  0  0  0  0  0  0  0  0  0  0
   -5.0507   16.5981  -31.8545 H   0  0  0  0  0  0  0  0  0  0  0  0
   -7.4979   17.0590  -31.7732 H   0  0  0  0  0  0  0  0  0  0  0  0
  -10.3318   22.6456  -32.3690 H   0  0  0  0  0  0  0  0  0  0  0  0
   -6.9892   25.3200  -30.7865 H   0  0  0  0  0  0  0  0  0  0  0  0
   -4.9138   26.4339  -29.9749 H   0  0  0  0  0  0  0  0  0  0  0  0
  1  2  1  0
  2  3  1  0
  3  4  2  0
  4  5  1  0
  5  6  2  0
  6  7  1  0
  7  8  2  0
  8  9  1  0
  9 10  1  0
 10 11  1  0
 11 12  1  0
 12 13  2  0
 13 14  1  0
 14 15  2  0
 15 16  1  0
 15 17  1  0
 17 18  2  0
  9 19  2  0
 19 20  1  0
  6 21  1  0
 21 22  2  0
 22  3  1  0
 20  7  1  0
 18 12  1  0
  1 23  1  0
  1 24  1  0
  1 25  1  0
  4 26  1  0
  5 27  1  0
 10 28  1  0
 10 29  1  0
 11 30  1  0
 13 31  1  0
 14 32  1  0
 16 33  1  0
 16 34  1  0
 16 35  1  0
 17 36  1  0
 18 37  1  0
 19 38  1  0
 21 39  1  0
 22 40  1  0
M  END
>  <UniqueID>  (39) 
37

>  <SMILES>  (39) 
COc1ccc(-c2nc(CNc3ccc(C)cc3)co2)cc1

>  <Energy>  (39) 
68.93756854106203

>  <Genealogy>  (39) 
COc1ccc(-c2nc(CNc3ccc(C)cc3)co2)cc1 (3D coordinates assigned)
COc1ccc(-c2nc(CNc3ccc(C)cc3)co2)cc1 (optimized conformer: 68.93756854106203 kcal/mol)

>  <smiles>  (39) 
COc1ccc(-c2nc(CNc3ccc(C)cc3)co2)cc1

>  <score_type>  (39) 
oracle

>  <origin>  (39) 
adg

>  <m_score__min__energy>  (39) 
-8.2300000000000004

>  <m_primary>  (39) 
energy

$$$$
39:0
     RDKit          3D

 53 54  0  0  0  0  0  0  0  0999 V2000
   -6.7660   16.3170  -33.8330 C   0  0  0  0  0  0  0  0  0  0  0  0
   -5.6040   16.5260  -32.8630 C   0  0  0  0  0  0  0  0  0  0  0  0
   -4.6950   17.7040  -33.2660 C   0  0  0  0  0  0  0  0  0  0  0  0
   -5.3250   18.6080  -34.3380 C   0  0  0  0  0  0  0  0  0  0  0  0
   -5.5670   19.9690  -33.8090 N   0  0  0  0  0  0  0  0  0  0  0  0
   -4.6680   20.2530  -32.6660 C   0  0  0  0  0  0  0  0  0  0  0  0
   -3.9630   21.5980  -32.8510 C   0  0  0  0  0  0  0  0  0  0  0  0
   -2.5520   21.5840  -32.2460 C   0  0  0  0  0  0  0  0  0  0  0  0
   -6.9950   20.1590  -33.4460 C   0  0  0  0  0  0  0  0  0  0  0  0
   -7.3250   19.4380  -32.1230 C   0  0  0  0  0  0  0  0  0  0  0  0
   -8.7760   19.6370  -31.6390 C   0  0  0  0  0  0  0  0  0  0  0  0
   -9.4150   20.9990  -32.0220 C   0  0  0  0  0  0  0  0  0  0  0  0
   -9.0320   22.0590  -31.1530 O   0  0  0  0  0  0  0  0  0  0  0  0
   -7.7740   22.6680  -31.0860 C   0  0  0  0  0  0  0  0  0  0  0  0
   -7.2970   23.5620  -32.0620 C   0  0  0  0  0  0  0  0  0  0  0  0
   -6.0570   24.1990  -31.9020 C   0  0  0  0  0  0  0  0  0  0  0  0
   -5.3000   23.9870  -30.7440 C   0  0  0  0  0  0  0  0  0  0  0  0
   -4.1550   24.6420  -30.5620 O   0  0  0  0  0  0  0  0  0  0  0  0
   -3.4130   24.5010  -29.4640 C   0  0  0  0  0  0  0  0  0  0  0  0
   -2.3470   25.1590  -29.3370 O   0  0  0  0  0  0  0  0  0  0  0  0
   -3.8220   23.6380  -28.4420 C   0  0  0  0  0  0  0  0  0  0  0  0
   -5.0090   22.9250  -28.5940 C   0  0  0  0  0  0  0  0  0  0  0  0
   -5.7650   23.0910  -29.7590 C   0  0  0  0  0  0  0  0  0  0  0  0
   -6.9880   22.4240  -29.9440 C   0  0  0  0  0  0  0  0  0  0  0  0
   -7.6928   16.1503  -33.2644 H   0  0  0  0  0  0  0  0  0  0  0  0
   -6.8798   17.2091  -34.4664 H   0  0  0  0  0  0  0  0  0  0  0  0
   -6.5619   15.4412  -34.4664 H   0  0  0  0  0  0  0  0  0  0  0  0
   -6.0134   16.7244  -31.8615 H   0  0  0  0  0  0  0  0  0  0  0  0
   -4.9904   15.6132  -32.8791 H   0  0  0  0  0  0  0  0  0  0  0  0
   -4.4901   18.3108  -32.3717 H   0  0  0  0  0  0  0  0  0  0  0  0
   -3.7746   17.2790  -33.6928 H   0  0  0  0  0  0  0  0  0  0  0  0
   -4.6440   18.6728  -35.1994 H   0  0  0  0  0  0  0  0  0  0  0  0
   -6.2890   18.1732  -34.6406 H   0  0  0  0  0  0  0  0  0  0  0  0
   -5.2603   20.2806  -31.7395 H   0  0  0  0  0  0  0  0  0  0  0  0
   -3.9071   19.4606  -32.6103 H   0  0  0  0  0  0  0  0  0  0  0  0
   -3.8882   21.8170  -33.9264 H   0  0  0  0  0  0  0  0  0  0  0  0
   -4.5519   22.3694  -32.3332 H   0  0  0  0  0  0  0  0  0  0  0  0
   -2.6237   21.5847  -31.1483 H   0  0  0  0  0  0  0  0  0  0  0  0
   -2.0196   20.6805  -32.5781 H   0  0  0  0  0  0  0  0  0  0  0  0
   -2.0018   22.4767  -32.5781 H   0  0  0  0  0  0  0  0  0  0  0  0
   -7.1978   21.2340  -33.3311 H   0  0  0  0  0  0  0  0  0  0  0  0
   -7.6211   19.7342  -34.2445 H   0  0  0  0  0  0  0  0  0  0  0  0
   -7.1535   18.3608  -32.2652 H   0  0  0  0  0  0  0  0  0  0  0  0
   -6.6723   19.8757  -31.3533 H   0  0  0  0  0  0  0  0  0  0  0  0
   -9.3932   18.8366  -32.0730 H   0  0  0  0  0  0  0  0  0  0  0  0
   -8.7392   19.6132  -30.5399 H   0  0  0  0  0  0  0  0  0  0  0  0
   -9.1047   21.2559  -33.0456 H   0  0  0  0  0  0  0  0  0  0  0  0
  -10.5059   20.8846  -31.9391 H   0  0  0  0  0  0  0  0  0  0  0  0
   -7.9016   23.7634  -32.9586 H   0  0  0  0  0  0  0  0  0  0  0  0
   -5.6785   24.8673  -32.6895 H   0  0  0  0  0  0  0  0  0  0  0  0
   -3.2152   23.5240  -27.5316 H   0  0  0  0  0  0  0  0  0  0  0  0
   -5.3486   22.2378  -27.8051 H   0  0  0  0  0  0  0  0  0  0  0  0
   -7.3347   21.7036  -29.1884 H   0  0  0  0  0  0  0  0  0  0  0  0
  1  2  1  0
  2  3  1  0
  3  4  1  0
  4  5  1  0
  5  6  1  0
  6  7  1  0
  7  8  1  0
  5  9  1  0
  9 10  1  0
 10 11  1  0
 11 12  1  0
 12 13  1  0
 13 14  1  0
 14 15  2  0
 15 16  1  0
 16 17  2  0
 17 18  1  0
 18 19  1  0
 19 20  2  0
 19 21  1  0
 21 22  2  0
 22 23  1  0
 23 24  2  0
 24 14  1  0
 23 17  1  0
  1 25  1  0
  1 26  1  0
  1 27  1  0
  2 28  1  0
  2 29  1  0
  3 30  1  0
  3 31  1  0
  4 32  1  0
  4 33  1  0
  6 34  1  0
  6 35  1  0
  7 36  1  0
  7 37  1  0
  8 38  1  0
  8 39  1  0
  8 40  1  0
  9 41  1  0
  9 42  1  0
 10 43  1  0
 10 44  1  0
 11 45  1  0
 11 46  1  0
 12 47  1  0
 12 48  1  0
 15 49  1  0
 16 50  1  0
 21 51  1  0
 22 52  1  0
 24 53  1  0
M  END
>  <UniqueID>  (40) 
38

>  <SMILES>  (40) 
CCCCN(CCC)CCCCOc1ccc2oc(=O)ccc2c1

>  <Energy>  (40) 
46.25538090543286

>  <Genealogy>  (40) 
CCCCN(CCC)CCCCOc1ccc2oc(=O)ccc2c1 (3D coordinates assigned)
CCCCN(CCC)CCCCOc1ccc2oc(=O)ccc2c1 (optimized conformer: 46.25538090543286 kcal/mol)

>  <smiles>  (40) 
CCCCN(CCC)CCCCOc1ccc2oc(=O)ccc2c1

>  <score_type>  (40) 
oracle

>  <origin>  (40) 
adg

>  <m_score__min__energy>  (40) 
-7.6699999999999999

>  <m_primary>  (40) 
energy

$$$$
40:0
     RDKit          3D

 59 61  0  0  0  0  0  0  0  0999 V2000
   -3.8590   18.6340  -26.2960 C   0  0  0  0  0  0  0  0  0  0  0  0
   -2.4410   19.1800  -26.1340 C   0  0  0  0  0  0  0  0  0  0  0  0
   -1.6400   19.1800  -27.4530 C   0  0  0  0  0  0  0  0  0  0  0  0
   -1.4260   20.5110  -28.0560 N   0  0  0  0  0  0  0  0  0  0  0  0
   -0.6080   20.5220  -29.2810 C   0  0  0  0  0  0  0  0  0  0  0  0
   -0.8130   21.8010  -30.1090 C   0  0  0  0  0  0  0  0  0  0  0  0
   -2.1920   22.3180  -29.9440 N   0  0  0  0  0  0  0  0  0  0  0  0
   -2.2980   23.3640  -28.9030 C   0  0  0  0  0  0  0  0  0  0  0  0
   -1.1240   24.3360  -29.0230 C   0  0  0  0  0  0  0  0  0  0  0  0
   -1.5890   25.6720  -28.9710 O   0  0  0  0  0  0  0  0  0  0  0  0
   -1.2200   26.2750  -27.7510 C   0  0  0  0  0  0  0  0  0  0  0  0
   -2.8540   22.6810  -31.2250 C   0  0  0  0  0  0  0  0  0  0  0  0
   -4.2600   23.2380  -31.0800 C   0  0  0  0  0  0  0  0  0  0  0  0
   -4.4090   24.5420  -30.6920 N   0  0  0  0  0  0  0  0  0  0  0  0
   -5.6170   25.1670  -30.5880 C   0  0  0  0  0  0  0  0  0  0  0  0
   -6.7940   24.4770  -30.8870 C   0  0  0  0  0  0  0  0  0  0  0  0
   -6.6700   23.1410  -31.2450 C   0  0  0  0  0  0  0  0  0  0  0  0
   -7.6390   22.2180  -31.5520 C   0  0  0  0  0  0  0  0  0  0  0  0
   -9.0260   22.3320  -31.6320 C   0  0  0  0  0  0  0  0  0  0  0  0
   -9.7580   21.1820  -31.9690 C   0  0  0  0  0  0  0  0  0  0  0  0
   -9.0980   19.9610  -32.2140 C   0  0  0  0  0  0  0  0  0  0  0  0
   -7.6970   19.8740  -32.1210 C   0  0  0  0  0  0  0  0  0  0  0  0
   -6.9810   21.0320  -31.7840 C   0  0  0  0  0  0  0  0  0  0  0  0
   -5.6370   21.1690  -31.6260 N   0  0  0  0  0  0  0  0  0  0  0  0
   -4.6730   20.0650  -31.7100 C   0  0  0  0  0  0  0  0  0  0  0  0
   -4.0530   19.9970  -33.1050 C   0  0  0  0  0  0  0  0  0  0  0  0
   -5.4470   22.4920  -31.3190 C   0  0  0  0  0  0  0  0  0  0  0  0
   -4.3018   18.4635  -25.3036 H   0  0  0  0  0  0  0  0  0  0  0  0
   -4.4707   19.3609  -26.8505 H   0  0  0  0  0  0  0  0  0  0  0  0
   -3.8252   17.6846  -26.8505 H   0  0  0  0  0  0  0  0  0  0  0  0
   -2.5037   20.2133  -25.7621 H   0  0  0  0  0  0  0  0  0  0  0  0
   -1.9134   18.5209  -25.4289 H   0  0  0  0  0  0  0  0  0  0  0  0
   -0.6545   18.7340  -27.2532 H   0  0  0  0  0  0  0  0  0  0  0  0
   -2.2408   18.6091  -28.1762 H   0  0  0  0  0  0  0  0  0  0  0  0
   -2.3580   20.9330  -28.2790 H   0  0  0  0  0  0  0  0  0  0  0  0
    0.4527   20.4498  -28.9986 H   0  0  0  0  0  0  0  0  0  0  0  0
   -0.9184   19.6674  -29.9001 H   0  0  0  0  0  0  0  0  0  0  0  0
   -0.0980   22.5666  -29.7734 H   0  0  0  0  0  0  0  0  0  0  0  0
   -0.6493   21.5643  -31.1707 H   0  0  0  0  0  0  0  0  0  0  0  0
   -3.2419   23.9138  -29.0327 H   0  0  0  0  0  0  0  0  0  0  0  0
   -2.2776   22.8911  -27.9100 H   0  0  0  0  0  0  0  0  0  0  0  0
   -0.4225   24.1628  -28.1936 H   0  0  0  0  0  0  0  0  0  0  0  0
   -0.6166   24.1694  -29.9847 H   0  0  0  0  0  0  0  0  0  0  0  0
   -1.5924   25.6664  -26.9138 H   0  0  0  0  0  0  0  0  0  0  0  0
   -0.1238   26.3457  -27.6937 H   0  0  0  0  0  0  0  0  0  0  0  0
   -1.6559   27.2833  -27.6937 H   0  0  0  0  0  0  0  0  0  0  0  0
   -2.2355   23.4396  -31.7269 H   0  0  0  0  0  0  0  0  0  0  0  0
   -2.9483   21.7481  -31.8001 H   0  0  0  0  0  0  0  0  0  0  0  0
   -5.6644   26.2182  -30.2675 H   0  0  0  0  0  0  0  0  0  0  0  0
   -7.7761   24.9702  -30.8409 H   0  0  0  0  0  0  0  0  0  0  0  0
   -9.5300   23.2903  -31.4377 H   0  0  0  0  0  0  0  0  0  0  0  0
  -10.8543   21.2345  -32.0423 H   0  0  0  0  0  0  0  0  0  0  0  0
   -9.6833   19.0685  -32.4802 H   0  0  0  0  0  0  0  0  0  0  0  0
   -7.1768   18.9229  -32.3076 H   0  0  0  0  0  0  0  0  0  0  0  0
   -3.8767   20.2232  -30.9678 H   0  0  0  0  0  0  0  0  0  0  0  0
   -5.1983   19.1196  -31.5090 H   0  0  0  0  0  0  0  0  0  0  0  0
   -2.9631   19.8775  -33.0164 H   0  0  0  0  0  0  0  0  0  0  0  0
   -4.4727   19.1395  -33.6514 H   0  0  0  0  0  0  0  0  0  0  0  0
   -4.2769   20.9251  -33.6514 H   0  0  0  0  0  0  0  0  0  0  0  0
  1  2  1  0
  2  3  1  0
  3  4  1  0
  4  5  1  0
  5  6  1  0
  6  7  1  0
  7  8  1  0
  8  9  1  0
  9 10  1  0
 10 11  1  0
  7 12  1  0
 12 13  1  0
 13 14  2  0
 14 15  1  0
 15 16  2  0
 16 17  1  0
 17 18  1  0
 18 19  2  0
 19 20  1  0
 20 21  2  0
 21 22  1  0
 22 23  2  0
 23 24  1  0
 24 25  1  0
 25 26  1  0
 24 27  1  0
 27 13  1  0
 27 17  2  0
 23 18  1  0
  1 28  1  0
  1 29  1  0
  1 30  1  0
  2 31  1  0
  2 32  1  0
  3 33  1  0
  3 34  1  0
  4 35  1  0
  5 36  1  0
  5 37  1  0
  6 38  1  0
  6 39  1  0
  8 40  1  0
  8 41  1  0
  9 42  1  0
  9 43  1  0
 11 44  1  0
 11 45  1  0
 11 46  1  0
 12 47  1  0
 12 48  1  0
 15 49  1  0
 16 50  1  0
 19 51  1  0
 20 52  1  0
 21 53  1  0
 22 54  1  0
 25 55  1  0
 25 56  1  0
 26 57  1  0
 26 58  1  0
 26 59  1  0
M  END
>  <UniqueID>  (41) 
39

>  <SMILES>  (41) 
CCCNCCN(CCOC)Cc1nccc2c3ccccc3n(CC)c12

>  <Energy>  (41) 
110.15355875105492

>  <Genealogy>  (41) 
CCCNCCN(CCOC)Cc1nccc2c3ccccc3n(CC)c12 (3D coordinates assigned)
CCCNCCN(CCOC)Cc1nccc2c3ccccc3n(CC)c12 (optimized conformer: 110.15355875105492 kcal/mol)

>  <smiles>  (41) 
CCCNCCN(CCOC)Cc1nccc2c3ccccc3n(CC)c12

>  <score_type>  (41) 
oracle

>  <origin>  (41) 
adg

>  <m_score__min__energy>  (41) 
-8.6500000000000004

>  <m_primary>  (41) 
energy

$$$$
41:0
     RDKit          3D

 19 20  0  0  0  0  0  0  0  0999 V2000
   -9.2810   21.9340  -31.6000 C   0  0  0  0  0  0  0  0  0  0  0  0
   -7.8500   21.8260  -31.8490 N   0  0  0  0  0  0  0  0  0  0  0  0
   -7.1760   20.7340  -32.5630 C   0  0  0  0  0  0  0  0  0  0  0  0
   -5.7510   21.0840  -32.5480 N   0  0  0  0  0  0  0  0  0  0  0  0
   -5.6330   22.3160  -31.8570 C   0  0  0  0  0  0  0  0  0  0  0  0
   -4.4820   23.0490  -31.5870 C   0  0  0  0  0  0  0  0  0  0  0  0
   -4.6110   24.2210  -30.8970 N   0  0  0  0  0  0  0  0  0  0  0  0
   -5.8310   24.6820  -30.4750 C   0  0  0  0  0  0  0  0  0  0  0  0
   -6.9990   23.9460  -30.7440 C   0  0  0  0  0  0  0  0  0  0  0  0
   -6.8520   22.7530  -31.4480 C   0  0  0  0  0  0  0  0  0  0  0  0
   -9.4644   21.9478  -30.5155 H   0  0  0  0  0  0  0  0  0  0  0  0
   -9.6621   22.8635  -32.0482 H   0  0  0  0  0  0  0  0  0  0  0  0
   -9.7972   21.0723  -32.0482 H   0  0  0  0  0  0  0  0  0  0  0  0
   -7.3431   19.7762  -32.0485 H   0  0  0  0  0  0  0  0  0  0  0  0
   -7.5588   20.6157  -33.5874 H   0  0  0  0  0  0  0  0  0  0  0  0
   -4.9720   20.5300  -32.9670 H   0  0  0  0  0  0  0  0  0  0  0  0
   -3.4952   22.6948  -31.9199 H   0  0  0  0  0  0  0  0  0  0  0  0
   -5.8968   25.6316  -29.9236 H   0  0  0  0  0  0  0  0  0  0  0  0
   -7.9871   24.2977  -30.4124 H   0  0  0  0  0  0  0  0  0  0  0  0
  1  2  1  0
  2  3  1  0
  3  4  1  0
  4  5  1  0
  5  6  2  0
  6  7  1  0
  7  8  2  0
  8  9  1  0
  9 10  2  0
 10  2  1  0
 10  5  1  0
  1 11  1  0
  1 12  1  0
  1 13  1  0
  3 14  1  0
  3 15  1  0
  4 16  1  0
  6 17  1  0
  8 18  1  0
  9 19  1  0
M  END
>  <UniqueID>  (42) 
40

>  <SMILES>  (42) 
CN1CNc2cnccc21

>  <Energy>  (42) 
41.984829035549936

>  <Genealogy>  (42) 
CN1CNc2cnccc21 (3D coordinates assigned)
CN1CNc2cnccc21 (nonaromatic ring conformer: 41.984829035549936 kcal/mol)

>  <smiles>  (42) 
CN1CNc2cnccc21

>  <score_type>  (42) 
oracle

>  <origin>  (42) 
adg

>  <m_score__min__energy>  (42) 
-4.2000000000000002

>  <m_primary>  (42) 
energy

$$$$
42:0
     RDKit          3D

 27 28  0  0  0  0  0  0  0  0999 V2000
   -3.7560   23.4170  -31.2020 O   0  0  0  0  0  0  0  0  0  0  0  0
   -4.4100   24.3890  -30.7410 C   0  0  0  0  0  0  0  0  0  0  0  0
   -3.8910   25.6740  -30.8370 O   0  0  0  0  0  0  0  0  0  0  0  0
   -5.7600   24.1710  -30.1420 C   0  0  0  0  0  0  0  0  0  0  0  0
   -6.4910   23.0960  -30.8970 C   0  0  0  0  0  0  0  0  0  0  0  0
   -7.8930   23.0840  -30.9230 C   0  0  0  0  0  0  0  0  0  0  0  0
   -8.5560   22.1040  -31.6570 C   0  0  0  0  0  0  0  0  0  0  0  0
   -7.8250   21.1520  -32.3660 C   0  0  0  0  0  0  0  0  0  0  0  0
   -6.4210   21.1910  -32.3370 C   0  0  0  0  0  0  0  0  0  0  0  0
   -5.6260   20.1840  -33.0850 C   0  0  0  0  0  0  0  0  0  0  0  0
   -4.2190   20.2340  -33.0840 C   0  0  0  0  0  0  0  0  0  0  0  0
   -3.4770   19.2800  -33.7890 C   0  0  0  0  0  0  0  0  0  0  0  0
   -4.1290   18.2710  -34.5010 C   0  0  0  0  0  0  0  0  0  0  0  0
   -5.5240   18.2120  -34.5080 C   0  0  0  0  0  0  0  0  0  0  0  0
   -6.2710   19.1610  -33.8050 C   0  0  0  0  0  0  0  0  0  0  0  0
   -5.7930   22.1630  -31.6080 N   0  0  0  0  0  0  0  0  0  0  0  0
   -5.6471   23.8655  -29.0913 H   0  0  0  0  0  0  0  0  0  0  0  0
   -6.3354   25.1068  -30.1992 H   0  0  0  0  0  0  0  0  0  0  0  0
   -8.4644   23.8426  -30.3680 H   0  0  0  0  0  0  0  0  0  0  0  0
   -9.6556   22.0810  -31.6774 H   0  0  0  0  0  0  0  0  0  0  0  0
   -8.3447   20.3744  -32.9450 H   0  0  0  0  0  0  0  0  0  0  0  0
   -3.7002   21.0274  -32.5259 H   0  0  0  0  0  0  0  0  0  0  0  0
   -2.3779   19.3249  -33.7824 H   0  0  0  0  0  0  0  0  0  0  0  0
   -3.5438   17.5230  -35.0561 H   0  0  0  0  0  0  0  0  0  0  0  0
   -6.0365   17.4162  -35.0685 H   0  0  0  0  0  0  0  0  0  0  0  0
   -7.3697   19.1082  -33.8144 H   0  0  0  0  0  0  0  0  0  0  0  0
   -4.7480   22.2130  -31.6090 H   0  0  0  0  0  0  0  0  0  0  0  0
  1  2  2  0
  2  3  1  0
  2  4  1  0
  4  5  1  0
  5  6  2  0
  6  7  1  0
  7  8  2  0
  8  9  1  0
  9 10  1  0
 10 11  2  0
 11 12  1  0
 12 13  2  0
 13 14  1  0
 14 15  2  0
  9 16  2  0
 16  5  1  0
 15 10  1  0
  4 17  1  0
  4 18  1  0
  6 19  1  0
  7 20  1  0
  8 21  1  0
 11 22  1  0
 12 23  1  0
 13 24  1  0
 14 25  1  0
 15 26  1  0
 16 27  1  0
M  CHG  2   3  -1  16   1
M  END
>  <UniqueID>  (43) 
41

>  <SMILES>  (43) 
O=C([O-])Cc1cccc(-c2ccccc2)[nH+]1

>  <Energy>  (43) 
30.802634451818815

>  <Genealogy>  (43) 
O=C([O-])Cc1cccc(-c2ccccc2)[nH+]1 (protonated)
O=C([O-])Cc1cccc(-c2ccccc2)[nH+]1 (3D coordinates assigned)
O=C([O-])Cc1cccc(-c2ccccc2)[nH+]1 (optimized conformer: 30.802634451818815 kcal/mol)

>  <smiles>  (43) 
O=C(O)Cc1cccc(-c2ccccc2)n1

>  <score_type>  (43) 
oracle

>  <origin>  (43) 
adg

>  <m_score__min__energy>  (43) 
-7.8799999999999999

>  <m_primary>  (43) 
energy

$$$$
43:0
     RDKit          3D

 34 37  0  0  0  0  0  0  0  0999 V2000
   -6.5570   19.7750  -33.4980 C   0  0  0  0  0  0  0  0  0  0  0  0
   -5.5920   20.8200  -33.4350 O   0  0  0  0  0  0  0  0  0  0  0  0
   -5.6100   21.8700  -32.5010 C   0  0  0  0  0  0  0  0  0  0  0  0
   -6.7470   22.6840  -32.3250 C   0  0  0  0  0  0  0  0  0  0  0  0
   -6.7440   23.7230  -31.3900 C   0  0  0  0  0  0  0  0  0  0  0  0
   -5.6130   23.9710  -30.6130 C   0  0  0  0  0  0  0  0  0  0  0  0
   -4.4740   23.1740  -30.7710 C   0  0  0  0  0  0  0  0  0  0  0  0
   -4.4610   22.1120  -31.7200 C   0  0  0  0  0  0  0  0  0  0  0  0
   -3.3300   21.3360  -31.8620 N   0  0  0  0  0  0  0  0  0  0  0  0
   -2.2060   21.5550  -31.1140 C   0  0  0  0  0  0  0  0  0  0  0  0
   -2.2200   22.5910  -30.1900 C   0  0  0  0  0  0  0  0  0  0  0  0
   -1.2390   22.9730  -29.3610 N   0  0  0  0  0  0  0  0  0  0  0  0
   -1.7990   24.0210  -28.6990 C   0  0  0  0  0  0  0  0  0  0  0  0
   -1.0970   24.7820  -27.6350 C   0  0  0  0  0  0  0  0  0  0  0  0
   -0.8400   26.1580  -27.8220 C   0  0  0  0  0  0  0  0  0  0  0  0
   -1.2410   26.7970  -28.9510 F   0  0  0  0  0  0  0  0  0  0  0  0
   -0.1920   26.8990  -26.8300 C   0  0  0  0  0  0  0  0  0  0  0  0
    0.2120   26.2860  -25.6450 C   0  0  0  0  0  0  0  0  0  0  0  0
   -0.0260   24.9260  -25.4480 C   0  0  0  0  0  0  0  0  0  0  0  0
   -0.6740   24.1670  -26.4310 C   0  0  0  0  0  0  0  0  0  0  0  0
   -0.8650   22.4430  -26.1240 Cl  0  0  0  0  0  0  0  0  0  0  0  0
   -3.0770   24.2940  -29.0770 N   0  0  0  0  0  0  0  0  0  0  0  0
   -3.3130   23.3730  -30.0240 C   0  0  0  0  0  0  0  0  0  0  0  0
   -6.8366   19.4722  -32.4781 H   0  0  0  0  0  0  0  0  0  0  0  0
   -7.4498   20.1321  -34.0323 H   0  0  0  0  0  0  0  0  0  0  0  0
   -6.1301   18.9134  -34.0323 H   0  0  0  0  0  0  0  0  0  0  0  0
   -7.6468   22.4996  -32.9302 H   0  0  0  0  0  0  0  0  0  0  0  0
   -7.6398   24.3492  -31.2663 H   0  0  0  0  0  0  0  0  0  0  0  0
   -5.6163   24.7900  -29.8787 H   0  0  0  0  0  0  0  0  0  0  0  0
   -3.3070   20.5530  -32.5540 H   0  0  0  0  0  0  0  0  0  0  0  0
   -1.3129   20.9257  -31.2415 H   0  0  0  0  0  0  0  0  0  0  0  0
    0.0001   27.9709  -26.9850 H   0  0  0  0  0  0  0  0  0  0  0  0
    0.7182   26.8746  -24.8657 H   0  0  0  0  0  0  0  0  0  0  0  0
    0.2978   24.4454  -24.5130 H   0  0  0  0  0  0  0  0  0  0  0  0
  1  2  1  0
  2  3  1  0
  3  4  2  0
  4  5  1  0
  5  6  2  0
  6  7  1  0
  7  8  2  0
  8  9  1  0
  9 10  2  0
 10 11  1  0
 11 12  1  0
 12 13  1  0
 13 14  1  0
 14 15  2  0
 15 16  1  0
 15 17  1  0
 17 18  2  0
 18 19  1  0
 19 20  2  0
 20 21  1  0
 13 22  2  0
 22 23  1  0
  8  3  1  0
 23 11  2  0
 23  7  1  0
 20 14  1  0
  1 24  1  0
  1 25  1  0
  1 26  1  0
  4 27  1  0
  5 28  1  0
  6 29  1  0
  9 30  1  0
 10 31  1  0
 17 32  1  0
 18 33  1  0
 19 34  1  0
M  CHG  2   9   1  12  -1
M  END
>  <UniqueID>  (44) 
42

>  <SMILES>  (44) 
COc1cccc2c1[nH+]cc1[n-]c(-c3c(F)cccc3Cl)nc12

>  <Energy>  (44) 
83.15127793897265

>  <Genealogy>  (44) 
COc1cccc2c1[nH+]cc1[n-]c(-c3c(F)cccc3Cl)nc12 (protonated)
COc1cccc2c1[nH+]cc1[n-]c(-c3c(F)cccc3Cl)nc12 (3D coordinates assigned)
COc1cccc2c1[nH+]cc1[n-]c(-c3c(F)cccc3Cl)nc12 (optimized conformer: 83.15127793897265 kcal/mol)

>  <smiles>  (44) 
COc1cccc2c1ncc1[nH]c(-c3c(F)cccc3Cl)nc12

>  <score_type>  (44) 
oracle

>  <origin>  (44) 
adg

>  <m_score__min__energy>  (44) 
-6.8099999999999996

>  <m_primary>  (44) 
energy

$$$$
44:0
     RDKit          3D

 38 41  0  0  0  0  0  0  0  0999 V2000
    0.3120   26.2450  -27.0540 C   0  0  0  0  0  0  0  0  0  0  0  0
   -0.3760   25.3300  -27.9530 N   0  0  0  0  0  0  0  0  0  0  0  0
   -1.7020   25.2930  -28.1750 C   0  0  0  0  0  0  0  0  0  0  0  0
   -1.9670   24.2430  -29.0370 C   0  0  0  0  0  0  0  0  0  0  0  0
   -3.2870   23.8140  -29.5690 C   0  0  0  0  0  0  0  0  0  0  0  0
   -3.3730   23.0580  -30.7530 C   0  0  0  0  0  0  0  0  0  0  0  0
   -4.6140   22.6540  -31.2510 C   0  0  0  0  0  0  0  0  0  0  0  0
   -5.7940   22.9830  -30.5700 C   0  0  0  0  0  0  0  0  0  0  0  0
   -7.0980   22.5620  -31.1160 C   0  0  0  0  0  0  0  0  0  0  0  0
   -8.0540   23.4350  -31.4980 N   0  0  0  0  0  0  0  0  0  0  0  0
   -9.0520   22.7260  -32.0080 N   0  0  0  0  0  0  0  0  0  0  0  0
   -8.6780   21.4350  -31.9430 C   0  0  0  0  0  0  0  0  0  0  0  0
   -7.4730   21.2890  -31.3650 N   0  0  0  0  0  0  0  0  0  0  0  0
   -6.6780   20.0580  -31.3740 C   0  0  0  0  0  0  0  0  0  0  0  0
   -7.5860   18.8330  -31.5840 C   0  0  0  0  0  0  0  0  0  0  0  0
   -8.5860   19.0760  -32.7270 C   0  0  0  0  0  0  0  0  0  0  0  0
   -9.4950   20.2790  -32.4310 C   0  0  0  0  0  0  0  0  0  0  0  0
   -5.7170   23.7570  -29.4030 C   0  0  0  0  0  0  0  0  0  0  0  0
   -4.4770   24.1630  -28.9040 C   0  0  0  0  0  0  0  0  0  0  0  0
   -0.7240   23.6740  -29.2870 C   0  0  0  0  0  0  0  0  0  0  0  0
    0.2230   24.3490  -28.6080 N   0  0  0  0  0  0  0  0  0  0  0  0
    0.1004   25.9635  -26.0119 H   0  0  0  0  0  0  0  0  0  0  0  0
    1.3956   26.1917  -27.2354 H   0  0  0  0  0  0  0  0  0  0  0  0
   -0.0401   27.2712  -27.2354 H   0  0  0  0  0  0  0  0  0  0  0  0
   -2.4472   25.9788  -27.7456 H   0  0  0  0  0  0  0  0  0  0  0  0
   -2.4542   22.7826  -31.2914 H   0  0  0  0  0  0  0  0  0  0  0  0
   -4.6655   22.0737  -32.1840 H   0  0  0  0  0  0  0  0  0  0  0  0
   -5.9424   20.1078  -32.1903 H   0  0  0  0  0  0  0  0  0  0  0  0
   -6.1639   19.9588  -30.4066 H   0  0  0  0  0  0  0  0  0  0  0  0
   -6.9622   17.9614  -31.8313 H   0  0  0  0  0  0  0  0  0  0  0  0
   -8.1507   18.6531  -30.6573 H   0  0  0  0  0  0  0  0  0  0  0  0
   -8.0283   19.2688  -33.6554 H   0  0  0  0  0  0  0  0  0  0  0  0
   -9.2182   18.1817  -32.8296 H   0  0  0  0  0  0  0  0  0  0  0  0
  -10.0239   20.5700  -33.3505 H   0  0  0  0  0  0  0  0  0  0  0  0
  -10.2210   19.9984  -31.6538 H   0  0  0  0  0  0  0  0  0  0  0  0
   -6.6389   24.0462  -28.8773 H   0  0  0  0  0  0  0  0  0  0  0  0
   -4.4304   24.7614  -27.9822 H   0  0  0  0  0  0  0  0  0  0  0  0
   -0.5419   22.8066  -29.9386 H   0  0  0  0  0  0  0  0  0  0  0  0
  1  2  1  0
  2  3  1  0
  3  4  2  0
  4  5  1  0
  5  6  2  0
  6  7  1  0
  7  8  2  0
  8  9  1  0
  9 10  2  0
 10 11  1  0
 11 12  2  0
 12 13  1  0
 13 14  1  0
 14 15  1  0
 15 16  1  0
 16 17  1  0
  8 18  1  0
 18 19  2  0
  4 20  1  0
 20 21  2  0
 21  2  1  0
 19  5  1  0
 13  9  1  0
 17 12  1  0
  1 22  1  0
  1 23  1  0
  1 24  1  0
  3 25  1  0
  6 26  1  0
  7 27  1  0
 14 28  1  0
 14 29  1  0
 15 30  1  0
 15 31  1  0
 16 32  1  0
 16 33  1  0
 17 34  1  0
 17 35  1  0
 18 36  1  0
 19 37  1  0
 20 38  1  0
M  END
>  <UniqueID>  (45) 
43

>  <SMILES>  (45) 
Cn1cc(-c2ccc(-c3nnc4n3CCCC4)cc2)cn1

>  <Energy>  (45) 
110.89489254194456

>  <Genealogy>  (45) 
Cn1cc(-c2ccc(-c3nnc4n3CCCC4)cc2)cn1 (3D coordinates assigned)
Cn1cc(-c2ccc(-c3nnc4n3CCCC4)cc2)cn1 (nonaromatic ring conformer: 110.89489254194456 kcal/mol)

>  <smiles>  (45) 
Cn1cc(-c2ccc(-c3nnc4n3CCCC4)cc2)cn1

>  <score_type>  (45) 
oracle

>  <origin>  (45) 
adg

>  <m_score__min__energy>  (45) 
-7.71

>  <m_primary>  (45) 
energy

$$$$
45:0
     RDKit          3D

 32 34  0  0  0  0  0  0  0  0999 V2000
    1.0577   22.4171  -25.1543 H   0  0  0  0  0  0  0  0  0  0  0  0
    0.2610   22.6410  -25.8790 C   0  0  0  0  0  0  0  0  0  0  0  0
    0.3670   23.7190  -26.7000 N   0  0  0  0  0  0  0  0  0  0  0  0
   -0.6090   24.0080  -27.6000 C   0  0  0  0  0  0  0  0  0  0  0  0
   -0.4960   25.0830  -28.4190 N   0  0  0  0  0  0  0  0  0  0  0  0
   -1.4480   25.3780  -29.3070 N   0  0  0  0  0  0  0  0  0  0  0  0
   -2.5770   24.6230  -29.4300 C   0  0  0  0  0  0  0  0  0  0  0  0
   -3.4890   24.9040  -30.3160 N   0  0  0  0  0  0  0  0  0  0  0  0
   -4.6870   24.1570  -30.5890 C   0  0  0  0  0  0  0  0  0  0  0  0
   -4.6930   23.0440  -31.4510 C   0  0  0  0  0  0  0  0  0  0  0  0
   -3.7551   22.7058  -31.9157 H   0  0  0  0  0  0  0  0  0  0  0  0
   -5.8880   22.3660  -31.7190 C   0  0  0  0  0  0  0  0  0  0  0  0
   -5.8838   21.4900  -32.3843 H   0  0  0  0  0  0  0  0  0  0  0  0
   -7.0890   22.7990  -31.1430 C   0  0  0  0  0  0  0  0  0  0  0  0
   -8.5940   21.9570  -31.4960 S   0  0  0  0  0  0  0  0  0  0  0  0
   -9.3070   21.6310  -30.2140 O   0  0  0  0  0  0  0  0  0  0  0  0
   -9.4820   22.8320  -32.3340 O   0  0  0  0  0  0  0  0  0  0  0  0
   -8.2370   20.4540  -32.3770 C   0  0  0  0  0  0  0  0  0  0  0  0
   -8.0447   19.6443  -31.6578 H   0  0  0  0  0  0  0  0  0  0  0  0
   -9.0966   20.1865  -33.0091 H   0  0  0  0  0  0  0  0  0  0  0  0
   -7.3489   20.6016  -33.0091 H   0  0  0  0  0  0  0  0  0  0  0  0
   -7.0910   23.9300  -30.3160 C   0  0  0  0  0  0  0  0  0  0  0  0
   -8.0342   24.2855  -29.8755 H   0  0  0  0  0  0  0  0  0  0  0  0
   -5.8980   24.6080  -30.0490 C   0  0  0  0  0  0  0  0  0  0  0  0
   -5.9105   25.5030  -29.4096 H   0  0  0  0  0  0  0  0  0  0  0  0
   -2.7360   23.4950  -28.6170 C   0  0  0  0  0  0  0  0  0  0  0  0
   -3.6307   22.8619  -28.7106 H   0  0  0  0  0  0  0  0  0  0  0  0
   -1.7430   23.1840  -27.6850 C   0  0  0  0  0  0  0  0  0  0  0  0
   -1.8480   22.1020  -26.8610 N   0  0  0  0  0  0  0  0  0  0  0  0
   -2.6840   21.4780  -26.9120 H   0  0  0  0  0  0  0  0  0  0  0  0
   -0.8670   21.8180  -25.9610 C   0  0  0  0  0  0  0  0  0  0  0  0
   -0.9611   20.9437  -25.3001 H   0  0  0  0  0  0  0  0  0  0  0  0
  1  2  1  0
  2  3  2  0
  3  4  1  0
  4  5  2  0
  5  6  1  0
  6  7  1  0
  7  8  2  0
  8  9  1  0
  9 10  2  0
 10 11  1  0
 10 12  1  0
 12 13  1  0
 12 14  2  0
 14 15  1  0
 15 16  2  0
 15 17  2  0
 15 18  1  0
 18 19  1  0
 18 20  1  0
 18 21  1  0
 14 22  1  0
 22 23  1  0
 22 24  2  0
 24 25  1  0
  7 26  1  0
 26 27  1  0
 26 28  2  0
 28 29  1  0
 29 30  1  0
 29 31  2  0
 31 32  1  0
 31  2  1  0
 28  4  1  0
 24  9  1  0
M  CHG  2   6  -1  29   1
M  END
>  <UniqueID>  (46) 
44

>  <SMILES>  (46) 
CS(=O)(=O)c1ccc(/N=c2/cc3[nH+]ccnc3n[n-]2)cc1

>  <Energy>  (46) 
43.55274210829469

>  <Genealogy>  (46) 
CS(=O)(=O)c1ccc(N=c2cc3[nH+]ccnc3n[n-]2)cc1 (protonated)
CS(=O)(=O)c1ccc(/N=c2/cc3[nH+]ccnc3n[n-]2)cc1 (cis-trans isomerization)
CS(=O)(=O)c1ccc(/N=c2/cc3[nH+]ccnc3n[n-]2)cc1 (3D coordinates assigned)
CS(=O)(=O)c1ccc(/N=c2/cc3[nH+]ccnc3n[n-]2)cc1 (optimized conformer: 43.55274210829469 kcal/mol)

>  <smiles>  (46) 
CS(=O)(=O)c1ccc(N=c2cc3nccnc3n[nH]2)cc1

>  <score_type>  (46) 
oracle

>  <origin>  (46) 
adg

>  <m_score__min__energy>  (46) 
-8.6400000000000006

>  <m_primary>  (46) 
energy

$$$$
46:0
     RDKit          3D

 45 46  0  0  0  0  0  0  0  0999 V2000
   -6.0970   23.4890  -32.2850 C   0  0  0  0  0  0  0  0  0  0  0  0
   -6.8130   23.7130  -30.9460 C   0  0  0  0  0  0  0  0  0  0  0  0
   -7.6010   22.4620  -30.5330 C   0  0  0  0  0  0  0  0  0  0  0  0
   -5.8400   24.1810  -29.8420 C   0  0  0  0  0  0  0  0  0  0  0  0
   -4.9100   25.2680  -30.2940 C   0  0  0  0  0  0  0  0  0  0  0  0
   -5.3520   26.4330  -30.4760 O   0  0  0  0  0  0  0  0  0  0  0  0
   -3.5210   24.9700  -30.4770 N   0  0  0  0  0  0  0  0  0  0  0  0
   -2.8490   23.7290  -30.2120 C   0  0  0  0  0  0  0  0  0  0  0  0
   -2.8930   22.6550  -31.1200 C   0  0  0  0  0  0  0  0  0  0  0  0
   -2.2150   21.4660  -30.8410 C   0  0  0  0  0  0  0  0  0  0  0  0
   -1.4970   21.3310  -29.6510 C   0  0  0  0  0  0  0  0  0  0  0  0
   -1.4720   22.3790  -28.7290 C   0  0  0  0  0  0  0  0  0  0  0  0
   -2.1590   23.5740  -28.9930 C   0  0  0  0  0  0  0  0  0  0  0  0
   -2.1380   24.6400  -28.0280 N   0  0  0  0  0  0  0  0  0  0  0  0
   -3.1190   24.6610  -26.9410 C   0  0  0  0  0  0  0  0  0  0  0  0
   -2.7100   25.6760  -25.8610 C   0  0  0  0  0  0  0  0  0  0  0  0
   -1.2460   25.6860  -25.6360 N   0  0  0  0  0  0  0  0  0  0  0  0
   -0.7780   24.4100  -25.0580 C   0  0  0  0  0  0  0  0  0  0  0  0
   -0.4730   26.0470  -26.8580 C   0  0  0  0  0  0  0  0  0  0  0  0
   -1.2130   25.7650  -28.1810 C   0  0  0  0  0  0  0  0  0  0  0  0
   -5.0625   23.1653  -32.0980 H   0  0  0  0  0  0  0  0  0  0  0  0
   -6.6259   22.7134  -32.8583 H   0  0  0  0  0  0  0  0  0  0  0  0
   -6.0895   24.4277  -32.8583 H   0  0  0  0  0  0  0  0  0  0  0  0
   -7.5370   24.5295  -31.0845 H   0  0  0  0  0  0  0  0  0  0  0  0
   -7.6405   22.3993  -29.4355 H   0  0  0  0  0  0  0  0  0  0  0  0
   -8.6235   22.5238  -30.9338 H   0  0  0  0  0  0  0  0  0  0  0  0
   -7.1036   21.5665  -30.9338 H   0  0  0  0  0  0  0  0  0  0  0  0
   -6.4297   24.5565  -28.9928 H   0  0  0  0  0  0  0  0  0  0  0  0
   -5.2202   23.3155  -29.5650 H   0  0  0  0  0  0  0  0  0  0  0  0
   -3.4645   22.7522  -32.0548 H   0  0  0  0  0  0  0  0  0  0  0  0
   -2.2468   20.6343  -31.5602 H   0  0  0  0  0  0  0  0  0  0  0  0
   -0.9514   20.3994  -29.4402 H   0  0  0  0  0  0  0  0  0  0  0  0
   -0.9104   22.2674  -27.7898 H   0  0  0  0  0  0  0  0  0  0  0  0
   -4.1021   24.9417  -27.3469 H   0  0  0  0  0  0  0  0  0  0  0  0
   -3.1659   23.6602  -26.4869 H   0  0  0  0  0  0  0  0  0  0  0  0
   -3.0275   26.6801  -26.1787 H   0  0  0  0  0  0  0  0  0  0  0  0
   -3.1970   25.3847  -24.9186 H   0  0  0  0  0  0  0  0  0  0  0  0
   -1.0570   26.4210  -24.9130 H   0  0  0  0  0  0  0  0  0  0  0  0
   -0.8016   24.4743  -23.9601 H   0  0  0  0  0  0  0  0  0  0  0  0
   -1.4352   23.5934  -25.3917 H   0  0  0  0  0  0  0  0  0  0  0  0
    0.2513   24.2120  -25.3917 H   0  0  0  0  0  0  0  0  0  0  0  0
   -0.2414   27.1215  -26.8147 H   0  0  0  0  0  0  0  0  0  0  0  0
    0.4281   25.4162  -26.8595 H   0  0  0  0  0  0  0  0  0  0  0  0
   -1.7796   26.6606  -28.4757 H   0  0  0  0  0  0  0  0  0  0  0  0
   -0.4719   25.5106  -28.9530 H   0  0  0  0  0  0  0  0  0  0  0  0
  1  2  1  0
  2  3  1  0
  2  4  1  0
  4  5  1  0
  5  6  2  0
  5  7  1  0
  7  8  1  0
  8  9  2  0
  9 10  1  0
 10 11  2  0
 11 12  1  0
 12 13  2  0
 13 14  1  0
 14 15  1  0
 15 16  1  0
 16 17  1  0
 17 18  1  0
 17 19  1  0
 19 20  1  0
 13  8  1  0
 20 14  1  0
  1 21  1  0
  1 22  1  0
  1 23  1  0
  2 24  1  0
  3 25  1  0
  3 26  1  0
  3 27  1  0
  4 28  1  0
  4 29  1  0
  9 30  1  0
 10 31  1  0
 11 32  1  0
 12 33  1  0
 15 34  1  0
 15 35  1  0
 16 36  1  0
 16 37  1  0
 17 38  1  0
 18 39  1  0
 18 40  1  0
 18 41  1  0
 19 42  1  0
 19 43  1  0
 20 44  1  0
 20 45  1  0
M  CHG  2   7  -1  17   1
M  END
>  <UniqueID>  (47) 
45

>  <SMILES>  (47) 
CC(C)CC(=O)[N-]c1ccccc1N1CC[NH+](C)CC1

>  <Energy>  (47) 
51.405846987273094

>  <Genealogy>  (47) 
CC(C)CC(=O)[N-]c1ccccc1N1CC[NH+](C)CC1 (protonated)
CC(C)CC(=O)[N-]c1ccccc1N1CC[NH+](C)CC1 (3D coordinates assigned)
CC(C)CC(=O)[N-]c1ccccc1N1CC[NH+](C)CC1 (nonaromatic ring conformer: 51.405846987273094 kcal/mol)

>  <smiles>  (47) 
CC(C)CC(=O)Nc1ccccc1N1CCN(C)CC1

>  <score_type>  (47) 
oracle

>  <origin>  (47) 
adg

>  <m_score__min__energy>  (47) 
-8.1500000000000004

>  <m_primary>  (47) 
energy

$$$$
47:0
     RDKit          3D

 29 31  0  0  1  0  0  0  0  0999 V2000
   -9.0800   19.6960  -32.1980 C   0  0  0  0  0  0  0  0  0  0  0  0
   -7.8550   19.1920  -32.5770 C   0  0  0  0  0  0  0  0  0  0  0  0
   -6.8020   20.0810  -32.6210 C   0  0  0  0  0  0  0  0  0  0  0  0
   -6.9240   21.4200  -32.3070 C   0  0  0  0  0  0  0  0  0  0  0  0
   -5.7490   22.2120  -32.3990 N   0  0  0  0  0  0  0  0  0  0  0  0
   -5.4680   23.1870  -31.6300 C   0  0  0  0  0  0  0  0  0  0  0  0
   -4.2400   23.2040  -30.9980 C   0  0  0  0  0  0  0  0  0  0  0  0
   -3.9610   24.2730  -30.1710 C   0  0  0  0  0  0  0  0  0  0  0  0
   -2.6950   24.2750  -29.5290 N   0  0  0  0  0  0  0  0  0  0  0  0
   -1.9100   23.1910  -29.3900 C   0  0  0  0  0  0  0  0  0  0  0  0
   -0.7620   23.5580  -28.7220 C   0  0  0  0  0  0  0  0  0  0  0  0
   -0.8830   24.9140  -28.4600 C   0  0  0  0  0  0  0  0  0  0  0  0
   -2.0580   25.2770  -28.9670 N   0  0  0  0  0  0  0  0  0  0  0  0
   -4.8740   25.2570  -30.0000 N   0  0  0  0  0  0  0  0  0  0  0  0
   -6.0530   25.1790  -30.6450 C   0  0  0  0  0  0  0  0  0  0  0  0
   -6.3800   24.1610  -31.4650 N   0  0  0  0  0  0  0  0  0  0  0  0
   -8.1510   21.9000  -31.9330 C   0  0  0  0  0  0  0  0  0  0  0  0
   -9.2210   21.0160  -31.8840 C   0  0  0  0  0  0  0  0  0  0  0  0
   -9.9524   19.0278  -32.1482 H   0  0  0  0  0  0  0  0  0  0  0  0
   -7.7232   18.1302  -32.8325 H   0  0  0  0  0  0  0  0  0  0  0  0
   -5.8134   19.7039  -32.9219 H   0  0  0  0  0  0  0  0  0  0  0  0
   -3.5106   22.3945  -31.1484 H   0  0  0  0  0  0  0  0  0  0  0  0
   -2.1458   22.1788  -29.7502 H   0  0  0  0  0  0  0  0  0  0  0  0
    0.0813   22.9058  -28.4510 H   0  0  0  0  0  0  0  0  0  0  0  0
   -0.1573   25.5569  -27.9403 H   0  0  0  0  0  0  0  0  0  0  0  0
   -4.6180   26.0450  -29.3630 H   0  0  0  0  0  0  0  0  0  0  0  0
   -6.7854   25.9859  -30.4953 H   0  0  0  0  0  0  0  0  0  0  0  0
   -8.2859   22.9613  -31.6773 H   0  0  0  0  0  0  0  0  0  0  0  0
  -10.2105   21.3909  -31.5834 H   0  0  0  0  0  0  0  0  0  0  0  0
  1  2  2  0
  2  3  1  0
  3  4  2  0
  4  5  1  0
  5  6  2  0
  6  7  1  0
  7  8  2  0
  8  9  1  0
  9 10  1  0
 10 11  2  0
 11 12  1  0
 12 13  2  0
  8 14  1  0
 14 15  1  0
 15 16  2  0
  4 17  1  0
 17 18  2  0
 18  1  1  0
 16  6  1  0
 13  9  1  0
  1 19  1  0
  2 20  1  0
  3 21  1  0
  7 22  1  0
 10 23  1  0
 11 24  1  0
 12 25  1  0
 14 26  1  0
 15 27  1  0
 17 28  1  0
 18 29  1  0
M  END
>  <smiles>  (48) 
c1ccc(N=c2cc(-n3cccn3)[nH]cn2)cc1

>  <score_type>  (48) 
oracle

>  <origin>  (48) 
adg

>  <m_score__min__energy>  (48) 
-7.2800000000000002

>  <m_primary>  (48) 
energy

$$$$
48:0
     RDKit          3D

 52 53  0  0  0  0  0  0  0  0999 V2000
   -2.2290   20.6760  -31.1640 C   0  0  0  0  0  0  0  0  0  0  0  0
   -3.6880   21.0340  -30.8540 C   0  0  0  0  0  0  0  0  0  0  0  0
   -4.1420   22.2410  -31.5990 N   0  0  0  0  0  0  0  0  0  0  0  0
   -4.2340   21.9430  -33.0540 C   0  0  0  0  0  0  0  0  0  0  0  0
   -4.9550   20.6180  -33.3320 C   0  0  0  0  0  0  0  0  0  0  0  0
   -5.4610   22.6940  -31.0800 C   0  0  0  0  0  0  0  0  0  0  0  0
   -5.6790   24.2070  -31.2990 C   0  0  0  0  0  0  0  0  0  0  0  0
   -4.9400   25.0440  -30.2530 C   0  0  0  0  0  0  0  0  0  0  0  0
   -3.5050   24.9310  -30.4660 N   0  0  0  0  0  0  0  0  0  0  0  0
   -2.6440   24.0930  -29.6900 C   0  0  0  0  0  0  0  0  0  0  0  0
   -1.7160   23.4480  -30.2480 O   0  0  0  0  0  0  0  0  0  0  0  0
   -2.8640   23.9530  -28.2030 C   0  0  0  0  0  0  0  0  0  0  0  0
   -2.4850   22.5620  -27.7170 C   0  0  0  0  0  0  0  0  0  0  0  0
   -3.4080   21.4960  -27.7610 C   0  0  0  0  0  0  0  0  0  0  0  0
   -3.0600   20.2390  -27.2590 C   0  0  0  0  0  0  0  0  0  0  0  0
   -1.7920   20.0280  -26.7140 C   0  0  0  0  0  0  0  0  0  0  0  0
   -0.8700   21.0760  -26.6630 C   0  0  0  0  0  0  0  0  0  0  0  0
   -1.2150   22.3380  -27.1560 C   0  0  0  0  0  0  0  0  0  0  0  0
   -2.1660   25.0290  -27.3890 C   0  0  0  0  0  0  0  0  0  0  0  0
   -2.5930   25.2710  -26.0710 C   0  0  0  0  0  0  0  0  0  0  0  0
   -1.9480   26.2240  -25.2770 C   0  0  0  0  0  0  0  0  0  0  0  0
   -0.8640   26.9410  -25.7840 C   0  0  0  0  0  0  0  0  0  0  0  0
   -0.4180   26.7030  -27.0860 C   0  0  0  0  0  0  0  0  0  0  0  0
   -1.0570   25.7490  -27.8840 C   0  0  0  0  0  0  0  0  0  0  0  0
   -1.6767   20.5405  -30.2224 H   0  0  0  0  0  0  0  0  0  0  0  0
   -2.1961   19.7431  -31.7459 H   0  0  0  0  0  0  0  0  0  0  0  0
   -1.7680   21.4877  -31.7459 H   0  0  0  0  0  0  0  0  0  0  0  0
   -4.3282   20.1841  -31.1329 H   0  0  0  0  0  0  0  0  0  0  0  0
   -3.7604   21.2541  -29.7787 H   0  0  0  0  0  0  0  0  0  0  0  0
   -3.4420   23.0090  -31.4570 H   0  0  0  0  0  0  0  0  0  0  0  0
   -4.7860   22.7565  -33.5476 H   0  0  0  0  0  0  0  0  0  0  0  0
   -3.2096   21.8575  -33.4456 H   0  0  0  0  0  0  0  0  0  0  0  0
   -5.2172   20.1362  -32.3785 H   0  0  0  0  0  0  0  0  0  0  0  0
   -5.8713   20.8131  -33.9084 H   0  0  0  0  0  0  0  0  0  0  0  0
   -4.2935   19.9545  -33.9084 H   0  0  0  0  0  0  0  0  0  0  0  0
   -6.2567   22.1413  -31.6010 H   0  0  0  0  0  0  0  0  0  0  0  0
   -5.4856   22.4999  -29.9975 H   0  0  0  0  0  0  0  0  0  0  0  0
   -5.3095   24.4791  -32.2987 H   0  0  0  0  0  0  0  0  0  0  0  0
   -6.7551   24.4148  -31.2056 H   0  0  0  0  0  0  0  0  0  0  0  0
   -5.2425   26.0975  -30.3461 H   0  0  0  0  0  0  0  0  0  0  0  0
   -5.1910   24.6776  -29.2466 H   0  0  0  0  0  0  0  0  0  0  0  0
   -3.9423   24.0959  -28.0393 H   0  0  0  0  0  0  0  0  0  0  0  0
   -4.4071   21.6551  -28.1928 H   0  0  0  0  0  0  0  0  0  0  0  0
   -3.7868   19.4140  -27.2933 H   0  0  0  0  0  0  0  0  0  0  0  0
   -1.5190   19.0361  -26.3247 H   0  0  0  0  0  0  0  0  0  0  0  0
    0.1290   20.9082  -26.2343 H   0  0  0  0  0  0  0  0  0  0  0  0
   -0.4878   23.1617  -27.1047 H   0  0  0  0  0  0  0  0  0  0  0  0
   -3.4425   24.7051  -25.6610 H   0  0  0  0  0  0  0  0  0  0  0  0
   -2.2961   26.4089  -24.2500 H   0  0  0  0  0  0  0  0  0  0  0  0
   -0.3609   27.6933  -25.1588 H   0  0  0  0  0  0  0  0  0  0  0  0
    0.4379   27.2674  -27.4846 H   0  0  0  0  0  0  0  0  0  0  0  0
   -0.6932   25.5582  -28.9044 H   0  0  0  0  0  0  0  0  0  0  0  0
  1  2  1  0
  2  3  1  0
  3  4  1  0
  4  5  1  0
  3  6  1  0
  6  7  1  0
  7  8  1  0
  8  9  1  0
  9 10  1  0
 10 11  2  0
 10 12  1  0
 12 13  1  0
 13 14  2  0
 14 15  1  0
 15 16  2  0
 16 17  1  0
 17 18  2  0
 12 19  1  0
 19 20  2  0
 20 21  1  0
 21 22  2  0
 22 23  1  0
 23 24  2  0
 18 13  1  0
 24 19  1  0
  1 25  1  0
  1 26  1  0
  1 27  1  0
  2 28  1  0
  2 29  1  0
  3 30  1  0
  4 31  1  0
  4 32  1  0
  5 33  1  0
  5 34  1  0
  5 35  1  0
  6 36  1  0
  6 37  1  0
  7 38  1  0
  7 39  1  0
  8 40  1  0
  8 41  1  0
 12 42  1  0
 14 43  1  0
 15 44  1  0
 16 45  1  0
 17 46  1  0
 18 47  1  0
 20 48  1  0
 21 49  1  0
 22 50  1  0
 23 51  1  0
 24 52  1  0
M  CHG  2   3   1   9  -1
M  END
>  <UniqueID>  (49) 
46

>  <SMILES>  (49) 
CC[NH+](CC)CCC[N-]C(=O)C(c1ccccc1)c1ccccc1

>  <Energy>  (49) 
49.00470527806536

>  <Genealogy>  (49) 
CC[NH+](CC)CCC[N-]C(=O)C(c1ccccc1)c1ccccc1 (protonated)
CC[NH+](CC)CCC[N-]C(=O)C(c1ccccc1)c1ccccc1 (3D coordinates assigned)
CC[NH+](CC)CCC[N-]C(=O)C(c1ccccc1)c1ccccc1 (optimized conformer: 49.00470527806536 kcal/mol)

>  <smiles>  (49) 
CCN(CC)CCCNC(=O)C(c1ccccc1)c1ccccc1

>  <score_type>  (49) 
oracle

>  <origin>  (49) 
adg

>  <m_score__min__energy>  (49) 
-7.6799999999999997

>  <m_primary>  (49) 
energy

$$$$
49:0
     RDKit          3D

 49 51  0  0  0  0  0  0  0  0999 V2000
   -2.7970   20.0460  -33.7460 C   0  0  0  0  0  0  0  0  0  0  0  0
   -3.6100   18.9720  -34.2080 O   0  0  0  0  0  0  0  0  0  0  0  0
   -4.7850   18.5390  -33.5760 C   0  0  0  0  0  0  0  0  0  0  0  0
   -4.8710   17.3070  -32.8950 C   0  0  0  0  0  0  0  0  0  0  0  0
   -6.0660   16.9250  -32.2800 C   0  0  0  0  0  0  0  0  0  0  0  0
   -7.1860   17.7580  -32.3430 C   0  0  0  0  0  0  0  0  0  0  0  0
   -7.1180   18.9850  -33.0250 C   0  0  0  0  0  0  0  0  0  0  0  0
   -8.3130   19.9010  -33.0550 C   0  0  0  0  0  0  0  0  0  0  0  0
   -8.2460   20.8420  -31.9380 N   0  0  0  0  0  0  0  0  0  0  0  0
   -9.0900   20.8980  -30.8790 C   0  0  0  0  0  0  0  0  0  0  0  0
   -8.8260   21.9320  -30.0380 N   0  0  0  0  0  0  0  0  0  0  0  0
   -7.7720   22.5360  -30.6190 C   0  0  0  0  0  0  0  0  0  0  0  0
   -7.0910   23.6640  -30.1690 C   0  0  0  0  0  0  0  0  0  0  0  0
   -6.0000   24.1370  -30.9400 C   0  0  0  0  0  0  0  0  0  0  0  0
   -5.2270   25.3190  -30.4950 C   0  0  0  0  0  0  0  0  0  0  0  0
   -5.8270   26.3620  -30.1130 O   0  0  0  0  0  0  0  0  0  0  0  0
   -3.7950   25.2780  -30.4780 N   0  0  0  0  0  0  0  0  0  0  0  0
   -3.0300   24.5350  -29.4870 C   0  0  0  0  0  0  0  0  0  0  0  0
   -2.5600   23.2130  -30.0960 C   0  0  0  0  0  0  0  0  0  0  0  0
   -3.2010   22.0640  -29.4170 N   0  0  0  0  0  0  0  0  0  0  0  0
   -4.2020   22.5210  -28.4370 C   0  0  0  0  0  0  0  0  0  0  0  0
   -3.8490   21.1870  -30.4080 C   0  0  0  0  0  0  0  0  0  0  0  0
   -5.6460   23.4550  -32.1380 C   0  0  0  0  0  0  0  0  0  0  0  0
   -6.3620   22.3210  -32.5610 C   0  0  0  0  0  0  0  0  0  0  0  0
   -7.4210   21.8900  -31.7650 C   0  0  0  0  0  0  0  0  0  0  0  0
   -5.9110   19.3720  -33.6290 C   0  0  0  0  0  0  0  0  0  0  0  0
   -2.7907   20.0543  -32.6460 H   0  0  0  0  0  0  0  0  0  0  0  0
   -1.7700   19.9146  -34.1175 H   0  0  0  0  0  0  0  0  0  0  0  0
   -3.2022   20.9988  -34.1175 H   0  0  0  0  0  0  0  0  0  0  0  0
   -3.9942   16.6445  -32.8479 H   0  0  0  0  0  0  0  0  0  0  0  0
   -6.1252   15.9658  -31.7448 H   0  0  0  0  0  0  0  0  0  0  0  0
   -8.1243   17.4524  -31.8571 H   0  0  0  0  0  0  0  0  0  0  0  0
   -8.3209   20.4595  -34.0026 H   0  0  0  0  0  0  0  0  0  0  0  0
   -9.2314   19.3016  -32.9694 H   0  0  0  0  0  0  0  0  0  0  0  0
   -9.9064   20.1789  -30.7167 H   0  0  0  0  0  0  0  0  0  0  0  0
   -7.3912   24.1735  -29.2415 H   0  0  0  0  0  0  0  0  0  0  0  0
   -2.1566   25.1277  -29.1775 H   0  0  0  0  0  0  0  0  0  0  0  0
   -3.6628   24.3318  -28.6105 H   0  0  0  0  0  0  0  0  0  0  0  0
   -2.8238   23.1939  -31.1637 H   0  0  0  0  0  0  0  0  0  0  0  0
   -1.4702   23.1342  -29.9693 H   0  0  0  0  0  0  0  0  0  0  0  0
   -3.8236   22.3483  -27.4187 H   0  0  0  0  0  0  0  0  0  0  0  0
   -4.3918   23.5950  -28.5804 H   0  0  0  0  0  0  0  0  0  0  0  0
   -5.1378   21.9609  -28.5804 H   0  0  0  0  0  0  0  0  0  0  0  0
   -4.4248   20.4078  -29.8871 H   0  0  0  0  0  0  0  0  0  0  0  0
   -4.5254   21.7830  -31.0384 H   0  0  0  0  0  0  0  0  0  0  0  0
   -3.0806   20.7155  -31.0384 H   0  0  0  0  0  0  0  0  0  0  0  0
   -4.8013   23.8197  -32.7409 H   0  0  0  0  0  0  0  0  0  0  0  0
   -6.0952   21.7926  -33.4882 H   0  0  0  0  0  0  0  0  0  0  0  0
   -5.8484   20.3392  -34.1493 H   0  0  0  0  0  0  0  0  0  0  0  0
  1  2  1  0
  2  3  1  0
  3  4  2  0
  4  5  1  0
  5  6  2  0
  6  7  1  0
  7  8  1  0
  8  9  1  0
  9 10  1  0
 10 11  2  0
 11 12  1  0
 12 13  2  0
 13 14  1  0
 14 15  1  0
 15 16  2  0
 15 17  1  0
 17 18  1  0
 18 19  1  0
 19 20  1  0
 20 21  1  0
 20 22  1  0
 14 23  2  0
 23 24  1  0
 24 25  2  0
  7 26  2  0
 26  3  1  0
 25  9  1  0
 25 12  1  0
  1 27  1  0
  1 28  1  0
  1 29  1  0
  4 30  1  0
  5 31  1  0
  6 32  1  0
  8 33  1  0
  8 34  1  0
 10 35  1  0
 13 36  1  0
 18 37  1  0
 18 38  1  0
 19 39  1  0
 19 40  1  0
 21 41  1  0
 21 42  1  0
 21 43  1  0
 22 44  1  0
 22 45  1  0
 22 46  1  0
 23 47  1  0
 24 48  1  0
 26 49  1  0
M  CHG  1  17  -1
M  END
>  <UniqueID>  (50) 
47

>  <SMILES>  (50) 
COc1cccc(Cn2cnc3cc(C(=O)[N-]CCN(C)C)ccc32)c1

>  <Energy>  (50) 
83.28792933760319

>  <Genealogy>  (50) 
COc1cccc(Cn2cnc3cc(C(=O)[N-]CCN(C)C)ccc32)c1 (protonated)
COc1cccc(Cn2cnc3cc(C(=O)[N-]CCN(C)C)ccc32)c1 (3D coordinates assigned)
COc1cccc(Cn2cnc3cc(C(=O)[N-]CCN(C)C)ccc32)c1 (optimized conformer: 83.28792933760319 kcal/mol)

>  <smiles>  (50) 
COc1cccc(Cn2cnc3cc(C(=O)NCCN(C)C)ccc32)c1

>  <score_type>  (50) 
oracle

>  <origin>  (50) 
adg

>  <m_score__min__energy>  (50) 
-10.199999999999999

>  <m_primary>  (50) 
energy

$$$$
