0:0
     RDKit          3D

 35 37  0  0  0  0  0  0  0  0999 V2000
   -4.5830   14.7580  -32.3370 C   0  0  0  0  0  0  0  0  0  0  0  0
   -5.0040   15.9730  -32.6930 C   0  0  0  0  0  0  0  0  0  0  0  0
   -5.4760   16.2510  -34.0920 C   0  0  0  0  0  0  0  0  0  0  0  0
   -6.4710   17.2740  -34.0970 O   0  0  0  0  0  0  0  0  0  0  0  0
   -6.3310   18.5450  -33.5150 C   0  0  0  0  0  0  0  0  0  0  0  0
   -5.1910   19.3460  -33.7070 C   0  0  0  0  0  0  0  0  0  0  0  0
   -5.0960   20.5990  -33.0950 C   0  0  0  0  0  0  0  0  0  0  0  0
   -6.1360   21.0760  -32.2750 C   0  0  0  0  0  0  0  0  0  0  0  0
   -7.2960   20.2920  -32.1210 C   0  0  0  0  0  0  0  0  0  0  0  0
   -7.3760   19.0270  -32.7200 C   0  0  0  0  0  0  0  0  0  0  0  0
   -8.4190   20.7900  -31.2540 C   0  0  0  0  0  0  0  0  0  0  0  0
   -8.5440   22.3110  -31.3750 C   0  0  0  0  0  0  0  0  0  0  0  0
   -7.2500   22.9710  -31.1310 N   0  0  0  0  0  0  0  0  0  0  0  0
   -7.2410   24.1910  -30.5140 C   0  0  0  0  0  0  0  0  0  0  0  0
   -6.0440   24.8730  -30.2890 C   0  0  0  0  0  0  0  0  0  0  0  0
   -6.0720   26.1120  -29.6490 O   0  0  0  0  0  0  0  0  0  0  0  0
   -4.8420   24.2940  -30.7110 C   0  0  0  0  0  0  0  0  0  0  0  0
   -3.7440   24.8790  -30.5070 O   0  0  0  0  0  0  0  0  0  0  0  0
   -4.8590   23.0600  -31.3600 C   0  0  0  0  0  0  0  0  0  0  0  0
   -6.0830   22.4040  -31.5930 C   0  0  0  0  0  0  0  0  0  0  0  0
   -4.2412   14.5740  -31.3078 H   0  0  0  0  0  0  0  0  0  0  0  0
   -4.5777   13.9403  -33.0727 H   0  0  0  0  0  0  0  0  0  0  0  0
   -5.0055   16.7843  -31.9502 H   0  0  0  0  0  0  0  0  0  0  0  0
   -4.6212   16.5763  -34.7031 H   0  0  0  0  0  0  0  0  0  0  0  0
   -5.9142   15.3308  -34.5058 H   0  0  0  0  0  0  0  0  0  0  0  0
   -4.3693   18.9842  -34.3426 H   0  0  0  0  0  0  0  0  0  0  0  0
   -4.2008   21.2177  -33.2555 H   0  0  0  0  0  0  0  0  0  0  0  0
   -8.2706   18.4065  -32.5630 H   0  0  0  0  0  0  0  0  0  0  0  0
   -9.3611   20.3211  -31.5744 H   0  0  0  0  0  0  0  0  0  0  0  0
   -8.2075   20.5289  -30.2066 H   0  0  0  0  0  0  0  0  0  0  0  0
   -8.8906   22.5634  -32.3880 H   0  0  0  0  0  0  0  0  0  0  0  0
   -9.2633   22.6633  -30.6210 H   0  0  0  0  0  0  0  0  0  0  0  0
   -8.1908   24.6417  -30.1902 H   0  0  0  0  0  0  0  0  0  0  0  0
   -5.3640   26.3880  -28.9810 H   0  0  0  0  0  0  0  0  0  0  0  0
   -3.9163   22.5990  -31.6899 H   0  0  0  0  0  0  0  0  0  0  0  0
  1  2  2  0
  2  3  1  0
  3  4  1  0
  4  5  1  0
  5  6  2  0
  6  7  1  0
  7  8  2  0
  8  9  1  0
  9 10  2  0
  9 11  1  0
 11 12  1  0
 12 13  1  0
 13 14  1  0
 14 15  2  0
 15 16  1  0
 15 17  1  0
 17 18  2  0
 17 19  1  0
 19 20  2  0
 10  5  1  0
 20 13  1  0
 20  8  1  0
  1 21  1  0
  1 22  1  0
  2 23  1  0
  3 24  1  0
  3 25  1  0
  6 26  1  0
  7 27  1  0
 10 28  1  0
 11 29  1  0
 11 30  1  0
 12 31  1  0
 12 32  1  0
 14 33  1  0
 16 34  1  0
 19 35  1  0
M  END
>  <UniqueID>  (1) 
1

>  <SMILES>  (1) 
C=CCOc1ccc2c(c1)CCn1cc(O)c(=O)cc1-2

>  <Energy>  (1) 
41.558704130743244

>  <Genealogy>  (1) 
C=CCOc1ccc2c(c1)CCn1cc(O)c(=O)cc1-2 (3D coordinates assigned)
C=CCOc1ccc2c(c1)CCn1cc(O)c(=O)cc1-2 (nonaromatic ring conformer: 41.558704130743244 kcal/mol)

>  <smiles>  (1) 
C=CCOc1ccc2c(c1)CCn1cc(O)c(=O)cc1-2

>  <score_type>  (1) 
oracle

>  <origin>  (1) 
adg

>  <m_score__min__energy>  (1) 
-7.8200000000000003

>  <m_primary>  (1) 
energy

$$$$
1:0
     RDKit          3D

 47 50  0  0  0  0  0  0  0  0999 V2000
   -9.1550   22.2610  -31.9270 C   0  0  0  0  0  0  0  0  0  0  0  0
   -8.2240   21.0850  -32.0190 C   0  0  0  0  0  0  0  0  0  0  0  0
   -8.7260   19.7800  -32.1250 C   0  0  0  0  0  0  0  0  0  0  0  0
   -7.8530   18.6950  -32.2070 C   0  0  0  0  0  0  0  0  0  0  0  0
   -6.4630   18.8900  -32.1830 C   0  0  0  0  0  0  0  0  0  0  0  0
   -5.5630   17.6950  -32.3310 C   0  0  0  0  0  0  0  0  0  0  0  0
   -5.9530   20.1990  -32.0100 C   0  0  0  0  0  0  0  0  0  0  0  0
   -4.5450   20.4520  -31.9100 N   0  0  0  0  0  0  0  0  0  0  0  0
   -3.9870   21.7720  -32.2130 C   0  0  2  0  0  0  0  0  0  0  0  0
   -3.8440   21.9110  -33.6030 O   0  0  0  0  0  0  0  0  0  0  0  0
   -2.6200   21.9210  -31.5390 C   0  0  0  0  0  0  0  0  0  0  0  0
   -2.7540   21.8470  -30.0790 N   0  0  0  0  0  0  0  0  0  0  0  0
   -3.6780   22.4510  -29.2770 C   0  0  0  0  0  0  0  0  0  0  0  0
   -4.6300   23.4830  -29.7130 C   0  0  0  0  0  0  0  0  0  0  0  0
   -6.0150   23.3900  -29.7160 C   0  0  0  0  0  0  0  0  0  0  0  0
   -6.6410   24.5160  -30.2610 C   0  0  0  0  0  0  0  0  0  0  0  0
   -5.7550   25.4860  -30.7060 C   0  0  0  0  0  0  0  0  0  0  0  0
   -4.1910   24.9380  -30.4270 S   0  0  0  0  0  0  0  0  0  0  0  0
   -3.6880   21.9670  -28.0060 N   0  0  0  0  0  0  0  0  0  0  0  0
   -2.7230   21.0330  -28.0240 C   0  0  0  0  0  0  0  0  0  0  0  0
   -2.3290   20.2020  -26.9780 C   0  0  0  0  0  0  0  0  0  0  0  0
   -1.3200   19.2550  -27.2370 C   0  0  0  0  0  0  0  0  0  0  0  0
   -0.7440   19.1580  -28.5230 C   0  0  0  0  0  0  0  0  0  0  0  0
   -1.1700   20.0070  -29.5610 C   0  0  0  0  0  0  0  0  0  0  0  0
   -2.1640   20.9470  -29.2660 C   0  0  0  0  0  0  0  0  0  0  0  0
   -6.8390   21.2850  -31.9500 C   0  0  0  0  0  0  0  0  0  0  0  0
   -9.3428   22.4982  -30.8694 H   0  0  0  0  0  0  0  0  0  0  0  0
   -8.6977   23.1303  -32.4221 H   0  0  0  0  0  0  0  0  0  0  0  0
  -10.1061   22.0154  -32.4221 H   0  0  0  0  0  0  0  0  0  0  0  0
   -9.8128   19.6111  -32.1436 H   0  0  0  0  0  0  0  0  0  0  0  0
   -8.2581   17.6758  -32.2914 H   0  0  0  0  0  0  0  0  0  0  0  0
   -5.2821   17.3220  -31.3350 H   0  0  0  0  0  0  0  0  0  0  0  0
   -6.0916   16.9040  -32.8831 H   0  0  0  0  0  0  0  0  0  0  0  0
   -4.6568   17.9846  -32.8831 H   0  0  0  0  0  0  0  0  0  0  0  0
   -3.9030   19.6340  -32.0170 H   0  0  0  0  0  0  0  0  0  0  0  0
   -4.6650   22.5509  -31.8341 H   0  0  0  0  0  0  0  0  0  0  0  0
   -4.4040   22.6860  -33.8660 H   0  0  0  0  0  0  0  0  0  0  0  0
   -1.9573   21.1132  -31.8828 H   0  0  0  0  0  0  0  0  0  0  0  0
   -2.1966   22.9001  -31.8075 H   0  0  0  0  0  0  0  0  0  0  0  0
   -6.5645   22.5192  -29.3291 H   0  0  0  0  0  0  0  0  0  0  0  0
   -7.7337   24.6222  -30.3302 H   0  0  0  0  0  0  0  0  0  0  0  0
   -6.0289   26.4484  -31.1629 H   0  0  0  0  0  0  0  0  0  0  0  0
   -2.7907   20.2829  -25.9829 H   0  0  0  0  0  0  0  0  0  0  0  0
   -0.9782   18.5866  -26.4330 H   0  0  0  0  0  0  0  0  0  0  0  0
    0.0430   18.4137  -28.7143 H   0  0  0  0  0  0  0  0  0  0  0  0
   -0.7368   19.9344  -30.5695 H   0  0  0  0  0  0  0  0  0  0  0  0
   -6.4417   22.3056  -31.8476 H   0  0  0  0  0  0  0  0  0  0  0  0
  1  2  1  0
  2  3  2  0
  3  4  1  0
  4  5  2  0
  5  6  1  0
  5  7  1  0
  7  8  1  0
  8  9  1  0
  9 10  1  0
  9 11  1  0
 11 12  1  0
 12 13  1  0
 13 14  1  0
 14 15  2  0
 15 16  1  0
 16 17  2  0
 17 18  1  0
 13 19  2  0
 19 20  1  0
 20 21  2  0
 21 22  1  0
 22 23  2  0
 23 24  1  0
 24 25  2  0
  7 26  2  0
 26  2  1  0
 25 12  1  0
 18 14  1  0
 25 20  1  0
  1 27  1  0
  1 28  1  0
  1 29  1  0
  3 30  1  0
  4 31  1  0
  6 32  1  0
  6 33  1  0
  6 34  1  0
  8 35  1  0
  9 36  1  1
 10 37  1  0
 11 38  1  0
 11 39  1  0
 15 40  1  0
 16 41  1  0
 17 42  1  0
 21 43  1  0
 22 44  1  0
 23 45  1  0
 24 46  1  0
 26 47  1  0
M  END
>  <UniqueID>  (2) 
2

>  <SMILES>  (2) 
Cc1ccc(C)c(N[C@H](O)Cn2c(-c3cccs3)nc3ccccc32)c1

>  <Energy>  (2) 
119.31482338470475

>  <Genealogy>  (2) 
Cc1ccc(C)c(N[C@H](O)Cn2c(-c3cccs3)nc3ccccc32)c1 (chirality)
Cc1ccc(C)c(N[C@H](O)Cn2c(-c3cccs3)nc3ccccc32)c1 (3D coordinates assigned)
Cc1ccc(C)c(N[C@H](O)Cn2c(-c3cccs3)nc3ccccc32)c1 (optimized conformer: 119.31482338470475 kcal/mol)

>  <smiles>  (2) 
Cc1ccc(C)c(NC(O)Cn2c(-c3cccs3)nc3ccccc32)c1

>  <score_type>  (2) 
oracle

>  <origin>  (2) 
adg

>  <m_score__min__energy>  (2) 
-9.1899999999999995

>  <m_primary>  (2) 
energy

$$$$
2:0
     RDKit          3D

 41 44  0  0  0  0  0  0  0  0999 V2000
   -4.2530   22.6150  -27.6850 C   0  0  0  0  0  0  0  0  0  0  0  0
   -2.8940   22.2860  -28.2420 C   0  0  0  0  0  0  0  0  0  0  0  0
   -2.1890   23.1670  -29.1120 C   0  0  0  0  0  0  0  0  0  0  0  0
   -2.7560   24.3990  -29.5830 N   0  0  0  0  0  0  0  0  0  0  0  0
   -3.8840   24.5230  -30.4600 C   0  0  0  0  0  0  0  0  0  0  0  0
   -4.2270   25.6740  -30.8400 O   0  0  0  0  0  0  0  0  0  0  0  0
   -4.6430   23.3450  -30.9450 C   0  0  0  0  0  0  0  0  0  0  0  0
   -3.9800   22.2180  -31.4580 C   0  0  0  0  0  0  0  0  0  0  0  0
   -4.7030   21.1060  -31.8970 C   0  0  0  0  0  0  0  0  0  0  0  0
   -6.1080   21.1100  -31.8420 C   0  0  0  0  0  0  0  0  0  0  0  0
   -6.8810   20.0150  -32.2680 C   0  0  0  0  0  0  0  0  0  0  0  0
   -6.3100   18.9890  -32.7350 O   0  0  0  0  0  0  0  0  0  0  0  0
   -8.2510   20.0620  -32.1800 N   0  0  0  0  0  0  0  0  0  0  0  0
   -9.0600   18.9250  -32.6510 C   0  0  0  0  0  0  0  0  0  0  0  0
   -8.8670   21.2000  -31.7200 C   0  0  0  0  0  0  0  0  0  0  0  0
  -10.1240   21.2810  -31.6750 O   0  0  0  0  0  0  0  0  0  0  0  0
   -8.1290   22.2620  -31.3100 N   0  0  0  0  0  0  0  0  0  0  0  0
   -6.7750   22.2450  -31.3520 C   0  0  0  0  0  0  0  0  0  0  0  0
   -6.0480   23.3570  -30.9140 C   0  0  0  0  0  0  0  0  0  0  0  0
   -0.8790   22.8420  -29.5260 C   0  0  0  0  0  0  0  0  0  0  0  0
   -0.2910   21.6280  -29.1520 C   0  0  0  0  0  0  0  0  0  0  0  0
   -1.0240   20.7580  -28.3530 C   0  0  0  0  0  0  0  0  0  0  0  0
   -2.2770   21.0690  -27.9080 C   0  0  0  0  0  0  0  0  0  0  0  0
   -2.7920   19.9500  -27.0660 C   0  0  0  0  0  0  0  0  0  0  0  0
   -1.6390   18.9210  -27.1130 C   0  0  0  0  0  0  0  0  0  0  0  0
   -0.6170   19.5200  -27.9070 O   0  0  0  0  0  0  0  0  0  0  0  0
   -4.2110   22.6048  -26.5858 H   0  0  0  0  0  0  0  0  0  0  0  0
   -4.5593   23.6132  -28.0310 H   0  0  0  0  0  0  0  0  0  0  0  0
   -4.9819   21.8674  -28.0310 H   0  0  0  0  0  0  0  0  0  0  0  0
   -2.8815   22.2108  -31.5146 H   0  0  0  0  0  0  0  0  0  0  0  0
   -4.1717   20.2251  -32.2867 H   0  0  0  0  0  0  0  0  0  0  0  0
   -9.4537   18.3717  -31.7856 H   0  0  0  0  0  0  0  0  0  0  0  0
   -9.8971   19.2977  -33.2596 H   0  0  0  0  0  0  0  0  0  0  0  0
   -8.4335   18.2564  -33.2596 H   0  0  0  0  0  0  0  0  0  0  0  0
   -6.5791   24.2460  -30.5431 H   0  0  0  0  0  0  0  0  0  0  0  0
   -0.3141   23.5507  -30.1494 H   0  0  0  0  0  0  0  0  0  0  0  0
    0.7258   21.3688  -29.4821 H   0  0  0  0  0  0  0  0  0  0  0  0
   -2.9812   20.2852  -26.0355 H   0  0  0  0  0  0  0  0  0  0  0  0
   -3.7502   19.5443  -27.4227 H   0  0  0  0  0  0  0  0  0  0  0  0
   -1.2659   18.7169  -26.0985 H   0  0  0  0  0  0  0  0  0  0  0  0
   -1.9698   17.9607  -27.5354 H   0  0  0  0  0  0  0  0  0  0  0  0
  1  2  1  0
  2  3  2  0
  3  4  1  0
  4  5  1  0
  5  6  2  0
  5  7  1  0
  7  8  2  0
  8  9  1  0
  9 10  2  0
 10 11  1  0
 11 12  2  0
 11 13  1  0
 13 14  1  0
 13 15  1  0
 15 16  2  0
 15 17  1  0
 17 18  1  0
 18 19  2  0
  3 20  1  0
 20 21  2  0
 21 22  1  0
 22 23  2  0
 23 24  1  0
 24 25  1  0
 25 26  1  0
 23  2  1  0
 19  7  1  0
 26 22  1  0
 18 10  1  0
  1 27  1  0
  1 28  1  0
  1 29  1  0
  8 30  1  0
  9 31  1  0
 14 32  1  0
 14 33  1  0
 14 34  1  0
 19 35  1  0
 20 36  1  0
 21 37  1  0
 24 38  1  0
 24 39  1  0
 25 40  1  0
 25 41  1  0
M  CHG  2   4  -1  17  -1
M  END
>  <UniqueID>  (3) 
3

>  <SMILES>  (3) 
Cc1c([N-]C(=O)c2ccc3c(=O)n(C)c(=O)[n-]c3c2)ccc2c1CCO2

>  <Energy>  (3) 
77.96197177854619

>  <Genealogy>  (3) 
Cc1c([N-]C(=O)c2ccc3c(=O)n(C)c(=O)[n-]c3c2)ccc2c1CCO2 (protonated)
Cc1c([N-]C(=O)c2ccc3c(=O)n(C)c(=O)[n-]c3c2)ccc2c1CCO2 (3D coordinates assigned)
Cc1c([N-]C(=O)c2ccc3c(=O)n(C)c(=O)[n-]c3c2)ccc2c1CCO2 (nonaromatic ring conformer: 77.96197177854619 kcal/mol)

>  <smiles>  (3) 
Cc1c(NC(=O)c2ccc3c(=O)n(C)c(=O)[nH]c3c2)ccc2c1CCO2

>  <score_type>  (3) 
oracle

>  <origin>  (3) 
adg

>  <m_score__min__energy>  (3) 
-10.359999999999999

>  <m_primary>  (3) 
energy

$$$$
3:0
     RDKit          3D

 19 20  0  0  0  0  0  0  0  0999 V2000
   -3.6650   25.3010  -30.4690 O   0  0  0  0  0  0  0  0  0  0  0  0
   -4.5900   24.5270  -30.8280 C   0  0  0  0  0  0  0  0  0  0  0  0
   -5.9200   24.8410  -30.5400 C   0  0  0  0  0  0  0  0  0  0  0  0
   -6.9360   23.9750  -30.9470 C   0  0  0  0  0  0  0  0  0  0  0  0
   -6.6250   22.8010  -31.6580 C   0  0  0  0  0  0  0  0  0  0  0  0
   -7.6170   21.8890  -32.0990 C   0  0  0  0  0  0  0  0  0  0  0  0
   -9.0190   22.1630  -31.9440 N   0  0  0  0  0  0  0  0  0  0  0  0
   -9.8090   21.2350  -31.6700 O   0  0  0  0  0  0  0  0  0  0  0  0
   -9.5330   23.3750  -32.3450 O   0  0  0  0  0  0  0  0  0  0  0  0
   -7.2200   20.6970  -32.7300 C   0  0  0  0  0  0  0  0  0  0  0  0
   -5.8700   20.4240  -32.9550 C   0  0  0  0  0  0  0  0  0  0  0  0
   -4.8920   21.3320  -32.5520 C   0  0  0  0  0  0  0  0  0  0  0  0
   -5.2580   22.5140  -31.9010 C   0  0  0  0  0  0  0  0  0  0  0  0
   -4.2920   23.3790  -31.4910 N   0  0  0  0  0  0  0  0  0  0  0  0
   -6.1652   25.7650  -29.9958 H   0  0  0  0  0  0  0  0  0  0  0  0
   -7.9841   24.2111  -30.7111 H   0  0  0  0  0  0  0  0  0  0  0  0
   -7.9822   19.9713  -33.0500 H   0  0  0  0  0  0  0  0  0  0  0  0
   -5.5763   19.4880  -33.4527 H   0  0  0  0  0  0  0  0  0  0  0  0
   -3.8306   21.1182  -32.7465 H   0  0  0  0  0  0  0  0  0  0  0  0
  1  2  2  0
  2  3  1  0
  3  4  2  0
  4  5  1  0
  5  6  2  0
  6  7  1  0
  7  8  2  0
  7  9  1  0
  6 10  1  0
 10 11  2  0
 11 12  1  0
 12 13  2  0
 13 14  1  0
 14  2  1  0
 13  5  1  0
  3 15  1  0
  4 16  1  0
 10 17  1  0
 11 18  1  0
 12 19  1  0
M  CHG  3   7   1   9  -1  14  -1
M  END
>  <UniqueID>  (4) 
4

>  <SMILES>  (4) 
O=c1ccc2c([N+](=O)[O-])cccc2[n-]1

>  <Energy>  (4) 
29.981055935237713

>  <Genealogy>  (4) 
O=c1ccc2c([N+](=O)[O-])cccc2[n-]1 (protonated)
O=c1ccc2c([N+](=O)[O-])cccc2[n-]1 (3D coordinates assigned)
O=c1ccc2c([N+](=O)[O-])cccc2[n-]1 (optimized conformer: 29.981055935237713 kcal/mol)

>  <smiles>  (4) 
O=c1ccc2c([N+](=O)[O-])cccc2[nH]1

>  <score_type>  (4) 
oracle

>  <origin>  (4) 
adg

>  <m_score__min__energy>  (4) 
-7.4500000000000002

>  <m_primary>  (4) 
energy

$$$$
4:0
     RDKit          3D

 40 41  0  0  0  0  0  0  0  0999 V2000
   -3.0160   18.3940  -33.9200 C   0  0  0  0  0  0  0  0  0  0  0  0
   -3.9200   17.2910  -34.4620 C   0  0  0  0  0  0  0  0  0  0  0  0
   -5.2280   17.8670  -35.0130 C   0  0  0  0  0  0  0  0  0  0  0  0
   -6.1110   18.2590  -33.9100 N   0  0  0  0  0  0  0  0  0  0  0  0
   -5.9460   19.4710  -33.3710 N   0  0  0  0  0  0  0  0  0  0  0  0
   -6.7010   19.9200  -32.3300 C   0  0  0  0  0  0  0  0  0  0  0  0
   -6.4620   21.2370  -31.7910 N   0  0  0  0  0  0  0  0  0  0  0  0
   -5.1620   21.9060  -31.9380 C   0  0  0  0  0  0  0  0  0  0  0  0
   -4.8400   22.7270  -30.6780 C   0  0  0  0  0  0  0  0  0  0  0  0
   -5.9610   23.5990  -30.2160 N   0  0  0  0  0  0  0  0  0  0  0  0
   -5.5770   25.0000  -30.2010 C   0  0  0  0  0  0  0  0  0  0  0  0
   -6.3400   26.0270  -29.4050 C   0  0  0  0  0  0  0  0  0  0  0  0
   -4.6000   25.3680  -30.8380 O   0  0  0  0  0  0  0  0  0  0  0  0
   -7.2250   23.4340  -30.9670 C   0  0  0  0  0  0  0  0  0  0  0  0
   -7.5690   21.9510  -31.1470 C   0  0  0  0  0  0  0  0  0  0  0  0
   -7.6720   19.0670  -31.7880 C   0  0  0  0  0  0  0  0  0  0  0  0
   -7.8470   17.8000  -32.3340 C   0  0  0  0  0  0  0  0  0  0  0  0
   -7.0500   17.3990  -33.4060 C   0  0  0  0  0  0  0  0  0  0  0  0
   -7.2020   16.2460  -33.8930 O   0  0  0  0  0  0  0  0  0  0  0  0
   -3.0323   18.3741  -32.8203 H   0  0  0  0  0  0  0  0  0  0  0  0
   -1.9873   18.2322  -34.2745 H   0  0  0  0  0  0  0  0  0  0  0  0
   -3.3766   19.3709  -34.2745 H   0  0  0  0  0  0  0  0  0  0  0  0
   -3.3938   16.7601  -35.2690 H   0  0  0  0  0  0  0  0  0  0  0  0
   -4.1621   16.6032  -33.6384 H   0  0  0  0  0  0  0  0  0  0  0  0
   -5.0050   18.7490  -35.6314 H   0  0  0  0  0  0  0  0  0  0  0  0
   -5.7306   17.1004  -35.6211 H   0  0  0  0  0  0  0  0  0  0  0  0
   -4.3787   21.1484  -32.0877 H   0  0  0  0  0  0  0  0  0  0  0  0
   -5.2027   22.5816  -32.8051 H   0  0  0  0  0  0  0  0  0  0  0  0
   -4.5878   22.0291  -29.8660 H   0  0  0  0  0  0  0  0  0  0  0  0
   -4.0054   23.3944  -30.9387 H   0  0  0  0  0  0  0  0  0  0  0  0
   -6.1730   23.3240  -29.2260 H   0  0  0  0  0  0  0  0  0  0  0  0
   -6.1989   25.8371  -28.3307 H   0  0  0  0  0  0  0  0  0  0  0  0
   -5.9681   27.0324  -29.6516 H   0  0  0  0  0  0  0  0  0  0  0  0
   -7.4100   25.9612  -29.6516 H   0  0  0  0  0  0  0  0  0  0  0  0
   -8.0384   23.9272  -30.4146 H   0  0  0  0  0  0  0  0  0  0  0  0
   -7.1030   23.8881  -31.9614 H   0  0  0  0  0  0  0  0  0  0  0  0
   -7.7629   21.5030  -30.1612 H   0  0  0  0  0  0  0  0  0  0  0  0
   -8.4613   21.8697  -31.7851 H   0  0  0  0  0  0  0  0  0  0  0  0
   -8.2895   19.3963  -30.9393 H   0  0  0  0  0  0  0  0  0  0  0  0
   -8.6078   17.1197  -31.9237 H   0  0  0  0  0  0  0  0  0  0  0  0
  1  2  1  0
  2  3  1  0
  3  4  1  0
  4  5  1  0
  5  6  2  0
  6  7  1  0
  7  8  1  0
  8  9  1  0
  9 10  1  0
 10 11  1  0
 11 12  1  0
 11 13  2  0
 10 14  1  0
 14 15  1  0
  6 16  1  0
 16 17  2  0
 17 18  1  0
 18 19  2  0
 18  4  1  0
 15  7  1  0
  1 20  1  0
  1 21  1  0
  1 22  1  0
  2 23  1  0
  2 24  1  0
  3 25  1  0
  3 26  1  0
  8 27  1  0
  8 28  1  0
  9 29  1  0
  9 30  1  0
 10 31  1  0
 12 32  1  0
 12 33  1  0
 12 34  1  0
 14 35  1  0
 14 36  1  0
 15 37  1  0
 15 38  1  0
 16 39  1  0
 17 40  1  0
M  CHG  1  10   1
M  END
>  <UniqueID>  (5) 
5

>  <SMILES>  (5) 
CCCn1nc(N2CC[NH+](C(C)=O)CC2)ccc1=O

>  <Energy>  (5) 
43.95548026408858

>  <Genealogy>  (5) 
CCCn1nc(N2CC[NH+](C(C)=O)CC2)ccc1=O (protonated)
CCCn1nc(N2CC[NH+](C(C)=O)CC2)ccc1=O (3D coordinates assigned)
CCCn1nc(N2CC[NH+](C(C)=O)CC2)ccc1=O (nonaromatic ring conformer: 43.95548026408858 kcal/mol)

>  <smiles>  (5) 
CCCn1nc(N2CCN(C(C)=O)CC2)ccc1=O

>  <score_type>  (5) 
oracle

>  <origin>  (5) 
adg

>  <m_score__min__energy>  (5) 
-6.1200000000000001

>  <m_primary>  (5) 
energy

$$$$
5:0
     RDKit          3D

 38 40  0  0  0  0  0  0  0  0999 V2000
   -2.8290   21.3570  -33.4550 N   0  0  0  0  0  0  0  0  0  0  0  0
   -3.5360   20.1120  -33.5450 C   0  0  0  0  0  0  0  0  0  0  0  0
   -2.8970   19.0240  -34.1570 C   0  0  0  0  0  0  0  0  0  0  0  0
   -3.5750   17.8250  -34.3620 C   0  0  0  0  0  0  0  0  0  0  0  0
   -4.9060   17.7000  -33.9730 C   0  0  0  0  0  0  0  0  0  0  0  0
   -5.5680   18.7680  -33.3450 C   0  0  0  0  0  0  0  0  0  0  0  0
   -4.8740   19.9720  -33.0890 C   0  0  0  0  0  0  0  0  0  0  0  0
   -5.5600   21.0190  -32.2880 C   0  0  0  0  0  0  0  0  0  0  0  0
   -4.8740   21.8050  -31.5830 O   0  0  0  0  0  0  0  0  0  0  0  0
   -7.0470   21.0370  -32.2020 C   0  0  0  0  0  0  0  0  0  0  0  0
   -7.7960   22.1970  -31.8370 C   0  0  0  0  0  0  0  0  0  0  0  0
   -7.1700   23.5630  -31.6260 C   0  0  0  0  0  0  0  0  0  0  0  0
   -6.9220   23.8840  -30.1410 C   0  0  0  0  0  0  0  0  0  0  0  0
   -5.8320   24.9560  -29.9200 C   0  0  0  0  0  0  0  0  0  0  0  0
   -4.4180   24.3710  -29.9130 C   0  0  0  0  0  0  0  0  0  0  0  0
   -3.4990   25.2990  -30.3660 F   0  0  0  0  0  0  0  0  0  0  0  0
   -9.1950   22.1020  -31.7270 C   0  0  0  0  0  0  0  0  0  0  0  0
   -9.8530   20.9030  -31.9770 C   0  0  0  0  0  0  0  0  0  0  0  0
   -9.1340   19.7780  -32.3640 C   0  0  0  0  0  0  0  0  0  0  0  0
   -7.7380   19.8350  -32.4930 C   0  0  0  0  0  0  0  0  0  0  0  0
   -6.9910   18.6430  -32.9600 C   0  0  0  0  0  0  0  0  0  0  0  0
   -7.5770   17.5290  -33.0600 O   0  0  0  0  0  0  0  0  0  0  0  0
   -2.9940   22.0280  -32.6740 H   0  0  0  0  0  0  0  0  0  0  0  0
   -2.2560   21.6980  -34.2590 H   0  0  0  0  0  0  0  0  0  0  0  0
   -1.8493   19.1187  -34.4785 H   0  0  0  0  0  0  0  0  0  0  0  0
   -3.0582   16.9753  -34.8320 H   0  0  0  0  0  0  0  0  0  0  0  0
   -5.4430   16.7582  -34.1588 H   0  0  0  0  0  0  0  0  0  0  0  0
   -6.2075   23.5941  -32.1576 H   0  0  0  0  0  0  0  0  0  0  0  0
   -7.8752   24.3132  -32.0132 H   0  0  0  0  0  0  0  0  0  0  0  0
   -7.8625   24.2468  -29.7007 H   0  0  0  0  0  0  0  0  0  0  0  0
   -6.5695   22.9583  -29.6626 H   0  0  0  0  0  0  0  0  0  0  0  0
   -5.9009   25.6992  -30.7281 H   0  0  0  0  0  0  0  0  0  0  0  0
   -6.0080   25.4089  -28.9331 H   0  0  0  0  0  0  0  0  0  0  0  0
   -4.1555   24.0753  -28.8865 H   0  0  0  0  0  0  0  0  0  0  0  0
   -4.3951   23.4978  -30.5816 H   0  0  0  0  0  0  0  0  0  0  0  0
   -9.7773   22.9897  -31.4388 H   0  0  0  0  0  0  0  0  0  0  0  0
  -10.9460   20.8444  -31.8682 H   0  0  0  0  0  0  0  0  0  0  0  0
   -9.6634   18.8362  -32.5706 H   0  0  0  0  0  0  0  0  0  0  0  0
  1  2  1  0
  2  3  2  0
  3  4  1  0
  4  5  2  0
  5  6  1  0
  6  7  2  0
  7  8  1  0
  8  9  2  0
  8 10  1  0
 10 11  2  0
 11 12  1  0
 12 13  1  0
 13 14  1  0
 14 15  1  0
 15 16  1  0
 11 17  1  0
 17 18  2  0
 18 19  1  0
 19 20  2  0
 20 21  1  0
 21 22  2  0
  7  2  1  0
 20 10  1  0
 21  6  1  0
  1 23  1  0
  1 24  1  0
  3 25  1  0
  4 26  1  0
  5 27  1  0
 12 28  1  0
 12 29  1  0
 13 30  1  0
 13 31  1  0
 14 32  1  0
 14 33  1  0
 15 34  1  0
 15 35  1  0
 17 36  1  0
 18 37  1  0
 19 38  1  0
M  END
>  <UniqueID>  (6) 
6

>  <SMILES>  (6) 
Nc1cccc2c1C(=O)c1c(CCCCF)cccc1C2=O

>  <Energy>  (6) 
52.034068481115156

>  <Genealogy>  (6) 
Nc1cccc2c1C(=O)c1c(CCCCF)cccc1C2=O (3D coordinates assigned)
Nc1cccc2c1C(=O)c1c(CCCCF)cccc1C2=O (nonaromatic ring conformer: 52.034068481115156 kcal/mol)

>  <smiles>  (6) 
Nc1cccc2c1C(=O)c1c(CCCCF)cccc1C2=O

>  <score_type>  (6) 
oracle

>  <origin>  (6) 
adg

>  <m_score__min__energy>  (6) 
-8.9600000000000009

>  <m_primary>  (6) 
energy

$$$$
6:0
     RDKit          3D

 33 35  0  0  0  0  0  0  0  0999 V2000
   -0.7760   20.3626  -26.3479 H   0  0  0  0  0  0  0  0  0  0  0  0
   -1.3150   20.9760  -27.0850 C   0  0  0  0  0  0  0  0  0  0  0  0
   -2.3470   20.4160  -27.8230 C   0  0  0  0  0  0  0  0  0  0  0  0
   -2.6055   19.3553  -27.6887 H   0  0  0  0  0  0  0  0  0  0  0  0
   -3.0550   21.1930  -28.7320 C   0  0  0  0  0  0  0  0  0  0  0  0
   -3.8854   20.7479  -29.2998 H   0  0  0  0  0  0  0  0  0  0  0  0
   -2.7180   22.5450  -28.9320 C   0  0  0  0  0  0  0  0  0  0  0  0
   -1.6010   23.1260  -28.2300 C   0  0  0  0  0  0  0  0  0  0  0  0
   -0.9550   22.3110  -27.2700 C   0  0  0  0  0  0  0  0  0  0  0  0
   -0.1501   22.7404  -26.6553 H   0  0  0  0  0  0  0  0  0  0  0  0
   -1.2520   24.5100  -28.5050 C   0  0  0  0  0  0  0  0  0  0  0  0
   -0.1880   25.1440  -28.0790 N   0  0  0  0  0  0  0  0  0  0  0  0
    0.1040   26.1130  -27.0230 C   0  0  0  0  0  0  0  0  0  0  0  0
   -0.1466   27.1210  -27.3852 H   0  0  0  0  0  0  0  0  0  0  0  0
    1.1729   26.0370  -26.7747 H   0  0  0  0  0  0  0  0  0  0  0  0
   -0.7020   25.8280  -25.7520 C   0  0  0  0  0  0  0  0  0  0  0  0
   -0.1972   26.2863  -24.8888 H   0  0  0  0  0  0  0  0  0  0  0  0
   -0.7747   24.7405  -25.6036 H   0  0  0  0  0  0  0  0  0  0  0  0
   -2.0050   26.3720  -25.8790 O   0  0  0  0  0  0  0  0  0  0  0  0
   -2.9660   25.3460  -25.9880 C   0  0  0  0  0  0  0  0  0  0  0  0
   -3.2707   25.0207  -24.9824 H   0  0  0  0  0  0  0  0  0  0  0  0
   -3.8440   25.7224  -26.5333 H   0  0  0  0  0  0  0  0  0  0  0  0
   -2.5330   24.4945  -26.5333 H   0  0  0  0  0  0  0  0  0  0  0  0
   -2.0560   25.2360  -29.3330 N   0  0  0  0  0  0  0  0  0  0  0  0
   -3.1230   24.6840  -29.9420 C   0  0  0  0  0  0  0  0  0  0  0  0
   -3.9530   25.3180  -30.7830 N   0  0  0  0  0  0  0  0  0  0  0  0
   -4.8490   24.4270  -31.1850 N   0  0  0  0  0  0  0  0  0  0  0  0
   -4.5810   23.2360  -30.6020 C   0  0  0  0  0  0  0  0  0  0  0  0
   -5.4170   22.0210  -30.8450 C   0  0  0  0  0  0  0  0  0  0  0  0
   -5.7176   21.5841  -29.8813 H   0  0  0  0  0  0  0  0  0  0  0  0
   -6.3142   22.3015  -31.4163 H   0  0  0  0  0  0  0  0  0  0  0  0
   -4.8344   21.2833  -31.4163 H   0  0  0  0  0  0  0  0  0  0  0  0
   -3.4580   23.3760  -29.7890 C   0  0  0  0  0  0  0  0  0  0  0  0
  1  2  1  0
  2  3  2  0
  3  4  1  0
  3  5  1  0
  5  6  1  0
  5  7  2  0
  7  8  1  0
  8  9  2  0
  9 10  1  0
  8 11  1  0
 11 12  2  0
 12 13  1  0
 13 14  1  0
 13 15  1  0
 13 16  1  0
 16 17  1  0
 16 18  1  0
 16 19  1  0
 19 20  1  0
 20 21  1  0
 20 22  1  0
 20 23  1  0
 11 24  1  0
 24 25  1  0
 25 26  1  0
 26 27  1  0
 27 28  2  0
 28 29  1  0
 29 30  1  0
 29 31  1  0
 29 32  1  0
 28 33  1  0
  9  2  1  0
 33 25  2  0
 33  7  1  0
M  CHG  2  24  -1  26  -1
M  END
>  <UniqueID>  (7) 
7

>  <SMILES>  (7) 
COCC/N=c1/[n-]c2[n-]nc(C)c2c2ccccc12

>  <Energy>  (7) 
98.78246289670705

>  <Genealogy>  (7) 
COCCN=c1[n-]c2[n-]nc(C)c2c2ccccc12 (protonated)
COCC/N=c1/[n-]c2[n-]nc(C)c2c2ccccc12 (cis-trans isomerization)
COCC/N=c1/[n-]c2[n-]nc(C)c2c2ccccc12 (3D coordinates assigned)
COCC/N=c1/[n-]c2[n-]nc(C)c2c2ccccc12 (optimized conformer: 98.78246289670705 kcal/mol)

>  <smiles>  (7) 
COCCN=c1[nH]c2[nH]nc(C)c2c2ccccc12

>  <score_type>  (7) 
oracle

>  <origin>  (7) 
adg

>  <m_score__min__energy>  (7) 
-9.3699999999999992

>  <m_primary>  (7) 
energy

$$$$
7:0
     RDKit          3D

 50 53  0  0  0  0  0  0  0  0999 V2000
   -0.6200   26.3300  -26.4880 Cl  0  0  0  0  0  0  0  0  0  0  0  0
   -1.8490   25.3420  -27.2550 C   0  0  0  0  0  0  0  0  0  0  0  0
   -1.6960   24.9400  -28.5860 C   0  0  0  0  0  0  0  0  0  0  0  0
   -2.6700   24.1430  -29.1940 C   0  0  0  0  0  0  0  0  0  0  0  0
   -3.8050   23.7380  -28.4730 C   0  0  0  0  0  0  0  0  0  0  0  0
   -4.8290   22.8410  -29.1180 C   0  0  0  0  0  0  0  0  0  0  0  0
   -4.5060   22.6310  -30.5350 N   0  0  0  0  0  0  0  0  0  0  0  0
   -5.1550   23.1460  -31.6190 C   0  0  0  0  0  0  0  0  0  0  0  0
   -6.3910   24.0040  -31.5150 C   0  0  0  0  0  0  0  0  0  0  0  0
   -7.6870   23.2520  -31.8470 C   0  0  0  0  0  0  0  0  0  0  0  0
   -7.7060   21.7820  -31.3530 C   0  0  0  0  0  0  0  0  0  0  0  0
   -7.9940   20.7370  -32.3680 N   0  0  0  0  0  0  0  0  0  0  0  0
   -8.8130   19.6120  -31.8940 C   0  0  0  0  0  0  0  0  0  0  0  0
   -8.0120   18.3280  -32.0890 C   0  0  0  0  0  0  0  0  0  0  0  0
   -6.6280   18.7670  -32.5240 C   0  0  0  0  0  0  0  0  0  0  0  0
   -6.8190   20.1780  -33.0470 C   0  0  0  0  0  0  0  0  0  0  0  0
   -4.6650   22.6610  -32.7900 N   0  0  0  0  0  0  0  0  0  0  0  0
   -3.6730   21.8340  -32.4230 C   0  0  0  0  0  0  0  0  0  0  0  0
   -2.8610   21.0550  -33.2420 C   0  0  0  0  0  0  0  0  0  0  0  0
   -1.9110   20.2230  -32.6190 C   0  0  0  0  0  0  0  0  0  0  0  0
   -1.8070   20.1880  -31.2100 C   0  0  0  0  0  0  0  0  0  0  0  0
   -2.6500   20.9830  -30.4110 C   0  0  0  0  0  0  0  0  0  0  0  0
   -3.5740   21.8070  -31.0600 C   0  0  0  0  0  0  0  0  0  0  0  0
   -3.9580   24.1550  -27.1410 C   0  0  0  0  0  0  0  0  0  0  0  0
   -2.9820   24.9520  -26.5340 C   0  0  0  0  0  0  0  0  0  0  0  0
   -0.8077   25.2516  -29.1551 H   0  0  0  0  0  0  0  0  0  0  0  0
   -2.5470   23.8316  -30.2418 H   0  0  0  0  0  0  0  0  0  0  0  0
   -4.8377   21.8703  -28.6006 H   0  0  0  0  0  0  0  0  0  0  0  0
   -5.8176   23.3177  -29.0444 H   0  0  0  0  0  0  0  0  0  0  0  0
   -6.4640   24.3864  -30.4862 H   0  0  0  0  0  0  0  0  0  0  0  0
   -6.2872   24.8124  -32.2538 H   0  0  0  0  0  0  0  0  0  0  0  0
   -8.5267   23.7857  -31.3779 H   0  0  0  0  0  0  0  0  0  0  0  0
   -7.7655   23.2208  -32.9438 H   0  0  0  0  0  0  0  0  0  0  0  0
   -6.7180   21.5633  -30.9217 H   0  0  0  0  0  0  0  0  0  0  0  0
   -8.5426   21.7291  -30.6408 H   0  0  0  0  0  0  0  0  0  0  0  0
   -9.0494   19.7459  -30.8281 H   0  0  0  0  0  0  0  0  0  0  0  0
   -9.7560   19.5625  -32.4582 H   0  0  0  0  0  0  0  0  0  0  0  0
   -7.9564   17.7643  -31.1461 H   0  0  0  0  0  0  0  0  0  0  0  0
   -8.4802   17.6678  -32.8339 H   0  0  0  0  0  0  0  0  0  0  0  0
   -5.9329   18.7599  -31.6715 H   0  0  0  0  0  0  0  0  0  0  0  0
   -6.1976   18.0965  -33.2824 H   0  0  0  0  0  0  0  0  0  0  0  0
   -5.9300   20.7862  -32.8240 H   0  0  0  0  0  0  0  0  0  0  0  0
   -6.9632   20.1741  -34.1375 H   0  0  0  0  0  0  0  0  0  0  0  0
   -4.9990   22.8460  -33.7620 H   0  0  0  0  0  0  0  0  0  0  0  0
   -2.9579   21.0881  -34.3372 H   0  0  0  0  0  0  0  0  0  0  0  0
   -1.2463   19.5969  -33.2323 H   0  0  0  0  0  0  0  0  0  0  0  0
   -1.0613   19.5343  -30.7340 H   0  0  0  0  0  0  0  0  0  0  0  0
   -2.5840   20.9568  -29.3133 H   0  0  0  0  0  0  0  0  0  0  0  0
   -4.8498   23.8534  -26.5721 H   0  0  0  0  0  0  0  0  0  0  0  0
   -3.1057   25.2722  -25.4889 H   0  0  0  0  0  0  0  0  0  0  0  0
  1  2  1  0
  2  3  2  0
  3  4  1  0
  4  5  2  0
  5  6  1  0
  6  7  1  0
  7  8  1  0
  8  9  1  0
  9 10  1  0
 10 11  1  0
 11 12  1  0
 12 13  1  0
 13 14  1  0
 14 15  1  0
 15 16  1  0
  8 17  2  0
 17 18  1  0
 18 19  2  0
 19 20  1  0
 20 21  2  0
 21 22  1  0
 22 23  2  0
  5 24  1  0
 24 25  2  0
 25  2  1  0
 23  7  1  0
 16 12  1  0
 23 18  1  0
  3 26  1  0
  4 27  1  0
  6 28  1  0
  6 29  1  0
  9 30  1  0
  9 31  1  0
 10 32  1  0
 10 33  1  0
 11 34  1  0
 11 35  1  0
 13 36  1  0
 13 37  1  0
 14 38  1  0
 14 39  1  0
 15 40  1  0
 15 41  1  0
 16 42  1  0
 16 43  1  0
 17 44  1  0
 19 45  1  0
 20 46  1  0
 21 47  1  0
 22 48  1  0
 24 49  1  0
 25 50  1  0
M  CHG  1  17   1
M  END
>  <UniqueID>  (8) 
8

>  <SMILES>  (8) 
Clc1ccc(Cn2c(CCCN3CCCC3)[nH+]c3ccccc32)cc1

>  <Energy>  (8) 
94.9871544223566

>  <Genealogy>  (8) 
Clc1ccc(Cn2c(CCCN3CCCC3)[nH+]c3ccccc32)cc1 (protonated)
Clc1ccc(Cn2c(CCCN3CCCC3)[nH+]c3ccccc32)cc1 (3D coordinates assigned)
Clc1ccc(Cn2c(CCCN3CCCC3)[nH+]c3ccccc32)cc1 (nonaromatic ring conformer: 94.9871544223566 kcal/mol)

>  <smiles>  (8) 
Clc1ccc(Cn2c(CCCN3CCCC3)nc3ccccc32)cc1

>  <score_type>  (8) 
oracle

>  <origin>  (8) 
adg

>  <m_score__min__energy>  (8) 
-7.9299999999999997

>  <m_primary>  (8) 
energy

$$$$
8:0
     RDKit          3D

 21 22  0  0  0  0  0  0  0  0999 V2000
   -8.7570   22.2000  -31.8980 C   0  0  0  0  0  0  0  0  0  0  0  0
   -9.5130   21.0320  -31.9750 C   0  0  0  0  0  0  0  0  0  0  0  0
   -8.8790   19.7950  -32.1200 C   0  0  0  0  0  0  0  0  0  0  0  0
   -7.4710   19.7360  -32.1900 C   0  0  0  0  0  0  0  0  0  0  0  0
   -6.7180   18.4510  -32.3450 C   0  0  0  0  0  0  0  0  0  0  0  0
   -6.2690   17.9730  -33.5950 C   0  0  0  0  0  0  0  0  0  0  0  0
   -5.5710   16.7690  -33.6830 C   0  0  0  0  0  0  0  0  0  0  0  0
   -5.3170   16.0350  -32.5260 C   0  0  0  0  0  0  0  0  0  0  0  0
   -5.7480   16.4940  -31.3220 N   0  0  0  0  0  0  0  0  0  0  0  0
   -6.4310   17.6660  -31.2070 C   0  0  0  0  0  0  0  0  0  0  0  0
   -6.7690   20.9040  -32.1100 N   0  0  0  0  0  0  0  0  0  0  0  0
   -7.3690   22.1150  -31.9680 C   0  0  0  0  0  0  0  0  0  0  0  0
   -9.2503   23.1765  -31.7834 H   0  0  0  0  0  0  0  0  0  0  0  0
  -10.6105   21.0837  -31.9216 H   0  0  0  0  0  0  0  0  0  0  0  0
   -9.4746   18.8721  -32.1792 H   0  0  0  0  0  0  0  0  0  0  0  0
   -6.4712   18.5546  -34.5065 H   0  0  0  0  0  0  0  0  0  0  0  0
   -5.2231   16.4010  -34.6595 H   0  0  0  0  0  0  0  0  0  0  0  0
   -4.7676   15.0840  -32.5875 H   0  0  0  0  0  0  0  0  0  0  0  0
   -5.5490   15.9330  -30.4640 H   0  0  0  0  0  0  0  0  0  0  0  0
   -6.7635   18.0057  -30.2150 H   0  0  0  0  0  0  0  0  0  0  0  0
   -6.7582   23.0279  -31.9084 H   0  0  0  0  0  0  0  0  0  0  0  0
  1  2  2  0
  2  3  1  0
  3  4  2  0
  4  5  1  0
  5  6  2  0
  6  7  1  0
  7  8  2  0
  8  9  1  0
  9 10  2  0
  4 11  1  0
 11 12  2  0
 12  1  1  0
 10  5  1  0
  1 13  1  0
  2 14  1  0
  3 15  1  0
  6 16  1  0
  7 17  1  0
  8 18  1  0
  9 19  1  0
 10 20  1  0
 12 21  1  0
M  CHG  1   9   1
M  END
>  <UniqueID>  (9) 
9

>  <SMILES>  (9) 
c1ccc(-c2ccc[nH+]c2)nc1

>  <Energy>  (9) 
27.13230564199852

>  <Genealogy>  (9) 
c1ccc(-c2ccc[nH+]c2)nc1 (protonated)
c1ccc(-c2ccc[nH+]c2)nc1 (3D coordinates assigned)
c1ccc(-c2ccc[nH+]c2)nc1 (optimized conformer: 27.13230564199852 kcal/mol)

>  <smiles>  (9) 
c1ccc(-c2cccnc2)nc1

>  <score_type>  (9) 
oracle

>  <origin>  (9) 
adg

>  <m_score__min__energy>  (9) 
-5.0899999999999999

>  <m_primary>  (9) 
energy

$$$$
9:0
     RDKit          3D

 37 39  0  0  0  0  0  0  0  0999 V2000
   -0.8630   22.2510  -26.5530 C   0  0  0  0  0  0  0  0  0  0  0  0
   -1.9380   22.7950  -27.4470 C   0  0  0  0  0  0  0  0  0  0  0  0
   -1.7400   23.9990  -28.1390 C   0  0  0  0  0  0  0  0  0  0  0  0
   -2.7550   24.5240  -28.9440 C   0  0  0  0  0  0  0  0  0  0  0  0
   -3.9850   23.8610  -29.0510 C   0  0  0  0  0  0  0  0  0  0  0  0
   -5.2510   24.5090  -30.0850 S   0  0  0  0  0  0  0  0  0  0  0  0
   -4.6420   25.2850  -31.2200 O   0  0  0  0  0  0  0  0  0  0  0  0
   -6.1270   25.4450  -29.2970 O   0  0  0  0  0  0  0  0  0  0  0  0
   -6.2100   23.1780  -30.7190 C   0  0  0  0  0  0  0  0  0  0  0  0
   -7.5270   22.9870  -30.2830 C   0  0  0  0  0  0  0  0  0  0  0  0
   -8.2780   21.9130  -30.7640 C   0  0  0  0  0  0  0  0  0  0  0  0
   -7.7170   21.0070  -31.6770 C   0  0  0  0  0  0  0  0  0  0  0  0
   -6.3970   21.2050  -32.1320 C   0  0  0  0  0  0  0  0  0  0  0  0
   -5.6450   22.2790  -31.6330 C   0  0  0  0  0  0  0  0  0  0  0  0
   -5.7480   20.2140  -33.0700 C   0  0  0  0  0  0  0  0  0  0  0  0
   -6.7340   19.4250  -33.8220 N   0  0  0  0  0  0  0  0  0  0  0  0
   -7.7120   18.8140  -32.9130 C   0  0  0  0  0  0  0  0  0  0  0  0
   -8.5640   19.8870  -32.2220 C   0  0  0  0  0  0  0  0  0  0  0  0
   -4.1870   22.6630  -28.3540 C   0  0  0  0  0  0  0  0  0  0  0  0
   -3.1730   22.1360  -27.5480 C   0  0  0  0  0  0  0  0  0  0  0  0
   -1.1517   22.3971  -25.5017 H   0  0  0  0  0  0  0  0  0  0  0  0
   -0.7301   21.1771  -26.7509 H   0  0  0  0  0  0  0  0  0  0  0  0
    0.0810   22.7799  -26.7509 H   0  0  0  0  0  0  0  0  0  0  0  0
   -0.7822   24.5321  -28.0478 H   0  0  0  0  0  0  0  0  0  0  0  0
   -2.5877   25.4609  -29.4955 H   0  0  0  0  0  0  0  0  0  0  0  0
   -7.9713   23.6858  -29.5589 H   0  0  0  0  0  0  0  0  0  0  0  0
   -9.3156   21.7761  -30.4253 H   0  0  0  0  0  0  0  0  0  0  0  0
   -4.6043   22.4163  -31.9617 H   0  0  0  0  0  0  0  0  0  0  0  0
   -5.1174   20.7642  -33.7839 H   0  0  0  0  0  0  0  0  0  0  0  0
   -5.1540   19.5161  -32.4616 H   0  0  0  0  0  0  0  0  0  0  0  0
   -7.2360   20.0570  -34.4900 H   0  0  0  0  0  0  0  0  0  0  0  0
   -8.3706   18.1470  -33.4886 H   0  0  0  0  0  0  0  0  0  0  0  0
   -7.1687   18.2473  -32.1425 H   0  0  0  0  0  0  0  0  0  0  0  0
   -9.2757   20.3010  -32.9514 H   0  0  0  0  0  0  0  0  0  0  0  0
   -9.0913   19.4155  -31.3797 H   0  0  0  0  0  0  0  0  0  0  0  0
   -5.1477   22.1343  -28.4410 H   0  0  0  0  0  0  0  0  0  0  0  0
   -3.3438   21.2025  -26.9917 H   0  0  0  0  0  0  0  0  0  0  0  0
  1  2  1  0
  2  3  2  0
  3  4  1  0
  4  5  2  0
  5  6  1  0
  6  7  2  0
  6  8  2  0
  6  9  1  0
  9 10  2  0
 10 11  1  0
 11 12  2  0
 12 13  1  0
 13 14  2  0
 13 15  1  0
 15 16  1  0
 16 17  1  0
 17 18  1  0
  5 19  1  0
 19 20  2  0
 20  2  1  0
 14  9  1  0
 18 12  1  0
  1 21  1  0
  1 22  1  0
  1 23  1  0
  3 24  1  0
  4 25  1  0
 10 26  1  0
 11 27  1  0
 14 28  1  0
 15 29  1  0
 15 30  1  0
 16 31  1  0
 17 32  1  0
 17 33  1  0
 18 34  1  0
 18 35  1  0
 19 36  1  0
 20 37  1  0
M  END
>  <UniqueID>  (10) 
10

>  <SMILES>  (10) 
Cc1ccc(S(=O)(=O)c2ccc3c(c2)CNCC3)cc1

>  <Energy>  (10) 
41.43191366117066

>  <Genealogy>  (10) 
Cc1ccc(S(=O)(=O)c2ccc3c(c2)CNCC3)cc1 (3D coordinates assigned)
Cc1ccc(S(=O)(=O)c2ccc3c(c2)CNCC3)cc1 (nonaromatic ring conformer: 41.43191366117066 kcal/mol)

>  <smiles>  (10) 
Cc1ccc(S(=O)(=O)c2ccc3c(c2)CNCC3)cc1

>  <score_type>  (10) 
oracle

>  <origin>  (10) 
adg

>  <m_score__min__energy>  (10) 
-8.7599999999999998

>  <m_primary>  (10) 
energy

$$$$
10:0
     RDKit          3D

 59 62  0  0  0  0  0  0  0  0999 V2000
   -2.7360   22.0300  -27.5970 C   0  0  0  0  0  0  0  0  0  0  0  0
   -3.1530   22.1380  -29.0330 C   0  0  0  0  0  0  0  0  0  0  0  0
   -3.9300   23.2420  -29.4670 C   0  0  0  0  0  0  0  0  0  0  0  0
   -4.2980   23.3710  -30.8190 C   0  0  0  0  0  0  0  0  0  0  0  0
   -3.8670   22.3920  -31.7100 C   0  0  0  0  0  0  0  0  0  0  0  0
   -4.1230   22.3210  -33.0280 N   0  0  0  0  0  0  0  0  0  0  0  0
   -3.5180   21.1940  -33.4670 C   0  0  0  0  0  0  0  0  0  0  0  0
   -2.8660   20.5540  -32.4180 C   0  0  0  0  0  0  0  0  0  0  0  0
   -2.1290   19.2470  -32.4880 C   0  0  0  0  0  0  0  0  0  0  0  0
   -2.2990   18.5640  -33.8520 C   0  0  0  0  0  0  0  0  0  0  0  0
   -2.6010   17.0560  -33.7220 C   0  0  0  0  0  0  0  0  0  0  0  0
   -3.9100   16.6860  -34.3180 N   0  0  0  0  0  0  0  0  0  0  0  0
   -4.7800   16.0020  -33.3200 C   0  0  0  0  0  0  0  0  0  0  0  0
   -6.2750   16.1400  -33.6520 C   0  0  0  0  0  0  0  0  0  0  0  0
   -6.6930   17.5570  -33.7480 N   0  0  0  0  0  0  0  0  0  0  0  0
   -7.6640   18.0020  -32.7240 C   0  0  0  0  0  0  0  0  0  0  0  0
   -7.1020   18.9910  -31.6710 C   0  0  0  0  0  0  0  0  0  0  0  0
   -7.6680   20.3850  -31.7880 C   0  0  0  0  0  0  0  0  0  0  0  0
   -9.0050   20.6390  -31.4340 C   0  0  0  0  0  0  0  0  0  0  0  0
   -9.5270   21.9320  -31.5290 C   0  0  0  0  0  0  0  0  0  0  0  0
   -8.7180   22.9840  -31.9610 C   0  0  0  0  0  0  0  0  0  0  0  0
   -7.3820   22.7460  -32.2950 C   0  0  0  0  0  0  0  0  0  0  0  0
   -6.5970   23.7720  -32.7050 F   0  0  0  0  0  0  0  0  0  0  0  0
   -6.8540   21.4540  -32.2030 C   0  0  0  0  0  0  0  0  0  0  0  0
   -5.6040   18.5140  -34.0140 C   0  0  0  0  0  0  0  0  0  0  0  0
   -4.5560   17.8800  -34.9370 C   0  0  0  0  0  0  0  0  0  0  0  0
   -3.1060   21.3290  -31.2990 C   0  0  0  0  0  0  0  0  0  0  0  0
   -2.7200   21.1720  -29.9680 C   0  0  0  0  0  0  0  0  0  0  0  0
   -3.5956   22.2526  -26.9478 H   0  0  0  0  0  0  0  0  0  0  0  0
   -2.3784   21.0096  -27.3948 H   0  0  0  0  0  0  0  0  0  0  0  0
   -1.9280   22.7485  -27.3948 H   0  0  0  0  0  0  0  0  0  0  0  0
   -4.2478   24.0042  -28.7404 H   0  0  0  0  0  0  0  0  0  0  0  0
   -4.9079   24.2199  -31.1616 H   0  0  0  0  0  0  0  0  0  0  0  0
   -4.6860   22.9910  -33.5980 H   0  0  0  0  0  0  0  0  0  0  0  0
   -3.5386   20.8343  -34.5063 H   0  0  0  0  0  0  0  0  0  0  0  0
   -1.0588   19.4329  -32.3148 H   0  0  0  0  0  0  0  0  0  0  0  0
   -2.5462   18.5798  -31.7193 H   0  0  0  0  0  0  0  0  0  0  0  0
   -3.1306   19.0459  -34.3870 H   0  0  0  0  0  0  0  0  0  0  0  0
   -1.3513   18.6699  -34.4003 H   0  0  0  0  0  0  0  0  0  0  0  0
   -1.8078   16.4917  -34.2342 H   0  0  0  0  0  0  0  0  0  0  0  0
   -2.6409   16.8137  -32.6497 H   0  0  0  0  0  0  0  0  0  0  0  0
   -3.7200   16.0070  -35.0940 H   0  0  0  0  0  0  0  0  0  0  0  0
   -4.5202   14.9333  -33.2988 H   0  0  0  0  0  0  0  0  0  0  0  0
   -4.6083   16.4785  -32.3436 H   0  0  0  0  0  0  0  0  0  0  0  0
   -6.4722   15.6455  -34.6146 H   0  0  0  0  0  0  0  0  0  0  0  0
   -6.8484   15.6708  -32.8390 H   0  0  0  0  0  0  0  0  0  0  0  0
   -8.5021   18.4933  -33.2398 H   0  0  0  0  0  0  0  0  0  0  0  0
   -7.9597   17.0993  -32.1694 H   0  0  0  0  0  0  0  0  0  0  0  0
   -7.3377   18.6030  -30.6690 H   0  0  0  0  0  0  0  0  0  0  0  0
   -6.0187   19.0672  -31.8463 H   0  0  0  0  0  0  0  0  0  0  0  0
   -9.6433   19.8158  -31.0805 H   0  0  0  0  0  0  0  0  0  0  0  0
  -10.5775   22.1209  -31.2628 H   0  0  0  0  0  0  0  0  0  0  0  0
   -9.1318   24.0002  -32.0386 H   0  0  0  0  0  0  0  0  0  0  0  0
   -5.7988   21.2736  -32.4560 H   0  0  0  0  0  0  0  0  0  0  0  0
   -6.0185   19.4112  -34.4970 H   0  0  0  0  0  0  0  0  0  0  0  0
   -5.1256   18.7874  -33.0619 H   0  0  0  0  0  0  0  0  0  0  0  0
   -5.0469   17.5725  -35.8721 H   0  0  0  0  0  0  0  0  0  0  0  0
   -3.7727   18.6293  -35.1243 H   0  0  0  0  0  0  0  0  0  0  0  0
   -2.0968   20.3211  -29.6557 H   0  0  0  0  0  0  0  0  0  0  0  0
  1  2  1  0
  2  3  2  0
  3  4  1  0
  4  5  2  0
  5  6  1  0
  6  7  1  0
  7  8  2  0
  8  9  1  0
  9 10  1  0
 10 11  1  0
 11 12  1  0
 12 13  1  0
 13 14  1  0
 14 15  1  0
 15 16  1  0
 16 17  1  0
 17 18  1  0
 18 19  2  0
 19 20  1  0
 20 21  2  0
 21 22  1  0
 22 23  1  0
 22 24  2  0
 15 25  1  0
 25 26  1  0
  8 27  1  0
 27 28  2  0
 28  2  1  0
 27  5  1  0
 26 12  1  0
 24 18  1  0
  1 29  1  0
  1 30  1  0
  1 31  1  0
  3 32  1  0
  4 33  1  0
  6 34  1  0
  7 35  1  0
  9 36  1  0
  9 37  1  0
 10 38  1  0
 10 39  1  0
 11 40  1  0
 11 41  1  0
 12 42  1  0
 13 43  1  0
 13 44  1  0
 14 45  1  0
 14 46  1  0
 16 47  1  0
 16 48  1  0
 17 49  1  0
 17 50  1  0
 19 51  1  0
 20 52  1  0
 21 53  1  0
 24 54  1  0
 25 55  1  0
 25 56  1  0
 26 57  1  0
 26 58  1  0
 28 59  1  0
M  CHG  1  12   1
M  END
>  <UniqueID>  (11) 
11

>  <SMILES>  (11) 
Cc1ccc2[nH]cc(CCC[NH+]3CCN(CCc4cccc(F)c4)CC3)c2c1

>  <Energy>  (11) 
103.84505127251346

>  <Genealogy>  (11) 
Cc1ccc2[nH]cc(CCC[NH+]3CCN(CCc4cccc(F)c4)CC3)c2c1 (protonated)
Cc1ccc2[nH]cc(CCC[NH+]3CCN(CCc4cccc(F)c4)CC3)c2c1 (3D coordinates assigned)
Cc1ccc2[nH]cc(CCC[NH+]3CCN(CCc4cccc(F)c4)CC3)c2c1 (nonaromatic ring conformer: 103.84505127251346 kcal/mol)

>  <smiles>  (11) 
Cc1ccc2[nH]cc(CCCN3CCN(CCc4cccc(F)c4)CC3)c2c1

>  <score_type>  (11) 
oracle

>  <origin>  (11) 
adg

>  <m_score__min__energy>  (11) 
-8.4900000000000002

>  <m_primary>  (11) 
energy

$$$$
11:0
     RDKit          3D

 40 42  0  0  0  0  0  0  0  0999 V2000
   -0.8670   26.7400  -28.1350 C   0  0  0  0  0  0  0  0  0  0  0  0
   -1.7000   25.6130  -28.5370 N   0  0  0  0  0  0  0  0  0  0  0  0
   -1.1290   24.3690  -28.9680 C   0  0  0  0  0  0  0  0  0  0  0  0
    0.1130   24.1780  -28.8530 O   0  0  0  0  0  0  0  0  0  0  0  0
   -1.9820   23.2840  -29.5060 C   0  0  0  0  0  0  0  0  0  0  0  0
   -1.5200   21.9610  -29.4360 C   0  0  0  0  0  0  0  0  0  0  0  0
   -2.2990   20.9080  -29.9160 C   0  0  0  0  0  0  0  0  0  0  0  0
   -3.5470   21.1570  -30.4840 C   0  0  0  0  0  0  0  0  0  0  0  0
   -4.0300   22.4750  -30.5920 C   0  0  0  0  0  0  0  0  0  0  0  0
   -5.2790   22.7680  -31.1860 C   0  0  0  0  0  0  0  0  0  0  0  0
   -6.1710   21.7050  -31.7110 C   0  0  0  0  0  0  0  0  0  0  0  0
   -7.4310   21.4740  -31.1090 C   0  0  0  0  0  0  0  0  0  0  0  0
   -7.8930   22.2930  -29.9320 C   0  0  0  0  0  0  0  0  0  0  0  0
   -8.2610   20.4600  -31.6110 C   0  0  0  0  0  0  0  0  0  0  0  0
   -7.8540   19.6840  -32.6960 C   0  0  0  0  0  0  0  0  0  0  0  0
   -6.6130   19.9070  -33.2930 C   0  0  0  0  0  0  0  0  0  0  0  0
   -5.7610   20.9130  -32.8100 C   0  0  0  0  0  0  0  0  0  0  0  0
   -4.4230   21.1280  -33.4690 C   0  0  0  0  0  0  0  0  0  0  0  0
   -5.6940   24.1010  -31.2930 C   0  0  0  0  0  0  0  0  0  0  0  0
   -4.8750   25.1210  -30.8170 C   0  0  0  0  0  0  0  0  0  0  0  0
   -3.6810   24.8250  -30.2430 N   0  0  0  0  0  0  0  0  0  0  0  0
   -3.2370   23.5460  -30.1020 C   0  0  0  0  0  0  0  0  0  0  0  0
   -0.8275   26.7935  -27.0370 H   0  0  0  0  0  0  0  0  0  0  0  0
    0.1497   26.6046  -28.5323 H   0  0  0  0  0  0  0  0  0  0  0  0
   -1.2948   27.6723  -28.5323 H   0  0  0  0  0  0  0  0  0  0  0  0
   -2.7380   25.7110  -28.4630 H   0  0  0  0  0  0  0  0  0  0  0  0
   -0.5329   21.7519  -28.9979 H   0  0  0  0  0  0  0  0  0  0  0  0
   -1.9262   19.8755  -29.8458 H   0  0  0  0  0  0  0  0  0  0  0  0
   -4.1582   20.3189  -30.8501 H   0  0  0  0  0  0  0  0  0  0  0  0
   -7.6073   21.7866  -28.9982 H   0  0  0  0  0  0  0  0  0  0  0  0
   -7.4222   23.2865  -29.9692 H   0  0  0  0  0  0  0  0  0  0  0  0
   -8.9868   22.4039  -29.9692 H   0  0  0  0  0  0  0  0  0  0  0  0
   -9.2403   20.2757  -31.1451 H   0  0  0  0  0  0  0  0  0  0  0  0
   -8.5139   18.8933  -33.0824 H   0  0  0  0  0  0  0  0  0  0  0  0
   -6.2998   19.2902  -34.1483 H   0  0  0  0  0  0  0  0  0  0  0  0
   -3.6496   21.2523  -32.6967 H   0  0  0  0  0  0  0  0  0  0  0  0
   -4.1788   20.2576  -34.0957 H   0  0  0  0  0  0  0  0  0  0  0  0
   -4.4638   22.0311  -34.0957 H   0  0  0  0  0  0  0  0  0  0  0  0
   -6.6644   24.3415  -31.7519 H   0  0  0  0  0  0  0  0  0  0  0  0
   -5.1961   26.1693  -30.9062 H   0  0  0  0  0  0  0  0  0  0  0  0
  1  2  1  0
  2  3  1  0
  3  4  2  0
  3  5  1  0
  5  6  2  0
  6  7  1  0
  7  8  2  0
  8  9  1  0
  9 10  2  0
 10 11  1  0
 11 12  2  0
 12 13  1  0
 12 14  1  0
 14 15  2  0
 15 16  1  0
 16 17  2  0
 17 18  1  0
 10 19  1  0
 19 20  2  0
 20 21  1  0
 21 22  2  0
 22  5  1  0
 22  9  1  0
 17 11  1  0
  1 23  1  0
  1 24  1  0
  1 25  1  0
  2 26  1  0
  6 27  1  0
  7 28  1  0
  8 29  1  0
 13 30  1  0
 13 31  1  0
 13 32  1  0
 14 33  1  0
 15 34  1  0
 16 35  1  0
 18 36  1  0
 18 37  1  0
 18 38  1  0
 19 39  1  0
 20 40  1  0
M  END
>  <UniqueID>  (12) 
12

>  <SMILES>  (12) 
CNC(=O)c1cccc2c(-c3c(C)cccc3C)ccnc12

>  <Energy>  (12) 
56.60053097100542

>  <Genealogy>  (12) 
CNC(=O)c1cccc2c(-c3c(C)cccc3C)ccnc12 (3D coordinates assigned)
CNC(=O)c1cccc2c(-c3c(C)cccc3C)ccnc12 (optimized conformer: 56.60053097100542 kcal/mol)

>  <smiles>  (12) 
CNC(=O)c1cccc2c(-c3c(C)cccc3C)ccnc12

>  <score_type>  (12) 
oracle

>  <origin>  (12) 
adg

>  <m_score__min__energy>  (12) 
-8.6999999999999993

>  <m_primary>  (12) 
energy

$$$$
12:0
     RDKit          3D

 46 49  0  0  0  0  0  0  0  0999 V2000
   -0.2480   25.5790  -27.1150 C   0  0  0  0  0  0  0  0  0  0  0  0
   -0.1170   24.8330  -28.3210 O   0  0  0  0  0  0  0  0  0  0  0  0
   -1.1690   24.1490  -28.9470 C   0  0  0  0  0  0  0  0  0  0  0  0
   -0.9510   23.0810  -29.8380 C   0  0  0  0  0  0  0  0  0  0  0  0
   -2.0340   22.4290  -30.4350 C   0  0  0  0  0  0  0  0  0  0  0  0
   -3.3530   22.8240  -30.1470 C   0  0  0  0  0  0  0  0  0  0  0  0
   -4.5120   22.1580  -30.7880 C   0  0  0  0  0  0  0  0  0  0  0  0
   -5.6850   22.8280  -30.8590 N   0  0  0  0  0  0  0  0  0  0  0  0
   -6.7920   22.2710  -31.3980 C   0  0  0  0  0  0  0  0  0  0  0  0
   -7.9930   22.9850  -31.3950 C   0  0  0  0  0  0  0  0  0  0  0  0
   -9.1280   22.4100  -31.8620 N   0  0  0  0  0  0  0  0  0  0  0  0
   -9.1370   21.1370  -32.3310 C   0  0  0  0  0  0  0  0  0  0  0  0
   -7.9600   20.3860  -32.3610 C   0  0  0  0  0  0  0  0  0  0  0  0
   -6.7370   20.9600  -31.9290 C   0  0  0  0  0  0  0  0  0  0  0  0
   -5.5200   20.2940  -31.9660 N   0  0  0  0  0  0  0  0  0  0  0  0
   -5.3630   18.9860  -32.6710 C   0  0  0  0  0  0  0  0  0  0  0  0
   -5.7180   19.1340  -34.1650 C   0  0  0  0  0  0  0  0  0  0  0  0
   -5.6550   17.7790  -34.8800 C   0  0  0  0  0  0  0  0  0  0  0  0
   -6.5290   16.6920  -34.2120 C   0  0  0  0  0  0  0  0  0  0  0  0
   -7.1500   17.1270  -32.8750 C   0  0  0  0  0  0  0  0  0  0  0  0
   -6.1140   17.8090  -31.9680 C   0  0  0  0  0  0  0  0  0  0  0  0
   -4.4430   20.8480  -31.3020 C   0  0  0  0  0  0  0  0  0  0  0  0
   -3.3880   20.1780  -31.1240 O   0  0  0  0  0  0  0  0  0  0  0  0
   -3.5630   23.9020  -29.2720 C   0  0  0  0  0  0  0  0  0  0  0  0
   -2.4800   24.5520  -28.6740 C   0  0  0  0  0  0  0  0  0  0  0  0
   -0.1298   24.9061  -26.2529 H   0  0  0  0  0  0  0  0  0  0  0  0
    0.5269   26.3589  -27.0803 H   0  0  0  0  0  0  0  0  0  0  0  0
   -1.2423   26.0482  -27.0803 H   0  0  0  0  0  0  0  0  0  0  0  0
    0.0757   22.7582  -30.0654 H   0  0  0  0  0  0  0  0  0  0  0  0
   -1.8533   21.6004  -31.1356 H   0  0  0  0  0  0  0  0  0  0  0  0
   -8.0174   24.0162  -31.0127 H   0  0  0  0  0  0  0  0  0  0  0  0
  -10.0775   20.6935  -32.6900 H   0  0  0  0  0  0  0  0  0  0  0  0
   -7.9814   19.3466  -32.7206 H   0  0  0  0  0  0  0  0  0  0  0  0
   -4.3021   18.7019  -32.6100 H   0  0  0  0  0  0  0  0  0  0  0  0
   -6.7359   19.5413  -34.2545 H   0  0  0  0  0  0  0  0  0  0  0  0
   -4.9897   19.8124  -34.6334 H   0  0  0  0  0  0  0  0  0  0  0  0
   -5.9986   17.9149  -35.9161 H   0  0  0  0  0  0  0  0  0  0  0  0
   -4.6119   17.4334  -34.8304 H   0  0  0  0  0  0  0  0  0  0  0  0
   -7.3435   16.4295  -34.9031 H   0  0  0  0  0  0  0  0  0  0  0  0
   -5.8682   15.8398  -33.9949 H   0  0  0  0  0  0  0  0  0  0  0  0
   -7.9699   17.8327  -33.0746 H   0  0  0  0  0  0  0  0  0  0  0  0
   -7.5224   16.2295  -32.3593 H   0  0  0  0  0  0  0  0  0  0  0  0
   -6.6313   18.2039  -31.0812 H   0  0  0  0  0  0  0  0  0  0  0  0
   -5.3614   17.0518  -31.7030 H   0  0  0  0  0  0  0  0  0  0  0  0
   -4.5880   24.2375  -29.0556 H   0  0  0  0  0  0  0  0  0  0  0  0
   -2.6604   25.3881  -27.9824 H   0  0  0  0  0  0  0  0  0  0  0  0
  1  2  1  0
  2  3  1  0
  3  4  2  0
  4  5  1  0
  5  6  2  0
  6  7  1  0
  7  8  2  0
  8  9  1  0
  9 10  2  0
 10 11  1  0
 11 12  2  0
 12 13  1  0
 13 14  2  0
 14 15  1  0
 15 16  1  0
 16 17  1  0
 17 18  1  0
 18 19  1  0
 19 20  1  0
 20 21  1  0
 15 22  1  0
 22 23  2  0
  6 24  1  0
 24 25  2  0
 25  3  1  0
 22  7  1  0
 14  9  1  0
 21 16  1  0
  1 26  1  0
  1 27  1  0
  1 28  1  0
  4 29  1  0
  5 30  1  0
 10 31  1  0
 12 32  1  0
 13 33  1  0
 16 34  1  0
 17 35  1  0
 17 36  1  0
 18 37  1  0
 18 38  1  0
 19 39  1  0
 19 40  1  0
 20 41  1  0
 20 42  1  0
 21 43  1  0
 21 44  1  0
 24 45  1  0
 25 46  1  0
M  END
>  <UniqueID>  (13) 
13

>  <SMILES>  (13) 
COc1ccc(-c2nc3cnccc3n(C3CCCCC3)c2=O)cc1

>  <Energy>  (13) 
75.71830859316906

>  <Genealogy>  (13) 
COc1ccc(-c2nc3cnccc3n(C3CCCCC3)c2=O)cc1 (3D coordinates assigned)
COc1ccc(-c2nc3cnccc3n(C3CCCCC3)c2=O)cc1 (nonaromatic ring conformer: 75.71830859316906 kcal/mol)

>  <smiles>  (13) 
COc1ccc(-c2nc3cnccc3n(C3CCCCC3)c2=O)cc1

>  <score_type>  (13) 
oracle

>  <origin>  (13) 
adg

>  <m_score__min__energy>  (13) 
-8.5700000000000003

>  <m_primary>  (13) 
energy

$$$$
13:0
     RDKit          3D

 56 58  0  0  0  0  0  0  0  0999 V2000
   -3.1951   20.2659  -32.6656 H   0  0  0  0  0  0  0  0  0  0  0  0
   -3.2650   21.3290  -32.3920 C   0  0  0  0  0  0  0  0  0  0  0  0
   -2.2720   21.8900  -31.4560 C   0  0  0  0  0  0  0  0  0  0  0  0
   -1.0670   21.5190  -31.5040 O   0  0  0  0  0  0  0  0  0  0  0  0
   -2.6850   22.8690  -30.4910 N   0  0  0  0  0  0  0  0  0  0  0  0
   -3.6640   23.2310  -30.5220 H   0  0  0  0  0  0  0  0  0  0  0  0
   -1.7670   23.4350  -29.5040 C   0  0  0  0  0  0  0  0  0  0  0  0
   -0.7657   23.0055  -29.6557 H   0  0  0  0  0  0  0  0  0  0  0  0
   -1.7409   24.5269  -29.6344 H   0  0  0  0  0  0  0  0  0  0  0  0
   -2.2380   23.1220  -28.0710 C   0  0  1  0  0  0  0  0  0  0  0  0
   -1.8983   22.0936  -27.8789 H   0  0  0  0  0  0  0  0  0  0  0  0
   -1.6950   24.1160  -27.1080 C   0  0  0  0  0  0  0  0  0  0  0  0
   -0.3540   24.2990  -26.7590 C   0  0  0  0  0  0  0  0  0  0  0  0
    0.4296   23.6730  -27.2107 H   0  0  0  0  0  0  0  0  0  0  0  0
   -0.0180   25.2980  -25.8190 C   0  0  0  0  0  0  0  0  0  0  0  0
    1.3100   25.5350  -25.4310 O   0  0  0  0  0  0  0  0  0  0  0  0
    2.0050   24.7840  -24.4410 C   0  0  0  0  0  0  0  0  0  0  0  0
    1.6942   25.1199  -23.4407 H   0  0  0  0  0  0  0  0  0  0  0  0
    1.7697   23.7159  -24.5587 H   0  0  0  0  0  0  0  0  0  0  0  0
    3.0881   24.9360  -24.5587 H   0  0  0  0  0  0  0  0  0  0  0  0
   -1.0360   26.0910  -25.2440 C   0  0  0  0  0  0  0  0  0  0  0  0
   -0.6690   27.0770  -24.3160 O   0  0  0  0  0  0  0  0  0  0  0  0
   -0.3080   26.8150  -22.9630 C   0  0  0  0  0  0  0  0  0  0  0  0
   -1.0122   27.3261  -22.2901 H   0  0  0  0  0  0  0  0  0  0  0  0
   -0.3441   25.7314  -22.7771 H   0  0  0  0  0  0  0  0  0  0  0  0
    0.7110   27.1852  -22.7771 H   0  0  0  0  0  0  0  0  0  0  0  0
   -2.3830   25.8750  -25.6130 C   0  0  0  0  0  0  0  0  0  0  0  0
   -3.1856   26.4860  -25.1741 H   0  0  0  0  0  0  0  0  0  0  0  0
   -2.6820   24.8770  -26.5410 C   0  0  0  0  0  0  0  0  0  0  0  0
   -4.0270   24.5080  -27.0350 C   0  0  0  0  0  0  0  0  0  0  0  0
   -4.4636   25.3250  -27.6282 H   0  0  0  0  0  0  0  0  0  0  0  0
   -4.7387   24.3110  -26.2197 H   0  0  0  0  0  0  0  0  0  0  0  0
   -3.7730   23.2690  -27.9130 C   0  0  0  0  0  0  0  0  0  0  0  0
   -4.2416   23.4040  -28.8990 H   0  0  0  0  0  0  0  0  0  0  0  0
   -4.2046   22.3691  -27.4504 H   0  0  0  0  0  0  0  0  0  0  0  0
   -4.2500   22.0700  -32.9210 C   0  0  0  0  0  0  0  0  0  0  0  0
   -4.0363   22.6505  -33.8306 H   0  0  0  0  0  0  0  0  0  0  0  0
   -5.6150   22.1460  -32.3400 C   0  0  0  0  0  0  0  0  0  0  0  0
   -6.5690   21.1380  -32.5860 C   0  0  0  0  0  0  0  0  0  0  0  0
   -6.3054   20.2852  -33.2289 H   0  0  0  0  0  0  0  0  0  0  0  0
   -7.8540   21.2100  -32.0190 C   0  0  0  0  0  0  0  0  0  0  0  0
   -8.8340   20.2310  -32.2450 O   0  0  0  0  0  0  0  0  0  0  0  0
   -8.6950   18.8560  -31.9040 C   0  0  0  0  0  0  0  0  0  0  0  0
   -8.6842   18.7490  -30.8093 H   0  0  0  0  0  0  0  0  0  0  0  0
   -9.5403   18.2879  -32.3196 H   0  0  0  0  0  0  0  0  0  0  0  0
   -7.7531   18.4686  -32.3196 H   0  0  0  0  0  0  0  0  0  0  0  0
   -8.1770   22.2900  -31.1950 C   0  0  0  0  0  0  0  0  0  0  0  0
   -9.1819   22.3566  -30.7525 H   0  0  0  0  0  0  0  0  0  0  0  0
   -7.2370   23.2850  -30.9280 C   0  0  0  0  0  0  0  0  0  0  0  0
   -7.5046   24.1256  -30.2709 H   0  0  0  0  0  0  0  0  0  0  0  0
   -5.9490   23.2230  -31.4920 C   0  0  0  0  0  0  0  0  0  0  0  0
   -4.9870   24.2160  -31.2400 O   0  0  0  0  0  0  0  0  0  0  0  0
   -5.1920   25.3490  -30.4010 C   0  0  0  0  0  0  0  0  0  0  0  0
   -5.1360   25.0396  -29.3469 H   0  0  0  0  0  0  0  0  0  0  0  0
   -4.4153   26.1010  -30.6041 H   0  0  0  0  0  0  0  0  0  0  0  0
   -6.1829   25.7812  -30.6041 H   0  0  0  0  0  0  0  0  0  0  0  0
  1  2  1  0
  2  3  1  0
  3  4  2  0
  3  5  1  0
  5  6  1  0
  5  7  1  0
  7  8  1  0
  7  9  1  0
  7 10  1  0
 10 11  1  1
 10 12  1  0
 12 13  2  0
 13 14  1  0
 13 15  1  0
 15 16  1  0
 16 17  1  0
 17 18  1  0
 17 19  1  0
 17 20  1  0
 15 21  2  0
 21 22  1  0
 22 23  1  0
 23 24  1  0
 23 25  1  0
 23 26  1  0
 21 27  1  0
 27 28  1  0
 27 29  2  0
 29 30  1  0
 30 31  1  0
 30 32  1  0
 30 33  1  0
 33 34  1  0
 33 35  1  0
  2 36  2  0
 36 37  1  0
 36 38  1  0
 38 39  2  0
 39 40  1  0
 39 41  1  0
 41 42  1  0
 42 43  1  0
 43 44  1  0
 43 45  1  0
 43 46  1  0
 41 47  2  0
 47 48  1  0
 47 49  1  0
 49 50  1  0
 49 51  2  0
 51 52  1  0
 52 53  1  0
 53 54  1  0
 53 55  1  0
 53 56  1  0
 33 10  1  0
 51 38  1  0
 29 12  1  0
M  END
>  <UniqueID>  (14) 
14

>  <SMILES>  (14) 
COc1ccc(OC)c(/C=C/C(=O)NC[C@@H]2CCc3cc(OC)c(OC)cc32)c1

>  <Energy>  (14) 
61.13490040957634

>  <Genealogy>  (14) 
COc1ccc(OC)c(C=CC(=O)NC[C@@H]2CCc3cc(OC)c(OC)cc32)c1 (chirality)
COc1ccc(OC)c(/C=C/C(=O)NC[C@@H]2CCc3cc(OC)c(OC)cc32)c1 (cis-trans isomerization)
COc1ccc(OC)c(/C=C/C(=O)NC[C@@H]2CCc3cc(OC)c(OC)cc32)c1 (3D coordinates assigned)
COc1ccc(OC)c(/C=C/C(=O)NC[C@@H]2CCc3cc(OC)c(OC)cc32)c1 (nonaromatic ring conformer: 61.13490040957634 kcal/mol)

>  <smiles>  (14) 
COc1ccc(OC)c(C=CC(=O)NCC2CCc3cc(OC)c(OC)cc32)c1

>  <score_type>  (14) 
oracle

>  <origin>  (14) 
adg

>  <m_score__min__energy>  (14) 
-8.4100000000000001

>  <m_primary>  (14) 
energy

$$$$
14:0
     RDKit          3D

 53 52  0  0  0  0  0  0  0  0999 V2000
   -7.6190   22.0340  -30.4750 C   0  0  0  0  0  0  0  0  0  0  0  0
   -8.6070   22.2990  -31.6080 C   0  0  0  0  0  0  0  0  0  0  0  0
   -9.4530   21.0540  -31.9090 C   0  0  0  0  0  0  0  0  0  0  0  0
   -8.7310   19.7490  -31.5450 C   0  0  0  0  0  0  0  0  0  0  0  0
   -7.8550   19.2170  -32.6920 C   0  0  0  0  0  0  0  0  0  0  0  0
   -6.6740   18.3630  -32.1930 C   0  0  0  0  0  0  0  0  0  0  0  0
   -5.2810   18.8290  -32.6670 C   0  0  0  0  0  0  0  0  0  0  0  0
   -5.2200   20.2750  -33.1920 C   0  0  0  0  0  0  0  0  0  0  0  0
   -4.5740   21.2420  -32.1910 C   0  0  0  0  0  0  0  0  0  0  0  0
   -3.0450   21.1130  -32.2060 C   0  0  0  0  0  0  0  0  0  0  0  0
   -2.4270   21.0910  -30.7960 C   0  0  0  0  0  0  0  0  0  0  0  0
   -3.4240   21.3090  -29.6400 C   0  0  0  0  0  0  0  0  0  0  0  0
   -3.7170   22.7830  -29.3040 C   0  0  0  0  0  0  0  0  0  0  0  0
   -3.2380   23.7620  -30.3870 C   0  0  0  0  0  0  0  0  0  0  0  0
   -4.1550   24.8420  -30.5600 O   0  0  0  0  0  0  0  0  0  0  0  0
   -5.4740   24.6690  -30.9970 C   0  0  0  0  0  0  0  0  0  0  0  0
   -5.7160   24.1800  -32.1340 O   0  0  0  0  0  0  0  0  0  0  0  0
   -6.6040   25.1260  -30.1260 C   0  0  0  0  0  0  0  0  0  0  0  0
   -6.1140   25.7740  -28.9090 N   0  0  0  0  0  0  0  0  0  0  0  0
   -8.1252   22.1698  -29.5079 H   0  0  0  0  0  0  0  0  0  0  0  0
   -7.2426   21.0032  -30.5503 H   0  0  0  0  0  0  0  0  0  0  0  0
   -6.7773   22.7381  -30.5503 H   0  0  0  0  0  0  0  0  0  0  0  0
   -9.2737   23.1242  -31.3171 H   0  0  0  0  0  0  0  0  0  0  0  0
   -8.0381   22.5606  -32.5124 H   0  0  0  0  0  0  0  0  0  0  0  0
  -10.3865   21.1137  -31.3302 H   0  0  0  0  0  0  0  0  0  0  0  0
   -9.6480   21.0368  -32.9914 H   0  0  0  0  0  0  0  0  0  0  0  0
   -8.0911   19.9330  -30.6694 H   0  0  0  0  0  0  0  0  0  0  0  0
   -9.4997   18.9910  -31.3341 H   0  0  0  0  0  0  0  0  0  0  0  0
   -8.4798   18.6001  -33.3546 H   0  0  0  0  0  0  0  0  0  0  0  0
   -7.4359   20.0863  -33.2199 H   0  0  0  0  0  0  0  0  0  0  0  0
   -6.6826   18.3796  -31.0932 H   0  0  0  0  0  0  0  0  0  0  0  0
   -6.8215   17.3592  -32.6179 H   0  0  0  0  0  0  0  0  0  0  0  0
   -4.5864   18.7450  -31.8181 H   0  0  0  0  0  0  0  0  0  0  0  0
   -5.0145   18.1831  -33.5165 H   0  0  0  0  0  0  0  0  0  0  0  0
   -4.6328   20.2872  -34.1221 H   0  0  0  0  0  0  0  0  0  0  0  0
   -6.2538   20.6116  -33.3590 H   0  0  0  0  0  0  0  0  0  0  0  0
   -4.8502   22.2728  -32.4579 H   0  0  0  0  0  0  0  0  0  0  0  0
   -4.9356   20.9936  -31.1823 H   0  0  0  0  0  0  0  0  0  0  0  0
   -2.7776   20.1780  -32.7201 H   0  0  0  0  0  0  0  0  0  0  0  0
   -2.6463   21.9970  -32.7252 H   0  0  0  0  0  0  0  0  0  0  0  0
   -1.9455   20.1128  -30.6505 H   0  0  0  0  0  0  0  0  0  0  0  0
   -1.7240   21.9362  -30.7570 H   0  0  0  0  0  0  0  0  0  0  0  0
   -4.3738   20.8256  -29.9125 H   0  0  0  0  0  0  0  0  0  0  0  0
   -2.9557   20.8761  -28.7437 H   0  0  0  0  0  0  0  0  0  0  0  0
   -4.8034   22.9034  -29.1809 H   0  0  0  0  0  0  0  0  0  0  0  0
   -3.1654   23.0222  -28.3828 H   0  0  0  0  0  0  0  0  0  0  0  0
   -2.2589   24.1683  -30.0934 H   0  0  0  0  0  0  0  0  0  0  0  0
   -3.1663   23.2150  -31.3387 H   0  0  0  0  0  0  0  0  0  0  0  0
   -7.2219   25.8416  -30.6882 H   0  0  0  0  0  0  0  0  0  0  0  0
   -7.1937   24.2444  -29.8344 H   0  0  0  0  0  0  0  0  0  0  0  0
   -6.5950   26.6900  -28.7700 H   0  0  0  0  0  0  0  0  0  0  0  0
   -6.3200   25.1560  -28.0910 H   0  0  0  0  0  0  0  0  0  0  0  0
   -5.0790   25.9190  -28.9660 H   0  0  0  0  0  0  0  0  0  0  0  0
  1  2  1  0
  2  3  1  0
  3  4  1  0
  4  5  1  0
  5  6  1  0
  6  7  1  0
  7  8  1  0
  8  9  1  0
  9 10  1  0
 10 11  1  0
 11 12  1  0
 12 13  1  0
 13 14  1  0
 14 15  1  0
 15 16  1  0
 16 17  2  0
 16 18  1  0
 18 19  1  0
  1 20  1  0
  1 21  1  0
  1 22  1  0
  2 23  1  0
  2 24  1  0
  3 25  1  0
  3 26  1  0
  4 27  1  0
  4 28  1  0
  5 29  1  0
  5 30  1  0
  6 31  1  0
  6 32  1  0
  7 33  1  0
  7 34  1  0
  8 35  1  0
  8 36  1  0
  9 37  1  0
  9 38  1  0
 10 39  1  0
 10 40  1  0
 11 41  1  0
 11 42  1  0
 12 43  1  0
 12 44  1  0
 13 45  1  0
 13 46  1  0
 14 47  1  0
 14 48  1  0
 18 49  1  0
 18 50  1  0
 19 51  1  0
 19 52  1  0
 19 53  1  0
M  CHG  1  19   1
M  END
>  <UniqueID>  (15) 
15

>  <SMILES>  (15) 
CCCCCCCCCCCCCCOC(=O)C[NH3+]

>  <Energy>  (15) 
22.445311675570025

>  <Genealogy>  (15) 
CCCCCCCCCCCCCCOC(=O)C[NH3+] (protonated)
CCCCCCCCCCCCCCOC(=O)C[NH3+] (3D coordinates assigned)
CCCCCCCCCCCCCCOC(=O)C[NH3+] (optimized conformer: 22.445311675570025 kcal/mol)

>  <smiles>  (15) 
CCCCCCCCCCCCCCOC(=O)CN

>  <score_type>  (15) 
oracle

>  <origin>  (15) 
adg

>  <m_score__min__energy>  (15) 
-6.25

>  <m_primary>  (15) 
energy

$$$$
15:0
     RDKit          3D

 47 48  0  0  0  0  0  0  0  0999 V2000
   -1.6890   25.4220  -25.2240 C   0  0  0  0  0  0  0  0  0  0  0  0
   -2.4950   25.6120  -26.4430 N   0  0  0  0  0  0  0  0  0  0  0  0
   -1.6990   25.3080  -27.6640 C   0  0  0  0  0  0  0  0  0  0  0  0
   -1.9790   23.8950  -28.2080 C   0  0  0  0  0  0  0  0  0  0  0  0
   -3.4090   23.6830  -28.5240 N   0  0  0  0  0  0  0  0  0  0  0  0
   -3.7340   23.8280  -30.2380 S   0  0  0  0  0  0  0  0  0  0  0  0
   -2.6050   23.2010  -31.0100 O   0  0  0  0  0  0  0  0  0  0  0  0
   -3.7760   25.2840  -30.6090 O   0  0  0  0  0  0  0  0  0  0  0  0
   -5.2490   23.0160  -30.6940 C   0  0  0  0  0  0  0  0  0  0  0  0
   -5.1620   21.7290  -31.2500 C   0  0  0  0  0  0  0  0  0  0  0  0
   -6.3150   20.9890  -31.5480 C   0  0  0  0  0  0  0  0  0  0  0  0
   -6.2100   19.6360  -32.0350 N   0  0  0  0  0  0  0  0  0  0  0  0
   -7.1300   18.5970  -31.5440 C   0  0  0  0  0  0  0  0  0  0  0  0
   -8.1630   18.2180  -32.6080 C   0  0  0  0  0  0  0  0  0  0  0  0
   -9.4930   19.4040  -32.6550 Cl  0  0  0  0  0  0  0  0  0  0  0  0
   -5.1380   19.2710  -32.9720 C   0  0  0  0  0  0  0  0  0  0  0  0
   -5.7100   18.8850  -34.3350 C   0  0  0  0  0  0  0  0  0  0  0  0
   -5.6570   17.1190  -34.5750 Cl  0  0  0  0  0  0  0  0  0  0  0  0
   -7.5720   21.5610  -31.3180 C   0  0  0  0  0  0  0  0  0  0  0  0
   -7.6740   22.8530  -30.8040 C   0  0  0  0  0  0  0  0  0  0  0  0
   -6.5260   23.5880  -30.4880 C   0  0  0  0  0  0  0  0  0  0  0  0
   -6.7640   25.2080  -29.8440 Cl  0  0  0  0  0  0  0  0  0  0  0  0
   -4.3280   24.5350  -27.7390 C   0  0  0  0  0  0  0  0  0  0  0  0
   -3.7540   24.8310  -26.3490 C   0  0  0  0  0  0  0  0  0  0  0  0
   -2.3234   25.5716  -24.3379 H   0  0  0  0  0  0  0  0  0  0  0  0
   -1.2770   24.4021  -25.2121 H   0  0  0  0  0  0  0  0  0  0  0  0
   -0.8649   26.1505  -25.2121 H   0  0  0  0  0  0  0  0  0  0  0  0
   -2.7540   26.6270  -26.4800 H   0  0  0  0  0  0  0  0  0  0  0  0
   -1.9511   26.0431  -28.4426 H   0  0  0  0  0  0  0  0  0  0  0  0
   -0.6342   25.3590  -27.3926 H   0  0  0  0  0  0  0  0  0  0  0  0
   -1.3893   23.7465  -29.1246 H   0  0  0  0  0  0  0  0  0  0  0  0
   -1.6989   23.1740  -27.4259 H   0  0  0  0  0  0  0  0  0  0  0  0
   -4.1725   21.2944  -31.4551 H   0  0  0  0  0  0  0  0  0  0  0  0
   -6.5490   17.7027  -31.2746 H   0  0  0  0  0  0  0  0  0  0  0  0
   -7.6645   18.9935  -30.6681 H   0  0  0  0  0  0  0  0  0  0  0  0
   -7.6721   18.1883  -33.5920 H   0  0  0  0  0  0  0  0  0  0  0  0
   -8.5805   17.2318  -32.3567 H   0  0  0  0  0  0  0  0  0  0  0  0
   -4.4610   20.1291  -33.0959 H   0  0  0  0  0  0  0  0  0  0  0  0
   -4.5941   18.4069  -32.5628 H   0  0  0  0  0  0  0  0  0  0  0  0
   -6.7544   19.2249  -34.3959 H   0  0  0  0  0  0  0  0  0  0  0  0
   -5.1023   19.3629  -35.1175 H   0  0  0  0  0  0  0  0  0  0  0  0
   -8.4836   20.9883  -31.5439 H   0  0  0  0  0  0  0  0  0  0  0  0
   -8.6669   23.2990  -30.6453 H   0  0  0  0  0  0  0  0  0  0  0  0
   -4.4827   25.4840  -28.2733 H   0  0  0  0  0  0  0  0  0  0  0  0
   -5.2815   24.0003  -27.6167 H   0  0  0  0  0  0  0  0  0  0  0  0
   -4.4916   25.4076  -25.7716 H   0  0  0  0  0  0  0  0  0  0  0  0
   -3.5342   23.8745  -25.8521 H   0  0  0  0  0  0  0  0  0  0  0  0
  1  2  1  0
  2  3  1  0
  3  4  1  0
  4  5  1  0
  5  6  1  0
  6  7  2  0
  6  8  2  0
  6  9  1  0
  9 10  2  0
 10 11  1  0
 11 12  1  0
 12 13  1  0
 13 14  1  0
 14 15  1  0
 12 16  1  0
 16 17  1  0
 17 18  1  0
 11 19  2  0
 19 20  1  0
 20 21  2  0
 21 22  1  0
  5 23  1  0
 23 24  1  0
 24  2  1  0
 21  9  1  0
  1 25  1  0
  1 26  1  0
  1 27  1  0
  2 28  1  0
  3 29  1  0
  3 30  1  0
  4 31  1  0
  4 32  1  0
 10 33  1  0
 13 34  1  0
 13 35  1  0
 14 36  1  0
 14 37  1  0
 16 38  1  0
 16 39  1  0
 17 40  1  0
 17 41  1  0
 19 42  1  0
 20 43  1  0
 23 44  1  0
 23 45  1  0
 24 46  1  0
 24 47  1  0
M  CHG  1   2   1
M  END
>  <UniqueID>  (16) 
16

>  <SMILES>  (16) 
C[NH+]1CCN(S(=O)(=O)c2cc(N(CCCl)CCCl)ccc2Cl)CC1

>  <Energy>  (16) 
55.066035712230516

>  <Genealogy>  (16) 
C[NH+]1CCN(S(=O)(=O)c2cc(N(CCCl)CCCl)ccc2Cl)CC1 (protonated)
C[NH+]1CCN(S(=O)(=O)c2cc(N(CCCl)CCCl)ccc2Cl)CC1 (3D coordinates assigned)
C[NH+]1CCN(S(=O)(=O)c2cc(N(CCCl)CCCl)ccc2Cl)CC1 (nonaromatic ring conformer: 55.066035712230516 kcal/mol)

>  <smiles>  (16) 
CN1CCN(S(=O)(=O)c2cc(N(CCCl)CCCl)ccc2Cl)CC1

>  <score_type>  (16) 
oracle

>  <origin>  (16) 
adg

>  <m_score__min__energy>  (16) 
-7.7000000000000002

>  <m_primary>  (16) 
energy

$$$$
16:0
     RDKit          3D

 39 42  0  0  0  0  0  0  0  0999 V2000
   -1.6898   21.8507  -31.7307 H   0  0  0  0  0  0  0  0  0  0  0  0
   -2.7080   22.2660  -31.7030 C   0  0  0  0  0  0  0  0  0  0  0  0
   -3.4710   22.0980  -32.7440 N   0  0  0  0  0  0  0  0  0  0  0  0
   -4.7790   21.5780  -32.6820 N   0  0  0  0  0  0  0  0  0  0  0  0
   -5.0180   20.2720  -33.0260 C   0  0  0  0  0  0  0  0  0  0  0  0
   -3.9100   19.4090  -33.4910 C   0  0  0  0  0  0  0  0  0  0  0  0
   -2.8987   19.6395  -33.1247 H   0  0  0  0  0  0  0  0  0  0  0  0
   -4.0440   18.3670  -34.3250 C   0  0  0  0  0  0  0  0  0  0  0  0
   -3.3729   18.3268  -35.1957 H   0  0  0  0  0  0  0  0  0  0  0  0
   -5.0190   17.2700  -34.1690 C   0  0  0  0  0  0  0  0  0  0  0  0
   -6.3260   17.4050  -34.1640 O   0  0  0  0  0  0  0  0  0  0  0  0
   -6.8710   16.2240  -33.9840 C   0  0  0  0  0  0  0  0  0  0  0  0
   -7.9520   16.0257  -33.9383 H   0  0  0  0  0  0  0  0  0  0  0  0
   -5.8830   15.2700  -33.8610 C   0  0  0  0  0  0  0  0  0  0  0  0
   -6.0220   14.1904  -33.7025 H   0  0  0  0  0  0  0  0  0  0  0  0
   -4.6850   15.9440  -33.9770 C   0  0  0  0  0  0  0  0  0  0  0  0
   -3.6736   15.5143  -33.9269 H   0  0  0  0  0  0  0  0  0  0  0  0
   -6.2930   19.7870  -33.0130 N   0  0  0  0  0  0  0  0  0  0  0  0
   -6.4700   18.8030  -33.3220 H   0  0  0  0  0  0  0  0  0  0  0  0
   -7.3390   20.5620  -32.6190 C   0  0  0  0  0  0  0  0  0  0  0  0
   -8.6410   20.0370  -32.5840 C   0  0  0  0  0  0  0  0  0  0  0  0
   -8.8182   18.9908  -32.8741 H   0  0  0  0  0  0  0  0  0  0  0  0
   -9.7120   20.8390  -32.1820 C   0  0  0  0  0  0  0  0  0  0  0  0
  -10.7297   20.4224  -32.1544 H   0  0  0  0  0  0  0  0  0  0  0  0
   -9.4930   22.1690  -31.8150 C   0  0  0  0  0  0  0  0  0  0  0  0
  -10.3390   22.7965  -31.4981 H   0  0  0  0  0  0  0  0  0  0  0  0
   -8.2030   22.7050  -31.8490 C   0  0  0  0  0  0  0  0  0  0  0  0
   -8.0365   23.7538  -31.5620 H   0  0  0  0  0  0  0  0  0  0  0  0
   -7.1160   21.9050  -32.2500 C   0  0  0  0  0  0  0  0  0  0  0  0
   -5.8030   22.3990  -32.3060 C   0  0  0  0  0  0  0  0  0  0  0  0
   -5.5640   23.6000  -32.0000 O   0  0  0  0  0  0  0  0  0  0  0  0
   -3.1370   22.9840  -30.4880 C   0  0  0  0  0  0  0  0  0  0  0  0
   -3.4650   24.2540  -30.4330 O   0  0  0  0  0  0  0  0  0  0  0  0
   -3.7790   24.5560  -29.1950 C   0  0  0  0  0  0  0  0  0  0  0  0
   -4.0949   25.5499  -28.8452 H   0  0  0  0  0  0  0  0  0  0  0  0
   -3.6520   23.4350  -28.3990 C   0  0  0  0  0  0  0  0  0  0  0  0
   -3.8452   23.3658  -27.3183 H   0  0  0  0  0  0  0  0  0  0  0  0
   -3.2340   22.4200  -29.2330 C   0  0  0  0  0  0  0  0  0  0  0  0
   -3.0219   21.3770  -28.9553 H   0  0  0  0  0  0  0  0  0  0  0  0
  1  2  1  0
  2  3  2  0
  3  4  1  0
  4  5  1  0
  5  6  1  0
  6  7  1  0
  6  8  2  0
  8  9  1  0
  8 10  1  0
 10 11  1  0
 11 12  1  0
 12 13  1  0
 12 14  2  0
 14 15  1  0
 14 16  1  0
 16 17  1  0
  5 18  2  0
 18 19  1  0
 18 20  1  0
 20 21  2  0
 21 22  1  0
 21 23  1  0
 23 24  1  0
 23 25  2  0
 25 26  1  0
 25 27  1  0
 27 28  1  0
 27 29  2  0
 29 30  1  0
 30 31  2  0
  2 32  1  0
 32 33  1  0
 33 34  1  0
 34 35  1  0
 34 36  2  0
 36 37  1  0
 36 38  1  0
 38 39  1  0
 30  4  1  0
 38 32  2  0
 16 10  2  0
 29 20  1  0
M  CHG  1  18   1
M  END
>  <UniqueID>  (17) 
17

>  <SMILES>  (17) 
O=c1c2ccccc2[nH+]c(/C=C\c2ccco2)n1/N=C\c1ccco1

>  <Energy>  (17) 
113.26891459280236

>  <Genealogy>  (17) 
O=c1c2ccccc2[nH+]c(C=Cc2ccco2)n1N=Cc1ccco1 (protonated)
O=c1c2ccccc2[nH+]c(/C=C\c2ccco2)n1/N=C\c1ccco1 (cis-trans isomerization)
O=c1c2ccccc2[nH+]c(/C=C\c2ccco2)n1/N=C\c1ccco1 (3D coordinates assigned)
O=c1c2ccccc2[nH+]c(/C=C\c2ccco2)n1/N=C\c1ccco1 (optimized conformer: 113.26891459280236 kcal/mol)

>  <smiles>  (17) 
O=c1c2ccccc2nc(C=Cc2ccco2)n1N=Cc1ccco1

>  <score_type>  (17) 
oracle

>  <origin>  (17) 
adg

>  <m_score__min__energy>  (17) 
-8.0899999999999999

>  <m_primary>  (17) 
energy

$$$$
17:0
     RDKit          3D

 38 41  0  0  0  0  0  0  0  0999 V2000
   -6.7290   25.0250  -29.7950 C   0  0  0  0  0  0  0  0  0  0  0  0
   -7.1900   23.5710  -29.8270 C   0  0  0  0  0  0  0  0  0  0  0  0
   -7.6600   23.1680  -31.2300 C   0  0  0  0  0  0  0  0  0  0  0  0
   -6.7200   22.1960  -31.8320 N   0  0  0  0  0  0  0  0  0  0  0  0
   -5.4440   22.6180  -32.1480 C   0  0  0  0  0  0  0  0  0  0  0  0
   -5.0810   23.8110  -31.9520 O   0  0  0  0  0  0  0  0  0  0  0  0
   -4.5700   21.7330  -32.6800 N   0  0  0  0  0  0  0  0  0  0  0  0
   -3.3170   21.9520  -33.0290 N   0  0  0  0  0  0  0  0  0  0  0  0
   -2.8860   20.7600  -33.5030 C   0  0  0  0  0  0  0  0  0  0  0  0
   -1.5270   20.5410  -34.0080 C   0  0  0  0  0  0  0  0  0  0  0  0
   -0.9350   19.3120  -34.2370 C   0  0  0  0  0  0  0  0  0  0  0  0
    0.3330   19.5870  -34.7060 C   0  0  0  0  0  0  0  0  0  0  0  0
    0.4240   20.9650  -34.7300 C   0  0  0  0  0  0  0  0  0  0  0  0
    1.5660   21.7140  -35.1490 N   0  0  0  0  0  0  0  0  0  0  0  0
    2.6550   21.1370  -35.3420 O   0  0  0  0  0  0  0  0  0  0  0  0
    1.4740   23.0730  -35.3440 O   0  0  0  0  0  0  0  0  0  0  0  0
   -0.6950   21.5100  -34.3110 O   0  0  0  0  0  0  0  0  0  0  0  0
   -3.8380   19.7900  -33.4640 N   0  0  0  0  0  0  0  0  0  0  0  0
   -4.8770   20.4650  -32.9340 C   0  0  0  0  0  0  0  0  0  0  0  0
   -6.1510   19.9760  -32.6730 C   0  0  0  0  0  0  0  0  0  0  0  0
   -6.5040   18.6470  -32.9540 C   0  0  0  0  0  0  0  0  0  0  0  0
   -7.8000   18.2030  -32.7000 C   0  0  0  0  0  0  0  0  0  0  0  0
   -8.7490   19.0780  -32.1720 C   0  0  0  0  0  0  0  0  0  0  0  0
   -8.4090   20.4040  -31.8860 C   0  0  0  0  0  0  0  0  0  0  0  0
   -7.0970   20.8860  -32.1170 C   0  0  0  0  0  0  0  0  0  0  0  0
   -6.6248   25.3537  -28.7504 H   0  0  0  0  0  0  0  0  0  0  0  0
   -5.7588   25.1134  -30.3057 H   0  0  0  0  0  0  0  0  0  0  0  0
   -7.4711   25.6563  -30.3057 H   0  0  0  0  0  0  0  0  0  0  0  0
   -6.3527   22.9227  -29.5293 H   0  0  0  0  0  0  0  0  0  0  0  0
   -8.0347   23.4584  -29.1314 H   0  0  0  0  0  0  0  0  0  0  0  0
   -8.6580   22.7108  -31.1601 H   0  0  0  0  0  0  0  0  0  0  0  0
   -7.6980   24.0660  -31.8642 H   0  0  0  0  0  0  0  0  0  0  0  0
   -1.3829   18.3200  -34.0780 H   0  0  0  0  0  0  0  0  0  0  0  0
    1.1072   18.8625  -34.9987 H   0  0  0  0  0  0  0  0  0  0  0  0
   -5.7581   17.9565  -33.3744 H   0  0  0  0  0  0  0  0  0  0  0  0
   -8.0752   17.1602  -32.9164 H   0  0  0  0  0  0  0  0  0  0  0  0
   -9.7720   18.7227  -31.9792 H   0  0  0  0  0  0  0  0  0  0  0  0
   -9.1713   21.0826  -31.4757 H   0  0  0  0  0  0  0  0  0  0  0  0
  1  2  1  0
  2  3  1  0
  3  4  1  0
  4  5  1  0
  5  6  2  0
  5  7  1  0
  7  8  1  0
  8  9  2  0
  9 10  1  0
 10 11  2  0
 11 12  1  0
 12 13  2  0
 13 14  1  0
 14 15  2  0
 14 16  1  0
 13 17  1  0
  9 18  1  0
 18 19  2  0
 19 20  1  0
 20 21  2  0
 21 22  1  0
 22 23  2  0
 23 24  1  0
 24 25  2  0
 25  4  1  0
 19  7  1  0
 25 20  1  0
 17 10  1  0
  1 26  1  0
  1 27  1  0
  1 28  1  0
  2 29  1  0
  2 30  1  0
  3 31  1  0
  3 32  1  0
 11 33  1  0
 12 34  1  0
 21 35  1  0
 22 36  1  0
 23 37  1  0
 24 38  1  0
M  CHG  2  14   1  16  -1
M  END
>  <UniqueID>  (18) 
18

>  <SMILES>  (18) 
CCCn1c(=O)n2nc(-c3ccc([N+](=O)[O-])o3)nc2c2ccccc21

>  <Energy>  (18) 
111.06996063431635

>  <Genealogy>  (18) 
CCCn1c(=O)n2nc(-c3ccc([N+](=O)[O-])o3)nc2c2ccccc21 (3D coordinates assigned)
CCCn1c(=O)n2nc(-c3ccc([N+](=O)[O-])o3)nc2c2ccccc21 (optimized conformer: 111.06996063431635 kcal/mol)

>  <smiles>  (18) 
CCCn1c(=O)n2nc(-c3ccc([N+](=O)[O-])o3)nc2c2ccccc21

>  <score_type>  (18) 
oracle

>  <origin>  (18) 
adg

>  <m_score__min__energy>  (18) 
-8.6500000000000004

>  <m_primary>  (18) 
energy

$$$$
18:0
     RDKit          3D

 41 44  0  0  0  0  0  0  0  0999 V2000
    0.4140   27.3470  -23.0550 N   0  0  0  0  0  0  0  0  0  0  0  0
   -0.1830   26.7990  -24.2330 C   0  0  0  0  0  0  0  0  0  0  0  0
   -0.4520   25.4290  -24.3240 C   0  0  0  0  0  0  0  0  0  0  0  0
   -1.0330   24.9070  -25.4800 C   0  0  0  0  0  0  0  0  0  0  0  0
   -1.3410   25.7650  -26.5490 C   0  0  0  0  0  0  0  0  0  0  0  0
   -1.9540   25.2470  -27.7930 C   0  0  0  0  0  0  0  0  0  0  0  0
   -1.2480   25.1250  -28.8320 O   0  0  0  0  0  0  0  0  0  0  0  0
   -3.3540   24.9210  -27.8320 N   0  0  0  0  0  0  0  0  0  0  0  0
   -3.9840   24.2170  -28.9150 C   0  0  0  0  0  0  0  0  0  0  0  0
   -5.3500   24.4220  -29.2320 C   0  0  0  0  0  0  0  0  0  0  0  0
   -5.9490   23.7440  -30.3060 C   0  0  0  0  0  0  0  0  0  0  0  0
   -5.1600   22.8760  -31.0640 C   0  0  0  0  0  0  0  0  0  0  0  0
   -3.8180   22.6790  -30.7700 C   0  0  0  0  0  0  0  0  0  0  0  0
   -3.2090   23.3450  -29.7080 C   0  0  0  0  0  0  0  0  0  0  0  0
   -3.2290   21.8300  -31.5500 N   0  0  0  0  0  0  0  0  0  0  0  0
   -4.2670   21.4300  -32.4370 C   0  0  0  0  0  0  0  0  0  0  0  0
   -4.1200   20.5850  -33.3580 O   0  0  0  0  0  0  0  0  0  0  0  0
   -5.4980   22.1320  -32.1100 C   0  0  0  0  0  0  0  0  0  0  0  0
   -6.8550   21.9370  -32.7190 C   0  0  0  0  0  0  0  0  0  0  0  0
   -7.3890   20.5830  -32.3630 C   0  0  0  0  0  0  0  0  0  0  0  0
   -8.6640   20.3230  -31.8980 C   0  0  0  0  0  0  0  0  0  0  0  0
   -8.7500   18.9520  -31.7630 C   0  0  0  0  0  0  0  0  0  0  0  0
   -7.5300   18.4380  -32.1560 C   0  0  0  0  0  0  0  0  0  0  0  0
   -6.7060   19.4350  -32.5250 N   0  0  0  0  0  0  0  0  0  0  0  0
   -1.0720   27.0950  -26.4330 N   0  0  0  0  0  0  0  0  0  0  0  0
   -0.5070   27.6250  -25.3160 C   0  0  0  0  0  0  0  0  0  0  0  0
    1.0800   26.7840  -22.4810 H   0  0  0  0  0  0  0  0  0  0  0  0
    0.1920   28.3200  -22.7480 H   0  0  0  0  0  0  0  0  0  0  0  0
   -0.2053   24.7633  -23.4838 H   0  0  0  0  0  0  0  0  0  0  0  0
   -1.2485   23.8309  -25.5540 H   0  0  0  0  0  0  0  0  0  0  0  0
   -3.9710   25.3030  -27.0800 H   0  0  0  0  0  0  0  0  0  0  0  0
   -5.9485   25.1209  -28.6292 H   0  0  0  0  0  0  0  0  0  0  0  0
   -7.0125   23.8928  -30.5442 H   0  0  0  0  0  0  0  0  0  0  0  0
   -2.1412   23.1931  -29.4916 H   0  0  0  0  0  0  0  0  0  0  0  0
   -7.5392   22.7096  -32.3383 H   0  0  0  0  0  0  0  0  0  0  0  0
   -6.7735   22.0158  -33.8131 H   0  0  0  0  0  0  0  0  0  0  0  0
   -9.4512   21.0596  -31.6796 H   0  0  0  0  0  0  0  0  0  0  0  0
   -9.6211   18.3800  -31.4108 H   0  0  0  0  0  0  0  0  0  0  0  0
   -7.2700   17.3692  -32.1658 H   0  0  0  0  0  0  0  0  0  0  0  0
   -5.7280   19.3320  -32.8750 H   0  0  0  0  0  0  0  0  0  0  0  0
   -0.3040   28.7048  -25.2629 H   0  0  0  0  0  0  0  0  0  0  0  0
  1  2  1  0
  2  3  2  0
  3  4  1  0
  4  5  2  0
  5  6  1  0
  6  7  2  0
  6  8  1  0
  8  9  1  0
  9 10  1  0
 10 11  2  0
 11 12  1  0
 12 13  1  0
 13 14  1  0
 13 15  2  0
 15 16  1  0
 16 17  2  0
 16 18  1  0
 18 19  1  0
 19 20  1  0
 20 21  2  0
 21 22  1  0
 22 23  2  0
 23 24  1  0
  5 25  1  0
 25 26  2  0
 26  2  1  0
 14  9  2  0
 24 20  1  0
 18 12  2  0
  1 27  1  0
  1 28  1  0
  3 29  1  0
  4 30  1  0
  8 31  1  0
 10 32  1  0
 11 33  1  0
 14 34  1  0
 19 35  1  0
 19 36  1  0
 21 37  1  0
 22 38  1  0
 23 39  1  0
 24 40  1  0
 26 41  1  0
M  END
>  <UniqueID>  (19) 
19

>  <SMILES>  (19) 
Nc1ccc(C(=O)Nc2ccc3c(c2)=NC(=O)C=3Cc2ccc[nH]2)nc1

>  <Energy>  (19) 
103.71249083612827

>  <Genealogy>  (19) 
Nc1ccc(C(=O)Nc2ccc3c(c2)=NC(=O)C=3Cc2ccc[nH]2)nc1 (3D coordinates assigned)
Nc1ccc(C(=O)Nc2ccc3c(c2)=NC(=O)C=3Cc2ccc[nH]2)nc1 (nonaromatic ring conformer: 103.71249083612827 kcal/mol)

>  <smiles>  (19) 
Nc1ccc(C(=O)Nc2ccc3c(c2)=NC(=O)C=3Cc2ccc[nH]2)nc1

>  <score_type>  (19) 
oracle

>  <origin>  (19) 
adg

>  <m_score__min__energy>  (19) 
-9.0600000000000005

>  <m_primary>  (19) 
energy

$$$$
19:0
     RDKit          3D

 52 54  0  0  0  0  0  0  0  0999 V2000
   -1.4710   21.1470  -33.3530 C   0  0  0  0  0  0  0  0  0  0  0  0
   -1.6610   19.7980  -32.6730 C   0  0  0  0  0  0  0  0  0  0  0  0
   -2.3130   19.9800  -31.3750 N   0  0  0  0  0  0  0  0  0  0  0  0
   -1.1240   20.3460  -30.1620 S   0  0  0  0  0  0  0  0  0  0  0  0
    0.2470   20.0950  -30.7210 O   0  0  0  0  0  0  0  0  0  0  0  0
   -1.3400   19.4590  -28.9660 O   0  0  0  0  0  0  0  0  0  0  0  0
   -1.2430   22.0370  -29.6810 C   0  0  0  0  0  0  0  0  0  0  0  0
   -0.2960   22.5920  -28.8150 C   0  0  0  0  0  0  0  0  0  0  0  0
   -0.3820   23.9360  -28.4450 C   0  0  0  0  0  0  0  0  0  0  0  0
   -1.4280   24.7470  -28.9310 C   0  0  0  0  0  0  0  0  0  0  0  0
   -1.5090   26.1180  -28.6330 O   0  0  0  0  0  0  0  0  0  0  0  0
   -0.9130   26.7670  -27.5100 C   0  0  0  0  0  0  0  0  0  0  0  0
   -1.5020   26.2390  -26.2050 C   0  0  0  0  0  0  0  0  0  0  0  0
   -2.4010   24.1730  -29.7770 C   0  0  0  0  0  0  0  0  0  0  0  0
   -3.5030   24.9360  -30.2900 N   0  0  0  0  0  0  0  0  0  0  0  0
   -4.8600   24.8260  -29.8450 C   0  0  0  0  0  0  0  0  0  0  0  0
   -5.1210   24.5580  -28.6410 O   0  0  0  0  0  0  0  0  0  0  0  0
   -5.9700   24.9150  -30.8410 C   0  0  0  0  0  0  0  0  0  0  0  0
   -6.3050   23.5430  -31.3570 C   0  0  0  0  0  0  0  0  0  0  0  0
   -7.6430   23.1120  -31.4080 C   0  0  0  0  0  0  0  0  0  0  0  0
   -7.9600   21.8550  -31.9340 C   0  0  0  0  0  0  0  0  0  0  0  0
   -6.9450   21.0280  -32.4220 C   0  0  0  0  0  0  0  0  0  0  0  0
   -5.6090   21.4450  -32.3600 C   0  0  0  0  0  0  0  0  0  0  0  0
   -5.2890   22.7050  -31.8480 C   0  0  0  0  0  0  0  0  0  0  0  0
   -4.6080   20.5840  -32.8210 O   0  0  0  0  0  0  0  0  0  0  0  0
   -4.8830   19.2070  -33.0870 C   0  0  0  0  0  0  0  0  0  0  0  0
   -6.2670   19.0560  -33.7310 C   0  0  0  0  0  0  0  0  0  0  0  0
   -7.2440   19.7810  -32.9810 O   0  0  0  0  0  0  0  0  0  0  0  0
   -2.2810   22.8360  -30.1730 C   0  0  0  0  0  0  0  0  0  0  0  0
   -1.3606   21.9305  -32.5888 H   0  0  0  0  0  0  0  0  0  0  0  0
   -0.5682   21.1173  -33.9807 H   0  0  0  0  0  0  0  0  0  0  0  0
   -2.3469   21.3678  -33.9807 H   0  0  0  0  0  0  0  0  0  0  0  0
   -2.2873   19.1546  -33.3084 H   0  0  0  0  0  0  0  0  0  0  0  0
   -0.6781   19.3282  -32.5210 H   0  0  0  0  0  0  0  0  0  0  0  0
   -2.9430   20.8130  -31.4430 H   0  0  0  0  0  0  0  0  0  0  0  0
    0.5204   21.9674  -28.4234 H   0  0  0  0  0  0  0  0  0  0  0  0
    0.3723   24.3652  -27.7691 H   0  0  0  0  0  0  0  0  0  0  0  0
    0.1709   26.5799  -27.5185 H   0  0  0  0  0  0  0  0  0  0  0  0
   -1.1152   27.8461  -27.5775 H   0  0  0  0  0  0  0  0  0  0  0  0
   -0.9831   26.7041  -25.3539 H   0  0  0  0  0  0  0  0  0  0  0  0
   -2.5732   26.4849  -26.1602 H   0  0  0  0  0  0  0  0  0  0  0  0
   -1.3742   25.1474  -26.1602 H   0  0  0  0  0  0  0  0  0  0  0  0
   -6.8580   25.3506  -30.3597 H   0  0  0  0  0  0  0  0  0  0  0  0
   -5.6531   25.5507  -31.6809 H   0  0  0  0  0  0  0  0  0  0  0  0
   -8.4437   23.7662  -31.0326 H   0  0  0  0  0  0  0  0  0  0  0  0
   -9.0068   21.5182  -31.9634 H   0  0  0  0  0  0  0  0  0  0  0  0
   -4.2418   23.0412  -31.8292 H   0  0  0  0  0  0  0  0  0  0  0  0
   -4.1189   18.8099  -33.7714 H   0  0  0  0  0  0  0  0  0  0  0  0
   -4.8662   18.6489  -32.1393 H   0  0  0  0  0  0  0  0  0  0  0  0
   -6.2340   19.4476  -34.7584 H   0  0  0  0  0  0  0  0  0  0  0  0
   -6.5423   17.9911  -33.7427 H   0  0  0  0  0  0  0  0  0  0  0  0
   -3.0097   22.4092  -30.8778 H   0  0  0  0  0  0  0  0  0  0  0  0
  1  2  1  0
  2  3  1  0
  3  4  1  0
  4  5  2  0
  4  6  2  0
  4  7  1  0
  7  8  2  0
  8  9  1  0
  9 10  2  0
 10 11  1  0
 11 12  1  0
 12 13  1  0
 10 14  1  0
 14 15  1  0
 15 16  1  0
 16 17  2  0
 16 18  1  0
 18 19  1  0
 19 20  2  0
 20 21  1  0
 21 22  2  0
 22 23  1  0
 23 24  2  0
 23 25  1  0
 25 26  1  0
 26 27  1  0
 27 28  1  0
 14 29  2  0
 29  7  1  0
 24 19  1  0
 28 22  1  0
  1 30  1  0
  1 31  1  0
  1 32  1  0
  2 33  1  0
  2 34  1  0
  3 35  1  0
  8 36  1  0
  9 37  1  0
 12 38  1  0
 12 39  1  0
 13 40  1  0
 13 41  1  0
 13 42  1  0
 18 43  1  0
 18 44  1  0
 20 45  1  0
 21 46  1  0
 24 47  1  0
 26 48  1  0
 26 49  1  0
 27 50  1  0
 27 51  1  0
 29 52  1  0
M  CHG  1  15  -1
M  END
>  <UniqueID>  (20) 
20

>  <SMILES>  (20) 
CCNS(=O)(=O)c1ccc(OCC)c([N-]C(=O)Cc2ccc3c(c2)OCCO3)c1

>  <Energy>  (20) 
49.62045535819682

>  <Genealogy>  (20) 
CCNS(=O)(=O)c1ccc(OCC)c([N-]C(=O)Cc2ccc3c(c2)OCCO3)c1 (protonated)
CCNS(=O)(=O)c1ccc(OCC)c([N-]C(=O)Cc2ccc3c(c2)OCCO3)c1 (3D coordinates assigned)
CCNS(=O)(=O)c1ccc(OCC)c([N-]C(=O)Cc2ccc3c(c2)OCCO3)c1 (nonaromatic ring conformer: 49.62045535819682 kcal/mol)

>  <smiles>  (20) 
CCNS(=O)(=O)c1ccc(OCC)c(NC(=O)Cc2ccc3c(c2)OCCO3)c1

>  <score_type>  (20) 
oracle

>  <origin>  (20) 
adg

>  <m_score__min__energy>  (20) 
-9.7200000000000006

>  <m_primary>  (20) 
energy

$$$$
20:0
     RDKit          3D

 45 48  0  0  0  0  0  0  0  0999 V2000
   -6.6200   18.1860  -33.2630 C   0  0  0  0  0  0  0  0  0  0  0  0
   -7.3670   19.3340  -32.6520 C   0  0  0  0  0  0  0  0  0  0  0  0
   -8.7680   19.3580  -32.6770 C   0  0  0  0  0  0  0  0  0  0  0  0
   -9.4610   20.4470  -32.1440 C   0  0  0  0  0  0  0  0  0  0  0  0
   -8.7630   21.5250  -31.5950 C   0  0  0  0  0  0  0  0  0  0  0  0
   -7.3570   21.5280  -31.5780 C   0  0  0  0  0  0  0  0  0  0  0  0
   -6.6130   22.6770  -31.0020 C   0  0  0  0  0  0  0  0  0  0  0  0
   -7.1870   23.9580  -30.9840 C   0  0  0  0  0  0  0  0  0  0  0  0
   -6.4770   25.0410  -30.4710 C   0  0  0  0  0  0  0  0  0  0  0  0
   -5.1920   24.8640  -29.9580 C   0  0  0  0  0  0  0  0  0  0  0  0
   -4.5990   23.5840  -29.9330 C   0  0  0  0  0  0  0  0  0  0  0  0
   -3.1770   23.3830  -29.3960 C   0  0  1  0  0  0  0  0  0  0  0  0
   -2.4580   22.0990  -29.9000 C   0  0  0  0  0  0  0  0  0  0  0  0
   -1.0250   22.3260  -30.3740 C   0  0  0  0  0  0  0  0  0  0  0  0
   -2.0930   21.9300  -31.3750 C   0  0  0  0  0  0  0  0  0  0  0  0
   -2.3350   24.5500  -29.6910 N   0  0  0  0  0  0  0  0  0  0  0  0
   -1.9790   25.1470  -28.5980 C   0  0  0  0  0  0  0  0  0  0  0  0
   -1.1330   26.2980  -28.6090 N   0  0  0  0  0  0  0  0  0  0  0  0
   -2.4730   24.5490  -27.4080 N   0  0  0  0  0  0  0  0  0  0  0  0
   -1.9030   24.6880  -26.0740 C   0  0  0  0  0  0  0  0  0  0  0  0
   -3.1600   23.4070  -27.8930 C   0  0  0  0  0  0  0  0  0  0  0  0
   -3.6040   22.4970  -27.1420 O   0  0  0  0  0  0  0  0  0  0  0  0
   -5.3200   22.5010  -30.4780 C   0  0  0  0  0  0  0  0  0  0  0  0
   -6.6660   20.4260  -32.1150 C   0  0  0  0  0  0  0  0  0  0  0  0
   -6.2069   17.5512  -32.4653 H   0  0  0  0  0  0  0  0  0  0  0  0
   -7.3054   17.5926  -33.8859 H   0  0  0  0  0  0  0  0  0  0  0  0
   -5.7998   18.5722  -33.8859 H   0  0  0  0  0  0  0  0  0  0  0  0
   -9.3233   18.5168  -33.1176 H   0  0  0  0  0  0  0  0  0  0  0  0
  -10.5609   20.4558  -32.1566 H   0  0  0  0  0  0  0  0  0  0  0  0
   -9.3166   22.3769  -31.1733 H   0  0  0  0  0  0  0  0  0  0  0  0
   -8.2034   24.1073  -31.3773 H   0  0  0  0  0  0  0  0  0  0  0  0
   -6.9325   26.0422  -30.4704 H   0  0  0  0  0  0  0  0  0  0  0  0
   -4.6361   25.7300  -29.5695 H   0  0  0  0  0  0  0  0  0  0  0  0
   -2.9931   21.4530  -29.1884 H   0  0  0  0  0  0  0  0  0  0  0  0
   -0.6068   23.3433  -30.3908 H   0  0  0  0  0  0  0  0  0  0  0  0
   -0.0410   21.9248  -30.0898 H   0  0  0  0  0  0  0  0  0  0  0  0
   -2.4492   22.6604  -32.1164 H   0  0  0  0  0  0  0  0  0  0  0  0
   -2.2034   21.1238  -32.1152 H   0  0  0  0  0  0  0  0  0  0  0  0
   -0.8510   26.7670  -27.7220 H   0  0  0  0  0  0  0  0  0  0  0  0
   -0.7890   26.6870  -29.5150 H   0  0  0  0  0  0  0  0  0  0  0  0
   -2.6819   24.4981  -25.3208 H   0  0  0  0  0  0  0  0  0  0  0  0
   -1.0856   23.9629  -25.9471 H   0  0  0  0  0  0  0  0  0  0  0  0
   -1.5112   25.7080  -25.9471 H   0  0  0  0  0  0  0  0  0  0  0  0
   -4.8626   21.5007  -30.4934 H   0  0  0  0  0  0  0  0  0  0  0  0
   -5.5660   20.4199  -32.1141 H   0  0  0  0  0  0  0  0  0  0  0  0
  1  2  1  0
  2  3  2  0
  3  4  1  0
  4  5  2  0
  5  6  1  0
  6  7  1  0
  7  8  2  0
  8  9  1  0
  9 10  2  0
 10 11  1  0
 11 12  1  0
 12 13  1  1
 13 14  1  0
 14 15  1  0
 12 16  1  0
 16 17  2  0
 17 18  1  0
 17 19  1  0
 19 20  1  0
 19 21  1  0
 21 22  2  0
 11 23  2  0
  6 24  2  0
 24  2  1  0
 23  7  1  0
 21 12  1  0
 15 13  1  0
  1 25  1  0
  1 26  1  0
  1 27  1  0
  3 28  1  0
  4 29  1  0
  5 30  1  0
  8 31  1  0
  9 32  1  0
 10 33  1  0
 13 34  1  0
 14 35  1  0
 14 36  1  0
 15 37  1  0
 15 38  1  0
 18 39  1  0
 18 40  1  0
 20 41  1  0
 20 42  1  0
 20 43  1  0
 23 44  1  0
 24 45  1  0
M  END
>  <UniqueID>  (21) 
21

>  <SMILES>  (21) 
Cc1cccc(-c2cccc([C@@]3(C4CC4)N=C(N)N(C)C3=O)c2)c1

>  <Energy>  (21) 
341.3370948171393

>  <Genealogy>  (21) 
Cc1cccc(-c2cccc([C@@]3(C4CC4)N=C(N)N(C)C3=O)c2)c1 (chirality)
Cc1cccc(-c2cccc([C@@]3(C4CC4)N=C(N)N(C)C3=O)c2)c1 (3D coordinates assigned)
Cc1cccc(-c2cccc([C@@]3(C4CC4)N=C(N)N(C)C3=O)c2)c1 (nonaromatic ring conformer: 341.3370948171393 kcal/mol)

>  <smiles>  (21) 
Cc1cccc(-c2cccc(C3(C4CC4)N=C(N)N(C)C3=O)c2)c1

>  <score_type>  (21) 
oracle

>  <origin>  (21) 
adg

>  <m_score__min__energy>  (21) 
-8.8599999999999994

>  <m_primary>  (21) 
energy

$$$$
21:0
     RDKit          3D

 24 26  0  0  0  0  0  0  0  0999 V2000
   -7.2991   23.2649  -31.8190 H   0  0  0  0  0  0  0  0  0  0  0  0
   -6.3640   23.6130  -31.3560 C   0  0  0  0  0  0  0  0  0  0  0  0
   -6.3280   24.8420  -30.6930 C   0  0  0  0  0  0  0  0  0  0  0  0
   -7.2329   25.4653  -30.6417 H   0  0  0  0  0  0  0  0  0  0  0  0
   -5.1420   25.2810  -30.0940 C   0  0  0  0  0  0  0  0  0  0  0  0
   -5.1121   26.2572  -29.5879 H   0  0  0  0  0  0  0  0  0  0  0  0
   -3.9880   24.4780  -30.1370 C   0  0  0  0  0  0  0  0  0  0  0  0
   -2.7430   24.9170  -29.5720 N   0  0  0  0  0  0  0  0  0  0  0  0
   -2.1980   24.4870  -28.4720 C   0  0  0  0  0  0  0  0  0  0  0  0
   -1.9610   25.3170  -27.4260 N   0  0  0  0  0  0  0  0  0  0  0  0
   -1.3460   24.6490  -26.4170 C   0  0  0  0  0  0  0  0  0  0  0  0
   -0.9610   25.1890  -25.1940 C   0  0  0  0  0  0  0  0  0  0  0  0
   -1.2550   26.8800  -24.8170 Cl  0  0  0  0  0  0  0  0  0  0  0  0
   -0.3450   24.3760  -24.2850 N   0  0  0  0  0  0  0  0  0  0  0  0
   -0.0490   24.7650  -23.3610 H   0  0  0  0  0  0  0  0  0  0  0  0
   -0.1050   23.0570  -24.5610 C   0  0  0  0  0  0  0  0  0  0  0  0
    0.3935   22.4248  -23.8115 H   0  0  0  0  0  0  0  0  0  0  0  0
   -0.4790   22.5200  -25.7580 N   0  0  0  0  0  0  0  0  0  0  0  0
   -1.0910   23.3180  -26.6630 C   0  0  0  0  0  0  0  0  0  0  0  0
   -1.6330   22.9020  -28.1930 S   0  0  0  0  0  0  0  0  0  0  0  0
   -4.0250   23.2630  -30.8340 C   0  0  0  0  0  0  0  0  0  0  0  0
   -3.1154   22.6494  -30.9121 H   0  0  0  0  0  0  0  0  0  0  0  0
   -5.2120   22.8260  -31.4310 C   0  0  0  0  0  0  0  0  0  0  0  0
   -5.2386   21.8619  -31.9600 H   0  0  0  0  0  0  0  0  0  0  0  0
  1  2  1  0
  2  3  2  0
  3  4  1  0
  3  5  1  0
  5  6  1  0
  5  7  2  0
  7  8  1  0
  8  9  2  0
  9 10  1  0
 10 11  1  0
 11 12  2  0
 12 13  1  0
 12 14  1  0
 14 15  1  0
 14 16  2  0
 16 17  1  0
 16 18  1  0
 18 19  2  0
 19 20  1  0
  7 21  1  0
 21 22  1  0
 21 23  2  0
 23 24  1  0
 23  2  1  0
 20  9  1  0
 19 11  1  0
M  CHG  2  10  -1  14   1
M  END
>  <UniqueID>  (22) 
22

>  <SMILES>  (22) 
Clc1[nH+]cnc2s/c(=N\c3ccccc3)[n-]c12

>  <Energy>  (22) 
71.34109796131624

>  <Genealogy>  (22) 
Clc1[nH+]cnc2sc(=Nc3ccccc3)[n-]c12 (protonated)
Clc1[nH+]cnc2s/c(=N\c3ccccc3)[n-]c12 (cis-trans isomerization)
Clc1[nH+]cnc2s/c(=N\c3ccccc3)[n-]c12 (3D coordinates assigned)
Clc1[nH+]cnc2s/c(=N\c3ccccc3)[n-]c12 (optimized conformer: 71.34109796131624 kcal/mol)

>  <smiles>  (22) 
Clc1ncnc2sc(=Nc3ccccc3)[nH]c12

>  <score_type>  (22) 
oracle

>  <origin>  (22) 
adg

>  <m_score__min__energy>  (22) 
-7.5999999999999996

>  <m_primary>  (22) 
energy

$$$$
22:0
     RDKit          3D

 39 41  0  0  0  0  0  0  0  0999 V2000
   -4.2400   21.9180  -33.8430 O   0  0  0  0  0  0  0  0  0  0  0  0
   -4.4060   21.2030  -32.8170 C   0  0  0  0  0  0  0  0  0  0  0  0
   -5.6740   20.4510  -32.6640 C   0  0  0  0  0  0  0  0  0  0  0  0
   -6.9060   21.1250  -32.7270 C   0  0  0  0  0  0  0  0  0  0  0  0
   -8.1060   20.4210  -32.5840 C   0  0  0  0  0  0  0  0  0  0  0  0
   -8.0860   19.0410  -32.3680 C   0  0  0  0  0  0  0  0  0  0  0  0
   -6.8680   18.3640  -32.2880 C   0  0  0  0  0  0  0  0  0  0  0  0
   -5.6660   19.0640  -32.4300 C   0  0  0  0  0  0  0  0  0  0  0  0
   -3.3630   21.1360  -31.8190 N   0  0  0  0  0  0  0  0  0  0  0  0
   -3.6670   21.4690  -30.4210 C   0  0  0  0  0  0  0  0  0  0  0  0
   -4.4770   22.7360  -30.3470 C   0  0  0  0  0  0  0  0  0  0  0  0
   -5.8680   22.6860  -30.1570 C   0  0  0  0  0  0  0  0  0  0  0  0
   -6.6190   23.8650  -30.1250 C   0  0  0  0  0  0  0  0  0  0  0  0
   -5.9880   25.1010  -30.2870 C   0  0  0  0  0  0  0  0  0  0  0  0
   -4.6070   25.1610  -30.4830 C   0  0  0  0  0  0  0  0  0  0  0  0
   -3.8520   23.9840  -30.5150 C   0  0  0  0  0  0  0  0  0  0  0  0
   -1.9850   20.9850  -32.2180 C   0  0  0  0  0  0  0  0  0  0  0  0
   -1.0180   20.5810  -31.2830 C   0  0  0  0  0  0  0  0  0  0  0  0
    0.3070   20.4260  -31.6860 C   0  0  0  0  0  0  0  0  0  0  0  0
    0.6620   20.6730  -33.0130 C   0  0  0  0  0  0  0  0  0  0  0  0
   -0.3220   21.0740  -33.9180 C   0  0  0  0  0  0  0  0  0  0  0  0
   -1.6120   21.2200  -33.5110 N   0  0  0  0  0  0  0  0  0  0  0  0
   -6.9264   22.2127  -32.8898 H   0  0  0  0  0  0  0  0  0  0  0  0
   -9.0663   20.9544  -32.6417 H   0  0  0  0  0  0  0  0  0  0  0  0
   -9.0306   18.4876  -32.2609 H   0  0  0  0  0  0  0  0  0  0  0  0
   -6.8537   17.2781  -32.1130 H   0  0  0  0  0  0  0  0  0  0  0  0
   -4.7087   18.5270  -32.3583 H   0  0  0  0  0  0  0  0  0  0  0  0
   -4.2396   20.6459  -29.9687 H   0  0  0  0  0  0  0  0  0  0  0  0
   -2.7229   21.6170  -29.8762 H   0  0  0  0  0  0  0  0  0  0  0  0
   -6.3688   21.7145  -30.0328 H   0  0  0  0  0  0  0  0  0  0  0  0
   -7.7074   23.8194  -29.9722 H   0  0  0  0  0  0  0  0  0  0  0  0
   -6.5799   26.0278  -30.2601 H   0  0  0  0  0  0  0  0  0  0  0  0
   -4.1122   26.1349  -30.6124 H   0  0  0  0  0  0  0  0  0  0  0  0
   -2.7645   24.0351  -30.6723 H   0  0  0  0  0  0  0  0  0  0  0  0
   -1.3048   20.3881  -30.2387 H   0  0  0  0  0  0  0  0  0  0  0  0
    1.0709   20.1099  -30.9603 H   0  0  0  0  0  0  0  0  0  0  0  0
    1.7049   20.5531  -33.3417 H   0  0  0  0  0  0  0  0  0  0  0  0
   -0.0531   21.2731  -34.9659 H   0  0  0  0  0  0  0  0  0  0  0  0
   -2.3190   21.5450  -34.2070 H   0  0  0  0  0  0  0  0  0  0  0  0
  1  2  2  0
  2  3  1  0
  3  4  2  0
  4  5  1  0
  5  6  2  0
  6  7  1  0
  7  8  2  0
  2  9  1  0
  9 10  1  0
 10 11  1  0
 11 12  2  0
 12 13  1  0
 13 14  2  0
 14 15  1  0
 15 16  2  0
  9 17  1  0
 17 18  2  0
 18 19  1  0
 19 20  2  0
 20 21  1  0
 21 22  2  0
  8  3  1  0
 16 11  1  0
 22 17  1  0
  4 23  1  0
  5 24  1  0
  6 25  1  0
  7 26  1  0
  8 27  1  0
 10 28  1  0
 10 29  1  0
 12 30  1  0
 13 31  1  0
 14 32  1  0
 15 33  1  0
 16 34  1  0
 18 35  1  0
 19 36  1  0
 20 37  1  0
 21 38  1  0
 22 39  1  0
M  CHG  1  22   1
M  END
>  <UniqueID>  (23) 
23

>  <SMILES>  (23) 
O=C(c1ccccc1)N(Cc1ccccc1)c1cccc[nH+]1

>  <Energy>  (23) 
49.10469047816674

>  <Genealogy>  (23) 
O=C(c1ccccc1)N(Cc1ccccc1)c1cccc[nH+]1 (protonated)
O=C(c1ccccc1)N(Cc1ccccc1)c1cccc[nH+]1 (3D coordinates assigned)
O=C(c1ccccc1)N(Cc1ccccc1)c1cccc[nH+]1 (optimized conformer: 49.10469047816674 kcal/mol)

>  <smiles>  (23) 
O=C(c1ccccc1)N(Cc1ccccc1)c1ccccn1

>  <score_type>  (23) 
oracle

>  <origin>  (23) 
adg

>  <m_score__min__energy>  (23) 
-6.6500000000000004

>  <m_primary>  (23) 
energy

$$$$
23:0
     RDKit          3D

 44 47  0  0  0  0  0  0  0  0999 V2000
   -4.4200   25.8330  -30.6070 O   0  0  0  0  0  0  0  0  0  0  0  0
   -4.5230   24.5860  -30.4680 C   0  0  0  0  0  0  0  0  0  0  0  0
   -5.7260   24.0370  -29.7500 C   0  0  0  0  0  0  0  0  0  0  0  0
   -6.1310   22.8020  -30.3340 O   0  0  0  0  0  0  0  0  0  0  0  0
   -7.1570   22.7070  -31.2790 C   0  0  0  0  0  0  0  0  0  0  0  0
   -7.5210   23.7300  -31.9230 O   0  0  0  0  0  0  0  0  0  0  0  0
   -7.7670   21.3910  -31.5650 C   0  0  0  0  0  0  0  0  0  0  0  0
   -9.0070   21.3030  -32.2230 C   0  0  0  0  0  0  0  0  0  0  0  0
   -9.5400   20.0560  -32.5640 C   0  0  0  0  0  0  0  0  0  0  0  0
   -8.8450   18.8860  -32.2500 C   0  0  0  0  0  0  0  0  0  0  0  0
   -7.6140   18.9590  -31.5850 C   0  0  0  0  0  0  0  0  0  0  0  0
   -6.9070   17.8010  -31.2730 O   0  0  0  0  0  0  0  0  0  0  0  0
   -7.0820   20.2070  -31.2400 C   0  0  0  0  0  0  0  0  0  0  0  0
   -3.4870   23.7440  -31.0020 N   0  0  0  0  0  0  0  0  0  0  0  0
   -3.6720   22.4610  -31.6130 C   0  0  0  0  0  0  0  0  0  0  0  0
   -4.3810   22.3170  -32.8150 C   0  0  0  0  0  0  0  0  0  0  0  0
   -4.6740   21.0430  -33.3100 C   0  0  0  0  0  0  0  0  0  0  0  0
   -4.2370   19.8970  -32.6250 C   0  0  0  0  0  0  0  0  0  0  0  0
   -4.6680   18.5520  -33.0640 C   0  0  0  0  0  0  0  0  0  0  0  0
   -4.0110   17.4140  -32.7070 N   0  0  0  0  0  0  0  0  0  0  0  0
   -4.7740   16.4530  -33.2460 C   0  0  0  0  0  0  0  0  0  0  0  0
   -4.5820   15.0750  -33.1810 C   0  0  0  0  0  0  0  0  0  0  0  0
   -5.5350   14.2540  -33.8130 C   0  0  0  0  0  0  0  0  0  0  0  0
   -6.6410   14.8250  -34.4820 C   0  0  0  0  0  0  0  0  0  0  0  0
   -6.8020   16.2240  -34.5240 C   0  0  0  0  0  0  0  0  0  0  0  0
   -5.8380   17.0040  -33.8900 C   0  0  0  0  0  0  0  0  0  0  0  0
   -5.7990   18.3390  -33.7890 N   0  0  0  0  0  0  0  0  0  0  0  0
   -3.4430   20.0510  -31.4740 C   0  0  0  0  0  0  0  0  0  0  0  0
   -3.1580   21.3250  -30.9780 C   0  0  0  0  0  0  0  0  0  0  0  0
   -5.4731   23.8723  -28.6922 H   0  0  0  0  0  0  0  0  0  0  0  0
   -6.5517   24.7591  -29.8326 H   0  0  0  0  0  0  0  0  0  0  0  0
   -9.5608   22.2206  -32.4708 H   0  0  0  0  0  0  0  0  0  0  0  0
  -10.5092   19.9964  -33.0809 H   0  0  0  0  0  0  0  0  0  0  0  0
   -9.2642   17.9069  -32.5249 H   0  0  0  0  0  0  0  0  0  0  0  0
   -6.0130   17.5940  -31.6990 H   0  0  0  0  0  0  0  0  0  0  0  0
   -6.1197   20.2618  -30.7100 H   0  0  0  0  0  0  0  0  0  0  0  0
   -4.7073   23.2092  -33.3695 H   0  0  0  0  0  0  0  0  0  0  0  0
   -5.2500   20.9372  -34.2411 H   0  0  0  0  0  0  0  0  0  0  0  0
   -3.7173   14.6440  -32.6551 H   0  0  0  0  0  0  0  0  0  0  0  0
   -5.4179   13.1606  -33.7859 H   0  0  0  0  0  0  0  0  0  0  0  0
   -7.3798   14.1740  -34.9723 H   0  0  0  0  0  0  0  0  0  0  0  0
   -7.6584   16.6837  -35.0391 H   0  0  0  0  0  0  0  0  0  0  0  0
   -3.0444   19.1629  -30.9618 H   0  0  0  0  0  0  0  0  0  0  0  0
   -2.5266   21.4359  -30.0841 H   0  0  0  0  0  0  0  0  0  0  0  0
  1  2  2  0
  2  3  1  0
  3  4  1  0
  4  5  1  0
  5  6  2  0
  5  7  1  0
  7  8  2  0
  8  9  1  0
  9 10  2  0
 10 11  1  0
 11 12  1  0
 11 13  2  0
  2 14  1  0
 14 15  1  0
 15 16  2  0
 16 17  1  0
 17 18  2  0
 18 19  1  0
 19 20  2  0
 20 21  1  0
 21 22  2  0
 22 23  1  0
 23 24  2  0
 24 25  1  0
 25 26  2  0
 26 27  1  0
 18 28  1  0
 28 29  2  0
 13  7  1  0
 29 15  1  0
 27 19  1  0
 26 21  1  0
  3 30  1  0
  3 31  1  0
  8 32  1  0
  9 33  1  0
 10 34  1  0
 12 35  1  0
 13 36  1  0
 16 37  1  0
 17 38  1  0
 22 39  1  0
 23 40  1  0
 24 41  1  0
 25 42  1  0
 28 43  1  0
 29 44  1  0
M  CHG  2  14  -1  27  -1
M  END
>  <UniqueID>  (24) 
24

>  <SMILES>  (24) 
O=C(COC(=O)c1cccc(O)c1)[N-]c1ccc(-c2nc3ccccc3[n-]2)cc1

>  <Energy>  (24) 
82.88044868219542

>  <Genealogy>  (24) 
O=C(COC(=O)c1cccc(O)c1)[N-]c1ccc(-c2nc3ccccc3[n-]2)cc1 (protonated)
O=C(COC(=O)c1cccc(O)c1)[N-]c1ccc(-c2nc3ccccc3[n-]2)cc1 (3D coordinates assigned)
O=C(COC(=O)c1cccc(O)c1)[N-]c1ccc(-c2nc3ccccc3[n-]2)cc1 (optimized conformer: 82.88044868219542 kcal/mol)

>  <smiles>  (24) 
O=C(COC(=O)c1cccc(O)c1)Nc1ccc(-c2nc3ccccc3[nH]2)cc1

>  <score_type>  (24) 
oracle

>  <origin>  (24) 
adg

>  <m_score__min__energy>  (24) 
-9.8800000000000008

>  <m_primary>  (24) 
energy

$$$$
24:0
     RDKit          3D

 36 38  0  0  0  0  0  0  0  0999 V2000
   -4.2150   19.3080  -33.6770 C   0  0  0  0  0  0  0  0  0  0  0  0
   -5.4960   19.9100  -33.1900 C   0  0  0  0  0  0  0  0  0  0  0  0
   -6.6610   19.2120  -33.1450 N   0  0  0  0  0  0  0  0  0  0  0  0
   -7.5360   20.1120  -32.6620 C   0  0  0  0  0  0  0  0  0  0  0  0
   -8.8970   19.9330  -32.4290 C   0  0  0  0  0  0  0  0  0  0  0  0
   -9.6290   21.0310  -31.9380 C   0  0  0  0  0  0  0  0  0  0  0  0
   -8.9890   22.2670  -31.6970 C   0  0  0  0  0  0  0  0  0  0  0  0
   -7.6110   22.4170  -31.9440 C   0  0  0  0  0  0  0  0  0  0  0  0
   -6.9160   21.3050  -32.4250 C   0  0  0  0  0  0  0  0  0  0  0  0
   -5.6150   21.1900  -32.7420 N   0  0  0  0  0  0  0  0  0  0  0  0
   -4.5910   22.2360  -32.7160 C   0  0  0  0  0  0  0  0  0  0  0  0
   -4.1610   22.5130  -31.2610 C   0  0  0  0  0  0  0  0  0  0  0  0
   -4.1400   23.9470  -30.8860 N   0  0  0  0  0  0  0  0  0  0  0  0
   -5.4240   24.6300  -31.0910 C   0  0  0  0  0  0  0  0  0  0  0  0
   -6.0510   24.8880  -29.7270 C   0  0  0  0  0  0  0  0  0  0  0  0
   -4.9840   24.5490  -28.7000 C   0  0  0  0  0  0  0  0  0  0  0  0
   -3.7380   24.1900  -29.4940 C   0  0  0  0  0  0  0  0  0  0  0  0
   -3.5958   19.0170  -32.8156 H   0  0  0  0  0  0  0  0  0  0  0  0
   -4.4359   18.4194  -34.2866 H   0  0  0  0  0  0  0  0  0  0  0  0
   -3.6719   20.0451  -34.2866 H   0  0  0  0  0  0  0  0  0  0  0  0
   -9.3842   18.9659  -32.6221 H   0  0  0  0  0  0  0  0  0  0  0  0
  -10.7060   20.9256  -31.7408 H   0  0  0  0  0  0  0  0  0  0  0  0
   -9.5711   23.1180  -31.3138 H   0  0  0  0  0  0  0  0  0  0  0  0
   -7.1005   23.3747  -31.7648 H   0  0  0  0  0  0  0  0  0  0  0  0
   -3.7178   21.9062  -33.2980 H   0  0  0  0  0  0  0  0  0  0  0  0
   -5.0029   23.1573  -33.1537 H   0  0  0  0  0  0  0  0  0  0  0  0
   -4.8621   21.9935  -30.5912 H   0  0  0  0  0  0  0  0  0  0  0  0
   -3.1264   22.1512  -31.1675 H   0  0  0  0  0  0  0  0  0  0  0  0
   -5.2585   25.5851  -31.6111 H   0  0  0  0  0  0  0  0  0  0  0  0
   -6.0918   24.0063  -31.7035 H   0  0  0  0  0  0  0  0  0  0  0  0
   -6.3460   25.9438  -29.6363 H   0  0  0  0  0  0  0  0  0  0  0  0
   -6.9564   24.2807  -29.5803 H   0  0  0  0  0  0  0  0  0  0  0  0
   -4.7878   25.4160  -28.0521 H   0  0  0  0  0  0  0  0  0  0  0  0
   -5.2998   23.7205  -28.0490 H   0  0  0  0  0  0  0  0  0  0  0  0
   -3.0175   25.0202  -29.4532 H   0  0  0  0  0  0  0  0  0  0  0  0
   -3.2618   23.2927  -29.0720 H   0  0  0  0  0  0  0  0  0  0  0  0
  1  2  1  0
  2  3  2  0
  3  4  1  0
  4  5  2  0
  5  6  1  0
  6  7  2  0
  7  8  1  0
  8  9  2  0
  9 10  1  0
 10 11  1  0
 11 12  1  0
 12 13  1  0
 13 14  1  0
 14 15  1  0
 15 16  1  0
 16 17  1  0
 10  2  1  0
 17 13  1  0
  9  4  1  0
  1 18  1  0
  1 19  1  0
  1 20  1  0
  5 21  1  0
  6 22  1  0
  7 23  1  0
  8 24  1  0
 11 25  1  0
 11 26  1  0
 12 27  1  0
 12 28  1  0
 14 29  1  0
 14 30  1  0
 15 31  1  0
 15 32  1  0
 16 33  1  0
 16 34  1  0
 17 35  1  0
 17 36  1  0
M  END
>  <UniqueID>  (25) 
25

>  <SMILES>  (25) 
Cc1nc2ccccc2n1CCN1CCCC1

>  <Energy>  (25) 
75.93994578779268

>  <Genealogy>  (25) 
Cc1nc2ccccc2n1CCN1CCCC1 (3D coordinates assigned)
Cc1nc2ccccc2n1CCN1CCCC1 (nonaromatic ring conformer: 75.93994578779268 kcal/mol)

>  <smiles>  (25) 
Cc1nc2ccccc2n1CCN1CCCC1

>  <score_type>  (25) 
oracle

>  <origin>  (25) 
adg

>  <m_score__min__energy>  (25) 
-7.3799999999999999

>  <m_primary>  (25) 
energy

$$$$
25:0
     RDKit          3D

 33 34  0  0  0  0  0  0  0  0999 V2000
   -6.2380   17.1320  -33.9930 C   0  0  0  0  0  0  0  0  0  0  0  0
   -5.7380   18.4390  -34.5950 C   0  0  0  0  0  0  0  0  0  0  0  0
   -6.1220   19.6010  -33.7260 C   0  0  0  0  0  0  0  0  0  0  0  0
   -7.4030   19.8360  -33.3360 N   0  0  0  0  0  0  0  0  0  0  0  0
   -7.3290   20.9680  -32.6130 C   0  0  0  0  0  0  0  0  0  0  0  0
   -8.3400   21.6620  -31.9480 C   0  0  0  0  0  0  0  0  0  0  0  0
   -9.7620   21.1870  -31.9710 C   0  0  0  0  0  0  0  0  0  0  0  0
   -7.9560   22.8240  -31.2410 C   0  0  0  0  0  0  0  0  0  0  0  0
   -6.5980   23.2340  -31.2350 C   0  0  0  0  0  0  0  0  0  0  0  0
   -6.1910   24.4600  -30.4810 C   0  0  0  0  0  0  0  0  0  0  0  0
   -5.6530   22.5080  -31.9080 N   0  0  0  0  0  0  0  0  0  0  0  0
   -6.0390   21.3970  -32.5820 C   0  0  0  0  0  0  0  0  0  0  0  0
   -5.2590   20.5630  -33.2900 N   0  0  0  0  0  0  0  0  0  0  0  0
   -3.8050   20.6360  -33.4520 C   0  0  0  0  0  0  0  0  0  0  0  0
   -3.1230   20.6660  -32.0900 C   0  0  0  0  0  0  0  0  0  0  0  0
   -6.2119   17.2002  -32.8954 H   0  0  0  0  0  0  0  0  0  0  0  0
   -7.2704   16.9469  -34.3244 H   0  0  0  0  0  0  0  0  0  0  0  0
   -5.5927   16.3051  -34.3244 H   0  0  0  0  0  0  0  0  0  0  0  0
   -4.6423   18.4004  -34.6839 H   0  0  0  0  0  0  0  0  0  0  0  0
   -6.1954   18.5709  -35.5867 H   0  0  0  0  0  0  0  0  0  0  0  0
   -8.2500   19.2640  -33.5490 H   0  0  0  0  0  0  0  0  0  0  0  0
  -10.1248   21.0658  -30.9397 H   0  0  0  0  0  0  0  0  0  0  0  0
  -10.3868   21.9252  -32.4951 H   0  0  0  0  0  0  0  0  0  0  0  0
   -9.8176   20.2215  -32.4951 H   0  0  0  0  0  0  0  0  0  0  0  0
   -8.7101   23.4104  -30.6955 H   0  0  0  0  0  0  0  0  0  0  0  0
   -6.2559   24.2644  -29.4005 H   0  0  0  0  0  0  0  0  0  0  0  0
   -5.1565   24.7257  -30.7440 H   0  0  0  0  0  0  0  0  0  0  0  0
   -6.8613   25.2916  -30.7440 H   0  0  0  0  0  0  0  0  0  0  0  0
   -3.4575   19.7557  -34.0127 H   0  0  0  0  0  0  0  0  0  0  0  0
   -3.5513   21.5555  -33.9999 H   0  0  0  0  0  0  0  0  0  0  0  0
   -3.8851   20.6325  -31.2975 H   0  0  0  0  0  0  0  0  0  0  0  0
   -2.4563   19.7963  -31.9946 H   0  0  0  0  0  0  0  0  0  0  0  0
   -2.5352   21.5909  -31.9946 H   0  0  0  0  0  0  0  0  0  0  0  0
  1  2  1  0
  2  3  1  0
  3  4  2  0
  4  5  1  0
  5  6  2  0
  6  7  1  0
  6  8  1  0
  8  9  2  0
  9 10  1  0
  9 11  1  0
 11 12  2  0
 12 13  1  0
 13 14  1  0
 14 15  1  0
 13  3  1  0
 12  5  1  0
  1 16  1  0
  1 17  1  0
  1 18  1  0
  2 19  1  0
  2 20  1  0
  4 21  1  0
  7 22  1  0
  7 23  1  0
  7 24  1  0
  8 25  1  0
 10 26  1  0
 10 27  1  0
 10 28  1  0
 14 29  1  0
 14 30  1  0
 15 31  1  0
 15 32  1  0
 15 33  1  0
M  CHG  1   4   1
M  END
>  <UniqueID>  (26) 
26

>  <SMILES>  (26) 
CCc1[nH+]c2c(C)cc(C)nc2n1CC

>  <Energy>  (26) 
63.79061107759453

>  <Genealogy>  (26) 
CCc1[nH+]c2c(C)cc(C)nc2n1CC (protonated)
CCc1[nH+]c2c(C)cc(C)nc2n1CC (3D coordinates assigned)
CCc1[nH+]c2c(C)cc(C)nc2n1CC (optimized conformer: 63.79061107759453 kcal/mol)

>  <smiles>  (26) 
CCc1nc2c(C)cc(C)nc2n1CC

>  <score_type>  (26) 
oracle

>  <origin>  (26) 
adg

>  <m_score__min__energy>  (26) 
-5.7300000000000004

>  <m_primary>  (26) 
energy

$$$$
26:0
     RDKit          3D

 51 54  0  0  0  0  0  0  0  0999 V2000
   -4.2870   17.5430  -33.1040 C   0  0  0  0  0  0  0  0  0  0  0  0
   -5.4430   17.6550  -32.1180 C   0  0  0  0  0  0  0  0  0  0  0  0
   -6.9970   17.8710  -32.9750 S   0  0  0  0  0  0  0  0  0  0  0  0
   -7.0140   17.0170  -34.2130 O   0  0  0  0  0  0  0  0  0  0  0  0
   -8.1180   17.4470  -32.0670 O   0  0  0  0  0  0  0  0  0  0  0  0
   -7.2030   19.5510  -33.4030 N   0  0  1  0  0  0  0  0  0  0  0  0
   -8.3900   20.1560  -32.7320 C   0  0  0  0  0  0  0  0  0  0  0  0
   -7.7850   21.0810  -31.7090 C   0  0  2  0  0  0  0  0  0  0  0  0
   -8.3740   22.3230  -31.0770 C   0  0  0  0  0  0  0  0  0  0  0  0
   -7.0740   23.0520  -30.6420 C   0  0  0  0  0  0  0  0  0  0  0  0
   -5.9990   22.4830  -31.4730 N   0  0  0  0  0  0  0  0  0  0  0  0
   -4.6830   23.0520  -31.5560 C   0  0  0  0  0  0  0  0  0  0  0  0
   -4.4710   24.1840  -31.0370 O   0  0  0  0  0  0  0  0  0  0  0  0
   -3.5490   22.2980  -32.1990 C   0  0  0  0  0  0  0  0  0  0  0  0
   -2.7370   21.5240  -31.1910 C   0  0  0  0  0  0  0  0  0  0  0  0
   -1.4950   20.9800  -31.5510 C   0  0  0  0  0  0  0  0  0  0  0  0
   -0.7530   20.2350  -30.6300 C   0  0  0  0  0  0  0  0  0  0  0  0
   -1.2490   20.0170  -29.3360 C   0  0  0  0  0  0  0  0  0  0  0  0
   -0.5130   19.2700  -28.4030 C   0  0  0  0  0  0  0  0  0  0  0  0
   -1.0210   19.0560  -27.1190 C   0  0  0  0  0  0  0  0  0  0  0  0
   -2.2630   19.5830  -26.7570 C   0  0  0  0  0  0  0  0  0  0  0  0
   -3.0060   20.3290  -27.6770 C   0  0  0  0  0  0  0  0  0  0  0  0
   -2.5080   20.5520  -28.9690 C   0  0  0  0  0  0  0  0  0  0  0  0
   -3.2450   21.2980  -29.9010 C   0  0  0  0  0  0  0  0  0  0  0  0
   -6.6330   21.6340  -32.4600 C   0  0  1  0  0  0  0  0  0  0  0  0
   -6.0190   20.3580  -32.9890 C   0  0  0  0  0  0  0  0  0  0  0  0
   -3.3407   17.4513  -32.5507 H   0  0  0  0  0  0  0  0  0  0  0  0
   -4.4294   16.6544  -33.7366 H   0  0  0  0  0  0  0  0  0  0  0  0
   -4.2562   18.4424  -33.7366 H   0  0  0  0  0  0  0  0  0  0  0  0
   -5.4902   16.7374  -31.5132 H   0  0  0  0  0  0  0  0  0  0  0  0
   -5.2722   18.5314  -31.4756 H   0  0  0  0  0  0  0  0  0  0  0  0
   -7.3220   19.6120  -34.4410 H   0  0  0  0  0  0  0  0  0  0  0  0
   -9.0055   20.7153  -33.4519 H   0  0  0  0  0  0  0  0  0  0  0  0
   -9.0585   19.4045  -32.2866 H   0  0  0  0  0  0  0  0  0  0  0  0
   -7.7692   20.4184  -30.8311 H   0  0  0  0  0  0  0  0  0  0  0  0
   -8.9501   22.9156  -31.8029 H   0  0  0  0  0  0  0  0  0  0  0  0
   -9.0903   22.1321  -30.2643 H   0  0  0  0  0  0  0  0  0  0  0  0
   -7.1636   24.1339  -30.8193 H   0  0  0  0  0  0  0  0  0  0  0  0
   -6.8724   22.9157  -29.5693 H   0  0  0  0  0  0  0  0  0  0  0  0
   -3.9639   21.5942  -32.9355 H   0  0  0  0  0  0  0  0  0  0  0  0
   -2.8836   23.0315  -32.6777 H   0  0  0  0  0  0  0  0  0  0  0  0
   -1.1021   21.1410  -32.5658 H   0  0  0  0  0  0  0  0  0  0  0  0
    0.2227   19.8184  -30.9207 H   0  0  0  0  0  0  0  0  0  0  0  0
    0.4653   18.8524  -28.6831 H   0  0  0  0  0  0  0  0  0  0  0  0
   -0.4408   18.4704  -26.3907 H   0  0  0  0  0  0  0  0  0  0  0  0
   -2.6578   19.4105  -25.7449 H   0  0  0  0  0  0  0  0  0  0  0  0
   -3.9834   20.7419  -27.3868 H   0  0  0  0  0  0  0  0  0  0  0  0
   -4.2262   21.7082  -29.6200 H   0  0  0  0  0  0  0  0  0  0  0  0
   -6.7029   22.2941  -33.3371 H   0  0  0  0  0  0  0  0  0  0  0  0
   -5.3628   20.5633  -33.8476 H   0  0  0  0  0  0  0  0  0  0  0  0
   -5.3877   19.8457  -32.2481 H   0  0  0  0  0  0  0  0  0  0  0  0
  1  2  1  0
  2  3  1  0
  3  4  2  0
  3  5  2  0
  3  6  1  0
  6  7  1  0
  7  8  1  0
  8  9  1  0
  9 10  1  0
 10 11  1  0
 11 12  1  0
 12 13  2  0
 12 14  1  0
 14 15  1  0
 15 16  2  0
 16 17  1  0
 17 18  2  0
 18 19  1  0
 19 20  2  0
 20 21  1  0
 21 22  2  0
 22 23  1  0
 23 24  2  0
 11 25  1  0
 25 26  1  0
 26  6  1  0
 25  8  1  0
 24 15  1  0
 23 18  1  0
  1 27  1  0
  1 28  1  0
  1 29  1  0
  2 30  1  0
  2 31  1  0
  6 32  1  6
  7 33  1  0
  7 34  1  0
  8 35  1  1
  9 36  1  0
  9 37  1  0
 10 38  1  0
 10 39  1  0
 14 40  1  0
 14 41  1  0
 16 42  1  0
 17 43  1  0
 19 44  1  0
 20 45  1  0
 21 46  1  0
 22 47  1  0
 24 48  1  0
 25 49  1  6
 26 50  1  0
 26 51  1  0
M  CHG  1   6   1
M  END
>  <UniqueID>  (27) 
27

>  <SMILES>  (27) 
CCS(=O)(=O)[N@@H+]1CC2[C@@H](CCN2C(=O)Cc2ccc3ccccc3c2)C1

>  <Energy>  (27) 
86.43715774712015

>  <Genealogy>  (27) 
CCS(=O)(=O)[NH+]1CC2CCN(C(=O)Cc3ccc4ccccc4c3)C2C1 (protonated)
CCS(=O)(=O)[N@@H+]1CC2[C@@H](CCN2C(=O)Cc2ccc3ccccc3c2)C1 (chirality)
CCS(=O)(=O)[N@@H+]1CC2[C@@H](CCN2C(=O)Cc2ccc3ccccc3c2)C1 (3D coordinates assigned)
CCS(=O)(=O)[N@@H+]1CC2[C@@H](CCN2C(=O)Cc2ccc3ccccc3c2)C1 (nonaromatic ring conformer: 86.43715774712015 kcal/mol)

>  <smiles>  (27) 
CCS(=O)(=O)N1CC2CCN(C(=O)Cc3ccc4ccccc4c3)C2C1

>  <score_type>  (27) 
oracle

>  <origin>  (27) 
adg

>  <m_score__min__energy>  (27) 
-9.1699999999999999

>  <m_primary>  (27) 
energy

$$$$
27:0
     RDKit          3D

 34 35  0  0  0  0  0  0  0  0999 V2000
   -3.4780   25.2950  -30.1400 N   0  0  0  0  0  0  0  0  0  0  0  0
   -3.9100   23.6690  -29.7430 S   0  0  0  0  0  0  0  0  0  0  0  0
   -4.3060   23.5900  -28.2960 O   0  0  0  0  0  0  0  0  0  0  0  0
   -2.7170   22.7820  -29.9680 O   0  0  0  0  0  0  0  0  0  0  0  0
   -5.2640   23.1510  -30.7560 C   0  0  0  0  0  0  0  0  0  0  0  0
   -5.1200   22.0270  -31.5850 C   0  0  0  0  0  0  0  0  0  0  0  0
   -6.1800   21.5850  -32.4000 C   0  0  0  0  0  0  0  0  0  0  0  0
   -5.9880   20.3920  -33.2720 C   0  0  0  0  0  0  0  0  0  0  0  0
   -4.8640   20.2240  -33.8230 O   0  0  0  0  0  0  0  0  0  0  0  0
   -7.0600   19.4400  -33.5180 N   0  0  0  0  0  0  0  0  0  0  0  0
   -6.5080   18.0890  -33.7710 C   0  0  0  0  0  0  0  0  0  0  0  0
   -5.9200   17.4320  -32.5040 C   0  0  0  0  0  0  0  0  0  0  0  0
   -6.7460   17.7110  -31.2370 C   0  0  0  0  0  0  0  0  0  0  0  0
   -8.1520   18.2050  -31.5710 C   0  0  0  0  0  0  0  0  0  0  0  0
   -8.1010   19.4730  -32.4460 C   0  0  0  0  0  0  0  0  0  0  0  0
   -7.3890   22.3030  -32.3830 C   0  0  0  0  0  0  0  0  0  0  0  0
   -7.5380   23.4220  -31.5620 C   0  0  0  0  0  0  0  0  0  0  0  0
   -6.4870   23.8520  -30.7480 C   0  0  0  0  0  0  0  0  0  0  0  0
   -6.7410   25.2710  -29.7390 Cl  0  0  0  0  0  0  0  0  0  0  0  0
   -2.4580   25.2920  -30.3670 H   0  0  0  0  0  0  0  0  0  0  0  0
   -4.1640   21.4830  -31.5981 H   0  0  0  0  0  0  0  0  0  0  0  0
   -7.5510   19.7320  -34.3950 H   0  0  0  0  0  0  0  0  0  0  0  0
   -7.3139   17.4475  -34.1570 H   0  0  0  0  0  0  0  0  0  0  0  0
   -5.6882   18.1985  -34.4962 H   0  0  0  0  0  0  0  0  0  0  0  0
   -5.8785   16.3441  -32.6616 H   0  0  0  0  0  0  0  0  0  0  0  0
   -4.9215   17.8652  -32.3449 H   0  0  0  0  0  0  0  0  0  0  0  0
   -6.8248   16.7826  -30.6523 H   0  0  0  0  0  0  0  0  0  0  0  0
   -6.2352   18.4986  -30.6637 H   0  0  0  0  0  0  0  0  0  0  0  0
   -8.6908   17.4149  -32.1144 H   0  0  0  0  0  0  0  0  0  0  0  0
   -8.6691   18.4493  -30.6313 H   0  0  0  0  0  0  0  0  0  0  0  0
   -9.0834   19.6014  -32.9239 H   0  0  0  0  0  0  0  0  0  0  0  0
   -7.8381   20.3062  -31.7776 H   0  0  0  0  0  0  0  0  0  0  0  0
   -8.2242   21.9802  -33.0219 H   0  0  0  0  0  0  0  0  0  0  0  0
   -8.4916   23.9703  -31.5558 H   0  0  0  0  0  0  0  0  0  0  0  0
  1  2  1  0
  2  3  2  0
  2  4  2  0
  2  5  1  0
  5  6  2  0
  6  7  1  0
  7  8  1  0
  8  9  2  0
  8 10  1  0
 10 11  1  0
 11 12  1  0
 12 13  1  0
 13 14  1  0
 14 15  1  0
  7 16  2  0
 16 17  1  0
 17 18  2  0
 18 19  1  0
 18  5  1  0
 15 10  1  0
  1 20  1  0
  6 21  1  0
 10 22  1  0
 11 23  1  0
 11 24  1  0
 12 25  1  0
 12 26  1  0
 13 27  1  0
 13 28  1  0
 14 29  1  0
 14 30  1  0
 15 31  1  0
 15 32  1  0
 16 33  1  0
 17 34  1  0
M  CHG  2   1  -1  10   1
M  END
>  <UniqueID>  (28) 
28

>  <SMILES>  (28) 
[NH-]S(=O)(=O)c1cc(C(=O)[NH+]2CCCCC2)ccc1Cl

>  <Energy>  (28) 
47.91165778250116

>  <Genealogy>  (28) 
[NH-]S(=O)(=O)c1cc(C(=O)[NH+]2CCCCC2)ccc1Cl (protonated)
[NH-]S(=O)(=O)c1cc(C(=O)[NH+]2CCCCC2)ccc1Cl (3D coordinates assigned)
[NH-]S(=O)(=O)c1cc(C(=O)[NH+]2CCCCC2)ccc1Cl (nonaromatic ring conformer: 47.91165778250116 kcal/mol)

>  <smiles>  (28) 
NS(=O)(=O)c1cc(C(=O)N2CCCCC2)ccc1Cl

>  <score_type>  (28) 
oracle

>  <origin>  (28) 
adg

>  <m_score__min__energy>  (28) 
-10.07

>  <m_primary>  (28) 
energy

$$$$
28:0
     RDKit          3D

 61 64  0  0  0  0  0  0  0  0999 V2000
   -5.7400   15.8840  -33.5060 C   0  0  0  0  0  0  0  0  0  0  0  0
   -5.4600   16.7630  -32.4210 O   0  0  0  0  0  0  0  0  0  0  0  0
   -5.8550   18.1070  -32.3660 C   0  0  0  0  0  0  0  0  0  0  0  0
   -7.2220   18.3990  -32.4260 C   0  0  0  0  0  0  0  0  0  0  0  0
   -7.6750   19.7290  -32.3700 C   0  0  0  0  0  0  0  0  0  0  0  0
   -9.0380   20.0630  -32.4190 O   0  0  0  0  0  0  0  0  0  0  0  0
   -9.5790   21.3050  -31.9810 C   0  0  0  0  0  0  0  0  0  0  0  0
   -6.7440   20.7670  -32.2550 C   0  0  0  0  0  0  0  0  0  0  0  0
   -5.3670   20.4950  -32.1980 C   0  0  0  0  0  0  0  0  0  0  0  0
   -4.4050   21.5650  -32.0680 N   0  0  0  0  0  0  0  0  0  0  0  0
   -3.4770   21.8690  -33.1700 C   0  0  0  0  0  0  0  0  0  0  0  0
   -2.1450   21.1220  -32.9750 C   0  0  0  0  0  0  0  0  0  0  0  0
   -1.0770   21.6320  -33.8490 N   0  0  0  0  0  0  0  0  0  0  0  0
   -0.3550   20.5510  -34.5350 C   0  0  0  0  0  0  0  0  0  0  0  0
    0.6690   21.1360  -35.5040 C   0  0  0  0  0  0  0  0  0  0  0  0
    0.8440   20.2730  -36.5700 F   0  0  0  0  0  0  0  0  0  0  0  0
    1.8820   21.3090  -34.8620 F   0  0  0  0  0  0  0  0  0  0  0  0
    0.2270   22.3570  -35.9820 F   0  0  0  0  0  0  0  0  0  0  0  0
   -4.4100   22.3890  -30.8790 C   0  0  0  0  0  0  0  0  0  0  0  0
   -5.5680   23.1090  -30.5290 C   0  0  0  0  0  0  0  0  0  0  0  0
   -5.5890   23.9140  -29.3860 C   0  0  0  0  0  0  0  0  0  0  0  0
   -4.4510   24.0100  -28.5810 C   0  0  0  0  0  0  0  0  0  0  0  0
   -4.4540   24.7870  -27.4680 N   0  0  0  0  0  0  0  0  0  0  0  0
   -3.3530   24.8870  -26.6760 C   0  0  0  0  0  0  0  0  0  0  0  0
   -2.1870   24.1760  -27.0100 C   0  0  0  0  0  0  0  0  0  0  0  0
   -0.9650   24.2530  -26.1850 C   0  0  0  0  0  0  0  0  0  0  0  0
   -0.8570   24.2310  -24.8010 C   0  0  0  0  0  0  0  0  0  0  0  0
    0.4430   24.3420  -24.4730 N   0  0  0  0  0  0  0  0  0  0  0  0
    1.1570   24.4210  -25.5850 N   0  0  0  0  0  0  0  0  0  0  0  0
    2.5980   24.6350  -25.6240 C   0  0  0  0  0  0  0  0  0  0  0  0
    0.3340   24.3830  -26.6490 C   0  0  0  0  0  0  0  0  0  0  0  0
   -2.1900   23.3970  -28.1270 N   0  0  0  0  0  0  0  0  0  0  0  0
   -3.2870   23.2950  -28.9210 C   0  0  0  0  0  0  0  0  0  0  0  0
   -3.2680   22.4870  -30.0630 C   0  0  0  0  0  0  0  0  0  0  0  0
   -4.9310   19.1610  -32.2540 C   0  0  0  0  0  0  0  0  0  0  0  0
   -6.0519   14.9049  -33.1136 H   0  0  0  0  0  0  0  0  0  0  0  0
   -6.5480   16.3067  -34.1212 H   0  0  0  0  0  0  0  0  0  0  0  0
   -4.8364   15.7615  -34.1212 H   0  0  0  0  0  0  0  0  0  0  0  0
   -7.9500   17.5795  -32.5179 H   0  0  0  0  0  0  0  0  0  0  0  0
   -9.5909   21.3324  -30.8814 H   0  0  0  0  0  0  0  0  0  0  0  0
   -8.9586   22.1298  -32.3616 H   0  0  0  0  0  0  0  0  0  0  0  0
  -10.6055   21.4124  -32.3616 H   0  0  0  0  0  0  0  0  0  0  0  0
   -7.0945   21.8086  -32.2087 H   0  0  0  0  0  0  0  0  0  0  0  0
   -3.9310   21.5569  -34.1221 H   0  0  0  0  0  0  0  0  0  0  0  0
   -3.2797   22.9511  -33.1806 H   0  0  0  0  0  0  0  0  0  0  0  0
   -1.8275   21.2353  -31.9279 H   0  0  0  0  0  0  0  0  0  0  0  0
   -2.3135   20.0668  -33.2359 H   0  0  0  0  0  0  0  0  0  0  0  0
   -1.4950   22.2730  -34.5650 H   0  0  0  0  0  0  0  0  0  0  0  0
    0.1631   19.9295  -33.7898 H   0  0  0  0  0  0  0  0  0  0  0  0
   -1.0745   19.9386  -35.0983 H   0  0  0  0  0  0  0  0  0  0  0  0
   -6.4654   23.0375  -31.1611 H   0  0  0  0  0  0  0  0  0  0  0  0
   -6.4999   24.4708  -29.1210 H   0  0  0  0  0  0  0  0  0  0  0  0
   -3.3746   25.5216  -25.7778 H   0  0  0  0  0  0  0  0  0  0  0  0
   -1.6932   24.1384  -24.0923 H   0  0  0  0  0  0  0  0  0  0  0  0
    0.8340   24.3770  -23.5050 H   0  0  0  0  0  0  0  0  0  0  0  0
    2.9880   24.6929  -24.5971 H   0  0  0  0  0  0  0  0  0  0  0  0
    3.0788   23.7984  -26.1522 H   0  0  0  0  0  0  0  0  0  0  0  0
    2.8149   25.5752  -26.1522 H   0  0  0  0  0  0  0  0  0  0  0  0
    0.6395   24.4445  -27.7039 H   0  0  0  0  0  0  0  0  0  0  0  0
   -2.3579   21.9269  -30.3236 H   0  0  0  0  0  0  0  0  0  0  0  0
   -3.8547   18.9383  -32.2097 H   0  0  0  0  0  0  0  0  0  0  0  0
  1  2  1  0
  2  3  1  0
  3  4  2  0
  4  5  1  0
  5  6  1  0
  6  7  1  0
  5  8  2  0
  8  9  1  0
  9 10  1  0
 10 11  1  0
 11 12  1  0
 12 13  1  0
 13 14  1  0
 14 15  1  0
 15 16  1  0
 15 17  1  0
 15 18  1  0
 10 19  1  0
 19 20  2  0
 20 21  1  0
 21 22  2  0
 22 23  1  0
 23 24  2  0
 24 25  1  0
 25 26  1  0
 26 27  1  0
 27 28  2  0
 28 29  1  0
 29 30  1  0
 29 31  1  0
 25 32  2  0
 32 33  1  0
 33 34  2  0
  9 35  2  0
 35  3  1  0
 34 19  1  0
 33 22  1  0
 31 26  2  0
  1 36  1  0
  1 37  1  0
  1 38  1  0
  4 39  1  0
  7 40  1  0
  7 41  1  0
  7 42  1  0
  8 43  1  0
 11 44  1  0
 11 45  1  0
 12 46  1  0
 12 47  1  0
 13 48  1  0
 14 49  1  0
 14 50  1  0
 20 51  1  0
 21 52  1  0
 24 53  1  0
 27 54  1  0
 28 55  1  0
 30 56  1  0
 30 57  1  0
 30 58  1  0
 31 59  1  0
 34 60  1  0
 35 61  1  0
M  CHG  1  28   1
M  END
>  <UniqueID>  (29) 
29

>  <SMILES>  (29) 
COc1cc(OC)cc(N(CCNCC(F)(F)F)c2ccc3ncc(-c4c[nH+]n(C)c4)nc3c2)c1

>  <Energy>  (29) 
101.56800463911173

>  <Genealogy>  (29) 
COc1cc(OC)cc(N(CCNCC(F)(F)F)c2ccc3ncc(-c4c[nH+]n(C)c4)nc3c2)c1 (protonated)
COc1cc(OC)cc(N(CCNCC(F)(F)F)c2ccc3ncc(-c4c[nH+]n(C)c4)nc3c2)c1 (3D coordinates assigned)
COc1cc(OC)cc(N(CCNCC(F)(F)F)c2ccc3ncc(-c4c[nH+]n(C)c4)nc3c2)c1 (optimized conformer: 101.56800463911173 kcal/mol)

>  <smiles>  (29) 
COc1cc(OC)cc(N(CCNCC(F)(F)F)c2ccc3ncc(-c4cnn(C)c4)nc3c2)c1

>  <score_type>  (29) 
oracle

>  <origin>  (29) 
adg

>  <m_score__min__energy>  (29) 
-8.2400000000000002

>  <m_primary>  (29) 
energy

$$$$
29:0
     RDKit          3D

 64 67  0  0  0  0  0  0  0  0999 V2000
   -4.0760   21.1950  -31.5750 C   0  0  0  0  0  0  0  0  0  0  0  0
   -3.7590   22.2090  -30.4960 C   0  0  0  0  0  0  0  0  0  0  0  0
   -2.5590   22.2090  -29.8360 C   0  0  0  0  0  0  0  0  0  0  0  0
   -1.5780   21.0650  -30.0350 C   0  0  0  0  0  0  0  0  0  0  0  0
   -0.4300   20.8240  -28.9860 C   0  0  2  0  0  0  0  0  0  0  0  0
   -0.3580   19.2820  -28.5780 C   0  0  0  0  0  0  0  0  0  0  0  0
   -0.2370   18.3830  -29.8460 C   0  0  0  0  0  0  0  0  0  0  0  0
    0.9030   18.9410  -27.7370 C   0  0  0  0  0  0  0  0  0  0  0  0
   -1.6210   18.8790  -27.7570 C   0  0  0  0  0  0  0  0  0  0  0  0
   -2.3640   20.0690  -27.1210 C   0  0  0  0  0  0  0  0  0  0  0  0
   -1.4360   21.2060  -26.6450 C   0  0  0  0  0  0  0  0  0  0  0  0
   -0.4610   21.8170  -27.7360 C   0  0  1  0  0  0  0  0  0  0  0  0
    1.0070   21.9090  -27.1430 C   0  0  0  0  0  0  0  0  0  0  0  0
   -0.8780   23.3140  -28.1860 C   0  0  2  0  0  0  0  0  0  0  0  0
    0.1600   23.8060  -29.2640 C   0  0  0  0  0  0  0  0  0  0  0  0
   -0.8650   24.4060  -27.0550 C   0  0  0  0  0  0  0  0  0  0  0  0
   -0.9090   25.7770  -27.4170 C   0  0  0  0  0  0  0  0  0  0  0  0
   -0.9270   26.7920  -26.4590 C   0  0  0  0  0  0  0  0  0  0  0  0
   -0.9100   26.4850  -25.0930 C   0  0  0  0  0  0  0  0  0  0  0  0
   -0.9290   27.5290  -24.1030 N   0  0  0  0  0  0  0  0  0  0  0  0
   -0.8220   27.2580  -22.8890 O   0  0  0  0  0  0  0  0  0  0  0  0
   -1.0670   28.8460  -24.4790 O   0  0  0  0  0  0  0  0  0  0  0  0
   -0.8790   25.1400  -24.7090 C   0  0  0  0  0  0  0  0  0  0  0  0
   -0.8630   24.1210  -25.6650 C   0  0  0  0  0  0  0  0  0  0  0  0
   -2.2910   23.3440  -28.8810 C   0  0  2  0  0  0  0  0  0  0  0  0
   -3.5380   23.4950  -27.9740 C   0  0  0  0  0  0  0  0  0  0  0  0
   -4.7270   23.9670  -28.8210 C   0  0  0  0  0  0  0  0  0  0  0  0
   -4.8340   23.2590  -30.2040 C   0  0  1  0  0  0  0  0  0  0  0  0
   -4.8740   24.2050  -31.2420 O   0  0  0  0  0  0  0  0  0  0  0  0
   -4.3733   20.2441  -31.1086 H   0  0  0  0  0  0  0  0  0  0  0  0
   -4.8997   21.5701  -32.2001 H   0  0  0  0  0  0  0  0  0  0  0  0
   -3.1853   21.0341  -32.2001 H   0  0  0  0  0  0  0  0  0  0  0  0
   -2.1720   20.1400  -30.0744 H   0  0  0  0  0  0  0  0  0  0  0  0
   -1.0329   21.3537  -30.9458 H   0  0  0  0  0  0  0  0  0  0  0  0
    0.5159   21.0803  -29.4856 H   0  0  0  0  0  0  0  0  0  0  0  0
   -0.0960   17.3356  -29.5408 H   0  0  0  0  0  0  0  0  0  0  0  0
   -1.1549   18.4697  -30.4459 H   0  0  0  0  0  0  0  0  0  0  0  0
    0.6253   18.7093  -30.4459 H   0  0  0  0  0  0  0  0  0  0  0  0
    0.6587   19.0071  -26.6665 H   0  0  0  0  0  0  0  0  0  0  0  0
    1.2371   17.9202  -27.9745 H   0  0  0  0  0  0  0  0  0  0  0  0
    1.7060   19.6542  -27.9745 H   0  0  0  0  0  0  0  0  0  0  0  0
   -2.3175   18.3562  -28.4290 H   0  0  0  0  0  0  0  0  0  0  0  0
   -1.2719   18.2441  -26.9293 H   0  0  0  0  0  0  0  0  0  0  0  0
   -3.0606   20.4802  -27.8664 H   0  0  0  0  0  0  0  0  0  0  0  0
   -2.8782   19.6830  -26.2285 H   0  0  0  0  0  0  0  0  0  0  0  0
   -2.0706   22.0214  -26.2677 H   0  0  0  0  0  0  0  0  0  0  0  0
   -0.7814   20.7533  -25.8857 H   0  0  0  0  0  0  0  0  0  0  0  0
    0.9594   21.9060  -26.0440 H   0  0  0  0  0  0  0  0  0  0  0  0
    1.5961   21.0460  -27.4868 H   0  0  0  0  0  0  0  0  0  0  0  0
    1.4837   22.8388  -27.4868 H   0  0  0  0  0  0  0  0  0  0  0  0
    1.0429   24.2245  -28.7587 H   0  0  0  0  0  0  0  0  0  0  0  0
    0.4656   22.9569  -29.8930 H   0  0  0  0  0  0  0  0  0  0  0  0
   -0.3037   24.5801  -29.8930 H   0  0  0  0  0  0  0  0  0  0  0  0
   -0.9295   26.0478  -28.4829 H   0  0  0  0  0  0  0  0  0  0  0  0
   -0.9548   27.8436  -26.7804 H   0  0  0  0  0  0  0  0  0  0  0  0
   -0.8671   24.8812  -23.6400 H   0  0  0  0  0  0  0  0  0  0  0  0
   -0.8485   23.0727  -25.3320 H   0  0  0  0  0  0  0  0  0  0  0  0
   -2.1713   24.2887  -29.4316 H   0  0  0  0  0  0  0  0  0  0  0  0
   -3.7770   22.5251  -27.5134 H   0  0  0  0  0  0  0  0  0  0  0  0
   -3.3322   24.2327  -27.1844 H   0  0  0  0  0  0  0  0  0  0  0  0
   -5.6523   23.7719  -28.2590 H   0  0  0  0  0  0  0  0  0  0  0  0
   -4.5733   25.0378  -29.0203 H   0  0  0  0  0  0  0  0  0  0  0  0
   -5.7781   22.6969  -30.1512 H   0  0  0  0  0  0  0  0  0  0  0  0
   -5.5950   23.9290  -31.8670 H   0  0  0  0  0  0  0  0  0  0  0  0
  1  2  1  0
  2  3  2  0
  3  4  1  0
  4  5  1  0
  5  6  1  0
  6  7  1  0
  6  8  1  0
  6  9  1  0
  9 10  1  0
 10 11  1  0
 11 12  1  0
 12 13  1  1
 12 14  1  0
 14 15  1  6
 14 16  1  0
 16 17  2  0
 17 18  1  0
 18 19  2  0
 19 20  1  0
 20 21  2  0
 20 22  1  0
 19 23  1  0
 23 24  2  0
 14 25  1  0
 25 26  1  0
 26 27  1  0
 27 28  1  0
 28 29  1  0
 28  2  1  0
 25  3  1  0
 12  5  1  0
 24 16  1  0
  1 30  1  0
  1 31  1  0
  1 32  1  0
  4 33  1  0
  4 34  1  0
  5 35  1  6
  7 36  1  0
  7 37  1  0
  7 38  1  0
  8 39  1  0
  8 40  1  0
  8 41  1  0
  9 42  1  0
  9 43  1  0
 10 44  1  0
 10 45  1  0
 11 46  1  0
 11 47  1  0
 13 48  1  0
 13 49  1  0
 13 50  1  0
 15 51  1  0
 15 52  1  0
 15 53  1  0
 17 54  1  0
 18 55  1  0
 23 56  1  0
 24 57  1  0
 25 58  1  6
 26 59  1  0
 26 60  1  0
 27 61  1  0
 27 62  1  0
 28 63  1  1
 29 64  1  0
M  CHG  2  20   1  22  -1
M  END
>  <UniqueID>  (30) 
30

>  <SMILES>  (30) 
CC1=C2C[C@@H]3C(C)(C)CCC[C@]3(C)C(C)(c3ccc([N+](=O)[O-])cc3)C2CCC1O

>  <Energy>  (30) 
133.74115287360826

>  <Genealogy>  (30) 
CC1=C2C[C@@H]3C(C)(C)CCC[C@]3(C)C(C)(c3ccc([N+](=O)[O-])cc3)C2CCC1O (chirality)
CC1=C2C[C@@H]3C(C)(C)CCC[C@]3(C)C(C)(c3ccc([N+](=O)[O-])cc3)C2CCC1O (3D coordinates assigned)
CC1=C2C[C@@H]3C(C)(C)CCC[C@]3(C)C(C)(c3ccc([N+](=O)[O-])cc3)C2CCC1O (nonaromatic ring conformer: 133.74115287360826 kcal/mol)

>  <smiles>  (30) 
CC1=C2CC3C(C)(C)CCCC3(C)C(C)(c3ccc([N+](=O)[O-])cc3)C2CCC1O

>  <score_type>  (30) 
oracle

>  <origin>  (30) 
adg

>  <m_score__min__energy>  (30) 
-8.1899999999999995

>  <m_primary>  (30) 
energy

$$$$
30:0
     RDKit          3D

 48 51  0  0  0  0  0  0  0  0999 V2000
   -4.4290   22.1380  -33.0840 F   0  0  0  0  0  0  0  0  0  0  0  0
   -3.5790   21.0940  -33.2550 C   0  0  0  0  0  0  0  0  0  0  0  0
   -2.2140   21.3570  -33.4090 C   0  0  0  0  0  0  0  0  0  0  0  0
   -1.3040   20.3040  -33.5300 C   0  0  0  0  0  0  0  0  0  0  0  0
   -1.7550   18.9840  -33.4900 C   0  0  0  0  0  0  0  0  0  0  0  0
   -3.1170   18.7130  -33.3360 C   0  0  0  0  0  0  0  0  0  0  0  0
   -4.0460   19.7640  -33.2270 C   0  0  0  0  0  0  0  0  0  0  0  0
   -5.4850   19.4600  -33.0660 C   0  0  0  0  0  0  0  0  0  0  0  0
   -6.4630   20.3920  -32.9900 N   0  0  0  0  0  0  0  0  0  0  0  0
   -7.6990   19.8490  -32.8160 C   0  0  0  0  0  0  0  0  0  0  0  0
   -8.9420   20.6930  -32.6660 C   0  0  0  0  0  0  0  0  0  0  0  0
   -8.7790   21.8210  -31.7220 N   0  0  0  0  0  0  0  0  0  0  0  0
   -8.1170   21.4340  -30.4530 C   0  0  0  0  0  0  0  0  0  0  0  0
   -7.6410   22.6650  -29.6750 C   0  0  0  0  0  0  0  0  0  0  0  0
   -6.5470   23.4530  -30.4660 C   0  0  0  0  0  0  0  0  0  0  0  0
   -5.1450   22.8830  -30.1210 C   0  0  0  0  0  0  0  0  0  0  0  0
   -4.0080   23.7320  -30.7410 C   0  0  0  0  0  0  0  0  0  0  0  0
   -4.4320   25.0110  -31.1800 O   0  0  0  0  0  0  0  0  0  0  0  0
   -5.2110   25.6410  -30.1840 C   0  0  0  0  0  0  0  0  0  0  0  0
   -6.5790   24.9470  -30.0250 C   0  0  0  0  0  0  0  0  0  0  0  0
   -6.7970   23.3330  -32.0080 C   0  0  0  0  0  0  0  0  0  0  0  0
   -8.2740   23.0710  -32.3400 C   0  0  0  0  0  0  0  0  0  0  0  0
   -7.7210   18.4550  -32.7840 C   0  0  0  0  0  0  0  0  0  0  0  0
   -6.1390   17.9120  -32.9540 S   0  0  0  0  0  0  0  0  0  0  0  0
   -1.8557   22.3967  -33.4349 H   0  0  0  0  0  0  0  0  0  0  0  0
   -0.2320   20.5153  -33.6568 H   0  0  0  0  0  0  0  0  0  0  0  0
   -1.0370   18.1555  -33.5799 H   0  0  0  0  0  0  0  0  0  0  0  0
   -3.4655   17.6703  -33.2997 H   0  0  0  0  0  0  0  0  0  0  0  0
   -6.2950   21.4170  -33.0910 H   0  0  0  0  0  0  0  0  0  0  0  0
   -9.2075   21.1003  -33.6527 H   0  0  0  0  0  0  0  0  0  0  0  0
   -9.7287   20.0410  -32.2585 H   0  0  0  0  0  0  0  0  0  0  0  0
   -8.8314   20.8725  -29.8330 H   0  0  0  0  0  0  0  0  0  0  0  0
   -7.2400   20.8152  -30.6938 H   0  0  0  0  0  0  0  0  0  0  0  0
   -8.4997   23.3284  -29.4949 H   0  0  0  0  0  0  0  0  0  0  0  0
   -7.2033   22.3255  -28.7246 H   0  0  0  0  0  0  0  0  0  0  0  0
   -5.0248   22.8719  -29.0276 H   0  0  0  0  0  0  0  0  0  0  0  0
   -5.0780   21.8672  -30.5377 H   0  0  0  0  0  0  0  0  0  0  0  0
   -3.2217   23.8669  -29.9837 H   0  0  0  0  0  0  0  0  0  0  0  0
   -3.6457   23.1897  -31.6268 H   0  0  0  0  0  0  0  0  0  0  0  0
   -4.6726   25.5968  -29.2258 H   0  0  0  0  0  0  0  0  0  0  0  0
   -5.3826   26.6852  -30.4842 H   0  0  0  0  0  0  0  0  0  0  0  0
   -6.8783   24.9960  -28.9676 H   0  0  0  0  0  0  0  0  0  0  0  0
   -7.2962   25.4710  -30.6740 H   0  0  0  0  0  0  0  0  0  0  0  0
   -6.4869   24.2715  -32.4908 H   0  0  0  0  0  0  0  0  0  0  0  0
   -6.2118   22.4784  -32.3785 H   0  0  0  0  0  0  0  0  0  0  0  0
   -8.8744   23.9154  -31.9705 H   0  0  0  0  0  0  0  0  0  0  0  0
   -8.3586   22.9636  -33.4315 H   0  0  0  0  0  0  0  0  0  0  0  0
   -8.6141   17.8234  -32.6682 H   0  0  0  0  0  0  0  0  0  0  0  0
  1  2  1  0
  2  3  2  0
  3  4  1  0
  4  5  2  0
  5  6  1  0
  6  7  2  0
  7  8  1  0
  8  9  2  0
  9 10  1  0
 10 11  1  0
 11 12  1  0
 12 13  1  0
 13 14  1  0
 14 15  1  0
 15 16  1  0
 16 17  1  0
 17 18  1  0
 18 19  1  0
 19 20  1  0
 15 21  1  0
 21 22  1  0
 10 23  2  0
 23 24  1  0
  7  2  1  0
 24  8  1  0
 22 12  1  0
 20 15  1  0
  3 25  1  0
  4 26  1  0
  5 27  1  0
  6 28  1  0
  9 29  1  0
 11 30  1  0
 11 31  1  0
 13 32  1  0
 13 33  1  0
 14 34  1  0
 14 35  1  0
 16 36  1  0
 16 37  1  0
 17 38  1  0
 17 39  1  0
 19 40  1  0
 19 41  1  0
 20 42  1  0
 20 43  1  0
 21 44  1  0
 21 45  1  0
 22 46  1  0
 22 47  1  0
 23 48  1  0
M  CHG  1   9   1
M  END
>  <UniqueID>  (31) 
31

>  <SMILES>  (31) 
Fc1ccccc1-c1[nH+]c(CN2CCC3(CCOCC3)CC2)cs1

>  <Energy>  (31) 
102.13679132735358

>  <Genealogy>  (31) 
Fc1ccccc1-c1[nH+]c(CN2CCC3(CCOCC3)CC2)cs1 (protonated)
Fc1ccccc1-c1[nH+]c(CN2CCC3(CCOCC3)CC2)cs1 (3D coordinates assigned)
Fc1ccccc1-c1[nH+]c(CN2CCC3(CCOCC3)CC2)cs1 (nonaromatic ring conformer: 102.13679132735358 kcal/mol)

>  <smiles>  (31) 
Fc1ccccc1-c1nc(CN2CCC3(CCOCC3)CC2)cs1

>  <score_type>  (31) 
oracle

>  <origin>  (31) 
adg

>  <m_score__min__energy>  (31) 
-8.7899999999999991

>  <m_primary>  (31) 
energy

$$$$
31:0
     RDKit          3D

 31 32  0  0  0  0  0  0  0  0999 V2000
   -5.7790   25.1930  -29.6850 C   0  0  0  0  0  0  0  0  0  0  0  0
   -4.5060   24.8790  -30.1670 C   0  0  0  0  0  0  0  0  0  0  0  0
   -4.3660   24.0040  -31.1980 N   0  0  0  0  0  0  0  0  0  0  0  0
   -5.4390   23.4120  -31.7860 C   0  0  0  0  0  0  0  0  0  0  0  0
   -6.7370   23.6940  -31.3310 C   0  0  0  0  0  0  0  0  0  0  0  0
   -7.9400   23.0640  -31.9830 C   0  0  0  0  0  0  0  0  0  0  0  0
   -7.8740   21.6020  -31.8740 N   0  0  0  0  0  0  0  0  0  0  0  0
   -9.2120   20.9980  -31.9550 C   0  0  0  0  0  0  0  0  0  0  0  0
   -9.1080   19.4710  -31.9690 C   0  0  0  0  0  0  0  0  0  0  0  0
   -7.6920   18.9930  -31.6310 C   0  0  0  0  0  0  0  0  0  0  0  0
   -6.9630   18.6800  -32.8540 N   0  0  0  0  0  0  0  0  0  0  0  0
   -6.7550   17.4620  -33.3800 C   0  0  0  0  0  0  0  0  0  0  0  0
   -5.9820   17.5340  -34.4800 N   0  0  0  0  0  0  0  0  0  0  0  0
   -5.7360   18.8590  -34.5770 C   0  0  0  0  0  0  0  0  0  0  0  0
   -6.3200   19.5660  -33.5900 N   0  0  0  0  0  0  0  0  0  0  0  0
   -6.8980   24.5970  -30.2710 C   0  0  0  0  0  0  0  0  0  0  0  0
   -5.8988   25.9022  -28.8527 H   0  0  0  0  0  0  0  0  0  0  0  0
   -3.6167   25.3398  -29.7122 H   0  0  0  0  0  0  0  0  0  0  0  0
   -5.2901   22.7105  -32.6201 H   0  0  0  0  0  0  0  0  0  0  0  0
   -8.8523   23.4238  -31.4848 H   0  0  0  0  0  0  0  0  0  0  0  0
   -7.9557   23.3421  -33.0471 H   0  0  0  0  0  0  0  0  0  0  0  0
   -7.3150   21.2480  -32.6860 H   0  0  0  0  0  0  0  0  0  0  0  0
   -9.8052   21.3129  -31.0838 H   0  0  0  0  0  0  0  0  0  0  0  0
   -9.6983   21.3311  -32.8837 H   0  0  0  0  0  0  0  0  0  0  0  0
   -9.8089   19.0598  -31.2276 H   0  0  0  0  0  0  0  0  0  0  0  0
   -9.3536   19.1213  -32.9826 H   0  0  0  0  0  0  0  0  0  0  0  0
   -7.1612   19.7862  -31.0841 H   0  0  0  0  0  0  0  0  0  0  0  0
   -7.7567   18.0880  -31.0091 H   0  0  0  0  0  0  0  0  0  0  0  0
   -7.1628   16.5279  -32.9663 H   0  0  0  0  0  0  0  0  0  0  0  0
   -5.1264   19.3105  -35.3736 H   0  0  0  0  0  0  0  0  0  0  0  0
   -7.9058   24.8363  -29.9007 H   0  0  0  0  0  0  0  0  0  0  0  0
  1  2  2  0
  2  3  1  0
  3  4  2  0
  4  5  1  0
  5  6  1  0
  6  7  1  0
  7  8  1  0
  8  9  1  0
  9 10  1  0
 10 11  1  0
 11 12  1  0
 12 13  2  0
 13 14  1  0
 14 15  2  0
  5 16  2  0
 16  1  1  0
 15 11  1  0
  1 17  1  0
  2 18  1  0
  4 19  1  0
  6 20  1  0
  6 21  1  0
  7 22  1  0
  8 23  1  0
  8 24  1  0
  9 25  1  0
  9 26  1  0
 10 27  1  0
 10 28  1  0
 12 29  1  0
 14 30  1  0
 16 31  1  0
M  END
>  <UniqueID>  (32) 
32

>  <SMILES>  (32) 
c1cncc(CNCCCn2cncn2)c1

>  <Energy>  (32) 
57.90352581464687

>  <Genealogy>  (32) 
c1cncc(CNCCCn2cncn2)c1 (3D coordinates assigned)
c1cncc(CNCCCn2cncn2)c1 (optimized conformer: 57.90352581464687 kcal/mol)

>  <smiles>  (32) 
c1cncc(CNCCCn2cncn2)c1

>  <score_type>  (32) 
oracle

>  <origin>  (32) 
adg

>  <m_score__min__energy>  (32) 
-6.21

>  <m_primary>  (32) 
energy

$$$$
32:0
     RDKit          3D

 30 31  0  0  0  0  0  0  0  0999 V2000
   -8.4230   19.3160  -32.7220 C   0  0  0  0  0  0  0  0  0  0  0  0
   -7.2790   20.0320  -33.1750 O   0  0  0  0  0  0  0  0  0  0  0  0
   -6.7650   21.1790  -32.5510 C   0  0  0  0  0  0  0  0  0  0  0  0
   -5.4050   21.5320  -32.6220 C   0  0  0  0  0  0  0  0  0  0  0  0
   -4.9420   22.6850  -31.9800 C   0  0  0  0  0  0  0  0  0  0  0  0
   -5.8270   23.4940  -31.2570 C   0  0  0  0  0  0  0  0  0  0  0  0
   -5.2340   24.9370  -30.4410 S   0  0  0  0  0  0  0  0  0  0  0  0
   -5.7160   26.1490  -31.1850 O   0  0  0  0  0  0  0  0  0  0  0  0
   -5.7460   24.9940  -29.0270 O   0  0  0  0  0  0  0  0  0  0  0  0
   -3.5010   24.9390  -30.4140 N   0  0  0  0  0  0  0  0  0  0  0  0
   -2.6860   24.2430  -29.4600 C   0  0  0  0  0  0  0  0  0  0  0  0
   -2.9850   22.9330  -29.0380 C   0  0  0  0  0  0  0  0  0  0  0  0
   -2.1610   22.2870  -28.1120 C   0  0  0  0  0  0  0  0  0  0  0  0
   -1.0370   22.9370  -27.5970 C   0  0  0  0  0  0  0  0  0  0  0  0
   -0.7350   24.2380  -28.0080 C   0  0  0  0  0  0  0  0  0  0  0  0
   -1.5540   24.8900  -28.9360 C   0  0  0  0  0  0  0  0  0  0  0  0
   -1.2400   26.1840  -29.3380 O   0  0  0  0  0  0  0  0  0  0  0  0
   -7.1820   23.1470  -31.1890 C   0  0  0  0  0  0  0  0  0  0  0  0
   -7.6460   21.9960  -31.8320 C   0  0  0  0  0  0  0  0  0  0  0  0
   -8.4379   19.3067  -31.6221 H   0  0  0  0  0  0  0  0  0  0  0  0
   -9.3340   19.8054  -33.0969 H   0  0  0  0  0  0  0  0  0  0  0  0
   -8.3810   18.2827  -33.0969 H   0  0  0  0  0  0  0  0  0  0  0  0
   -4.7032   20.8988  -33.1846 H   0  0  0  0  0  0  0  0  0  0  0  0
   -3.8782   22.9574  -32.0433 H   0  0  0  0  0  0  0  0  0  0  0  0
   -3.8698   22.4166  -29.4384 H   0  0  0  0  0  0  0  0  0  0  0  0
   -2.3985   21.2631  -27.7877 H   0  0  0  0  0  0  0  0  0  0  0  0
   -0.3904   22.4254  -26.8688 H   0  0  0  0  0  0  0  0  0  0  0  0
    0.1489   24.7507  -27.6008 H   0  0  0  0  0  0  0  0  0  0  0  0
   -7.8832   23.7821  -30.6279 H   0  0  0  0  0  0  0  0  0  0  0  0
   -8.7117   21.7299  -31.7727 H   0  0  0  0  0  0  0  0  0  0  0  0
  1  2  1  0
  2  3  1  0
  3  4  2  0
  4  5  1  0
  5  6  2  0
  6  7  1  0
  7  8  2  0
  7  9  2  0
  7 10  1  0
 10 11  1  0
 11 12  2  0
 12 13  1  0
 13 14  2  0
 14 15  1  0
 15 16  2  0
 16 17  1  0
  6 18  1  0
 18 19  2  0
 19  3  1  0
 16 11  1  0
  1 20  1  0
  1 21  1  0
  1 22  1  0
  4 23  1  0
  5 24  1  0
 12 25  1  0
 13 26  1  0
 14 27  1  0
 15 28  1  0
 18 29  1  0
 19 30  1  0
M  CHG  2  10  -1  17  -1
M  END
>  <UniqueID>  (33) 
33

>  <SMILES>  (33) 
COc1ccc(S(=O)(=O)[N-]c2ccccc2[O-])cc1

>  <Energy>  (33) 
33.36415723421792

>  <Genealogy>  (33) 
COc1ccc(S(=O)(=O)[N-]c2ccccc2[O-])cc1 (protonated)
COc1ccc(S(=O)(=O)[N-]c2ccccc2[O-])cc1 (3D coordinates assigned)
COc1ccc(S(=O)(=O)[N-]c2ccccc2[O-])cc1 (optimized conformer: 33.36415723421792 kcal/mol)

>  <smiles>  (33) 
COc1ccc(S(=O)(=O)Nc2ccccc2O)cc1

>  <score_type>  (33) 
oracle

>  <origin>  (33) 
adg

>  <m_score__min__energy>  (33) 
-11.69

>  <m_primary>  (33) 
energy

$$$$
33:0
     RDKit          3D

 54 58  0  0  0  0  0  0  0  0999 V2000
   -3.0790   21.1940  -27.5940 C   0  0  0  0  0  0  0  0  0  0  0  0
   -2.5710   22.5450  -28.0020 C   0  0  0  0  0  0  0  0  0  0  0  0
   -1.4500   23.0970  -27.3660 C   0  0  0  0  0  0  0  0  0  0  0  0
   -1.0060   24.3750  -27.7120 C   0  0  0  0  0  0  0  0  0  0  0  0
   -1.6750   25.1150  -28.6900 C   0  0  0  0  0  0  0  0  0  0  0  0
   -1.2560   26.3760  -28.9630 F   0  0  0  0  0  0  0  0  0  0  0  0
   -2.7960   24.5660  -29.3430 C   0  0  0  0  0  0  0  0  0  0  0  0
   -3.5210   25.2960  -30.3430 N   0  0  0  0  0  0  0  0  0  0  0  0
   -4.8890   25.0840  -30.7150 C   0  0  0  0  0  0  0  0  0  0  0  0
   -5.7090   26.0290  -30.5710 O   0  0  0  0  0  0  0  0  0  0  0  0
   -5.3750   23.7810  -31.2070 C   0  0  0  0  0  0  0  0  0  0  0  0
   -4.5960   22.6980  -31.6030 C   0  0  0  0  0  0  0  0  0  0  0  0
   -5.4390   21.7160  -31.9610 N   0  0  0  0  0  0  0  0  0  0  0  0
   -5.1720   20.4680  -32.4210 C   0  0  0  0  0  0  0  0  0  0  0  0
   -6.2570   19.6180  -32.7260 C   0  0  0  0  0  0  0  0  0  0  0  0
   -6.0220   18.2440  -33.2380 C   0  0  0  0  0  0  0  0  0  0  0  0
   -4.7340   17.8330  -33.6170 C   0  0  0  0  0  0  0  0  0  0  0  0
   -4.5120   16.5400  -34.0960 C   0  0  0  0  0  0  0  0  0  0  0  0
   -5.5740   15.6220  -34.2070 C   0  0  0  0  0  0  0  0  0  0  0  0
   -5.3440   14.2800  -34.7000 N   0  0  0  0  0  0  0  0  0  0  0  0
   -4.0510   13.7900  -35.1540 C   0  0  0  0  0  0  0  0  0  0  0  0
   -4.2370   12.3020  -35.4140 C   0  0  0  0  0  0  0  0  0  0  0  0
   -5.7410   12.0860  -35.5250 C   0  0  0  0  0  0  0  0  0  0  0  0
   -6.3820   13.2630  -34.8010 C   0  0  0  0  0  0  0  0  0  0  0  0
   -6.8640   16.0370  -33.8260 C   0  0  0  0  0  0  0  0  0  0  0  0
   -7.0850   17.3320  -33.3480 C   0  0  0  0  0  0  0  0  0  0  0  0
   -7.5750   20.1070  -32.5360 C   0  0  0  0  0  0  0  0  0  0  0  0
   -7.7950   21.4060  -32.0550 C   0  0  0  0  0  0  0  0  0  0  0  0
   -6.6810   22.1900  -31.7750 C   0  0  0  0  0  0  0  0  0  0  0  0
   -6.6850   23.4520  -31.3090 N   0  0  0  0  0  0  0  0  0  0  0  0
   -3.2540   23.2950  -28.9720 C   0  0  0  0  0  0  0  0  0  0  0  0
   -3.1039   21.1278  -26.4963 H   0  0  0  0  0  0  0  0  0  0  0  0
   -4.0935   21.0478  -27.9933 H   0  0  0  0  0  0  0  0  0  0  0  0
   -2.4122   20.4156  -27.9933 H   0  0  0  0  0  0  0  0  0  0  0  0
   -0.9191   22.5222  -26.5928 H   0  0  0  0  0  0  0  0  0  0  0  0
   -0.1242   24.8016  -27.2115 H   0  0  0  0  0  0  0  0  0  0  0  0
   -3.4970   22.6546  -31.6196 H   0  0  0  0  0  0  0  0  0  0  0  0
   -4.1347   20.1265  -32.5532 H   0  0  0  0  0  0  0  0  0  0  0  0
   -3.8919   18.5360  -33.5359 H   0  0  0  0  0  0  0  0  0  0  0  0
   -3.4966   16.2355  -34.3897 H   0  0  0  0  0  0  0  0  0  0  0  0
   -3.7495   14.3052  -36.0780 H   0  0  0  0  0  0  0  0  0  0  0  0
   -3.2643   13.9744  -34.4076 H   0  0  0  0  0  0  0  0  0  0  0  0
   -3.7379   12.0112  -36.3502 H   0  0  0  0  0  0  0  0  0  0  0  0
   -3.7982   11.6922  -34.6105 H   0  0  0  0  0  0  0  0  0  0  0  0
   -6.0493   12.0714  -36.5808 H   0  0  0  0  0  0  0  0  0  0  0  0
   -6.0462   11.1247  -35.0859 H   0  0  0  0  0  0  0  0  0  0  0  0
   -7.2385   13.6456  -35.3755 H   0  0  0  0  0  0  0  0  0  0  0  0
   -6.7606   12.9713  -33.8103 H   0  0  0  0  0  0  0  0  0  0  0  0
   -7.7071   15.3349  -33.9052 H   0  0  0  0  0  0  0  0  0  0  0  0
   -8.0998   17.6395  -33.0555 H   0  0  0  0  0  0  0  0  0  0  0  0
   -8.4339   19.4603  -32.7685 H   0  0  0  0  0  0  0  0  0  0  0  0
   -8.8141   21.7916  -31.9043 H   0  0  0  0  0  0  0  0  0  0  0  0
   -7.5140   24.0450  -31.0840 H   0  0  0  0  0  0  0  0  0  0  0  0
   -4.1568   22.8813  -29.4451 H   0  0  0  0  0  0  0  0  0  0  0  0
  1  2  1  0
  2  3  2  0
  3  4  1  0
  4  5  2  0
  5  6  1  0
  5  7  1  0
  7  8  1  0
  8  9  1  0
  9 10  2  0
  9 11  1  0
 11 12  2  0
 12 13  1  0
 13 14  1  0
 14 15  2  0
 15 16  1  0
 16 17  2  0
 17 18  1  0
 18 19  2  0
 19 20  1  0
 20 21  1  0
 21 22  1  0
 22 23  1  0
 23 24  1  0
 19 25  1  0
 25 26  2  0
 15 27  1  0
 27 28  2  0
 28 29  1  0
 29 30  2  0
  7 31  2  0
 31  2  1  0
 30 11  1  0
 29 13  1  0
 26 16  1  0
 24 20  1  0
  1 32  1  0
  1 33  1  0
  1 34  1  0
  3 35  1  0
  4 36  1  0
 12 37  1  0
 14 38  1  0
 17 39  1  0
 18 40  1  0
 21 41  1  0
 21 42  1  0
 22 43  1  0
 22 44  1  0
 23 45  1  0
 23 46  1  0
 24 47  1  0
 24 48  1  0
 25 49  1  0
 26 50  1  0
 27 51  1  0
 28 52  1  0
 30 53  1  0
 31 54  1  0
M  CHG  2   8  -1  30   1
M  END
>  <UniqueID>  (34) 
34

>  <SMILES>  (34) 
Cc1ccc(F)c([N-]C(=O)c2cn3cc(-c4ccc(N5CCCC5)cc4)ccc3[nH+]2)c1

>  <Energy>  (34) 
106.85213131113285

>  <Genealogy>  (34) 
Cc1ccc(F)c([N-]C(=O)c2cn3cc(-c4ccc(N5CCCC5)cc4)ccc3[nH+]2)c1 (protonated)
Cc1ccc(F)c([N-]C(=O)c2cn3cc(-c4ccc(N5CCCC5)cc4)ccc3[nH+]2)c1 (3D coordinates assigned)
Cc1ccc(F)c([N-]C(=O)c2cn3cc(-c4ccc(N5CCCC5)cc4)ccc3[nH+]2)c1 (nonaromatic ring conformer: 106.85213131113285 kcal/mol)

>  <smiles>  (34) 
Cc1ccc(F)c(NC(=O)c2cn3cc(-c4ccc(N5CCCC5)cc4)ccc3n2)c1

>  <score_type>  (34) 
oracle

>  <origin>  (34) 
adg

>  <m_score__min__energy>  (34) 
-10.42

>  <m_primary>  (34) 
energy

$$$$
34:0
     RDKit          3D

 34 35  0  0  0  0  0  0  0  0999 V2000
   -8.3800   18.2180  -31.6140 C   0  0  0  0  0  0  0  0  0  0  0  0
   -7.0890   18.3740  -32.3620 C   0  0  0  0  0  0  0  0  0  0  0  0
   -6.8650   17.6510  -33.5430 C   0  0  0  0  0  0  0  0  0  0  0  0
   -5.6730   17.8170  -34.2540 C   0  0  0  0  0  0  0  0  0  0  0  0
   -4.7060   18.7180  -33.8010 C   0  0  0  0  0  0  0  0  0  0  0  0
   -4.9300   19.4720  -32.6390 C   0  0  0  0  0  0  0  0  0  0  0  0
   -3.8800   20.4210  -32.1380 C   0  0  0  0  0  0  0  0  0  0  0  0
   -3.8570   21.9100  -33.1870 S   0  0  0  0  0  0  0  0  0  0  0  0
   -5.2190   22.6810  -32.3160 C   0  0  0  0  0  0  0  0  0  0  0  0
   -4.9900   23.7800  -31.5530 N   0  0  0  0  0  0  0  0  0  0  0  0
   -6.0000   24.3890  -30.8800 C   0  0  0  0  0  0  0  0  0  0  0  0
   -5.7220   25.6110  -30.0640 C   0  0  0  0  0  0  0  0  0  0  0  0
   -7.3000   23.8850  -30.9780 C   0  0  0  0  0  0  0  0  0  0  0  0
   -7.5200   22.7430  -31.7570 C   0  0  0  0  0  0  0  0  0  0  0  0
   -8.9070   22.1950  -31.9130 C   0  0  0  0  0  0  0  0  0  0  0  0
   -6.4770   22.1710  -32.4230 N   0  0  0  0  0  0  0  0  0  0  0  0
   -6.1230   19.2910  -31.9190 C   0  0  0  0  0  0  0  0  0  0  0  0
   -8.1822   18.2419  -30.5322 H   0  0  0  0  0  0  0  0  0  0  0  0
   -9.0600   19.0405  -31.8807 H   0  0  0  0  0  0  0  0  0  0  0  0
   -8.8445   17.2572  -31.8807 H   0  0  0  0  0  0  0  0  0  0  0  0
   -7.6298   16.9512  -33.9108 H   0  0  0  0  0  0  0  0  0  0  0  0
   -5.4960   17.2372  -35.1719 H   0  0  0  0  0  0  0  0  0  0  0  0
   -3.7648   18.8368  -34.3578 H   0  0  0  0  0  0  0  0  0  0  0  0
   -4.1089   20.7067  -31.1007 H   0  0  0  0  0  0  0  0  0  0  0  0
   -2.8957   19.9314  -32.1747 H   0  0  0  0  0  0  0  0  0  0  0  0
   -5.7794   25.3588  -28.9948 H   0  0  0  0  0  0  0  0  0  0  0  0
   -4.7153   25.9873  -30.2985 H   0  0  0  0  0  0  0  0  0  0  0  0
   -6.4668   26.3857  -30.2985 H   0  0  0  0  0  0  0  0  0  0  0  0
   -8.1332   24.3758  -30.4537 H   0  0  0  0  0  0  0  0  0  0  0  0
   -9.3465   22.0214  -30.9197 H   0  0  0  0  0  0  0  0  0  0  0  0
   -9.5260   22.9161  -32.4669 H   0  0  0  0  0  0  0  0  0  0  0  0
   -8.8660   21.2455  -32.4669 H   0  0  0  0  0  0  0  0  0  0  0  0
   -6.6380   21.3300  -33.0220 H   0  0  0  0  0  0  0  0  0  0  0  0
   -6.3011   19.8718  -31.0020 H   0  0  0  0  0  0  0  0  0  0  0  0
  1  2  1  0
  2  3  2  0
  3  4  1  0
  4  5  2  0
  5  6  1  0
  6  7  1  0
  7  8  1  0
  8  9  1  0
  9 10  2  0
 10 11  1  0
 11 12  1  0
 11 13  2  0
 13 14  1  0
 14 15  1  0
 14 16  2  0
  6 17  2  0
 17  2  1  0
 16  9  1  0
  1 18  1  0
  1 19  1  0
  1 20  1  0
  3 21  1  0
  4 22  1  0
  5 23  1  0
  7 24  1  0
  7 25  1  0
 12 26  1  0
 12 27  1  0
 12 28  1  0
 13 29  1  0
 15 30  1  0
 15 31  1  0
 15 32  1  0
 16 33  1  0
 17 34  1  0
M  CHG  1  16   1
M  END
>  <UniqueID>  (35) 
35

>  <SMILES>  (35) 
Cc1cccc(CSc2nc(C)cc(C)[nH+]2)c1

>  <Energy>  (35) 
26.611018834847286

>  <Genealogy>  (35) 
Cc1cccc(CSc2nc(C)cc(C)[nH+]2)c1 (protonated)
Cc1cccc(CSc2nc(C)cc(C)[nH+]2)c1 (3D coordinates assigned)
Cc1cccc(CSc2nc(C)cc(C)[nH+]2)c1 (optimized conformer: 26.611018834847286 kcal/mol)

>  <smiles>  (35) 
Cc1cccc(CSc2nc(C)cc(C)n2)c1

>  <score_type>  (35) 
oracle

>  <origin>  (35) 
adg

>  <m_score__min__energy>  (35) 
-6.7599999999999998

>  <m_primary>  (35) 
energy

$$$$
35:0
     RDKit          3D

 44 45  0  0  0  0  0  0  0  0999 V2000
   -2.5220   24.5400  -28.5580 C   0  0  0  0  0  0  0  0  0  0  0  0
   -3.1490   25.0890  -29.7130 O   0  0  0  0  0  0  0  0  0  0  0  0
   -4.2830   24.5440  -30.3370 C   0  0  0  0  0  0  0  0  0  0  0  0
   -5.5620   25.1160  -30.1930 C   0  0  0  0  0  0  0  0  0  0  0  0
   -6.6660   24.5440  -30.8270 C   0  0  0  0  0  0  0  0  0  0  0  0
   -6.5170   23.3920  -31.6090 C   0  0  0  0  0  0  0  0  0  0  0  0
   -7.7100   22.7940  -32.3100 C   0  0  0  0  0  0  0  0  0  0  0  0
   -8.7370   22.2630  -31.3040 C   0  0  0  0  0  0  0  0  0  0  0  0
   -8.5140   20.8440  -31.0320 N   0  0  0  0  0  0  0  0  0  0  0  0
   -8.9240   19.8150  -31.9450 C   0  0  0  0  0  0  0  0  0  0  0  0
   -9.5070   20.1150  -33.0230 O   0  0  0  0  0  0  0  0  0  0  0  0
   -8.6870   18.3720  -31.6120 C   0  0  0  0  0  0  0  0  0  0  0  0
   -7.2020   18.0940  -31.3580 C   0  0  0  0  0  0  0  0  0  0  0  0
   -6.3910   18.4650  -32.5170 N   0  0  0  0  0  0  0  0  0  0  0  0
   -6.4400   17.9040  -33.7400 C   0  0  0  0  0  0  0  0  0  0  0  0
   -5.5650   18.5550  -34.5850 C   0  0  0  0  0  0  0  0  0  0  0  0
   -4.9660   19.5540  -33.8410 C   0  0  0  0  0  0  0  0  0  0  0  0
   -5.5000   19.4740  -32.5700 C   0  0  0  0  0  0  0  0  0  0  0  0
   -5.2420   22.8300  -31.7700 C   0  0  0  0  0  0  0  0  0  0  0  0
   -4.1220   23.3980  -31.1300 C   0  0  0  0  0  0  0  0  0  0  0  0
   -2.8350   22.8510  -31.2550 O   0  0  0  0  0  0  0  0  0  0  0  0
   -2.5450   21.5950  -31.8590 C   0  0  0  0  0  0  0  0  0  0  0  0
   -2.9933   24.9527  -27.6538 H   0  0  0  0  0  0  0  0  0  0  0  0
   -2.6359   23.4459  -28.5641 H   0  0  0  0  0  0  0  0  0  0  0  0
   -1.4526   24.7974  -28.5641 H   0  0  0  0  0  0  0  0  0  0  0  0
   -5.6915   26.0184  -29.5775 H   0  0  0  0  0  0  0  0  0  0  0  0
   -7.6598   25.0012  -30.7116 H   0  0  0  0  0  0  0  0  0  0  0  0
   -8.1845   23.5667  -32.9327 H   0  0  0  0  0  0  0  0  0  0  0  0
   -7.3639   21.9538  -32.9299 H   0  0  0  0  0  0  0  0  0  0  0  0
   -8.6470   22.8284  -30.3647 H   0  0  0  0  0  0  0  0  0  0  0  0
   -9.7434   22.3855  -31.7307 H   0  0  0  0  0  0  0  0  0  0  0  0
   -8.0010   20.5780  -30.1620 H   0  0  0  0  0  0  0  0  0  0  0  0
   -9.2591   18.1145  -30.7084 H   0  0  0  0  0  0  0  0  0  0  0  0
   -9.0124   17.7612  -32.4670 H   0  0  0  0  0  0  0  0  0  0  0  0
   -6.8712   18.6778  -30.4864 H   0  0  0  0  0  0  0  0  0  0  0  0
   -7.0749   17.0171  -31.1730 H   0  0  0  0  0  0  0  0  0  0  0  0
   -7.0804   17.0555  -34.0226 H   0  0  0  0  0  0  0  0  0  0  0  0
   -5.3801   18.3240  -35.6445 H   0  0  0  0  0  0  0  0  0  0  0  0
   -4.2111   20.2726  -34.1927 H   0  0  0  0  0  0  0  0  0  0  0  0
   -5.2379   20.1333  -31.7294 H   0  0  0  0  0  0  0  0  0  0  0  0
   -5.1151   21.9382  -32.4013 H   0  0  0  0  0  0  0  0  0  0  0  0
   -2.3713   20.8427  -31.0755 H   0  0  0  0  0  0  0  0  0  0  0  0
   -3.3949   21.2838  -32.4841 H   0  0  0  0  0  0  0  0  0  0  0  0
   -1.6447   21.6879  -32.4841 H   0  0  0  0  0  0  0  0  0  0  0  0
  1  2  1  0
  2  3  1  0
  3  4  2  0
  4  5  1  0
  5  6  2  0
  6  7  1  0
  7  8  1  0
  8  9  1  0
  9 10  1  0
 10 11  2  0
 10 12  1  0
 12 13  1  0
 13 14  1  0
 14 15  1  0
 15 16  2  0
 16 17  1  0
 17 18  2  0
  6 19  1  0
 19 20  2  0
 20 21  1  0
 21 22  1  0
 20  3  1  0
 18 14  1  0
  1 23  1  0
  1 24  1  0
  1 25  1  0
  4 26  1  0
  5 27  1  0
  7 28  1  0
  7 29  1  0
  8 30  1  0
  8 31  1  0
  9 32  1  0
 12 33  1  0
 12 34  1  0
 13 35  1  0
 13 36  1  0
 15 37  1  0
 16 38  1  0
 17 39  1  0
 18 40  1  0
 19 41  1  0
 22 42  1  0
 22 43  1  0
 22 44  1  0
M  END
>  <UniqueID>  (36) 
36

>  <SMILES>  (36) 
COc1ccc(CCNC(=O)CCn2cccc2)cc1OC

>  <Energy>  (36) 
56.726763980470224

>  <Genealogy>  (36) 
COc1ccc(CCNC(=O)CCn2cccc2)cc1OC (3D coordinates assigned)
COc1ccc(CCNC(=O)CCn2cccc2)cc1OC (optimized conformer: 56.726763980470224 kcal/mol)

>  <smiles>  (36) 
COc1ccc(CCNC(=O)CCn2cccc2)cc1OC

>  <score_type>  (36) 
oracle

>  <origin>  (36) 
adg

>  <m_score__min__energy>  (36) 
-7.4100000000000001

>  <m_primary>  (36) 
energy

$$$$
36:0
     RDKit          3D

 38 39  0  0  0  0  0  0  0  0999 V2000
   -1.5420   20.8440  -33.4580 C   0  0  0  0  0  0  0  0  0  0  0  0
   -1.8920   19.9850  -32.2490 C   0  0  0  0  0  0  0  0  0  0  0  0
   -3.3380   19.9460  -32.0450 N   0  0  0  0  0  0  0  0  0  0  0  0
   -4.1430   18.8310  -32.4500 C   0  0  0  0  0  0  0  0  0  0  0  0
   -3.6280   17.8680  -33.0830 O   0  0  0  0  0  0  0  0  0  0  0  0
   -5.5410   18.8080  -32.1300 N   0  0  0  0  0  0  0  0  0  0  0  0
   -6.1580   17.6490  -31.4960 C   0  0  0  0  0  0  0  0  0  0  0  0
   -7.6120   17.9170  -31.6240 C   0  0  0  0  0  0  0  0  0  0  0  0
   -7.8350   19.0560  -32.2680 C   0  0  0  0  0  0  0  0  0  0  0  0
   -6.5560   19.7370  -32.6600 C   0  0  2  0  0  0  0  0  0  0  0  0
   -6.4840   19.8050  -34.2190 C   0  0  0  0  0  0  0  0  0  0  0  0
   -6.0540   18.5030  -34.9110 C   0  0  0  0  0  0  0  0  0  0  0  0
   -6.5280   21.1100  -31.9750 C   0  0  0  0  0  0  0  0  0  0  0  0
   -7.5280   21.4970  -31.0570 C   0  0  0  0  0  0  0  0  0  0  0  0
   -7.5060   22.7650  -30.4690 C   0  0  0  0  0  0  0  0  0  0  0  0
   -6.5080   23.6810  -30.8100 C   0  0  0  0  0  0  0  0  0  0  0  0
   -6.4860   25.2710  -30.0710 Cl  0  0  0  0  0  0  0  0  0  0  0  0
   -5.5420   23.3330  -31.7540 C   0  0  0  0  0  0  0  0  0  0  0  0
   -5.5580   22.0670  -32.3430 C   0  0  0  0  0  0  0  0  0  0  0  0
   -1.1473   21.8127  -33.1176 H   0  0  0  0  0  0  0  0  0  0  0  0
   -0.7813   20.3308  -34.0646 H   0  0  0  0  0  0  0  0  0  0  0  0
   -2.4448   21.0086  -34.0646 H   0  0  0  0  0  0  0  0  0  0  0  0
   -1.5228   18.9620  -32.4137 H   0  0  0  0  0  0  0  0  0  0  0  0
   -1.4204   20.4216  -31.3563 H   0  0  0  0  0  0  0  0  0  0  0  0
   -3.7740   20.6900  -31.4530 H   0  0  0  0  0  0  0  0  0  0  0  0
   -5.8817   16.7214  -32.0187 H   0  0  0  0  0  0  0  0  0  0  0  0
   -5.8382   17.5105  -30.4527 H   0  0  0  0  0  0  0  0  0  0  0  0
   -8.4021   17.2575  -31.2357 H   0  0  0  0  0  0  0  0  0  0  0  0
   -8.8369   19.4532  -32.4881 H   0  0  0  0  0  0  0  0  0  0  0  0
   -7.4818   20.0764  -34.5943 H   0  0  0  0  0  0  0  0  0  0  0  0
   -5.7082   20.5477  -34.4567 H   0  0  0  0  0  0  0  0  0  0  0  0
   -5.8048   17.7485  -34.1503 H   0  0  0  0  0  0  0  0  0  0  0  0
   -6.8774   18.1324  -35.5391 H   0  0  0  0  0  0  0  0  0  0  0  0
   -5.1718   18.6957  -35.5391 H   0  0  0  0  0  0  0  0  0  0  0  0
   -8.3336   20.7929  -30.8015 H   0  0  0  0  0  0  0  0  0  0  0  0
   -8.2772   23.0424  -29.7353 H   0  0  0  0  0  0  0  0  0  0  0  0
   -4.7646   24.0585  -32.0356 H   0  0  0  0  0  0  0  0  0  0  0  0
   -4.8051   21.8123  -33.1034 H   0  0  0  0  0  0  0  0  0  0  0  0
  1  2  1  0
  2  3  1  0
  3  4  1  0
  4  5  2  0
  4  6  1  0
  6  7  1  0
  7  8  1  0
  8  9  2  0
  9 10  1  0
 10 11  1  6
 11 12  1  0
 10 13  1  0
 13 14  2  0
 14 15  1  0
 15 16  2  0
 16 17  1  0
 16 18  1  0
 18 19  2  0
 10  6  1  0
 19 13  1  0
  1 20  1  0
  1 21  1  0
  1 22  1  0
  2 23  1  0
  2 24  1  0
  3 25  1  0
  7 26  1  0
  7 27  1  0
  8 28  1  0
  9 29  1  0
 11 30  1  0
 11 31  1  0
 12 32  1  0
 12 33  1  0
 12 34  1  0
 14 35  1  0
 15 36  1  0
 18 37  1  0
 19 38  1  0
M  END
>  <UniqueID>  (37) 
37

>  <SMILES>  (37) 
CCNC(=O)N1CC=C[C@@]1(CC)c1ccc(Cl)cc1

>  <Energy>  (37) 
47.84981329633451

>  <Genealogy>  (37) 
CCNC(=O)N1CC=C[C@@]1(CC)c1ccc(Cl)cc1 (chirality)
CCNC(=O)N1CC=C[C@@]1(CC)c1ccc(Cl)cc1 (3D coordinates assigned)
CCNC(=O)N1CC=C[C@@]1(CC)c1ccc(Cl)cc1 (nonaromatic ring conformer: 47.84981329633451 kcal/mol)

>  <smiles>  (37) 
CCNC(=O)N1CC=CC1(CC)c1ccc(Cl)cc1

>  <score_type>  (37) 
oracle

>  <origin>  (37) 
adg

>  <m_score__min__energy>  (37) 
-6.5700000000000003

>  <m_primary>  (37) 
energy

$$$$
37:0
     RDKit          3D

 36 38  0  0  1  0  0  0  0  0999 V2000
   -2.7860   24.3520  -28.3110 C   0  0  0  0  0  0  0  0  0  0  0  0
   -2.8620   24.9260  -29.6080 O   0  0  0  0  0  0  0  0  0  0  0  0
   -3.8230   24.4170  -30.4700 C   0  0  0  0  0  0  0  0  0  0  0  0
   -4.9950   25.0520  -30.7170 N   0  0  0  0  0  0  0  0  0  0  0  0
   -5.9120   24.5310  -31.5610 C   0  0  0  0  0  0  0  0  0  0  0  0
   -5.7030   23.3530  -32.1970 N   0  0  0  0  0  0  0  0  0  0  0  0
   -4.5470   22.6770  -31.9850 C   0  0  0  0  0  0  0  0  0  0  0  0
   -4.3230   21.4670  -32.6330 C   0  0  0  0  0  0  0  0  0  0  0  0
   -5.1910   20.9640  -33.4380 N   0  0  0  0  0  0  0  0  0  0  0  0
   -5.9470   19.7910  -33.1520 C   0  0  0  0  0  0  0  0  0  0  0  0
   -5.3930   18.5870  -33.5510 C   0  0  0  0  0  0  0  0  0  0  0  0
   -6.0010   17.3760  -33.3450 C   0  0  0  0  0  0  0  0  0  0  0  0
   -7.2270   17.3880  -32.7050 C   0  0  0  0  0  0  0  0  0  0  0  0
   -7.7930   18.5940  -32.2990 C   0  0  0  0  0  0  0  0  0  0  0  0
   -9.1120   18.5570  -31.6140 C   0  0  0  0  0  0  0  0  0  0  0  0
   -7.1510   19.7810  -32.5240 C   0  0  0  0  0  0  0  0  0  0  0  0
   -7.7520   21.0500  -32.0950 C   0  0  0  0  0  0  0  0  0  0  0  0
   -3.1740   20.8100  -32.4120 N   0  0  0  0  0  0  0  0  0  0  0  0
   -2.2470   21.3240  -31.5670 C   0  0  0  0  0  0  0  0  0  0  0  0
   -2.4780   22.4920  -30.9490 N   0  0  0  0  0  0  0  0  0  0  0  0
   -3.6000   23.2160  -31.1120 C   0  0  0  0  0  0  0  0  0  0  0  0
   -2.8907   25.1426  -27.5534 H   0  0  0  0  0  0  0  0  0  0  0  0
   -3.5946   23.6165  -28.1876 H   0  0  0  0  0  0  0  0  0  0  0  0
   -1.8139   23.8523  -28.1876 H   0  0  0  0  0  0  0  0  0  0  0  0
   -6.8511   25.0763  -31.7362 H   0  0  0  0  0  0  0  0  0  0  0  0
   -4.4171   18.6028  -34.0582 H   0  0  0  0  0  0  0  0  0  0  0  0
   -5.5344   16.4359  -33.6742 H   0  0  0  0  0  0  0  0  0  0  0  0
   -7.7565   16.4425  -32.5161 H   0  0  0  0  0  0  0  0  0  0  0  0
   -8.9597   18.5613  -30.5246 H   0  0  0  0  0  0  0  0  0  0  0  0
   -9.7013   19.4390  -31.9053 H   0  0  0  0  0  0  0  0  0  0  0  0
   -9.6509   17.6434  -31.9053 H   0  0  0  0  0  0  0  0  0  0  0  0
   -7.7724   21.0930  -30.9960 H   0  0  0  0  0  0  0  0  0  0  0  0
   -7.1552   21.8883  -32.4838 H   0  0  0  0  0  0  0  0  0  0  0  0
   -8.7787   21.1194  -32.4838 H   0  0  0  0  0  0  0  0  0  0  0  0
   -2.9810   19.8870  -32.8940 H   0  0  0  0  0  0  0  0  0  0  0  0
   -1.3058   20.7836  -31.3881 H   0  0  0  0  0  0  0  0  0  0  0  0
  1  2  1  0
  2  3  1  0
  3  4  2  0
  4  5  1  0
  5  6  2  0
  6  7  1  0
  7  8  1  0
  8  9  2  0
  9 10  1  0
 10 11  2  0
 11 12  1  0
 12 13  2  0
 13 14  1  0
 14 15  1  0
 14 16  2  0
 16 17  1  0
  8 18  1  0
 18 19  1  0
 19 20  2  0
 20 21  1  0
 21  3  1  0
 21  7  2  0
 16 10  1  0
  1 22  1  0
  1 23  1  0
  1 24  1  0
  5 25  1  0
 11 26  1  0
 12 27  1  0
 13 28  1  0
 15 29  1  0
 15 30  1  0
 15 31  1  0
 17 32  1  0
 17 33  1  0
 17 34  1  0
 18 35  1  0
 19 36  1  0
M  END
>  <smiles>  (38) 
COc1ncnc2c(=Nc3cccc(C)c3C)[nH]cnc12

>  <score_type>  (38) 
oracle

>  <origin>  (38) 
adg

>  <m_score__min__energy>  (38) 
-7.7800000000000002

>  <m_primary>  (38) 
energy

$$$$
38:0
     RDKit          3D

 30 32  0  0  0  0  0  0  0  0999 V2000
   -4.7970   19.9230  -33.5120 C   0  0  0  0  0  0  0  0  0  0  0  0
   -5.3490   20.9460  -32.6150 N   0  0  0  0  0  0  0  0  0  0  0  0
   -4.4410   21.8530  -31.9470 C   0  0  0  0  0  0  0  0  0  0  0  0
   -3.1980   21.6400  -32.0170 O   0  0  0  0  0  0  0  0  0  0  0  0
   -4.9090   23.0250  -31.1530 C   0  0  0  0  0  0  0  0  0  0  0  0
   -4.1370   23.4560  -30.0580 C   0  0  0  0  0  0  0  0  0  0  0  0
   -4.5410   24.5480  -29.2860 C   0  0  0  0  0  0  0  0  0  0  0  0
   -5.7170   25.2270  -29.5980 C   0  0  0  0  0  0  0  0  0  0  0  0
   -6.4910   24.8240  -30.6870 C   0  0  0  0  0  0  0  0  0  0  0  0
   -6.0930   23.7330  -31.4830 C   0  0  0  0  0  0  0  0  0  0  0  0
   -6.9020   23.3380  -32.6070 N   0  0  0  0  0  0  0  0  0  0  0  0
   -7.5250   22.0790  -32.3000 C   0  0  0  0  0  0  0  0  0  0  0  0
   -8.8890   22.0220  -31.9620 C   0  0  0  0  0  0  0  0  0  0  0  0
   -9.4850   20.8010  -31.6390 C   0  0  0  0  0  0  0  0  0  0  0  0
   -8.7260   19.6300  -31.6410 C   0  0  0  0  0  0  0  0  0  0  0  0
   -7.3660   19.6770  -31.9610 C   0  0  0  0  0  0  0  0  0  0  0  0
   -6.7520   20.9000  -32.2840 C   0  0  0  0  0  0  0  0  0  0  0  0
   -4.3583   19.1099  -32.9149 H   0  0  0  0  0  0  0  0  0  0  0  0
   -5.6000   19.5198  -34.1465 H   0  0  0  0  0  0  0  0  0  0  0  0
   -4.0192   20.3728  -34.1465 H   0  0  0  0  0  0  0  0  0  0  0  0
   -3.2055   22.9273  -29.8073 H   0  0  0  0  0  0  0  0  0  0  0  0
   -3.9299   24.8722  -28.4307 H   0  0  0  0  0  0  0  0  0  0  0  0
   -6.0360   26.0826  -28.9846 H   0  0  0  0  0  0  0  0  0  0  0  0
   -7.4197   25.3631  -30.9255 H   0  0  0  0  0  0  0  0  0  0  0  0
   -7.6240   24.0640  -32.8260 H   0  0  0  0  0  0  0  0  0  0  0  0
   -6.3030   23.2450  -33.4590 H   0  0  0  0  0  0  0  0  0  0  0  0
   -9.4893   22.9437  -31.9520 H   0  0  0  0  0  0  0  0  0  0  0  0
  -10.5540   20.7623  -31.3827 H   0  0  0  0  0  0  0  0  0  0  0  0
   -9.1985   18.6687  -31.3905 H   0  0  0  0  0  0  0  0  0  0  0  0
   -6.7722   18.7510  -31.9601 H   0  0  0  0  0  0  0  0  0  0  0  0
  1  2  1  0
  2  3  1  0
  3  4  2  0
  3  5  1  0
  5  6  2  0
  6  7  1  0
  7  8  2  0
  8  9  1  0
  9 10  2  0
 10 11  1  0
 11 12  1  0
 12 13  2  0
 13 14  1  0
 14 15  2  0
 15 16  1  0
 16 17  2  0
 17  2  1  0
 10  5  1  0
 17 12  1  0
  1 18  1  0
  1 19  1  0
  1 20  1  0
  6 21  1  0
  7 22  1  0
  8 23  1  0
  9 24  1  0
 11 25  1  0
 11 26  1  0
 13 27  1  0
 14 28  1  0
 15 29  1  0
 16 30  1  0
M  CHG  1  11   1
M  END
>  <UniqueID>  (39) 
38

>  <SMILES>  (39) 
CN1C(=O)c2ccccc2[NH2+]c2ccccc21

>  <Energy>  (39) 
47.629027827604645

>  <Genealogy>  (39) 
CN1C(=O)c2ccccc2[NH2+]c2ccccc21 (protonated)
CN1C(=O)c2ccccc2[NH2+]c2ccccc21 (3D coordinates assigned)
CN1C(=O)c2ccccc2[NH2+]c2ccccc21 (nonaromatic ring conformer: 47.629027827604645 kcal/mol)

>  <smiles>  (39) 
CN1C(=O)c2ccccc2Nc2ccccc21

>  <score_type>  (39) 
oracle

>  <origin>  (39) 
adg

>  <m_score__min__energy>  (39) 
-6.6699999999999999

>  <m_primary>  (39) 
energy

$$$$
39:0
     RDKit          3D

 31 32  0  0  0  0  0  0  0  0999 V2000
   -6.4830   17.2240  -33.8470 C   0  0  0  0  0  0  0  0  0  0  0  0
   -6.9860   17.4340  -32.6250 C   0  0  0  0  0  0  0  0  0  0  0  0
   -8.0420   18.4920  -32.3650 C   0  0  0  0  0  0  0  0  0  0  0  0
   -7.5180   19.7660  -31.8000 N   0  0  1  0  0  0  0  0  0  0  0  0
   -6.5800   20.4480  -32.6730 C   0  0  0  0  0  0  0  0  0  0  0  0
   -6.2060   21.7070  -32.4150 C   0  0  0  0  0  0  0  0  0  0  0  0
   -6.8350   22.4570  -31.3080 C   0  0  0  0  0  0  0  0  0  0  0  0
   -6.2400   23.7430  -30.8760 C   0  0  0  0  0  0  0  0  0  0  0  0
   -6.8230   24.7140  -30.0760 C   0  0  0  0  0  0  0  0  0  0  0  0
   -5.8850   25.7150  -29.9570 C   0  0  0  0  0  0  0  0  0  0  0  0
   -4.7890   25.3030  -30.6860 C   0  0  0  0  0  0  0  0  0  0  0  0
   -5.0310   24.1280  -31.2190 O   0  0  0  0  0  0  0  0  0  0  0  0
   -7.9310   21.9450  -30.7200 C   0  0  0  0  0  0  0  0  0  0  0  0
   -8.5680   20.6830  -31.2640 C   0  0  1  0  0  0  0  0  0  0  0  0
   -9.6390   21.0740  -32.2960 C   0  0  0  0  0  0  0  0  0  0  0  0
   -5.7182   16.4486  -34.0012 H   0  0  0  0  0  0  0  0  0  0  0  0
   -6.8343   17.8268  -34.6974 H   0  0  0  0  0  0  0  0  0  0  0  0
   -6.6238   16.8225  -31.7854 H   0  0  0  0  0  0  0  0  0  0  0  0
   -8.5416   18.7194  -33.3182 H   0  0  0  0  0  0  0  0  0  0  0  0
   -8.7231   18.0732  -31.6096 H   0  0  0  0  0  0  0  0  0  0  0  0
   -6.9500   19.4810  -30.9650 H   0  0  0  0  0  0  0  0  0  0  0  0
   -6.1739   19.9267  -33.5524 H   0  0  0  0  0  0  0  0  0  0  0  0
   -5.4282   22.1848  -33.0288 H   0  0  0  0  0  0  0  0  0  0  0  0
   -7.8276   24.6896  -29.6287 H   0  0  0  0  0  0  0  0  0  0  0  0
   -5.9888   26.6542  -29.3939 H   0  0  0  0  0  0  0  0  0  0  0  0
   -3.8549   25.8720  -30.8029 H   0  0  0  0  0  0  0  0  0  0  0  0
   -8.3660   22.4442  -29.8416 H   0  0  0  0  0  0  0  0  0  0  0  0
   -9.0757   20.1203  -30.4667 H   0  0  0  0  0  0  0  0  0  0  0  0
  -10.5481   21.4059  -31.7732 H   0  0  0  0  0  0  0  0  0  0  0  0
   -9.2595   21.8916  -32.9265 H   0  0  0  0  0  0  0  0  0  0  0  0
   -9.8755   20.2042  -32.9265 H   0  0  0  0  0  0  0  0  0  0  0  0
  1  2  2  0
  2  3  1  0
  3  4  1  0
  4  5  1  0
  5  6  2  0
  6  7  1  0
  7  8  1  0
  8  9  2  0
  9 10  1  0
 10 11  2  0
 11 12  1  0
  7 13  2  0
 13 14  1  0
 14 15  1  0
 14  4  1  0
 12  8  1  0
  1 16  1  0
  1 17  1  0
  2 18  1  0
  3 19  1  0
  3 20  1  0
  4 21  1  1
  5 22  1  0
  6 23  1  0
  9 24  1  0
 10 25  1  0
 11 26  1  0
 13 27  1  0
 14 28  1  1
 15 29  1  0
 15 30  1  0
 15 31  1  0
M  CHG  1   4   1
M  END
>  <UniqueID>  (40) 
39

>  <SMILES>  (40) 
C=CC[N@H+]1C=CC(c2ccco2)=C[C@H]1C

>  <Energy>  (40) 
67.1730887075677

>  <Genealogy>  (40) 
C=CC[NH+]1C=CC(c2ccco2)=CC1C (protonated)
C=CC[N@H+]1C=CC(c2ccco2)=C[C@H]1C (chirality)
C=CC[N@H+]1C=CC(c2ccco2)=C[C@H]1C (3D coordinates assigned)
C=CC[N@H+]1C=CC(c2ccco2)=C[C@H]1C (nonaromatic ring conformer: 67.1730887075677 kcal/mol)

>  <smiles>  (40) 
C=CCN1C=CC(c2ccco2)=CC1C

>  <score_type>  (40) 
oracle

>  <origin>  (40) 
adg

>  <m_score__min__energy>  (40) 
-5.9500000000000002

>  <m_primary>  (40) 
energy

$$$$
40:0
     RDKit          3D

 64 67  0  0  1  0  0  0  0  0999 V2000
   -6.0720   25.2800  -30.3750 C   0  0  0  0  0  0  0  0  0  0  0  0
   -5.3320   24.2710  -31.1910 C   0  0  0  0  0  0  0  0  0  0  0  0
   -4.0430   23.8700  -30.5560 C   0  0  0  0  0  0  0  0  0  0  0  0
   -3.5700   24.5220  -29.4150 C   0  0  0  0  0  0  0  0  0  0  0  0
   -2.3900   24.1830  -28.8020 C   0  0  0  0  0  0  0  0  0  0  0  0
   -1.8600   24.7950  -27.6480 N   0  0  0  0  0  0  0  0  0  0  0  0
   -1.1590   26.0210  -27.6060 C   0  0  0  0  0  0  0  0  0  0  0  0
   -0.6510   26.5470  -26.2900 C   0  0  0  0  0  0  0  0  0  0  0  0
   -0.9170   26.7290  -28.6050 O   0  0  0  0  0  0  0  0  0  0  0  0
   -1.6700   23.1530  -29.3690 C   0  0  0  0  0  0  0  0  0  0  0  0
   -2.1310   22.5080  -30.4940 C   0  0  0  0  0  0  0  0  0  0  0  0
   -3.3140   22.8410  -31.1130 C   0  0  0  0  0  0  0  0  0  0  0  0
   -3.8300   22.2000  -32.2630 N   0  0  0  0  0  0  0  0  0  0  0  0
   -3.3970   21.1070  -32.7690 C   0  0  0  0  0  0  0  0  0  0  0  0
   -4.1960   20.0520  -32.9220 N   0  0  0  0  0  0  0  0  0  0  0  0
   -3.6830   18.9290  -33.4510 C   0  0  0  0  0  0  0  0  0  0  0  0
   -2.3480   18.9060  -33.8180 C   0  0  0  0  0  0  0  0  0  0  0  0
   -1.5150   20.0090  -33.6590 C   0  0  0  0  0  0  0  0  0  0  0  0
   -2.0790   21.1020  -33.1260 N   0  0  0  0  0  0  0  0  0  0  0  0
   -1.6590   17.7950  -34.3790 N   0  0  0  0  0  0  0  0  0  0  0  0
   -0.2210   17.8540  -34.3430 C   0  0  0  0  0  0  0  0  0  0  0  0
   -2.2520   16.6260  -34.9710 C   0  0  0  0  0  0  0  0  0  0  0  0
   -1.7450   16.2270  -36.0500 O   0  0  0  0  0  0  0  0  0  0  0  0
   -3.4040   15.8820  -34.3950 C   0  0  0  0  0  0  0  0  0  0  0  0
   -4.6830   16.6810  -34.3750 C   0  0  0  0  0  0  0  0  0  0  0  0
   -4.6530   17.8630  -33.5730 N   0  0  0  0  0  0  0  0  0  0  0  0
   -5.8160   18.0290  -32.7280 C   0  0  0  0  0  0  0  0  0  0  0  0
   -6.9210   18.7230  -33.4370 C   0  0  0  0  0  0  0  0  0  0  0  0
   -7.5120   19.8180  -32.6000 C   0  0  0  0  0  0  0  0  0  0  0  0
   -8.5280   19.6170  -31.7080 C   0  0  0  0  0  0  0  0  0  0  0  0
   -9.0010   20.6940  -30.9870 C   0  0  0  0  0  0  0  0  0  0  0  0
   -8.5080   21.9740  -31.1110 C   0  0  0  0  0  0  0  0  0  0  0  0
   -7.4840   22.1760  -32.0110 C   0  0  0  0  0  0  0  0  0  0  0  0
   -7.0130   21.1180  -32.7260 C   0  0  0  0  0  0  0  0  0  0  0  0
   -5.9186   25.0708  -29.3060 H   0  0  0  0  0  0  0  0  0  0  0  0
   -5.6969   26.2872  -30.6091 H   0  0  0  0  0  0  0  0  0  0  0  0
   -7.1454   25.2249  -30.6091 H   0  0  0  0  0  0  0  0  0  0  0  0
   -5.9630   23.3775  -31.3072 H   0  0  0  0  0  0  0  0  0  0  0  0
   -5.1016   24.7271  -32.1651 H   0  0  0  0  0  0  0  0  0  0  0  0
   -4.1683   25.3414  -28.9900 H   0  0  0  0  0  0  0  0  0  0  0  0
   -1.9870   24.3110  -26.7150 H   0  0  0  0  0  0  0  0  0  0  0  0
   -1.1570   26.0230  -25.4658 H   0  0  0  0  0  0  0  0  0  0  0  0
    0.4336   26.3772  -26.2214 H   0  0  0  0  0  0  0  0  0  0  0  0
   -0.8584   27.6251  -26.2214 H   0  0  0  0  0  0  0  0  0  0  0  0
   -0.7162   22.8432  -28.9171 H   0  0  0  0  0  0  0  0  0  0  0  0
   -1.5277   21.6910  -30.9166 H   0  0  0  0  0  0  0  0  0  0  0  0
   -0.4554   19.9855  -33.9535 H   0  0  0  0  0  0  0  0  0  0  0  0
   -1.4840   21.9350  -32.9960 H   0  0  0  0  0  0  0  0  0  0  0  0
    0.1193   17.8680  -33.2971 H   0  0  0  0  0  0  0  0  0  0  0  0
    0.1950   16.9722  -34.8522 H   0  0  0  0  0  0  0  0  0  0  0  0
    0.1214   18.7669  -34.8522 H   0  0  0  0  0  0  0  0  0  0  0  0
   -3.5687   14.9751  -34.9953 H   0  0  0  0  0  0  0  0  0  0  0  0
   -3.1504   15.6486  -33.3504 H   0  0  0  0  0  0  0  0  0  0  0  0
   -4.9144   16.9777  -35.4087 H   0  0  0  0  0  0  0  0  0  0  0  0
   -5.4430   16.0266  -33.9232 H   0  0  0  0  0  0  0  0  0  0  0  0
   -6.1669   17.0371  -32.4071 H   0  0  0  0  0  0  0  0  0  0  0  0
   -5.5249   18.6451  -31.8645 H   0  0  0  0  0  0  0  0  0  0  0  0
   -6.5300   19.1574  -34.3689 H   0  0  0  0  0  0  0  0  0  0  0  0
   -7.7106   17.9867  -33.6479 H   0  0  0  0  0  0  0  0  0  0  0  0
   -8.9604   18.6153  -31.5676 H   0  0  0  0  0  0  0  0  0  0  0  0
   -9.8188   20.5204  -30.2721 H   0  0  0  0  0  0  0  0  0  0  0  0
   -8.9159   22.8033  -30.5145 H   0  0  0  0  0  0  0  0  0  0  0  0
   -7.0532   23.1786  -32.1496 H   0  0  0  0  0  0  0  0  0  0  0  0
   -6.1962   21.2951  -33.4411 H   0  0  0  0  0  0  0  0  0  0  0  0
  1  2  1  0
  2  3  1  0
  3  4  2  0
  4  5  1  0
  5  6  1  0
  6  7  1  0
  7  8  1  0
  7  9  2  0
  5 10  2  0
 10 11  1  0
 11 12  2  0
 12 13  1  0
 13 14  2  0
 14 15  1  0
 15 16  2  0
 16 17  1  0
 17 18  2  0
 18 19  1  0
 17 20  1  0
 20 21  1  0
 20 22  1  0
 22 23  2  0
 22 24  1  0
 24 25  1  0
 25 26  1  0
 26 27  1  0
 27 28  1  0
 28 29  1  0
 29 30  2  0
 30 31  1  0
 31 32  2  0
 32 33  1  0
 33 34  2  0
 12  3  1  0
 19 14  1  0
 34 29  1  0
 26 16  1  0
  1 35  1  0
  1 36  1  0
  1 37  1  0
  2 38  1  0
  2 39  1  0
  4 40  1  0
  6 41  1  0
  8 42  1  0
  8 43  1  0
  8 44  1  0
 10 45  1  0
 11 46  1  0
 18 47  1  0
 19 48  1  0
 21 49  1  0
 21 50  1  0
 21 51  1  0
 24 52  1  0
 24 53  1  0
 25 54  1  0
 25 55  1  0
 27 56  1  0
 27 57  1  0
 28 58  1  0
 28 59  1  0
 30 60  1  0
 31 61  1  0
 32 62  1  0
 33 63  1  0
 34 64  1  0
M  END
>  <smiles>  (41) 
CCc1cc(NC(C)=O)ccc1N=c1nc2c(c[nH]1)N(C)C(=O)CCN2CCc1ccccc1

>  <score_type>  (41) 
oracle

>  <origin>  (41) 
adg

>  <m_score__min__energy>  (41) 
-7.8300000000000001

>  <m_primary>  (41) 
energy

$$$$
41:0
     RDKit          3D

 49 52  0  0  0  0  0  0  0  0999 V2000
   -0.1050   23.0760  -26.4490 C   0  0  0  0  0  0  0  0  0  0  0  0
   -1.2830   23.4550  -27.2950 C   0  0  0  0  0  0  0  0  0  0  0  0
   -1.2160   24.5660  -28.1520 C   0  0  0  0  0  0  0  0  0  0  0  0
   -2.3050   24.8970  -28.9630 C   0  0  0  0  0  0  0  0  0  0  0  0
   -3.4680   24.1160  -28.9350 C   0  0  0  0  0  0  0  0  0  0  0  0
   -4.8420   24.5080  -29.9670 S   0  0  0  0  0  0  0  0  0  0  0  0
   -4.3730   25.2300  -31.2010 O   0  0  0  0  0  0  0  0  0  0  0  0
   -5.7710   25.4110  -29.2050 O   0  0  0  0  0  0  0  0  0  0  0  0
   -5.6740   23.0390  -30.4140 N   0  0  0  0  0  0  0  0  0  0  0  0
   -5.9770   23.0110  -31.8660 C   0  0  0  0  0  0  0  0  0  0  0  0
   -7.4380   23.3920  -32.1720 C   0  0  0  0  0  0  0  0  0  0  0  0
   -8.4160   22.5230  -31.4590 N   0  0  0  0  0  0  0  0  0  0  0  0
   -9.0810   21.5290  -32.3420 C   0  0  0  0  0  0  0  0  0  0  0  0
   -8.2970   20.2480  -32.5540 C   0  0  0  0  0  0  0  0  0  0  0  0
   -8.6990   19.0500  -31.9050 C   0  0  0  0  0  0  0  0  0  0  0  0
   -7.9840   17.8550  -32.0950 C   0  0  0  0  0  0  0  0  0  0  0  0
   -6.8890   17.8830  -32.9520 C   0  0  0  0  0  0  0  0  0  0  0  0
   -6.5150   19.0130  -33.6000 C   0  0  0  0  0  0  0  0  0  0  0  0
   -7.1960   20.2160  -33.4410 C   0  0  0  0  0  0  0  0  0  0  0  0
   -5.4150   18.7470  -34.3920 O   0  0  0  0  0  0  0  0  0  0  0  0
   -5.0730   17.3630  -34.2240 C   0  0  0  0  0  0  0  0  0  0  0  0
   -6.0420   16.8490  -33.2990 O   0  0  0  0  0  0  0  0  0  0  0  0
   -7.8730   21.9130  -30.2190 C   0  0  0  0  0  0  0  0  0  0  0  0
   -6.8570   22.8450  -29.5500 C   0  0  0  0  0  0  0  0  0  0  0  0
   -3.5290   22.9950  -28.0980 C   0  0  0  0  0  0  0  0  0  0  0  0
   -2.4410   22.6630  -27.2850 C   0  0  0  0  0  0  0  0  0  0  0  0
   -0.3740   23.1626  -25.3859 H   0  0  0  0  0  0  0  0  0  0  0  0
    0.1867   22.0387  -26.6701 H   0  0  0  0  0  0  0  0  0  0  0  0
    0.7368   23.7486  -26.6701 H   0  0  0  0  0  0  0  0  0  0  0  0
   -0.3026   25.1780  -28.1849 H   0  0  0  0  0  0  0  0  0  0  0  0
   -2.2489   25.7734  -29.6254 H   0  0  0  0  0  0  0  0  0  0  0  0
   -5.3124   23.7220  -32.3787 H   0  0  0  0  0  0  0  0  0  0  0  0
   -5.8192   21.9816  -32.2202 H   0  0  0  0  0  0  0  0  0  0  0  0
   -7.6025   24.4350  -31.8635 H   0  0  0  0  0  0  0  0  0  0  0  0
   -7.5986   23.2594  -33.2521 H   0  0  0  0  0  0  0  0  0  0  0  0
   -9.1870   23.1630  -31.1450 H   0  0  0  0  0  0  0  0  0  0  0  0
  -10.0511   21.2673  -31.8943 H   0  0  0  0  0  0  0  0  0  0  0  0
   -9.1754   22.0037  -33.3298 H   0  0  0  0  0  0  0  0  0  0  0  0
   -9.5799   19.0577  -31.2463 H   0  0  0  0  0  0  0  0  0  0  0  0
   -8.2807   16.9279  -31.5827 H   0  0  0  0  0  0  0  0  0  0  0  0
   -6.8864   21.1174  -33.9902 H   0  0  0  0  0  0  0  0  0  0  0  0
   -5.1352   16.8303  -35.1844 H   0  0  0  0  0  0  0  0  0  0  0  0
   -4.0439   17.2339  -33.8575 H   0  0  0  0  0  0  0  0  0  0  0  0
   -8.7004   21.7211  -29.5200 H   0  0  0  0  0  0  0  0  0  0  0  0
   -7.3666   20.9728  -30.4827 H   0  0  0  0  0  0  0  0  0  0  0  0
   -7.3307   23.8200  -29.3630 H   0  0  0  0  0  0  0  0  0  0  0  0
   -6.5311   22.3896  -28.6032 H   0  0  0  0  0  0  0  0  0  0  0  0
   -4.4363   22.3733  -28.0801 H   0  0  0  0  0  0  0  0  0  0  0  0
   -2.4932   21.7772  -26.6349 H   0  0  0  0  0  0  0  0  0  0  0  0
  1  2  1  0
  2  3  2  0
  3  4  1  0
  4  5  2  0
  5  6  1  0
  6  7  2  0
  6  8  2  0
  6  9  1  0
  9 10  1  0
 10 11  1  0
 11 12  1  0
 12 13  1  0
 13 14  1  0
 14 15  2  0
 15 16  1  0
 16 17  2  0
 17 18  1  0
 18 19  2  0
 18 20  1  0
 20 21  1  0
 21 22  1  0
 12 23  1  0
 23 24  1  0
  5 25  1  0
 25 26  2  0
 26  2  1  0
 24  9  1  0
 19 14  1  0
 22 17  1  0
  1 27  1  0
  1 28  1  0
  1 29  1  0
  3 30  1  0
  4 31  1  0
 10 32  1  0
 10 33  1  0
 11 34  1  0
 11 35  1  0
 12 36  1  0
 13 37  1  0
 13 38  1  0
 15 39  1  0
 16 40  1  0
 19 41  1  0
 21 42  1  0
 21 43  1  0
 23 44  1  0
 23 45  1  0
 24 46  1  0
 24 47  1  0
 25 48  1  0
 26 49  1  0
M  CHG  1  12   1
M  END
>  <UniqueID>  (42) 
40

>  <SMILES>  (42) 
Cc1ccc(S(=O)(=O)N2CC[NH+](Cc3ccc4c(c3)OCO4)CC2)cc1

>  <Energy>  (42) 
93.24920709373437

>  <Genealogy>  (42) 
Cc1ccc(S(=O)(=O)N2CC[NH+](Cc3ccc4c(c3)OCO4)CC2)cc1 (protonated)
Cc1ccc(S(=O)(=O)N2CC[NH+](Cc3ccc4c(c3)OCO4)CC2)cc1 (3D coordinates assigned)
Cc1ccc(S(=O)(=O)N2CC[NH+](Cc3ccc4c(c3)OCO4)CC2)cc1 (nonaromatic ring conformer: 93.24920709373437 kcal/mol)

>  <smiles>  (42) 
Cc1ccc(S(=O)(=O)N2CCN(Cc3ccc4c(c3)OCO4)CC2)cc1

>  <score_type>  (42) 
oracle

>  <origin>  (42) 
adg

>  <m_score__min__energy>  (42) 
-8.4900000000000002

>  <m_primary>  (42) 
energy

$$$$
42:0
     RDKit          3D

 35 38  0  0  0  0  0  0  0  0999 V2000
   -2.7680   25.2940  -29.2720 O   0  0  0  0  0  0  0  0  0  0  0  0
   -3.3870   24.3510  -29.8340 C   0  0  0  0  0  0  0  0  0  0  0  0
   -2.6970   23.3220  -30.4950 C   0  0  0  0  0  0  0  0  0  0  0  0
   -3.4420   22.2850  -31.1180 C   0  0  0  0  0  0  0  0  0  0  0  0
   -2.7660   21.1840  -31.8320 C   0  0  0  0  0  0  0  0  0  0  0  0
   -3.1050   20.7100  -33.0960 C   0  0  0  0  0  0  0  0  0  0  0  0
   -2.2940   19.6540  -33.5320 C   0  0  0  0  0  0  0  0  0  0  0  0
   -1.3130   19.2910  -32.6190 C   0  0  0  0  0  0  0  0  0  0  0  0
   -1.4580   20.2820  -31.2690 S   0  0  0  0  0  0  0  0  0  0  0  0
   -4.8110   22.3030  -31.0620 N   0  0  0  0  0  0  0  0  0  0  0  0
   -5.4230   23.3160  -30.4060 C   0  0  0  0  0  0  0  0  0  0  0  0
   -6.7590   23.5730  -30.2240 C   0  0  0  0  0  0  0  0  0  0  0  0
   -8.1480   22.6090  -30.8190 S   0  0  0  0  0  0  0  0  0  0  0  0
   -7.3340   22.1150  -32.3780 C   0  0  0  0  0  0  0  0  0  0  0  0
   -7.2780   20.6170  -32.5060 C   0  0  0  0  0  0  0  0  0  0  0  0
   -8.1980   19.8140  -31.8120 C   0  0  0  0  0  0  0  0  0  0  0  0
   -8.1660   18.4240  -31.9520 C   0  0  0  0  0  0  0  0  0  0  0  0
   -7.2190   17.8260  -32.7870 C   0  0  0  0  0  0  0  0  0  0  0  0
   -6.3030   18.6170  -33.4860 C   0  0  0  0  0  0  0  0  0  0  0  0
   -6.3310   20.0080  -33.3490 C   0  0  0  0  0  0  0  0  0  0  0  0
   -6.8550   24.7260  -29.5160 N   0  0  0  0  0  0  0  0  0  0  0  0
   -5.6100   25.1380  -29.2880 N   0  0  0  0  0  0  0  0  0  0  0  0
   -4.7400   24.2970  -29.8210 N   0  0  0  0  0  0  0  0  0  0  0  0
   -1.5976   23.3189  -30.5299 H   0  0  0  0  0  0  0  0  0  0  0  0
   -3.9297   21.1243  -33.6946 H   0  0  0  0  0  0  0  0  0  0  0  0
   -2.4224   19.1591  -34.5060 H   0  0  0  0  0  0  0  0  0  0  0  0
   -0.5690   18.4924  -32.7556 H   0  0  0  0  0  0  0  0  0  0  0  0
   -7.9004   22.5275  -33.2259 H   0  0  0  0  0  0  0  0  0  0  0  0
   -6.3055   22.5051  -32.3752 H   0  0  0  0  0  0  0  0  0  0  0  0
   -8.9468   20.2813  -31.1555 H   0  0  0  0  0  0  0  0  0  0  0  0
   -8.8873   17.7999  -31.4041 H   0  0  0  0  0  0  0  0  0  0  0  0
   -7.1943   16.7315  -32.8944 H   0  0  0  0  0  0  0  0  0  0  0  0
   -5.5593   18.1446  -34.1446 H   0  0  0  0  0  0  0  0  0  0  0  0
   -5.6102   20.6281  -33.9022 H   0  0  0  0  0  0  0  0  0  0  0  0
   -5.3630   26.0080  -28.7650 H   0  0  0  0  0  0  0  0  0  0  0  0
  1  2  2  0
  2  3  1  0
  3  4  2  0
  4  5  1  0
  5  6  2  0
  6  7  1  0
  7  8  2  0
  8  9  1  0
  4 10  1  0
 10 11  1  0
 11 12  2  0
 12 13  1  0
 13 14  1  0
 14 15  1  0
 15 16  2  0
 16 17  1  0
 17 18  2  0
 18 19  1  0
 19 20  2  0
 12 21  1  0
 21 22  2  0
 22 23  1  0
 23  2  1  0
  9  5  1  0
 23 11  1  0
 20 15  1  0
  3 24  1  0
  6 25  1  0
  7 26  1  0
  8 27  1  0
 14 28  1  0
 14 29  1  0
 16 30  1  0
 17 31  1  0
 18 32  1  0
 19 33  1  0
 20 34  1  0
 22 35  1  0
M  CHG  2  10  -1  22   1
M  END
>  <UniqueID>  (43) 
41

>  <SMILES>  (43) 
O=c1cc(-c2cccs2)[n-]c2c(SCc3ccccc3)n[nH+]n12

>  <Energy>  (43) 
106.81461951660705

>  <Genealogy>  (43) 
O=c1cc(-c2cccs2)[n-]c2c(SCc3ccccc3)n[nH+]n12 (protonated)
O=c1cc(-c2cccs2)[n-]c2c(SCc3ccccc3)n[nH+]n12 (3D coordinates assigned)
O=c1cc(-c2cccs2)[n-]c2c(SCc3ccccc3)n[nH+]n12 (optimized conformer: 106.81461951660705 kcal/mol)

>  <smiles>  (43) 
O=c1cc(-c2cccs2)[nH]c2c(SCc3ccccc3)nnn12

>  <score_type>  (43) 
oracle

>  <origin>  (43) 
adg

>  <m_score__min__energy>  (43) 
-9.3499999999999996

>  <m_primary>  (43) 
energy

$$$$
43:0
     RDKit          3D

 37 39  0  0  0  0  0  0  0  0999 V2000
   -6.7390   15.8850  -33.8760 C   0  0  0  0  0  0  0  0  0  0  0  0
   -7.1940   17.0200  -33.1470 O   0  0  0  0  0  0  0  0  0  0  0  0
   -6.5280   18.2540  -33.1170 C   0  0  0  0  0  0  0  0  0  0  0  0
   -5.2380   18.4470  -33.6620 C   0  0  0  0  0  0  0  0  0  0  0  0
   -4.6380   19.7200  -33.6420 C   0  0  0  0  0  0  0  0  0  0  0  0
   -5.2990   20.8140  -33.0630 C   0  0  0  0  0  0  0  0  0  0  0  0
   -6.5510   20.6010  -32.4710 C   0  0  0  0  0  0  0  0  0  0  0  0
   -7.1520   19.3590  -32.5330 C   0  0  0  0  0  0  0  0  0  0  0  0
   -8.4920   19.5050  -31.9890 C   0  0  0  0  0  0  0  0  0  0  0  0
   -9.3550   18.5930  -31.8930 O   0  0  0  0  0  0  0  0  0  0  0  0
   -8.7030   20.8210  -31.6010 O   0  0  0  0  0  0  0  0  0  0  0  0
   -7.5230   21.5250  -31.8490 C   0  0  0  0  0  0  0  0  0  0  0  0
   -7.3870   22.8190  -31.5260 C   0  0  0  0  0  0  0  0  0  0  0  0
   -6.1550   23.4230  -30.9940 C   0  0  0  0  0  0  0  0  0  0  0  0
   -5.1320   22.6190  -30.4690 C   0  0  0  0  0  0  0  0  0  0  0  0
   -3.9820   23.2040  -29.9310 C   0  0  0  0  0  0  0  0  0  0  0  0
   -3.8470   24.6030  -29.9060 C   0  0  0  0  0  0  0  0  0  0  0  0
   -2.6900   25.2360  -29.3410 N   0  0  0  0  0  0  0  0  0  0  0  0
   -1.6780   24.6080  -28.5430 C   0  0  0  0  0  0  0  0  0  0  0  0
   -1.9940   23.9310  -27.2450 C   0  0  0  0  0  0  0  0  0  0  0  0
   -0.4920   24.5940  -28.9640 O   0  0  0  0  0  0  0  0  0  0  0  0
   -4.8980   25.4020  -30.3680 C   0  0  0  0  0  0  0  0  0  0  0  0
   -6.0470   24.8170  -30.9090 C   0  0  0  0  0  0  0  0  0  0  0  0
   -6.4242   15.0997  -33.1730 H   0  0  0  0  0  0  0  0  0  0  0  0
   -7.5543   15.5049  -34.5092 H   0  0  0  0  0  0  0  0  0  0  0  0
   -5.8870   16.1733  -34.5092 H   0  0  0  0  0  0  0  0  0  0  0  0
   -4.6993   17.5963  -34.1048 H   0  0  0  0  0  0  0  0  0  0  0  0
   -3.6407   19.8587  -34.0848 H   0  0  0  0  0  0  0  0  0  0  0  0
   -4.8447   21.8158  -33.0736 H   0  0  0  0  0  0  0  0  0  0  0  0
   -8.2579   23.4757  -31.6687 H   0  0  0  0  0  0  0  0  0  0  0  0
   -5.2353   21.5239  -30.4808 H   0  0  0  0  0  0  0  0  0  0  0  0
   -3.1809   22.5681  -29.5263 H   0  0  0  0  0  0  0  0  0  0  0  0
   -1.6912   24.5797  -26.4099 H   0  0  0  0  0  0  0  0  0  0  0  0
   -3.0753   23.7379  -27.1859 H   0  0  0  0  0  0  0  0  0  0  0  0
   -1.4476   22.9781  -27.1859 H   0  0  0  0  0  0  0  0  0  0  0  0
   -4.8201   26.4974  -30.3053 H   0  0  0  0  0  0  0  0  0  0  0  0
   -6.8687   25.4535  -31.2690 H   0  0  0  0  0  0  0  0  0  0  0  0
  1  2  1  0
  2  3  1  0
  3  4  2  0
  4  5  1  0
  5  6  2  0
  6  7  1  0
  7  8  2  0
  8  9  1  0
  9 10  2  0
  9 11  1  0
 11 12  1  0
 12 13  2  3
 13 14  1  0
 14 15  2  0
 15 16  1  0
 16 17  2  0
 17 18  1  0
 18 19  1  0
 19 20  1  0
 19 21  2  0
 17 22  1  0
 22 23  2  0
  8  3  1  0
 23 14  1  0
 12  7  1  0
  1 24  1  0
  1 25  1  0
  1 26  1  0
  4 27  1  0
  5 28  1  0
  6 29  1  0
 13 30  1  0
 15 31  1  0
 16 32  1  0
 20 33  1  0
 20 34  1  0
 20 35  1  0
 22 36  1  0
 23 37  1  0
M  CHG  1  18  -1
M  END
>  <UniqueID>  (44) 
42

>  <SMILES>  (44) 
COc1cccc2c1C(=O)OC2=Cc1ccc([N-]C(C)=O)cc1

>  <Energy>  (44) 
81.57820703416267

>  <Genealogy>  (44) 
COc1cccc2c1C(=O)OC2=Cc1ccc([N-]C(C)=O)cc1 (protonated)
COc1cccc2c1C(=O)OC2=Cc1ccc([N-]C(C)=O)cc1 (3D coordinates assigned)
COc1cccc2c1C(=O)OC2=Cc1ccc([N-]C(C)=O)cc1 (nonaromatic ring conformer: 81.57820703416267 kcal/mol)

>  <smiles>  (44) 
COc1cccc2c1C(=O)OC2=Cc1ccc(NC(C)=O)cc1

>  <score_type>  (44) 
oracle

>  <origin>  (44) 
adg

>  <m_score__min__energy>  (44) 
-10.6

>  <m_primary>  (44) 
energy

$$$$
44:0
     RDKit          3D

 49 52  0  0  0  0  0  0  0  0999 V2000
   -4.2080   21.3800  -31.8390 C   0  0  0  0  0  0  0  0  0  0  0  0
   -5.5090   22.0450  -31.4700 C   0  0  0  0  0  0  0  0  0  0  0  0
   -5.5980   23.2950  -30.8170 C   0  0  0  0  0  0  0  0  0  0  0  0
   -4.4730   24.1720  -30.3330 C   0  0  0  0  0  0  0  0  0  0  0  0
   -3.5160   23.5320  -29.2940 C   0  0  0  0  0  0  0  0  0  0  0  0
   -2.0830   24.1270  -29.2870 C   0  0  0  0  0  0  0  0  0  0  0  0
   -1.8820   25.2830  -28.2960 C   0  0  0  0  0  0  0  0  0  0  0  0
   -2.3760   24.9120  -26.9010 C   0  0  0  0  0  0  0  0  0  0  0  0
   -3.8600   24.5610  -26.9460 C   0  0  0  0  0  0  0  0  0  0  0  0
   -4.1160   23.3660  -27.8760 C   0  0  0  0  0  0  0  0  0  0  0  0
   -7.2200   23.7760  -30.7470 S   0  0  0  0  0  0  0  0  0  0  0  0
   -7.8160   22.3860  -31.4590 C   0  0  0  0  0  0  0  0  0  0  0  0
   -9.1160   22.1110  -31.7210 N   0  0  0  0  0  0  0  0  0  0  0  0
   -9.4310   20.9290  -32.3160 C   0  0  0  0  0  0  0  0  0  0  0  0
   -8.4520   20.0310  -32.6210 N   0  0  0  0  0  0  0  0  0  0  0  0
   -7.1350   20.2840  -32.3640 C   0  0  0  0  0  0  0  0  0  0  0  0
   -6.1660   19.2580  -32.6210 N   0  0  0  0  0  0  0  0  0  0  0  0
   -5.3900   19.2950  -33.8610 C   0  0  0  0  0  0  0  0  0  0  0  0
   -5.9510   18.2430  -34.8270 C   0  0  0  0  0  0  0  0  0  0  0  0
   -5.9850   16.9640  -34.2150 O   0  0  0  0  0  0  0  0  0  0  0  0
   -6.8620   16.9760  -33.1000 C   0  0  0  0  0  0  0  0  0  0  0  0
   -6.3520   17.9370  -32.0210 C   0  0  0  0  0  0  0  0  0  0  0  0
   -6.7870   21.5170  -31.7780 C   0  0  0  0  0  0  0  0  0  0  0  0
   -3.6653   21.1026  -30.9233 H   0  0  0  0  0  0  0  0  0  0  0  0
   -4.4133   20.4763  -32.4315 H   0  0  0  0  0  0  0  0  0  0  0  0
   -3.5957   22.0757  -32.4315 H   0  0  0  0  0  0  0  0  0  0  0  0
   -3.8738   24.4654  -31.2076 H   0  0  0  0  0  0  0  0  0  0  0  0
   -4.9537   25.0155  -29.8159 H   0  0  0  0  0  0  0  0  0  0  0  0
   -3.3952   22.5043  -29.6672 H   0  0  0  0  0  0  0  0  0  0  0  0
   -1.3780   23.3238  -29.0265 H   0  0  0  0  0  0  0  0  0  0  0  0
   -1.9092   24.5402  -30.2915 H   0  0  0  0  0  0  0  0  0  0  0  0
   -0.8107   25.5271  -28.2432 H   0  0  0  0  0  0  0  0  0  0  0  0
   -2.4622   26.1478  -28.6503 H   0  0  0  0  0  0  0  0  0  0  0  0
   -1.8081   24.0449  -26.5327 H   0  0  0  0  0  0  0  0  0  0  0  0
   -2.2293   25.7692  -26.2275 H   0  0  0  0  0  0  0  0  0  0  0  0
   -4.2001   24.3063  -25.9314 H   0  0  0  0  0  0  0  0  0  0  0  0
   -4.4136   25.4297  -27.3319 H   0  0  0  0  0  0  0  0  0  0  0  0
   -3.6748   22.4692  -27.4165 H   0  0  0  0  0  0  0  0  0  0  0  0
   -5.2062   23.2860  -27.9989 H   0  0  0  0  0  0  0  0  0  0  0  0
   -9.8650   22.7950  -31.4750 H   0  0  0  0  0  0  0  0  0  0  0  0
  -10.4800   20.6969  -32.5520 H   0  0  0  0  0  0  0  0  0  0  0  0
   -5.4676   20.2935  -34.3160 H   0  0  0  0  0  0  0  0  0  0  0  0
   -4.3328   19.0797  -33.6468 H   0  0  0  0  0  0  0  0  0  0  0  0
   -6.9718   18.5300  -35.1195 H   0  0  0  0  0  0  0  0  0  0  0  0
   -5.2988   18.1933  -35.7114 H   0  0  0  0  0  0  0  0  0  0  0  0
   -7.8604   17.2996  -33.4292 H   0  0  0  0  0  0  0  0  0  0  0  0
   -6.9102   15.9619  -32.6766 H   0  0  0  0  0  0  0  0  0  0  0  0
   -7.0867   18.0011  -31.2049 H   0  0  0  0  0  0  0  0  0  0  0  0
   -5.3975   17.5719  -31.6141 H   0  0  0  0  0  0  0  0  0  0  0  0
  1  2  1  0
  2  3  2  0
  3  4  1  0
  4  5  1  0
  5  6  1  0
  6  7  1  0
  7  8  1  0
  8  9  1  0
  9 10  1  0
  3 11  1  0
 11 12  1  0
 12 13  2  0
 13 14  1  0
 14 15  2  0
 15 16  1  0
 16 17  1  0
 17 18  1  0
 18 19  1  0
 19 20  1  0
 20 21  1  0
 21 22  1  0
 16 23  2  0
 23  2  1  0
 10  5  1  0
 23 12  1  0
 22 17  1  0
  1 24  1  0
  1 25  1  0
  1 26  1  0
  4 27  1  0
  4 28  1  0
  5 29  1  0
  6 30  1  0
  6 31  1  0
  7 32  1  0
  7 33  1  0
  8 34  1  0
  8 35  1  0
  9 36  1  0
  9 37  1  0
 10 38  1  0
 10 39  1  0
 13 40  1  0
 14 41  1  0
 18 42  1  0
 18 43  1  0
 19 44  1  0
 19 45  1  0
 21 46  1  0
 21 47  1  0
 22 48  1  0
 22 49  1  0
M  CHG  1  13   1
M  END
>  <UniqueID>  (45) 
43

>  <SMILES>  (45) 
Cc1c(CC2CCCCC2)sc2[nH+]cnc(N3CCOCC3)c12

>  <Energy>  (45) 
89.77281229528327

>  <Genealogy>  (45) 
Cc1c(CC2CCCCC2)sc2[nH+]cnc(N3CCOCC3)c12 (protonated)
Cc1c(CC2CCCCC2)sc2[nH+]cnc(N3CCOCC3)c12 (3D coordinates assigned)
Cc1c(CC2CCCCC2)sc2[nH+]cnc(N3CCOCC3)c12 (nonaromatic ring conformer: 89.77281229528327 kcal/mol)

>  <smiles>  (45) 
Cc1c(CC2CCCCC2)sc2ncnc(N3CCOCC3)c12

>  <score_type>  (45) 
oracle

>  <origin>  (45) 
adg

>  <m_score__min__energy>  (45) 
-8.0299999999999994

>  <m_primary>  (45) 
energy

$$$$
45:0
     RDKit          3D

 32 33  0  0  0  0  0  0  0  0999 V2000
   -9.4330   21.3550  -31.3760 C   0  0  0  0  0  0  0  0  0  0  0  0
   -8.3520   20.4750  -31.0880 O   0  0  0  0  0  0  0  0  0  0  0  0
   -7.5170   19.8930  -32.0550 C   0  0  0  0  0  0  0  0  0  0  0  0
   -7.7320   18.5820  -32.5260 C   0  0  0  0  0  0  0  0  0  0  0  0
   -6.8800   18.0240  -33.4810 C   0  0  0  0  0  0  0  0  0  0  0  0
   -5.8050   18.7610  -33.9760 C   0  0  0  0  0  0  0  0  0  0  0  0
   -5.5790   20.0610  -33.5200 C   0  0  0  0  0  0  0  0  0  0  0  0
   -6.4290   20.6390  -32.5640 C   0  0  0  0  0  0  0  0  0  0  0  0
   -6.1420   22.0450  -32.0760 C   0  0  0  0  0  0  0  0  0  0  0  0
   -6.0460   22.1160  -30.5940 N   0  0  0  0  0  0  0  0  0  0  0  0
   -4.6340   22.0350  -30.1460 C   0  0  0  0  0  0  0  0  0  0  0  0
   -3.8670   23.2900  -30.4770 C   0  0  0  0  0  0  0  0  0  0  0  0
   -2.6200   23.2400  -30.6440 O   0  0  0  0  0  0  0  0  0  0  0  0
   -4.5540   24.5430  -30.5480 N   0  0  0  0  0  0  0  0  0  0  0  0
   -3.8710   25.6800  -30.8230 O   0  0  0  0  0  0  0  0  0  0  0  0
   -5.9710   24.5810  -30.3630 C   0  0  0  0  0  0  0  0  0  0  0  0
   -6.5930   25.6740  -30.4370 O   0  0  0  0  0  0  0  0  0  0  0  0
   -6.7120   23.3150  -30.0270 C   0  0  0  0  0  0  0  0  0  0  0  0
   -9.8742   21.7142  -30.4346 H   0  0  0  0  0  0  0  0  0  0  0  0
   -9.0631   22.2120  -31.9580 H   0  0  0  0  0  0  0  0  0  0  0  0
  -10.1971   20.8189  -31.9580 H   0  0  0  0  0  0  0  0  0  0  0  0
   -8.5772   17.9943  -32.1384 H   0  0  0  0  0  0  0  0  0  0  0  0
   -7.0573   17.0007  -33.8436 H   0  0  0  0  0  0  0  0  0  0  0  0
   -5.1342   18.3177  -34.7267 H   0  0  0  0  0  0  0  0  0  0  0  0
   -4.7282   20.6369  -33.9129 H   0  0  0  0  0  0  0  0  0  0  0  0
   -5.1891   22.3829  -32.5094 H   0  0  0  0  0  0  0  0  0  0  0  0
   -6.9759   22.6891  -32.3918 H   0  0  0  0  0  0  0  0  0  0  0  0
   -6.5310   21.2730  -30.2010 H   0  0  0  0  0  0  0  0  0  0  0  0
   -4.6145   21.8831  -29.0567 H   0  0  0  0  0  0  0  0  0  0  0  0
   -4.1569   21.1949  -30.6718 H   0  0  0  0  0  0  0  0  0  0  0  0
   -6.7601   23.2109  -28.9330 H   0  0  0  0  0  0  0  0  0  0  0  0
   -7.7192   23.3837  -30.4639 H   0  0  0  0  0  0  0  0  0  0  0  0
  1  2  1  0
  2  3  1  0
  3  4  2  0
  4  5  1  0
  5  6  2  0
  6  7  1  0
  7  8  2  0
  8  9  1  0
  9 10  1  0
 10 11  1  0
 11 12  1  0
 12 13  2  0
 12 14  1  0
 14 15  1  0
 14 16  1  0
 16 17  2  0
 16 18  1  0
  8  3  1  0
 18 10  1  0
  1 19  1  0
  1 20  1  0
  1 21  1  0
  4 22  1  0
  5 23  1  0
  6 24  1  0
  7 25  1  0
  9 26  1  0
  9 27  1  0
 10 28  1  0
 11 29  1  0
 11 30  1  0
 18 31  1  0
 18 32  1  0
M  CHG  2  10   1  15  -1
M  END
>  <UniqueID>  (46) 
44

>  <SMILES>  (46) 
COc1ccccc1C[NH+]1CC(=O)N([O-])C(=O)C1

>  <Energy>  (46) 
35.42429097116058

>  <Genealogy>  (46) 
COc1ccccc1C[NH+]1CC(=O)N([O-])C(=O)C1 (protonated)
COc1ccccc1C[NH+]1CC(=O)N([O-])C(=O)C1 (3D coordinates assigned)
COc1ccccc1C[NH+]1CC(=O)N([O-])C(=O)C1 (nonaromatic ring conformer: 35.42429097116058 kcal/mol)

>  <smiles>  (46) 
COc1ccccc1CN1CC(=O)N(O)C(=O)C1

>  <score_type>  (46) 
oracle

>  <origin>  (46) 
adg

>  <m_score__min__energy>  (46) 
-8.3300000000000001

>  <m_primary>  (46) 
energy

$$$$
46:0
     RDKit          3D

 44 47  0  0  0  0  0  0  0  0999 V2000
   -4.5500   25.6710  -30.3460 O   0  0  0  0  0  0  0  0  0  0  0  0
   -4.3960   24.4670  -30.6830 C   0  0  0  0  0  0  0  0  0  0  0  0
   -4.9950   23.9960  -31.8870 N   0  0  0  0  0  0  0  0  0  0  0  0
   -4.9470   22.5840  -32.2510 C   0  0  2  0  0  0  0  0  0  0  0  0
   -6.2520   21.9100  -31.8940 C   0  0  0  0  0  0  0  0  0  0  0  0
   -6.5310   20.6120  -32.3510 C   0  0  0  0  0  0  0  0  0  0  0  0
   -7.7380   19.9950  -32.0210 C   0  0  0  0  0  0  0  0  0  0  0  0
   -8.6630   20.6810  -31.2320 C   0  0  0  0  0  0  0  0  0  0  0  0
   -8.3840   21.9370  -30.7950 N   0  0  0  0  0  0  0  0  0  0  0  0
   -7.2160   22.5610  -31.1040 C   0  0  0  0  0  0  0  0  0  0  0  0
   -3.8580   21.9240  -31.6000 O   0  0  0  0  0  0  0  0  0  0  0  0
   -3.3350   22.3070  -30.3540 C   0  0  0  0  0  0  0  0  0  0  0  0
   -2.5370   21.2960  -29.6250 C   0  0  0  0  0  0  0  0  0  0  0  0
   -3.0280   20.6890  -28.4550 C   0  0  0  0  0  0  0  0  0  0  0  0
   -2.2780   19.7070  -27.8020 C   0  0  0  0  0  0  0  0  0  0  0  0
   -1.0410   19.3090  -28.3190 C   0  0  0  0  0  0  0  0  0  0  0  0
   -0.1020   18.0740  -27.5000 Cl  0  0  0  0  0  0  0  0  0  0  0  0
   -0.5580   19.8910  -29.4970 C   0  0  0  0  0  0  0  0  0  0  0  0
   -1.3070   20.8730  -30.1520 C   0  0  0  0  0  0  0  0  0  0  0  0
   -3.5690   23.5510  -29.8720 C   0  0  0  0  0  0  0  0  0  0  0  0
   -2.9630   24.0520  -28.6150 C   0  0  0  0  0  0  0  0  0  0  0  0
   -2.9950   23.3370  -27.5760 O   0  0  0  0  0  0  0  0  0  0  0  0
   -2.3680   25.3590  -28.5780 N   0  0  0  0  0  0  0  0  0  0  0  0
   -1.5500   25.8360  -27.4970 C   0  0  0  0  0  0  0  0  0  0  0  0
   -2.0250   25.7400  -26.1810 C   0  0  0  0  0  0  0  0  0  0  0  0
   -1.2550   26.2160  -25.1150 C   0  0  0  0  0  0  0  0  0  0  0  0
   -0.0110   26.8060  -25.3570 C   0  0  0  0  0  0  0  0  0  0  0  0
    0.4600   26.9270  -26.6670 C   0  0  0  0  0  0  0  0  0  0  0  0
   -0.3060   26.4510  -27.7340 C   0  0  0  0  0  0  0  0  0  0  0  0
   -4.7913   22.5142  -33.3377 H   0  0  0  0  0  0  0  0  0  0  0  0
   -5.7952   20.0796  -32.9715 H   0  0  0  0  0  0  0  0  0  0  0  0
   -7.9585   18.9785  -32.3788 H   0  0  0  0  0  0  0  0  0  0  0  0
   -9.6177   20.2048  -30.9641 H   0  0  0  0  0  0  0  0  0  0  0  0
   -7.0245   23.5792  -30.7344 H   0  0  0  0  0  0  0  0  0  0  0  0
   -4.0068   20.9886  -28.0521 H   0  0  0  0  0  0  0  0  0  0  0  0
   -2.6614   19.2463  -26.8796 H   0  0  0  0  0  0  0  0  0  0  0  0
    0.4123   19.5752  -29.9079 H   0  0  0  0  0  0  0  0  0  0  0  0
   -0.9302   21.3165  -31.0855 H   0  0  0  0  0  0  0  0  0  0  0  0
   -2.6370   26.0360  -29.3280 H   0  0  0  0  0  0  0  0  0  0  0  0
   -3.0086   25.2878  -25.9862 H   0  0  0  0  0  0  0  0  0  0  0  0
   -1.6289   26.1260  -24.0844 H   0  0  0  0  0  0  0  0  0  0  0  0
    0.5964   27.1746  -24.5172 H   0  0  0  0  0  0  0  0  0  0  0  0
    1.4355   27.3978  -26.8584 H   0  0  0  0  0  0  0  0  0  0  0  0
    0.0647   26.5573  -28.7642 H   0  0  0  0  0  0  0  0  0  0  0  0
  1  2  2  0
  2  3  1  0
  3  4  1  0
  4  5  1  0
  5  6  2  0
  6  7  1  0
  7  8  2  0
  8  9  1  0
  9 10  2  0
  4 11  1  0
 11 12  1  0
 12 13  1  0
 13 14  2  0
 14 15  1  0
 15 16  2  0
 16 17  1  0
 16 18  1  0
 18 19  2  0
 12 20  2  0
 20 21  1  0
 21 22  2  0
 21 23  1  0
 23 24  1  0
 24 25  2  0
 25 26  1  0
 26 27  2  0
 27 28  1  0
 28 29  2  0
 20  2  1  0
 29 24  1  0
 10  5  1  0
 19 13  1  0
  4 30  1  6
  6 31  1  0
  7 32  1  0
  8 33  1  0
 10 34  1  0
 14 35  1  0
 15 36  1  0
 18 37  1  0
 19 38  1  0
 23 39  1  0
 25 40  1  0
 26 41  1  0
 27 42  1  0
 28 43  1  0
 29 44  1  0
M  CHG  1   3  -1
M  END
>  <UniqueID>  (47) 
45

>  <SMILES>  (47) 
O=C1[N-][C@H](c2cccnc2)OC(c2ccc(Cl)cc2)=C1C(=O)Nc1ccccc1

>  <Energy>  (47) 
65.81239438539865

>  <Genealogy>  (47) 
O=C1[N-]C(c2cccnc2)OC(c2ccc(Cl)cc2)=C1C(=O)Nc1ccccc1 (protonated)
O=C1[N-][C@H](c2cccnc2)OC(c2ccc(Cl)cc2)=C1C(=O)Nc1ccccc1 (chirality)
O=C1[N-][C@H](c2cccnc2)OC(c2ccc(Cl)cc2)=C1C(=O)Nc1ccccc1 (3D coordinates assigned)
O=C1[N-][C@H](c2cccnc2)OC(c2ccc(Cl)cc2)=C1C(=O)Nc1ccccc1 (nonaromatic ring conformer: 65.81239438539865 kcal/mol)

>  <smiles>  (47) 
O=C(Nc1ccccc1)C1=C(c2ccc(Cl)cc2)OC(c2cccnc2)NC1=O

>  <score_type>  (47) 
oracle

>  <origin>  (47) 
adg

>  <m_score__min__energy>  (47) 
-9.8800000000000008

>  <m_primary>  (47) 
energy

$$$$
47:0
     RDKit          3D

 34 36  0  0  0  0  0  0  0  0999 V2000
   -5.6670   25.0280  -29.2680 O   0  0  0  0  0  0  0  0  0  0  0  0
   -5.0800   24.8520  -30.3680 C   0  0  0  0  0  0  0  0  0  0  0  0
   -5.8850   24.6020  -31.6040 C   0  0  0  0  0  0  0  0  0  0  0  0
   -6.1370   23.1600  -31.7570 N   0  0  0  0  0  0  0  0  0  0  0  0
   -5.0740   22.3180  -31.9210 C   0  0  0  0  0  0  0  0  0  0  0  0
   -5.2630   20.9840  -32.0960 N   0  0  0  0  0  0  0  0  0  0  0  0
   -6.5120   20.4500  -32.1250 C   0  0  0  0  0  0  0  0  0  0  0  0
   -6.6940   19.0700  -32.3080 C   0  0  0  0  0  0  0  0  0  0  0  0
   -7.9820   18.5290  -32.3420 C   0  0  0  0  0  0  0  0  0  0  0  0
   -9.0960   19.3590  -32.1940 C   0  0  0  0  0  0  0  0  0  0  0  0
   -8.9280   20.7340  -32.0110 C   0  0  0  0  0  0  0  0  0  0  0  0
   -7.6350   21.2910  -31.9740 C   0  0  0  0  0  0  0  0  0  0  0  0
   -7.4170   22.6670  -31.7940 C   0  0  0  0  0  0  0  0  0  0  0  0
   -8.4020   23.4490  -31.6680 O   0  0  0  0  0  0  0  0  0  0  0  0
   -3.6510   24.8880  -30.4540 N   0  0  0  0  0  0  0  0  0  0  0  0
   -2.7320   24.0730  -29.7120 C   0  0  0  0  0  0  0  0  0  0  0  0
   -2.7900   22.6670  -29.7450 C   0  0  0  0  0  0  0  0  0  0  0  0
   -1.8610   21.9060  -29.0290 C   0  0  0  0  0  0  0  0  0  0  0  0
   -1.9230   20.5520  -29.0650 F   0  0  0  0  0  0  0  0  0  0  0  0
   -0.8610   22.5390  -28.2870 C   0  0  0  0  0  0  0  0  0  0  0  0
   -0.7810   23.9330  -28.2690 C   0  0  0  0  0  0  0  0  0  0  0  0
   -1.7080   24.6980  -28.9840 C   0  0  0  0  0  0  0  0  0  0  0  0
   -1.6160   26.0520  -28.9620 F   0  0  0  0  0  0  0  0  0  0  0  0
   -6.8450   25.1335  -31.5273 H   0  0  0  0  0  0  0  0  0  0  0  0
   -5.3262   24.9659  -32.4788 H   0  0  0  0  0  0  0  0  0  0  0  0
   -4.0521   22.7251  -31.9113 H   0  0  0  0  0  0  0  0  0  0  0  0
   -4.4240   20.3720  -32.2150 H   0  0  0  0  0  0  0  0  0  0  0  0
   -5.8199   18.4125  -32.4250 H   0  0  0  0  0  0  0  0  0  0  0  0
   -8.1191   17.4471  -32.4856 H   0  0  0  0  0  0  0  0  0  0  0  0
  -10.1081   18.9289  -32.2216 H   0  0  0  0  0  0  0  0  0  0  0  0
   -9.8083   21.3834  -31.8955 H   0  0  0  0  0  0  0  0  0  0  0  0
   -3.5696   22.1648  -30.3367 H   0  0  0  0  0  0  0  0  0  0  0  0
   -0.1364   21.9392  -27.7167 H   0  0  0  0  0  0  0  0  0  0  0  0
    0.0124   24.4301  -27.6916 H   0  0  0  0  0  0  0  0  0  0  0  0
  1  2  2  0
  2  3  1  0
  3  4  1  0
  4  5  1  0
  5  6  2  0
  6  7  1  0
  7  8  2  0
  8  9  1  0
  9 10  2  0
 10 11  1  0
 11 12  2  0
 12 13  1  0
 13 14  2  0
  2 15  1  0
 15 16  1  0
 16 17  2  0
 17 18  1  0
 18 19  1  0
 18 20  2  0
 20 21  1  0
 21 22  2  0
 22 23  1  0
 13  4  1  0
 22 16  1  0
 12  7  1  0
  3 24  1  0
  3 25  1  0
  5 26  1  0
  6 27  1  0
  8 28  1  0
  9 29  1  0
 10 30  1  0
 11 31  1  0
 17 32  1  0
 20 33  1  0
 21 34  1  0
M  CHG  2   6   1  15  -1
M  END
>  <UniqueID>  (48) 
46

>  <SMILES>  (48) 
O=C(Cn1c[nH+]c2ccccc2c1=O)[N-]c1cc(F)ccc1F

>  <Energy>  (48) 
45.20939584212671

>  <Genealogy>  (48) 
O=C(Cn1c[nH+]c2ccccc2c1=O)[N-]c1cc(F)ccc1F (protonated)
O=C(Cn1c[nH+]c2ccccc2c1=O)[N-]c1cc(F)ccc1F (3D coordinates assigned)
O=C(Cn1c[nH+]c2ccccc2c1=O)[N-]c1cc(F)ccc1F (optimized conformer: 45.20939584212671 kcal/mol)

>  <smiles>  (48) 
O=C(Cn1cnc2ccccc2c1=O)Nc1cc(F)ccc1F

>  <score_type>  (48) 
oracle

>  <origin>  (48) 
adg

>  <m_score__min__energy>  (48) 
-8.9299999999999997

>  <m_primary>  (48) 
energy

$$$$
48:0
     RDKit          3D

 39 42  0  0  0  0  0  0  0  0999 V2000
   -3.1880   23.9260  -28.3980 O   0  0  0  0  0  0  0  0  0  0  0  0
   -2.7790   24.7470  -29.2610 C   0  0  0  0  0  0  0  0  0  0  0  0
   -3.5330   24.9090  -30.4680 N   0  0  0  0  0  0  0  0  0  0  0  0
   -4.8190   24.3360  -30.7370 C   0  0  0  0  0  0  0  0  0  0  0  0
   -6.0050   24.9940  -30.3730 C   0  0  0  0  0  0  0  0  0  0  0  0
   -7.2420   24.3960  -30.6160 C   0  0  0  0  0  0  0  0  0  0  0  0
   -7.3080   23.1310  -31.2050 C   0  0  0  0  0  0  0  0  0  0  0  0
   -6.1310   22.4430  -31.5520 C   0  0  0  0  0  0  0  0  0  0  0  0
   -6.2180   21.0940  -32.1650 C   0  0  0  0  0  0  0  0  0  0  0  0
   -5.4130   20.5860  -33.1820 C   0  0  0  0  0  0  0  0  0  0  0  0
   -5.8370   19.3410  -33.4280 N   0  0  0  0  0  0  0  0  0  0  0  0
   -5.3930   18.4200  -34.3200 C   0  0  0  0  0  0  0  0  0  0  0  0
   -6.0460   17.1790  -34.3490 C   0  0  0  0  0  0  0  0  0  0  0  0
   -7.0880   16.9440  -33.4940 N   0  0  0  0  0  0  0  0  0  0  0  0
   -7.5160   17.8880  -32.6060 C   0  0  0  0  0  0  0  0  0  0  0  0
   -6.8560   19.1140  -32.5890 C   0  0  0  0  0  0  0  0  0  0  0  0
   -7.1330   20.1620  -31.7900 N   0  0  0  0  0  0  0  0  0  0  0  0
   -4.8880   23.0560  -31.3010 C   0  0  0  0  0  0  0  0  0  0  0  0
   -1.5600   25.4800  -29.0470 N   0  0  0  0  0  0  0  0  0  0  0  0
   -0.7990   25.4030  -27.8330 C   0  0  0  0  0  0  0  0  0  0  0  0
   -0.9700   26.3910  -26.8540 C   0  0  0  0  0  0  0  0  0  0  0  0
   -0.2280   26.3490  -25.6690 C   0  0  0  0  0  0  0  0  0  0  0  0
    0.7020   25.3280  -25.4630 C   0  0  0  0  0  0  0  0  0  0  0  0
    0.9010   24.3530  -26.4460 C   0  0  0  0  0  0  0  0  0  0  0  0
    0.1610   24.3910  -27.6330 C   0  0  0  0  0  0  0  0  0  0  0  0
    0.4170   23.4740  -28.5990 F   0  0  0  0  0  0  0  0  0  0  0  0
   -5.9587   25.9836  -29.8950 H   0  0  0  0  0  0  0  0  0  0  0  0
   -8.1684   24.9224  -30.3428 H   0  0  0  0  0  0  0  0  0  0  0  0
   -8.2875   22.6695  -31.3989 H   0  0  0  0  0  0  0  0  0  0  0  0
   -4.5868   21.1084  -33.6864 H   0  0  0  0  0  0  0  0  0  0  0  0
   -4.5524   18.6384  -34.9951 H   0  0  0  0  0  0  0  0  0  0  0  0
   -5.7224   16.3996  -35.0546 H   0  0  0  0  0  0  0  0  0  0  0  0
   -8.3561   17.6866  -31.9250 H   0  0  0  0  0  0  0  0  0  0  0  0
   -3.9592   22.5223  -31.5513 H   0  0  0  0  0  0  0  0  0  0  0  0
   -1.2600   26.1830  -29.7590 H   0  0  0  0  0  0  0  0  0  0  0  0
   -1.6920   27.2044  -27.0184 H   0  0  0  0  0  0  0  0  0  0  0  0
   -0.3771   27.1205  -24.8992 H   0  0  0  0  0  0  0  0  0  0  0  0
    1.2786   25.2904  -24.5270 H   0  0  0  0  0  0  0  0  0  0  0  0
    1.6407   23.5548  -26.2856 H   0  0  0  0  0  0  0  0  0  0  0  0
  1  2  2  0
  2  3  1  0
  3  4  1  0
  4  5  2  0
  5  6  1  0
  6  7  2  0
  7  8  1  0
  8  9  1  0
  9 10  2  0
 10 11  1  0
 11 12  1  0
 12 13  2  0
 13 14  1  0
 14 15  2  0
 15 16  1  0
 16 17  2  0
  8 18  2  0
  2 19  1  0
 19 20  1  0
 20 21  2  0
 21 22  1  0
 22 23  2  0
 23 24  1  0
 24 25  2  0
 25 26  1  0
 18  4  1  0
 25 20  1  0
 17  9  1  0
 16 11  1  0
  5 27  1  0
  6 28  1  0
  7 29  1  0
 10 30  1  0
 12 31  1  0
 13 32  1  0
 15 33  1  0
 18 34  1  0
 19 35  1  0
 21 36  1  0
 22 37  1  0
 23 38  1  0
 24 39  1  0
M  CHG  1   3  -1
M  END
>  <UniqueID>  (49) 
47

>  <SMILES>  (49) 
O=C([N-]c1cccc(-c2cn3ccncc3n2)c1)Nc1ccccc1F

>  <Energy>  (49) 
91.52715848164861

>  <Genealogy>  (49) 
O=C([N-]c1cccc(-c2cn3ccncc3n2)c1)Nc1ccccc1F (protonated)
O=C([N-]c1cccc(-c2cn3ccncc3n2)c1)Nc1ccccc1F (3D coordinates assigned)
O=C([N-]c1cccc(-c2cn3ccncc3n2)c1)Nc1ccccc1F (optimized conformer: 91.52715848164861 kcal/mol)

>  <smiles>  (49) 
O=C(Nc1cccc(-c2cn3ccncc3n2)c1)Nc1ccccc1F

>  <score_type>  (49) 
oracle

>  <origin>  (49) 
adg

>  <m_score__min__energy>  (49) 
-10.41

>  <m_primary>  (49) 
energy

$$$$
49:0
     RDKit          3D

 28 29  0  0  0  0  0  0  0  0999 V2000
   -2.6550   21.1710  -33.4220 C   0  0  0  0  0  0  0  0  0  0  0  0
   -1.9040   20.9040  -32.1360 C   0  0  0  0  0  0  0  0  0  0  0  0
   -1.9990   22.3090  -30.9970 S   0  0  0  0  0  0  0  0  0  0  0  0
   -3.6580   22.9750  -31.0170 C   0  0  0  0  0  0  0  0  0  0  0  0
   -3.8980   24.2750  -30.7360 N   0  0  0  0  0  0  0  0  0  0  0  0
   -5.1520   24.7840  -30.7500 C   0  0  0  0  0  0  0  0  0  0  0  0
   -5.3400   26.0310  -30.4760 N   0  0  0  0  0  0  0  0  0  0  0  0
   -6.1520   23.9430  -31.0570 N   0  0  0  0  0  0  0  0  0  0  0  0
   -5.9710   22.6410  -31.3450 C   0  0  0  0  0  0  0  0  0  0  0  0
   -7.1200   21.8040  -31.6660 C   0  0  0  0  0  0  0  0  0  0  0  0
   -8.4110   22.2700  -31.6620 C   0  0  0  0  0  0  0  0  0  0  0  0
   -9.4690   21.4390  -31.9750 C   0  0  0  0  0  0  0  0  0  0  0  0
   -9.2450   20.1160  -32.2990 C   0  0  0  0  0  0  0  0  0  0  0  0
   -7.9390   19.6190  -32.3100 C   0  0  0  0  0  0  0  0  0  0  0  0
   -7.5990   17.9500  -32.7140 Cl  0  0  0  0  0  0  0  0  0  0  0  0
   -6.9270   20.4830  -31.9930 C   0  0  0  0  0  0  0  0  0  0  0  0
   -4.7070   22.1870  -31.3160 N   0  0  0  0  0  0  0  0  0  0  0  0
   -3.6676   21.5310  -33.1873 H   0  0  0  0  0  0  0  0  0  0  0  0
   -2.1209   21.9343  -34.0068 H   0  0  0  0  0  0  0  0  0  0  0  0
   -2.7226   20.2418  -34.0068 H   0  0  0  0  0  0  0  0  0  0  0  0
   -2.3383   20.0195  -31.6472 H   0  0  0  0  0  0  0  0  0  0  0  0
   -0.8458   20.7379  -32.3864 H   0  0  0  0  0  0  0  0  0  0  0  0
   -5.3590   26.4330  -29.5370 H   0  0  0  0  0  0  0  0  0  0  0  0
   -8.6062   23.3217  -31.4055 H   0  0  0  0  0  0  0  0  0  0  0  0
  -10.4957   21.8337  -31.9660 H   0  0  0  0  0  0  0  0  0  0  0  0
  -10.0898   19.4567  -32.5471 H   0  0  0  0  0  0  0  0  0  0  0  0
   -5.8968   20.0974  -32.0002 H   0  0  0  0  0  0  0  0  0  0  0  0
   -4.4990   21.1890  -31.5300 H   0  0  0  0  0  0  0  0  0  0  0  0
  1  2  1  0
  2  3  1  0
  3  4  1  0
  4  5  2  0
  5  6  1  0
  6  7  2  3
  6  8  1  0
  8  9  2  0
  9 10  1  0
 10 11  2  0
 11 12  1  0
 12 13  2  0
 13 14  1  0
 14 15  1  0
 14 16  2  0
  9 17  1  0
 17  4  1  0
 16 10  1  0
  1 18  1  0
  1 19  1  0
  1 20  1  0
  2 21  1  0
  2 22  1  0
  7 23  1  0
 11 24  1  0
 12 25  1  0
 13 26  1  0
 16 27  1  0
 17 28  1  0
M  END
>  <smiles>  (50) 
CCSc1nc(=N)nc(-c2cccc(Cl)c2)[nH]1

>  <score_type>  (50) 
oracle

>  <origin>  (50) 
adg

>  <m_score__min__energy>  (50) 
-7.0300000000000002

>  <m_primary>  (50) 
energy

$$$$
