0:0
     RDKit          3D

 53 53  0  0  0  0  0  0  0  0999 V2000
   -6.1190   17.1510  -34.0580 C   0  0  0  0  0  0  0  0  0  0  0  0
   -6.0090   18.5720  -34.6020 C   0  0  0  0  0  0  0  0  0  0  0  0
   -6.1910   19.5570  -33.5240 N   0  0  0  0  0  0  0  0  0  0  0  0
   -7.5430   19.9430  -33.0930 C   0  0  0  0  0  0  0  0  0  0  0  0
   -8.0190   19.0520  -31.9490 C   0  0  0  0  0  0  0  0  0  0  0  0
   -5.0380   20.1360  -32.8740 C   0  0  0  0  0  0  0  0  0  0  0  0
   -3.8510   19.3960  -32.7380 C   0  0  0  0  0  0  0  0  0  0  0  0
   -2.7460   19.9490  -32.0890 C   0  0  0  0  0  0  0  0  0  0  0  0
   -2.8080   21.2470  -31.5580 C   0  0  0  0  0  0  0  0  0  0  0  0
   -1.6230   21.8210  -30.8140 C   0  0  0  0  0  0  0  0  0  0  0  0
   -2.0260   22.4100  -29.5180 N   0  0  2  0  0  0  0  0  0  0  0  0
   -1.1570   23.5560  -29.1250 C   0  0  0  0  0  0  0  0  0  0  0  0
   -1.8540   24.8670  -29.3390 C   0  0  0  0  0  0  0  0  0  0  0  0
   -1.3000   25.9390  -28.9700 O   0  0  0  0  0  0  0  0  0  0  0  0
   -3.1130   24.8980  -30.0190 N   0  0  0  0  0  0  0  0  0  0  0  0
   -4.3500   24.3610  -29.4590 C   0  0  0  0  0  0  0  0  0  0  0  0
   -4.2150   24.2760  -27.9400 C   0  0  0  0  0  0  0  0  0  0  0  0
   -5.5340   25.2490  -29.8500 C   0  0  0  0  0  0  0  0  0  0  0  0
   -2.0130   21.1700  -28.2810 S   0  0  0  0  0  0  0  0  0  0  0  0
   -0.9420   21.6060  -26.9220 C   0  0  0  0  0  0  0  0  0  0  0  0
   -1.5310   19.8770  -28.8780 O   0  0  0  0  0  0  0  0  0  0  0  0
   -3.4070   20.9660  -27.7550 O   0  0  0  0  0  0  0  0  0  0  0  0
   -3.9890   21.9910  -31.7050 C   0  0  0  0  0  0  0  0  0  0  0  0
   -5.0950   21.4400  -32.3560 C   0  0  0  0  0  0  0  0  0  0  0  0
   -6.1169   17.1782  -32.9583 H   0  0  0  0  0  0  0  0  0  0  0  0
   -7.0552   16.6944  -34.4117 H   0  0  0  0  0  0  0  0  0  0  0  0
   -5.2642   16.5558  -34.4117 H   0  0  0  0  0  0  0  0  0  0  0  0
   -5.0154   18.7100  -35.0533 H   0  0  0  0  0  0  0  0  0  0  0  0
   -6.7951   18.7238  -35.3563 H   0  0  0  0  0  0  0  0  0  0  0  0
   -7.5290   20.9894  -32.7540 H   0  0  0  0  0  0  0  0  0  0  0  0
   -8.2320   19.8264  -33.9425 H   0  0  0  0  0  0  0  0  0  0  0  0
   -7.7670   19.5236  -30.9877 H   0  0  0  0  0  0  0  0  0  0  0  0
   -9.1087   18.9183  -32.0174 H   0  0  0  0  0  0  0  0  0  0  0  0
   -7.5243   18.0719  -32.0174 H   0  0  0  0  0  0  0  0  0  0  0  0
   -3.7925   18.3758  -33.1451 H   0  0  0  0  0  0  0  0  0  0  0  0
   -1.8198   19.3634  -31.9929 H   0  0  0  0  0  0  0  0  0  0  0  0
   -0.8942   21.0179  -30.6298 H   0  0  0  0  0  0  0  0  0  0  0  0
   -1.1825   22.6177  -31.4315 H   0  0  0  0  0  0  0  0  0  0  0  0
   -3.0270   22.7160  -29.5970 H   0  0  0  0  0  0  0  0  0  0  0  0
   -0.8952   23.4588  -28.0610 H   0  0  0  0  0  0  0  0  0  0  0  0
   -0.2530   23.5371  -29.7515 H   0  0  0  0  0  0  0  0  0  0  0  0
   -4.5330   23.3534  -29.8606 H   0  0  0  0  0  0  0  0  0  0  0  0
   -5.0554   24.8052  -27.4670 H   0  0  0  0  0  0  0  0  0  0  0  0
   -4.2247   23.2208  -27.6295 H   0  0  0  0  0  0  0  0  0  0  0  0
   -3.2676   24.7409  -27.6295 H   0  0  0  0  0  0  0  0  0  0  0  0
   -6.0295   25.6206  -28.9410 H   0  0  0  0  0  0  0  0  0  0  0  0
   -5.1728   26.1007  -30.4450 H   0  0  0  0  0  0  0  0  0  0  0  0
   -6.2505   24.6637  -30.4450 H   0  0  0  0  0  0  0  0  0  0  0  0
   -1.4535   21.3978  -25.9707 H   0  0  0  0  0  0  0  0  0  0  0  0
   -0.0175   21.0126  -26.9788 H   0  0  0  0  0  0  0  0  0  0  0  0
   -0.6948   22.6764  -26.9788 H   0  0  0  0  0  0  0  0  0  0  0  0
   -4.0438   23.0143  -31.3051 H   0  0  0  0  0  0  0  0  0  0  0  0
   -6.0164   22.0311  -32.4636 H   0  0  0  0  0  0  0  0  0  0  0  0
  1  2  1  0
  2  3  1  0
  3  4  1  0
  4  5  1  0
  3  6  1  0
  6  7  2  0
  7  8  1  0
  8  9  2  0
  9 10  1  0
 10 11  1  0
 11 12  1  0
 12 13  1  0
 13 14  2  0
 13 15  1  0
 15 16  1  0
 16 17  1  0
 16 18  1  0
 11 19  1  0
 19 20  1  0
 19 21  2  0
 19 22  2  0
  9 23  1  0
 23 24  2  0
 24  6  1  0
  1 25  1  0
  1 26  1  0
  1 27  1  0
  2 28  1  0
  2 29  1  0
  4 30  1  0
  4 31  1  0
  5 32  1  0
  5 33  1  0
  5 34  1  0
  7 35  1  0
  8 36  1  0
 10 37  1  0
 10 38  1  0
 11 39  1  6
 12 40  1  0
 12 41  1  0
 16 42  1  0
 17 43  1  0
 17 44  1  0
 17 45  1  0
 18 46  1  0
 18 47  1  0
 18 48  1  0
 20 49  1  0
 20 50  1  0
 20 51  1  0
 23 52  1  0
 24 53  1  0
M  CHG  2  11   1  15  -1
M  END
>  <UniqueID>  (1) 
1

>  <SMILES>  (1) 
CCN(CC)c1ccc(C[N@H+](CC(=O)[N-]C(C)C)S(C)(=O)=O)cc1

>  <Energy>  (1) 
38.30344246601725

>  <Genealogy>  (1) 
CCN(CC)c1ccc(C[NH+](CC(=O)[N-]C(C)C)S(C)(=O)=O)cc1 (protonated)
CCN(CC)c1ccc(C[N@H+](CC(=O)[N-]C(C)C)S(C)(=O)=O)cc1 (chirality)
CCN(CC)c1ccc(C[N@H+](CC(=O)[N-]C(C)C)S(C)(=O)=O)cc1 (3D coordinates assigned)
CCN(CC)c1ccc(C[N@H+](CC(=O)[N-]C(C)C)S(C)(=O)=O)cc1 (optimized conformer: 38.30344246601725 kcal/mol)

>  <smiles>  (1) 
CCN(CC)c1ccc(CN(CC(=O)NC(C)C)S(C)(=O)=O)cc1

>  <score_type>  (1) 
oracle

>  <origin>  (1) 
adg

>  <m_score__min__energy>  (1) 
-8

>  <m_primary>  (1) 
energy

$$$$
1:0
     RDKit          3D

 66 68  0  0  0  0  0  0  0  0999 V2000
   -1.2070   28.2000  -34.1700 C   0  0  0  0  0  0  0  0  0  0  0  0
   -0.8600   28.0900  -35.6550 C   0  0  0  0  0  0  0  0  0  0  0  0
   -0.6360   26.6830  -36.0640 N   0  0  0  0  0  0  0  0  0  0  0  0
   -0.9290   26.4180  -37.4940 C   0  0  0  0  0  0  0  0  0  0  0  0
   -1.7740   27.5040  -38.1750 C   0  0  0  0  0  0  0  0  0  0  0  0
    0.7120   26.2080  -35.6700 C   0  0  0  0  0  0  0  0  0  0  0  0
    1.0270   24.8780  -36.3600 C   0  0  0  0  0  0  0  0  0  0  0  0
    0.4130   23.8110  -35.6630 O   0  0  0  0  0  0  0  0  0  0  0  0
    0.8770   22.5650  -36.1410 C   0  0  0  0  0  0  0  0  0  0  0  0
    0.9780   21.5930  -34.9700 C   0  0  0  0  0  0  0  0  0  0  0  0
    0.2320   20.4200  -35.2370 O   0  0  0  0  0  0  0  0  0  0  0  0
   -0.5020   20.0000  -34.1000 C   0  0  0  0  0  0  0  0  0  0  0  0
   -1.1640   21.1910  -33.3930 C   0  0  0  0  0  0  0  0  0  0  0  0
   -2.4600   20.7870  -32.6820 C   0  0  0  0  0  0  0  0  0  0  0  0
   -3.6260   21.2340  -33.4430 N   0  0  0  0  0  0  0  0  0  0  0  0
   -4.9480   20.8630  -33.0330 C   0  0  0  0  0  0  0  0  0  0  0  0
   -5.4500   19.5900  -33.3420 C   0  0  0  0  0  0  0  0  0  0  0  0
   -4.6510   18.6490  -34.0260 C   0  0  0  0  0  0  0  0  0  0  0  0
   -5.1310   17.3680  -34.2900 C   0  0  0  0  0  0  0  0  0  0  0  0
   -6.4020   17.0000  -33.8620 C   0  0  0  0  0  0  0  0  0  0  0  0
   -7.2140   17.9200  -33.1990 C   0  0  0  0  0  0  0  0  0  0  0  0
   -6.7740   19.2470  -32.9580 C   0  0  0  0  0  0  0  0  0  0  0  0
   -7.5890   20.1910  -32.3590 N   0  0  0  0  0  0  0  0  0  0  0  0
   -9.0400   19.9360  -32.2160 C   0  0  0  0  0  0  0  0  0  0  0  0
   -7.0500   21.3840  -31.9080 C   0  0  0  0  0  0  0  0  0  0  0  0
   -7.7810   22.2670  -31.0720 C   0  0  0  0  0  0  0  0  0  0  0  0
   -7.2350   23.4790  -30.6510 C   0  0  0  0  0  0  0  0  0  0  0  0
   -5.9470   23.8370  -31.0320 C   0  0  0  0  0  0  0  0  0  0  0  0
   -5.2620   25.3590  -30.4890 Cl  0  0  0  0  0  0  0  0  0  0  0  0
   -5.1900   22.9760  -31.8240 C   0  0  0  0  0  0  0  0  0  0  0  0
   -5.7240   21.7460  -32.2620 C   0  0  0  0  0  0  0  0  0  0  0  0
   -0.3300   27.9220  -33.5670 H   0  0  0  0  0  0  0  0  0  0  0  0
   -1.4989   29.2347  -33.9373 H   0  0  0  0  0  0  0  0  0  0  0  0
   -2.0417   27.5224  -33.9373 H   0  0  0  0  0  0  0  0  0  0  0  0
   -1.6894   28.5052  -36.2464 H   0  0  0  0  0  0  0  0  0  0  0  0
    0.0700   28.6502  -35.8317 H   0  0  0  0  0  0  0  0  0  0  0  0
    0.0267   26.3362  -38.0325 H   0  0  0  0  0  0  0  0  0  0  0  0
   -1.5188   25.4902  -37.5292 H   0  0  0  0  0  0  0  0  0  0  0  0
   -2.2583   28.1264  -37.4081 H   0  0  0  0  0  0  0  0  0  0  0  0
   -1.1257   28.1334  -38.8024 H   0  0  0  0  0  0  0  0  0  0  0  0
   -2.5434   27.0303  -38.8024 H   0  0  0  0  0  0  0  0  0  0  0  0
    1.4617   26.9569  -35.9652 H   0  0  0  0  0  0  0  0  0  0  0  0
    0.7363   26.0613  -34.5801 H   0  0  0  0  0  0  0  0  0  0  0  0
    0.6472   24.9047  -37.3920 H   0  0  0  0  0  0  0  0  0  0  0  0
    2.1162   24.7246  -36.3657 H   0  0  0  0  0  0  0  0  0  0  0  0
    0.1727   22.1708  -36.8884 H   0  0  0  0  0  0  0  0  0  0  0  0
    1.8651   22.6896  -36.6081 H   0  0  0  0  0  0  0  0  0  0  0  0
    2.0328   21.3237  -34.8123 H   0  0  0  0  0  0  0  0  0  0  0  0
    0.5727   22.0764  -34.0689 H   0  0  0  0  0  0  0  0  0  0  0  0
   -1.2824   19.2931  -34.4182 H   0  0  0  0  0  0  0  0  0  0  0  0
    0.1933   19.5203  -33.3953 H   0  0  0  0  0  0  0  0  0  0  0  0
   -0.4626   21.5975  -32.6495 H   0  0  0  0  0  0  0  0  0  0  0  0
   -1.4145   21.9431  -34.1557 H   0  0  0  0  0  0  0  0  0  0  0  0
   -2.4914   19.6920  -32.5825 H   0  0  0  0  0  0  0  0  0  0  0  0
   -2.4820   21.2603  -31.6893 H   0  0  0  0  0  0  0  0  0  0  0  0
   -3.5200   21.8750  -34.2630 H   0  0  0  0  0  0  0  0  0  0  0  0
   -3.6392   18.9297  -34.3539 H   0  0  0  0  0  0  0  0  0  0  0  0
   -4.5047   16.6478  -34.8369 H   0  0  0  0  0  0  0  0  0  0  0  0
   -6.7683   15.9794  -34.0471 H   0  0  0  0  0  0  0  0  0  0  0  0
   -8.2129   17.6113  -32.8570 H   0  0  0  0  0  0  0  0  0  0  0  0
   -9.3008   19.8902  -31.1483 H   0  0  0  0  0  0  0  0  0  0  0  0
   -9.6042   20.7487  -32.6967 H   0  0  0  0  0  0  0  0  0  0  0  0
   -9.2933   18.9796  -32.6967 H   0  0  0  0  0  0  0  0  0  0  0  0
   -8.7960   21.9907  -30.7504 H   0  0  0  0  0  0  0  0  0  0  0  0
   -7.8258   24.1545  -30.0149 H   0  0  0  0  0  0  0  0  0  0  0  0
   -4.1661   23.2582  -32.1104 H   0  0  0  0  0  0  0  0  0  0  0  0
  1  2  1  0
  2  3  1  0
  3  4  1  0
  4  5  1  0
  3  6  1  0
  6  7  1  0
  7  8  1  0
  8  9  1  0
  9 10  1  0
 10 11  1  0
 11 12  1  0
 12 13  1  0
 13 14  1  0
 14 15  1  0
 15 16  1  0
 16 17  2  0
 17 18  1  0
 18 19  2  0
 19 20  1  0
 20 21  2  0
 21 22  1  0
 22 23  2  0
 23 24  1  0
 23 25  1  0
 25 26  2  0
 26 27  1  0
 27 28  2  0
 28 29  1  0
 28 30  1  0
 30 31  2  0
 31 16  1  0
 22 17  1  0
 31 25  1  0
  1 32  1  0
  1 33  1  0
  1 34  1  0
  2 35  1  0
  2 36  1  0
  4 37  1  0
  4 38  1  0
  5 39  1  0
  5 40  1  0
  5 41  1  0
  6 42  1  0
  6 43  1  0
  7 44  1  0
  7 45  1  0
  9 46  1  0
  9 47  1  0
 10 48  1  0
 10 49  1  0
 12 50  1  0
 12 51  1  0
 13 52  1  0
 13 53  1  0
 14 54  1  0
 14 55  1  0
 15 56  1  0
 18 57  1  0
 19 58  1  0
 20 59  1  0
 21 60  1  0
 24 61  1  0
 24 62  1  0
 24 63  1  0
 26 64  1  0
 27 65  1  0
 30 66  1  0
M  CHG  1  23   1
M  END
>  <UniqueID>  (2) 
2

>  <SMILES>  (2) 
CCN(CC)CCOCCOCCCNc1c2ccccc2[n+](C)c2ccc(Cl)cc12

>  <Energy>  (2) 
92.98277826647693

>  <Genealogy>  (2) 
CCN(CC)CCOCCOCCCNc1c2ccccc2[n+](C)c2ccc(Cl)cc12 (3D coordinates assigned)
CCN(CC)CCOCCOCCCNc1c2ccccc2[n+](C)c2ccc(Cl)cc12 (optimized conformer: 92.98277826647693 kcal/mol)

>  <smiles>  (2) 
CCN(CC)CCOCCOCCCNc1c2ccccc2[n+](C)c2ccc(Cl)cc12

>  <score_type>  (2) 
oracle

>  <origin>  (2) 
adg

>  <m_score__min__energy>  (2) 
-10.42

>  <m_primary>  (2) 
energy

$$$$
2:0
     RDKit          3D

 73 76  0  0  0  0  0  0  0  0999 V2000
   -3.0940   18.8960  -26.2700 C   0  0  0  0  0  0  0  0  0  0  0  0
   -1.7400   18.5570  -26.9040 C   0  0  0  0  0  0  0  0  0  0  0  0
   -1.1860   19.6100  -27.7940 N   0  0  2  0  0  0  0  0  0  0  0  0
    0.2910   19.6040  -27.8280 C   0  0  0  0  0  0  0  0  0  0  0  0
   -1.8220   20.9520  -27.6110 C   0  0  0  0  0  0  0  0  0  0  0  0
   -2.6550   21.4950  -28.7930 C   0  0  0  0  0  0  0  0  0  0  0  0
   -2.3100   20.8350  -29.9930 O   0  0  0  0  0  0  0  0  0  0  0  0
   -1.1430   21.3930  -30.5670 C   0  0  0  0  0  0  0  0  0  0  0  0
   -0.1640   20.3110  -31.0430 C   0  0  0  0  0  0  0  0  0  0  0  0
   -0.6500   19.0170  -30.7380 O   0  0  0  0  0  0  0  0  0  0  0  0
    0.2180   18.0090  -31.2200 C   0  0  0  0  0  0  0  0  0  0  0  0
   -0.1010   17.6670  -32.6740 C   0  0  0  0  0  0  0  0  0  0  0  0
   -1.4350   18.0260  -32.9630 O   0  0  0  0  0  0  0  0  0  0  0  0
   -1.4710   18.7790  -34.1580 C   0  0  0  0  0  0  0  0  0  0  0  0
   -2.3970   19.9810  -33.9830 C   0  0  0  0  0  0  0  0  0  0  0  0
   -2.9520   20.0390  -32.6290 N   0  0  0  0  0  0  0  0  0  0  0  0
   -4.3510   20.2830  -32.4370 C   0  0  0  0  0  0  0  0  0  0  0  0
   -4.7710   21.5150  -31.9500 C   0  0  0  0  0  0  0  0  0  0  0  0
   -6.1060   21.7600  -31.6900 C   0  0  0  0  0  0  0  0  0  0  0  0
   -7.0850   20.8510  -32.0050 N   0  0  0  0  0  0  0  0  0  0  0  0
   -8.4970   21.2610  -32.0100 C   0  0  0  0  0  0  0  0  0  0  0  0
   -6.7030   19.5760  -32.3950 C   0  0  0  0  0  0  0  0  0  0  0  0
   -7.6440   18.5260  -32.5310 C   0  0  0  0  0  0  0  0  0  0  0  0
   -7.2530   17.2670  -32.9860 C   0  0  0  0  0  0  0  0  0  0  0  0
   -5.9230   17.0190  -33.3130 C   0  0  0  0  0  0  0  0  0  0  0  0
   -4.9630   18.0180  -33.1530 C   0  0  0  0  0  0  0  0  0  0  0  0
   -5.3240   19.2860  -32.6600 C   0  0  0  0  0  0  0  0  0  0  0  0
   -6.2020   23.0930  -31.0780 C   0  0  0  0  0  0  0  0  0  0  0  0
   -7.2650   23.7520  -30.4430 C   0  0  0  0  0  0  0  0  0  0  0  0
   -7.0320   25.0140  -29.8730 C   0  0  0  0  0  0  0  0  0  0  0  0
   -5.7470   25.5810  -29.8990 C   0  0  0  0  0  0  0  0  0  0  0  0
   -4.6770   24.8800  -30.4740 C   0  0  0  0  0  0  0  0  0  0  0  0
   -4.9260   23.6330  -31.0500 C   0  0  0  0  0  0  0  0  0  0  0  0
   -3.9060   22.6890  -31.6020 C   0  0  0  0  0  0  0  0  0  0  0  0
   -3.0018   18.8729  -25.1741 H   0  0  0  0  0  0  0  0  0  0  0  0
   -3.4077   19.9004  -26.5905 H   0  0  0  0  0  0  0  0  0  0  0  0
   -3.8440   18.1579  -26.5905 H   0  0  0  0  0  0  0  0  0  0  0  0
   -1.0178   18.3796  -26.0935 H   0  0  0  0  0  0  0  0  0  0  0  0
   -1.9080   17.6737  -27.5377 H   0  0  0  0  0  0  0  0  0  0  0  0
   -1.4680   19.3000  -28.7560 H   0  0  0  0  0  0  0  0  0  0  0  0
    0.6814   19.6024  -26.7996 H   0  0  0  0  0  0  0  0  0  0  0  0
    0.6420   18.7044  -28.3548 H   0  0  0  0  0  0  0  0  0  0  0  0
    0.6493   20.5007  -28.3548 H   0  0  0  0  0  0  0  0  0  0  0  0
   -2.4866   20.8888  -26.7368 H   0  0  0  0  0  0  0  0  0  0  0  0
   -0.9834   21.6556  -27.5027 H   0  0  0  0  0  0  0  0  0  0  0  0
   -3.7232   21.3330  -28.5862 H   0  0  0  0  0  0  0  0  0  0  0  0
   -2.4466   22.5689  -28.9081 H   0  0  0  0  0  0  0  0  0  0  0  0
   -1.4323   22.0140  -31.4277 H   0  0  0  0  0  0  0  0  0  0  0  0
   -0.6381   21.9933  -29.7958 H   0  0  0  0  0  0  0  0  0  0  0  0
   -0.0327   20.3985  -32.1316 H   0  0  0  0  0  0  0  0  0  0  0  0
    0.7961   20.4554  -30.5260 H   0  0  0  0  0  0  0  0  0  0  0  0
    1.2565   18.3653  -31.1530 H   0  0  0  0  0  0  0  0  0  0  0  0
    0.0825   17.1052  -30.6077 H   0  0  0  0  0  0  0  0  0  0  0  0
    0.5792   18.2206  -33.3380 H   0  0  0  0  0  0  0  0  0  0  0  0
    0.0289   16.5862  -32.8321 H   0  0  0  0  0  0  0  0  0  0  0  0
   -0.4570   19.1309  -34.3988 H   0  0  0  0  0  0  0  0  0  0  0  0
   -1.8470   18.1462  -34.9754 H   0  0  0  0  0  0  0  0  0  0  0  0
   -1.8272   20.9020  -34.1754 H   0  0  0  0  0  0  0  0  0  0  0  0
   -3.2307   19.8804  -34.6935 H   0  0  0  0  0  0  0  0  0  0  0  0
   -2.4160   19.6300  -31.8310 H   0  0  0  0  0  0  0  0  0  0  0  0
   -8.8525   21.3642  -30.9742 H   0  0  0  0  0  0  0  0  0  0  0  0
   -8.5970   22.2253  -32.5298 H   0  0  0  0  0  0  0  0  0  0  0  0
   -9.0979   20.5002  -32.5298 H   0  0  0  0  0  0  0  0  0  0  0  0
   -8.6983   18.7062  -32.2740 H   0  0  0  0  0  0  0  0  0  0  0  0
   -7.9997   16.4656  -33.0870 H   0  0  0  0  0  0  0  0  0  0  0  0
   -5.6281   16.0320  -33.6988 H   0  0  0  0  0  0  0  0  0  0  0  0
   -3.9143   17.8131  -33.4144 H   0  0  0  0  0  0  0  0  0  0  0  0
   -8.2617   23.2893  -30.3925 H   0  0  0  0  0  0  0  0  0  0  0  0
   -7.8615   25.5625  -29.4028 H   0  0  0  0  0  0  0  0  0  0  0  0
   -5.5794   26.5785  -29.4668 H   0  0  0  0  0  0  0  0  0  0  0  0
   -3.6621   25.3042  -30.4712 H   0  0  0  0  0  0  0  0  0  0  0  0
   -3.4094   23.1040  -32.4915 H   0  0  0  0  0  0  0  0  0  0  0  0
   -3.0791   22.4581  -30.9143 H   0  0  0  0  0  0  0  0  0  0  0  0
  1  2  1  0
  2  3  1  0
  3  4  1  0
  3  5  1  0
  5  6  1  0
  6  7  1  0
  7  8  1  0
  8  9  1  0
  9 10  1  0
 10 11  1  0
 11 12  1  0
 12 13  1  0
 13 14  1  0
 14 15  1  0
 15 16  1  0
 16 17  1  0
 17 18  2  0
 18 19  1  0
 19 20  2  0
 20 21  1  0
 20 22  1  0
 22 23  2  0
 23 24  1  0
 24 25  2  0
 25 26  1  0
 26 27  2  0
 19 28  1  0
 28 29  2  0
 29 30  1  0
 30 31  2  0
 31 32  1  0
 32 33  2  0
 33 34  1  0
 27 17  1  0
 33 28  1  0
 34 18  1  0
 27 22  1  0
  1 35  1  0
  1 36  1  0
  1 37  1  0
  2 38  1  0
  2 39  1  0
  3 40  1  6
  4 41  1  0
  4 42  1  0
  4 43  1  0
  5 44  1  0
  5 45  1  0
  6 46  1  0
  6 47  1  0
  8 48  1  0
  8 49  1  0
  9 50  1  0
  9 51  1  0
 11 52  1  0
 11 53  1  0
 12 54  1  0
 12 55  1  0
 14 56  1  0
 14 57  1  0
 15 58  1  0
 15 59  1  0
 16 60  1  0
 21 61  1  0
 21 62  1  0
 21 63  1  0
 23 64  1  0
 24 65  1  0
 25 66  1  0
 26 67  1  0
 29 68  1  0
 30 69  1  0
 31 70  1  0
 32 71  1  0
 34 72  1  0
 34 73  1  0
M  CHG  2   3   1  20   1
M  END
>  <UniqueID>  (3) 
3

>  <SMILES>  (3) 
CC[N@H+](C)CCOCCOCCOCCNc1c2c([n+](C)c3ccccc13)-c1ccccc1C2

>  <Energy>  (3) 
127.54319817798763

>  <Genealogy>  (3) 
CC[NH+](C)CCOCCOCCOCCNc1c2c([n+](C)c3ccccc13)-c1ccccc1C2 (protonated)
CC[N@H+](C)CCOCCOCCOCCNc1c2c([n+](C)c3ccccc13)-c1ccccc1C2 (chirality)
CC[N@H+](C)CCOCCOCCOCCNc1c2c([n+](C)c3ccccc13)-c1ccccc1C2 (3D coordinates assigned)
CC[N@H+](C)CCOCCOCCOCCNc1c2c([n+](C)c3ccccc13)-c1ccccc1C2 (nonaromatic ring conformer: 127.54319817798763 kcal/mol)

>  <smiles>  (3) 
CCN(C)CCOCCOCCOCCNc1c2c([n+](C)c3ccccc13)-c1ccccc1C2

>  <score_type>  (3) 
oracle

>  <origin>  (3) 
adg

>  <m_score__min__energy>  (3) 
-10.710000000000001

>  <m_primary>  (3) 
energy

$$$$
3:0
     RDKit          3D

 50 52  0  0  0  0  0  0  0  0999 V2000
   -9.1030   18.1960  -31.2600 C   0  0  0  0  0  0  0  0  0  0  0  0
   -8.1660   18.8760  -32.1480 N   0  0  0  0  0  0  0  0  0  0  0  0
   -7.0940   18.2940  -32.6610 N   0  0  0  0  0  0  0  0  0  0  0  0
   -6.4700   19.2090  -33.4290 C   0  0  0  0  0  0  0  0  0  0  0  0
   -5.2400   18.9270  -34.2310 C   0  0  0  0  0  0  0  0  0  0  0  0
   -4.3910   17.9710  -33.5070 N   0  0  0  0  0  0  0  0  0  0  0  0
   -3.1510   18.6100  -33.0200 C   0  0  0  0  0  0  0  0  0  0  0  0
   -2.1450   18.7850  -34.1850 C   0  0  0  0  0  0  0  0  0  0  0  0
   -1.1400   19.9020  -33.8770 C   0  0  0  0  0  0  0  0  0  0  0  0
   -1.7880   21.2180  -33.6990 N   0  0  0  0  0  0  0  0  0  0  0  0
   -3.2030   21.1530  -33.2850 C   0  0  0  0  0  0  0  0  0  0  0  0
   -3.4740   19.9700  -32.3460 C   0  0  0  0  0  0  0  0  0  0  0  0
   -7.1740   20.3980  -33.4230 C   0  0  0  0  0  0  0  0  0  0  0  0
   -8.2540   20.1450  -32.6010 C   0  0  0  0  0  0  0  0  0  0  0  0
   -9.3020   21.1440  -32.2090 C   0  0  0  0  0  0  0  0  0  0  0  0
   -8.7410   22.0980  -31.2460 N   0  0  0  0  0  0  0  0  0  0  0  0
   -8.2340   23.2850  -31.9410 C   0  0  0  0  0  0  0  0  0  0  0  0
   -6.9180   23.6990  -31.3420 C   0  0  0  0  0  0  0  0  0  0  0  0
   -6.8530   24.8010  -30.4740 C   0  0  0  0  0  0  0  0  0  0  0  0
   -5.6240   25.2090  -29.9450 C   0  0  0  0  0  0  0  0  0  0  0  0
   -4.4520   24.5280  -30.2880 C   0  0  0  0  0  0  0  0  0  0  0  0
   -3.2620   24.9260  -29.7770 F   0  0  0  0  0  0  0  0  0  0  0  0
   -4.5080   23.4400  -31.1650 C   0  0  0  0  0  0  0  0  0  0  0  0
   -5.7340   23.0290  -31.6950 C   0  0  0  0  0  0  0  0  0  0  0  0
   -8.8276   18.3958  -30.2139 H   0  0  0  0  0  0  0  0  0  0  0  0
  -10.1214   18.5667  -31.4483 H   0  0  0  0  0  0  0  0  0  0  0  0
   -9.0664   17.1129  -31.4483 H   0  0  0  0  0  0  0  0  0  0  0  0
   -5.5264   18.4997  -35.2033 H   0  0  0  0  0  0  0  0  0  0  0  0
   -4.6842   19.8627  -34.3907 H   0  0  0  0  0  0  0  0  0  0  0  0
   -4.9510   17.6360  -32.6870 H   0  0  0  0  0  0  0  0  0  0  0  0
   -2.6863   17.9598  -32.2642 H   0  0  0  0  0  0  0  0  0  0  0  0
   -1.5999   17.8414  -34.3350 H   0  0  0  0  0  0  0  0  0  0  0  0
   -2.7030   19.0549  -35.0937 H   0  0  0  0  0  0  0  0  0  0  0  0
   -0.6021   19.6465  -32.9521 H   0  0  0  0  0  0  0  0  0  0  0  0
   -0.4571   19.9810  -34.7357 H   0  0  0  0  0  0  0  0  0  0  0  0
   -1.7440   21.7380  -34.6060 H   0  0  0  0  0  0  0  0  0  0  0  0
   -3.4639   22.0863  -32.7646 H   0  0  0  0  0  0  0  0  0  0  0  0
   -3.8152   21.0164  -34.1886 H   0  0  0  0  0  0  0  0  0  0  0  0
   -2.8489   20.0788  -31.4474 H   0  0  0  0  0  0  0  0  0  0  0  0
   -4.5434   19.9773  -32.0886 H   0  0  0  0  0  0  0  0  0  0  0  0
   -6.9301   21.3313  -33.9515 H   0  0  0  0  0  0  0  0  0  0  0  0
   -9.6435   21.6856  -33.1035 H   0  0  0  0  0  0  0  0  0  0  0  0
  -10.1515   20.6186  -31.7482 H   0  0  0  0  0  0  0  0  0  0  0  0
   -9.5130   22.4050  -30.6090 H   0  0  0  0  0  0  0  0  0  0  0  0
   -8.0937   23.0526  -33.0070 H   0  0  0  0  0  0  0  0  0  0  0  0
   -8.9576   24.1066  -31.8344 H   0  0  0  0  0  0  0  0  0  0  0  0
   -7.7716   25.3452  -30.2092 H   0  0  0  0  0  0  0  0  0  0  0  0
   -5.5795   26.0670  -29.2581 H   0  0  0  0  0  0  0  0  0  0  0  0
   -3.5854   22.9069  -31.4381 H   0  0  0  0  0  0  0  0  0  0  0  0
   -5.7725   22.1780  -32.3910 H   0  0  0  0  0  0  0  0  0  0  0  0
  1  2  1  0
  2  3  1  0
  3  4  2  0
  4  5  1  0
  5  6  1  0
  6  7  1  0
  7  8  1  0
  8  9  1  0
  9 10  1  0
 10 11  1  0
 11 12  1  0
  4 13  1  0
 13 14  2  0
 14 15  1  0
 15 16  1  0
 16 17  1  0
 17 18  1  0
 18 19  2  0
 19 20  1  0
 20 21  2  0
 21 22  1  0
 21 23  1  0
 23 24  2  0
 14  2  1  0
 24 18  1  0
 12  7  1  0
  1 25  1  0
  1 26  1  0
  1 27  1  0
  5 28  1  0
  5 29  1  0
  6 30  1  0
  7 31  1  0
  8 32  1  0
  8 33  1  0
  9 34  1  0
  9 35  1  0
 10 36  1  0
 11 37  1  0
 11 38  1  0
 12 39  1  0
 12 40  1  0
 13 41  1  0
 15 42  1  0
 15 43  1  0
 16 44  1  0
 17 45  1  0
 17 46  1  0
 19 47  1  0
 20 48  1  0
 23 49  1  0
 24 50  1  0
M  END
>  <UniqueID>  (4) 
4

>  <SMILES>  (4) 
Cn1nc(CNC2CCNCC2)cc1CNCc1ccc(F)cc1

>  <Energy>  (4) 
82.10399132803252

>  <Genealogy>  (4) 
Cn1nc(CNC2CCNCC2)cc1CNCc1ccc(F)cc1 (3D coordinates assigned)
Cn1nc(CNC2CCNCC2)cc1CNCc1ccc(F)cc1 (nonaromatic ring conformer: 82.10399132803252 kcal/mol)

>  <smiles>  (4) 
Cn1nc(CNC2CCNCC2)cc1CNCc1ccc(F)cc1

>  <score_type>  (4) 
oracle

>  <origin>  (4) 
adg

>  <m_score__min__energy>  (4) 
-8.6899999999999995

>  <m_primary>  (4) 
energy

$$$$
4:0
     RDKit          3D

 51 53  0  0  0  0  0  0  0  0999 V2000
   -2.7320   20.0180  -27.3540 C   0  0  0  0  0  0  0  0  0  0  0  0
   -2.3460   21.4370  -27.8000 C   0  0  0  0  0  0  0  0  0  0  0  0
   -3.1230   21.9400  -28.9600 N   0  0  0  0  0  0  0  0  0  0  0  0
   -3.0610   21.0890  -30.1690 C   0  0  0  0  0  0  0  0  0  0  0  0
   -1.9670   21.5430  -31.1340 C   0  0  0  0  0  0  0  0  0  0  0  0
   -2.8430   23.3640  -29.2590 C   0  0  0  0  0  0  0  0  0  0  0  0
   -4.1570   24.1280  -29.3980 C   0  0  0  0  0  0  0  0  0  0  0  0
   -4.3000   24.5710  -30.7320 O   0  0  0  0  0  0  0  0  0  0  0  0
   -5.4820   25.3340  -30.8540 C   0  0  0  0  0  0  0  0  0  0  0  0
   -6.6040   24.6450  -30.0890 C   0  0  0  0  0  0  0  0  0  0  0  0
   -6.7390   23.3070  -30.5580 O   0  0  0  0  0  0  0  0  0  0  0  0
   -7.7180   22.9060  -31.4690 C   0  0  0  0  0  0  0  0  0  0  0  0
   -8.5200   23.7570  -31.9470 O   0  0  0  0  0  0  0  0  0  0  0  0
   -7.8120   21.4860  -31.8790 C   0  0  0  0  0  0  0  0  0  0  0  0
   -9.0180   20.7740  -31.7100 C   0  0  0  0  0  0  0  0  0  0  0  0
   -9.1180   19.4230  -32.0860 C   0  0  0  0  0  0  0  0  0  0  0  0
   -8.0150   18.7470  -32.6260 C   0  0  0  0  0  0  0  0  0  0  0  0
   -6.8100   19.4390  -32.7900 C   0  0  0  0  0  0  0  0  0  0  0  0
   -6.7190   20.7860  -32.4260 C   0  0  0  0  0  0  0  0  0  0  0  0
   -5.1430   21.3350  -32.7140 S   0  0  0  0  0  0  0  0  0  0  0  0
   -4.5800   19.8670  -33.3050 C   0  0  0  0  0  0  0  0  0  0  0  0
   -3.2950   19.5650  -33.7500 C   0  0  0  0  0  0  0  0  0  0  0  0
   -3.0380   18.2620  -34.1980 C   0  0  0  0  0  0  0  0  0  0  0  0
   -4.0590   17.2930  -34.1900 C   0  0  0  0  0  0  0  0  0  0  0  0
   -5.3480   17.6170  -33.7340 C   0  0  0  0  0  0  0  0  0  0  0  0
   -5.6000   18.9220  -33.2890 C   0  0  0  0  0  0  0  0  0  0  0  0
   -2.7451   19.9699  -26.2551 H   0  0  0  0  0  0  0  0  0  0  0  0
   -3.7303   19.7699  -27.7438 H   0  0  0  0  0  0  0  0  0  0  0  0
   -1.9970   19.2984  -27.7438 H   0  0  0  0  0  0  0  0  0  0  0  0
   -2.5071   22.1209  -26.9536 H   0  0  0  0  0  0  0  0  0  0  0  0
   -1.2937   21.3944  -28.1176 H   0  0  0  0  0  0  0  0  0  0  0  0
   -2.8568   20.0523  -29.8633 H   0  0  0  0  0  0  0  0  0  0  0  0
   -4.0268   21.1679  -30.6895 H   0  0  0  0  0  0  0  0  0  0  0  0
   -1.0994   21.9030  -30.5616 H   0  0  0  0  0  0  0  0  0  0  0  0
   -1.6627   20.6969  -31.7676 H   0  0  0  0  0  0  0  0  0  0  0  0
   -2.3512   22.3560  -31.7676 H   0  0  0  0  0  0  0  0  0  0  0  0
   -2.2512   23.8000  -28.4407 H   0  0  0  0  0  0  0  0  0  0  0  0
   -2.2790   23.4346  -30.2007 H   0  0  0  0  0  0  0  0  0  0  0  0
   -4.9963   23.4660  -29.1386 H   0  0  0  0  0  0  0  0  0  0  0  0
   -4.1534   24.9943  -28.7201 H   0  0  0  0  0  0  0  0  0  0  0  0
   -5.3160   26.3387  -30.4379 H   0  0  0  0  0  0  0  0  0  0  0  0
   -5.7577   25.4212  -31.9153 H   0  0  0  0  0  0  0  0  0  0  0  0
   -6.3654   24.6360  -29.0152 H   0  0  0  0  0  0  0  0  0  0  0  0
   -7.5470   25.1887  -30.2476 H   0  0  0  0  0  0  0  0  0  0  0  0
   -9.8923   21.2829  -31.2780 H   0  0  0  0  0  0  0  0  0  0  0  0
  -10.0718   18.8908  -31.9551 H   0  0  0  0  0  0  0  0  0  0  0  0
   -8.0956   17.6891  -32.9163 H   0  0  0  0  0  0  0  0  0  0  0  0
   -2.5032   20.3286  -33.7498 H   0  0  0  0  0  0  0  0  0  0  0  0
   -2.0333   17.9953  -34.5577 H   0  0  0  0  0  0  0  0  0  0  0  0
   -3.8460   16.2734  -34.5437 H   0  0  0  0  0  0  0  0  0  0  0  0
   -6.1456   16.8595  -33.7264 H   0  0  0  0  0  0  0  0  0  0  0  0
  1  2  1  0
  2  3  1  0
  3  4  1  0
  4  5  1  0
  3  6  1  0
  6  7  1  0
  7  8  1  0
  8  9  1  0
  9 10  1  0
 10 11  1  0
 11 12  1  0
 12 13  2  0
 12 14  1  0
 14 15  2  0
 15 16  1  0
 16 17  2  0
 17 18  1  0
 18 19  2  0
 19 20  1  0
 20 21  1  0
 21 22  2  0
 22 23  1  0
 23 24  2  0
 24 25  1  0
 25 26  2  0
 19 14  1  0
 26 21  1  0
 26 18  1  0
  1 27  1  0
  1 28  1  0
  1 29  1  0
  2 30  1  0
  2 31  1  0
  4 32  1  0
  4 33  1  0
  5 34  1  0
  5 35  1  0
  5 36  1  0
  6 37  1  0
  6 38  1  0
  7 39  1  0
  7 40  1  0
  9 41  1  0
  9 42  1  0
 10 43  1  0
 10 44  1  0
 15 45  1  0
 16 46  1  0
 17 47  1  0
 22 48  1  0
 23 49  1  0
 24 50  1  0
 25 51  1  0
M  END
>  <UniqueID>  (5) 
5

>  <SMILES>  (5) 
CCN(CC)CCOCCOC(=O)c1cccc2c1sc1ccccc12

>  <Energy>  (5) 
86.40884272057346

>  <Genealogy>  (5) 
CCN(CC)CCOCCOC(=O)c1cccc2c1sc1ccccc12 (3D coordinates assigned)
CCN(CC)CCOCCOC(=O)c1cccc2c1sc1ccccc12 (optimized conformer: 86.40884272057346 kcal/mol)

>  <smiles>  (5) 
CCN(CC)CCOCCOC(=O)c1cccc2c1sc1ccccc12

>  <score_type>  (5) 
oracle

>  <origin>  (5) 
adg

>  <m_score__min__energy>  (5) 
-9

>  <m_primary>  (5) 
energy

$$$$
5:0
     RDKit          3D

 55 59  0  0  0  0  0  0  0  0999 V2000
   -1.5070   20.6050  -30.2750 C   0  0  0  0  0  0  0  0  0  0  0  0
   -2.3930   21.3570  -31.1620 N   0  0  0  0  0  0  0  0  0  0  0  0
   -2.8910   22.5990  -30.9690 C   0  0  0  0  0  0  0  0  0  0  0  0
   -2.5570   23.6330  -29.5400 S   0  0  0  0  0  0  0  0  0  0  0  0
   -4.1720   23.2760  -28.7680 C   0  0  0  0  0  0  0  0  0  0  0  0
   -5.0170   24.5500  -28.7170 C   0  0  0  0  0  0  0  0  0  0  0  0
   -6.2060   24.5330  -29.6940 C   0  0  0  0  0  0  0  0  0  0  0  0
   -5.9890   23.5800  -30.8070 N   0  0  0  0  0  0  0  0  0  0  0  0
   -6.6910   24.0070  -32.0340 C   0  0  0  0  0  0  0  0  0  0  0  0
   -7.3670   22.8000  -32.6570 C   0  0  2  0  0  0  0  0  0  0  0  0
   -8.6010   22.2820  -31.9300 C   0  0  0  0  0  0  0  0  0  0  0  0
   -7.2290   21.6770  -31.6640 C   0  0  1  0  0  0  0  0  0  0  0  0
   -6.9190   20.3240  -32.2500 C   0  0  0  0  0  0  0  0  0  0  0  0
   -6.2600   20.2310  -33.4840 C   0  0  0  0  0  0  0  0  0  0  0  0
   -5.9950   18.9800  -34.0500 C   0  0  0  0  0  0  0  0  0  0  0  0
   -6.3800   17.8020  -33.3860 C   0  0  0  0  0  0  0  0  0  0  0  0
   -6.1290   16.4580  -34.0230 C   0  0  0  0  0  0  0  0  0  0  0  0
   -5.1780   16.5550  -35.0250 F   0  0  0  0  0  0  0  0  0  0  0  0
   -5.6790   15.5730  -33.0600 F   0  0  0  0  0  0  0  0  0  0  0  0
   -7.2940   15.9620  -34.5810 F   0  0  0  0  0  0  0  0  0  0  0  0
   -7.0860   17.9010  -32.1750 C   0  0  0  0  0  0  0  0  0  0  0  0
   -7.3530   19.1520  -31.6110 C   0  0  0  0  0  0  0  0  0  0  0  0
   -6.4280   22.2080  -30.4910 C   0  0  0  0  0  0  0  0  0  0  0  0
   -3.7030   22.9770  -31.9740 N   0  0  0  0  0  0  0  0  0  0  0  0
   -3.7210   21.9680  -32.8290 N   0  0  0  0  0  0  0  0  0  0  0  0
   -2.9240   20.9940  -32.3530 C   0  0  0  0  0  0  0  0  0  0  0  0
   -2.7170   19.7150  -33.0650 C   0  0  0  0  0  0  0  0  0  0  0  0
   -1.9600   19.4920  -34.2030 C   0  0  0  0  0  0  0  0  0  0  0  0
   -2.1010   18.1500  -34.4890 C   0  0  0  0  0  0  0  0  0  0  0  0
   -2.9340   17.6370  -33.5170 C   0  0  0  0  0  0  0  0  0  0  0  0
   -3.2860   18.5920  -32.6890 O   0  0  0  0  0  0  0  0  0  0  0  0
   -1.7645   20.8236  -29.2281 H   0  0  0  0  0  0  0  0  0  0  0  0
   -1.6261   19.5281  -30.4647 H   0  0  0  0  0  0  0  0  0  0  0  0
   -0.4637   20.8976  -30.4647 H   0  0  0  0  0  0  0  0  0  0  0  0
   -4.6984   22.5125  -29.3596 H   0  0  0  0  0  0  0  0  0  0  0  0
   -4.0107   22.9069  -27.7444 H   0  0  0  0  0  0  0  0  0  0  0  0
   -5.4067   24.6695  -27.6953 H   0  0  0  0  0  0  0  0  0  0  0  0
   -4.3648   25.3849  -29.0130 H   0  0  0  0  0  0  0  0  0  0  0  0
   -7.1134   24.2396  -29.1457 H   0  0  0  0  0  0  0  0  0  0  0  0
   -6.3116   25.5408  -30.1221 H   0  0  0  0  0  0  0  0  0  0  0  0
   -7.4473   24.7651  -31.7822 H   0  0  0  0  0  0  0  0  0  0  0  0
   -5.9713   24.4398  -32.7444 H   0  0  0  0  0  0  0  0  0  0  0  0
   -7.1791   23.0000  -33.7222 H   0  0  0  0  0  0  0  0  0  0  0  0
   -9.0899   22.9003  -31.1627 H   0  0  0  0  0  0  0  0  0  0  0  0
   -9.5825   21.8908  -32.2359 H   0  0  0  0  0  0  0  0  0  0  0  0
   -5.9500   21.1463  -34.0094 H   0  0  0  0  0  0  0  0  0  0  0  0
   -5.4820   18.9172  -35.0210 H   0  0  0  0  0  0  0  0  0  0  0  0
   -7.4309   16.9881  -31.6674 H   0  0  0  0  0  0  0  0  0  0  0  0
   -7.9057   19.2182  -30.6622 H   0  0  0  0  0  0  0  0  0  0  0  0
   -7.0553   22.2180  -29.5875 H   0  0  0  0  0  0  0  0  0  0  0  0
   -5.5541   21.5651  -30.3094 H   0  0  0  0  0  0  0  0  0  0  0  0
   -4.2650   21.9590  -33.7210 H   0  0  0  0  0  0  0  0  0  0  0  0
   -1.3688   20.2317  -34.7628 H   0  0  0  0  0  0  0  0  0  0  0  0
   -1.6418   17.6001  -35.3237 H   0  0  0  0  0  0  0  0  0  0  0  0
   -3.2545   16.5871  -33.4466 H   0  0  0  0  0  0  0  0  0  0  0  0
  1  2  1  0
  2  3  1  0
  3  4  1  0
  4  5  1  0
  5  6  1  0
  6  7  1  0
  7  8  1  0
  8  9  1  0
  9 10  1  0
 10 11  1  0
 11 12  1  0
 12 13  1  6
 13 14  2  0
 14 15  1  0
 15 16  2  0
 16 17  1  0
 17 18  1  0
 17 19  1  0
 17 20  1  0
 16 21  1  0
 21 22  2  0
 12 23  1  0
  3 24  2  0
 24 25  1  0
 25 26  2  0
 26 27  1  0
 27 28  2  0
 28 29  1  0
 29 30  2  0
 30 31  1  0
 26  2  1  0
 31 27  1  0
 23  8  1  0
 12 10  1  0
 22 13  1  0
  1 32  1  0
  1 33  1  0
  1 34  1  0
  5 35  1  0
  5 36  1  0
  6 37  1  0
  6 38  1  0
  7 39  1  0
  7 40  1  0
  9 41  1  0
  9 42  1  0
 10 43  1  6
 11 44  1  0
 11 45  1  0
 14 46  1  0
 15 47  1  0
 21 48  1  0
 22 49  1  0
 23 50  1  0
 23 51  1  0
 25 52  1  0
 28 53  1  0
 29 54  1  0
 30 55  1  0
M  CHG  1  25   1
M  END
>  <UniqueID>  (6) 
6

>  <SMILES>  (6) 
Cn1c(SCCCN2C[C@@H]3C[C@]3(c3ccc(C(F)(F)F)cc3)C2)n[nH+]c1-c1ccco1

>  <Energy>  (6) 
389.2716954054359

>  <Genealogy>  (6) 
Cn1c(SCCCN2CC3CC3(c3ccc(C(F)(F)F)cc3)C2)n[nH+]c1-c1ccco1 (protonated)
Cn1c(SCCCN2C[C@@H]3C[C@]3(c3ccc(C(F)(F)F)cc3)C2)n[nH+]c1-c1ccco1 (chirality)
Cn1c(SCCCN2C[C@@H]3C[C@]3(c3ccc(C(F)(F)F)cc3)C2)n[nH+]c1-c1ccco1 (3D coordinates assigned)
Cn1c(SCCCN2C[C@@H]3C[C@]3(c3ccc(C(F)(F)F)cc3)C2)n[nH+]c1-c1ccco1 (nonaromatic ring conformer: 389.2716954054359 kcal/mol)

>  <smiles>  (6) 
Cn1c(SCCCN2CC3CC3(c3ccc(C(F)(F)F)cc3)C2)nnc1-c1ccco1

>  <score_type>  (6) 
oracle

>  <origin>  (6) 
adg

>  <m_score__min__energy>  (6) 
-9.5700000000000003

>  <m_primary>  (6) 
energy

$$$$
6:0
     RDKit          3D

 88 91  0  0  0  0  0  0  0  0999 V2000
   -2.3930   27.5940  -39.4500 C   0  0  0  0  0  0  0  0  0  0  0  0
   -1.9630   27.5330  -37.9760 C   0  0  0  0  0  0  0  0  0  0  0  0
   -0.5540   27.9380  -37.7250 N   0  0  0  0  0  0  0  0  0  0  0  0
   -0.1370   27.8360  -36.3080 C   0  0  0  0  0  0  0  0  0  0  0  0
   -1.3010   28.0860  -35.3500 C   0  0  0  0  0  0  0  0  0  0  0  0
    0.4080   27.2690  -38.6350 C   0  0  0  0  0  0  0  0  0  0  0  0
    1.5860   26.6700  -37.8500 C   0  0  0  0  0  0  0  0  0  0  0  0
    1.6710   25.2650  -37.9720 O   0  0  0  0  0  0  0  0  0  0  0  0
    1.9990   24.6600  -36.7340 C   0  0  0  0  0  0  0  0  0  0  0  0
    0.7230   24.1240  -36.0790 C   0  0  0  0  0  0  0  0  0  0  0  0
    1.0040   22.9820  -35.2880 O   0  0  0  0  0  0  0  0  0  0  0  0
    0.7180   21.7830  -35.9880 C   0  0  0  0  0  0  0  0  0  0  0  0
    1.6910   20.6720  -35.5850 C   0  0  0  0  0  0  0  0  0  0  0  0
    1.5050   20.3450  -34.2310 O   0  0  0  0  0  0  0  0  0  0  0  0
    1.5630   18.9860  -34.1590 N   0  0  0  0  0  0  0  0  0  0  0  0
    0.4500   18.5050  -33.3340 C   0  0  0  0  0  0  0  0  0  0  0  0
   -0.8860   18.5230  -34.1000 C   0  0  0  0  0  0  0  0  0  0  0  0
   -1.5790   19.9020  -34.0070 C   0  0  0  0  0  0  0  0  0  0  0  0
   -1.6780   20.4220  -32.6310 N   0  0  0  0  0  0  0  0  0  0  0  0
   -2.0460   21.8420  -32.5370 C   0  0  0  0  0  0  0  0  0  0  0  0
   -3.4510   22.0610  -31.9610 C   0  0  0  0  0  0  0  0  0  0  0  0
   -4.4880   21.8090  -32.9620 N   0  0  0  0  0  0  0  0  0  0  0  0
   -5.6000   20.9290  -32.7360 C   0  0  0  0  0  0  0  0  0  0  0  0
   -5.4720   19.5550  -32.9440 C   0  0  0  0  0  0  0  0  0  0  0  0
   -6.5640   18.7170  -32.8200 C   0  0  0  0  0  0  0  0  0  0  0  0
   -7.7760   19.1630  -32.3580 N   0  0  0  0  0  0  0  0  0  0  0  0
   -8.8030   18.2030  -31.9230 C   0  0  0  0  0  0  0  0  0  0  0  0
   -7.9790   20.5290  -32.2550 C   0  0  0  0  0  0  0  0  0  0  0  0
   -9.2640   21.0700  -32.0040 C   0  0  0  0  0  0  0  0  0  0  0  0
   -9.4540   22.4450  -31.8860 C   0  0  0  0  0  0  0  0  0  0  0  0
   -8.3750   23.3170  -32.0200 C   0  0  0  0  0  0  0  0  0  0  0  0
   -7.1030   22.8220  -32.2910 C   0  0  0  0  0  0  0  0  0  0  0  0
   -6.8850   21.4360  -32.4310 C   0  0  0  0  0  0  0  0  0  0  0  0
   -6.1720   17.3880  -33.3040 C   0  0  0  0  0  0  0  0  0  0  0  0
   -6.9310   16.2470  -33.6100 C   0  0  0  0  0  0  0  0  0  0  0  0
   -6.2860   15.1370  -34.1770 C   0  0  0  0  0  0  0  0  0  0  0  0
   -4.9130   15.1840  -34.4690 C   0  0  0  0  0  0  0  0  0  0  0  0
   -4.1790   16.3520  -34.2120 C   0  0  0  0  0  0  0  0  0  0  0  0
   -4.8320   17.4480  -33.6460 C   0  0  0  0  0  0  0  0  0  0  0  0
   -4.2560   18.8090  -33.4170 C   0  0  0  0  0  0  0  0  0  0  0  0
   -3.4805   27.7483  -39.5086 H   0  0  0  0  0  0  0  0  0  0  0  0
   -1.8770   28.4279  -39.9483 H   0  0  0  0  0  0  0  0  0  0  0  0
   -2.1293   26.6495  -39.9483 H   0  0  0  0  0  0  0  0  0  0  0  0
   -2.6199   28.2005  -37.3990 H   0  0  0  0  0  0  0  0  0  0  0  0
   -2.0436   26.4792  -37.6710 H   0  0  0  0  0  0  0  0  0  0  0  0
    0.2618   26.8270  -36.1268 H   0  0  0  0  0  0  0  0  0  0  0  0
    0.6274   28.6049  -36.1223 H   0  0  0  0  0  0  0  0  0  0  0  0
   -0.9446   28.0095  -34.3121 H   0  0  0  0  0  0  0  0  0  0  0  0
   -1.7095   29.0924  -35.5241 H   0  0  0  0  0  0  0  0  0  0  0  0
   -2.0867   27.3361  -35.5241 H   0  0  0  0  0  0  0  0  0  0  0  0
   -0.1099   26.4635  -39.1763 H   0  0  0  0  0  0  0  0  0  0  0  0
    0.8012   28.0168  -39.3393 H   0  0  0  0  0  0  0  0  0  0  0  0
    2.5200   27.1121  -38.2272 H   0  0  0  0  0  0  0  0  0  0  0  0
    1.4244   26.8995  -36.7864 H   0  0  0  0  0  0  0  0  0  0  0  0
    2.7007   23.8303  -36.9050 H   0  0  0  0  0  0  0  0  0  0  0  0
    2.4680   25.4038  -36.0731 H   0  0  0  0  0  0  0  0  0  0  0  0
    0.2894   24.9073  -35.4400 H   0  0  0  0  0  0  0  0  0  0  0  0
    0.0140   23.8388  -36.8702 H   0  0  0  0  0  0  0  0  0  0  0  0
   -0.3088   21.4652  -35.7542 H   0  0  0  0  0  0  0  0  0  0  0  0
    0.8249   21.9707  -37.0666 H   0  0  0  0  0  0  0  0  0  0  0  0
    1.5060   19.7820  -36.2045 H   0  0  0  0  0  0  0  0  0  0  0  0
    2.7233   21.0205  -35.7362 H   0  0  0  0  0  0  0  0  0  0  0  0
    2.4710   18.7370  -33.6980 H   0  0  0  0  0  0  0  0  0  0  0  0
    0.6633   17.4737  -33.0163 H   0  0  0  0  0  0  0  0  0  0  0  0
    0.3541   19.1765  -32.4680 H   0  0  0  0  0  0  0  0  0  0  0  0
   -0.6937   18.2911  -35.1579 H   0  0  0  0  0  0  0  0  0  0  0  0
   -1.5514   17.7732  -33.6472 H   0  0  0  0  0  0  0  0  0  0  0  0
   -1.0048   20.6210  -34.6098 H   0  0  0  0  0  0  0  0  0  0  0  0
   -2.6067   19.7718  -34.3770 H   0  0  0  0  0  0  0  0  0  0  0  0
   -0.7540   20.2840  -32.1570 H   0  0  0  0  0  0  0  0  0  0  0  0
   -1.3180   22.3504  -31.8878 H   0  0  0  0  0  0  0  0  0  0  0  0
   -2.0419   22.2509  -33.5582 H   0  0  0  0  0  0  0  0  0  0  0  0
   -3.5998   21.3768  -31.1126 H   0  0  0  0  0  0  0  0  0  0  0  0
   -3.5313   23.1095  -31.6384 H   0  0  0  0  0  0  0  0  0  0  0  0
   -4.4760   22.3770  -33.8390 H   0  0  0  0  0  0  0  0  0  0  0  0
   -8.8349   18.1731  -30.8239 H   0  0  0  0  0  0  0  0  0  0  0  0
   -9.7842   18.5153  -32.3100 H   0  0  0  0  0  0  0  0  0  0  0  0
   -8.5576   17.2030  -32.3100 H   0  0  0  0  0  0  0  0  0  0  0  0
  -10.1253   20.3937  -31.9007 H   0  0  0  0  0  0  0  0  0  0  0  0
  -10.4594   22.8440  -31.6863 H   0  0  0  0  0  0  0  0  0  0  0  0
   -8.5295   24.4006  -31.9111 H   0  0  0  0  0  0  0  0  0  0  0  0
   -6.2588   23.5192  -32.3971 H   0  0  0  0  0  0  0  0  0  0  0  0
   -8.0122   16.2236  -33.4088 H   0  0  0  0  0  0  0  0  0  0  0  0
   -6.8597   14.2239  -34.3942 H   0  0  0  0  0  0  0  0  0  0  0  0
   -4.4125   14.3042  -34.8997 H   0  0  0  0  0  0  0  0  0  0  0  0
   -3.1068   16.4030  -34.4526 H   0  0  0  0  0  0  0  0  0  0  0  0
   -3.4683   18.7911  -32.6494 H   0  0  0  0  0  0  0  0  0  0  0  0
   -3.7660   19.2497  -34.2977 H   0  0  0  0  0  0  0  0  0  0  0  0
  1  2  1  0
  2  3  1  0
  3  4  1  0
  4  5  1  0
  3  6  1  0
  6  7  1  0
  7  8  1  0
  8  9  1  0
  9 10  1  0
 10 11  1  0
 11 12  1  0
 12 13  1  0
 13 14  1  0
 14 15  1  0
 15 16  1  0
 16 17  1  0
 17 18  1  0
 18 19  1  0
 19 20  1  0
 20 21  1  0
 21 22  1  0
 22 23  1  0
 23 24  2  0
 24 25  1  0
 25 26  2  0
 26 27  1  0
 26 28  1  0
 28 29  2  0
 29 30  1  0
 30 31  2  0
 31 32  1  0
 32 33  2  0
 25 34  1  0
 34 35  2  0
 35 36  1  0
 36 37  2  0
 37 38  1  0
 38 39  2  0
 39 40  1  0
 33 23  1  0
 39 34  1  0
 40 24  1  0
 33 28  1  0
  1 41  1  0
  1 42  1  0
  1 43  1  0
  2 44  1  0
  2 45  1  0
  4 46  1  0
  4 47  1  0
  5 48  1  0
  5 49  1  0
  5 50  1  0
  6 51  1  0
  6 52  1  0
  7 53  1  0
  7 54  1  0
  9 55  1  0
  9 56  1  0
 10 57  1  0
 10 58  1  0
 12 59  1  0
 12 60  1  0
 13 61  1  0
 13 62  1  0
 15 63  1  0
 16 64  1  0
 16 65  1  0
 17 66  1  0
 17 67  1  0
 18 68  1  0
 18 69  1  0
 19 70  1  0
 20 71  1  0
 20 72  1  0
 21 73  1  0
 21 74  1  0
 22 75  1  0
 27 76  1  0
 27 77  1  0
 27 78  1  0
 29 79  1  0
 30 80  1  0
 31 81  1  0
 32 82  1  0
 35 83  1  0
 36 84  1  0
 37 85  1  0
 38 86  1  0
 40 87  1  0
 40 88  1  0
M  CHG  1  26   1
M  END
>  <UniqueID>  (7) 
7

>  <SMILES>  (7) 
CCN(CC)CCOCCOCCONCCCNCCNc1c2c([n+](C)c3ccccc13)-c1ccccc1C2

>  <Energy>  (7) 
133.43339306135624

>  <Genealogy>  (7) 
CCN(CC)CCOCCOCCONCCCNCCNc1c2c([n+](C)c3ccccc13)-c1ccccc1C2 (3D coordinates assigned)
CCN(CC)CCOCCOCCONCCCNCCNc1c2c([n+](C)c3ccccc13)-c1ccccc1C2 (nonaromatic ring conformer: 133.43339306135624 kcal/mol)

>  <smiles>  (7) 
CCN(CC)CCOCCOCCONCCCNCCNc1c2c([n+](C)c3ccccc13)-c1ccccc1C2

>  <score_type>  (7) 
oracle

>  <origin>  (7) 
adg

>  <m_score__min__energy>  (7) 
-8.9299999999999997

>  <m_primary>  (7) 
energy

$$$$
7:0
     RDKit          3D

 39 40  0  0  0  0  0  0  0  0999 V2000
   -2.7550   21.1040  -33.2180 C   0  0  0  0  0  0  0  0  0  0  0  0
   -3.1160   21.9360  -31.9890 C   0  0  0  0  0  0  0  0  0  0  0  0
   -4.5160   22.5000  -32.0400 C   0  0  0  0  0  0  0  0  0  0  0  0
   -4.9290   23.0380  -33.0610 O   0  0  0  0  0  0  0  0  0  0  0  0
   -5.3770   22.3850  -30.8750 N   0  0  2  0  0  0  0  0  0  0  0  0
   -6.5960   21.7350  -31.2500 C   0  0  0  0  0  0  0  0  0  0  0  0
   -6.7230   20.3830  -31.5950 C   0  0  0  0  0  0  0  0  0  0  0  0
   -7.9880   19.8980  -31.9650 C   0  0  0  0  0  0  0  0  0  0  0  0
   -9.0990   20.7610  -31.9870 C   0  0  0  0  0  0  0  0  0  0  0  0
   -8.9500   22.1130  -31.6370 C   0  0  0  0  0  0  0  0  0  0  0  0
   -7.6850   22.5680  -31.2650 C   0  0  0  0  0  0  0  0  0  0  0  0
   -7.2870   23.9330  -30.8690 C   0  0  0  0  0  0  0  0  0  0  0  0
   -5.8520   23.6930  -30.3330 C   0  0  2  0  0  0  0  0  0  0  0  0
   -4.8950   24.8450  -30.5540 C   0  0  0  0  0  0  0  0  0  0  0  0
   -5.3230   25.9950  -30.8480 O   0  0  0  0  0  0  0  0  0  0  0  0
   -3.4870   24.6020  -30.4700 N   0  0  0  0  0  0  0  0  0  0  0  0
   -2.7470   24.5410  -29.2120 C   0  0  0  0  0  0  0  0  0  0  0  0
   -3.6880   24.0780  -28.1000 C   0  0  0  0  0  0  0  0  0  0  0  0
   -1.5590   23.5850  -29.3430 C   0  0  0  0  0  0  0  0  0  0  0  0
   -2.3362   20.1388  -32.8972 H   0  0  0  0  0  0  0  0  0  0  0  0
   -3.6583   20.9295  -33.8209 H   0  0  0  0  0  0  0  0  0  0  0  0
   -2.0105   21.6445  -33.8209 H   0  0  0  0  0  0  0  0  0  0  0  0
   -3.0289   21.2977  -31.0974 H   0  0  0  0  0  0  0  0  0  0  0  0
   -2.4220   22.7889  -31.9574 H   0  0  0  0  0  0  0  0  0  0  0  0
   -4.9080   21.8320  -30.1190 H   0  0  0  0  0  0  0  0  0  0  0  0
   -5.8494   19.7148  -31.5764 H   0  0  0  0  0  0  0  0  0  0  0  0
   -8.1106   18.8396  -32.2386 H   0  0  0  0  0  0  0  0  0  0  0  0
  -10.0870   20.3758  -32.2791 H   0  0  0  0  0  0  0  0  0  0  0  0
   -9.8110   22.7973  -31.6558 H   0  0  0  0  0  0  0  0  0  0  0  0
   -7.2850   24.6169  -31.7305 H   0  0  0  0  0  0  0  0  0  0  0  0
   -7.9644   24.4047  -30.1419 H   0  0  0  0  0  0  0  0  0  0  0  0
   -5.8838   23.6417  -29.2347 H   0  0  0  0  0  0  0  0  0  0  0  0
   -2.3570   25.5394  -28.9648 H   0  0  0  0  0  0  0  0  0  0  0  0
   -3.2368   24.3000  -27.1217 H   0  0  0  0  0  0  0  0  0  0  0  0
   -4.6487   24.6063  -28.1890 H   0  0  0  0  0  0  0  0  0  0  0  0
   -3.8557   22.9945  -28.1890 H   0  0  0  0  0  0  0  0  0  0  0  0
   -1.2052   23.3003  -28.3411 H   0  0  0  0  0  0  0  0  0  0  0  0
   -1.8720   22.6841  -29.8910 H   0  0  0  0  0  0  0  0  0  0  0  0
   -0.7459   24.0835  -29.8910 H   0  0  0  0  0  0  0  0  0  0  0  0
  1  2  1  0
  2  3  1  0
  3  4  2  0
  3  5  1  0
  5  6  1  0
  6  7  2  0
  7  8  1  0
  8  9  2  0
  9 10  1  0
 10 11  2  0
 11 12  1  0
 12 13  1  0
 13 14  1  0
 14 15  2  0
 14 16  1  0
 16 17  1  0
 17 18  1  0
 17 19  1  0
 13  5  1  0
 11  6  1  0
  1 20  1  0
  1 21  1  0
  1 22  1  0
  2 23  1  0
  2 24  1  0
  5 25  1  1
  7 26  1  0
  8 27  1  0
  9 28  1  0
 10 29  1  0
 12 30  1  0
 12 31  1  0
 13 32  1  1
 17 33  1  0
 18 34  1  0
 18 35  1  0
 18 36  1  0
 19 37  1  0
 19 38  1  0
 19 39  1  0
M  CHG  2   5   1  16  -1
M  END
>  <UniqueID>  (8) 
8

>  <SMILES>  (8) 
CCC(=O)[N@@H+]1c2ccccc2C[C@@H]1C(=O)[N-]C(C)C

>  <Energy>  (8) 
45.659568276762975

>  <Genealogy>  (8) 
CCC(=O)[NH+]1c2ccccc2CC1C(=O)[N-]C(C)C (protonated)
CCC(=O)[N@@H+]1c2ccccc2C[C@@H]1C(=O)[N-]C(C)C (chirality)
CCC(=O)[N@@H+]1c2ccccc2C[C@@H]1C(=O)[N-]C(C)C (3D coordinates assigned)
CCC(=O)[N@@H+]1c2ccccc2C[C@@H]1C(=O)[N-]C(C)C (nonaromatic ring conformer: 45.659568276762975 kcal/mol)

>  <smiles>  (8) 
CCC(=O)N1c2ccccc2CC1C(=O)NC(C)C

>  <score_type>  (8) 
oracle

>  <origin>  (8) 
adg

>  <m_score__min__energy>  (8) 
-7.8899999999999997

>  <m_primary>  (8) 
energy

$$$$
8:0
     RDKit          3D

 28 29  0  0  0  0  0  0  0  0999 V2000
   -2.6530   21.5440  -32.3610 C   0  0  0  0  0  0  0  0  0  0  0  0
   -3.9460   21.9250  -33.0750 C   0  0  0  0  0  0  0  0  0  0  0  0
   -4.9460   22.5090  -32.1120 C   0  0  0  0  0  0  0  0  0  0  0  0
   -4.6170   23.5920  -31.4670 N   0  0  0  0  0  0  0  0  0  0  0  0
   -5.4940   24.2370  -30.4870 C   0  0  0  0  0  0  0  0  0  0  0  0
   -6.9570   24.1730  -30.9370 C   0  0  0  0  0  0  0  0  0  0  0  0
   -7.3070   22.7690  -31.3570 C   0  0  0  0  0  0  0  0  0  0  0  0
   -8.6190   22.2970  -31.2190 C   0  0  0  0  0  0  0  0  0  0  0  0
   -8.9560   21.0170  -31.6610 C   0  0  0  0  0  0  0  0  0  0  0  0
   -7.9920   20.2020  -32.2720 C   0  0  0  0  0  0  0  0  0  0  0  0
   -8.3490   18.8130  -32.7130 C   0  0  0  0  0  0  0  0  0  0  0  0
   -6.6770   20.6700  -32.4100 C   0  0  0  0  0  0  0  0  0  0  0  0
   -6.3260   21.9590  -31.9650 C   0  0  0  0  0  0  0  0  0  0  0  0
   -2.8078   21.5896  -31.2729 H   0  0  0  0  0  0  0  0  0  0  0  0
   -2.3632   20.5223  -32.6476 H   0  0  0  0  0  0  0  0  0  0  0  0
   -1.8555   22.2453  -32.6476 H   0  0  0  0  0  0  0  0  0  0  0  0
   -3.7206   22.6686  -33.8536 H   0  0  0  0  0  0  0  0  0  0  0  0
   -4.3793   21.0174  -33.5206 H   0  0  0  0  0  0  0  0  0  0  0  0
   -5.3920   23.7236  -29.5195 H   0  0  0  0  0  0  0  0  0  0  0  0
   -5.2007   25.2931  -30.3943 H   0  0  0  0  0  0  0  0  0  0  0  0
   -7.6078   24.4767  -30.1038 H   0  0  0  0  0  0  0  0  0  0  0  0
   -7.1018   24.8515  -31.7906 H   0  0  0  0  0  0  0  0  0  0  0  0
   -9.3864   22.9380  -30.7604 H   0  0  0  0  0  0  0  0  0  0  0  0
   -9.9829   20.6454  -31.5295 H   0  0  0  0  0  0  0  0  0  0  0  0
   -8.5121   18.1783  -31.8295 H   0  0  0  0  0  0  0  0  0  0  0  0
   -9.2682   18.8447  -33.3164 H   0  0  0  0  0  0  0  0  0  0  0  0
   -7.5284   18.3976  -33.3164 H   0  0  0  0  0  0  0  0  0  0  0  0
   -5.9137   20.0249  -32.8696 H   0  0  0  0  0  0  0  0  0  0  0  0
  1  2  1  0
  2  3  1  0
  3  4  2  0
  4  5  1  0
  5  6  1  0
  6  7  1  0
  7  8  2  0
  8  9  1  0
  9 10  2  0
 10 11  1  0
 10 12  1  0
 12 13  2  0
 13  3  1  0
 13  7  1  0
  1 14  1  0
  1 15  1  0
  1 16  1  0
  2 17  1  0
  2 18  1  0
  5 19  1  0
  5 20  1  0
  6 21  1  0
  6 22  1  0
  8 23  1  0
  9 24  1  0
 11 25  1  0
 11 26  1  0
 11 27  1  0
 12 28  1  0
M  END
>  <UniqueID>  (9) 
9

>  <SMILES>  (9) 
CCC1=NCCc2ccc(C)cc21

>  <Energy>  (9) 
26.45333778106242

>  <Genealogy>  (9) 
CCC1=NCCc2ccc(C)cc21 (3D coordinates assigned)
CCC1=NCCc2ccc(C)cc21 (nonaromatic ring conformer: 26.45333778106242 kcal/mol)

>  <smiles>  (9) 
CCC1=NCCc2ccc(C)cc21

>  <score_type>  (9) 
oracle

>  <origin>  (9) 
adg

>  <m_score__min__energy>  (9) 
-6.3600000000000003

>  <m_primary>  (9) 
energy

$$$$
9:0
     RDKit          3D

 36 36  0  0  0  0  0  0  0  0999 V2000
   -1.5750   26.0080  -25.2180 C   0  0  0  0  0  0  0  0  0  0  0  0
   -2.0280   24.7570  -25.9780 C   0  0  0  0  0  0  0  0  0  0  0  0
   -3.1880   25.0220  -26.8670 N   0  0  2  0  0  0  0  0  0  0  0  0
   -4.4720   24.9080  -26.1460 C   0  0  0  0  0  0  0  0  0  0  0  0
   -3.1640   24.1510  -28.0680 C   0  0  0  0  0  0  0  0  0  0  0  0
   -2.6560   24.8480  -29.3020 C   0  0  0  0  0  0  0  0  0  0  0  0
   -1.4790   25.3000  -29.3300 O   0  0  0  0  0  0  0  0  0  0  0  0
   -3.4990   24.9540  -30.4550 N   0  0  0  0  0  0  0  0  0  0  0  0
   -4.6190   24.0950  -30.7080 C   0  0  0  0  0  0  0  0  0  0  0  0
   -4.4470   22.8270  -31.3180 C   0  0  0  0  0  0  0  0  0  0  0  0
   -3.0930   22.3380  -31.7610 C   0  0  0  0  0  0  0  0  0  0  0  0
   -5.5630   21.9970  -31.5070 C   0  0  0  0  0  0  0  0  0  0  0  0
   -6.8370   22.4290  -31.1420 C   0  0  0  0  0  0  0  0  0  0  0  0
   -7.0160   23.6950  -30.5880 C   0  0  0  0  0  0  0  0  0  0  0  0
   -5.9170   24.5420  -30.3800 C   0  0  0  0  0  0  0  0  0  0  0  0
   -6.1250   25.8880  -29.7430 C   0  0  0  0  0  0  0  0  0  0  0  0
   -1.6417   25.8237  -24.1356 H   0  0  0  0  0  0  0  0  0  0  0  0
   -0.5345   26.2434  -25.4864 H   0  0  0  0  0  0  0  0  0  0  0  0
   -2.2235   26.8550  -25.4864 H   0  0  0  0  0  0  0  0  0  0  0  0
   -1.1898   24.3931  -26.5904 H   0  0  0  0  0  0  0  0  0  0  0  0
   -2.3399   24.0084  -25.2348 H   0  0  0  0  0  0  0  0  0  0  0  0
   -3.1140   26.0070  -27.2200 H   0  0  0  0  0  0  0  0  0  0  0  0
   -4.2865   24.9245  -25.0619 H   0  0  0  0  0  0  0  0  0  0  0  0
   -5.1223   25.7519  -26.4196 H   0  0  0  0  0  0  0  0  0  0  0  0
   -4.9635   23.9627  -26.4196 H   0  0  0  0  0  0  0  0  0  0  0  0
   -2.5122   23.2894  -27.8609 H   0  0  0  0  0  0  0  0  0  0  0  0
   -4.2019   23.8480  -28.2702 H   0  0  0  0  0  0  0  0  0  0  0  0
   -2.4765   22.1154  -30.8776 H   0  0  0  0  0  0  0  0  0  0  0  0
   -3.2119   21.4260  -32.3645 H   0  0  0  0  0  0  0  0  0  0  0  0
   -2.6017   23.1155  -32.3645 H   0  0  0  0  0  0  0  0  0  0  0  0
   -5.4311   20.9974  -31.9468 H   0  0  0  0  0  0  0  0  0  0  0  0
   -7.7038   21.7685  -31.2918 H   0  0  0  0  0  0  0  0  0  0  0  0
   -8.0258   24.0326  -30.3119 H   0  0  0  0  0  0  0  0  0  0  0  0
   -6.1086   25.7820  -28.6482 H   0  0  0  0  0  0  0  0  0  0  0  0
   -5.3217   26.5705  -30.0574 H   0  0  0  0  0  0  0  0  0  0  0  0
   -7.0969   26.2962  -30.0574 H   0  0  0  0  0  0  0  0  0  0  0  0
  1  2  1  0
  2  3  1  0
  3  4  1  0
  3  5  1  0
  5  6  1  0
  6  7  2  0
  6  8  1  0
  8  9  1  0
  9 10  2  0
 10 11  1  0
 10 12  1  0
 12 13  2  0
 13 14  1  0
 14 15  2  0
 15 16  1  0
 15  9  1  0
  1 17  1  0
  1 18  1  0
  1 19  1  0
  2 20  1  0
  2 21  1  0
  3 22  1  6
  4 23  1  0
  4 24  1  0
  4 25  1  0
  5 26  1  0
  5 27  1  0
 11 28  1  0
 11 29  1  0
 11 30  1  0
 12 31  1  0
 13 32  1  0
 14 33  1  0
 16 34  1  0
 16 35  1  0
 16 36  1  0
M  CHG  2   3   1   8  -1
M  END
>  <UniqueID>  (10) 
10

>  <SMILES>  (10) 
CC[N@H+](C)CC(=O)[N-]c1c(C)cccc1C

>  <Energy>  (10) 
40.40190683566447

>  <Genealogy>  (10) 
CC[NH+](C)CC(=O)[N-]c1c(C)cccc1C (protonated)
CC[N@H+](C)CC(=O)[N-]c1c(C)cccc1C (chirality)
CC[N@H+](C)CC(=O)[N-]c1c(C)cccc1C (3D coordinates assigned)
CC[N@H+](C)CC(=O)[N-]c1c(C)cccc1C (optimized conformer: 40.40190683566447 kcal/mol)

>  <smiles>  (10) 
CCN(C)CC(=O)Nc1c(C)cccc1C

>  <score_type>  (10) 
oracle

>  <origin>  (10) 
adg

>  <m_score__min__energy>  (10) 
-6.7999999999999998

>  <m_primary>  (10) 
energy

$$$$
10:0
     RDKit          3D

 54 53  0  0  0  0  0  0  0  0999 V2000
   -5.8410   16.5400  -34.2130 C   0  0  0  0  0  0  0  0  0  0  0  0
   -6.8830   17.0980  -33.2260 C   0  0  0  0  0  0  0  0  0  0  0  0
   -6.7360   18.5510  -32.8680 N   0  0  0  0  0  0  0  0  0  0  0  0
   -6.0720   18.6450  -31.5360 C   0  0  0  0  0  0  0  0  0  0  0  0
   -8.0810   19.2200  -32.7150 C   0  0  0  0  0  0  0  0  0  0  0  0
   -9.0700   18.5780  -31.7200 C   0  0  0  0  0  0  0  0  0  0  0  0
   -5.8640   19.3110  -33.8270 C   0  0  0  0  0  0  0  0  0  0  0  0
   -4.5810   19.9200  -33.2390 C   0  0  0  0  0  0  0  0  0  0  0  0
   -4.5950   21.3140  -33.4720 O   0  0  0  0  0  0  0  0  0  0  0  0
   -4.3350   22.0330  -32.2780 C   0  0  0  0  0  0  0  0  0  0  0  0
   -5.4270   23.1060  -32.0740 C   0  0  0  0  0  0  0  0  0  0  0  0
   -5.8040   23.4750  -30.6570 N   0  0  0  0  0  0  0  0  0  0  0  0
   -7.2240   23.0400  -30.3730 C   0  0  0  0  0  0  0  0  0  0  0  0
   -8.0710   22.5700  -31.5780 C   0  0  0  0  0  0  0  0  0  0  0  0
   -4.8050   22.7100  -29.8050 C   0  0  0  0  0  0  0  0  0  0  0  0
   -4.2240   23.3980  -28.5500 C   0  0  0  0  0  0  0  0  0  0  0  0
   -5.5810   24.9540  -30.4820 C   0  0  0  0  0  0  0  0  0  0  0  0
   -6.4780   25.6450  -29.4440 C   0  0  0  0  0  0  0  0  0  0  0  0
   -5.0069   16.0933  -33.6520 H   0  0  0  0  0  0  0  0  0  0  0  0
   -6.3099   15.7723  -34.8460 H   0  0  0  0  0  0  0  0  0  0  0  0
   -5.4619   17.3558  -34.8460 H   0  0  0  0  0  0  0  0  0  0  0  0
   -7.8785   16.9601  -33.6731 H   0  0  0  0  0  0  0  0  0  0  0  0
   -6.7317   16.5435  -32.2881 H   0  0  0  0  0  0  0  0  0  0  0  0
   -6.8259   18.5383  -30.7421 H   0  0  0  0  0  0  0  0  0  0  0  0
   -5.3243   17.8438  -31.4417 H   0  0  0  0  0  0  0  0  0  0  0  0
   -5.5760   19.6223  -31.4417 H   0  0  0  0  0  0  0  0  0  0  0  0
   -7.9023   20.2542  -32.3856 H   0  0  0  0  0  0  0  0  0  0  0  0
   -8.5623   19.1254  -33.6996 H   0  0  0  0  0  0  0  0  0  0  0  0
   -8.7440   18.7896  -30.6909 H   0  0  0  0  0  0  0  0  0  0  0  0
  -10.0746   18.9967  -31.8798 H   0  0  0  0  0  0  0  0  0  0  0  0
   -9.0965   17.4900  -31.8798 H   0  0  0  0  0  0  0  0  0  0  0  0
   -5.5701   18.6217  -34.6323 H   0  0  0  0  0  0  0  0  0  0  0  0
   -6.4696   20.1659  -34.1622 H   0  0  0  0  0  0  0  0  0  0  0  0
   -4.5407   19.7256  -32.1571 H   0  0  0  0  0  0  0  0  0  0  0  0
   -3.6984   19.4684  -33.7155 H   0  0  0  0  0  0  0  0  0  0  0  0
   -4.3387   21.3394  -31.4243 H   0  0  0  0  0  0  0  0  0  0  0  0
   -3.3516   22.5204  -32.3507 H   0  0  0  0  0  0  0  0  0  0  0  0
   -5.0797   24.0245  -32.5698 H   0  0  0  0  0  0  0  0  0  0  0  0
   -6.3384   22.6532  -32.4916 H   0  0  0  0  0  0  0  0  0  0  0  0
   -7.1783   22.2076  -29.6553 H   0  0  0  0  0  0  0  0  0  0  0  0
   -7.7304   23.9444  -30.0047 H   0  0  0  0  0  0  0  0  0  0  0  0
   -8.9787   22.0663  -31.2140 H   0  0  0  0  0  0  0  0  0  0  0  0
   -8.3543   23.4400  -32.1887 H   0  0  0  0  0  0  0  0  0  0  0  0
   -7.4827   21.8693  -32.1887 H   0  0  0  0  0  0  0  0  0  0  0  0
   -5.3039   21.7893  -29.4684 H   0  0  0  0  0  0  0  0  0  0  0  0
   -3.9352   22.5777  -30.4653 H   0  0  0  0  0  0  0  0  0  0  0  0
   -4.6297   22.9175  -27.6475 H   0  0  0  0  0  0  0  0  0  0  0  0
   -3.1281   23.3037  -28.5544 H   0  0  0  0  0  0  0  0  0  0  0  0
   -4.5005   24.4627  -28.5544 H   0  0  0  0  0  0  0  0  0  0  0  0
   -4.5346   25.1043  -30.1778 H   0  0  0  0  0  0  0  0  0  0  0  0
   -5.8347   25.4119  -31.4495 H   0  0  0  0  0  0  0  0  0  0  0  0
   -6.1369   25.3823  -28.4318 H   0  0  0  0  0  0  0  0  0  0  0  0
   -6.4216   26.7353  -29.5785 H   0  0  0  0  0  0  0  0  0  0  0  0
   -7.5178   25.3123  -29.5785 H   0  0  0  0  0  0  0  0  0  0  0  0
  1  2  1  0
  2  3  1  0
  3  4  1  0
  3  5  1  0
  5  6  1  0
  3  7  1  0
  7  8  1  0
  8  9  1  0
  9 10  1  0
 10 11  1  0
 11 12  1  0
 12 13  1  0
 13 14  1  0
 12 15  1  0
 15 16  1  0
 12 17  1  0
 17 18  1  0
  1 19  1  0
  1 20  1  0
  1 21  1  0
  2 22  1  0
  2 23  1  0
  4 24  1  0
  4 25  1  0
  4 26  1  0
  5 27  1  0
  5 28  1  0
  6 29  1  0
  6 30  1  0
  6 31  1  0
  7 32  1  0
  7 33  1  0
  8 34  1  0
  8 35  1  0
 10 36  1  0
 10 37  1  0
 11 38  1  0
 11 39  1  0
 13 40  1  0
 13 41  1  0
 14 42  1  0
 14 43  1  0
 14 44  1  0
 15 45  1  0
 15 46  1  0
 16 47  1  0
 16 48  1  0
 16 49  1  0
 17 50  1  0
 17 51  1  0
 18 52  1  0
 18 53  1  0
 18 54  1  0
M  CHG  2   3   1  12   1
M  END
>  <UniqueID>  (11) 
11

>  <SMILES>  (11) 
CC[N+](C)(CC)CCOCC[N+](CC)(CC)CC

>  <Energy>  (11) 
96.31540637040769

>  <Genealogy>  (11) 
CC[N+](C)(CC)CCOCC[N+](CC)(CC)CC (3D coordinates assigned)
CC[N+](C)(CC)CCOCC[N+](CC)(CC)CC (optimized conformer: 96.31540637040769 kcal/mol)

>  <smiles>  (11) 
CC[N+](C)(CC)CCOCC[N+](CC)(CC)CC

>  <score_type>  (11) 
oracle

>  <origin>  (11) 
adg

>  <m_score__min__energy>  (11) 
-3.27

>  <m_primary>  (11) 
energy

$$$$
11:0
     RDKit          3D

 62 65  0  0  0  0  0  0  0  0999 V2000
   -3.7790   24.0310  -27.4400 C   0  0  0  0  0  0  0  0  0  0  0  0
   -4.2470   22.6340  -27.8390 C   0  0  0  0  0  0  0  0  0  0  0  0
   -3.1500   21.8900  -28.4980 N   0  0  0  0  0  0  0  0  0  0  0  0
   -3.0870   20.4840  -28.0300 C   0  0  0  0  0  0  0  0  0  0  0  0
   -1.9910   20.2710  -26.9840 C   0  0  0  0  0  0  0  0  0  0  0  0
   -1.8560   22.6180  -28.4260 C   0  0  0  0  0  0  0  0  0  0  0  0
   -1.5090   23.4240  -29.6900 C   0  0  0  0  0  0  0  0  0  0  0  0
   -0.6190   22.6560  -30.4840 O   0  0  0  0  0  0  0  0  0  0  0  0
   -1.1520   21.3780  -30.7750 C   0  0  0  0  0  0  0  0  0  0  0  0
   -0.5080   20.8090  -32.0500 C   0  0  0  0  0  0  0  0  0  0  0  0
   -1.5260   20.0600  -32.9170 C   0  0  0  0  0  0  0  0  0  0  0  0
   -2.5540   20.9720  -33.4260 N   0  0  0  0  0  0  0  0  0  0  0  0
   -3.9270   20.9130  -32.9970 C   0  0  0  0  0  0  0  0  0  0  0  0
   -4.7700   19.8270  -33.3410 C   0  0  0  0  0  0  0  0  0  0  0  0
   -4.3240   18.8140  -34.2150 C   0  0  0  0  0  0  0  0  0  0  0  0
   -5.1740   17.7800  -34.5990 C   0  0  0  0  0  0  0  0  0  0  0  0
   -6.4830   17.7370  -34.1290 C   0  0  0  0  0  0  0  0  0  0  0  0
   -6.9550   18.7230  -33.2640 C   0  0  0  0  0  0  0  0  0  0  0  0
   -6.1150   19.7780  -32.8320 C   0  0  0  0  0  0  0  0  0  0  0  0
   -6.5710   20.7610  -31.9640 N   0  0  0  0  0  0  0  0  0  0  0  0
   -7.8270   20.6110  -31.2100 C   0  0  0  0  0  0  0  0  0  0  0  0
   -5.7800   21.8640  -31.7720 C   0  0  0  0  0  0  0  0  0  0  0  0
   -4.4840   21.9330  -32.2340 C   0  0  0  0  0  0  0  0  0  0  0  0
   -3.9050   23.0550  -31.8560 O   0  0  0  0  0  0  0  0  0  0  0  0
   -4.8020   23.7430  -31.1860 C   0  0  0  0  0  0  0  0  0  0  0  0
   -4.6350   25.0130  -30.6340 C   0  0  0  0  0  0  0  0  0  0  0  0
   -5.7410   25.6100  -30.0080 C   0  0  0  0  0  0  0  0  0  0  0  0
   -6.9820   24.9430  -29.9610 C   0  0  0  0  0  0  0  0  0  0  0  0
   -7.1280   23.6590  -30.5200 C   0  0  0  0  0  0  0  0  0  0  0  0
   -6.0020   23.0640  -31.1040 C   0  0  0  0  0  0  0  0  0  0  0  0
   -3.7527   24.1095  -26.3431 H   0  0  0  0  0  0  0  0  0  0  0  0
   -2.7719   24.2098  -27.8447 H   0  0  0  0  0  0  0  0  0  0  0  0
   -4.4751   24.7804  -27.8447 H   0  0  0  0  0  0  0  0  0  0  0  0
   -4.5656   22.0878  -26.9389 H   0  0  0  0  0  0  0  0  0  0  0  0
   -5.0875   22.7270  -28.5425 H   0  0  0  0  0  0  0  0  0  0  0  0
   -4.0569   20.2146  -27.5865 H   0  0  0  0  0  0  0  0  0  0  0  0
   -2.8531   19.8497  -28.8977 H   0  0  0  0  0  0  0  0  0  0  0  0
   -2.4244   20.3552  -25.9765 H   0  0  0  0  0  0  0  0  0  0  0  0
   -1.5517   19.2707  -27.1117 H   0  0  0  0  0  0  0  0  0  0  0  0
   -1.2090   21.0340  -27.1117 H   0  0  0  0  0  0  0  0  0  0  0  0
   -1.8997   23.3140  -27.5753 H   0  0  0  0  0  0  0  0  0  0  0  0
   -1.0719   21.8545  -28.3154 H   0  0  0  0  0  0  0  0  0  0  0  0
   -2.4264   23.6345  -30.2592 H   0  0  0  0  0  0  0  0  0  0  0  0
   -1.0373   24.3777  -29.4109 H   0  0  0  0  0  0  0  0  0  0  0  0
   -0.9497   20.7001  -29.9327 H   0  0  0  0  0  0  0  0  0  0  0  0
   -2.2368   21.4701  -30.9325 H   0  0  0  0  0  0  0  0  0  0  0  0
   -0.0839   21.6383  -32.6351 H   0  0  0  0  0  0  0  0  0  0  0  0
    0.2742   20.0966  -31.7490 H   0  0  0  0  0  0  0  0  0  0  0  0
   -1.0031   19.5970  -33.7668 H   0  0  0  0  0  0  0  0  0  0  0  0
   -2.0139   19.2913  -32.2997 H   0  0  0  0  0  0  0  0  0  0  0  0
   -2.2960   21.6410  -34.1880 H   0  0  0  0  0  0  0  0  0  0  0  0
   -3.2931   18.8410  -34.5977 H   0  0  0  0  0  0  0  0  0  0  0  0
   -4.8092   16.9940  -35.2766 H   0  0  0  0  0  0  0  0  0  0  0  0
   -7.1495   16.9198  -34.4420 H   0  0  0  0  0  0  0  0  0  0  0  0
   -7.9961   18.6809  -32.9115 H   0  0  0  0  0  0  0  0  0  0  0  0
   -7.6125   20.6366  -30.1314 H   0  0  0  0  0  0  0  0  0  0  0  0
   -8.5099   21.4340  -31.4677 H   0  0  0  0  0  0  0  0  0  0  0  0
   -8.2969   19.6504  -31.4677 H   0  0  0  0  0  0  0  0  0  0  0  0
   -3.6662   25.5312  -30.6875 H   0  0  0  0  0  0  0  0  0  0  0  0
   -5.6383   26.6053  -29.5510 H   0  0  0  0  0  0  0  0  0  0  0  0
   -7.8446   25.4303  -29.4830 H   0  0  0  0  0  0  0  0  0  0  0  0
   -8.0969   23.1387  -30.4988 H   0  0  0  0  0  0  0  0  0  0  0  0
  1  2  1  0
  2  3  1  0
  3  4  1  0
  4  5  1  0
  3  6  1  0
  6  7  1  0
  7  8  1  0
  8  9  1  0
  9 10  1  0
 10 11  1  0
 11 12  1  0
 12 13  1  0
 13 14  2  0
 14 15  1  0
 15 16  2  0
 16 17  1  0
 17 18  2  0
 18 19  1  0
 19 20  2  0
 20 21  1  0
 20 22  1  0
 22 23  2  0
 23 24  1  0
 24 25  1  0
 25 26  2  0
 26 27  1  0
 27 28  2  0
 28 29  1  0
 29 30  2  0
 23 13  1  0
 30 25  1  0
 19 14  1  0
 30 22  1  0
  1 31  1  0
  1 32  1  0
  1 33  1  0
  2 34  1  0
  2 35  1  0
  4 36  1  0
  4 37  1  0
  5 38  1  0
  5 39  1  0
  5 40  1  0
  6 41  1  0
  6 42  1  0
  7 43  1  0
  7 44  1  0
  9 45  1  0
  9 46  1  0
 10 47  1  0
 10 48  1  0
 11 49  1  0
 11 50  1  0
 12 51  1  0
 15 52  1  0
 16 53  1  0
 17 54  1  0
 18 55  1  0
 21 56  1  0
 21 57  1  0
 21 58  1  0
 26 59  1  0
 27 60  1  0
 28 61  1  0
 29 62  1  0
M  CHG  1  20   1
M  END
>  <UniqueID>  (12) 
12

>  <SMILES>  (12) 
CCN(CC)CCOCCCNc1c2ccccc2[n+](C)c2c1oc1ccccc12

>  <Energy>  (12) 
125.05668323752663

>  <Genealogy>  (12) 
CCN(CC)CCOCCCNc1c2ccccc2[n+](C)c2c1oc1ccccc12 (3D coordinates assigned)
CCN(CC)CCOCCCNc1c2ccccc2[n+](C)c2c1oc1ccccc12 (optimized conformer: 125.05668323752663 kcal/mol)

>  <smiles>  (12) 
CCN(CC)CCOCCCNc1c2ccccc2[n+](C)c2c1oc1ccccc12

>  <score_type>  (12) 
oracle

>  <origin>  (12) 
adg

>  <m_score__min__energy>  (12) 
-9.25

>  <m_primary>  (12) 
energy

$$$$
12:0
     RDKit          3D

 76 80  0  0  0  0  0  0  0  0999 V2000
   -3.0590   18.9760  -26.5570 C   0  0  0  0  0  0  0  0  0  0  0  0
   -2.1350   19.9340  -27.3190 C   0  0  0  0  0  0  0  0  0  0  0  0
   -2.7970   20.7450  -28.3750 N   0  0  1  0  0  0  0  0  0  0  0  0
   -3.4820   21.9340  -27.8310 C   0  0  0  0  0  0  0  0  0  0  0  0
   -1.9370   21.0190  -29.5610 C   0  0  0  0  0  0  0  0  0  0  0  0
   -2.4770   20.4720  -30.9010 C   0  0  0  0  0  0  0  0  0  0  0  0
   -3.0500   21.5440  -31.7140 N   0  0  0  0  0  0  0  0  0  0  0  0
   -4.4680   21.6950  -31.8720 C   0  0  0  0  0  0  0  0  0  0  0  0
   -5.1600   22.7790  -31.2820 C   0  0  0  0  0  0  0  0  0  0  0  0
   -4.4560   23.7920  -30.6020 C   0  0  0  0  0  0  0  0  0  0  0  0
   -5.1310   24.8740  -30.0440 C   0  0  0  0  0  0  0  0  0  0  0  0
   -6.5150   24.9700  -30.1580 C   0  0  0  0  0  0  0  0  0  0  0  0
   -7.2400   23.9740  -30.8130 C   0  0  0  0  0  0  0  0  0  0  0  0
   -6.5910   22.8440  -31.3680 C   0  0  0  0  0  0  0  0  0  0  0  0
   -7.3040   21.8240  -31.9820 N   0  0  0  0  0  0  0  0  0  0  0  0
   -8.7790   21.8080  -31.9790 C   0  0  0  0  0  0  0  0  0  0  0  0
   -6.6020   20.8310  -32.6160 C   0  0  0  0  0  0  0  0  0  0  0  0
   -7.1230   19.8270  -33.3640 N   0  0  0  0  0  0  0  0  0  0  0  0
   -6.0600   19.1270  -33.8030 C   0  0  0  0  0  0  0  0  0  0  0  0
   -6.0840   18.0080  -34.6300 C   0  0  0  0  0  0  0  0  0  0  0  0
   -4.8580   17.4330  -35.0020 C   0  0  0  0  0  0  0  0  0  0  0  0
   -3.6330   17.9900  -34.5690 C   0  0  0  0  0  0  0  0  0  0  0  0
   -2.4470   17.3460  -34.9550 O   0  0  0  0  0  0  0  0  0  0  0  0
   -1.2580   17.2540  -34.1710 C   0  0  0  0  0  0  0  0  0  0  0  0
    0.0150   17.7000  -34.9390 C   0  0  0  0  0  0  0  0  0  0  0  0
    0.4730   19.1150  -34.7150 N   0  0  0  0  0  0  0  0  0  0  0  0
    1.9190   19.1180  -34.3570 C   0  0  0  0  0  0  0  0  0  0  0  0
   -0.3490   19.7670  -33.6370 C   0  0  0  0  0  0  0  0  0  0  0  0
   -0.7700   21.2230  -33.9360 C   0  0  0  0  0  0  0  0  0  0  0  0
    0.2840   21.9600  -34.6290 N   0  0  0  0  0  0  0  0  0  0  0  0
    0.6150   21.3520  -35.9280 C   0  0  0  0  0  0  0  0  0  0  0  0
    0.2960   19.8380  -36.0100 C   0  0  0  0  0  0  0  0  0  0  0  0
   -3.6410   19.1520  -33.7590 C   0  0  0  0  0  0  0  0  0  0  0  0
   -4.8740   19.6710  -33.3590 C   0  0  0  0  0  0  0  0  0  0  0  0
   -5.2230   20.7620  -32.5800 C   0  0  0  0  0  0  0  0  0  0  0  0
   -2.9222   19.1178  -25.4748 H   0  0  0  0  0  0  0  0  0  0  0  0
   -4.1052   19.1850  -26.8248 H   0  0  0  0  0  0  0  0  0  0  0  0
   -2.8123   17.9380  -26.8248 H   0  0  0  0  0  0  0  0  0  0  0  0
   -1.6857   20.6250  -26.5906 H   0  0  0  0  0  0  0  0  0  0  0  0
   -1.3985   19.3015  -27.8362 H   0  0  0  0  0  0  0  0  0  0  0  0
   -3.5690   20.1300  -28.7290 H   0  0  0  0  0  0  0  0  0  0  0  0
   -3.4614   21.8982  -26.7318 H   0  0  0  0  0  0  0  0  0  0  0  0
   -2.9693   22.8433  -28.1779 H   0  0  0  0  0  0  0  0  0  0  0  0
   -4.5258   21.9466  -28.1779 H   0  0  0  0  0  0  0  0  0  0  0  0
   -1.8264   22.1092  -29.6575 H   0  0  0  0  0  0  0  0  0  0  0  0
   -0.9861   20.4974  -29.3776 H   0  0  0  0  0  0  0  0  0  0  0  0
   -1.6517   20.0020  -31.4560 H   0  0  0  0  0  0  0  0  0  0  0  0
   -3.2661   19.7365  -30.6858 H   0  0  0  0  0  0  0  0  0  0  0  0
   -2.4190   22.2850  -32.0940 H   0  0  0  0  0  0  0  0  0  0  0  0
   -3.3617   23.7274  -30.5110 H   0  0  0  0  0  0  0  0  0  0  0  0
   -4.5691   25.6554  -29.5114 H   0  0  0  0  0  0  0  0  0  0  0  0
   -7.0402   25.8362  -29.7292 H   0  0  0  0  0  0  0  0  0  0  0  0
   -8.3326   24.0678  -30.8997 H   0  0  0  0  0  0  0  0  0  0  0  0
   -9.1435   21.8040  -30.9412 H   0  0  0  0  0  0  0  0  0  0  0  0
   -9.1564   22.7021  -32.4968 H   0  0  0  0  0  0  0  0  0  0  0  0
   -9.1370   20.9059  -32.4968 H   0  0  0  0  0  0  0  0  0  0  0  0
   -8.1190   19.6340  -33.6100 H   0  0  0  0  0  0  0  0  0  0  0  0
   -7.0366   17.5857  -34.9824 H   0  0  0  0  0  0  0  0  0  0  0  0
   -4.8508   16.5365  -35.6393 H   0  0  0  0  0  0  0  0  0  0  0  0
   -1.3735   17.8939  -33.2838 H   0  0  0  0  0  0  0  0  0  0  0  0
   -1.1242   16.1959  -33.9018 H   0  0  0  0  0  0  0  0  0  0  0  0
    0.8364   17.0318  -34.6409 H   0  0  0  0  0  0  0  0  0  0  0  0
   -0.2541   17.6464  -36.0042 H   0  0  0  0  0  0  0  0  0  0  0  0
    2.0257   19.1182  -33.2622 H   0  0  0  0  0  0  0  0  0  0  0  0
    2.4014   18.2209  -34.7722 H   0  0  0  0  0  0  0  0  0  0  0  0
    2.3977   20.0171  -34.7722 H   0  0  0  0  0  0  0  0  0  0  0  0
   -1.2613   19.1694  -33.4934 H   0  0  0  0  0  0  0  0  0  0  0  0
    0.2888   19.8063  -32.7417 H   0  0  0  0  0  0  0  0  0  0  0  0
   -1.6706   21.2109  -34.5675 H   0  0  0  0  0  0  0  0  0  0  0  0
   -0.9664   21.7262  -32.9778 H   0  0  0  0  0  0  0  0  0  0  0  0
    1.1330   21.9930  -34.0190 H   0  0  0  0  0  0  0  0  0  0  0  0
    0.0404   21.8702  -36.7098 H   0  0  0  0  0  0  0  0  0  0  0  0
    1.7015   21.4580  -36.0635 H   0  0  0  0  0  0  0  0  0  0  0  0
   -0.7489   19.7205  -36.3331 H   0  0  0  0  0  0  0  0  0  0  0  0
    1.0085   19.3980  -36.7233 H   0  0  0  0  0  0  0  0  0  0  0  0
   -2.7003   19.6330  -33.4530 H   0  0  0  0  0  0  0  0  0  0  0  0
  1  2  1  0
  2  3  1  0
  3  4  1  0
  3  5  1  0
  5  6  1  0
  6  7  1  0
  7  8  1  0
  8  9  2  0
  9 10  1  0
 10 11  2  0
 11 12  1  0
 12 13  2  0
 13 14  1  0
 14 15  2  0
 15 16  1  0
 15 17  1  0
 17 18  1  0
 18 19  1  0
 19 20  2  0
 20 21  1  0
 21 22  2  0
 22 23  1  0
 23 24  1  0
 24 25  1  0
 25 26  1  0
 26 27  1  0
 26 28  1  0
 28 29  1  0
 29 30  1  0
 30 31  1  0
 31 32  1  0
 22 33  1  0
 33 34  2  0
 34 35  1  0
 35  8  1  0
 14  9  1  0
 35 17  2  0
 34 19  1  0
 32 26  1  0
  1 36  1  0
  1 37  1  0
  1 38  1  0
  2 39  1  0
  2 40  1  0
  3 41  1  6
  4 42  1  0
  4 43  1  0
  4 44  1  0
  5 45  1  0
  5 46  1  0
  6 47  1  0
  6 48  1  0
  7 49  1  0
 10 50  1  0
 11 51  1  0
 12 52  1  0
 13 53  1  0
 16 54  1  0
 16 55  1  0
 16 56  1  0
 18 57  1  0
 20 58  1  0
 21 59  1  0
 24 60  1  0
 24 61  1  0
 25 62  1  0
 25 63  1  0
 27 64  1  0
 27 65  1  0
 27 66  1  0
 28 67  1  0
 28 68  1  0
 29 69  1  0
 29 70  1  0
 30 71  1  0
 31 72  1  0
 31 73  1  0
 32 74  1  0
 32 75  1  0
 33 76  1  0
M  CHG  3   3   1  15   1  26   1
M  END
>  <UniqueID>  (13) 
13

>  <SMILES>  (13) 
CC[N@@H+](C)CCNc1c2ccccc2[n+](C)c2[nH]c3ccc(OCC[N+]4(C)CCNCC4)cc3c12

>  <Energy>  (13) 
159.12194749788847

>  <Genealogy>  (13) 
CC[NH+](C)CCNc1c2ccccc2[n+](C)c2[nH]c3ccc(OCC[N+]4(C)CCNCC4)cc3c12 (protonated)
CC[N@@H+](C)CCNc1c2ccccc2[n+](C)c2[nH]c3ccc(OCC[N+]4(C)CCNCC4)cc3c12 (chirality)
CC[N@@H+](C)CCNc1c2ccccc2[n+](C)c2[nH]c3ccc(OCC[N+]4(C)CCNCC4)cc3c12 (3D coordinates assigned)
CC[N@@H+](C)CCNc1c2ccccc2[n+](C)c2[nH]c3ccc(OCC[N+]4(C)CCNCC4)cc3c12 (nonaromatic ring conformer: 159.12194749788847 kcal/mol)

>  <smiles>  (13) 
CCN(C)CCNc1c2ccccc2[n+](C)c2[nH]c3ccc(OCC[N+]4(C)CCNCC4)cc3c12

>  <score_type>  (13) 
oracle

>  <origin>  (13) 
adg

>  <m_score__min__energy>  (13) 
-8.6500000000000004

>  <m_primary>  (13) 
energy

$$$$
13:0
     RDKit          3D

 69 71  0  0  0  0  0  0  0  0999 V2000
    0.6330   24.5620  -36.0980 C   0  0  0  0  0  0  0  0  0  0  0  0
    1.5110   23.3680  -35.7150 C   0  0  0  0  0  0  0  0  0  0  0  0
    0.8150   22.0610  -35.7670 N   0  0  0  0  0  0  0  0  0  0  0  0
    1.6300   20.9260  -36.2550 C   0  0  0  0  0  0  0  0  0  0  0  0
    0.7340   19.7580  -36.6560 C   0  0  0  0  0  0  0  0  0  0  0  0
   -0.0750   21.7770  -34.6130 C   0  0  0  0  0  0  0  0  0  0  0  0
    0.5810   20.9580  -33.4820 C   0  0  0  0  0  0  0  0  0  0  0  0
   -0.4200   20.2350  -32.7920 O   0  0  0  0  0  0  0  0  0  0  0  0
    0.1260   19.6000  -31.6540 C   0  0  0  0  0  0  0  0  0  0  0  0
   -0.1210   20.4630  -30.4210 C   0  0  0  0  0  0  0  0  0  0  0  0
   -0.8050   21.6350  -30.8120 O   0  0  0  0  0  0  0  0  0  0  0  0
   -0.7280   22.6130  -29.7930 C   0  0  0  0  0  0  0  0  0  0  0  0
   -2.0670   22.6730  -29.0690 C   0  0  0  0  0  0  0  0  0  0  0  0
   -2.8990   23.6090  -29.7270 O   0  0  0  0  0  0  0  0  0  0  0  0
   -4.0830   23.8360  -28.9860 C   0  0  0  0  0  0  0  0  0  0  0  0
   -4.9330   24.8630  -29.7200 C   0  0  0  0  0  0  0  0  0  0  0  0
   -4.7470   24.7240  -31.1570 N   0  0  0  0  0  0  0  0  0  0  0  0
   -5.4550   23.7650  -31.9460 C   0  0  0  0  0  0  0  0  0  0  0  0
   -6.6140   24.0250  -32.3870 O   0  0  0  0  0  0  0  0  0  0  0  0
   -4.8660   22.4390  -32.1820 C   0  0  0  0  0  0  0  0  0  0  0  0
   -3.4630   22.3030  -32.2310 C   0  0  0  0  0  0  0  0  0  0  0  0
   -2.8850   21.1110  -32.5770 N   0  0  0  0  0  0  0  0  0  0  0  0
   -3.6260   20.0080  -32.8840 C   0  0  0  0  0  0  0  0  0  0  0  0
   -5.0170   20.1010  -32.8280 C   0  0  0  0  0  0  0  0  0  0  0  0
   -5.6260   21.2880  -32.4610 C   0  0  0  0  0  0  0  0  0  0  0  0
   -6.9840   21.0000  -32.3830 C   0  0  0  0  0  0  0  0  0  0  0  0
   -8.0800   21.7480  -31.9400 C   0  0  0  0  0  0  0  0  0  0  0  0
   -9.3380   21.1230  -31.8970 C   0  0  0  0  0  0  0  0  0  0  0  0
   -9.4790   19.7720  -32.2760 C   0  0  0  0  0  0  0  0  0  0  0  0
   -8.3650   19.0260  -32.6900 C   0  0  0  0  0  0  0  0  0  0  0  0
   -7.1210   19.6680  -32.7360 C   0  0  0  0  0  0  0  0  0  0  0  0
   -5.9230   19.1140  -33.0350 N   0  0  0  0  0  0  0  0  0  0  0  0
   -5.6470   17.7150  -33.3660 C   0  0  0  0  0  0  0  0  0  0  0  0
    0.2690   25.0570  -35.1856 H   0  0  0  0  0  0  0  0  0  0  0  0
    1.2231   25.2756  -36.6918 H   0  0  0  0  0  0  0  0  0  0  0  0
   -0.2240   24.2114  -36.6918 H   0  0  0  0  0  0  0  0  0  0  0  0
    2.3652   23.3318  -36.4072 H   0  0  0  0  0  0  0  0  0  0  0  0
    1.8160   23.5224  -34.6695 H   0  0  0  0  0  0  0  0  0  0  0  0
    2.2152   21.2497  -37.1283 H   0  0  0  0  0  0  0  0  0  0  0  0
    2.3022   20.5980  -35.4484 H   0  0  0  0  0  0  0  0  0  0  0  0
    0.3528   19.2610  -35.7517 H   0  0  0  0  0  0  0  0  0  0  0  0
   -0.1110   20.1321  -37.2527 H   0  0  0  0  0  0  0  0  0  0  0  0
    1.3142   19.0388  -37.2527 H   0  0  0  0  0  0  0  0  0  0  0  0
   -0.4083   22.7372  -34.1923 H   0  0  0  0  0  0  0  0  0  0  0  0
   -0.9028   21.1652  -35.0010 H   0  0  0  0  0  0  0  0  0  0  0  0
    1.3117   20.2568  -33.9114 H   0  0  0  0  0  0  0  0  0  0  0  0
    1.0951   21.6357  -32.7846 H   0  0  0  0  0  0  0  0  0  0  0  0
   -0.3527   18.6192  -31.5167 H   0  0  0  0  0  0  0  0  0  0  0  0
    1.2084   19.4639  -31.7947 H   0  0  0  0  0  0  0  0  0  0  0  0
   -0.7306   19.9044  -29.6955 H   0  0  0  0  0  0  0  0  0  0  0  0
    0.8389   20.7299  -29.9548 H   0  0  0  0  0  0  0  0  0  0  0  0
    0.0658   22.3433  -29.0808 H   0  0  0  0  0  0  0  0  0  0  0  0
   -0.4964   23.5942  -30.2330 H   0  0  0  0  0  0  0  0  0  0  0  0
   -2.5413   21.6806  -29.0859 H   0  0  0  0  0  0  0  0  0  0  0  0
   -1.9135   22.9791  -28.0237 H   0  0  0  0  0  0  0  0  0  0  0  0
   -4.6436   22.8947  -28.8878 H   0  0  0  0  0  0  0  0  0  0  0  0
   -3.8297   24.2095  -27.9828 H   0  0  0  0  0  0  0  0  0  0  0  0
   -5.9928   24.7034  -29.4723 H   0  0  0  0  0  0  0  0  0  0  0  0
   -4.6271   25.8735  -29.4113 H   0  0  0  0  0  0  0  0  0  0  0  0
   -2.8250   23.1656  -31.9881 H   0  0  0  0  0  0  0  0  0  0  0  0
   -1.8430   21.0500  -32.6170 H   0  0  0  0  0  0  0  0  0  0  0  0
   -3.1373   19.0649  -33.1698 H   0  0  0  0  0  0  0  0  0  0  0  0
   -7.9603   22.7976  -31.6334 H   0  0  0  0  0  0  0  0  0  0  0  0
  -10.2192   21.6918  -31.5653 H   0  0  0  0  0  0  0  0  0  0  0  0
  -10.4715   19.2986  -32.2468 H   0  0  0  0  0  0  0  0  0  0  0  0
   -8.4658   17.9671  -32.9704 H   0  0  0  0  0  0  0  0  0  0  0  0
   -5.5325   17.1345  -32.4387 H   0  0  0  0  0  0  0  0  0  0  0  0
   -6.4817   17.3058  -33.9540 H   0  0  0  0  0  0  0  0  0  0  0  0
   -4.7194   17.6535  -33.9540 H   0  0  0  0  0  0  0  0  0  0  0  0
  1  2  1  0
  2  3  1  0
  3  4  1  0
  4  5  1  0
  3  6  1  0
  6  7  1  0
  7  8  1  0
  8  9  1  0
  9 10  1  0
 10 11  1  0
 11 12  1  0
 12 13  1  0
 13 14  1  0
 14 15  1  0
 15 16  1  0
 16 17  1  0
 17 18  1  0
 18 19  2  0
 18 20  1  0
 20 21  2  0
 21 22  1  0
 22 23  2  0
 23 24  1  0
 24 25  2  0
 25 26  1  0
 26 27  2  0
 27 28  1  0
 28 29  2  0
 29 30  1  0
 30 31  2  0
 31 32  1  0
 32 33  1  0
 25 20  1  0
 31 26  1  0
 32 24  1  0
  1 34  1  0
  1 35  1  0
  1 36  1  0
  2 37  1  0
  2 38  1  0
  4 39  1  0
  4 40  1  0
  5 41  1  0
  5 42  1  0
  5 43  1  0
  6 44  1  0
  6 45  1  0
  7 46  1  0
  7 47  1  0
  9 48  1  0
  9 49  1  0
 10 50  1  0
 10 51  1  0
 12 52  1  0
 12 53  1  0
 13 54  1  0
 13 55  1  0
 15 56  1  0
 15 57  1  0
 16 58  1  0
 16 59  1  0
 21 60  1  0
 22 61  1  0
 23 62  1  0
 27 63  1  0
 28 64  1  0
 29 65  1  0
 30 66  1  0
 33 67  1  0
 33 68  1  0
 33 69  1  0
M  CHG  2  17  -1  22   1
M  END
>  <UniqueID>  (14) 
14

>  <SMILES>  (14) 
CCN(CC)CCOCCOCCOCC[N-]C(=O)c1c[nH+]cc2c1c1ccccc1n2C

>  <Energy>  (14) 
114.90920948727427

>  <Genealogy>  (14) 
CCN(CC)CCOCCOCCOCC[N-]C(=O)c1c[nH+]cc2c1c1ccccc1n2C (protonated)
CCN(CC)CCOCCOCCOCC[N-]C(=O)c1c[nH+]cc2c1c1ccccc1n2C (3D coordinates assigned)
CCN(CC)CCOCCOCCOCC[N-]C(=O)c1c[nH+]cc2c1c1ccccc1n2C (optimized conformer: 114.90920948727427 kcal/mol)

>  <smiles>  (14) 
CCN(CC)CCOCCOCCOCCNC(=O)c1cncc2c1c1ccccc1n2C

>  <score_type>  (14) 
oracle

>  <origin>  (14) 
adg

>  <m_score__min__energy>  (14) 
-8.6899999999999995

>  <m_primary>  (14) 
energy

$$$$
14:0
     RDKit          3D

 53 55  0  0  0  0  0  0  0  0999 V2000
   -4.2350   24.5360  -27.1570 C   0  0  0  0  0  0  0  0  0  0  0  0
   -3.0630   24.4940  -28.1360 C   0  0  0  0  0  0  0  0  0  0  0  0
   -3.5420   24.5190  -29.5360 N   0  0  0  0  0  0  0  0  0  0  0  0
   -2.9670   23.4080  -30.3390 C   0  0  0  0  0  0  0  0  0  0  0  0
   -3.2780   22.0740  -29.6700 C   0  0  0  0  0  0  0  0  0  0  0  0
   -5.0240   24.5290  -29.5820 C   0  0  0  0  0  0  0  0  0  0  0  0
   -5.5400   24.5900  -31.0290 C   0  0  0  0  0  0  0  0  0  0  0  0
   -6.4990   23.4270  -31.3380 C   0  0  0  0  0  0  0  0  0  0  0  0
   -6.3610   22.9220  -32.7190 N   0  0  0  0  0  0  0  0  0  0  0  0
   -6.0860   21.4890  -32.7640 C   0  0  0  0  0  0  0  0  0  0  0  0
   -7.1180   20.5280  -32.5530 C   0  0  0  0  0  0  0  0  0  0  0  0
   -8.4500   20.9030  -32.2360 C   0  0  0  0  0  0  0  0  0  0  0  0
   -9.4290   19.9490  -31.9780 C   0  0  0  0  0  0  0  0  0  0  0  0
   -9.1140   18.6000  -32.0110 C   0  0  0  0  0  0  0  0  0  0  0  0
   -7.8240   18.1950  -32.3330 C   0  0  0  0  0  0  0  0  0  0  0  0
   -6.8110   19.1390  -32.6470 C   0  0  0  0  0  0  0  0  0  0  0  0
   -5.5490   18.7260  -33.0200 N   0  0  0  0  0  0  0  0  0  0  0  0
   -5.3200   17.3220  -33.4320 C   0  0  0  0  0  0  0  0  0  0  0  0
   -4.5040   19.6240  -33.0380 C   0  0  0  0  0  0  0  0  0  0  0  0
   -3.1570   19.1800  -33.1170 C   0  0  0  0  0  0  0  0  0  0  0  0
   -2.1010   20.0840  -33.2020 C   0  0  0  0  0  0  0  0  0  0  0  0
   -0.3020   19.4490  -33.3110 Br  0  0  0  0  0  0  0  0  0  0  0  0
   -2.3550   21.4480  -33.2070 C   0  0  0  0  0  0  0  0  0  0  0  0
   -3.6600   21.9160  -33.0880 C   0  0  0  0  0  0  0  0  0  0  0  0
   -4.7550   21.0230  -32.9660 C   0  0  0  0  0  0  0  0  0  0  0  0
   -3.8521   24.5223  -26.1259 H   0  0  0  0  0  0  0  0  0  0  0  0
   -4.8162   25.4555  -27.3201 H   0  0  0  0  0  0  0  0  0  0  0  0
   -4.8806   23.6604  -27.3201 H   0  0  0  0  0  0  0  0  0  0  0  0
   -2.4164   25.3666  -27.9611 H   0  0  0  0  0  0  0  0  0  0  0  0
   -2.5029   23.5614  -27.9732 H   0  0  0  0  0  0  0  0  0  0  0  0
   -3.4050   23.4217  -31.3479 H   0  0  0  0  0  0  0  0  0  0  0  0
   -1.8765   23.5351  -30.4072 H   0  0  0  0  0  0  0  0  0  0  0  0
   -3.2495   22.1964  -28.5772 H   0  0  0  0  0  0  0  0  0  0  0  0
   -4.2792   21.7354  -29.9750 H   0  0  0  0  0  0  0  0  0  0  0  0
   -2.5298   21.3276  -29.9750 H   0  0  0  0  0  0  0  0  0  0  0  0
   -5.4030   23.6130  -29.1052 H   0  0  0  0  0  0  0  0  0  0  0  0
   -5.3808   25.4228  -29.0493 H   0  0  0  0  0  0  0  0  0  0  0  0
   -6.0724   25.5409  -31.1783 H   0  0  0  0  0  0  0  0  0  0  0  0
   -4.6763   24.5128  -31.7058 H   0  0  0  0  0  0  0  0  0  0  0  0
   -6.2886   22.6032  -30.6400 H   0  0  0  0  0  0  0  0  0  0  0  0
   -7.5256   23.8058  -31.2252 H   0  0  0  0  0  0  0  0  0  0  0  0
   -5.5850   23.4350  -33.1940 H   0  0  0  0  0  0  0  0  0  0  0  0
   -7.1840   23.2010  -33.2930 H   0  0  0  0  0  0  0  0  0  0  0  0
   -8.7134   21.9701  -32.1935 H   0  0  0  0  0  0  0  0  0  0  0  0
  -10.4565   20.2665  -31.7470 H   0  0  0  0  0  0  0  0  0  0  0  0
   -9.8850   17.8495  -31.7823 H   0  0  0  0  0  0  0  0  0  0  0  0
   -7.5831   17.1218  -32.3448 H   0  0  0  0  0  0  0  0  0  0  0  0
   -5.2169   16.6897  -32.5378 H   0  0  0  0  0  0  0  0  0  0  0  0
   -6.1730   16.9722  -34.0321 H   0  0  0  0  0  0  0  0  0  0  0  0
   -4.4001   17.2614  -34.0321 H   0  0  0  0  0  0  0  0  0  0  0  0
   -2.9438   18.1009  -33.1109 H   0  0  0  0  0  0  0  0  0  0  0  0
   -1.5230   22.1609  -33.3052 H   0  0  0  0  0  0  0  0  0  0  0  0
   -3.8460   23.0002  -33.0886 H   0  0  0  0  0  0  0  0  0  0  0  0
  1  2  1  0
  2  3  1  0
  3  4  1  0
  4  5  1  0
  3  6  1  0
  6  7  1  0
  7  8  1  0
  8  9  1  0
  9 10  1  0
 10 11  2  0
 11 12  1  0
 12 13  2  0
 13 14  1  0
 14 15  2  0
 15 16  1  0
 16 17  2  0
 17 18  1  0
 17 19  1  0
 19 20  2  0
 20 21  1  0
 21 22  1  0
 21 23  2  0
 23 24  1  0
 24 25  2  0
 25 10  1  0
 16 11  1  0
 25 19  1  0
  1 26  1  0
  1 27  1  0
  1 28  1  0
  2 29  1  0
  2 30  1  0
  4 31  1  0
  4 32  1  0
  5 33  1  0
  5 34  1  0
  5 35  1  0
  6 36  1  0
  6 37  1  0
  7 38  1  0
  7 39  1  0
  8 40  1  0
  8 41  1  0
  9 42  1  0
  9 43  1  0
 12 44  1  0
 13 45  1  0
 14 46  1  0
 15 47  1  0
 18 48  1  0
 18 49  1  0
 18 50  1  0
 20 51  1  0
 23 52  1  0
 24 53  1  0
M  CHG  2   9   1  17   1
M  END
>  <UniqueID>  (15) 
15

>  <SMILES>  (15) 
CCN(CC)CCC[NH2+]c1c2ccccc2[n+](C)c2cc(Br)ccc12

>  <Energy>  (15) 
78.60577076559723

>  <Genealogy>  (15) 
CCN(CC)CCC[NH2+]c1c2ccccc2[n+](C)c2cc(Br)ccc12 (protonated)
CCN(CC)CCC[NH2+]c1c2ccccc2[n+](C)c2cc(Br)ccc12 (3D coordinates assigned)
CCN(CC)CCC[NH2+]c1c2ccccc2[n+](C)c2cc(Br)ccc12 (optimized conformer: 78.60577076559723 kcal/mol)

>  <smiles>  (15) 
CCN(CC)CCCNc1c2ccccc2[n+](C)c2cc(Br)ccc12

>  <score_type>  (15) 
oracle

>  <origin>  (15) 
adg

>  <m_score__min__energy>  (15) 
-8.1500000000000004

>  <m_primary>  (15) 
energy

$$$$
15:0
     RDKit          3D

 67 69  0  0  0  0  0  0  0  0999 V2000
   -1.0110   26.8110  -24.1960 C   0  0  0  0  0  0  0  0  0  0  0  0
   -0.8040   25.3020  -24.3470 C   0  0  0  0  0  0  0  0  0  0  0  0
   -1.0320   24.8720  -25.7460 N   0  0  0  0  0  0  0  0  0  0  0  0
    0.2290   24.3640  -26.3190 C   0  0  0  0  0  0  0  0  0  0  0  0
   -1.5510   25.9950  -26.5620 C   0  0  0  0  0  0  0  0  0  0  0  0
   -0.8600   26.0560  -27.9330 C   0  0  0  0  0  0  0  0  0  0  0  0
   -1.7670   25.6850  -28.9530 O   0  0  0  0  0  0  0  0  0  0  0  0
   -2.4410   24.4810  -28.6340 C   0  0  0  0  0  0  0  0  0  0  0  0
   -3.8540   24.5170  -29.2230 C   0  0  0  0  0  0  0  0  0  0  0  0
   -3.9040   25.2590  -30.4270 O   0  0  0  0  0  0  0  0  0  0  0  0
   -5.2150   25.6990  -30.7310 C   0  0  0  0  0  0  0  0  0  0  0  0
   -6.2800   24.8650  -30.0130 C   0  0  0  0  0  0  0  0  0  0  0  0
   -6.7460   23.8490  -30.8780 O   0  0  0  0  0  0  0  0  0  0  0  0
   -5.9310   23.7830  -32.0290 C   0  0  0  0  0  0  0  0  0  0  0  0
   -4.8530   22.7230  -31.8190 C   0  0  0  0  0  0  0  0  0  0  0  0
   -4.6940   21.8980  -33.0170 N   0  0  0  0  0  0  0  0  0  0  0  0
   -4.9700   20.4860  -33.0120 C   0  0  0  0  0  0  0  0  0  0  0  0
   -6.2750   20.0220  -32.7580 C   0  0  0  0  0  0  0  0  0  0  0  0
   -7.3230   20.9240  -32.4710 C   0  0  0  0  0  0  0  0  0  0  0  0
   -8.6210   20.4660  -32.2630 C   0  0  0  0  0  0  0  0  0  0  0  0
   -8.9020   19.1100  -32.3500 C   0  0  0  0  0  0  0  0  0  0  0  0
   -7.8800   18.1960  -32.6080 C   0  0  0  0  0  0  0  0  0  0  0  0
   -6.5380   18.6250  -32.7780 C   0  0  0  0  0  0  0  0  0  0  0  0
   -5.5070   17.7240  -32.9740 N   0  0  0  0  0  0  0  0  0  0  0  0
   -5.7360   16.2820  -32.7320 C   0  0  0  0  0  0  0  0  0  0  0  0
   -4.2660   18.1740  -33.3860 C   0  0  0  0  0  0  0  0  0  0  0  0
   -3.2710   17.2820  -33.8620 C   0  0  0  0  0  0  0  0  0  0  0  0
   -2.0110   17.7420  -34.2410 C   0  0  0  0  0  0  0  0  0  0  0  0
   -1.7210   19.0990  -34.1970 C   0  0  0  0  0  0  0  0  0  0  0  0
   -2.6940   20.0070  -33.7910 C   0  0  0  0  0  0  0  0  0  0  0  0
   -3.9710   19.5650  -33.3800 C   0  0  0  0  0  0  0  0  0  0  0  0
   -1.0467   27.0711  -23.1278 H   0  0  0  0  0  0  0  0  0  0  0  0
   -0.1777   27.3452  -24.6758 H   0  0  0  0  0  0  0  0  0  0  0  0
   -1.9574   27.1011  -24.6758 H   0  0  0  0  0  0  0  0  0  0  0  0
    0.2265   25.0495  -24.0565 H   0  0  0  0  0  0  0  0  0  0  0  0
   -1.5254   24.7828  -23.6989 H   0  0  0  0  0  0  0  0  0  0  0  0
    0.9160   24.0872  -25.5057 H   0  0  0  0  0  0  0  0  0  0  0  0
    0.0200   23.4799  -26.9392 H   0  0  0  0  0  0  0  0  0  0  0  0
    0.6912   25.1461  -26.9392 H   0  0  0  0  0  0  0  0  0  0  0  0
   -2.6323   25.8592  -26.7116 H   0  0  0  0  0  0  0  0  0  0  0  0
   -1.3465   26.9349  -26.0284 H   0  0  0  0  0  0  0  0  0  0  0  0
   -0.5061   27.0812  -28.1165 H   0  0  0  0  0  0  0  0  0  0  0  0
   -0.0090   25.3590  -27.9379 H   0  0  0  0  0  0  0  0  0  0  0  0
   -1.8890   23.6285  -29.0565 H   0  0  0  0  0  0  0  0  0  0  0  0
   -2.5014   24.3725  -27.5410 H   0  0  0  0  0  0  0  0  0  0  0  0
   -4.1812   23.4866  -29.4262 H   0  0  0  0  0  0  0  0  0  0  0  0
   -4.5158   25.0059  -28.4930 H   0  0  0  0  0  0  0  0  0  0  0  0
   -5.3180   26.7495  -30.4214 H   0  0  0  0  0  0  0  0  0  0  0  0
   -5.3687   25.5871  -31.8145 H   0  0  0  0  0  0  0  0  0  0  0  0
   -5.8425   24.4081  -29.1131 H   0  0  0  0  0  0  0  0  0  0  0  0
   -7.1200   25.5138  -29.7239 H   0  0  0  0  0  0  0  0  0  0  0  0
   -6.5460   23.5149  -32.9007 H   0  0  0  0  0  0  0  0  0  0  0  0
   -5.4591   24.7610  -32.2049 H   0  0  0  0  0  0  0  0  0  0  0  0
   -3.8978   23.2199  -31.5941 H   0  0  0  0  0  0  0  0  0  0  0  0
   -5.1542   22.0751  -30.9826 H   0  0  0  0  0  0  0  0  0  0  0  0
   -4.6090   22.3880  -33.9360 H   0  0  0  0  0  0  0  0  0  0  0  0
   -7.1110   22.0017  -32.4111 H   0  0  0  0  0  0  0  0  0  0  0  0
   -9.4247   21.1798  -32.0294 H   0  0  0  0  0  0  0  0  0  0  0  0
   -9.9342   18.7544  -32.2151 H   0  0  0  0  0  0  0  0  0  0  0  0
   -8.1185   17.1246  -32.6809 H   0  0  0  0  0  0  0  0  0  0  0  0
   -5.7661   16.0922  -31.6489 H   0  0  0  0  0  0  0  0  0  0  0  0
   -6.6931   15.9819  -33.1836 H   0  0  0  0  0  0  0  0  0  0  0  0
   -4.9190   15.7001  -33.1836 H   0  0  0  0  0  0  0  0  0  0  0  0
   -3.4979   16.2080  -33.9333 H   0  0  0  0  0  0  0  0  0  0  0  0
   -1.2443   17.0279  -34.5759 H   0  0  0  0  0  0  0  0  0  0  0  0
   -0.7210   19.4567  -34.4834 H   0  0  0  0  0  0  0  0  0  0  0  0
   -2.4657   21.0831  -33.7901 H   0  0  0  0  0  0  0  0  0  0  0  0
  1  2  1  0
  2  3  1  0
  3  4  1  0
  3  5  1  0
  5  6  1  0
  6  7  1  0
  7  8  1  0
  8  9  1  0
  9 10  1  0
 10 11  1  0
 11 12  1  0
 12 13  1  0
 13 14  1  0
 14 15  1  0
 15 16  1  0
 16 17  1  0
 17 18  2  0
 18 19  1  0
 19 20  2  0
 20 21  1  0
 21 22  2  0
 22 23  1  0
 23 24  2  0
 24 25  1  0
 24 26  1  0
 26 27  2  0
 27 28  1  0
 28 29  2  0
 29 30  1  0
 30 31  2  0
 31 17  1  0
 23 18  1  0
 31 26  1  0
  1 32  1  0
  1 33  1  0
  1 34  1  0
  2 35  1  0
  2 36  1  0
  4 37  1  0
  4 38  1  0
  4 39  1  0
  5 40  1  0
  5 41  1  0
  6 42  1  0
  6 43  1  0
  8 44  1  0
  8 45  1  0
  9 46  1  0
  9 47  1  0
 11 48  1  0
 11 49  1  0
 12 50  1  0
 12 51  1  0
 14 52  1  0
 14 53  1  0
 15 54  1  0
 15 55  1  0
 16 56  1  0
 19 57  1  0
 20 58  1  0
 21 59  1  0
 22 60  1  0
 25 61  1  0
 25 62  1  0
 25 63  1  0
 27 64  1  0
 28 65  1  0
 29 66  1  0
 30 67  1  0
M  CHG  1  24   1
M  END
>  <UniqueID>  (16) 
16

>  <SMILES>  (16) 
CCN(C)CCOCCOCCOCCNc1c2ccccc2[n+](C)c2ccccc12

>  <Energy>  (16) 
87.85726238886619

>  <Genealogy>  (16) 
CCN(C)CCOCCOCCOCCNc1c2ccccc2[n+](C)c2ccccc12 (3D coordinates assigned)
CCN(C)CCOCCOCCOCCNc1c2ccccc2[n+](C)c2ccccc12 (optimized conformer: 87.85726238886619 kcal/mol)

>  <smiles>  (16) 
CCN(C)CCOCCOCCOCCNc1c2ccccc2[n+](C)c2ccccc12

>  <score_type>  (16) 
oracle

>  <origin>  (16) 
adg

>  <m_score__min__energy>  (16) 
-8.9499999999999993

>  <m_primary>  (16) 
energy

$$$$
16:0
     RDKit          3D

 45 45  0  0  0  0  0  0  0  0999 V2000
   -3.0760   22.6240  -30.8420 C   0  0  0  0  0  0  0  0  0  0  0  0
   -4.1950   21.2000  -31.0490 S   0  0  0  0  0  0  0  0  0  0  0  0
   -4.1830   21.2070  -32.8810 C   0  0  0  0  0  0  0  0  0  0  0  0
   -5.3780   20.4390  -33.4570 C   0  0  0  0  0  0  0  0  0  0  0  0
   -5.0810   18.9500  -33.7080 C   0  0  0  0  0  0  0  0  0  0  0  0
   -6.1260   18.3560  -34.5480 N   0  0  0  0  0  0  0  0  0  0  0  0
   -6.8270   17.2880  -33.8230 C   0  0  0  0  0  0  0  0  0  0  0  0
   -6.8490   17.5870  -32.3150 C   0  0  0  0  0  0  0  0  0  0  0  0
   -8.0610   18.4560  -31.9100 C   0  0  0  0  0  0  0  0  0  0  0  0
   -8.5490   19.2840  -33.0300 N   0  0  0  0  0  0  0  0  0  0  0  0
   -9.1290   20.5560  -32.5610 C   0  0  0  0  0  0  0  0  0  0  0  0
   -8.6590   20.9070  -31.1410 C   0  0  0  0  0  0  0  0  0  0  0  0
   -7.7630   22.1180  -31.1240 C   0  0  0  0  0  0  0  0  0  0  0  0
   -7.3230   22.6890  -32.3300 C   0  0  0  0  0  0  0  0  0  0  0  0
   -6.4700   23.7960  -32.3160 C   0  0  0  0  0  0  0  0  0  0  0  0
   -6.0440   24.3340  -31.0980 C   0  0  0  0  0  0  0  0  0  0  0  0
   -6.4690   23.7670  -29.8940 C   0  0  0  0  0  0  0  0  0  0  0  0
   -7.3210   22.6600  -29.9030 C   0  0  0  0  0  0  0  0  0  0  0  0
   -2.9237   22.8178  -29.7700 H   0  0  0  0  0  0  0  0  0  0  0  0
   -2.1083   22.4018  -31.3156 H   0  0  0  0  0  0  0  0  0  0  0  0
   -3.5207   23.5117  -31.3156 H   0  0  0  0  0  0  0  0  0  0  0  0
   -4.2241   22.2480  -33.2341 H   0  0  0  0  0  0  0  0  0  0  0  0
   -3.2609   20.7127  -33.2205 H   0  0  0  0  0  0  0  0  0  0  0  0
   -6.2154   20.5132  -32.7476 H   0  0  0  0  0  0  0  0  0  0  0  0
   -5.6178   20.8919  -34.4303 H   0  0  0  0  0  0  0  0  0  0  0  0
   -4.1098   18.8545  -34.2156 H   0  0  0  0  0  0  0  0  0  0  0  0
   -5.0559   18.4230  -32.7428 H   0  0  0  0  0  0  0  0  0  0  0  0
   -6.8170   19.1110  -34.7480 H   0  0  0  0  0  0  0  0  0  0  0  0
   -7.8604   17.2168  -34.1932 H   0  0  0  0  0  0  0  0  0  0  0  0
   -6.2986   16.3378  -33.9901 H   0  0  0  0  0  0  0  0  0  0  0  0
   -6.8962   16.6351  -31.7657 H   0  0  0  0  0  0  0  0  0  0  0  0
   -5.9347   18.1466  -32.0682 H   0  0  0  0  0  0  0  0  0  0  0  0
   -8.8750   17.7959  -31.5759 H   0  0  0  0  0  0  0  0  0  0  0  0
   -7.7392   19.1319  -31.1040 H   0  0  0  0  0  0  0  0  0  0  0  0
   -7.7800   19.4650  -33.7150 H   0  0  0  0  0  0  0  0  0  0  0  0
   -9.2960   18.7380  -33.5240 H   0  0  0  0  0  0  0  0  0  0  0  0
   -8.8241   21.3607  -33.2463 H   0  0  0  0  0  0  0  0  0  0  0  0
  -10.2234   20.4469  -32.5422 H   0  0  0  0  0  0  0  0  0  0  0  0
   -9.5408   21.1094  -30.5153 H   0  0  0  0  0  0  0  0  0  0  0  0
   -8.0827   20.0536  -30.7542 H   0  0  0  0  0  0  0  0  0  0  0  0
   -7.6514   22.2629  -33.2895 H   0  0  0  0  0  0  0  0  0  0  0  0
   -6.1340   24.2438  -33.2629 H   0  0  0  0  0  0  0  0  0  0  0  0
   -5.3729   25.2055  -31.0876 H   0  0  0  0  0  0  0  0  0  0  0  0
   -6.1322   24.1929  -28.9374 H   0  0  0  0  0  0  0  0  0  0  0  0
   -7.6472   22.2109  -28.9533 H   0  0  0  0  0  0  0  0  0  0  0  0
  1  2  1  0
  2  3  1  0
  3  4  1  0
  4  5  1  0
  5  6  1  0
  6  7  1  0
  7  8  1  0
  8  9  1  0
  9 10  1  0
 10 11  1  0
 11 12  1  0
 12 13  1  0
 13 14  2  0
 14 15  1  0
 15 16  2  0
 16 17  1  0
 17 18  2  0
 18 13  1  0
  1 19  1  0
  1 20  1  0
  1 21  1  0
  3 22  1  0
  3 23  1  0
  4 24  1  0
  4 25  1  0
  5 26  1  0
  5 27  1  0
  6 28  1  0
  7 29  1  0
  7 30  1  0
  8 31  1  0
  8 32  1  0
  9 33  1  0
  9 34  1  0
 10 35  1  0
 10 36  1  0
 11 37  1  0
 11 38  1  0
 12 39  1  0
 12 40  1  0
 14 41  1  0
 15 42  1  0
 16 43  1  0
 17 44  1  0
 18 45  1  0
M  CHG  1  10   1
M  END
>  <UniqueID>  (17) 
17

>  <SMILES>  (17) 
CSCCCNCCC[NH2+]CCc1ccccc1

>  <Energy>  (17) 
30.504089170549676

>  <Genealogy>  (17) 
CSCCCNCCC[NH2+]CCc1ccccc1 (protonated)
CSCCCNCCC[NH2+]CCc1ccccc1 (3D coordinates assigned)
CSCCCNCCC[NH2+]CCc1ccccc1 (optimized conformer: 30.504089170549676 kcal/mol)

>  <smiles>  (17) 
CSCCCNCCCNCCc1ccccc1

>  <score_type>  (17) 
oracle

>  <origin>  (17) 
adg

>  <m_score__min__energy>  (17) 
-6.5099999999999998

>  <m_primary>  (17) 
energy

$$$$
17:0
     RDKit          3D

 42 43  0  0  0  0  0  0  0  0999 V2000
   -4.0160   19.8860  -33.4700 C   0  0  0  0  0  0  0  0  0  0  0  0
   -5.3200   19.1840  -33.8580 C   0  0  0  0  0  0  0  0  0  0  0  0
   -5.6430   17.9030  -33.0410 C   0  0  2  0  0  0  0  0  0  0  0  0
   -6.4840   16.9140  -33.8560 C   0  0  0  0  0  0  0  0  0  0  0  0
   -6.3180   18.1630  -31.7510 N   0  0  0  0  0  0  0  0  0  0  0  0
   -7.7510   18.4730  -31.8730 C   0  0  0  0  0  0  0  0  0  0  0  0
   -7.9910   19.9590  -31.8130 C   0  0  0  0  0  0  0  0  0  0  0  0
   -9.2780   20.4800  -32.0170 C   0  0  0  0  0  0  0  0  0  0  0  0
   -9.4890   21.8610  -31.9900 C   0  0  0  0  0  0  0  0  0  0  0  0
   -8.4190   22.7300  -31.7630 C   0  0  0  0  0  0  0  0  0  0  0  0
   -7.1240   22.2240  -31.5550 C   0  0  0  0  0  0  0  0  0  0  0  0
   -6.0150   23.1150  -31.3310 N   0  0  0  0  0  0  0  0  0  0  0  0
   -4.6570   22.7210  -31.7180 C   0  0  0  0  0  0  0  0  0  0  0  0
   -3.6380   23.4270  -30.8180 C   0  0  0  0  0  0  0  0  0  0  0  0
   -3.8630   24.8250  -30.8050 O   0  0  0  0  0  0  0  0  0  0  0  0
   -5.1180   25.1030  -30.2140 C   0  0  0  0  0  0  0  0  0  0  0  0
   -6.2580   24.5360  -31.0650 C   0  0  0  0  0  0  0  0  0  0  0  0
   -6.9180   20.8350  -31.5880 C   0  0  0  0  0  0  0  0  0  0  0  0
   -3.9351   19.9295  -32.3738 H   0  0  0  0  0  0  0  0  0  0  0  0
   -3.1622   19.3256  -33.8787 H   0  0  0  0  0  0  0  0  0  0  0  0
   -4.0137   20.9073  -33.8787 H   0  0  0  0  0  0  0  0  0  0  0  0
   -6.1463   19.8963  -33.7170 H   0  0  0  0  0  0  0  0  0  0  0  0
   -5.1965   18.8603  -34.9020 H   0  0  0  0  0  0  0  0  0  0  0  0
   -4.6602   17.4650  -32.8124 H   0  0  0  0  0  0  0  0  0  0  0  0
   -7.0424   16.2574  -33.1726 H   0  0  0  0  0  0  0  0  0  0  0  0
   -7.1908   17.4693  -34.4901 H   0  0  0  0  0  0  0  0  0  0  0  0
   -5.8224   16.3056  -34.4901 H   0  0  0  0  0  0  0  0  0  0  0  0
   -6.1980   17.3490  -31.1060 H   0  0  0  0  0  0  0  0  0  0  0  0
   -8.1214   18.0877  -32.8344 H   0  0  0  0  0  0  0  0  0  0  0  0
   -8.2838   17.9988  -31.0356 H   0  0  0  0  0  0  0  0  0  0  0  0
  -10.1229   19.7994  -32.1986 H   0  0  0  0  0  0  0  0  0  0  0  0
  -10.4999   22.2648  -32.1478 H   0  0  0  0  0  0  0  0  0  0  0  0
   -8.5907   23.8164  -31.7469 H   0  0  0  0  0  0  0  0  0  0  0  0
   -4.5475   21.6318  -31.6099 H   0  0  0  0  0  0  0  0  0  0  0  0
   -4.4789   23.0082  -32.7648 H   0  0  0  0  0  0  0  0  0  0  0  0
   -3.7304   23.0372  -29.7935 H   0  0  0  0  0  0  0  0  0  0  0  0
   -2.6284   23.2357  -31.2105 H   0  0  0  0  0  0  0  0  0  0  0  0
   -5.1541   24.6476  -29.2134 H   0  0  0  0  0  0  0  0  0  0  0  0
   -5.2402   26.1939  -30.1431 H   0  0  0  0  0  0  0  0  0  0  0  0
   -7.2094   24.6496  -30.5246 H   0  0  0  0  0  0  0  0  0  0  0  0
   -6.3079   25.0822  -32.0185 H   0  0  0  0  0  0  0  0  0  0  0  0
   -5.9065   20.4302  -31.4361 H   0  0  0  0  0  0  0  0  0  0  0  0
  1  2  1  0
  2  3  1  0
  3  4  1  0
  3  5  1  0
  5  6  1  0
  6  7  1  0
  7  8  2  0
  8  9  1  0
  9 10  2  0
 10 11  1  0
 11 12  1  0
 12 13  1  0
 13 14  1  0
 14 15  1  0
 15 16  1  0
 16 17  1  0
 11 18  2  0
 18  7  1  0
 17 12  1  0
  1 19  1  0
  1 20  1  0
  1 21  1  0
  2 22  1  0
  2 23  1  0
  3 24  1  1
  4 25  1  0
  4 26  1  0
  4 27  1  0
  5 28  1  0
  6 29  1  0
  6 30  1  0
  8 31  1  0
  9 32  1  0
 10 33  1  0
 13 34  1  0
 13 35  1  0
 14 36  1  0
 14 37  1  0
 16 38  1  0
 16 39  1  0
 17 40  1  0
 17 41  1  0
 18 42  1  0
M  END
>  <UniqueID>  (18) 
18

>  <SMILES>  (18) 
CC[C@H](C)NCc1cccc(N2CCOCC2)c1

>  <Energy>  (18) 
42.88934713038125

>  <Genealogy>  (18) 
CC[C@H](C)NCc1cccc(N2CCOCC2)c1 (chirality)
CC[C@H](C)NCc1cccc(N2CCOCC2)c1 (3D coordinates assigned)
CC[C@H](C)NCc1cccc(N2CCOCC2)c1 (nonaromatic ring conformer: 42.88934713038125 kcal/mol)

>  <smiles>  (18) 
CCC(C)NCc1cccc(N2CCOCC2)c1

>  <score_type>  (18) 
oracle

>  <origin>  (18) 
adg

>  <m_score__min__energy>  (18) 
-7.9100000000000001

>  <m_primary>  (18) 
energy

$$$$
18:0
     RDKit          3D

 53 55  0  0  0  0  0  0  0  0999 V2000
   -0.5310   27.1740  -35.8010 C   0  0  0  0  0  0  0  0  0  0  0  0
   -0.1970   25.7980  -36.5590 C   0  0  0  0  0  0  0  0  0  0  0  0
    0.4470   23.6920  -35.7290 O   0  0  0  0  0  0  0  0  0  0  0  0
    1.3970   22.6230  -35.4330 C   0  0  0  0  0  0  0  0  0  0  0  0
    0.6640   21.4230  -34.8230 C   0  0  0  0  0  0  0  0  0  0  0  0
   -0.5200   21.8120  -34.1470 O   0  0  0  0  0  0  0  0  0  0  0  0
   -0.6390   21.2510  -32.8480 C   0  0  0  0  0  0  0  0  0  0  0  0
   -2.0870   20.8330  -32.5220 C   0  0  0  0  0  0  0  0  0  0  0  0
   -2.9020   20.6940  -33.7290 N   0  0  0  0  0  0  0  0  0  0  0  0
   -4.2900   20.4130  -33.5790 C   0  0  0  0  0  0  0  0  0  0  0  0
   -5.3930   21.6530  -32.6000 C   0  0  0  0  0  0  0  0  0  0  0  0
   -7.0640   21.0260  -31.9270 C   0  0  0  0  0  0  0  0  0  0  0  0
   -7.5240   19.3660  -32.1730 N   0  0  0  0  0  0  0  0  0  0  0  0
   -8.7880   18.9210  -31.5960 C   0  0  0  0  0  0  0  0  0  0  0  0
   -6.6190   18.1760  -33.0500 C   0  0  0  0  0  0  0  0  0  0  0  0
   -7.0110   16.8700  -33.2530 C   0  0  0  0  0  0  0  0  0  0  0  0
   -6.1770   16.0010  -33.9800 C   0  0  0  0  0  0  0  0  0  0  0  0
   -4.9230   16.3430  -34.5530 C   0  0  0  0  0  0  0  0  0  0  0  0
   -4.3110   17.6070  -34.4860 C   0  0  0  0  0  0  0  0  0  0  0  0
   -4.9440   18.6310  -33.8160 C   0  0  0  0  0  0  0  0  0  0  0  0
   -7.8560   21.9830  -31.1020 C   0  0  0  0  0  0  0  0  0  0  0  0
   -7.3300   23.4210  -31.2840 C   0  0  0  0  0  0  0  0  0  0  0  0
   -5.8050   23.5510  -31.0560 C   0  0  0  0  0  0  0  0  0  0  0  0
   -4.9700   23.0350  -32.2440 C   0  0  0  0  0  0  0  0  0  0  0  0
   -0.4918   27.0125  -34.7136 H   0  0  0  0  0  0  0  0  0  0  0  0
    0.2078   27.9378  -36.0851 H   0  0  0  0  0  0  0  0  0  0  0  0
   -1.5378   27.5141  -36.0851 H   0  0  0  0  0  0  0  0  0  0  0  0
   -1.1106   25.5860  -37.1338 H   0  0  0  0  0  0  0  0  0  0  0  0
    0.7880   26.0953  -36.9480 H   0  0  0  0  0  0  0  0  0  0  0  0
    1.8954   22.3111  -36.3627 H   0  0  0  0  0  0  0  0  0  0  0  0
    2.1437   22.9927  -34.7148 H   0  0  0  0  0  0  0  0  0  0  0  0
    0.3993   20.7217  -35.6281 H   0  0  0  0  0  0  0  0  0  0  0  0
    1.3349   20.9517  -34.0897 H   0  0  0  0  0  0  0  0  0  0  0  0
    0.0081   20.3637  -32.7852 H   0  0  0  0  0  0  0  0  0  0  0  0
   -0.3385   22.0194  -32.1205 H   0  0  0  0  0  0  0  0  0  0  0  0
   -2.0678   19.8685  -31.9934 H   0  0  0  0  0  0  0  0  0  0  0  0
   -2.5355   21.6199  -31.8978 H   0  0  0  0  0  0  0  0  0  0  0  0
   -2.6130   21.2450  -34.5690 H   0  0  0  0  0  0  0  0  0  0  0  0
   -8.7188   18.9454  -30.4985 H   0  0  0  0  0  0  0  0  0  0  0  0
   -9.5974   19.5882  -31.9273 H   0  0  0  0  0  0  0  0  0  0  0  0
   -9.0008   17.8939  -31.9273 H   0  0  0  0  0  0  0  0  0  0  0  0
   -7.9689   16.5100  -32.8495 H   0  0  0  0  0  0  0  0  0  0  0  0
   -6.5263   14.9669  -34.1166 H   0  0  0  0  0  0  0  0  0  0  0  0
   -4.3850   15.5515  -35.0953 H   0  0  0  0  0  0  0  0  0  0  0  0
   -3.3352   17.7769  -34.9644 H   0  0  0  0  0  0  0  0  0  0  0  0
   -8.9104   21.9417  -31.4129 H   0  0  0  0  0  0  0  0  0  0  0  0
   -7.7602   21.7018  -30.0429 H   0  0  0  0  0  0  0  0  0  0  0  0
   -7.5585   23.7488  -32.3089 H   0  0  0  0  0  0  0  0  0  0  0  0
   -7.8260   24.0464  -30.5271 H   0  0  0  0  0  0  0  0  0  0  0  0
   -5.5645   24.6120  -30.8937 H   0  0  0  0  0  0  0  0  0  0  0  0
   -5.5500   22.9326  -30.1827 H   0  0  0  0  0  0  0  0  0  0  0  0
   -5.1203   23.6966  -33.1098 H   0  0  0  0  0  0  0  0  0  0  0  0
   -3.9068   23.0263  -31.9620 H   0  0  0  0  0  0  0  0  0  0  0  0
  1  2  1  0
  2  3  1  0
  3  4  1  0
  4  5  1  0
  5  6  1  0
  6  7  1  0
  7  8  1  0
  8  9  1  0
  9 10  1  0
 10 11  2  0
 11 12  1  0
 12 13  2  0
 13 14  1  0
 13 15  1  0
 15 16  2  0
 16 17  1  0
 17 18  2  0
 18 19  1  0
 19 20  2  0
 12 21  1  0
 21 22  1  0
 22 23  1  0
 23 24  1  0
 20 10  1  0
 24 11  1  0
 20 15  1  0
  1 25  1  0
  1 26  1  0
  1 27  1  0
  2 28  1  0
  2 29  1  0
  4 30  1  0
  4 31  1  0
  5 32  1  0
  5 33  1  0
  7 34  1  0
  7 35  1  0
  8 36  1  0
  8 37  1  0
  9 38  1  0
 14 39  1  0
 14 40  1  0
 14 41  1  0
 16 42  1  0
 17 43  1  0
 18 44  1  0
 19 45  1  0
 21 46  1  0
 21 47  1  0
 22 48  1  0
 22 49  1  0
 23 50  1  0
 23 51  1  0
 24 52  1  0
 24 53  1  0
M  CHG  1  13   1
M  END
>  <UniqueID>  (19) 
19

>  <SMILES>  (19) 
CCOCCOCCNc1c2c([n+](C)c3ccccc13)CCCC2

>  <Energy>  (19) 
2029.5653861019166

>  <Genealogy>  (19) 
CCOCCOCCNc1c2c([n+](C)c3ccccc13)CCCC2 (3D coordinates assigned)
CCOCCOCCNc1c2c([n+](C)c3ccccc13)CCCC2 (nonaromatic ring conformer: 2029.5653861019166 kcal/mol)

>  <smiles>  (19) 
CCOCCOCCNc1c2c([n+](C)c3ccccc13)CCCC2

>  <score_type>  (19) 
oracle

>  <origin>  (19) 
adg

>  <m_score__min__energy>  (19) 
-8.7400000000000002

>  <m_primary>  (19) 
energy

$$$$
19:0
     RDKit          3D

 42 44  0  0  0  0  0  0  0  0999 V2000
   -6.5066   23.5577  -33.3084 H   0  0  0  0  0  0  0  0  0  0  0  0
   -6.6110   23.0760  -32.3250 C   0  0  0  0  0  0  0  0  0  0  0  0
   -7.6310   22.2220  -32.1490 C   0  0  0  0  0  0  0  0  0  0  0  0
   -9.0670   22.4960  -31.9680 C   0  0  0  0  0  0  0  0  0  0  0  0
   -9.6130   23.6310  -31.9840 O   0  0  0  0  0  0  0  0  0  0  0  0
   -9.8050   21.2820  -31.8580 N   0  0  0  0  0  0  0  0  0  0  0  0
  -10.8380   21.1730  -31.7550 H   0  0  0  0  0  0  0  0  0  0  0  0
   -8.8330   20.2520  -32.0010 C   0  0  0  0  0  0  0  0  0  0  0  0
   -9.0760   18.8800  -31.9830 C   0  0  0  0  0  0  0  0  0  0  0  0
  -10.0947   18.4888  -31.8440 H   0  0  0  0  0  0  0  0  0  0  0  0
   -7.9860   18.0100  -32.1470 C   0  0  0  0  0  0  0  0  0  0  0  0
   -8.1492   16.9222  -32.1373 H   0  0  0  0  0  0  0  0  0  0  0  0
   -6.6840   18.5210  -32.3240 C   0  0  0  0  0  0  0  0  0  0  0  0
   -5.8377   17.8297  -32.4503 H   0  0  0  0  0  0  0  0  0  0  0  0
   -6.4610   19.9090  -32.3400 C   0  0  0  0  0  0  0  0  0  0  0  0
   -5.4482   20.3160  -32.4766 H   0  0  0  0  0  0  0  0  0  0  0  0
   -7.5580   20.7580  -32.1780 C   0  0  0  0  0  0  0  0  0  0  0  0
   -5.6210   23.4100  -31.2840 C   0  0  0  0  0  0  0  0  0  0  0  0
   -5.9420   24.3670  -30.3120 C   0  0  0  0  0  0  0  0  0  0  0  0
   -6.9382   24.8335  -30.3119 H   0  0  0  0  0  0  0  0  0  0  0  0
   -5.0040   24.7320  -29.3430 C   0  0  0  0  0  0  0  0  0  0  0  0
   -5.2743   25.4709  -28.5743 H   0  0  0  0  0  0  0  0  0  0  0  0
   -3.7160   24.1630  -29.3410 C   0  0  0  0  0  0  0  0  0  0  0  0
   -2.7390   24.5450  -28.3440 N   0  0  0  0  0  0  0  0  0  0  0  0
   -1.3650   24.9030  -28.7340 C   0  0  0  0  0  0  0  0  0  0  0  0
   -1.0103   25.7229  -28.0922 H   0  0  0  0  0  0  0  0  0  0  0  0
   -1.3687   25.2154  -29.7887 H   0  0  0  0  0  0  0  0  0  0  0  0
   -0.4280   23.7080  -28.5820 C   0  0  0  0  0  0  0  0  0  0  0  0
   -0.2666   23.5022  -27.5135 H   0  0  0  0  0  0  0  0  0  0  0  0
   -0.8778   22.8261  -29.0614 H   0  0  0  0  0  0  0  0  0  0  0  0
    0.5358   23.9344  -29.0614 H   0  0  0  0  0  0  0  0  0  0  0  0
   -3.1090   24.5810  -26.9220 C   0  0  0  0  0  0  0  0  0  0  0  0
   -4.1758   24.8345  -26.8344 H   0  0  0  0  0  0  0  0  0  0  0  0
   -2.9100   23.5920  -26.4835 H   0  0  0  0  0  0  0  0  0  0  0  0
   -2.2850   25.6220  -26.1670 C   0  0  0  0  0  0  0  0  0  0  0  0
   -2.4054   25.4699  -25.0842 H   0  0  0  0  0  0  0  0  0  0  0  0
   -1.2239   25.5155  -26.4365 H   0  0  0  0  0  0  0  0  0  0  0  0
   -2.6323   26.6303  -26.4365 H   0  0  0  0  0  0  0  0  0  0  0  0
   -3.3910   23.2250  -30.3370 C   0  0  0  0  0  0  0  0  0  0  0  0
   -2.3877   22.7743  -30.3541 H   0  0  0  0  0  0  0  0  0  0  0  0
   -4.3300   22.8600  -31.3050 C   0  0  0  0  0  0  0  0  0  0  0  0
   -4.0559   22.1376  -32.0879 H   0  0  0  0  0  0  0  0  0  0  0  0
  1  2  1  0
  2  3  2  0
  3  4  1  0
  4  5  2  0
  4  6  1  0
  6  7  1  0
  6  8  1  0
  8  9  2  0
  9 10  1  0
  9 11  1  0
 11 12  1  0
 11 13  2  0
 13 14  1  0
 13 15  1  0
 15 16  1  0
 15 17  2  0
  2 18  1  0
 18 19  2  0
 19 20  1  0
 19 21  1  0
 21 22  1  0
 21 23  2  0
 23 24  1  0
 24 25  1  0
 25 26  1  0
 25 27  1  0
 25 28  1  0
 28 29  1  0
 28 30  1  0
 28 31  1  0
 24 32  1  0
 32 33  1  0
 32 34  1  0
 32 35  1  0
 35 36  1  0
 35 37  1  0
 35 38  1  0
 23 39  1  0
 39 40  1  0
 39 41  2  0
 41 42  1  0
 17  3  1  0
 41 18  1  0
 17  8  1  0
M  END
>  <UniqueID>  (20) 
20

>  <SMILES>  (20) 
CCN(CC)c1ccc(/C=C2\C(=O)Nc3ccccc32)cc1

>  <Energy>  (20) 
78.11618838998866

>  <Genealogy>  (20) 
CCN(CC)c1ccc(/C=C2\C(=O)Nc3ccccc32)cc1 (cis-trans isomerization)
CCN(CC)c1ccc(/C=C2\C(=O)Nc3ccccc32)cc1 (3D coordinates assigned)
CCN(CC)c1ccc(/C=C2\C(=O)Nc3ccccc32)cc1 (nonaromatic ring conformer: 78.11618838998866 kcal/mol)

>  <smiles>  (20) 
CCN(CC)c1ccc(C=C2C(=O)Nc3ccccc32)cc1

>  <score_type>  (20) 
oracle

>  <origin>  (20) 
adg

>  <m_score__min__energy>  (20) 
-8.0399999999999991

>  <m_primary>  (20) 
energy

$$$$
20:0
     RDKit          3D

 56 58  0  0  0  0  0  0  0  0999 V2000
   -6.2260   25.6780  -29.3620 C   0  0  0  0  0  0  0  0  0  0  0  0
   -5.7140   25.6330  -30.8020 C   0  0  0  0  0  0  0  0  0  0  0  0
   -5.0050   24.3670  -31.1090 N   0  0  0  0  0  0  0  0  0  0  0  0
   -3.7480   24.3090  -30.3260 C   0  0  0  0  0  0  0  0  0  0  0  0
   -3.7470   23.1110  -29.3820 C   0  0  0  0  0  0  0  0  0  0  0  0
   -5.8560   23.1770  -30.8400 C   0  0  0  0  0  0  0  0  0  0  0  0
   -7.2100   23.3040  -31.5430 C   0  0  0  0  0  0  0  0  0  0  0  0
   -8.1420   22.4120  -30.9640 O   0  0  0  0  0  0  0  0  0  0  0  0
   -9.0820   22.0200  -31.9450 C   0  0  0  0  0  0  0  0  0  0  0  0
   -9.0750   20.4970  -32.1080 C   0  0  0  0  0  0  0  0  0  0  0  0
   -7.6660   19.8920  -32.0550 C   0  0  0  0  0  0  0  0  0  0  0  0
   -7.2390   19.4290  -33.3750 N   0  0  0  0  0  0  0  0  0  0  0  0
   -5.9090   18.9270  -33.5660 C   0  0  0  0  0  0  0  0  0  0  0  0
   -4.7690   19.7520  -33.4670 C   0  0  0  0  0  0  0  0  0  0  0  0
   -4.8870   21.1090  -33.1090 C   0  0  0  0  0  0  0  0  0  0  0  0
   -3.7570   21.9150  -32.9910 C   0  0  0  0  0  0  0  0  0  0  0  0
   -2.4910   21.3780  -33.1920 C   0  0  0  0  0  0  0  0  0  0  0  0
   -2.3410   20.0320  -33.5240 C   0  0  0  0  0  0  0  0  0  0  0  0
   -3.4680   19.1890  -33.6900 C   0  0  0  0  0  0  0  0  0  0  0  0
   -3.3330   17.8500  -34.0330 N   0  0  0  0  0  0  0  0  0  0  0  0
   -2.0160   17.2900  -34.3990 C   0  0  0  0  0  0  0  0  0  0  0  0
   -4.4460   17.0430  -34.0100 C   0  0  0  0  0  0  0  0  0  0  0  0
   -4.4760   15.6420  -34.1870 C   0  0  0  0  0  0  0  0  0  0  0  0
   -5.7610   15.1080  -34.1340 C   0  0  0  0  0  0  0  0  0  0  0  0
   -6.8590   16.3530  -33.8550 S   0  0  0  0  0  0  0  0  0  0  0  0
   -5.7070   17.5740  -33.7940 C   0  0  0  0  0  0  0  0  0  0  0  0
   -5.3758   25.6033  -28.6681 H   0  0  0  0  0  0  0  0  0  0  0  0
   -6.7566   26.6262  -29.1910 H   0  0  0  0  0  0  0  0  0  0  0  0
   -6.9139   24.8369  -29.1910 H   0  0  0  0  0  0  0  0  0  0  0  0
   -6.5704   25.7332  -31.4850 H   0  0  0  0  0  0  0  0  0  0  0  0
   -4.9985   26.4586  -30.9302 H   0  0  0  0  0  0  0  0  0  0  0  0
   -2.8970   24.2227  -31.0176 H   0  0  0  0  0  0  0  0  0  0  0  0
   -3.6657   25.2277  -29.7266 H   0  0  0  0  0  0  0  0  0  0  0  0
   -3.7473   23.4649  -28.3405 H   0  0  0  0  0  0  0  0  0  0  0  0
   -4.6446   22.5013  -29.5624 H   0  0  0  0  0  0  0  0  0  0  0  0
   -2.8483   22.5028  -29.5624 H   0  0  0  0  0  0  0  0  0  0  0  0
   -5.3424   22.2764  -31.2075 H   0  0  0  0  0  0  0  0  0  0  0  0
   -6.0280   23.1056  -29.7559 H   0  0  0  0  0  0  0  0  0  0  0  0
   -7.5793   24.3349  -31.4385 H   0  0  0  0  0  0  0  0  0  0  0  0
   -7.0881   23.0571  -32.6080 H   0  0  0  0  0  0  0  0  0  0  0  0
  -10.0860   22.3476  -31.6372 H   0  0  0  0  0  0  0  0  0  0  0  0
   -8.8125   22.4843  -32.9051 H   0  0  0  0  0  0  0  0  0  0  0  0
   -9.6760   20.0557  -31.2993 H   0  0  0  0  0  0  0  0  0  0  0  0
   -9.4913   20.2717  -33.1009 H   0  0  0  0  0  0  0  0  0  0  0  0
   -6.9605   20.6565  -31.6974 H   0  0  0  0  0  0  0  0  0  0  0  0
   -7.6827   19.0298  -31.3721 H   0  0  0  0  0  0  0  0  0  0  0  0
   -7.6970   19.8780  -34.2010 H   0  0  0  0  0  0  0  0  0  0  0  0
   -5.8826   21.5372  -32.9205 H   0  0  0  0  0  0  0  0  0  0  0  0
   -3.8670   22.9798  -32.7379 H   0  0  0  0  0  0  0  0  0  0  0  0
   -1.6025   22.0182  -33.0886 H   0  0  0  0  0  0  0  0  0  0  0  0
   -1.3311   19.6176  -33.6593 H   0  0  0  0  0  0  0  0  0  0  0  0
   -1.4526   17.0504  -33.4851 H   0  0  0  0  0  0  0  0  0  0  0  0
   -2.1588   16.3747  -34.9922 H   0  0  0  0  0  0  0  0  0  0  0  0
   -1.4559   18.0278  -34.9922 H   0  0  0  0  0  0  0  0  0  0  0  0
   -3.5743   15.0335  -34.3504 H   0  0  0  0  0  0  0  0  0  0  0  0
   -6.0170   14.0450  -34.2548 H   0  0  0  0  0  0  0  0  0  0  0  0
  1  2  1  0
  2  3  1  0
  3  4  1  0
  4  5  1  0
  3  6  1  0
  6  7  1  0
  7  8  1  0
  8  9  1  0
  9 10  1  0
 10 11  1  0
 11 12  1  0
 12 13  1  0
 13 14  2  0
 14 15  1  0
 15 16  2  0
 16 17  1  0
 17 18  2  0
 18 19  1  0
 19 20  2  0
 20 21  1  0
 20 22  1  0
 22 23  1  0
 23 24  2  0
 24 25  1  0
 25 26  1  0
 26 13  1  0
 19 14  1  0
 26 22  2  0
  1 27  1  0
  1 28  1  0
  1 29  1  0
  2 30  1  0
  2 31  1  0
  4 32  1  0
  4 33  1  0
  5 34  1  0
  5 35  1  0
  5 36  1  0
  6 37  1  0
  6 38  1  0
  7 39  1  0
  7 40  1  0
  9 41  1  0
  9 42  1  0
 10 43  1  0
 10 44  1  0
 11 45  1  0
 11 46  1  0
 12 47  1  0
 15 48  1  0
 16 49  1  0
 17 50  1  0
 18 51  1  0
 21 52  1  0
 21 53  1  0
 21 54  1  0
 23 55  1  0
 24 56  1  0
M  CHG  1  20   1
M  END
>  <UniqueID>  (21) 
21

>  <SMILES>  (21) 
CCN(CC)CCOCCCNc1c2ccccc2[n+](C)c2ccsc12

>  <Energy>  (21) 
96.59014203908013

>  <Genealogy>  (21) 
CCN(CC)CCOCCCNc1c2ccccc2[n+](C)c2ccsc12 (3D coordinates assigned)
CCN(CC)CCOCCCNc1c2ccccc2[n+](C)c2ccsc12 (optimized conformer: 96.59014203908013 kcal/mol)

>  <smiles>  (21) 
CCN(CC)CCOCCCNc1c2ccccc2[n+](C)c2ccsc12

>  <score_type>  (21) 
oracle

>  <origin>  (21) 
adg

>  <m_score__min__energy>  (21) 
-8.2200000000000006

>  <m_primary>  (21) 
energy

$$$$
