0:0
     RDKit          3D

 48 50  0  0  0  0  0  0  0  0999 V2000
   -0.1897   25.2582  -27.7323 H   0  0  0  0  0  0  0  0  0  0  0  0
   -1.1420   24.7770  -28.0000 C   0  0  0  0  0  0  0  0  0  0  0  0
   -1.9200   25.3090  -28.9800 N   0  0  0  0  0  0  0  0  0  0  0  0
   -3.1070   24.7440  -29.3470 C   0  0  0  0  0  0  0  0  0  0  0  0
   -3.8460   25.2670  -30.2820 N   0  0  0  0  0  0  0  0  0  0  0  0
   -5.0470   24.7120  -30.8460 C   0  0  0  0  0  0  0  0  0  0  0  0
   -5.0350   24.1430  -31.9720 O   0  0  0  0  0  0  0  0  0  0  0  0
   -6.3370   24.8090  -30.0780 C   0  0  0  0  0  0  0  0  0  0  0  0
   -6.8622   25.7233  -30.3912 H   0  0  0  0  0  0  0  0  0  0  0  0
   -6.0798   24.8254  -29.0086 H   0  0  0  0  0  0  0  0  0  0  0  0
   -7.2340   23.6540  -30.2960 N   0  0  0  0  0  0  0  0  0  0  0  0
   -6.5910   22.3340  -30.0800 C   0  0  0  0  0  0  0  0  0  0  0  0
   -7.2449   21.7212  -29.4421 H   0  0  0  0  0  0  0  0  0  0  0  0
   -5.6153   22.5068  -29.6024 H   0  0  0  0  0  0  0  0  0  0  0  0
   -6.3450   21.5850  -31.4040 C   0  0  0  0  0  0  0  0  0  0  0  0
   -5.9230   20.5952  -31.1755 H   0  0  0  0  0  0  0  0  0  0  0  0
   -5.6533   22.1922  -32.0063 H   0  0  0  0  0  0  0  0  0  0  0  0
   -7.5920   21.4000  -32.1990 N   0  0  0  0  0  0  0  0  0  0  0  0
   -7.3190   21.5660  -33.1980 H   0  0  0  0  0  0  0  0  0  0  0  0
   -8.1100   20.0060  -32.1730 C   0  0  0  0  0  0  0  0  0  0  0  0
   -9.0641   19.9848  -32.7200 H   0  0  0  0  0  0  0  0  0  0  0  0
   -8.2128   19.7326  -31.1125 H   0  0  0  0  0  0  0  0  0  0  0  0
   -7.1860   18.9740  -32.7940 C   0  0  0  0  0  0  0  0  0  0  0  0
   -6.3430   19.3290  -33.8620 C   0  0  0  0  0  0  0  0  0  0  0  0
   -6.3574   20.3582  -34.2501 H   0  0  0  0  0  0  0  0  0  0  0  0
   -5.4870   18.3840  -34.4340 C   0  0  0  0  0  0  0  0  0  0  0  0
   -4.8523   18.6660  -35.2870 H   0  0  0  0  0  0  0  0  0  0  0  0
   -5.4330   17.0780  -33.9260 C   0  0  0  0  0  0  0  0  0  0  0  0
   -4.5450   16.0520  -34.5660 C   0  0  0  0  0  0  0  0  0  0  0  0
   -4.0384   15.4667  -33.7844 H   0  0  0  0  0  0  0  0  0  0  0  0
   -5.1518   15.3807  -35.1914 H   0  0  0  0  0  0  0  0  0  0  0  0
   -3.7936   16.5563  -35.1914 H   0  0  0  0  0  0  0  0  0  0  0  0
   -6.2600   16.7240  -32.8500 C   0  0  0  0  0  0  0  0  0  0  0  0
   -6.2339   15.6979  -32.4545 H   0  0  0  0  0  0  0  0  0  0  0  0
   -7.1180   17.6690  -32.2770 C   0  0  0  0  0  0  0  0  0  0  0  0
   -7.7432   17.3888  -31.4165 H   0  0  0  0  0  0  0  0  0  0  0  0
   -8.6450   22.4060  -31.9010 C   0  0  0  0  0  0  0  0  0  0  0  0
   -9.2504   22.0531  -31.0531 H   0  0  0  0  0  0  0  0  0  0  0  0
   -9.2728   22.5328  -32.7953 H   0  0  0  0  0  0  0  0  0  0  0  0
   -8.0230   23.7600  -31.5440 C   0  0  0  0  0  0  0  0  0  0  0  0
   -8.8239   24.5010  -31.4043 H   0  0  0  0  0  0  0  0  0  0  0  0
   -7.3564   24.0724  -32.3614 H   0  0  0  0  0  0  0  0  0  0  0  0
   -3.5470   23.5840  -28.6970 C   0  0  0  0  0  0  0  0  0  0  0  0
   -4.5031   23.1191  -28.9794 H   0  0  0  0  0  0  0  0  0  0  0  0
   -2.7620   23.0220  -27.6870 C   0  0  0  0  0  0  0  0  0  0  0  0
   -3.0975   22.1100  -27.1716 H   0  0  0  0  0  0  0  0  0  0  0  0
   -1.5510   23.6200  -27.3330 C   0  0  0  0  0  0  0  0  0  0  0  0
   -0.4660   22.8650  -25.9540 Br  0  0  0  0  0  0  0  0  0  0  0  0
  1  2  1  0
  2  3  1  0
  3  4  1  0
  4  5  2  0
  5  6  1  0
  6  7  2  0
  6  8  1  0
  8  9  1  0
  8 10  1  0
  8 11  1  0
 11 12  1  0
 12 13  1  0
 12 14  1  0
 12 15  1  0
 15 16  1  0
 15 17  1  0
 15 18  1  0
 18 19  1  0
 18 20  1  0
 20 21  1  0
 20 22  1  0
 20 23  1  0
 23 24  2  0
 24 25  1  0
 24 26  1  0
 26 27  1  0
 26 28  2  0
 28 29  1  0
 29 30  1  0
 29 31  1  0
 29 32  1  0
 28 33  1  0
 33 34  1  0
 33 35  2  0
 35 36  1  0
 18 37  1  0
 37 38  1  0
 37 39  1  0
 37 40  1  0
 40 41  1  0
 40 42  1  0
  4 43  1  0
 43 44  1  0
 43 45  2  0
 45 46  1  0
 45 47  1  0
 47 48  1  0
 47  2  2  0
 40 11  1  0
 35 23  1  0
M  CHG  2   3  -1  18   1
M  END
>  <UniqueID>  (1) 
1

>  <SMILES>  (1) 
Cc1ccc(C[NH+]2CCN(CC(=O)/N=c3/ccc(Br)c[n-]3)CC2)cc1

>  <Energy>  (1) 
68.95116604874919

>  <Genealogy>  (1) 
Cc1ccc(C[NH+]2CCN(CC(=O)N=c3ccc(Br)c[n-]3)CC2)cc1 (protonated)
Cc1ccc(C[NH+]2CCN(CC(=O)/N=c3/ccc(Br)c[n-]3)CC2)cc1 (cis-trans isomerization)
Cc1ccc(C[NH+]2CCN(CC(=O)/N=c3/ccc(Br)c[n-]3)CC2)cc1 (3D coordinates assigned)
Cc1ccc(C[NH+]2CCN(CC(=O)/N=c3/ccc(Br)c[n-]3)CC2)cc1 (nonaromatic ring conformer: 68.95116604874919 kcal/mol)

>  <smiles>  (1) 
Cc1ccc(CN2CCN(CC(=O)N=c3ccc(Br)c[nH]3)CC2)cc1

>  <score_type>  (1) 
oracle

>  <origin>  (1) 
adg

>  <m_score__min__energy>  (1) 
-10.470000000000001

>  <m_primary>  (1) 
energy

$$$$
1:0
     RDKit          3D

 41 44  0  0  0  0  0  0  0  0999 V2000
   -6.8210   25.1820  -29.7060 C   0  0  0  0  0  0  0  0  0  0  0  0
   -5.7950   25.3890  -30.8150 C   0  0  0  0  0  0  0  0  0  0  0  0
   -5.0390   24.1480  -31.0540 N   0  0  0  0  0  0  0  0  0  0  0  0
   -5.4740   23.2060  -31.9690 C   0  0  0  0  0  0  0  0  0  0  0  0
   -6.5250   23.4280  -32.6330 O   0  0  0  0  0  0  0  0  0  0  0  0
   -4.7770   22.0190  -32.1650 N   0  0  0  0  0  0  0  0  0  0  0  0
   -5.2870   21.0170  -33.1230 C   0  0  0  0  0  0  0  0  0  0  0  0
   -6.4310   20.2450  -32.5180 C   0  0  0  0  0  0  0  0  0  0  0  0
   -6.2630   18.9010  -32.1410 C   0  0  0  0  0  0  0  0  0  0  0  0
   -7.3370   18.1790  -31.6100 C   0  0  0  0  0  0  0  0  0  0  0  0
   -8.5840   18.7900  -31.4540 C   0  0  0  0  0  0  0  0  0  0  0  0
   -8.7590   20.1230  -31.8290 C   0  0  0  0  0  0  0  0  0  0  0  0
   -7.6900   20.8490  -32.3610 C   0  0  0  0  0  0  0  0  0  0  0  0
   -3.6410   21.7530  -31.4320 C   0  0  0  0  0  0  0  0  0  0  0  0
   -2.9960   20.6770  -31.5720 O   0  0  0  0  0  0  0  0  0  0  0  0
   -3.2200   22.7000  -30.5250 C   0  0  0  0  0  0  0  0  0  0  0  0
   -3.9160   23.8640  -30.3370 C   0  0  0  0  0  0  0  0  0  0  0  0
   -3.3660   24.5970  -29.3240 N   0  0  0  0  0  0  0  0  0  0  0  0
   -2.3290   23.8090  -28.9580 C   0  0  0  0  0  0  0  0  0  0  0  0
   -1.4570   23.9380  -27.9420 N   0  0  0  0  0  0  0  0  0  0  0  0
   -0.7450   22.7760  -28.0630 C   0  0  0  0  0  0  0  0  0  0  0  0
    0.3300   22.3720  -27.1110 C   0  0  0  0  0  0  0  0  0  0  0  0
   -1.2280   21.9800  -29.1110 C   0  0  0  0  0  0  0  0  0  0  0  0
   -2.2210   22.6920  -29.6390 N   0  0  0  0  0  0  0  0  0  0  0  0
   -6.3284   25.2814  -28.7275 H   0  0  0  0  0  0  0  0  0  0  0  0
   -7.6150   25.9380  -29.7953 H   0  0  0  0  0  0  0  0  0  0  0  0
   -7.2597   24.1772  -29.7953 H   0  0  0  0  0  0  0  0  0  0  0  0
   -6.3147   25.6804  -31.7396 H   0  0  0  0  0  0  0  0  0  0  0  0
   -5.0944   26.1800  -30.5094 H   0  0  0  0  0  0  0  0  0  0  0  0
   -5.6361   21.5294  -34.0316 H   0  0  0  0  0  0  0  0  0  0  0  0
   -4.4762   20.3164  -33.3714 H   0  0  0  0  0  0  0  0  0  0  0  0
   -5.2836   18.4155  -32.2640 H   0  0  0  0  0  0  0  0  0  0  0  0
   -7.1997   17.1283  -31.3147 H   0  0  0  0  0  0  0  0  0  0  0  0
   -9.4273   18.2207  -31.0359 H   0  0  0  0  0  0  0  0  0  0  0  0
   -9.7409   20.6033  -31.7055 H   0  0  0  0  0  0  0  0  0  0  0  0
   -7.8348   21.8981  -32.6582 H   0  0  0  0  0  0  0  0  0  0  0  0
   -3.6760   25.4970  -28.8970 H   0  0  0  0  0  0  0  0  0  0  0  0
   -0.0253   22.5055  -26.0786 H   0  0  0  0  0  0  0  0  0  0  0  0
    0.5881   21.3155  -27.2762 H   0  0  0  0  0  0  0  0  0  0  0  0
    1.2200   22.9970  -27.2762 H   0  0  0  0  0  0  0  0  0  0  0  0
   -0.8675   20.9897  -29.4261 H   0  0  0  0  0  0  0  0  0  0  0  0
  1  2  1  0
  2  3  1  0
  3  4  1  0
  4  5  2  0
  4  6  1  0
  6  7  1  0
  7  8  1  0
  8  9  2  0
  9 10  1  0
 10 11  2  0
 11 12  1  0
 12 13  2  0
  6 14  1  0
 14 15  2  0
 14 16  1  0
 16 17  2  0
 17 18  1  0
 18 19  1  0
 19 20  2  0
 20 21  1  0
 21 22  1  0
 21 23  2  0
 23 24  1  0
 17  3  1  0
 24 19  1  0
 13  8  1  0
 24 16  1  0
  1 25  1  0
  1 26  1  0
  1 27  1  0
  2 28  1  0
  2 29  1  0
  7 30  1  0
  7 31  1  0
  9 32  1  0
 10 33  1  0
 11 34  1  0
 12 35  1  0
 13 36  1  0
 18 37  1  0
 22 38  1  0
 22 39  1  0
 22 40  1  0
 23 41  1  0
M  END
>  <UniqueID>  (2) 
2

>  <SMILES>  (2) 
CCn1c(=O)n(Cc2ccccc2)c(=O)c2c1[nH]c1nc(C)cn12

>  <Energy>  (2) 
145.3856006677152

>  <Genealogy>  (2) 
CCn1c(=O)n(Cc2ccccc2)c(=O)c2c1[nH]c1nc(C)cn12 (3D coordinates assigned)
CCn1c(=O)n(Cc2ccccc2)c(=O)c2c1[nH]c1nc(C)cn12 (optimized conformer: 145.3856006677152 kcal/mol)

>  <smiles>  (2) 
CCn1c(=O)n(Cc2ccccc2)c(=O)c2c1[nH]c1nc(C)cn12

>  <score_type>  (2) 
oracle

>  <origin>  (2) 
adg

>  <m_score__min__energy>  (2) 
-7.7599999999999998

>  <m_primary>  (2) 
energy

$$$$
2:0
     RDKit          3D

 41 44  0  0  0  0  0  0  0  0999 V2000
   -5.3520   25.8440  -30.4620 C   0  0  0  0  0  0  0  0  0  0  0  0
   -4.0530   25.3040  -30.6700 O   0  0  0  0  0  0  0  0  0  0  0  0
   -3.7980   23.9300  -30.7020 C   0  0  0  0  0  0  0  0  0  0  0  0
   -4.4570   23.1330  -31.5890 N   0  0  0  0  0  0  0  0  0  0  0  0
   -4.2700   21.7870  -31.6480 C   0  0  0  0  0  0  0  0  0  0  0  0
   -5.0360   20.9970  -32.6380 C   0  0  0  0  0  0  0  0  0  0  0  0
   -4.5810   20.8780  -33.8070 O   0  0  0  0  0  0  0  0  0  0  0  0
   -6.3300   20.3620  -32.3130 C   0  0  0  0  0  0  0  0  0  0  0  0
   -6.4050   18.9610  -32.2620 C   0  0  0  0  0  0  0  0  0  0  0  0
   -7.6140   18.3270  -31.9640 C   0  0  0  0  0  0  0  0  0  0  0  0
   -8.7570   19.0860  -31.7060 C   0  0  0  0  0  0  0  0  0  0  0  0
   -8.6920   20.4810  -31.7340 C   0  0  0  0  0  0  0  0  0  0  0  0
   -7.4840   21.1270  -32.0300 C   0  0  0  0  0  0  0  0  0  0  0  0
   -7.4440   22.8860  -31.9750 Cl  0  0  0  0  0  0  0  0  0  0  0  0
   -3.3840   21.1800  -30.7460 C   0  0  0  0  0  0  0  0  0  0  0  0
   -2.6910   21.9680  -29.8280 C   0  0  0  0  0  0  0  0  0  0  0  0
   -2.8780   23.3580  -29.8010 C   0  0  0  0  0  0  0  0  0  0  0  0
   -2.1470   24.1670  -28.8590 N   0  0  0  0  0  0  0  0  0  0  0  0
   -0.8650   24.5800  -28.9500 C   0  0  0  0  0  0  0  0  0  0  0  0
   -0.4740   25.2930  -27.8750 N   0  0  0  0  0  0  0  0  0  0  0  0
   -1.5600   25.3260  -27.0770 C   0  0  0  0  0  0  0  0  0  0  0  0
   -1.5660   26.0310  -25.7460 C   0  0  0  0  0  0  0  0  0  0  0  0
   -0.7780   25.3620  -24.6270 C   0  0  0  0  0  0  0  0  0  0  0  0
   -0.2370   26.6200  -25.2920 C   0  0  0  0  0  0  0  0  0  0  0  0
   -2.5920   24.6260  -27.6770 C   0  0  0  0  0  0  0  0  0  0  0  0
   -5.5469   25.9250  -29.3824 H   0  0  0  0  0  0  0  0  0  0  0  0
   -5.4122   26.8417  -30.9213 H   0  0  0  0  0  0  0  0  0  0  0  0
   -6.1017   25.1830  -30.9213 H   0  0  0  0  0  0  0  0  0  0  0  0
   -5.5059   18.3583  -32.4580 H   0  0  0  0  0  0  0  0  0  0  0  0
   -7.6652   17.2286  -31.9327 H   0  0  0  0  0  0  0  0  0  0  0  0
   -9.7099   18.5849  -31.4804 H   0  0  0  0  0  0  0  0  0  0  0  0
   -9.5932   21.0754  -31.5227 H   0  0  0  0  0  0  0  0  0  0  0  0
   -3.2369   20.0900  -30.7627 H   0  0  0  0  0  0  0  0  0  0  0  0
   -1.9931   21.4967  -29.1203 H   0  0  0  0  0  0  0  0  0  0  0  0
   -0.2116   24.3591  -29.8069 H   0  0  0  0  0  0  0  0  0  0  0  0
   -2.5914   26.4139  -25.8556 H   0  0  0  0  0  0  0  0  0  0  0  0
   -1.1492   25.4030  -23.5923 H   0  0  0  0  0  0  0  0  0  0  0  0
   -0.3896   24.3486  -24.4475 H   0  0  0  0  0  0  0  0  0  0  0  0
   -0.2172   27.5699  -24.7377 H   0  0  0  0  0  0  0  0  0  0  0  0
    0.7044   26.8919  -25.7919 H   0  0  0  0  0  0  0  0  0  0  0  0
   -3.5983   24.4725  -27.2602 H   0  0  0  0  0  0  0  0  0  0  0  0
  1  2  1  0
  2  3  1  0
  3  4  2  0
  4  5  1  0
  5  6  1  0
  6  7  2  0
  6  8  1  0
  8  9  2  0
  9 10  1  0
 10 11  2  0
 11 12  1  0
 12 13  2  0
 13 14  1  0
  5 15  2  0
 15 16  1  0
 16 17  2  0
 17 18  1  0
 18 19  1  0
 19 20  2  0
 20 21  1  0
 21 22  1  0
 22 23  1  0
 23 24  1  0
 21 25  2  0
 17  3  1  0
 25 18  1  0
 13  8  1  0
 24 22  1  0
  1 26  1  0
  1 27  1  0
  1 28  1  0
  9 29  1  0
 10 30  1  0
 11 31  1  0
 12 32  1  0
 15 33  1  0
 16 34  1  0
 19 35  1  0
 22 36  1  0
 23 37  1  0
 23 38  1  0
 24 39  1  0
 24 40  1  0
 25 41  1  0
M  END
>  <UniqueID>  (3) 
3

>  <SMILES>  (3) 
COc1nc(C(=O)c2ccccc2Cl)ccc1-n1cnc(C2CC2)c1

>  <Energy>  (3) 
349.86032935542164

>  <Genealogy>  (3) 
COc1nc(C(=O)c2ccccc2Cl)ccc1-n1cnc(C2CC2)c1 (3D coordinates assigned)
COc1nc(C(=O)c2ccccc2Cl)ccc1-n1cnc(C2CC2)c1 (nonaromatic ring conformer: 349.86032935542164 kcal/mol)

>  <smiles>  (3) 
COc1nc(C(=O)c2ccccc2Cl)ccc1-n1cnc(C2CC2)c1

>  <score_type>  (3) 
oracle

>  <origin>  (3) 
adg

>  <m_score__min__energy>  (3) 
-9.8100000000000005

>  <m_primary>  (3) 
energy

$$$$
3:0
     RDKit          3D

 73 77  0  0  0  0  0  0  0  0999 V2000
    4.3430   19.6680  -34.2150 C   0  0  0  0  0  0  0  0  0  0  0  0
    3.1830   20.4300  -34.5380 O   0  0  0  0  0  0  0  0  0  0  0  0
    1.8650   19.9650  -34.4190 C   0  0  0  0  0  0  0  0  0  0  0  0
    1.5120   18.9100  -33.5600 C   0  0  0  0  0  0  0  0  0  0  0  0
    0.1830   18.4860  -33.4740 C   0  0  0  0  0  0  0  0  0  0  0  0
   -0.8090   19.0910  -34.2620 C   0  0  0  0  0  0  0  0  0  0  0  0
   -2.2220   18.6900  -34.1000 C   0  0  0  0  0  0  0  0  0  0  0  0
   -2.6220   17.4210  -34.3370 N   0  0  0  0  0  0  0  0  0  0  0  0
   -3.9080   17.3890  -33.9450 C   0  0  0  0  0  0  0  0  0  0  0  0
   -4.7360   16.1640  -34.0170 C   0  0  0  0  0  0  0  0  0  0  0  0
   -6.1330   16.2340  -34.1590 C   0  0  0  0  0  0  0  0  0  0  0  0
   -6.8910   15.0630  -34.2620 C   0  0  0  0  0  0  0  0  0  0  0  0
   -6.2630   13.8150  -34.2030 C   0  0  0  0  0  0  0  0  0  0  0  0
   -4.8800   13.7370  -34.0210 C   0  0  0  0  0  0  0  0  0  0  0  0
   -4.1200   14.9050  -33.9280 C   0  0  0  0  0  0  0  0  0  0  0  0
   -4.2760   18.6390  -33.4750 C   0  0  0  0  0  0  0  0  0  0  0  0
   -5.6050   19.0210  -32.9640 C   0  0  0  0  0  0  0  0  0  0  0  0
   -6.1270   18.4030  -31.8180 C   0  0  0  0  0  0  0  0  0  0  0  0
   -7.3770   18.7800  -31.3210 C   0  0  0  0  0  0  0  0  0  0  0  0
   -8.1230   19.7850  -31.9660 C   0  0  0  0  0  0  0  0  0  0  0  0
   -9.3790   20.2040  -31.5020 O   0  0  0  0  0  0  0  0  0  0  0  0
   -9.7060   21.5500  -31.1650 C   0  0  0  0  0  0  0  0  0  0  0  0
   -7.5980   20.3930  -33.1140 C   0  0  0  0  0  0  0  0  0  0  0  0
   -6.3490   20.0160  -33.6110 C   0  0  0  0  0  0  0  0  0  0  0  0
   -3.2160   19.4730  -33.6070 N   0  0  0  0  0  0  0  0  0  0  0  0
   -3.1680   20.9270  -33.3590 C   0  0  0  0  0  0  0  0  0  0  0  0
   -1.9910   21.3560  -32.4670 C   0  0  0  0  0  0  0  0  0  0  0  0
   -2.3890   21.6500  -31.0110 C   0  0  0  0  0  0  0  0  0  0  0  0
   -2.7670   23.0140  -30.8200 O   0  0  0  0  0  0  0  0  0  0  0  0
   -4.0790   23.5020  -30.6740 C   0  0  0  0  0  0  0  0  0  0  0  0
   -5.0690   23.2990  -31.6590 C   0  0  0  0  0  0  0  0  0  0  0  0
   -6.3720   23.7850  -31.4790 C   0  0  0  0  0  0  0  0  0  0  0  0
   -7.4280   23.5040  -32.5100 C   0  0  0  0  0  0  0  0  0  0  0  0
   -6.6920   24.4770  -30.3060 C   0  0  0  0  0  0  0  0  0  0  0  0
   -5.7150   24.7070  -29.3360 C   0  0  0  0  0  0  0  0  0  0  0  0
   -4.4100   24.2240  -29.5060 C   0  0  0  0  0  0  0  0  0  0  0  0
   -3.3860   24.5330  -28.4510 C   0  0  0  0  0  0  0  0  0  0  0  0
   -0.4570   20.1640  -35.0970 C   0  0  0  0  0  0  0  0  0  0  0  0
    0.8710   20.5880  -35.1800 C   0  0  0  0  0  0  0  0  0  0  0  0
    4.4450   19.6010  -33.1218 H   0  0  0  0  0  0  0  0  0  0  0  0
    4.2466   18.6567  -34.6369 H   0  0  0  0  0  0  0  0  0  0  0  0
    5.2328   20.1581  -34.6369 H   0  0  0  0  0  0  0  0  0  0  0  0
    2.2849   18.4160  -32.9529 H   0  0  0  0  0  0  0  0  0  0  0  0
   -0.0875   17.6729  -32.7843 H   0  0  0  0  0  0  0  0  0  0  0  0
   -6.6320   17.2138  -34.1892 H   0  0  0  0  0  0  0  0  0  0  0  0
   -7.9819   15.1239  -34.3895 H   0  0  0  0  0  0  0  0  0  0  0  0
   -6.8578   12.8948  -34.2999 H   0  0  0  0  0  0  0  0  0  0  0  0
   -4.3894   12.7550  -33.9509 H   0  0  0  0  0  0  0  0  0  0  0  0
   -3.0315   14.8384  -33.7841 H   0  0  0  0  0  0  0  0  0  0  0  0
   -5.5494   17.6178  -31.3083 H   0  0  0  0  0  0  0  0  0  0  0  0
   -7.7799   18.2899  -30.4224 H   0  0  0  0  0  0  0  0  0  0  0  0
   -9.7322   21.6580  -30.0706 H   0  0  0  0  0  0  0  0  0  0  0  0
   -8.9463   22.2274  -31.5822 H   0  0  0  0  0  0  0  0  0  0  0  0
  -10.6918   21.8033  -31.5822 H   0  0  0  0  0  0  0  0  0  0  0  0
   -8.1756   21.1750  -33.6287 H   0  0  0  0  0  0  0  0  0  0  0  0
   -5.9481   20.5016  -34.5130 H   0  0  0  0  0  0  0  0  0  0  0  0
   -3.0785   21.4429  -34.3264 H   0  0  0  0  0  0  0  0  0  0  0  0
   -4.0929   21.1965  -32.8280 H   0  0  0  0  0  0  0  0  0  0  0  0
   -1.2446   20.5480  -32.4658 H   0  0  0  0  0  0  0  0  0  0  0  0
   -1.5970   22.2935  -32.8864 H   0  0  0  0  0  0  0  0  0  0  0  0
   -3.2380   21.0057  -30.7388 H   0  0  0  0  0  0  0  0  0  0  0  0
   -1.5143   21.4497  -30.3748 H   0  0  0  0  0  0  0  0  0  0  0  0
   -4.8154   22.7527  -32.5795 H   0  0  0  0  0  0  0  0  0  0  0  0
   -8.3735   23.2524  -32.0073 H   0  0  0  0  0  0  0  0  0  0  0  0
   -7.5728   24.3949  -33.1388 H   0  0  0  0  0  0  0  0  0  0  0  0
   -7.1109   22.6590  -33.1388 H   0  0  0  0  0  0  0  0  0  0  0  0
   -7.7177   24.8413  -30.1475 H   0  0  0  0  0  0  0  0  0  0  0  0
   -5.9718   25.2733  -28.4286 H   0  0  0  0  0  0  0  0  0  0  0  0
   -3.8333   24.3980  -27.4552 H   0  0  0  0  0  0  0  0  0  0  0  0
   -2.5280   23.8538  -28.5627 H   0  0  0  0  0  0  0  0  0  0  0  0
   -3.0469   25.5735  -28.5627 H   0  0  0  0  0  0  0  0  0  0  0  0
   -1.2317   20.6733  -35.6890 H   0  0  0  0  0  0  0  0  0  0  0  0
    1.1373   21.4190  -35.8497 H   0  0  0  0  0  0  0  0  0  0  0  0
  1  2  1  0
  2  3  1  0
  3  4  2  0
  4  5  1  0
  5  6  2  0
  6  7  1  0
  7  8  2  0
  8  9  1  0
  9 10  1  0
 10 11  2  0
 11 12  1  0
 12 13  2  0
 13 14  1  0
 14 15  2  0
  9 16  2  0
 16 17  1  0
 17 18  2  0
 18 19  1  0
 19 20  2  0
 20 21  1  0
 21 22  1  0
 20 23  1  0
 23 24  2  0
 16 25  1  0
 25 26  1  0
 26 27  1  0
 27 28  1  0
 28 29  1  0
 29 30  1  0
 30 31  2  0
 31 32  1  0
 32 33  1  0
 32 34  2  0
 34 35  1  0
 35 36  2  0
 36 37  1  0
  6 38  1  0
 38 39  2  0
 39  3  1  0
 25  7  1  0
 36 30  1  0
 15 10  1  0
 24 17  1  0
  1 40  1  0
  1 41  1  0
  1 42  1  0
  4 43  1  0
  5 44  1  0
 11 45  1  0
 12 46  1  0
 13 47  1  0
 14 48  1  0
 15 49  1  0
 18 50  1  0
 19 51  1  0
 22 52  1  0
 22 53  1  0
 22 54  1  0
 23 55  1  0
 24 56  1  0
 26 57  1  0
 26 58  1  0
 27 59  1  0
 27 60  1  0
 28 61  1  0
 28 62  1  0
 31 63  1  0
 33 64  1  0
 33 65  1  0
 33 66  1  0
 34 67  1  0
 35 68  1  0
 37 69  1  0
 37 70  1  0
 37 71  1  0
 38 72  1  0
 39 73  1  0
M  END
>  <UniqueID>  (4) 
4

>  <SMILES>  (4) 
COc1ccc(-c2nc(-c3ccccc3)c(-c3ccc(OC)cc3)n2CCCOc2cc(C)ccc2C)cc1

>  <Energy>  (4) 
117.22422714423156

>  <Genealogy>  (4) 
COc1ccc(-c2nc(-c3ccccc3)c(-c3ccc(OC)cc3)n2CCCOc2cc(C)ccc2C)cc1 (3D coordinates assigned)
COc1ccc(-c2nc(-c3ccccc3)c(-c3ccc(OC)cc3)n2CCCOc2cc(C)ccc2C)cc1 (optimized conformer: 117.22422714423156 kcal/mol)

>  <smiles>  (4) 
COc1ccc(-c2nc(-c3ccccc3)c(-c3ccc(OC)cc3)n2CCCOc2cc(C)ccc2C)cc1

>  <score_type>  (4) 
oracle

>  <origin>  (4) 
adg

>  <m_score__min__energy>  (4) 
-9.1699999999999999

>  <m_primary>  (4) 
energy

$$$$
4:0
     RDKit          3D

 45 47  0  0  0  0  0  0  0  0999 V2000
   -2.8480   21.4600  -32.6810 C   0  0  0  0  0  0  0  0  0  0  0  0
   -4.0860   22.3060  -32.4110 C   0  0  0  0  0  0  0  0  0  0  0  0
   -4.5700   22.1280  -31.0300 N   0  0  0  0  0  0  0  0  0  0  0  0
   -5.8810   22.7070  -30.6900 C   0  0  0  0  0  0  0  0  0  0  0  0
   -6.9890   21.8440  -31.2330 C   0  0  0  0  0  0  0  0  0  0  0  0
   -6.7140   20.5660  -31.7480 C   0  0  0  0  0  0  0  0  0  0  0  0
   -7.7430   19.7860  -32.2830 C   0  0  0  0  0  0  0  0  0  0  0  0
   -9.0510   20.2760  -32.3130 C   0  0  0  0  0  0  0  0  0  0  0  0
   -9.3320   21.5480  -31.8100 C   0  0  0  0  0  0  0  0  0  0  0  0
   -8.3050   22.3330  -31.2740 C   0  0  0  0  0  0  0  0  0  0  0  0
   -3.6040   21.8710  -29.9850 C   0  0  0  0  0  0  0  0  0  0  0  0
   -3.4620   20.5910  -29.5350 N   0  0  0  0  0  0  0  0  0  0  0  0
   -2.5350   20.2360  -28.6090 C   0  0  0  0  0  0  0  0  0  0  0  0
   -1.6690   21.1920  -28.0920 C   0  0  0  0  0  0  0  0  0  0  0  0
   -1.7810   22.5140  -28.5150 C   0  0  0  0  0  0  0  0  0  0  0  0
   -2.7650   22.8830  -29.4470 C   0  0  0  0  0  0  0  0  0  0  0  0
   -2.8770   24.3150  -29.8050 C   0  0  0  0  0  0  0  0  0  0  0  0
   -3.8510   24.6910  -30.5110 O   0  0  0  0  0  0  0  0  0  0  0  0
   -1.9430   25.2990  -29.3480 N   0  0  0  0  0  0  0  0  0  0  0  0
   -1.6500   25.6470  -27.9880 C   0  0  0  0  0  0  0  0  0  0  0  0
   -0.5030   26.4070  -27.7240 C   0  0  0  0  0  0  0  0  0  0  0  0
   -0.1640   26.7450  -26.4100 C   0  0  0  0  0  0  0  0  0  0  0  0
   -0.9620   26.3100  -25.3470 C   0  0  0  0  0  0  0  0  0  0  0  0
   -0.5040   26.7800  -23.5540 Br  0  0  0  0  0  0  0  0  0  0  0  0
   -2.0900   25.5240  -25.5990 C   0  0  0  0  0  0  0  0  0  0  0  0
   -2.4290   25.1830  -26.9120 C   0  0  0  0  0  0  0  0  0  0  0  0
   -2.3983   21.1527  -31.7253 H   0  0  0  0  0  0  0  0  0  0  0  0
   -3.1327   20.5667  -33.2563 H   0  0  0  0  0  0  0  0  0  0  0  0
   -2.1192   22.0498  -33.2563 H   0  0  0  0  0  0  0  0  0  0  0  0
   -3.8364   23.3656  -32.5687 H   0  0  0  0  0  0  0  0  0  0  0  0
   -4.8811   21.9848  -33.1000 H   0  0  0  0  0  0  0  0  0  0  0  0
   -5.9757   22.7738  -29.5961 H   0  0  0  0  0  0  0  0  0  0  0  0
   -5.9564   23.7096  -31.1362 H   0  0  0  0  0  0  0  0  0  0  0  0
   -5.6849   20.1779  -31.7301 H   0  0  0  0  0  0  0  0  0  0  0  0
   -7.5226   18.7845  -32.6811 H   0  0  0  0  0  0  0  0  0  0  0  0
   -9.8596   19.6597  -32.7329 H   0  0  0  0  0  0  0  0  0  0  0  0
  -10.3620   21.9334  -31.8351 H   0  0  0  0  0  0  0  0  0  0  0  0
   -8.5292   23.3366  -30.8834 H   0  0  0  0  0  0  0  0  0  0  0  0
   -2.4694   19.1922  -28.2681 H   0  0  0  0  0  0  0  0  0  0  0  0
   -0.9027   20.9073  -27.3560 H   0  0  0  0  0  0  0  0  0  0  0  0
   -1.0939   23.2749  -28.1164 H   0  0  0  0  0  0  0  0  0  0  0  0
    0.1351   26.7400  -28.5558 H   0  0  0  0  0  0  0  0  0  0  0  0
    0.7309   27.3534  -26.2124 H   0  0  0  0  0  0  0  0  0  0  0  0
   -2.7123   25.1730  -24.7627 H   0  0  0  0  0  0  0  0  0  0  0  0
   -3.3077   24.5498  -27.1044 H   0  0  0  0  0  0  0  0  0  0  0  0
  1  2  1  0
  2  3  1  0
  3  4  1  0
  4  5  1  0
  5  6  2  0
  6  7  1  0
  7  8  2  0
  8  9  1  0
  9 10  2  0
  3 11  1  0
 11 12  2  0
 12 13  1  0
 13 14  2  0
 14 15  1  0
 15 16  2  0
 16 17  1  0
 17 18  2  0
 17 19  1  0
 19 20  1  0
 20 21  2  0
 21 22  1  0
 22 23  2  0
 23 24  1  0
 23 25  1  0
 25 26  2  0
 10  5  1  0
 16 11  1  0
 26 20  1  0
  1 27  1  0
  1 28  1  0
  1 29  1  0
  2 30  1  0
  2 31  1  0
  4 32  1  0
  4 33  1  0
  6 34  1  0
  7 35  1  0
  8 36  1  0
  9 37  1  0
 10 38  1  0
 13 39  1  0
 14 40  1  0
 15 41  1  0
 21 42  1  0
 22 43  1  0
 25 44  1  0
 26 45  1  0
M  CHG  1  19  -1
M  END
>  <UniqueID>  (5) 
5

>  <SMILES>  (5) 
CCN(Cc1ccccc1)c1ncccc1C(=O)[N-]c1ccc(Br)cc1

>  <Energy>  (5) 
56.11541512793016

>  <Genealogy>  (5) 
CCN(Cc1ccccc1)c1ncccc1C(=O)[N-]c1ccc(Br)cc1 (protonated)
CCN(Cc1ccccc1)c1ncccc1C(=O)[N-]c1ccc(Br)cc1 (3D coordinates assigned)
CCN(Cc1ccccc1)c1ncccc1C(=O)[N-]c1ccc(Br)cc1 (optimized conformer: 56.11541512793016 kcal/mol)

>  <smiles>  (5) 
CCN(Cc1ccccc1)c1ncccc1C(=O)Nc1ccc(Br)cc1

>  <score_type>  (5) 
oracle

>  <origin>  (5) 
adg

>  <m_score__min__energy>  (5) 
-10.35

>  <m_primary>  (5) 
energy

$$$$
5:0
     RDKit          3D

 50 51  0  0  0  0  0  0  0  0999 V2000
   -2.3690   18.8900  -33.0860 C   0  0  0  0  0  0  0  0  0  0  0  0
   -1.3050   19.2920  -32.0710 C   0  0  0  0  0  0  0  0  0  0  0  0
   -0.6960   20.5840  -32.4480 N   0  0  0  0  0  0  0  0  0  0  0  0
   -1.1820   21.1770  -33.7130 C   0  0  0  0  0  0  0  0  0  0  0  0
   -0.0780   21.4950  -34.7230 C   0  0  0  0  0  0  0  0  0  0  0  0
   -0.4640   21.5340  -31.3360 C   0  0  0  0  0  0  0  0  0  0  0  0
   -1.7230   22.0680  -30.6960 C   0  0  0  0  0  0  0  0  0  0  0  0
   -1.6570   22.7480  -29.6360 O   0  0  0  0  0  0  0  0  0  0  0  0
   -2.9950   21.8490  -31.3270 N   0  0  0  0  0  0  0  0  0  0  0  0
   -4.1170   22.7440  -31.1880 C   0  0  0  0  0  0  0  0  0  0  0  0
   -3.9830   23.9470  -30.4670 C   0  0  0  0  0  0  0  0  0  0  0  0
   -5.0370   24.8590  -30.4010 C   0  0  0  0  0  0  0  0  0  0  0  0
   -6.2330   24.5960  -31.0660 C   0  0  0  0  0  0  0  0  0  0  0  0
   -6.3790   23.4180  -31.8000 C   0  0  0  0  0  0  0  0  0  0  0  0
   -5.3350   22.4820  -31.8610 C   0  0  0  0  0  0  0  0  0  0  0  0
   -5.5530   21.2360  -32.6210 C   0  0  0  0  0  0  0  0  0  0  0  0
   -4.6940   20.9030  -33.4830 O   0  0  0  0  0  0  0  0  0  0  0  0
   -6.7410   20.4350  -32.4350 N   0  0  0  0  0  0  0  0  0  0  0  0
   -6.8680   19.1520  -33.1460 C   0  0  0  0  0  0  0  0  0  0  0  0
   -7.7400   18.1740  -32.3510 C   0  0  0  0  0  0  0  0  0  0  0  0
   -9.1020   18.7670  -31.9340 C   0  0  0  0  0  0  0  0  0  0  0  0
   -9.2020   20.2870  -32.1330 C   0  0  0  0  0  0  0  0  0  0  0  0
   -7.9070   20.9990  -31.7310 C   0  0  0  0  0  0  0  0  0  0  0  0
   -3.2709   18.5493  -32.5563 H   0  0  0  0  0  0  0  0  0  0  0  0
   -2.6194   19.7555  -33.7170 H   0  0  0  0  0  0  0  0  0  0  0  0
   -1.9845   18.0752  -33.7170 H   0  0  0  0  0  0  0  0  0  0  0  0
   -1.7685   19.3858  -31.0778 H   0  0  0  0  0  0  0  0  0  0  0  0
   -0.5213   18.5204  -32.0509 H   0  0  0  0  0  0  0  0  0  0  0  0
   -1.8821   20.4682  -34.1794 H   0  0  0  0  0  0  0  0  0  0  0  0
   -1.6553   22.1348  -33.4510 H   0  0  0  0  0  0  0  0  0  0  0  0
    0.8446   21.7608  -34.1862 H   0  0  0  0  0  0  0  0  0  0  0  0
    0.1062   20.6134  -35.3545 H   0  0  0  0  0  0  0  0  0  0  0  0
   -0.3910   22.3395  -35.3545 H   0  0  0  0  0  0  0  0  0  0  0  0
    0.1236   21.0194  -30.5614 H   0  0  0  0  0  0  0  0  0  0  0  0
    0.0589   22.3999  -31.7681 H   0  0  0  0  0  0  0  0  0  0  0  0
   -3.0980   21.0090  -31.9400 H   0  0  0  0  0  0  0  0  0  0  0  0
   -3.0376   24.1696  -29.9507 H   0  0  0  0  0  0  0  0  0  0  0  0
   -4.9235   25.7878  -29.8226 H   0  0  0  0  0  0  0  0  0  0  0  0
   -7.0621   25.3169  -31.0124 H   0  0  0  0  0  0  0  0  0  0  0  0
   -7.3198   23.2216  -32.3350 H   0  0  0  0  0  0  0  0  0  0  0  0
   -7.3284   19.3285  -34.1293 H   0  0  0  0  0  0  0  0  0  0  0  0
   -5.8660   18.7142  -33.2658 H   0  0  0  0  0  0  0  0  0  0  0  0
   -7.9224   17.2850  -32.9726 H   0  0  0  0  0  0  0  0  0  0  0  0
   -7.1952   17.9306  -31.4269 H   0  0  0  0  0  0  0  0  0  0  0  0
   -9.8884   18.2859  -32.5342 H   0  0  0  0  0  0  0  0  0  0  0  0
   -9.2191   18.5759  -30.8571 H   0  0  0  0  0  0  0  0  0  0  0  0
   -9.4082   20.4946  -33.1934 H   0  0  0  0  0  0  0  0  0  0  0  0
  -10.0127   20.6634  -31.4919 H   0  0  0  0  0  0  0  0  0  0  0  0
   -7.9935   22.0668  -31.9807 H   0  0  0  0  0  0  0  0  0  0  0  0
   -7.7580   20.8612  -30.6499 H   0  0  0  0  0  0  0  0  0  0  0  0
  1  2  1  0
  2  3  1  0
  3  4  1  0
  4  5  1  0
  3  6  1  0
  6  7  1  0
  7  8  2  0
  7  9  1  0
  9 10  1  0
 10 11  2  0
 11 12  1  0
 12 13  2  0
 13 14  1  0
 14 15  2  0
 15 16  1  0
 16 17  2  0
 16 18  1  0
 18 19  1  0
 19 20  1  0
 20 21  1  0
 21 22  1  0
 22 23  1  0
 15 10  1  0
 23 18  1  0
  1 24  1  0
  1 25  1  0
  1 26  1  0
  2 27  1  0
  2 28  1  0
  4 29  1  0
  4 30  1  0
  5 31  1  0
  5 32  1  0
  5 33  1  0
  6 34  1  0
  6 35  1  0
  9 36  1  0
 11 37  1  0
 12 38  1  0
 13 39  1  0
 14 40  1  0
 19 41  1  0
 19 42  1  0
 20 43  1  0
 20 44  1  0
 21 45  1  0
 21 46  1  0
 22 47  1  0
 22 48  1  0
 23 49  1  0
 23 50  1  0
M  END
>  <UniqueID>  (6) 
6

>  <SMILES>  (6) 
CCN(CC)CC(=O)Nc1ccccc1C(=O)N1CCCCC1

>  <Energy>  (6) 
63.25143783533305

>  <Genealogy>  (6) 
CCN(CC)CC(=O)Nc1ccccc1C(=O)N1CCCCC1 (3D coordinates assigned)
CCN(CC)CC(=O)Nc1ccccc1C(=O)N1CCCCC1 (nonaromatic ring conformer: 63.25143783533305 kcal/mol)

>  <smiles>  (6) 
CCN(CC)CC(=O)Nc1ccccc1C(=O)N1CCCCC1

>  <score_type>  (6) 
oracle

>  <origin>  (6) 
adg

>  <m_score__min__energy>  (6) 
-7.6900000000000004

>  <m_primary>  (6) 
energy

$$$$
6:0
     RDKit          3D

 48 50  0  0  1  0  0  0  0  0999 V2000
   -4.8590   20.1150  -31.6700 C   0  0  0  0  0  0  0  0  0  0  0  0
   -5.7590   20.0230  -32.4570 C   0  0  0  0  0  0  0  0  0  0  0  0
   -6.8380   19.9070  -33.4370 C   0  0  0  0  0  0  0  0  0  0  0  0
   -7.9640   19.1340  -32.9100 N   0  0  0  0  0  0  0  0  0  0  0  0
   -7.5780   18.5980  -31.5890 C   0  0  0  0  0  0  0  0  0  0  0  0
   -9.1040   20.0060  -32.6820 C   0  0  0  0  0  0  0  0  0  0  0  0
   -9.0370   20.5740  -31.2930 C   0  0  0  0  0  0  0  0  0  0  0  0
   -8.8210   21.9360  -31.3210 O   0  0  0  0  0  0  0  0  0  0  0  0
   -7.6760   22.5900  -31.0050 C   0  0  0  0  0  0  0  0  0  0  0  0
   -6.9970   23.2100  -32.0590 C   0  0  0  0  0  0  0  0  0  0  0  0
   -5.8280   23.9070  -31.8800 C   0  0  0  0  0  0  0  0  0  0  0  0
   -5.2600   24.0300  -30.6380 C   0  0  0  0  0  0  0  0  0  0  0  0
   -4.0460   24.7590  -30.4660 N   0  0  0  0  0  0  0  0  0  0  0  0
   -2.9970   24.0670  -30.1510 C   0  0  0  0  0  0  0  0  0  0  0  0
   -2.8290   22.8000  -30.6920 C   0  0  0  0  0  0  0  0  0  0  0  0
   -1.7320   22.0210  -30.3900 C   0  0  0  0  0  0  0  0  0  0  0  0
   -1.5270   20.6600  -30.9520 C   0  0  0  0  0  0  0  0  0  0  0  0
   -0.8100   22.5080  -29.5510 N   0  0  0  0  0  0  0  0  0  0  0  0
   -0.9820   23.7370  -29.0310 C   0  0  0  0  0  0  0  0  0  0  0  0
   -0.2050   24.4460  -28.1720 N   0  0  0  0  0  0  0  0  0  0  0  0
   -0.8010   25.6460  -27.9390 C   0  0  0  0  0  0  0  0  0  0  0  0
   -0.2170   26.6770  -27.0390 C   0  0  0  0  0  0  0  0  0  0  0  0
   -1.9410   25.6760  -28.6520 N   0  0  0  0  0  0  0  0  0  0  0  0
   -2.0440   24.5180  -29.3110 N   0  0  0  0  0  0  0  0  0  0  0  0
   -5.9100   23.4290  -29.5850 C   0  0  0  0  0  0  0  0  0  0  0  0
   -7.1000   22.7200  -29.7670 C   0  0  0  0  0  0  0  0  0  0  0  0
   -4.0334   20.1994  -30.9480 H   0  0  0  0  0  0  0  0  0  0  0  0
   -7.1898   20.9151  -33.7016 H   0  0  0  0  0  0  0  0  0  0  0  0
   -6.4450   19.3834  -34.3210 H   0  0  0  0  0  0  0  0  0  0  0  0
   -8.0242   19.2177  -30.7972 H   0  0  0  0  0  0  0  0  0  0  0  0
   -7.9400   17.5637  -31.4930 H   0  0  0  0  0  0  0  0  0  0  0  0
   -6.4823   18.6134  -31.4930 H   0  0  0  0  0  0  0  0  0  0  0  0
   -9.0885   20.8270  -33.4139 H   0  0  0  0  0  0  0  0  0  0  0  0
  -10.0331   19.4280  -32.7948 H   0  0  0  0  0  0  0  0  0  0  0  0
   -9.9869   20.3719  -30.7765 H   0  0  0  0  0  0  0  0  0  0  0  0
   -8.1985   20.0992  -30.7626 H   0  0  0  0  0  0  0  0  0  0  0  0
   -7.4170   23.1360  -33.0730 H   0  0  0  0  0  0  0  0  0  0  0  0
   -5.3388   24.3746  -32.7472 H   0  0  0  0  0  0  0  0  0  0  0  0
   -3.5915   22.4066  -31.3803 H   0  0  0  0  0  0  0  0  0  0  0  0
   -1.4180   19.9367  -30.1305 H   0  0  0  0  0  0  0  0  0  0  0  0
   -2.3938   20.3844  -31.5707 H   0  0  0  0  0  0  0  0  0  0  0  0
   -0.6175   20.6519  -31.5707 H   0  0  0  0  0  0  0  0  0  0  0  0
    0.0280   21.9880  -29.2820 H   0  0  0  0  0  0  0  0  0  0  0  0
   -0.3823   26.3852  -25.9913 H   0  0  0  0  0  0  0  0  0  0  0  0
    0.8630   26.7613  -27.2302 H   0  0  0  0  0  0  0  0  0  0  0  0
   -0.7000   27.6466  -27.2302 H   0  0  0  0  0  0  0  0  0  0  0  0
   -5.4822   23.5086  -28.5747 H   0  0  0  0  0  0  0  0  0  0  0  0
   -7.5865   22.2550  -28.8969 H   0  0  0  0  0  0  0  0  0  0  0  0
  1  2  3  0
  2  3  1  0
  3  4  1  0
  4  5  1  0
  4  6  1  0
  6  7  1  0
  7  8  1  0
  8  9  1  0
  9 10  2  0
 10 11  1  0
 11 12  2  0
 12 13  1  0
 13 14  2  0
 14 15  1  0
 15 16  2  0
 16 17  1  0
 16 18  1  0
 18 19  1  0
 19 20  2  0
 20 21  1  0
 21 22  1  0
 21 23  2  0
 23 24  1  0
 12 25  1  0
 25 26  2  0
 26  9  1  0
 24 14  1  0
 24 19  1  0
  1 27  1  0
  3 28  1  0
  3 29  1  0
  5 30  1  0
  5 31  1  0
  5 32  1  0
  6 33  1  0
  6 34  1  0
  7 35  1  0
  7 36  1  0
 10 37  1  0
 11 38  1  0
 15 39  1  0
 17 40  1  0
 17 41  1  0
 17 42  1  0
 18 43  1  0
 22 44  1  0
 22 45  1  0
 22 46  1  0
 25 47  1  0
 26 48  1  0
M  END
>  <smiles>  (7) 
C#CCN(C)CCOc1ccc(N=c2cc(C)[nH]c3nc(C)nn23)cc1

>  <score_type>  (7) 
oracle

>  <origin>  (7) 
adg

>  <m_score__min__energy>  (7) 
-8.1400000000000006

>  <m_primary>  (7) 
energy

$$$$
7:0
     RDKit          3D

 54 56  0  0  0  0  0  0  0  0999 V2000
   -9.8610   21.8720  -31.2700 C   0  0  0  0  0  0  0  0  0  0  0  0
   -8.4750   21.5740  -31.7800 C   0  0  0  0  0  0  0  0  0  0  0  0
   -7.5460   22.6230  -31.8730 C   0  0  0  0  0  0  0  0  0  0  0  0
   -6.2540   22.3890  -32.3390 C   0  0  0  0  0  0  0  0  0  0  0  0
   -5.8690   21.1050  -32.7140 C   0  0  0  0  0  0  0  0  0  0  0  0
   -6.7760   20.0420  -32.6400 C   0  0  0  0  0  0  0  0  0  0  0  0
   -6.3300   18.7320  -33.0170 N   0  0  0  0  0  0  0  0  0  0  0  0
   -6.0970   17.7200  -31.9840 C   0  0  0  0  0  0  0  0  0  0  0  0
   -5.5190   16.4450  -32.6050 C   0  0  0  0  0  0  0  0  0  0  0  0
   -4.3900   16.7780  -33.5050 N   0  0  0  0  0  0  0  0  0  0  0  0
   -3.6570   15.5760  -33.9870 C   0  0  0  0  0  0  0  0  0  0  0  0
   -2.1910   15.8240  -34.4370 C   0  0  1  0  0  0  0  0  0  0  0  0
   -2.1520   16.3770  -35.7260 O   0  0  0  0  0  0  0  0  0  0  0  0
   -1.4600   16.7440  -33.4420 C   0  0  0  0  0  0  0  0  0  0  0  0
   -1.8660   18.1080  -33.5860 O   0  0  0  0  0  0  0  0  0  0  0  0
   -1.1010   19.1470  -34.1430 C   0  0  0  0  0  0  0  0  0  0  0  0
   -0.1140   18.9210  -35.1240 C   0  0  0  0  0  0  0  0  0  0  0  0
    0.6220   19.9890  -35.6440 C   0  0  0  0  0  0  0  0  0  0  0  0
    0.3890   21.2890  -35.1880 C   0  0  0  0  0  0  0  0  0  0  0  0
    1.1070   22.3230  -35.6940 F   0  0  0  0  0  0  0  0  0  0  0  0
   -0.5800   21.5230  -34.2120 C   0  0  0  0  0  0  0  0  0  0  0  0
   -1.3220   20.4580  -33.6880 C   0  0  0  0  0  0  0  0  0  0  0  0
   -2.5440   20.7820  -32.4680 Cl  0  0  0  0  0  0  0  0  0  0  0  0
   -4.7530   17.7080  -34.6180 C   0  0  0  0  0  0  0  0  0  0  0  0
   -6.1100   18.4110  -34.4290 C   0  0  0  0  0  0  0  0  0  0  0  0
   -8.1020   20.2700  -32.2000 C   0  0  0  0  0  0  0  0  0  0  0  0
   -9.0930   19.1300  -32.1300 C   0  0  0  0  0  0  0  0  0  0  0  0
   -9.8551   21.8707  -30.1700 H   0  0  0  0  0  0  0  0  0  0  0  0
  -10.1811   22.8595  -31.6338 H   0  0  0  0  0  0  0  0  0  0  0  0
  -10.5587   21.1033  -31.6338 H   0  0  0  0  0  0  0  0  0  0  0  0
   -7.8414   23.6398  -31.5749 H   0  0  0  0  0  0  0  0  0  0  0  0
   -5.5371   23.2202  -32.4107 H   0  0  0  0  0  0  0  0  0  0  0  0
   -4.8443   20.9246  -33.0711 H   0  0  0  0  0  0  0  0  0  0  0  0
   -5.3872   18.1158  -31.2427 H   0  0  0  0  0  0  0  0  0  0  0  0
   -7.0546   17.4781  -31.4997 H   0  0  0  0  0  0  0  0  0  0  0  0
   -5.1612   15.7812  -31.8042 H   0  0  0  0  0  0  0  0  0  0  0  0
   -6.3051   15.9424  -33.1876 H   0  0  0  0  0  0  0  0  0  0  0  0
   -3.6980   17.2970  -32.9100 H   0  0  0  0  0  0  0  0  0  0  0  0
   -3.6411   14.8386  -33.1709 H   0  0  0  0  0  0  0  0  0  0  0  0
   -4.1947   15.2330  -34.8833 H   0  0  0  0  0  0  0  0  0  0  0  0
   -1.6758   14.8523  -34.4572 H   0  0  0  0  0  0  0  0  0  0  0  0
   -2.0010   17.3530  -35.6170 H   0  0  0  0  0  0  0  0  0  0  0  0
   -1.6847   16.4114  -32.4178 H   0  0  0  0  0  0  0  0  0  0  0  0
   -0.3812   16.6838  -33.6484 H   0  0  0  0  0  0  0  0  0  0  0  0
    0.0777   17.8987  -35.4819 H   0  0  0  0  0  0  0  0  0  0  0  0
    1.3862   19.8059  -36.4137 H   0  0  0  0  0  0  0  0  0  0  0  0
   -0.7614   22.5469  -33.8533 H   0  0  0  0  0  0  0  0  0  0  0  0
   -3.9717   18.4786  -34.6936 H   0  0  0  0  0  0  0  0  0  0  0  0
   -4.8350   17.0973  -35.5292 H   0  0  0  0  0  0  0  0  0  0  0  0
   -6.1211   19.3404  -35.0174 H   0  0  0  0  0  0  0  0  0  0  0  0
   -6.9099   17.7369  -34.7691 H   0  0  0  0  0  0  0  0  0  0  0  0
   -9.3018   18.8898  -31.0770 H   0  0  0  0  0  0  0  0  0  0  0  0
  -10.0269   19.4247  -32.6310 H   0  0  0  0  0  0  0  0  0  0  0  0
   -8.6712   18.2462  -32.6310 H   0  0  0  0  0  0  0  0  0  0  0  0
  1  2  1  0
  2  3  2  0
  3  4  1  0
  4  5  2  0
  5  6  1  0
  6  7  1  0
  7  8  1  0
  8  9  1  0
  9 10  1  0
 10 11  1  0
 11 12  1  0
 12 13  1  0
 12 14  1  0
 14 15  1  0
 15 16  1  0
 16 17  2  0
 17 18  1  0
 18 19  2  0
 19 20  1  0
 19 21  1  0
 21 22  2  0
 22 23  1  0
 10 24  1  0
 24 25  1  0
  6 26  2  0
 26 27  1  0
 26  2  1  0
 25  7  1  0
 22 16  1  0
  1 28  1  0
  1 29  1  0
  1 30  1  0
  3 31  1  0
  4 32  1  0
  5 33  1  0
  8 34  1  0
  8 35  1  0
  9 36  1  0
  9 37  1  0
 10 38  1  0
 11 39  1  0
 11 40  1  0
 12 41  1  6
 13 42  1  0
 14 43  1  0
 14 44  1  0
 17 45  1  0
 18 46  1  0
 21 47  1  0
 24 48  1  0
 24 49  1  0
 25 50  1  0
 25 51  1  0
 27 52  1  0
 27 53  1  0
 27 54  1  0
M  CHG  1  10   1
M  END
>  <UniqueID>  (8) 
7

>  <SMILES>  (8) 
Cc1cccc(N2CC[NH+](C[C@@H](O)COc3ccc(F)cc3Cl)CC2)c1C

>  <Energy>  (8) 
72.67760362496043

>  <Genealogy>  (8) 
Cc1cccc(N2CC[NH+](CC(O)COc3ccc(F)cc3Cl)CC2)c1C (protonated)
Cc1cccc(N2CC[NH+](C[C@@H](O)COc3ccc(F)cc3Cl)CC2)c1C (chirality)
Cc1cccc(N2CC[NH+](C[C@@H](O)COc3ccc(F)cc3Cl)CC2)c1C (3D coordinates assigned)
Cc1cccc(N2CC[NH+](C[C@@H](O)COc3ccc(F)cc3Cl)CC2)c1C (nonaromatic ring conformer: 72.67760362496043 kcal/mol)

>  <smiles>  (8) 
Cc1cccc(N2CCN(CC(O)COc3ccc(F)cc3Cl)CC2)c1C

>  <score_type>  (8) 
oracle

>  <origin>  (8) 
adg

>  <m_score__min__energy>  (8) 
-7.8799999999999999

>  <m_primary>  (8) 
energy

$$$$
8:0
     RDKit          3D

 38 40  0  0  0  0  0  0  0  0999 V2000
   -4.7900   16.4730  -33.3300 C   0  0  0  0  0  0  0  0  0  0  0  0
   -6.0470   16.9070  -33.9570 N   0  0  0  0  0  0  0  0  0  0  0  0
   -7.2340   16.8230  -33.0790 C   0  0  0  0  0  0  0  0  0  0  0  0
   -7.6100   18.1280  -32.4300 C   0  0  0  0  0  0  0  0  0  0  0  0
   -6.8890   18.8130  -31.4680 C   0  0  0  0  0  0  0  0  0  0  0  0
   -7.5160   19.9720  -31.1840 N   0  0  0  0  0  0  0  0  0  0  0  0
   -8.6020   20.0330  -31.9380 N   0  0  0  0  0  0  0  0  0  0  0  0
   -9.5080   21.1720  -31.9680 C   0  0  0  0  0  0  0  0  0  0  0  0
   -8.6810   18.9450  -32.7270 C   0  0  0  0  0  0  0  0  0  0  0  0
   -5.9390   18.1340  -34.7780 C   0  0  0  0  0  0  0  0  0  0  0  0
   -5.1450   19.2350  -34.1300 C   0  0  0  0  0  0  0  0  0  0  0  0
   -5.6720   20.2490  -33.4210 N   0  0  0  0  0  0  0  0  0  0  0  0
   -4.5820   20.9600  -33.0620 C   0  0  0  0  0  0  0  0  0  0  0  0
   -4.6020   22.2140  -32.2700 C   0  0  0  0  0  0  0  0  0  0  0  0
   -3.5200   22.5820  -31.4530 C   0  0  0  0  0  0  0  0  0  0  0  0
   -3.5780   23.7700  -30.7190 C   0  0  0  0  0  0  0  0  0  0  0  0
   -4.6770   24.5660  -30.7940 N   0  0  0  0  0  0  0  0  0  0  0  0
   -5.7410   24.2380  -31.5730 C   0  0  0  0  0  0  0  0  0  0  0  0
   -5.7230   23.0600  -32.3240 C   0  0  0  0  0  0  0  0  0  0  0  0
   -3.4510   20.3870  -33.5230 N   0  0  0  0  0  0  0  0  0  0  0  0
   -3.8390   19.3280  -34.1710 O   0  0  0  0  0  0  0  0  0  0  0  0
   -4.8946   16.5091  -32.2356 H   0  0  0  0  0  0  0  0  0  0  0  0
   -4.5606   15.4436  -33.6427 H   0  0  0  0  0  0  0  0  0  0  0  0
   -3.9744   17.1416  -33.6427 H   0  0  0  0  0  0  0  0  0  0  0  0
   -8.0868   16.4786  -33.6825 H   0  0  0  0  0  0  0  0  0  0  0  0
   -6.9801   16.1257  -32.2670 H   0  0  0  0  0  0  0  0  0  0  0  0
   -5.9520   18.4665  -31.0076 H   0  0  0  0  0  0  0  0  0  0  0  0
   -9.7495   21.4756  -30.9387 H   0  0  0  0  0  0  0  0  0  0  0  0
   -9.0267   22.0096  -32.4940 H   0  0  0  0  0  0  0  0  0  0  0  0
  -10.4325   20.8914  -32.4940 H   0  0  0  0  0  0  0  0  0  0  0  0
   -9.4612   18.7433  -33.4757 H   0  0  0  0  0  0  0  0  0  0  0  0
   -5.4541   17.8718  -35.7299 H   0  0  0  0  0  0  0  0  0  0  0  0
   -6.9612   18.5166  -34.9150 H   0  0  0  0  0  0  0  0  0  0  0  0
   -6.6770   20.4210  -33.2070 H   0  0  0  0  0  0  0  0  0  0  0  0
   -2.6306   21.9377  -31.3912 H   0  0  0  0  0  0  0  0  0  0  0  0
   -2.7321   24.0614  -30.0791 H   0  0  0  0  0  0  0  0  0  0  0  0
   -6.6179   24.9010  -31.6124 H   0  0  0  0  0  0  0  0  0  0  0  0
   -6.5838   22.7954  -32.9557 H   0  0  0  0  0  0  0  0  0  0  0  0
  1  2  1  0
  2  3  1  0
  3  4  1  0
  4  5  1  0
  5  6  2  0
  6  7  1  0
  7  8  1  0
  7  9  1  0
  2 10  1  0
 10 11  1  0
 11 12  2  0
 12 13  1  0
 13 14  1  0
 14 15  2  0
 15 16  1  0
 16 17  2  0
 17 18  1  0
 18 19  2  0
 13 20  2  0
 20 21  1  0
  9  4  2  0
 21 11  1  0
 19 14  1  0
  1 22  1  0
  1 23  1  0
  1 24  1  0
  3 25  1  0
  3 26  1  0
  5 27  1  0
  8 28  1  0
  8 29  1  0
  8 30  1  0
  9 31  1  0
 10 32  1  0
 10 33  1  0
 12 34  1  0
 15 35  1  0
 16 36  1  0
 18 37  1  0
 19 38  1  0
M  CHG  1  12   1
M  END
>  <UniqueID>  (9) 
8

>  <SMILES>  (9) 
CN(Cc1cnn(C)c1)Cc1[nH+]c(-c2ccncc2)no1

>  <Energy>  (9) 
110.34567860345173

>  <Genealogy>  (9) 
CN(Cc1cnn(C)c1)Cc1[nH+]c(-c2ccncc2)no1 (protonated)
CN(Cc1cnn(C)c1)Cc1[nH+]c(-c2ccncc2)no1 (3D coordinates assigned)
CN(Cc1cnn(C)c1)Cc1[nH+]c(-c2ccncc2)no1 (optimized conformer: 110.34567860345173 kcal/mol)

>  <smiles>  (9) 
CN(Cc1cnn(C)c1)Cc1nc(-c2ccncc2)no1

>  <score_type>  (9) 
oracle

>  <origin>  (9) 
adg

>  <m_score__min__energy>  (9) 
-7

>  <m_primary>  (9) 
energy

$$$$
9:0
     RDKit          3D

 36 38  0  0  0  0  0  0  0  0999 V2000
   -2.2370   24.1900  -29.2870 C   0  0  0  0  0  0  0  0  0  0  0  0
   -3.1520   24.9220  -30.0950 O   0  0  0  0  0  0  0  0  0  0  0  0
   -4.5070   24.5950  -30.2520 C   0  0  0  0  0  0  0  0  0  0  0  0
   -5.5420   25.4880  -29.9160 C   0  0  0  0  0  0  0  0  0  0  0  0
   -6.8760   25.1170  -30.0940 C   0  0  0  0  0  0  0  0  0  0  0  0
   -7.1930   23.8570  -30.6070 C   0  0  0  0  0  0  0  0  0  0  0  0
   -6.1740   22.9500  -30.9480 C   0  0  0  0  0  0  0  0  0  0  0  0
   -6.5090   21.6090  -31.4920 C   0  0  0  0  0  0  0  0  0  0  0  0
   -7.8070   21.0870  -31.3520 C   0  0  0  0  0  0  0  0  0  0  0  0
   -8.1280   19.8280  -31.8640 C   0  0  0  0  0  0  0  0  0  0  0  0
   -7.1560   19.0650  -32.5250 C   0  0  0  0  0  0  0  0  0  0  0  0
   -7.4690   17.7990  -33.0420 C   0  0  0  0  0  0  0  0  0  0  0  0
   -6.4980   17.0370  -33.7010 C   0  0  0  0  0  0  0  0  0  0  0  0
   -6.8640   15.7770  -34.1980 O   0  0  0  0  0  0  0  0  0  0  0  0
   -6.0230   14.6290  -34.1790 C   0  0  0  0  0  0  0  0  0  0  0  0
   -5.1950   17.5530  -33.8420 C   0  0  0  0  0  0  0  0  0  0  0  0
   -4.8740   18.8140  -33.3310 C   0  0  0  0  0  0  0  0  0  0  0  0
   -5.8470   19.5790  -32.6720 C   0  0  0  0  0  0  0  0  0  0  0  0
   -5.5320   20.8450  -32.1560 C   0  0  0  0  0  0  0  0  0  0  0  0
   -4.8330   23.3330  -30.7650 C   0  0  0  0  0  0  0  0  0  0  0  0
   -2.4610   24.3692  -28.2251 H   0  0  0  0  0  0  0  0  0  0  0  0
   -2.3325   23.1162  -29.5057 H   0  0  0  0  0  0  0  0  0  0  0  0
   -1.2104   24.5189  -29.5057 H   0  0  0  0  0  0  0  0  0  0  0  0
   -5.2988   26.4817  -29.5117 H   0  0  0  0  0  0  0  0  0  0  0  0
   -7.6802   25.8193  -29.8294 H   0  0  0  0  0  0  0  0  0  0  0  0
   -8.2466   23.5725  -30.7451 H   0  0  0  0  0  0  0  0  0  0  0  0
   -8.5777   21.6765  -30.8338 H   0  0  0  0  0  0  0  0  0  0  0  0
   -9.1482   19.4335  -31.7479 H   0  0  0  0  0  0  0  0  0  0  0  0
   -8.4882   17.4013  -32.9281 H   0  0  0  0  0  0  0  0  0  0  0  0
   -5.8145   14.3444  -33.1371 H   0  0  0  0  0  0  0  0  0  0  0  0
   -6.5268   13.7969  -34.6926 H   0  0  0  0  0  0  0  0  0  0  0  0
   -5.0777   14.8584  -34.6926 H   0  0  0  0  0  0  0  0  0  0  0  0
   -4.4251   16.9600  -34.3574 H   0  0  0  0  0  0  0  0  0  0  0  0
   -3.8535   19.2079  -33.4464 H   0  0  0  0  0  0  0  0  0  0  0  0
   -4.5132   21.2433  -32.2715 H   0  0  0  0  0  0  0  0  0  0  0  0
   -4.0282   22.6310  -31.0287 H   0  0  0  0  0  0  0  0  0  0  0  0
  1  2  1  0
  2  3  1  0
  3  4  2  0
  4  5  1  0
  5  6  2  0
  6  7  1  0
  7  8  1  0
  8  9  2  0
  9 10  1  0
 10 11  2  0
 11 12  1  0
 12 13  2  0
 13 14  1  0
 14 15  1  0
 13 16  1  0
 16 17  2  0
 17 18  1  0
 18 19  2  0
  7 20  2  0
 20  3  1  0
 19  8  1  0
 18 11  1  0
  1 21  1  0
  1 22  1  0
  1 23  1  0
  4 24  1  0
  5 25  1  0
  6 26  1  0
  9 27  1  0
 10 28  1  0
 12 29  1  0
 15 30  1  0
 15 31  1  0
 15 32  1  0
 16 33  1  0
 17 34  1  0
 19 35  1  0
 20 36  1  0
M  END
>  <UniqueID>  (10) 
9

>  <SMILES>  (10) 
COc1cccc(-c2ccc3cc(OC)ccc3c2)c1

>  <Energy>  (10) 
45.59221394656558

>  <Genealogy>  (10) 
COc1cccc(-c2ccc3cc(OC)ccc3c2)c1 (3D coordinates assigned)
COc1cccc(-c2ccc3cc(OC)ccc3c2)c1 (optimized conformer: 45.59221394656558 kcal/mol)

>  <smiles>  (10) 
COc1cccc(-c2ccc3cc(OC)ccc3c2)c1

>  <score_type>  (10) 
oracle

>  <origin>  (10) 
adg

>  <m_score__min__energy>  (10) 
-8.2699999999999996

>  <m_primary>  (10) 
energy

$$$$
10:0
     RDKit          3D

 32 34  0  0  0  0  0  0  0  0999 V2000
   -8.8650   20.5260  -31.6650 C   0  0  0  0  0  0  0  0  0  0  0  0
   -8.7410   21.6910  -31.9520 C   0  0  0  0  0  0  0  0  0  0  0  0
   -8.5900   23.1070  -32.3020 C   0  0  0  0  0  0  0  0  0  0  0  0
   -7.1780   23.4320  -32.5010 N   0  0  0  0  0  0  0  0  0  0  0  0
   -6.2170   23.5850  -31.4360 C   0  0  0  0  0  0  0  0  0  0  0  0
   -5.1340   22.6970  -31.3610 C   0  0  0  0  0  0  0  0  0  0  0  0
   -4.1840   22.8170  -30.3420 C   0  0  0  0  0  0  0  0  0  0  0  0
   -4.2980   23.8270  -29.3720 C   0  0  0  0  0  0  0  0  0  0  0  0
   -3.2860   23.9480  -28.2920 C   0  0  0  0  0  0  0  0  0  0  0  0
   -3.2930   24.9180  -27.3380 N   0  0  0  0  0  0  0  0  0  0  0  0
   -2.2520   24.7910  -26.4750 C   0  0  0  0  0  0  0  0  0  0  0  0
   -2.0040   25.6380  -25.3920 C   0  0  0  0  0  0  0  0  0  0  0  0
   -0.8870   25.3840  -24.5770 C   0  0  0  0  0  0  0  0  0  0  0  0
   -0.0370   24.2930  -24.8500 C   0  0  0  0  0  0  0  0  0  0  0  0
   -0.2970   23.4470  -25.9390 C   0  0  0  0  0  0  0  0  0  0  0  0
   -1.4080   23.7200  -26.7310 C   0  0  0  0  0  0  0  0  0  0  0  0
   -1.9710   22.8930  -28.0770 S   0  0  0  0  0  0  0  0  0  0  0  0
   -5.3800   24.7220  -29.4510 C   0  0  0  0  0  0  0  0  0  0  0  0
   -6.3290   24.6030  -30.4720 C   0  0  0  0  0  0  0  0  0  0  0  0
   -8.9781   19.4636  -31.4033 H   0  0  0  0  0  0  0  0  0  0  0  0
   -9.1441   23.3128  -33.2297 H   0  0  0  0  0  0  0  0  0  0  0  0
   -8.9872   23.7230  -31.4818 H   0  0  0  0  0  0  0  0  0  0  0  0
   -6.8610   23.5940  -33.4840 H   0  0  0  0  0  0  0  0  0  0  0  0
   -5.0310   21.8987  -32.1108 H   0  0  0  0  0  0  0  0  0  0  0  0
   -3.3392   22.1138  -30.2994 H   0  0  0  0  0  0  0  0  0  0  0  0
   -4.0180   25.6630  -27.2500 H   0  0  0  0  0  0  0  0  0  0  0  0
   -2.6701   26.4876  -25.1810 H   0  0  0  0  0  0  0  0  0  0  0  0
   -0.6749   26.0409  -23.7206 H   0  0  0  0  0  0  0  0  0  0  0  0
    0.8345   24.1039  -24.2061 H   0  0  0  0  0  0  0  0  0  0  0  0
    0.3590   22.5922  -26.1603 H   0  0  0  0  0  0  0  0  0  0  0  0
   -5.4810   25.5226  -28.7034 H   0  0  0  0  0  0  0  0  0  0  0  0
   -7.1693   25.3111  -30.5212 H   0  0  0  0  0  0  0  0  0  0  0  0
  1  2  3  0
  2  3  1  0
  3  4  1  0
  4  5  1  0
  5  6  2  0
  6  7  1  0
  7  8  2  0
  8  9  1  0
  9 10  2  0
 10 11  1  0
 11 12  2  0
 12 13  1  0
 13 14  2  0
 14 15  1  0
 15 16  2  0
 16 17  1  0
  8 18  1  0
 18 19  2  0
 19  5  1  0
 17  9  1  0
 16 11  1  0
  1 20  1  0
  3 21  1  0
  3 22  1  0
  4 23  1  0
  6 24  1  0
  7 25  1  0
 10 26  1  0
 12 27  1  0
 13 28  1  0
 14 29  1  0
 15 30  1  0
 18 31  1  0
 19 32  1  0
M  CHG  1  10   1
M  END
>  <UniqueID>  (11) 
10

>  <SMILES>  (11) 
C#CCNc1ccc(-c2[nH+]c3ccccc3s2)cc1

>  <Energy>  (11) 
68.21142054038178

>  <Genealogy>  (11) 
C#CCNc1ccc(-c2[nH+]c3ccccc3s2)cc1 (protonated)
C#CCNc1ccc(-c2[nH+]c3ccccc3s2)cc1 (3D coordinates assigned)
C#CCNc1ccc(-c2[nH+]c3ccccc3s2)cc1 (optimized conformer: 68.21142054038178 kcal/mol)

>  <smiles>  (11) 
C#CCNc1ccc(-c2nc3ccccc3s2)cc1

>  <score_type>  (11) 
oracle

>  <origin>  (11) 
adg

>  <m_score__min__energy>  (11) 
-6.6799999999999997

>  <m_primary>  (11) 
energy

$$$$
11:0
     RDKit          3D

 46 47  0  0  0  0  0  0  0  0999 V2000
   -5.2980   25.6620  -30.4870 C   0  0  0  0  0  0  0  0  0  0  0  0
   -3.9450   25.2200  -30.4660 O   0  0  0  0  0  0  0  0  0  0  0  0
   -3.4560   24.1730  -29.6640 C   0  0  0  0  0  0  0  0  0  0  0  0
   -3.1260   24.3740  -28.3110 C   0  0  0  0  0  0  0  0  0  0  0  0
   -2.6220   23.3250  -27.5450 C   0  0  0  0  0  0  0  0  0  0  0  0
   -2.4330   22.0670  -28.1140 C   0  0  0  0  0  0  0  0  0  0  0  0
   -2.7550   21.8390  -29.4650 C   0  0  0  0  0  0  0  0  0  0  0  0
   -2.5510   20.5860  -30.0680 O   0  0  0  0  0  0  0  0  0  0  0  0
   -1.2760   20.0350  -30.3820 C   0  0  0  0  0  0  0  0  0  0  0  0
   -3.2900   22.8930  -30.2370 C   0  0  0  0  0  0  0  0  0  0  0  0
   -3.6110   22.6790  -31.7000 C   0  0  0  0  0  0  0  0  0  0  0  0
   -3.9780   21.2740  -31.9430 N   0  0  0  0  0  0  0  0  0  0  0  0
   -4.9300   21.1340  -33.0590 C   0  0  0  0  0  0  0  0  0  0  0  0
   -6.1980   20.4150  -32.6380 C   0  0  0  0  0  0  0  0  0  0  0  0
   -6.4010   19.0820  -33.0280 C   0  0  0  0  0  0  0  0  0  0  0  0
   -7.5270   18.3850  -32.5920 C   0  0  0  0  0  0  0  0  0  0  0  0
   -8.4470   19.0230  -31.7620 C   0  0  0  0  0  0  0  0  0  0  0  0
   -8.2460   20.3140  -31.3890 N   0  0  0  0  0  0  0  0  0  0  0  0
   -7.1610   21.0260  -31.8040 C   0  0  0  0  0  0  0  0  0  0  0  0
   -7.0140   22.3870  -31.3750 N   0  0  0  0  0  0  0  0  0  0  0  0
   -7.1950   22.6950  -29.9580 C   0  0  0  0  0  0  0  0  0  0  0  0
   -7.2220   23.4560  -32.3500 C   0  0  0  0  0  0  0  0  0  0  0  0
   -5.6610   25.7806  -29.4554 H   0  0  0  0  0  0  0  0  0  0  0  0
   -5.3603   26.6272  -31.0109 H   0  0  0  0  0  0  0  0  0  0  0  0
   -5.9181   24.9197  -31.0109 H   0  0  0  0  0  0  0  0  0  0  0  0
   -3.2668   25.3652  -27.8553 H   0  0  0  0  0  0  0  0  0  0  0  0
   -2.3722   23.4905  -26.4866 H   0  0  0  0  0  0  0  0  0  0  0  0
   -2.0293   21.2463  -27.5029 H   0  0  0  0  0  0  0  0  0  0  0  0
   -0.7378   19.8024  -29.4513 H   0  0  0  0  0  0  0  0  0  0  0  0
   -1.4090   19.1140  -30.9686 H   0  0  0  0  0  0  0  0  0  0  0  0
   -0.6964   20.7629  -30.9686 H   0  0  0  0  0  0  0  0  0  0  0  0
   -4.4518   23.3282  -31.9856 H   0  0  0  0  0  0  0  0  0  0  0  0
   -2.7231   22.9257  -32.3007 H   0  0  0  0  0  0  0  0  0  0  0  0
   -3.1200   20.7070  -32.1330 H   0  0  0  0  0  0  0  0  0  0  0  0
   -4.4320   20.8940  -31.0800 H   0  0  0  0  0  0  0  0  0  0  0  0
   -5.1955   22.1360  -33.4271 H   0  0  0  0  0  0  0  0  0  0  0  0
   -4.4459   20.5364  -33.8455 H   0  0  0  0  0  0  0  0  0  0  0  0
   -5.6682   18.5849  -33.6807 H   0  0  0  0  0  0  0  0  0  0  0  0
   -7.6877   17.3414  -32.9002 H   0  0  0  0  0  0  0  0  0  0  0  0
   -9.3366   18.4810  -31.4086 H   0  0  0  0  0  0  0  0  0  0  0  0
   -6.7309   21.9053  -29.3489 H   0  0  0  0  0  0  0  0  0  0  0  0
   -6.7208   23.6608  -29.7292 H   0  0  0  0  0  0  0  0  0  0  0  0
   -8.2695   22.7507  -29.7292 H   0  0  0  0  0  0  0  0  0  0  0  0
   -7.4063   24.4032  -31.8219 H   0  0  0  0  0  0  0  0  0  0  0  0
   -6.3265   23.5562  -32.9809 H   0  0  0  0  0  0  0  0  0  0  0  0
   -8.0897   23.2131  -32.9809 H   0  0  0  0  0  0  0  0  0  0  0  0
  1  2  1  0
  2  3  1  0
  3  4  2  0
  4  5  1  0
  5  6  2  0
  6  7  1  0
  7  8  1  0
  8  9  1  0
  7 10  2  0
 10 11  1  0
 11 12  1  0
 12 13  1  0
 13 14  1  0
 14 15  2  0
 15 16  1  0
 16 17  2  0
 17 18  1  0
 18 19  2  0
 19 20  1  0
 20 21  1  0
 20 22  1  0
 10  3  1  0
 19 14  1  0
  1 23  1  0
  1 24  1  0
  1 25  1  0
  4 26  1  0
  5 27  1  0
  6 28  1  0
  9 29  1  0
  9 30  1  0
  9 31  1  0
 11 32  1  0
 11 33  1  0
 12 34  1  0
 12 35  1  0
 13 36  1  0
 13 37  1  0
 15 38  1  0
 16 39  1  0
 17 40  1  0
 21 41  1  0
 21 42  1  0
 21 43  1  0
 22 44  1  0
 22 45  1  0
 22 46  1  0
M  CHG  1  12   1
M  END
>  <UniqueID>  (12) 
11

>  <SMILES>  (12) 
COc1cccc(OC)c1C[NH2+]Cc1cccnc1N(C)C

>  <Energy>  (12) 
48.706272033481085

>  <Genealogy>  (12) 
COc1cccc(OC)c1C[NH2+]Cc1cccnc1N(C)C (protonated)
COc1cccc(OC)c1C[NH2+]Cc1cccnc1N(C)C (3D coordinates assigned)
COc1cccc(OC)c1C[NH2+]Cc1cccnc1N(C)C (optimized conformer: 48.706272033481085 kcal/mol)

>  <smiles>  (12) 
COc1cccc(OC)c1CNCc1cccnc1N(C)C

>  <score_type>  (12) 
oracle

>  <origin>  (12) 
adg

>  <m_score__min__energy>  (12) 
-5.7300000000000004

>  <m_primary>  (12) 
energy

$$$$
12:0
     RDKit          3D

 46 48  0  0  0  0  0  0  0  0999 V2000
   -7.6910   22.5640  -30.1400 C   0  0  0  0  0  0  0  0  0  0  0  0
   -6.6920   22.1440  -31.1850 C   0  0  0  0  0  0  0  0  0  0  0  0
   -7.0880   21.1830  -32.1350 C   0  0  0  0  0  0  0  0  0  0  0  0
   -6.1910   20.7190  -33.0980 C   0  0  0  0  0  0  0  0  0  0  0  0
   -6.5870   19.7900  -34.0020 F   0  0  0  0  0  0  0  0  0  0  0  0
   -4.8840   21.2000  -33.1220 C   0  0  0  0  0  0  0  0  0  0  0  0
   -4.4750   22.1570  -32.1940 C   0  0  0  0  0  0  0  0  0  0  0  0
   -5.3690   22.6650  -31.2360 C   0  0  0  0  0  0  0  0  0  0  0  0
   -4.7450   23.9020  -30.1240 S   0  0  0  0  0  0  0  0  0  0  0  0
   -3.8670   24.9080  -30.8120 O   0  0  0  0  0  0  0  0  0  0  0  0
   -5.9240   24.6310  -29.5440 O   0  0  0  0  0  0  0  0  0  0  0  0
   -3.8210   23.1420  -28.7680 C   0  0  2  0  0  0  0  0  0  0  0  0
   -3.2380   24.1930  -27.8250 C   0  0  0  0  0  0  0  0  0  0  0  0
   -2.0580   23.5720  -27.2460 N   0  0  0  0  0  0  0  0  0  0  0  0
   -1.2930   24.1250  -26.1580 C   0  0  0  0  0  0  0  0  0  0  0  0
   -0.4830   23.3160  -25.3480 C   0  0  0  0  0  0  0  0  0  0  0  0
    0.2320   23.9100  -24.3090 C   0  0  0  0  0  0  0  0  0  0  0  0
    0.1400   25.2480  -24.0950 N   0  0  0  0  0  0  0  0  0  0  0  0
   -0.6510   26.0230  -24.8870 C   0  0  0  0  0  0  0  0  0  0  0  0
   -0.7480   27.4390  -24.6560 C   0  0  0  0  0  0  0  0  0  0  0  0
   -0.8270   28.5790  -24.4710 N   0  0  0  0  0  0  0  0  0  0  0  0
   -1.3540   25.4610  -25.9030 N   0  0  0  0  0  0  0  0  0  0  0  0
   -1.7320   22.3020  -27.8760 C   0  0  0  0  0  0  0  0  0  0  0  0
   -2.6220   22.2180  -29.1340 C   0  0  0  0  0  0  0  0  0  0  0  0
   -1.8180   22.7210  -30.3540 C   0  0  0  0  0  0  0  0  0  0  0  0
   -3.0630   20.7620  -29.3820 C   0  0  0  0  0  0  0  0  0  0  0  0
   -7.2707   22.3873  -29.1389 H   0  0  0  0  0  0  0  0  0  0  0  0
   -7.9180   23.6337  -30.2588 H   0  0  0  0  0  0  0  0  0  0  0  0
   -8.6142   21.9778  -30.2588 H   0  0  0  0  0  0  0  0  0  0  0  0
   -8.1166   20.7935  -32.1178 H   0  0  0  0  0  0  0  0  0  0  0  0
   -4.1740   20.8246  -33.8736 H   0  0  0  0  0  0  0  0  0  0  0  0
   -3.4367   22.5199  -32.2120 H   0  0  0  0  0  0  0  0  0  0  0  0
   -4.6036   22.5129  -28.3189 H   0  0  0  0  0  0  0  0  0  0  0  0
   -2.9624   25.1007  -28.3819 H   0  0  0  0  0  0  0  0  0  0  0  0
   -3.9606   24.5009  -27.0549 H   0  0  0  0  0  0  0  0  0  0  0  0
   -0.4131   22.2332  -25.5290 H   0  0  0  0  0  0  0  0  0  0  0  0
    0.8722   23.2935  -23.6609 H   0  0  0  0  0  0  0  0  0  0  0  0
    0.6830   25.6770  -23.3110 H   0  0  0  0  0  0  0  0  0  0  0  0
   -0.6686   22.2749  -28.1562 H   0  0  0  0  0  0  0  0  0  0  0  0
   -1.9090   21.4551  -27.1967 H   0  0  0  0  0  0  0  0  0  0  0  0
   -0.9331   23.2746  -30.0070 H   0  0  0  0  0  0  0  0  0  0  0  0
   -1.4979   21.8618  -30.9617 H   0  0  0  0  0  0  0  0  0  0  0  0
   -2.4506   23.3846  -30.9617 H   0  0  0  0  0  0  0  0  0  0  0  0
   -3.2163   20.2560  -28.4174 H   0  0  0  0  0  0  0  0  0  0  0  0
   -4.0033   20.7558  -29.9528 H   0  0  0  0  0  0  0  0  0  0  0  0
   -2.2841   20.2351  -29.9528 H   0  0  0  0  0  0  0  0  0  0  0  0
  1  2  1  0
  2  3  2  0
  3  4  1  0
  4  5  1  0
  4  6  2  0
  6  7  1  0
  7  8  2  0
  8  9  1  0
  9 10  2  0
  9 11  2  0
  9 12  1  0
 12 13  1  0
 13 14  1  0
 14 15  1  0
 15 16  2  0
 16 17  1  0
 17 18  2  0
 18 19  1  0
 19 20  1  0
 20 21  3  0
 19 22  2  0
 14 23  1  0
 23 24  1  0
 24 25  1  0
 24 26  1  0
  8  2  1  0
 24 12  1  0
 22 15  1  0
  1 27  1  0
  1 28  1  0
  1 29  1  0
  3 30  1  0
  6 31  1  0
  7 32  1  0
 12 33  1  1
 13 34  1  0
 13 35  1  0
 16 36  1  0
 17 37  1  0
 18 38  1  0
 23 39  1  0
 23 40  1  0
 25 41  1  0
 25 42  1  0
 25 43  1  0
 26 44  1  0
 26 45  1  0
 26 46  1  0
M  CHG  1  18   1
M  END
>  <UniqueID>  (13) 
12

>  <SMILES>  (13) 
Cc1cc(F)ccc1S(=O)(=O)[C@@H]1CN(c2cc[nH+]c(C#N)n2)CC1(C)C

>  <Energy>  (13) 
50.83635424053684

>  <Genealogy>  (13) 
Cc1cc(F)ccc1S(=O)(=O)C1CN(c2cc[nH+]c(C#N)n2)CC1(C)C (protonated)
Cc1cc(F)ccc1S(=O)(=O)[C@@H]1CN(c2cc[nH+]c(C#N)n2)CC1(C)C (chirality)
Cc1cc(F)ccc1S(=O)(=O)[C@@H]1CN(c2cc[nH+]c(C#N)n2)CC1(C)C (3D coordinates assigned)
Cc1cc(F)ccc1S(=O)(=O)[C@@H]1CN(c2cc[nH+]c(C#N)n2)CC1(C)C (nonaromatic ring conformer: 50.83635424053684 kcal/mol)

>  <smiles>  (13) 
Cc1cc(F)ccc1S(=O)(=O)C1CN(c2ccnc(C#N)n2)CC1(C)C

>  <score_type>  (13) 
oracle

>  <origin>  (13) 
adg

>  <m_score__min__energy>  (13) 
-8.9199999999999999

>  <m_primary>  (13) 
energy

$$$$
13:0
     RDKit          3D

 28 28  0  0  0  0  0  0  0  0999 V2000
   -4.7300   24.1760  -28.8750 C   0  0  0  0  0  0  0  0  0  0  0  0
   -4.7570   24.1220  -30.6530 S   0  0  0  0  0  0  0  0  0  0  0  0
   -3.4270   23.6430  -31.1620 O   0  0  0  0  0  0  0  0  0  0  0  0
   -5.0110   25.5020  -31.1940 O   0  0  0  0  0  0  0  0  0  0  0  0
   -6.0290   23.0270  -31.1840 C   0  0  0  0  0  0  0  0  0  0  0  0
   -7.3700   23.4190  -31.1160 C   0  0  0  0  0  0  0  0  0  0  0  0
   -8.3800   22.5410  -31.5160 C   0  0  0  0  0  0  0  0  0  0  0  0
   -8.0610   21.2640  -31.9930 C   0  0  0  0  0  0  0  0  0  0  0  0
   -9.3820   20.1700  -32.3920 Cl  0  0  0  0  0  0  0  0  0  0  0  0
   -6.7100   20.8660  -32.0790 C   0  0  0  0  0  0  0  0  0  0  0  0
   -6.3210   19.5350  -32.5790 C   0  0  0  0  0  0  0  0  0  0  0  0
   -6.3730   19.3180  -33.8210 O   0  0  0  0  0  0  0  0  0  0  0  0
   -5.8600   18.5220  -31.6630 N   0  0  0  0  0  0  0  0  0  0  0  0
   -5.8070   17.2360  -31.9000 C   0  0  0  0  0  0  0  0  0  0  0  0
   -5.8560   16.7030  -33.2310 N   0  0  0  0  0  0  0  0  0  0  0  0
   -5.7550   16.3200  -30.8020 N   0  0  0  0  0  0  0  0  0  0  0  0
   -5.7030   21.7490  -31.6550 C   0  0  0  0  0  0  0  0  0  0  0  0
   -5.1880   23.2601  -28.4734 H   0  0  0  0  0  0  0  0  0  0  0  0
   -3.6893   24.2490  -28.5261 H   0  0  0  0  0  0  0  0  0  0  0  0
   -5.2960   25.0523  -28.5261 H   0  0  0  0  0  0  0  0  0  0  0  0
   -7.6300   24.4219  -30.7463 H   0  0  0  0  0  0  0  0  0  0  0  0
   -9.4326   22.8548  -31.4559 H   0  0  0  0  0  0  0  0  0  0  0  0
   -5.5340   18.8520  -30.7270 H   0  0  0  0  0  0  0  0  0  0  0  0
   -5.6360   15.6960  -33.3910 H   0  0  0  0  0  0  0  0  0  0  0  0
   -6.3000   17.2220  -34.0200 H   0  0  0  0  0  0  0  0  0  0  0  0
   -5.7400   15.2900  -30.9730 H   0  0  0  0  0  0  0  0  0  0  0  0
   -5.7240   16.6610  -29.8150 H   0  0  0  0  0  0  0  0  0  0  0  0
   -4.6498   21.4340  -31.6933 H   0  0  0  0  0  0  0  0  0  0  0  0
  1  2  1  0
  2  3  2  0
  2  4  2  0
  2  5  1  0
  5  6  2  0
  6  7  1  0
  7  8  2  0
  8  9  1  0
  8 10  1  0
 10 11  1  0
 11 12  2  0
 11 13  1  0
 13 14  2  3
 14 15  1  0
 14 16  1  0
 10 17  2  0
 17  5  1  0
  1 18  1  0
  1 19  1  0
  1 20  1  0
  6 21  1  0
  7 22  1  0
 13 23  1  0
 15 24  1  0
 15 25  1  0
 16 26  1  0
 16 27  1  0
 17 28  1  0
M  CHG  1  13   1
M  END
>  <UniqueID>  (14) 
13

>  <SMILES>  (14) 
CS(=O)(=O)c1ccc(Cl)c(C(=O)[NH+]=C(N)N)c1

>  <Energy>  (14) 
34.060091480301516

>  <Genealogy>  (14) 
CS(=O)(=O)c1ccc(Cl)c(C(=O)[NH+]=C(N)N)c1 (protonated)
CS(=O)(=O)c1ccc(Cl)c(C(=O)[NH+]=C(N)N)c1 (3D coordinates assigned)
CS(=O)(=O)c1ccc(Cl)c(C(=O)[NH+]=C(N)N)c1 (optimized conformer: 34.060091480301516 kcal/mol)

>  <smiles>  (14) 
CS(=O)(=O)c1ccc(Cl)c(C(=O)N=C(N)N)c1

>  <score_type>  (14) 
oracle

>  <origin>  (14) 
adg

>  <m_score__min__energy>  (14) 
-7.0599999999999996

>  <m_primary>  (14) 
energy

$$$$
14:0
     RDKit          3D

 33 35  0  0  0  0  0  0  0  0999 V2000
   -1.4150   20.4690  -30.4480 C   0  0  0  0  0  0  0  0  0  0  0  0
   -2.0730   21.2940  -31.4660 N   0  0  0  0  0  0  0  0  0  0  0  0
   -1.7970   21.0470  -32.8590 C   0  0  0  0  0  0  0  0  0  0  0  0
   -0.7590   21.5230  -33.3950 O   0  0  0  0  0  0  0  0  0  0  0  0
   -2.7380   20.2410  -33.6960 C   0  0  0  0  0  0  0  0  0  0  0  0
   -4.0480   20.8800  -33.6980 N   0  0  0  0  0  0  0  0  0  0  0  0
   -4.7870   21.0740  -32.6420 C   0  0  0  0  0  0  0  0  0  0  0  0
   -5.9820   20.2110  -32.4460 C   0  0  0  0  0  0  0  0  0  0  0  0
   -5.8440   18.8760  -32.0180 C   0  0  0  0  0  0  0  0  0  0  0  0
   -6.9740   18.0730  -31.8280 C   0  0  0  0  0  0  0  0  0  0  0  0
   -8.2500   18.5930  -32.0540 C   0  0  0  0  0  0  0  0  0  0  0  0
   -8.4010   19.9170  -32.4680 C   0  0  0  0  0  0  0  0  0  0  0  0
   -7.2760   20.7250  -32.6610 C   0  0  0  0  0  0  0  0  0  0  0  0
   -4.4290   22.1090  -31.6280 C   0  0  0  0  0  0  0  0  0  0  0  0
   -5.4200   23.0190  -31.2120 C   0  0  0  0  0  0  0  0  0  0  0  0
   -5.1270   24.0150  -30.2790 C   0  0  0  0  0  0  0  0  0  0  0  0
   -6.4860   25.2410  -29.7330 Br  0  0  0  0  0  0  0  0  0  0  0  0
   -3.8430   24.1130  -29.7450 C   0  0  0  0  0  0  0  0  0  0  0  0
   -2.8500   23.2160  -30.1380 C   0  0  0  0  0  0  0  0  0  0  0  0
   -3.1240   22.2050  -31.0780 C   0  0  0  0  0  0  0  0  0  0  0  0
   -1.6994   20.8256  -29.4470 H   0  0  0  0  0  0  0  0  0  0  0  0
   -1.7281   19.4212  -30.5666 H   0  0  0  0  0  0  0  0  0  0  0  0
   -0.3238   20.5413  -30.5666 H   0  0  0  0  0  0  0  0  0  0  0  0
   -2.3560   20.1826  -34.7259 H   0  0  0  0  0  0  0  0  0  0  0  0
   -2.8235   19.2259  -33.2811 H   0  0  0  0  0  0  0  0  0  0  0  0
   -4.8418   18.4623  -31.8320 H   0  0  0  0  0  0  0  0  0  0  0  0
   -6.8569   17.0297  -31.4998 H   0  0  0  0  0  0  0  0  0  0  0  0
   -9.1364   17.9588  -31.9057 H   0  0  0  0  0  0  0  0  0  0  0  0
   -9.4070   20.3260  -32.6429 H   0  0  0  0  0  0  0  0  0  0  0  0
   -7.4023   21.7692  -32.9829 H   0  0  0  0  0  0  0  0  0  0  0  0
   -6.4360   22.9441  -31.6268 H   0  0  0  0  0  0  0  0  0  0  0  0
   -3.6124   24.8999  -29.0117 H   0  0  0  0  0  0  0  0  0  0  0  0
   -1.8409   23.2997  -29.7083 H   0  0  0  0  0  0  0  0  0  0  0  0
  1  2  1  0
  2  3  1  0
  3  4  2  0
  3  5  1  0
  5  6  1  0
  6  7  2  0
  7  8  1  0
  8  9  2  0
  9 10  1  0
 10 11  2  0
 11 12  1  0
 12 13  2  0
  7 14  1  0
 14 15  2  0
 15 16  1  0
 16 17  1  0
 16 18  2  0
 18 19  1  0
 19 20  2  0
 20  2  1  0
 13  8  1  0
 20 14  1  0
  1 21  1  0
  1 22  1  0
  1 23  1  0
  5 24  1  0
  5 25  1  0
  9 26  1  0
 10 27  1  0
 11 28  1  0
 12 29  1  0
 13 30  1  0
 15 31  1  0
 18 32  1  0
 19 33  1  0
M  END
>  <UniqueID>  (15) 
14

>  <SMILES>  (15) 
CN1C(=O)CN=C(c2ccccc2)c2cc(Br)ccc21

>  <Energy>  (15) 
50.008764673391845

>  <Genealogy>  (15) 
CN1C(=O)CN=C(c2ccccc2)c2cc(Br)ccc21 (3D coordinates assigned)
CN1C(=O)CN=C(c2ccccc2)c2cc(Br)ccc21 (nonaromatic ring conformer: 50.008764673391845 kcal/mol)

>  <smiles>  (15) 
CN1C(=O)CN=C(c2ccccc2)c2cc(Br)ccc21

>  <score_type>  (15) 
oracle

>  <origin>  (15) 
adg

>  <m_score__min__energy>  (15) 
-7.0499999999999998

>  <m_primary>  (15) 
energy

$$$$
15:0
     RDKit          3D

 40 42  0  0  0  0  0  0  0  0999 V2000
   -1.9070   25.0520  -28.2100 C   0  0  0  0  0  0  0  0  0  0  0  0
   -2.7390   25.2860  -29.3410 O   0  0  0  0  0  0  0  0  0  0  0  0
   -3.5720   24.3200  -29.9250 C   0  0  0  0  0  0  0  0  0  0  0  0
   -4.6610   24.7540  -30.6890 C   0  0  0  0  0  0  0  0  0  0  0  0
   -5.5200   23.8310  -31.2900 C   0  0  0  0  0  0  0  0  0  0  0  0
   -5.2990   22.4550  -31.1370 C   0  0  0  0  0  0  0  0  0  0  0  0
   -6.1760   21.5030  -31.7650 N   0  0  0  0  0  0  0  0  0  0  0  0
   -5.8540   20.5640  -32.6920 C   0  0  0  0  0  0  0  0  0  0  0  0
   -4.4820   20.2460  -33.1480 C   0  0  0  0  0  0  0  0  0  0  0  0
   -4.1020   18.9080  -33.3440 C   0  0  0  0  0  0  0  0  0  0  0  0
   -2.8060   18.5970  -33.7680 C   0  0  0  0  0  0  0  0  0  0  0  0
   -1.8770   19.6180  -33.9890 C   0  0  0  0  0  0  0  0  0  0  0  0
   -2.2410   20.9500  -33.7800 C   0  0  0  0  0  0  0  0  0  0  0  0
   -3.5350   21.2660  -33.3550 C   0  0  0  0  0  0  0  0  0  0  0  0
   -6.9450   19.9110  -33.1450 N   0  0  0  0  0  0  0  0  0  0  0  0
   -7.9870   20.4390  -32.4780 C   0  0  0  0  0  0  0  0  0  0  0  0
   -9.4110   20.0310  -32.6840 C   0  0  0  0  0  0  0  0  0  0  0  0
   -7.5220   21.4370  -31.6410 C   0  0  0  0  0  0  0  0  0  0  0  0
   -8.3550   22.3050  -30.7440 C   0  0  0  0  0  0  0  0  0  0  0  0
   -4.2100   22.0140  -30.3710 C   0  0  0  0  0  0  0  0  0  0  0  0
   -3.3500   22.9380  -29.7680 C   0  0  0  0  0  0  0  0  0  0  0  0
   -2.4859   25.2148  -27.2890 H   0  0  0  0  0  0  0  0  0  0  0  0
   -1.5392   24.0156  -28.2335 H   0  0  0  0  0  0  0  0  0  0  0  0
   -1.0529   25.7448  -28.2335 H   0  0  0  0  0  0  0  0  0  0  0  0
   -4.8422   25.8314  -30.8174 H   0  0  0  0  0  0  0  0  0  0  0  0
   -6.3739   24.1854  -31.8861 H   0  0  0  0  0  0  0  0  0  0  0  0
   -4.8272   18.1009  -33.1632 H   0  0  0  0  0  0  0  0  0  0  0  0
   -2.5173   17.5477  -33.9278 H   0  0  0  0  0  0  0  0  0  0  0  0
   -0.8596   19.3723  -34.3274 H   0  0  0  0  0  0  0  0  0  0  0  0
   -1.5080   21.7524  -33.9501 H   0  0  0  0  0  0  0  0  0  0  0  0
   -3.8138   22.3159  -33.1818 H   0  0  0  0  0  0  0  0  0  0  0  0
   -6.9760   19.1410  -33.8500 H   0  0  0  0  0  0  0  0  0  0  0  0
   -9.8974   19.8916  -31.7073 H   0  0  0  0  0  0  0  0  0  0  0  0
   -9.9388   20.8140  -33.2481 H   0  0  0  0  0  0  0  0  0  0  0  0
   -9.4441   19.0872  -33.2481 H   0  0  0  0  0  0  0  0  0  0  0  0
   -8.1293   22.0698  -29.6934 H   0  0  0  0  0  0  0  0  0  0  0  0
   -8.1251   23.3626  -30.9405 H   0  0  0  0  0  0  0  0  0  0  0  0
   -9.4212   22.1188  -30.9405 H   0  0  0  0  0  0  0  0  0  0  0  0
   -4.0312   20.9361  -30.2437 H   0  0  0  0  0  0  0  0  0  0  0  0
   -2.4977   22.5841  -29.1694 H   0  0  0  0  0  0  0  0  0  0  0  0
  1  2  1  0
  2  3  1  0
  3  4  2  0
  4  5  1  0
  5  6  2  0
  6  7  1  0
  7  8  1  0
  8  9  1  0
  9 10  2  0
 10 11  1  0
 11 12  2  0
 12 13  1  0
 13 14  2  0
  8 15  2  0
 15 16  1  0
 16 17  1  0
 16 18  2  0
 18 19  1  0
  6 20  1  0
 20 21  2  0
 21  3  1  0
 18  7  1  0
 14  9  1  0
  1 22  1  0
  1 23  1  0
  1 24  1  0
  4 25  1  0
  5 26  1  0
 10 27  1  0
 11 28  1  0
 12 29  1  0
 13 30  1  0
 14 31  1  0
 15 32  1  0
 17 33  1  0
 17 34  1  0
 17 35  1  0
 19 36  1  0
 19 37  1  0
 19 38  1  0
 20 39  1  0
 21 40  1  0
M  CHG  1  15   1
M  END
>  <UniqueID>  (16) 
15

>  <SMILES>  (16) 
COc1ccc(-n2c(-c3ccccc3)[nH+]c(C)c2C)cc1

>  <Energy>  (16) 
80.21828442139103

>  <Genealogy>  (16) 
COc1ccc(-n2c(-c3ccccc3)[nH+]c(C)c2C)cc1 (protonated)
COc1ccc(-n2c(-c3ccccc3)[nH+]c(C)c2C)cc1 (3D coordinates assigned)
COc1ccc(-n2c(-c3ccccc3)[nH+]c(C)c2C)cc1 (optimized conformer: 80.21828442139103 kcal/mol)

>  <smiles>  (16) 
COc1ccc(-n2c(-c3ccccc3)nc(C)c2C)cc1

>  <score_type>  (16) 
oracle

>  <origin>  (16) 
adg

>  <m_score__min__energy>  (16) 
-7.3300000000000001

>  <m_primary>  (16) 
energy

$$$$
16:0
     RDKit          3D

 45 48  0  0  0  0  0  0  0  0999 V2000
    1.0280   24.9540  -35.7940 C   0  0  0  0  0  0  0  0  0  0  0  0
    0.9250   23.4620  -36.0970 C   0  0  0  0  0  0  0  0  0  0  0  0
    1.5520   22.6920  -35.0720 O   0  0  0  0  0  0  0  0  0  0  0  0
    0.9980   21.5660  -34.4410 C   0  0  0  0  0  0  0  0  0  0  0  0
    1.7800   20.4890  -33.9780 C   0  0  0  0  0  0  0  0  0  0  0  0
    1.1710   19.3880  -33.3700 C   0  0  0  0  0  0  0  0  0  0  0  0
   -0.2150   19.3500  -33.2060 C   0  0  0  0  0  0  0  0  0  0  0  0
   -0.7890   18.2440  -32.6690 F   0  0  0  0  0  0  0  0  0  0  0  0
   -1.0050   20.4260  -33.6460 C   0  0  0  0  0  0  0  0  0  0  0  0
   -2.4690   20.4030  -33.4920 C   0  0  0  0  0  0  0  0  0  0  0  0
   -3.1650   21.3770  -32.8620 N   0  0  0  0  0  0  0  0  0  0  0  0
   -4.4330   20.9910  -32.8620 N   0  0  0  0  0  0  0  0  0  0  0  0
   -4.4880   19.7900  -33.4640 C   0  0  0  0  0  0  0  0  0  0  0  0
   -3.2820   19.4020  -33.8940 N   0  0  0  0  0  0  0  0  0  0  0  0
   -2.9870   18.0650  -34.4040 C   0  0  0  0  0  0  0  0  0  0  0  0
   -4.2520   17.4770  -35.0510 C   0  0  0  0  0  0  0  0  0  0  0  0
   -5.4720   17.5910  -34.1130 C   0  0  0  0  0  0  0  0  0  0  0  0
   -5.6540   18.9630  -33.6110 N   0  0  0  0  0  0  0  0  0  0  0  0
   -6.9140   19.3390  -33.0370 C   0  0  0  0  0  0  0  0  0  0  0  0
   -7.2640   20.6940  -32.9110 C   0  0  0  0  0  0  0  0  0  0  0  0
   -8.4860   21.0540  -32.3350 C   0  0  0  0  0  0  0  0  0  0  0  0
   -8.8220   22.3630  -32.2180 F   0  0  0  0  0  0  0  0  0  0  0  0
   -9.3610   20.0650  -31.8740 C   0  0  0  0  0  0  0  0  0  0  0  0
   -9.0130   18.7150  -31.9870 C   0  0  0  0  0  0  0  0  0  0  0  0
   -9.8600   17.7580  -31.5360 F   0  0  0  0  0  0  0  0  0  0  0  0
   -7.7920   18.3530  -32.5630 C   0  0  0  0  0  0  0  0  0  0  0  0
   -0.3920   21.5170  -34.2790 C   0  0  0  0  0  0  0  0  0  0  0  0
    1.0386   25.1071  -34.7048 H   0  0  0  0  0  0  0  0  0  0  0  0
    1.9559   25.3534  -36.2294 H   0  0  0  0  0  0  0  0  0  0  0  0
    0.1638   25.4771  -36.2294 H   0  0  0  0  0  0  0  0  0  0  0  0
   -0.1362   23.1797  -36.1620 H   0  0  0  0  0  0  0  0  0  0  0  0
    1.4342   23.2601  -37.0509 H   0  0  0  0  0  0  0  0  0  0  0  0
    2.8734   20.5151  -34.0956 H   0  0  0  0  0  0  0  0  0  0  0  0
    1.7868   18.5469  -33.0188 H   0  0  0  0  0  0  0  0  0  0  0  0
   -5.2190   21.5350  -32.4420 H   0  0  0  0  0  0  0  0  0  0  0  0
   -2.1852   18.1267  -35.1545 H   0  0  0  0  0  0  0  0  0  0  0  0
   -2.6622   17.4182  -33.5757 H   0  0  0  0  0  0  0  0  0  0  0  0
   -4.4644   18.0234  -35.9818 H   0  0  0  0  0  0  0  0  0  0  0  0
   -4.0718   16.4112  -35.2550 H   0  0  0  0  0  0  0  0  0  0  0  0
   -6.3747   17.2923  -34.6662 H   0  0  0  0  0  0  0  0  0  0  0  0
   -5.2995   16.9326  -33.2489 H   0  0  0  0  0  0  0  0  0  0  0  0
   -6.5745   21.4738  -33.2666 H   0  0  0  0  0  0  0  0  0  0  0  0
  -10.3230   20.3489  -31.4225 H   0  0  0  0  0  0  0  0  0  0  0  0
   -7.5185   17.2907  -32.6449 H   0  0  0  0  0  0  0  0  0  0  0  0
   -1.0114   22.3454  -34.6533 H   0  0  0  0  0  0  0  0  0  0  0  0
  1  2  1  0
  2  3  1  0
  3  4  1  0
  4  5  2  0
  5  6  1  0
  6  7  2  0
  7  8  1  0
  7  9  1  0
  9 10  1  0
 10 11  2  0
 11 12  1  0
 12 13  2  0
 13 14  1  0
 14 15  1  0
 15 16  1  0
 16 17  1  0
 17 18  1  0
 18 19  1  0
 19 20  2  0
 20 21  1  0
 21 22  1  0
 21 23  2  0
 23 24  1  0
 24 25  1  0
 24 26  2  0
  9 27  2  0
 27  4  1  0
 14 10  1  0
 26 19  1  0
 18 13  1  0
  1 28  1  0
  1 29  1  0
  1 30  1  0
  2 31  1  0
  2 32  1  0
  5 33  1  0
  6 34  1  0
 12 35  1  0
 15 36  1  0
 15 37  1  0
 16 38  1  0
 16 39  1  0
 17 40  1  0
 17 41  1  0
 20 42  1  0
 23 43  1  0
 26 44  1  0
 27 45  1  0
M  CHG  1  12   1
M  END
>  <UniqueID>  (17) 
16

>  <SMILES>  (17) 
CCOc1ccc(F)c(-c2n[nH+]c3n2CCCN3c2cc(F)cc(F)c2)c1

>  <Energy>  (17) 
95.63931745965708

>  <Genealogy>  (17) 
CCOc1ccc(F)c(-c2n[nH+]c3n2CCCN3c2cc(F)cc(F)c2)c1 (protonated)
CCOc1ccc(F)c(-c2n[nH+]c3n2CCCN3c2cc(F)cc(F)c2)c1 (3D coordinates assigned)
CCOc1ccc(F)c(-c2n[nH+]c3n2CCCN3c2cc(F)cc(F)c2)c1 (nonaromatic ring conformer: 95.63931745965708 kcal/mol)

>  <smiles>  (17) 
CCOc1ccc(F)c(-c2nnc3n2CCCN3c2cc(F)cc(F)c2)c1

>  <score_type>  (17) 
oracle

>  <origin>  (17) 
adg

>  <m_score__min__energy>  (17) 
-7.54

>  <m_primary>  (17) 
energy

$$$$
17:0
     RDKit          3D

 29 29  0  0  0  0  0  0  0  0999 V2000
   -1.2020   26.4040  -27.4590 C   0  0  0  0  0  0  0  0  0  0  0  0
   -1.6280   25.6370  -28.5790 O   0  0  0  0  0  0  0  0  0  0  0  0
   -0.9970   24.4500  -28.9620 C   0  0  0  0  0  0  0  0  0  0  0  0
    0.2110   24.2440  -28.6640 O   0  0  0  0  0  0  0  0  0  0  0  0
   -1.7570   23.4410  -29.7170 C   0  0  0  0  0  0  0  0  0  0  0  0
   -1.3660   21.8070  -29.7800 S   0  0  0  0  0  0  0  0  0  0  0  0
   -2.6310   21.3380  -30.7820 C   0  0  0  0  0  0  0  0  0  0  0  0
   -3.3820   22.4660  -31.1000 C   0  0  0  0  0  0  0  0  0  0  0  0
   -4.5500   22.4010  -32.0380 C   0  0  0  0  0  0  0  0  0  0  0  0
   -2.9100   23.6430  -30.4740 C   0  0  0  0  0  0  0  0  0  0  0  0
   -3.4960   24.9400  -30.6460 N   0  0  0  0  0  0  0  0  0  0  0  0
   -4.8690   25.2530  -30.3910 C   0  0  0  0  0  0  0  0  0  0  0  0
   -5.5280   25.9430  -31.2140 O   0  0  0  0  0  0  0  0  0  0  0  0
   -5.5480   24.7130  -29.1590 C   0  0  1  0  0  0  0  0  0  0  0  0
   -6.1570   23.3390  -29.4370 C   0  0  0  0  0  0  0  0  0  0  0  0
   -4.6080   24.6320  -28.0390 N   0  0  0  0  0  0  0  0  0  0  0  0
   -1.4886   25.8879  -26.5308 H   0  0  0  0  0  0  0  0  0  0  0  0
   -0.1088   26.5224  -27.4901 H   0  0  0  0  0  0  0  0  0  0  0  0
   -1.6792   27.3946  -27.4901 H   0  0  0  0  0  0  0  0  0  0  0  0
   -2.8315   20.3133  -31.1279 H   0  0  0  0  0  0  0  0  0  0  0  0
   -5.4834   22.3491  -31.4583 H   0  0  0  0  0  0  0  0  0  0  0  0
   -4.5616   23.2999  -32.6719 H   0  0  0  0  0  0  0  0  0  0  0  0
   -4.4618   21.5064  -32.6719 H   0  0  0  0  0  0  0  0  0  0  0  0
   -6.3564   25.4071  -28.8856 H   0  0  0  0  0  0  0  0  0  0  0  0
   -6.3795   22.8369  -28.4839 H   0  0  0  0  0  0  0  0  0  0  0  0
   -7.0860   23.4595  -30.0136 H   0  0  0  0  0  0  0  0  0  0  0  0
   -5.4438   22.7317  -30.0136 H   0  0  0  0  0  0  0  0  0  0  0  0
   -4.8600   25.3660  -27.3380 H   0  0  0  0  0  0  0  0  0  0  0  0
   -3.6390   24.8410  -28.3760 H   0  0  0  0  0  0  0  0  0  0  0  0
  1  2  1  0
  2  3  1  0
  3  4  2  0
  3  5  1  0
  5  6  1  0
  6  7  1  0
  7  8  2  0
  8  9  1  0
  8 10  1  0
 10 11  1  0
 11 12  1  0
 12 13  2  0
 12 14  1  0
 14 15  1  0
 14 16  1  0
 10  5  2  0
  1 17  1  0
  1 18  1  0
  1 19  1  0
  7 20  1  0
  9 21  1  0
  9 22  1  0
  9 23  1  0
 14 24  1  1
 15 25  1  0
 15 26  1  0
 15 27  1  0
 16 28  1  0
 16 29  1  0
M  CHG  1  11  -1
M  END
>  <UniqueID>  (18) 
17

>  <SMILES>  (18) 
COC(=O)c1scc(C)c1[N-]C(=O)[C@@H](C)N

>  <Energy>  (18) 
51.10828323433778

>  <Genealogy>  (18) 
COC(=O)c1scc(C)c1[N-]C(=O)C(C)N (protonated)
COC(=O)c1scc(C)c1[N-]C(=O)[C@@H](C)N (chirality)
COC(=O)c1scc(C)c1[N-]C(=O)[C@@H](C)N (3D coordinates assigned)
COC(=O)c1scc(C)c1[N-]C(=O)[C@@H](C)N (optimized conformer: 51.10828323433778 kcal/mol)

>  <smiles>  (18) 
COC(=O)c1scc(C)c1NC(=O)C(C)N

>  <score_type>  (18) 
oracle

>  <origin>  (18) 
adg

>  <m_score__min__energy>  (18) 
-6.8799999999999999

>  <m_primary>  (18) 
energy

$$$$
18:0
     RDKit          3D

 59 60  0  0  0  0  0  0  0  0999 V2000
   -4.9730   15.1230  -32.2430 C   0  0  0  0  0  0  0  0  0  0  0  0
   -4.3070   16.0570  -33.2520 C   0  0  0  0  0  0  0  0  0  0  0  0
   -5.1670   17.2320  -33.5130 N   0  0  0  0  0  0  0  0  0  0  0  0
   -4.5690   18.1390  -34.5220 C   0  0  0  0  0  0  0  0  0  0  0  0
   -3.5970   19.1090  -33.8500 C   0  0  0  0  0  0  0  0  0  0  0  0
   -3.7420   19.0620  -32.4580 O   0  0  0  0  0  0  0  0  0  0  0  0
   -6.5400   16.8210  -33.8910 C   0  0  0  0  0  0  0  0  0  0  0  0
   -7.5840   17.6040  -33.0870 C   0  0  0  0  0  0  0  0  0  0  0  0
   -6.9580   18.7900  -32.4140 C   0  0  0  0  0  0  0  0  0  0  0  0
   -6.4570   18.6460  -31.2660 O   0  0  0  0  0  0  0  0  0  0  0  0
   -7.0260   20.0860  -33.0340 N   0  0  0  0  0  0  0  0  0  0  0  0
   -6.5980   21.3090  -32.4090 C   0  0  0  0  0  0  0  0  0  0  0  0
   -7.5600   22.2010  -31.9250 C   0  0  0  0  0  0  0  0  0  0  0  0
   -7.1760   23.4010  -31.3260 C   0  0  0  0  0  0  0  0  0  0  0  0
   -5.8150   23.7360  -31.1860 C   0  0  0  0  0  0  0  0  0  0  0  0
   -5.4260   25.0150  -30.5270 C   0  0  0  0  0  0  0  0  0  0  0  0
   -6.3150   25.6860  -29.5210 C   0  0  0  0  0  0  0  0  0  0  0  0
   -4.3450   25.5830  -30.8370 O   0  0  0  0  0  0  0  0  0  0  0  0
   -4.8360   22.8380  -31.6720 C   0  0  0  0  0  0  0  0  0  0  0  0
   -3.4740   23.1330  -31.4840 O   0  0  0  0  0  0  0  0  0  0  0  0
   -2.6250   22.5240  -30.5070 C   0  0  0  0  0  0  0  0  0  0  0  0
   -2.4250   23.4380  -29.3140 C   0  0  0  0  0  0  0  0  0  0  0  0
   -1.2530   24.2150  -29.2490 C   0  0  0  0  0  0  0  0  0  0  0  0
   -1.0410   25.1000  -28.1920 C   0  0  0  0  0  0  0  0  0  0  0  0
   -1.9850   25.2120  -27.1750 C   0  0  0  0  0  0  0  0  0  0  0  0
   -3.1370   24.4240  -27.1990 C   0  0  0  0  0  0  0  0  0  0  0  0
   -3.3640   23.5180  -28.2510 C   0  0  0  0  0  0  0  0  0  0  0  0
   -4.6120   22.6750  -28.2270 C   0  0  0  0  0  0  0  0  0  0  0  0
   -5.2420   21.6510  -32.3160 C   0  0  0  0  0  0  0  0  0  0  0  0
   -4.7352   15.4565  -31.2221 H   0  0  0  0  0  0  0  0  0  0  0  0
   -6.0630   15.1414  -32.3902 H   0  0  0  0  0  0  0  0  0  0  0  0
   -4.6004   14.0985  -32.3902 H   0  0  0  0  0  0  0  0  0  0  0  0
   -3.3416   16.3969  -32.8489 H   0  0  0  0  0  0  0  0  0  0  0  0
   -4.1522   15.5117  -34.1947 H   0  0  0  0  0  0  0  0  0  0  0  0
   -4.0274   17.5426  -35.2710 H   0  0  0  0  0  0  0  0  0  0  0  0
   -5.3711   18.7138  -35.0080 H   0  0  0  0  0  0  0  0  0  0  0  0
   -2.5664   18.8315  -34.1163 H   0  0  0  0  0  0  0  0  0  0  0  0
   -3.8161   20.1297  -34.1965 H   0  0  0  0  0  0  0  0  0  0  0  0
   -4.5560   18.5220  -32.2840 H   0  0  0  0  0  0  0  0  0  0  0  0
   -6.6917   17.0139  -34.9633 H   0  0  0  0  0  0  0  0  0  0  0  0
   -6.6593   15.7493  -33.6738 H   0  0  0  0  0  0  0  0  0  0  0  0
   -8.3763   17.9514  -33.7664 H   0  0  0  0  0  0  0  0  0  0  0  0
   -8.0044   16.9419  -32.3157 H   0  0  0  0  0  0  0  0  0  0  0  0
   -7.5550   20.1630  -33.9320 H   0  0  0  0  0  0  0  0  0  0  0  0
   -8.6281   21.9545  -32.0173 H   0  0  0  0  0  0  0  0  0  0  0  0
   -7.9463   24.0948  -30.9581 H   0  0  0  0  0  0  0  0  0  0  0  0
   -5.9773   25.4311  -28.5056 H   0  0  0  0  0  0  0  0  0  0  0  0
   -6.2685   26.7762  -29.6600 H   0  0  0  0  0  0  0  0  0  0  0  0
   -7.3507   25.3425  -29.6600 H   0  0  0  0  0  0  0  0  0  0  0  0
   -3.0847   21.5843  -30.1669 H   0  0  0  0  0  0  0  0  0  0  0  0
   -1.6450   22.3298  -30.9673 H   0  0  0  0  0  0  0  0  0  0  0  0
   -0.4954   24.1231  -30.0412 H   0  0  0  0  0  0  0  0  0  0  0  0
   -0.1264   25.7104  -28.1619 H   0  0  0  0  0  0  0  0  0  0  0  0
   -1.8229   25.9226  -26.3511 H   0  0  0  0  0  0  0  0  0  0  0  0
   -3.8744   24.5123  -26.3875 H   0  0  0  0  0  0  0  0  0  0  0  0
   -4.9021   22.4790  -27.1842 H   0  0  0  0  0  0  0  0  0  0  0  0
   -5.4254   23.2094  -28.7396 H   0  0  0  0  0  0  0  0  0  0  0  0
   -4.4199   21.7209  -28.7396 H   0  0  0  0  0  0  0  0  0  0  0  0
   -4.4836   20.9839  -32.7516 H   0  0  0  0  0  0  0  0  0  0  0  0
  1  2  1  0
  2  3  1  0
  3  4  1  0
  4  5  1  0
  5  6  1  0
  3  7  1  0
  7  8  1  0
  8  9  1  0
  9 10  2  0
  9 11  1  0
 11 12  1  0
 12 13  2  0
 13 14  1  0
 14 15  2  0
 15 16  1  0
 16 17  1  0
 16 18  2  0
 15 19  1  0
 19 20  1  0
 20 21  1  0
 21 22  1  0
 22 23  2  0
 23 24  1  0
 24 25  2  0
 25 26  1  0
 26 27  2  0
 27 28  1  0
 19 29  2  0
 29 12  1  0
 27 22  1  0
  1 30  1  0
  1 31  1  0
  1 32  1  0
  2 33  1  0
  2 34  1  0
  4 35  1  0
  4 36  1  0
  5 37  1  0
  5 38  1  0
  6 39  1  0
  7 40  1  0
  7 41  1  0
  8 42  1  0
  8 43  1  0
 11 44  1  0
 13 45  1  0
 14 46  1  0
 17 47  1  0
 17 48  1  0
 17 49  1  0
 21 50  1  0
 21 51  1  0
 23 52  1  0
 24 53  1  0
 25 54  1  0
 26 55  1  0
 28 56  1  0
 28 57  1  0
 28 58  1  0
 29 59  1  0
M  END
>  <UniqueID>  (19) 
18

>  <SMILES>  (19) 
CCN(CCO)CCC(=O)Nc1ccc(C(C)=O)c(OCc2ccccc2C)c1

>  <Energy>  (19) 
58.71159168656783

>  <Genealogy>  (19) 
CCN(CCO)CCC(=O)Nc1ccc(C(C)=O)c(OCc2ccccc2C)c1 (3D coordinates assigned)
CCN(CCO)CCC(=O)Nc1ccc(C(C)=O)c(OCc2ccccc2C)c1 (optimized conformer: 58.71159168656783 kcal/mol)

>  <smiles>  (19) 
CCN(CCO)CCC(=O)Nc1ccc(C(C)=O)c(OCc2ccccc2C)c1

>  <score_type>  (19) 
oracle

>  <origin>  (19) 
adg

>  <m_score__min__energy>  (19) 
-9.0299999999999994

>  <m_primary>  (19) 
energy

$$$$
19:0
     RDKit          3D

 52 54  0  0  0  0  0  0  0  0999 V2000
   -3.4150   24.1160  -28.3080 C   0  0  0  0  0  0  0  0  0  0  0  0
   -4.3900   24.0820  -29.4530 C   0  0  0  0  0  0  0  0  0  0  0  0
   -5.5250   24.9080  -29.4290 C   0  0  0  0  0  0  0  0  0  0  0  0
   -6.4220   24.9050  -30.4980 C   0  0  0  0  0  0  0  0  0  0  0  0
   -6.1930   24.0820  -31.6000 C   0  0  0  0  0  0  0  0  0  0  0  0
   -5.0620   23.2640  -31.6420 C   0  0  0  0  0  0  0  0  0  0  0  0
   -4.1390   23.2650  -30.5750 C   0  0  0  0  0  0  0  0  0  0  0  0
   -2.9720   22.4770  -30.5780 O   0  0  0  0  0  0  0  0  0  0  0  0
   -2.8210   21.1660  -30.0270 C   0  0  0  0  0  0  0  0  0  0  0  0
   -1.5300   20.4880  -30.5170 C   0  0  0  0  0  0  0  0  0  0  0  0
   -0.7980   21.2870  -31.5230 N   0  0  0  0  0  0  0  0  0  0  0  0
   -0.6920   20.6090  -32.8360 C   0  0  0  0  0  0  0  0  0  0  0  0
   -1.9180   20.8710  -33.7320 C   0  0  2  0  0  0  0  0  0  0  0  0
   -2.6810   21.9200  -33.1940 O   0  0  0  0  0  0  0  0  0  0  0  0
   -2.7800   19.6070  -33.8380 C   0  0  0  0  0  0  0  0  0  0  0  0
   -4.0950   19.8830  -33.3620 O   0  0  0  0  0  0  0  0  0  0  0  0
   -5.1310   18.9370  -33.2790 C   0  0  0  0  0  0  0  0  0  0  0  0
   -4.9290   17.5870  -33.6310 C   0  0  0  0  0  0  0  0  0  0  0  0
   -5.9740   16.6660  -33.5400 C   0  0  0  0  0  0  0  0  0  0  0  0
   -7.2340   17.0700  -33.1000 C   0  0  0  0  0  0  0  0  0  0  0  0
   -7.4620   18.4050  -32.7440 C   0  0  0  0  0  0  0  0  0  0  0  0
   -8.7290   18.8150  -32.2990 C   0  0  0  0  0  0  0  0  0  0  0  0
   -8.9530   20.1470  -31.9450 C   0  0  0  0  0  0  0  0  0  0  0  0
   -7.9180   21.0790  -32.0290 C   0  0  0  0  0  0  0  0  0  0  0  0
   -6.6500   20.6880  -32.4700 C   0  0  0  0  0  0  0  0  0  0  0  0
   -6.4050   19.3490  -32.8330 C   0  0  0  0  0  0  0  0  0  0  0  0
   -3.9663   24.0968  -27.3563 H   0  0  0  0  0  0  0  0  0  0  0  0
   -2.7516   23.2404  -28.3652 H   0  0  0  0  0  0  0  0  0  0  0  0
   -2.8142   25.0356  -28.3652 H   0  0  0  0  0  0  0  0  0  0  0  0
   -5.7082   25.5610  -28.5630 H   0  0  0  0  0  0  0  0  0  0  0  0
   -7.3107   25.5526  -30.4712 H   0  0  0  0  0  0  0  0  0  0  0  0
   -6.9051   24.0771  -32.4384 H   0  0  0  0  0  0  0  0  0  0  0  0
   -4.8896   22.6145  -32.5129 H   0  0  0  0  0  0  0  0  0  0  0  0
   -2.7896   21.2418  -28.9301 H   0  0  0  0  0  0  0  0  0  0  0  0
   -3.6749   20.5555  -30.3557 H   0  0  0  0  0  0  0  0  0  0  0  0
   -0.8702   20.3259  -29.6519 H   0  0  0  0  0  0  0  0  0  0  0  0
   -1.8199   19.5425  -30.9986 H   0  0  0  0  0  0  0  0  0  0  0  0
   -1.2830   22.2080  -31.6360 H   0  0  0  0  0  0  0  0  0  0  0  0
    0.1600   21.5140  -31.1720 H   0  0  0  0  0  0  0  0  0  0  0  0
    0.2076   20.9761  -33.3517 H   0  0  0  0  0  0  0  0  0  0  0  0
   -0.6364   19.5261  -32.6512 H   0  0  0  0  0  0  0  0  0  0  0  0
   -1.5700   21.1487  -34.7379 H   0  0  0  0  0  0  0  0  0  0  0  0
   -3.2800   21.5210  -32.5100 H   0  0  0  0  0  0  0  0  0  0  0  0
   -2.8311   19.2859  -34.8889 H   0  0  0  0  0  0  0  0  0  0  0  0
   -2.3319   18.8075  -33.2297 H   0  0  0  0  0  0  0  0  0  0  0  0
   -3.9396   17.2566  -33.9803 H   0  0  0  0  0  0  0  0  0  0  0  0
   -5.8025   15.6154  -33.8170 H   0  0  0  0  0  0  0  0  0  0  0  0
   -8.0518   16.3374  -33.0323 H   0  0  0  0  0  0  0  0  0  0  0  0
   -9.5482   18.0842  -32.2290 H   0  0  0  0  0  0  0  0  0  0  0  0
   -9.9483   20.4625  -31.5989 H   0  0  0  0  0  0  0  0  0  0  0  0
   -8.1005   22.1264  -31.7469 H   0  0  0  0  0  0  0  0  0  0  0  0
   -5.8399   21.4294  -32.5338 H   0  0  0  0  0  0  0  0  0  0  0  0
  1  2  1  0
  2  3  2  0
  3  4  1  0
  4  5  2  0
  5  6  1  0
  6  7  2  0
  7  8  1  0
  8  9  1  0
  9 10  1  0
 10 11  1  0
 11 12  1  0
 12 13  1  0
 13 14  1  0
 13 15  1  0
 15 16  1  0
 16 17  1  0
 17 18  2  0
 18 19  1  0
 19 20  2  0
 20 21  1  0
 21 22  2  0
 22 23  1  0
 23 24  2  0
 24 25  1  0
 25 26  2  0
  7  2  1  0
 26 17  1  0
 26 21  1  0
  1 27  1  0
  1 28  1  0
  1 29  1  0
  3 30  1  0
  4 31  1  0
  5 32  1  0
  6 33  1  0
  9 34  1  0
  9 35  1  0
 10 36  1  0
 10 37  1  0
 11 38  1  0
 11 39  1  0
 12 40  1  0
 12 41  1  0
 13 42  1  6
 14 43  1  0
 15 44  1  0
 15 45  1  0
 18 46  1  0
 19 47  1  0
 20 48  1  0
 22 49  1  0
 23 50  1  0
 24 51  1  0
 25 52  1  0
M  CHG  1  11   1
M  END
>  <UniqueID>  (20) 
19

>  <SMILES>  (20) 
Cc1ccccc1OCC[NH2+]C[C@H](O)COc1cccc2ccccc12

>  <Energy>  (20) 
57.96867087758141

>  <Genealogy>  (20) 
Cc1ccccc1OCC[NH2+]CC(O)COc1cccc2ccccc12 (protonated)
Cc1ccccc1OCC[NH2+]C[C@H](O)COc1cccc2ccccc12 (chirality)
Cc1ccccc1OCC[NH2+]C[C@H](O)COc1cccc2ccccc12 (3D coordinates assigned)
Cc1ccccc1OCC[NH2+]C[C@H](O)COc1cccc2ccccc12 (optimized conformer: 57.96867087758141 kcal/mol)

>  <smiles>  (20) 
Cc1ccccc1OCCNCC(O)COc1cccc2ccccc12

>  <score_type>  (20) 
oracle

>  <origin>  (20) 
adg

>  <m_score__min__energy>  (20) 
-7.9000000000000004

>  <m_primary>  (20) 
energy

$$$$
20:0
     RDKit          3D

 63 66  0  0  0  0  0  0  0  0999 V2000
   -5.7420   18.3260  -34.6150 C   0  0  0  0  0  0  0  0  0  0  0  0
   -6.3120   18.3060  -33.3110 O   0  0  0  0  0  0  0  0  0  0  0  0
   -7.0970   19.3370  -32.7730 C   0  0  0  0  0  0  0  0  0  0  0  0
   -8.3630   19.1020  -32.2030 C   0  0  0  0  0  0  0  0  0  0  0  0
   -9.1090   20.1650  -31.6870 C   0  0  0  0  0  0  0  0  0  0  0  0
   -8.6030   21.4650  -31.7310 C   0  0  0  0  0  0  0  0  0  0  0  0
   -7.3400   21.7130  -32.2880 C   0  0  0  0  0  0  0  0  0  0  0  0
   -6.8110   23.1210  -32.3500 C   0  0  0  0  0  0  0  0  0  0  0  0
   -6.2280   23.5030  -31.0460 N   0  0  0  0  0  0  0  0  0  0  0  0
   -6.4620   24.9200  -30.7350 C   0  0  0  0  0  0  0  0  0  0  0  0
   -5.0990   25.5390  -30.4910 C   0  0  0  0  0  0  0  0  0  0  0  0
   -4.1890   24.4280  -30.1970 N   0  0  0  0  0  0  0  0  0  0  0  0
   -4.1730   24.1440  -28.7380 C   0  0  0  0  0  0  0  0  0  0  0  0
   -2.7660   24.1590  -28.1910 C   0  0  0  0  0  0  0  0  0  0  0  0
   -1.8120   25.0350  -28.7290 C   0  0  0  0  0  0  0  0  0  0  0  0
   -0.5110   25.0570  -28.2230 C   0  0  0  0  0  0  0  0  0  0  0  0
   -0.1510   24.2060  -27.1760 C   0  0  0  0  0  0  0  0  0  0  0  0
   -1.0870   23.3230  -26.6250 C   0  0  0  0  0  0  0  0  0  0  0  0
   -0.6780   22.4900  -25.5730 O   0  0  0  0  0  0  0  0  0  0  0  0
   -0.1270   22.9560  -24.3460 C   0  0  0  0  0  0  0  0  0  0  0  0
   -2.3990   23.3010  -27.1400 C   0  0  0  0  0  0  0  0  0  0  0  0
   -4.7620   23.3380  -31.0250 C   0  0  0  0  0  0  0  0  0  0  0  0
   -4.3790   21.8990  -30.5990 C   0  0  0  0  0  0  0  0  0  0  0  0
   -2.6130   21.6150  -30.6870 S   0  0  0  0  0  0  0  0  0  0  0  0
   -2.3060   20.7680  -31.8900 O   0  0  0  0  0  0  0  0  0  0  0  0
   -1.8570   22.9090  -30.8100 O   0  0  0  0  0  0  0  0  0  0  0  0
   -2.1030   20.7810  -29.2240 C   0  0  0  0  0  0  0  0  0  0  0  0
   -3.0460   20.3810  -28.2660 C   0  0  0  0  0  0  0  0  0  0  0  0
   -2.6300   19.7330  -27.0980 C   0  0  0  0  0  0  0  0  0  0  0  0
   -1.2710   19.4880  -26.8790 C   0  0  0  0  0  0  0  0  0  0  0  0
   -0.3260   19.8930  -27.8280 C   0  0  0  0  0  0  0  0  0  0  0  0
   -0.7400   20.5390  -28.9970 C   0  0  0  0  0  0  0  0  0  0  0  0
   -6.5940   20.6430  -32.8110 C   0  0  0  0  0  0  0  0  0  0  0  0
   -4.6456   18.3645  -34.5353 H   0  0  0  0  0  0  0  0  0  0  0  0
   -6.0385   17.4169  -35.1587 H   0  0  0  0  0  0  0  0  0  0  0  0
   -6.1014   19.2121  -35.1587 H   0  0  0  0  0  0  0  0  0  0  0  0
   -8.7657   18.0791  -32.1638 H   0  0  0  0  0  0  0  0  0  0  0  0
  -10.0984   19.9766  -31.2447 H   0  0  0  0  0  0  0  0  0  0  0  0
   -9.1970   22.2982  -31.3273 H   0  0  0  0  0  0  0  0  0  0  0  0
   -6.0356   23.1844  -33.1277 H   0  0  0  0  0  0  0  0  0  0  0  0
   -7.6379   23.8059  -32.5890 H   0  0  0  0  0  0  0  0  0  0  0  0
   -6.9592   25.4174  -31.5808 H   0  0  0  0  0  0  0  0  0  0  0  0
   -7.1125   25.0316  -29.8550 H   0  0  0  0  0  0  0  0  0  0  0  0
   -4.7612   26.0812  -31.3865 H   0  0  0  0  0  0  0  0  0  0  0  0
   -5.1304   26.2603  -29.6611 H   0  0  0  0  0  0  0  0  0  0  0  0
   -4.7678   24.9091  -28.2176 H   0  0  0  0  0  0  0  0  0  0  0  0
   -4.5980   23.1426  -28.5748 H   0  0  0  0  0  0  0  0  0  0  0  0
   -2.0901   25.7079  -29.5535 H   0  0  0  0  0  0  0  0  0  0  0  0
    0.2323   25.7463  -28.6501 H   0  0  0  0  0  0  0  0  0  0  0  0
    0.8755   24.2297  -26.7814 H   0  0  0  0  0  0  0  0  0  0  0  0
   -0.6676   22.4988  -23.5042 H   0  0  0  0  0  0  0  0  0  0  0  0
    0.9362   22.6789  -24.2928 H   0  0  0  0  0  0  0  0  0  0  0  0
   -0.2238   24.0504  -24.2928 H   0  0  0  0  0  0  0  0  0  0  0  0
   -3.1406   22.6077  -26.7165 H   0  0  0  0  0  0  0  0  0  0  0  0
   -4.3209   23.4393  -32.0276 H   0  0  0  0  0  0  0  0  0  0  0  0
   -4.7130   21.7353  -29.5638 H   0  0  0  0  0  0  0  0  0  0  0  0
   -4.8685   21.1998  -31.2929 H   0  0  0  0  0  0  0  0  0  0  0  0
   -4.1153   20.5773  -28.4334 H   0  0  0  0  0  0  0  0  0  0  0  0
   -3.3728   19.4159  -26.3512 H   0  0  0  0  0  0  0  0  0  0  0  0
   -0.9449   18.9771  -25.9610 H   0  0  0  0  0  0  0  0  0  0  0  0
    0.7435   19.7031  -27.6543 H   0  0  0  0  0  0  0  0  0  0  0  0
    0.0051   20.8583  -29.7406 H   0  0  0  0  0  0  0  0  0  0  0  0
   -5.6055   20.8334  -33.2544 H   0  0  0  0  0  0  0  0  0  0  0  0
  1  2  1  0
  2  3  1  0
  3  4  2  0
  4  5  1  0
  5  6  2  0
  6  7  1  0
  7  8  1  0
  8  9  1  0
  9 10  1  0
 10 11  1  0
 11 12  1  0
 12 13  1  0
 13 14  1  0
 14 15  2  0
 15 16  1  0
 16 17  2  0
 17 18  1  0
 18 19  1  0
 19 20  1  0
 18 21  2  0
 12 22  1  0
 22 23  1  0
 23 24  1  0
 24 25  2  0
 24 26  2  0
 24 27  1  0
 27 28  2  0
 28 29  1  0
 29 30  2  0
 30 31  1  0
 31 32  2  0
  7 33  2  0
 33  3  1  0
 22  9  1  0
 32 27  1  0
 21 14  1  0
  1 34  1  0
  1 35  1  0
  1 36  1  0
  4 37  1  0
  5 38  1  0
  6 39  1  0
  8 40  1  0
  8 41  1  0
 10 42  1  0
 10 43  1  0
 11 44  1  0
 11 45  1  0
 13 46  1  0
 13 47  1  0
 15 48  1  0
 16 49  1  0
 17 50  1  0
 20 51  1  0
 20 52  1  0
 20 53  1  0
 21 54  1  0
 22 55  1  0
 23 56  1  0
 23 57  1  0
 28 58  1  0
 29 59  1  0
 30 60  1  0
 31 61  1  0
 32 62  1  0
 33 63  1  0
M  END
>  <UniqueID>  (21) 
20

>  <SMILES>  (21) 
COc1cccc(CN2CCN(Cc3cccc(OC)c3)C2CS(=O)(=O)c2ccccc2)c1

>  <Energy>  (21) 
72.12852725690605

>  <Genealogy>  (21) 
COc1cccc(CN2CCN(Cc3cccc(OC)c3)C2CS(=O)(=O)c2ccccc2)c1 (3D coordinates assigned)
COc1cccc(CN2CCN(Cc3cccc(OC)c3)C2CS(=O)(=O)c2ccccc2)c1 (nonaromatic ring conformer: 72.12852725690605 kcal/mol)

>  <smiles>  (21) 
COc1cccc(CN2CCN(Cc3cccc(OC)c3)C2CS(=O)(=O)c2ccccc2)c1

>  <score_type>  (21) 
oracle

>  <origin>  (21) 
adg

>  <m_score__min__energy>  (21) 
-9.9000000000000004

>  <m_primary>  (21) 
energy

$$$$
21:0
     RDKit          3D

 59 62  0  0  0  0  0  0  0  0999 V2000
   -2.0380   24.9950  -28.1640 C   0  0  0  0  0  0  0  0  0  0  0  0
   -2.7840   25.1760  -29.3630 O   0  0  0  0  0  0  0  0  0  0  0  0
   -4.0100   24.5520  -29.6420 C   0  0  0  0  0  0  0  0  0  0  0  0
   -5.2140   25.2810  -29.7220 C   0  0  0  0  0  0  0  0  0  0  0  0
   -6.4210   24.6260  -29.9770 C   0  0  0  0  0  0  0  0  0  0  0  0
   -6.4440   23.2430  -30.1550 C   0  0  0  0  0  0  0  0  0  0  0  0
   -5.2590   22.5090  -30.0820 C   0  0  0  0  0  0  0  0  0  0  0  0
   -4.0370   23.1540  -29.8330 C   0  0  0  0  0  0  0  0  0  0  0  0
   -2.8270   22.3790  -29.7730 N   0  0  0  0  0  0  0  0  0  0  0  0
   -1.6020   22.8660  -30.4170 C   0  0  0  0  0  0  0  0  0  0  0  0
   -0.8090   21.7200  -31.0840 C   0  0  0  0  0  0  0  0  0  0  0  0
   -1.1520   20.3640  -30.5850 N   0  0  0  0  0  0  0  0  0  0  0  0
   -2.1580   19.6870  -31.4420 C   0  0  0  0  0  0  0  0  0  0  0  0
   -2.6170   20.5740  -32.6220 C   0  0  0  0  0  0  0  0  0  0  0  0
   -4.0740   20.9240  -32.5510 N   0  0  1  0  0  0  0  0  0  0  0  0
   -4.2460   22.2940  -33.0890 C   0  0  0  0  0  0  0  0  0  0  0  0
   -5.0030   19.9830  -33.2720 C   0  0  1  0  0  0  0  0  0  0  0  0
   -4.6800   18.4650  -33.1520 C   0  0  0  0  0  0  0  0  0  0  0  0
   -6.0230   17.7260  -33.1660 C   0  0  0  0  0  0  0  0  0  0  0  0
   -6.9790   18.7670  -32.7360 C   0  0  0  0  0  0  0  0  0  0  0  0
   -8.3050   18.5580  -32.3490 C   0  0  0  0  0  0  0  0  0  0  0  0
   -9.0760   19.6600  -31.9600 C   0  0  0  0  0  0  0  0  0  0  0  0
   -8.5160   20.9470  -31.9660 C   0  0  0  0  0  0  0  0  0  0  0  0
   -7.1860   21.1390  -32.3680 C   0  0  0  0  0  0  0  0  0  0  0  0
   -6.4220   20.0270  -32.7570 C   0  0  0  0  0  0  0  0  0  0  0  0
   -1.5000   20.3930  -29.1470 C   0  0  0  0  0  0  0  0  0  0  0  0
   -2.7670   21.2170  -28.8820 C   0  0  0  0  0  0  0  0  0  0  0  0
   -2.6947   25.1543  -27.2960 H   0  0  0  0  0  0  0  0  0  0  0  0
   -1.6332   23.9726  -28.1348 H   0  0  0  0  0  0  0  0  0  0  0  0
   -1.2097   25.7182  -28.1348 H   0  0  0  0  0  0  0  0  0  0  0  0
   -5.2028   26.3721  -29.5828 H   0  0  0  0  0  0  0  0  0  0  0  0
   -7.3559   25.2025  -30.0376 H   0  0  0  0  0  0  0  0  0  0  0  0
   -7.3968   22.7302  -30.3531 H   0  0  0  0  0  0  0  0  0  0  0  0
   -5.2827   21.4180  -30.2205 H   0  0  0  0  0  0  0  0  0  0  0  0
   -1.8734   23.6051  -31.1851 H   0  0  0  0  0  0  0  0  0  0  0  0
   -0.9646   23.3165  -29.6420 H   0  0  0  0  0  0  0  0  0  0  0  0
   -1.0073   21.7487  -32.1656 H   0  0  0  0  0  0  0  0  0  0  0  0
    0.2499   21.8864  -30.8371 H   0  0  0  0  0  0  0  0  0  0  0  0
   -1.7156   18.7639  -31.8447 H   0  0  0  0  0  0  0  0  0  0  0  0
   -3.0395   19.4724  -30.8200 H   0  0  0  0  0  0  0  0  0  0  0  0
   -2.0307   21.5046  -32.6115 H   0  0  0  0  0  0  0  0  0  0  0  0
   -2.4574   20.0029  -33.5485 H   0  0  0  0  0  0  0  0  0  0  0  0
   -4.3660   20.9650  -31.5460 H   0  0  0  0  0  0  0  0  0  0  0  0
   -4.3355   23.0066  -32.2558 H   0  0  0  0  0  0  0  0  0  0  0  0
   -3.3740   22.5581  -33.7053 H   0  0  0  0  0  0  0  0  0  0  0  0
   -5.1563   22.3343  -33.7053 H   0  0  0  0  0  0  0  0  0  0  0  0
   -4.8708   20.3513  -34.3001 H   0  0  0  0  0  0  0  0  0  0  0  0
   -4.0603   18.1411  -34.0011 H   0  0  0  0  0  0  0  0  0  0  0  0
   -4.1206   18.2514  -32.2292 H   0  0  0  0  0  0  0  0  0  0  0  0
   -6.2632   17.3613  -34.1756 H   0  0  0  0  0  0  0  0  0  0  0  0
   -6.0341   16.8343  -32.5220 H   0  0  0  0  0  0  0  0  0  0  0  0
   -8.7356   17.5458  -32.3499 H   0  0  0  0  0  0  0  0  0  0  0  0
  -10.1215   19.5171  -31.6494 H   0  0  0  0  0  0  0  0  0  0  0  0
   -9.1232   21.8094  -31.6539 H   0  0  0  0  0  0  0  0  0  0  0  0
   -6.7472   22.1476  -32.3784 H   0  0  0  0  0  0  0  0  0  0  0  0
   -1.6670   19.3624  -28.8006 H   0  0  0  0  0  0  0  0  0  0  0  0
   -0.6672   20.8636  -28.6039 H   0  0  0  0  0  0  0  0  0  0  0  0
   -3.6508   20.5849  -29.0534 H   0  0  0  0  0  0  0  0  0  0  0  0
   -2.7462   21.5713  -27.8408 H   0  0  0  0  0  0  0  0  0  0  0  0
  1  2  1  0
  2  3  1  0
  3  4  2  0
  4  5  1  0
  5  6  2  0
  6  7  1  0
  7  8  2  0
  8  9  1  0
  9 10  1  0
 10 11  1  0
 11 12  1  0
 12 13  1  0
 13 14  1  0
 14 15  1  0
 15 16  1  0
 15 17  1  0
 17 18  1  0
 18 19  1  0
 19 20  1  0
 20 21  2  0
 21 22  1  0
 22 23  2  0
 23 24  1  0
 24 25  2  0
 12 26  1  0
 26 27  1  0
  8  3  1  0
 27  9  1  0
 25 17  1  0
 25 20  1  0
  1 28  1  0
  1 29  1  0
  1 30  1  0
  4 31  1  0
  5 32  1  0
  6 33  1  0
  7 34  1  0
 10 35  1  0
 10 36  1  0
 11 37  1  0
 11 38  1  0
 13 39  1  0
 13 40  1  0
 14 41  1  0
 14 42  1  0
 15 43  1  1
 16 44  1  0
 16 45  1  0
 16 46  1  0
 17 47  1  6
 18 48  1  0
 18 49  1  0
 19 50  1  0
 19 51  1  0
 21 52  1  0
 22 53  1  0
 23 54  1  0
 24 55  1  0
 26 56  1  0
 26 57  1  0
 27 58  1  0
 27 59  1  0
M  CHG  1  15   1
M  END
>  <UniqueID>  (22) 
21

>  <SMILES>  (22) 
COc1ccccc1N1CCN(CC[N@@H+](C)[C@H]2CCc3ccccc32)CC1

>  <Energy>  (22) 
100.06443164000964

>  <Genealogy>  (22) 
COc1ccccc1N1CCN(CC[NH+](C)C2CCc3ccccc32)CC1 (protonated)
COc1ccccc1N1CCN(CC[N@@H+](C)[C@H]2CCc3ccccc32)CC1 (chirality)
COc1ccccc1N1CCN(CC[N@@H+](C)[C@H]2CCc3ccccc32)CC1 (3D coordinates assigned)
COc1ccccc1N1CCN(CC[N@@H+](C)[C@H]2CCc3ccccc32)CC1 (nonaromatic ring conformer: 100.06443164000964 kcal/mol)

>  <smiles>  (22) 
COc1ccccc1N1CCN(CCN(C)C2CCc3ccccc32)CC1

>  <score_type>  (22) 
oracle

>  <origin>  (22) 
adg

>  <m_score__min__energy>  (22) 
-8.5600000000000005

>  <m_primary>  (22) 
energy

$$$$
22:0
     RDKit          3D

 36 37  0  0  0  0  0  0  0  0999 V2000
   -2.3270   24.4360  -28.9930 C   0  0  0  0  0  0  0  0  0  0  0  0
   -3.1210   24.9220  -30.0710 O   0  0  0  0  0  0  0  0  0  0  0  0
   -4.3500   24.3680  -30.4620 C   0  0  0  0  0  0  0  0  0  0  0  0
   -4.4400   23.1790  -31.2060 C   0  0  0  0  0  0  0  0  0  0  0  0
   -5.6890   22.6660  -31.5700 C   0  0  0  0  0  0  0  0  0  0  0  0
   -6.8730   23.3290  -31.1990 C   0  0  0  0  0  0  0  0  0  0  0  0
   -8.1950   22.7700  -31.5970 C   0  0  0  0  0  0  0  0  0  0  0  0
   -8.9550   23.4550  -32.3360 O   0  0  0  0  0  0  0  0  0  0  0  0
   -8.6550   21.4160  -31.1080 C   0  0  0  0  0  0  0  0  0  0  0  0
   -9.6780   20.7570  -32.0440 C   0  0  0  0  0  0  0  0  0  0  0  0
   -9.0080   19.8580  -32.9860 N   0  0  0  0  0  0  0  0  0  0  0  0
   -7.7360   19.2220  -32.7490 C   0  0  0  0  0  0  0  0  0  0  0  0
   -7.5750   18.1900  -31.8070 C   0  0  0  0  0  0  0  0  0  0  0  0
   -6.3200   17.6100  -31.6140 C   0  0  0  0  0  0  0  0  0  0  0  0
   -5.2320   18.0650  -32.3570 C   0  0  0  0  0  0  0  0  0  0  0  0
   -5.3950   19.0680  -33.2610 N   0  0  0  0  0  0  0  0  0  0  0  0
   -6.6090   19.6490  -33.4680 C   0  0  0  0  0  0  0  0  0  0  0  0
   -6.7740   24.5220  -30.4570 C   0  0  0  0  0  0  0  0  0  0  0  0
   -5.5240   25.0310  -30.0940 C   0  0  0  0  0  0  0  0  0  0  0  0
   -2.7921   24.7207  -28.0377 H   0  0  0  0  0  0  0  0  0  0  0  0
   -2.2567   23.3400  -29.0544 H   0  0  0  0  0  0  0  0  0  0  0  0
   -1.3190   24.8720  -29.0544 H   0  0  0  0  0  0  0  0  0  0  0  0
   -3.5231   22.6491  -31.5036 H   0  0  0  0  0  0  0  0  0  0  0  0
   -5.7462   21.7346  -32.1524 H   0  0  0  0  0  0  0  0  0  0  0  0
   -7.7786   20.7563  -31.0262 H   0  0  0  0  0  0  0  0  0  0  0  0
   -9.1471   21.5666  -30.1358 H   0  0  0  0  0  0  0  0  0  0  0  0
  -10.3986   20.1813  -31.4446 H   0  0  0  0  0  0  0  0  0  0  0  0
  -10.1983   21.5427  -32.6114 H   0  0  0  0  0  0  0  0  0  0  0  0
   -9.4880   19.6820  -33.8970 H   0  0  0  0  0  0  0  0  0  0  0  0
   -8.4383   17.8398  -31.2222 H   0  0  0  0  0  0  0  0  0  0  0  0
   -6.1907   16.8000  -30.8811 H   0  0  0  0  0  0  0  0  0  0  0  0
   -4.2401   17.6122  -32.2120 H   0  0  0  0  0  0  0  0  0  0  0  0
   -4.5710   19.4000  -33.8090 H   0  0  0  0  0  0  0  0  0  0  0  0
   -6.7071   20.4598  -34.2049 H   0  0  0  0  0  0  0  0  0  0  0  0
   -7.6880   25.0576  -30.1607 H   0  0  0  0  0  0  0  0  0  0  0  0
   -5.4636   25.9629  -29.5127 H   0  0  0  0  0  0  0  0  0  0  0  0
  1  2  1  0
  2  3  1  0
  3  4  2  0
  4  5  1  0
  5  6  2  0
  6  7  1  0
  7  8  2  0
  7  9  1  0
  9 10  1  0
 10 11  1  0
 11 12  1  0
 12 13  2  0
 13 14  1  0
 14 15  2  0
 15 16  1  0
 16 17  2  0
  6 18  1  0
 18 19  2  0
 19  3  1  0
 17 12  1  0
  1 20  1  0
  1 21  1  0
  1 22  1  0
  4 23  1  0
  5 24  1  0
  9 25  1  0
  9 26  1  0
 10 27  1  0
 10 28  1  0
 11 29  1  0
 13 30  1  0
 14 31  1  0
 15 32  1  0
 16 33  1  0
 17 34  1  0
 18 35  1  0
 19 36  1  0
M  CHG  1  16   1
M  END
>  <UniqueID>  (23) 
22

>  <SMILES>  (23) 
COc1ccc(C(=O)CCNc2ccc[nH+]c2)cc1

>  <Energy>  (23) 
35.792453136715736

>  <Genealogy>  (23) 
COc1ccc(C(=O)CCNc2ccc[nH+]c2)cc1 (protonated)
COc1ccc(C(=O)CCNc2ccc[nH+]c2)cc1 (3D coordinates assigned)
COc1ccc(C(=O)CCNc2ccc[nH+]c2)cc1 (optimized conformer: 35.792453136715736 kcal/mol)

>  <smiles>  (23) 
COc1ccc(C(=O)CCNc2cccnc2)cc1

>  <score_type>  (23) 
oracle

>  <origin>  (23) 
adg

>  <m_score__min__energy>  (23) 
-7.2599999999999998

>  <m_primary>  (23) 
energy

$$$$
23:0
     RDKit          3D

 53 54  0  0  0  0  0  0  0  0999 V2000
   -3.8220   20.8630  -32.2230 C   0  0  0  0  0  0  0  0  0  0  0  0
   -5.1260   21.5440  -32.6830 C   0  0  0  0  0  0  0  0  0  0  0  0
   -6.3980   21.0340  -32.0790 N   0  0  1  0  0  0  0  0  0  0  0  0
   -7.2350   22.1510  -31.5490 C   0  0  0  0  0  0  0  0  0  0  0  0
   -6.5150   23.1400  -30.5980 C   0  0  0  0  0  0  0  0  0  0  0  0
   -6.0370   24.4310  -31.2840 C   0  0  0  0  0  0  0  0  0  0  0  0
   -5.3130   25.3540  -30.3050 C   0  0  0  0  0  0  0  0  0  0  0  0
   -3.9040   25.2620  -30.4960 O   0  0  0  0  0  0  0  0  0  0  0  0
   -3.0700   24.5510  -29.6300 C   0  0  0  0  0  0  0  0  0  0  0  0
   -3.5320   23.2450  -29.0760 C   0  0  0  0  0  0  0  0  0  0  0  0
   -1.9520   25.0180  -29.2820 O   0  0  0  0  0  0  0  0  0  0  0  0
   -7.1800   20.0420  -32.9010 C   0  0  2  0  0  0  0  0  0  0  0  0
   -7.7670   18.8610  -32.0890 C   0  0  0  0  0  0  0  0  0  0  0  0
   -6.7780   17.7330  -31.7770 C   0  0  0  0  0  0  0  0  0  0  0  0
   -5.7630   17.4600  -32.8700 C   0  0  0  0  0  0  0  0  0  0  0  0
   -5.5830   18.3520  -33.9570 C   0  0  0  0  0  0  0  0  0  0  0  0
   -4.5990   18.0810  -34.9180 C   0  0  0  0  0  0  0  0  0  0  0  0
   -3.7700   16.9690  -34.7910 C   0  0  0  0  0  0  0  0  0  0  0  0
   -3.9210   16.1030  -33.7100 C   0  0  0  0  0  0  0  0  0  0  0  0
   -4.9130   16.3400  -32.7400 C   0  0  0  0  0  0  0  0  0  0  0  0
   -5.0790   15.4870  -31.6340 O   0  0  0  0  0  0  0  0  0  0  0  0
   -4.5940   14.1500  -31.5620 C   0  0  0  0  0  0  0  0  0  0  0  0
   -6.5010   19.5270  -34.1830 C   0  0  0  0  0  0  0  0  0  0  0  0
   -3.7861   20.8443  -31.1237 H   0  0  0  0  0  0  0  0  0  0  0  0
   -3.7904   19.8332  -32.6085 H   0  0  0  0  0  0  0  0  0  0  0  0
   -2.9589   21.4255  -32.6085 H   0  0  0  0  0  0  0  0  0  0  0  0
   -5.0471   22.6141  -32.4407 H   0  0  0  0  0  0  0  0  0  0  0  0
   -5.2057   21.3221  -33.7574 H   0  0  0  0  0  0  0  0  0  0  0  0
   -6.0690   20.5080  -31.2390 H   0  0  0  0  0  0  0  0  0  0  0  0
   -7.6155   22.7243  -32.4072 H   0  0  0  0  0  0  0  0  0  0  0  0
   -8.0216   21.6747  -30.9453 H   0  0  0  0  0  0  0  0  0  0  0  0
   -7.2115   23.4140  -29.7919 H   0  0  0  0  0  0  0  0  0  0  0  0
   -5.6168   22.6263  -30.2249 H   0  0  0  0  0  0  0  0  0  0  0  0
   -5.3493   24.1674  -32.1010 H   0  0  0  0  0  0  0  0  0  0  0  0
   -6.9196   24.9627  -31.6691 H   0  0  0  0  0  0  0  0  0  0  0  0
   -5.6364   26.3914  -30.4761 H   0  0  0  0  0  0  0  0  0  0  0  0
   -5.5574   25.0506  -29.2763 H   0  0  0  0  0  0  0  0  0  0  0  0
   -3.5171   23.2871  -27.9769 H   0  0  0  0  0  0  0  0  0  0  0  0
   -4.5565   23.0420  -29.4213 H   0  0  0  0  0  0  0  0  0  0  0  0
   -2.8630   22.4430  -29.4213 H   0  0  0  0  0  0  0  0  0  0  0  0
   -8.0146   20.6725  -33.2414 H   0  0  0  0  0  0  0  0  0  0  0  0
   -8.1442   19.2574  -31.1348 H   0  0  0  0  0  0  0  0  0  0  0  0
   -8.5516   18.4158  -32.7185 H   0  0  0  0  0  0  0  0  0  0  0  0
   -6.2313   18.0003  -30.8607 H   0  0  0  0  0  0  0  0  0  0  0  0
   -7.3759   16.8157  -31.6721 H   0  0  0  0  0  0  0  0  0  0  0  0
   -4.4805   18.7531  -35.7807 H   0  0  0  0  0  0  0  0  0  0  0  0
   -2.9941   16.7740  -35.5460 H   0  0  0  0  0  0  0  0  0  0  0  0
   -3.2607   15.2285  -33.6140 H   0  0  0  0  0  0  0  0  0  0  0  0
   -4.4870   13.8550  -30.5077 H   0  0  0  0  0  0  0  0  0  0  0  0
   -5.3045   13.4748  -32.0613 H   0  0  0  0  0  0  0  0  0  0  0  0
   -3.6159   14.0874  -32.0613 H   0  0  0  0  0  0  0  0  0  0  0  0
   -5.9121   20.3484  -34.6173 H   0  0  0  0  0  0  0  0  0  0  0  0
   -7.3024   19.1826  -34.8532 H   0  0  0  0  0  0  0  0  0  0  0  0
  1  2  1  0
  2  3  1  0
  3  4  1  0
  4  5  1  0
  5  6  1  0
  6  7  1  0
  7  8  1  0
  8  9  1  0
  9 10  1  0
  9 11  2  0
  3 12  1  0
 12 13  1  0
 13 14  1  0
 14 15  1  0
 15 16  2  0
 16 17  1  0
 17 18  2  0
 18 19  1  0
 19 20  2  0
 20 21  1  0
 21 22  1  0
 16 23  1  0
 23 12  1  0
 20 15  1  0
  1 24  1  0
  1 25  1  0
  1 26  1  0
  2 27  1  0
  2 28  1  0
  3 29  1  1
  4 30  1  0
  4 31  1  0
  5 32  1  0
  5 33  1  0
  6 34  1  0
  6 35  1  0
  7 36  1  0
  7 37  1  0
 10 38  1  0
 10 39  1  0
 10 40  1  0
 12 41  1  6
 13 42  1  0
 13 43  1  0
 14 44  1  0
 14 45  1  0
 17 46  1  0
 18 47  1  0
 19 48  1  0
 22 49  1  0
 22 50  1  0
 22 51  1  0
 23 52  1  0
 23 53  1  0
M  CHG  1   3   1
M  END
>  <UniqueID>  (24) 
23

>  <SMILES>  (24) 
CC[N@@H+](CCCCOC(C)=O)[C@@H]1CCc2c(cccc2OC)C1

>  <Energy>  (24) 
65.33549068427787

>  <Genealogy>  (24) 
CC[NH+](CCCCOC(C)=O)C1CCc2c(cccc2OC)C1 (protonated)
CC[N@@H+](CCCCOC(C)=O)[C@@H]1CCc2c(cccc2OC)C1 (chirality)
CC[N@@H+](CCCCOC(C)=O)[C@@H]1CCc2c(cccc2OC)C1 (3D coordinates assigned)
CC[N@@H+](CCCCOC(C)=O)[C@@H]1CCc2c(cccc2OC)C1 (nonaromatic ring conformer: 65.33549068427787 kcal/mol)

>  <smiles>  (24) 
CCN(CCCCOC(C)=O)C1CCc2c(cccc2OC)C1

>  <score_type>  (24) 
oracle

>  <origin>  (24) 
adg

>  <m_score__min__energy>  (24) 
-7.1500000000000004

>  <m_primary>  (24) 
energy

$$$$
24:0
     RDKit          3D

 24 25  0  0  0  0  0  0  0  0999 V2000
   -6.4820   23.7330  -31.9620 C   0  0  0  0  0  0  0  0  0  0  0  0
   -7.2500   22.7000  -31.1440 C   0  0  0  0  0  0  0  0  0  0  0  0
   -8.3790   22.0720  -31.9630 C   0  0  0  0  0  0  0  0  0  0  0  0
   -8.3120   20.6150  -31.8770 N   0  0  0  0  0  0  0  0  0  0  0  0
   -9.1120   19.8670  -31.1210 N   0  0  0  0  0  0  0  0  0  0  0  0
   -8.8460   18.5770  -31.3080 N   0  0  0  0  0  0  0  0  0  0  0  0
   -7.8590   18.5070  -32.2180 C   0  0  0  0  0  0  0  0  0  0  0  0
   -7.2400   17.3900  -32.7690 C   0  0  0  0  0  0  0  0  0  0  0  0
   -6.2370   17.6180  -33.7320 C   0  0  0  0  0  0  0  0  0  0  0  0
   -5.8920   18.9380  -34.1130 C   0  0  0  0  0  0  0  0  0  0  0  0
   -6.5440   20.0450  -33.5320 C   0  0  0  0  0  0  0  0  0  0  0  0
   -7.5270   19.7770  -32.5790 C   0  0  0  0  0  0  0  0  0  0  0  0
   -5.9655   24.4277  -31.2834 H   0  0  0  0  0  0  0  0  0  0  0  0
   -5.7425   23.2223  -32.5963 H   0  0  0  0  0  0  0  0  0  0  0  0
   -7.1841   24.2940  -32.5963 H   0  0  0  0  0  0  0  0  0  0  0  0
   -6.5564   21.9086  -30.8237 H   0  0  0  0  0  0  0  0  0  0  0  0
   -7.6921   23.2053  -30.2727 H   0  0  0  0  0  0  0  0  0  0  0  0
   -9.3475   22.4154  -31.5705 H   0  0  0  0  0  0  0  0  0  0  0  0
   -8.2722   22.3756  -33.0149 H   0  0  0  0  0  0  0  0  0  0  0  0
   -9.3350   17.7860  -30.8350 H   0  0  0  0  0  0  0  0  0  0  0  0
   -7.5218   16.3709  -32.4656 H   0  0  0  0  0  0  0  0  0  0  0  0
   -5.7177   16.7641  -34.1916 H   0  0  0  0  0  0  0  0  0  0  0  0
   -5.1090   19.1007  -34.8683 H   0  0  0  0  0  0  0  0  0  0  0  0
   -6.2885   21.0760  -33.8180 H   0  0  0  0  0  0  0  0  0  0  0  0
  1  2  1  0
  2  3  1  0
  3  4  1  0
  4  5  1  0
  5  6  2  0
  6  7  1  0
  7  8  2  0
  8  9  1  0
  9 10  2  0
 10 11  1  0
 11 12  2  0
 12  4  1  0
 12  7  1  0
  1 13  1  0
  1 14  1  0
  1 15  1  0
  2 16  1  0
  2 17  1  0
  3 18  1  0
  3 19  1  0
  6 20  1  0
  8 21  1  0
  9 22  1  0
 10 23  1  0
 11 24  1  0
M  CHG  1   6   1
M  END
>  <UniqueID>  (25) 
24

>  <SMILES>  (25) 
CCCn1n[nH+]c2ccccc21

>  <Energy>  (25) 
63.692688898918156

>  <Genealogy>  (25) 
CCCn1n[nH+]c2ccccc21 (protonated)
CCCn1n[nH+]c2ccccc21 (3D coordinates assigned)
CCCn1n[nH+]c2ccccc21 (optimized conformer: 63.692688898918156 kcal/mol)

>  <smiles>  (25) 
CCCn1nnc2ccccc21

>  <score_type>  (25) 
oracle

>  <origin>  (25) 
adg

>  <m_score__min__energy>  (25) 
-5.29

>  <m_primary>  (25) 
energy

$$$$
25:0
     RDKit          3D

 41 43  0  0  0  0  0  0  0  0999 V2000
   -9.4370   22.6690  -31.9700 Cl  0  0  0  0  0  0  0  0  0  0  0  0
   -8.7140   21.0700  -31.9560 C   0  0  0  0  0  0  0  0  0  0  0  0
   -7.4080   20.9010  -31.4880 C   0  0  0  0  0  0  0  0  0  0  0  0
   -6.8130   19.6360  -31.5120 C   0  0  0  0  0  0  0  0  0  0  0  0
   -7.5280   18.5240  -31.9930 C   0  0  0  0  0  0  0  0  0  0  0  0
   -6.8600   17.1680  -32.0620 C   0  0  0  0  0  0  0  0  0  0  0  0
   -5.8760   17.0410  -33.1600 N   0  0  0  0  0  0  0  0  0  0  0  0
   -4.4650   16.8740  -32.7420 C   0  0  0  0  0  0  0  0  0  0  0  0
   -3.5510   17.9850  -33.2700 C   0  0  0  0  0  0  0  0  0  0  0  0
   -4.2610   19.2720  -33.2160 N   0  0  0  0  0  0  0  0  0  0  0  0
   -3.3230   20.3900  -33.4530 C   0  0  0  0  0  0  0  0  0  0  0  0
   -3.6490   21.5560  -32.5590 C   0  0  0  0  0  0  0  0  0  0  0  0
   -4.8500   22.2630  -32.7160 C   0  0  0  0  0  0  0  0  0  0  0  0
   -5.1340   23.3350  -31.8650 C   0  0  0  0  0  0  0  0  0  0  0  0
   -4.2480   23.6900  -30.8960 N   0  0  0  0  0  0  0  0  0  0  0  0
   -3.0790   23.0200  -30.7200 C   0  0  0  0  0  0  0  0  0  0  0  0
   -2.7620   21.9350  -31.5420 C   0  0  0  0  0  0  0  0  0  0  0  0
   -5.3730   19.2880  -34.1950 C   0  0  0  0  0  0  0  0  0  0  0  0
   -6.0960   17.9250  -34.3200 C   0  0  0  0  0  0  0  0  0  0  0  0
   -8.8440   18.7020  -32.4510 C   0  0  0  0  0  0  0  0  0  0  0  0
   -9.4330   19.9700  -32.4320 C   0  0  0  0  0  0  0  0  0  0  0  0
   -6.8474   21.7644  -31.1003 H   0  0  0  0  0  0  0  0  0  0  0  0
   -5.7809   19.5096  -31.1531 H   0  0  0  0  0  0  0  0  0  0  0  0
   -6.3410   16.9884  -31.1089 H   0  0  0  0  0  0  0  0  0  0  0  0
   -7.6527   16.4304  -32.2559 H   0  0  0  0  0  0  0  0  0  0  0  0
   -4.4219   16.8768  -31.6428 H   0  0  0  0  0  0  0  0  0  0  0  0
   -4.1063   15.9234  -33.1634 H   0  0  0  0  0  0  0  0  0  0  0  0
   -2.6447   18.0400  -32.6491 H   0  0  0  0  0  0  0  0  0  0  0  0
   -3.2702   17.7649  -34.3105 H   0  0  0  0  0  0  0  0  0  0  0  0
   -2.2973   20.0512  -33.2451 H   0  0  0  0  0  0  0  0  0  0  0  0
   -3.4134   20.7116  -34.5010 H   0  0  0  0  0  0  0  0  0  0  0  0
   -5.5631   21.9761  -33.5029 H   0  0  0  0  0  0  0  0  0  0  0  0
   -6.0755   23.8923  -31.9792 H   0  0  0  0  0  0  0  0  0  0  0  0
   -2.3810   23.3321  -29.9292 H   0  0  0  0  0  0  0  0  0  0  0  0
   -1.8229   21.3823  -31.3919 H   0  0  0  0  0  0  0  0  0  0  0  0
   -6.1061   20.0448  -33.8789 H   0  0  0  0  0  0  0  0  0  0  0  0
   -4.9386   19.5187  -35.1789 H   0  0  0  0  0  0  0  0  0  0  0  0
   -7.1758   18.1100  -34.4185 H   0  0  0  0  0  0  0  0  0  0  0  0
   -5.6814   17.4152  -35.2022 H   0  0  0  0  0  0  0  0  0  0  0  0
   -9.4141   17.8394  -32.8265 H   0  0  0  0  0  0  0  0  0  0  0  0
  -10.4639   20.1020  -32.7923 H   0  0  0  0  0  0  0  0  0  0  0  0
  1  2  1  0
  2  3  2  0
  3  4  1  0
  4  5  2  0
  5  6  1  0
  6  7  1  0
  7  8  1  0
  8  9  1  0
  9 10  1  0
 10 11  1  0
 11 12  1  0
 12 13  2  0
 13 14  1  0
 14 15  2  0
 15 16  1  0
 16 17  2  0
 10 18  1  0
 18 19  1  0
  5 20  1  0
 20 21  2  0
 21  2  1  0
 19  7  1  0
 17 12  1  0
  3 22  1  0
  4 23  1  0
  6 24  1  0
  6 25  1  0
  8 26  1  0
  8 27  1  0
  9 28  1  0
  9 29  1  0
 11 30  1  0
 11 31  1  0
 13 32  1  0
 14 33  1  0
 16 34  1  0
 17 35  1  0
 18 36  1  0
 18 37  1  0
 19 38  1  0
 19 39  1  0
 20 40  1  0
 21 41  1  0
M  END
>  <UniqueID>  (26) 
25

>  <SMILES>  (26) 
Clc1ccc(CN2CCN(Cc3ccncc3)CC2)cc1

>  <Energy>  (26) 
54.95961489817133

>  <Genealogy>  (26) 
Clc1ccc(CN2CCN(Cc3ccncc3)CC2)cc1 (3D coordinates assigned)
Clc1ccc(CN2CCN(Cc3ccncc3)CC2)cc1 (nonaromatic ring conformer: 54.95961489817133 kcal/mol)

>  <smiles>  (26) 
Clc1ccc(CN2CCN(Cc3ccncc3)CC2)cc1

>  <score_type>  (26) 
oracle

>  <origin>  (26) 
adg

>  <m_score__min__energy>  (26) 
-8.3900000000000006

>  <m_primary>  (26) 
energy

$$$$
26:0
     RDKit          3D

 43 44  0  0  0  0  0  0  0  0999 V2000
   -1.2420   25.6380  -27.5580 C   0  0  0  0  0  0  0  0  0  0  0  0
   -1.6310   24.5240  -28.5170 C   0  0  0  0  0  0  0  0  0  0  0  0
   -2.3540   25.0710  -29.6160 O   0  0  0  0  0  0  0  0  0  0  0  0
   -3.5920   24.5680  -30.0310 C   0  0  0  0  0  0  0  0  0  0  0  0
   -3.7460   24.1540  -31.2140 O   0  0  0  0  0  0  0  0  0  0  0  0
   -4.7140   24.4760  -29.0260 C   0  0  2  0  0  0  0  0  0  0  0  0
   -5.0370   23.0080  -28.7100 C   0  0  0  0  0  0  0  0  0  0  0  0
   -5.7820   22.2970  -29.8610 C   0  0  0  0  0  0  0  0  0  0  0  0
   -6.6390   23.2020  -30.6710 N   0  0  1  0  0  0  0  0  0  0  0  0
   -7.9800   22.3130  -31.3490 S   0  0  0  0  0  0  0  0  0  0  0  0
   -8.9520   21.9430  -30.2620 O   0  0  0  0  0  0  0  0  0  0  0  0
   -8.6970   23.1610  -32.3620 O   0  0  0  0  0  0  0  0  0  0  0  0
   -7.3840   20.8590  -32.1460 C   0  0  0  0  0  0  0  0  0  0  0  0
   -6.1950   20.8880  -32.8890 C   0  0  0  0  0  0  0  0  0  0  0  0
   -5.7430   19.7340  -33.5370 C   0  0  0  0  0  0  0  0  0  0  0  0
   -6.4830   18.5430  -33.4610 C   0  0  0  0  0  0  0  0  0  0  0  0
   -5.9790   17.2980  -34.1270 C   0  0  0  0  0  0  0  0  0  0  0  0
   -7.6670   18.5150  -32.7070 C   0  0  0  0  0  0  0  0  0  0  0  0
   -8.1180   19.6690  -32.0610 C   0  0  0  0  0  0  0  0  0  0  0  0
   -7.1410   24.3510  -29.8950 C   0  0  0  0  0  0  0  0  0  0  0  0
   -5.9830   25.2640  -29.4450 C   0  0  0  0  0  0  0  0  0  0  0  0
   -1.3638   25.2891  -26.5219 H   0  0  0  0  0  0  0  0  0  0  0  0
   -0.1924   25.9193  -27.7291 H   0  0  0  0  0  0  0  0  0  0  0  0
   -1.8883   26.5115  -27.7291 H   0  0  0  0  0  0  0  0  0  0  0  0
   -0.7228   24.0261  -28.8876 H   0  0  0  0  0  0  0  0  0  0  0  0
   -2.2629   23.7931  -27.9912 H   0  0  0  0  0  0  0  0  0  0  0  0
   -4.3557   24.9628  -28.1070 H   0  0  0  0  0  0  0  0  0  0  0  0
   -4.0944   22.4742  -28.5190 H   0  0  0  0  0  0  0  0  0  0  0  0
   -5.6983   22.9966  -27.8310 H   0  0  0  0  0  0  0  0  0  0  0  0
   -5.0355   21.8389  -30.5264 H   0  0  0  0  0  0  0  0  0  0  0  0
   -6.4482   21.5530  -29.3998 H   0  0  0  0  0  0  0  0  0  0  0  0
   -6.0870   23.5630  -31.4830 H   0  0  0  0  0  0  0  0  0  0  0  0
   -5.6165   21.8207  -32.9623 H   0  0  0  0  0  0  0  0  0  0  0  0
   -4.8036   19.7594  -34.1088 H   0  0  0  0  0  0  0  0  0  0  0  0
   -5.6829   16.5665  -33.3607 H   0  0  0  0  0  0  0  0  0  0  0  0
   -6.7747   16.8700  -34.7545 H   0  0  0  0  0  0  0  0  0  0  0  0
   -5.1097   17.5440  -34.7545 H   0  0  0  0  0  0  0  0  0  0  0  0
   -8.2419   17.5808  -32.6245 H   0  0  0  0  0  0  0  0  0  0  0  0
   -9.0536   19.6429  -31.4831 H   0  0  0  0  0  0  0  0  0  0  0  0
   -7.8344   24.9320  -30.5208 H   0  0  0  0  0  0  0  0  0  0  0  0
   -7.6549   23.9708  -28.9998 H   0  0  0  0  0  0  0  0  0  0  0  0
   -5.7206   25.9328  -30.2779 H   0  0  0  0  0  0  0  0  0  0  0  0
   -6.3291   25.8216  -28.5622 H   0  0  0  0  0  0  0  0  0  0  0  0
  1  2  1  0
  2  3  1  0
  3  4  1  0
  4  5  2  0
  4  6  1  0
  6  7  1  0
  7  8  1  0
  8  9  1  0
  9 10  1  0
 10 11  2  0
 10 12  2  0
 10 13  1  0
 13 14  2  0
 14 15  1  0
 15 16  2  0
 16 17  1  0
 16 18  1  0
 18 19  2  0
  9 20  1  0
 20 21  1  0
 21  6  1  0
 19 13  1  0
  1 22  1  0
  1 23  1  0
  1 24  1  0
  2 25  1  0
  2 26  1  0
  6 27  1  1
  7 28  1  0
  7 29  1  0
  8 30  1  0
  8 31  1  0
  9 32  1  6
 14 33  1  0
 15 34  1  0
 17 35  1  0
 17 36  1  0
 17 37  1  0
 18 38  1  0
 19 39  1  0
 20 40  1  0
 20 41  1  0
 21 42  1  0
 21 43  1  0
M  CHG  1   9   1
M  END
>  <UniqueID>  (27) 
26

>  <SMILES>  (27) 
CCOC(=O)C1CC[NH+](S(=O)(=O)c2ccc(C)cc2)CC1

>  <Energy>  (27) 
41.76202268620223

>  <Genealogy>  (27) 
CCOC(=O)C1CC[NH+](S(=O)(=O)c2ccc(C)cc2)CC1 (protonated)
CCOC(=O)C1CC[NH+](S(=O)(=O)c2ccc(C)cc2)CC1 (3D coordinates assigned)
CCOC(=O)C1CC[NH+](S(=O)(=O)c2ccc(C)cc2)CC1 (nonaromatic ring conformer: 41.76202268620223 kcal/mol)

>  <smiles>  (27) 
CCOC(=O)C1CCN(S(=O)(=O)c2ccc(C)cc2)CC1

>  <score_type>  (27) 
oracle

>  <origin>  (27) 
adg

>  <m_score__min__energy>  (27) 
-7.4400000000000004

>  <m_primary>  (27) 
energy

$$$$
27:0
     RDKit          3D

 71 74  0  0  0  0  0  0  0  0999 V2000
   -6.4660   17.4530  -31.3540 C   0  0  0  0  0  0  0  0  0  0  0  0
   -5.3880   16.4960  -31.8740 C   0  0  0  0  0  0  0  0  0  0  0  0
   -5.1280   16.5420  -33.3410 N   0  0  0  0  0  0  0  0  0  0  0  0
   -6.3370   16.5610  -34.2090 C   0  0  0  0  0  0  0  0  0  0  0  0
   -7.1180   15.2470  -34.2960 C   0  0  0  0  0  0  0  0  0  0  0  0
   -3.9760   17.3820  -33.7780 C   0  0  0  0  0  0  0  0  0  0  0  0
   -3.8260   18.7750  -33.1210 C   0  0  0  0  0  0  0  0  0  0  0  0
   -4.8860   19.7020  -33.5270 N   0  0  0  0  0  0  0  0  0  0  0  0
   -5.3840   20.6870  -32.6090 C   0  0  0  0  0  0  0  0  0  0  0  0
   -6.7630   20.8180  -32.3460 C   0  0  0  0  0  0  0  0  0  0  0  0
   -7.7060   19.9980  -32.9990 C   0  0  0  0  0  0  0  0  0  0  0  0
   -9.0650   20.1140  -32.7160 C   0  0  0  0  0  0  0  0  0  0  0  0
   -9.5080   21.0440  -31.7800 C   0  0  0  0  0  0  0  0  0  0  0  0
   -8.5980   21.8850  -31.1390 C   0  0  0  0  0  0  0  0  0  0  0  0
   -7.2130   21.8150  -31.4240 C   0  0  0  0  0  0  0  0  0  0  0  0
   -6.3090   22.6850  -30.8340 N   0  0  0  0  0  0  0  0  0  0  0  0
   -6.7870   23.9410  -30.2290 C   0  0  0  0  0  0  0  0  0  0  0  0
   -4.9600   22.4250  -30.9540 C   0  0  0  0  0  0  0  0  0  0  0  0
   -4.5070   21.4890  -31.8840 C   0  0  0  0  0  0  0  0  0  0  0  0
   -2.8230   21.4490  -31.9170 S   0  0  0  0  0  0  0  0  0  0  0  0
   -2.6360   22.5930  -30.7070 C   0  0  0  0  0  0  0  0  0  0  0  0
   -1.4320   23.0250  -30.1570 C   0  0  0  0  0  0  0  0  0  0  0  0
   -1.4670   23.9130  -29.0640 C   0  0  0  0  0  0  0  0  0  0  0  0
   -0.3040   24.4160  -28.4560 O   0  0  0  0  0  0  0  0  0  0  0  0
    0.4220   23.7790  -27.4050 C   0  0  0  0  0  0  0  0  0  0  0  0
   -0.4720   22.7870  -26.6520 C   0  0  0  0  0  0  0  0  0  0  0  0
   -0.2060   21.3450  -27.1060 C   0  0  0  0  0  0  0  0  0  0  0  0
   -1.4130   20.7550  -27.7250 N   0  0  0  0  0  0  0  0  0  0  0  0
   -1.0640   19.9460  -28.9080 C   0  0  0  0  0  0  0  0  0  0  0  0
   -2.1170   19.9080  -26.7480 C   0  0  0  0  0  0  0  0  0  0  0  0
   -2.7100   24.3000  -28.5340 C   0  0  0  0  0  0  0  0  0  0  0  0
   -3.9140   23.8440  -29.0970 C   0  0  0  0  0  0  0  0  0  0  0  0
   -3.8780   23.0200  -30.2370 C   0  0  0  0  0  0  0  0  0  0  0  0
   -6.4608   17.4483  -30.2540 H   0  0  0  0  0  0  0  0  0  0  0  0
   -6.2593   18.4705  -31.7174 H   0  0  0  0  0  0  0  0  0  0  0  0
   -7.4518   17.1271  -31.7174 H   0  0  0  0  0  0  0  0  0  0  0  0
   -4.4470   16.7360  -31.3574 H   0  0  0  0  0  0  0  0  0  0  0  0
   -5.7665   15.4833  -31.6708 H   0  0  0  0  0  0  0  0  0  0  0  0
   -4.7580   15.5760  -33.5210 H   0  0  0  0  0  0  0  0  0  0  0  0
   -7.0181   17.3330  -33.8215 H   0  0  0  0  0  0  0  0  0  0  0  0
   -5.9696   16.7571  -35.2271 H   0  0  0  0  0  0  0  0  0  0  0  0
   -7.3351   14.8817  -33.2814 H   0  0  0  0  0  0  0  0  0  0  0  0
   -8.0620   15.4165  -34.8345 H   0  0  0  0  0  0  0  0  0  0  0  0
   -6.5179   14.4988  -34.8345 H   0  0  0  0  0  0  0  0  0  0  0  0
   -3.0560   16.8166  -33.5683 H   0  0  0  0  0  0  0  0  0  0  0  0
   -4.1642   17.5894  -34.8417 H   0  0  0  0  0  0  0  0  0  0  0  0
   -3.8609   18.6556  -32.0281 H   0  0  0  0  0  0  0  0  0  0  0  0
   -2.8658   19.1990  -33.4501 H   0  0  0  0  0  0  0  0  0  0  0  0
   -5.1020   19.8360  -34.5390 H   0  0  0  0  0  0  0  0  0  0  0  0
   -7.3651   19.2593  -33.7393 H   0  0  0  0  0  0  0  0  0  0  0  0
   -9.7901   19.4688  -33.2337 H   0  0  0  0  0  0  0  0  0  0  0  0
  -10.5801   21.1162  -31.5447 H   0  0  0  0  0  0  0  0  0  0  0  0
   -8.9624   22.6141  -30.4004 H   0  0  0  0  0  0  0  0  0  0  0  0
   -6.7545   23.8556  -29.1328 H   0  0  0  0  0  0  0  0  0  0  0  0
   -6.1422   24.7719  -30.5513 H   0  0  0  0  0  0  0  0  0  0  0  0
   -7.8210   24.1330  -30.5513 H   0  0  0  0  0  0  0  0  0  0  0  0
   -0.4720   22.6795  -30.5681 H   0  0  0  0  0  0  0  0  0  0  0  0
    1.2789   23.2390  -27.8340 H   0  0  0  0  0  0  0  0  0  0  0  0
    0.7696   24.5478  -26.6992 H   0  0  0  0  0  0  0  0  0  0  0  0
   -0.2683   22.8672  -25.5740 H   0  0  0  0  0  0  0  0  0  0  0  0
   -1.5225   23.0319  -26.8674 H   0  0  0  0  0  0  0  0  0  0  0  0
    0.6126   21.3440  -27.8408 H   0  0  0  0  0  0  0  0  0  0  0  0
    0.0668   20.7443  -26.2258 H   0  0  0  0  0  0  0  0  0  0  0  0
   -0.6478   18.9812  -28.5826 H   0  0  0  0  0  0  0  0  0  0  0  0
   -1.9667   19.7710  -29.5118 H   0  0  0  0  0  0  0  0  0  0  0  0
   -0.3173   20.4825  -29.5118 H   0  0  0  0  0  0  0  0  0  0  0  0
   -1.8524   20.2263  -25.7288 H   0  0  0  0  0  0  0  0  0  0  0  0
   -3.2030   20.0065  -26.8926 H   0  0  0  0  0  0  0  0  0  0  0  0
   -1.8216   18.8583  -26.8926 H   0  0  0  0  0  0  0  0  0  0  0  0
   -2.7408   24.9715  -27.6633 H   0  0  0  0  0  0  0  0  0  0  0  0
   -4.8777   24.1291  -28.6498 H   0  0  0  0  0  0  0  0  0  0  0  0
  1  2  1  0
  2  3  1  0
  3  4  1  0
  4  5  1  0
  3  6  1  0
  6  7  1  0
  7  8  1  0
  8  9  1  0
  9 10  2  0
 10 11  1  0
 11 12  2  0
 12 13  1  0
 13 14  2  0
 14 15  1  0
 15 16  2  0
 16 17  1  0
 16 18  1  0
 18 19  2  0
 19 20  1  0
 20 21  1  0
 21 22  2  0
 22 23  1  0
 23 24  1  0
 24 25  1  0
 25 26  1  0
 26 27  1  0
 27 28  1  0
 28 29  1  0
 28 30  1  0
 23 31  2  0
 31 32  1  0
 32 33  2  0
 19  9  1  0
 33 21  1  0
 15 10  1  0
 33 18  1  0
  1 34  1  0
  1 35  1  0
  1 36  1  0
  2 37  1  0
  2 38  1  0
  3 39  1  0
  4 40  1  0
  4 41  1  0
  5 42  1  0
  5 43  1  0
  5 44  1  0
  6 45  1  0
  6 46  1  0
  7 47  1  0
  7 48  1  0
  8 49  1  0
 11 50  1  0
 12 51  1  0
 13 52  1  0
 14 53  1  0
 17 54  1  0
 17 55  1  0
 17 56  1  0
 22 57  1  0
 25 58  1  0
 25 59  1  0
 26 60  1  0
 26 61  1  0
 27 62  1  0
 27 63  1  0
 29 64  1  0
 29 65  1  0
 29 66  1  0
 30 67  1  0
 30 68  1  0
 30 69  1  0
 31 70  1  0
 32 71  1  0
M  CHG  2   3   1  16   1
M  END
>  <UniqueID>  (28) 
27

>  <SMILES>  (28) 
CC[NH+](CC)CCNc1c2ccccc2[n+](C)c2c1sc1cc(OCCCN(C)C)ccc12

>  <Energy>  (28) 
147.52508397164547

>  <Genealogy>  (28) 
CC[NH+](CC)CCNc1c2ccccc2[n+](C)c2c1sc1cc(OCCCN(C)C)ccc12 (protonated)
CC[NH+](CC)CCNc1c2ccccc2[n+](C)c2c1sc1cc(OCCCN(C)C)ccc12 (3D coordinates assigned)
CC[NH+](CC)CCNc1c2ccccc2[n+](C)c2c1sc1cc(OCCCN(C)C)ccc12 (optimized conformer: 147.52508397164547 kcal/mol)

>  <smiles>  (28) 
CCN(CC)CCNc1c2ccccc2[n+](C)c2c1sc1cc(OCCCN(C)C)ccc12

>  <score_type>  (28) 
oracle

>  <origin>  (28) 
adg

>  <m_score__min__energy>  (28) 
-7.79

>  <m_primary>  (28) 
energy

$$$$
28:0
     RDKit          3D

 34 35  0  0  0  0  0  0  0  0999 V2000
   -3.8790   25.3010  -30.8300 O   0  0  0  0  0  0  0  0  0  0  0  0
   -4.3790   24.5520  -29.9450 C   0  0  0  0  0  0  0  0  0  0  0  0
   -5.7170   24.9360  -29.3650 C   0  0  0  0  0  0  0  0  0  0  0  0
   -7.1050   24.4530  -30.4600 S   0  0  0  0  0  0  0  0  0  0  0  0
   -6.2740   23.0630  -31.3180 C   0  0  0  0  0  0  0  0  0  0  0  0
   -7.2370   21.9550  -31.6510 C   0  0  0  0  0  0  0  0  0  0  0  0
   -8.6210   22.1930  -31.6300 C   0  0  0  0  0  0  0  0  0  0  0  0
   -9.5170   21.1600  -31.9170 C   0  0  0  0  0  0  0  0  0  0  0  0
   -9.0400   19.8830  -32.2260 C   0  0  0  0  0  0  0  0  0  0  0  0
   -7.6630   19.6380  -32.2510 C   0  0  0  0  0  0  0  0  0  0  0  0
   -7.0110   17.8930  -32.6710 Br  0  0  0  0  0  0  0  0  0  0  0  0
   -6.7630   20.6710  -31.9670 C   0  0  0  0  0  0  0  0  0  0  0  0
   -3.6330   23.4000  -29.4830 N   0  0  0  0  0  0  0  0  0  0  0  0
   -2.3960   23.0620  -30.2100 C   0  0  0  0  0  0  0  0  0  0  0  0
   -1.7580   21.7660  -29.7130 C   0  0  0  0  0  0  0  0  0  0  0  0
   -1.7800   21.7170  -28.3050 O   0  0  0  0  0  0  0  0  0  0  0  0
   -3.1110   21.5300  -27.8830 C   0  0  0  0  0  0  0  0  0  0  0  0
   -3.9820   22.7520  -28.2030 C   0  0  0  0  0  0  0  0  0  0  0  0
   -5.8400   24.4345  -28.3937 H   0  0  0  0  0  0  0  0  0  0  0  0
   -5.7373   26.0302  -29.2537 H   0  0  0  0  0  0  0  0  0  0  0  0
   -5.8257   23.4371  -32.2502 H   0  0  0  0  0  0  0  0  0  0  0  0
   -5.5051   22.6565  -30.6445 H   0  0  0  0  0  0  0  0  0  0  0  0
   -9.0009   23.1962  -31.3867 H   0  0  0  0  0  0  0  0  0  0  0  0
  -10.6000   21.3521  -31.8997 H   0  0  0  0  0  0  0  0  0  0  0  0
   -9.7474   19.0708  -32.4495 H   0  0  0  0  0  0  0  0  0  0  0  0
   -5.6805   20.4770  -31.9913 H   0  0  0  0  0  0  0  0  0  0  0  0
   -2.6344   22.9503  -31.2780 H   0  0  0  0  0  0  0  0  0  0  0  0
   -1.6756   23.8753  -30.0380 H   0  0  0  0  0  0  0  0  0  0  0  0
   -2.3184   20.9088  -30.1144 H   0  0  0  0  0  0  0  0  0  0  0  0
   -0.7133   21.7280  -30.0554 H   0  0  0  0  0  0  0  0  0  0  0  0
   -3.5278   20.6505  -28.3956 H   0  0  0  0  0  0  0  0  0  0  0  0
   -3.1090   21.3849  -26.7926 H   0  0  0  0  0  0  0  0  0  0  0  0
   -5.0325   22.4290  -28.2504 H   0  0  0  0  0  0  0  0  0  0  0  0
   -3.8106   23.4913  -27.4067 H   0  0  0  0  0  0  0  0  0  0  0  0
  1  2  2  0
  2  3  1  0
  3  4  1  0
  4  5  1  0
  5  6  1  0
  6  7  2  0
  7  8  1  0
  8  9  2  0
  9 10  1  0
 10 11  1  0
 10 12  2  0
  2 13  1  0
 13 14  1  0
 14 15  1  0
 15 16  1  0
 16 17  1  0
 17 18  1  0
 12  6  1  0
 18 13  1  0
  3 19  1  0
  3 20  1  0
  5 21  1  0
  5 22  1  0
  7 23  1  0
  8 24  1  0
  9 25  1  0
 12 26  1  0
 14 27  1  0
 14 28  1  0
 15 29  1  0
 15 30  1  0
 17 31  1  0
 17 32  1  0
 18 33  1  0
 18 34  1  0
M  END
>  <UniqueID>  (29) 
28

>  <SMILES>  (29) 
O=C(CSCc1cccc(Br)c1)N1CCOCC1

>  <Energy>  (29) 
31.702724575091256

>  <Genealogy>  (29) 
O=C(CSCc1cccc(Br)c1)N1CCOCC1 (3D coordinates assigned)
O=C(CSCc1cccc(Br)c1)N1CCOCC1 (nonaromatic ring conformer: 31.702724575091256 kcal/mol)

>  <smiles>  (29) 
O=C(CSCc1cccc(Br)c1)N1CCOCC1

>  <score_type>  (29) 
oracle

>  <origin>  (29) 
adg

>  <m_score__min__energy>  (29) 
-7.9000000000000004

>  <m_primary>  (29) 
energy

$$$$
29:0
     RDKit          3D

 44 46  0  0  0  0  0  0  0  0999 V2000
   -7.6300   23.0720  -31.5680 C   0  0  0  0  0  0  0  0  0  0  0  0
   -6.8100   22.5500  -32.6070 O   0  0  0  0  0  0  0  0  0  0  0  0
   -6.5270   21.1850  -32.7150 C   0  0  0  0  0  0  0  0  0  0  0  0
   -5.2360   20.7350  -33.0950 C   0  0  0  0  0  0  0  0  0  0  0  0
   -4.1710   21.6690  -33.3830 N   0  0  0  0  0  0  0  0  0  0  0  0
   -2.8600   20.9960  -33.4590 C   0  0  0  0  0  0  0  0  0  0  0  0
   -2.1250   20.9320  -32.1020 C   0  0  0  0  0  0  0  0  0  0  0  0
   -3.0400   21.1900  -30.8970 C   0  0  0  0  0  0  0  0  0  0  0  0
   -3.2070   22.6450  -30.6760 N   0  0  0  0  0  0  0  0  0  0  0  0
   -2.2980   23.1560  -29.6300 C   0  0  0  0  0  0  0  0  0  0  0  0
   -2.6490   24.6090  -29.2540 C   0  0  0  0  0  0  0  0  0  0  0  0
   -3.4930   25.1910  -30.2280 O   0  0  0  0  0  0  0  0  0  0  0  0
   -4.7450   24.5290  -30.2360 C   0  0  0  0  0  0  0  0  0  0  0  0
   -4.6020   22.9970  -30.3570 C   0  0  0  0  0  0  0  0  0  0  0  0
   -4.9920   19.3370  -33.1760 C   0  0  0  0  0  0  0  0  0  0  0  0
   -5.9840   18.4340  -32.9190 N   0  0  0  0  0  0  0  0  0  0  0  0
   -7.2140   18.8840  -32.5750 C   0  0  0  0  0  0  0  0  0  0  0  0
   -8.2930   18.1230  -32.3410 N   0  0  0  0  0  0  0  0  0  0  0  0
   -9.2990   18.9930  -32.0950 C   0  0  0  0  0  0  0  0  0  0  0  0
   -8.8480   20.3080  -32.1750 C   0  0  0  0  0  0  0  0  0  0  0  0
   -7.5030   20.2150  -32.4750 C   0  0  0  0  0  0  0  0  0  0  0  0
   -7.2025   22.7998  -30.5917 H   0  0  0  0  0  0  0  0  0  0  0  0
   -7.6784   24.1675  -31.6545 H   0  0  0  0  0  0  0  0  0  0  0  0
   -8.6431   22.6522  -31.6545 H   0  0  0  0  0  0  0  0  0  0  0  0
   -4.1340   22.3720  -32.6100 H   0  0  0  0  0  0  0  0  0  0  0  0
   -4.3650   22.2050  -34.2570 H   0  0  0  0  0  0  0  0  0  0  0  0
   -3.0156   19.9687  -33.8203 H   0  0  0  0  0  0  0  0  0  0  0  0
   -2.2309   21.5856  -34.1421 H   0  0  0  0  0  0  0  0  0  0  0  0
   -1.6805   19.9317  -31.9937 H   0  0  0  0  0  0  0  0  0  0  0  0
   -1.3656   21.7278  -32.1077 H   0  0  0  0  0  0  0  0  0  0  0  0
   -4.0244   20.7370  -31.0862 H   0  0  0  0  0  0  0  0  0  0  0  0
   -2.5836   20.7437  -30.0012 H   0  0  0  0  0  0  0  0  0  0  0  0
   -2.3863   22.5217  -28.7356 H   0  0  0  0  0  0  0  0  0  0  0  0
   -1.2692   23.1336  -30.0186 H   0  0  0  0  0  0  0  0  0  0  0  0
   -3.1630   24.6155  -28.2815 H   0  0  0  0  0  0  0  0  0  0  0  0
   -1.7186   25.1933  -29.1999 H   0  0  0  0  0  0  0  0  0  0  0  0
   -5.2730   24.7613  -29.2994 H   0  0  0  0  0  0  0  0  0  0  0  0
   -5.3050   24.8831  -31.1141 H   0  0  0  0  0  0  0  0  0  0  0  0
   -4.8872   22.5280  -29.4037 H   0  0  0  0  0  0  0  0  0  0  0  0
   -5.2589   22.6353  -31.1618 H   0  0  0  0  0  0  0  0  0  0  0  0
   -3.9893   18.9770  -33.4497 H   0  0  0  0  0  0  0  0  0  0  0  0
   -8.3510   17.0810  -32.3640 H   0  0  0  0  0  0  0  0  0  0  0  0
  -10.3339   18.7011  -31.8630 H   0  0  0  0  0  0  0  0  0  0  0  0
   -9.4374   21.2254  -32.0301 H   0  0  0  0  0  0  0  0  0  0  0  0
  1  2  1  0
  2  3  1  0
  3  4  2  0
  4  5  1  0
  5  6  1  0
  6  7  1  0
  7  8  1  0
  8  9  1  0
  9 10  1  0
 10 11  1  0
 11 12  1  0
 12 13  1  0
 13 14  1  0
  4 15  1  0
 15 16  2  0
 16 17  1  0
 17 18  1  0
 18 19  1  0
 19 20  2  0
 20 21  1  0
 21  3  1  0
 14  9  1  0
 21 17  2  0
  1 22  1  0
  1 23  1  0
  1 24  1  0
  5 25  1  0
  5 26  1  0
  6 27  1  0
  6 28  1  0
  7 29  1  0
  7 30  1  0
  8 31  1  0
  8 32  1  0
 10 33  1  0
 10 34  1  0
 11 35  1  0
 11 36  1  0
 13 37  1  0
 13 38  1  0
 14 39  1  0
 14 40  1  0
 15 41  1  0
 18 42  1  0
 19 43  1  0
 20 44  1  0
M  CHG  1   5   1
M  END
>  <UniqueID>  (30) 
29

>  <SMILES>  (30) 
COc1c([NH2+]CCCN2CCOCC2)cnc2[nH]ccc12

>  <Energy>  (30) 
94.3945108584789

>  <Genealogy>  (30) 
COc1c([NH2+]CCCN2CCOCC2)cnc2[nH]ccc12 (protonated)
COc1c([NH2+]CCCN2CCOCC2)cnc2[nH]ccc12 (3D coordinates assigned)
COc1c([NH2+]CCCN2CCOCC2)cnc2[nH]ccc12 (nonaromatic ring conformer: 94.3945108584789 kcal/mol)

>  <smiles>  (30) 
COc1c(NCCCN2CCOCC2)cnc2[nH]ccc12

>  <score_type>  (30) 
oracle

>  <origin>  (30) 
adg

>  <m_score__min__energy>  (30) 
-6.3300000000000001

>  <m_primary>  (30) 
energy

$$$$
30:0
     RDKit          3D

 36 39  0  0  0  0  0  0  0  0999 V2000
   -9.0980   18.5320  -31.2250 C   0  0  0  0  0  0  0  0  0  0  0  0
   -8.4670   19.1220  -32.4910 C   0  0  2  0  0  0  0  0  0  0  0  0
   -7.2770   18.2190  -32.9770 C   0  0  0  0  0  0  0  0  0  0  0  0
   -6.1040   19.0920  -33.4510 C   0  0  2  0  0  0  0  0  0  0  0  0
   -6.4910   19.8280  -34.5950 O   0  0  0  0  0  0  0  0  0  0  0  0
   -4.8040   18.4120  -33.7730 C   0  0  0  0  0  0  0  0  0  0  0  0
   -4.5580   17.2780  -34.5490 C   0  0  0  0  0  0  0  0  0  0  0  0
   -3.2230   16.9510  -34.8470 C   0  0  0  0  0  0  0  0  0  0  0  0
   -2.1690   17.7740  -34.3970 C   0  0  0  0  0  0  0  0  0  0  0  0
   -2.4430   18.9320  -33.6480 C   0  0  0  0  0  0  0  0  0  0  0  0
   -3.7760   19.2300  -33.3700 C   0  0  0  0  0  0  0  0  0  0  0  0
   -4.3620   20.2990  -32.5870 C   0  0  0  0  0  0  0  0  0  0  0  0
   -3.6950   21.1700  -31.9670 O   0  0  0  0  0  0  0  0  0  0  0  0
   -5.7500   20.0100  -32.3370 N   0  0  1  0  0  0  0  0  0  0  0  0
   -6.7610   21.0370  -32.2330 C   0  0  0  0  0  0  0  0  0  0  0  0
   -6.4690   22.4040  -32.0530 C   0  0  0  0  0  0  0  0  0  0  0  0
   -7.5080   23.3290  -31.9250 C   0  0  0  0  0  0  0  0  0  0  0  0
   -8.8380   22.9080  -31.9700 C   0  0  0  0  0  0  0  0  0  0  0  0
   -9.1410   21.5560  -32.1420 C   0  0  0  0  0  0  0  0  0  0  0  0
   -8.1140   20.6050  -32.2640 C   0  0  0  0  0  0  0  0  0  0  0  0
   -8.6232   18.9759  -30.3376 H   0  0  0  0  0  0  0  0  0  0  0  0
  -10.1752   18.7543  -31.2144 H   0  0  0  0  0  0  0  0  0  0  0  0
   -8.9484   17.4423  -31.2144 H   0  0  0  0  0  0  0  0  0  0  0  0
   -9.1870   19.1190  -33.3226 H   0  0  0  0  0  0  0  0  0  0  0  0
   -6.9421   17.5815  -32.1455 H   0  0  0  0  0  0  0  0  0  0  0  0
   -7.6204   17.5952  -33.8154 H   0  0  0  0  0  0  0  0  0  0  0  0
   -7.2300   19.3340  -35.0380 H   0  0  0  0  0  0  0  0  0  0  0  0
   -5.3870   16.6562  -34.9179 H   0  0  0  0  0  0  0  0  0  0  0  0
   -2.9992   16.0483  -35.4344 H   0  0  0  0  0  0  0  0  0  0  0  0
   -1.1280   17.5084  -34.6332 H   0  0  0  0  0  0  0  0  0  0  0  0
   -1.6305   19.5827  -33.2924 H   0  0  0  0  0  0  0  0  0  0  0  0
   -5.7590   19.4900  -31.4250 H   0  0  0  0  0  0  0  0  0  0  0  0
   -5.4231   22.7425  -32.0133 H   0  0  0  0  0  0  0  0  0  0  0  0
   -7.2766   24.3956  -31.7879 H   0  0  0  0  0  0  0  0  0  0  0  0
   -9.6498   23.6435  -31.8697 H   0  0  0  0  0  0  0  0  0  0  0  0
  -10.1917   21.2329  -32.1823 H   0  0  0  0  0  0  0  0  0  0  0  0
  1  2  1  0
  2  3  1  0
  3  4  1  0
  4  5  1  6
  4  6  1  0
  6  7  2  0
  7  8  1  0
  8  9  2  0
  9 10  1  0
 10 11  2  0
 11 12  1  0
 12 13  2  0
 12 14  1  0
 14 15  1  0
 15 16  2  0
 16 17  1  0
 17 18  2  0
 18 19  1  0
 19 20  2  0
 20  2  1  0
 14  4  1  0
 20 15  1  0
 11  6  1  0
  1 21  1  0
  1 22  1  0
  1 23  1  0
  2 24  1  6
  3 25  1  0
  3 26  1  0
  5 27  1  0
  7 28  1  0
  8 29  1  0
  9 30  1  0
 10 31  1  0
 14 32  1  1
 16 33  1  0
 17 34  1  0
 18 35  1  0
 19 36  1  0
M  CHG  1  14   1
M  END
>  <UniqueID>  (31) 
30

>  <SMILES>  (31) 
C[C@@H]1C[C@]2(O)c3ccccc3C(=O)[NH+]2c2ccccc21

>  <Energy>  (31) 
88.09751838652977

>  <Genealogy>  (31) 
CC1CC2(O)c3ccccc3C(=O)[NH+]2c2ccccc21 (protonated)
C[C@@H]1C[C@]2(O)c3ccccc3C(=O)[NH+]2c2ccccc21 (chirality)
C[C@@H]1C[C@]2(O)c3ccccc3C(=O)[NH+]2c2ccccc21 (3D coordinates assigned)
C[C@@H]1C[C@]2(O)c3ccccc3C(=O)[NH+]2c2ccccc21 (nonaromatic ring conformer: 88.09751838652977 kcal/mol)

>  <smiles>  (31) 
CC1CC2(O)c3ccccc3C(=O)N2c2ccccc21

>  <score_type>  (31) 
oracle

>  <origin>  (31) 
adg

>  <m_score__min__energy>  (31) 
-7.7400000000000002

>  <m_primary>  (31) 
energy

$$$$
31:0
     RDKit          3D

 38 39  0  0  0  0  0  0  0  0999 V2000
   -9.1460   18.3650  -31.3940 C   0  0  0  0  0  0  0  0  0  0  0  0
   -8.6310   18.8640  -32.7420 C   0  0  0  0  0  0  0  0  0  0  0  0
   -7.2590   19.3800  -32.6260 N   0  0  0  0  0  0  0  0  0  0  0  0
   -6.1420   18.5650  -33.1300 C   0  0  0  0  0  0  0  0  0  0  0  0
   -5.7910   18.9520  -34.5630 C   0  0  0  0  0  0  0  0  0  0  0  0
   -7.0160   20.6750  -32.0300 C   0  0  0  0  0  0  0  0  0  0  0  0
   -8.0130   21.6630  -32.0350 C   0  0  0  0  0  0  0  0  0  0  0  0
   -7.7740   22.9130  -31.4630 C   0  0  0  0  0  0  0  0  0  0  0  0
   -6.5380   23.2030  -30.8690 C   0  0  0  0  0  0  0  0  0  0  0  0
   -5.5130   22.2270  -30.8750 C   0  0  0  0  0  0  0  0  0  0  0  0
   -5.7740   20.9670  -31.4410 C   0  0  0  0  0  0  0  0  0  0  0  0
   -4.1580   22.4810  -30.2330 C   0  0  0  0  0  0  0  0  0  0  0  0
   -3.3190   23.6470  -30.8220 C   0  0  0  0  0  0  0  0  0  0  0  0
   -3.8080   24.9880  -30.4630 N   0  0  0  0  0  0  0  0  0  0  0  0
   -5.1420   25.2890  -31.0150 C   0  0  0  0  0  0  0  0  0  0  0  0
   -6.2930   24.5700  -30.2890 C   0  0  0  0  0  0  0  0  0  0  0  0
   -8.6121   18.8823  -30.5832 H   0  0  0  0  0  0  0  0  0  0  0  0
  -10.2234   18.5716  -31.3138 H   0  0  0  0  0  0  0  0  0  0  0  0
   -8.9735   17.2816  -31.3138 H   0  0  0  0  0  0  0  0  0  0  0  0
   -8.6423   18.0319  -33.4614 H   0  0  0  0  0  0  0  0  0  0  0  0
   -9.2836   19.6803  -33.0851 H   0  0  0  0  0  0  0  0  0  0  0  0
   -5.2625   18.7227  -32.4884 H   0  0  0  0  0  0  0  0  0  0  0  0
   -6.4431   17.5071  -33.1147 H   0  0  0  0  0  0  0  0  0  0  0  0
   -5.0520   19.7668  -34.5522 H   0  0  0  0  0  0  0  0  0  0  0  0
   -5.3686   18.0808  -35.0851 H   0  0  0  0  0  0  0  0  0  0  0  0
   -6.6992   19.2876  -35.0851 H   0  0  0  0  0  0  0  0  0  0  0  0
   -8.9901   21.4502  -32.4933 H   0  0  0  0  0  0  0  0  0  0  0  0
   -8.5636   23.6787  -31.4784 H   0  0  0  0  0  0  0  0  0  0  0  0
   -4.9909   20.1947  -31.4225 H   0  0  0  0  0  0  0  0  0  0  0  0
   -4.3282   22.6968  -29.1679 H   0  0  0  0  0  0  0  0  0  0  0  0
   -3.5694   21.5723  -30.4272 H   0  0  0  0  0  0  0  0  0  0  0  0
   -2.2865   23.5475  -30.4557 H   0  0  0  0  0  0  0  0  0  0  0  0
   -3.3945   23.5673  -31.9165 H   0  0  0  0  0  0  0  0  0  0  0  0
   -3.1160   25.7260  -30.7320 H   0  0  0  0  0  0  0  0  0  0  0  0
   -5.3104   26.3736  -30.9424 H   0  0  0  0  0  0  0  0  0  0  0  0
   -5.1462   24.9301  -32.0548 H   0  0  0  0  0  0  0  0  0  0  0  0
   -6.0357   24.4665  -29.2245 H   0  0  0  0  0  0  0  0  0  0  0  0
   -7.2079   25.1680  -30.4126 H   0  0  0  0  0  0  0  0  0  0  0  0
  1  2  1  0
  2  3  1  0
  3  4  1  0
  4  5  1  0
  3  6  1  0
  6  7  2  0
  7  8  1  0
  8  9  2  0
  9 10  1  0
 10 11  2  0
 10 12  1  0
 12 13  1  0
 13 14  1  0
 14 15  1  0
 15 16  1  0
 11  6  1  0
 16  9  1  0
  1 17  1  0
  1 18  1  0
  1 19  1  0
  2 20  1  0
  2 21  1  0
  4 22  1  0
  4 23  1  0
  5 24  1  0
  5 25  1  0
  5 26  1  0
  7 27  1  0
  8 28  1  0
 11 29  1  0
 12 30  1  0
 12 31  1  0
 13 32  1  0
 13 33  1  0
 14 34  1  0
 15 35  1  0
 15 36  1  0
 16 37  1  0
 16 38  1  0
M  END
>  <UniqueID>  (32) 
31

>  <SMILES>  (32) 
CCN(CC)c1ccc2c(c1)CCNCC2

>  <Energy>  (32) 
45.1786175937282

>  <Genealogy>  (32) 
CCN(CC)c1ccc2c(c1)CCNCC2 (3D coordinates assigned)
CCN(CC)c1ccc2c(c1)CCNCC2 (nonaromatic ring conformer: 45.1786175937282 kcal/mol)

>  <smiles>  (32) 
CCN(CC)c1ccc2c(c1)CCNCC2

>  <score_type>  (32) 
oracle

>  <origin>  (32) 
adg

>  <m_score__min__energy>  (32) 
-5.6799999999999997

>  <m_primary>  (32) 
energy

$$$$
32:0
     RDKit          3D

 48 51  0  0  0  0  0  0  0  0999 V2000
   -7.4970   23.7350  -29.2080 H   0  0  0  0  0  0  0  0  0  0  0  0
   -7.6020   23.2330  -30.0580 O   0  0  0  0  0  0  0  0  0  0  0  0
   -6.3480   22.6940  -30.3850 C   0  0  1  0  0  0  0  0  0  0  0  0
   -6.0874   21.9099  -29.6589 H   0  0  0  0  0  0  0  0  0  0  0  0
   -6.3980   22.0910  -31.7210 N   0  0  0  0  0  0  0  0  0  0  0  0
   -5.5400   21.2340  -32.1880 C   0  0  0  0  0  0  0  0  0  0  0  0
   -5.8570   19.9520  -32.4450 N   0  0  0  0  0  0  0  0  0  0  0  0
   -4.7670   19.3590  -32.9070 N   0  0  0  0  0  0  0  0  0  0  0  0
   -4.7630   17.9940  -33.3580 C   0  0  0  0  0  0  0  0  0  0  0  0
   -4.2140   17.6480  -34.6050 C   0  0  0  0  0  0  0  0  0  0  0  0
   -3.7801   18.4289  -35.2468 H   0  0  0  0  0  0  0  0  0  0  0  0
   -4.2160   16.3190  -35.0340 C   0  0  0  0  0  0  0  0  0  0  0  0
   -3.7720   16.0563  -36.0055 H   0  0  0  0  0  0  0  0  0  0  0  0
   -4.7840   15.3140  -34.2280 C   0  0  0  0  0  0  0  0  0  0  0  0
   -4.8070   13.9650  -34.6120 O   0  0  0  0  0  0  0  0  0  0  0  0
   -3.7010   13.2720  -35.1790 C   0  0  0  0  0  0  0  0  0  0  0  0
   -3.0659   12.8740  -34.3739 H   0  0  0  0  0  0  0  0  0  0  0  0
   -4.0680   12.4421  -35.8007 H   0  0  0  0  0  0  0  0  0  0  0  0
   -3.1142   13.9642  -35.8007 H   0  0  0  0  0  0  0  0  0  0  0  0
   -5.3520   15.6650  -32.9980 C   0  0  0  0  0  0  0  0  0  0  0  0
   -5.8042   14.8881  -32.3640 H   0  0  0  0  0  0  0  0  0  0  0  0
   -5.3490   16.9960  -32.5690 C   0  0  0  0  0  0  0  0  0  0  0  0
   -5.8097   17.2609  -31.6059 H   0  0  0  0  0  0  0  0  0  0  0  0
   -3.7470   20.2540  -32.9400 C   0  0  0  0  0  0  0  0  0  0  0  0
   -2.3390   19.9670  -33.2990 C   0  0  0  0  0  0  0  0  0  0  0  0
   -1.6920   18.8470  -32.7560 C   0  0  0  0  0  0  0  0  0  0  0  0
   -2.2287   18.1911  -32.0547 H   0  0  0  0  0  0  0  0  0  0  0  0
   -0.3690   18.5610  -33.1020 C   0  0  0  0  0  0  0  0  0  0  0  0
    0.1323   17.6812  -32.6723 H   0  0  0  0  0  0  0  0  0  0  0  0
    0.3190   19.3890  -33.9920 C   0  0  0  0  0  0  0  0  0  0  0  0
    1.3582   19.1538  -34.2654 H   0  0  0  0  0  0  0  0  0  0  0  0
   -0.3080   20.5200  -34.5400 C   0  0  0  0  0  0  0  0  0  0  0  0
    0.4110   21.3890  -35.5410 C   0  0  0  0  0  0  0  0  0  0  0  0
    1.7720   21.4070  -35.2890 F   0  0  0  0  0  0  0  0  0  0  0  0
   -0.0570   22.6900  -35.4770 F   0  0  0  0  0  0  0  0  0  0  0  0
    0.1950   20.8930  -36.8130 F   0  0  0  0  0  0  0  0  0  0  0  0
   -1.6500   20.7810  -34.2140 C   0  0  0  0  0  0  0  0  0  0  0  0
   -2.1670   21.6325  -34.6806 H   0  0  0  0  0  0  0  0  0  0  0  0
   -4.2100   21.4770  -32.4920 C   0  0  0  0  0  0  0  0  0  0  0  0
   -3.6535   22.4212  -32.3987 H   0  0  0  0  0  0  0  0  0  0  0  0
   -5.2940   23.7690  -30.3210 C   0  0  0  0  0  0  0  0  0  0  0  0
   -5.2920   24.9560  -31.0280 C   0  0  0  0  0  0  0  0  0  0  0  0
   -6.0878   25.2758  -31.7168 H   0  0  0  0  0  0  0  0  0  0  0  0
   -4.1800   25.6680  -30.7570 N   0  0  0  0  0  0  0  0  0  0  0  0
   -3.4840   24.9170  -29.8830 C   0  0  0  0  0  0  0  0  0  0  0  0
   -2.2610   25.3020  -29.3540 O   0  0  0  0  0  0  0  0  0  0  0  0
   -4.1270   23.7350  -29.5880 C   0  0  0  0  0  0  0  0  0  0  0  0
   -3.7836   22.9368  -28.9135 H   0  0  0  0  0  0  0  0  0  0  0  0
  1  2  1  0
  2  3  1  0
  3  4  1  1
  3  5  1  0
  5  6  2  0
  6  7  1  0
  7  8  1  0
  8  9  1  0
  9 10  2  0
 10 11  1  0
 10 12  1  0
 12 13  1  0
 12 14  2  0
 14 15  1  0
 15 16  1  0
 16 17  1  0
 16 18  1  0
 16 19  1  0
 14 20  1  0
 20 21  1  0
 20 22  2  0
 22 23  1  0
  8 24  1  0
 24 25  1  0
 25 26  2  0
 26 27  1  0
 26 28  1  0
 28 29  1  0
 28 30  2  0
 30 31  1  0
 30 32  1  0
 32 33  1  0
 33 34  1  0
 33 35  1  0
 33 36  1  0
 32 37  2  0
 37 38  1  0
 24 39  2  0
 39 40  1  0
  3 41  1  0
 41 42  2  0
 42 43  1  0
 42 44  1  0
 44 45  1  0
 45 46  1  0
 45 47  2  0
 47 48  1  0
 39  6  1  0
 47 41  1  0
 22  9  1  0
 37 25  1  0
M  CHG  3   7  -1  44  -1  46  -1
M  END
>  <UniqueID>  (33) 
32

>  <SMILES>  (33) 
COc1ccc(-n2[n-]/c(=N/[C@H](O)c3c[n-]c([O-])c3)cc2-c2cccc(C(F)(F)F)c2)cc1

>  <Energy>  (33) 
116.90717218451746

>  <Genealogy>  (33) 
COc1ccc(-n2[n-]c(=NC(O)c3c[n-]c([O-])c3)cc2-c2cccc(C(F)(F)F)c2)cc1 (protonated)
COc1ccc(-n2[n-]c(=N[C@H](O)c3c[n-]c([O-])c3)cc2-c2cccc(C(F)(F)F)c2)cc1 (chirality)
COc1ccc(-n2[n-]/c(=N/[C@H](O)c3c[n-]c([O-])c3)cc2-c2cccc(C(F)(F)F)c2)cc1 (cis-trans isomerization)
COc1ccc(-n2[n-]/c(=N/[C@H](O)c3c[n-]c([O-])c3)cc2-c2cccc(C(F)(F)F)c2)cc1 (3D coordinates assigned)
COc1ccc(-n2[n-]/c(=N/[C@H](O)c3c[n-]c([O-])c3)cc2-c2cccc(C(F)(F)F)c2)cc1 (optimized conformer: 116.90717218451746 kcal/mol)

>  <smiles>  (33) 
COc1ccc(-n2[nH]c(=NC(O)c3c[nH]c(O)c3)cc2-c2cccc(C(F)(F)F)c2)cc1

>  <score_type>  (33) 
oracle

>  <origin>  (33) 
adg

>  <m_score__min__energy>  (33) 
-11.880000000000001

>  <m_primary>  (33) 
energy

$$$$
33:0
     RDKit          3D

 47 50  0  0  0  0  0  0  0  0999 V2000
   -4.5590   13.2190  -31.2340 C   0  0  0  0  0  0  0  0  0  0  0  0
   -4.9090   14.5980  -31.2950 O   0  0  0  0  0  0  0  0  0  0  0  0
   -4.6210   15.4410  -32.3790 C   0  0  0  0  0  0  0  0  0  0  0  0
   -3.3880   15.2960  -33.0260 C   0  0  0  0  0  0  0  0  0  0  0  0
   -3.0510   16.1190  -34.1030 C   0  0  0  0  0  0  0  0  0  0  0  0
   -3.9440   17.0980  -34.5440 C   0  0  0  0  0  0  0  0  0  0  0  0
   -5.1880   17.2560  -33.9120 C   0  0  0  0  0  0  0  0  0  0  0  0
   -6.1260   18.3440  -34.3630 C   0  0  0  0  0  0  0  0  0  0  0  0
   -5.8260   19.5900  -33.6570 N   0  0  0  0  0  0  0  0  0  0  0  0
   -4.5990   20.1470  -33.5200 C   0  0  0  0  0  0  0  0  0  0  0  0
   -4.6610   21.2760  -32.7130 C   0  0  0  0  0  0  0  0  0  0  0  0
   -5.9860   21.3890  -32.3430 C   0  0  0  0  0  0  0  0  0  0  0  0
   -6.6250   22.3220  -31.5210 C   0  0  0  0  0  0  0  0  0  0  0  0
   -5.9010   23.3920  -30.9050 N   0  0  0  0  0  0  0  0  0  0  0  0
   -4.6920   23.0920  -30.1320 C   0  0  0  0  0  0  0  0  0  0  0  0
   -3.6600   24.2360  -30.2340 C   0  0  0  0  0  0  0  0  0  0  0  0
   -4.2410   25.5480  -30.5840 N   0  0  0  0  0  0  0  0  0  0  0  0
   -5.6160   25.7000  -30.0930 C   0  0  0  0  0  0  0  0  0  0  0  0
   -6.5410   24.7050  -30.8010 C   0  0  0  0  0  0  0  0  0  0  0  0
   -8.0080   22.1710  -31.3040 C   0  0  0  0  0  0  0  0  0  0  0  0
   -8.7120   21.1070  -31.9060 C   0  0  0  0  0  0  0  0  0  0  0  0
   -8.0430   20.1820  -32.7290 C   0  0  0  0  0  0  0  0  0  0  0  0
   -6.6680   20.3530  -32.9280 C   0  0  0  0  0  0  0  0  0  0  0  0
   -5.5230   16.4270  -32.8290 C   0  0  0  0  0  0  0  0  0  0  0  0
   -4.4798   12.9070  -30.1822 H   0  0  0  0  0  0  0  0  0  0  0  0
   -5.3340   12.6214  -31.7364 H   0  0  0  0  0  0  0  0  0  0  0  0
   -3.5929   13.0633  -31.7364 H   0  0  0  0  0  0  0  0  0  0  0  0
   -2.6790   14.5279  -32.6835 H   0  0  0  0  0  0  0  0  0  0  0  0
   -2.0800   15.9958  -34.6050 H   0  0  0  0  0  0  0  0  0  0  0  0
   -3.6720   17.7474  -35.3891 H   0  0  0  0  0  0  0  0  0  0  0  0
   -6.0075   18.5013  -35.4452 H   0  0  0  0  0  0  0  0  0  0  0  0
   -7.1604   18.0434  -34.1399 H   0  0  0  0  0  0  0  0  0  0  0  0
   -3.6802   19.7589  -33.9838 H   0  0  0  0  0  0  0  0  0  0  0  0
   -3.8305   21.9391  -32.4291 H   0  0  0  0  0  0  0  0  0  0  0  0
   -4.9677   22.9517  -29.0764 H   0  0  0  0  0  0  0  0  0  0  0  0
   -4.2372   22.1779  -30.5413 H   0  0  0  0  0  0  0  0  0  0  0  0
   -3.1540   24.3314  -29.2620 H   0  0  0  0  0  0  0  0  0  0  0  0
   -2.9718   23.9682  -31.0492 H   0  0  0  0  0  0  0  0  0  0  0  0
   -4.2430   25.6500  -31.6270 H   0  0  0  0  0  0  0  0  0  0  0  0
   -5.6385   25.5103  -29.0097 H   0  0  0  0  0  0  0  0  0  0  0  0
   -5.9615   26.7234  -30.3011 H   0  0  0  0  0  0  0  0  0  0  0  0
   -7.4746   24.6079  -30.2274 H   0  0  0  0  0  0  0  0  0  0  0  0
   -6.7542   25.0773  -31.8139 H   0  0  0  0  0  0  0  0  0  0  0  0
   -8.5423   22.8865  -30.6617 H   0  0  0  0  0  0  0  0  0  0  0  0
   -9.7926   20.9995  -31.7307 H   0  0  0  0  0  0  0  0  0  0  0  0
   -8.5845   19.3494  -33.2018 H   0  0  0  0  0  0  0  0  0  0  0  0
   -6.4952   16.5476  -32.3286 H   0  0  0  0  0  0  0  0  0  0  0  0
  1  2  1  0
  2  3  1  0
  3  4  2  0
  4  5  1  0
  5  6  2  0
  6  7  1  0
  7  8  1  0
  8  9  1  0
  9 10  1  0
 10 11  2  0
 11 12  1  0
 12 13  2  0
 13 14  1  0
 14 15  1  0
 15 16  1  0
 16 17  1  0
 17 18  1  0
 18 19  1  0
 13 20  1  0
 20 21  2  0
 21 22  1  0
 22 23  2  0
  7 24  2  0
 24  3  1  0
 23  9  1  0
 23 12  1  0
 19 14  1  0
  1 25  1  0
  1 26  1  0
  1 27  1  0
  4 28  1  0
  5 29  1  0
  6 30  1  0
  8 31  1  0
  8 32  1  0
 10 33  1  0
 11 34  1  0
 15 35  1  0
 15 36  1  0
 16 37  1  0
 16 38  1  0
 17 39  1  0
 18 40  1  0
 18 41  1  0
 19 42  1  0
 19 43  1  0
 20 44  1  0
 21 45  1  0
 22 46  1  0
 24 47  1  0
M  END
>  <UniqueID>  (34) 
33

>  <SMILES>  (34) 
COc1cccc(Cn2ccc3c(N4CCNCC4)cccc32)c1

>  <Energy>  (34) 
90.29936680738741

>  <Genealogy>  (34) 
COc1cccc(Cn2ccc3c(N4CCNCC4)cccc32)c1 (3D coordinates assigned)
COc1cccc(Cn2ccc3c(N4CCNCC4)cccc32)c1 (nonaromatic ring conformer: 90.29936680738741 kcal/mol)

>  <smiles>  (34) 
COc1cccc(Cn2ccc3c(N4CCNCC4)cccc32)c1

>  <score_type>  (34) 
oracle

>  <origin>  (34) 
adg

>  <m_score__min__energy>  (34) 
-8.9399999999999995

>  <m_primary>  (34) 
energy

$$$$
34:0
     RDKit          3D

 37 38  0  0  0  0  0  0  0  0999 V2000
   -5.4560   24.0340  -29.3440 C   0  0  0  0  0  0  0  0  0  0  0  0
   -4.3450   23.9500  -30.3460 C   0  0  0  0  0  0  0  0  0  0  0  0
   -3.8700   25.0250  -30.8050 O   0  0  0  0  0  0  0  0  0  0  0  0
   -3.8160   22.6840  -30.7980 N   0  0  0  0  0  0  0  0  0  0  0  0
   -2.9300   22.6650  -31.9740 C   0  0  0  0  0  0  0  0  0  0  0  0
   -2.7870   21.2490  -32.5560 C   0  0  0  0  0  0  0  0  0  0  0  0
   -4.1140   20.4790  -32.4340 C   0  0  0  0  0  0  0  0  0  0  0  0
   -5.1950   21.1950  -33.1350 N   0  0  0  0  0  0  0  0  0  0  0  0
   -6.5610   21.2340  -32.6740 C   0  0  0  0  0  0  0  0  0  0  0  0
   -7.1100   22.4230  -32.1550 C   0  0  0  0  0  0  0  0  0  0  0  0
   -8.4380   22.4660  -31.7260 C   0  0  0  0  0  0  0  0  0  0  0  0
   -9.2390   21.3290  -31.8110 C   0  0  0  0  0  0  0  0  0  0  0  0
   -8.7150   20.1420  -32.3230 C   0  0  0  0  0  0  0  0  0  0  0  0
   -7.3770   20.0760  -32.7510 C   0  0  0  0  0  0  0  0  0  0  0  0
   -6.8420   18.7740  -33.2840 C   0  0  0  0  0  0  0  0  0  0  0  0
   -4.4690   20.2780  -30.9410 C   0  0  0  0  0  0  0  0  0  0  0  0
   -4.0100   21.4390  -30.0330 C   0  0  0  0  0  0  0  0  0  0  0  0
   -5.0363   24.0023  -28.3277 H   0  0  0  0  0  0  0  0  0  0  0  0
   -6.0059   24.9763  -29.4844 H   0  0  0  0  0  0  0  0  0  0  0  0
   -6.1413   23.1851  -29.4844 H   0  0  0  0  0  0  0  0  0  0  0  0
   -3.3485   23.3272  -32.7463 H   0  0  0  0  0  0  0  0  0  0  0  0
   -1.9337   23.0079  -31.6581 H   0  0  0  0  0  0  0  0  0  0  0  0
   -2.5063   21.3205  -33.6172 H   0  0  0  0  0  0  0  0  0  0  0  0
   -2.0103   20.7102  -31.9935 H   0  0  0  0  0  0  0  0  0  0  0  0
   -3.9981   19.4923  -32.9062 H   0  0  0  0  0  0  0  0  0  0  0  0
   -4.9750   21.6350  -34.0560 H   0  0  0  0  0  0  0  0  0  0  0  0
   -6.4863   23.3265  -32.0870 H   0  0  0  0  0  0  0  0  0  0  0  0
   -8.8531   23.4002  -31.3197 H   0  0  0  0  0  0  0  0  0  0  0  0
  -10.2854   21.3675  -31.4741 H   0  0  0  0  0  0  0  0  0  0  0  0
   -9.3541   19.2494  -32.3926 H   0  0  0  0  0  0  0  0  0  0  0  0
   -6.5721   18.1171  -32.4440 H   0  0  0  0  0  0  0  0  0  0  0  0
   -7.6122   18.2853  -33.8988 H   0  0  0  0  0  0  0  0  0  0  0  0
   -5.9507   18.9680  -33.8988 H   0  0  0  0  0  0  0  0  0  0  0  0
   -5.5611   20.1796  -30.8538 H   0  0  0  0  0  0  0  0  0  0  0  0
   -3.9384   19.3758  -30.6027 H   0  0  0  0  0  0  0  0  0  0  0  0
   -4.7736   21.6106  -29.2600 H   0  0  0  0  0  0  0  0  0  0  0  0
   -3.0470   21.1607  -29.5801 H   0  0  0  0  0  0  0  0  0  0  0  0
  1  2  1  0
  2  3  2  0
  2  4  1  0
  4  5  1  0
  5  6  1  0
  6  7  1  0
  7  8  1  0
  8  9  1  0
  9 10  2  0
 10 11  1  0
 11 12  2  0
 12 13  1  0
 13 14  2  0
 14 15  1  0
  7 16  1  0
 16 17  1  0
 17  4  1  0
 14  9  1  0
  1 18  1  0
  1 19  1  0
  1 20  1  0
  5 21  1  0
  5 22  1  0
  6 23  1  0
  6 24  1  0
  7 25  1  0
  8 26  1  0
 10 27  1  0
 11 28  1  0
 12 29  1  0
 13 30  1  0
 15 31  1  0
 15 32  1  0
 15 33  1  0
 16 34  1  0
 16 35  1  0
 17 36  1  0
 17 37  1  0
M  END
>  <UniqueID>  (35) 
34

>  <SMILES>  (35) 
CC(=O)N1CCC(Nc2ccccc2C)CC1

>  <Energy>  (35) 
39.84678937845816

>  <Genealogy>  (35) 
CC(=O)N1CCC(Nc2ccccc2C)CC1 (3D coordinates assigned)
CC(=O)N1CCC(Nc2ccccc2C)CC1 (nonaromatic ring conformer: 39.84678937845816 kcal/mol)

>  <smiles>  (35) 
CC(=O)N1CCC(Nc2ccccc2C)CC1

>  <score_type>  (35) 
oracle

>  <origin>  (35) 
adg

>  <m_score__min__energy>  (35) 
-6.8600000000000003

>  <m_primary>  (35) 
energy

$$$$
35:0
     RDKit          3D

 37 38  0  0  0  0  0  0  0  0999 V2000
   -5.4904   26.7311  -30.7962 H   0  0  0  0  0  0  0  0  0  0  0  0
   -5.2120   25.6670  -30.8130 C   0  0  0  0  0  0  0  0  0  0  0  0
   -3.9570   25.2900  -30.4660 N   0  0  0  0  0  0  0  0  0  0  0  0
   -3.5890   23.9780  -30.4800 C   0  0  0  0  0  0  0  0  0  0  0  0
   -2.3870   23.6150  -30.1450 N   0  0  0  0  0  0  0  0  0  0  0  0
   -1.9420   23.3640  -28.7740 C   0  0  0  0  0  0  0  0  0  0  0  0
   -0.8424   23.3647  -28.7446 H   0  0  0  0  0  0  0  0  0  0  0  0
   -2.3299   22.3878  -28.4476 H   0  0  0  0  0  0  0  0  0  0  0  0
   -2.4720   24.4480  -27.8300 C   0  0  0  0  0  0  0  0  0  0  0  0
   -2.5205   24.0452  -26.8075 H   0  0  0  0  0  0  0  0  0  0  0  0
   -3.4741   24.7528  -28.1659 H   0  0  0  0  0  0  0  0  0  0  0  0
   -1.5660   25.6520  -27.8460 C   0  0  0  0  0  0  0  0  0  0  0  0
   -1.2030   26.1060  -28.9660 O   0  0  0  0  0  0  0  0  0  0  0  0
   -1.0670   26.2570  -26.6320 N   0  0  0  0  0  0  0  0  0  0  0  0
   -0.0810   27.3380  -26.7320 C   0  0  0  0  0  0  0  0  0  0  0  0
    0.2132   27.6605  -25.7223 H   0  0  0  0  0  0  0  0  0  0  0  0
    0.8053   26.9769  -27.2743 H   0  0  0  0  0  0  0  0  0  0  0  0
   -0.5219   28.1874  -27.2743 H   0  0  0  0  0  0  0  0  0  0  0  0
   -1.5400   25.8170  -25.3150 C   0  0  0  0  0  0  0  0  0  0  0  0
   -0.9765   26.3412  -24.5291 H   0  0  0  0  0  0  0  0  0  0  0  0
   -2.6108   26.0475  -25.2142 H   0  0  0  0  0  0  0  0  0  0  0  0
   -1.3874   24.7323  -25.2142 H   0  0  0  0  0  0  0  0  0  0  0  0
   -4.4930   23.0320  -30.8460 N   0  0  0  0  0  0  0  0  0  0  0  0
   -5.7640   23.3580  -31.2100 C   0  0  0  0  0  0  0  0  0  0  0  0
   -6.7110   22.2790  -31.5970 C   0  0  0  0  0  0  0  0  0  0  0  0
   -8.0710   22.3280  -31.2310 C   0  0  0  0  0  0  0  0  0  0  0  0
   -8.4480   23.1766  -30.6413 H   0  0  0  0  0  0  0  0  0  0  0  0
   -8.9450   21.3040  -31.6130 C   0  0  0  0  0  0  0  0  0  0  0  0
  -10.0040   21.3485  -31.3187 H   0  0  0  0  0  0  0  0  0  0  0  0
   -8.4770   20.2270  -32.3660 C   0  0  0  0  0  0  0  0  0  0  0  0
   -9.1658   19.4218  -32.6613 H   0  0  0  0  0  0  0  0  0  0  0  0
   -7.1340   20.1710  -32.7450 C   0  0  0  0  0  0  0  0  0  0  0  0
   -6.7666   19.3230  -33.3416 H   0  0  0  0  0  0  0  0  0  0  0  0
   -6.2550   21.1920  -32.3670 C   0  0  0  0  0  0  0  0  0  0  0  0
   -5.1997   21.1450  -32.6738 H   0  0  0  0  0  0  0  0  0  0  0  0
   -6.1500   24.7080  -31.1910 C   0  0  0  0  0  0  0  0  0  0  0  0
   -7.1726   25.0028  -31.4690 H   0  0  0  0  0  0  0  0  0  0  0  0
  1  2  1  0
  2  3  1  0
  3  4  1  0
  4  5  2  0
  5  6  1  0
  6  7  1  0
  6  8  1  0
  6  9  1  0
  9 10  1  0
  9 11  1  0
  9 12  1  0
 12 13  2  0
 12 14  1  0
 14 15  1  0
 15 16  1  0
 15 17  1  0
 15 18  1  0
 14 19  1  0
 19 20  1  0
 19 21  1  0
 19 22  1  0
  4 23  1  0
 23 24  2  0
 24 25  1  0
 25 26  2  0
 26 27  1  0
 26 28  1  0
 28 29  1  0
 28 30  2  0
 30 31  1  0
 30 32  1  0
 32 33  1  0
 32 34  2  0
 34 35  1  0
 24 36  1  0
 36 37  1  0
 36  2  2  0
 34 25  1  0
M  CHG  1   3  -1
M  END
>  <UniqueID>  (36) 
35

>  <SMILES>  (36) 
CN(C)C(=O)CC/N=c1/nc(-c2ccccc2)cc[n-]1

>  <Energy>  (36) 
36.325362773278876

>  <Genealogy>  (36) 
CN(C)C(=O)CCN=c1nc(-c2ccccc2)cc[n-]1 (protonated)
CN(C)C(=O)CC/N=c1/nc(-c2ccccc2)cc[n-]1 (cis-trans isomerization)
CN(C)C(=O)CC/N=c1/nc(-c2ccccc2)cc[n-]1 (3D coordinates assigned)
CN(C)C(=O)CC/N=c1/nc(-c2ccccc2)cc[n-]1 (optimized conformer: 36.325362773278876 kcal/mol)

>  <smiles>  (36) 
CN(C)C(=O)CCN=c1nc(-c2ccccc2)cc[nH]1

>  <score_type>  (36) 
oracle

>  <origin>  (36) 
adg

>  <m_score__min__energy>  (36) 
-8.9000000000000004

>  <m_primary>  (36) 
energy

$$$$
36:0
     RDKit          2D

 37 40  0  0  0  0  0  0  0  0999 V2000
    3.7500   -1.2990    0.0000 C   0  0  0  0  0  0  0  0  0  0  0  0
    3.0000    0.0000    0.0000 O   0  0  0  0  0  0  0  0  0  0  0  0
    1.5000    0.0000    0.0000 C   0  0  0  0  0  0  0  0  0  0  0  0
    0.7500   -1.2990    0.0000 C   0  0  0  0  0  0  0  0  0  0  0  0
   -0.7500   -1.2990    0.0000 C   0  0  0  0  0  0  0  0  0  0  0  0
   -1.5000    0.0000    0.0000 C   0  0  0  0  0  0  0  0  0  0  0  0
   -0.7500    1.2990    0.0000 C   0  0  0  0  0  0  0  0  0  0  0  0
   -1.5000    2.5981    0.0000 C   0  0  0  0  0  0  0  0  0  0  0  0
   -3.0000    2.5981    0.0000 C   0  0  0  0  0  0  0  0  0  0  0  0
   -3.7500    1.2990    0.0000 C   0  0  0  0  0  0  0  0  0  0  0  0
   -5.2500    1.2990    0.0000 C   0  0  0  0  0  0  0  0  0  0  0  0
   -6.0000   -0.0000    0.0000 C   0  0  0  0  0  0  0  0  0  0  0  0
   -5.2500   -1.2990    0.0000 C   0  0  0  0  0  0  0  0  0  0  0  0
   -6.0000   -2.5981    0.0000 C   0  0  0  0  0  0  0  0  0  0  0  0
   -5.2500   -3.8971    0.0000 C   0  0  0  0  0  0  0  0  0  0  0  0
   -3.7500   -3.8971    0.0000 C   0  0  0  0  0  0  0  0  0  0  0  0
   -3.0000   -2.5981    0.0000 N   0  0  0  0  0  0  0  0  0  0  0  0
   -1.5000   -2.5981    0.0000 C   0  0  0  0  0  0  0  0  0  0  0  0
   -3.7500   -1.2990    0.0000 C   0  0  0  0  0  0  0  0  0  0  0  0
   -3.0000    0.0000    0.0000 C   0  0  0  0  0  0  0  0  0  0  0  0
    0.7500    1.2990    0.0000 C   0  0  0  0  0  0  0  0  0  0  0  0
    4.5000   -2.5981    0.0000 H   0  0  0  0  0  0  0  0  0  0  0  0
    5.0490   -0.5490    0.0000 H   0  0  0  0  0  0  0  0  0  0  0  0
    2.4510   -2.0490    0.0000 H   0  0  0  0  0  0  0  0  0  0  0  0
    1.5000   -2.5981    0.0000 H   0  0  0  0  0  0  0  0  0  0  0  0
   -0.9697   -2.0653    0.0000 H   0  0  0  0  0  0  0  0  0  0  0  0
   -0.7500    3.8971    0.0000 H   0  0  0  0  0  0  0  0  0  0  0  0
   -3.7500    3.8971    0.0000 H   0  0  0  0  0  0  0  0  0  0  0  0
   -6.0000    2.5981    0.0000 H   0  0  0  0  0  0  0  0  0  0  0  0
   -7.5000   -0.0000    0.0000 H   0  0  0  0  0  0  0  0  0  0  0  0
   -7.5000   -2.5981    0.0000 H   0  0  0  0  0  0  0  0  0  0  0  0
   -6.0000   -5.1962    0.0000 H   0  0  0  0  0  0  0  0  0  0  0  0
   -3.0000   -5.1962    0.0000 H   0  0  0  0  0  0  0  0  0  0  0  0
   -0.0000   -2.5981    0.0000 H   0  0  0  0  0  0  0  0  0  0  0  0
   -1.5000   -4.0981    0.0000 H   0  0  0  0  0  0  0  0  0  0  0  0
   -1.8630   -1.1427    0.0000 H   0  0  0  0  0  0  0  0  0  0  0  0
    1.5000    2.5981    0.0000 H   0  0  0  0  0  0  0  0  0  0  0  0
  1  2  1  0
  2  3  1  0
  3  4  2  0
  4  5  1  0
  5  6  2  0
  6  7  1  0
  7  8  1  0
  8  9  2  0
  9 10  1  0
 10 11  2  0
 11 12  1  0
 12 13  2  0
 13 14  1  0
 14 15  2  0
 15 16  1  0
 16 17  2  0
 17 18  1  0
 17 19  1  0
 19 20  2  0
  7 21  2  0
 21  3  1  0
 20  6  1  0
 20 10  1  0
 19 13  1  0
  1 22  1  0
  1 23  1  0
  1 24  1  0
  4 25  1  0
  5 26  1  0
  8 27  1  0
  9 28  1  0
 11 29  1  0
 12 30  1  0
 14 31  1  0
 15 32  1  0
 16 33  1  0
 18 34  1  0
 18 35  1  0
 18 36  1  0
 21 37  1  0
M  CHG  1  17   1
M  END
>  <smiles>  (37) 
COc1ccc2c(ccc3ccc4ccc[n+](C)c4c32)c1

>  <m_score__min__energy>  (37) 
nan

>  <m_primary>  (37) 
energy

$$$$
37:0
     RDKit          3D

 48 50  0  0  0  0  0  0  0  0999 V2000
   -3.8400   25.2590  -30.6590 N   0  0  0  0  0  0  0  0  0  0  0  0
   -5.0720   24.6800  -30.1290 C   0  0  0  0  0  0  0  0  0  0  0  0
   -6.2290   24.8170  -31.1320 C   0  0  0  0  0  0  0  0  0  0  0  0
   -6.4090   23.5660  -32.0110 C   0  0  0  0  0  0  0  0  0  0  0  0
   -7.8740   23.1710  -32.2890 C   0  0  0  0  0  0  0  0  0  0  0  0
   -8.5330   22.2990  -31.2030 C   0  0  0  0  0  0  0  0  0  0  0  0
   -9.4490   21.1720  -31.7300 C   0  0  0  0  0  0  0  0  0  0  0  0
   -9.0310   19.8160  -31.3360 N   0  0  0  0  0  0  0  0  0  0  0  0
   -8.7690   18.9470  -32.4890 C   0  0  0  0  0  0  0  0  0  0  0  0
   -7.2980   18.9580  -32.7970 C   0  0  0  0  0  0  0  0  0  0  0  0
   -6.6740   17.8040  -33.3260 C   0  0  0  0  0  0  0  0  0  0  0  0
   -5.3090   17.8160  -33.6540 C   0  0  0  0  0  0  0  0  0  0  0  0
   -4.5940   18.9970  -33.4540 C   0  0  0  0  0  0  0  0  0  0  0  0
   -5.1940   20.1360  -32.9530 C   0  0  0  0  0  0  0  0  0  0  0  0
   -6.5500   20.1420  -32.6230 C   0  0  0  0  0  0  0  0  0  0  0  0
   -4.2200   21.2720  -32.8440 C   0  0  0  0  0  0  0  0  0  0  0  0
   -2.9720   20.6130  -33.3570 C   0  0  0  0  0  0  0  0  0  0  0  0
   -1.7040   21.1780  -33.4980 C   0  0  0  0  0  0  0  0  0  0  0  0
   -0.6640   20.3790  -34.0030 C   0  0  0  0  0  0  0  0  0  0  0  0
   -0.9040   19.0360  -34.3580 C   0  0  0  0  0  0  0  0  0  0  0  0
   -2.1850   18.4810  -34.2110 C   0  0  0  0  0  0  0  0  0  0  0  0
   -3.2010   19.2950  -33.7070 C   0  0  0  0  0  0  0  0  0  0  0  0
   -4.0410   25.6820  -31.5950 H   0  0  0  0  0  0  0  0  0  0  0  0
   -3.5260   26.0280  -30.0230 H   0  0  0  0  0  0  0  0  0  0  0  0
   -4.9050   23.6135  -29.9178 H   0  0  0  0  0  0  0  0  0  0  0  0
   -5.3428   25.2204  -29.2100 H   0  0  0  0  0  0  0  0  0  0  0  0
   -7.1602   24.9902  -30.5726 H   0  0  0  0  0  0  0  0  0  0  0  0
   -5.9906   25.6585  -31.7991 H   0  0  0  0  0  0  0  0  0  0  0  0
   -5.9168   23.7536  -32.9767 H   0  0  0  0  0  0  0  0  0  0  0  0
   -5.9657   22.7297  -31.4506 H   0  0  0  0  0  0  0  0  0  0  0  0
   -8.4630   24.0947  -32.3883 H   0  0  0  0  0  0  0  0  0  0  0  0
   -7.8585   22.5609  -33.2042 H   0  0  0  0  0  0  0  0  0  0  0  0
   -7.7330   21.8362  -30.6064 H   0  0  0  0  0  0  0  0  0  0  0  0
   -9.1808   22.9724  -30.6226 H   0  0  0  0  0  0  0  0  0  0  0  0
  -10.4645   21.3450  -31.3442 H   0  0  0  0  0  0  0  0  0  0  0  0
   -9.3958   21.2110  -32.8280 H   0  0  0  0  0  0  0  0  0  0  0  0
   -8.1810   19.8620  -30.7290 H   0  0  0  0  0  0  0  0  0  0  0  0
   -9.0875   17.9205  -32.2550 H   0  0  0  0  0  0  0  0  0  0  0  0
   -9.3302   19.3137  -33.3611 H   0  0  0  0  0  0  0  0  0  0  0  0
   -7.2638   16.8886  -33.4818 H   0  0  0  0  0  0  0  0  0  0  0  0
   -4.8168   16.9188  -34.0576 H   0  0  0  0  0  0  0  0  0  0  0  0
   -7.0274   21.0535  -32.2341 H   0  0  0  0  0  0  0  0  0  0  0  0
   -4.5175   22.1237  -33.4733 H   0  0  0  0  0  0  0  0  0  0  0  0
   -4.1295   21.7029  -31.8360 H   0  0  0  0  0  0  0  0  0  0  0  0
   -1.5223   22.2266  -33.2198 H   0  0  0  0  0  0  0  0  0  0  0  0
    0.3435   20.8042  -34.1220 H   0  0  0  0  0  0  0  0  0  0  0  0
   -0.0828   18.4195  -34.7524 H   0  0  0  0  0  0  0  0  0  0  0  0
   -2.3827   17.4342  -34.4852 H   0  0  0  0  0  0  0  0  0  0  0  0
  1  2  1  0
  2  3  1  0
  3  4  1  0
  4  5  1  0
  5  6  1  0
  6  7  1  0
  7  8  1  0
  8  9  1  0
  9 10  1  0
 10 11  2  0
 11 12  1  0
 12 13  2  0
 13 14  1  0
 14 15  2  0
 14 16  1  0
 16 17  1  0
 17 18  2  0
 18 19  1  0
 19 20  2  0
 20 21  1  0
 21 22  2  0
 15 10  1  0
 22 17  1  0
 22 13  1  0
  1 23  1  0
  1 24  1  0
  2 25  1  0
  2 26  1  0
  3 27  1  0
  3 28  1  0
  4 29  1  0
  4 30  1  0
  5 31  1  0
  5 32  1  0
  6 33  1  0
  6 34  1  0
  7 35  1  0
  7 36  1  0
  8 37  1  0
  9 38  1  0
  9 39  1  0
 11 40  1  0
 12 41  1  0
 15 42  1  0
 16 43  1  0
 16 44  1  0
 18 45  1  0
 19 46  1  0
 20 47  1  0
 21 48  1  0
M  END
>  <UniqueID>  (38) 
36

>  <SMILES>  (38) 
NCCCCCCNCc1ccc2c(c1)Cc1ccccc1-2

>  <Energy>  (38) 
64.46858392966087

>  <Genealogy>  (38) 
NCCCCCCNCc1ccc2c(c1)Cc1ccccc1-2 (3D coordinates assigned)
NCCCCCCNCc1ccc2c(c1)Cc1ccccc1-2 (nonaromatic ring conformer: 64.46858392966087 kcal/mol)

>  <smiles>  (38) 
NCCCCCCNCc1ccc2c(c1)Cc1ccccc1-2

>  <score_type>  (38) 
oracle

>  <origin>  (38) 
adg

>  <m_score__min__energy>  (38) 
-9.2599999999999998

>  <m_primary>  (38) 
energy

$$$$
38:0
     RDKit          3D

 53 56  0  0  0  0  0  0  0  0999 V2000
   -2.4620   20.8480  -31.8190 O   0  0  0  0  0  0  0  0  0  0  0  0
   -3.6190   21.4680  -32.3360 C   0  0  1  0  0  0  0  0  0  0  0  0
   -4.7360   20.4310  -32.5430 C   0  0  0  0  0  0  0  0  0  0  0  0
   -5.9760   21.0940  -33.0060 N   0  0  1  0  0  0  0  0  0  0  0  0
   -7.0090   20.1000  -33.3990 C   0  0  0  0  0  0  0  0  0  0  0  0
   -6.5240   18.6730  -33.2640 C   0  0  0  0  0  0  0  0  0  0  0  0
   -6.5950   18.0110  -32.0330 C   0  0  0  0  0  0  0  0  0  0  0  0
   -6.1090   16.7080  -31.9030 C   0  0  0  0  0  0  0  0  0  0  0  0
   -5.5730   16.0290  -33.0150 C   0  0  0  0  0  0  0  0  0  0  0  0
   -5.0910   14.6230  -32.8830 C   0  0  0  0  0  0  0  0  0  0  0  0
   -4.6010   14.1370  -31.6470 C   0  0  0  0  0  0  0  0  0  0  0  0
   -4.1900   12.8010  -31.5160 C   0  0  0  0  0  0  0  0  0  0  0  0
   -4.2620   11.9390  -32.6160 C   0  0  0  0  0  0  0  0  0  0  0  0
   -4.7290   12.4120  -33.8510 C   0  0  0  0  0  0  0  0  0  0  0  0
   -5.1440   13.7450  -33.9870 C   0  0  0  0  0  0  0  0  0  0  0  0
   -5.5200   16.6930  -34.2520 C   0  0  0  0  0  0  0  0  0  0  0  0
   -5.9740   18.0070  -34.3720 C   0  0  0  0  0  0  0  0  0  0  0  0
   -6.5140   21.9610  -31.9270 C   0  0  0  0  0  0  0  0  0  0  0  0
   -5.4740   22.8710  -31.3260 C   0  0  0  0  0  0  0  0  0  0  0  0
   -5.8930   23.9180  -30.5000 C   0  0  0  0  0  0  0  0  0  0  0  0
   -4.9570   24.7050  -29.8320 C   0  0  0  0  0  0  0  0  0  0  0  0
   -3.5850   24.4780  -29.9880 C   0  0  0  0  0  0  0  0  0  0  0  0
   -2.6940   25.2930  -29.2690 O   0  0  0  0  0  0  0  0  0  0  0  0
   -1.8390   24.8770  -28.1980 C   0  0  0  0  0  0  0  0  0  0  0  0
   -2.6450   24.2380  -27.0590 C   0  0  0  0  0  0  0  0  0  0  0  0
   -2.9200   22.9190  -27.3620 F   0  0  0  0  0  0  0  0  0  0  0  0
   -1.9370   24.2870  -25.8780 F   0  0  0  0  0  0  0  0  0  0  0  0
   -3.8410   24.9140  -26.8880 F   0  0  0  0  0  0  0  0  0  0  0  0
   -3.1590   23.4510  -30.8450 C   0  0  0  0  0  0  0  0  0  0  0  0
   -4.0940   22.6040  -31.4610 C   0  0  0  0  0  0  0  0  0  0  0  0
   -2.7570   20.1390  -31.1860 H   0  0  0  0  0  0  0  0  0  0  0  0
   -3.3539   21.9027  -33.3111 H   0  0  0  0  0  0  0  0  0  0  0  0
   -4.4142   19.6972  -33.2966 H   0  0  0  0  0  0  0  0  0  0  0  0
   -4.9367   19.9268  -31.5862 H   0  0  0  0  0  0  0  0  0  0  0  0
   -5.7660   21.6990  -33.8380 H   0  0  0  0  0  0  0  0  0  0  0  0
   -7.8907   20.2349  -32.7553 H   0  0  0  0  0  0  0  0  0  0  0  0
   -7.2504   20.2712  -34.4584 H   0  0  0  0  0  0  0  0  0  0  0  0
   -7.0360   18.5196  -31.1630 H   0  0  0  0  0  0  0  0  0  0  0  0
   -6.1451   16.2077  -30.9240 H   0  0  0  0  0  0  0  0  0  0  0  0
   -4.5417   14.8126  -30.7809 H   0  0  0  0  0  0  0  0  0  0  0  0
   -3.8122   12.4326  -30.5508 H   0  0  0  0  0  0  0  0  0  0  0  0
   -3.9518   10.8888  -32.5119 H   0  0  0  0  0  0  0  0  0  0  0  0
   -4.7700   11.7347  -34.7168 H   0  0  0  0  0  0  0  0  0  0  0  0
   -5.5123   14.1076  -34.9580 H   0  0  0  0  0  0  0  0  0  0  0  0
   -5.1172   16.1726  -35.1334 H   0  0  0  0  0  0  0  0  0  0  0  0
   -5.9008   18.5245  -35.3399 H   0  0  0  0  0  0  0  0  0  0  0  0
   -7.3213   22.5801  -32.3452 H   0  0  0  0  0  0  0  0  0  0  0  0
   -6.8749   21.3005  -31.1248 H   0  0  0  0  0  0  0  0  0  0  0  0
   -6.9669   24.1216  -30.3767 H   0  0  0  0  0  0  0  0  0  0  0  0
   -5.3013   25.5157  -29.1731 H   0  0  0  0  0  0  0  0  0  0  0  0
   -1.1156   24.1424  -28.5814 H   0  0  0  0  0  0  0  0  0  0  0  0
   -1.3205   25.7630  -27.8027 H   0  0  0  0  0  0  0  0  0  0  0  0
   -2.0849   23.3089  -31.0353 H   0  0  0  0  0  0  0  0  0  0  0  0
  1  2  1  0
  2  3  1  0
  3  4  1  0
  4  5  1  0
  5  6  1  0
  6  7  2  0
  7  8  1  0
  8  9  2  0
  9 10  1  0
 10 11  2  0
 11 12  1  0
 12 13  2  0
 13 14  1  0
 14 15  2  0
  9 16  1  0
 16 17  2  0
  4 18  1  0
 18 19  1  0
 19 20  2  0
 20 21  1  0
 21 22  2  0
 22 23  1  0
 23 24  1  0
 24 25  1  0
 25 26  1  0
 25 27  1  0
 25 28  1  0
 22 29  1  0
 29 30  2  0
 30  2  1  0
 17  6  1  0
 30 19  1  0
 15 10  1  0
  1 31  1  0
  2 32  1  6
  3 33  1  0
  3 34  1  0
  4 35  1  6
  5 36  1  0
  5 37  1  0
  7 38  1  0
  8 39  1  0
 11 40  1  0
 12 41  1  0
 13 42  1  0
 14 43  1  0
 15 44  1  0
 16 45  1  0
 17 46  1  0
 18 47  1  0
 18 48  1  0
 20 49  1  0
 21 50  1  0
 24 51  1  0
 24 52  1  0
 29 53  1  0
M  CHG  1   4   1
M  END
>  <UniqueID>  (39) 
37

>  <SMILES>  (39) 
O[C@H]1C[N@@H+](Cc2ccc(-c3ccccc3)cc2)Cc2ccc(OCC(F)(F)F)cc21

>  <Energy>  (39) 
68.73546813379015

>  <Genealogy>  (39) 
OC1C[NH+](Cc2ccc(-c3ccccc3)cc2)Cc2ccc(OCC(F)(F)F)cc21 (protonated)
O[C@H]1C[N@@H+](Cc2ccc(-c3ccccc3)cc2)Cc2ccc(OCC(F)(F)F)cc21 (chirality)
O[C@H]1C[N@@H+](Cc2ccc(-c3ccccc3)cc2)Cc2ccc(OCC(F)(F)F)cc21 (3D coordinates assigned)
O[C@H]1C[N@@H+](Cc2ccc(-c3ccccc3)cc2)Cc2ccc(OCC(F)(F)F)cc21 (nonaromatic ring conformer: 68.73546813379015 kcal/mol)

>  <smiles>  (39) 
OC1CN(Cc2ccc(-c3ccccc3)cc2)Cc2ccc(OCC(F)(F)F)cc21

>  <score_type>  (39) 
oracle

>  <origin>  (39) 
adg

>  <m_score__min__energy>  (39) 
-8.5999999999999996

>  <m_primary>  (39) 
energy

$$$$
39:0
     RDKit          3D

 40 41  0  0  0  0  0  0  0  0999 V2000
   -6.4630   15.3980  -33.9550 C   0  0  0  0  0  0  0  0  0  0  0  0
   -6.4340   16.8840  -33.8290 C   0  0  0  0  0  0  0  0  0  0  0  0
   -5.8440   17.7620  -34.7310 C   0  0  0  0  0  0  0  0  0  0  0  0
   -6.0500   19.1070  -34.4070 C   0  0  0  0  0  0  0  0  0  0  0  0
   -6.8080   19.2820  -33.2540 C   0  0  0  0  0  0  0  0  0  0  0  0
   -7.2630   20.5960  -32.6940 C   0  0  0  0  0  0  0  0  0  0  0  0
   -6.3780   21.0410  -31.5970 N   0  0  0  0  0  0  0  0  0  0  0  0
   -4.9470   20.8200  -31.9330 C   0  0  0  0  0  0  0  0  0  0  0  0
   -4.2080   22.1260  -32.2740 C   0  0  0  0  0  0  0  0  0  0  0  0
   -4.2430   23.0990  -31.1490 N   0  0  2  0  0  0  0  0  0  0  0  0
   -3.0750   22.8990  -30.2660 C   0  0  0  0  0  0  0  0  0  0  0  0
   -5.5200   23.0410  -30.3680 C   0  0  1  0  0  0  0  0  0  0  0  0
   -5.9030   24.4190  -29.7540 C   0  0  0  0  0  0  0  0  0  0  0  0
   -5.4020   25.6510  -30.5300 C   0  0  0  0  0  0  0  0  0  0  0  0
   -4.0070   25.6140  -30.6470 O   0  0  0  0  0  0  0  0  0  0  0  0
   -6.6740   22.4390  -31.1990 C   0  0  0  0  0  0  0  0  0  0  0  0
   -7.2430   17.7720  -32.6510 S   0  0  0  0  0  0  0  0  0  0  0  0
   -6.4718   14.9451  -32.9526 H   0  0  0  0  0  0  0  0  0  0  0  0
   -7.3672   15.0940  -34.5027 H   0  0  0  0  0  0  0  0  0  0  0  0
   -5.5713   15.0590  -34.5027 H   0  0  0  0  0  0  0  0  0  0  0  0
   -5.2725   17.4321  -35.6111 H   0  0  0  0  0  0  0  0  0  0  0  0
   -5.6529   19.9416  -35.0035 H   0  0  0  0  0  0  0  0  0  0  0  0
   -7.2514   21.3510  -33.4939 H   0  0  0  0  0  0  0  0  0  0  0  0
   -8.2804   20.4724  -32.2944 H   0  0  0  0  0  0  0  0  0  0  0  0
   -4.4516   20.3503  -31.0705 H   0  0  0  0  0  0  0  0  0  0  0  0
   -4.9108   20.1757  -32.8238 H   0  0  0  0  0  0  0  0  0  0  0  0
   -3.1590   21.8898  -32.5061 H   0  0  0  0  0  0  0  0  0  0  0  0
   -4.7136   22.5862  -33.1357 H   0  0  0  0  0  0  0  0  0  0  0  0
   -4.1310   24.0490  -31.5730 H   0  0  0  0  0  0  0  0  0  0  0  0
   -3.3960   22.9540  -29.2153 H   0  0  0  0  0  0  0  0  0  0  0  0
   -2.6314   21.9118  -30.4627 H   0  0  0  0  0  0  0  0  0  0  0  0
   -2.3282   23.6823  -30.4627 H   0  0  0  0  0  0  0  0  0  0  0  0
   -5.3407   22.3613  -29.5219 H   0  0  0  0  0  0  0  0  0  0  0  0
   -7.0004   24.4740  -29.7021 H   0  0  0  0  0  0  0  0  0  0  0  0
   -5.4109   24.4597  -28.7711 H   0  0  0  0  0  0  0  0  0  0  0  0
   -5.8509   25.6553  -31.5342 H   0  0  0  0  0  0  0  0  0  0  0  0
   -5.6926   26.5613  -29.9850 H   0  0  0  0  0  0  0  0  0  0  0  0
   -3.8100   25.6780  -31.6180 H   0  0  0  0  0  0  0  0  0  0  0  0
   -7.5946   22.4531  -30.5971 H   0  0  0  0  0  0  0  0  0  0  0  0
   -6.7967   23.0415  -32.1111 H   0  0  0  0  0  0  0  0  0  0  0  0
  1  2  1  0
  2  3  2  0
  3  4  1  0
  4  5  2  0
  5  6  1  0
  6  7  1  0
  7  8  1  0
  8  9  1  0
  9 10  1  0
 10 11  1  0
 10 12  1  0
 12 13  1  0
 13 14  1  0
 14 15  1  0
 12 16  1  0
  5 17  1  0
 17  2  1  0
 16  7  1  0
  1 18  1  0
  1 19  1  0
  1 20  1  0
  3 21  1  0
  4 22  1  0
  6 23  1  0
  6 24  1  0
  8 25  1  0
  8 26  1  0
  9 27  1  0
  9 28  1  0
 10 29  1  6
 11 30  1  0
 11 31  1  0
 11 32  1  0
 12 33  1  1
 13 34  1  0
 13 35  1  0
 14 36  1  0
 14 37  1  0
 15 38  1  0
 16 39  1  0
 16 40  1  0
M  CHG  1  10   1
M  END
>  <UniqueID>  (40) 
38

>  <SMILES>  (40) 
Cc1ccc(CN2CC[N@H+](C)[C@@H](CCO)C2)s1

>  <Energy>  (40) 
76.28587157743573

>  <Genealogy>  (40) 
Cc1ccc(CN2CC[NH+](C)C(CCO)C2)s1 (protonated)
Cc1ccc(CN2CC[N@H+](C)[C@@H](CCO)C2)s1 (chirality)
Cc1ccc(CN2CC[N@H+](C)[C@@H](CCO)C2)s1 (3D coordinates assigned)
Cc1ccc(CN2CC[N@H+](C)[C@@H](CCO)C2)s1 (nonaromatic ring conformer: 76.28587157743573 kcal/mol)

>  <smiles>  (40) 
Cc1ccc(CN2CCN(C)C(CCO)C2)s1

>  <score_type>  (40) 
oracle

>  <origin>  (40) 
adg

>  <m_score__min__energy>  (40) 
-6.7400000000000002

>  <m_primary>  (40) 
energy

$$$$
40:0
     RDKit          3D

 52 54  0  0  0  0  0  0  0  0999 V2000
   -9.4620   21.1520  -31.8030 C   0  0  0  0  0  0  0  0  0  0  0  0
   -8.5470   22.1010  -32.3420 O   0  0  0  0  0  0  0  0  0  0  0  0
   -7.2210   22.2590  -31.9090 C   0  0  0  0  0  0  0  0  0  0  0  0
   -6.3340   21.1770  -31.7920 C   0  0  0  0  0  0  0  0  0  0  0  0
   -5.0260   21.3830  -31.3530 C   0  0  0  0  0  0  0  0  0  0  0  0
   -4.5820   22.6700  -31.0020 C   0  0  0  0  0  0  0  0  0  0  0  0
   -3.2290   22.8920  -30.5620 N   0  0  0  0  0  0  0  0  0  0  0  0
   -2.3020   21.8420  -30.2390 C   0  0  0  0  0  0  0  0  0  0  0  0
   -2.6620   20.6340  -30.2630 O   0  0  0  0  0  0  0  0  0  0  0  0
   -0.8880   22.1840  -29.8660 C   0  0  0  0  0  0  0  0  0  0  0  0
   -0.8280   22.7850  -28.5170 N   0  0  0  0  0  0  0  0  0  0  0  0
   -0.5260   21.9990  -27.4280 C   0  0  0  0  0  0  0  0  0  0  0  0
   -0.2180   20.6100  -27.5820 N   0  0  0  0  0  0  0  0  0  0  0  0
    0.9660   20.1660  -27.9680 N   0  0  0  0  0  0  0  0  0  0  0  0
    0.9160   18.8200  -27.9410 C   0  0  0  0  0  0  0  0  0  0  0  0
    2.0880   17.9430  -28.2210 C   0  0  0  0  0  0  0  0  0  0  0  0
   -0.3230   18.3980  -27.4910 C   0  0  0  0  0  0  0  0  0  0  0  0
   -1.0210   19.5710  -27.2800 C   0  0  0  0  0  0  0  0  0  0  0  0
   -2.4020   19.6850  -26.7170 C   0  0  0  0  0  0  0  0  0  0  0  0
   -0.4760   22.5440  -26.1850 N   0  0  0  0  0  0  0  0  0  0  0  0
   -0.7170   23.8620  -25.9750 C   0  0  0  0  0  0  0  0  0  0  0  0
   -0.6460   24.4240  -24.5910 C   0  0  0  0  0  0  0  0  0  0  0  0
   -0.9970   24.6880  -27.0620 C   0  0  0  0  0  0  0  0  0  0  0  0
   -1.0470   24.1290  -28.3390 C   0  0  0  0  0  0  0  0  0  0  0  0
   -1.2910   24.8820  -29.3220 O   0  0  0  0  0  0  0  0  0  0  0  0
   -5.4580   23.7650  -31.1440 C   0  0  0  0  0  0  0  0  0  0  0  0
   -4.9860   25.0510  -30.8310 O   0  0  0  0  0  0  0  0  0  0  0  0
   -5.7470   26.0500  -30.1610 C   0  0  0  0  0  0  0  0  0  0  0  0
   -6.7760   23.5460  -31.5910 C   0  0  0  0  0  0  0  0  0  0  0  0
   -9.4251   21.1902  -30.7043 H   0  0  0  0  0  0  0  0  0  0  0  0
  -10.4803   21.3898  -32.1442 H   0  0  0  0  0  0  0  0  0  0  0  0
   -9.1872   20.1430  -32.1442 H   0  0  0  0  0  0  0  0  0  0  0  0
   -6.6721   20.1620  -32.0477 H   0  0  0  0  0  0  0  0  0  0  0  0
   -4.3351   20.5301  -31.2807 H   0  0  0  0  0  0  0  0  0  0  0  0
   -2.9310   23.8760  -30.3710 H   0  0  0  0  0  0  0  0  0  0  0  0
   -0.2805   21.2671  -29.8789 H   0  0  0  0  0  0  0  0  0  0  0  0
   -0.4998   22.9129  -30.5926 H   0  0  0  0  0  0  0  0  0  0  0  0
    2.5323   17.6105  -27.2713 H   0  0  0  0  0  0  0  0  0  0  0  0
    1.7602   17.0665  -28.7992 H   0  0  0  0  0  0  0  0  0  0  0  0
    2.8364   18.5047  -28.7992 H   0  0  0  0  0  0  0  0  0  0  0  0
   -0.6715   17.3661  -27.3369 H   0  0  0  0  0  0  0  0  0  0  0  0
   -2.3515   19.6808  -25.6182 H   0  0  0  0  0  0  0  0  0  0  0  0
   -2.8612   20.6241  -27.0594 H   0  0  0  0  0  0  0  0  0  0  0  0
   -3.0090   18.8339  -27.0594 H   0  0  0  0  0  0  0  0  0  0  0  0
   -0.7489   23.6096  -23.8588 H   0  0  0  0  0  0  0  0  0  0  0  0
    0.3226   24.9253  -24.4481 H   0  0  0  0  0  0  0  0  0  0  0  0
   -1.4595   25.1505  -24.4481 H   0  0  0  0  0  0  0  0  0  0  0  0
   -1.1757   25.7634  -26.9153 H   0  0  0  0  0  0  0  0  0  0  0  0
   -5.6472   25.9190  -29.0734 H   0  0  0  0  0  0  0  0  0  0  0  0
   -5.3765   27.0458  -30.4459 H   0  0  0  0  0  0  0  0  0  0  0  0
   -6.8054   25.9573  -30.4459 H   0  0  0  0  0  0  0  0  0  0  0  0
   -7.4640   24.3985  -31.6912 H   0  0  0  0  0  0  0  0  0  0  0  0
  1  2  1  0
  2  3  1  0
  3  4  2  0
  4  5  1  0
  5  6  2  0
  6  7  1  0
  7  8  1  0
  8  9  2  0
  8 10  1  0
 10 11  1  0
 11 12  1  0
 12 13  1  0
 13 14  1  0
 14 15  2  0
 15 16  1  0
 15 17  1  0
 17 18  2  0
 18 19  1  0
 12 20  2  0
 20 21  1  0
 21 22  1  0
 21 23  2  0
 23 24  1  0
 24 25  2  0
  6 26  1  0
 26 27  1  0
 27 28  1  0
 26 29  2  0
 29  3  1  0
 24 11  1  0
 18 13  1  0
  1 30  1  0
  1 31  1  0
  1 32  1  0
  4 33  1  0
  5 34  1  0
  7 35  1  0
 10 36  1  0
 10 37  1  0
 16 38  1  0
 16 39  1  0
 16 40  1  0
 17 41  1  0
 19 42  1  0
 19 43  1  0
 19 44  1  0
 22 45  1  0
 22 46  1  0
 22 47  1  0
 23 48  1  0
 28 49  1  0
 28 50  1  0
 28 51  1  0
 29 52  1  0
M  END
>  <UniqueID>  (41) 
39

>  <SMILES>  (41) 
COc1ccc(NC(=O)Cn2c(-n3nc(C)cc3C)nc(C)cc2=O)c(OC)c1

>  <Energy>  (41) 
90.3841327805109

>  <Genealogy>  (41) 
COc1ccc(NC(=O)Cn2c(-n3nc(C)cc3C)nc(C)cc2=O)c(OC)c1 (3D coordinates assigned)
COc1ccc(NC(=O)Cn2c(-n3nc(C)cc3C)nc(C)cc2=O)c(OC)c1 (optimized conformer: 90.3841327805109 kcal/mol)

>  <smiles>  (41) 
COc1ccc(NC(=O)Cn2c(-n3nc(C)cc3C)nc(C)cc2=O)c(OC)c1

>  <score_type>  (41) 
oracle

>  <origin>  (41) 
adg

>  <m_score__min__energy>  (41) 
-8.4100000000000001

>  <m_primary>  (41) 
energy

$$$$
41:0
     RDKit          3D

 33 33  0  0  0  0  0  0  0  0999 V2000
    0.0026   22.1483  -27.1138 H   0  0  0  0  0  0  0  0  0  0  0  0
   -0.8240   22.5220  -27.7360 C   0  0  0  0  0  0  0  0  0  0  0  0
   -1.8620   21.6660  -28.1040 C   0  0  0  0  0  0  0  0  0  0  0  0
   -1.8545   20.6182  -27.7691 H   0  0  0  0  0  0  0  0  0  0  0  0
   -2.9110   22.1370  -28.8970 C   0  0  0  0  0  0  0  0  0  0  0  0
   -3.7254   21.4549  -29.1824 H   0  0  0  0  0  0  0  0  0  0  0  0
   -2.9380   23.4770  -29.3360 C   0  0  0  0  0  0  0  0  0  0  0  0
   -4.0700   23.9460  -30.1830 C   0  0  0  0  0  0  0  0  0  0  0  0
   -4.0010   25.0770  -30.7350 O   0  0  0  0  0  0  0  0  0  0  0  0
   -5.2500   23.1410  -30.3310 N   0  0  0  0  0  0  0  0  0  0  0  0
   -5.9460   22.9400  -31.4140 C   0  0  0  0  0  0  0  0  0  0  0  0
   -5.7660   23.8230  -32.5210 N   0  0  0  0  0  0  0  0  0  0  0  0
   -6.3580   23.7280  -33.3760 H   0  0  0  0  0  0  0  0  0  0  0  0
   -5.0570   24.5880  -32.4790 H   0  0  0  0  0  0  0  0  0  0  0  0
   -6.9400   21.9020  -31.4970 N   0  0  0  0  0  0  0  0  0  0  0  0
   -8.2880   22.2030  -30.9920 C   0  0  0  0  0  0  0  0  0  0  0  0
   -8.3669   23.2856  -30.8136 H   0  0  0  0  0  0  0  0  0  0  0  0
   -8.4372   21.6345  -30.0622 H   0  0  0  0  0  0  0  0  0  0  0  0
   -9.3770   21.7850  -31.9810 C   0  0  0  0  0  0  0  0  0  0  0  0
  -10.2642   21.4444  -31.4271 H   0  0  0  0  0  0  0  0  0  0  0  0
   -9.6469   22.6434  -32.6136 H   0  0  0  0  0  0  0  0  0  0  0  0
   -9.0032   20.9665  -32.6136 H   0  0  0  0  0  0  0  0  0  0  0  0
   -6.7440   20.8400  -32.4950 C   0  0  0  0  0  0  0  0  0  0  0  0
   -7.4484   20.9898  -33.3265 H   0  0  0  0  0  0  0  0  0  0  0  0
   -5.7085   20.8840  -32.8636 H   0  0  0  0  0  0  0  0  0  0  0  0
   -6.9880   19.4720  -31.8710 C   0  0  0  0  0  0  0  0  0  0  0  0
   -6.9721   19.5610  -30.7747 H   0  0  0  0  0  0  0  0  0  0  0  0
   -7.9682   19.0913  -32.1938 H   0  0  0  0  0  0  0  0  0  0  0  0
   -6.1998   18.7759  -32.1938 H   0  0  0  0  0  0  0  0  0  0  0  0
   -1.8800   24.3370  -28.9500 C   0  0  0  0  0  0  0  0  0  0  0  0
   -1.8530   25.6720  -29.3350 O   0  0  0  0  0  0  0  0  0  0  0  0
   -0.8340   23.8520  -28.1570 C   0  0  0  0  0  0  0  0  0  0  0  0
   -0.0141   24.5240  -27.8636 H   0  0  0  0  0  0  0  0  0  0  0  0
  1  2  1  0
  2  3  2  0
  3  4  1  0
  3  5  1  0
  5  6  1  0
  5  7  2  0
  7  8  1  0
  8  9  2  0
  8 10  1  0
 10 11  2  0
 11 12  1  0
 12 13  1  0
 12 14  1  0
 11 15  1  0
 15 16  1  0
 16 17  1  0
 16 18  1  0
 16 19  1  0
 19 20  1  0
 19 21  1  0
 19 22  1  0
 15 23  1  0
 23 24  1  0
 23 25  1  0
 23 26  1  0
 26 27  1  0
 26 28  1  0
 26 29  1  0
  7 30  1  0
 30 31  1  0
 30 32  2  0
 32 33  1  0
 32  2  1  0
M  CHG  1  31  -1
M  END
>  <UniqueID>  (42) 
40

>  <SMILES>  (42) 
CCN(CC)/C(N)=N\C(=O)c1ccccc1[O-]

>  <Energy>  (42) 
34.59879642053825

>  <Genealogy>  (42) 
CCN(CC)C(N)=NC(=O)c1ccccc1[O-] (protonated)
CCN(CC)/C(N)=N\C(=O)c1ccccc1[O-] (cis-trans isomerization)
CCN(CC)/C(N)=N\C(=O)c1ccccc1[O-] (3D coordinates assigned)
CCN(CC)/C(N)=N\C(=O)c1ccccc1[O-] (optimized conformer: 34.59879642053825 kcal/mol)

>  <smiles>  (42) 
CCN(CC)C(N)=NC(=O)c1ccccc1O

>  <score_type>  (42) 
oracle

>  <origin>  (42) 
adg

>  <m_score__min__energy>  (42) 
-9.4800000000000004

>  <m_primary>  (42) 
energy

$$$$
42:0
     RDKit          3D

 47 50  0  0  0  0  0  0  0  0999 V2000
   -8.6010   17.8220  -32.1800 O   0  0  0  0  0  0  0  0  0  0  0  0
   -7.4010   18.0220  -32.5060 C   0  0  0  0  0  0  0  0  0  0  0  0
   -6.5400   16.8660  -32.8470 C   0  0  0  0  0  0  0  0  0  0  0  0
   -6.8500   16.0320  -33.9340 C   0  0  0  0  0  0  0  0  0  0  0  0
   -6.0510   14.9210  -34.2230 C   0  0  0  0  0  0  0  0  0  0  0  0
   -4.9420   14.6270  -33.4290 C   0  0  0  0  0  0  0  0  0  0  0  0
   -4.6280   15.4410  -32.3430 C   0  0  0  0  0  0  0  0  0  0  0  0
   -5.4240   16.5530  -32.0500 C   0  0  0  0  0  0  0  0  0  0  0  0
   -6.9140   19.4120  -32.5720 C   0  0  0  0  0  0  0  0  0  0  0  0
   -5.6270   19.8040  -32.9210 C   0  0  0  0  0  0  0  0  0  0  0  0
   -5.5170   21.1530  -32.8780 N   0  0  0  0  0  0  0  0  0  0  0  0
   -4.2840   21.9130  -33.0910 C   0  0  0  0  0  0  0  0  0  0  0  0
   -3.3800   21.8070  -31.8570 C   0  0  0  0  0  0  0  0  0  0  0  0
   -3.2990   23.1070  -31.1550 N   0  0  0  0  0  0  0  0  0  0  0  0
   -4.6130   23.4870  -30.6000 C   0  0  0  0  0  0  0  0  0  0  0  0
   -4.5250   24.8880  -29.9510 C   0  0  0  0  0  0  0  0  0  0  0  0
   -3.1930   25.2950  -29.6910 O   0  0  0  0  0  0  0  0  0  0  0  0
   -2.4760   24.2410  -29.0790 C   0  0  0  0  0  0  0  0  0  0  0  0
   -2.2750   23.0820  -30.0800 C   0  0  0  0  0  0  0  0  0  0  0  0
   -6.7270   21.6210  -32.5070 C   0  0  0  0  0  0  0  0  0  0  0  0
   -7.1180   22.9520  -32.3280 C   0  0  0  0  0  0  0  0  0  0  0  0
   -8.4520   23.2040  -31.9630 C   0  0  0  0  0  0  0  0  0  0  0  0
   -9.3620   22.1390  -31.7910 C   0  0  0  0  0  0  0  0  0  0  0  0
   -8.9440   20.8090  -31.9760 C   0  0  0  0  0  0  0  0  0  0  0  0
   -7.6090   20.5840  -32.3200 C   0  0  0  0  0  0  0  0  0  0  0  0
   -7.7259   16.2539  -34.5613 H   0  0  0  0  0  0  0  0  0  0  0  0
   -6.2979   14.2765  -35.0796 H   0  0  0  0  0  0  0  0  0  0  0  0
   -4.3158   13.7527  -33.6605 H   0  0  0  0  0  0  0  0  0  0  0  0
   -3.7543   15.2092  -31.7161 H   0  0  0  0  0  0  0  0  0  0  0  0
   -5.1749   17.1891  -31.1878 H   0  0  0  0  0  0  0  0  0  0  0  0
   -4.8132   19.1160  -33.1935 H   0  0  0  0  0  0  0  0  0  0  0  0
   -3.7540   21.5088  -33.9661 H   0  0  0  0  0  0  0  0  0  0  0  0
   -4.5373   22.9697  -33.2621 H   0  0  0  0  0  0  0  0  0  0  0  0
   -3.7917   21.0515  -31.1716 H   0  0  0  0  0  0  0  0  0  0  0  0
   -2.3700   21.5171  -32.1823 H   0  0  0  0  0  0  0  0  0  0  0  0
   -5.3588   23.5057  -31.4084 H   0  0  0  0  0  0  0  0  0  0  0  0
   -4.9100   22.7524  -29.8370 H   0  0  0  0  0  0  0  0  0  0  0  0
   -4.9886   25.6187  -30.6302 H   0  0  0  0  0  0  0  0  0  0  0  0
   -5.0479   24.8364  -28.9846 H   0  0  0  0  0  0  0  0  0  0  0  0
   -1.4939   24.6121  -28.7506 H   0  0  0  0  0  0  0  0  0  0  0  0
   -3.0467   23.8733  -28.2135 H   0  0  0  0  0  0  0  0  0  0  0  0
   -1.2774   23.1715  -30.5346 H   0  0  0  0  0  0  0  0  0  0  0  0
   -2.3725   22.1328  -29.5328 H   0  0  0  0  0  0  0  0  0  0  0  0
   -6.4035   23.7764  -32.4685 H   0  0  0  0  0  0  0  0  0  0  0  0
   -8.7893   24.2398  -31.8102 H   0  0  0  0  0  0  0  0  0  0  0  0
  -10.4044   22.3505  -31.5106 H   0  0  0  0  0  0  0  0  0  0  0  0
   -9.6467   19.9717  -31.8536 H   0  0  0  0  0  0  0  0  0  0  0  0
  1  2  2  0
  2  3  1  0
  3  4  2  0
  4  5  1  0
  5  6  2  0
  6  7  1  0
  7  8  2  0
  2  9  1  0
  9 10  2  0
 10 11  1  0
 11 12  1  0
 12 13  1  0
 13 14  1  0
 14 15  1  0
 15 16  1  0
 16 17  1  0
 17 18  1  0
 18 19  1  0
 11 20  1  0
 20 21  2  0
 21 22  1  0
 22 23  2  0
 23 24  1  0
 24 25  2  0
  8  3  1  0
 25  9  1  0
 19 14  1  0
 25 20  1  0
  4 26  1  0
  5 27  1  0
  6 28  1  0
  7 29  1  0
  8 30  1  0
 10 31  1  0
 12 32  1  0
 12 33  1  0
 13 34  1  0
 13 35  1  0
 15 36  1  0
 15 37  1  0
 16 38  1  0
 16 39  1  0
 18 40  1  0
 18 41  1  0
 19 42  1  0
 19 43  1  0
 21 44  1  0
 22 45  1  0
 23 46  1  0
 24 47  1  0
M  END
>  <UniqueID>  (43) 
41

>  <SMILES>  (43) 
O=C(c1ccccc1)c1cn(CCN2CCOCC2)c2ccccc12

>  <Energy>  (43) 
97.7628151990744

>  <Genealogy>  (43) 
O=C(c1ccccc1)c1cn(CCN2CCOCC2)c2ccccc12 (3D coordinates assigned)
O=C(c1ccccc1)c1cn(CCN2CCOCC2)c2ccccc12 (nonaromatic ring conformer: 97.7628151990744 kcal/mol)

>  <smiles>  (43) 
O=C(c1ccccc1)c1cn(CCN2CCOCC2)c2ccccc12

>  <score_type>  (43) 
oracle

>  <origin>  (43) 
adg

>  <m_score__min__energy>  (43) 
-9.2400000000000002

>  <m_primary>  (43) 
energy

$$$$
