0:0
     RDKit          3D

 41 41  0  0  0  0  0  0  0  0999 V2000
   -5.8480   18.9610  -34.2280 C   0  0  0  0  0  0  0  0  0  0  0  0
   -5.7880   18.5580  -32.7550 C   0  0  0  0  0  0  0  0  0  0  0  0
   -6.9200   17.6000  -32.3460 C   0  0  0  0  0  0  0  0  0  0  0  0
   -8.3190   18.2410  -32.2920 C   0  0  0  0  0  0  0  0  0  0  0  0
   -8.3340   19.5740  -31.5260 C   0  0  0  0  0  0  0  0  0  0  0  0
   -8.3370   20.7970  -32.4600 C   0  0  0  0  0  0  0  0  0  0  0  0
   -8.6860   22.1350  -31.7750 C   0  0  0  0  0  0  0  0  0  0  0  0
   -8.1770   22.2880  -30.3290 C   0  0  0  0  0  0  0  0  0  0  0  0
   -7.0840   23.3530  -30.1280 C   0  0  0  0  0  0  0  0  0  0  0  0
   -6.1090   23.4870  -31.3160 C   0  0  0  0  0  0  0  0  0  0  0  0
   -4.8110   22.8670  -31.0290 N   0  0  0  0  0  0  0  0  0  0  0  0
   -4.5130   21.5660  -31.1970 C   0  0  0  0  0  0  0  0  0  0  0  0
   -3.2100   21.3640  -30.8020 C   0  0  0  0  0  0  0  0  0  0  0  0
   -2.6730   22.5320  -30.3990 N   0  0  0  0  0  0  0  0  0  0  0  0
   -3.6690   23.4290  -30.5580 C   0  0  0  0  0  0  0  0  0  0  0  0
   -3.4940   24.8230  -30.2640 N   0  0  0  0  0  0  0  0  0  0  0  0
   -4.2420   25.6630  -30.8030 O   0  0  0  0  0  0  0  0  0  0  0  0
   -2.5940   25.2480  -29.3140 O   0  0  0  0  0  0  0  0  0  0  0  0
   -6.0096   20.0463  -34.3049 H   0  0  0  0  0  0  0  0  0  0  0  0
   -4.9004   18.6956  -34.7196 H   0  0  0  0  0  0  0  0  0  0  0  0
   -6.6772   18.4311  -34.7196 H   0  0  0  0  0  0  0  0  0  0  0  0
   -4.8243   18.0623  -32.5664 H   0  0  0  0  0  0  0  0  0  0  0  0
   -5.9024   19.4752  -32.1586 H   0  0  0  0  0  0  0  0  0  0  0  0
   -6.9493   16.7747  -33.0726 H   0  0  0  0  0  0  0  0  0  0  0  0
   -6.6911   17.2685  -31.3224 H   0  0  0  0  0  0  0  0  0  0  0  0
   -8.6622   18.4231  -33.3211 H   0  0  0  0  0  0  0  0  0  0  0  0
   -8.9822   17.5445  -31.7581 H   0  0  0  0  0  0  0  0  0  0  0  0
   -9.2366   19.6087  -30.8982 H   0  0  0  0  0  0  0  0  0  0  0  0
   -7.4157   19.6200  -30.9222 H   0  0  0  0  0  0  0  0  0  0  0  0
   -7.3348   20.8911  -32.9035 H   0  0  0  0  0  0  0  0  0  0  0  0
   -9.1264   20.6156  -33.2043 H   0  0  0  0  0  0  0  0  0  0  0  0
   -8.2515   22.9476  -32.3758 H   0  0  0  0  0  0  0  0  0  0  0  0
   -9.7839   22.1685  -31.7156 H   0  0  0  0  0  0  0  0  0  0  0  0
   -9.0338   22.5556  -29.6932 H   0  0  0  0  0  0  0  0  0  0  0  0
   -7.7169   21.3247  -30.0639 H   0  0  0  0  0  0  0  0  0  0  0  0
   -7.5738   24.3255  -29.9717 H   0  0  0  0  0  0  0  0  0  0  0  0
   -6.4861   23.0343  -29.2614 H   0  0  0  0  0  0  0  0  0  0  0  0
   -6.5508   22.9968  -32.1960 H   0  0  0  0  0  0  0  0  0  0  0  0
   -5.9422   24.5583  -31.5018 H   0  0  0  0  0  0  0  0  0  0  0  0
   -5.1948   20.7946  -31.5843 H   0  0  0  0  0  0  0  0  0  0  0  0
   -2.6869   20.3964  -30.8136 H   0  0  0  0  0  0  0  0  0  0  0  0
  1  2  1  0
  2  3  1  0
  3  4  1  0
  4  5  1  0
  5  6  1  0
  6  7  1  0
  7  8  1  0
  8  9  1  0
  9 10  1  0
 10 11  1  0
 11 12  1  0
 12 13  2  0
 13 14  1  0
 14 15  2  0
 15 16  1  0
 16 17  2  0
 16 18  1  0
 15 11  1  0
  1 19  1  0
  1 20  1  0
  1 21  1  0
  2 22  1  0
  2 23  1  0
  3 24  1  0
  3 25  1  0
  4 26  1  0
  4 27  1  0
  5 28  1  0
  5 29  1  0
  6 30  1  0
  6 31  1  0
  7 32  1  0
  7 33  1  0
  8 34  1  0
  8 35  1  0
  9 36  1  0
  9 37  1  0
 10 38  1  0
 10 39  1  0
 12 40  1  0
 13 41  1  0
M  CHG  2  16   1  18  -1
M  END
>  <UniqueID>  (1) 
1

>  <SMILES>  (1) 
CCCCCCCCCCn1ccnc1[N+](=O)[O-]

>  <Energy>  (1) 
56.287111120795515

>  <Genealogy>  (1) 
CCCCCCCCCCn1ccnc1[N+](=O)[O-] (3D coordinates assigned)
CCCCCCCCCCn1ccnc1[N+](=O)[O-] (optimized conformer: 56.287111120795515 kcal/mol)

>  <smiles>  (1) 
CCCCCCCCCCn1ccnc1[N+](=O)[O-]

>  <score_type>  (1) 
oracle

>  <origin>  (1) 
adg

>  <m_score__min__energy>  (1) 
-7.8399999999999999

>  <m_primary>  (1) 
energy

$$$$
1:0
     RDKit          3D

 40 42  0  0  1  0  0  0  0  0999 V2000
   -1.0000   23.7060  -28.4270 C   0  0  0  0  0  0  0  0  0  0  0  0
   -2.1610   23.6780  -29.3420 C   0  0  0  0  0  0  0  0  0  0  0  0
   -2.1920   22.7260  -30.3440 C   0  0  0  0  0  0  0  0  0  0  0  0
   -3.2890   22.7130  -31.1970 C   0  0  0  0  0  0  0  0  0  0  0  0
   -3.3970   21.8670  -32.1470 N   0  0  0  0  0  0  0  0  0  0  0  0
   -4.2640   20.7070  -32.0450 C   0  0  0  0  0  0  0  0  0  0  0  0
   -5.4750   20.8700  -32.9220 C   0  0  0  0  0  0  0  0  0  0  0  0
   -6.7110   20.5250  -32.3550 N   0  0  0  0  0  0  0  0  0  0  0  0
   -7.5930   21.5590  -31.9610 C   0  0  0  0  0  0  0  0  0  0  0  0
   -9.0110   20.9750  -31.9180 C   0  0  0  0  0  0  0  0  0  0  0  0
   -9.0870   19.6730  -32.7180 C   0  0  0  0  0  0  0  0  0  0  0  0
   -8.1260   18.6300  -32.1600 C   0  0  0  0  0  0  0  0  0  0  0  0
   -6.8210   19.2780  -31.7070 C   0  0  0  0  0  0  0  0  0  0  0  0
   -4.2850   23.6250  -31.0210 N   0  0  0  0  0  0  0  0  0  0  0  0
   -5.4040   23.7960  -31.7020 N   0  0  0  0  0  0  0  0  0  0  0  0
   -6.1090   24.8290  -31.1820 C   0  0  0  0  0  0  0  0  0  0  0  0
   -5.3620   25.2940  -30.1310 C   0  0  0  0  0  0  0  0  0  0  0  0
   -4.2080   24.5350  -30.0270 C   0  0  0  0  0  0  0  0  0  0  0  0
   -3.1580   24.5840  -29.1740 N   0  0  0  0  0  0  0  0  0  0  0  0
   -1.3537   23.6975  -27.3855 H   0  0  0  0  0  0  0  0  0  0  0  0
   -0.3696   22.8228  -28.6074 H   0  0  0  0  0  0  0  0  0  0  0  0
   -0.4129   24.6186  -28.6074 H   0  0  0  0  0  0  0  0  0  0  0  0
   -1.3733   22.0009  -30.4624 H   0  0  0  0  0  0  0  0  0  0  0  0
   -3.7079   19.8117  -32.3599 H   0  0  0  0  0  0  0  0  0  0  0  0
   -4.5946   20.6032  -31.0010 H   0  0  0  0  0  0  0  0  0  0  0  0
   -5.5292   21.9265  -33.2235 H   0  0  0  0  0  0  0  0  0  0  0  0
   -5.3292   20.1639  -33.7527 H   0  0  0  0  0  0  0  0  0  0  0  0
   -7.3115   21.9317  -30.9651 H   0  0  0  0  0  0  0  0  0  0  0  0
   -7.5441   22.3972  -32.6716 H   0  0  0  0  0  0  0  0  0  0  0  0
   -9.2860   20.7723  -30.8724 H   0  0  0  0  0  0  0  0  0  0  0  0
   -9.7057   21.7029  -32.3625 H   0  0  0  0  0  0  0  0  0  0  0  0
  -10.1130   19.2797  -32.6677 H   0  0  0  0  0  0  0  0  0  0  0  0
   -8.8055   19.8859  -33.7599 H   0  0  0  0  0  0  0  0  0  0  0  0
   -8.5968   18.1298  -31.3008 H   0  0  0  0  0  0  0  0  0  0  0  0
   -7.8997   17.9015  -32.9525 H   0  0  0  0  0  0  0  0  0  0  0  0
   -6.8340   19.4228  -30.6167 H   0  0  0  0  0  0  0  0  0  0  0  0
   -5.9648   18.6360  -31.9616 H   0  0  0  0  0  0  0  0  0  0  0  0
   -7.0786   25.2143  -31.5304 H   0  0  0  0  0  0  0  0  0  0  0  0
   -5.6349   26.1344  -29.4758 H   0  0  0  0  0  0  0  0  0  0  0  0
   -3.1540   25.3030  -28.4300 H   0  0  0  0  0  0  0  0  0  0  0  0
  1  2  1  0
  2  3  2  0
  3  4  1  0
  4  5  2  0
  5  6  1  0
  6  7  1  0
  7  8  1  0
  8  9  1  0
  9 10  1  0
 10 11  1  0
 11 12  1  0
 12 13  1  0
  4 14  1  0
 14 15  1  0
 15 16  2  0
 16 17  1  0
 17 18  2  0
 18 19  1  0
 19  2  1  0
 13  8  1  0
 18 14  1  0
  1 20  1  0
  1 21  1  0
  1 22  1  0
  3 23  1  0
  6 24  1  0
  6 25  1  0
  7 26  1  0
  7 27  1  0
  9 28  1  0
  9 29  1  0
 10 30  1  0
 10 31  1  0
 11 32  1  0
 11 33  1  0
 12 34  1  0
 12 35  1  0
 13 36  1  0
 13 37  1  0
 16 38  1  0
 17 39  1  0
 19 40  1  0
M  END
>  <smiles>  (2) 
Cc1cc(=NCCN2CCCCC2)n2nccc2[nH]1

>  <score_type>  (2) 
oracle

>  <origin>  (2) 
adg

>  <m_score__min__energy>  (2) 
-7.0999999999999996

>  <m_primary>  (2) 
energy

$$$$
2:0
     RDKit          3D

 32 34  0  0  1  0  0  0  0  0999 V2000
   -9.4490   19.1530  -33.0750 N   0  0  0  0  0  0  0  0  0  0  0  0
   -9.0190   20.1170  -32.3190 C   0  0  0  0  0  0  0  0  0  0  0  0
   -9.8970   20.9070  -31.6780 N   0  0  0  0  0  0  0  0  0  0  0  0
   -9.4560   21.9060  -30.8930 C   0  0  0  0  0  0  0  0  0  0  0  0
   -8.1410   22.1590  -30.7130 N   0  0  0  0  0  0  0  0  0  0  0  0
   -7.2150   21.4030  -31.3250 C   0  0  0  0  0  0  0  0  0  0  0  0
   -7.6780   20.3790  -32.1300 C   0  0  0  0  0  0  0  0  0  0  0  0
   -6.6090   19.7480  -32.6450 N   0  0  0  0  0  0  0  0  0  0  0  0
   -5.5090   20.3670  -32.1720 C   0  0  0  0  0  0  0  0  0  0  0  0
   -5.8700   21.3800  -31.3630 N   0  0  0  0  0  0  0  0  0  0  0  0
   -4.9820   22.2720  -30.6700 C   0  0  2  0  0  0  0  0  0  0  0  0
   -5.5020   22.8310  -29.5420 O   0  0  0  0  0  0  0  0  0  0  0  0
   -4.8500   24.0430  -29.3890 C   0  0  1  0  0  0  0  0  0  0  0  0
   -3.3830   23.9160  -29.0660 C   0  0  0  0  0  0  0  0  0  0  0  0
   -2.7270   25.1250  -28.9770 O   0  0  0  0  0  0  0  0  0  0  0  0
   -4.9530   24.6350  -30.7790 C   0  0  1  0  0  0  0  0  0  0  0  0
   -3.9810   25.6140  -31.0030 O   0  0  0  0  0  0  0  0  0  0  0  0
   -4.6340   23.3980  -31.6220 C   0  0  2  0  0  0  0  0  0  0  0  0
   -5.4520   23.4690  -32.7260 O   0  0  0  0  0  0  0  0  0  0  0  0
   -9.5430   19.3720  -34.0940 H   0  0  0  0  0  0  0  0  0  0  0  0
  -10.1929   22.5404  -30.3786 H   0  0  0  0  0  0  0  0  0  0  0  0
   -7.8250   22.9250  -30.1080 H   0  0  0  0  0  0  0  0  0  0  0  0
   -4.4726   20.0865  -32.4112 H   0  0  0  0  0  0  0  0  0  0  0  0
   -4.1160   21.6728  -30.3523 H   0  0  0  0  0  0  0  0  0  0  0  0
   -5.2907   24.6201  -28.5627 H   0  0  0  0  0  0  0  0  0  0  0  0
   -3.2838   23.3956  -28.1020 H   0  0  0  0  0  0  0  0  0  0  0  0
   -2.9193   23.3597  -29.8939 H   0  0  0  0  0  0  0  0  0  0  0  0
   -3.0690   25.6900  -29.7190 H   0  0  0  0  0  0  0  0  0  0  0  0
   -5.9146   25.1284  -30.9837 H   0  0  0  0  0  0  0  0  0  0  0  0
   -3.2440   25.2780  -31.5830 H   0  0  0  0  0  0  0  0  0  0  0  0
   -3.6064   23.2820  -31.9969 H   0  0  0  0  0  0  0  0  0  0  0  0
   -4.9470   23.1150  -33.5090 H   0  0  0  0  0  0  0  0  0  0  0  0
  1  2  2  3
  2  3  1  0
  3  4  2  0
  4  5  1  0
  5  6  1  0
  6  7  2  0
  7  8  1  0
  8  9  2  0
  9 10  1  0
 10 11  1  0
 11 12  1  0
 12 13  1  0
 13 14  1  0
 14 15  1  0
 13 16  1  0
 16 17  1  0
 16 18  1  0
 18 19  1  0
  7  2  1  0
 18 11  1  0
 10  6  1  0
  1 20  1  0
  4 21  1  0
  5 22  1  0
  9 23  1  0
 11 24  1  1
 13 25  1  1
 14 26  1  0
 14 27  1  0
 15 28  1  0
 16 29  1  6
 17 30  1  0
 18 31  1  6
 19 32  1  0
M  END
>  <smiles>  (3) 
N=c1nc[nH]c2c1ncn2C1OC(CO)C(O)C1O

>  <score_type>  (3) 
oracle

>  <origin>  (3) 
adg

>  <m_score__min__energy>  (3) 
-7.3099999999999996

>  <m_primary>  (3) 
energy

$$$$
3:0
     RDKit          3D

 51 54  0  0  0  0  0  0  0  0999 V2000
   -8.5032   19.8402  -32.8790 H   0  0  0  0  0  0  0  0  0  0  0  0
   -7.4270   19.8250  -32.6520 C   0  0  0  0  0  0  0  0  0  0  0  0
   -6.9280   20.8440  -31.9260 C   0  0  0  0  0  0  0  0  0  0  0  0
   -5.4940   21.0700  -31.6710 C   0  0  0  0  0  0  0  0  0  0  0  0
   -4.5940   20.7490  -32.5540 N   0  0  0  0  0  0  0  0  0  0  0  0
   -3.2320   21.1710  -32.4360 C   0  0  0  0  0  0  0  0  0  0  0  0
   -2.1620   20.7020  -33.5810 S   0  0  0  0  0  0  0  0  0  0  0  0
   -2.8970   22.2310  -31.5240 N   0  0  0  0  0  0  0  0  0  0  0  0
   -1.8690   22.2160  -31.3270 H   0  0  0  0  0  0  0  0  0  0  0  0
   -3.1520   23.1300  -31.9900 H   0  0  0  0  0  0  0  0  0  0  0  0
   -3.6400   22.0450  -30.2620 C   0  0  1  0  0  0  0  0  0  0  0  0
   -3.3207   21.0735  -29.8568 H   0  0  0  0  0  0  0  0  0  0  0  0
   -3.2790   23.0740  -29.1970 C   0  0  0  0  0  0  0  0  0  0  0  0
   -2.0480   23.7520  -29.2940 C   0  0  0  0  0  0  0  0  0  0  0  0
   -1.3886   23.5617  -30.1536 H   0  0  0  0  0  0  0  0  0  0  0  0
   -1.6550   24.6640  -28.3100 C   0  0  0  0  0  0  0  0  0  0  0  0
   -0.6950   25.1929  -28.4026 H   0  0  0  0  0  0  0  0  0  0  0  0
   -2.4810   24.9040  -27.2090 C   0  0  0  0  0  0  0  0  0  0  0  0
   -1.9830   26.0410  -25.9680 Cl  0  0  0  0  0  0  0  0  0  0  0  0
   -3.6980   24.2280  -27.0900 C   0  0  0  0  0  0  0  0  0  0  0  0
   -4.3462   24.4151  -26.2212 H   0  0  0  0  0  0  0  0  0  0  0  0
   -4.0950   23.3140  -28.0720 C   0  0  0  0  0  0  0  0  0  0  0  0
   -5.0502   22.7789  -27.9659 H   0  0  0  0  0  0  0  0  0  0  0  0
   -5.1740   21.9640  -30.5050 C   0  0  1  0  0  0  0  0  0  0  0  0
   -5.5672   21.5458  -29.5666 H   0  0  0  0  0  0  0  0  0  0  0  0
   -5.8840   23.3290  -30.7160 C   0  0  0  0  0  0  0  0  0  0  0  0
   -5.2558   23.9454  -31.3759 H   0  0  0  0  0  0  0  0  0  0  0  0
   -6.0188   23.7710  -29.7178 H   0  0  0  0  0  0  0  0  0  0  0  0
   -7.2450   23.2280  -31.3260 N   0  0  0  0  0  0  0  0  0  0  0  0
   -7.2770   23.8000  -32.6840 C   0  0  0  0  0  0  0  0  0  0  0  0
   -7.3383   24.8963  -32.6187 H   0  0  0  0  0  0  0  0  0  0  0  0
   -6.3615   23.5154  -33.2234 H   0  0  0  0  0  0  0  0  0  0  0  0
   -8.1550   23.4151  -33.2234 H   0  0  0  0  0  0  0  0  0  0  0  0
   -7.8490   21.8720  -31.3060 C   0  0  0  0  0  0  0  0  0  0  0  0
   -8.7927   21.8930  -31.8709 H   0  0  0  0  0  0  0  0  0  0  0  0
   -8.0254   21.5889  -30.2578 H   0  0  0  0  0  0  0  0  0  0  0  0
   -6.6350   18.6880  -33.1660 C   0  0  0  0  0  0  0  0  0  0  0  0
   -6.0540   18.7770  -34.4390 C   0  0  0  0  0  0  0  0  0  0  0  0
   -6.1782   19.6939  -35.0339 H   0  0  0  0  0  0  0  0  0  0  0  0
   -5.3170   17.7060  -34.9570 C   0  0  0  0  0  0  0  0  0  0  0  0
   -4.8483   17.7923  -35.9484 H   0  0  0  0  0  0  0  0  0  0  0  0
   -5.1730   16.5180  -34.2140 C   0  0  0  0  0  0  0  0  0  0  0  0
   -4.4430   15.4190  -34.6880 O   0  0  0  0  0  0  0  0  0  0  0  0
   -3.1660   15.5130  -35.3170 C   0  0  0  0  0  0  0  0  0  0  0  0
   -2.3818   15.5707  -34.5478 H   0  0  0  0  0  0  0  0  0  0  0  0
   -2.9999   14.6247  -35.9441 H   0  0  0  0  0  0  0  0  0  0  0  0
   -3.1317   16.4161  -35.9441 H   0  0  0  0  0  0  0  0  0  0  0  0
   -5.7830   16.4210  -32.9570 C   0  0  0  0  0  0  0  0  0  0  0  0
   -5.6839   15.4939  -32.3733 H   0  0  0  0  0  0  0  0  0  0  0  0
   -6.5170   17.4920  -32.4370 C   0  0  0  0  0  0  0  0  0  0  0  0
   -7.0033   17.3981  -31.4548 H   0  0  0  0  0  0  0  0  0  0  0  0
  1  2  1  0
  2  3  2  0
  3  4  1  0
  4  5  2  0
  5  6  1  0
  6  7  2  0
  6  8  1  0
  8  9  1  0
  8 10  1  0
  8 11  1  0
 11 12  1  1
 11 13  1  0
 13 14  2  0
 14 15  1  0
 14 16  1  0
 16 17  1  0
 16 18  2  0
 18 19  1  0
 18 20  1  0
 20 21  1  0
 20 22  2  0
 22 23  1  0
 11 24  1  0
 24 25  1  1
 24 26  1  0
 26 27  1  0
 26 28  1  0
 26 29  1  0
 29 30  1  0
 30 31  1  0
 30 32  1  0
 30 33  1  0
 29 34  1  0
 34 35  1  0
 34 36  1  0
  2 37  1  0
 37 38  2  0
 38 39  1  0
 38 40  1  0
 40 41  1  0
 40 42  2  0
 42 43  1  0
 43 44  1  0
 44 45  1  0
 44 46  1  0
 44 47  1  0
 42 48  1  0
 48 49  1  0
 48 50  2  0
 50 51  1  0
 34  3  1  0
 50 37  1  0
 24  4  1  0
 22 13  1  0
M  CHG  1   8   1
M  END
>  <UniqueID>  (4) 
2

>  <SMILES>  (4) 
COc1ccc(/C=C2/CN(C)C[C@H]3C2=NC(=S)[NH2+][C@H]3c2ccc(Cl)cc2)cc1

>  <Energy>  (4) 
78.75096897176066

>  <Genealogy>  (4) 
COc1ccc(C=C2CN(C)CC3C2=NC(=S)[NH2+]C3c2ccc(Cl)cc2)cc1 (protonated)
COc1ccc(C=C2CN(C)C[C@H]3C2=NC(=S)[NH2+][C@H]3c2ccc(Cl)cc2)cc1 (chirality)
COc1ccc(/C=C2/CN(C)C[C@H]3C2=NC(=S)[NH2+][C@H]3c2ccc(Cl)cc2)cc1 (cis-trans isomerization)
COc1ccc(/C=C2/CN(C)C[C@H]3C2=NC(=S)[NH2+][C@H]3c2ccc(Cl)cc2)cc1 (3D coordinates assigned)
COc1ccc(/C=C2/CN(C)C[C@H]3C2=NC(=S)[NH2+][C@H]3c2ccc(Cl)cc2)cc1 (nonaromatic ring conformer: 78.75096897176066 kcal/mol)

>  <smiles>  (4) 
COc1ccc(C=C2CN(C)CC3C2=NC(=S)NC3c2ccc(Cl)cc2)cc1

>  <score_type>  (4) 
oracle

>  <origin>  (4) 
adg

>  <m_score__min__energy>  (4) 
-8.1099999999999994

>  <m_primary>  (4) 
energy

$$$$
4:0
     RDKit          3D

 28 29  0  0  0  0  0  0  0  0999 V2000
   -4.5290   24.1690  -28.4220 C   0  0  0  0  0  0  0  0  0  0  0  0
   -5.2640   24.8090  -29.9080 S   0  0  0  0  0  0  0  0  0  0  0  0
   -4.1770   25.2240  -30.8600 O   0  0  0  0  0  0  0  0  0  0  0  0
   -6.1190   26.0020  -29.5860 O   0  0  0  0  0  0  0  0  0  0  0  0
   -6.2500   23.5690  -30.6560 C   0  0  0  0  0  0  0  0  0  0  0  0
   -5.7670   22.3980  -31.1100 N   0  0  0  0  0  0  0  0  0  0  0  0
   -6.8090   21.7380  -31.5920 N   0  0  0  0  0  0  0  0  0  0  0  0
   -6.7060   20.4300  -32.1760 C   0  0  0  0  0  0  0  0  0  0  0  0
   -7.3820   19.3500  -31.5890 C   0  0  0  0  0  0  0  0  0  0  0  0
   -7.3060   18.0750  -32.1590 C   0  0  0  0  0  0  0  0  0  0  0  0
   -6.5680   17.8740  -33.3300 C   0  0  0  0  0  0  0  0  0  0  0  0
   -6.4690   16.1330  -34.1100 Br  0  0  0  0  0  0  0  0  0  0  0  0
   -5.9120   18.9500  -33.9330 C   0  0  0  0  0  0  0  0  0  0  0  0
   -5.9850   20.2260  -33.3640 C   0  0  0  0  0  0  0  0  0  0  0  0
   -7.9060   22.5200  -31.4480 C   0  0  0  0  0  0  0  0  0  0  0  0
   -9.3010   22.1920  -31.9040 C   0  0  0  0  0  0  0  0  0  0  0  0
   -9.2780   21.0740  -32.7180 F   0  0  0  0  0  0  0  0  0  0  0  0
   -9.8180   23.2530  -32.6210 F   0  0  0  0  0  0  0  0  0  0  0  0
  -10.1160   21.9230  -30.8200 F   0  0  0  0  0  0  0  0  0  0  0  0
   -7.5790   23.6780  -30.8430 N   0  0  0  0  0  0  0  0  0  0  0  0
   -5.0314   24.6064  -27.5466 H   0  0  0  0  0  0  0  0  0  0  0  0
   -4.6401   23.0749  -28.3998 H   0  0  0  0  0  0  0  0  0  0  0  0
   -3.4605   24.4296  -28.3998 H   0  0  0  0  0  0  0  0  0  0  0  0
   -7.9749   19.5067  -30.6758 H   0  0  0  0  0  0  0  0  0  0  0  0
   -7.8271   17.2296  -31.6859 H   0  0  0  0  0  0  0  0  0  0  0  0
   -5.3367   18.7936  -34.8574 H   0  0  0  0  0  0  0  0  0  0  0  0
   -5.4761   21.0723  -33.8486 H   0  0  0  0  0  0  0  0  0  0  0  0
   -8.1990   24.4800  -30.5920 H   0  0  0  0  0  0  0  0  0  0  0  0
  1  2  1  0
  2  3  2  0
  2  4  2  0
  2  5  1  0
  5  6  2  0
  6  7  1  0
  7  8  1  0
  8  9  2  0
  9 10  1  0
 10 11  2  0
 11 12  1  0
 11 13  1  0
 13 14  2  0
  7 15  1  0
 15 16  1  0
 16 17  1  0
 16 18  1  0
 16 19  1  0
 15 20  2  0
 20  5  1  0
 14  8  1  0
  1 21  1  0
  1 22  1  0
  1 23  1  0
  9 24  1  0
 10 25  1  0
 13 26  1  0
 14 27  1  0
 20 28  1  0
M  CHG  1  20   1
M  END
>  <UniqueID>  (5) 
3

>  <SMILES>  (5) 
CS(=O)(=O)c1nn(-c2ccc(Br)cc2)c(C(F)(F)F)[nH+]1

>  <Energy>  (5) 
65.43789624929366

>  <Genealogy>  (5) 
CS(=O)(=O)c1nn(-c2ccc(Br)cc2)c(C(F)(F)F)[nH+]1 (protonated)
CS(=O)(=O)c1nn(-c2ccc(Br)cc2)c(C(F)(F)F)[nH+]1 (3D coordinates assigned)
CS(=O)(=O)c1nn(-c2ccc(Br)cc2)c(C(F)(F)F)[nH+]1 (optimized conformer: 65.43789624929366 kcal/mol)

>  <smiles>  (5) 
CS(=O)(=O)c1nc(C(F)(F)F)n(-c2ccc(Br)cc2)n1

>  <score_type>  (5) 
oracle

>  <origin>  (5) 
adg

>  <m_score__min__energy>  (5) 
-7.4000000000000004

>  <m_primary>  (5) 
energy

$$$$
5:0
     RDKit          3D

 35 37  0  0  0  0  0  0  0  0999 V2000
   -1.6710   24.4650  -28.7750 C   0  0  0  0  0  0  0  0  0  0  0  0
   -2.4340   23.3380  -29.4600 C   0  0  0  0  0  0  0  0  0  0  0  0
   -3.7360   23.8360  -29.9980 C   0  0  0  0  0  0  0  0  0  0  0  0
   -4.9310   23.2890  -29.7040 N   0  0  0  0  0  0  0  0  0  0  0  0
   -5.7580   24.0620  -30.4380 C   0  0  0  0  0  0  0  0  0  0  0  0
   -7.2450   23.8950  -30.4580 C   0  0  0  0  0  0  0  0  0  0  0  0
   -7.6570   23.0810  -31.6120 N   0  0  0  0  0  0  0  0  0  0  0  0
   -8.8970   23.4210  -32.3220 C   0  0  0  0  0  0  0  0  0  0  0  0
   -6.8480   21.9670  -32.0680 C   0  0  0  0  0  0  0  0  0  0  0  0
   -7.4560   20.7290  -32.3970 C   0  0  0  0  0  0  0  0  0  0  0  0
   -6.6310   19.7040  -32.8450 C   0  0  0  0  0  0  0  0  0  0  0  0
   -6.9910   18.4630  -33.2120 N   0  0  0  0  0  0  0  0  0  0  0  0
   -5.8430   17.8450  -33.5700 C   0  0  0  0  0  0  0  0  0  0  0  0
   -5.7570   16.0400  -34.1800 Br  0  0  0  0  0  0  0  0  0  0  0  0
   -4.7500   18.6940  -33.4320 C   0  0  0  0  0  0  0  0  0  0  0  0
   -5.2840   19.8760  -32.9690 C   0  0  0  0  0  0  0  0  0  0  0  0
   -4.6870   21.0850  -32.6450 C   0  0  0  0  0  0  0  0  0  0  0  0
   -5.4820   22.1040  -32.2010 N   0  0  0  0  0  0  0  0  0  0  0  0
   -5.1030   25.0130  -31.1320 N   0  0  0  0  0  0  0  0  0  0  0  0
   -3.8520   24.8370  -30.8350 O   0  0  0  0  0  0  0  0  0  0  0  0
   -1.7488   24.3501  -27.6838 H   0  0  0  0  0  0  0  0  0  0  0  0
   -0.6130   24.4257  -29.0733 H   0  0  0  0  0  0  0  0  0  0  0  0
   -2.1004   25.4328  -29.0733 H   0  0  0  0  0  0  0  0  0  0  0  0
   -1.8280   22.9424  -30.2884 H   0  0  0  0  0  0  0  0  0  0  0  0
   -2.6342   22.5461  -28.7233 H   0  0  0  0  0  0  0  0  0  0  0  0
   -7.5658   23.3972  -29.5310 H   0  0  0  0  0  0  0  0  0  0  0  0
   -7.7132   24.8872  -30.5375 H   0  0  0  0  0  0  0  0  0  0  0  0
   -9.6900   23.6384  -31.5914 H   0  0  0  0  0  0  0  0  0  0  0  0
   -8.7273   24.3058  -32.9532 H   0  0  0  0  0  0  0  0  0  0  0  0
   -9.2023   22.5734  -32.9532 H   0  0  0  0  0  0  0  0  0  0  0  0
   -8.5423   20.5849  -32.3011 H   0  0  0  0  0  0  0  0  0  0  0  0
   -7.9540   18.0590  -33.2190 H   0  0  0  0  0  0  0  0  0  0  0  0
   -3.6941   18.4710  -33.6452 H   0  0  0  0  0  0  0  0  0  0  0  0
   -3.5998   21.2205  -32.7430 H   0  0  0  0  0  0  0  0  0  0  0  0
   -5.0120   23.0000  -31.9460 H   0  0  0  0  0  0  0  0  0  0  0  0
  1  2  1  0
  2  3  1  0
  3  4  2  0
  4  5  1  0
  5  6  1  0
  6  7  1  0
  7  8  1  0
  7  9  1  0
  9 10  2  0
 10 11  1  0
 11 12  1  0
 12 13  1  0
 13 14  1  0
 13 15  2  0
 15 16  1  0
 16 17  1  0
 17 18  2  0
  5 19  2  0
 19 20  1  0
 20  3  1  0
 18  9  1  0
 16 11  2  0
  1 21  1  0
  1 22  1  0
  1 23  1  0
  2 24  1  0
  2 25  1  0
  6 26  1  0
  6 27  1  0
  8 28  1  0
  8 29  1  0
  8 30  1  0
 10 31  1  0
 12 32  1  0
 15 33  1  0
 17 34  1  0
 18 35  1  0
M  CHG  1  18   1
M  END
>  <UniqueID>  (6) 
4

>  <SMILES>  (6) 
CCc1nc(CN(C)c2cc3[nH]c(Br)cc3c[nH+]2)no1

>  <Energy>  (6) 
99.61562496215075

>  <Genealogy>  (6) 
CCc1nc(CN(C)c2cc3[nH]c(Br)cc3c[nH+]2)no1 (protonated)
CCc1nc(CN(C)c2cc3[nH]c(Br)cc3c[nH+]2)no1 (3D coordinates assigned)
CCc1nc(CN(C)c2cc3[nH]c(Br)cc3c[nH+]2)no1 (optimized conformer: 99.61562496215075 kcal/mol)

>  <smiles>  (6) 
CCc1nc(CN(C)c2cc3[nH]c(Br)cc3cn2)no1

>  <score_type>  (6) 
oracle

>  <origin>  (6) 
adg

>  <m_score__min__energy>  (6) 
-7.1900000000000004

>  <m_primary>  (6) 
energy

$$$$
6:0
     RDKit          3D

 48 49  0  0  0  0  0  0  0  0999 V2000
   -8.7190   19.1760  -31.5960 C   0  0  0  0  0  0  0  0  0  0  0  0
   -9.3850   20.2610  -32.4430 C   0  0  0  0  0  0  0  0  0  0  0  0
   -9.4940   21.6080  -31.7090 C   0  0  0  0  0  0  0  0  0  0  0  0
   -8.2880   22.5350  -31.9340 C   0  0  0  0  0  0  0  0  0  0  0  0
   -7.3000   22.3910  -30.8410 N   0  0  0  0  0  0  0  0  0  0  0  0
   -6.2050   21.4620  -31.2060 C   0  0  0  0  0  0  0  0  0  0  0  0
   -6.1050   21.2270  -32.7210 C   0  0  0  0  0  0  0  0  0  0  0  0
   -4.7070   20.7500  -33.1390 C   0  0  0  0  0  0  0  0  0  0  0  0
   -3.6310   21.7200  -32.6620 C   0  0  0  0  0  0  0  0  0  0  0  0
   -6.8480   23.7010  -30.3090 C   0  0  0  0  0  0  0  0  0  0  0  0
   -5.5370   24.2360  -30.9340 C   0  0  0  0  0  0  0  0  0  0  0  0
   -4.3410   23.9700  -30.0690 C   0  0  0  0  0  0  0  0  0  0  0  0
   -3.3600   24.9070  -29.9550 N   0  0  0  0  0  0  0  0  0  0  0  0
   -2.2680   24.6990  -29.1760 C   0  0  0  0  0  0  0  0  0  0  0  0
   -1.3870   25.5970  -29.0950 O   0  0  0  0  0  0  0  0  0  0  0  0
   -2.1350   23.4910  -28.4720 C   0  0  0  0  0  0  0  0  0  0  0  0
   -1.0330   23.2150  -27.6440 C   0  0  0  0  0  0  0  0  0  0  0  0
   -0.9540   21.9940  -26.9680 C   0  0  0  0  0  0  0  0  0  0  0  0
   -1.9680   21.0420  -27.1120 C   0  0  0  0  0  0  0  0  0  0  0  0
   -1.8860   19.8600  -26.4540 F   0  0  0  0  0  0  0  0  0  0  0  0
   -3.0690   21.3080  -27.9330 C   0  0  0  0  0  0  0  0  0  0  0  0
   -3.1570   22.5280  -28.6120 C   0  0  0  0  0  0  0  0  0  0  0  0
   -4.2270   22.7880  -29.4080 N   0  0  0  0  0  0  0  0  0  0  0  0
   -8.8598   19.4054  -30.5294 H   0  0  0  0  0  0  0  0  0  0  0  0
   -9.1745   18.2012  -31.8246 H   0  0  0  0  0  0  0  0  0  0  0  0
   -7.6436   19.1409  -31.8246 H   0  0  0  0  0  0  0  0  0  0  0  0
   -8.7915   20.4064  -33.3577 H   0  0  0  0  0  0  0  0  0  0  0  0
  -10.4073   19.9235  -32.6687 H   0  0  0  0  0  0  0  0  0  0  0  0
  -10.3990   22.1237  -32.0626 H   0  0  0  0  0  0  0  0  0  0  0  0
   -9.5310   21.3849  -30.6325 H   0  0  0  0  0  0  0  0  0  0  0  0
   -7.8083   22.2764  -32.8895 H   0  0  0  0  0  0  0  0  0  0  0  0
   -8.6433   23.5759  -31.9518 H   0  0  0  0  0  0  0  0  0  0  0  0
   -5.2530   21.8843  -30.8521 H   0  0  0  0  0  0  0  0  0  0  0  0
   -6.4215   20.4925  -30.7336 H   0  0  0  0  0  0  0  0  0  0  0  0
   -6.8420   20.4637  -33.0112 H   0  0  0  0  0  0  0  0  0  0  0  0
   -6.3023   22.1838  -33.2265 H   0  0  0  0  0  0  0  0  0  0  0  0
   -4.5187   19.7596  -32.6988 H   0  0  0  0  0  0  0  0  0  0  0  0
   -4.6691   20.6983  -34.2371 H   0  0  0  0  0  0  0  0  0  0  0  0
   -3.6132   21.7360  -31.5623 H   0  0  0  0  0  0  0  0  0  0  0  0
   -2.6505   21.3947  -33.0399 H   0  0  0  0  0  0  0  0  0  0  0  0
   -3.8532   22.7289  -33.0399 H   0  0  0  0  0  0  0  0  0  0  0  0
   -7.6423   24.4388  -30.4953 H   0  0  0  0  0  0  0  0  0  0  0  0
   -6.6419   23.5473  -29.2395 H   0  0  0  0  0  0  0  0  0  0  0  0
   -5.3846   23.7471  -31.9075 H   0  0  0  0  0  0  0  0  0  0  0  0
   -5.6373   25.3261  -31.0416 H   0  0  0  0  0  0  0  0  0  0  0  0
   -0.2324   23.9603  -27.5280 H   0  0  0  0  0  0  0  0  0  0  0  0
   -0.0908   21.7813  -26.3202 H   0  0  0  0  0  0  0  0  0  0  0  0
   -3.8657   20.5578  -28.0447 H   0  0  0  0  0  0  0  0  0  0  0  0
  1  2  1  0
  2  3  1  0
  3  4  1  0
  4  5  1  0
  5  6  1  0
  6  7  1  0
  7  8  1  0
  8  9  1  0
  5 10  1  0
 10 11  1  0
 11 12  1  0
 12 13  2  0
 13 14  1  0
 14 15  2  0
 14 16  1  0
 16 17  2  0
 17 18  1  0
 18 19  2  0
 19 20  1  0
 19 21  1  0
 21 22  2  0
 22 23  1  0
 23 12  1  0
 22 16  1  0
  1 24  1  0
  1 25  1  0
  1 26  1  0
  2 27  1  0
  2 28  1  0
  3 29  1  0
  3 30  1  0
  4 31  1  0
  4 32  1  0
  6 33  1  0
  6 34  1  0
  7 35  1  0
  7 36  1  0
  8 37  1  0
  8 38  1  0
  9 39  1  0
  9 40  1  0
  9 41  1  0
 10 42  1  0
 10 43  1  0
 11 44  1  0
 11 45  1  0
 17 46  1  0
 18 47  1  0
 21 48  1  0
M  CHG  1  23  -1
M  END
>  <UniqueID>  (7) 
5

>  <SMILES>  (7) 
CCCCN(CCCC)CCc1nc(=O)c2ccc(F)cc2[n-]1

>  <Energy>  (7) 
44.04281640251981

>  <Genealogy>  (7) 
CCCCN(CCCC)CCc1nc(=O)c2ccc(F)cc2[n-]1 (protonated)
CCCCN(CCCC)CCc1nc(=O)c2ccc(F)cc2[n-]1 (3D coordinates assigned)
CCCCN(CCCC)CCc1nc(=O)c2ccc(F)cc2[n-]1 (optimized conformer: 44.04281640251981 kcal/mol)

>  <smiles>  (7) 
CCCCN(CCCC)CCc1nc(=O)c2ccc(F)cc2[nH]1

>  <score_type>  (7) 
oracle

>  <origin>  (7) 
adg

>  <m_score__min__energy>  (7) 
-8.1400000000000006

>  <m_primary>  (7) 
energy

$$$$
7:0
     RDKit          3D

 28 29  0  0  0  0  0  0  0  0999 V2000
   -3.8760   19.8510  -33.8840 O   0  0  0  0  0  0  0  0  0  0  0  0
   -3.6180   20.6090  -32.9100 C   0  0  0  0  0  0  0  0  0  0  0  0
   -2.2640   21.2370  -32.8090 C   0  0  0  0  0  0  0  0  0  0  0  0
   -1.5430   20.9440  -31.1570 S   0  0  0  0  0  0  0  0  0  0  0  0
   -2.0490   22.5240  -30.4770 C   0  0  0  0  0  0  0  0  0  0  0  0
   -1.2950   23.1380  -29.4740 C   0  0  0  0  0  0  0  0  0  0  0  0
   -1.7290   24.3650  -28.9720 C   0  0  0  0  0  0  0  0  0  0  0  0
   -2.8550   24.9390  -29.4690 N   0  0  0  0  0  0  0  0  0  0  0  0
   -3.5720   24.3330  -30.4530 C   0  0  0  0  0  0  0  0  0  0  0  0
   -4.6100   24.8820  -30.9020 O   0  0  0  0  0  0  0  0  0  0  0  0
   -3.1650   23.1360  -30.9510 N   0  0  0  0  0  0  0  0  0  0  0  0
   -4.6130   20.8680  -31.9080 N   0  0  0  0  0  0  0  0  0  0  0  0
   -5.9310   20.3050  -31.9580 C   0  0  0  0  0  0  0  0  0  0  0  0
   -6.0650   18.9160  -32.0950 C   0  0  0  0  0  0  0  0  0  0  0  0
   -7.3290   18.3280  -32.1460 C   0  0  0  0  0  0  0  0  0  0  0  0
   -8.4730   19.1240  -32.0770 C   0  0  0  0  0  0  0  0  0  0  0  0
   -8.3600   20.5140  -31.9690 C   0  0  0  0  0  0  0  0  0  0  0  0
   -9.8310   21.4770  -31.9170 Cl  0  0  0  0  0  0  0  0  0  0  0  0
   -7.0870   21.1150  -31.9180 C   0  0  0  0  0  0  0  0  0  0  0  0
   -6.9560   22.8750  -31.8840 Cl  0  0  0  0  0  0  0  0  0  0  0  0
   -1.6049   20.8007  -33.5739 H   0  0  0  0  0  0  0  0  0  0  0  0
   -2.3627   22.3212  -32.9663 H   0  0  0  0  0  0  0  0  0  0  0  0
   -0.3798   22.6647  -29.0888 H   0  0  0  0  0  0  0  0  0  0  0  0
   -1.1603   24.8666  -28.1752 H   0  0  0  0  0  0  0  0  0  0  0  0
   -4.4450   21.6570  -31.2430 H   0  0  0  0  0  0  0  0  0  0  0  0
   -5.1665   18.2851  -32.1628 H   0  0  0  0  0  0  0  0  0  0  0  0
   -7.4239   17.2362  -32.2407 H   0  0  0  0  0  0  0  0  0  0  0  0
   -9.4681   18.6563  -32.1077 H   0  0  0  0  0  0  0  0  0  0  0  0
  1  2  2  0
  2  3  1  0
  3  4  1  0
  4  5  1  0
  5  6  1  0
  6  7  2  0
  7  8  1  0
  8  9  1  0
  9 10  2  0
  9 11  1  0
  2 12  1  0
 12 13  1  0
 13 14  2  0
 14 15  1  0
 15 16  2  0
 16 17  1  0
 17 18  1  0
 17 19  2  0
 19 20  1  0
 11  5  2  0
 19 13  1  0
  3 21  1  0
  3 22  1  0
  6 23  1  0
  7 24  1  0
 12 25  1  0
 14 26  1  0
 15 27  1  0
 16 28  1  0
M  CHG  1   8  -1
M  END
>  <UniqueID>  (8) 
6

>  <SMILES>  (8) 
O=C(CSc1cc[n-]c(=O)n1)Nc1cccc(Cl)c1Cl

>  <Energy>  (8) 
31.226245944642294

>  <Genealogy>  (8) 
O=C(CSc1cc[n-]c(=O)n1)Nc1cccc(Cl)c1Cl (protonated)
O=C(CSc1cc[n-]c(=O)n1)Nc1cccc(Cl)c1Cl (3D coordinates assigned)
O=C(CSc1cc[n-]c(=O)n1)Nc1cccc(Cl)c1Cl (optimized conformer: 31.226245944642294 kcal/mol)

>  <smiles>  (8) 
O=C(CSc1cc[nH]c(=O)n1)Nc1cccc(Cl)c1Cl

>  <score_type>  (8) 
oracle

>  <origin>  (8) 
adg

>  <m_score__min__energy>  (8) 
-8.6999999999999993

>  <m_primary>  (8) 
energy

$$$$
8:0
     RDKit          3D

 59 61  0  0  0  0  0  0  0  0999 V2000
    0.7410   24.6630  -27.4250 H   0  0  0  0  0  0  0  0  0  0  0  0
    0.1710   25.0060  -28.1880 O   0  0  0  0  0  0  0  0  0  0  0  0
   -1.1530   24.6420  -28.2820 N   0  0  0  0  0  0  0  0  0  0  0  0
   -1.9980   25.1390  -29.1320 O   0  0  0  0  0  0  0  0  0  0  0  0
   -3.1740   24.5650  -28.9800 C   0  0  0  0  0  0  0  0  0  0  0  0
   -4.3570   24.8630  -29.8040 C   0  0  0  0  0  0  0  0  0  0  0  0
   -4.2240   25.5030  -30.8820 O   0  0  0  0  0  0  0  0  0  0  0  0
   -5.7340   24.4780  -29.3360 C   0  0  0  0  0  0  0  0  0  0  0  0
   -5.6952   23.4630  -28.9137 H   0  0  0  0  0  0  0  0  0  0  0  0
   -6.0542   25.2101  -28.5801 H   0  0  0  0  0  0  0  0  0  0  0  0
   -6.7560   24.5000  -30.4830 C   0  0  0  0  0  0  0  0  0  0  0  0
   -7.7589   24.6664  -30.0628 H   0  0  0  0  0  0  0  0  0  0  0  0
   -6.4765   25.3093  -31.1735 H   0  0  0  0  0  0  0  0  0  0  0  0
   -6.7600   23.2050  -31.2570 C   0  0  0  0  0  0  0  0  0  0  0  0
   -7.8170   22.2950  -31.1080 C   0  0  0  0  0  0  0  0  0  0  0  0
   -8.6944   22.5709  -30.5047 H   0  0  0  0  0  0  0  0  0  0  0  0
   -7.7630   21.0420  -31.7200 C   0  0  0  0  0  0  0  0  0  0  0  0
   -8.6026   20.3411  -31.6026 H   0  0  0  0  0  0  0  0  0  0  0  0
   -6.6450   20.6680  -32.4850 C   0  0  0  0  0  0  0  0  0  0  0  0
   -6.5610   19.3110  -33.0840 C   0  0  0  0  0  0  0  0  0  0  0  0
   -5.7660   19.0780  -34.2230 C   0  0  0  0  0  0  0  0  0  0  0  0
   -5.1929   19.9046  -34.6683 H   0  0  0  0  0  0  0  0  0  0  0  0
   -5.7010   17.8020  -34.7910 C   0  0  0  0  0  0  0  0  0  0  0  0
   -5.0773   17.6282  -35.6802 H   0  0  0  0  0  0  0  0  0  0  0  0
   -6.4260   16.7480  -34.2320 C   0  0  0  0  0  0  0  0  0  0  0  0
   -6.3727   15.7452  -34.6809 H   0  0  0  0  0  0  0  0  0  0  0  0
   -7.2190   16.9660  -33.1030 C   0  0  0  0  0  0  0  0  0  0  0  0
   -7.7906   16.1349  -32.6642 H   0  0  0  0  0  0  0  0  0  0  0  0
   -7.2870   18.2400  -32.5300 C   0  0  0  0  0  0  0  0  0  0  0  0
   -7.9121   18.4061  -31.6403 H   0  0  0  0  0  0  0  0  0  0  0  0
   -5.5980   21.5920  -32.6530 C   0  0  0  0  0  0  0  0  0  0  0  0
   -4.7259   21.3221  -33.2667 H   0  0  0  0  0  0  0  0  0  0  0  0
   -5.6560   22.8500  -32.0470 C   0  0  0  0  0  0  0  0  0  0  0  0
   -4.8325   23.5651  -32.1900 H   0  0  0  0  0  0  0  0  0  0  0  0
   -3.0970   23.6300  -27.9560 C   0  0  0  0  0  0  0  0  0  0  0  0
   -3.8943   22.9819  -27.5631 H   0  0  0  0  0  0  0  0  0  0  0  0
   -1.7760   23.7090  -27.5480 C   0  0  0  0  0  0  0  0  0  0  0  0
   -1.1860   23.0110  -26.6220 N   0  0  0  0  0  0  0  0  0  0  0  0
   -0.2500   21.9080  -26.8380 C   0  0  0  0  0  0  0  0  0  0  0  0
    0.5310   21.9410  -26.0641 H   0  0  0  0  0  0  0  0  0  0  0  0
    0.1965   22.0153  -27.8376 H   0  0  0  0  0  0  0  0  0  0  0  0
   -0.9750   20.5540  -26.7650 C   0  0  0  0  0  0  0  0  0  0  0  0
   -1.2349   20.3391  -25.7180 H   0  0  0  0  0  0  0  0  0  0  0  0
   -0.3084   19.7730  -27.1596 H   0  0  0  0  0  0  0  0  0  0  0  0
   -2.2140   20.5810  -27.5790 N   0  0  0  0  0  0  0  0  0  0  0  0
   -3.1850   19.5460  -27.1320 C   0  0  0  0  0  0  0  0  0  0  0  0
   -3.5626   19.0000  -28.0091 H   0  0  0  0  0  0  0  0  0  0  0  0
   -4.0170   20.0389  -26.6077 H   0  0  0  0  0  0  0  0  0  0  0  0
   -2.5110   18.5630  -26.1790 C   0  0  0  0  0  0  0  0  0  0  0  0
   -2.7153   18.8610  -25.1400 H   0  0  0  0  0  0  0  0  0  0  0  0
   -2.9067   17.5518  -26.3550 H   0  0  0  0  0  0  0  0  0  0  0  0
   -1.4252   18.5676  -26.3550 H   0  0  0  0  0  0  0  0  0  0  0  0
   -1.8980   20.4660  -29.0210 C   0  0  0  0  0  0  0  0  0  0  0  0
   -1.0226   21.0929  -29.2462 H   0  0  0  0  0  0  0  0  0  0  0  0
   -1.6912   19.4092  -29.2457 H   0  0  0  0  0  0  0  0  0  0  0  0
   -3.0700   20.9200  -29.8890 C   0  0  0  0  0  0  0  0  0  0  0  0
   -3.9009   21.2419  -29.2440 H   0  0  0  0  0  0  0  0  0  0  0  0
   -2.7521   21.7600  -30.5240 H   0  0  0  0  0  0  0  0  0  0  0  0
   -3.4010   20.0850  -30.5240 H   0  0  0  0  0  0  0  0  0  0  0  0
  1  2  1  0
  2  3  1  0
  3  4  1  0
  4  5  1  0
  5  6  1  0
  6  7  2  0
  6  8  1  0
  8  9  1  0
  8 10  1  0
  8 11  1  0
 11 12  1  0
 11 13  1  0
 11 14  1  0
 14 15  2  0
 15 16  1  0
 15 17  1  0
 17 18  1  0
 17 19  2  0
 19 20  1  0
 20 21  2  0
 21 22  1  0
 21 23  1  0
 23 24  1  0
 23 25  2  0
 25 26  1  0
 25 27  1  0
 27 28  1  0
 27 29  2  0
 29 30  1  0
 19 31  1  0
 31 32  1  0
 31 33  2  0
 33 34  1  0
  5 35  2  0
 35 36  1  0
 35 37  1  0
 37 38  2  0
 38 39  1  0
 39 40  1  0
 39 41  1  0
 39 42  1  0
 42 43  1  0
 42 44  1  0
 42 45  1  0
 45 46  1  0
 46 47  1  0
 46 48  1  0
 46 49  1  0
 49 50  1  0
 49 51  1  0
 49 52  1  0
 45 53  1  0
 53 54  1  0
 53 55  1  0
 53 56  1  0
 56 57  1  0
 56 58  1  0
 56 59  1  0
 37  3  1  0
 33 14  1  0
 29 20  1  0
M  END
>  <UniqueID>  (9) 
7

>  <SMILES>  (9) 
CCN(CC)CC/N=c1\cc(C(=O)CCc2ccc(-c3ccccc3)cc2)on1O

>  <Energy>  (9) 
89.38635167123752

>  <Genealogy>  (9) 
CCN(CC)CC/N=c1\cc(C(=O)CCc2ccc(-c3ccccc3)cc2)on1O (cis-trans isomerization)
CCN(CC)CC/N=c1\cc(C(=O)CCc2ccc(-c3ccccc3)cc2)on1O (3D coordinates assigned)
CCN(CC)CC/N=c1\cc(C(=O)CCc2ccc(-c3ccccc3)cc2)on1O (optimized conformer: 89.38635167123752 kcal/mol)

>  <smiles>  (9) 
CCN(CC)CCN=c1cc(C(=O)CCc2ccc(-c3ccccc3)cc2)on1O

>  <score_type>  (9) 
oracle

>  <origin>  (9) 
adg

>  <m_score__min__energy>  (9) 
-10.74

>  <m_primary>  (9) 
energy

$$$$
9:0
     RDKit          3D

 48 51  0  0  0  0  0  0  0  0999 V2000
   -1.3960   20.7600  -29.8030 C   0  0  0  0  0  0  0  0  0  0  0  0
   -1.9470   21.6580  -28.7010 C   0  0  0  0  0  0  0  0  0  0  0  0
   -1.2440   22.9410  -28.6940 N   0  0  0  0  0  0  0  0  0  0  0  0
    0.0840   23.1370  -28.6090 C   0  0  0  0  0  0  0  0  0  0  0  0
    0.3770   24.4520  -28.5610 N   0  0  0  0  0  0  0  0  0  0  0  0
   -0.7720   25.1120  -28.6050 N   0  0  0  0  0  0  0  0  0  0  0  0
   -1.7510   24.1900  -28.6730 C   0  0  0  0  0  0  0  0  0  0  0  0
   -3.2080   24.5350  -28.7600 C   0  0  0  0  0  0  0  0  0  0  0  0
   -3.5070   25.1430  -30.0520 N   0  0  0  0  0  0  0  0  0  0  0  0
   -4.6770   24.8380  -30.8200 C   0  0  0  0  0  0  0  0  0  0  0  0
   -5.5380   25.7310  -31.0430 O   0  0  0  0  0  0  0  0  0  0  0  0
   -4.8620   23.4740  -31.3480 C   0  0  0  0  0  0  0  0  0  0  0  0
   -3.7620   22.6450  -31.6280 C   0  0  0  0  0  0  0  0  0  0  0  0
   -3.9760   21.3570  -32.1230 C   0  0  0  0  0  0  0  0  0  0  0  0
   -5.2820   20.9010  -32.3390 C   0  0  0  0  0  0  0  0  0  0  0  0
   -5.5310   19.6120  -32.8350 C   0  0  0  0  0  0  0  0  0  0  0  0
   -6.8530   19.1810  -33.0500 C   0  0  0  0  0  0  0  0  0  0  0  0
   -7.1500   17.8980  -33.5350 O   0  0  0  0  0  0  0  0  0  0  0  0
   -6.2020   16.9530  -33.9510 C   0  0  0  0  0  0  0  0  0  0  0  0
   -6.4870   15.5930  -33.8030 C   0  0  0  0  0  0  0  0  0  0  0  0
   -5.5570   14.6450  -34.2320 C   0  0  0  0  0  0  0  0  0  0  0  0
   -4.3380   15.0570  -34.7970 C   0  0  0  0  0  0  0  0  0  0  0  0
   -3.3470   14.0440  -35.3110 C   0  0  0  0  0  0  0  0  0  0  0  0
   -2.3630   14.6630  -36.0610 F   0  0  0  0  0  0  0  0  0  0  0  0
   -3.9790   13.1080  -36.1130 F   0  0  0  0  0  0  0  0  0  0  0  0
   -2.7600   13.3970  -34.2400 F   0  0  0  0  0  0  0  0  0  0  0  0
   -4.1100   16.4320  -34.9580 C   0  0  0  0  0  0  0  0  0  0  0  0
   -5.0330   17.3360  -34.5340 N   0  0  0  0  0  0  0  0  0  0  0  0
   -7.9170   20.0360  -32.7330 C   0  0  0  0  0  0  0  0  0  0  0  0
   -7.6750   21.3200  -32.2380 C   0  0  0  0  0  0  0  0  0  0  0  0
   -6.3620   21.7590  -32.0430 C   0  0  0  0  0  0  0  0  0  0  0  0
   -6.1240   23.0080  -31.5610 N   0  0  0  0  0  0  0  0  0  0  0  0
   -0.8714   19.9051  -29.3514 H   0  0  0  0  0  0  0  0  0  0  0  0
   -2.2250   20.3938  -30.4264 H   0  0  0  0  0  0  0  0  0  0  0  0
   -0.6940   21.3332  -30.4264 H   0  0  0  0  0  0  0  0  0  0  0  0
   -3.0188   21.8322  -28.8766 H   0  0  0  0  0  0  0  0  0  0  0  0
   -1.8003   21.1638  -27.7293 H   0  0  0  0  0  0  0  0  0  0  0  0
    0.8320   22.3309  -28.5822 H   0  0  0  0  0  0  0  0  0  0  0  0
   -3.8056   23.6190  -28.6428 H   0  0  0  0  0  0  0  0  0  0  0  0
   -3.4551   25.2503  -27.9617 H   0  0  0  0  0  0  0  0  0  0  0  0
   -2.7380   23.0090  -31.4581 H   0  0  0  0  0  0  0  0  0  0  0  0
   -3.1201   20.7019  -32.3428 H   0  0  0  0  0  0  0  0  0  0  0  0
   -4.6909   18.9372  -33.0561 H   0  0  0  0  0  0  0  0  0  0  0  0
   -7.4374   15.2720  -33.3517 H   0  0  0  0  0  0  0  0  0  0  0  0
   -5.7787   13.5726  -34.1276 H   0  0  0  0  0  0  0  0  0  0  0  0
   -3.1795   16.7806  -35.4298 H   0  0  0  0  0  0  0  0  0  0  0  0
   -8.9525   19.6931  -32.8752 H   0  0  0  0  0  0  0  0  0  0  0  0
   -8.5180   21.9859  -32.0016 H   0  0  0  0  0  0  0  0  0  0  0  0
  1  2  1  0
  2  3  1  0
  3  4  1  0
  4  5  2  0
  5  6  1  0
  6  7  2  0
  7  8  1  0
  8  9  1  0
  9 10  1  0
 10 11  2  0
 10 12  1  0
 12 13  2  0
 13 14  1  0
 14 15  2  0
 15 16  1  0
 16 17  2  0
 17 18  1  0
 18 19  1  0
 19 20  2  0
 20 21  1  0
 21 22  2  0
 22 23  1  0
 23 24  1  0
 23 25  1  0
 23 26  1  0
 22 27  1  0
 27 28  2  0
 17 29  1  0
 29 30  2  0
 30 31  1  0
 31 32  2  0
  7  3  1  0
 32 12  1  0
 31 15  1  0
 28 19  1  0
  1 33  1  0
  1 34  1  0
  1 35  1  0
  2 36  1  0
  2 37  1  0
  4 38  1  0
  8 39  1  0
  8 40  1  0
 13 41  1  0
 14 42  1  0
 16 43  1  0
 20 44  1  0
 21 45  1  0
 27 46  1  0
 29 47  1  0
 30 48  1  0
M  CHG  1   9  -1
M  END
>  <UniqueID>  (10) 
8

>  <SMILES>  (10) 
CCn1cnnc1C[N-]C(=O)c1ccc2cc(Oc3ccc(C(F)(F)F)cn3)ccc2n1

>  <Energy>  (10) 
89.06934359431582

>  <Genealogy>  (10) 
CCn1cnnc1C[N-]C(=O)c1ccc2cc(Oc3ccc(C(F)(F)F)cn3)ccc2n1 (protonated)
CCn1cnnc1C[N-]C(=O)c1ccc2cc(Oc3ccc(C(F)(F)F)cn3)ccc2n1 (3D coordinates assigned)
CCn1cnnc1C[N-]C(=O)c1ccc2cc(Oc3ccc(C(F)(F)F)cn3)ccc2n1 (optimized conformer: 89.06934359431582 kcal/mol)

>  <smiles>  (10) 
CCn1cnnc1CNC(=O)c1ccc2cc(Oc3ccc(C(F)(F)F)cn3)ccc2n1

>  <score_type>  (10) 
oracle

>  <origin>  (10) 
adg

>  <m_score__min__energy>  (10) 
-10.76

>  <m_primary>  (10) 
energy

$$$$
10:0
     RDKit          3D

 49 52  0  0  0  0  0  0  0  0999 V2000
   -2.3385   22.3197  -26.4702 H   0  0  0  0  0  0  0  0  0  0  0  0
   -1.3230   21.9310  -26.3040 C   0  0  0  0  0  0  0  0  0  0  0  0
   -0.4990   22.6060  -25.4960 C   0  0  0  0  0  0  0  0  0  0  0  0
    0.1883   22.0418  -24.8485 H   0  0  0  0  0  0  0  0  0  0  0  0
   -0.4780   24.0870  -25.4410 C   0  0  0  0  0  0  0  0  0  0  0  0
   -0.6880   24.9030  -26.5180 N   0  0  0  0  0  0  0  0  0  0  0  0
   -0.9070   24.5410  -27.9250 C   0  0  0  0  0  0  0  0  0  0  0  0
   -0.5761   23.5042  -28.0847 H   0  0  0  0  0  0  0  0  0  0  0  0
   -0.3310   25.2329  -28.5570 H   0  0  0  0  0  0  0  0  0  0  0  0
   -2.3620   24.6550  -28.2950 C   0  0  0  0  0  0  0  0  0  0  0  0
   -3.2320   24.5390  -27.3920 O   0  0  0  0  0  0  0  0  0  0  0  0
   -2.7930   24.9130  -29.6360 N   0  0  0  0  0  0  0  0  0  0  0  0
   -3.6160   24.0390  -30.4210 C   0  0  0  0  0  0  0  0  0  0  0  0
   -3.1250   22.7860  -30.8630 C   0  0  0  0  0  0  0  0  0  0  0  0
   -1.7170   22.3340  -30.5790 C   0  0  0  0  0  0  0  0  0  0  0  0
   -1.5604   22.2837  -29.4914 H   0  0  0  0  0  0  0  0  0  0  0  0
   -1.5556   21.3389  -31.0191 H   0  0  0  0  0  0  0  0  0  0  0  0
   -1.0065   23.0492  -31.0191 H   0  0  0  0  0  0  0  0  0  0  0  0
   -3.9660   21.9360  -31.5970 C   0  0  0  0  0  0  0  0  0  0  0  0
   -3.5784   20.9783  -31.9745 H   0  0  0  0  0  0  0  0  0  0  0  0
   -5.2890   22.2950  -31.8520 C   0  0  0  0  0  0  0  0  0  0  0  0
   -5.9424   21.6162  -32.4197 H   0  0  0  0  0  0  0  0  0  0  0  0
   -5.7850   23.5120  -31.3890 C   0  0  0  0  0  0  0  0  0  0  0  0
   -6.8336   23.7825  -31.5818 H   0  0  0  0  0  0  0  0  0  0  0  0
   -4.9580   24.3950  -30.6790 C   0  0  0  0  0  0  0  0  0  0  0  0
   -5.5380   25.6790  -30.1520 C   0  0  0  0  0  0  0  0  0  0  0  0
   -5.5298   25.6609  -29.0522 H   0  0  0  0  0  0  0  0  0  0  0  0
   -4.9357   26.5273  -30.5092 H   0  0  0  0  0  0  0  0  0  0  0  0
   -6.5727   25.7878  -30.5092 H   0  0  0  0  0  0  0  0  0  0  0  0
   -0.6360   26.1490  -26.0040 C   0  0  0  0  0  0  0  0  0  0  0  0
   -0.8040   27.3780  -26.6490 C   0  0  0  0  0  0  0  0  0  0  0  0
   -1.0157   27.4302  -27.7272 H   0  0  0  0  0  0  0  0  0  0  0  0
   -0.6930   28.5460  -25.8720 C   0  0  0  0  0  0  0  0  0  0  0  0
   -0.8150   29.5309  -26.3464 H   0  0  0  0  0  0  0  0  0  0  0  0
   -0.4260   28.4630  -24.4870 C   0  0  0  0  0  0  0  0  0  0  0  0
   -0.3396   29.3833  -23.8907 H   0  0  0  0  0  0  0  0  0  0  0  0
   -0.2700   27.2100  -23.8660 C   0  0  0  0  0  0  0  0  0  0  0  0
   -0.0661   27.1301  -22.7880 H   0  0  0  0  0  0  0  0  0  0  0  0
   -0.3830   26.0740  -24.6650 C   0  0  0  0  0  0  0  0  0  0  0  0
   -0.2810   24.7900  -24.2950 N   0  0  0  0  0  0  0  0  0  0  0  0
   -0.1220   24.4300  -23.3270 H   0  0  0  0  0  0  0  0  0  0  0  0
   -0.9200   20.6850  -26.9800 C   0  0  0  0  0  0  0  0  0  0  0  0
    0.2790   20.5100  -28.1520 S   0  0  0  0  0  0  0  0  0  0  0  0
    0.1170   18.8480  -28.3380 C   0  0  0  0  0  0  0  0  0  0  0  0
    0.7008   18.2162  -29.0236 H   0  0  0  0  0  0  0  0  0  0  0  0
   -0.8810   18.4090  -27.4770 C   0  0  0  0  0  0  0  0  0  0  0  0
   -1.1868   17.3553  -27.3983 H   0  0  0  0  0  0  0  0  0  0  0  0
   -1.4610   19.4330  -26.7190 C   0  0  0  0  0  0  0  0  0  0  0  0
   -2.2658   19.2627  -25.9887 H   0  0  0  0  0  0  0  0  0  0  0  0
  1  2  1  0
  2  3  2  0
  3  4  1  0
  3  5  1  0
  5  6  1  0
  6  7  1  0
  7  8  1  0
  7  9  1  0
  7 10  1  0
 10 11  2  0
 10 12  1  0
 12 13  1  0
 13 14  2  0
 14 15  1  0
 15 16  1  0
 15 17  1  0
 15 18  1  0
 14 19  1  0
 19 20  1  0
 19 21  2  0
 21 22  1  0
 21 23  1  0
 23 24  1  0
 23 25  2  0
 25 26  1  0
 26 27  1  0
 26 28  1  0
 26 29  1  0
  6 30  1  0
 30 31  2  0
 31 32  1  0
 31 33  1  0
 33 34  1  0
 33 35  2  0
 35 36  1  0
 35 37  1  0
 37 38  1  0
 37 39  2  0
 39 40  1  0
 40 41  1  0
  2 42  1  0
 42 43  1  0
 43 44  1  0
 44 45  1  0
 44 46  2  0
 46 47  1  0
 46 48  1  0
 48 49  1  0
 40  5  2  0
 48 42  2  0
 25 13  1  0
 39 30  1  0
M  CHG  2  12  -1  40   1
M  END
>  <UniqueID>  (11) 
9

>  <SMILES>  (11) 
Cc1cccc(C)c1[N-]C(=O)Cn1c(/C=C/c2cccs2)[nH+]c2ccccc21

>  <Energy>  (11) 
118.69370096731458

>  <Genealogy>  (11) 
Cc1cccc(C)c1[N-]C(=O)Cn1c(C=Cc2cccs2)[nH+]c2ccccc21 (protonated)
Cc1cccc(C)c1[N-]C(=O)Cn1c(/C=C/c2cccs2)[nH+]c2ccccc21 (cis-trans isomerization)
Cc1cccc(C)c1[N-]C(=O)Cn1c(/C=C/c2cccs2)[nH+]c2ccccc21 (3D coordinates assigned)
Cc1cccc(C)c1[N-]C(=O)Cn1c(/C=C/c2cccs2)[nH+]c2ccccc21 (optimized conformer: 118.69370096731458 kcal/mol)

>  <smiles>  (11) 
Cc1cccc(C)c1NC(=O)Cn1c(C=Cc2cccs2)nc2ccccc21

>  <score_type>  (11) 
oracle

>  <origin>  (11) 
adg

>  <m_score__min__energy>  (11) 
-10.07

>  <m_primary>  (11) 
energy

$$$$
11:0
     RDKit          3D

 45 45  0  0  0  0  0  0  0  0999 V2000
   -6.1300   17.5070  -31.1870 C   0  0  0  0  0  0  0  0  0  0  0  0
   -5.9050   18.9650  -31.6090 C   0  0  0  0  0  0  0  0  0  0  0  0
   -6.9270   19.4330  -32.5940 N   0  0  0  0  0  0  0  0  0  0  0  0
   -6.3260   19.6820  -33.9300 C   0  0  0  0  0  0  0  0  0  0  0  0
   -5.7280   18.4310  -34.5960 C   0  0  0  0  0  0  0  0  0  0  0  0
   -8.0900   18.5110  -32.6950 C   0  0  0  0  0  0  0  0  0  0  0  0
   -9.4100   19.1760  -32.2830 C   0  0  0  0  0  0  0  0  0  0  0  0
   -9.4050   20.5200  -32.7190 O   0  0  0  0  0  0  0  0  0  0  0  0
   -9.4630   21.3980  -31.6110 C   0  0  0  0  0  0  0  0  0  0  0  0
   -8.7680   22.7210  -31.9470 C   0  0  0  0  0  0  0  0  0  0  0  0
   -7.3700   22.5180  -32.1520 O   0  0  0  0  0  0  0  0  0  0  0  0
   -6.3430   23.2390  -31.5210 C   0  0  0  0  0  0  0  0  0  0  0  0
   -6.5550   24.4870  -30.9020 C   0  0  0  0  0  0  0  0  0  0  0  0
   -5.4940   25.1600  -30.2880 C   0  0  0  0  0  0  0  0  0  0  0  0
   -4.2040   24.5990  -30.2820 C   0  0  0  0  0  0  0  0  0  0  0  0
   -3.1080   25.2360  -29.6820 O   0  0  0  0  0  0  0  0  0  0  0  0
   -2.3610   24.6970  -28.5950 C   0  0  0  0  0  0  0  0  0  0  0  0
   -3.9980   23.3590  -30.8970 C   0  0  0  0  0  0  0  0  0  0  0  0
   -5.0580   22.6850  -31.5090 C   0  0  0  0  0  0  0  0  0  0  0  0
   -6.1403   17.4405  -30.0891 H   0  0  0  0  0  0  0  0  0  0  0  0
   -7.0932   17.1546  -31.5847 H   0  0  0  0  0  0  0  0  0  0  0  0
   -5.3179   16.8807  -31.5847 H   0  0  0  0  0  0  0  0  0  0  0  0
   -5.9560   19.6042  -30.7152 H   0  0  0  0  0  0  0  0  0  0  0  0
   -4.9183   19.0280  -32.0912 H   0  0  0  0  0  0  0  0  0  0  0  0
   -7.2980   20.3650  -32.2900 H   0  0  0  0  0  0  0  0  0  0  0  0
   -7.1084   20.0838  -34.5907 H   0  0  0  0  0  0  0  0  0  0  0  0
   -5.4948   20.3859  -33.7762 H   0  0  0  0  0  0  0  0  0  0  0  0
   -5.3918   17.7277  -33.8199 H   0  0  0  0  0  0  0  0  0  0  0  0
   -6.4926   17.9480  -35.2222 H   0  0  0  0  0  0  0  0  0  0  0  0
   -4.8720   18.7227  -35.2222 H   0  0  0  0  0  0  0  0  0  0  0  0
   -8.1784   18.1688  -33.7367 H   0  0  0  0  0  0  0  0  0  0  0  0
   -7.9106   17.6729  -32.0055 H   0  0  0  0  0  0  0  0  0  0  0  0
  -10.2524   18.6414  -32.7462 H   0  0  0  0  0  0  0  0  0  0  0  0
   -9.5174   19.1412  -31.1888 H   0  0  0  0  0  0  0  0  0  0  0  0
  -10.5153   21.5945  -31.3579 H   0  0  0  0  0  0  0  0  0  0  0  0
   -8.9518   20.9312  -30.7562 H   0  0  0  0  0  0  0  0  0  0  0  0
   -9.2105   23.1389  -32.8633 H   0  0  0  0  0  0  0  0  0  0  0  0
   -8.9051   23.4164  -31.1058 H   0  0  0  0  0  0  0  0  0  0  0  0
   -7.5601   24.9341  -30.9018 H   0  0  0  0  0  0  0  0  0  0  0  0
   -5.6692   26.1336  -29.8070 H   0  0  0  0  0  0  0  0  0  0  0  0
   -2.8104   25.0213  -27.6448 H   0  0  0  0  0  0  0  0  0  0  0  0
   -2.3735   23.5985  -28.6505 H   0  0  0  0  0  0  0  0  0  0  0  0
   -1.3224   25.0552  -28.6505 H   0  0  0  0  0  0  0  0  0  0  0  0
   -2.9933   22.9112  -30.8987 H   0  0  0  0  0  0  0  0  0  0  0  0
   -4.8807   21.7097  -31.9859 H   0  0  0  0  0  0  0  0  0  0  0  0
  1  2  1  0
  2  3  1  0
  3  4  1  0
  4  5  1  0
  3  6  1  0
  6  7  1  0
  7  8  1  0
  8  9  1  0
  9 10  1  0
 10 11  1  0
 11 12  1  0
 12 13  2  0
 13 14  1  0
 14 15  2  0
 15 16  1  0
 16 17  1  0
 15 18  1  0
 18 19  2  0
 19 12  1  0
  1 20  1  0
  1 21  1  0
  1 22  1  0
  2 23  1  0
  2 24  1  0
  3 25  1  0
  4 26  1  0
  4 27  1  0
  5 28  1  0
  5 29  1  0
  5 30  1  0
  6 31  1  0
  6 32  1  0
  7 33  1  0
  7 34  1  0
  9 35  1  0
  9 36  1  0
 10 37  1  0
 10 38  1  0
 13 39  1  0
 14 40  1  0
 17 41  1  0
 17 42  1  0
 17 43  1  0
 18 44  1  0
 19 45  1  0
M  CHG  1   3   1
M  END
>  <UniqueID>  (12) 
10

>  <SMILES>  (12) 
CC[NH+](CC)CCOCCOc1ccc(OC)cc1

>  <Energy>  (12) 
44.63481112845553

>  <Genealogy>  (12) 
CC[NH+](CC)CCOCCOc1ccc(OC)cc1 (protonated)
CC[NH+](CC)CCOCCOc1ccc(OC)cc1 (3D coordinates assigned)
CC[NH+](CC)CCOCCOc1ccc(OC)cc1 (optimized conformer: 44.63481112845553 kcal/mol)

>  <smiles>  (12) 
CCN(CC)CCOCCOc1ccc(OC)cc1

>  <score_type>  (12) 
oracle

>  <origin>  (12) 
adg

>  <m_score__min__energy>  (12) 
-5.5899999999999999

>  <m_primary>  (12) 
energy

$$$$
12:0
     RDKit          3D

 51 53  0  0  0  0  0  0  0  0999 V2000
   -5.0422   21.0354  -33.9307 H   0  0  0  0  0  0  0  0  0  0  0  0
   -5.4810   21.1700  -32.9310 C   0  0  0  0  0  0  0  0  0  0  0  0
   -4.9080   22.0810  -32.1130 C   0  0  0  0  0  0  0  0  0  0  0  0
   -5.4910   23.4380  -31.9860 C   0  0  0  0  0  0  0  0  0  0  0  0
   -6.5780   23.7330  -32.5560 O   0  0  0  0  0  0  0  0  0  0  0  0
   -4.8170   24.3920  -31.2220 O   0  0  0  0  0  0  0  0  0  0  0  0
   -5.1560   24.7080  -29.8760 C   0  0  0  0  0  0  0  0  0  0  0  0
   -5.9536   24.0338  -29.5307 H   0  0  0  0  0  0  0  0  0  0  0  0
   -5.5069   25.7491  -29.8207 H   0  0  0  0  0  0  0  0  0  0  0  0
   -3.9510   24.5410  -29.0070 C   0  0  0  0  0  0  0  0  0  0  0  0
   -4.0000   23.7710  -28.0100 O   0  0  0  0  0  0  0  0  0  0  0  0
   -2.7420   25.2380  -29.3240 N   0  0  0  0  0  0  0  0  0  0  0  0
   -1.4170   24.7560  -28.9670 C   0  0  0  0  0  0  0  0  0  0  0  0
   -0.6730   25.1742  -29.6609 H   0  0  0  0  0  0  0  0  0  0  0  0
   -1.3915   23.6581  -29.0294 H   0  0  0  0  0  0  0  0  0  0  0  0
   -1.0990   25.1930  -27.5630 C   0  0  0  0  0  0  0  0  0  0  0  0
   -2.1390   25.6010  -26.7100 C   0  0  0  0  0  0  0  0  0  0  0  0
   -3.1806   25.5640  -27.0616 H   0  0  0  0  0  0  0  0  0  0  0  0
   -1.8580   26.0530  -25.4190 C   0  0  0  0  0  0  0  0  0  0  0  0
   -2.6782   26.3645  -24.7555 H   0  0  0  0  0  0  0  0  0  0  0  0
   -0.5400   26.1100  -24.9700 C   0  0  0  0  0  0  0  0  0  0  0  0
   -0.3223   26.4612  -23.9505 H   0  0  0  0  0  0  0  0  0  0  0  0
    0.5060   25.7220  -25.8120 C   0  0  0  0  0  0  0  0  0  0  0  0
    1.5440   25.7681  -25.4510 H   0  0  0  0  0  0  0  0  0  0  0  0
    0.2390   25.2720  -27.1210 C   0  0  0  0  0  0  0  0  0  0  0  0
    1.2690   24.9040  -28.0020 O   0  0  0  0  0  0  0  0  0  0  0  0
    2.6120   24.6420  -27.6100 C   0  0  0  0  0  0  0  0  0  0  0  0
    2.6776   24.6292  -26.5120 H   0  0  0  0  0  0  0  0  0  0  0  0
    2.9262   23.6656  -28.0075 H   0  0  0  0  0  0  0  0  0  0  0  0
    3.2701   25.4287  -28.0075 H   0  0  0  0  0  0  0  0  0  0  0  0
   -3.6510   21.8000  -31.3760 C   0  0  0  0  0  0  0  0  0  0  0  0
   -3.6750   21.4090  -30.0280 C   0  0  0  0  0  0  0  0  0  0  0  0
   -4.6351   21.3329  -29.4965 H   0  0  0  0  0  0  0  0  0  0  0  0
   -2.5160   21.1240  -29.3770 N   0  0  0  0  0  0  0  0  0  0  0  0
   -1.3090   21.2050  -29.9980 C   0  0  0  0  0  0  0  0  0  0  0  0
   -0.3886   20.9701  -29.4432 H   0  0  0  0  0  0  0  0  0  0  0  0
   -1.2370   21.5860  -31.3390 C   0  0  0  0  0  0  0  0  0  0  0  0
   -0.2628   21.6552  -31.8450 H   0  0  0  0  0  0  0  0  0  0  0  0
   -2.4120   21.8780  -32.0310 C   0  0  0  0  0  0  0  0  0  0  0  0
   -2.3678   22.1696  -33.0907 H   0  0  0  0  0  0  0  0  0  0  0  0
   -6.6560   20.3400  -32.5800 C   0  0  0  0  0  0  0  0  0  0  0  0
   -7.8790   20.9700  -32.3040 C   0  0  0  0  0  0  0  0  0  0  0  0
   -7.9566   22.0654  -32.3680 H   0  0  0  0  0  0  0  0  0  0  0  0
   -9.0000   20.2130  -31.9480 C   0  0  0  0  0  0  0  0  0  0  0  0
   -9.9594   20.7124  -31.7474 H   0  0  0  0  0  0  0  0  0  0  0  0
   -8.9020   18.8230  -31.8470 C   0  0  0  0  0  0  0  0  0  0  0  0
   -9.7860   18.2278  -31.5744 H   0  0  0  0  0  0  0  0  0  0  0  0
   -7.6820   18.1890  -32.0920 C   0  0  0  0  0  0  0  0  0  0  0  0
   -7.6042   17.0952  -32.0046 H   0  0  0  0  0  0  0  0  0  0  0  0
   -6.5600   18.9420  -32.4480 C   0  0  0  0  0  0  0  0  0  0  0  0
   -5.5975   18.4400  -32.6259 H   0  0  0  0  0  0  0  0  0  0  0  0
  1  2  1  0
  2  3  2  0
  3  4  1  0
  4  5  2  0
  4  6  1  0
  6  7  1  0
  7  8  1  0
  7  9  1  0
  7 10  1  0
 10 11  2  0
 10 12  1  0
 12 13  1  0
 13 14  1  0
 13 15  1  0
 13 16  1  0
 16 17  2  0
 17 18  1  0
 17 19  1  0
 19 20  1  0
 19 21  2  0
 21 22  1  0
 21 23  1  0
 23 24  1  0
 23 25  2  0
 25 26  1  0
 26 27  1  0
 27 28  1  0
 27 29  1  0
 27 30  1  0
  3 31  1  0
 31 32  2  0
 32 33  1  0
 32 34  1  0
 34 35  2  0
 35 36  1  0
 35 37  1  0
 37 38  1  0
 37 39  2  0
 39 40  1  0
  2 41  1  0
 41 42  2  0
 42 43  1  0
 42 44  1  0
 44 45  1  0
 44 46  2  0
 46 47  1  0
 46 48  1  0
 48 49  1  0
 48 50  2  0
 50 51  1  0
 25 16  1  0
 39 31  1  0
 50 41  1  0
M  CHG  1  12  -1
M  END
>  <UniqueID>  (13) 
11

>  <SMILES>  (13) 
COc1ccccc1C[N-]C(=O)COC(=O)/C(=C/c1ccccc1)c1cccnc1

>  <Energy>  (13) 
56.4767657630557

>  <Genealogy>  (13) 
COc1ccccc1C[N-]C(=O)COC(=O)C(=Cc1ccccc1)c1cccnc1 (protonated)
COc1ccccc1C[N-]C(=O)COC(=O)/C(=C/c1ccccc1)c1cccnc1 (cis-trans isomerization)
COc1ccccc1C[N-]C(=O)COC(=O)/C(=C/c1ccccc1)c1cccnc1 (3D coordinates assigned)
COc1ccccc1C[N-]C(=O)COC(=O)/C(=C/c1ccccc1)c1cccnc1 (optimized conformer: 56.4767657630557 kcal/mol)

>  <smiles>  (13) 
COc1ccccc1CNC(=O)COC(=O)C(=Cc1ccccc1)c1cccnc1

>  <score_type>  (13) 
oracle

>  <origin>  (13) 
adg

>  <m_score__min__energy>  (13) 
-11.1

>  <m_primary>  (13) 
energy

$$$$
13:0
     RDKit          3D

 43 45  0  0  0  0  0  0  0  0999 V2000
   -6.8180   24.6220  -28.7710 H   0  0  0  0  0  0  0  0  0  0  0  0
   -7.1000   24.4370  -29.7240 O   0  0  0  0  0  0  0  0  0  0  0  0
   -6.4950   23.4610  -30.5190 C   0  0  0  0  0  0  0  0  0  0  0  0
   -5.1770   23.0590  -30.3080 C   0  0  0  0  0  0  0  0  0  0  0  0
   -4.2220   23.6240  -29.3020 C   0  0  0  0  0  0  0  0  0  0  0  0
   -4.7810   23.9534  -28.4138 H   0  0  0  0  0  0  0  0  0  0  0  0
   -3.4951   22.8486  -29.0184 H   0  0  0  0  0  0  0  0  0  0  0  0
   -3.4890   24.7960  -29.8920 C   0  0  0  0  0  0  0  0  0  0  0  0
   -4.0150   25.4260  -30.8470 O   0  0  0  0  0  0  0  0  0  0  0  0
   -2.2720   25.2970  -29.3200 N   0  0  0  0  0  0  0  0  0  0  0  0
   -1.6590   24.8150  -28.1180 C   0  0  0  0  0  0  0  0  0  0  0  0
   -2.0240   25.3820  -26.8900 C   0  0  0  0  0  0  0  0  0  0  0  0
   -2.7736   26.1865  -26.8590 H   0  0  0  0  0  0  0  0  0  0  0  0
   -1.4390   24.9290  -25.7040 C   0  0  0  0  0  0  0  0  0  0  0  0
   -1.7408   25.3654  -24.7404 H   0  0  0  0  0  0  0  0  0  0  0  0
   -0.4720   23.9230  -25.7420 C   0  0  0  0  0  0  0  0  0  0  0  0
   -0.0219   23.5579  -24.8070 H   0  0  0  0  0  0  0  0  0  0  0  0
   -0.0750   23.3790  -26.9670 C   0  0  0  0  0  0  0  0  0  0  0  0
    0.6966   22.5955  -26.9954 H   0  0  0  0  0  0  0  0  0  0  0  0
   -0.6570   23.8290  -28.1570 C   0  0  0  0  0  0  0  0  0  0  0  0
   -0.2250   23.3280  -29.3410 F   0  0  0  0  0  0  0  0  0  0  0  0
   -4.8080   21.8450  -31.4110 S   0  0  0  0  0  0  0  0  0  0  0  0
   -6.3470   21.8620  -32.1080 C   0  0  0  0  0  0  0  0  0  0  0  0
   -6.7400   21.1080  -33.0970 N   0  0  0  0  0  0  0  0  0  0  0  0
   -6.6350   19.6770  -33.1750 C   0  0  0  0  0  0  0  0  0  0  0  0
   -5.9310   19.1040  -34.2450 C   0  0  0  0  0  0  0  0  0  0  0  0
   -5.4369   19.7518  -34.9841 H   0  0  0  0  0  0  0  0  0  0  0  0
   -5.8540   17.7140  -34.3770 C   0  0  0  0  0  0  0  0  0  0  0  0
   -5.2850   17.2717  -35.2081 H   0  0  0  0  0  0  0  0  0  0  0  0
   -6.5000   16.8850  -33.4530 C   0  0  0  0  0  0  0  0  0  0  0  0
   -6.4330   15.5370  -33.5860 F   0  0  0  0  0  0  0  0  0  0  0  0
   -7.2290   17.4480  -32.4020 C   0  0  0  0  0  0  0  0  0  0  0  0
   -7.7420   16.7972  -31.6786 H   0  0  0  0  0  0  0  0  0  0  0  0
   -7.3070   18.8380  -32.2690 C   0  0  0  0  0  0  0  0  0  0  0  0
   -7.8973   19.2771  -31.4512 H   0  0  0  0  0  0  0  0  0  0  0  0
   -7.1390   22.8100  -31.5390 N   0  0  0  0  0  0  0  0  0  0  0  0
   -8.5360   23.0490  -31.9320 C   0  0  0  0  0  0  0  0  0  0  0  0
   -8.5841   23.2114  -33.0189 H   0  0  0  0  0  0  0  0  0  0  0  0
   -8.9095   23.9367  -31.4005 H   0  0  0  0  0  0  0  0  0  0  0  0
   -9.4040   21.8500  -31.5640 C   0  0  0  0  0  0  0  0  0  0  0  0
   -9.4659   21.7645  -30.4691 H   0  0  0  0  0  0  0  0  0  0  0  0
  -10.4135   21.9871  -31.9788 H   0  0  0  0  0  0  0  0  0  0  0  0
   -8.9585   20.9338  -31.9788 H   0  0  0  0  0  0  0  0  0  0  0  0
  1  2  1  0
  2  3  1  0
  3  4  2  0
  4  5  1  0
  5  6  1  0
  5  7  1  0
  5  8  1  0
  8  9  2  0
  8 10  1  0
 10 11  1  0
 11 12  2  0
 12 13  1  0
 12 14  1  0
 14 15  1  0
 14 16  2  0
 16 17  1  0
 16 18  1  0
 18 19  1  0
 18 20  2  0
 20 21  1  0
  4 22  1  0
 22 23  1  0
 23 24  2  0
 24 25  1  0
 25 26  2  0
 26 27  1  0
 26 28  1  0
 28 29  1  0
 28 30  2  0
 30 31  1  0
 30 32  1  0
 32 33  1  0
 32 34  2  0
 34 35  1  0
 23 36  1  0
 36 37  1  0
 37 38  1  0
 37 39  1  0
 37 40  1  0
 40 41  1  0
 40 42  1  0
 40 43  1  0
 36  3  1  0
 20 11  1  0
 34 25  1  0
M  CHG  1  10  -1
M  END
>  <UniqueID>  (14) 
12

>  <SMILES>  (14) 
CCn1c(O)c(CC(=O)[N-]c2ccccc2F)s/c1=N\c1ccc(F)cc1

>  <Energy>  (14) 
84.67190213549625

>  <Genealogy>  (14) 
CCn1c(O)c(CC(=O)[N-]c2ccccc2F)sc1=Nc1ccc(F)cc1 (protonated)
CCn1c(O)c(CC(=O)[N-]c2ccccc2F)s/c1=N\c1ccc(F)cc1 (cis-trans isomerization)
CCn1c(O)c(CC(=O)[N-]c2ccccc2F)s/c1=N\c1ccc(F)cc1 (3D coordinates assigned)
CCn1c(O)c(CC(=O)[N-]c2ccccc2F)s/c1=N\c1ccc(F)cc1 (optimized conformer: 84.67190213549625 kcal/mol)

>  <smiles>  (14) 
CCn1c(O)c(CC(=O)Nc2ccccc2F)sc1=Nc1ccc(F)cc1

>  <score_type>  (14) 
oracle

>  <origin>  (14) 
adg

>  <m_score__min__energy>  (14) 
-10.66

>  <m_primary>  (14) 
energy

$$$$
14:0
     RDKit          3D

 52 54  0  0  0  0  0  0  0  0999 V2000
   -0.8090   27.1420  -27.6880 C   0  0  0  0  0  0  0  0  0  0  0  0
   -1.2020   26.3350  -28.7930 O   0  0  0  0  0  0  0  0  0  0  0  0
   -1.1150   24.9340  -28.8240 C   0  0  0  0  0  0  0  0  0  0  0  0
   -0.0280   24.2400  -28.2540 C   0  0  0  0  0  0  0  0  0  0  0  0
    0.0200   22.8440  -28.3000 C   0  0  0  0  0  0  0  0  0  0  0  0
   -1.0130   22.1280  -28.9040 C   0  0  0  0  0  0  0  0  0  0  0  0
   -2.0950   22.8040  -29.4720 C   0  0  0  0  0  0  0  0  0  0  0  0
   -2.1450   24.2100  -29.4500 C   0  0  0  0  0  0  0  0  0  0  0  0
   -3.2640   24.9250  -29.9950 N   0  0  0  0  0  0  0  0  0  0  0  0
   -4.6280   24.8020  -29.5760 C   0  0  0  0  0  0  0  0  0  0  0  0
   -4.9160   24.6070  -28.3660 O   0  0  0  0  0  0  0  0  0  0  0  0
   -5.7210   24.9050  -30.5900 C   0  0  0  0  0  0  0  0  0  0  0  0
   -5.3930   24.0450  -31.7500 N   0  0  0  0  0  0  0  0  0  0  0  0
   -6.5070   23.9390  -32.7190 C   0  0  0  0  0  0  0  0  0  0  0  0
   -7.5220   22.8330  -32.3560 C   0  0  0  0  0  0  0  0  0  0  0  0
   -7.3330   22.3940  -30.9620 N   0  0  0  0  0  0  0  0  0  0  0  0
   -8.4200   21.5180  -30.4730 C   0  0  0  0  0  0  0  0  0  0  0  0
   -9.0790   20.7110  -31.5600 C   0  0  0  0  0  0  0  0  0  0  0  0
   -9.9360   21.2530  -32.3070 O   0  0  0  0  0  0  0  0  0  0  0  0
   -8.7630   19.3220  -31.7040 N   0  0  0  0  0  0  0  0  0  0  0  0
   -7.5240   18.7870  -32.1910 C   0  0  0  0  0  0  0  0  0  0  0  0
   -6.9110   17.7540  -31.4700 C   0  0  0  0  0  0  0  0  0  0  0  0
   -5.6980   17.2100  -31.9030 C   0  0  0  0  0  0  0  0  0  0  0  0
   -5.0810   17.7050  -33.0530 C   0  0  0  0  0  0  0  0  0  0  0  0
   -5.6660   18.7590  -33.7590 C   0  0  0  0  0  0  0  0  0  0  0  0
   -6.8780   19.3090  -33.3300 C   0  0  0  0  0  0  0  0  0  0  0  0
   -7.3800   20.3820  -33.9920 F   0  0  0  0  0  0  0  0  0  0  0  0
   -5.9930   21.8140  -30.7580 C   0  0  0  0  0  0  0  0  0  0  0  0
   -4.8890   22.7140  -31.3580 C   0  0  0  0  0  0  0  0  0  0  0  0
   -1.0602   26.6261  -26.7495 H   0  0  0  0  0  0  0  0  0  0  0  0
    0.2759   27.3185  -27.7303 H   0  0  0  0  0  0  0  0  0  0  0  0
   -1.3390   28.1049  -27.7303 H   0  0  0  0  0  0  0  0  0  0  0  0
    0.7862   24.8000  -27.7708 H   0  0  0  0  0  0  0  0  0  0  0  0
    0.8741   22.3091  -27.8590 H   0  0  0  0  0  0  0  0  0  0  0  0
   -0.9756   21.0290  -28.9331 H   0  0  0  0  0  0  0  0  0  0  0  0
   -2.9121   22.2345  -29.9389 H   0  0  0  0  0  0  0  0  0  0  0  0
   -6.6698   24.5733  -30.1430 H   0  0  0  0  0  0  0  0  0  0  0  0
   -5.8202   25.9493  -30.9211 H   0  0  0  0  0  0  0  0  0  0  0  0
   -7.0360   24.9029  -32.7512 H   0  0  0  0  0  0  0  0  0  0  0  0
   -6.0702   23.6764  -33.6938 H   0  0  0  0  0  0  0  0  0  0  0  0
   -8.5427   23.2251  -32.4765 H   0  0  0  0  0  0  0  0  0  0  0  0
   -7.3639   21.9731  -33.0235 H   0  0  0  0  0  0  0  0  0  0  0  0
   -7.9996   20.8236  -29.7306 H   0  0  0  0  0  0  0  0  0  0  0  0
   -9.1929   22.1722  -30.0434 H   0  0  0  0  0  0  0  0  0  0  0  0
   -7.3874   17.3682  -30.5567 H   0  0  0  0  0  0  0  0  0  0  0  0
   -5.2296   16.3913  -31.3370 H   0  0  0  0  0  0  0  0  0  0  0  0
   -4.1352   17.2657  -33.4030 H   0  0  0  0  0  0  0  0  0  0  0  0
   -5.1709   19.1581  -34.6565 H   0  0  0  0  0  0  0  0  0  0  0  0
   -5.8136   21.6995  -29.6788 H   0  0  0  0  0  0  0  0  0  0  0  0
   -5.9578   20.8391  -31.2664 H   0  0  0  0  0  0  0  0  0  0  0  0
   -4.0948   22.8447  -30.6083 H   0  0  0  0  0  0  0  0  0  0  0  0
   -4.5124   22.2195  -32.2656 H   0  0  0  0  0  0  0  0  0  0  0  0
  1  2  1  0
  2  3  1  0
  3  4  2  0
  4  5  1  0
  5  6  2  0
  6  7  1  0
  7  8  2  0
  8  9  1  0
  9 10  1  0
 10 11  2  0
 10 12  1  0
 12 13  1  0
 13 14  1  0
 14 15  1  0
 15 16  1  0
 16 17  1  0
 17 18  1  0
 18 19  2  0
 18 20  1  0
 20 21  1  0
 21 22  2  0
 22 23  1  0
 23 24  2  0
 24 25  1  0
 25 26  2  0
 26 27  1  0
 16 28  1  0
 28 29  1  0
  8  3  1  0
 29 13  1  0
 26 21  1  0
  1 30  1  0
  1 31  1  0
  1 32  1  0
  4 33  1  0
  5 34  1  0
  6 35  1  0
  7 36  1  0
 12 37  1  0
 12 38  1  0
 14 39  1  0
 14 40  1  0
 15 41  1  0
 15 42  1  0
 17 43  1  0
 17 44  1  0
 22 45  1  0
 23 46  1  0
 24 47  1  0
 25 48  1  0
 28 49  1  0
 28 50  1  0
 29 51  1  0
 29 52  1  0
M  CHG  2   9  -1  20  -1
M  END
>  <UniqueID>  (15) 
13

>  <SMILES>  (15) 
COc1ccccc1[N-]C(=O)CN1CCN(CC(=O)[N-]c2ccccc2F)CC1

>  <Energy>  (15) 
74.20711702923029

>  <Genealogy>  (15) 
COc1ccccc1[N-]C(=O)CN1CCN(CC(=O)[N-]c2ccccc2F)CC1 (protonated)
COc1ccccc1[N-]C(=O)CN1CCN(CC(=O)[N-]c2ccccc2F)CC1 (3D coordinates assigned)
COc1ccccc1[N-]C(=O)CN1CCN(CC(=O)[N-]c2ccccc2F)CC1 (nonaromatic ring conformer: 74.20711702923029 kcal/mol)

>  <smiles>  (15) 
COc1ccccc1NC(=O)CN1CCN(CC(=O)Nc2ccccc2F)CC1

>  <score_type>  (15) 
oracle

>  <origin>  (15) 
adg

>  <m_score__min__energy>  (15) 
-11.02

>  <m_primary>  (15) 
energy

$$$$
15:0
     RDKit          3D

 49 51  0  0  0  0  0  0  0  0999 V2000
   -3.0810   24.1040  -28.3570 C   0  0  0  0  0  0  0  0  0  0  0  0
   -4.0390   24.3030  -29.4810 C   0  0  0  0  0  0  0  0  0  0  0  0
   -5.2130   23.6530  -29.5910 N   0  0  0  0  0  0  0  0  0  0  0  0
   -5.7000   24.1880  -30.7300 C   0  0  0  0  0  0  0  0  0  0  0  0
   -7.0250   23.8190  -31.3220 C   0  0  0  0  0  0  0  0  0  0  0  0
   -7.2120   22.3520  -31.2910 N   0  0  0  0  0  0  0  0  0  0  0  0
   -8.6430   22.0300  -31.1020 C   0  0  0  0  0  0  0  0  0  0  0  0
   -9.2150   21.1180  -32.1990 C   0  0  0  0  0  0  0  0  0  0  0  0
   -8.7620   19.6400  -32.1820 C   0  0  0  0  0  0  0  0  0  0  0  0
   -7.3730   19.4040  -31.7300 N   0  0  0  0  0  0  0  0  0  0  0  0
   -7.0390   18.0560  -31.2340 C   0  0  0  0  0  0  0  0  0  0  0  0
   -6.3000   17.2400  -32.2510 C   0  0  0  0  0  0  0  0  0  0  0  0
   -5.5030   16.1920  -31.9460 N   0  0  0  0  0  0  0  0  0  0  0  0
   -4.8940   15.6590  -33.0420 C   0  0  0  0  0  0  0  0  0  0  0  0
   -3.8960   14.5330  -32.9270 C   0  0  0  0  0  0  0  0  0  0  0  0
   -2.4580   15.0640  -32.8960 C   0  0  0  0  0  0  0  0  0  0  0  0
   -4.1960   13.6780  -31.6920 C   0  0  0  0  0  0  0  0  0  0  0  0
   -5.2150   16.2910  -34.2450 C   0  0  0  0  0  0  0  0  0  0  0  0
   -6.2900   17.5400  -33.9050 S   0  0  0  0  0  0  0  0  0  0  0  0
   -6.2510   20.2060  -32.2670 C   0  0  0  0  0  0  0  0  0  0  0  0
   -6.5830   21.7000  -32.4700 C   0  0  0  0  0  0  0  0  0  0  0  0
   -4.8740   25.1070  -31.2690 N   0  0  0  0  0  0  0  0  0  0  0  0
   -3.8580   25.1500  -30.4640 O   0  0  0  0  0  0  0  0  0  0  0  0
   -3.6112   24.2141  -27.3995 H   0  0  0  0  0  0  0  0  0  0  0  0
   -2.6450   23.0961  -28.4209 H   0  0  0  0  0  0  0  0  0  0  0  0
   -2.2797   24.8549  -28.4209 H   0  0  0  0  0  0  0  0  0  0  0  0
   -7.8274   24.2992  -30.7427 H   0  0  0  0  0  0  0  0  0  0  0  0
   -7.0571   24.1612  -32.3669 H   0  0  0  0  0  0  0  0  0  0  0  0
   -8.7613   21.5247  -30.1321 H   0  0  0  0  0  0  0  0  0  0  0  0
   -9.1975   22.9789  -31.1477 H   0  0  0  0  0  0  0  0  0  0  0  0
  -10.3109   21.1314  -32.1052 H   0  0  0  0  0  0  0  0  0  0  0  0
   -8.8286   21.5270  -33.1442 H   0  0  0  0  0  0  0  0  0  0  0  0
   -9.4353   19.0870  -31.5106 H   0  0  0  0  0  0  0  0  0  0  0  0
   -8.8008   19.3005  -33.2276 H   0  0  0  0  0  0  0  0  0  0  0  0
   -6.4107   18.1554  -30.3366 H   0  0  0  0  0  0  0  0  0  0  0  0
   -7.9829   17.5377  -31.0097 H   0  0  0  0  0  0  0  0  0  0  0  0
   -5.3590   15.8370  -30.9740 H   0  0  0  0  0  0  0  0  0  0  0  0
   -3.9920   13.8973  -33.8196 H   0  0  0  0  0  0  0  0  0  0  0  0
   -2.1338   15.1837  -31.8517 H   0  0  0  0  0  0  0  0  0  0  0  0
   -1.7932   14.3521  -33.4070 H   0  0  0  0  0  0  0  0  0  0  0  0
   -2.4154   16.0372  -33.4070 H   0  0  0  0  0  0  0  0  0  0  0  0
   -3.9910   14.2623  -30.7829 H   0  0  0  0  0  0  0  0  0  0  0  0
   -5.2537   13.3762  -31.7031 H   0  0  0  0  0  0  0  0  0  0  0  0
   -3.5587   12.7815  -31.7031 H   0  0  0  0  0  0  0  0  0  0  0  0
   -4.8324   16.0200  -35.2401 H   0  0  0  0  0  0  0  0  0  0  0  0
   -5.4070   20.1322  -31.5654 H   0  0  0  0  0  0  0  0  0  0  0  0
   -6.0157   19.7961  -33.2603 H   0  0  0  0  0  0  0  0  0  0  0  0
   -5.6485   22.2325  -32.7005 H   0  0  0  0  0  0  0  0  0  0  0  0
   -7.3169   21.7516  -33.2877 H   0  0  0  0  0  0  0  0  0  0  0  0
  1  2  1  0
  2  3  2  0
  3  4  1  0
  4  5  1  0
  5  6  1  0
  6  7  1  0
  7  8  1  0
  8  9  1  0
  9 10  1  0
 10 11  1  0
 11 12  1  0
 12 13  2  0
 13 14  1  0
 14 15  1  0
 15 16  1  0
 15 17  1  0
 14 18  2  0
 18 19  1  0
 10 20  1  0
 20 21  1  0
  4 22  2  0
 22 23  1  0
 23  2  1  0
 21  6  1  0
 19 12  1  0
  1 24  1  0
  1 25  1  0
  1 26  1  0
  5 27  1  0
  5 28  1  0
  7 29  1  0
  7 30  1  0
  8 31  1  0
  8 32  1  0
  9 33  1  0
  9 34  1  0
 11 35  1  0
 11 36  1  0
 13 37  1  0
 15 38  1  0
 16 39  1  0
 16 40  1  0
 16 41  1  0
 17 42  1  0
 17 43  1  0
 17 44  1  0
 18 45  1  0
 20 46  1  0
 20 47  1  0
 21 48  1  0
 21 49  1  0
M  CHG  1  13   1
M  END
>  <UniqueID>  (16) 
14

>  <SMILES>  (16) 
Cc1nc(CN2CCCN(Cc3[nH+]c(C(C)C)cs3)CC2)no1

>  <Energy>  (16) 
128.55499753959617

>  <Genealogy>  (16) 
Cc1nc(CN2CCCN(Cc3[nH+]c(C(C)C)cs3)CC2)no1 (protonated)
Cc1nc(CN2CCCN(Cc3[nH+]c(C(C)C)cs3)CC2)no1 (3D coordinates assigned)
Cc1nc(CN2CCCN(Cc3[nH+]c(C(C)C)cs3)CC2)no1 (nonaromatic ring conformer: 128.55499753959617 kcal/mol)

>  <smiles>  (16) 
Cc1nc(CN2CCCN(Cc3nc(C(C)C)cs3)CC2)no1

>  <score_type>  (16) 
oracle

>  <origin>  (16) 
adg

>  <m_score__min__energy>  (16) 
-6.4400000000000004

>  <m_primary>  (16) 
energy

$$$$
16:0
     RDKit          3D

 36 37  0  0  0  0  0  0  0  0999 V2000
   -5.7628   23.1843  -28.7579 H   0  0  0  0  0  0  0  0  0  0  0  0
   -5.0020   23.2070  -29.5520 C   0  0  0  0  0  0  0  0  0  0  0  0
   -5.3520   22.8020  -30.7400 N   0  0  0  0  0  0  0  0  0  0  0  0
   -4.5810   21.9990  -31.6470 C   0  0  0  0  0  0  0  0  0  0  0  0
   -3.2850   22.4240  -31.9650 C   0  0  0  0  0  0  0  0  0  0  0  0
   -2.9052   23.3710  -31.5540 H   0  0  0  0  0  0  0  0  0  0  0  0
   -2.4940   21.6770  -32.7760 N   0  0  0  0  0  0  0  0  0  0  0  0
   -2.9300   20.5130  -33.3200 C   0  0  0  0  0  0  0  0  0  0  0  0
   -2.2584   19.9192  -33.9575 H   0  0  0  0  0  0  0  0  0  0  0  0
   -4.2290   20.0680  -33.0720 C   0  0  0  0  0  0  0  0  0  0  0  0
   -4.5830   19.1280  -33.5203 H   0  0  0  0  0  0  0  0  0  0  0  0
   -5.0850   20.8200  -32.2500 C   0  0  0  0  0  0  0  0  0  0  0  0
   -6.4660   20.4160  -32.1080 N   0  0  0  0  0  0  0  0  0  0  0  0
   -6.8020   19.0620  -31.6360 C   0  0  0  0  0  0  0  0  0  0  0  0
   -7.5532   19.1357  -30.8359 H   0  0  0  0  0  0  0  0  0  0  0  0
   -5.8856   18.5836  -31.2600 H   0  0  0  0  0  0  0  0  0  0  0  0
   -7.3640   18.2130  -32.7720 C   0  0  0  0  0  0  0  0  0  0  0  0
   -7.9254   17.3650  -32.3529 H   0  0  0  0  0  0  0  0  0  0  0  0
   -8.0349   18.8267  -33.3911 H   0  0  0  0  0  0  0  0  0  0  0  0
   -6.5370   17.8352  -33.3911 H   0  0  0  0  0  0  0  0  0  0  0  0
   -7.5410   21.4000  -32.3080 C   0  0  0  0  0  0  0  0  0  0  0  0
   -7.1476   22.4056  -32.0985 H   0  0  0  0  0  0  0  0  0  0  0  0
   -7.8885   21.3223  -33.3488 H   0  0  0  0  0  0  0  0  0  0  0  0
   -8.7310   21.1310  -31.3860 C   0  0  0  0  0  0  0  0  0  0  0  0
   -8.4064   21.2044  -30.3375 H   0  0  0  0  0  0  0  0  0  0  0  0
   -9.5193   21.8736  -31.5786 H   0  0  0  0  0  0  0  0  0  0  0  0
   -9.1232   20.1215  -31.5786 H   0  0  0  0  0  0  0  0  0  0  0  0
   -3.6490   23.6960  -29.1980 C   0  0  0  0  0  0  0  0  0  0  0  0
   -3.1160   24.8880  -29.7250 C   0  0  0  0  0  0  0  0  0  0  0  0
   -3.8580   25.6840  -30.5880 O   0  0  0  0  0  0  0  0  0  0  0  0
   -1.8740   25.2960  -29.3580 N   0  0  0  0  0  0  0  0  0  0  0  0
   -1.1410   24.5910  -28.4600 C   0  0  0  0  0  0  0  0  0  0  0  0
    0.0120   24.9850  -28.1420 O   0  0  0  0  0  0  0  0  0  0  0  0
   -1.6520   23.4690  -27.8950 N   0  0  0  0  0  0  0  0  0  0  0  0
   -2.8870   23.0160  -28.2320 C   0  0  0  0  0  0  0  0  0  0  0  0
   -3.3310   21.9700  -27.6840 O   0  0  0  0  0  0  0  0  0  0  0  0
  1  2  1  0
  2  3  2  0
  3  4  1  0
  4  5  2  0
  5  6  1  0
  5  7  1  0
  7  8  2  0
  8  9  1  0
  8 10  1  0
 10 11  1  0
 10 12  2  0
 12 13  1  0
 13 14  1  0
 14 15  1  0
 14 16  1  0
 14 17  1  0
 17 18  1  0
 17 19  1  0
 17 20  1  0
 13 21  1  0
 21 22  1  0
 21 23  1  0
 21 24  1  0
 24 25  1  0
 24 26  1  0
 24 27  1  0
  2 28  1  0
 28 29  2  0
 29 30  1  0
 29 31  1  0
 31 32  1  0
 32 33  2  0
 32 34  1  0
 34 35  1  0
 35 36  2  0
 12  4  1  0
 35 28  1  0
M  CHG  3  30  -1  31  -1  34  -1
M  END
>  <UniqueID>  (17) 
15

>  <SMILES>  (17) 
CCN(CC)c1ccncc1/N=C\c1c([O-])[n-]c(=O)[n-]c1=O

>  <Energy>  (17) 
51.22175737971598

>  <Genealogy>  (17) 
CCN(CC)c1ccncc1N=Cc1c([O-])[n-]c(=O)[n-]c1=O (protonated)
CCN(CC)c1ccncc1/N=C\c1c([O-])[n-]c(=O)[n-]c1=O (cis-trans isomerization)
CCN(CC)c1ccncc1/N=C\c1c([O-])[n-]c(=O)[n-]c1=O (3D coordinates assigned)
CCN(CC)c1ccncc1/N=C\c1c([O-])[n-]c(=O)[n-]c1=O (optimized conformer: 51.22175737971598 kcal/mol)

>  <smiles>  (17) 
CCN(CC)c1ccncc1N=Cc1c(O)[nH]c(=O)[nH]c1=O

>  <score_type>  (17) 
oracle

>  <origin>  (17) 
adg

>  <m_score__min__energy>  (17) 
-12.31

>  <m_primary>  (17) 
energy

$$$$
17:0
     RDKit          3D

 58 61  0  0  0  0  0  0  0  0999 V2000
   -6.4214   10.9710  -34.1130 H   0  0  0  0  0  0  0  0  0  0  0  0
   -5.9860   11.8990  -34.5120 C   0  0  0  0  0  0  0  0  0  0  0  0
   -5.5910   12.9490  -33.5460 C   0  0  0  0  0  0  0  0  0  0  0  0
   -5.3660   12.5970  -32.3550 O   0  0  0  0  0  0  0  0  0  0  0  0
   -5.3600   14.3330  -33.9330 N   0  0  0  0  0  0  0  0  0  0  0  0
   -4.8830   14.3060  -34.8670 H   0  0  0  0  0  0  0  0  0  0  0  0
   -4.4540   14.9930  -32.9690 C   0  0  0  0  0  0  0  0  0  0  0  0
   -3.5345   14.3970  -32.8727 H   0  0  0  0  0  0  0  0  0  0  0  0
   -4.9668   15.0674  -31.9987 H   0  0  0  0  0  0  0  0  0  0  0  0
   -4.0890   16.4080  -33.4410 C   0  0  0  0  0  0  0  0  0  0  0  0
   -3.4787   16.3458  -34.3540 H   0  0  0  0  0  0  0  0  0  0  0  0
   -3.5158   16.9240  -32.6567 H   0  0  0  0  0  0  0  0  0  0  0  0
   -5.3190   17.1510  -33.7230 N   0  0  0  0  0  0  0  0  0  0  0  0
   -5.5240   18.4670  -33.1870 C   0  0  0  0  0  0  0  0  0  0  0  0
   -6.7280   18.7740  -32.5410 C   0  0  0  0  0  0  0  0  0  0  0  0
   -7.5143   18.0093  -32.4575 H   0  0  0  0  0  0  0  0  0  0  0  0
   -6.9360   20.0460  -32.0020 C   0  0  0  0  0  0  0  0  0  0  0  0
   -7.8819   20.2740  -31.4888 H   0  0  0  0  0  0  0  0  0  0  0  0
   -5.9460   21.0350  -32.1110 C   0  0  0  0  0  0  0  0  0  0  0  0
   -6.1630   22.3510  -31.5700 N   0  0  0  0  0  0  0  0  0  0  0  0
   -7.2120   22.7570  -30.7120 C   0  0  0  0  0  0  0  0  0  0  0  0
   -8.0180   21.9650  -30.1570 O   0  0  0  0  0  0  0  0  0  0  0  0
   -7.2110   24.1140  -30.4860 O   0  0  0  0  0  0  0  0  0  0  0  0
   -6.1520   24.7210  -31.2210 C   0  0  1  0  0  0  0  0  0  0  0  0
   -6.5149   25.4229  -31.9862 H   0  0  0  0  0  0  0  0  0  0  0  0
   -5.2630   25.5510  -30.2860 C   0  0  0  0  0  0  0  0  0  0  0  0
   -5.5048   25.3010  -29.2424 H   0  0  0  0  0  0  0  0  0  0  0  0
   -5.4496   26.6181  -30.4772 H   0  0  0  0  0  0  0  0  0  0  0  0
   -3.8520   25.2720  -30.5300 N   0  0  0  0  0  0  0  0  0  0  0  0
   -2.9610   24.5950  -29.6350 C   0  0  0  0  0  0  0  0  0  0  0  0
   -1.8860   25.1620  -29.3070 O   0  0  0  0  0  0  0  0  0  0  0  0
   -3.2620   23.2340  -29.0880 C   0  0  0  0  0  0  0  0  0  0  0  0
   -3.2539   23.2706  -27.9886 H   0  0  0  0  0  0  0  0  0  0  0  0
   -4.2536   22.9097  -29.4368 H   0  0  0  0  0  0  0  0  0  0  0  0
   -2.4997   22.5218  -29.4368 H   0  0  0  0  0  0  0  0  0  0  0  0
   -5.3800   23.5420  -31.8830 C   0  0  0  0  0  0  0  0  0  0  0  0
   -5.3147   23.6861  -32.9716 H   0  0  0  0  0  0  0  0  0  0  0  0
   -4.3474   23.4655  -31.5116 H   0  0  0  0  0  0  0  0  0  0  0  0
   -4.7460   20.7300  -32.7760 C   0  0  0  0  0  0  0  0  0  0  0  0
   -3.9718   21.5034  -32.8876 H   0  0  0  0  0  0  0  0  0  0  0  0
   -4.5290   19.4500  -33.2970 C   0  0  0  0  0  0  0  0  0  0  0  0
   -3.3600   19.1750  -33.9320 F   0  0  0  0  0  0  0  0  0  0  0  0
   -6.3210   16.5300  -34.5900 C   0  0  0  0  0  0  0  0  0  0  0  0
   -5.9383   16.4860  -35.6203 H   0  0  0  0  0  0  0  0  0  0  0  0
   -7.2455   17.1256  -34.5685 H   0  0  0  0  0  0  0  0  0  0  0  0
   -6.6150   15.1090  -34.0920 C   0  0  0  0  0  0  0  0  0  0  0  0
   -7.2637   14.5994  -34.8197 H   0  0  0  0  0  0  0  0  0  0  0  0
   -7.1132   15.1757  -33.1135 H   0  0  0  0  0  0  0  0  0  0  0  0
   -5.8480   12.0050  -35.8390 C   0  0  0  0  0  0  0  0  0  0  0  0
   -6.6787   11.6530  -36.4684 H   0  0  0  0  0  0  0  0  0  0  0  0
   -4.6640   12.5590  -36.5170 C   0  0  0  0  0  0  0  0  0  0  0  0
   -4.0230   13.6230  -36.0900 O   0  0  0  0  0  0  0  0  0  0  0  0
   -2.9980   13.8400  -36.8820 C   0  0  0  0  0  0  0  0  0  0  0  0
   -2.2813   14.6678  -36.7766 H   0  0  0  0  0  0  0  0  0  0  0  0
   -2.9550   12.8720  -37.8680 C   0  0  0  0  0  0  0  0  0  0  0  0
   -2.2152   12.7845  -38.6774 H   0  0  0  0  0  0  0  0  0  0  0  0
   -4.0280   12.0380  -37.6310 C   0  0  0  0  0  0  0  0  0  0  0  0
   -4.3175   11.1463  -38.2063 H   0  0  0  0  0  0  0  0  0  0  0  0
  1  2  1  0
  2  3  1  0
  3  4  2  0
  3  5  1  0
  5  6  1  0
  5  7  1  0
  7  8  1  0
  7  9  1  0
  7 10  1  0
 10 11  1  0
 10 12  1  0
 10 13  1  0
 13 14  1  0
 14 15  2  0
 15 16  1  0
 15 17  1  0
 17 18  1  0
 17 19  2  0
 19 20  1  0
 20 21  1  0
 21 22  2  0
 21 23  1  0
 23 24  1  0
 24 25  1  6
 24 26  1  0
 26 27  1  0
 26 28  1  0
 26 29  1  0
 29 30  1  0
 30 31  2  0
 30 32  1  0
 32 33  1  0
 32 34  1  0
 32 35  1  0
 24 36  1  0
 36 37  1  0
 36 38  1  0
 19 39  1  0
 39 40  1  0
 39 41  2  0
 41 42  1  0
 13 43  1  0
 43 44  1  0
 43 45  1  0
 43 46  1  0
 46 47  1  0
 46 48  1  0
  2 49  2  0
 49 50  1  0
 49 51  1  0
 51 52  1  0
 52 53  1  0
 53 54  1  0
 53 55  2  0
 55 56  1  0
 55 57  1  0
 57 58  1  0
 46  5  1  0
 57 51  2  0
 41 14  1  0
 36 20  1  0
M  CHG  2   5   1  29  -1
M  END
>  <UniqueID>  (18) 
16

>  <SMILES>  (18) 
CC(=O)[N-]C[C@H]1CN(c2ccc(N3CC[NH+](C(=O)/C=C\c4ccco4)CC3)c(F)c2)C(=O)O1

>  <Energy>  (18) 
121.28990055843782

>  <Genealogy>  (18) 
CC(=O)[N-]CC1CN(c2ccc(N3CC[NH+](C(=O)C=Cc4ccco4)CC3)c(F)c2)C(=O)O1 (protonated)
CC(=O)[N-]C[C@H]1CN(c2ccc(N3CC[NH+](C(=O)C=Cc4ccco4)CC3)c(F)c2)C(=O)O1 (chirality)
CC(=O)[N-]C[C@H]1CN(c2ccc(N3CC[NH+](C(=O)/C=C\c4ccco4)CC3)c(F)c2)C(=O)O1 (cis-trans isomerization)
CC(=O)[N-]C[C@H]1CN(c2ccc(N3CC[NH+](C(=O)/C=C\c4ccco4)CC3)c(F)c2)C(=O)O1 (3D coordinates assigned)
CC(=O)[N-]C[C@H]1CN(c2ccc(N3CC[NH+](C(=O)/C=C\c4ccco4)CC3)c(F)c2)C(=O)O1 (nonaromatic ring conformer: 121.28990055843782 kcal/mol)

>  <smiles>  (18) 
CC(=O)NCC1CN(c2ccc(N3CCN(C(=O)C=Cc4ccco4)CC3)c(F)c2)C(=O)O1

>  <score_type>  (18) 
oracle

>  <origin>  (18) 
adg

>  <m_score__min__energy>  (18) 
-8.7100000000000009

>  <m_primary>  (18) 
energy

$$$$
18:0
     RDKit          3D

 36 37  0  0  0  0  0  0  0  0999 V2000
   -2.3000   24.5820  -28.7800 C   0  0  0  0  0  0  0  0  0  0  0  0
   -3.1740   25.1670  -29.7390 O   0  0  0  0  0  0  0  0  0  0  0  0
   -4.3240   24.5450  -30.2460 C   0  0  0  0  0  0  0  0  0  0  0  0
   -5.5640   25.1520  -30.0210 C   0  0  0  0  0  0  0  0  0  0  0  0
   -6.7390   24.5710  -30.5080 C   0  0  0  0  0  0  0  0  0  0  0  0
   -6.6940   23.3730  -31.2300 C   0  0  0  0  0  0  0  0  0  0  0  0
   -7.9060   22.8370  -31.6950 O   0  0  0  0  0  0  0  0  0  0  0  0
   -8.5900   21.7160  -31.1340 C   0  0  0  0  0  0  0  0  0  0  0  0
   -9.3990   20.9400  -32.2010 C   0  0  0  0  0  0  0  0  0  0  0  0
   -8.6480   19.8790  -32.9250 N   0  0  0  0  0  0  0  0  0  0  0  0
   -8.7070   18.5590  -32.2760 C   0  0  0  0  0  0  0  0  0  0  0  0
   -7.3830   18.3350  -31.5660 C   0  0  0  0  0  0  0  0  0  0  0  0
   -6.3930   19.2540  -32.2570 C   0  0  0  0  0  0  0  0  0  0  0  0
   -7.2210   20.1980  -33.1240 C   0  0  0  0  0  0  0  0  0  0  0  0
   -5.4490   22.7560  -31.4570 C   0  0  0  0  0  0  0  0  0  0  0  0
   -4.2740   23.3380  -30.9700 C   0  0  0  0  0  0  0  0  0  0  0  0
   -2.6555   24.8200  -27.7666 H   0  0  0  0  0  0  0  0  0  0  0  0
   -2.2841   23.4906  -28.9161 H   0  0  0  0  0  0  0  0  0  0  0  0
   -1.2849   24.9833  -28.9161 H   0  0  0  0  0  0  0  0  0  0  0  0
   -5.6152   26.0945  -29.4561 H   0  0  0  0  0  0  0  0  0  0  0  0
   -7.7068   25.0597  -30.3220 H   0  0  0  0  0  0  0  0  0  0  0  0
   -7.8506   21.0367  -30.6849 H   0  0  0  0  0  0  0  0  0  0  0  0
   -9.2953   22.0908  -30.3776 H   0  0  0  0  0  0  0  0  0  0  0  0
  -10.2560   20.4669  -31.6993 H   0  0  0  0  0  0  0  0  0  0  0  0
   -9.6858   21.6809  -32.9618 H   0  0  0  0  0  0  0  0  0  0  0  0
   -9.0980   19.7940  -33.8680 H   0  0  0  0  0  0  0  0  0  0  0  0
   -9.5313   18.5358  -31.5480 H   0  0  0  0  0  0  0  0  0  0  0  0
   -8.8829   17.7700  -33.0220 H   0  0  0  0  0  0  0  0  0  0  0  0
   -7.4693   18.5942  -30.5005 H   0  0  0  0  0  0  0  0  0  0  0  0
   -7.0663   17.2827  -31.6148 H   0  0  0  0  0  0  0  0  0  0  0  0
   -5.8191   19.8251  -31.5123 H   0  0  0  0  0  0  0  0  0  0  0  0
   -5.6718   18.6841  -32.8612 H   0  0  0  0  0  0  0  0  0  0  0  0
   -7.0281   21.2398  -32.8283 H   0  0  0  0  0  0  0  0  0  0  0  0
   -6.9496   20.0756  -34.1830 H   0  0  0  0  0  0  0  0  0  0  0  0
   -5.4001   21.8121  -32.0198 H   0  0  0  0  0  0  0  0  0  0  0  0
   -3.3053   22.8502  -31.1535 H   0  0  0  0  0  0  0  0  0  0  0  0
  1  2  1  0
  2  3  1  0
  3  4  2  0
  4  5  1  0
  5  6  2  0
  6  7  1  0
  7  8  1  0
  8  9  1  0
  9 10  1  0
 10 11  1  0
 11 12  1  0
 12 13  1  0
 13 14  1  0
  6 15  1  0
 15 16  2  0
 16  3  1  0
 14 10  1  0
  1 17  1  0
  1 18  1  0
  1 19  1  0
  4 20  1  0
  5 21  1  0
  8 22  1  0
  8 23  1  0
  9 24  1  0
  9 25  1  0
 10 26  1  0
 11 27  1  0
 11 28  1  0
 12 29  1  0
 12 30  1  0
 13 31  1  0
 13 32  1  0
 14 33  1  0
 14 34  1  0
 15 35  1  0
 16 36  1  0
M  CHG  1  10   1
M  END
>  <UniqueID>  (19) 
17

>  <SMILES>  (19) 
COc1ccc(OCC[NH+]2CCCC2)cc1

>  <Energy>  (19) 
40.78743199042195

>  <Genealogy>  (19) 
COc1ccc(OCC[NH+]2CCCC2)cc1 (protonated)
COc1ccc(OCC[NH+]2CCCC2)cc1 (3D coordinates assigned)
COc1ccc(OCC[NH+]2CCCC2)cc1 (nonaromatic ring conformer: 40.78743199042195 kcal/mol)

>  <smiles>  (19) 
COc1ccc(OCCN2CCCC2)cc1

>  <score_type>  (19) 
oracle

>  <origin>  (19) 
adg

>  <m_score__min__energy>  (19) 
-6.1900000000000004

>  <m_primary>  (19) 
energy

$$$$
19:0
     RDKit          3D

 36 37  0  0  0  0  0  0  0  0999 V2000
   -3.3670   20.0540  -31.4570 C   0  0  0  0  0  0  0  0  0  0  0  0
   -4.1000   19.5120  -32.6560 C   0  0  0  0  0  0  0  0  0  0  0  0
   -3.4630   18.5870  -33.5020 C   0  0  0  0  0  0  0  0  0  0  0  0
   -4.1340   18.0610  -34.6080 C   0  0  0  0  0  0  0  0  0  0  0  0
   -5.4470   18.4470  -34.8810 C   0  0  0  0  0  0  0  0  0  0  0  0
   -6.0920   19.3660  -34.0520 C   0  0  0  0  0  0  0  0  0  0  0  0
   -5.4250   19.9160  -32.9470 C   0  0  0  0  0  0  0  0  0  0  0  0
   -6.1390   20.8860  -32.0880 C   0  0  0  0  0  0  0  0  0  0  0  0
   -5.4620   22.0490  -31.7070 C   0  0  0  0  0  0  0  0  0  0  0  0
   -6.1040   23.0020  -30.9100 C   0  0  0  0  0  0  0  0  0  0  0  0
   -5.4140   24.2440  -30.4980 C   0  0  0  0  0  0  0  0  0  0  0  0
   -5.7700   24.9100  -29.2840 N   0  0  0  0  0  0  0  0  0  0  0  0
   -4.5010   24.7310  -31.2170 O   0  0  0  0  0  0  0  0  0  0  0  0
   -7.3840   22.7810  -30.5140 N   0  0  0  0  0  0  0  0  0  0  0  0
   -8.0810   21.6620  -30.8500 C   0  0  0  0  0  0  0  0  0  0  0  0
   -9.4970   21.5470  -30.3630 C   0  0  0  0  0  0  0  0  0  0  0  0
   -7.4730   20.6730  -31.6630 C   0  0  0  0  0  0  0  0  0  0  0  0
   -8.2100   19.3890  -32.0210 C   0  0  0  0  0  0  0  0  0  0  0  0
   -9.1380   19.6000  -33.1300 N   0  0  0  0  0  0  0  0  0  0  0  0
   -3.8524   19.6951  -30.5374 H   0  0  0  0  0  0  0  0  0  0  0  0
   -2.3227   19.7092  -31.4790 H   0  0  0  0  0  0  0  0  0  0  0  0
   -3.3906   21.1535  -31.4790 H   0  0  0  0  0  0  0  0  0  0  0  0
   -2.4293   18.2756  -33.2912 H   0  0  0  0  0  0  0  0  0  0  0  0
   -3.6262   17.3404  -35.2659 H   0  0  0  0  0  0  0  0  0  0  0  0
   -5.9740   18.0266  -35.7502 H   0  0  0  0  0  0  0  0  0  0  0  0
   -7.1298   19.6610  -34.2663 H   0  0  0  0  0  0  0  0  0  0  0  0
   -4.4248   22.2140  -32.0342 H   0  0  0  0  0  0  0  0  0  0  0  0
   -6.5220   24.5400  -28.6600 H   0  0  0  0  0  0  0  0  0  0  0  0
   -5.2770   25.7860  -29.0030 H   0  0  0  0  0  0  0  0  0  0  0  0
   -9.5075   21.5461  -29.2631 H   0  0  0  0  0  0  0  0  0  0  0  0
  -10.0830   22.4005  -30.7346 H   0  0  0  0  0  0  0  0  0  0  0  0
   -9.9376   20.6101  -30.7346 H   0  0  0  0  0  0  0  0  0  0  0  0
   -7.4753   18.6229  -32.3096 H   0  0  0  0  0  0  0  0  0  0  0  0
   -8.7872   19.0641  -31.1428 H   0  0  0  0  0  0  0  0  0  0  0  0
   -9.4850   18.6740  -33.4680 H   0  0  0  0  0  0  0  0  0  0  0  0
   -8.6240   20.0490  -33.9210 H   0  0  0  0  0  0  0  0  0  0  0  0
  1  2  1  0
  2  3  2  0
  3  4  1  0
  4  5  2  0
  5  6  1  0
  6  7  2  0
  7  8  1  0
  8  9  2  0
  9 10  1  0
 10 11  1  0
 11 12  1  0
 11 13  2  0
 10 14  2  0
 14 15  1  0
 15 16  1  0
 15 17  2  0
 17 18  1  0
 18 19  1  0
  7  2  1  0
 17  8  1  0
  1 20  1  0
  1 21  1  0
  1 22  1  0
  3 23  1  0
  4 24  1  0
  5 25  1  0
  6 26  1  0
  9 27  1  0
 12 28  1  0
 12 29  1  0
 16 30  1  0
 16 31  1  0
 16 32  1  0
 18 33  1  0
 18 34  1  0
 19 35  1  0
 19 36  1  0
M  END
>  <UniqueID>  (20) 
18

>  <SMILES>  (20) 
Cc1ccccc1-c1cc(C(N)=O)nc(C)c1CN

>  <Energy>  (20) 
43.76372789308546

>  <Genealogy>  (20) 
Cc1ccccc1-c1cc(C(N)=O)nc(C)c1CN (3D coordinates assigned)
Cc1ccccc1-c1cc(C(N)=O)nc(C)c1CN (optimized conformer: 43.76372789308546 kcal/mol)

>  <smiles>  (20) 
Cc1ccccc1-c1cc(C(N)=O)nc(C)c1CN

>  <score_type>  (20) 
oracle

>  <origin>  (20) 
adg

>  <m_score__min__energy>  (20) 
-8.5099999999999998

>  <m_primary>  (20) 
energy

$$$$
20:0
     RDKit          3D

 34 35  0  0  0  0  0  0  0  0999 V2000
   -3.7780   24.0840  -30.8440 O   0  0  0  0  0  0  0  0  0  0  0  0
   -4.9380   23.6830  -31.1350 C   0  0  0  0  0  0  0  0  0  0  0  0
   -6.1230   24.5100  -30.7320 C   0  0  0  0  0  0  0  0  0  0  0  0
   -7.3100   23.7200  -30.7480 O   0  0  0  0  0  0  0  0  0  0  0  0
   -7.8790   23.2210  -31.9250 C   0  0  0  0  0  0  0  0  0  0  0  0
   -7.3350   23.4290  -33.0440 O   0  0  0  0  0  0  0  0  0  0  0  0
   -9.1040   22.3720  -31.8410 C   0  0  0  0  0  0  0  0  0  0  0  0
   -8.7130   20.9290  -31.8440 C   0  0  0  0  0  0  0  0  0  0  0  0
   -7.5920   20.3880  -31.2250 C   0  0  0  0  0  0  0  0  0  0  0  0
   -7.4340   19.0200  -31.4720 C   0  0  0  0  0  0  0  0  0  0  0  0
   -8.4150   18.4840  -32.2950 C   0  0  0  0  0  0  0  0  0  0  0  0
   -9.4780   19.7160  -32.7210 S   0  0  0  0  0  0  0  0  0  0  0  0
   -5.1310   22.4270  -31.8050 N   0  0  0  0  0  0  0  0  0  0  0  0
   -4.0880   21.7360  -32.5140 C   0  0  0  0  0  0  0  0  0  0  0  0
   -2.9610   22.2860  -32.6690 O   0  0  0  0  0  0  0  0  0  0  0  0
   -4.3290   20.4030  -33.1130 C   0  0  0  0  0  0  0  0  0  0  0  0
   -5.5320   20.1460  -33.7980 C   0  0  0  0  0  0  0  0  0  0  0  0
   -5.7770   18.8840  -34.3480 C   0  0  0  0  0  0  0  0  0  0  0  0
   -4.8260   17.8690  -34.2280 C   0  0  0  0  0  0  0  0  0  0  0  0
   -3.6220   18.1170  -33.5660 C   0  0  0  0  0  0  0  0  0  0  0  0
   -3.3700   19.3770  -33.0130 C   0  0  0  0  0  0  0  0  0  0  0  0
   -5.9626   24.9024  -29.7170 H   0  0  0  0  0  0  0  0  0  0  0  0
   -6.2375   25.3399  -31.4448 H   0  0  0  0  0  0  0  0  0  0  0  0
   -9.6467   22.6027  -30.9124 H   0  0  0  0  0  0  0  0  0  0  0  0
   -9.7519   22.5775  -32.7058 H   0  0  0  0  0  0  0  0  0  0  0  0
   -6.8997   20.9756  -30.6042 H   0  0  0  0  0  0  0  0  0  0  0  0
   -6.6093   18.4247  -31.0531 H   0  0  0  0  0  0  0  0  0  0  0  0
   -8.4852   17.4336  -32.6139 H   0  0  0  0  0  0  0  0  0  0  0  0
   -6.1060   22.0590  -31.8680 H   0  0  0  0  0  0  0  0  0  0  0  0
   -6.2835   20.9427  -33.9011 H   0  0  0  0  0  0  0  0  0  0  0  0
   -6.7219   18.6904  -34.8768 H   0  0  0  0  0  0  0  0  0  0  0  0
   -5.0251   16.8748  -34.6546 H   0  0  0  0  0  0  0  0  0  0  0  0
   -2.8695   17.3194  -33.4790 H   0  0  0  0  0  0  0  0  0  0  0  0
   -2.4173   19.5673  -32.4971 H   0  0  0  0  0  0  0  0  0  0  0  0
  1  2  2  0
  2  3  1  0
  3  4  1  0
  4  5  1  0
  5  6  2  0
  5  7  1  0
  7  8  1  0
  8  9  2  0
  9 10  1  0
 10 11  2  0
 11 12  1  0
  2 13  1  0
 13 14  1  0
 14 15  2  0
 14 16  1  0
 16 17  2  0
 17 18  1  0
 18 19  2  0
 19 20  1  0
 20 21  2  0
 12  8  1  0
 21 16  1  0
  3 22  1  0
  3 23  1  0
  7 24  1  0
  7 25  1  0
  9 26  1  0
 10 27  1  0
 11 28  1  0
 13 29  1  0
 17 30  1  0
 18 31  1  0
 19 32  1  0
 20 33  1  0
 21 34  1  0
M  END
>  <UniqueID>  (21) 
19

>  <SMILES>  (21) 
O=C(COC(=O)Cc1cccs1)NC(=O)c1ccccc1

>  <Energy>  (21) 
53.53861441440674

>  <Genealogy>  (21) 
O=C(COC(=O)Cc1cccs1)NC(=O)c1ccccc1 (3D coordinates assigned)
O=C(COC(=O)Cc1cccs1)NC(=O)c1ccccc1 (optimized conformer: 53.53861441440674 kcal/mol)

>  <smiles>  (21) 
O=C(COC(=O)Cc1cccs1)NC(=O)c1ccccc1

>  <score_type>  (21) 
oracle

>  <origin>  (21) 
adg

>  <m_score__min__energy>  (21) 
-7.9699999999999998

>  <m_primary>  (21) 
energy

$$$$
21:0
     RDKit          3D

 33 35  0  0  0  0  0  0  0  0999 V2000
   -6.8440   14.2910  -34.3370 C   0  0  0  0  0  0  0  0  0  0  0  0
   -7.2660   15.6450  -34.4640 O   0  0  0  0  0  0  0  0  0  0  0  0
   -6.6020   16.7390  -33.8910 C   0  0  0  0  0  0  0  0  0  0  0  0
   -5.2890   17.0080  -34.2970 C   0  0  0  0  0  0  0  0  0  0  0  0
   -4.5860   18.0890  -33.7560 C   0  0  0  0  0  0  0  0  0  0  0  0
   -5.1890   18.9150  -32.7990 C   0  0  0  0  0  0  0  0  0  0  0  0
   -4.4420   20.0480  -32.2350 C   0  0  0  0  0  0  0  0  0  0  0  0
   -4.1940   20.4930  -30.9460 N   0  0  0  0  0  0  0  0  0  0  0  0
   -3.4420   21.5790  -31.2600 N   0  0  0  0  0  0  0  0  0  0  0  0
   -2.7990   22.5740  -30.4450 C   0  0  0  0  0  0  0  0  0  0  0  0
   -1.7370   22.1400  -29.7270 N   0  0  0  0  0  0  0  0  0  0  0  0
   -0.8730   22.7150  -28.8630 C   0  0  0  0  0  0  0  0  0  0  0  0
    0.1930   21.8340  -28.2790 C   0  0  0  0  0  0  0  0  0  0  0  0
   -0.8860   24.0500  -28.4690 C   0  0  0  0  0  0  0  0  0  0  0  0
   -1.7560   25.0600  -28.8570 C   0  0  0  0  0  0  0  0  0  0  0  0
   -1.5680   26.2030  -28.3620 O   0  0  0  0  0  0  0  0  0  0  0  0
   -2.7840   24.9220  -29.7210 N   0  0  0  0  0  0  0  0  0  0  0  0
   -3.2910   23.8930  -30.4380 C   0  0  0  0  0  0  0  0  0  0  0  0
   -4.2910   24.1590  -31.1560 O   0  0  0  0  0  0  0  0  0  0  0  0
   -3.5810   21.2760  -32.8660 S   0  0  0  0  0  0  0  0  0  0  0  0
   -6.5040   18.6510  -32.3880 C   0  0  0  0  0  0  0  0  0  0  0  0
   -7.2070   17.5710  -32.9290 C   0  0  0  0  0  0  0  0  0  0  0  0
   -6.7629   14.0306  -33.2713 H   0  0  0  0  0  0  0  0  0  0  0  0
   -7.5790   13.6309  -34.8208 H   0  0  0  0  0  0  0  0  0  0  0  0
   -5.8641   14.1654  -34.8208 H   0  0  0  0  0  0  0  0  0  0  0  0
   -4.8070   16.3640  -35.0473 H   0  0  0  0  0  0  0  0  0  0  0  0
   -3.5555   18.2914  -34.0833 H   0  0  0  0  0  0  0  0  0  0  0  0
    0.1424   21.8758  -27.1810 H   0  0  0  0  0  0  0  0  0  0  0  0
    0.0367   20.7980  -28.6141 H   0  0  0  0  0  0  0  0  0  0  0  0
    1.1810   22.1826  -28.6141 H   0  0  0  0  0  0  0  0  0  0  0  0
   -0.1025   24.3439  -27.7550 H   0  0  0  0  0  0  0  0  0  0  0  0
   -6.9835   19.2963  -31.6373 H   0  0  0  0  0  0  0  0  0  0  0  0
   -8.2378   17.3698  -32.6019 H   0  0  0  0  0  0  0  0  0  0  0  0
  1  2  1  0
  2  3  1  0
  3  4  2  0
  4  5  1  0
  5  6  2  0
  6  7  1  0
  7  8  2  0
  8  9  1  0
  9 10  1  0
 10 11  2  0
 11 12  1  0
 12 13  1  0
 12 14  2  0
 14 15  1  0
 15 16  2  0
 15 17  1  0
 17 18  1  0
 18 19  2  0
  9 20  1  0
  6 21  1  0
 21 22  2  0
 22  3  1  0
 20  7  1  0
 18 10  1  0
  1 23  1  0
  1 24  1  0
  1 25  1  0
  4 26  1  0
  5 27  1  0
 13 28  1  0
 13 29  1  0
 13 30  1  0
 14 31  1  0
 21 32  1  0
 22 33  1  0
M  CHG  1  17  -1
M  END
>  <UniqueID>  (22) 
20

>  <SMILES>  (22) 
COc1ccc(-c2nn(-c3nc(C)cc(=O)[n-]c3=O)s2)cc1

>  <Energy>  (22) 
70.32882141168501

>  <Genealogy>  (22) 
COc1ccc(-c2nn(-c3nc(C)cc(=O)[n-]c3=O)s2)cc1 (protonated)
COc1ccc(-c2nn(-c3nc(C)cc(=O)[n-]c3=O)s2)cc1 (3D coordinates assigned)
COc1ccc(-c2nn(-c3nc(C)cc(=O)[n-]c3=O)s2)cc1 (optimized conformer: 70.32882141168501 kcal/mol)

>  <smiles>  (22) 
COc1ccc(-c2nn(-c3nc(C)cc(=O)[nH]c3=O)s2)cc1

>  <score_type>  (22) 
oracle

>  <origin>  (22) 
adg

>  <m_score__min__energy>  (22) 
-8.8499999999999996

>  <m_primary>  (22) 
energy

$$$$
22:0
     RDKit          3D

 34 35  0  0  0  0  0  0  0  0999 V2000
   -3.0240   21.4510  -32.1920 C   0  0  0  0  0  0  0  0  0  0  0  0
   -2.4950   22.0660  -30.8890 C   0  0  0  0  0  0  0  0  0  0  0  0
   -3.5420   22.6280  -29.9990 N   0  0  2  0  0  0  0  0  0  0  0  0
   -4.8940   22.6030  -30.6050 C   0  0  0  0  0  0  0  0  0  0  0  0
   -5.0760   23.7260  -31.5460 N   0  0  0  0  0  0  0  0  0  0  0  0
   -6.2700   23.5790  -32.4090 C   0  0  0  0  0  0  0  0  0  0  0  0
   -7.0280   22.2850  -32.1960 C   0  0  0  0  0  0  0  0  0  0  0  0
   -6.5750   21.0900  -32.7810 C   0  0  0  0  0  0  0  0  0  0  0  0
   -7.2760   19.8960  -32.5800 C   0  0  0  0  0  0  0  0  0  0  0  0
   -8.4350   19.8870  -31.8000 C   0  0  0  0  0  0  0  0  0  0  0  0
   -9.1130   18.7280  -31.6060 F   0  0  0  0  0  0  0  0  0  0  0  0
   -8.8980   21.0730  -31.2220 C   0  0  0  0  0  0  0  0  0  0  0  0
   -8.2000   22.2680  -31.4210 C   0  0  0  0  0  0  0  0  0  0  0  0
   -5.0380   25.0120  -30.8340 C   0  0  0  0  0  0  0  0  0  0  0  0
   -3.8020   25.1170  -30.0720 N   0  0  0  0  0  0  0  0  0  0  0  0
   -3.1910   23.9480  -29.5140 C   0  0  0  0  0  0  0  0  0  0  0  0
   -2.0230   24.1240  -28.3720 S   0  0  0  0  0  0  0  0  0  0  0  0
   -3.7245   20.6366  -31.9552 H   0  0  0  0  0  0  0  0  0  0  0  0
   -3.5442   22.2235  -32.7773 H   0  0  0  0  0  0  0  0  0  0  0  0
   -2.1824   21.0521  -32.7773 H   0  0  0  0  0  0  0  0  0  0  0  0
   -1.9575   21.2831  -30.3340 H   0  0  0  0  0  0  0  0  0  0  0  0
   -1.8509   22.9083  -31.1818 H   0  0  0  0  0  0  0  0  0  0  0  0
   -3.5870   21.9980  -29.1640 H   0  0  0  0  0  0  0  0  0  0  0  0
   -5.0272   21.6551  -31.1470 H   0  0  0  0  0  0  0  0  0  0  0  0
   -5.6388   22.6969  -29.8010 H   0  0  0  0  0  0  0  0  0  0  0  0
   -6.9516   24.4173  -32.2023 H   0  0  0  0  0  0  0  0  0  0  0  0
   -5.9121   23.5709  -33.4491 H   0  0  0  0  0  0  0  0  0  0  0  0
   -5.6654   21.0935  -33.3995 H   0  0  0  0  0  0  0  0  0  0  0  0
   -6.9141   18.9630  -33.0368 H   0  0  0  0  0  0  0  0  0  0  0  0
   -9.8122   21.0659  -30.6102 H   0  0  0  0  0  0  0  0  0  0  0  0
   -8.5703   23.1997  -30.9685 H   0  0  0  0  0  0  0  0  0  0  0  0
   -5.0889   25.8345  -31.5626 H   0  0  0  0  0  0  0  0  0  0  0  0
   -5.8948   25.0723  -30.1468 H   0  0  0  0  0  0  0  0  0  0  0  0
   -3.4920   26.0630  -29.7550 H   0  0  0  0  0  0  0  0  0  0  0  0
  1  2  1  0
  2  3  1  0
  3  4  1  0
  4  5  1  0
  5  6  1  0
  6  7  1  0
  7  8  2  0
  8  9  1  0
  9 10  2  0
 10 11  1  0
 10 12  1  0
 12 13  2  0
  5 14  1  0
 14 15  1  0
 15 16  1  0
 16 17  2  0
 16  3  1  0
 13  7  1  0
  1 18  1  0
  1 19  1  0
  1 20  1  0
  2 21  1  0
  2 22  1  0
  3 23  1  1
  4 24  1  0
  4 25  1  0
  6 26  1  0
  6 27  1  0
  8 28  1  0
  9 29  1  0
 12 30  1  0
 13 31  1  0
 14 32  1  0
 14 33  1  0
 15 34  1  0
M  CHG  1   3   1
M  END
>  <UniqueID>  (23) 
21

>  <SMILES>  (23) 
CC[N@@H+]1CN(Cc2ccc(F)cc2)CNC1=S

>  <Energy>  (23) 
41.06197183406862

>  <Genealogy>  (23) 
CC[NH+]1CN(Cc2ccc(F)cc2)CNC1=S (protonated)
CC[N@@H+]1CN(Cc2ccc(F)cc2)CNC1=S (chirality)
CC[N@@H+]1CN(Cc2ccc(F)cc2)CNC1=S (3D coordinates assigned)
CC[N@@H+]1CN(Cc2ccc(F)cc2)CNC1=S (nonaromatic ring conformer: 41.06197183406862 kcal/mol)

>  <smiles>  (23) 
CCN1CN(Cc2ccc(F)cc2)CNC1=S

>  <score_type>  (23) 
oracle

>  <origin>  (23) 
adg

>  <m_score__min__energy>  (23) 
-6.2699999999999996

>  <m_primary>  (23) 
energy

$$$$
23:0
     RDKit          3D

 61 65  0  0  0  0  0  0  0  0999 V2000
    1.1890   27.1070  -37.2630 C   0  0  0  0  0  0  0  0  0  0  0  0
    2.3290   26.4320  -36.8200 C   0  0  0  0  0  0  0  0  0  0  0  0
    2.2100   25.1830  -36.2030 C   0  0  0  0  0  0  0  0  0  0  0  0
    0.9400   24.5990  -36.0260 C   0  0  0  0  0  0  0  0  0  0  0  0
    0.7640   23.3500  -35.4120 O   0  0  0  0  0  0  0  0  0  0  0  0
    1.3290   22.1320  -35.8880 C   0  0  0  0  0  0  0  0  0  0  0  0
    0.4740   20.9840  -35.4410 C   0  0  0  0  0  0  0  0  0  0  0  0
    0.7000   19.6940  -35.9440 C   0  0  0  0  0  0  0  0  0  0  0  0
   -0.0740   18.6180  -35.5000 C   0  0  0  0  0  0  0  0  0  0  0  0
   -1.0890   18.8140  -34.5480 C   0  0  0  0  0  0  0  0  0  0  0  0
   -1.9200   17.6420  -34.0580 C   0  0  0  0  0  0  0  0  0  0  0  0
   -3.3590   17.9480  -33.8480 N   0  0  1  0  0  0  0  0  0  0  0  0
   -4.1610   17.8010  -35.0940 C   0  0  0  0  0  0  0  0  0  0  0  0
   -5.6460   17.4540  -34.8430 C   0  0  0  0  0  0  0  0  0  0  0  0
   -6.2260   18.1190  -33.5680 C   0  0  1  0  0  0  0  0  0  0  0  0
   -5.3290   17.7520  -32.3330 C   0  0  0  0  0  0  0  0  0  0  0  0
   -3.9360   17.2080  -32.7080 C   0  0  0  0  0  0  0  0  0  0  0  0
   -6.2920   19.6550  -33.7980 C   0  0  0  0  0  0  0  0  0  0  0  0
   -7.1480   20.3590  -32.7810 C   0  0  0  0  0  0  0  0  0  0  0  0
   -7.0110   21.7460  -32.6030 C   0  0  0  0  0  0  0  0  0  0  0  0
   -7.8340   22.4280  -31.7050 C   0  0  0  0  0  0  0  0  0  0  0  0
   -8.8100   21.7340  -30.9880 C   0  0  0  0  0  0  0  0  0  0  0  0
   -8.9660   20.3570  -31.1700 C   0  0  0  0  0  0  0  0  0  0  0  0
   -8.1510   19.6640  -32.0790 C   0  0  0  0  0  0  0  0  0  0  0  0
   -8.3000   18.1710  -32.2090 C   0  0  0  0  0  0  0  0  0  0  0  0
   -7.6110   17.6240  -33.3910 N   0  0  0  0  0  0  0  0  0  0  0  0
   -1.2810   20.1000  -34.0130 C   0  0  0  0  0  0  0  0  0  0  0  0
   -0.5080   21.1760  -34.4580 C   0  0  0  0  0  0  0  0  0  0  0  0
   -0.1970   25.2850  -36.4760 C   0  0  0  0  0  0  0  0  0  0  0  0
   -0.0730   26.5340  -37.0910 C   0  0  0  0  0  0  0  0  0  0  0  0
    1.2853   28.0899  -37.7474 H   0  0  0  0  0  0  0  0  0  0  0  0
    3.3224   26.8841  -36.9569 H   0  0  0  0  0  0  0  0  0  0  0  0
    3.1100   24.6550  -35.8549 H   0  0  0  0  0  0  0  0  0  0  0  0
    1.3733   22.1517  -36.9869 H   0  0  0  0  0  0  0  0  0  0  0  0
    2.3459   22.0141  -35.4854 H   0  0  0  0  0  0  0  0  0  0  0  0
    1.4900   19.5285  -36.6913 H   0  0  0  0  0  0  0  0  0  0  0  0
    0.1128   17.6100  -35.8989 H   0  0  0  0  0  0  0  0  0  0  0  0
   -1.8460   16.8345  -34.8013 H   0  0  0  0  0  0  0  0  0  0  0  0
   -1.5144   17.3622  -33.0746 H   0  0  0  0  0  0  0  0  0  0  0  0
   -3.3770   18.9610  -33.5840 H   0  0  0  0  0  0  0  0  0  0  0  0
   -4.1156   18.7493  -35.6495 H   0  0  0  0  0  0  0  0  0  0  0  0
   -3.7268   16.9618  -35.6572 H   0  0  0  0  0  0  0  0  0  0  0  0
   -6.2340   17.7898  -35.7099 H   0  0  0  0  0  0  0  0  0  0  0  0
   -5.7053   16.3653  -34.6974 H   0  0  0  0  0  0  0  0  0  0  0  0
   -5.1938   18.6572  -31.7227 H   0  0  0  0  0  0  0  0  0  0  0  0
   -5.8485   16.9484  -31.7905 H   0  0  0  0  0  0  0  0  0  0  0  0
   -3.2670   17.3081  -31.8406 H   0  0  0  0  0  0  0  0  0  0  0  0
   -4.0426   16.1523  -32.9981 H   0  0  0  0  0  0  0  0  0  0  0  0
   -5.2720   20.0631  -33.7423 H   0  0  0  0  0  0  0  0  0  0  0  0
   -6.7446   19.8234  -34.7863 H   0  0  0  0  0  0  0  0  0  0  0  0
   -6.2505   22.2979  -33.1748 H   0  0  0  0  0  0  0  0  0  0  0  0
   -7.7134   23.5120  -31.5625 H   0  0  0  0  0  0  0  0  0  0  0  0
   -9.4570   22.2713  -30.2790 H   0  0  0  0  0  0  0  0  0  0  0  0
   -9.7319   19.8131  -30.5976 H   0  0  0  0  0  0  0  0  0  0  0  0
   -7.8813   17.6973  -31.3088 H   0  0  0  0  0  0  0  0  0  0  0  0
   -9.3726   17.9564  -32.3250 H   0  0  0  0  0  0  0  0  0  0  0  0
   -7.6030   16.5810  -33.2980 H   0  0  0  0  0  0  0  0  0  0  0  0
   -2.0453   20.2604  -33.2384 H   0  0  0  0  0  0  0  0  0  0  0  0
   -0.6705   22.1784  -34.0352 H   0  0  0  0  0  0  0  0  0  0  0  0
   -1.1931   24.8373  -36.3442 H   0  0  0  0  0  0  0  0  0  0  0  0
   -0.9703   27.0662  -37.4399 H   0  0  0  0  0  0  0  0  0  0  0  0
  1  2  2  0
  2  3  1  0
  3  4  2  0
  4  5  1  0
  5  6  1  0
  6  7  1  0
  7  8  2  0
  8  9  1  0
  9 10  2  0
 10 11  1  0
 11 12  1  0
 12 13  1  0
 13 14  1  0
 14 15  1  0
 15 16  1  0
 16 17  1  0
 15 18  1  0
 18 19  1  0
 19 20  2  0
 20 21  1  0
 21 22  2  0
 22 23  1  0
 23 24  2  0
 24 25  1  0
 25 26  1  0
 10 27  1  0
 27 28  2  0
  4 29  1  0
 29 30  2  0
 30  1  1  0
 28  7  1  0
 17 12  1  0
 24 19  1  0
 15 26  1  1
  1 31  1  0
  2 32  1  0
  3 33  1  0
  6 34  1  0
  6 35  1  0
  8 36  1  0
  9 37  1  0
 11 38  1  0
 11 39  1  0
 12 40  1  1
 13 41  1  0
 13 42  1  0
 14 43  1  0
 14 44  1  0
 16 45  1  0
 16 46  1  0
 17 47  1  0
 17 48  1  0
 18 49  1  0
 18 50  1  0
 20 51  1  0
 21 52  1  0
 22 53  1  0
 23 54  1  0
 25 55  1  0
 25 56  1  0
 26 57  1  0
 27 58  1  0
 28 59  1  0
 29 60  1  0
 30 61  1  0
M  CHG  1  12   1
M  END
>  <UniqueID>  (24) 
22

>  <SMILES>  (24) 
c1ccc(OCc2ccc(C[NH+]3CCC4(CC3)Cc3ccccc3CN4)cc2)cc1

>  <Energy>  (24) 
83.97863196674524

>  <Genealogy>  (24) 
c1ccc(OCc2ccc(C[NH+]3CCC4(CC3)Cc3ccccc3CN4)cc2)cc1 (protonated)
c1ccc(OCc2ccc(C[NH+]3CCC4(CC3)Cc3ccccc3CN4)cc2)cc1 (3D coordinates assigned)
c1ccc(OCc2ccc(C[NH+]3CCC4(CC3)Cc3ccccc3CN4)cc2)cc1 (nonaromatic ring conformer: 83.97863196674524 kcal/mol)

>  <smiles>  (24) 
c1ccc(OCc2ccc(CN3CCC4(CC3)Cc3ccccc3CN4)cc2)cc1

>  <score_type>  (24) 
oracle

>  <origin>  (24) 
adg

>  <m_score__min__energy>  (24) 
-9.8200000000000003

>  <m_primary>  (24) 
energy

$$$$
24:0
     RDKit          3D

 39 40  0  0  0  0  0  0  0  0999 V2000
   -6.1320   25.3830  -29.5160 C   0  0  0  0  0  0  0  0  0  0  0  0
   -5.3420   25.3120  -30.8180 C   0  0  0  0  0  0  0  0  0  0  0  0
   -3.9480   25.4790  -30.5700 O   0  0  0  0  0  0  0  0  0  0  0  0
   -3.1730   24.5420  -29.8770 C   0  0  0  0  0  0  0  0  0  0  0  0
   -2.3580   24.9100  -28.9860 O   0  0  0  0  0  0  0  0  0  0  0  0
   -3.3360   23.0820  -30.1850 C   0  0  2  0  0  0  0  0  0  0  0  0
   -1.9850   22.3790  -30.0870 C   0  0  0  0  0  0  0  0  0  0  0  0
   -3.8610   22.9030  -31.5030 O   0  0  0  0  0  0  0  0  0  0  0  0
   -4.4980   21.7420  -31.9730 C   0  0  0  0  0  0  0  0  0  0  0  0
   -3.8070   20.9310  -32.8780 C   0  0  0  0  0  0  0  0  0  0  0  0
   -4.3890   19.7690  -33.3890 C   0  0  0  0  0  0  0  0  0  0  0  0
   -5.6960   19.3980  -33.0100 C   0  0  0  0  0  0  0  0  0  0  0  0
   -6.3480   18.2370  -33.4980 C   0  0  0  0  0  0  0  0  0  0  0  0
   -5.7820   17.3550  -34.5450 C   0  0  0  0  0  0  0  0  0  0  0  0
   -5.3840   17.8370  -35.6400 O   0  0  0  0  0  0  0  0  0  0  0  0
   -5.7530   15.9720  -34.3360 O   0  0  0  0  0  0  0  0  0  0  0  0
   -5.0960   15.3770  -33.2240 C   0  0  0  0  0  0  0  0  0  0  0  0
   -7.6110   17.9140  -32.9830 C   0  0  0  0  0  0  0  0  0  0  0  0
   -8.2100   18.7560  -32.0460 C   0  0  0  0  0  0  0  0  0  0  0  0
   -9.3520   18.4800  -31.5930 O   0  0  0  0  0  0  0  0  0  0  0  0
   -7.5890   19.8520  -31.6320 O   0  0  0  0  0  0  0  0  0  0  0  0
   -6.3800   20.1990  -32.0630 C   0  0  0  0  0  0  0  0  0  0  0  0
   -5.7890   21.3640  -31.5620 C   0  0  0  0  0  0  0  0  0  0  0  0
   -5.4399   25.3208  -28.6633 H   0  0  0  0  0  0  0  0  0  0  0  0
   -6.6827   26.3343  -29.4726 H   0  0  0  0  0  0  0  0  0  0  0  0
   -6.8435   24.5452  -29.4726 H   0  0  0  0  0  0  0  0  0  0  0  0
   -5.5103   24.3327  -31.2898 H   0  0  0  0  0  0  0  0  0  0  0  0
   -5.6825   26.1190  -31.4834 H   0  0  0  0  0  0  0  0  0  0  0  0
   -4.0367   22.6495  -29.4557 H   0  0  0  0  0  0  0  0  0  0  0  0
   -1.7195   22.2408  -29.0285 H   0  0  0  0  0  0  0  0  0  0  0  0
   -2.0455   21.3980  -30.5809 H   0  0  0  0  0  0  0  0  0  0  0  0
   -1.2163   22.9915  -30.5809 H   0  0  0  0  0  0  0  0  0  0  0  0
   -2.7909   21.2120  -33.1919 H   0  0  0  0  0  0  0  0  0  0  0  0
   -3.8244   19.1388  -34.0918 H   0  0  0  0  0  0  0  0  0  0  0  0
   -5.5277   15.7680  -32.2908 H   0  0  0  0  0  0  0  0  0  0  0  0
   -5.2289   14.2857  -33.2605 H   0  0  0  0  0  0  0  0  0  0  0  0
   -4.0231   15.6171  -33.2605 H   0  0  0  0  0  0  0  0  0  0  0  0
   -8.1270   17.0014  -33.3160 H   0  0  0  0  0  0  0  0  0  0  0  0
   -6.3377   21.9886  -30.8417 H   0  0  0  0  0  0  0  0  0  0  0  0
  1  2  1  0
  2  3  1  0
  3  4  1  0
  4  5  2  0
  4  6  1  0
  6  7  1  0
  6  8  1  0
  8  9  1  0
  9 10  2  0
 10 11  1  0
 11 12  2  0
 12 13  1  0
 13 14  1  0
 14 15  2  0
 14 16  1  0
 16 17  1  0
 13 18  2  0
 18 19  1  0
 19 20  2  0
 19 21  1  0
 21 22  1  0
 22 23  2  0
 23  9  1  0
 22 12  1  0
  1 24  1  0
  1 25  1  0
  1 26  1  0
  2 27  1  0
  2 28  1  0
  6 29  1  1
  7 30  1  0
  7 31  1  0
  7 32  1  0
 10 33  1  0
 11 34  1  0
 17 35  1  0
 17 36  1  0
 17 37  1  0
 18 38  1  0
 23 39  1  0
M  END
>  <UniqueID>  (25) 
23

>  <SMILES>  (25) 
CCOC(=O)[C@H](C)Oc1ccc2c(C(=O)OC)cc(=O)oc2c1

>  <Energy>  (25) 
40.137461699925296

>  <Genealogy>  (25) 
CCOC(=O)[C@H](C)Oc1ccc2c(C(=O)OC)cc(=O)oc2c1 (chirality)
CCOC(=O)[C@H](C)Oc1ccc2c(C(=O)OC)cc(=O)oc2c1 (3D coordinates assigned)
CCOC(=O)[C@H](C)Oc1ccc2c(C(=O)OC)cc(=O)oc2c1 (optimized conformer: 40.137461699925296 kcal/mol)

>  <smiles>  (25) 
CCOC(=O)C(C)Oc1ccc2c(C(=O)OC)cc(=O)oc2c1

>  <score_type>  (25) 
oracle

>  <origin>  (25) 
adg

>  <m_score__min__energy>  (25) 
-7.3300000000000001

>  <m_primary>  (25) 
energy

$$$$
25:0
     RDKit          3D

 25 25  0  0  0  0  0  0  0  0999 V2000
   -6.6252   25.0001  -32.3349 H   0  0  0  0  0  0  0  0  0  0  0  0
   -6.3560   24.2630  -31.5640 C   0  0  0  0  0  0  0  0  0  0  0  0
   -5.5410   24.6730  -30.5700 C   0  0  0  0  0  0  0  0  0  0  0  0
   -4.0910   24.3690  -30.5390 C   0  0  0  0  0  0  0  0  0  0  0  0
   -3.6410   23.4110  -31.2260 O   0  0  0  0  0  0  0  0  0  0  0  0
   -3.2320   25.1070  -29.7190 O   0  0  0  0  0  0  0  0  0  0  0  0
   -2.5990   24.5540  -28.5720 C   0  0  0  0  0  0  0  0  0  0  0  0
   -3.0658   24.9618  -27.6632 H   0  0  0  0  0  0  0  0  0  0  0  0
   -2.7117   23.4598  -28.5828 H   0  0  0  0  0  0  0  0  0  0  0  0
   -1.5299   24.8126  -28.5828 H   0  0  0  0  0  0  0  0  0  0  0  0
   -6.1320   25.4600  -29.4320 C   0  0  0  0  0  0  0  0  0  0  0  0
   -5.8050   25.0245  -28.4763 H   0  0  0  0  0  0  0  0  0  0  0  0
   -5.7934   26.5047  -29.4939 H   0  0  0  0  0  0  0  0  0  0  0  0
   -7.2297   25.4261  -29.4939 H   0  0  0  0  0  0  0  0  0  0  0  0
   -6.9160   22.9010  -31.6990 C   0  0  0  0  0  0  0  0  0  0  0  0
   -8.2040   22.6360  -31.2090 C   0  0  0  0  0  0  0  0  0  0  0  0
   -8.7949   23.4461  -30.7566 H   0  0  0  0  0  0  0  0  0  0  0  0
   -8.7400   21.3470  -31.2930 C   0  0  0  0  0  0  0  0  0  0  0  0
   -9.7561   21.1488  -30.9212 H   0  0  0  0  0  0  0  0  0  0  0  0
   -7.9840   20.3090  -31.8500 C   0  0  0  0  0  0  0  0  0  0  0  0
   -8.7180   18.5500  -31.9650 Br  0  0  0  0  0  0  0  0  0  0  0  0
   -6.6890   20.5580  -32.3110 C   0  0  0  0  0  0  0  0  0  0  0  0
   -6.0923   19.7399  -32.7407 H   0  0  0  0  0  0  0  0  0  0  0  0
   -6.1500   21.8460  -32.2270 C   0  0  0  0  0  0  0  0  0  0  0  0
   -5.1237   22.0345  -32.5750 H   0  0  0  0  0  0  0  0  0  0  0  0
  1  2  1  0
  2  3  2  0
  3  4  1  0
  4  5  2  0
  4  6  1  0
  6  7  1  0
  7  8  1  0
  7  9  1  0
  7 10  1  0
  3 11  1  0
 11 12  1  0
 11 13  1  0
 11 14  1  0
  2 15  1  0
 15 16  2  0
 16 17  1  0
 16 18  1  0
 18 19  1  0
 18 20  2  0
 20 21  1  0
 20 22  1  0
 22 23  1  0
 22 24  2  0
 24 25  1  0
 24 15  1  0
M  END
>  <UniqueID>  (26) 
24

>  <SMILES>  (26) 
COC(=O)/C(C)=C\c1ccc(Br)cc1

>  <Energy>  (26) 
28.16796901612316

>  <Genealogy>  (26) 
COC(=O)/C(C)=C\c1ccc(Br)cc1 (cis-trans isomerization)
COC(=O)/C(C)=C\c1ccc(Br)cc1 (3D coordinates assigned)
COC(=O)/C(C)=C\c1ccc(Br)cc1 (optimized conformer: 28.16796901612316 kcal/mol)

>  <smiles>  (26) 
COC(=O)C(C)=Cc1ccc(Br)cc1

>  <score_type>  (26) 
oracle

>  <origin>  (26) 
adg

>  <m_score__min__energy>  (26) 
-6.9299999999999997

>  <m_primary>  (26) 
energy

$$$$
26:0
     RDKit          3D

 47 49  0  0  0  0  0  0  0  0999 V2000
   -0.5490   26.3850  -26.4000 C   0  0  0  0  0  0  0  0  0  0  0  0
    0.6850   25.4960  -26.5270 C   0  0  0  0  0  0  0  0  0  0  0  0
    0.7560   24.9110  -27.8280 O   0  0  0  0  0  0  0  0  0  0  0  0
   -0.1890   24.0340  -28.3850 C   0  0  0  0  0  0  0  0  0  0  0  0
    0.0850   22.6620  -28.3470 C   0  0  0  0  0  0  0  0  0  0  0  0
   -0.8180   21.7420  -28.8870 C   0  0  0  0  0  0  0  0  0  0  0  0
   -2.0060   22.1860  -29.4690 C   0  0  0  0  0  0  0  0  0  0  0  0
   -2.3060   23.5560  -29.5140 C   0  0  0  0  0  0  0  0  0  0  0  0
   -3.5640   24.0200  -30.1330 C   0  0  0  0  0  0  0  0  0  0  0  0
   -4.5440   23.1910  -30.5570 N   0  0  0  0  0  0  0  0  0  0  0  0
   -5.4770   24.0380  -31.0290 C   0  0  0  0  0  0  0  0  0  0  0  0
   -6.7890   23.6010  -31.6090 C   0  0  0  0  0  0  0  0  0  0  0  0
   -6.6360   22.5970  -32.6840 N   0  0  0  0  0  0  0  0  0  0  0  0
   -7.0300   21.1970  -32.3680 C   0  0  0  0  0  0  0  0  0  0  0  0
   -6.6110   20.1680  -33.4420 C   0  0  0  0  0  0  0  0  0  0  0  0
   -6.8400   18.7220  -32.9570 C   0  0  0  0  0  0  0  0  0  0  0  0
   -8.0740   18.5670  -32.0430 C   0  0  0  0  0  0  0  0  0  0  0  0
   -9.1130   19.6690  -32.2820 C   0  0  0  0  0  0  0  0  0  0  0  0
   -8.5320   21.0640  -31.9850 C   0  0  0  0  0  0  0  0  0  0  0  0
   -5.0410   25.3360  -30.8840 C   0  0  0  0  0  0  0  0  0  0  0  0
   -3.8570   25.2890  -30.3270 O   0  0  0  0  0  0  0  0  0  0  0  0
   -1.3940   24.4780  -28.9670 C   0  0  0  0  0  0  0  0  0  0  0  0
   -0.7754   26.5481  -25.3360 H   0  0  0  0  0  0  0  0  0  0  0  0
   -0.3555   27.3525  -26.8862 H   0  0  0  0  0  0  0  0  0  0  0  0
   -1.4055   25.8951  -26.8862 H   0  0  0  0  0  0  0  0  0  0  0  0
    1.5861   26.1029  -26.3546 H   0  0  0  0  0  0  0  0  0  0  0  0
    0.6179   24.6904  -25.7810 H   0  0  0  0  0  0  0  0  0  0  0  0
    1.0188   22.3048  -27.8883 H   0  0  0  0  0  0  0  0  0  0  0  0
   -0.5918   20.6660  -28.8532 H   0  0  0  0  0  0  0  0  0  0  0  0
   -2.7116   21.4576  -29.8951 H   0  0  0  0  0  0  0  0  0  0  0  0
   -7.4003   23.1646  -30.8053 H   0  0  0  0  0  0  0  0  0  0  0  0
   -7.2670   24.4879  -32.0506 H   0  0  0  0  0  0  0  0  0  0  0  0
   -5.6510   22.6150  -33.0380 H   0  0  0  0  0  0  0  0  0  0  0  0
   -7.2360   22.9180  -33.4800 H   0  0  0  0  0  0  0  0  0  0  0  0
   -6.4472   20.9402  -31.4711 H   0  0  0  0  0  0  0  0  0  0  0  0
   -7.2053   20.3385  -34.3518 H   0  0  0  0  0  0  0  0  0  0  0  0
   -5.5380   20.2985  -33.6459 H   0  0  0  0  0  0  0  0  0  0  0  0
   -6.9758   18.0769  -33.8376 H   0  0  0  0  0  0  0  0  0  0  0  0
   -5.9594   18.4370  -32.3626 H   0  0  0  0  0  0  0  0  0  0  0  0
   -8.5410   17.5908  -32.2406 H   0  0  0  0  0  0  0  0  0  0  0  0
   -7.7337   18.6438  -30.9998 H   0  0  0  0  0  0  0  0  0  0  0  0
   -9.4377   19.6329  -33.3324 H   0  0  0  0  0  0  0  0  0  0  0  0
   -9.9622   19.4966  -31.6044 H   0  0  0  0  0  0  0  0  0  0  0  0
   -9.1054   21.8100  -32.5548 H   0  0  0  0  0  0  0  0  0  0  0  0
   -8.6079   21.2252  -30.8995 H   0  0  0  0  0  0  0  0  0  0  0  0
   -5.5863   26.2440  -31.1810 H   0  0  0  0  0  0  0  0  0  0  0  0
   -1.6232   25.5535  -28.9938 H   0  0  0  0  0  0  0  0  0  0  0  0
  1  2  1  0
  2  3  1  0
  3  4  1  0
  4  5  2  0
  5  6  1  0
  6  7  2  0
  7  8  1  0
  8  9  1  0
  9 10  2  0
 10 11  1  0
 11 12  1  0
 12 13  1  0
 13 14  1  0
 14 15  1  0
 15 16  1  0
 16 17  1  0
 17 18  1  0
 18 19  1  0
 11 20  2  0
 20 21  1  0
  8 22  2  0
 22  4  1  0
 21  9  1  0
 19 14  1  0
  1 23  1  0
  1 24  1  0
  1 25  1  0
  2 26  1  0
  2 27  1  0
  5 28  1  0
  6 29  1  0
  7 30  1  0
 12 31  1  0
 12 32  1  0
 13 33  1  0
 13 34  1  0
 14 35  1  0
 15 36  1  0
 15 37  1  0
 16 38  1  0
 16 39  1  0
 17 40  1  0
 17 41  1  0
 18 42  1  0
 18 43  1  0
 19 44  1  0
 19 45  1  0
 20 46  1  0
 22 47  1  0
M  CHG  1  13   1
M  END
>  <UniqueID>  (27) 
25

>  <SMILES>  (27) 
CCOc1cccc(-c2nc(C[NH2+]C3CCCCC3)co2)c1

>  <Energy>  (27) 
82.39126638938906

>  <Genealogy>  (27) 
CCOc1cccc(-c2nc(C[NH2+]C3CCCCC3)co2)c1 (protonated)
CCOc1cccc(-c2nc(C[NH2+]C3CCCCC3)co2)c1 (3D coordinates assigned)
CCOc1cccc(-c2nc(C[NH2+]C3CCCCC3)co2)c1 (nonaromatic ring conformer: 82.39126638938906 kcal/mol)

>  <smiles>  (27) 
CCOc1cccc(-c2nc(CNC3CCCCC3)co2)c1

>  <score_type>  (27) 
oracle

>  <origin>  (27) 
adg

>  <m_score__min__energy>  (27) 
-8.0500000000000007

>  <m_primary>  (27) 
energy

$$$$
27:0
     RDKit          3D

 30 31  0  0  0  0  0  0  0  0999 V2000
   -3.8910   25.2990  -29.3200 H   0  0  0  0  0  0  0  0  0  0  0  0
   -3.9480   24.8270  -30.2500 N   0  0  0  0  0  0  0  0  0  0  0  0
   -5.0710   24.3580  -30.6940 C   0  0  0  0  0  0  0  0  0  0  0  0
   -6.5840   24.9140  -30.2810 S   0  0  0  0  0  0  0  0  0  0  0  0
   -7.4290   23.8590  -31.2450 N   0  0  0  0  0  0  0  0  0  0  0  0
   -8.4690   23.7940  -31.2990 H   0  0  0  0  0  0  0  0  0  0  0  0
   -6.5020   23.0870  -31.8870 C   0  0  0  0  0  0  0  0  0  0  0  0
   -6.8300   22.1400  -32.7230 N   0  0  0  0  0  0  0  0  0  0  0  0
   -7.1650   20.7820  -32.3910 C   0  0  0  0  0  0  0  0  0  0  0  0
   -6.1890   19.7710  -32.4430 C   0  0  0  0  0  0  0  0  0  0  0  0
   -5.1695   20.0117  -32.7785 H   0  0  0  0  0  0  0  0  0  0  0  0
   -6.5070   18.4630  -32.0710 C   0  0  0  0  0  0  0  0  0  0  0  0
   -5.7434   17.6736  -32.1320 H   0  0  0  0  0  0  0  0  0  0  0  0
   -7.7920   18.1560  -31.6220 C   0  0  0  0  0  0  0  0  0  0  0  0
   -8.0425   17.1233  -31.3378 H   0  0  0  0  0  0  0  0  0  0  0  0
   -8.7610   19.1590  -31.5330 C   0  0  0  0  0  0  0  0  0  0  0  0
   -9.7701   18.9137  -31.1703 H   0  0  0  0  0  0  0  0  0  0  0  0
   -8.4540   20.4790  -31.9040 C   0  0  0  0  0  0  0  0  0  0  0  0
   -9.5000   21.5550  -31.7970 C   0  0  0  0  0  0  0  0  0  0  0  0
   -9.7035   21.7644  -30.7365 H   0  0  0  0  0  0  0  0  0  0  0  0
   -9.1366   22.4697  -32.2882 H   0  0  0  0  0  0  0  0  0  0  0  0
  -10.4246   21.2176  -32.2882 H   0  0  0  0  0  0  0  0  0  0  0  0
   -5.1840   23.3360  -31.5770 N   0  0  0  0  0  0  0  0  0  0  0  0
   -4.0420   22.6360  -32.1820 C   0  0  0  0  0  0  0  0  0  0  0  0
   -4.3683   22.1442  -33.1103 H   0  0  0  0  0  0  0  0  0  0  0  0
   -3.2497   23.3669  -32.4010 H   0  0  0  0  0  0  0  0  0  0  0  0
   -3.4960   21.5860  -31.2220 C   0  0  0  0  0  0  0  0  0  0  0  0
   -3.6660   21.9130  -30.1856 H   0  0  0  0  0  0  0  0  0  0  0  0
   -4.0108   20.6292  -31.3937 H   0  0  0  0  0  0  0  0  0  0  0  0
   -2.4171   21.4579  -31.3937 H   0  0  0  0  0  0  0  0  0  0  0  0
  1  2  1  0
  2  3  2  0
  3  4  1  0
  4  5  1  0
  5  6  1  0
  5  7  1  0
  7  8  2  0
  8  9  1  0
  9 10  2  0
 10 11  1  0
 10 12  1  0
 12 13  1  0
 12 14  2  0
 14 15  1  0
 14 16  1  0
 16 17  1  0
 16 18  2  0
 18 19  1  0
 19 20  1  0
 19 21  1  0
 19 22  1  0
  7 23  1  0
 23 24  1  0
 24 25  1  0
 24 26  1  0
 24 27  1  0
 27 28  1  0
 27 29  1  0
 27 30  1  0
 23  3  1  0
 18  9  1  0
M  END
>  <UniqueID>  (28) 
26

>  <SMILES>  (28) 
[H]/N=c1\s[nH]/c(=N\c2ccccc2C)n1CC

>  <Energy>  (28) 
74.1508699696806

>  <Genealogy>  (28) 
[H]/N=c1\s[nH]/c(=N\c2ccccc2C)n1CC (cis-trans isomerization)
[H]/N=c1\s[nH]/c(=N\c2ccccc2C)n1CC (3D coordinates assigned)
[H]/N=c1\s[nH]/c(=N\c2ccccc2C)n1CC (optimized conformer: 74.1508699696806 kcal/mol)

>  <smiles>  (28) 
CCn1c(=Nc2ccccc2C)[nH]sc1=N

>  <score_type>  (28) 
oracle

>  <origin>  (28) 
adg

>  <m_score__min__energy>  (28) 
-6.7300000000000004

>  <m_primary>  (28) 
energy

$$$$
28:0
     RDKit          3D

 71 75  0  0  0  0  0  0  0  0999 V2000
   -0.9110   22.1700  -26.9830 C   0  0  0  0  0  0  0  0  0  0  0  0
   -1.1300   23.4830  -26.2870 C   0  0  0  0  0  0  0  0  0  0  0  0
   -0.5070   23.7370  -25.0530 C   0  0  0  0  0  0  0  0  0  0  0  0
   -0.6980   24.9580  -24.4020 C   0  0  0  0  0  0  0  0  0  0  0  0
   -1.5150   25.9360  -24.9730 C   0  0  0  0  0  0  0  0  0  0  0  0
   -2.1510   25.6930  -26.1920 C   0  0  0  0  0  0  0  0  0  0  0  0
   -1.9670   24.4700  -26.8530 C   0  0  0  0  0  0  0  0  0  0  0  0
   -2.6230   24.2450  -28.1060 N   0  0  0  0  0  0  0  0  0  0  0  0
   -1.8420   24.2100  -29.3410 C   0  0  0  0  0  0  0  0  0  0  0  0
   -2.5290   23.2720  -30.3350 C   0  0  0  0  0  0  0  0  0  0  0  0
   -3.9240   23.6810  -30.6340 N   0  0  0  0  0  0  0  0  0  0  0  0
   -4.7500   22.5250  -31.0510 C   0  0  0  0  0  0  0  0  0  0  0  0
   -4.5300   22.2080  -32.5520 C   0  0  1  0  0  0  0  0  0  0  0  0
   -3.1250   21.6650  -32.7980 C   0  0  0  0  0  0  0  0  0  0  0  0
   -3.1770   20.2060  -32.5790 N   0  0  2  0  0  0  0  0  0  0  0  0
   -2.1240   19.4700  -33.3380 C   0  0  0  0  0  0  0  0  0  0  0  0
   -1.0210   18.9030  -32.3860 C   0  0  0  0  0  0  0  0  0  0  0  0
    0.1870   19.8390  -32.2720 C   0  0  0  0  0  0  0  0  0  0  0  0
    0.8790   20.0400  -33.6340 C   0  0  0  0  0  0  0  0  0  0  0  0
   -0.0860   19.9170  -34.8290 C   0  0  0  0  0  0  0  0  0  0  0  0
   -1.5000   20.3660  -34.4510 C   0  0  0  0  0  0  0  0  0  0  0  0
   -4.5540   19.7980  -32.9460 C   0  0  0  0  0  0  0  0  0  0  0  0
   -5.3990   21.0720  -33.1010 C   0  0  1  0  0  0  0  0  0  0  0  0
   -6.8230   20.9940  -32.5580 C   0  0  0  0  0  0  0  0  0  0  0  0
   -7.5600   22.1430  -32.2000 C   0  0  0  0  0  0  0  0  0  0  0  0
   -8.8700   22.0260  -31.7260 C   0  0  0  0  0  0  0  0  0  0  0  0
   -9.4650   20.7680  -31.6110 C   0  0  0  0  0  0  0  0  0  0  0  0
   -8.7540   19.6240  -31.9770 C   0  0  0  0  0  0  0  0  0  0  0  0
   -7.4450   19.7350  -32.4540 C   0  0  0  0  0  0  0  0  0  0  0  0
   -4.5830   24.4980  -29.5810 C   0  0  0  0  0  0  0  0  0  0  0  0
   -4.0850   24.1740  -28.1640 C   0  0  0  0  0  0  0  0  0  0  0  0
   -0.7785   21.3755  -26.2338 H   0  0  0  0  0  0  0  0  0  0  0  0
   -1.7830   21.9387  -27.6124 H   0  0  0  0  0  0  0  0  0  0  0  0
   -0.0112   22.2343  -27.6124 H   0  0  0  0  0  0  0  0  0  0  0  0
    0.1352   22.9692  -24.5969 H   0  0  0  0  0  0  0  0  0  0  0  0
   -0.2040   25.1495  -23.4380 H   0  0  0  0  0  0  0  0  0  0  0  0
   -1.6577   26.8994  -24.4616 H   0  0  0  0  0  0  0  0  0  0  0  0
   -2.7987   26.4636  -26.6354 H   0  0  0  0  0  0  0  0  0  0  0  0
   -1.7820   25.2216  -29.7688 H   0  0  0  0  0  0  0  0  0  0  0  0
   -0.8251   23.8483  -29.1288 H   0  0  0  0  0  0  0  0  0  0  0  0
   -1.9538   23.2696  -31.2726 H   0  0  0  0  0  0  0  0  0  0  0  0
   -2.5652   22.2716  -29.8791 H   0  0  0  0  0  0  0  0  0  0  0  0
   -4.4702   21.6462  -30.4515 H   0  0  0  0  0  0  0  0  0  0  0  0
   -5.8101   22.7725  -30.8934 H   0  0  0  0  0  0  0  0  0  0  0  0
   -4.7577   23.1694  -33.0355 H   0  0  0  0  0  0  0  0  0  0  0  0
   -2.8131   21.8803  -33.8306 H   0  0  0  0  0  0  0  0  0  0  0  0
   -2.3994   22.1364  -32.1188 H   0  0  0  0  0  0  0  0  0  0  0  0
   -3.0380   20.0270  -31.5560 H   0  0  0  0  0  0  0  0  0  0  0  0
   -2.6098   18.6135  -33.8283 H   0  0  0  0  0  0  0  0  0  0  0  0
   -1.4555   18.7629  -31.3852 H   0  0  0  0  0  0  0  0  0  0  0  0
   -0.6694   17.9502  -32.8086 H   0  0  0  0  0  0  0  0  0  0  0  0
   -0.1523   20.8156  -31.8963 H   0  0  0  0  0  0  0  0  0  0  0  0
    0.9118   19.3829  -31.5817 H   0  0  0  0  0  0  0  0  0  0  0  0
    1.3315   21.0425  -33.6517 H   0  0  0  0  0  0  0  0  0  0  0  0
    1.6320   19.2450  -33.7386 H   0  0  0  0  0  0  0  0  0  0  0  0
    0.2816   20.5466  -35.6527 H   0  0  0  0  0  0  0  0  0  0  0  0
   -0.1272   18.8611  -35.1346 H   0  0  0  0  0  0  0  0  0  0  0  0
   -1.4572   21.4035  -34.0882 H   0  0  0  0  0  0  0  0  0  0  0  0
   -2.1323   20.2813  -35.3471 H   0  0  0  0  0  0  0  0  0  0  0  0
   -4.5386   19.2421  -33.8950 H   0  0  0  0  0  0  0  0  0  0  0  0
   -4.9808   19.1475  -32.1684 H   0  0  0  0  0  0  0  0  0  0  0  0
   -5.6380   21.2521  -34.1595 H   0  0  0  0  0  0  0  0  0  0  0  0
   -7.1004   23.1379  -32.2946 H   0  0  0  0  0  0  0  0  0  0  0  0
   -9.4335   22.9273  -31.4429 H   0  0  0  0  0  0  0  0  0  0  0  0
  -10.4938   20.6786  -31.2321 H   0  0  0  0  0  0  0  0  0  0  0  0
   -9.2246   18.6336  -31.8899 H   0  0  0  0  0  0  0  0  0  0  0  0
   -6.8952   18.8298  -32.7511 H   0  0  0  0  0  0  0  0  0  0  0  0
   -4.3845   25.5601  -29.7871 H   0  0  0  0  0  0  0  0  0  0  0  0
   -5.6577   24.2653  -29.6112 H   0  0  0  0  0  0  0  0  0  0  0  0
   -4.5112   24.8997  -27.4556 H   0  0  0  0  0  0  0  0  0  0  0  0
   -4.4028   23.1547  -27.8993 H   0  0  0  0  0  0  0  0  0  0  0  0
  1  2  1  0
  2  3  2  0
  3  4  1  0
  4  5  2  0
  5  6  1  0
  6  7  2  0
  7  8  1  0
  8  9  1  0
  9 10  1  0
 10 11  1  0
 11 12  1  0
 12 13  1  0
 13 14  1  0
 14 15  1  0
 15 16  1  0
 16 17  1  0
 17 18  1  0
 18 19  1  0
 19 20  1  0
 20 21  1  0
 15 22  1  0
 22 23  1  0
 23 24  1  0
 24 25  2  0
 25 26  1  0
 26 27  2  0
 27 28  1  0
 28 29  2  0
 11 30  1  0
 30 31  1  0
  7  2  1  0
 31  8  1  0
 23 13  1  0
 29 24  1  0
 21 16  1  0
  1 32  1  0
  1 33  1  0
  1 34  1  0
  3 35  1  0
  4 36  1  0
  5 37  1  0
  6 38  1  0
  9 39  1  0
  9 40  1  0
 10 41  1  0
 10 42  1  0
 12 43  1  0
 12 44  1  0
 13 45  1  6
 14 46  1  0
 14 47  1  0
 15 48  1  1
 16 49  1  0
 17 50  1  0
 17 51  1  0
 18 52  1  0
 18 53  1  0
 19 54  1  0
 19 55  1  0
 20 56  1  0
 20 57  1  0
 21 58  1  0
 21 59  1  0
 22 60  1  0
 22 61  1  0
 23 62  1  6
 25 63  1  0
 26 64  1  0
 27 65  1  0
 28 66  1  0
 29 67  1  0
 30 68  1  0
 30 69  1  0
 31 70  1  0
 31 71  1  0
M  CHG  1  15   1
M  END
>  <UniqueID>  (29) 
27

>  <SMILES>  (29) 
Cc1ccccc1N1CCN(C[C@H]2C[N@H+](C3CCCCC3)CC2c2ccccc2)CC1

>  <Energy>  (29) 
101.91177333757129

>  <Genealogy>  (29) 
Cc1ccccc1N1CCN(CC2C[NH+](C3CCCCC3)CC2c2ccccc2)CC1 (protonated)
Cc1ccccc1N1CCN(C[C@H]2C[N@H+](C3CCCCC3)CC2c2ccccc2)CC1 (chirality)
Cc1ccccc1N1CCN(C[C@H]2C[N@H+](C3CCCCC3)CC2c2ccccc2)CC1 (3D coordinates assigned)
Cc1ccccc1N1CCN(C[C@H]2C[N@H+](C3CCCCC3)CC2c2ccccc2)CC1 (nonaromatic ring conformer: 101.91177333757129 kcal/mol)

>  <smiles>  (29) 
Cc1ccccc1N1CCN(CC2CN(C3CCCCC3)CC2c2ccccc2)CC1

>  <score_type>  (29) 
oracle

>  <origin>  (29) 
adg

>  <m_score__min__energy>  (29) 
-9.1899999999999995

>  <m_primary>  (29) 
energy

$$$$
29:0
     RDKit          3D

 51 53  0  0  0  0  0  0  0  0999 V2000
   -6.1950   17.3550  -31.2440 C   0  0  0  0  0  0  0  0  0  0  0  0
   -6.0870   16.7130  -32.5670 N   0  0  0  0  0  0  0  0  0  0  0  0
   -4.6700   16.6050  -32.9460 C   0  0  0  0  0  0  0  0  0  0  0  0
   -6.8240   17.4830  -33.5880 C   0  0  0  0  0  0  0  0  0  0  0  0
   -6.7790   18.9500  -33.2750 C   0  0  0  0  0  0  0  0  0  0  0  0
   -5.7090   19.7280  -33.5340 N   0  0  0  0  0  0  0  0  0  0  0  0
   -6.0200   20.9400  -33.1070 N   0  0  0  0  0  0  0  0  0  0  0  0
   -7.2680   20.9030  -32.5940 C   0  0  0  0  0  0  0  0  0  0  0  0
   -7.9830   22.0790  -31.9500 C   0  0  0  0  0  0  0  0  0  0  0  0
   -7.7230   22.1140  -30.4330 C   0  0  0  0  0  0  0  0  0  0  0  0
   -6.2690   22.5090  -30.0900 C   0  0  0  0  0  0  0  0  0  0  0  0
   -5.5840   23.2040  -31.2050 N   0  0  0  0  0  0  0  0  0  0  0  0
   -4.3380   23.8530  -30.7510 C   0  0  0  0  0  0  0  0  0  0  0  0
   -3.1740   22.9070  -30.8900 C   0  0  0  0  0  0  0  0  0  0  0  0
   -2.0820   23.0050  -30.0120 C   0  0  0  0  0  0  0  0  0  0  0  0
   -0.9800   22.1590  -30.1620 C   0  0  0  0  0  0  0  0  0  0  0  0
   -0.9580   21.2110  -31.1880 C   0  0  0  0  0  0  0  0  0  0  0  0
   -2.0390   21.1100  -32.0690 C   0  0  0  0  0  0  0  0  0  0  0  0
   -3.1440   21.9570  -31.9240 C   0  0  0  0  0  0  0  0  0  0  0  0
   -6.4820   24.1750  -31.8570 C   0  0  0  0  0  0  0  0  0  0  0  0
   -7.6230   23.4420  -32.5930 C   0  0  0  0  0  0  0  0  0  0  0  0
   -7.7650   19.6470  -32.6670 N   0  0  0  0  0  0  0  0  0  0  0  0
   -9.1100   19.1800  -32.3280 C   0  0  0  0  0  0  0  0  0  0  0  0
   -6.0675   16.5970  -30.4571 H   0  0  0  0  0  0  0  0  0  0  0  0
   -5.4133   18.1225  -31.1440 H   0  0  0  0  0  0  0  0  0  0  0  0
   -7.1847   17.8245  -31.1440 H   0  0  0  0  0  0  0  0  0  0  0  0
   -4.0503   16.5578  -32.0384 H   0  0  0  0  0  0  0  0  0  0  0  0
   -4.5182   15.6927  -33.5415 H   0  0  0  0  0  0  0  0  0  0  0  0
   -4.3817   17.4838  -33.5415 H   0  0  0  0  0  0  0  0  0  0  0  0
   -6.3661   17.3089  -34.5729 H   0  0  0  0  0  0  0  0  0  0  0  0
   -7.8732   17.1528  -33.5935 H   0  0  0  0  0  0  0  0  0  0  0  0
   -5.3840   21.7620  -33.1840 H   0  0  0  0  0  0  0  0  0  0  0  0
   -9.0565   21.9208  -32.1305 H   0  0  0  0  0  0  0  0  0  0  0  0
   -8.4046   22.8460  -29.9752 H   0  0  0  0  0  0  0  0  0  0  0  0
   -7.8949   21.1006  -30.0413 H   0  0  0  0  0  0  0  0  0  0  0  0
   -6.2832   23.1765  -29.2158 H   0  0  0  0  0  0  0  0  0  0  0  0
   -5.7133   21.5817  -29.8868 H   0  0  0  0  0  0  0  0  0  0  0  0
   -4.1523   24.7488  -31.3618 H   0  0  0  0  0  0  0  0  0  0  0  0
   -4.4462   24.1335  -29.6929 H   0  0  0  0  0  0  0  0  0  0  0  0
   -2.0944   23.7505  -29.2033 H   0  0  0  0  0  0  0  0  0  0  0  0
   -0.1281   22.2396  -29.4708 H   0  0  0  0  0  0  0  0  0  0  0  0
   -0.0906   20.5443  -31.3027 H   0  0  0  0  0  0  0  0  0  0  0  0
   -2.0211   20.3640  -32.8771 H   0  0  0  0  0  0  0  0  0  0  0  0
   -3.9909   21.8784  -32.6216 H   0  0  0  0  0  0  0  0  0  0  0  0
   -6.9116   24.8406  -31.0938 H   0  0  0  0  0  0  0  0  0  0  0  0
   -5.9045   24.7607  -32.5873 H   0  0  0  0  0  0  0  0  0  0  0  0
   -8.5170   24.0827  -32.5794 H   0  0  0  0  0  0  0  0  0  0  0  0
   -7.2768   23.2405  -33.6175 H   0  0  0  0  0  0  0  0  0  0  0  0
   -9.2200   19.1418  -31.2342 H   0  0  0  0  0  0  0  0  0  0  0  0
   -9.8550   19.8721  -32.7475 H   0  0  0  0  0  0  0  0  0  0  0  0
   -9.2658   18.1752  -32.7475 H   0  0  0  0  0  0  0  0  0  0  0  0
  1  2  1  0
  2  3  1  0
  2  4  1  0
  4  5  1  0
  5  6  2  0
  6  7  1  0
  7  8  2  0
  8  9  1  0
  9 10  1  0
 10 11  1  0
 11 12  1  0
 12 13  1  0
 13 14  1  0
 14 15  2  0
 15 16  1  0
 16 17  2  0
 17 18  1  0
 18 19  2  0
 12 20  1  0
 20 21  1  0
  8 22  1  0
 22 23  1  0
 22  5  1  0
 21  9  1  0
 19 14  1  0
  1 24  1  0
  1 25  1  0
  1 26  1  0
  3 27  1  0
  3 28  1  0
  3 29  1  0
  4 30  1  0
  4 31  1  0
  7 32  1  0
  9 33  1  0
 10 34  1  0
 10 35  1  0
 11 36  1  0
 11 37  1  0
 13 38  1  0
 13 39  1  0
 15 40  1  0
 16 41  1  0
 17 42  1  0
 18 43  1  0
 19 44  1  0
 20 45  1  0
 20 46  1  0
 21 47  1  0
 21 48  1  0
 23 49  1  0
 23 50  1  0
 23 51  1  0
M  CHG  1   7   1
M  END
>  <UniqueID>  (30) 
28

>  <SMILES>  (30) 
CN(C)Cc1n[nH+]c(C2CCN(Cc3ccccc3)CC2)n1C

>  <Energy>  (30) 
91.13467329101641

>  <Genealogy>  (30) 
CN(C)Cc1n[nH+]c(C2CCN(Cc3ccccc3)CC2)n1C (protonated)
CN(C)Cc1n[nH+]c(C2CCN(Cc3ccccc3)CC2)n1C (3D coordinates assigned)
CN(C)Cc1n[nH+]c(C2CCN(Cc3ccccc3)CC2)n1C (nonaromatic ring conformer: 91.13467329101641 kcal/mol)

>  <smiles>  (30) 
CN(C)Cc1nnc(C2CCN(Cc3ccccc3)CC2)n1C

>  <score_type>  (30) 
oracle

>  <origin>  (30) 
adg

>  <m_score__min__energy>  (30) 
-6.6799999999999997

>  <m_primary>  (30) 
energy

$$$$
30:0
     RDKit          3D

 54 56  0  0  0  0  0  0  0  0999 V2000
   -9.4660   22.2680  -31.9600 C   0  0  0  0  0  0  0  0  0  0  0  0
   -9.1610   20.9890  -31.4140 O   0  0  0  0  0  0  0  0  0  0  0  0
   -8.2900   20.0620  -32.0060 C   0  0  0  0  0  0  0  0  0  0  0  0
   -7.3120   20.5390  -32.8870 C   0  0  0  0  0  0  0  0  0  0  0  0
   -6.4190   19.6560  -33.5010 C   0  0  0  0  0  0  0  0  0  0  0  0
   -6.4960   18.2800  -33.2450 C   0  0  0  0  0  0  0  0  0  0  0  0
   -5.5120   17.3350  -33.8840 C   0  0  0  0  0  0  0  0  0  0  0  0
   -4.1720   17.4770  -33.2950 N   0  0  0  0  0  0  0  0  0  0  0  0
   -3.0780   17.4040  -34.2790 C   0  0  0  0  0  0  0  0  0  0  0  0
   -1.9190   18.3800  -33.9670 C   0  0  0  0  0  0  0  0  0  0  0  0
   -2.3410   19.4770  -33.0630 N   0  0  0  0  0  0  0  0  0  0  0  0
   -3.0740   20.5080  -33.8320 C   0  0  0  0  0  0  0  0  0  0  0  0
   -3.7110   21.5310  -32.8790 C   0  0  0  0  0  0  0  0  0  0  0  0
   -2.8050   21.8340  -31.7620 N   0  0  0  0  0  0  0  0  0  0  0  0
   -3.3330   22.2470  -30.4870 C   0  0  0  0  0  0  0  0  0  0  0  0
   -2.8120   21.8050  -29.4270 O   0  0  0  0  0  0  0  0  0  0  0  0
   -4.4900   23.1640  -30.3910 C   0  0  0  0  0  0  0  0  0  0  0  0
   -5.8010   22.6620  -30.3320 C   0  0  0  0  0  0  0  0  0  0  0  0
   -6.8890   23.5370  -30.2520 C   0  0  0  0  0  0  0  0  0  0  0  0
   -6.6780   24.9180  -30.2430 C   0  0  0  0  0  0  0  0  0  0  0  0
   -5.3800   25.4280  -30.3180 C   0  0  0  0  0  0  0  0  0  0  0  0
   -4.2890   24.5560  -30.3980 C   0  0  0  0  0  0  0  0  0  0  0  0
   -1.3800   21.5310  -31.9160 C   0  0  0  0  0  0  0  0  0  0  0  0
   -1.1760   20.0610  -32.3350 C   0  0  0  0  0  0  0  0  0  0  0  0
   -7.4720   17.7980  -32.3580 C   0  0  0  0  0  0  0  0  0  0  0  0
   -8.3640   18.6810  -31.7430 C   0  0  0  0  0  0  0  0  0  0  0  0
   -9.6368   22.9843  -31.1428 H   0  0  0  0  0  0  0  0  0  0  0  0
   -8.6248   22.6123  -32.5795 H   0  0  0  0  0  0  0  0  0  0  0  0
  -10.3721   22.1956  -32.5795 H   0  0  0  0  0  0  0  0  0  0  0  0
   -7.2458   21.6166  -33.0976 H   0  0  0  0  0  0  0  0  0  0  0  0
   -5.6522   20.0428  -34.1883 H   0  0  0  0  0  0  0  0  0  0  0  0
   -5.8602   16.3020  -33.7365 H   0  0  0  0  0  0  0  0  0  0  0  0
   -5.4466   17.5755  -34.9554 H   0  0  0  0  0  0  0  0  0  0  0  0
   -4.1240   18.3960  -32.7950 H   0  0  0  0  0  0  0  0  0  0  0  0
   -2.6805   16.3784  -34.2859 H   0  0  0  0  0  0  0  0  0  0  0  0
   -3.4946   17.6892  -35.2563 H   0  0  0  0  0  0  0  0  0  0  0  0
   -1.1028   17.8196  -33.4876 H   0  0  0  0  0  0  0  0  0  0  0  0
   -1.5910   18.8302  -34.9155 H   0  0  0  0  0  0  0  0  0  0  0  0
   -3.0070   19.0760  -32.3580 H   0  0  0  0  0  0  0  0  0  0  0  0
   -2.3739   21.0253  -34.5045 H   0  0  0  0  0  0  0  0  0  0  0  0
   -3.8680   20.0211  -34.4172 H   0  0  0  0  0  0  0  0  0  0  0  0
   -3.9236   22.4572  -33.4330 H   0  0  0  0  0  0  0  0  0  0  0  0
   -4.6416   21.1063  -32.4746 H   0  0  0  0  0  0  0  0  0  0  0  0
   -5.9724   21.5756  -30.3488 H   0  0  0  0  0  0  0  0  0  0  0  0
   -7.9123   23.1373  -30.1961 H   0  0  0  0  0  0  0  0  0  0  0  0
   -7.5350   25.6044  -30.1768 H   0  0  0  0  0  0  0  0  0  0  0  0
   -5.2155   26.5156  -30.3142 H   0  0  0  0  0  0  0  0  0  0  0  0
   -3.2686   24.9611  -30.4667 H   0  0  0  0  0  0  0  0  0  0  0  0
   -0.9526   22.1887  -32.6872 H   0  0  0  0  0  0  0  0  0  0  0  0
   -0.8777   21.6961  -30.9514 H   0  0  0  0  0  0  0  0  0  0  0  0
   -0.2941   20.0059  -32.9901 H   0  0  0  0  0  0  0  0  0  0  0  0
   -1.0496   19.4780  -31.4108 H   0  0  0  0  0  0  0  0  0  0  0  0
   -7.5349   16.7204  -32.1462 H   0  0  0  0  0  0  0  0  0  0  0  0
   -9.1269   18.2953  -31.0507 H   0  0  0  0  0  0  0  0  0  0  0  0
  1  2  1  0
  2  3  1  0
  3  4  2  0
  4  5  1  0
  5  6  2  0
  6  7  1  0
  7  8  1  0
  8  9  1  0
  9 10  1  0
 10 11  1  0
 11 12  1  0
 12 13  1  0
 13 14  1  0
 14 15  1  0
 15 16  2  0
 15 17  1  0
 17 18  2  0
 18 19  1  0
 19 20  2  0
 20 21  1  0
 21 22  2  0
 14 23  1  0
 23 24  1  0
  6 25  1  0
 25 26  2  0
 26  3  1  0
 24 11  1  0
 22 17  1  0
  1 27  1  0
  1 28  1  0
  1 29  1  0
  4 30  1  0
  5 31  1  0
  7 32  1  0
  7 33  1  0
  8 34  1  0
  9 35  1  0
  9 36  1  0
 10 37  1  0
 10 38  1  0
 11 39  1  0
 12 40  1  0
 12 41  1  0
 13 42  1  0
 13 43  1  0
 18 44  1  0
 19 45  1  0
 20 46  1  0
 21 47  1  0
 22 48  1  0
 23 49  1  0
 23 50  1  0
 24 51  1  0
 24 52  1  0
 25 53  1  0
 26 54  1  0
M  CHG  1  11   1
M  END
>  <UniqueID>  (31) 
29

>  <SMILES>  (31) 
COc1ccc(CNCC[NH+]2CCN(C(=O)c3ccccc3)CC2)cc1

>  <Energy>  (31) 
66.47682599497224

>  <Genealogy>  (31) 
COc1ccc(CNCC[NH+]2CCN(C(=O)c3ccccc3)CC2)cc1 (protonated)
COc1ccc(CNCC[NH+]2CCN(C(=O)c3ccccc3)CC2)cc1 (3D coordinates assigned)
COc1ccc(CNCC[NH+]2CCN(C(=O)c3ccccc3)CC2)cc1 (nonaromatic ring conformer: 66.47682599497224 kcal/mol)

>  <smiles>  (31) 
COc1ccc(CNCCN2CCN(C(=O)c3ccccc3)CC2)cc1

>  <score_type>  (31) 
oracle

>  <origin>  (31) 
adg

>  <m_score__min__energy>  (31) 
-8.3000000000000007

>  <m_primary>  (31) 
energy

$$$$
31:0
     RDKit          3D

 24 25  0  0  0  0  0  0  0  0999 V2000
   -6.8590   24.5560  -30.4660 C   0  0  0  0  0  0  0  0  0  0  0  0
   -6.3710   23.3380  -31.1340 N   0  0  0  0  0  0  0  0  0  0  0  0
   -7.2370   22.2940  -31.3730 C   0  0  0  0  0  0  0  0  0  0  0  0
   -8.4530   22.3670  -31.0480 O   0  0  0  0  0  0  0  0  0  0  0  0
   -6.7340   21.1470  -31.9750 C   0  0  0  0  0  0  0  0  0  0  0  0
   -5.4220   21.0630  -32.2960 C   0  0  0  0  0  0  0  0  0  0  0  0
   -5.1370   19.8590  -32.8310 N   0  0  0  0  0  0  0  0  0  0  0  0
   -6.3410   19.2310  -32.8200 C   0  0  0  0  0  0  0  0  0  0  0  0
   -6.5580   17.4420  -33.4620 Br  0  0  0  0  0  0  0  0  0  0  0  0
   -7.3410   19.9940  -32.3050 N   0  0  0  0  0  0  0  0  0  0  0  0
   -8.7430   19.6300  -32.1100 C   0  0  0  0  0  0  0  0  0  0  0  0
   -4.5470   22.0770  -32.0590 N   0  0  0  0  0  0  0  0  0  0  0  0
   -3.1200   21.9260  -32.3720 C   0  0  0  0  0  0  0  0  0  0  0  0
   -5.0270   23.2150  -31.4470 C   0  0  0  0  0  0  0  0  0  0  0  0
   -4.2280   24.1520  -31.1610 O   0  0  0  0  0  0  0  0  0  0  0  0
   -6.8055   24.4226  -29.3754 H   0  0  0  0  0  0  0  0  0  0  0  0
   -6.2343   25.4117  -30.7618 H   0  0  0  0  0  0  0  0  0  0  0  0
   -7.9017   24.7437  -30.7618 H   0  0  0  0  0  0  0  0  0  0  0  0
   -8.9608   19.5735  -31.0333 H   0  0  0  0  0  0  0  0  0  0  0  0
   -9.3874   20.3906  -32.5750 H   0  0  0  0  0  0  0  0  0  0  0  0
   -8.9360   18.6520  -32.5750 H   0  0  0  0  0  0  0  0  0  0  0  0
   -2.5440   21.8650  -31.4369 H   0  0  0  0  0  0  0  0  0  0  0  0
   -2.9682   21.0068  -32.9568 H   0  0  0  0  0  0  0  0  0  0  0  0
   -2.7791   22.7931  -32.9568 H   0  0  0  0  0  0  0  0  0  0  0  0
  1  2  1  0
  2  3  1  0
  3  4  2  0
  3  5  1  0
  5  6  2  0
  6  7  1  0
  7  8  2  0
  8  9  1  0
  8 10  1  0
 10 11  1  0
  6 12  1  0
 12 13  1  0
 12 14  1  0
 14 15  2  0
 14  2  1  0
 10  5  1  0
  1 16  1  0
  1 17  1  0
  1 18  1  0
 11 19  1  0
 11 20  1  0
 11 21  1  0
 13 22  1  0
 13 23  1  0
 13 24  1  0
M  END
>  <UniqueID>  (32) 
30

>  <SMILES>  (32) 
Cn1c(=O)c2c(nc(Br)n2C)n(C)c1=O

>  <Energy>  (32) 
69.88630054012171

>  <Genealogy>  (32) 
Cn1c(=O)c2c(nc(Br)n2C)n(C)c1=O (3D coordinates assigned)
Cn1c(=O)c2c(nc(Br)n2C)n(C)c1=O (optimized conformer: 69.88630054012171 kcal/mol)

>  <smiles>  (32) 
Cn1c(=O)c2c(nc(Br)n2C)n(C)c1=O

>  <score_type>  (32) 
oracle

>  <origin>  (32) 
adg

>  <m_score__min__energy>  (32) 
-6.0999999999999996

>  <m_primary>  (32) 
energy

$$$$
32:0
     RDKit          3D

 28 30  0  0  0  0  0  0  0  0999 V2000
   -4.9870   24.5580  -29.8140 C   0  0  0  0  0  0  0  0  0  0  0  0
   -4.8210   24.5190  -31.2160 O   0  0  0  0  0  0  0  0  0  0  0  0
   -5.0050   23.2020  -31.6950 C   0  0  0  0  0  0  0  0  0  0  0  0
   -6.4650   22.8700  -31.7630 C   0  0  0  0  0  0  0  0  0  0  0  0
   -7.4600   23.7100  -31.3830 N   0  0  0  0  0  0  0  0  0  0  0  0
   -8.6020   23.0420  -31.5360 N   0  0  0  0  0  0  0  0  0  0  0  0
   -8.2910   21.8170  -31.9910 C   0  0  0  0  0  0  0  0  0  0  0  0
   -9.1430   20.7610  -32.2820 C   0  0  0  0  0  0  0  0  0  0  0  0
   -8.5490   19.5700  -32.7290 C   0  0  0  0  0  0  0  0  0  0  0  0
   -7.1370   19.4850  -32.8630 C   0  0  0  0  0  0  0  0  0  0  0  0
   -6.4650   18.2560  -33.3230 C   0  0  0  0  0  0  0  0  0  0  0  0
   -6.8600   16.9470  -33.0900 C   0  0  0  0  0  0  0  0  0  0  0  0
   -5.9210   16.1540  -33.7160 C   0  0  0  0  0  0  0  0  0  0  0  0
   -5.0170   17.0230  -34.2870 C   0  0  0  0  0  0  0  0  0  0  0  0
   -3.4800   16.5210  -35.2960 Br  0  0  0  0  0  0  0  0  0  0  0  0
   -5.3630   18.2640  -34.0390 O   0  0  0  0  0  0  0  0  0  0  0  0
   -6.3730   20.5750  -32.5530 N   0  0  0  0  0  0  0  0  0  0  0  0
   -6.9750   21.6860  -32.1370 N   0  0  0  0  0  0  0  0  0  0  0  0
   -4.0279   24.3327  -29.3248 H   0  0  0  0  0  0  0  0  0  0  0  0
   -5.3258   25.5602  -29.5126 H   0  0  0  0  0  0  0  0  0  0  0  0
   -5.7366   23.8115  -29.5126 H   0  0  0  0  0  0  0  0  0  0  0  0
   -4.5669   23.1175  -32.7004 H   0  0  0  0  0  0  0  0  0  0  0  0
   -4.5111   22.4999  -31.0072 H   0  0  0  0  0  0  0  0  0  0  0  0
   -9.5520   23.4200  -31.3230 H   0  0  0  0  0  0  0  0  0  0  0  0
  -10.2332   20.8528  -32.1678 H   0  0  0  0  0  0  0  0  0  0  0  0
   -9.1775   18.7016  -32.9758 H   0  0  0  0  0  0  0  0  0  0  0  0
   -7.7405   16.6107  -32.5229 H   0  0  0  0  0  0  0  0  0  0  0  0
   -5.8985   15.0548  -33.7520 H   0  0  0  0  0  0  0  0  0  0  0  0
  1  2  1  0
  2  3  1  0
  3  4  1  0
  4  5  2  0
  5  6  1  0
  6  7  2  0
  7  8  1  0
  8  9  2  0
  9 10  1  0
 10 11  1  0
 11 12  2  0
 12 13  1  0
 13 14  2  0
 14 15  1  0
 14 16  1  0
 10 17  2  0
 17 18  1  0
 18  4  1  0
 18  7  1  0
 16 11  1  0
  1 19  1  0
  1 20  1  0
  1 21  1  0
  3 22  1  0
  3 23  1  0
  6 24  1  0
  8 25  1  0
  9 26  1  0
 12 27  1  0
 13 28  1  0
M  CHG  1   6   1
M  END
>  <UniqueID>  (33) 
31

>  <SMILES>  (33) 
COCc1n[nH+]c2ccc(-c3ccc(Br)o3)nn12

>  <Energy>  (33) 
101.4848640660103

>  <Genealogy>  (33) 
COCc1n[nH+]c2ccc(-c3ccc(Br)o3)nn12 (protonated)
COCc1n[nH+]c2ccc(-c3ccc(Br)o3)nn12 (3D coordinates assigned)
COCc1n[nH+]c2ccc(-c3ccc(Br)o3)nn12 (optimized conformer: 101.4848640660103 kcal/mol)

>  <smiles>  (33) 
COCc1nnc2ccc(-c3ccc(Br)o3)nn12

>  <score_type>  (33) 
oracle

>  <origin>  (33) 
adg

>  <m_score__min__energy>  (33) 
-6.4500000000000002

>  <m_primary>  (33) 
energy

$$$$
33:0
     RDKit          3D

 50 52  0  0  0  0  0  0  0  0999 V2000
   -1.5540   25.3730  -27.7480 C   0  0  0  0  0  0  0  0  0  0  0  0
   -1.9500   25.2800  -29.1130 O   0  0  0  0  0  0  0  0  0  0  0  0
   -2.4810   24.1270  -29.7110 C   0  0  0  0  0  0  0  0  0  0  0  0
   -1.8740   22.8650  -29.5680 C   0  0  0  0  0  0  0  0  0  0  0  0
   -2.4310   21.7380  -30.1740 C   0  0  0  0  0  0  0  0  0  0  0  0
   -3.6070   21.8470  -30.9340 C   0  0  0  0  0  0  0  0  0  0  0  0
   -4.2110   20.6610  -31.5870 C   0  0  0  0  0  0  0  0  0  0  0  0
   -3.4680   19.9430  -32.4700 N   0  0  0  0  0  0  0  0  0  0  0  0
   -3.9700   18.8730  -33.1350 C   0  0  0  0  0  0  0  0  0  0  0  0
   -2.9010   18.0230  -34.3070 S   0  0  0  0  0  0  0  0  0  0  0  0
   -1.3530   18.4850  -33.4540 C   0  0  0  0  0  0  0  0  0  0  0  0
   -0.4790   19.3600  -34.3740 C   0  0  0  0  0  0  0  0  0  0  0  0
   -0.5470   20.8090  -34.0850 N   0  0  0  0  0  0  0  0  0  0  0  0
    0.2410   21.6170  -35.0290 C   0  0  0  0  0  0  0  0  0  0  0  0
   -0.2060   21.1330  -32.6910 C   0  0  0  0  0  0  0  0  0  0  0  0
   -5.3030   18.4810  -32.9060 C   0  0  0  0  0  0  0  0  0  0  0  0
   -5.8950   17.3850  -33.5630 C   0  0  0  0  0  0  0  0  0  0  0  0
   -7.2260   17.0450  -33.3000 C   0  0  0  0  0  0  0  0  0  0  0  0
   -7.9760   17.7910  -32.3890 C   0  0  0  0  0  0  0  0  0  0  0  0
   -7.4010   18.8810  -31.7320 C   0  0  0  0  0  0  0  0  0  0  0  0
   -6.0650   19.2340  -31.9830 C   0  0  0  0  0  0  0  0  0  0  0  0
   -5.5050   20.3040  -31.3490 N   0  0  0  0  0  0  0  0  0  0  0  0
   -4.2060   23.1090  -31.0860 C   0  0  0  0  0  0  0  0  0  0  0  0
   -3.6530   24.2490  -30.4710 C   0  0  0  0  0  0  0  0  0  0  0  0
   -4.2410   25.5180  -30.5920 O   0  0  0  0  0  0  0  0  0  0  0  0
   -5.6340   25.7790  -30.4450 C   0  0  0  0  0  0  0  0  0  0  0  0
   -2.4196   25.1697  -27.1004 H   0  0  0  0  0  0  0  0  0  0  0  0
   -0.7629   24.6362  -27.5447 H   0  0  0  0  0  0  0  0  0  0  0  0
   -1.1736   26.3849  -27.5447 H   0  0  0  0  0  0  0  0  0  0  0  0
   -0.9535   22.7664  -28.9740 H   0  0  0  0  0  0  0  0  0  0  0  0
   -1.9458   20.7579  -30.0556 H   0  0  0  0  0  0  0  0  0  0  0  0
   -1.5955   19.0477  -32.5405 H   0  0  0  0  0  0  0  0  0  0  0  0
   -0.7988   17.5706  -33.1958 H   0  0  0  0  0  0  0  0  0  0  0  0
    0.5666   19.0362  -34.2649 H   0  0  0  0  0  0  0  0  0  0  0  0
   -0.8656   19.2253  -35.3950 H   0  0  0  0  0  0  0  0  0  0  0  0
    0.9019   22.2947  -34.4687 H   0  0  0  0  0  0  0  0  0  0  0  0
    0.8481   20.9531  -35.6620 H   0  0  0  0  0  0  0  0  0  0  0  0
   -0.4379   22.2073  -35.6620 H   0  0  0  0  0  0  0  0  0  0  0  0
   -0.8334   20.5369  -32.0120 H   0  0  0  0  0  0  0  0  0  0  0  0
    0.8538   20.9011  -32.5094 H   0  0  0  0  0  0  0  0  0  0  0  0
   -0.3835   22.2033  -32.5094 H   0  0  0  0  0  0  0  0  0  0  0  0
   -5.3098   16.7955  -34.2841 H   0  0  0  0  0  0  0  0  0  0  0  0
   -7.6837   16.1863  -33.8131 H   0  0  0  0  0  0  0  0  0  0  0  0
   -9.0229   17.5195  -32.1881 H   0  0  0  0  0  0  0  0  0  0  0  0
   -7.9967   19.4653  -31.0152 H   0  0  0  0  0  0  0  0  0  0  0  0
   -6.0920   20.8750  -30.6980 H   0  0  0  0  0  0  0  0  0  0  0  0
   -5.1181   23.2078  -31.6928 H   0  0  0  0  0  0  0  0  0  0  0  0
   -5.8873   25.8265  -29.3756 H   0  0  0  0  0  0  0  0  0  0  0  0
   -5.8797   26.7388  -30.9229 H   0  0  0  0  0  0  0  0  0  0  0  0
   -6.2105   24.9732  -30.9229 H   0  0  0  0  0  0  0  0  0  0  0  0
  1  2  1  0
  2  3  1  0
  3  4  2  0
  4  5  1  0
  5  6  2  0
  6  7  1  0
  7  8  2  0
  8  9  1  0
  9 10  1  0
 10 11  1  0
 11 12  1  0
 12 13  1  0
 13 14  1  0
 13 15  1  0
  9 16  2  0
 16 17  1  0
 17 18  2  0
 18 19  1  0
 19 20  2  0
 20 21  1  0
 21 22  2  0
  6 23  1  0
 23 24  2  0
 24 25  1  0
 25 26  1  0
 24  3  1  0
 22  7  1  0
 21 16  1  0
  1 27  1  0
  1 28  1  0
  1 29  1  0
  4 30  1  0
  5 31  1  0
 11 32  1  0
 11 33  1  0
 12 34  1  0
 12 35  1  0
 14 36  1  0
 14 37  1  0
 14 38  1  0
 15 39  1  0
 15 40  1  0
 15 41  1  0
 17 42  1  0
 18 43  1  0
 19 44  1  0
 20 45  1  0
 22 46  1  0
 23 47  1  0
 26 48  1  0
 26 49  1  0
 26 50  1  0
M  CHG  1  22   1
M  END
>  <UniqueID>  (34) 
32

>  <SMILES>  (34) 
COc1ccc(-c2nc(SCCN(C)C)c3ccccc3[nH+]2)cc1OC

>  <Energy>  (34) 
56.12699653508323

>  <Genealogy>  (34) 
COc1ccc(-c2nc(SCCN(C)C)c3ccccc3[nH+]2)cc1OC (protonated)
COc1ccc(-c2nc(SCCN(C)C)c3ccccc3[nH+]2)cc1OC (3D coordinates assigned)
COc1ccc(-c2nc(SCCN(C)C)c3ccccc3[nH+]2)cc1OC (optimized conformer: 56.12699653508323 kcal/mol)

>  <smiles>  (34) 
COc1ccc(-c2nc(SCCN(C)C)c3ccccc3n2)cc1OC

>  <score_type>  (34) 
oracle

>  <origin>  (34) 
adg

>  <m_score__min__energy>  (34) 
-8.7100000000000009

>  <m_primary>  (34) 
energy

$$$$
34:0
     RDKit          3D

 49 51  0  0  0  0  0  0  0  0999 V2000
   -6.8280   16.3600  -34.5580 F   0  0  0  0  0  0  0  0  0  0  0  0
   -6.1030   17.4780  -34.1820 C   0  0  0  0  0  0  0  0  0  0  0  0
   -4.8060   17.1000  -33.8850 F   0  0  0  0  0  0  0  0  0  0  0  0
   -6.0770   18.3650  -35.2440 F   0  0  0  0  0  0  0  0  0  0  0  0
   -6.7500   18.1530  -32.9650 C   0  0  0  0  0  0  0  0  0  0  0  0
   -5.9080   18.0120  -31.8740 F   0  0  0  0  0  0  0  0  0  0  0  0
   -7.9440   17.5040  -32.6950 F   0  0  0  0  0  0  0  0  0  0  0  0
   -7.0180   19.6530  -33.2220 C   0  0  0  0  0  0  0  0  0  0  0  0
   -6.9090   20.4580  -31.9830 N   0  0  0  0  0  0  0  0  0  0  0  0
   -5.7710   21.4150  -32.0510 C   0  0  0  0  0  0  0  0  0  0  0  0
   -6.2250   22.8460  -32.3800 C   0  0  0  0  0  0  0  0  0  0  0  0
   -7.1870   23.3610  -31.3770 N   0  0  0  0  0  0  0  0  0  0  0  0
   -6.6350   24.3740  -30.4470 C   0  0  0  0  0  0  0  0  0  0  0  0
   -5.3090   23.9830  -29.8220 C   0  0  0  0  0  0  0  0  0  0  0  0
   -5.1040   22.6750  -29.3490 C   0  0  0  0  0  0  0  0  0  0  0  0
   -3.8890   22.3180  -28.7610 C   0  0  0  0  0  0  0  0  0  0  0  0
   -2.8670   23.2610  -28.6320 C   0  0  0  0  0  0  0  0  0  0  0  0
   -3.0520   24.5670  -29.0940 C   0  0  0  0  0  0  0  0  0  0  0  0
   -2.0130   25.4950  -28.9400 O   0  0  0  0  0  0  0  0  0  0  0  0
   -1.5470   25.9780  -27.7080 C   0  0  0  0  0  0  0  0  0  0  0  0
   -2.1580   25.5270  -26.5310 C   0  0  0  0  0  0  0  0  0  0  0  0
   -1.7230   25.9910  -25.2850 C   0  0  0  0  0  0  0  0  0  0  0  0
   -0.6800   26.9200  -25.2100 C   0  0  0  0  0  0  0  0  0  0  0  0
   -0.0800   27.3930  -26.3790 C   0  0  0  0  0  0  0  0  0  0  0  0
   -0.5150   26.9320  -27.6250 C   0  0  0  0  0  0  0  0  0  0  0  0
   -4.2580   24.9110  -29.7300 C   0  0  0  0  0  0  0  0  0  0  0  0
   -7.9860   22.3130  -30.7060 C   0  0  0  0  0  0  0  0  0  0  0  0
   -8.1970   21.1050  -31.6250 C   0  0  0  0  0  0  0  0  0  0  0  0
   -6.2841   20.0246  -33.9523 H   0  0  0  0  0  0  0  0  0  0  0  0
   -8.0452   19.7536  -33.6025 H   0  0  0  0  0  0  0  0  0  0  0  0
   -5.2577   21.4225  -31.0781 H   0  0  0  0  0  0  0  0  0  0  0  0
   -5.1020   21.0824  -32.8584 H   0  0  0  0  0  0  0  0  0  0  0  0
   -5.3437   23.5039  -32.3991 H   0  0  0  0  0  0  0  0  0  0  0  0
   -6.7265   22.8297  -33.3589 H   0  0  0  0  0  0  0  0  0  0  0  0
   -6.4915   25.3120  -31.0033 H   0  0  0  0  0  0  0  0  0  0  0  0
   -7.3567   24.4752  -29.6231 H   0  0  0  0  0  0  0  0  0  0  0  0
   -5.9060   21.9280  -29.4428 H   0  0  0  0  0  0  0  0  0  0  0  0
   -3.7363   21.2908  -28.3982 H   0  0  0  0  0  0  0  0  0  0  0  0
   -1.9130   22.9748  -28.1651 H   0  0  0  0  0  0  0  0  0  0  0  0
   -2.9848   24.8036  -26.5868 H   0  0  0  0  0  0  0  0  0  0  0  0
   -2.2011   25.6253  -24.3643 H   0  0  0  0  0  0  0  0  0  0  0  0
   -0.3322   27.2782  -24.2298 H   0  0  0  0  0  0  0  0  0  0  0  0
    0.7355   28.1288  -26.3193 H   0  0  0  0  0  0  0  0  0  0  0  0
   -0.0490   27.3162  -28.5444 H   0  0  0  0  0  0  0  0  0  0  0  0
   -4.3798   25.9163  -30.1596 H   0  0  0  0  0  0  0  0  0  0  0  0
   -7.4584   21.9855  -29.7980 H   0  0  0  0  0  0  0  0  0  0  0  0
   -8.9700   22.7339  -30.4517 H   0  0  0  0  0  0  0  0  0  0  0  0
   -8.8337   20.3712  -31.1092 H   0  0  0  0  0  0  0  0  0  0  0  0
   -8.6740   21.4571  -32.5515 H   0  0  0  0  0  0  0  0  0  0  0  0
  1  2  1  0
  2  3  1  0
  2  4  1  0
  2  5  1  0
  5  6  1  0
  5  7  1  0
  5  8  1  0
  8  9  1  0
  9 10  1  0
 10 11  1  0
 11 12  1  0
 12 13  1  0
 13 14  1  0
 14 15  2  0
 15 16  1  0
 16 17  2  0
 17 18  1  0
 18 19  1  0
 19 20  1  0
 20 21  2  0
 21 22  1  0
 22 23  2  0
 23 24  1  0
 24 25  2  0
 18 26  2  0
 12 27  1  0
 27 28  1  0
 28  9  1  0
 26 14  1  0
 25 20  1  0
  8 29  1  0
  8 30  1  0
 10 31  1  0
 10 32  1  0
 11 33  1  0
 11 34  1  0
 13 35  1  0
 13 36  1  0
 15 37  1  0
 16 38  1  0
 17 39  1  0
 21 40  1  0
 22 41  1  0
 23 42  1  0
 24 43  1  0
 25 44  1  0
 26 45  1  0
 27 46  1  0
 27 47  1  0
 28 48  1  0
 28 49  1  0
M  END
>  <UniqueID>  (35) 
33

>  <SMILES>  (35) 
FC(F)(F)C(F)(F)CN1CCN(Cc2cccc(Oc3ccccc3)c2)CC1

>  <Energy>  (35) 
70.0366945533409

>  <Genealogy>  (35) 
FC(F)(F)C(F)(F)CN1CCN(Cc2cccc(Oc3ccccc3)c2)CC1 (3D coordinates assigned)
FC(F)(F)C(F)(F)CN1CCN(Cc2cccc(Oc3ccccc3)c2)CC1 (nonaromatic ring conformer: 70.0366945533409 kcal/mol)

>  <smiles>  (35) 
FC(F)(F)C(F)(F)CN1CCN(Cc2cccc(Oc3ccccc3)c2)CC1

>  <score_type>  (35) 
oracle

>  <origin>  (35) 
adg

>  <m_score__min__energy>  (35) 
-7.96

>  <m_primary>  (35) 
energy

$$$$
35:0
     RDKit          3D

 28 29  0  0  0  0  0  0  0  0999 V2000
   -0.2440   26.3270  -28.7270 H   0  0  0  0  0  0  0  0  0  0  0  0
   -1.0370   25.9810  -29.3120 N   0  0  0  0  0  0  0  0  0  0  0  0
   -1.2330   26.5060  -30.1930 H   0  0  0  0  0  0  0  0  0  0  0  0
   -1.4740   24.6530  -29.1630 N   0  0  0  0  0  0  0  0  0  0  0  0
   -0.6680   23.7880  -28.4680 C   0  0  0  0  0  0  0  0  0  0  0  0
    0.4870   24.1500  -28.1090 O   0  0  0  0  0  0  0  0  0  0  0  0
   -1.1300   22.5120  -28.1180 C   0  0  0  0  0  0  0  0  0  0  0  0
   -2.4450   22.1740  -28.4410 C   0  0  0  0  0  0  0  0  0  0  0  0
   -3.1940   23.0320  -29.1740 N   0  0  0  0  0  0  0  0  0  0  0  0
   -2.7310   24.2460  -29.5680 C   0  0  0  0  0  0  0  0  0  0  0  0
   -3.4940   24.9320  -30.3790 N   0  0  0  0  0  0  0  0  0  0  0  0
   -4.9120   25.2910  -30.3230 C   0  0  0  0  0  0  0  0  0  0  0  0
   -5.0681   26.2265  -30.8801 H   0  0  0  0  0  0  0  0  0  0  0  0
   -5.1995   25.4167  -29.2687 H   0  0  0  0  0  0  0  0  0  0  0  0
   -5.7810   24.1940  -30.9360 C   0  0  0  0  0  0  0  0  0  0  0  0
   -6.2479   23.6046  -30.1332 H   0  0  0  0  0  0  0  0  0  0  0  0
   -6.5644   24.6515  -31.5581 H   0  0  0  0  0  0  0  0  0  0  0  0
   -5.1563   23.5361  -31.5581 H   0  0  0  0  0  0  0  0  0  0  0  0
   -2.9980   20.8280  -28.0760 C   0  0  0  0  0  0  0  0  0  0  0  0
   -3.0283   20.1944  -28.9746 H   0  0  0  0  0  0  0  0  0  0  0  0
   -4.0109   20.9607  -27.6681 H   0  0  0  0  0  0  0  0  0  0  0  0
   -2.1240   20.1530  -27.0140 C   0  0  0  0  0  0  0  0  0  0  0  0
   -2.4203   19.0982  -26.9162 H   0  0  0  0  0  0  0  0  0  0  0  0
   -2.2606   20.6718  -26.0537 H   0  0  0  0  0  0  0  0  0  0  0  0
   -0.7610   20.2230  -27.3870 O   0  0  0  0  0  0  0  0  0  0  0  0
   -0.2990   21.5590  -27.2850 C   0  0  0  0  0  0  0  0  0  0  0  0
    0.7441   21.6014  -27.6316 H   0  0  0  0  0  0  0  0  0  0  0  0
   -0.3815   21.8675  -26.2324 H   0  0  0  0  0  0  0  0  0  0  0  0
  1  2  1  0
  2  3  1  0
  2  4  1  0
  4  5  1  0
  5  6  2  0
  5  7  1  0
  7  8  2  0
  8  9  1  0
  9 10  1  0
 10 11  2  0
 11 12  1  0
 12 13  1  0
 12 14  1  0
 12 15  1  0
 15 16  1  0
 15 17  1  0
 15 18  1  0
  8 19  1  0
 19 20  1  0
 19 21  1  0
 19 22  1  0
 22 23  1  0
 22 24  1  0
 22 25  1  0
 25 26  1  0
 26 27  1  0
 26 28  1  0
 10  4  1  0
 26  7  1  0
M  CHG  1   9  -1
M  END
>  <UniqueID>  (36) 
34

>  <SMILES>  (36) 
CC/N=c1/[n-]c2c(c(=O)n1N)COCC2

>  <Energy>  (36) 
46.97523606382993

>  <Genealogy>  (36) 
CCN=c1[n-]c2c(c(=O)n1N)COCC2 (protonated)
CC/N=c1/[n-]c2c(c(=O)n1N)COCC2 (cis-trans isomerization)
CC/N=c1/[n-]c2c(c(=O)n1N)COCC2 (3D coordinates assigned)
CC/N=c1/[n-]c2c(c(=O)n1N)COCC2 (nonaromatic ring conformer: 46.97523606382993 kcal/mol)

>  <smiles>  (36) 
CCN=c1[nH]c2c(c(=O)n1N)COCC2

>  <score_type>  (36) 
oracle

>  <origin>  (36) 
adg

>  <m_score__min__energy>  (36) 
-7.0599999999999996

>  <m_primary>  (36) 
energy

$$$$
36:0
     RDKit          3D

 54 56  0  0  0  0  0  0  0  0999 V2000
   -4.0190   19.3180  -33.3280 C   0  0  0  0  0  0  0  0  0  0  0  0
   -4.8560   19.5650  -32.2030 O   0  0  0  0  0  0  0  0  0  0  0  0
   -6.2200   19.2410  -32.1370 C   0  0  0  0  0  0  0  0  0  0  0  0
   -6.6910   17.9480  -32.4410 C   0  0  0  0  0  0  0  0  0  0  0  0
   -8.0560   17.6610  -32.3840 C   0  0  0  0  0  0  0  0  0  0  0  0
   -8.9660   18.6580  -32.0330 C   0  0  0  0  0  0  0  0  0  0  0  0
   -8.5150   19.9420  -31.7330 C   0  0  0  0  0  0  0  0  0  0  0  0
   -7.1460   20.2410  -31.7720 C   0  0  0  0  0  0  0  0  0  0  0  0
   -6.7080   21.5680  -31.4330 N   0  0  0  0  0  0  0  0  0  0  0  0
   -5.7320   22.2460  -32.2830 C   0  0  0  0  0  0  0  0  0  0  0  0
   -6.0740   23.7350  -32.3740 C   0  0  0  0  0  0  0  0  0  0  0  0
   -6.2290   24.3620  -31.0420 N   0  0  0  0  0  0  0  0  0  0  0  0
   -4.9350   24.6430  -30.4230 C   0  0  0  0  0  0  0  0  0  0  0  0
   -4.3200   25.6360  -30.7900 O   0  0  0  0  0  0  0  0  0  0  0  0
   -4.2880   23.7970  -29.3400 C   0  0  0  0  0  0  0  0  0  0  0  0
   -2.8440   23.5940  -29.6060 N   0  0  0  0  0  0  0  0  0  0  0  0
   -2.1090   23.2400  -28.3650 C   0  0  0  0  0  0  0  0  0  0  0  0
   -2.8770   22.2750  -27.4410 C   0  0  0  0  0  0  0  0  0  0  0  0
   -2.8190   20.8260  -27.9490 C   0  0  0  0  0  0  0  0  0  0  0  0
   -2.0990   20.6760  -29.2930 C   0  0  0  0  0  0  0  0  0  0  0  0
   -2.9100   21.2040  -30.4860 C   0  0  0  0  0  0  0  0  0  0  0  0
   -2.6190   22.6920  -30.7640 C   0  0  0  0  0  0  0  0  0  0  0  0
   -7.2350   23.6490  -30.2130 C   0  0  0  0  0  0  0  0  0  0  0  0
   -6.9990   22.1320  -30.1150 C   0  0  0  0  0  0  0  0  0  0  0  0
   -3.0175   19.0225  -32.9821 H   0  0  0  0  0  0  0  0  0  0  0  0
   -4.4506   18.5089  -33.9355 H   0  0  0  0  0  0  0  0  0  0  0  0
   -3.9422   20.2318  -33.9355 H   0  0  0  0  0  0  0  0  0  0  0  0
   -5.9783   17.1597  -32.7251 H   0  0  0  0  0  0  0  0  0  0  0  0
   -8.4143   16.6473  -32.6162 H   0  0  0  0  0  0  0  0  0  0  0  0
  -10.0415   18.4304  -31.9929 H   0  0  0  0  0  0  0  0  0  0  0  0
   -9.2380   20.7261  -31.4638 H   0  0  0  0  0  0  0  0  0  0  0  0
   -4.7269   22.1273  -31.8522 H   0  0  0  0  0  0  0  0  0  0  0  0
   -5.7566   21.8042  -33.2901 H   0  0  0  0  0  0  0  0  0  0  0  0
   -5.2666   24.2503  -32.9149 H   0  0  0  0  0  0  0  0  0  0  0  0
   -7.0352   23.8262  -32.9010 H   0  0  0  0  0  0  0  0  0  0  0  0
   -6.6510   25.3060  -31.2190 H   0  0  0  0  0  0  0  0  0  0  0  0
   -4.4061   24.3039  -28.3709 H   0  0  0  0  0  0  0  0  0  0  0  0
   -4.7803   22.8134  -29.3272 H   0  0  0  0  0  0  0  0  0  0  0  0
   -1.1580   22.7654  -28.6486 H   0  0  0  0  0  0  0  0  0  0  0  0
   -1.9623   24.1737  -27.8022 H   0  0  0  0  0  0  0  0  0  0  0  0
   -2.4333   22.3171  -26.4354 H   0  0  0  0  0  0  0  0  0  0  0  0
   -3.9315   22.5876  -27.4231 H   0  0  0  0  0  0  0  0  0  0  0  0
   -2.2906   20.2162  -27.2014 H   0  0  0  0  0  0  0  0  0  0  0  0
   -3.8571   20.4953  -28.1003 H   0  0  0  0  0  0  0  0  0  0  0  0
   -1.1508   21.2314  -29.2437 H   0  0  0  0  0  0  0  0  0  0  0  0
   -1.9445   19.5995  -29.4584 H   0  0  0  0  0  0  0  0  0  0  0  0
   -2.6508   20.6177  -31.3799 H   0  0  0  0  0  0  0  0  0  0  0  0
   -3.9783   21.1046  -30.2433 H   0  0  0  0  0  0  0  0  0  0  0  0
   -1.5667   22.7840  -31.0709 H   0  0  0  0  0  0  0  0  0  0  0  0
   -3.3262   23.0067  -31.5456 H   0  0  0  0  0  0  0  0  0  0  0  0
   -7.2080   24.0701  -29.1972 H   0  0  0  0  0  0  0  0  0  0  0  0
   -8.2100   23.7897  -30.7025 H   0  0  0  0  0  0  0  0  0  0  0  0
   -6.1479   21.9415  -29.4447 H   0  0  0  0  0  0  0  0  0  0  0  0
   -7.9093   21.6572  -29.7202 H   0  0  0  0  0  0  0  0  0  0  0  0
  1  2  1  0
  2  3  1  0
  3  4  2  0
  4  5  1  0
  5  6  2  0
  6  7  1  0
  7  8  2  0
  8  9  1  0
  9 10  1  0
 10 11  1  0
 11 12  1  0
 12 13  1  0
 13 14  2  0
 13 15  1  0
 15 16  1  0
 16 17  1  0
 17 18  1  0
 18 19  1  0
 19 20  1  0
 20 21  1  0
 21 22  1  0
 12 23  1  0
 23 24  1  0
  8  3  1  0
 24  9  1  0
 22 16  1  0
  1 25  1  0
  1 26  1  0
  1 27  1  0
  4 28  1  0
  5 29  1  0
  6 30  1  0
  7 31  1  0
 10 32  1  0
 10 33  1  0
 11 34  1  0
 11 35  1  0
 12 36  1  0
 15 37  1  0
 15 38  1  0
 17 39  1  0
 17 40  1  0
 18 41  1  0
 18 42  1  0
 19 43  1  0
 19 44  1  0
 20 45  1  0
 20 46  1  0
 21 47  1  0
 21 48  1  0
 22 49  1  0
 22 50  1  0
 23 51  1  0
 23 52  1  0
 24 53  1  0
 24 54  1  0
M  CHG  1  12   1
M  END
>  <UniqueID>  (37) 
35

>  <SMILES>  (37) 
COc1ccccc1N1CC[NH+](C(=O)CN2CCCCCC2)CC1

>  <Energy>  (37) 
73.31195435298831

>  <Genealogy>  (37) 
COc1ccccc1N1CC[NH+](C(=O)CN2CCCCCC2)CC1 (protonated)
COc1ccccc1N1CC[NH+](C(=O)CN2CCCCCC2)CC1 (3D coordinates assigned)
COc1ccccc1N1CC[NH+](C(=O)CN2CCCCCC2)CC1 (nonaromatic ring conformer: 73.31195435298831 kcal/mol)

>  <smiles>  (37) 
COc1ccccc1N1CCN(C(=O)CN2CCCCCC2)CC1

>  <score_type>  (37) 
oracle

>  <origin>  (37) 
adg

>  <m_score__min__energy>  (37) 
-5.9500000000000002

>  <m_primary>  (37) 
energy

$$$$
37:0
     RDKit          3D

 44 47  0  0  0  0  0  0  0  0999 V2000
   -3.4770   25.2990  -30.4780 O   0  0  0  0  0  0  0  0  0  0  0  0
   -4.6780   24.5980  -30.5320 C   0  0  0  0  0  0  0  0  0  0  0  0
   -5.8380   25.2020  -30.0290 C   0  0  0  0  0  0  0  0  0  0  0  0
   -7.0450   24.5070  -30.0250 C   0  0  0  0  0  0  0  0  0  0  0  0
   -7.0630   23.2350  -30.5840 C   0  0  0  0  0  0  0  0  0  0  0  0
   -8.1480   22.4630  -30.7040 N   0  0  0  0  0  0  0  0  0  0  0  0
   -7.7900   21.3830  -31.3720 N   0  0  0  0  0  0  0  0  0  0  0  0
   -6.4670   21.4950  -31.6460 C   0  0  0  0  0  0  0  0  0  0  0  0
   -5.8420   20.5260  -32.6320 C   0  0  0  0  0  0  0  0  0  0  0  0
   -4.6500   19.7320  -32.0510 C   0  0  0  0  0  0  0  0  0  0  0  0
   -3.9550   18.8470  -33.1090 C   0  0  0  0  0  0  0  0  0  0  0  0
   -4.8600   18.4330  -34.2880 C   0  0  0  0  0  0  0  0  0  0  0  0
   -6.3290   18.3270  -33.8750 C   0  0  0  0  0  0  0  0  0  0  0  0
   -6.8780   19.6940  -33.4330 C   0  0  0  0  0  0  0  0  0  0  0  0
   -5.9630   22.6630  -31.1270 N   0  0  0  0  0  0  0  0  0  0  0  0
   -4.7300   23.2840  -31.0620 C   0  0  0  0  0  0  0  0  0  0  0  0
   -3.4100   22.5910  -31.3180 C   0  0  0  0  0  0  0  0  0  0  0  0
   -2.9060   21.8950  -30.0770 C   0  0  0  0  0  0  0  0  0  0  0  0
   -1.8190   21.0070  -30.1540 C   0  0  0  0  0  0  0  0  0  0  0  0
   -1.3650   20.3460  -29.0080 C   0  0  0  0  0  0  0  0  0  0  0  0
   -1.9940   20.5600  -27.7800 C   0  0  0  0  0  0  0  0  0  0  0  0
   -3.0810   21.4340  -27.6940 C   0  0  0  0  0  0  0  0  0  0  0  0
   -3.5390   22.0970  -28.8370 C   0  0  0  0  0  0  0  0  0  0  0  0
   -5.7952   26.2285  -29.6360 H   0  0  0  0  0  0  0  0  0  0  0  0
   -7.9544   24.9506  -29.5934 H   0  0  0  0  0  0  0  0  0  0  0  0
   -9.1190   22.6700  -30.3790 H   0  0  0  0  0  0  0  0  0  0  0  0
   -5.3732   21.1510  -33.4063 H   0  0  0  0  0  0  0  0  0  0  0  0
   -3.9144   20.4443  -31.6490 H   0  0  0  0  0  0  0  0  0  0  0  0
   -5.0420   19.0683  -31.2663 H   0  0  0  0  0  0  0  0  0  0  0  0
   -3.0967   19.4038  -33.5132 H   0  0  0  0  0  0  0  0  0  0  0  0
   -3.6615   17.9184  -32.5976 H   0  0  0  0  0  0  0  0  0  0  0  0
   -4.7691   19.1846  -35.0861 H   0  0  0  0  0  0  0  0  0  0  0  0
   -4.5329   17.4417  -34.6348 H   0  0  0  0  0  0  0  0  0  0  0  0
   -6.9175   17.9625  -34.7299 H   0  0  0  0  0  0  0  0  0  0  0  0
   -6.4052   17.6287  -33.0285 H   0  0  0  0  0  0  0  0  0  0  0  0
   -7.1688   20.2625  -34.3287 H   0  0  0  0  0  0  0  0  0  0  0  0
   -7.7371   19.5084  -32.7716 H   0  0  0  0  0  0  0  0  0  0  0  0
   -3.5451   21.8465  -32.1164 H   0  0  0  0  0  0  0  0  0  0  0  0
   -2.6712   23.3501  -31.6145 H   0  0  0  0  0  0  0  0  0  0  0  0
   -1.3231   20.8311  -31.1200 H   0  0  0  0  0  0  0  0  0  0  0  0
   -0.5107   19.6562  -29.0743 H   0  0  0  0  0  0  0  0  0  0  0  0
   -1.6338   20.0404  -26.8799 H   0  0  0  0  0  0  0  0  0  0  0  0
   -3.5769   21.6006  -26.7263 H   0  0  0  0  0  0  0  0  0  0  0  0
   -4.3985   22.7798  -28.7661 H   0  0  0  0  0  0  0  0  0  0  0  0
  1  2  1  0
  2  3  1  0
  3  4  2  0
  4  5  1  0
  5  6  2  0
  6  7  1  0
  7  8  2  0
  8  9  1  0
  9 10  1  0
 10 11  1  0
 11 12  1  0
 12 13  1  0
 13 14  1  0
  8 15  1  0
 15 16  1  0
 16 17  1  0
 17 18  1  0
 18 19  2  0
 19 20  1  0
 20 21  2  0
 21 22  1  0
 22 23  2  0
 16  2  2  0
 23 18  1  0
 15  5  1  0
 14  9  1  0
  3 24  1  0
  4 25  1  0
  6 26  1  0
  9 27  1  0
 10 28  1  0
 10 29  1  0
 11 30  1  0
 11 31  1  0
 12 32  1  0
 12 33  1  0
 13 34  1  0
 13 35  1  0
 14 36  1  0
 14 37  1  0
 17 38  1  0
 17 39  1  0
 19 40  1  0
 20 41  1  0
 21 42  1  0
 22 43  1  0
 23 44  1  0
M  CHG  2   1  -1   6   1
M  END
>  <UniqueID>  (38) 
36

>  <SMILES>  (38) 
[O-]c1ccc2[nH+]nc(C3CCCCC3)n2c1Cc1ccccc1

>  <Energy>  (38) 
106.46840707328167

>  <Genealogy>  (38) 
[O-]c1ccc2[nH+]nc(C3CCCCC3)n2c1Cc1ccccc1 (protonated)
[O-]c1ccc2[nH+]nc(C3CCCCC3)n2c1Cc1ccccc1 (3D coordinates assigned)
[O-]c1ccc2[nH+]nc(C3CCCCC3)n2c1Cc1ccccc1 (nonaromatic ring conformer: 106.46840707328167 kcal/mol)

>  <smiles>  (38) 
Oc1ccc2nnc(C3CCCCC3)n2c1Cc1ccccc1

>  <score_type>  (38) 
oracle

>  <origin>  (38) 
adg

>  <m_score__min__energy>  (38) 
-10.949999999999999

>  <m_primary>  (38) 
energy

$$$$
38:0
     RDKit          3D

 62 65  0  0  0  0  0  0  0  0999 V2000
   -3.1610   25.1070  -26.3190 C   0  0  0  0  0  0  0  0  0  0  0  0
   -3.7750   24.2520  -27.4210 C   0  0  0  0  0  0  0  0  0  0  0  0
   -3.1500   24.5440  -28.7210 N   0  0  0  0  0  0  0  0  0  0  0  0
   -1.7200   24.8780  -28.7880 C   0  0  0  0  0  0  0  0  0  0  0  0
   -0.8950   23.7010  -29.3050 C   0  0  0  0  0  0  0  0  0  0  0  0
   -3.8870   24.3560  -29.9420 C   0  0  0  0  0  0  0  0  0  0  0  0
   -3.8650   25.2540  -30.8270 O   0  0  0  0  0  0  0  0  0  0  0  0
   -4.6780   23.0900  -30.1900 C   0  0  0  0  0  0  0  0  0  0  0  0
   -5.2370   23.0660  -31.6360 C   0  0  0  0  0  0  0  0  0  0  0  0
   -4.3110   22.3250  -32.6080 C   0  0  0  0  0  0  0  0  0  0  0  0
   -4.0190   20.9690  -32.1170 N   0  0  0  0  0  0  0  0  0  0  0  0
   -3.6150   19.9490  -33.0460 C   0  0  0  0  0  0  0  0  0  0  0  0
   -4.5470   18.9840  -33.4910 C   0  0  0  0  0  0  0  0  0  0  0  0
   -5.9380   18.9850  -32.9880 C   0  0  0  0  0  0  0  0  0  0  0  0
   -6.4670   17.8300  -32.3940 C   0  0  0  0  0  0  0  0  0  0  0  0
   -7.7680   17.8380  -31.8840 C   0  0  0  0  0  0  0  0  0  0  0  0
   -8.5470   18.9960  -31.9640 C   0  0  0  0  0  0  0  0  0  0  0  0
   -8.0370   20.1540  -32.5630 C   0  0  0  0  0  0  0  0  0  0  0  0
   -8.8560   21.2910  -32.6180 O   0  0  0  0  0  0  0  0  0  0  0  0
   -8.9570   22.2610  -31.5800 C   0  0  0  0  0  0  0  0  0  0  0  0
   -6.7290   20.1400  -33.0850 C   0  0  0  0  0  0  0  0  0  0  0  0
   -4.1300   18.0010  -34.4090 C   0  0  0  0  0  0  0  0  0  0  0  0
   -4.9410   17.1320  -34.8300 O   0  0  0  0  0  0  0  0  0  0  0  0
   -2.8490   17.9850  -34.8580 N   0  0  0  0  0  0  0  0  0  0  0  0
   -1.9270   18.8880  -34.4360 C   0  0  0  0  0  0  0  0  0  0  0  0
   -0.6150   18.8220  -34.9100 C   0  0  0  0  0  0  0  0  0  0  0  0
    0.3350   19.7350  -34.4470 C   0  0  0  0  0  0  0  0  0  0  0  0
    1.9870   19.6660  -35.0300 Cl  0  0  0  0  0  0  0  0  0  0  0  0
   -0.0390   20.6940  -33.5030 C   0  0  0  0  0  0  0  0  0  0  0  0
   -1.3210   20.7510  -33.0490 N   0  0  0  0  0  0  0  0  0  0  0  0
   -2.2810   19.8870  -33.5040 C   0  0  0  0  0  0  0  0  0  0  0  0
   -4.1960   20.6320  -30.7000 C   0  0  0  0  0  0  0  0  0  0  0  0
   -3.8300   21.8390  -29.8340 C   0  0  0  0  0  0  0  0  0  0  0  0
   -3.4507   24.7036  -25.3375 H   0  0  0  0  0  0  0  0  0  0  0  0
   -2.0650   25.0934  -26.4120 H   0  0  0  0  0  0  0  0  0  0  0  0
   -3.5241   26.1412  -26.4120 H   0  0  0  0  0  0  0  0  0  0  0  0
   -3.6239   23.1896  -27.1791 H   0  0  0  0  0  0  0  0  0  0  0  0
   -4.8487   24.4816  -27.4874 H   0  0  0  0  0  0  0  0  0  0  0  0
   -1.5841   25.7346  -29.4646 H   0  0  0  0  0  0  0  0  0  0  0  0
   -1.3744   25.1229  -27.7728 H   0  0  0  0  0  0  0  0  0  0  0  0
   -0.4955   23.1310  -28.4532 H   0  0  0  0  0  0  0  0  0  0  0  0
   -1.5332   23.0467  -29.9170 H   0  0  0  0  0  0  0  0  0  0  0  0
   -0.0622   24.0777  -29.9170 H   0  0  0  0  0  0  0  0  0  0  0  0
   -5.5530   23.0709  -29.5236 H   0  0  0  0  0  0  0  0  0  0  0  0
   -6.2157   22.5639  -31.6282 H   0  0  0  0  0  0  0  0  0  0  0  0
   -5.3212   24.1072  -31.9806 H   0  0  0  0  0  0  0  0  0  0  0  0
   -4.8003   22.2556  -33.5907 H   0  0  0  0  0  0  0  0  0  0  0  0
   -3.3662   22.8822  -32.6904 H   0  0  0  0  0  0  0  0  0  0  0  0
   -5.8572   16.9168  -32.3295 H   0  0  0  0  0  0  0  0  0  0  0  0
   -8.1802   16.9307  -31.4184 H   0  0  0  0  0  0  0  0  0  0  0  0
   -9.5675   18.9973  -31.5535 H   0  0  0  0  0  0  0  0  0  0  0  0
   -8.9047   21.7590  -30.6026 H   0  0  0  0  0  0  0  0  0  0  0  0
   -8.1288   22.9796  -31.6678 H   0  0  0  0  0  0  0  0  0  0  0  0
   -9.9155   22.7936  -31.6678 H   0  0  0  0  0  0  0  0  0  0  0  0
   -6.3250   21.0399  -33.5717 H   0  0  0  0  0  0  0  0  0  0  0  0
   -0.3311   18.0543  -35.6448 H   0  0  0  0  0  0  0  0  0  0  0  0
    0.7072   21.4078  -33.1240 H   0  0  0  0  0  0  0  0  0  0  0  0
   -1.5430   21.4680  -32.3240 H   0  0  0  0  0  0  0  0  0  0  0  0
   -5.2451   20.3559  -30.5180 H   0  0  0  0  0  0  0  0  0  0  0  0
   -3.5417   19.7863  -30.4419 H   0  0  0  0  0  0  0  0  0  0  0  0
   -4.0010   21.5831  -28.7779 H   0  0  0  0  0  0  0  0  0  0  0  0
   -2.7731   22.0815  -30.0191 H   0  0  0  0  0  0  0  0  0  0  0  0
  1  2  1  0
  2  3  1  0
  3  4  1  0
  4  5  1  0
  3  6  1  0
  6  7  2  0
  6  8  1  0
  8  9  1  0
  9 10  1  0
 10 11  1  0
 11 12  1  0
 12 13  2  0
 13 14  1  0
 14 15  2  0
 15 16  1  0
 16 17  2  0
 17 18  1  0
 18 19  1  0
 19 20  1  0
 18 21  2  0
 13 22  1  0
 22 23  2  0
 22 24  1  0
 24 25  1  0
 25 26  2  0
 26 27  1  0
 27 28  1  0
 27 29  2  0
 29 30  1  0
 30 31  2  0
 11 32  1  0
 32 33  1  0
 33  8  1  0
 31 12  1  0
 21 14  1  0
 31 25  1  0
  1 34  1  0
  1 35  1  0
  1 36  1  0
  2 37  1  0
  2 38  1  0
  4 39  1  0
  4 40  1  0
  5 41  1  0
  5 42  1  0
  5 43  1  0
  8 44  1  0
  9 45  1  0
  9 46  1  0
 10 47  1  0
 10 48  1  0
 15 49  1  0
 16 50  1  0
 17 51  1  0
 20 52  1  0
 20 53  1  0
 20 54  1  0
 21 55  1  0
 26 56  1  0
 29 57  1  0
 30 58  1  0
 32 59  1  0
 32 60  1  0
 33 61  1  0
 33 62  1  0
M  CHG  2  24  -1  30   1
M  END
>  <UniqueID>  (39) 
37

>  <SMILES>  (39) 
CCN(CC)C(=O)C1CCN(c2c(-c3cccc(OC)c3)c(=O)[n-]c3cc(Cl)c[nH+]c23)CC1

>  <Energy>  (39) 
79.3736700683777

>  <Genealogy>  (39) 
CCN(CC)C(=O)C1CCN(c2c(-c3cccc(OC)c3)c(=O)[n-]c3cc(Cl)c[nH+]c23)CC1 (protonated)
CCN(CC)C(=O)C1CCN(c2c(-c3cccc(OC)c3)c(=O)[n-]c3cc(Cl)c[nH+]c23)CC1 (3D coordinates assigned)
CCN(CC)C(=O)C1CCN(c2c(-c3cccc(OC)c3)c(=O)[n-]c3cc(Cl)c[nH+]c23)CC1 (nonaromatic ring conformer: 79.3736700683777 kcal/mol)

>  <smiles>  (39) 
CCN(CC)C(=O)C1CCN(c2c(-c3cccc(OC)c3)c(=O)[nH]c3cc(Cl)cnc23)CC1

>  <score_type>  (39) 
oracle

>  <origin>  (39) 
adg

>  <m_score__min__energy>  (39) 
-9.3300000000000001

>  <m_primary>  (39) 
energy

$$$$
39:0
     RDKit          3D

 45 46  0  0  0  0  0  0  0  0999 V2000
   -6.7450   19.2760  -33.3110 C   0  0  0  0  0  0  0  0  0  0  0  0
   -7.3450   18.7950  -31.9910 C   0  0  0  0  0  0  0  0  0  0  0  0
   -8.7380   19.3860  -31.7240 C   0  0  0  0  0  0  0  0  0  0  0  0
   -8.9500   20.7380  -32.4180 C   0  0  0  0  0  0  0  0  0  0  0  0
   -8.1410   21.8100  -31.7380 C   0  0  0  0  0  0  0  0  0  0  0  0
   -8.1210   21.9000  -30.3370 C   0  0  0  0  0  0  0  0  0  0  0  0
   -7.4100   22.9250  -29.7060 C   0  0  0  0  0  0  0  0  0  0  0  0
   -6.7140   23.8770  -30.4660 C   0  0  0  0  0  0  0  0  0  0  0  0
   -5.9170   24.9530  -29.7840 C   0  0  0  0  0  0  0  0  0  0  0  0
   -4.2420   25.1150  -30.4950 S   0  0  0  0  0  0  0  0  0  0  0  0
   -3.6510   23.4960  -29.9600 C   0  0  0  0  0  0  0  0  0  0  0  0
   -3.9650   22.3880  -30.7600 C   0  0  0  0  0  0  0  0  0  0  0  0
   -3.5620   21.1050  -30.3890 C   0  0  0  0  0  0  0  0  0  0  0  0
   -2.8640   20.9120  -29.1980 C   0  0  0  0  0  0  0  0  0  0  0  0
   -2.5700   21.9990  -28.3750 C   0  0  0  0  0  0  0  0  0  0  0  0
   -2.9450   23.3060  -28.7420 C   0  0  0  0  0  0  0  0  0  0  0  0
   -2.6640   24.4410  -27.7760 C   0  0  0  0  0  0  0  0  0  0  0  0
   -1.3150   25.1140  -28.0520 C   0  0  0  0  0  0  0  0  0  0  0  0
   -1.3110   25.6860  -29.3310 O   0  0  0  0  0  0  0  0  0  0  0  0
   -6.7540   23.8010  -31.8680 C   0  0  0  0  0  0  0  0  0  0  0  0
   -7.4620   22.7750  -32.4990 C   0  0  0  0  0  0  0  0  0  0  0  0
   -5.9018   19.9520  -33.1058 H   0  0  0  0  0  0  0  0  0  0  0  0
   -6.3888   18.4104  -33.8889 H   0  0  0  0  0  0  0  0  0  0  0  0
   -7.5124   19.8120  -33.8889 H   0  0  0  0  0  0  0  0  0  0  0  0
   -7.4274   17.6985  -32.0205 H   0  0  0  0  0  0  0  0  0  0  0  0
   -6.6803   19.1307  -31.1814 H   0  0  0  0  0  0  0  0  0  0  0  0
   -9.4966   18.6791  -32.0912 H   0  0  0  0  0  0  0  0  0  0  0  0
   -8.8270   19.5511  -30.6401 H   0  0  0  0  0  0  0  0  0  0  0  0
   -8.6359   20.6589  -33.4692 H   0  0  0  0  0  0  0  0  0  0  0  0
  -10.0156   21.0050  -32.3607 H   0  0  0  0  0  0  0  0  0  0  0  0
   -8.6673   21.1605  -29.7331 H   0  0  0  0  0  0  0  0  0  0  0  0
   -7.3962   22.9854  -28.6077 H   0  0  0  0  0  0  0  0  0  0  0  0
   -6.4450   25.9115  -29.8959 H   0  0  0  0  0  0  0  0  0  0  0  0
   -5.8121   24.6792  -28.7238 H   0  0  0  0  0  0  0  0  0  0  0  0
   -4.5350   22.5320  -31.6897 H   0  0  0  0  0  0  0  0  0  0  0  0
   -3.7949   20.2463  -31.0359 H   0  0  0  0  0  0  0  0  0  0  0  0
   -2.5445   19.9006  -28.9067 H   0  0  0  0  0  0  0  0  0  0  0  0
   -2.0381   21.8332  -27.4265 H   0  0  0  0  0  0  0  0  0  0  0  0
   -3.4613   25.1929  -27.8710 H   0  0  0  0  0  0  0  0  0  0  0  0
   -2.6304   24.0201  -26.7603 H   0  0  0  0  0  0  0  0  0  0  0  0
   -1.1411   25.8999  -27.3022 H   0  0  0  0  0  0  0  0  0  0  0  0
   -0.5187   24.3572  -27.9954 H   0  0  0  0  0  0  0  0  0  0  0  0
   -0.6720   25.1580  -29.8770 H   0  0  0  0  0  0  0  0  0  0  0  0
   -6.2253   24.5530  -32.4721 H   0  0  0  0  0  0  0  0  0  0  0  0
   -7.4876   22.7230  -33.5975 H   0  0  0  0  0  0  0  0  0  0  0  0
  1  2  1  0
  2  3  1  0
  3  4  1  0
  4  5  1  0
  5  6  2  0
  6  7  1  0
  7  8  2  0
  8  9  1  0
  9 10  1  0
 10 11  1  0
 11 12  2  0
 12 13  1  0
 13 14  2  0
 14 15  1  0
 15 16  2  0
 16 17  1  0
 17 18  1  0
 18 19  1  0
  8 20  1  0
 20 21  2  0
 21  5  1  0
 16 11  1  0
  1 22  1  0
  1 23  1  0
  1 24  1  0
  2 25  1  0
  2 26  1  0
  3 27  1  0
  3 28  1  0
  4 29  1  0
  4 30  1  0
  6 31  1  0
  7 32  1  0
  9 33  1  0
  9 34  1  0
 12 35  1  0
 13 36  1  0
 14 37  1  0
 15 38  1  0
 17 39  1  0
 17 40  1  0
 18 41  1  0
 18 42  1  0
 19 43  1  0
 20 44  1  0
 21 45  1  0
M  END
>  <UniqueID>  (40) 
38

>  <SMILES>  (40) 
CCCCc1ccc(CSc2ccccc2CCO)cc1

>  <Energy>  (40) 
31.1905851821426

>  <Genealogy>  (40) 
CCCCc1ccc(CSc2ccccc2CCO)cc1 (3D coordinates assigned)
CCCCc1ccc(CSc2ccccc2CCO)cc1 (optimized conformer: 31.1905851821426 kcal/mol)

>  <smiles>  (40) 
CCCCc1ccc(CSc2ccccc2CCO)cc1

>  <score_type>  (40) 
oracle

>  <origin>  (40) 
adg

>  <m_score__min__energy>  (40) 
-8.3100000000000005

>  <m_primary>  (40) 
energy

$$$$
40:0
     RDKit          3D

 54 58  0  0  0  0  0  0  0  0999 V2000
    1.1380   20.1470  -33.5330 C   0  0  0  0  0  0  0  0  0  0  0  0
   -0.2860   19.6750  -33.5190 C   0  0  0  0  0  0  0  0  0  0  0  0
   -1.2640   20.3570  -34.2570 C   0  0  0  0  0  0  0  0  0  0  0  0
   -2.5970   19.9390  -34.2160 C   0  0  0  0  0  0  0  0  0  0  0  0
   -2.9680   18.8460  -33.4200 C   0  0  0  0  0  0  0  0  0  0  0  0
   -4.3700   18.3820  -33.4030 C   0  0  0  0  0  0  0  0  0  0  0  0
   -4.7130   17.0510  -33.7740 C   0  0  0  0  0  0  0  0  0  0  0  0
   -3.6780   16.0750  -34.1860 C   0  0  0  0  0  0  0  0  0  0  0  0
   -3.1090   16.1280  -35.4700 C   0  0  0  0  0  0  0  0  0  0  0  0
   -2.1300   15.2040  -35.8450 C   0  0  0  0  0  0  0  0  0  0  0  0
   -1.7210   14.2130  -34.9470 C   0  0  0  0  0  0  0  0  0  0  0  0
   -2.2950   14.1440  -33.6750 C   0  0  0  0  0  0  0  0  0  0  0  0
   -3.2730   15.0680  -33.2950 C   0  0  0  0  0  0  0  0  0  0  0  0
   -6.0250   16.6480  -33.7490 N   0  0  0  0  0  0  0  0  0  0  0  0
   -7.0400   17.4860  -33.3930 C   0  0  0  0  0  0  0  0  0  0  0  0
   -6.7300   18.7900  -33.0120 C   0  0  0  0  0  0  0  0  0  0  0  0
   -5.4210   19.2260  -33.0100 C   0  0  0  0  0  0  0  0  0  0  0  0
   -5.4670   20.5420  -32.5640 C   0  0  0  0  0  0  0  0  0  0  0  0
   -4.4680   21.4860  -32.3170 C   0  0  0  0  0  0  0  0  0  0  0  0
   -4.8560   22.7610  -31.8730 C   0  0  0  0  0  0  0  0  0  0  0  0
   -6.2150   23.0810  -31.6730 C   0  0  0  0  0  0  0  0  0  0  0  0
   -6.5300   24.3780  -31.2340 O   0  0  0  0  0  0  0  0  0  0  0  0
   -6.0330   24.9890  -30.0440 C   0  0  0  0  0  0  0  0  0  0  0  0
   -4.5380   24.9450  -30.0140 C   0  0  0  0  0  0  0  0  0  0  0  0
   -3.8660   25.6630  -30.8020 O   0  0  0  0  0  0  0  0  0  0  0  0
   -3.8850   24.0840  -29.1420 O   0  0  0  0  0  0  0  0  0  0  0  0
   -7.2070   22.1010  -31.9150 C   0  0  0  0  0  0  0  0  0  0  0  0
   -6.8010   20.8340  -32.3480 C   0  0  0  0  0  0  0  0  0  0  0  0
   -7.5840   19.7590  -32.6010 N   0  0  0  0  0  0  0  0  0  0  0  0
   -9.0450   19.6900  -32.5340 C   0  0  0  0  0  0  0  0  0  0  0  0
   -1.9940   18.1690  -32.6720 C   0  0  0  0  0  0  0  0  0  0  0  0
   -0.6610   18.5870  -32.7150 C   0  0  0  0  0  0  0  0  0  0  0  0
    1.4952   20.2654  -32.4994 H   0  0  0  0  0  0  0  0  0  0  0  0
    1.7640   19.4083  -34.0549 H   0  0  0  0  0  0  0  0  0  0  0  0
    1.1989   21.1134  -34.0549 H   0  0  0  0  0  0  0  0  0  0  0  0
   -0.9808   21.2248  -34.8709 H   0  0  0  0  0  0  0  0  0  0  0  0
   -3.3567   20.4687  -34.8095 H   0  0  0  0  0  0  0  0  0  0  0  0
   -3.4355   16.8998  -36.1825 H   0  0  0  0  0  0  0  0  0  0  0  0
   -1.6806   15.2562  -36.8476 H   0  0  0  0  0  0  0  0  0  0  0  0
   -0.9478   13.4883  -35.2419 H   0  0  0  0  0  0  0  0  0  0  0  0
   -1.9767   13.3610  -32.9710 H   0  0  0  0  0  0  0  0  0  0  0  0
   -3.7267   15.0060  -32.2948 H   0  0  0  0  0  0  0  0  0  0  0  0
   -6.2710   15.6710  -34.0280 H   0  0  0  0  0  0  0  0  0  0  0  0
   -8.0838   17.1392  -33.4063 H   0  0  0  0  0  0  0  0  0  0  0  0
   -3.4067   21.2381  -32.4660 H   0  0  0  0  0  0  0  0  0  0  0  0
   -4.0868   23.5228  -31.6780 H   0  0  0  0  0  0  0  0  0  0  0  0
   -6.3645   26.0373  -30.0104 H   0  0  0  0  0  0  0  0  0  0  0  0
   -6.4214   24.4388  -29.1742 H   0  0  0  0  0  0  0  0  0  0  0  0
   -8.2725   22.3301  -31.7661 H   0  0  0  0  0  0  0  0  0  0  0  0
   -9.3635   19.6750  -31.4812 H   0  0  0  0  0  0  0  0  0  0  0  0
   -9.4769   20.5687  -33.0352 H   0  0  0  0  0  0  0  0  0  0  0  0
   -9.3922   18.7745  -33.0352 H   0  0  0  0  0  0  0  0  0  0  0  0
   -2.2796   17.3076  -32.0504 H   0  0  0  0  0  0  0  0  0  0  0  0
    0.0974   18.0613  -32.1164 H   0  0  0  0  0  0  0  0  0  0  0  0
  1  2  1  0
  2  3  2  0
  3  4  1  0
  4  5  2  0
  5  6  1  0
  6  7  1  0
  7  8  1  0
  8  9  2  0
  9 10  1  0
 10 11  2  0
 11 12  1  0
 12 13  2  0
  7 14  2  0
 14 15  1  0
 15 16  2  0
 16 17  1  0
 17 18  1  0
 18 19  2  0
 19 20  1  0
 20 21  2  0
 21 22  1  0
 22 23  1  0
 23 24  1  0
 24 25  2  0
 24 26  1  0
 21 27  1  0
 27 28  2  0
 28 29  1  0
 29 30  1  0
  5 31  1  0
 31 32  2  0
 32  2  1  0
 17  6  2  0
 28 18  1  0
 13  8  1  0
 29 16  1  0
  1 33  1  0
  1 34  1  0
  1 35  1  0
  3 36  1  0
  4 37  1  0
  9 38  1  0
 10 39  1  0
 11 40  1  0
 12 41  1  0
 13 42  1  0
 14 43  1  0
 15 44  1  0
 19 45  1  0
 20 46  1  0
 23 47  1  0
 23 48  1  0
 27 49  1  0
 30 50  1  0
 30 51  1  0
 30 52  1  0
 31 53  1  0
 32 54  1  0
M  CHG  2  14   1  26  -1
M  END
>  <UniqueID>  (41) 
39

>  <SMILES>  (41) 
Cc1ccc(-c2c(-c3ccccc3)[nH+]cc3c2c2ccc(OCC(=O)[O-])cc2n3C)cc1

>  <Energy>  (41) 
115.52000682141973

>  <Genealogy>  (41) 
Cc1ccc(-c2c(-c3ccccc3)[nH+]cc3c2c2ccc(OCC(=O)[O-])cc2n3C)cc1 (protonated)
Cc1ccc(-c2c(-c3ccccc3)[nH+]cc3c2c2ccc(OCC(=O)[O-])cc2n3C)cc1 (3D coordinates assigned)
Cc1ccc(-c2c(-c3ccccc3)[nH+]cc3c2c2ccc(OCC(=O)[O-])cc2n3C)cc1 (optimized conformer: 115.52000682141973 kcal/mol)

>  <smiles>  (41) 
Cc1ccc(-c2c(-c3ccccc3)ncc3c2c2ccc(OCC(=O)O)cc2n3C)cc1

>  <score_type>  (41) 
oracle

>  <origin>  (41) 
adg

>  <m_score__min__energy>  (41) 
-10.25

>  <m_primary>  (41) 
energy

$$$$
41:0
     RDKit          3D

 45 49  0  0  0  0  0  0  0  0999 V2000
   -5.7110   13.3060  -34.7460 F   0  0  0  0  0  0  0  0  0  0  0  0
   -5.4920   14.6040  -34.4270 C   0  0  0  0  0  0  0  0  0  0  0  0
   -4.2340   15.1900  -34.6810 C   0  0  0  0  0  0  0  0  0  0  0  0
   -3.9950   16.5380  -34.3590 C   0  0  0  0  0  0  0  0  0  0  0  0
   -5.0270   17.2840  -33.7830 C   0  0  0  0  0  0  0  0  0  0  0  0
   -4.9350   18.5930  -33.4290 N   0  0  0  0  0  0  0  0  0  0  0  0
   -6.0960   19.0500  -32.8920 C   0  0  0  0  0  0  0  0  0  0  0  0
   -6.2940   20.4120  -32.4690 N   0  0  0  0  0  0  0  0  0  0  0  0
   -5.1630   21.2250  -32.0140 C   0  0  0  0  0  0  0  0  0  0  0  0
   -5.4090   22.7050  -32.3470 C   0  0  0  0  0  0  0  0  0  0  0  0
   -6.7360   23.2160  -31.9020 N   0  0  0  0  0  0  0  0  0  0  0  0
   -6.6110   24.2840  -30.8900 C   0  0  0  0  0  0  0  0  0  0  0  0
   -5.3970   24.0530  -30.0330 C   0  0  0  0  0  0  0  0  0  0  0  0
   -5.3740   22.9980  -29.0830 C   0  0  0  0  0  0  0  0  0  0  0  0
   -4.2330   22.7780  -28.2900 C   0  0  0  0  0  0  0  0  0  0  0  0
   -3.1440   23.6240  -28.4730 C   0  0  0  0  0  0  0  0  0  0  0  0
   -3.1590   24.6310  -29.3810 C   0  0  0  0  0  0  0  0  0  0  0  0
   -4.2660   24.8820  -30.1850 C   0  0  0  0  0  0  0  0  0  0  0  0
   -1.9500   25.3010  -29.3480 O   0  0  0  0  0  0  0  0  0  0  0  0
   -1.1240   24.6750  -28.3560 C   0  0  0  0  0  0  0  0  0  0  0  0
   -1.9250   23.6090  -27.8230 O   0  0  0  0  0  0  0  0  0  0  0  0
   -7.6730   22.1710  -31.4360 C   0  0  0  0  0  0  0  0  0  0  0  0
   -7.6530   20.9490  -32.3560 C   0  0  0  0  0  0  0  0  0  0  0  0
   -7.2820   17.8340  -32.8410 S   0  0  0  0  0  0  0  0  0  0  0  0
   -6.2590   16.6960  -33.5330 C   0  0  0  0  0  0  0  0  0  0  0  0
   -6.5210   15.3630  -33.8440 C   0  0  0  0  0  0  0  0  0  0  0  0
   -3.4333   14.5875  -35.1347 H   0  0  0  0  0  0  0  0  0  0  0  0
   -3.0148   16.9963  -34.5567 H   0  0  0  0  0  0  0  0  0  0  0  0
   -4.0710   19.1670  -33.5530 H   0  0  0  0  0  0  0  0  0  0  0  0
   -5.0474   21.1112  -30.9260 H   0  0  0  0  0  0  0  0  0  0  0  0
   -4.2488   20.8881  -32.5246 H   0  0  0  0  0  0  0  0  0  0  0  0
   -4.6265   23.3038  -31.8580 H   0  0  0  0  0  0  0  0  0  0  0  0
   -5.3871   22.7914  -33.4434 H   0  0  0  0  0  0  0  0  0  0  0  0
   -6.5171   25.2554  -31.3976 H   0  0  0  0  0  0  0  0  0  0  0  0
   -7.5062   24.2771  -30.2508 H   0  0  0  0  0  0  0  0  0  0  0  0
   -6.2541   22.3485  -28.9663 H   0  0  0  0  0  0  0  0  0  0  0  0
   -4.2030   21.9645  -27.5502 H   0  0  0  0  0  0  0  0  0  0  0  0
   -4.2596   25.7026  -30.9175 H   0  0  0  0  0  0  0  0  0  0  0  0
   -0.2057   24.2772  -28.8127 H   0  0  0  0  0  0  0  0  0  0  0  0
   -0.8072   25.3830  -27.5760 H   0  0  0  0  0  0  0  0  0  0  0  0
   -7.3847   21.8592  -30.4213 H   0  0  0  0  0  0  0  0  0  0  0  0
   -8.6895   22.5913  -31.4427 H   0  0  0  0  0  0  0  0  0  0  0  0
   -8.3150   20.1739  -31.9424 H   0  0  0  0  0  0  0  0  0  0  0  0
   -7.9997   21.2511  -33.3553 H   0  0  0  0  0  0  0  0  0  0  0  0
   -7.5056   14.9175  -33.6389 H   0  0  0  0  0  0  0  0  0  0  0  0
  1  2  1  0
  2  3  2  0
  3  4  1  0
  4  5  2  0
  5  6  1  0
  6  7  2  0
  7  8  1  0
  8  9  1  0
  9 10  1  0
 10 11  1  0
 11 12  1  0
 12 13  1  0
 13 14  2  0
 14 15  1  0
 15 16  2  0
 16 17  1  0
 17 18  2  0
 17 19  1  0
 19 20  1  0
 20 21  1  0
 11 22  1  0
 22 23  1  0
  7 24  1  0
 24 25  1  0
 25 26  2  0
 26  2  1  0
 25  5  1  0
 23  8  1  0
 18 13  1  0
 21 16  1  0
  3 27  1  0
  4 28  1  0
  6 29  1  0
  9 30  1  0
  9 31  1  0
 10 32  1  0
 10 33  1  0
 12 34  1  0
 12 35  1  0
 14 36  1  0
 15 37  1  0
 18 38  1  0
 20 39  1  0
 20 40  1  0
 22 41  1  0
 22 42  1  0
 23 43  1  0
 23 44  1  0
 26 45  1  0
M  CHG  1   6   1
M  END
>  <UniqueID>  (42) 
40

>  <SMILES>  (42) 
Fc1ccc2[nH+]c(N3CCN(Cc4ccc5c(c4)OCO5)CC3)sc2c1

>  <Energy>  (42) 
119.7933088780108

>  <Genealogy>  (42) 
Fc1ccc2[nH+]c(N3CCN(Cc4ccc5c(c4)OCO5)CC3)sc2c1 (protonated)
Fc1ccc2[nH+]c(N3CCN(Cc4ccc5c(c4)OCO5)CC3)sc2c1 (3D coordinates assigned)
Fc1ccc2[nH+]c(N3CCN(Cc4ccc5c(c4)OCO5)CC3)sc2c1 (nonaromatic ring conformer: 119.7933088780108 kcal/mol)

>  <smiles>  (42) 
Fc1ccc2nc(N3CCN(Cc4ccc5c(c4)OCO5)CC3)sc2c1

>  <score_type>  (42) 
oracle

>  <origin>  (42) 
adg

>  <m_score__min__energy>  (42) 
-7.7999999999999998

>  <m_primary>  (42) 
energy

$$$$
42:0
     RDKit          3D

 41 42  0  0  0  0  0  0  0  0999 V2000
    0.6200   23.6150  -36.0990 C   0  0  0  0  0  0  0  0  0  0  0  0
    1.4070   22.3110  -35.9850 C   0  0  0  0  0  0  0  0  0  0  0  0
    0.5170   21.0760  -36.1650 C   0  0  0  0  0  0  0  0  0  0  0  0
   -0.5830   21.0820  -35.2010 N   0  0  0  0  0  0  0  0  0  0  0  0
   -0.3780   21.2030  -33.7840 C   0  0  0  0  0  0  0  0  0  0  0  0
    0.7790   21.4340  -33.3360 O   0  0  0  0  0  0  0  0  0  0  0  0
   -1.4860   21.1120  -32.8710 N   0  0  0  0  0  0  0  0  0  0  0  0
   -1.4550   21.9060  -31.6320 C   0  0  0  0  0  0  0  0  0  0  0  0
   -2.7360   21.7170  -30.8100 C   0  0  0  0  0  0  0  0  0  0  0  0
   -3.9090   21.7540  -31.6940 N   0  0  0  0  0  0  0  0  0  0  0  0
   -4.9410   22.7320  -31.4780 C   0  0  0  0  0  0  0  0  0  0  0  0
   -4.6230   23.9040  -31.1350 O   0  0  0  0  0  0  0  0  0  0  0  0
   -6.3710   22.3970  -31.6620 C   0  0  0  0  0  0  0  0  0  0  0  0
   -7.3250   23.4200  -31.8060 C   0  0  0  0  0  0  0  0  0  0  0  0
   -8.6780   23.1060  -31.9650 C   0  0  0  0  0  0  0  0  0  0  0  0
   -9.0920   21.7720  -31.9690 C   0  0  0  0  0  0  0  0  0  0  0  0
   -8.1530   20.7490  -31.8090 C   0  0  0  0  0  0  0  0  0  0  0  0
   -6.7990   21.0580  -31.6490 C   0  0  0  0  0  0  0  0  0  0  0  0
   -3.9330   20.9300  -32.9150 C   0  0  0  0  0  0  0  0  0  0  0  0
   -2.6050   20.1920  -33.1170 C   0  0  0  0  0  0  0  0  0  0  0  0
    0.3911   23.9943  -35.0922 H   0  0  0  0  0  0  0  0  0  0  0  0
    1.2200   24.3590  -36.6435 H   0  0  0  0  0  0  0  0  0  0  0  0
   -0.3179   23.4308  -36.6435 H   0  0  0  0  0  0  0  0  0  0  0  0
    2.1877   22.3002  -36.7599 H   0  0  0  0  0  0  0  0  0  0  0  0
    1.8418   22.2679  -34.9755 H   0  0  0  0  0  0  0  0  0  0  0  0
    0.1031   21.0755  -37.1841 H   0  0  0  0  0  0  0  0  0  0  0  0
    1.1264   20.1756  -35.9981 H   0  0  0  0  0  0  0  0  0  0  0  0
   -1.5550   21.1360  -35.5800 H   0  0  0  0  0  0  0  0  0  0  0  0
   -0.5924   21.5903  -31.0269 H   0  0  0  0  0  0  0  0  0  0  0  0
   -1.3744   22.9684  -31.9053 H   0  0  0  0  0  0  0  0  0  0  0  0
   -2.6984   20.7459  -30.2947 H   0  0  0  0  0  0  0  0  0  0  0  0
   -2.8144   22.5280  -30.0710 H   0  0  0  0  0  0  0  0  0  0  0  0
   -7.0052   24.4724  -31.7935 H   0  0  0  0  0  0  0  0  0  0  0  0
   -9.4178   23.9109  -32.0872 H   0  0  0  0  0  0  0  0  0  0  0  0
  -10.1565   21.5266  -32.0980 H   0  0  0  0  0  0  0  0  0  0  0  0
   -8.4801   19.6988  -31.8090 H   0  0  0  0  0  0  0  0  0  0  0  0
   -6.0653   20.2499  -31.5123 H   0  0  0  0  0  0  0  0  0  0  0  0
   -4.7441   20.1915  -32.8326 H   0  0  0  0  0  0  0  0  0  0  0  0
   -4.0955   21.5932  -33.7774 H   0  0  0  0  0  0  0  0  0  0  0  0
   -2.5453   19.3474  -32.4148 H   0  0  0  0  0  0  0  0  0  0  0  0
   -2.5492   19.8177  -34.1498 H   0  0  0  0  0  0  0  0  0  0  0  0
  1  2  1  0
  2  3  1  0
  3  4  1  0
  4  5  1  0
  5  6  2  0
  5  7  1  0
  7  8  1  0
  8  9  1  0
  9 10  1  0
 10 11  1  0
 11 12  2  0
 11 13  1  0
 13 14  2  0
 14 15  1  0
 15 16  2  0
 16 17  1  0
 17 18  2  0
 10 19  1  0
 19 20  1  0
 20  7  1  0
 18 13  1  0
  1 21  1  0
  1 22  1  0
  1 23  1  0
  2 24  1  0
  2 25  1  0
  3 26  1  0
  3 27  1  0
  4 28  1  0
  8 29  1  0
  8 30  1  0
  9 31  1  0
  9 32  1  0
 14 33  1  0
 15 34  1  0
 16 35  1  0
 17 36  1  0
 18 37  1  0
 19 38  1  0
 19 39  1  0
 20 40  1  0
 20 41  1  0
M  END
>  <UniqueID>  (43) 
41

>  <SMILES>  (43) 
CCCNC(=O)N1CCN(C(=O)c2ccccc2)CC1

>  <Energy>  (43) 
41.94263866642531

>  <Genealogy>  (43) 
CCCNC(=O)N1CCN(C(=O)c2ccccc2)CC1 (3D coordinates assigned)
CCCNC(=O)N1CCN(C(=O)c2ccccc2)CC1 (nonaromatic ring conformer: 41.94263866642531 kcal/mol)

>  <smiles>  (43) 
CCCNC(=O)N1CCN(C(=O)c2ccccc2)CC1

>  <score_type>  (43) 
oracle

>  <origin>  (43) 
adg

>  <m_score__min__energy>  (43) 
-7.0999999999999996

>  <m_primary>  (43) 
energy

$$$$
43:0
     RDKit          3D

 34 36  0  0  0  0  0  0  0  0999 V2000
   -3.4010   24.1710  -29.8420 C   0  0  0  0  0  0  0  0  0  0  0  0
   -3.8660   25.3000  -30.5490 O   0  0  0  0  0  0  0  0  0  0  0  0
   -5.2730   25.2450  -30.6990 C   0  0  0  0  0  0  0  0  0  0  0  0
   -5.7640   23.7920  -30.7570 C   0  0  0  0  0  0  0  0  0  0  0  0
   -6.2890   23.4200  -32.1490 C   0  0  0  0  0  0  0  0  0  0  0  0
   -6.0860   21.9840  -32.4000 N   0  0  0  0  0  0  0  0  0  0  0  0
   -7.0810   21.0610  -32.1260 C   0  0  0  0  0  0  0  0  0  0  0  0
   -8.1790   21.4360  -31.6310 O   0  0  0  0  0  0  0  0  0  0  0  0
   -6.8620   19.6880  -32.4120 C   0  0  0  0  0  0  0  0  0  0  0  0
   -7.7220   18.5890  -32.2150 C   0  0  0  0  0  0  0  0  0  0  0  0
   -9.0990   18.6710  -31.6300 C   0  0  0  0  0  0  0  0  0  0  0  0
   -7.1510   17.3810  -32.6330 C   0  0  0  0  0  0  0  0  0  0  0  0
   -5.5960   17.6610  -33.2430 S   0  0  0  0  0  0  0  0  0  0  0  0
   -5.6560   19.3140  -32.9710 C   0  0  0  0  0  0  0  0  0  0  0  0
   -4.7170   20.2420  -33.2380 N   0  0  0  0  0  0  0  0  0  0  0  0
   -3.4940   20.1890  -33.7820 C   0  0  0  0  0  0  0  0  0  0  0  0
   -2.9780   21.4370  -33.8340 N   0  0  0  0  0  0  0  0  0  0  0  0
   -3.8620   22.2930  -33.3280 N   0  0  0  0  0  0  0  0  0  0  0  0
   -4.9190   21.5370  -32.9680 C   0  0  0  0  0  0  0  0  0  0  0  0
   -3.4781   24.3581  -28.7608 H   0  0  0  0  0  0  0  0  0  0  0  0
   -4.0117   23.2953  -30.1070 H   0  0  0  0  0  0  0  0  0  0  0  0
   -2.3507   23.9794  -30.1070 H   0  0  0  0  0  0  0  0  0  0  0  0
   -5.7459   25.7506  -29.8441 H   0  0  0  0  0  0  0  0  0  0  0  0
   -5.5446   25.7444  -31.6407 H   0  0  0  0  0  0  0  0  0  0  0  0
   -4.9281   23.1239  -30.5021 H   0  0  0  0  0  0  0  0  0  0  0  0
   -6.5917   23.6834  -30.0407 H   0  0  0  0  0  0  0  0  0  0  0  0
   -7.3630   23.6509  -32.2063 H   0  0  0  0  0  0  0  0  0  0  0  0
   -5.7403   23.9986  -32.9067 H   0  0  0  0  0  0  0  0  0  0  0  0
   -9.0318   18.6670  -30.5321 H   0  0  0  0  0  0  0  0  0  0  0  0
   -9.5847   19.5997  -31.9642 H   0  0  0  0  0  0  0  0  0  0  0  0
   -9.6915   17.8065  -31.9642 H   0  0  0  0  0  0  0  0  0  0  0  0
   -7.6393   16.3971  -32.5741 H   0  0  0  0  0  0  0  0  0  0  0  0
   -2.9901   19.2755  -34.1307 H   0  0  0  0  0  0  0  0  0  0  0  0
   -2.0420   21.7050  -34.2090 H   0  0  0  0  0  0  0  0  0  0  0  0
  1  2  1  0
  2  3  1  0
  3  4  1  0
  4  5  1  0
  5  6  1  0
  6  7  1  0
  7  8  2  0
  7  9  1  0
  9 10  1  0
 10 11  1  0
 10 12  2  0
 12 13  1  0
 13 14  1  0
 14 15  1  0
 15 16  1  0
 16 17  2  0
 17 18  1  0
 18 19  2  0
 19  6  1  0
 14  9  2  0
 19 15  1  0
  1 20  1  0
  1 21  1  0
  1 22  1  0
  3 23  1  0
  3 24  1  0
  4 25  1  0
  4 26  1  0
  5 27  1  0
  5 28  1  0
 11 29  1  0
 11 30  1  0
 11 31  1  0
 12 32  1  0
 16 33  1  0
 17 34  1  0
M  CHG  1  17   1
M  END
>  <UniqueID>  (44) 
42

>  <SMILES>  (44) 
COCCCn1c(=O)c2c(C)csc2n2c[nH+]nc12

>  <Energy>  (44) 
112.14220957664854

>  <Genealogy>  (44) 
COCCCn1c(=O)c2c(C)csc2n2c[nH+]nc12 (protonated)
COCCCn1c(=O)c2c(C)csc2n2c[nH+]nc12 (3D coordinates assigned)
COCCCn1c(=O)c2c(C)csc2n2c[nH+]nc12 (optimized conformer: 112.14220957664854 kcal/mol)

>  <smiles>  (44) 
COCCCn1c(=O)c2c(C)csc2n2cnnc12

>  <score_type>  (44) 
oracle

>  <origin>  (44) 
adg

>  <m_score__min__energy>  (44) 
-7.4900000000000002

>  <m_primary>  (44) 
energy

$$$$
44:0
     RDKit          3D

 47 50  0  0  0  0  0  0  0  0999 V2000
   -5.1969   25.4718  -30.7347 H   0  0  0  0  0  0  0  0  0  0  0  0
   -4.9410   24.4150  -30.9010 C   0  0  0  0  0  0  0  0  0  0  0  0
   -3.6940   24.0650  -30.9770 N   0  0  0  0  0  0  0  0  0  0  0  0
   -3.0490   23.3490  -29.9500 N   0  0  0  0  0  0  0  0  0  0  0  0
   -2.8860   21.9780  -30.0310 C   0  0  0  0  0  0  0  0  0  0  0  0
   -3.3710   21.1950  -31.2150 C   0  0  0  0  0  0  0  0  0  0  0  0
   -3.9206   20.3077  -30.8676 H   0  0  0  0  0  0  0  0  0  0  0  0
   -4.0376   21.8245  -31.8228 H   0  0  0  0  0  0  0  0  0  0  0  0
   -2.5105   20.8786  -31.8228 H   0  0  0  0  0  0  0  0  0  0  0  0
   -2.2610   21.3040  -29.0250 N   0  0  0  0  0  0  0  0  0  0  0  0
   -1.7850   21.9870  -27.9610 C   0  0  0  0  0  0  0  0  0  0  0  0
   -0.9680   21.3430  -26.6430 S   0  0  0  0  0  0  0  0  0  0  0  0
   -0.7340   22.8480  -25.9100 C   0  0  0  0  0  0  0  0  0  0  0  0
   -1.3230   23.8540  -26.6710 C   0  0  0  0  0  0  0  0  0  0  0  0
   -1.8990   23.3570  -27.8540 C   0  0  0  0  0  0  0  0  0  0  0  0
   -2.5380   24.0500  -28.8880 C   0  0  0  0  0  0  0  0  0  0  0  0
   -2.6520   25.3050  -28.8450 O   0  0  0  0  0  0  0  0  0  0  0  0
   -1.2350   25.2980  -26.2590 C   0  0  0  0  0  0  0  0  0  0  0  0
   -0.5113   25.8121  -26.9086 H   0  0  0  0  0  0  0  0  0  0  0  0
   -2.2343   25.7473  -26.3560 H   0  0  0  0  0  0  0  0  0  0  0  0
   -0.7790   25.4380  -24.7880 C   0  0  0  0  0  0  0  0  0  0  0  0
   -0.4314   26.4691  -24.6268 H   0  0  0  0  0  0  0  0  0  0  0  0
   -1.6423   25.1879  -24.1539 H   0  0  0  0  0  0  0  0  0  0  0  0
    0.3190   24.5080  -24.4230 N   0  0  2  0  0  0  0  0  0  0  0  0
    0.5260   24.6590  -23.4070 H   0  0  0  0  0  0  0  0  0  0  0  0
    1.5630   24.8050  -25.1590 C   0  0  0  0  0  0  0  0  0  0  0  0
    2.3752   24.9989  -24.4430 H   0  0  0  0  0  0  0  0  0  0  0  0
    1.8291   23.9451  -25.7913 H   0  0  0  0  0  0  0  0  0  0  0  0
    1.4120   25.6923  -25.7913 H   0  0  0  0  0  0  0  0  0  0  0  0
   -0.0840   23.0900  -24.5820 C   0  0  0  0  0  0  0  0  0  0  0  0
    0.8094   22.4535  -24.5004 H   0  0  0  0  0  0  0  0  0  0  0  0
   -0.8115   22.8481  -23.7932 H   0  0  0  0  0  0  0  0  0  0  0  0
   -6.0230   23.4180  -31.0340 C   0  0  0  0  0  0  0  0  0  0  0  0
   -6.0950   22.6300  -32.1920 C   0  0  0  0  0  0  0  0  0  0  0  0
   -5.3469   22.7594  -32.9879 H   0  0  0  0  0  0  0  0  0  0  0  0
   -7.1110   21.6810  -32.3420 C   0  0  0  0  0  0  0  0  0  0  0  0
   -7.1588   21.0690  -33.2548 H   0  0  0  0  0  0  0  0  0  0  0  0
   -8.0730   21.5060  -31.3290 C   0  0  0  0  0  0  0  0  0  0  0  0
   -9.1110   20.5670  -31.4320 O   0  0  0  0  0  0  0  0  0  0  0  0
   -9.1100   19.4620  -32.3300 C   0  0  0  0  0  0  0  0  0  0  0  0
   -9.1091   18.5234  -31.7564 H   0  0  0  0  0  0  0  0  0  0  0  0
  -10.0082   19.5037  -32.9637 H   0  0  0  0  0  0  0  0  0  0  0  0
   -8.2119   19.5053  -32.9637 H   0  0  0  0  0  0  0  0  0  0  0  0
   -8.0000   22.2920  -30.1750 C   0  0  0  0  0  0  0  0  0  0  0  0
   -8.7478   22.1620  -29.3788 H   0  0  0  0  0  0  0  0  0  0  0  0
   -6.9860   23.2410  -30.0240 C   0  0  0  0  0  0  0  0  0  0  0  0
   -6.9404   23.8528  -29.1109 H   0  0  0  0  0  0  0  0  0  0  0  0
  1  2  1  0
  2  3  2  0
  3  4  1  0
  4  5  1  0
  5  6  1  0
  6  7  1  0
  6  8  1  0
  6  9  1  0
  5 10  2  0
 10 11  1  0
 11 12  1  0
 12 13  1  0
 13 14  2  0
 14 15  1  0
 15 16  1  0
 16 17  2  0
 14 18  1  0
 18 19  1  0
 18 20  1  0
 18 21  1  0
 21 22  1  0
 21 23  1  0
 21 24  1  0
 24 25  1  1
 24 26  1  0
 26 27  1  0
 26 28  1  0
 26 29  1  0
 24 30  1  0
 30 31  1  0
 30 32  1  0
  2 33  1  0
 33 34  2  0
 34 35  1  0
 34 36  1  0
 36 37  1  0
 36 38  2  0
 38 39  1  0
 39 40  1  0
 40 41  1  0
 40 42  1  0
 40 43  1  0
 38 44  1  0
 44 45  1  0
 44 46  2  0
 46 47  1  0
 16  4  1  0
 46 33  1  0
 15 11  2  0
 30 13  1  0
M  CHG  1  24   1
M  END
>  <UniqueID>  (45) 
43

>  <SMILES>  (45) 
COc1ccc(/C=N/n2c(C)nc3sc4c(c3c2=O)CC[N@H+](C)C4)cc1

>  <Energy>  (45) 
96.63684749083681

>  <Genealogy>  (45) 
COc1ccc(C=Nn2c(C)nc3sc4c(c3c2=O)CC[NH+](C)C4)cc1 (protonated)
COc1ccc(C=Nn2c(C)nc3sc4c(c3c2=O)CC[N@H+](C)C4)cc1 (chirality)
COc1ccc(/C=N/n2c(C)nc3sc4c(c3c2=O)CC[N@H+](C)C4)cc1 (cis-trans isomerization)
COc1ccc(/C=N/n2c(C)nc3sc4c(c3c2=O)CC[N@H+](C)C4)cc1 (3D coordinates assigned)
COc1ccc(/C=N/n2c(C)nc3sc4c(c3c2=O)CC[N@H+](C)C4)cc1 (nonaromatic ring conformer: 96.63684749083681 kcal/mol)

>  <smiles>  (45) 
COc1ccc(C=Nn2c(C)nc3sc4c(c3c2=O)CCN(C)C4)cc1

>  <score_type>  (45) 
oracle

>  <origin>  (45) 
adg

>  <m_score__min__energy>  (45) 
-8.7200000000000006

>  <m_primary>  (45) 
energy

$$$$
45:0
     RDKit          3D

 40 42  0  0  0  0  0  0  0  0999 V2000
   -1.9710   24.9270  -28.2130 C   0  0  0  0  0  0  0  0  0  0  0  0
   -2.7470   25.2950  -29.3480 O   0  0  0  0  0  0  0  0  0  0  0  0
   -3.8540   24.5710  -29.8180 C   0  0  0  0  0  0  0  0  0  0  0  0
   -5.1570   25.1010  -29.8220 C   0  0  0  0  0  0  0  0  0  0  0  0
   -6.2280   24.3400  -30.3000 C   0  0  0  0  0  0  0  0  0  0  0  0
   -6.0180   23.0370  -30.7850 C   0  0  0  0  0  0  0  0  0  0  0  0
   -7.1560   22.2300  -31.2930 C   0  0  0  0  0  0  0  0  0  0  0  0
   -8.4170   22.8190  -31.4990 C   0  0  0  0  0  0  0  0  0  0  0  0
   -9.4820   22.0580  -31.9850 C   0  0  0  0  0  0  0  0  0  0  0  0
   -9.3090   20.7010  -32.2610 C   0  0  0  0  0  0  0  0  0  0  0  0
   -8.0650   20.0880  -32.0420 C   0  0  0  0  0  0  0  0  0  0  0  0
   -7.8830   18.6560  -32.3510 C   0  0  0  0  0  0  0  0  0  0  0  0
   -8.6550   17.8150  -31.8160 O   0  0  0  0  0  0  0  0  0  0  0  0
   -6.8450   18.2020  -33.2390 N   0  0  0  0  0  0  0  0  0  0  0  0
   -6.8560   16.8810  -33.8450 C   0  0  0  0  0  0  0  0  0  0  0  0
   -5.4430   16.6480  -34.3630 C   0  0  0  0  0  0  0  0  0  0  0  0
   -4.7630   18.0150  -34.3620 C   0  0  0  0  0  0  0  0  0  0  0  0
   -5.5720   18.8860  -33.4120 C   0  0  0  0  0  0  0  0  0  0  0  0
   -6.9890   20.8620  -31.5780 C   0  0  0  0  0  0  0  0  0  0  0  0
   -4.7130   22.5130  -30.7800 C   0  0  0  0  0  0  0  0  0  0  0  0
   -3.6450   23.2750  -30.3010 C   0  0  0  0  0  0  0  0  0  0  0  0
   -2.5183   25.1866  -27.2948 H   0  0  0  0  0  0  0  0  0  0  0  0
   -1.7823   23.8435  -28.2335 H   0  0  0  0  0  0  0  0  0  0  0  0
   -1.0126   25.4665  -28.2335 H   0  0  0  0  0  0  0  0  0  0  0  0
   -5.3343   26.1198  -29.4470 H   0  0  0  0  0  0  0  0  0  0  0  0
   -7.2430   24.7640  -30.2966 H   0  0  0  0  0  0  0  0  0  0  0  0
   -8.5648   23.8859  -31.2757 H   0  0  0  0  0  0  0  0  0  0  0  0
  -10.4616   22.5301  -32.1510 H   0  0  0  0  0  0  0  0  0  0  0  0
  -10.1502   20.1096  -32.6515 H   0  0  0  0  0  0  0  0  0  0  0  0
   -7.1198   16.1190  -33.0969 H   0  0  0  0  0  0  0  0  0  0  0  0
   -7.5989   16.8136  -34.6534 H   0  0  0  0  0  0  0  0  0  0  0  0
   -4.9039   15.9526  -33.7029 H   0  0  0  0  0  0  0  0  0  0  0  0
   -5.4512   16.2031  -35.3690 H   0  0  0  0  0  0  0  0  0  0  0  0
   -3.7253   17.9253  -34.0081 H   0  0  0  0  0  0  0  0  0  0  0  0
   -4.7270   18.4475  -35.3728 H   0  0  0  0  0  0  0  0  0  0  0  0
   -5.0545   18.9835  -32.4462 H   0  0  0  0  0  0  0  0  0  0  0  0
   -5.7078   19.9028  -33.8092 H   0  0  0  0  0  0  0  0  0  0  0  0
   -6.0040   20.3935  -31.4356 H   0  0  0  0  0  0  0  0  0  0  0  0
   -4.5320   21.4953  -31.1562 H   0  0  0  0  0  0  0  0  0  0  0  0
   -2.6296   22.8519  -30.3036 H   0  0  0  0  0  0  0  0  0  0  0  0
  1  2  1  0
  2  3  1  0
  3  4  2  0
  4  5  1  0
  5  6  2  0
  6  7  1  0
  7  8  2  0
  8  9  1  0
  9 10  2  0
 10 11  1  0
 11 12  1  0
 12 13  2  0
 12 14  1  0
 14 15  1  0
 15 16  1  0
 16 17  1  0
 17 18  1  0
 11 19  2  0
  6 20  1  0
 20 21  2  0
 21  3  1  0
 19  7  1  0
 18 14  1  0
  1 22  1  0
  1 23  1  0
  1 24  1  0
  4 25  1  0
  5 26  1  0
  8 27  1  0
  9 28  1  0
 10 29  1  0
 15 30  1  0
 15 31  1  0
 16 32  1  0
 16 33  1  0
 17 34  1  0
 17 35  1  0
 18 36  1  0
 18 37  1  0
 19 38  1  0
 20 39  1  0
 21 40  1  0
M  END
>  <UniqueID>  (46) 
44

>  <SMILES>  (46) 
COc1ccc(-c2cccc(C(=O)N3CCCC3)c2)cc1

>  <Energy>  (46) 
50.05143537545972

>  <Genealogy>  (46) 
COc1ccc(-c2cccc(C(=O)N3CCCC3)c2)cc1 (3D coordinates assigned)
COc1ccc(-c2cccc(C(=O)N3CCCC3)c2)cc1 (nonaromatic ring conformer: 50.05143537545972 kcal/mol)

>  <smiles>  (46) 
COc1ccc(-c2cccc(C(=O)N3CCCC3)c2)cc1

>  <score_type>  (46) 
oracle

>  <origin>  (46) 
adg

>  <m_score__min__energy>  (46) 
-9.25

>  <m_primary>  (46) 
energy

$$$$
46:0
     RDKit          3D

 41 44  0  0  0  0  0  0  0  0999 V2000
   -6.4230   15.3570  -34.2060 Cl  0  0  0  0  0  0  0  0  0  0  0  0
   -6.5150   16.9930  -33.5830 C   0  0  0  0  0  0  0  0  0  0  0  0
   -7.2350   17.2660  -32.4180 C   0  0  0  0  0  0  0  0  0  0  0  0
   -7.3020   18.5730  -31.9320 C   0  0  0  0  0  0  0  0  0  0  0  0
   -6.6380   19.6050  -32.6210 C   0  0  0  0  0  0  0  0  0  0  0  0
   -6.6850   20.9690  -32.1560 N   0  0  0  0  0  0  0  0  0  0  0  0
   -5.4810   21.8010  -32.1180 C   0  0  0  0  0  0  0  0  0  0  0  0
   -5.8200   23.2530  -32.4770 C   0  0  0  0  0  0  0  0  0  0  0  0
   -7.0050   23.7640  -31.7600 N   0  0  0  0  0  0  0  0  0  0  0  0
   -6.7580   24.5500  -30.5330 C   0  0  0  0  0  0  0  0  0  0  0  0
   -5.4680   24.1990  -29.8340 C   0  0  0  0  0  0  0  0  0  0  0  0
   -5.3790   23.0220  -29.0460 C   0  0  0  0  0  0  0  0  0  0  0  0
   -4.1770   22.6830  -28.4000 C   0  0  0  0  0  0  0  0  0  0  0  0
   -3.0860   23.5270  -28.5760 C   0  0  0  0  0  0  0  0  0  0  0  0
   -3.1560   24.6420  -29.3450 C   0  0  0  0  0  0  0  0  0  0  0  0
   -4.3250   25.0130  -30.0010 C   0  0  0  0  0  0  0  0  0  0  0  0
   -1.9310   25.2810  -29.3430 O   0  0  0  0  0  0  0  0  0  0  0  0
   -1.0360   24.5200  -28.5200 C   0  0  0  0  0  0  0  0  0  0  0  0
   -1.8120   23.4100  -28.0520 O   0  0  0  0  0  0  0  0  0  0  0  0
   -8.1860   22.8790  -31.7630 C   0  0  0  0  0  0  0  0  0  0  0  0
   -7.8470   21.4320  -31.3940 C   0  0  0  0  0  0  0  0  0  0  0  0
   -5.9510   19.3060  -33.7590 N   0  0  0  0  0  0  0  0  0  0  0  0
   -5.8740   18.0410  -34.2480 C   0  0  0  0  0  0  0  0  0  0  0  0
   -7.7484   16.4527  -31.8842 H   0  0  0  0  0  0  0  0  0  0  0  0
   -7.8701   18.7948  -31.0165 H   0  0  0  0  0  0  0  0  0  0  0  0
   -5.0508   21.7693  -31.1061 H   0  0  0  0  0  0  0  0  0  0  0  0
   -4.7573   21.4132  -32.8500 H   0  0  0  0  0  0  0  0  0  0  0  0
   -4.9573   23.8869  -32.2243 H   0  0  0  0  0  0  0  0  0  0  0  0
   -6.0495   23.2805  -33.5524 H   0  0  0  0  0  0  0  0  0  0  0  0
   -6.7266   25.6156  -30.8043 H   0  0  0  0  0  0  0  0  0  0  0  0
   -7.5747   24.3172  -29.8338 H   0  0  0  0  0  0  0  0  0  0  0  0
   -6.2580   22.3693  -28.9397 H   0  0  0  0  0  0  0  0  0  0  0  0
   -4.1022   21.7801  -27.7761 H   0  0  0  0  0  0  0  0  0  0  0  0
   -4.3588   25.9138  -30.6314 H   0  0  0  0  0  0  0  0  0  0  0  0
   -0.1751   24.1688  -29.1078 H   0  0  0  0  0  0  0  0  0  0  0  0
   -0.6298   25.1177  -27.6907 H   0  0  0  0  0  0  0  0  0  0  0  0
   -8.9157   23.2649  -31.0359 H   0  0  0  0  0  0  0  0  0  0  0  0
   -8.5913   22.8727  -32.7856 H   0  0  0  0  0  0  0  0  0  0  0  0
   -7.6212   21.3756  -30.3189 H   0  0  0  0  0  0  0  0  0  0  0  0
   -8.7087   20.7917  -31.6336 H   0  0  0  0  0  0  0  0  0  0  0  0
   -5.3062   17.8416  -35.1688 H   0  0  0  0  0  0  0  0  0  0  0  0
  1  2  1  0
  2  3  2  0
  3  4  1  0
  4  5  2  0
  5  6  1  0
  6  7  1  0
  7  8  1  0
  8  9  1  0
  9 10  1  0
 10 11  1  0
 11 12  2  0
 12 13  1  0
 13 14  2  0
 14 15  1  0
 15 16  2  0
 15 17  1  0
 17 18  1  0
 18 19  1  0
  9 20  1  0
 20 21  1  0
  5 22  1  0
 22 23  2  0
 23  2  1  0
 21  6  1  0
 16 11  1  0
 19 14  1  0
  3 24  1  0
  4 25  1  0
  7 26  1  0
  7 27  1  0
  8 28  1  0
  8 29  1  0
 10 30  1  0
 10 31  1  0
 12 32  1  0
 13 33  1  0
 16 34  1  0
 18 35  1  0
 18 36  1  0
 20 37  1  0
 20 38  1  0
 21 39  1  0
 21 40  1  0
 23 41  1  0
M  END
>  <UniqueID>  (47) 
45

>  <SMILES>  (47) 
Clc1ccc(N2CCN(Cc3ccc4c(c3)OCO4)CC2)nc1

>  <Energy>  (47) 
83.93438604823423

>  <Genealogy>  (47) 
Clc1ccc(N2CCN(Cc3ccc4c(c3)OCO4)CC2)nc1 (3D coordinates assigned)
Clc1ccc(N2CCN(Cc3ccc4c(c3)OCO4)CC2)nc1 (nonaromatic ring conformer: 83.93438604823423 kcal/mol)

>  <smiles>  (47) 
Clc1ccc(N2CCN(Cc3ccc4c(c3)OCO4)CC2)nc1

>  <score_type>  (47) 
oracle

>  <origin>  (47) 
adg

>  <m_score__min__energy>  (47) 
-7.9199999999999999

>  <m_primary>  (47) 
energy

$$$$
