0:0
     RDKit          3D

 35 37  0  0  0  0  0  0  0  0999 V2000
   -3.8710   23.5500  -28.7090 C   0  0  0  0  0  0  0  0  0  0  0  0
   -5.1520   24.0180  -29.3160 C   0  0  0  0  0  0  0  0  0  0  0  0
   -5.7210   25.2240  -29.0990 N   0  0  0  0  0  0  0  0  0  0  0  0
   -6.8090   25.3270  -29.8620 N   0  0  0  0  0  0  0  0  0  0  0  0
   -6.8740   24.1650  -30.5430 C   0  0  0  0  0  0  0  0  0  0  0  0
   -7.8230   23.7810  -31.4780 C   0  0  0  0  0  0  0  0  0  0  0  0
   -7.6640   22.5160  -32.0660 C   0  0  0  0  0  0  0  0  0  0  0  0
   -6.5620   21.6930  -31.7070 C   0  0  0  0  0  0  0  0  0  0  0  0
   -6.3590   20.3480  -32.3050 C   0  0  0  0  0  0  0  0  0  0  0  0
   -5.3440   20.1520  -33.2550 C   0  0  0  0  0  0  0  0  0  0  0  0
   -5.1400   18.8970  -33.8340 C   0  0  0  0  0  0  0  0  0  0  0  0
   -5.9530   17.7990  -33.4860 C   0  0  0  0  0  0  0  0  0  0  0  0
   -5.7430   16.4950  -34.0870 N   0  0  0  0  0  0  0  0  0  0  0  0
   -6.8560   15.5450  -34.2150 C   0  0  0  0  0  0  0  0  0  0  0  0
   -4.4160   16.1020  -34.5760 C   0  0  0  0  0  0  0  0  0  0  0  0
   -6.9790   18.0050  -32.5410 C   0  0  0  0  0  0  0  0  0  0  0  0
   -7.1810   19.2610  -31.9630 C   0  0  0  0  0  0  0  0  0  0  0  0
   -5.6770   22.1490  -30.7690 N   0  0  0  0  0  0  0  0  0  0  0  0
   -5.8670   23.3500  -30.2300 N   0  0  0  0  0  0  0  0  0  0  0  0
   -3.9525   23.5798  -27.6124 H   0  0  0  0  0  0  0  0  0  0  0  0
   -3.6665   22.5191  -29.0336 H   0  0  0  0  0  0  0  0  0  0  0  0
   -3.0501   24.2063  -29.0336 H   0  0  0  0  0  0  0  0  0  0  0  0
   -5.3770   25.9710  -28.4560 H   0  0  0  0  0  0  0  0  0  0  0  0
   -8.6631   24.4382  -31.7471 H   0  0  0  0  0  0  0  0  0  0  0  0
   -8.3949   22.1605  -32.8072 H   0  0  0  0  0  0  0  0  0  0  0  0
   -4.7020   20.9962  -33.5468 H   0  0  0  0  0  0  0  0  0  0  0  0
   -4.3344   18.7638  -34.5711 H   0  0  0  0  0  0  0  0  0  0  0  0
   -7.2026   15.2492  -33.2138 H   0  0  0  0  0  0  0  0  0  0  0  0
   -7.6825   16.0203  -34.7635 H   0  0  0  0  0  0  0  0  0  0  0  0
   -6.5164   14.6541  -34.7635 H   0  0  0  0  0  0  0  0  0  0  0  0
   -3.7532   15.9057  -33.7203 H   0  0  0  0  0  0  0  0  0  0  0  0
   -4.5052   15.1917  -35.1871 H   0  0  0  0  0  0  0  0  0  0  0  0
   -3.9951   16.9141  -35.1871 H   0  0  0  0  0  0  0  0  0  0  0  0
   -7.6294   17.1653  -32.2548 H   0  0  0  0  0  0  0  0  0  0  0  0
   -7.9918   19.4002  -31.2328 H   0  0  0  0  0  0  0  0  0  0  0  0
  1  2  1  0
  2  3  2  0
  3  4  1  0
  4  5  2  0
  5  6  1  0
  6  7  2  0
  7  8  1  0
  8  9  1  0
  9 10  2  0
 10 11  1  0
 11 12  2  0
 12 13  1  0
 13 14  1  0
 13 15  1  0
 12 16  1  0
 16 17  2  0
  8 18  2  0
 18 19  1  0
 19  2  1  0
 19  5  1  0
 17  9  1  0
  1 20  1  0
  1 21  1  0
  1 22  1  0
  3 23  1  0
  6 24  1  0
  7 25  1  0
 10 26  1  0
 11 27  1  0
 14 28  1  0
 14 29  1  0
 14 30  1  0
 15 31  1  0
 15 32  1  0
 15 33  1  0
 16 34  1  0
 17 35  1  0
M  CHG  1   3   1
M  END
>  <UniqueID>  (1) 
1

>  <SMILES>  (1) 
Cc1[nH+]nc2ccc(-c3ccc(N(C)C)cc3)nn12

>  <Energy>  (1) 
84.92238076694237

>  <Genealogy>  (1) 
Cc1[nH+]nc2ccc(-c3ccc(N(C)C)cc3)nn12 (protonated)
Cc1[nH+]nc2ccc(-c3ccc(N(C)C)cc3)nn12 (3D coordinates assigned)
Cc1[nH+]nc2ccc(-c3ccc(N(C)C)cc3)nn12 (optimized conformer: 84.92238076694237 kcal/mol)

>  <smiles>  (1) 
Cc1nnc2ccc(-c3ccc(N(C)C)cc3)nn12

>  <score_type>  (1) 
oracle

>  <origin>  (1) 
adg

>  <m_score__min__energy>  (1) 
-6.9400000000000004

>  <m_primary>  (1) 
energy

$$$$
1:0
     RDKit          3D

 46 49  0  0  0  0  0  0  0  0999 V2000
   -1.5910   20.9480  -28.1790 C   0  0  0  0  0  0  0  0  0  0  0  0
   -1.6060   22.0220  -29.1150 O   0  0  0  0  0  0  0  0  0  0  0  0
   -2.7270   22.4290  -29.8550 C   0  0  0  0  0  0  0  0  0  0  0  0
   -3.5390   21.4840  -30.5080 C   0  0  0  0  0  0  0  0  0  0  0  0
   -4.6710   21.8810  -31.2280 C   0  0  0  0  0  0  0  0  0  0  0  0
   -5.5070   20.8980  -31.8630 N   0  0  0  0  0  0  0  0  0  0  0  0
   -5.1640   19.9720  -32.8060 C   0  0  0  0  0  0  0  0  0  0  0  0
   -3.7840   19.7000  -33.2650 C   0  0  0  0  0  0  0  0  0  0  0  0
   -3.3230   18.3850  -33.4450 C   0  0  0  0  0  0  0  0  0  0  0  0
   -2.0140   18.1470  -33.8760 C   0  0  0  0  0  0  0  0  0  0  0  0
   -1.1600   19.2190  -34.1450 C   0  0  0  0  0  0  0  0  0  0  0  0
   -1.6170   20.5310  -33.9900 C   0  0  0  0  0  0  0  0  0  0  0  0
   -2.9240   20.7720  -33.5590 C   0  0  0  0  0  0  0  0  0  0  0  0
   -6.2320   19.2850  -33.2950 N   0  0  0  0  0  0  0  0  0  0  0  0
   -7.2670   19.8110  -32.6170 C   0  0  0  0  0  0  0  0  0  0  0  0
   -8.6160   19.5020  -32.7380 C   0  0  0  0  0  0  0  0  0  0  0  0
   -9.5080   20.2040  -31.9790 N   0  0  0  0  0  0  0  0  0  0  0  0
   -9.1070   21.1940  -31.1180 C   0  0  0  0  0  0  0  0  0  0  0  0
   -7.7440   21.5190  -30.9920 C   0  0  0  0  0  0  0  0  0  0  0  0
   -6.8430   20.7790  -31.7600 C   0  0  0  0  0  0  0  0  0  0  0  0
   -4.9930   23.2370  -31.3100 C   0  0  0  0  0  0  0  0  0  0  0  0
   -4.1900   24.2030  -30.6790 C   0  0  0  0  0  0  0  0  0  0  0  0
   -4.4880   25.5730  -30.7510 O   0  0  0  0  0  0  0  0  0  0  0  0
   -5.7310   26.1530  -30.3660 C   0  0  0  0  0  0  0  0  0  0  0  0
   -3.0560   23.8060  -29.9480 C   0  0  0  0  0  0  0  0  0  0  0  0
   -2.3070   24.8320  -29.3410 O   0  0  0  0  0  0  0  0  0  0  0  0
   -1.9200   24.9040  -27.9730 C   0  0  0  0  0  0  0  0  0  0  0  0
   -1.5967   21.3529  -27.1562 H   0  0  0  0  0  0  0  0  0  0  0  0
   -2.4804   20.3184  -28.3290 H   0  0  0  0  0  0  0  0  0  0  0  0
   -0.6843   20.3435  -28.3290 H   0  0  0  0  0  0  0  0  0  0  0  0
   -3.2800   20.4164  -30.4517 H   0  0  0  0  0  0  0  0  0  0  0  0
   -3.9956   17.5377  -33.2458 H   0  0  0  0  0  0  0  0  0  0  0  0
   -1.6566   17.1145  -34.0033 H   0  0  0  0  0  0  0  0  0  0  0  0
   -0.1288   19.0310  -34.4785 H   0  0  0  0  0  0  0  0  0  0  0  0
   -0.9463   21.3752  -34.2078 H   0  0  0  0  0  0  0  0  0  0  0  0
   -3.2818   21.8064  -33.4492 H   0  0  0  0  0  0  0  0  0  0  0  0
   -8.9561   18.7139  -33.4260 H   0  0  0  0  0  0  0  0  0  0  0  0
   -9.8558   21.7370  -30.5226 H   0  0  0  0  0  0  0  0  0  0  0  0
   -7.4036   22.3197  -30.3190 H   0  0  0  0  0  0  0  0  0  0  0  0
   -5.8834   23.5524  -31.8736 H   0  0  0  0  0  0  0  0  0  0  0  0
   -5.7969   26.1838  -29.2684 H   0  0  0  0  0  0  0  0  0  0  0  0
   -5.7981   27.1754  -30.7662 H   0  0  0  0  0  0  0  0  0  0  0  0
   -6.5577   25.5476  -30.7662 H   0  0  0  0  0  0  0  0  0  0  0  0
   -2.8002   24.7403  -27.3338 H   0  0  0  0  0  0  0  0  0  0  0  0
   -1.1661   24.1307  -27.7640 H   0  0  0  0  0  0  0  0  0  0  0  0
   -1.4947   25.8967  -27.7640 H   0  0  0  0  0  0  0  0  0  0  0  0
  1  2  1  0
  2  3  1  0
  3  4  2  0
  4  5  1  0
  5  6  1  0
  6  7  1  0
  7  8  1  0
  8  9  2  0
  9 10  1  0
 10 11  2  0
 11 12  1  0
 12 13  2  0
  7 14  2  0
 14 15  1  0
 15 16  2  0
 16 17  1  0
 17 18  2  0
 18 19  1  0
 19 20  2  0
  5 21  2  0
 21 22  1  0
 22 23  1  0
 23 24  1  0
 22 25  2  0
 25 26  1  0
 26 27  1  0
 25  3  1  0
 20  6  1  0
 13  8  1  0
 20 15  1  0
  1 28  1  0
  1 29  1  0
  1 30  1  0
  4 31  1  0
  9 32  1  0
 10 33  1  0
 11 34  1  0
 12 35  1  0
 13 36  1  0
 16 37  1  0
 18 38  1  0
 19 39  1  0
 21 40  1  0
 24 41  1  0
 24 42  1  0
 24 43  1  0
 27 44  1  0
 27 45  1  0
 27 46  1  0
M  END
>  <UniqueID>  (2) 
2

>  <SMILES>  (2) 
COc1cc(-n2c(-c3ccccc3)nc3cnccc32)cc(OC)c1OC

>  <Energy>  (2) 
99.98525987230764

>  <Genealogy>  (2) 
COc1cc(-n2c(-c3ccccc3)nc3cnccc32)cc(OC)c1OC (3D coordinates assigned)
COc1cc(-n2c(-c3ccccc3)nc3cnccc32)cc(OC)c1OC (optimized conformer: 99.98525987230764 kcal/mol)

>  <smiles>  (2) 
COc1cc(-n2c(-c3ccccc3)nc3cnccc32)cc(OC)c1OC

>  <score_type>  (2) 
oracle

>  <origin>  (2) 
adg

>  <m_score__min__energy>  (2) 
-8.3300000000000001

>  <m_primary>  (2) 
energy

$$$$
2:0
     RDKit          3D

 46 48  0  0  0  0  0  0  0  0999 V2000
   -6.1080   26.0400  -29.7110 C   0  0  0  0  0  0  0  0  0  0  0  0
   -5.7820   25.4020  -30.9410 O   0  0  0  0  0  0  0  0  0  0  0  0
   -5.8630   24.0180  -31.1670 C   0  0  0  0  0  0  0  0  0  0  0  0
   -7.0790   23.3800  -31.4680 C   0  0  0  0  0  0  0  0  0  0  0  0
   -7.1270   21.9950  -31.6840 C   0  0  0  0  0  0  0  0  0  0  0  0
   -8.3350   21.3810  -32.0250 C   0  0  0  0  0  0  0  0  0  0  0  0
   -8.3990   20.0030  -32.2830 C   0  0  0  0  0  0  0  0  0  0  0  0
   -9.7200   19.4170  -32.7180 C   0  0  0  0  0  0  0  0  0  0  0  0
   -7.2250   19.2140  -32.1690 C   0  0  0  0  0  0  0  0  0  0  0  0
   -7.2370   17.7220  -32.4590 C   0  0  0  0  0  0  0  0  0  0  0  0
   -6.1270   17.3120  -33.3990 C   0  0  0  0  0  0  0  0  0  0  0  0
   -5.8230   18.0780  -34.5400 C   0  0  0  0  0  0  0  0  0  0  0  0
   -4.7840   17.6940  -35.3910 C   0  0  0  0  0  0  0  0  0  0  0  0
   -4.0290   16.5540  -35.1080 C   0  0  0  0  0  0  0  0  0  0  0  0
   -4.3110   15.7950  -33.9690 C   0  0  0  0  0  0  0  0  0  0  0  0
   -5.3510   16.1750  -33.1140 C   0  0  0  0  0  0  0  0  0  0  0  0
   -6.0130   19.8250  -31.7690 C   0  0  0  0  0  0  0  0  0  0  0  0
   -4.8760   19.0270  -31.5850 O   0  0  0  0  0  0  0  0  0  0  0  0
   -3.7030   19.1940  -32.3780 C   0  0  0  0  0  0  0  0  0  0  0  0
   -5.9500   21.2240  -31.5760 C   0  0  0  0  0  0  0  0  0  0  0  0
   -4.7310   21.8730  -31.3100 C   0  0  0  0  0  0  0  0  0  0  0  0
   -4.6840   23.2630  -31.0960 C   0  0  0  0  0  0  0  0  0  0  0  0
   -3.4830   23.9340  -30.8130 O   0  0  0  0  0  0  0  0  0  0  0  0
   -2.5710   23.5630  -29.7850 C   0  0  0  0  0  0  0  0  0  0  0  0
   -5.7842   25.4063  -28.8722 H   0  0  0  0  0  0  0  0  0  0  0  0
   -5.5961   27.0120  -29.6552 H   0  0  0  0  0  0  0  0  0  0  0  0
   -7.1956   26.1947  -29.6552 H   0  0  0  0  0  0  0  0  0  0  0  0
   -8.0028   23.9734  -31.5348 H   0  0  0  0  0  0  0  0  0  0  0  0
   -9.2503   21.9874  -32.0923 H   0  0  0  0  0  0  0  0  0  0  0  0
  -10.3142   19.1534  -31.8306 H   0  0  0  0  0  0  0  0  0  0  0  0
  -10.2685   20.1562  -33.3202 H   0  0  0  0  0  0  0  0  0  0  0  0
   -9.5401   18.5142  -33.3202 H   0  0  0  0  0  0  0  0  0  0  0  0
   -7.1177   17.1764  -31.5113 H   0  0  0  0  0  0  0  0  0  0  0  0
   -8.1947   17.4808  -32.9434 H   0  0  0  0  0  0  0  0  0  0  0  0
   -6.4065   18.9835  -34.7627 H   0  0  0  0  0  0  0  0  0  0  0  0
   -4.5599   18.2916  -36.2869 H   0  0  0  0  0  0  0  0  0  0  0  0
   -3.2127   16.2535  -35.7813 H   0  0  0  0  0  0  0  0  0  0  0  0
   -3.7148   14.8982  -33.7446 H   0  0  0  0  0  0  0  0  0  0  0  0
   -5.5629   15.5804  -32.2131 H   0  0  0  0  0  0  0  0  0  0  0  0
   -2.8302   19.3183  -31.7201 H   0  0  0  0  0  0  0  0  0  0  0  0
   -3.5603   18.3071  -33.0129 H   0  0  0  0  0  0  0  0  0  0  0  0
   -3.8135   20.0855  -33.0129 H   0  0  0  0  0  0  0  0  0  0  0  0
   -3.8016   21.2860  -31.2687 H   0  0  0  0  0  0  0  0  0  0  0  0
   -3.0299   23.7497  -28.8029 H   0  0  0  0  0  0  0  0  0  0  0  0
   -2.3276   22.4944  -29.8789 H   0  0  0  0  0  0  0  0  0  0  0  0
   -1.6508   24.1583  -29.8789 H   0  0  0  0  0  0  0  0  0  0  0  0
  1  2  1  0
  2  3  1  0
  3  4  2  0
  4  5  1  0
  5  6  2  0
  6  7  1  0
  7  8  1  0
  7  9  2  0
  9 10  1  0
 10 11  1  0
 11 12  2  0
 12 13  1  0
 13 14  2  0
 14 15  1  0
 15 16  2  0
  9 17  1  0
 17 18  1  0
 18 19  1  0
 17 20  2  0
 20 21  1  0
 21 22  2  0
 22 23  1  0
 23 24  1  0
 22  3  1  0
 20  5  1  0
 16 11  1  0
  1 25  1  0
  1 26  1  0
  1 27  1  0
  4 28  1  0
  6 29  1  0
  8 30  1  0
  8 31  1  0
  8 32  1  0
 10 33  1  0
 10 34  1  0
 12 35  1  0
 13 36  1  0
 14 37  1  0
 15 38  1  0
 16 39  1  0
 19 40  1  0
 19 41  1  0
 19 42  1  0
 21 43  1  0
 24 44  1  0
 24 45  1  0
 24 46  1  0
M  END
>  <UniqueID>  (3) 
3

>  <SMILES>  (3) 
COc1cc2cc(C)c(Cc3ccccc3)c(OC)c2cc1OC

>  <Energy>  (3) 
58.951662558442976

>  <Genealogy>  (3) 
COc1cc2cc(C)c(Cc3ccccc3)c(OC)c2cc1OC (3D coordinates assigned)
COc1cc2cc(C)c(Cc3ccccc3)c(OC)c2cc1OC (optimized conformer: 58.951662558442976 kcal/mol)

>  <smiles>  (3) 
COc1cc2cc(C)c(Cc3ccccc3)c(OC)c2cc1OC

>  <score_type>  (3) 
oracle

>  <origin>  (3) 
adg

>  <m_score__min__energy>  (3) 
-7.9199999999999999

>  <m_primary>  (3) 
energy

$$$$
3:0
     RDKit          3D

 43 46  0  0  0  0  0  0  0  0999 V2000
   -3.9700   15.4180  -32.7420 C   0  0  0  0  0  0  0  0  0  0  0  0
   -5.0870   14.6940  -33.4430 C   0  0  0  0  0  0  0  0  0  0  0  0
   -5.0390   13.2950  -33.5400 C   0  0  0  0  0  0  0  0  0  0  0  0
   -6.0750   12.5970  -34.1560 C   0  0  0  0  0  0  0  0  0  0  0  0
   -7.1570   13.3000  -34.6760 C   0  0  0  0  0  0  0  0  0  0  0  0
   -7.1970   14.6570  -34.5940 N   0  0  0  0  0  0  0  0  0  0  0  0
   -6.1930   15.3780  -34.0070 C   0  0  0  0  0  0  0  0  0  0  0  0
   -6.2850   16.8140  -33.9750 N   0  0  0  0  0  0  0  0  0  0  0  0
   -6.9080   17.5580  -33.0420 C   0  0  0  0  0  0  0  0  0  0  0  0
   -6.7840   18.8740  -33.4470 C   0  0  0  0  0  0  0  0  0  0  0  0
   -7.2930   20.0880  -32.7630 C   0  0  0  0  0  0  0  0  0  0  0  0
   -8.6660   20.3010  -32.5870 C   0  0  0  0  0  0  0  0  0  0  0  0
   -9.1070   21.4210  -31.9630 N   0  0  0  0  0  0  0  0  0  0  0  0
   -8.2590   22.3670  -31.4870 C   0  0  0  0  0  0  0  0  0  0  0  0
   -6.8600   22.2180  -31.6200 C   0  0  0  0  0  0  0  0  0  0  0  0
   -5.9340   23.2270  -31.1090 N   0  0  0  0  0  0  0  0  0  0  0  0
   -4.4970   22.8970  -30.9880 C   0  0  0  0  0  0  0  0  0  0  0  0
   -3.6620   24.0180  -30.3640 C   0  0  0  0  0  0  0  0  0  0  0  0
   -4.0980   25.2790  -30.8110 O   0  0  0  0  0  0  0  0  0  0  0  0
   -5.3690   25.5290  -30.2590 C   0  0  0  0  0  0  0  0  0  0  0  0
   -6.4230   24.6010  -30.8660 C   0  0  0  0  0  0  0  0  0  0  0  0
   -6.3980   21.0550  -32.2770 C   0  0  0  0  0  0  0  0  0  0  0  0
   -6.1020   18.8860  -34.6120 N   0  0  0  0  0  0  0  0  0  0  0  0
   -5.8180   17.6270  -34.9090 N   0  0  0  0  0  0  0  0  0  0  0  0
   -4.1033   15.3316  -31.6535 H   0  0  0  0  0  0  0  0  0  0  0  0
   -3.0065   14.9722  -33.0300 H   0  0  0  0  0  0  0  0  0  0  0  0
   -3.9835   16.4796  -33.0300 H   0  0  0  0  0  0  0  0  0  0  0  0
   -4.1791   12.7469  -33.1276 H   0  0  0  0  0  0  0  0  0  0  0  0
   -6.0380   11.5002  -34.2306 H   0  0  0  0  0  0  0  0  0  0  0  0
   -7.9839   12.7559  -35.1557 H   0  0  0  0  0  0  0  0  0  0  0  0
   -8.0130   15.1500  -35.0190 H   0  0  0  0  0  0  0  0  0  0  0  0
   -7.4150   17.1916  -32.1372 H   0  0  0  0  0  0  0  0  0  0  0  0
   -9.3883   19.5579  -32.9559 H   0  0  0  0  0  0  0  0  0  0  0  0
   -8.6654   23.2610  -30.9914 H   0  0  0  0  0  0  0  0  0  0  0  0
   -4.3979   21.9989  -30.3606 H   0  0  0  0  0  0  0  0  0  0  0  0
   -4.1150   22.7390  -32.0074 H   0  0  0  0  0  0  0  0  0  0  0  0
   -3.7578   23.9714  -29.2692 H   0  0  0  0  0  0  0  0  0  0  0  0
   -2.6126   23.8828  -30.6646 H   0  0  0  0  0  0  0  0  0  0  0  0
   -5.3278   25.3643  -29.1722 H   0  0  0  0  0  0  0  0  0  0  0  0
   -5.6488   26.5694  -30.4809 H   0  0  0  0  0  0  0  0  0  0  0  0
   -7.2784   24.5486  -30.1764 H   0  0  0  0  0  0  0  0  0  0  0  0
   -6.6984   25.0225  -31.8440 H   0  0  0  0  0  0  0  0  0  0  0  0
   -5.3165   20.9044  -32.4102 H   0  0  0  0  0  0  0  0  0  0  0  0
  1  2  1  0
  2  3  2  0
  3  4  1  0
  4  5  2  0
  5  6  1  0
  6  7  2  0
  7  8  1  0
  8  9  1  0
  9 10  2  0
 10 11  1  0
 11 12  2  0
 12 13  1  0
 13 14  2  0
 14 15  1  0
 15 16  1  0
 16 17  1  0
 17 18  1  0
 18 19  1  0
 19 20  1  0
 20 21  1  0
 15 22  2  0
 10 23  1  0
 23 24  2  0
  7  2  1  0
 24  8  1  0
 22 11  1  0
 21 16  1  0
  1 25  1  0
  1 26  1  0
  1 27  1  0
  3 28  1  0
  4 29  1  0
  5 30  1  0
  6 31  1  0
  9 32  1  0
 12 33  1  0
 14 34  1  0
 17 35  1  0
 17 36  1  0
 18 37  1  0
 18 38  1  0
 20 39  1  0
 20 40  1  0
 21 41  1  0
 21 42  1  0
 22 43  1  0
M  CHG  1   6   1
M  END
>  <UniqueID>  (4) 
4

>  <SMILES>  (4) 
Cc1ccc[nH+]c1-n1cc(-c2cncc(N3CCOCC3)c2)nn1

>  <Energy>  (4) 
96.04295739296816

>  <Genealogy>  (4) 
Cc1ccc[nH+]c1-n1cc(-c2cncc(N3CCOCC3)c2)nn1 (protonated)
Cc1ccc[nH+]c1-n1cc(-c2cncc(N3CCOCC3)c2)nn1 (3D coordinates assigned)
Cc1ccc[nH+]c1-n1cc(-c2cncc(N3CCOCC3)c2)nn1 (nonaromatic ring conformer: 96.04295739296816 kcal/mol)

>  <smiles>  (4) 
Cc1cccnc1-n1cc(-c2cncc(N3CCOCC3)c2)nn1

>  <score_type>  (4) 
oracle

>  <origin>  (4) 
adg

>  <m_score__min__energy>  (4) 
-8.5

>  <m_primary>  (4) 
energy

$$$$
4:0
     RDKit          3D

 32 33  0  0  0  0  0  0  0  0999 V2000
   -3.6420   24.4400  -29.0620 C   0  0  0  0  0  0  0  0  0  0  0  0
   -3.8870   24.5040  -30.4630 O   0  0  0  0  0  0  0  0  0  0  0  0
   -4.6110   23.5440  -31.1840 C   0  0  0  0  0  0  0  0  0  0  0  0
   -5.9990   23.6470  -31.4000 C   0  0  0  0  0  0  0  0  0  0  0  0
   -6.6740   22.6630  -32.1270 C   0  0  0  0  0  0  0  0  0  0  0  0
   -5.9790   21.5610  -32.6490 C   0  0  0  0  0  0  0  0  0  0  0  0
   -6.7010   20.5200  -33.4610 C   0  0  0  0  0  0  0  0  0  0  0  0
   -7.4310   19.5560  -32.5650 C   0  0  0  0  0  0  0  0  0  0  0  0
   -6.9990   18.3140  -32.1170 C   0  0  0  0  0  0  0  0  0  0  0  0
   -5.7000   17.6450  -32.4340 C   0  0  0  0  0  0  0  0  0  0  0  0
   -7.8920   17.8100  -31.2420 N   0  0  0  0  0  0  0  0  0  0  0  0
   -8.8840   18.6800  -31.1310 N   0  0  0  0  0  0  0  0  0  0  0  0
   -8.6430   19.7440  -31.9180 C   0  0  0  0  0  0  0  0  0  0  0  0
   -9.5140   20.9590  -31.9580 C   0  0  0  0  0  0  0  0  0  0  0  0
   -4.5970   21.4580  -32.4310 C   0  0  0  0  0  0  0  0  0  0  0  0
   -3.9210   22.4430  -31.7040 C   0  0  0  0  0  0  0  0  0  0  0  0
   -4.5663   24.6815  -28.5167 H   0  0  0  0  0  0  0  0  0  0  0  0
   -3.3122   23.4256  -28.7934 H   0  0  0  0  0  0  0  0  0  0  0  0
   -2.8582   25.1635  -28.7934 H   0  0  0  0  0  0  0  0  0  0  0  0
   -6.5540   24.5058  -30.9946 H   0  0  0  0  0  0  0  0  0  0  0  0
   -7.7579   22.7527  -32.2914 H   0  0  0  0  0  0  0  0  0  0  0  0
   -7.4257   21.0172  -34.1225 H   0  0  0  0  0  0  0  0  0  0  0  0
   -5.9627   19.9605  -34.0542 H   0  0  0  0  0  0  0  0  0  0  0  0
   -5.1860   17.3803  -31.4982 H   0  0  0  0  0  0  0  0  0  0  0  0
   -5.8904   16.7328  -33.0185 H   0  0  0  0  0  0  0  0  0  0  0  0
   -5.0680   18.3297  -33.0185 H   0  0  0  0  0  0  0  0  0  0  0  0
   -9.7080   18.5480  -30.5040 H   0  0  0  0  0  0  0  0  0  0  0  0
   -9.7437   21.2794  -30.9311 H   0  0  0  0  0  0  0  0  0  0  0  0
   -8.9895   21.7689  -32.4862 H   0  0  0  0  0  0  0  0  0  0  0  0
  -10.4494   20.7223  -32.4862 H   0  0  0  0  0  0  0  0  0  0  0  0
   -4.0422   20.5979  -32.8340 H   0  0  0  0  0  0  0  0  0  0  0  0
   -2.8372   22.3516  -31.5394 H   0  0  0  0  0  0  0  0  0  0  0  0
  1  2  1  0
  2  3  1  0
  3  4  2  0
  4  5  1  0
  5  6  2  0
  6  7  1  0
  7  8  1  0
  8  9  1  0
  9 10  1  0
  9 11  2  0
 11 12  1  0
 12 13  1  0
 13 14  1  0
  6 15  1  0
 15 16  2  0
 16  3  1  0
 13  8  2  0
  1 17  1  0
  1 18  1  0
  1 19  1  0
  4 20  1  0
  5 21  1  0
  7 22  1  0
  7 23  1  0
 10 24  1  0
 10 25  1  0
 10 26  1  0
 12 27  1  0
 14 28  1  0
 14 29  1  0
 14 30  1  0
 15 31  1  0
 16 32  1  0
M  END
>  <UniqueID>  (5) 
5

>  <SMILES>  (5) 
COc1ccc(Cc2c(C)n[nH]c2C)cc1

>  <Energy>  (5) 
57.06653963940985

>  <Genealogy>  (5) 
COc1ccc(Cc2c(C)n[nH]c2C)cc1 (3D coordinates assigned)
COc1ccc(Cc2c(C)n[nH]c2C)cc1 (optimized conformer: 57.06653963940985 kcal/mol)

>  <smiles>  (5) 
COc1ccc(Cc2c(C)n[nH]c2C)cc1

>  <score_type>  (5) 
oracle

>  <origin>  (5) 
adg

>  <m_score__min__energy>  (5) 
-6.6600000000000001

>  <m_primary>  (5) 
energy

$$$$
5:0
     RDKit          3D

 41 41  0  0  0  0  0  0  0  0999 V2000
   -8.6610   21.9300  -30.8500 C   0  0  0  0  0  0  0  0  0  0  0  0
   -8.5770   23.0100  -31.9230 C   0  0  0  0  0  0  0  0  0  0  0  0
   -7.1320   23.4030  -32.3190 C   0  0  0  0  0  0  0  0  0  0  0  0
   -6.0230   22.7690  -31.5510 N   0  0  0  0  0  0  0  0  0  0  0  0
   -5.5160   23.5510  -30.3980 C   0  0  0  0  0  0  0  0  0  0  0  0
   -5.7400   25.0630  -30.5680 C   0  0  0  0  0  0  0  0  0  0  0  0
   -6.5210   25.6670  -29.4040 C   0  0  0  0  0  0  0  0  0  0  0  0
   -4.9320   22.2480  -32.4080 C   0  0  0  0  0  0  0  0  0  0  0  0
   -5.1650   20.7830  -32.8550 C   0  0  0  0  0  0  0  0  0  0  0  0
   -6.3130   20.0570  -32.2480 N   0  0  0  0  0  0  0  0  0  0  0  0
   -5.9630   18.7500  -31.6770 C   0  0  0  0  0  0  0  0  0  0  0  0
   -7.2550   17.9410  -31.6020 C   0  0  0  0  0  0  0  0  0  0  0  0
   -8.2740   18.7110  -32.4320 C   0  0  0  0  0  0  0  0  0  0  0  0
   -7.4800   19.8180  -33.1060 C   0  0  0  0  0  0  0  0  0  0  0  0
   -8.6246   22.3979  -29.8552 H   0  0  0  0  0  0  0  0  0  0  0  0
   -9.6049   21.3761  -30.9604 H   0  0  0  0  0  0  0  0  0  0  0  0
   -7.8141   21.2368  -30.9604 H   0  0  0  0  0  0  0  0  0  0  0  0
   -9.0931   22.6431  -32.8224 H   0  0  0  0  0  0  0  0  0  0  0  0
   -9.0444   23.9116  -31.5002 H   0  0  0  0  0  0  0  0  0  0  0  0
   -6.9950   23.1394  -33.3781 H   0  0  0  0  0  0  0  0  0  0  0  0
   -7.0568   24.4772  -32.0946 H   0  0  0  0  0  0  0  0  0  0  0  0
   -6.0373   23.2172  -29.4887 H   0  0  0  0  0  0  0  0  0  0  0  0
   -4.4317   23.3794  -30.3285 H   0  0  0  0  0  0  0  0  0  0  0  0
   -4.7611   25.5605  -30.6333 H   0  0  0  0  0  0  0  0  0  0  0  0
   -6.3297   25.2151  -31.4840 H   0  0  0  0  0  0  0  0  0  0  0  0
   -6.0830   25.3283  -28.4535 H   0  0  0  0  0  0  0  0  0  0  0  0
   -6.4720   26.7645  -29.4598 H   0  0  0  0  0  0  0  0  0  0  0  0
   -7.5709   25.3436  -29.4598 H   0  0  0  0  0  0  0  0  0  0  0  0
   -4.8570   22.8810  -33.3045 H   0  0  0  0  0  0  0  0  0  0  0  0
   -4.0064   22.2690  -31.8140 H   0  0  0  0  0  0  0  0  0  0  0  0
   -5.3180   20.7906  -33.9443 H   0  0  0  0  0  0  0  0  0  0  0  0
   -4.2735   20.2383  -32.5106 H   0  0  0  0  0  0  0  0  0  0  0  0
   -6.6460   20.6470  -31.4460 H   0  0  0  0  0  0  0  0  0  0  0  0
   -5.2329   18.2385  -32.3214 H   0  0  0  0  0  0  0  0  0  0  0  0
   -5.5099   18.8631  -30.6811 H   0  0  0  0  0  0  0  0  0  0  0  0
   -7.1021   16.9350  -32.0197 H   0  0  0  0  0  0  0  0  0  0  0  0
   -7.5928   17.8119  -30.5631 H   0  0  0  0  0  0  0  0  0  0  0  0
   -8.7354   18.0539  -33.1839 H   0  0  0  0  0  0  0  0  0  0  0  0
   -9.0930   19.1084  -31.8144 H   0  0  0  0  0  0  0  0  0  0  0  0
   -7.1587   19.5017  -34.1094 H   0  0  0  0  0  0  0  0  0  0  0  0
   -8.0833   20.7294  -33.2297 H   0  0  0  0  0  0  0  0  0  0  0  0
  1  2  1  0
  2  3  1  0
  3  4  1  0
  4  5  1  0
  5  6  1  0
  6  7  1  0
  4  8  1  0
  8  9  1  0
  9 10  1  0
 10 11  1  0
 11 12  1  0
 12 13  1  0
 13 14  1  0
 14 10  1  0
  1 15  1  0
  1 16  1  0
  1 17  1  0
  2 18  1  0
  2 19  1  0
  3 20  1  0
  3 21  1  0
  5 22  1  0
  5 23  1  0
  6 24  1  0
  6 25  1  0
  7 26  1  0
  7 27  1  0
  7 28  1  0
  8 29  1  0
  8 30  1  0
  9 31  1  0
  9 32  1  0
 10 33  1  0
 11 34  1  0
 11 35  1  0
 12 36  1  0
 12 37  1  0
 13 38  1  0
 13 39  1  0
 14 40  1  0
 14 41  1  0
M  CHG  1  10   1
M  END
>  <UniqueID>  (6) 
6

>  <SMILES>  (6) 
CCCN(CCC)CC[NH+]1CCCC1

>  <Energy>  (6) 
46.804444685402586

>  <Genealogy>  (6) 
CCCN(CCC)CC[NH+]1CCCC1 (protonated)
CCCN(CCC)CC[NH+]1CCCC1 (3D coordinates assigned)
CCCN(CCC)CC[NH+]1CCCC1 (nonaromatic ring conformer: 46.804444685402586 kcal/mol)

>  <smiles>  (6) 
CCCN(CCC)CCN1CCCC1

>  <score_type>  (6) 
oracle

>  <origin>  (6) 
adg

>  <m_score__min__energy>  (6) 
-4.2199999999999998

>  <m_primary>  (6) 
energy

$$$$
6:0
     RDKit          3D

 37 38  0  0  0  0  0  0  0  0999 V2000
   -6.9120   23.7890  -31.5500 C   0  0  0  0  0  0  0  0  0  0  0  0
   -7.7080   22.5420  -31.8050 C   0  0  0  0  0  0  0  0  0  0  0  0
   -9.1090   22.5800  -31.7670 C   0  0  0  0  0  0  0  0  0  0  0  0
   -9.8470   21.4130  -31.9690 C   0  0  0  0  0  0  0  0  0  0  0  0
   -9.1960   20.1980  -32.1970 C   0  0  0  0  0  0  0  0  0  0  0  0
   -7.7900   20.1370  -32.2190 C   0  0  0  0  0  0  0  0  0  0  0  0
   -7.0730   18.8600  -32.4500 C   0  0  0  0  0  0  0  0  0  0  0  0
   -6.6900   18.3900  -33.6570 N   0  0  0  0  0  0  0  0  0  0  0  0
   -6.0800   17.2230  -33.3860 C   0  0  0  0  0  0  0  0  0  0  0  0
   -5.4660   16.3120  -34.4220 C   0  0  0  0  0  0  0  0  0  0  0  0
   -3.9750   16.2630  -34.3800 N   0  0  0  0  0  0  0  0  0  0  0  0
   -3.5040   15.2940  -33.3610 C   0  0  0  0  0  0  0  0  0  0  0  0
   -3.4040   17.6020  -34.0940 C   0  0  0  0  0  0  0  0  0  0  0  0
   -3.4880   15.8190  -35.7090 C   0  0  0  0  0  0  0  0  0  0  0  0
   -6.1130   17.0140  -32.0250 C   0  0  0  0  0  0  0  0  0  0  0  0
   -6.7280   18.0380  -31.4800 O   0  0  0  0  0  0  0  0  0  0  0  0
   -7.0540   21.3180  -32.0160 C   0  0  0  0  0  0  0  0  0  0  0  0
   -6.8124   23.9451  -30.4657 H   0  0  0  0  0  0  0  0  0  0  0  0
   -5.9131   23.6846  -31.9987 H   0  0  0  0  0  0  0  0  0  0  0  0
   -7.4272   24.6511  -31.9987 H   0  0  0  0  0  0  0  0  0  0  0  0
   -9.6274   23.5315  -31.5776 H   0  0  0  0  0  0  0  0  0  0  0  0
  -10.9462   21.4499  -31.9486 H   0  0  0  0  0  0  0  0  0  0  0  0
   -9.7857   19.2839  -32.3602 H   0  0  0  0  0  0  0  0  0  0  0  0
   -6.8270   18.8160  -34.6000 H   0  0  0  0  0  0  0  0  0  0  0  0
   -5.8503   15.2943  -34.2590 H   0  0  0  0  0  0  0  0  0  0  0  0
   -5.7435   16.7169  -35.4064 H   0  0  0  0  0  0  0  0  0  0  0  0
   -3.6991   15.6953  -32.3556 H   0  0  0  0  0  0  0  0  0  0  0  0
   -4.0396   14.3413  -33.4858 H   0  0  0  0  0  0  0  0  0  0  0  0
   -2.4240   15.1266  -33.4858 H   0  0  0  0  0  0  0  0  0  0  0  0
   -3.3413   17.7490  -33.0057 H   0  0  0  0  0  0  0  0  0  0  0  0
   -2.3975   17.6726  -34.5321 H   0  0  0  0  0  0  0  0  0  0  0  0
   -4.0498   18.3772  -34.5321 H   0  0  0  0  0  0  0  0  0  0  0  0
   -2.6810   15.0833  -35.5768 H   0  0  0  0  0  0  0  0  0  0  0  0
   -4.3160   15.3585  -36.2679 H   0  0  0  0  0  0  0  0  0  0  0  0
   -3.1058   16.6860  -36.2679 H   0  0  0  0  0  0  0  0  0  0  0  0
   -5.6989   16.1460  -31.4911 H   0  0  0  0  0  0  0  0  0  0  0  0
   -5.9546   21.2822  -32.0226 H   0  0  0  0  0  0  0  0  0  0  0  0
  1  2  1  0
  2  3  2  0
  3  4  1  0
  4  5  2  0
  5  6  1  0
  6  7  1  0
  7  8  2  0
  8  9  1  0
  9 10  1  0
 10 11  1  0
 11 12  1  0
 11 13  1  0
 11 14  1  0
  9 15  2  0
 15 16  1  0
  6 17  2  0
 17  2  1  0
 16  7  1  0
  1 18  1  0
  1 19  1  0
  1 20  1  0
  3 21  1  0
  4 22  1  0
  5 23  1  0
  8 24  1  0
 10 25  1  0
 10 26  1  0
 12 27  1  0
 12 28  1  0
 12 29  1  0
 13 30  1  0
 13 31  1  0
 13 32  1  0
 14 33  1  0
 14 34  1  0
 14 35  1  0
 15 36  1  0
 17 37  1  0
M  CHG  2   8   1  11   1
M  END
>  <UniqueID>  (7) 
7

>  <SMILES>  (7) 
Cc1cccc(-c2[nH+]c(C[N+](C)(C)C)co2)c1

>  <Energy>  (7) 
71.99885027211917

>  <Genealogy>  (7) 
Cc1cccc(-c2[nH+]c(C[N+](C)(C)C)co2)c1 (protonated)
Cc1cccc(-c2[nH+]c(C[N+](C)(C)C)co2)c1 (3D coordinates assigned)
Cc1cccc(-c2[nH+]c(C[N+](C)(C)C)co2)c1 (optimized conformer: 71.99885027211917 kcal/mol)

>  <smiles>  (7) 
Cc1cccc(-c2nc(C[N+](C)(C)C)co2)c1

>  <score_type>  (7) 
oracle

>  <origin>  (7) 
adg

>  <m_score__min__energy>  (7) 
-4.8600000000000003

>  <m_primary>  (7) 
energy

$$$$
7:0
     RDKit          3D

 50 53  0  0  0  0  0  0  0  0999 V2000
   -8.9050   22.3460  -31.7270 C   0  0  0  0  0  0  0  0  0  0  0  0
   -8.5820   20.9450  -31.9760 N   0  0  0  0  0  0  0  0  0  0  0  0
   -9.4460   19.9590  -31.7570 N   0  0  0  0  0  0  0  0  0  0  0  0
   -8.8670   18.7900  -32.1130 C   0  0  0  0  0  0  0  0  0  0  0  0
   -7.5980   19.0610  -32.5720 C   0  0  0  0  0  0  0  0  0  0  0  0
   -6.6170   18.2260  -33.0930 C   0  0  0  0  0  0  0  0  0  0  0  0
   -5.4170   18.8180  -33.5200 C   0  0  0  0  0  0  0  0  0  0  0  0
   -5.2280   20.2130  -33.4120 C   0  0  0  0  0  0  0  0  0  0  0  0
   -6.2400   21.0420  -32.8740 C   0  0  0  0  0  0  0  0  0  0  0  0
   -6.0270   22.4550  -32.7180 N   0  0  0  0  0  0  0  0  0  0  0  0
   -5.0270   23.0080  -31.7940 C   0  0  0  0  0  0  0  0  0  0  0  0
   -5.5580   24.2870  -31.1320 C   0  0  0  0  0  0  0  0  0  0  0  0
   -4.4470   24.9260  -30.2940 C   0  0  0  0  0  0  0  0  0  0  0  0
   -3.7520   23.9380  -29.4540 N   0  0  0  0  0  0  0  0  0  0  0  0
   -2.6830   24.4040  -28.6030 C   0  0  0  0  0  0  0  0  0  0  0  0
   -1.9870   25.3920  -28.9680 O   0  0  0  0  0  0  0  0  0  0  0  0
   -2.3530   23.7150  -27.3030 C   0  0  0  0  0  0  0  0  0  0  0  0
   -1.7120   22.3720  -27.5370 C   0  0  0  0  0  0  0  0  0  0  0  0
   -2.3620   21.1970  -27.1210 C   0  0  0  0  0  0  0  0  0  0  0  0
   -1.7550   19.9520  -27.3100 C   0  0  0  0  0  0  0  0  0  0  0  0
   -0.4930   19.8690  -27.9070 C   0  0  0  0  0  0  0  0  0  0  0  0
    0.2670   18.3060  -28.1410 Cl  0  0  0  0  0  0  0  0  0  0  0  0
    0.1640   21.0350  -28.3130 C   0  0  0  0  0  0  0  0  0  0  0  0
   -0.4390   22.2830  -28.1250 C   0  0  0  0  0  0  0  0  0  0  0  0
   -4.2620   22.5610  -29.3500 C   0  0  0  0  0  0  0  0  0  0  0  0
   -4.6170   21.9620  -30.7260 C   0  0  0  0  0  0  0  0  0  0  0  0
   -7.4340   20.4180  -32.4630 C   0  0  0  0  0  0  0  0  0  0  0  0
   -8.9464   22.5256  -30.6425 H   0  0  0  0  0  0  0  0  0  0  0  0
   -8.1309   22.9861  -32.1754 H   0  0  0  0  0  0  0  0  0  0  0  0
   -9.8812   22.5825  -32.1754 H   0  0  0  0  0  0  0  0  0  0  0  0
   -9.3302   17.7944  -32.0471 H   0  0  0  0  0  0  0  0  0  0  0  0
   -6.7746   17.1400  -33.1683 H   0  0  0  0  0  0  0  0  0  0  0  0
   -4.6184   18.1900  -33.9418 H   0  0  0  0  0  0  0  0  0  0  0  0
   -4.2820   20.6607  -33.7505 H   0  0  0  0  0  0  0  0  0  0  0  0
   -6.6380   23.0970  -33.2670 H   0  0  0  0  0  0  0  0  0  0  0  0
   -4.1282   23.2650  -32.3738 H   0  0  0  0  0  0  0  0  0  0  0  0
   -5.8842   24.9940  -31.9090 H   0  0  0  0  0  0  0  0  0  0  0  0
   -6.4102   24.0376  -30.4827 H   0  0  0  0  0  0  0  0  0  0  0  0
   -3.7164   25.3936  -30.9704 H   0  0  0  0  0  0  0  0  0  0  0  0
   -4.9087   25.6715  -29.6299 H   0  0  0  0  0  0  0  0  0  0  0  0
   -1.6591   24.3472  -26.7295 H   0  0  0  0  0  0  0  0  0  0  0  0
   -3.2897   23.5583  -26.7480 H   0  0  0  0  0  0  0  0  0  0  0  0
   -3.3518   21.2575  -26.6450 H   0  0  0  0  0  0  0  0  0  0  0  0
   -2.2712   19.0354  -26.9884 H   0  0  0  0  0  0  0  0  0  0  0  0
    1.1573   20.9705  -28.7813 H   0  0  0  0  0  0  0  0  0  0  0  0
    0.0852   23.1979  -28.4385 H   0  0  0  0  0  0  0  0  0  0  0  0
   -3.4912   21.9331  -28.8792 H   0  0  0  0  0  0  0  0  0  0  0  0
   -5.1820   22.5879  -28.7476 H   0  0  0  0  0  0  0  0  0  0  0  0
   -3.7390   21.4149  -31.0998 H   0  0  0  0  0  0  0  0  0  0  0  0
   -5.4920   21.3139  -30.5696 H   0  0  0  0  0  0  0  0  0  0  0  0
  1  2  1  0
  2  3  1  0
  3  4  2  0
  4  5  1  0
  5  6  2  0
  6  7  1  0
  7  8  2  0
  8  9  1  0
  9 10  1  0
 10 11  1  0
 11 12  1  0
 12 13  1  0
 13 14  1  0
 14 15  1  0
 15 16  2  0
 15 17  1  0
 17 18  1  0
 18 19  2  0
 19 20  1  0
 20 21  2  0
 21 22  1  0
 21 23  1  0
 23 24  2  0
 14 25  1  0
 25 26  1  0
  9 27  2  0
 27  2  1  0
 27  5  1  0
 26 11  1  0
 24 18  1  0
  1 28  1  0
  1 29  1  0
  1 30  1  0
  4 31  1  0
  6 32  1  0
  7 33  1  0
  8 34  1  0
 10 35  1  0
 11 36  1  0
 12 37  1  0
 12 38  1  0
 13 39  1  0
 13 40  1  0
 17 41  1  0
 17 42  1  0
 19 43  1  0
 20 44  1  0
 23 45  1  0
 24 46  1  0
 25 47  1  0
 25 48  1  0
 26 49  1  0
 26 50  1  0
M  END
>  <UniqueID>  (8) 
8

>  <SMILES>  (8) 
Cn1ncc2cccc(NC3CCN(C(=O)Cc4ccc(Cl)cc4)CC3)c21

>  <Energy>  (8) 
98.76728331621582

>  <Genealogy>  (8) 
Cn1ncc2cccc(NC3CCN(C(=O)Cc4ccc(Cl)cc4)CC3)c21 (3D coordinates assigned)
Cn1ncc2cccc(NC3CCN(C(=O)Cc4ccc(Cl)cc4)CC3)c21 (nonaromatic ring conformer: 98.76728331621582 kcal/mol)

>  <smiles>  (8) 
Cn1ncc2cccc(NC3CCN(C(=O)Cc4ccc(Cl)cc4)CC3)c21

>  <score_type>  (8) 
oracle

>  <origin>  (8) 
adg

>  <m_score__min__energy>  (8) 
-10.15

>  <m_primary>  (8) 
energy

$$$$
8:0
     RDKit          3D

 44 48  0  0  0  0  0  0  0  0999 V2000
   -0.6570   25.9290  -24.8780 F   0  0  0  0  0  0  0  0  0  0  0  0
   -1.4370   25.3900  -25.8460 C   0  0  0  0  0  0  0  0  0  0  0  0
   -2.8310   25.4530  -25.7360 C   0  0  0  0  0  0  0  0  0  0  0  0
   -3.6420   24.8970  -26.7310 C   0  0  0  0  0  0  0  0  0  0  0  0
   -3.0600   24.2770  -27.8430 C   0  0  0  0  0  0  0  0  0  0  0  0
   -3.8460   23.7360  -28.8120 N   0  0  0  0  0  0  0  0  0  0  0  0
   -3.3160   23.1250  -29.9060 C   0  0  0  0  0  0  0  0  0  0  0  0
   -4.1820   22.5750  -30.8970 N   0  0  0  0  0  0  0  0  0  0  0  0
   -5.0040   23.0540  -32.0220 C   0  0  0  0  0  0  0  0  0  0  0  0
   -5.5120   21.7000  -32.4400 C   0  0  0  0  0  0  0  0  0  0  0  0
   -7.0050   21.4730  -32.2820 C   0  0  0  0  0  0  0  0  0  0  0  0
   -7.8000   22.5090  -31.8910 N   0  0  0  0  0  0  0  0  0  0  0  0
   -9.1390   22.3660  -31.7250 C   0  0  0  0  0  0  0  0  0  0  0  0
   -9.7280   21.1280  -31.9630 C   0  0  0  0  0  0  0  0  0  0  0  0
   -8.9570   20.0930  -32.3820 N   0  0  0  0  0  0  0  0  0  0  0  0
   -7.6160   20.2280  -32.5730 C   0  0  0  0  0  0  0  0  0  0  0  0
   -6.8580   19.0590  -33.0630 C   0  0  0  0  0  0  0  0  0  0  0  0
   -6.0930   19.1660  -34.2360 C   0  0  0  0  0  0  0  0  0  0  0  0
   -5.3680   18.0670  -34.7070 C   0  0  0  0  0  0  0  0  0  0  0  0
   -5.3900   16.8590  -34.0030 C   0  0  0  0  0  0  0  0  0  0  0  0
   -6.1320   16.7520  -32.8230 C   0  0  0  0  0  0  0  0  0  0  0  0
   -6.8590   17.8480  -32.3490 C   0  0  0  0  0  0  0  0  0  0  0  0
   -4.6870   21.2420  -31.2710 C   0  0  0  0  0  0  0  0  0  0  0  0
   -1.9270   23.0410  -30.0570 C   0  0  0  0  0  0  0  0  0  0  0  0
   -1.0930   23.5870  -29.0780 C   0  0  0  0  0  0  0  0  0  0  0  0
   -1.6540   24.2130  -27.9570 C   0  0  0  0  0  0  0  0  0  0  0  0
   -0.8470   24.7710  -26.9550 C   0  0  0  0  0  0  0  0  0  0  0  0
   -3.2904   25.9415  -24.8640 H   0  0  0  0  0  0  0  0  0  0  0  0
   -4.7371   24.9470  -26.6396 H   0  0  0  0  0  0  0  0  0  0  0  0
   -5.8108   23.7291  -31.7006 H   0  0  0  0  0  0  0  0  0  0  0  0
   -4.4976   23.6570  -32.7901 H   0  0  0  0  0  0  0  0  0  0  0  0
   -5.4267   21.3071  -33.4639 H   0  0  0  0  0  0  0  0  0  0  0  0
   -9.7532   23.2207  -31.4053 H   0  0  0  0  0  0  0  0  0  0  0  0
  -10.8089   20.9896  -31.8128 H   0  0  0  0  0  0  0  0  0  0  0  0
   -6.0641   20.1180  -34.7863 H   0  0  0  0  0  0  0  0  0  0  0  0
   -4.7796   18.1528  -35.6325 H   0  0  0  0  0  0  0  0  0  0  0  0
   -4.8238   15.9934  -34.3774 H   0  0  0  0  0  0  0  0  0  0  0  0
   -6.1438   15.8034  -32.2663 H   0  0  0  0  0  0  0  0  0  0  0  0
   -7.4334   17.7626  -31.4148 H   0  0  0  0  0  0  0  0  0  0  0  0
   -5.2946   20.7814  -30.4782 H   0  0  0  0  0  0  0  0  0  0  0  0
   -3.9372   20.4609  -31.4651 H   0  0  0  0  0  0  0  0  0  0  0  0
   -1.4949   22.5484  -30.9405 H   0  0  0  0  0  0  0  0  0  0  0  0
   -0.0001   23.5256  -29.1869 H   0  0  0  0  0  0  0  0  0  0  0  0
    0.2486   24.7225  -27.0401 H   0  0  0  0  0  0  0  0  0  0  0  0
  1  2  1  0
  2  3  2  0
  3  4  1  0
  4  5  2  0
  5  6  1  0
  6  7  2  0
  7  8  1  0
  8  9  1  0
  9 10  1  0
 10 11  1  0
 11 12  2  0
 12 13  1  0
 13 14  2  0
 14 15  1  0
 15 16  2  0
 16 17  1  0
 17 18  2  0
 18 19  1  0
 19 20  2  0
 20 21  1  0
 21 22  2  0
 10 23  1  0
  7 24  1  0
 24 25  2  0
 25 26  1  0
 26 27  2  0
 27  2  1  0
 26  5  1  0
 23  8  1  0
 16 11  1  0
 22 17  1  0
  3 28  1  0
  4 29  1  0
  9 30  1  0
  9 31  1  0
 10 32  1  0
 13 33  1  0
 14 34  1  0
 18 35  1  0
 19 36  1  0
 20 37  1  0
 21 38  1  0
 22 39  1  0
 23 40  1  0
 23 41  1  0
 24 42  1  0
 25 43  1  0
 27 44  1  0
M  END
>  <UniqueID>  (9) 
9

>  <SMILES>  (9) 
Fc1ccc2nc(N3CC(c4nccnc4-c4ccccc4)C3)ccc2c1

>  <Energy>  (9) 
107.38933957931786

>  <Genealogy>  (9) 
Fc1ccc2nc(N3CC(c4nccnc4-c4ccccc4)C3)ccc2c1 (3D coordinates assigned)
Fc1ccc2nc(N3CC(c4nccnc4-c4ccccc4)C3)ccc2c1 (nonaromatic ring conformer: 107.38933957931786 kcal/mol)

>  <smiles>  (9) 
Fc1ccc2nc(N3CC(c4nccnc4-c4ccccc4)C3)ccc2c1

>  <score_type>  (9) 
oracle

>  <origin>  (9) 
adg

>  <m_score__min__energy>  (9) 
-8.6699999999999999

>  <m_primary>  (9) 
energy

$$$$
9:0
     RDKit          3D

 36 37  0  0  0  0  0  0  0  0999 V2000
   -1.0500   22.8230  -29.4630 C   0  0  0  0  0  0  0  0  0  0  0  0
   -1.8250   21.7780  -30.1440 N   0  0  0  0  0  0  0  0  0  0  0  0
   -1.5740   20.3650  -29.8390 C   0  0  0  0  0  0  0  0  0  0  0  0
   -2.8560   22.1530  -31.0850 C   0  0  0  0  0  0  0  0  0  0  0  0
   -3.1680   23.4120  -31.2210 N   0  0  0  0  0  0  0  0  0  0  0  0
   -4.4580   24.2460  -30.4050 S   0  0  0  0  0  0  0  0  0  0  0  0
   -4.4730   25.6800  -30.8520 O   0  0  0  0  0  0  0  0  0  0  0  0
   -4.2140   24.2070  -28.9210 O   0  0  0  0  0  0  0  0  0  0  0  0
   -6.0140   23.5230  -30.8030 C   0  0  0  0  0  0  0  0  0  0  0  0
   -6.6990   22.7760  -29.8350 C   0  0  0  0  0  0  0  0  0  0  0  0
   -7.9590   22.2400  -30.1220 C   0  0  0  0  0  0  0  0  0  0  0  0
   -8.5370   22.4460  -31.3780 C   0  0  0  0  0  0  0  0  0  0  0  0
   -7.8550   23.1850  -32.3490 C   0  0  0  0  0  0  0  0  0  0  0  0
   -6.5950   23.7210  -32.0650 C   0  0  0  0  0  0  0  0  0  0  0  0
   -3.5270   21.1130  -31.8960 C   0  0  0  0  0  0  0  0  0  0  0  0
   -4.7840   20.6180  -31.5200 C   0  0  0  0  0  0  0  0  0  0  0  0
   -5.4280   19.6610  -32.3110 C   0  0  0  0  0  0  0  0  0  0  0  0
   -4.8150   19.1890  -33.4760 C   0  0  0  0  0  0  0  0  0  0  0  0
   -5.7040   17.9000  -34.5690 Br  0  0  0  0  0  0  0  0  0  0  0  0
   -3.5510   19.6640  -33.8440 C   0  0  0  0  0  0  0  0  0  0  0  0
   -2.9070   20.6200  -33.0540 C   0  0  0  0  0  0  0  0  0  0  0  0
   -1.1430   22.6976  -28.3741 H   0  0  0  0  0  0  0  0  0  0  0  0
    0.0082   22.7421  -29.7524 H   0  0  0  0  0  0  0  0  0  0  0  0
   -1.4346   23.8121  -29.7524 H   0  0  0  0  0  0  0  0  0  0  0  0
   -1.5490   20.2241  -28.7483 H   0  0  0  0  0  0  0  0  0  0  0  0
   -2.3767   19.7487  -30.2700 H   0  0  0  0  0  0  0  0  0  0  0  0
   -0.6081   20.0628  -30.2700 H   0  0  0  0  0  0  0  0  0  0  0  0
   -6.2447   22.6107  -28.8469 H   0  0  0  0  0  0  0  0  0  0  0  0
   -8.4950   21.6563  -29.3591 H   0  0  0  0  0  0  0  0  0  0  0  0
   -9.5288   22.0265  -31.6023 H   0  0  0  0  0  0  0  0  0  0  0  0
   -8.3100   23.3451  -33.3376 H   0  0  0  0  0  0  0  0  0  0  0  0
   -6.0584   24.2987  -32.8320 H   0  0  0  0  0  0  0  0  0  0  0  0
   -5.2648   20.9833  -30.6006 H   0  0  0  0  0  0  0  0  0  0  0  0
   -6.4169   19.2795  -32.0167 H   0  0  0  0  0  0  0  0  0  0  0  0
   -3.0646   19.2849  -34.7549 H   0  0  0  0  0  0  0  0  0  0  0  0
   -1.9106   20.9872  -33.3410 H   0  0  0  0  0  0  0  0  0  0  0  0
  1  2  1  0
  2  3  1  0
  2  4  1  0
  4  5  2  3
  5  6  1  0
  6  7  2  0
  6  8  2  0
  6  9  1  0
  9 10  2  0
 10 11  1  0
 11 12  2  0
 12 13  1  0
 13 14  2  0
  4 15  1  0
 15 16  2  0
 16 17  1  0
 17 18  2  0
 18 19  1  0
 18 20  1  0
 20 21  2  0
 14  9  1  0
 21 15  1  0
  1 22  1  0
  1 23  1  0
  1 24  1  0
  3 25  1  0
  3 26  1  0
  3 27  1  0
 10 28  1  0
 11 29  1  0
 12 30  1  0
 13 31  1  0
 14 32  1  0
 16 33  1  0
 17 34  1  0
 20 35  1  0
 21 36  1  0
M  END
>  <UniqueID>  (10) 
10

>  <SMILES>  (10) 
CN(C)C(=NS(=O)(=O)c1ccccc1)c1ccc(Br)cc1

>  <Energy>  (10) 
41.27694911617156

>  <Genealogy>  (10) 
CN(C)C(=NS(=O)(=O)c1ccccc1)c1ccc(Br)cc1 (3D coordinates assigned)
CN(C)C(=NS(=O)(=O)c1ccccc1)c1ccc(Br)cc1 (optimized conformer: 41.27694911617156 kcal/mol)

>  <smiles>  (10) 
CN(C)C(=NS(=O)(=O)c1ccccc1)c1ccc(Br)cc1

>  <score_type>  (10) 
oracle

>  <origin>  (10) 
adg

>  <m_score__min__energy>  (10) 
-7.8399999999999999

>  <m_primary>  (10) 
energy

$$$$
10:0
     RDKit          3D

 36 38  0  0  1  0  0  0  0  0999 V2000
   -2.2980   24.8220  -28.0060 C   0  0  0  0  0  0  0  0  0  0  0  0
   -2.6350   25.1700  -29.3500 O   0  0  0  0  0  0  0  0  0  0  0  0
   -3.1670   24.1760  -30.1520 C   0  0  0  0  0  0  0  0  0  0  0  0
   -2.3600   23.1070  -30.4520 C   0  0  0  0  0  0  0  0  0  0  0  0
   -2.8900   22.1250  -31.2470 C   0  0  0  0  0  0  0  0  0  0  0  0
   -2.0990   21.0800  -31.5390 N   0  0  0  0  0  0  0  0  0  0  0  0
   -2.5640   20.0920  -32.3120 C   0  0  0  0  0  0  0  0  0  0  0  0
   -1.5270   18.7310  -32.6900 Cl  0  0  0  0  0  0  0  0  0  0  0  0
   -3.8200   20.1940  -32.7630 N   0  0  0  0  0  0  0  0  0  0  0  0
   -4.6470   21.2300  -32.4900 C   0  0  0  0  0  0  0  0  0  0  0  0
   -5.7830   21.2180  -32.9600 N   0  0  0  0  0  0  0  0  0  0  0  0
   -6.8630   20.4390  -32.7270 C   0  0  0  0  0  0  0  0  0  0  0  0
   -8.0780   21.0480  -32.3280 C   0  0  0  0  0  0  0  0  0  0  0  0
   -9.1490   20.2750  -31.9760 C   0  0  0  0  0  0  0  0  0  0  0  0
   -9.0840   18.8980  -31.9960 C   0  0  0  0  0  0  0  0  0  0  0  0
   -7.9030   18.2710  -32.3840 C   0  0  0  0  0  0  0  0  0  0  0  0
   -6.7850   19.0250  -32.7510 C   0  0  0  0  0  0  0  0  0  0  0  0
   -4.1950   22.2470  -31.7070 C   0  0  0  0  0  0  0  0  0  0  0  0
   -4.9690   23.3240  -31.3880 C   0  0  0  0  0  0  0  0  0  0  0  0
   -4.4490   24.3460  -30.5750 C   0  0  0  0  0  0  0  0  0  0  0  0
   -5.1820   25.4580  -30.2190 O   0  0  0  0  0  0  0  0  0  0  0  0
   -6.4990   25.3190  -29.7220 C   0  0  0  0  0  0  0  0  0  0  0  0
   -2.8902   25.4336  -27.3094 H   0  0  0  0  0  0  0  0  0  0  0  0
   -2.5173   23.7574  -27.8369 H   0  0  0  0  0  0  0  0  0  0  0  0
   -1.2269   25.0071  -27.8369 H   0  0  0  0  0  0  0  0  0  0  0  0
   -1.3305   23.0414  -30.0700 H   0  0  0  0  0  0  0  0  0  0  0  0
   -4.1560   19.4030  -33.3660 H   0  0  0  0  0  0  0  0  0  0  0  0
   -8.1598   22.1446  -32.3014 H   0  0  0  0  0  0  0  0  0  0  0  0
  -10.0856   20.7635  -31.6693 H   0  0  0  0  0  0  0  0  0  0  0  0
   -9.9598   18.2984  -31.7072 H   0  0  0  0  0  0  0  0  0  0  0  0
   -7.8494   17.1725  -32.4018 H   0  0  0  0  0  0  0  0  0  0  0  0
   -5.8536   18.5252  -33.0555 H   0  0  0  0  0  0  0  0  0  0  0  0
   -5.9995   23.3927  -31.7667 H   0  0  0  0  0  0  0  0  0  0  0  0
   -6.4780   25.3212  -28.6222 H   0  0  0  0  0  0  0  0  0  0  0  0
   -7.1159   26.1570  -30.0787 H   0  0  0  0  0  0  0  0  0  0  0  0
   -6.9273   24.3707  -30.0787 H   0  0  0  0  0  0  0  0  0  0  0  0
  1  2  1  0
  2  3  1  0
  3  4  2  0
  4  5  1  0
  5  6  1  0
  6  7  2  0
  7  8  1  0
  7  9  1  0
  9 10  1  0
 10 11  2  0
 11 12  1  0
 12 13  2  0
 13 14  1  0
 14 15  2  0
 15 16  1  0
 16 17  2  0
 10 18  1  0
 18 19  1  0
 19 20  2  0
 20 21  1  0
 21 22  1  0
 20  3  1  0
 18  5  2  0
 17 12  1  0
  1 23  1  0
  1 24  1  0
  1 25  1  0
  4 26  1  0
  9 27  1  0
 13 28  1  0
 14 29  1  0
 15 30  1  0
 16 31  1  0
 17 32  1  0
 19 33  1  0
 22 34  1  0
 22 35  1  0
 22 36  1  0
M  END
>  <smiles>  (11) 
COc1cc2nc(Cl)[nH]c(=Nc3ccccc3)c2cc1OC

>  <score_type>  (11) 
oracle

>  <origin>  (11) 
adg

>  <m_score__min__energy>  (11) 
-7.6200000000000001

>  <m_primary>  (11) 
energy

$$$$
11:0
     RDKit          3D

 60 62  0  0  0  0  0  0  0  0999 V2000
    0.1660   27.2670  -22.9690 C   0  0  0  0  0  0  0  0  0  0  0  0
   -0.1690   26.3110  -24.1200 C   0  0  0  0  0  0  0  0  0  0  0  0
    0.7700   25.1760  -24.3030 N   0  0  0  0  0  0  0  0  0  0  0  0
    1.9700   25.4800  -25.1240 C   0  0  0  0  0  0  0  0  0  0  0  0
    3.3250   25.1190  -24.4870 C   0  0  0  0  0  0  0  0  0  0  0  0
   -0.0420   23.6680  -24.6930 S   0  0  0  0  0  0  0  0  0  0  0  0
    0.9880   22.6560  -25.1170 O   0  0  0  0  0  0  0  0  0  0  0  0
   -0.7680   23.1230  -23.4940 O   0  0  0  0  0  0  0  0  0  0  0  0
   -1.1720   23.8840  -26.0290 C   0  0  0  0  0  0  0  0  0  0  0  0
   -2.2720   24.7580  -25.8750 C   0  0  0  0  0  0  0  0  0  0  0  0
   -3.2340   24.8860  -26.8920 C   0  0  0  0  0  0  0  0  0  0  0  0
   -3.0560   24.1380  -28.0590 C   0  0  0  0  0  0  0  0  0  0  0  0
   -1.9760   23.3090  -28.2200 C   0  0  0  0  0  0  0  0  0  0  0  0
   -2.1260   22.6570  -29.4230 C   0  0  0  0  0  0  0  0  0  0  0  0
   -3.3320   23.1150  -29.9420 C   0  0  0  0  0  0  0  0  0  0  0  0
   -3.8940   24.0240  -29.1100 N   0  0  0  0  0  0  0  0  0  0  0  0
   -5.2480   24.5690  -29.2290 C   0  0  0  0  0  0  0  0  0  0  0  0
   -5.6170   24.7690  -30.6730 C   0  0  0  0  0  0  0  0  0  0  0  0
   -5.6660   25.9350  -31.1480 O   0  0  0  0  0  0  0  0  0  0  0  0
   -5.9660   23.6430  -31.4850 N   0  0  0  0  0  0  0  0  0  0  0  0
   -7.1740   22.8520  -31.3120 C   0  0  0  0  0  0  0  0  0  0  0  0
   -6.9900   21.5090  -32.0190 C   0  0  0  0  0  0  0  0  0  0  0  0
   -5.5130   21.2140  -32.2860 C   0  0  0  0  0  0  0  0  0  0  0  0
   -5.3810   20.0000  -33.0910 N   0  0  0  0  0  0  0  0  0  0  0  0
   -6.4950   19.1770  -33.5230 C   0  0  0  0  0  0  0  0  0  0  0  0
   -5.8770   18.0200  -34.3350 C   0  0  0  0  0  0  0  0  0  0  0  0
   -4.3500   18.1560  -34.2460 C   0  0  0  0  0  0  0  0  0  0  0  0
   -4.1620   19.4060  -33.4850 C   0  0  0  0  0  0  0  0  0  0  0  0
   -3.0360   19.8830  -33.1880 O   0  0  0  0  0  0  0  0  0  0  0  0
   -1.0120   23.1540  -27.2270 C   0  0  0  0  0  0  0  0  0  0  0  0
   -0.0113   26.7609  -22.0086 H   0  0  0  0  0  0  0  0  0  0  0  0
    1.2225   27.5660  -23.0363 H   0  0  0  0  0  0  0  0  0  0  0  0
   -0.4728   28.1600  -23.0363 H   0  0  0  0  0  0  0  0  0  0  0  0
   -1.1705   25.8955  -23.9347 H   0  0  0  0  0  0  0  0  0  0  0  0
   -0.1003   26.9105  -25.0397 H   0  0  0  0  0  0  0  0  0  0  0  0
    1.1490   25.0020  -23.3430 H   0  0  0  0  0  0  0  0  0  0  0  0
    1.8823   24.9242  -26.0692 H   0  0  0  0  0  0  0  0  0  0  0  0
    1.9790   26.5730  -25.2479 H   0  0  0  0  0  0  0  0  0  0  0  0
    3.2331   25.1435  -23.3911 H   0  0  0  0  0  0  0  0  0  0  0  0
    3.6236   24.1100  -24.8075 H   0  0  0  0  0  0  0  0  0  0  0  0
    4.0860   25.8457  -24.8075 H   0  0  0  0  0  0  0  0  0  0  0  0
   -2.3764   25.3440  -24.9500 H   0  0  0  0  0  0  0  0  0  0  0  0
   -4.0998   25.5540  -26.7730 H   0  0  0  0  0  0  0  0  0  0  0  0
   -1.4381   21.9286  -29.8772 H   0  0  0  0  0  0  0  0  0  0  0  0
   -3.7690   22.7848  -30.8960 H   0  0  0  0  0  0  0  0  0  0  0  0
   -5.9605   23.8690  -28.7681 H   0  0  0  0  0  0  0  0  0  0  0  0
   -5.2830   25.5423  -28.7176 H   0  0  0  0  0  0  0  0  0  0  0  0
   -7.3551   22.6836  -30.2402 H   0  0  0  0  0  0  0  0  0  0  0  0
   -8.0345   23.3856  -31.7420 H   0  0  0  0  0  0  0  0  0  0  0  0
   -7.4049   20.7115  -31.3851 H   0  0  0  0  0  0  0  0  0  0  0  0
   -7.5134   21.5531  -32.9855 H   0  0  0  0  0  0  0  0  0  0  0  0
   -5.0650   22.0602  -32.8275 H   0  0  0  0  0  0  0  0  0  0  0  0
   -4.9956   21.0679  -31.3263 H   0  0  0  0  0  0  0  0  0  0  0  0
   -7.0408   18.7844  -32.6523 H   0  0  0  0  0  0  0  0  0  0  0  0
   -7.2133   19.7535  -34.1244 H   0  0  0  0  0  0  0  0  0  0  0  0
   -6.1931   17.0546  -33.9130 H   0  0  0  0  0  0  0  0  0  0  0  0
   -6.2088   18.0623  -35.3829 H   0  0  0  0  0  0  0  0  0  0  0  0
   -3.9090   17.3006  -33.7132 H   0  0  0  0  0  0  0  0  0  0  0  0
   -3.8624   18.1758  -35.2318 H   0  0  0  0  0  0  0  0  0  0  0  0
   -0.1522   22.4833  -27.3715 H   0  0  0  0  0  0  0  0  0  0  0  0
  1  2  1  0
  2  3  1  0
  3  4  1  0
  4  5  1  0
  3  6  1  0
  6  7  2  0
  6  8  2  0
  6  9  1  0
  9 10  2  0
 10 11  1  0
 11 12  2  0
 12 13  1  0
 13 14  1  0
 14 15  2  0
 15 16  1  0
 16 17  1  0
 17 18  1  0
 18 19  2  0
 18 20  1  0
 20 21  1  0
 21 22  1  0
 22 23  1  0
 23 24  1  0
 24 25  1  0
 25 26  1  0
 26 27  1  0
 27 28  1  0
 28 29  2  0
 13 30  2  0
 30  9  1  0
 16 12  1  0
 28 24  1  0
  1 31  1  0
  1 32  1  0
  1 33  1  0
  2 34  1  0
  2 35  1  0
  3 36  1  0
  4 37  1  0
  4 38  1  0
  5 39  1  0
  5 40  1  0
  5 41  1  0
 10 42  1  0
 11 43  1  0
 14 44  1  0
 15 45  1  0
 17 46  1  0
 17 47  1  0
 21 48  1  0
 21 49  1  0
 22 50  1  0
 22 51  1  0
 23 52  1  0
 23 53  1  0
 25 54  1  0
 25 55  1  0
 26 56  1  0
 26 57  1  0
 27 58  1  0
 27 59  1  0
 30 60  1  0
M  CHG  2   3   1  20  -1
M  END
>  <UniqueID>  (12) 
11

>  <SMILES>  (12) 
CC[NH+](CC)S(=O)(=O)c1ccc2c(ccn2CC(=O)[N-]CCCN2CCCC2=O)c1

>  <Energy>  (12) 
94.24103107742954

>  <Genealogy>  (12) 
CC[NH+](CC)S(=O)(=O)c1ccc2c(ccn2CC(=O)[N-]CCCN2CCCC2=O)c1 (protonated)
CC[NH+](CC)S(=O)(=O)c1ccc2c(ccn2CC(=O)[N-]CCCN2CCCC2=O)c1 (3D coordinates assigned)
CC[NH+](CC)S(=O)(=O)c1ccc2c(ccn2CC(=O)[N-]CCCN2CCCC2=O)c1 (nonaromatic ring conformer: 94.24103107742954 kcal/mol)

>  <smiles>  (12) 
CCN(CC)S(=O)(=O)c1ccc2c(ccn2CC(=O)NCCCN2CCCC2=O)c1

>  <score_type>  (12) 
oracle

>  <origin>  (12) 
adg

>  <m_score__min__energy>  (12) 
-10.289999999999999

>  <m_primary>  (12) 
energy

$$$$
12:0
     RDKit          3D

 49 52  0  0  0  0  0  0  0  0999 V2000
   -1.1900   26.7650  -24.1750 C   0  0  0  0  0  0  0  0  0  0  0  0
   -0.7020   27.1500  -25.5690 C   0  0  0  0  0  0  0  0  0  0  0  0
   -1.4180   26.3800  -26.6080 N   0  0  0  0  0  0  0  0  0  0  0  0
   -0.5060   26.0580  -27.7310 C   0  0  0  0  0  0  0  0  0  0  0  0
   -1.0660   24.9720  -28.6810 C   0  0  0  0  0  0  0  0  0  0  0  0
   -2.4890   24.7050  -28.4340 N   0  0  0  0  0  0  0  0  0  0  0  0
   -3.3130   24.2580  -29.5210 C   0  0  0  0  0  0  0  0  0  0  0  0
   -4.2560   25.0970  -30.0220 N   0  0  0  0  0  0  0  0  0  0  0  0
   -5.0620   24.7330  -31.0170 N   0  0  0  0  0  0  0  0  0  0  0  0
   -4.9920   23.5050  -31.6000 C   0  0  0  0  0  0  0  0  0  0  0  0
   -5.9860   23.1910  -32.6930 C   0  0  0  0  0  0  0  0  0  0  0  0
   -6.9900   22.1640  -32.2370 C   0  0  0  0  0  0  0  0  0  0  0  0
   -6.9330   20.8490  -32.7360 C   0  0  0  0  0  0  0  0  0  0  0  0
   -7.8580   19.8930  -32.3110 C   0  0  0  0  0  0  0  0  0  0  0  0
   -8.8400   20.2360  -31.3780 C   0  0  0  0  0  0  0  0  0  0  0  0
   -8.8970   21.5350  -30.8670 C   0  0  0  0  0  0  0  0  0  0  0  0
   -7.9740   22.4950  -31.2900 C   0  0  0  0  0  0  0  0  0  0  0  0
   -4.0290   22.5800  -31.1310 C   0  0  0  0  0  0  0  0  0  0  0  0
   -3.8880   21.2880  -31.6820 C   0  0  0  0  0  0  0  0  0  0  0  0
   -2.9130   20.4130  -31.1990 C   0  0  0  0  0  0  0  0  0  0  0  0
   -2.0630   20.8070  -30.1660 C   0  0  0  0  0  0  0  0  0  0  0  0
   -2.1860   22.0790  -29.6050 C   0  0  0  0  0  0  0  0  0  0  0  0
   -3.1700   22.9720  -30.0720 C   0  0  0  0  0  0  0  0  0  0  0  0
   -3.0070   24.5880  -27.0670 C   0  0  0  0  0  0  0  0  0  0  0  0
   -2.0060   25.1450  -26.0570 C   0  0  0  0  0  0  0  0  0  0  0  0
   -0.5636   27.2592  -23.4178 H   0  0  0  0  0  0  0  0  0  0  0  0
   -2.2353   27.0843  -24.0513 H   0  0  0  0  0  0  0  0  0  0  0  0
   -1.1228   25.6740  -24.0513 H   0  0  0  0  0  0  0  0  0  0  0  0
   -0.8797   28.2236  -25.7294 H   0  0  0  0  0  0  0  0  0  0  0  0
    0.3722   26.9243  -25.6409 H   0  0  0  0  0  0  0  0  0  0  0  0
   -0.3313   26.9749  -28.3130 H   0  0  0  0  0  0  0  0  0  0  0  0
    0.4225   25.6619  -27.2940 H   0  0  0  0  0  0  0  0  0  0  0  0
   -0.9436   25.3118  -29.7200 H   0  0  0  0  0  0  0  0  0  0  0  0
   -0.5091   24.0411  -28.4984 H   0  0  0  0  0  0  0  0  0  0  0  0
   -6.5170   24.1133  -32.9710 H   0  0  0  0  0  0  0  0  0  0  0  0
   -5.4384   22.7840  -33.5558 H   0  0  0  0  0  0  0  0  0  0  0  0
   -6.1561   20.5731  -33.4642 H   0  0  0  0  0  0  0  0  0  0  0  0
   -7.8135   18.8693  -32.7110 H   0  0  0  0  0  0  0  0  0  0  0  0
   -9.5690   19.4824  -31.0455 H   0  0  0  0  0  0  0  0  0  0  0  0
   -9.6694   21.8024  -30.1308 H   0  0  0  0  0  0  0  0  0  0  0  0
   -8.0179   23.5147  -30.8797 H   0  0  0  0  0  0  0  0  0  0  0  0
   -4.5518   20.9679  -32.4987 H   0  0  0  0  0  0  0  0  0  0  0  0
   -2.8149   19.4080  -31.6354 H   0  0  0  0  0  0  0  0  0  0  0  0
   -1.2944   20.1142  -29.7928 H   0  0  0  0  0  0  0  0  0  0  0  0
   -1.5103   22.3860  -28.7931 H   0  0  0  0  0  0  0  0  0  0  0  0
   -3.9488   25.1510  -26.9890 H   0  0  0  0  0  0  0  0  0  0  0  0
   -3.1766   23.5242  -26.8446 H   0  0  0  0  0  0  0  0  0  0  0  0
   -2.5204   25.3697  -25.1110 H   0  0  0  0  0  0  0  0  0  0  0  0
   -1.2146   24.4053  -25.8658 H   0  0  0  0  0  0  0  0  0  0  0  0
  1  2  1  0
  2  3  1  0
  3  4  1  0
  4  5  1  0
  5  6  1  0
  6  7  1  0
  7  8  2  0
  8  9  1  0
  9 10  2  0
 10 11  1  0
 11 12  1  0
 12 13  2  0
 13 14  1  0
 14 15  2  0
 15 16  1  0
 16 17  2  0
 10 18  1  0
 18 19  2  0
 19 20  1  0
 20 21  2  0
 21 22  1  0
 22 23  2  0
  6 24  1  0
 24 25  1  0
 25  3  1  0
 23  7  1  0
 17 12  1  0
 23 18  1  0
  1 26  1  0
  1 27  1  0
  1 28  1  0
  2 29  1  0
  2 30  1  0
  4 31  1  0
  4 32  1  0
  5 33  1  0
  5 34  1  0
 11 35  1  0
 11 36  1  0
 13 37  1  0
 14 38  1  0
 15 39  1  0
 16 40  1  0
 17 41  1  0
 19 42  1  0
 20 43  1  0
 21 44  1  0
 22 45  1  0
 24 46  1  0
 24 47  1  0
 25 48  1  0
 25 49  1  0
M  END
>  <UniqueID>  (13) 
12

>  <SMILES>  (13) 
CCN1CCN(c2nnc(Cc3ccccc3)c3ccccc23)CC1

>  <Energy>  (13) 
67.33086728114817

>  <Genealogy>  (13) 
CCN1CCN(c2nnc(Cc3ccccc3)c3ccccc23)CC1 (3D coordinates assigned)
CCN1CCN(c2nnc(Cc3ccccc3)c3ccccc23)CC1 (nonaromatic ring conformer: 67.33086728114817 kcal/mol)

>  <smiles>  (13) 
CCN1CCN(c2nnc(Cc3ccccc3)c3ccccc23)CC1

>  <score_type>  (13) 
oracle

>  <origin>  (13) 
adg

>  <m_score__min__energy>  (13) 
-8.7799999999999994

>  <m_primary>  (13) 
energy

$$$$
13:0
     RDKit          3D

 49 51  0  0  0  0  0  0  0  0999 V2000
   -5.7390   25.8220  -30.4230 C   0  0  0  0  0  0  0  0  0  0  0  0
   -5.5310   24.7270  -31.3600 N   0  0  0  0  0  0  0  0  0  0  0  0
   -6.4040   23.5970  -31.4290 C   0  0  0  0  0  0  0  0  0  0  0  0
   -7.3610   23.4860  -30.6130 O   0  0  0  0  0  0  0  0  0  0  0  0
   -6.1170   22.4980  -32.4340 C   0  0  2  0  0  0  0  0  0  0  0  0
   -6.9650   21.2460  -32.2260 C   0  0  0  0  0  0  0  0  0  0  0  0
   -8.3250   21.3590  -31.8740 C   0  0  0  0  0  0  0  0  0  0  0  0
   -9.1260   20.2200  -31.7480 C   0  0  0  0  0  0  0  0  0  0  0  0
   -8.5910   18.9590  -32.0010 C   0  0  0  0  0  0  0  0  0  0  0  0
   -7.2600   18.8320  -32.4010 C   0  0  0  0  0  0  0  0  0  0  0  0
   -6.4480   19.9670  -32.5450 C   0  0  0  0  0  0  0  0  0  0  0  0
   -5.0190   19.7830  -32.9850 C   0  0  0  0  0  0  0  0  0  0  0  0
   -4.3710   21.1010  -33.4310 C   0  0  0  0  0  0  0  0  0  0  0  0
   -4.6570   22.2100  -32.5010 N   0  0  2  0  0  0  0  0  0  0  0  0
   -4.0430   21.9710  -31.2010 C   0  0  0  0  0  0  0  0  0  0  0  0
   -4.5580   21.1410  -30.4010 O   0  0  0  0  0  0  0  0  0  0  0  0
   -2.7970   22.6770  -30.8070 C   0  0  0  0  0  0  0  0  0  0  0  0
   -1.7230   22.3910  -31.4040 O   0  0  0  0  0  0  0  0  0  0  0  0
   -2.8110   23.7610  -29.7260 C   0  0  0  0  0  0  0  0  0  0  0  0
   -3.1570   24.9970  -30.3130 O   0  0  0  0  0  0  0  0  0  0  0  0
   -1.3730   23.9090  -29.1310 C   0  0  0  0  0  0  0  0  0  0  0  0
   -1.1990   23.1530  -27.8090 C   0  0  0  0  0  0  0  0  0  0  0  0
   -2.1620   23.6820  -26.7290 C   0  0  0  0  0  0  0  0  0  0  0  0
   -3.5110   24.1650  -27.2990 C   0  0  0  0  0  0  0  0  0  0  0  0
   -3.8550   23.4400  -28.6050 C   0  0  0  0  0  0  0  0  0  0  0  0
   -5.6668   25.4421  -29.3932 H   0  0  0  0  0  0  0  0  0  0  0  0
   -4.9713   26.5932  -30.5840 H   0  0  0  0  0  0  0  0  0  0  0  0
   -6.7360   26.2579  -30.5840 H   0  0  0  0  0  0  0  0  0  0  0  0
   -6.4248   22.8759  -33.4201 H   0  0  0  0  0  0  0  0  0  0  0  0
   -8.7607   22.3533  -31.6966 H   0  0  0  0  0  0  0  0  0  0  0  0
  -10.1798   20.3198  -31.4488 H   0  0  0  0  0  0  0  0  0  0  0  0
   -9.2181   18.0627  -31.8854 H   0  0  0  0  0  0  0  0  0  0  0  0
   -6.8443   17.8342  -32.6050 H   0  0  0  0  0  0  0  0  0  0  0  0
   -4.4406   19.3713  -32.1447 H   0  0  0  0  0  0  0  0  0  0  0  0
   -5.0183   19.0998  -33.8471 H   0  0  0  0  0  0  0  0  0  0  0  0
   -3.2817   20.9583  -33.4866 H   0  0  0  0  0  0  0  0  0  0  0  0
   -4.7925   21.3676  -34.4114 H   0  0  0  0  0  0  0  0  0  0  0  0
   -4.2150   23.0650  -32.9170 H   0  0  0  0  0  0  0  0  0  0  0  0
   -3.4920   24.8190  -31.2320 H   0  0  0  0  0  0  0  0  0  0  0  0
   -0.6486   23.5156  -29.8593 H   0  0  0  0  0  0  0  0  0  0  0  0
   -1.2060   24.9770  -28.9274 H   0  0  0  0  0  0  0  0  0  0  0  0
   -1.4020   22.0852  -27.9778 H   0  0  0  0  0  0  0  0  0  0  0  0
   -0.1676   23.3029  -27.4572 H   0  0  0  0  0  0  0  0  0  0  0  0
   -2.3566   22.8739  -26.0085 H   0  0  0  0  0  0  0  0  0  0  0  0
   -1.6779   24.5499  -26.2574 H   0  0  0  0  0  0  0  0  0  0  0  0
   -4.3027   23.9689  -26.5610 H   0  0  0  0  0  0  0  0  0  0  0  0
   -3.4335   25.2419  -27.5095 H   0  0  0  0  0  0  0  0  0  0  0  0
   -3.8617   22.3554  -28.4216 H   0  0  0  0  0  0  0  0  0  0  0  0
   -4.8438   23.7839  -28.9428 H   0  0  0  0  0  0  0  0  0  0  0  0
  1  2  1  0
  2  3  1  0
  3  4  2  0
  3  5  1  0
  5  6  1  0
  6  7  2  0
  7  8  1  0
  8  9  2  0
  9 10  1  0
 10 11  2  0
 11 12  1  0
 12 13  1  0
 13 14  1  0
 14 15  1  0
 15 16  2  0
 15 17  1  0
 17 18  2  0
 17 19  1  0
 19 20  1  0
 19 21  1  0
 21 22  1  0
 22 23  1  0
 23 24  1  0
 24 25  1  0
 14  5  1  0
 25 19  1  0
 11  6  1  0
  1 26  1  0
  1 27  1  0
  1 28  1  0
  5 29  1  6
  7 30  1  0
  8 31  1  0
  9 32  1  0
 10 33  1  0
 12 34  1  0
 12 35  1  0
 13 36  1  0
 13 37  1  0
 14 38  1  6
 20 39  1  0
 21 40  1  0
 21 41  1  0
 22 42  1  0
 22 43  1  0
 23 44  1  0
 23 45  1  0
 24 46  1  0
 24 47  1  0
 25 48  1  0
 25 49  1  0
M  CHG  2   2  -1  14   1
M  END
>  <UniqueID>  (14) 
13

>  <SMILES>  (14) 
C[N-]C(=O)[C@@H]1c2ccccc2CC[N@@H+]1C(=O)C(=O)C1(O)CCCCC1

>  <Energy>  (14) 
64.91993909055289

>  <Genealogy>  (14) 
C[N-]C(=O)C1c2ccccc2CC[NH+]1C(=O)C(=O)C1(O)CCCCC1 (protonated)
C[N-]C(=O)[C@@H]1c2ccccc2CC[N@@H+]1C(=O)C(=O)C1(O)CCCCC1 (chirality)
C[N-]C(=O)[C@@H]1c2ccccc2CC[N@@H+]1C(=O)C(=O)C1(O)CCCCC1 (3D coordinates assigned)
C[N-]C(=O)[C@@H]1c2ccccc2CC[N@@H+]1C(=O)C(=O)C1(O)CCCCC1 (nonaromatic ring conformer: 64.91993909055289 kcal/mol)

>  <smiles>  (14) 
CNC(=O)C1c2ccccc2CCN1C(=O)C(=O)C1(O)CCCCC1

>  <score_type>  (14) 
oracle

>  <origin>  (14) 
adg

>  <m_score__min__energy>  (14) 
-9.0600000000000005

>  <m_primary>  (14) 
energy

$$$$
14:0
     RDKit          3D

 47 49  0  0  0  0  0  0  0  0999 V2000
   -2.7790   21.2300  -31.7190 O   0  0  0  0  0  0  0  0  0  0  0  0
   -4.1140   21.3420  -32.4020 S   0  0  0  0  0  0  0  0  0  0  0  0
   -3.8610   21.8100  -33.8090 O   0  0  0  0  0  0  0  0  0  0  0  0
   -5.0360   22.5620  -31.5290 C   0  0  0  0  0  0  0  0  0  0  0  0
   -4.4650   23.2000  -30.4170 C   0  0  0  0  0  0  0  0  0  0  0  0
   -5.1940   24.1570  -29.7050 C   0  0  0  0  0  0  0  0  0  0  0  0
   -6.4940   24.4860  -30.1020 C   0  0  0  0  0  0  0  0  0  0  0  0
   -7.2010   25.4130  -29.4100 F   0  0  0  0  0  0  0  0  0  0  0  0
   -7.0650   23.8580  -31.2140 C   0  0  0  0  0  0  0  0  0  0  0  0
   -6.3380   22.9010  -31.9290 C   0  0  0  0  0  0  0  0  0  0  0  0
   -4.8700   19.7500  -32.4100 N   0  0  2  0  0  0  0  0  0  0  0  0
   -4.5960   19.1170  -33.7250 C   0  0  0  0  0  0  0  0  0  0  0  0
   -4.8950   17.6340  -33.7290 C   0  0  0  0  0  0  0  0  0  0  0  0
   -6.1180   17.1550  -34.2280 C   0  0  0  0  0  0  0  0  0  0  0  0
   -6.3970   15.7850  -34.2140 C   0  0  0  0  0  0  0  0  0  0  0  0
   -5.4570   14.8840  -33.7060 C   0  0  0  0  0  0  0  0  0  0  0  0
   -4.2380   15.3520  -33.2100 C   0  0  0  0  0  0  0  0  0  0  0  0
   -3.9550   16.7220  -33.2200 C   0  0  0  0  0  0  0  0  0  0  0  0
   -6.3290   19.7090  -32.0610 C   0  0  0  0  0  0  0  0  0  0  0  0
   -7.2530   20.1330  -33.2270 C   0  0  0  0  0  0  0  0  0  0  0  0
   -8.6830   20.4190  -32.7220 C   0  0  0  0  0  0  0  0  0  0  0  0
   -9.0970   19.5380  -31.5230 C   0  0  0  0  0  0  0  0  0  0  0  0
   -8.3510   18.1980  -31.5090 C   0  0  0  0  0  0  0  0  0  0  0  0
   -6.8210   18.3840  -31.4110 C   0  0  0  0  0  0  0  0  0  0  0  0
   -3.4412   22.9464  -30.1049 H   0  0  0  0  0  0  0  0  0  0  0  0
   -4.7446   24.6519  -28.8314 H   0  0  0  0  0  0  0  0  0  0  0  0
   -8.0873   24.1173  -31.5264 H   0  0  0  0  0  0  0  0  0  0  0  0
   -6.7873   22.4130  -32.8065 H   0  0  0  0  0  0  0  0  0  0  0  0
   -4.3520   19.1990  -31.6870 H   0  0  0  0  0  0  0  0  0  0  0  0
   -5.2206   19.6046  -34.4880 H   0  0  0  0  0  0  0  0  0  0  0  0
   -3.5242   19.2419  -33.9386 H   0  0  0  0  0  0  0  0  0  0  0  0
   -6.8591   17.8608  -34.6314 H   0  0  0  0  0  0  0  0  0  0  0  0
   -7.3573   15.4159  -34.6032 H   0  0  0  0  0  0  0  0  0  0  0  0
   -5.6772   13.8063  -33.6968 H   0  0  0  0  0  0  0  0  0  0  0  0
   -3.4990   14.6418  -32.8107 H   0  0  0  0  0  0  0  0  0  0  0  0
   -2.9938   17.0863  -32.8283 H   0  0  0  0  0  0  0  0  0  0  0  0
   -6.4103   20.4720  -31.2728 H   0  0  0  0  0  0  0  0  0  0  0  0
   -6.8479   21.0424  -33.6949 H   0  0  0  0  0  0  0  0  0  0  0  0
   -7.2964   19.3113  -33.9570 H   0  0  0  0  0  0  0  0  0  0  0  0
   -8.7403   21.4740  -32.4159 H   0  0  0  0  0  0  0  0  0  0  0  0
   -9.3717   20.1881  -33.5481 H   0  0  0  0  0  0  0  0  0  0  0  0
   -8.8735   20.0785  -30.5914 H   0  0  0  0  0  0  0  0  0  0  0  0
  -10.1728   19.3267  -31.6125 H   0  0  0  0  0  0  0  0  0  0  0  0
   -8.6928   17.6111  -30.6437 H   0  0  0  0  0  0  0  0  0  0  0  0
   -8.5687   17.6800  -32.4547 H   0  0  0  0  0  0  0  0  0  0  0  0
   -6.5352   18.3869  -30.3488 H   0  0  0  0  0  0  0  0  0  0  0  0
   -6.3519   17.5536  -31.9590 H   0  0  0  0  0  0  0  0  0  0  0  0
  1  2  2  0
  2  3  2  0
  2  4  1  0
  4  5  2  0
  5  6  1  0
  6  7  2  0
  7  8  1  0
  7  9  1  0
  9 10  2  0
  2 11  1  0
 11 12  1  0
 12 13  1  0
 13 14  2  0
 14 15  1  0
 15 16  2  0
 16 17  1  0
 17 18  2  0
 11 19  1  0
 19 20  1  0
 20 21  1  0
 21 22  1  0
 22 23  1  0
 23 24  1  0
 10  4  1  0
 18 13  1  0
 24 19  1  0
  5 25  1  0
  6 26  1  0
  9 27  1  0
 10 28  1  0
 11 29  1  1
 12 30  1  0
 12 31  1  0
 14 32  1  0
 15 33  1  0
 16 34  1  0
 17 35  1  0
 18 36  1  0
 19 37  1  0
 20 38  1  0
 20 39  1  0
 21 40  1  0
 21 41  1  0
 22 42  1  0
 22 43  1  0
 23 44  1  0
 23 45  1  0
 24 46  1  0
 24 47  1  0
M  CHG  1  11   1
M  END
>  <UniqueID>  (15) 
14

>  <SMILES>  (15) 
O=S(=O)(c1ccc(F)cc1)[N@H+](Cc1ccccc1)C1CCCCC1

>  <Energy>  (15) 
59.30219122456261

>  <Genealogy>  (15) 
O=S(=O)(c1ccc(F)cc1)[NH+](Cc1ccccc1)C1CCCCC1 (protonated)
O=S(=O)(c1ccc(F)cc1)[N@H+](Cc1ccccc1)C1CCCCC1 (chirality)
O=S(=O)(c1ccc(F)cc1)[N@H+](Cc1ccccc1)C1CCCCC1 (3D coordinates assigned)
O=S(=O)(c1ccc(F)cc1)[N@H+](Cc1ccccc1)C1CCCCC1 (nonaromatic ring conformer: 59.30219122456261 kcal/mol)

>  <smiles>  (15) 
O=S(=O)(c1ccc(F)cc1)N(Cc1ccccc1)C1CCCCC1

>  <score_type>  (15) 
oracle

>  <origin>  (15) 
adg

>  <m_score__min__energy>  (15) 
-7.8099999999999996

>  <m_primary>  (15) 
energy

$$$$
15:0
     RDKit          3D

 59 64  0  0  0  0  0  0  0  0999 V2000
   -5.4740   17.4820  -35.2460 O   0  0  0  0  0  0  0  0  0  0  0  0
   -4.8390   17.8140  -34.2080 C   0  0  0  0  0  0  0  0  0  0  0  0
   -3.6510   16.9910  -33.7740 C   0  0  0  0  0  0  0  0  0  0  0  0
   -2.3150   17.6270  -34.2080 C   0  0  0  0  0  0  0  0  0  0  0  0
   -1.9350   18.7770  -33.3510 N   0  0  2  0  0  0  0  0  0  0  0  0
   -1.4840   19.9050  -34.1940 C   0  0  0  0  0  0  0  0  0  0  0  0
   -1.3330   21.1930  -33.3650 C   0  0  0  0  0  0  0  0  0  0  0  0
   -0.8170   20.9360  -31.9270 C   0  0  1  0  0  0  0  0  0  0  0  0
   -1.9260   21.0550  -30.9040 C   0  0  0  0  0  0  0  0  0  0  0  0
   -2.8400   20.0940  -30.6190 N   0  0  0  0  0  0  0  0  0  0  0  0
   -3.6450   20.5710  -29.7040 O   0  0  0  0  0  0  0  0  0  0  0  0
   -3.2970   21.7940  -29.3890 C   0  0  0  0  0  0  0  0  0  0  0  0
   -3.8860   22.6560  -28.4680 C   0  0  0  0  0  0  0  0  0  0  0  0
   -3.3170   23.9360  -28.3180 C   0  0  0  0  0  0  0  0  0  0  0  0
   -2.1880   24.3160  -29.0860 C   0  0  0  0  0  0  0  0  0  0  0  0
   -1.6530   25.5510  -28.9320 F   0  0  0  0  0  0  0  0  0  0  0  0
   -1.6190   23.4150  -30.0080 C   0  0  0  0  0  0  0  0  0  0  0  0
   -2.2080   22.1570  -30.1260 C   0  0  0  0  0  0  0  0  0  0  0  0
   -0.0680   19.5940  -31.8290 C   0  0  0  0  0  0  0  0  0  0  0  0
   -0.8860   18.3950  -32.3660 C   0  0  0  0  0  0  0  0  0  0  0  0
   -5.3060   18.9780  -33.4150 C   0  0  0  0  0  0  0  0  0  0  0  0
   -6.4650   18.8920  -32.6000 C   0  0  0  0  0  0  0  0  0  0  0  0
   -6.8870   19.9890  -31.8340 C   0  0  0  0  0  0  0  0  0  0  0  0
   -6.1460   21.1660  -31.9010 C   0  0  0  0  0  0  0  0  0  0  0  0
   -5.0300   21.2750  -32.7070 C   0  0  0  0  0  0  0  0  0  0  0  0
   -4.5930   20.1960  -33.4740 C   0  0  0  0  0  0  0  0  0  0  0  0
   -4.4120   22.6410  -32.6100 C   0  0  0  0  0  0  0  0  0  0  0  0
   -5.3340   23.2890  -31.6170 C   0  0  0  0  0  0  0  0  0  0  0  0
   -5.2600   24.5840  -31.1030 C   0  0  0  0  0  0  0  0  0  0  0  0
   -6.2230   24.9890  -30.1620 C   0  0  0  0  0  0  0  0  0  0  0  0
   -7.2370   24.1020  -29.7510 C   0  0  0  0  0  0  0  0  0  0  0  0
   -7.3000   22.8030  -30.2810 C   0  0  0  0  0  0  0  0  0  0  0  0
   -6.3360   22.4260  -31.2160 C   0  0  0  0  0  0  0  0  0  0  0  0
   -3.6622   16.9027  -32.6776 H   0  0  0  0  0  0  0  0  0  0  0  0
   -3.7285   16.0046  -34.2547 H   0  0  0  0  0  0  0  0  0  0  0  0
   -1.5243   16.8647  -34.1483 H   0  0  0  0  0  0  0  0  0  0  0  0
   -2.4372   17.9989  -35.2360 H   0  0  0  0  0  0  0  0  0  0  0  0
   -2.7930   19.0860  -32.8340 H   0  0  0  0  0  0  0  0  0  0  0  0
   -0.5125   19.6513  -34.6432 H   0  0  0  0  0  0  0  0  0  0  0  0
   -2.2384   20.0797  -34.9752 H   0  0  0  0  0  0  0  0  0  0  0  0
   -0.6223   21.8576  -33.8779 H   0  0  0  0  0  0  0  0  0  0  0  0
   -2.3321   21.6449  -33.2780 H   0  0  0  0  0  0  0  0  0  0  0  0
   -0.0879   21.7248  -31.6897 H   0  0  0  0  0  0  0  0  0  0  0  0
   -4.7631   22.3490  -27.8793 H   0  0  0  0  0  0  0  0  0  0  0  0
   -3.7523   24.6460  -27.5993 H   0  0  0  0  0  0  0  0  0  0  0  0
   -0.7429   23.6938  -30.6120 H   0  0  0  0  0  0  0  0  0  0  0  0
    0.8624   19.6703  -32.4108 H   0  0  0  0  0  0  0  0  0  0  0  0
    0.1240   19.4055  -30.7624 H   0  0  0  0  0  0  0  0  0  0  0  0
   -0.1932   17.6922  -32.8520 H   0  0  0  0  0  0  0  0  0  0  0  0
   -1.4030   17.9479  -31.5042 H   0  0  0  0  0  0  0  0  0  0  0  0
   -7.0390   17.9542  -32.5686 H   0  0  0  0  0  0  0  0  0  0  0  0
   -7.7808   19.9210  -31.1965 H   0  0  0  0  0  0  0  0  0  0  0  0
   -3.7052   20.2918  -34.1163 H   0  0  0  0  0  0  0  0  0  0  0  0
   -3.3792   22.5937  -32.2344 H   0  0  0  0  0  0  0  0  0  0  0  0
   -4.3238   23.1732  -33.5686 H   0  0  0  0  0  0  0  0  0  0  0  0
   -4.4659   25.2728  -31.4268 H   0  0  0  0  0  0  0  0  0  0  0  0
   -6.1842   26.0057  -29.7439 H   0  0  0  0  0  0  0  0  0  0  0  0
   -7.9830   24.4283  -29.0114 H   0  0  0  0  0  0  0  0  0  0  0  0
   -8.0878   22.1022  -29.9675 H   0  0  0  0  0  0  0  0  0  0  0  0
  1  2  2  0
  2  3  1  0
  3  4  1  0
  4  5  1  0
  5  6  1  0
  6  7  1  0
  7  8  1  0
  8  9  1  0
  9 10  2  0
 10 11  1  0
 11 12  1  0
 12 13  2  0
 13 14  1  0
 14 15  2  0
 15 16  1  0
 15 17  1  0
 17 18  2  0
  8 19  1  0
 19 20  1  0
  2 21  1  0
 21 22  2  0
 22 23  1  0
 23 24  2  0
 24 25  1  0
 25 26  2  0
 25 27  1  0
 27 28  1  0
 28 29  2  0
 29 30  1  0
 30 31  2  0
 31 32  1  0
 32 33  2  0
 20  5  1  0
 26 21  1  0
 33 28  1  0
 18  9  1  0
 33 24  1  0
 18 12  1  0
  3 34  1  0
  3 35  1  0
  4 36  1  0
  4 37  1  0
  5 38  1  1
  6 39  1  0
  6 40  1  0
  7 41  1  0
  7 42  1  0
  8 43  1  1
 13 44  1  0
 14 45  1  0
 17 46  1  0
 19 47  1  0
 19 48  1  0
 20 49  1  0
 20 50  1  0
 22 51  1  0
 23 52  1  0
 26 53  1  0
 27 54  1  0
 27 55  1  0
 29 56  1  0
 30 57  1  0
 31 58  1  0
 32 59  1  0
M  CHG  1   5   1
M  END
>  <UniqueID>  (16) 
15

>  <SMILES>  (16) 
O=C(CC[NH+]1CCC(c2noc3ccc(F)cc23)CC1)c1ccc2c(c1)Cc1ccccc1-2

>  <Energy>  (16) 
137.9494521769652

>  <Genealogy>  (16) 
O=C(CC[NH+]1CCC(c2noc3ccc(F)cc23)CC1)c1ccc2c(c1)Cc1ccccc1-2 (protonated)
O=C(CC[NH+]1CCC(c2noc3ccc(F)cc23)CC1)c1ccc2c(c1)Cc1ccccc1-2 (3D coordinates assigned)
O=C(CC[NH+]1CCC(c2noc3ccc(F)cc23)CC1)c1ccc2c(c1)Cc1ccccc1-2 (nonaromatic ring conformer: 137.9494521769652 kcal/mol)

>  <smiles>  (16) 
O=C(CCN1CCC(c2noc3ccc(F)cc23)CC1)c1ccc2c(c1)Cc1ccccc1-2

>  <score_type>  (16) 
oracle

>  <origin>  (16) 
adg

>  <m_score__min__energy>  (16) 
-10.859999999999999

>  <m_primary>  (16) 
energy

$$$$
16:0
     RDKit          3D

 35 37  0  0  0  0  0  0  0  0999 V2000
    0.8070   19.1870  -31.7810 C   0  0  0  0  0  0  0  0  0  0  0  0
   -0.5720   19.4170  -32.3090 C   0  0  0  0  0  0  0  0  0  0  0  0
   -0.9440   19.1280  -33.5710 N   0  0  0  0  0  0  0  0  0  0  0  0
   -2.2140   19.4700  -33.7230 N   0  0  0  0  0  0  0  0  0  0  0  0
   -2.6690   19.9760  -32.5590 C   0  0  0  0  0  0  0  0  0  0  0  0
   -4.0650   20.4180  -32.3670 C   0  0  0  0  0  0  0  0  0  0  0  0
   -4.4050   21.7640  -32.5740 C   0  0  0  0  0  0  0  0  0  0  0  0
   -5.7140   22.2040  -32.3560 C   0  0  0  0  0  0  0  0  0  0  0  0
   -6.6970   21.2990  -31.9440 C   0  0  0  0  0  0  0  0  0  0  0  0
   -8.4820   21.9020  -31.6330 Br  0  0  0  0  0  0  0  0  0  0  0  0
   -6.3720   19.9500  -31.7630 C   0  0  0  0  0  0  0  0  0  0  0  0
   -5.0640   19.5090  -31.9810 C   0  0  0  0  0  0  0  0  0  0  0  0
   -1.6390   19.9730  -31.6260 C   0  0  0  0  0  0  0  0  0  0  0  0
   -1.6300   20.5010  -30.2420 C   0  0  0  0  0  0  0  0  0  0  0  0
   -1.5870   19.6850  -29.2810 O   0  0  0  0  0  0  0  0  0  0  0  0
   -1.6640   21.9540  -29.9510 C   0  0  0  0  0  0  0  0  0  0  0  0
   -0.5120   22.6010  -29.4810 C   0  0  0  0  0  0  0  0  0  0  0  0
   -0.5450   23.9590  -29.1630 C   0  0  0  0  0  0  0  0  0  0  0  0
   -1.7250   24.6930  -29.3130 C   0  0  0  0  0  0  0  0  0  0  0  0
   -1.7190   26.0400  -28.9640 O   0  0  0  0  0  0  0  0  0  0  0  0
   -2.8920   24.0690  -29.8060 C   0  0  0  0  0  0  0  0  0  0  0  0
   -4.1290   24.7950  -29.9690 N   0  0  0  0  0  0  0  0  0  0  0  0
   -4.2560   25.6690  -30.8510 O   0  0  0  0  0  0  0  0  0  0  0  0
   -5.2040   24.5300  -29.1500 O   0  0  0  0  0  0  0  0  0  0  0  0
   -2.8410   22.7020  -30.1330 C   0  0  0  0  0  0  0  0  0  0  0  0
    0.7839   19.1908  -30.6812 H   0  0  0  0  0  0  0  0  0  0  0  0
    1.1783   18.2145  -32.1366 H   0  0  0  0  0  0  0  0  0  0  0  0
    1.4738   19.9863  -32.1366 H   0  0  0  0  0  0  0  0  0  0  0  0
   -3.6372   22.4767  -32.9096 H   0  0  0  0  0  0  0  0  0  0  0  0
   -5.9707   23.2627  -32.5087 H   0  0  0  0  0  0  0  0  0  0  0  0
   -7.1472   19.2357  -31.4487 H   0  0  0  0  0  0  0  0  0  0  0  0
   -4.8156   18.4455  -31.8498 H   0  0  0  0  0  0  0  0  0  0  0  0
    0.4233   22.0343  -29.3623 H   0  0  0  0  0  0  0  0  0  0  0  0
    0.3637   24.4554  -28.7917 H   0  0  0  0  0  0  0  0  0  0  0  0
   -3.7372   22.2094  -30.5381 H   0  0  0  0  0  0  0  0  0  0  0  0
  1  2  1  0
  2  3  1  0
  3  4  1  0
  4  5  2  0
  5  6  1  0
  6  7  2  0
  7  8  1  0
  8  9  2  0
  9 10  1  0
  9 11  1  0
 11 12  2  0
  5 13  1  0
 13 14  1  0
 14 15  2  0
 14 16  1  0
 16 17  2  0
 17 18  1  0
 18 19  2  0
 19 20  1  0
 19 21  1  0
 21 22  1  0
 22 23  2  0
 22 24  1  0
 21 25  2  0
 13  2  2  0
 25 16  1  0
 12  6  1  0
  1 26  1  0
  1 27  1  0
  1 28  1  0
  7 29  1  0
  8 30  1  0
 11 31  1  0
 12 32  1  0
 17 33  1  0
 18 34  1  0
 25 35  1  0
M  CHG  4   3  -1  20  -1  22   1  24  -1
M  END
>  <UniqueID>  (17) 
16

>  <SMILES>  (17) 
Cc1[n-]nc(-c2ccc(Br)cc2)c1C(=O)c1ccc([O-])c([N+](=O)[O-])c1

>  <Energy>  (17) 
77.36792708604845

>  <Genealogy>  (17) 
Cc1[n-]nc(-c2ccc(Br)cc2)c1C(=O)c1ccc([O-])c([N+](=O)[O-])c1 (protonated)
Cc1[n-]nc(-c2ccc(Br)cc2)c1C(=O)c1ccc([O-])c([N+](=O)[O-])c1 (3D coordinates assigned)
Cc1[n-]nc(-c2ccc(Br)cc2)c1C(=O)c1ccc([O-])c([N+](=O)[O-])c1 (optimized conformer: 77.36792708604845 kcal/mol)

>  <smiles>  (17) 
Cc1[nH]nc(-c2ccc(Br)cc2)c1C(=O)c1ccc(O)c([N+](=O)[O-])c1

>  <score_type>  (17) 
oracle

>  <origin>  (17) 
adg

>  <m_score__min__energy>  (17) 
-11.44

>  <m_primary>  (17) 
energy

$$$$
17:0
     RDKit          3D

 16 15  0  0  0  0  0  0  0  0999 V2000
   -9.0770   20.4050  -32.1840 C   0  0  0  0  0  0  0  0  0  0  0  0
   -9.0640   21.8250  -31.6200 C   0  0  0  0  0  0  0  0  0  0  0  0
   -7.6970   22.2220  -31.0360 C   0  0  0  0  0  0  0  0  0  0  0  0
   -7.0760   23.4560  -31.7040 C   0  0  0  0  0  0  0  0  0  0  0  0
   -6.5490   24.3730  -30.6980 N   0  0  0  0  0  0  0  0  0  0  0  0
   -5.3680   24.8430  -30.7710 C   0  0  0  0  0  0  0  0  0  0  0  0
   -4.2210   25.3000  -30.8420 O   0  0  0  0  0  0  0  0  0  0  0  0
   -9.0836   19.6815  -31.3555 H   0  0  0  0  0  0  0  0  0  0  0  0
   -9.9765   20.2639  -32.8013 H   0  0  0  0  0  0  0  0  0  0  0  0
   -8.1803   20.2474  -32.8013 H   0  0  0  0  0  0  0  0  0  0  0  0
   -9.3180   22.5265  -32.4283 H   0  0  0  0  0  0  0  0  0  0  0  0
   -9.7976   21.8629  -30.8012 H   0  0  0  0  0  0  0  0  0  0  0  0
   -7.8257   22.4349  -29.9645 H   0  0  0  0  0  0  0  0  0  0  0  0
   -7.0130   21.3798  -31.2173 H   0  0  0  0  0  0  0  0  0  0  0  0
   -6.2576   23.1358  -32.3656 H   0  0  0  0  0  0  0  0  0  0  0  0
   -7.8533   23.9744  -32.2846 H   0  0  0  0  0  0  0  0  0  0  0  0
  1  2  1  0
  2  3  1  0
  3  4  1  0
  4  5  1  0
  5  6  2  0
  6  7  2  0
  1  8  1  0
  1  9  1  0
  1 10  1  0
  2 11  1  0
  2 12  1  0
  3 13  1  0
  3 14  1  0
  4 15  1  0
  4 16  1  0
M  END
>  <UniqueID>  (18) 
17

>  <SMILES>  (18) 
CCCCN=C=O

>  <Energy>  (18) 
4.489318378851267

>  <Genealogy>  (18) 
CCCCN=C=O (3D coordinates assigned)
CCCCN=C=O (optimized conformer: 4.489318378851267 kcal/mol)

>  <smiles>  (18) 
CCCCN=C=O

>  <score_type>  (18) 
oracle

>  <origin>  (18) 
adg

>  <m_score__min__energy>  (18) 
-3.54

>  <m_primary>  (18) 
energy

$$$$
18:0
     RDKit          3D

 38 39  0  0  0  0  0  0  0  0999 V2000
   -3.0830   21.1890  -33.2170 C   0  0  0  0  0  0  0  0  0  0  0  0
   -4.3950   21.4500  -32.7280 O   0  0  0  0  0  0  0  0  0  0  0  0
   -5.4570   20.5320  -32.7690 C   0  0  0  0  0  0  0  0  0  0  0  0
   -5.3320   19.2790  -33.4040 C   0  0  0  0  0  0  0  0  0  0  0  0
   -6.3990   18.3790  -33.4100 C   0  0  0  0  0  0  0  0  0  0  0  0
   -7.6010   18.7120  -32.7840 C   0  0  0  0  0  0  0  0  0  0  0  0
   -7.7400   19.9510  -32.1530 C   0  0  0  0  0  0  0  0  0  0  0  0
   -6.6800   20.8720  -32.1520 C   0  0  0  0  0  0  0  0  0  0  0  0
   -6.8430   22.1900  -31.4320 C   0  0  0  0  0  0  0  0  0  0  0  0
   -5.8640   23.1700  -31.9250 N   0  0  0  0  0  0  0  0  0  0  0  0
   -6.2780   24.5360  -31.5770 C   0  0  0  0  0  0  0  0  0  0  0  0
   -5.1750   25.2490  -30.8550 C   0  0  0  0  0  0  0  0  0  0  0  0
   -5.4100   26.3530  -30.2930 O   0  0  0  0  0  0  0  0  0  0  0  0
   -3.8660   24.6690  -30.8210 N   0  0  0  0  0  0  0  0  0  0  0  0
   -3.4270   23.5880  -29.9840 C   0  0  0  0  0  0  0  0  0  0  0  0
   -4.0640   23.3940  -28.7510 C   0  0  0  0  0  0  0  0  0  0  0  0
   -3.6560   22.3650  -27.8960 C   0  0  0  0  0  0  0  0  0  0  0  0
   -2.5960   21.5300  -28.2620 C   0  0  0  0  0  0  0  0  0  0  0  0
   -2.0380   20.1260  -27.0930 Br  0  0  0  0  0  0  0  0  0  0  0  0
   -1.9390   21.7320  -29.4790 C   0  0  0  0  0  0  0  0  0  0  0  0
   -2.3440   22.7610  -30.3360 C   0  0  0  0  0  0  0  0  0  0  0  0
   -2.3960   21.0523  -32.3688 H   0  0  0  0  0  0  0  0  0  0  0  0
   -3.0951   20.2757  -33.8299 H   0  0  0  0  0  0  0  0  0  0  0  0
   -2.7446   22.0374  -33.8299 H   0  0  0  0  0  0  0  0  0  0  0  0
   -4.3870   19.0090  -33.8981 H   0  0  0  0  0  0  0  0  0  0  0  0
   -6.2921   17.4048  -33.9095 H   0  0  0  0  0  0  0  0  0  0  0  0
   -8.4389   17.9993  -32.7873 H   0  0  0  0  0  0  0  0  0  0  0  0
   -8.6862   20.2066  -31.6537 H   0  0  0  0  0  0  0  0  0  0  0  0
   -7.8590   22.5743  -31.6057 H   0  0  0  0  0  0  0  0  0  0  0  0
   -6.6768   22.0310  -30.3563 H   0  0  0  0  0  0  0  0  0  0  0  0
   -5.7890   23.0880  -32.9680 H   0  0  0  0  0  0  0  0  0  0  0  0
   -4.9300   22.9720  -31.4940 H   0  0  0  0  0  0  0  0  0  0  0  0
   -6.5232   25.0859  -32.4976 H   0  0  0  0  0  0  0  0  0  0  0  0
   -7.1592   24.4852  -30.9206 H   0  0  0  0  0  0  0  0  0  0  0  0
   -4.8908   24.0557  -28.4534 H   0  0  0  0  0  0  0  0  0  0  0  0
   -4.1694   22.2126  -26.9351 H   0  0  0  0  0  0  0  0  0  0  0  0
   -1.1005   21.0796  -29.7640 H   0  0  0  0  0  0  0  0  0  0  0  0
   -1.8150   22.9240  -31.2866 H   0  0  0  0  0  0  0  0  0  0  0  0
  1  2  1  0
  2  3  1  0
  3  4  2  0
  4  5  1  0
  5  6  2  0
  6  7  1  0
  7  8  2  0
  8  9  1  0
  9 10  1  0
 10 11  1  0
 11 12  1  0
 12 13  2  0
 12 14  1  0
 14 15  1  0
 15 16  2  0
 16 17  1  0
 17 18  2  0
 18 19  1  0
 18 20  1  0
 20 21  2  0
  8  3  1  0
 21 15  1  0
  1 22  1  0
  1 23  1  0
  1 24  1  0
  4 25  1  0
  5 26  1  0
  6 27  1  0
  7 28  1  0
  9 29  1  0
  9 30  1  0
 10 31  1  0
 10 32  1  0
 11 33  1  0
 11 34  1  0
 16 35  1  0
 17 36  1  0
 20 37  1  0
 21 38  1  0
M  CHG  2  10   1  14  -1
M  END
>  <UniqueID>  (19) 
18

>  <SMILES>  (19) 
COc1ccccc1C[NH2+]CC(=O)[N-]c1ccc(Br)cc1

>  <Energy>  (19) 
38.816125637417564

>  <Genealogy>  (19) 
COc1ccccc1C[NH2+]CC(=O)[N-]c1ccc(Br)cc1 (protonated)
COc1ccccc1C[NH2+]CC(=O)[N-]c1ccc(Br)cc1 (3D coordinates assigned)
COc1ccccc1C[NH2+]CC(=O)[N-]c1ccc(Br)cc1 (optimized conformer: 38.816125637417564 kcal/mol)

>  <smiles>  (19) 
COc1ccccc1CNCC(=O)Nc1ccc(Br)cc1

>  <score_type>  (19) 
oracle

>  <origin>  (19) 
adg

>  <m_score__min__energy>  (19) 
-8.9499999999999993

>  <m_primary>  (19) 
energy

$$$$
19:0
     RDKit          3D

 54 57  0  0  0  0  0  0  0  0999 V2000
   -6.7010   24.6550  -30.4120 C   0  0  0  0  0  0  0  0  0  0  0  0
   -5.1590   25.6180  -30.4690 S   0  0  0  0  0  0  0  0  0  0  0  0
   -4.1430   24.2420  -29.9430 C   0  0  0  0  0  0  0  0  0  0  0  0
   -4.7200   22.9960  -29.6830 C   0  0  0  0  0  0  0  0  0  0  0  0
   -3.9070   21.9390  -29.2670 C   0  0  0  0  0  0  0  0  0  0  0  0
   -2.5240   22.1270  -29.1270 C   0  0  0  0  0  0  0  0  0  0  0  0
   -1.6640   21.0130  -28.6700 C   0  0  0  0  0  0  0  0  0  0  0  0
   -1.9370   20.4060  -27.4810 N   0  0  0  0  0  0  0  0  0  0  0  0
   -1.1560   19.4100  -26.9920 C   0  0  0  0  0  0  0  0  0  0  0  0
   -0.0390   18.9970  -27.7160 C   0  0  0  0  0  0  0  0  0  0  0  0
    0.2340   19.5800  -28.9100 N   0  0  0  0  0  0  0  0  0  0  0  0
   -0.5550   20.5700  -29.4160 C   0  0  0  0  0  0  0  0  0  0  0  0
   -0.2850   21.1200  -30.6740 O   0  0  0  0  0  0  0  0  0  0  0  0
   -0.6170   20.4830  -31.9080 C   0  0  0  0  0  0  0  0  0  0  0  0
   -1.7050   19.4270  -31.6400 C   0  0  0  0  0  0  0  0  0  0  0  0
   -3.0960   20.0640  -31.6910 C   0  0  0  0  0  0  0  0  0  0  0  0
   -3.3960   20.5880  -33.0430 N   0  0  0  0  0  0  0  0  0  0  0  0
   -4.5620   21.4990  -33.0700 C   0  0  0  0  0  0  0  0  0  0  0  0
   -5.8730   20.7990  -32.8050 C   0  0  0  0  0  0  0  0  0  0  0  0
   -6.0500   19.4490  -33.1450 C   0  0  0  0  0  0  0  0  0  0  0  0
   -7.2660   18.8240  -32.8640 C   0  0  0  0  0  0  0  0  0  0  0  0
   -8.2920   19.5430  -32.2510 C   0  0  0  0  0  0  0  0  0  0  0  0
   -8.0930   20.8960  -31.9420 C   0  0  0  0  0  0  0  0  0  0  0  0
   -9.1620   21.6810  -31.2540 C   0  0  0  0  0  0  0  0  0  0  0  0
   -6.8970   21.4820  -32.2230 N   0  0  0  0  0  0  0  0  0  0  0  0
   -2.2250   21.0660  -33.8220 C   0  0  0  0  0  0  0  0  0  0  0  0
   -1.0740   21.5530  -32.9280 C   0  0  0  0  0  0  0  0  0  0  0  0
   -1.9930   23.4040  -29.3800 C   0  0  0  0  0  0  0  0  0  0  0  0
   -2.8050   24.4180  -29.7780 N   0  0  0  0  0  0  0  0  0  0  0  0
   -6.9843   24.4781  -29.3639 H   0  0  0  0  0  0  0  0  0  0  0  0
   -7.5014   25.2141  -30.9188 H   0  0  0  0  0  0  0  0  0  0  0  0
   -6.5499   23.6905  -30.9188 H   0  0  0  0  0  0  0  0  0  0  0  0
   -5.8033   22.8491  -29.8047 H   0  0  0  0  0  0  0  0  0  0  0  0
   -4.3523   20.9571  -29.0487 H   0  0  0  0  0  0  0  0  0  0  0  0
   -1.4024   18.9325  -26.0322 H   0  0  0  0  0  0  0  0  0  0  0  0
    0.6155   18.2052  -27.3226 H   0  0  0  0  0  0  0  0  0  0  0  0
    0.2560   19.9704  -32.3381 H   0  0  0  0  0  0  0  0  0  0  0  0
   -1.6399   18.6385  -32.4042 H   0  0  0  0  0  0  0  0  0  0  0  0
   -1.5464   18.9996  -30.6389 H   0  0  0  0  0  0  0  0  0  0  0  0
   -3.8476   19.3061  -31.4250 H   0  0  0  0  0  0  0  0  0  0  0  0
   -3.1214   20.9022  -30.9791 H   0  0  0  0  0  0  0  0  0  0  0  0
   -4.4181   22.2732  -32.3019 H   0  0  0  0  0  0  0  0  0  0  0  0
   -4.6191   21.9252  -34.0825 H   0  0  0  0  0  0  0  0  0  0  0  0
   -5.2370   18.8879  -33.6290 H   0  0  0  0  0  0  0  0  0  0  0  0
   -7.4149   17.7660  -33.1256 H   0  0  0  0  0  0  0  0  0  0  0  0
   -9.2477   19.0534  -32.0124 H   0  0  0  0  0  0  0  0  0  0  0  0
   -9.0394   21.5910  -30.1646 H   0  0  0  0  0  0  0  0  0  0  0  0
   -9.0852   22.7389  -31.5455 H   0  0  0  0  0  0  0  0  0  0  0  0
  -10.1484   21.2911  -31.5455 H   0  0  0  0  0  0  0  0  0  0  0  0
   -1.8582   20.2393  -34.4481 H   0  0  0  0  0  0  0  0  0  0  0  0
   -2.5576   21.9210  -34.4290 H   0  0  0  0  0  0  0  0  0  0  0  0
   -0.2191   21.8174  -33.5677 H   0  0  0  0  0  0  0  0  0  0  0  0
   -1.4393   22.4204  -32.3587 H   0  0  0  0  0  0  0  0  0  0  0  0
   -0.9149   23.5830  -29.2551 H   0  0  0  0  0  0  0  0  0  0  0  0
  1  2  1  0
  2  3  1  0
  3  4  2  0
  4  5  1  0
  5  6  2  0
  6  7  1  0
  7  8  2  0
  8  9  1  0
  9 10  2  0
 10 11  1  0
 11 12  2  0
 12 13  1  0
 13 14  1  0
 14 15  1  0
 15 16  1  0
 16 17  1  0
 17 18  1  0
 18 19  1  0
 19 20  2  0
 20 21  1  0
 21 22  2  0
 22 23  1  0
 23 24  1  0
 23 25  2  0
 17 26  1  0
 26 27  1  0
  6 28  1  0
 28 29  2  0
 29  3  1  0
 12  7  1  0
 27 14  1  0
 25 19  1  0
  1 30  1  0
  1 31  1  0
  1 32  1  0
  4 33  1  0
  5 34  1  0
  9 35  1  0
 10 36  1  0
 14 37  1  0
 15 38  1  0
 15 39  1  0
 16 40  1  0
 16 41  1  0
 18 42  1  0
 18 43  1  0
 20 44  1  0
 21 45  1  0
 22 46  1  0
 24 47  1  0
 24 48  1  0
 24 49  1  0
 26 50  1  0
 26 51  1  0
 27 52  1  0
 27 53  1  0
 28 54  1  0
M  END
>  <UniqueID>  (20) 
19

>  <SMILES>  (20) 
CSc1ccc(-c2nccnc2OC2CCN(Cc3cccc(C)n3)CC2)cn1

>  <Energy>  (20) 
65.01630640800153

>  <Genealogy>  (20) 
CSc1ccc(-c2nccnc2OC2CCN(Cc3cccc(C)n3)CC2)cn1 (3D coordinates assigned)
CSc1ccc(-c2nccnc2OC2CCN(Cc3cccc(C)n3)CC2)cn1 (nonaromatic ring conformer: 65.01630640800153 kcal/mol)

>  <smiles>  (20) 
CSc1ccc(-c2nccnc2OC2CCN(Cc3cccc(C)n3)CC2)cn1

>  <score_type>  (20) 
oracle

>  <origin>  (20) 
adg

>  <m_score__min__energy>  (20) 
-9.2300000000000004

>  <m_primary>  (20) 
energy

$$$$
20:0
     RDKit          3D

 44 47  0  0  0  0  0  0  0  0999 V2000
   -0.8570   26.1010  -24.4780 C   0  0  0  0  0  0  0  0  0  0  0  0
   -0.5490   25.4440  -25.7050 O   0  0  0  0  0  0  0  0  0  0  0  0
   -1.5010   25.0920  -26.6730 C   0  0  0  0  0  0  0  0  0  0  0  0
   -1.0750   24.9320  -27.9960 C   0  0  0  0  0  0  0  0  0  0  0  0
   -1.9830   24.5820  -28.9980 C   0  0  0  0  0  0  0  0  0  0  0  0
   -3.3410   24.3810  -28.6960 C   0  0  0  0  0  0  0  0  0  0  0  0
   -4.2660   24.0200  -29.7440 N   0  0  0  0  0  0  0  0  0  0  0  0
   -5.0550   22.9290  -29.8150 C   0  0  0  0  0  0  0  0  0  0  0  0
   -5.7450   23.0230  -31.0070 C   0  0  0  0  0  0  0  0  0  0  0  0
   -6.7540   22.0720  -31.5360 C   0  0  0  0  0  0  0  0  0  0  0  0
   -8.1120   22.2510  -31.2130 C   0  0  0  0  0  0  0  0  0  0  0  0
   -9.0880   21.4040  -31.7410 C   0  0  0  0  0  0  0  0  0  0  0  0
   -8.7250   20.3660  -32.5990 C   0  0  0  0  0  0  0  0  0  0  0  0
   -7.3830   20.1680  -32.9250 C   0  0  0  0  0  0  0  0  0  0  0  0
   -6.3910   21.0060  -32.3950 C   0  0  0  0  0  0  0  0  0  0  0  0
   -5.0170   20.7280  -32.6960 N   0  0  0  0  0  0  0  0  0  0  0  0
   -4.1160   21.7230  -33.2450 C   0  0  0  0  0  0  0  0  0  0  0  0
   -2.7180   21.1320  -33.0950 C   0  0  0  0  0  0  0  0  0  0  0  0
   -2.9190   19.6470  -32.7900 C   0  0  0  0  0  0  0  0  0  0  0  0
   -4.3430   19.5170  -32.2690 C   0  0  0  0  0  0  0  0  0  0  0  0
   -5.3650   24.1620  -31.6200 N   0  0  0  0  0  0  0  0  0  0  0  0
   -4.4690   24.7410  -30.8360 N   0  0  0  0  0  0  0  0  0  0  0  0
   -3.7690   24.5460  -27.3650 C   0  0  0  0  0  0  0  0  0  0  0  0
   -2.8590   24.8970  -26.3640 C   0  0  0  0  0  0  0  0  0  0  0  0
   -0.5573   25.4617  -23.6345 H   0  0  0  0  0  0  0  0  0  0  0  0
   -0.3125   27.0554  -24.4263 H   0  0  0  0  0  0  0  0  0  0  0  0
   -1.9389   26.2929  -24.4263 H   0  0  0  0  0  0  0  0  0  0  0  0
   -0.0153   25.0832  -28.2494 H   0  0  0  0  0  0  0  0  0  0  0  0
   -1.6319   24.4625  -30.0336 H   0  0  0  0  0  0  0  0  0  0  0  0
   -5.1334   22.1232  -29.0703 H   0  0  0  0  0  0  0  0  0  0  0  0
   -8.4076   23.0671  -30.5372 H   0  0  0  0  0  0  0  0  0  0  0  0
  -10.1457   21.5556  -31.4798 H   0  0  0  0  0  0  0  0  0  0  0  0
   -9.4966   19.7037  -33.0185 H   0  0  0  0  0  0  0  0  0  0  0  0
   -7.1009   19.3487  -33.6026 H   0  0  0  0  0  0  0  0  0  0  0  0
   -4.3447   21.9056  -34.3054 H   0  0  0  0  0  0  0  0  0  0  0  0
   -4.2091   22.6888  -32.7267 H   0  0  0  0  0  0  0  0  0  0  0  0
   -2.1481   21.2570  -34.0275 H   0  0  0  0  0  0  0  0  0  0  0  0
   -2.1516   21.6343  -32.2970 H   0  0  0  0  0  0  0  0  0  0  0  0
   -2.7896   19.0479  -33.7034 H   0  0  0  0  0  0  0  0  0  0  0  0
   -2.1855   19.2827  -32.0556 H   0  0  0  0  0  0  0  0  0  0  0  0
   -4.8320   18.6310  -32.7002 H   0  0  0  0  0  0  0  0  0  0  0  0
   -4.3710   19.3948  -31.1762 H   0  0  0  0  0  0  0  0  0  0  0  0
   -4.8288   24.3974  -27.1107 H   0  0  0  0  0  0  0  0  0  0  0  0
   -3.2072   25.0215  -25.3280 H   0  0  0  0  0  0  0  0  0  0  0  0
  1  2  1  0
  2  3  1  0
  3  4  2  0
  4  5  1  0
  5  6  2  0
  6  7  1  0
  7  8  1  0
  8  9  2  0
  9 10  1  0
 10 11  2  0
 11 12  1  0
 12 13  2  0
 13 14  1  0
 14 15  2  0
 15 16  1  0
 16 17  1  0
 17 18  1  0
 18 19  1  0
 19 20  1  0
  9 21  1  0
 21 22  2  0
  6 23  1  0
 23 24  2  0
 24  3  1  0
 22  7  1  0
 15 10  1  0
 20 16  1  0
  1 25  1  0
  1 26  1  0
  1 27  1  0
  4 28  1  0
  5 29  1  0
  8 30  1  0
 11 31  1  0
 12 32  1  0
 13 33  1  0
 14 34  1  0
 17 35  1  0
 17 36  1  0
 18 37  1  0
 18 38  1  0
 19 39  1  0
 19 40  1  0
 20 41  1  0
 20 42  1  0
 23 43  1  0
 24 44  1  0
M  END
>  <UniqueID>  (21) 
20

>  <SMILES>  (21) 
COc1ccc(-n2cc(-c3ccccc3N3CCCC3)nn2)cc1

>  <Energy>  (21) 
92.51074318149274

>  <Genealogy>  (21) 
COc1ccc(-n2cc(-c3ccccc3N3CCCC3)nn2)cc1 (3D coordinates assigned)
COc1ccc(-n2cc(-c3ccccc3N3CCCC3)nn2)cc1 (nonaromatic ring conformer: 92.51074318149274 kcal/mol)

>  <smiles>  (21) 
COc1ccc(-n2cc(-c3ccccc3N3CCCC3)nn2)cc1

>  <score_type>  (21) 
oracle

>  <origin>  (21) 
adg

>  <m_score__min__energy>  (21) 
-8.8699999999999992

>  <m_primary>  (21) 
energy

$$$$
21:0
     RDKit          3D

 15 15  0  0  0  0  0  0  0  0999 V2000
   -2.4050   24.5630  -28.8030 C   0  0  0  0  0  0  0  0  0  0  0  0
   -3.2090   25.2970  -29.7190 O   0  0  0  0  0  0  0  0  0  0  0  0
   -4.4350   24.8230  -30.1980 C   0  0  0  0  0  0  0  0  0  0  0  0
   -5.6230   25.2860  -29.6230 C   0  0  0  0  0  0  0  0  0  0  0  0
   -6.8460   24.8120  -30.1030 C   0  0  0  0  0  0  0  0  0  0  0  0
   -6.8710   23.8840  -31.1470 C   0  0  0  0  0  0  0  0  0  0  0  0
   -5.6650   23.4440  -31.6980 C   0  0  0  0  0  0  0  0  0  0  0  0
   -4.4840   23.9180  -31.2170 N   0  0  0  0  0  0  0  0  0  0  0  0
   -2.6909   24.8240  -27.7734 H   0  0  0  0  0  0  0  0  0  0  0  0
   -2.5568   23.4854  -28.9637 H   0  0  0  0  0  0  0  0  0  0  0  0
   -1.3457   24.8120  -28.9637 H   0  0  0  0  0  0  0  0  0  0  0  0
   -5.5944   26.0162  -28.8009 H   0  0  0  0  0  0  0  0  0  0  0  0
   -7.7875   25.1686  -29.6599 H   0  0  0  0  0  0  0  0  0  0  0  0
   -7.8293   23.5041  -31.5308 H   0  0  0  0  0  0  0  0  0  0  0  0
   -5.6703   22.7141  -32.5210 H   0  0  0  0  0  0  0  0  0  0  0  0
  1  2  1  0
  2  3  1  0
  3  4  2  0
  4  5  1  0
  5  6  2  0
  6  7  1  0
  7  8  2  0
  8  3  1  0
  1  9  1  0
  1 10  1  0
  1 11  1  0
  4 12  1  0
  5 13  1  0
  6 14  1  0
  7 15  1  0
M  END
>  <UniqueID>  (22) 
21

>  <SMILES>  (22) 
COc1ccccn1

>  <Energy>  (22) 
11.998698431683499

>  <Genealogy>  (22) 
COc1ccccn1 (3D coordinates assigned)
COc1ccccn1 (optimized conformer: 11.998698431683499 kcal/mol)

>  <smiles>  (22) 
COc1ccccn1

>  <score_type>  (22) 
oracle

>  <origin>  (22) 
adg

>  <m_score__min__energy>  (22) 
-4.4100000000000001

>  <m_primary>  (22) 
energy

$$$$
22:0
     RDKit          3D

 47 50  0  0  1  0  0  0  0  0999 V2000
   -1.3890   24.8040  -28.5000 C   0  0  0  0  0  0  0  0  0  0  0  0
   -2.3730   25.2930  -29.3620 O   0  0  0  0  0  0  0  0  0  0  0  0
   -3.5840   24.7260  -29.6460 C   0  0  0  0  0  0  0  0  0  0  0  0
   -3.8620   23.4860  -29.0840 C   0  0  0  0  0  0  0  0  0  0  0  0
   -5.0580   22.8390  -29.3150 C   0  0  0  0  0  0  0  0  0  0  0  0
   -6.0080   23.4290  -30.1200 C   0  0  0  0  0  0  0  0  0  0  0  0
   -7.2950   22.7170  -30.3600 C   0  0  0  0  0  0  0  0  0  0  0  0
   -8.0680   23.3300  -31.5340 C   0  0  0  0  0  0  0  0  0  0  0  0
   -7.5330   22.6570  -32.7150 N   0  0  0  0  0  0  0  0  0  0  0  0
   -6.7270   21.6700  -32.6120 C   0  0  0  0  0  0  0  0  0  0  0  0
   -5.3920   21.8590  -32.7040 N   0  0  0  0  0  0  0  0  0  0  0  0
   -4.5410   20.8250  -32.5960 C   0  0  0  0  0  0  0  0  0  0  0  0
   -3.0930   20.9550  -32.6860 C   0  0  0  0  0  0  0  0  0  0  0  0
   -2.4070   20.6010  -33.8530 C   0  0  0  0  0  0  0  0  0  0  0  0
   -1.0380   20.7160  -33.9590 C   0  0  0  0  0  0  0  0  0  0  0  0
   -0.3030   21.1860  -32.9100 N   0  0  0  0  0  0  0  0  0  0  0  0
   -0.9390   21.5350  -31.7770 C   0  0  0  0  0  0  0  0  0  0  0  0
   -2.3050   21.4250  -31.6560 C   0  0  0  0  0  0  0  0  0  0  0  0
   -5.0580   19.6000  -32.3920 N   0  0  0  0  0  0  0  0  0  0  0  0
   -6.3730   19.3560  -32.2920 C   0  0  0  0  0  0  0  0  0  0  0  0
   -6.8380   18.0940  -32.0860 C   0  0  0  0  0  0  0  0  0  0  0  0
   -8.2180   17.9150  -31.9930 C   0  0  0  0  0  0  0  0  0  0  0  0
   -9.1000   18.9740  -32.1030 C   0  0  0  0  0  0  0  0  0  0  0  0
   -8.6100   20.2350  -32.3110 C   0  0  0  0  0  0  0  0  0  0  0  0
   -7.2480   20.4230  -32.4050 C   0  0  0  0  0  0  0  0  0  0  0  0
   -5.7640   24.6730  -30.7010 C   0  0  0  0  0  0  0  0  0  0  0  0
   -4.5590   25.2730  -30.4400 C   0  0  0  0  0  0  0  0  0  0  0  0
   -1.7039   24.9605  -27.4577 H   0  0  0  0  0  0  0  0  0  0  0  0
   -1.2437   23.7289  -28.6817 H   0  0  0  0  0  0  0  0  0  0  0  0
   -0.4443   25.3375  -28.6817 H   0  0  0  0  0  0  0  0  0  0  0  0
   -3.1097   23.0086  -28.4390 H   0  0  0  0  0  0  0  0  0  0  0  0
   -5.2524   21.8571  -28.8589 H   0  0  0  0  0  0  0  0  0  0  0  0
   -7.0826   21.6613  -30.5846 H   0  0  0  0  0  0  0  0  0  0  0  0
   -7.9134   22.8090  -29.4550 H   0  0  0  0  0  0  0  0  0  0  0  0
   -9.1463   23.1381  -31.4321 H   0  0  0  0  0  0  0  0  0  0  0  0
   -7.9519   24.4226  -31.5865 H   0  0  0  0  0  0  0  0  0  0  0  0
   -5.0190   22.8210  -32.8620 H   0  0  0  0  0  0  0  0  0  0  0  0
   -2.9781   20.2192  -34.7121 H   0  0  0  0  0  0  0  0  0  0  0  0
   -0.5353   20.4275  -34.8939 H   0  0  0  0  0  0  0  0  0  0  0  0
   -0.3534   21.9171  -30.9279 H   0  0  0  0  0  0  0  0  0  0  0  0
   -2.7828   21.7205  -30.7103 H   0  0  0  0  0  0  0  0  0  0  0  0
   -6.1477   17.2423  -31.9957 H   0  0  0  0  0  0  0  0  0  0  0  0
   -8.6158   16.9029  -31.8275 H   0  0  0  0  0  0  0  0  0  0  0  0
  -10.1841   18.8049  -32.0242 H   0  0  0  0  0  0  0  0  0  0  0  0
   -9.2964   21.0897  -32.4022 H   0  0  0  0  0  0  0  0  0  0  0  0
   -6.5123   25.1562  -31.3464 H   0  0  0  0  0  0  0  0  0  0  0  0
   -4.3622   26.2545  -30.8961 H   0  0  0  0  0  0  0  0  0  0  0  0
  1  2  1  0
  2  3  1  0
  3  4  2  0
  4  5  1  0
  5  6  2  0
  6  7  1  0
  7  8  1  0
  8  9  1  0
  9 10  2  0
 10 11  1  0
 11 12  1  0
 12 13  1  0
 13 14  2  0
 14 15  1  0
 15 16  2  0
 16 17  1  0
 17 18  2  0
 12 19  2  0
 19 20  1  0
 20 21  2  0
 21 22  1  0
 22 23  2  0
 23 24  1  0
 24 25  2  0
  6 26  1  0
 26 27  2  0
 27  3  1  0
 25 10  1  0
 18 13  1  0
 25 20  1  0
  1 28  1  0
  1 29  1  0
  1 30  1  0
  4 31  1  0
  5 32  1  0
  7 33  1  0
  7 34  1  0
  8 35  1  0
  8 36  1  0
 11 37  1  0
 14 38  1  0
 15 39  1  0
 17 40  1  0
 18 41  1  0
 21 42  1  0
 22 43  1  0
 23 44  1  0
 24 45  1  0
 26 46  1  0
 27 47  1  0
M  END
>  <smiles>  (23) 
COc1ccc(CCN=c2[nH]c(-c3ccncc3)nc3ccccc23)cc1

>  <score_type>  (23) 
oracle

>  <origin>  (23) 
adg

>  <m_score__min__energy>  (23) 
-9.2799999999999994

>  <m_primary>  (23) 
energy

$$$$
23:0
     RDKit          3D

 48 50  0  0  0  0  0  0  0  0999 V2000
   -0.4530   23.9700  -24.7840 C   0  0  0  0  0  0  0  0  0  0  0  0
   -0.8540   23.1360  -25.8660 O   0  0  0  0  0  0  0  0  0  0  0  0
   -1.4950   23.5970  -27.0250 C   0  0  0  0  0  0  0  0  0  0  0  0
   -0.8530   23.6410  -28.2770 C   0  0  0  0  0  0  0  0  0  0  0  0
   -1.5370   24.1100  -29.4030 C   0  0  0  0  0  0  0  0  0  0  0  0
   -2.8580   24.5570  -29.2960 C   0  0  0  0  0  0  0  0  0  0  0  0
   -3.5330   25.0060  -30.4790 N   0  0  0  0  0  0  0  0  0  0  0  0
   -4.9210   24.8020  -30.7870 C   0  0  0  0  0  0  0  0  0  0  0  0
   -5.7400   25.7570  -30.6880 O   0  0  0  0  0  0  0  0  0  0  0  0
   -5.3790   23.5130  -31.2580 N   0  0  0  0  0  0  0  0  0  0  0  0
   -4.8600   22.4280  -30.3940 C   0  0  0  0  0  0  0  0  0  0  0  0
   -3.6420   21.7660  -31.0000 C   0  0  0  0  0  0  0  0  0  0  0  0
   -2.7070   21.1100  -30.1800 C   0  0  0  0  0  0  0  0  0  0  0  0
   -1.5660   20.5280  -30.7420 C   0  0  0  0  0  0  0  0  0  0  0  0
   -1.3480   20.6010  -32.1200 C   0  0  0  0  0  0  0  0  0  0  0  0
   -2.2690   21.2590  -32.9400 C   0  0  0  0  0  0  0  0  0  0  0  0
   -3.4110   21.8420  -32.3830 C   0  0  0  0  0  0  0  0  0  0  0  0
   -6.8600   23.4730  -31.2950 C   0  0  0  0  0  0  0  0  0  0  0  0
   -7.3730   22.1120  -31.7090 C   0  0  0  0  0  0  0  0  0  0  0  0
   -6.7130   21.3830  -32.7100 C   0  0  0  0  0  0  0  0  0  0  0  0
   -7.2100   20.1410  -33.1220 C   0  0  0  0  0  0  0  0  0  0  0  0
   -8.3720   19.6250  -32.5420 C   0  0  0  0  0  0  0  0  0  0  0  0
   -9.0400   20.3490  -31.5500 C   0  0  0  0  0  0  0  0  0  0  0  0
   -8.5450   21.5880  -31.1340 C   0  0  0  0  0  0  0  0  0  0  0  0
   -3.5070   24.4930  -28.0500 C   0  0  0  0  0  0  0  0  0  0  0  0
   -2.8240   24.0220  -26.9250 C   0  0  0  0  0  0  0  0  0  0  0  0
   -0.6913   23.4745  -23.8313 H   0  0  0  0  0  0  0  0  0  0  0  0
    0.6305   24.1507  -24.8424 H   0  0  0  0  0  0  0  0  0  0  0  0
   -0.9884   24.9291  -24.8424 H   0  0  0  0  0  0  0  0  0  0  0  0
    0.1904   23.3053  -28.3700 H   0  0  0  0  0  0  0  0  0  0  0  0
   -1.0323   24.1275  -30.3802 H   0  0  0  0  0  0  0  0  0  0  0  0
   -5.0260   23.3530  -32.2320 H   0  0  0  0  0  0  0  0  0  0  0  0
   -4.5867   22.8507  -29.4159 H   0  0  0  0  0  0  0  0  0  0  0  0
   -5.6473   21.6672  -30.2878 H   0  0  0  0  0  0  0  0  0  0  0  0
   -2.8732   21.0544  -29.0941 H   0  0  0  0  0  0  0  0  0  0  0  0
   -0.8390   20.0119  -30.0978 H   0  0  0  0  0  0  0  0  0  0  0  0
   -0.4511   20.1404  -32.5599 H   0  0  0  0  0  0  0  0  0  0  0  0
   -2.0951   21.3182  -34.0246 H   0  0  0  0  0  0  0  0  0  0  0  0
   -4.1317   22.3625  -33.0308 H   0  0  0  0  0  0  0  0  0  0  0  0
   -7.2481   23.7107  -30.2935 H   0  0  0  0  0  0  0  0  0  0  0  0
   -7.2043   24.2091  -32.0363 H   0  0  0  0  0  0  0  0  0  0  0  0
   -5.8015   21.7892  -33.1727 H   0  0  0  0  0  0  0  0  0  0  0  0
   -6.6855   19.5707  -33.9029 H   0  0  0  0  0  0  0  0  0  0  0  0
   -8.7613   18.6486  -32.8662 H   0  0  0  0  0  0  0  0  0  0  0  0
   -9.9562   19.9430  -31.0964 H   0  0  0  0  0  0  0  0  0  0  0  0
   -9.0738   22.1555  -30.3541 H   0  0  0  0  0  0  0  0  0  0  0  0
   -4.5551   24.8145  -27.9605 H   0  0  0  0  0  0  0  0  0  0  0  0
   -3.3362   23.9852  -25.9522 H   0  0  0  0  0  0  0  0  0  0  0  0
  1  2  1  0
  2  3  1  0
  3  4  2  0
  4  5  1  0
  5  6  2  0
  6  7  1  0
  7  8  1  0
  8  9  2  0
  8 10  1  0
 10 11  1  0
 11 12  1  0
 12 13  2  0
 13 14  1  0
 14 15  2  0
 15 16  1  0
 16 17  2  0
 10 18  1  0
 18 19  1  0
 19 20  2  0
 20 21  1  0
 21 22  2  0
 22 23  1  0
 23 24  2  0
  6 25  1  0
 25 26  2  0
 26  3  1  0
 17 12  1  0
 24 19  1  0
  1 27  1  0
  1 28  1  0
  1 29  1  0
  4 30  1  0
  5 31  1  0
 10 32  1  0
 11 33  1  0
 11 34  1  0
 13 35  1  0
 14 36  1  0
 15 37  1  0
 16 38  1  0
 17 39  1  0
 18 40  1  0
 18 41  1  0
 20 42  1  0
 21 43  1  0
 22 44  1  0
 23 45  1  0
 24 46  1  0
 25 47  1  0
 26 48  1  0
M  CHG  2   7  -1  10   1
M  END
>  <UniqueID>  (24) 
22

>  <SMILES>  (24) 
COc1ccc([N-]C(=O)[NH+](Cc2ccccc2)Cc2ccccc2)cc1

>  <Energy>  (24) 
53.99504962701173

>  <Genealogy>  (24) 
COc1ccc([N-]C(=O)[NH+](Cc2ccccc2)Cc2ccccc2)cc1 (protonated)
COc1ccc([N-]C(=O)[NH+](Cc2ccccc2)Cc2ccccc2)cc1 (3D coordinates assigned)
COc1ccc([N-]C(=O)[NH+](Cc2ccccc2)Cc2ccccc2)cc1 (optimized conformer: 53.99504962701173 kcal/mol)

>  <smiles>  (24) 
COc1ccc(NC(=O)N(Cc2ccccc2)Cc2ccccc2)cc1

>  <score_type>  (24) 
oracle

>  <origin>  (24) 
adg

>  <m_score__min__energy>  (24) 
-8.5700000000000003

>  <m_primary>  (24) 
energy

$$$$
24:0
     RDKit          3D

 43 44  0  0  0  0  0  0  0  0999 V2000
   -4.6300   16.0470  -32.4390 C   0  0  0  0  0  0  0  0  0  0  0  0
   -4.4540   15.4760  -33.7850 N   0  0  0  0  0  0  0  0  0  0  0  0
   -5.4370   14.4190  -34.0660 C   0  0  0  0  0  0  0  0  0  0  0  0
   -4.3890   16.4990  -34.8580 C   0  0  0  0  0  0  0  0  0  0  0  0
   -3.7730   17.8800  -34.4880 C   0  0  0  0  0  0  0  0  0  0  0  0
   -4.7010   18.8270  -33.8160 N   0  0  0  0  0  0  0  0  0  0  0  0
   -6.0890   18.9180  -34.3380 C   0  0  0  0  0  0  0  0  0  0  0  0
   -7.1190   18.9910  -33.2530 C   0  0  0  0  0  0  0  0  0  0  0  0
   -8.0350   20.0180  -33.0630 C   0  0  0  0  0  0  0  0  0  0  0  0
   -8.8760   19.8030  -31.9640 C   0  0  0  0  0  0  0  0  0  0  0  0
   -8.6240   18.6120  -31.2890 C   0  0  0  0  0  0  0  0  0  0  0  0
   -7.3500   17.8280  -32.0590 S   0  0  0  0  0  0  0  0  0  0  0  0
   -4.1610   19.9350  -33.0230 C   0  0  0  0  0  0  0  0  0  0  0  0
   -2.8110   20.7670  -33.5000 S   0  0  0  0  0  0  0  0  0  0  0  0
   -4.6750   20.2240  -31.7110 N   0  0  0  0  0  0  0  0  0  0  0  0
   -5.0380   21.5460  -31.2580 C   0  0  0  0  0  0  0  0  0  0  0  0
   -4.2920   22.1510  -30.2310 C   0  0  0  0  0  0  0  0  0  0  0  0
   -4.6300   23.4250  -29.7630 C   0  0  0  0  0  0  0  0  0  0  0  0
   -5.7210   24.1090  -30.3130 C   0  0  0  0  0  0  0  0  0  0  0  0
   -6.1420   25.7130  -29.7320 Cl  0  0  0  0  0  0  0  0  0  0  0  0
   -6.4780   23.5140  -31.3280 C   0  0  0  0  0  0  0  0  0  0  0  0
   -6.1450   22.2370  -31.7960 C   0  0  0  0  0  0  0  0  0  0  0  0
   -4.3946   15.2833  -31.6831 H   0  0  0  0  0  0  0  0  0  0  0  0
   -3.9551   16.9066  -32.3143 H   0  0  0  0  0  0  0  0  0  0  0  0
   -5.6717   16.3775  -32.3143 H   0  0  0  0  0  0  0  0  0  0  0  0
   -3.5190   15.0040  -33.7800 H   0  0  0  0  0  0  0  0  0  0  0  0
   -5.8171   14.0103  -33.1181 H   0  0  0  0  0  0  0  0  0  0  0  0
   -6.2723   14.8396  -34.6451 H   0  0  0  0  0  0  0  0  0  0  0  0
   -4.9569   13.6164  -34.6451 H   0  0  0  0  0  0  0  0  0  0  0  0
   -3.7903   16.0791  -35.6797 H   0  0  0  0  0  0  0  0  0  0  0  0
   -5.4383   16.7145  -35.1082 H   0  0  0  0  0  0  0  0  0  0  0  0
   -2.9209   17.7033  -33.8152 H   0  0  0  0  0  0  0  0  0  0  0  0
   -3.4903   18.3532  -35.4399 H   0  0  0  0  0  0  0  0  0  0  0  0
   -6.1709   19.8213  -34.9603 H   0  0  0  0  0  0  0  0  0  0  0  0
   -6.2839   18.0023  -34.9155 H   0  0  0  0  0  0  0  0  0  0  0  0
   -8.0936   20.9070  -33.7082 H   0  0  0  0  0  0  0  0  0  0  0  0
   -9.6629   20.5099  -31.6621 H   0  0  0  0  0  0  0  0  0  0  0  0
   -9.1651   18.2461  -30.4039 H   0  0  0  0  0  0  0  0  0  0  0  0
   -4.6150   19.4670  -30.9940 H   0  0  0  0  0  0  0  0  0  0  0  0
   -3.4357   21.6180  -29.7921 H   0  0  0  0  0  0  0  0  0  0  0  0
   -4.0377   23.8904  -28.9614 H   0  0  0  0  0  0  0  0  0  0  0  0
   -7.3362   24.0503  -31.7591 H   0  0  0  0  0  0  0  0  0  0  0  0
   -6.7495   21.7697  -32.5873 H   0  0  0  0  0  0  0  0  0  0  0  0
  1  2  1  0
  2  3  1  0
  2  4  1  0
  4  5  1  0
  5  6  1  0
  6  7  1  0
  7  8  1  0
  8  9  2  0
  9 10  1  0
 10 11  2  0
 11 12  1  0
  6 13  1  0
 13 14  2  0
 13 15  1  0
 15 16  1  0
 16 17  2  0
 17 18  1  0
 18 19  2  0
 19 20  1  0
 19 21  1  0
 21 22  2  0
 12  8  1  0
 22 16  1  0
  1 23  1  0
  1 24  1  0
  1 25  1  0
  2 26  1  0
  3 27  1  0
  3 28  1  0
  3 29  1  0
  4 30  1  0
  4 31  1  0
  5 32  1  0
  5 33  1  0
  7 34  1  0
  7 35  1  0
  9 36  1  0
 10 37  1  0
 11 38  1  0
 15 39  1  0
 17 40  1  0
 18 41  1  0
 21 42  1  0
 22 43  1  0
M  CHG  1   2   1
M  END
>  <UniqueID>  (25) 
23

>  <SMILES>  (25) 
C[NH+](C)CCN(Cc1cccs1)C(=S)Nc1ccc(Cl)cc1

>  <Energy>  (25) 
85.18424266112599

>  <Genealogy>  (25) 
C[NH+](C)CCN(Cc1cccs1)C(=S)Nc1ccc(Cl)cc1 (protonated)
C[NH+](C)CCN(Cc1cccs1)C(=S)Nc1ccc(Cl)cc1 (3D coordinates assigned)
C[NH+](C)CCN(Cc1cccs1)C(=S)Nc1ccc(Cl)cc1 (optimized conformer: 85.18424266112599 kcal/mol)

>  <smiles>  (25) 
CN(C)CCN(Cc1cccs1)C(=S)Nc1ccc(Cl)cc1

>  <score_type>  (25) 
oracle

>  <origin>  (25) 
adg

>  <m_score__min__energy>  (25) 
-6.9900000000000002

>  <m_primary>  (25) 
energy

$$$$
25:0
     RDKit          3D

 79 84  0  0  0  0  0  0  0  0999 V2000
   -2.6310   18.6100  -26.4660 C   0  0  0  0  0  0  0  0  0  0  0  0
   -1.6020   19.6480  -26.7440 C   0  0  0  0  0  0  0  0  0  0  0  0
   -1.6790   20.9380  -26.2790 C   0  0  0  0  0  0  0  0  0  0  0  0
   -0.6950   21.8930  -26.5570 C   0  0  0  0  0  0  0  0  0  0  0  0
   -0.8100   23.2550  -26.0530 C   0  0  0  0  0  0  0  0  0  0  0  0
   -1.3130   24.2610  -26.8430 C   0  0  0  0  0  0  0  0  0  0  0  0
   -1.7520   24.0610  -28.1840 N   0  0  0  0  0  0  0  0  0  0  0  0
   -0.8800   23.7710  -29.2880 C   0  0  0  0  0  0  0  0  0  0  0  0
   -1.4040   22.5820  -30.1270 C   0  0  0  0  0  0  0  0  0  0  0  0
   -2.8370   22.7470  -30.3250 C   0  0  0  0  0  0  0  0  0  0  0  0
   -3.5780   21.9240  -31.2390 C   0  0  0  0  0  0  0  0  0  0  0  0
   -4.8680   21.5060  -30.9890 N   0  0  0  0  0  0  0  0  0  0  0  0
   -5.3370   20.7670  -31.9870 C   0  0  0  0  0  0  0  0  0  0  0  0
   -6.6740   20.1810  -32.0150 C   0  0  0  0  0  0  0  0  0  0  0  0
   -6.7630   18.8030  -32.0100 C   0  0  0  0  0  0  0  0  0  0  0  0
   -7.9950   18.1730  -32.0380 C   0  0  0  0  0  0  0  0  0  0  0  0
   -9.1440   18.9540  -32.0710 C   0  0  0  0  0  0  0  0  0  0  0  0
   -9.0510   20.3330  -32.0780 C   0  0  0  0  0  0  0  0  0  0  0  0
   -7.8110   20.9820  -32.0500 C   0  0  0  0  0  0  0  0  0  0  0  0
   -4.3500   20.6990  -32.8920 N   0  0  0  0  0  0  0  0  0  0  0  0
   -3.2840   21.3980  -32.4420 N   0  0  0  0  0  0  0  0  0  0  0  0
   -2.0840   21.5190  -33.1740 C   0  0  0  0  0  0  0  0  0  0  0  0
   -1.3890   20.1810  -33.3630 C   0  0  0  0  0  0  0  0  0  0  0  0
   -0.7640   19.7330  -32.1260 N   0  0  0  0  0  0  0  0  0  0  0  0
   -0.6530   18.2890  -32.2420 C   0  0  0  0  0  0  0  0  0  0  0  0
   -0.1410   17.8020  -30.9030 C   0  0  0  0  0  0  0  0  0  0  0  0
    1.1690   18.3040  -30.7140 N   0  0  0  0  0  0  0  0  0  0  0  0
    2.2500   17.3970  -30.9000 C   0  0  0  0  0  0  0  0  0  0  0  0
    1.4090   19.6690  -30.9650 C   0  0  0  0  0  0  0  0  0  0  0  0
    0.5150   20.3660  -31.9370 C   0  0  0  0  0  0  0  0  0  0  0  0
   -3.5820   22.8090  -28.9800 C   0  0  0  0  0  0  0  0  0  0  0  0
   -3.2030   24.1760  -28.3930 C   0  0  0  0  0  0  0  0  0  0  0  0
   -1.3910   25.4990  -26.3170 N   0  0  0  0  0  0  0  0  0  0  0  0
   -1.0040   25.8120  -25.0620 C   0  0  0  0  0  0  0  0  0  0  0  0
   -0.5150   24.8120  -24.3030 N   0  0  0  0  0  0  0  0  0  0  0  0
   -0.4060   23.5410  -24.7620 C   0  0  0  0  0  0  0  0  0  0  0  0
    0.0710   22.6020  -24.0030 N   0  0  0  0  0  0  0  0  0  0  0  0
    0.3590   21.4520  -27.3290 C   0  0  0  0  0  0  0  0  0  0  0  0
    0.4660   20.1670  -27.8100 C   0  0  0  0  0  0  0  0  0  0  0  0
   -0.5190   19.2350  -27.5250 C   0  0  0  0  0  0  0  0  0  0  0  0
   -0.4220   17.9720  -27.9910 F   0  0  0  0  0  0  0  0  0  0  0  0
   -2.7482   18.4918  -25.3787 H   0  0  0  0  0  0  0  0  0  0  0  0
   -3.5907   18.9177  -26.9069 H   0  0  0  0  0  0  0  0  0  0  0  0
   -2.3150   17.6531  -26.9069 H   0  0  0  0  0  0  0  0  0  0  0  0
   -2.5446   21.2306  -25.6666 H   0  0  0  0  0  0  0  0  0  0  0  0
   -0.8110   24.6600  -29.9321 H   0  0  0  0  0  0  0  0  0  0  0  0
    0.1077   23.5010  -28.8860 H   0  0  0  0  0  0  0  0  0  0  0  0
   -0.8951   22.5641  -31.1020 H   0  0  0  0  0  0  0  0  0  0  0  0
   -1.2043   21.6359  -29.6025 H   0  0  0  0  0  0  0  0  0  0  0  0
   -2.8134   23.6991  -30.8754 H   0  0  0  0  0  0  0  0  0  0  0  0
   -5.8440   18.1990  -31.9835 H   0  0  0  0  0  0  0  0  0  0  0  0
   -8.0634   17.0751  -32.0342 H   0  0  0  0  0  0  0  0  0  0  0  0
  -10.1327   18.4722  -32.0917 H   0  0  0  0  0  0  0  0  0  0  0  0
   -9.9719   20.9339  -32.1062 H   0  0  0  0  0  0  0  0  0  0  0  0
   -7.7386   22.0796  -32.0554 H   0  0  0  0  0  0  0  0  0  0  0  0
   -2.3137   21.9416  -34.1633 H   0  0  0  0  0  0  0  0  0  0  0  0
   -1.4068   22.1738  -32.6060 H   0  0  0  0  0  0  0  0  0  0  0  0
   -2.1303   19.4334  -33.6817 H   0  0  0  0  0  0  0  0  0  0  0  0
   -0.6056   20.3000  -34.1260 H   0  0  0  0  0  0  0  0  0  0  0  0
   -1.6361   17.8461  -32.4595 H   0  0  0  0  0  0  0  0  0  0  0  0
    0.0223   18.0009  -33.0611 H   0  0  0  0  0  0  0  0  0  0  0  0
   -0.7978   18.1668  -30.0995 H   0  0  0  0  0  0  0  0  0  0  0  0
   -0.1303   16.7023  -30.8807 H   0  0  0  0  0  0  0  0  0  0  0  0
    2.6323   17.0762  -29.9197 H   0  0  0  0  0  0  0  0  0  0  0  0
    1.8993   16.5189  -31.4620 H   0  0  0  0  0  0  0  0  0  0  0  0
    3.0539   17.8949  -31.4620 H   0  0  0  0  0  0  0  0  0  0  0  0
    1.3258   20.1988  -30.0046 H   0  0  0  0  0  0  0  0  0  0  0  0
    2.4028   19.6934  -31.4360 H   0  0  0  0  0  0  0  0  0  0  0  0
    0.3422   21.3896  -31.5730 H   0  0  0  0  0  0  0  0  0  0  0  0
    1.0265   20.3385  -32.9104 H   0  0  0  0  0  0  0  0  0  0  0  0
   -4.6690   22.7399  -29.1341 H   0  0  0  0  0  0  0  0  0  0  0  0
   -3.3105   21.9776  -28.3129 H   0  0  0  0  0  0  0  0  0  0  0  0
   -3.4369   24.9869  -29.0986 H   0  0  0  0  0  0  0  0  0  0  0  0
   -3.7538   24.4178  -27.4720 H   0  0  0  0  0  0  0  0  0  0  0  0
   -1.0844   26.8389  -24.6759 H   0  0  0  0  0  0  0  0  0  0  0  0
   -0.2200   25.0680  -23.3290 H   0  0  0  0  0  0  0  0  0  0  0  0
    0.2940   22.8570  -23.0170 H   0  0  0  0  0  0  0  0  0  0  0  0
    1.1585   22.1668  -27.5739 H   0  0  0  0  0  0  0  0  0  0  0  0
    1.3342   19.8795  -28.4212 H   0  0  0  0  0  0  0  0  0  0  0  0
  1  2  1  0
  2  3  2  0
  3  4  1  0
  4  5  1  0
  5  6  2  0
  6  7  1  0
  7  8  1  0
  8  9  1  0
  9 10  1  0
 10 11  1  0
 11 12  2  0
 12 13  1  0
 13 14  1  0
 14 15  2  0
 15 16  1  0
 16 17  2  0
 17 18  1  0
 18 19  2  0
 13 20  2  0
 20 21  1  0
 21 22  1  0
 22 23  1  0
 23 24  1  0
 24 25  1  0
 25 26  1  0
 26 27  1  0
 27 28  1  0
 27 29  1  0
 29 30  1  0
 10 31  1  0
 31 32  1  0
  6 33  1  0
 33 34  2  0
 34 35  1  0
 35 36  1  0
 36 37  2  3
  4 38  2  0
 38 39  1  0
 39 40  2  0
 40 41  1  0
 40  2  1  0
 36  5  1  0
 32  7  1  0
 21 11  1  0
 30 24  1  0
 19 14  1  0
  1 42  1  0
  1 43  1  0
  1 44  1  0
  3 45  1  0
  8 46  1  0
  8 47  1  0
  9 48  1  0
  9 49  1  0
 10 50  1  0
 15 51  1  0
 16 52  1  0
 17 53  1  0
 18 54  1  0
 19 55  1  0
 22 56  1  0
 22 57  1  0
 23 58  1  0
 23 59  1  0
 25 60  1  0
 25 61  1  0
 26 62  1  0
 26 63  1  0
 28 64  1  0
 28 65  1  0
 28 66  1  0
 29 67  1  0
 29 68  1  0
 30 69  1  0
 30 70  1  0
 31 71  1  0
 31 72  1  0
 32 73  1  0
 32 74  1  0
 34 75  1  0
 35 76  1  0
 37 77  1  0
 38 78  1  0
 39 79  1  0
M  END
>  <smiles>  (26) 
Cc1cc(-c2c(N3CCC(c4nc(-c5ccccc5)nn4CCN4CCN(C)CC4)CC3)nc[nH]c2=N)ccc1F

>  <score_type>  (26) 
oracle

>  <origin>  (26) 
adg

>  <m_score__min__energy>  (26) 
-11.460000000000001

>  <m_primary>  (26) 
energy

$$$$
26:0
     RDKit          3D

 31 32  0  0  0  0  0  0  0  0999 V2000
   -3.8860   24.1650  -27.3940 C   0  0  0  0  0  0  0  0  0  0  0  0
   -2.6650   24.4950  -28.2520 C   0  0  0  0  0  0  0  0  0  0  0  0
   -2.8410   24.0330  -29.6990 C   0  0  0  0  0  0  0  0  0  0  0  0
   -3.5380   25.0550  -30.4740 N   0  0  0  0  0  0  0  0  0  0  0  0
   -4.9560   25.2530  -30.4870 C   0  0  0  0  0  0  0  0  0  0  0  0
   -5.4020   26.4300  -30.5040 O   0  0  0  0  0  0  0  0  0  0  0  0
   -5.9320   24.1060  -30.5290 C   0  0  0  0  0  0  0  0  0  0  0  0
   -6.1780   23.6280  -31.9650 C   0  0  0  0  0  0  0  0  0  0  0  0
   -7.3640   22.7770  -32.0410 N   0  0  0  0  0  0  0  0  0  0  0  0
   -8.6160   23.2250  -31.9660 N   0  0  0  0  0  0  0  0  0  0  0  0
   -9.4910   22.2180  -31.9870 N   0  0  0  0  0  0  0  0  0  0  0  0
   -8.7430   21.1050  -32.0730 C   0  0  0  0  0  0  0  0  0  0  0  0
   -9.1740   19.8210  -32.0900 N   0  0  0  0  0  0  0  0  0  0  0  0
   -8.2400   18.8220  -32.1480 C   0  0  0  0  0  0  0  0  0  0  0  0
   -6.8560   19.1270  -32.1830 C   0  0  0  0  0  0  0  0  0  0  0  0
   -6.4340   20.4690  -32.1600 C   0  0  0  0  0  0  0  0  0  0  0  0
   -7.4310   21.4380  -32.1040 C   0  0  0  0  0  0  0  0  0  0  0  0
   -3.6169   24.2377  -26.3299 H   0  0  0  0  0  0  0  0  0  0  0  0
   -4.6943   24.8769  -27.6173 H   0  0  0  0  0  0  0  0  0  0  0  0
   -4.2256   23.1428  -27.6173 H   0  0  0  0  0  0  0  0  0  0  0  0
   -2.5083   25.5838  -28.2432 H   0  0  0  0  0  0  0  0  0  0  0  0
   -1.7987   23.9654  -27.8288 H   0  0  0  0  0  0  0  0  0  0  0  0
   -1.8521   23.8505  -30.1449 H   0  0  0  0  0  0  0  0  0  0  0  0
   -3.4350   23.1072  -29.7101 H   0  0  0  0  0  0  0  0  0  0  0  0
   -5.5271   23.2706  -29.9389 H   0  0  0  0  0  0  0  0  0  0  0  0
   -6.8893   24.4527  -30.1125 H   0  0  0  0  0  0  0  0  0  0  0  0
   -6.3219   24.5035  -32.6153 H   0  0  0  0  0  0  0  0  0  0  0  0
   -5.3064   23.0421  -32.2921 H   0  0  0  0  0  0  0  0  0  0  0  0
   -8.5667   17.7718  -32.1676 H   0  0  0  0  0  0  0  0  0  0  0  0
   -6.1138   18.3164  -32.2280 H   0  0  0  0  0  0  0  0  0  0  0  0
   -5.3679   20.7390  -32.1851 H   0  0  0  0  0  0  0  0  0  0  0  0
  1  2  1  0
  2  3  1  0
  3  4  1  0
  4  5  1  0
  5  6  2  0
  5  7  1  0
  7  8  1  0
  8  9  1  0
  9 10  1  0
 10 11  2  0
 11 12  1  0
 12 13  2  0
 13 14  1  0
 14 15  2  0
 15 16  1  0
 16 17  2  0
 17  9  1  0
 17 12  1  0
  1 18  1  0
  1 19  1  0
  1 20  1  0
  2 21  1  0
  2 22  1  0
  3 23  1  0
  3 24  1  0
  7 25  1  0
  7 26  1  0
  8 27  1  0
  8 28  1  0
 14 29  1  0
 15 30  1  0
 16 31  1  0
M  CHG  1   4  -1
M  END
>  <UniqueID>  (27) 
24

>  <SMILES>  (27) 
CCC[N-]C(=O)CCn1nnc2ncccc21

>  <Energy>  (27) 
66.66388049922003

>  <Genealogy>  (27) 
CCC[N-]C(=O)CCn1nnc2ncccc21 (protonated)
CCC[N-]C(=O)CCn1nnc2ncccc21 (3D coordinates assigned)
CCC[N-]C(=O)CCn1nnc2ncccc21 (optimized conformer: 66.66388049922003 kcal/mol)

>  <smiles>  (27) 
CCCNC(=O)CCn1nnc2ncccc21

>  <score_type>  (27) 
oracle

>  <origin>  (27) 
adg

>  <m_score__min__energy>  (27) 
-8.5500000000000007

>  <m_primary>  (27) 
energy

$$$$
27:0
     RDKit          3D

 47 48  0  0  0  0  0  0  0  0999 V2000
   -3.5330   19.8620  -33.6600 C   0  0  0  0  0  0  0  0  0  0  0  0
   -3.7150   21.3410  -33.3280 C   0  0  0  0  0  0  0  0  0  0  0  0
   -3.0460   21.7230  -31.9970 C   0  0  0  0  0  0  0  0  0  0  0  0
   -3.9920   22.3230  -31.0380 N   0  0  0  0  0  0  0  0  0  0  0  0
   -3.4180   23.0480  -29.8840 C   0  0  0  0  0  0  0  0  0  0  0  0
   -4.2050   22.9020  -28.5660 C   0  0  0  0  0  0  0  0  0  0  0  0
   -3.9040   24.0120  -27.5640 C   0  0  0  0  0  0  0  0  0  0  0  0
   -5.4120   22.3110  -31.3200 C   0  0  0  0  0  0  0  0  0  0  0  0
   -6.2830   23.4060  -31.3700 C   0  0  0  0  0  0  0  0  0  0  0  0
   -5.9860   24.8540  -31.0940 C   0  0  0  0  0  0  0  0  0  0  0  0
   -6.4810   25.3010  -29.7230 C   0  0  0  0  0  0  0  0  0  0  0  0
   -7.5390   22.9740  -31.6420 N   0  0  0  0  0  0  0  0  0  0  0  0
   -7.4100   21.6340  -31.7400 C   0  0  0  0  0  0  0  0  0  0  0  0
   -8.4380   20.7220  -31.9810 C   0  0  0  0  0  0  0  0  0  0  0  0
   -9.8560   21.1710  -32.1820 C   0  0  0  0  0  0  0  0  0  0  0  0
   -8.1000   19.3590  -31.9570 C   0  0  0  0  0  0  0  0  0  0  0  0
   -6.7710   18.9650  -31.6950 C   0  0  0  0  0  0  0  0  0  0  0  0
   -6.4010   17.5120  -31.6920 C   0  0  0  0  0  0  0  0  0  0  0  0
   -5.8140   19.9200  -31.4930 N   0  0  0  0  0  0  0  0  0  0  0  0
   -6.1550   21.2100  -31.5390 N   0  0  0  0  0  0  0  0  0  0  0  0
   -3.4617   19.2829  -32.7275 H   0  0  0  0  0  0  0  0  0  0  0  0
   -4.3945   19.5090  -34.2459 H   0  0  0  0  0  0  0  0  0  0  0  0
   -2.6116   19.7284  -34.2459 H   0  0  0  0  0  0  0  0  0  0  0  0
   -3.2697   21.9426  -34.1341 H   0  0  0  0  0  0  0  0  0  0  0  0
   -4.7934   21.5360  -33.2327 H   0  0  0  0  0  0  0  0  0  0  0  0
   -2.6151   20.8167  -31.5465 H   0  0  0  0  0  0  0  0  0  0  0  0
   -2.2730   22.4742  -32.2164 H   0  0  0  0  0  0  0  0  0  0  0  0
   -2.3986   22.6702  -29.7164 H   0  0  0  0  0  0  0  0  0  0  0  0
   -3.4505   24.1161  -30.1448 H   0  0  0  0  0  0  0  0  0  0  0  0
   -5.2804   22.9204  -28.7964 H   0  0  0  0  0  0  0  0  0  0  0  0
   -3.8992   21.9514  -28.1046 H   0  0  0  0  0  0  0  0  0  0  0  0
   -4.0099   23.6213  -26.5412 H   0  0  0  0  0  0  0  0  0  0  0  0
   -2.8757   24.3725  -27.7141 H   0  0  0  0  0  0  0  0  0  0  0  0
   -4.6093   24.8426  -27.7141 H   0  0  0  0  0  0  0  0  0  0  0  0
   -4.8977   25.0063  -31.1429 H   0  0  0  0  0  0  0  0  0  0  0  0
   -6.5130   25.4533  -31.8511 H   0  0  0  0  0  0  0  0  0  0  0  0
   -5.9079   24.7835  -28.9396 H   0  0  0  0  0  0  0  0  0  0  0  0
   -6.3442   26.3876  -29.6201 H   0  0  0  0  0  0  0  0  0  0  0  0
   -7.5481   25.0544  -29.6201 H   0  0  0  0  0  0  0  0  0  0  0  0
  -10.3348   21.3226  -31.2034 H   0  0  0  0  0  0  0  0  0  0  0  0
   -9.8651   22.1160  -32.7450 H   0  0  0  0  0  0  0  0  0  0  0  0
  -10.4073   20.4035  -32.7450 H   0  0  0  0  0  0  0  0  0  0  0  0
   -8.8723   18.5980  -32.1427 H   0  0  0  0  0  0  0  0  0  0  0  0
   -6.3110   17.1587  -30.6542 H   0  0  0  0  0  0  0  0  0  0  0  0
   -7.1806   16.9340  -32.2098 H   0  0  0  0  0  0  0  0  0  0  0  0
   -5.4399   17.3773  -32.2098 H   0  0  0  0  0  0  0  0  0  0  0  0
   -4.8330   19.6330  -31.2950 H   0  0  0  0  0  0  0  0  0  0  0  0
  1  2  1  0
  2  3  1  0
  3  4  1  0
  4  5  1  0
  5  6  1  0
  6  7  1  0
  4  8  1  0
  8  9  2  0
  9 10  1  0
 10 11  1  0
  9 12  1  0
 12 13  2  0
 13 14  1  0
 14 15  1  0
 14 16  2  0
 16 17  1  0
 17 18  1  0
 17 19  2  0
 19 20  1  0
 20  8  1  0
 20 13  1  0
  1 21  1  0
  1 22  1  0
  1 23  1  0
  2 24  1  0
  2 25  1  0
  3 26  1  0
  3 27  1  0
  5 28  1  0
  5 29  1  0
  6 30  1  0
  6 31  1  0
  7 32  1  0
  7 33  1  0
  7 34  1  0
 10 35  1  0
 10 36  1  0
 11 37  1  0
 11 38  1  0
 11 39  1  0
 15 40  1  0
 15 41  1  0
 15 42  1  0
 16 43  1  0
 18 44  1  0
 18 45  1  0
 18 46  1  0
 19 47  1  0
M  CHG  1  19   1
M  END
>  <UniqueID>  (28) 
25

>  <SMILES>  (28) 
CCCN(CCC)c1c(CC)nc2c(C)cc(C)[nH+]n12

>  <Energy>  (28) 
75.73626068566082

>  <Genealogy>  (28) 
CCCN(CCC)c1c(CC)nc2c(C)cc(C)[nH+]n12 (protonated)
CCCN(CCC)c1c(CC)nc2c(C)cc(C)[nH+]n12 (3D coordinates assigned)
CCCN(CCC)c1c(CC)nc2c(C)cc(C)[nH+]n12 (optimized conformer: 75.73626068566082 kcal/mol)

>  <smiles>  (28) 
CCCN(CCC)c1c(CC)nc2c(C)cc(C)nn12

>  <score_type>  (28) 
oracle

>  <origin>  (28) 
adg

>  <m_score__min__energy>  (28) 
-5.9400000000000004

>  <m_primary>  (28) 
energy

$$$$
28:0
     RDKit          3D

 46 48  0  0  0  0  0  0  0  0999 V2000
   -7.4848   17.6936  -32.1878 H   0  0  0  0  0  0  0  0  0  0  0  0
   -7.4290   18.7920  -32.2090 C   0  0  0  0  0  0  0  0  0  0  0  0
   -6.3370   19.4220  -32.8040 C   0  0  0  0  0  0  0  0  0  0  0  0
   -5.5349   18.8201  -33.2560 H   0  0  0  0  0  0  0  0  0  0  0  0
   -6.2600   20.8150  -32.8270 C   0  0  0  0  0  0  0  0  0  0  0  0
   -5.3975   21.3046  -33.3028 H   0  0  0  0  0  0  0  0  0  0  0  0
   -7.2740   21.6000  -32.2480 C   0  0  0  0  0  0  0  0  0  0  0  0
   -7.1490   23.1060  -32.3280 C   0  0  0  0  0  0  0  0  0  0  0  0
   -6.9029   23.3942  -33.3607 H   0  0  0  0  0  0  0  0  0  0  0  0
   -8.1048   23.5583  -32.0248 H   0  0  0  0  0  0  0  0  0  0  0  0
   -6.0880   23.5860  -31.4250 N   0  0  0  0  0  0  0  0  0  0  0  0
   -5.5760   22.7710  -31.0120 H   0  0  0  0  0  0  0  0  0  0  0  0
   -5.3990   24.1350  -31.9910 H   0  0  0  0  0  0  0  0  0  0  0  0
   -6.6190   24.4620  -30.3580 C   0  0  0  0  0  0  0  0  0  0  0  0
   -7.6141   24.8208  -30.6599 H   0  0  0  0  0  0  0  0  0  0  0  0
   -6.6640   23.8689  -29.4327 H   0  0  0  0  0  0  0  0  0  0  0  0
   -5.7200   25.6770  -30.0870 C   0  0  0  0  0  0  0  0  0  0  0  0
   -6.1400   26.5584  -30.5936 H   0  0  0  0  0  0  0  0  0  0  0  0
   -5.6732   25.8503  -29.0017 H   0  0  0  0  0  0  0  0  0  0  0  0
   -4.3680   25.4340  -30.5860 N   0  0  0  0  0  0  0  0  0  0  0  0
   -3.6140   24.4100  -30.3060 C   0  0  0  0  0  0  0  0  0  0  0  0
   -3.5030   23.4120  -31.2350 N   0  0  0  0  0  0  0  0  0  0  0  0
   -2.7180   22.3420  -30.9640 C   0  0  0  0  0  0  0  0  0  0  0  0
   -2.4470   21.2130  -31.7020 C   0  0  0  0  0  0  0  0  0  0  0  0
   -3.0230   20.8480  -33.0290 C   0  0  0  0  0  0  0  0  0  0  0  0
   -3.9437   20.2646  -32.8811 H   0  0  0  0  0  0  0  0  0  0  0  0
   -3.2557   21.7638  -33.5921 H   0  0  0  0  0  0  0  0  0  0  0  0
   -2.2942   20.2465  -33.5921 H   0  0  0  0  0  0  0  0  0  0  0  0
   -1.6320   20.4130  -30.9690 N   0  0  0  0  0  0  0  0  0  0  0  0
   -1.3770   21.0310  -29.8180 N   0  0  0  0  0  0  0  0  0  0  0  0
   -0.5490   20.4740  -28.7560 C   0  0  0  0  0  0  0  0  0  0  0  0
   -0.9678   20.7557  -27.7786 H   0  0  0  0  0  0  0  0  0  0  0  0
   -0.5284   19.3777  -28.8439 H   0  0  0  0  0  0  0  0  0  0  0  0
    0.4742   20.8681  -28.8439 H   0  0  0  0  0  0  0  0  0  0  0  0
   -2.0350   22.2050  -29.8000 C   0  0  0  0  0  0  0  0  0  0  0  0
   -2.1050   23.1770  -28.8080 C   0  0  0  0  0  0  0  0  0  0  0  0
   -1.5564   23.0700  -27.8606 H   0  0  0  0  0  0  0  0  0  0  0  0
   -2.9080   24.3040  -29.0680 C   0  0  0  0  0  0  0  0  0  0  0  0
   -2.9920   25.1037  -28.3174 H   0  0  0  0  0  0  0  0  0  0  0  0
   -8.3960   20.9580  -31.6620 C   0  0  0  0  0  0  0  0  0  0  0  0
   -9.5150   21.7420  -31.0270 C   0  0  0  0  0  0  0  0  0  0  0  0
   -9.4293   21.6820  -29.9320 H   0  0  0  0  0  0  0  0  0  0  0  0
   -9.4510   22.7938  -31.3427 H   0  0  0  0  0  0  0  0  0  0  0  0
  -10.4817   21.3226  -31.3427 H   0  0  0  0  0  0  0  0  0  0  0  0
   -8.4520   19.5530  -31.6400 C   0  0  0  0  0  0  0  0  0  0  0  0
   -9.3095   19.0490  -31.1703 H   0  0  0  0  0  0  0  0  0  0  0  0
  1  2  1  0
  2  3  2  0
  3  4  1  0
  3  5  1  0
  5  6  1  0
  5  7  2  0
  7  8  1  0
  8  9  1  0
  8 10  1  0
  8 11  1  0
 11 12  1  0
 11 13  1  0
 11 14  1  0
 14 15  1  0
 14 16  1  0
 14 17  1  0
 17 18  1  0
 17 19  1  0
 17 20  1  0
 20 21  2  0
 21 22  1  0
 22 23  1  0
 23 24  1  0
 24 25  1  0
 25 26  1  0
 25 27  1  0
 25 28  1  0
 24 29  2  0
 29 30  1  0
 30 31  1  0
 31 32  1  0
 31 33  1  0
 31 34  1  0
 30 35  1  0
 35 36  1  0
 36 37  1  0
 36 38  2  0
 38 39  1  0
  7 40  1  0
 40 41  1  0
 41 42  1  0
 41 43  1  0
 41 44  1  0
 40 45  2  0
 45 46  1  0
 45  2  1  0
 38 21  1  0
 35 23  2  0
M  CHG  2  11   1  22  -1
M  END
>  <UniqueID>  (29) 
26

>  <SMILES>  (29) 
Cc1ccccc1C[NH2+]CC/N=c1\ccc2c([n-]1)c(C)nn2C

>  <Energy>  (29) 
89.30163465887267

>  <Genealogy>  (29) 
Cc1ccccc1C[NH2+]CCN=c1ccc2c([n-]1)c(C)nn2C (protonated)
Cc1ccccc1C[NH2+]CC/N=c1\ccc2c([n-]1)c(C)nn2C (cis-trans isomerization)
Cc1ccccc1C[NH2+]CC/N=c1\ccc2c([n-]1)c(C)nn2C (3D coordinates assigned)
Cc1ccccc1C[NH2+]CC/N=c1\ccc2c([n-]1)c(C)nn2C (optimized conformer: 89.30163465887267 kcal/mol)

>  <smiles>  (29) 
Cc1ccccc1CNCCN=c1ccc2c([nH]1)c(C)nn2C

>  <score_type>  (29) 
oracle

>  <origin>  (29) 
adg

>  <m_score__min__energy>  (29) 
-8.4399999999999995

>  <m_primary>  (29) 
energy

$$$$
29:0
     RDKit          3D

 48 50  0  0  0  0  0  0  0  0999 V2000
   -8.9350   20.5040  -31.9750 C   0  0  0  0  0  0  0  0  0  0  0  0
   -7.6230   20.0280  -32.6090 C   0  0  2  0  0  0  0  0  0  0  0  0
   -7.0040   18.8650  -31.8020 C   0  0  0  0  0  0  0  0  0  0  0  0
   -5.4770   18.7800  -31.9650 C   0  0  0  0  0  0  0  0  0  0  0  0
   -5.0270   19.3520  -33.3150 C   0  0  0  0  0  0  0  0  0  0  0  0
   -5.3940   20.7830  -33.4810 N   0  0  0  0  0  0  0  0  0  0  0  0
   -4.2550   21.6730  -33.1680 C   0  0  0  0  0  0  0  0  0  0  0  0
   -4.3180   22.1480  -31.7390 C   0  0  0  0  0  0  0  0  0  0  0  0
   -3.6870   21.4230  -30.7180 C   0  0  0  0  0  0  0  0  0  0  0  0
   -3.7740   21.8510  -29.3900 C   0  0  0  0  0  0  0  0  0  0  0  0
   -4.5000   23.0120  -29.0630 C   0  0  0  0  0  0  0  0  0  0  0  0
   -4.6130   23.4740  -27.7430 O   0  0  0  0  0  0  0  0  0  0  0  0
   -4.1340   24.7370  -27.2840 C   0  0  0  0  0  0  0  0  0  0  0  0
   -2.7460   24.5730  -26.6740 C   0  0  0  0  0  0  0  0  0  0  0  0
   -1.8340   23.9420  -27.6300 N   0  0  0  0  0  0  0  0  0  0  0  0
   -1.4170   24.4450  -28.8090 C   0  0  0  0  0  0  0  0  0  0  0  0
   -1.8500   25.6560  -29.3370 O   0  0  0  0  0  0  0  0  0  0  0  0
   -0.5050   23.6030  -29.4100 C   0  0  0  0  0  0  0  0  0  0  0  0
   -0.3480   22.5300  -28.5510 C   0  0  0  0  0  0  0  0  0  0  0  0
   -1.1720   22.7800  -27.4730 C   0  0  0  0  0  0  0  0  0  0  0  0
   -1.3050   21.9530  -26.3630 O   0  0  0  0  0  0  0  0  0  0  0  0
   -5.1350   23.7320  -30.0860 C   0  0  0  0  0  0  0  0  0  0  0  0
   -6.1440   25.3080  -29.6840 Br  0  0  0  0  0  0  0  0  0  0  0  0
   -5.0460   23.3020  -31.4140 C   0  0  0  0  0  0  0  0  0  0  0  0
   -6.6170   21.1860  -32.7370 C   0  0  0  0  0  0  0  0  0  0  0  0
   -8.8456   20.4716  -30.8791 H   0  0  0  0  0  0  0  0  0  0  0  0
   -9.1441   21.5353  -32.2955 H   0  0  0  0  0  0  0  0  0  0  0  0
   -9.7567   19.8467  -32.2955 H   0  0  0  0  0  0  0  0  0  0  0  0
   -7.8579   19.6608  -33.6189 H   0  0  0  0  0  0  0  0  0  0  0  0
   -7.2372   19.0117  -30.7370 H   0  0  0  0  0  0  0  0  0  0  0  0
   -7.4330   17.9275  -32.1855 H   0  0  0  0  0  0  0  0  0  0  0  0
   -4.9981   19.3516  -31.1563 H   0  0  0  0  0  0  0  0  0  0  0  0
   -5.1820   17.7212  -31.9213 H   0  0  0  0  0  0  0  0  0  0  0  0
   -3.9337   19.2577  -33.3906 H   0  0  0  0  0  0  0  0  0  0  0  0
   -5.5391   18.7831  -34.1050 H   0  0  0  0  0  0  0  0  0  0  0  0
   -3.3152   21.1228  -33.3231 H   0  0  0  0  0  0  0  0  0  0  0  0
   -4.3022   22.5493  -33.8312 H   0  0  0  0  0  0  0  0  0  0  0  0
   -3.1205   20.5126  -30.9633 H   0  0  0  0  0  0  0  0  0  0  0  0
   -3.2726   21.2776  -28.5964 H   0  0  0  0  0  0  0  0  0  0  0  0
   -4.0802   25.4368  -28.1310 H   0  0  0  0  0  0  0  0  0  0  0  0
   -4.8217   25.1305  -26.5209 H   0  0  0  0  0  0  0  0  0  0  0  0
   -2.3529   25.5628  -26.3987 H   0  0  0  0  0  0  0  0  0  0  0  0
   -2.8238   23.9330  -25.7828 H   0  0  0  0  0  0  0  0  0  0  0  0
   -0.0035   23.7541  -30.3773 H   0  0  0  0  0  0  0  0  0  0  0  0
    0.3021   21.6548  -28.6977 H   0  0  0  0  0  0  0  0  0  0  0  0
   -5.5500   23.8723  -32.2082 H   0  0  0  0  0  0  0  0  0  0  0  0
   -6.3264   21.5168  -31.7290 H   0  0  0  0  0  0  0  0  0  0  0  0
   -7.1034   21.9977  -33.2979 H   0  0  0  0  0  0  0  0  0  0  0  0
  1  2  1  0
  2  3  1  0
  3  4  1  0
  4  5  1  0
  5  6  1  0
  6  7  1  0
  7  8  1  0
  8  9  2  0
  9 10  1  0
 10 11  2  0
 11 12  1  0
 12 13  1  0
 13 14  1  0
 14 15  1  0
 15 16  1  0
 16 17  1  0
 16 18  2  0
 18 19  1  0
 19 20  2  0
 20 21  1  0
 11 22  1  0
 22 23  1  0
 22 24  2  0
  6 25  1  0
 25  2  1  0
 24  8  1  0
 20 15  1  0
  1 26  1  0
  1 27  1  0
  1 28  1  0
  2 29  1  6
  3 30  1  0
  3 31  1  0
  4 32  1  0
  4 33  1  0
  5 34  1  0
  5 35  1  0
  7 36  1  0
  7 37  1  0
  9 38  1  0
 10 39  1  0
 13 40  1  0
 13 41  1  0
 14 42  1  0
 14 43  1  0
 18 44  1  0
 19 45  1  0
 24 46  1  0
 25 47  1  0
 25 48  1  0
M  CHG  2  17  -1  21  -1
M  END
>  <UniqueID>  (30) 
27

>  <SMILES>  (30) 
C[C@@H]1CCCN(Cc2ccc(OCCn3c([O-])ccc3[O-])c(Br)c2)C1

>  <Energy>  (30) 
78.5739848417744

>  <Genealogy>  (30) 
CC1CCCN(Cc2ccc(OCCn3c([O-])ccc3[O-])c(Br)c2)C1 (protonated)
C[C@@H]1CCCN(Cc2ccc(OCCn3c([O-])ccc3[O-])c(Br)c2)C1 (chirality)
C[C@@H]1CCCN(Cc2ccc(OCCn3c([O-])ccc3[O-])c(Br)c2)C1 (3D coordinates assigned)
C[C@@H]1CCCN(Cc2ccc(OCCn3c([O-])ccc3[O-])c(Br)c2)C1 (nonaromatic ring conformer: 78.5739848417744 kcal/mol)

>  <smiles>  (30) 
CC1CCCN(Cc2ccc(OCCn3c(O)ccc3O)c(Br)c2)C1

>  <score_type>  (30) 
oracle

>  <origin>  (30) 
adg

>  <m_score__min__energy>  (30) 
-11.4

>  <m_primary>  (30) 
energy

$$$$
30:0
     RDKit          3D

 43 45  0  0  0  0  0  0  0  0999 V2000
   -2.5780   20.9200  -27.5380 C   0  0  0  0  0  0  0  0  0  0  0  0
   -1.1280   21.3600  -27.3520 C   0  0  0  0  0  0  0  0  0  0  0  0
   -1.0300   22.8360  -27.2980 N   0  0  0  0  0  0  0  0  0  0  0  0
   -2.3410   23.4850  -27.0020 C   0  0  0  0  0  0  0  0  0  0  0  0
   -2.7900   24.5170  -28.0520 C   0  0  0  0  0  0  0  0  0  0  0  0
   -2.5580   23.9910  -29.3990 N   0  0  0  0  0  0  0  0  0  0  0  0
   -3.4870   24.2880  -30.4570 C   0  0  0  0  0  0  0  0  0  0  0  0
   -4.0460   25.4160  -30.4980 O   0  0  0  0  0  0  0  0  0  0  0  0
   -3.7610   23.3380  -31.4930 N   0  0  0  0  0  0  0  0  0  0  0  0
   -4.9860   22.6090  -31.6400 C   0  0  0  0  0  0  0  0  0  0  0  0
   -6.2000   23.2790  -31.4600 C   0  0  0  0  0  0  0  0  0  0  0  0
   -7.4150   22.6020  -31.6100 C   0  0  0  0  0  0  0  0  0  0  0  0
   -7.4310   21.2310  -31.9300 C   0  0  0  0  0  0  0  0  0  0  0  0
   -8.6280   20.4990  -32.1070 C   0  0  0  0  0  0  0  0  0  0  0  0
   -9.9840   21.1390  -31.9660 C   0  0  0  0  0  0  0  0  0  0  0  0
   -8.5400   19.1350  -32.4230 C   0  0  0  0  0  0  0  0  0  0  0  0
   -7.2850   18.5390  -32.5520 C   0  0  0  0  0  0  0  0  0  0  0  0
   -7.1970   17.3150  -32.8370 O   0  0  0  0  0  0  0  0  0  0  0  0
   -6.1790   19.2520  -32.3800 O   0  0  0  0  0  0  0  0  0  0  0  0
   -6.2000   20.5480  -32.0820 C   0  0  0  0  0  0  0  0  0  0  0  0
   -4.9920   21.2330  -31.9250 C   0  0  0  0  0  0  0  0  0  0  0  0
   -1.2610   23.3850  -29.7200 C   0  0  0  0  0  0  0  0  0  0  0  0
   -0.3430   23.3830  -28.4900 C   0  0  0  0  0  0  0  0  0  0  0  0
   -3.0472   20.7776  -26.5533 H   0  0  0  0  0  0  0  0  0  0  0  0
   -3.1266   21.6921  -28.0974 H   0  0  0  0  0  0  0  0  0  0  0  0
   -2.6050   19.9732  -28.0974 H   0  0  0  0  0  0  0  0  0  0  0  0
   -0.7406   20.9381  -26.4129 H   0  0  0  0  0  0  0  0  0  0  0  0
   -0.5371   20.9982  -28.2064 H   0  0  0  0  0  0  0  0  0  0  0  0
   -3.1083   22.6991  -26.9417 H   0  0  0  0  0  0  0  0  0  0  0  0
   -2.2141   24.0331  -26.0568 H   0  0  0  0  0  0  0  0  0  0  0  0
   -3.8619   24.7268  -27.9220 H   0  0  0  0  0  0  0  0  0  0  0  0
   -2.2111   25.4430  -27.9202 H   0  0  0  0  0  0  0  0  0  0  0  0
   -6.1997   24.3474  -31.1982 H   0  0  0  0  0  0  0  0  0  0  0  0
   -8.3631   23.1438  -31.4772 H   0  0  0  0  0  0  0  0  0  0  0  0
  -10.2263   21.2534  -30.8991 H   0  0  0  0  0  0  0  0  0  0  0  0
   -9.9747   22.1278  -32.4479 H   0  0  0  0  0  0  0  0  0  0  0  0
  -10.7414   20.5033  -32.4479 H   0  0  0  0  0  0  0  0  0  0  0  0
   -9.4536   18.5398  -32.5680 H   0  0  0  0  0  0  0  0  0  0  0  0
   -4.0397   20.6915  -32.0252 H   0  0  0  0  0  0  0  0  0  0  0  0
   -1.4194   22.3489  -30.0539 H   0  0  0  0  0  0  0  0  0  0  0  0
   -0.7832   23.9742  -30.5166 H   0  0  0  0  0  0  0  0  0  0  0  0
    0.5421   22.7666  -28.7061 H   0  0  0  0  0  0  0  0  0  0  0  0
   -0.0547   24.4224  -28.2742 H   0  0  0  0  0  0  0  0  0  0  0  0
  1  2  1  0
  2  3  1  0
  3  4  1  0
  4  5  1  0
  5  6  1  0
  6  7  1  0
  7  8  2  0
  7  9  1  0
  9 10  1  0
 10 11  2  0
 11 12  1  0
 12 13  2  0
 13 14  1  0
 14 15  1  0
 14 16  2  0
 16 17  1  0
 17 18  2  0
 17 19  1  0
 19 20  1  0
 20 21  2  0
  6 22  1  0
 22 23  1  0
 23  3  1  0
 21 10  1  0
 20 13  1  0
  1 24  1  0
  1 25  1  0
  1 26  1  0
  2 27  1  0
  2 28  1  0
  4 29  1  0
  4 30  1  0
  5 31  1  0
  5 32  1  0
 11 33  1  0
 12 34  1  0
 15 35  1  0
 15 36  1  0
 15 37  1  0
 16 38  1  0
 21 39  1  0
 22 40  1  0
 22 41  1  0
 23 42  1  0
 23 43  1  0
M  CHG  1   9  -1
M  END
>  <UniqueID>  (31) 
28

>  <SMILES>  (31) 
CCN1CCN(C(=O)[N-]c2ccc3c(C)cc(=O)oc3c2)CC1

>  <Energy>  (31) 
59.201677311246875

>  <Genealogy>  (31) 
CCN1CCN(C(=O)[N-]c2ccc3c(C)cc(=O)oc3c2)CC1 (protonated)
CCN1CCN(C(=O)[N-]c2ccc3c(C)cc(=O)oc3c2)CC1 (3D coordinates assigned)
CCN1CCN(C(=O)[N-]c2ccc3c(C)cc(=O)oc3c2)CC1 (nonaromatic ring conformer: 59.201677311246875 kcal/mol)

>  <smiles>  (31) 
CCN1CCN(C(=O)Nc2ccc3c(C)cc(=O)oc3c2)CC1

>  <score_type>  (31) 
oracle

>  <origin>  (31) 
adg

>  <m_score__min__energy>  (31) 
-9.1799999999999997

>  <m_primary>  (31) 
energy

$$$$
31:0
     RDKit          3D

 45 48  0  0  0  0  0  0  0  0999 V2000
   -9.8550   21.1950  -31.9650 C   0  0  0  0  0  0  0  0  0  0  0  0
   -9.3690   19.9240  -32.3860 O   0  0  0  0  0  0  0  0  0  0  0  0
   -8.0220   19.5350  -32.3330 C   0  0  0  0  0  0  0  0  0  0  0  0
   -7.6240   18.2480  -31.9240 C   0  0  0  0  0  0  0  0  0  0  0  0
   -6.2700   17.9100  -31.8920 C   0  0  0  0  0  0  0  0  0  0  0  0
   -5.3030   18.8450  -32.2650 C   0  0  0  0  0  0  0  0  0  0  0  0
   -5.6810   20.1350  -32.6740 C   0  0  0  0  0  0  0  0  0  0  0  0
   -4.6330   21.1370  -33.0960 C   0  0  0  0  0  0  0  0  0  0  0  0
   -4.1970   21.9640  -31.9430 N   0  0  0  0  0  0  0  0  0  0  0  0
   -2.9260   21.7490  -31.4600 C   0  0  0  0  0  0  0  0  0  0  0  0
   -2.1740   20.8790  -31.9820 O   0  0  0  0  0  0  0  0  0  0  0  0
   -2.4290   22.4820  -30.3880 C   0  0  0  0  0  0  0  0  0  0  0  0
   -3.2040   23.4620  -29.7800 C   0  0  0  0  0  0  0  0  0  0  0  0
   -2.5990   24.2400  -28.6740 C   0  0  0  0  0  0  0  0  0  0  0  0
   -3.2110   24.2650  -27.4110 C   0  0  0  0  0  0  0  0  0  0  0  0
   -2.6280   24.9810  -26.3620 C   0  0  0  0  0  0  0  0  0  0  0  0
   -1.4280   25.6690  -26.5640 C   0  0  0  0  0  0  0  0  0  0  0  0
   -0.8070   25.6380  -27.8160 C   0  0  0  0  0  0  0  0  0  0  0  0
   -1.3860   24.9230  -28.8680 C   0  0  0  0  0  0  0  0  0  0  0  0
   -4.5150   23.6910  -30.2500 C   0  0  0  0  0  0  0  0  0  0  0  0
   -5.3550   24.6380  -29.6250 C   0  0  0  0  0  0  0  0  0  0  0  0
   -6.6390   24.8760  -30.1030 C   0  0  0  0  0  0  0  0  0  0  0  0
   -7.1120   24.1760  -31.2040 C   0  0  0  0  0  0  0  0  0  0  0  0
   -6.3140   23.2180  -31.8280 C   0  0  0  0  0  0  0  0  0  0  0  0
   -5.0010   22.9360  -31.3620 C   0  0  0  0  0  0  0  0  0  0  0  0
   -7.0460   20.4680  -32.7060 C   0  0  0  0  0  0  0  0  0  0  0  0
   -9.8706   21.2359  -30.8659 H   0  0  0  0  0  0  0  0  0  0  0  0
   -9.1959   21.9861  -32.3520 H   0  0  0  0  0  0  0  0  0  0  0  0
  -10.8738   21.3446  -32.3520 H   0  0  0  0  0  0  0  0  0  0  0  0
   -8.3817   17.5071  -31.6290 H   0  0  0  0  0  0  0  0  0  0  0  0
   -5.9640   16.9032  -31.5717 H   0  0  0  0  0  0  0  0  0  0  0  0
   -4.2382   18.5702  -32.2386 H   0  0  0  0  0  0  0  0  0  0  0  0
   -3.7638   20.5995  -33.5029 H   0  0  0  0  0  0  0  0  0  0  0  0
   -5.0669   21.7992  -33.8597 H   0  0  0  0  0  0  0  0  0  0  0  0
   -1.4123   22.2841  -30.0176 H   0  0  0  0  0  0  0  0  0  0  0  0
   -4.1520   23.7196  -27.2465 H   0  0  0  0  0  0  0  0  0  0  0  0
   -3.1143   25.0032  -25.3756 H   0  0  0  0  0  0  0  0  0  0  0  0
   -0.9725   26.2347  -25.7379 H   0  0  0  0  0  0  0  0  0  0  0  0
    0.1388   26.1772  -27.9734 H   0  0  0  0  0  0  0  0  0  0  0  0
   -0.8913   24.8947  -29.8501 H   0  0  0  0  0  0  0  0  0  0  0  0
   -4.9894   25.1943  -28.7493 H   0  0  0  0  0  0  0  0  0  0  0  0
   -7.2805   25.6199  -29.6079 H   0  0  0  0  0  0  0  0  0  0  0  0
   -8.1232   24.3783  -31.5869 H   0  0  0  0  0  0  0  0  0  0  0  0
   -6.7077   22.6703  -32.6969 H   0  0  0  0  0  0  0  0  0  0  0  0
   -7.3519   21.4743  -33.0281 H   0  0  0  0  0  0  0  0  0  0  0  0
  1  2  1  0
  2  3  1  0
  3  4  2  0
  4  5  1  0
  5  6  2  0
  6  7  1  0
  7  8  1  0
  8  9  1  0
  9 10  1  0
 10 11  2  0
 10 12  1  0
 12 13  2  0
 13 14  1  0
 14 15  2  0
 15 16  1  0
 16 17  2  0
 17 18  1  0
 18 19  2  0
 13 20  1  0
 20 21  2  0
 21 22  1  0
 22 23  2  0
 23 24  1  0
 24 25  2  0
  7 26  2  0
 26  3  1  0
 25  9  1  0
 19 14  1  0
 25 20  1  0
  1 27  1  0
  1 28  1  0
  1 29  1  0
  4 30  1  0
  5 31  1  0
  6 32  1  0
  8 33  1  0
  8 34  1  0
 12 35  1  0
 15 36  1  0
 16 37  1  0
 17 38  1  0
 18 39  1  0
 19 40  1  0
 21 41  1  0
 22 42  1  0
 23 43  1  0
 24 44  1  0
 26 45  1  0
M  END
>  <UniqueID>  (32) 
29

>  <SMILES>  (32) 
COc1cccc(Cn2c(=O)cc(-c3ccccc3)c3ccccc32)c1

>  <Energy>  (32) 
70.35434139775306

>  <Genealogy>  (32) 
COc1cccc(Cn2c(=O)cc(-c3ccccc3)c3ccccc32)c1 (3D coordinates assigned)
COc1cccc(Cn2c(=O)cc(-c3ccccc3)c3ccccc32)c1 (optimized conformer: 70.35434139775306 kcal/mol)

>  <smiles>  (32) 
COc1cccc(Cn2c(=O)cc(-c3ccccc3)c3ccccc32)c1

>  <score_type>  (32) 
oracle

>  <origin>  (32) 
adg

>  <m_score__min__energy>  (32) 
-10.02

>  <m_primary>  (32) 
energy

$$$$
32:0
     RDKit          3D

 46 48  0  0  0  0  0  0  0  0999 V2000
   -8.8280   18.8360  -31.4530 C   0  0  0  0  0  0  0  0  0  0  0  0
   -7.4100   18.8000  -31.5800 O   0  0  0  0  0  0  0  0  0  0  0  0
   -6.7210   18.2080  -32.6500 C   0  0  0  0  0  0  0  0  0  0  0  0
   -6.8740   16.8440  -32.9690 C   0  0  0  0  0  0  0  0  0  0  0  0
   -6.1880   16.2910  -34.0540 C   0  0  0  0  0  0  0  0  0  0  0  0
   -5.3450   17.0880  -34.8300 C   0  0  0  0  0  0  0  0  0  0  0  0
   -5.1820   18.4390  -34.5220 C   0  0  0  0  0  0  0  0  0  0  0  0
   -5.8610   19.0070  -33.4330 C   0  0  0  0  0  0  0  0  0  0  0  0
   -5.6700   20.3990  -33.1260 N   0  0  0  0  0  0  0  0  0  0  0  0
   -6.8070   21.2380  -32.7400 C   0  0  0  0  0  0  0  0  0  0  0  0
   -6.4450   22.1460  -31.5450 C   0  0  0  0  0  0  0  0  0  0  0  0
   -4.9960   22.5010  -31.4510 N   0  0  0  0  0  0  0  0  0  0  0  0
   -4.2750   21.6770  -30.4380 C   0  0  0  0  0  0  0  0  0  0  0  0
   -4.2320   22.3370  -29.0470 C   0  0  0  0  0  0  0  0  0  0  0  0
   -3.1430   23.3040  -28.9400 N   0  0  0  0  0  0  0  0  0  0  0  0
   -2.0930   23.2850  -27.9320 C   0  0  0  0  0  0  0  0  0  0  0  0
   -1.2550   24.5620  -28.1880 C   0  0  0  0  0  0  0  0  0  0  0  0
   -1.9300   25.2980  -29.2530 N   0  0  0  0  0  0  0  0  0  0  0  0
   -3.0290   24.5130  -29.6600 C   0  0  0  0  0  0  0  0  0  0  0  0
   -3.8260   24.8650  -30.5680 O   0  0  0  0  0  0  0  0  0  0  0  0
   -4.3280   22.4380  -32.7730 C   0  0  0  0  0  0  0  0  0  0  0  0
   -4.3620   21.0160  -33.3530 C   0  0  0  0  0  0  0  0  0  0  0  0
   -9.1006   18.8429  -30.3873 H   0  0  0  0  0  0  0  0  0  0  0  0
   -9.2165   19.7443  -31.9368 H   0  0  0  0  0  0  0  0  0  0  0  0
   -9.2621   17.9486  -31.9368 H   0  0  0  0  0  0  0  0  0  0  0  0
   -7.5369   16.2110  -32.3608 H   0  0  0  0  0  0  0  0  0  0  0  0
   -6.3128   15.2254  -34.2968 H   0  0  0  0  0  0  0  0  0  0  0  0
   -4.8087   16.6507  -35.6851 H   0  0  0  0  0  0  0  0  0  0  0  0
   -4.5168   19.0631  -35.1368 H   0  0  0  0  0  0  0  0  0  0  0  0
   -7.0964   21.8670  -33.5948 H   0  0  0  0  0  0  0  0  0  0  0  0
   -7.6400   20.5838  -32.4430 H   0  0  0  0  0  0  0  0  0  0  0  0
   -7.0217   23.0783  -31.6352 H   0  0  0  0  0  0  0  0  0  0  0  0
   -6.6865   21.5762  -30.6356 H   0  0  0  0  0  0  0  0  0  0  0  0
   -4.9410   23.5050  -31.1580 H   0  0  0  0  0  0  0  0  0  0  0  0
   -4.7836   20.7056  -30.3497 H   0  0  0  0  0  0  0  0  0  0  0  0
   -3.2362   21.5662  -30.7824 H   0  0  0  0  0  0  0  0  0  0  0  0
   -5.1863   22.8540  -28.8684 H   0  0  0  0  0  0  0  0  0  0  0  0
   -4.0641   21.5482  -28.2989 H   0  0  0  0  0  0  0  0  0  0  0  0
   -2.5284   23.3063  -26.9221 H   0  0  0  0  0  0  0  0  0  0  0  0
   -1.4804   22.3736  -27.9962 H   0  0  0  0  0  0  0  0  0  0  0  0
   -1.2074   25.1739  -27.2751 H   0  0  0  0  0  0  0  0  0  0  0  0
   -0.2234   24.3086  -28.4735 H   0  0  0  0  0  0  0  0  0  0  0  0
   -4.8426   23.1194  -33.4665 H   0  0  0  0  0  0  0  0  0  0  0  0
   -3.2763   22.7329  -32.6430 H   0  0  0  0  0  0  0  0  0  0  0  0
   -4.1665   21.0618  -34.4345 H   0  0  0  0  0  0  0  0  0  0  0  0
   -3.5921   20.4101  -32.8529 H   0  0  0  0  0  0  0  0  0  0  0  0
  1  2  1  0
  2  3  1  0
  3  4  2  0
  4  5  1  0
  5  6  2  0
  6  7  1  0
  7  8  2  0
  8  9  1  0
  9 10  1  0
 10 11  1  0
 11 12  1  0
 12 13  1  0
 13 14  1  0
 14 15  1  0
 15 16  1  0
 16 17  1  0
 17 18  1  0
 18 19  1  0
 19 20  2  0
 12 21  1  0
 21 22  1  0
  8  3  1  0
 22  9  1  0
 19 15  1  0
  1 23  1  0
  1 24  1  0
  1 25  1  0
  4 26  1  0
  5 27  1  0
  6 28  1  0
  7 29  1  0
 10 30  1  0
 10 31  1  0
 11 32  1  0
 11 33  1  0
 12 34  1  0
 13 35  1  0
 13 36  1  0
 14 37  1  0
 14 38  1  0
 16 39  1  0
 16 40  1  0
 17 41  1  0
 17 42  1  0
 21 43  1  0
 21 44  1  0
 22 45  1  0
 22 46  1  0
M  CHG  2  12   1  18  -1
M  END
>  <UniqueID>  (33) 
30

>  <SMILES>  (33) 
COc1ccccc1N1CC[NH+](CCN2CC[N-]C2=O)CC1

>  <Energy>  (33) 
70.2423696143085

>  <Genealogy>  (33) 
COc1ccccc1N1CC[NH+](CCN2CC[N-]C2=O)CC1 (protonated)
COc1ccccc1N1CC[NH+](CCN2CC[N-]C2=O)CC1 (3D coordinates assigned)
COc1ccccc1N1CC[NH+](CCN2CC[N-]C2=O)CC1 (nonaromatic ring conformer: 70.2423696143085 kcal/mol)

>  <smiles>  (33) 
COc1ccccc1N1CCN(CCN2CCNC2=O)CC1

>  <score_type>  (33) 
oracle

>  <origin>  (33) 
adg

>  <m_score__min__energy>  (33) 
-7.4500000000000002

>  <m_primary>  (33) 
energy

$$$$
33:0
     RDKit          3D

 45 47  0  0  1  0  0  0  0  0999 V2000
   -7.2790   17.8250  -32.3240 C   0  0  0  0  0  0  0  0  0  0  0  0
   -8.5050   18.5870  -32.1330 N   0  0  0  0  0  0  0  0  0  0  0  0
   -8.4780   19.8570  -31.9770 C   0  0  0  0  0  0  0  0  0  0  0  0
   -7.2920   20.4990  -31.5970 C   0  0  0  0  0  0  0  0  0  0  0  0
   -7.2240   21.8310  -31.4220 C   0  0  0  0  0  0  0  0  0  0  0  0
   -6.1170   22.6790  -31.0800 C   0  0  0  0  0  0  0  0  0  0  0  0
   -6.4120   23.7990  -30.2870 C   0  0  0  0  0  0  0  0  0  0  0  0
   -5.4630   24.6600  -29.8080 C   0  0  0  0  0  0  0  0  0  0  0  0
   -4.1290   24.4660  -30.0880 C   0  0  0  0  0  0  0  0  0  0  0  0
   -3.1040   25.2510  -29.6630 O   0  0  0  0  0  0  0  0  0  0  0  0
   -2.1290   24.8600  -28.7650 C   0  0  0  0  0  0  0  0  0  0  0  0
   -1.3530   23.9000  -29.5030 F   0  0  0  0  0  0  0  0  0  0  0  0
   -1.2550   25.8150  -28.3460 F   0  0  0  0  0  0  0  0  0  0  0  0
   -2.6550   24.0470  -27.5810 C   0  0  0  0  0  0  0  0  0  0  0  0
   -2.9280   22.7620  -28.0130 F   0  0  0  0  0  0  0  0  0  0  0  0
   -3.9030   24.6000  -27.2100 F   0  0  0  0  0  0  0  0  0  0  0  0
   -1.9050   24.0430  -26.4750 F   0  0  0  0  0  0  0  0  0  0  0  0
   -3.8250   23.3690  -30.8670 C   0  0  0  0  0  0  0  0  0  0  0  0
   -4.7950   22.4820  -31.3630 C   0  0  0  0  0  0  0  0  0  0  0  0
   -4.2040   21.1730  -32.3230 S   0  0  0  0  0  0  0  0  0  0  0  0
   -4.3690   21.4710  -33.8010 O   0  0  0  0  0  0  0  0  0  0  0  0
   -4.7390   19.8770  -31.9170 O   0  0  0  0  0  0  0  0  0  0  0  0
   -2.4320   21.0430  -32.1510 C   0  0  0  0  0  0  0  0  0  0  0  0
   -1.6030   21.1700  -33.2320 C   0  0  0  0  0  0  0  0  0  0  0  0
   -0.2520   21.0600  -33.0240 C   0  0  0  0  0  0  0  0  0  0  0  0
    0.2840   20.8280  -31.7830 C   0  0  0  0  0  0  0  0  0  0  0  0
   -0.5480   20.6990  -30.6900 C   0  0  0  0  0  0  0  0  0  0  0  0
   -1.8930   20.8100  -30.9000 C   0  0  0  0  0  0  0  0  0  0  0  0
   -8.4160   22.4960  -31.6530 N   0  0  0  0  0  0  0  0  0  0  0  0
   -9.5380   21.8760  -32.0140 C   0  0  0  0  0  0  0  0  0  0  0  0
   -9.6160   20.5540  -32.1890 N   0  0  0  0  0  0  0  0  0  0  0  0
   -6.8547   17.5613  -31.3440 H   0  0  0  0  0  0  0  0  0  0  0  0
   -7.5022   16.9062  -32.8862 H   0  0  0  0  0  0  0  0  0  0  0  0
   -6.5539   18.4318  -32.8862 H   0  0  0  0  0  0  0  0  0  0  0  0
   -6.3873   19.8942  -31.4366 H   0  0  0  0  0  0  0  0  0  0  0  0
   -7.4650   23.9953  -30.0368 H   0  0  0  0  0  0  0  0  0  0  0  0
   -5.7695   25.5179  -29.1915 H   0  0  0  0  0  0  0  0  0  0  0  0
   -2.7696   23.1791  -31.1123 H   0  0  0  0  0  0  0  0  0  0  0  0
   -2.0081   21.3548  -34.2379 H   0  0  0  0  0  0  0  0  0  0  0  0
    0.4266   21.1615  -33.8838 H   0  0  0  0  0  0  0  0  0  0  0  0
    1.3739   20.7450  -31.6595 H   0  0  0  0  0  0  0  0  0  0  0  0
   -0.1423   20.5132  -29.6846 H   0  0  0  0  0  0  0  0  0  0  0  0
   -2.5728   20.7102  -30.0410 H   0  0  0  0  0  0  0  0  0  0  0  0
  -10.4426   22.4807  -32.1756 H   0  0  0  0  0  0  0  0  0  0  0  0
  -10.5060   20.1070  -32.4690 H   0  0  0  0  0  0  0  0  0  0  0  0
  1  2  1  0
  2  3  2  0
  3  4  1  0
  4  5  2  0
  5  6  1  0
  6  7  2  0
  7  8  1  0
  8  9  2  0
  9 10  1  0
 10 11  1  0
 11 12  1  0
 11 13  1  0
 11 14  1  0
 14 15  1  0
 14 16  1  0
 14 17  1  0
  9 18  1  0
 18 19  2  0
 19 20  1  0
 20 21  2  0
 20 22  2  0
 20 23  1  0
 23 24  2  0
 24 25  1  0
 25 26  2  0
 26 27  1  0
 27 28  2  0
  5 29  1  0
 29 30  2  0
 30 31  1  0
 31  3  1  0
 19  6  1  0
 28 23  1  0
  1 32  1  0
  1 33  1  0
  1 34  1  0
  4 35  1  0
  7 36  1  0
  8 37  1  0
 18 38  1  0
 24 39  1  0
 25 40  1  0
 26 41  1  0
 27 42  1  0
 28 43  1  0
 30 44  1  0
 31 45  1  0
M  END
>  <smiles>  (34) 
CN=c1cc(-c2ccc(OC(F)(F)C(F)(F)F)cc2S(=O)(=O)c2ccccc2)nc[nH]1

>  <score_type>  (34) 
oracle

>  <origin>  (34) 
adg

>  <m_score__min__energy>  (34) 
-7.9800000000000004

>  <m_primary>  (34) 
energy

$$$$
34:0
     RDKit          3D

 57 60  0  0  0  0  0  0  0  0999 V2000
   -4.1800   24.9120  -26.3450 C   0  0  0  0  0  0  0  0  0  0  0  0
   -3.6490   23.7050  -27.1330 C   0  0  0  0  0  0  0  0  0  0  0  0
   -2.1820   23.7280  -27.3640 N   0  0  0  0  0  0  0  0  0  0  0  0
   -1.6360   25.0780  -27.6340 C   0  0  0  0  0  0  0  0  0  0  0  0
   -0.9400   25.6630  -26.4050 C   0  0  0  0  0  0  0  0  0  0  0  0
   -1.7650   22.7540  -28.3980 C   0  0  0  0  0  0  0  0  0  0  0  0
   -1.5630   23.4620  -29.7420 C   0  0  0  0  0  0  0  0  0  0  0  0
   -2.8410   23.6120  -30.4320 N   0  0  0  0  0  0  0  0  0  0  0  0
   -3.5080   24.8150  -30.3950 O   0  0  0  0  0  0  0  0  0  0  0  0
   -4.8910   24.4710  -30.4050 C   0  0  1  0  0  0  0  0  0  0  0  0
   -5.7430   24.8850  -29.2000 C   0  0  0  0  0  0  0  0  0  0  0  0
   -7.1720   24.5880  -29.7340 C   0  0  0  0  0  0  0  0  0  0  0  0
   -6.9060   24.0770  -31.1790 C   0  0  1  0  0  0  0  0  0  0  0  0
   -5.7170   24.9520  -31.5780 C   0  0  0  0  0  0  0  0  0  0  0  0
   -6.2130   22.7250  -31.0840 C   0  0  0  0  0  0  0  0  0  0  0  0
   -6.6400   21.4340  -31.6580 C   0  0  0  0  0  0  0  0  0  0  0  0
   -7.7840   21.3360  -32.1800 O   0  0  0  0  0  0  0  0  0  0  0  0
   -5.7730   20.2900  -31.6110 N   0  0  0  0  0  0  0  0  0  0  0  0
   -5.9450   19.1240  -32.4360 C   0  0  0  0  0  0  0  0  0  0  0  0
   -7.0330   18.2700  -32.2010 C   0  0  0  0  0  0  0  0  0  0  0  0
   -7.2190   17.1290  -32.9860 C   0  0  0  0  0  0  0  0  0  0  0  0
   -6.3090   16.8170  -33.9980 C   0  0  0  0  0  0  0  0  0  0  0  0
   -5.1920   17.6380  -34.2200 C   0  0  0  0  0  0  0  0  0  0  0  0
   -4.2240   17.3190  -35.3200 C   0  0  0  0  0  0  0  0  0  0  0  0
   -5.0180   18.7940  -33.4420 C   0  0  0  0  0  0  0  0  0  0  0  0
   -5.0230   23.0230  -30.5790 C   0  0  0  0  0  0  0  0  0  0  0  0
   -3.7120   22.5070  -30.6280 C   0  0  0  0  0  0  0  0  0  0  0  0
   -3.3560   21.3090  -30.7770 O   0  0  0  0  0  0  0  0  0  0  0  0
   -4.0925   24.7131  -25.2667 H   0  0  0  0  0  0  0  0  0  0  0  0
   -3.5918   25.8053  -26.6020 H   0  0  0  0  0  0  0  0  0  0  0  0
   -5.2360   25.0819  -26.6020 H   0  0  0  0  0  0  0  0  0  0  0  0
   -3.8960   22.7912  -26.5727 H   0  0  0  0  0  0  0  0  0  0  0  0
   -4.1261   23.7387  -28.1236 H   0  0  0  0  0  0  0  0  0  0  0  0
   -0.9091   25.0105  -28.4568 H   0  0  0  0  0  0  0  0  0  0  0  0
   -2.4735   25.7394  -27.9009 H   0  0  0  0  0  0  0  0  0  0  0  0
   -1.4113   25.2669  -25.4934 H   0  0  0  0  0  0  0  0  0  0  0  0
    0.1239   25.3840  -26.4186 H   0  0  0  0  0  0  0  0  0  0  0  0
   -1.0318   26.7591  -26.4186 H   0  0  0  0  0  0  0  0  0  0  0  0
   -0.8207   22.2806  -28.0913 H   0  0  0  0  0  0  0  0  0  0  0  0
   -2.5494   21.9908  -28.5090 H   0  0  0  0  0  0  0  0  0  0  0  0
   -1.1263   24.4562  -29.5665 H   0  0  0  0  0  0  0  0  0  0  0  0
   -0.8874   22.8590  -30.3665 H   0  0  0  0  0  0  0  0  0  0  0  0
   -5.5091   24.2791  -28.3122 H   0  0  0  0  0  0  0  0  0  0  0  0
   -5.5882   25.9226  -28.8692 H   0  0  0  0  0  0  0  0  0  0  0  0
   -7.6686   23.8167  -29.1270 H   0  0  0  0  0  0  0  0  0  0  0  0
   -7.8384   25.4625  -29.6991 H   0  0  0  0  0  0  0  0  0  0  0  0
   -7.8122   24.0663  -31.8024 H   0  0  0  0  0  0  0  0  0  0  0  0
   -5.2867   24.6902  -32.5559 H   0  0  0  0  0  0  0  0  0  0  0  0
   -5.8698   26.0322  -31.7189 H   0  0  0  0  0  0  0  0  0  0  0  0
   -5.0470   20.2500  -30.8620 H   0  0  0  0  0  0  0  0  0  0  0  0
   -7.7440   18.5000  -31.3938 H   0  0  0  0  0  0  0  0  0  0  0  0
   -8.0848   16.4747  -32.8062 H   0  0  0  0  0  0  0  0  0  0  0  0
   -6.4677   15.9257  -34.6229 H   0  0  0  0  0  0  0  0  0  0  0  0
   -3.2648   17.0029  -34.8841 H   0  0  0  0  0  0  0  0  0  0  0  0
   -4.6297   16.5070  -35.9414 H   0  0  0  0  0  0  0  0  0  0  0  0
   -4.0675   18.2131  -35.9414 H   0  0  0  0  0  0  0  0  0  0  0  0
   -4.1506   19.4465  -33.6203 H   0  0  0  0  0  0  0  0  0  0  0  0
  1  2  1  0
  2  3  1  0
  3  4  1  0
  4  5  1  0
  3  6  1  0
  6  7  1  0
  7  8  1  0
  8  9  1  0
 10  9  1  1
 10 11  1  0
 11 12  1  0
 12 13  1  0
 13 14  1  0
 13 15  1  0
 15 16  1  0
 16 17  2  0
 16 18  1  0
 18 19  1  0
 19 20  2  0
 20 21  1  0
 21 22  2  0
 22 23  1  0
 23 24  1  0
 23 25  2  0
 15 26  2  0
 26 27  1  0
 27 28  2  0
 27  8  1  0
 14 10  1  0
 25 19  1  0
 26 10  1  0
  1 29  1  0
  1 30  1  0
  1 31  1  0
  2 32  1  0
  2 33  1  0
  4 34  1  0
  4 35  1  0
  5 36  1  0
  5 37  1  0
  5 38  1  0
  6 39  1  0
  6 40  1  0
  7 41  1  0
  7 42  1  0
 11 43  1  0
 11 44  1  0
 12 45  1  0
 12 46  1  0
 13 47  1  6
 14 48  1  0
 14 49  1  0
 18 50  1  0
 20 51  1  0
 21 52  1  0
 22 53  1  0
 24 54  1  0
 24 55  1  0
 24 56  1  0
 25 57  1  0
M  END
>  <UniqueID>  (35) 
31

>  <SMILES>  (35) 
CCN(CC)CCN1O[C@@]23CC[C@@H](C2)C(C(=O)Nc2cccc(C)c2)=C3C1=O

>  <Energy>  (35) 
145.99036558787023

>  <Genealogy>  (35) 
CCN(CC)CCN1O[C@@]23CC[C@@H](C2)C(C(=O)Nc2cccc(C)c2)=C3C1=O (chirality)
CCN(CC)CCN1O[C@@]23CC[C@@H](C2)C(C(=O)Nc2cccc(C)c2)=C3C1=O (3D coordinates assigned)
CCN(CC)CCN1O[C@@]23CC[C@@H](C2)C(C(=O)Nc2cccc(C)c2)=C3C1=O (nonaromatic ring conformer: 145.99036558787023 kcal/mol)

>  <smiles>  (35) 
CCN(CC)CCN1OC23CCC(C2)C(C(=O)Nc2cccc(C)c2)=C3C1=O

>  <score_type>  (35) 
oracle

>  <origin>  (35) 
adg

>  <m_score__min__energy>  (35) 
-8.8100000000000005

>  <m_primary>  (35) 
energy

$$$$
35:0
     RDKit          3D

 45 47  0  0  0  0  0  0  0  0999 V2000
   -0.7920   26.9330  -27.5040 C   0  0  0  0  0  0  0  0  0  0  0  0
   -0.8900   26.0220  -28.5930 O   0  0  0  0  0  0  0  0  0  0  0  0
   -0.5190   24.6780  -28.4920 C   0  0  0  0  0  0  0  0  0  0  0  0
    0.2890   24.1860  -29.3270 O   0  0  0  0  0  0  0  0  0  0  0  0
   -1.0910   23.8330  -27.4710 N   0  0  0  0  0  0  0  0  0  0  0  0
   -0.2570   23.5210  -26.2980 C   0  0  0  0  0  0  0  0  0  0  0  0
   -0.8630   22.3980  -25.4400 C   0  0  0  0  0  0  0  0  0  0  0  0
   -1.3600   21.2470  -26.3270 C   0  0  0  0  0  0  0  0  0  0  0  0
   -2.3420   21.7040  -27.4310 C   0  0  0  0  0  0  0  0  0  0  0  0
   -2.4440   23.2380  -27.5480 C   0  0  2  0  0  0  0  0  0  0  0  0
   -3.2360   23.6540  -28.7620 C   0  0  0  0  0  0  0  0  0  0  0  0
   -4.2430   22.9260  -29.3600 C   0  0  0  0  0  0  0  0  0  0  0  0
   -4.6680   23.7460  -30.3890 C   0  0  0  0  0  0  0  0  0  0  0  0
   -5.7400   23.4680  -31.3610 C   0  0  0  0  0  0  0  0  0  0  0  0
   -5.6080   23.8770  -32.5460 O   0  0  0  0  0  0  0  0  0  0  0  0
   -6.9240   22.7510  -30.9780 N   0  0  0  0  0  0  0  0  0  0  0  0
   -7.9650   22.3920  -31.9390 C   0  0  0  0  0  0  0  0  0  0  0  0
   -7.9530   20.9070  -32.1910 C   0  0  0  0  0  0  0  0  0  0  0  0
   -9.0570   20.1260  -31.8140 C   0  0  0  0  0  0  0  0  0  0  0  0
   -9.0490   18.7820  -32.0200 N   0  0  0  0  0  0  0  0  0  0  0  0
   -7.9870   18.1530  -32.5900 C   0  0  0  0  0  0  0  0  0  0  0  0
   -6.8660   18.8870  -32.9780 C   0  0  0  0  0  0  0  0  0  0  0  0
   -6.8460   20.2690  -32.7770 C   0  0  0  0  0  0  0  0  0  0  0  0
   -5.7510   20.9780  -33.1540 F   0  0  0  0  0  0  0  0  0  0  0  0
   -3.9440   24.8830  -30.3870 N   0  0  0  0  0  0  0  0  0  0  0  0
   -3.1010   24.7950  -29.4000 O   0  0  0  0  0  0  0  0  0  0  0  0
   -0.8516   26.3787  -26.5557 H   0  0  0  0  0  0  0  0  0  0  0  0
    0.1687   27.4662  -27.5573 H   0  0  0  0  0  0  0  0  0  0  0  0
   -1.6173   27.6583  -27.5573 H   0  0  0  0  0  0  0  0  0  0  0  0
    0.7382   23.2052  -26.6442 H   0  0  0  0  0  0  0  0  0  0  0  0
   -0.1944   24.4263  -25.6763 H   0  0  0  0  0  0  0  0  0  0  0  0
   -0.0961   22.0169  -24.7496 H   0  0  0  0  0  0  0  0  0  0  0  0
   -1.7156   22.8041  -24.8759 H   0  0  0  0  0  0  0  0  0  0  0  0
   -0.4898   20.7758  -26.8073 H   0  0  0  0  0  0  0  0  0  0  0  0
   -1.9048   20.5469  -25.6765 H   0  0  0  0  0  0  0  0  0  0  0  0
   -1.9982   21.3009  -28.3950 H   0  0  0  0  0  0  0  0  0  0  0  0
   -3.3396   21.3272  -27.1611 H   0  0  0  0  0  0  0  0  0  0  0  0
   -3.0160   23.6364  -26.6971 H   0  0  0  0  0  0  0  0  0  0  0  0
   -4.6188   21.9297  -29.0840 H   0  0  0  0  0  0  0  0  0  0  0  0
   -7.0690   22.4770  -29.9810 H   0  0  0  0  0  0  0  0  0  0  0  0
   -8.9464   22.6841  -31.5371 H   0  0  0  0  0  0  0  0  0  0  0  0
   -7.7746   22.9176  -32.8863 H   0  0  0  0  0  0  0  0  0  0  0  0
   -9.9325   20.6035  -31.3498 H   0  0  0  0  0  0  0  0  0  0  0  0
   -8.0117   17.0643  -32.7454 H   0  0  0  0  0  0  0  0  0  0  0  0
   -6.0045   18.3813  -33.4386 H   0  0  0  0  0  0  0  0  0  0  0  0
  1  2  1  0
  2  3  1  0
  3  4  2  0
  3  5  1  0
  5  6  1  0
  6  7  1  0
  7  8  1  0
  8  9  1  0
  9 10  1  0
 10 11  1  0
 11 12  2  0
 12 13  1  0
 13 14  1  0
 14 15  2  0
 14 16  1  0
 16 17  1  0
 17 18  1  0
 18 19  2  0
 19 20  1  0
 20 21  2  0
 21 22  1  0
 22 23  2  0
 23 24  1  0
 13 25  2  0
 25 26  1  0
 10  5  1  0
 26 11  1  0
 23 18  1  0
  1 27  1  0
  1 28  1  0
  1 29  1  0
  6 30  1  0
  6 31  1  0
  7 32  1  0
  7 33  1  0
  8 34  1  0
  8 35  1  0
  9 36  1  0
  9 37  1  0
 10 38  1  1
 12 39  1  0
 16 40  1  0
 17 41  1  0
 17 42  1  0
 19 43  1  0
 21 44  1  0
 22 45  1  0
M  END
>  <UniqueID>  (36) 
32

>  <SMILES>  (36) 
COC(=O)N1CCCC[C@@H]1c1cc(C(=O)NCc2cnccc2F)no1

>  <Energy>  (36) 
79.15067483898763

>  <Genealogy>  (36) 
COC(=O)N1CCCC[C@@H]1c1cc(C(=O)NCc2cnccc2F)no1 (chirality)
COC(=O)N1CCCC[C@@H]1c1cc(C(=O)NCc2cnccc2F)no1 (3D coordinates assigned)
COC(=O)N1CCCC[C@@H]1c1cc(C(=O)NCc2cnccc2F)no1 (nonaromatic ring conformer: 79.15067483898763 kcal/mol)

>  <smiles>  (36) 
COC(=O)N1CCCCC1c1cc(C(=O)NCc2cnccc2F)no1

>  <score_type>  (36) 
oracle

>  <origin>  (36) 
adg

>  <m_score__min__energy>  (36) 
-8.6400000000000006

>  <m_primary>  (36) 
energy

$$$$
36:0
     RDKit          3D

 37 38  0  0  0  0  0  0  0  0999 V2000
   -6.4570   17.7440  -31.5590 C   0  0  0  0  0  0  0  0  0  0  0  0
   -7.5950   17.9430  -32.5580 C   0  0  0  0  0  0  0  0  0  0  0  0
   -8.7650   18.7700  -31.9870 C   0  0  0  0  0  0  0  0  0  0  0  0
   -9.1070   19.9600  -32.7830 N   0  0  0  0  0  0  0  0  0  0  0  0
   -8.9140   21.2120  -32.0430 C   0  0  0  0  0  0  0  0  0  0  0  0
   -7.4630   21.5850  -32.0650 C   0  0  0  0  0  0  0  0  0  0  0  0
   -6.5370   20.9800  -32.9100 C   0  0  0  0  0  0  0  0  0  0  0  0
   -5.0250   21.6360  -32.5790 S   0  0  0  0  0  0  0  0  0  0  0  0
   -5.5260   22.6750  -31.3530 C   0  0  0  0  0  0  0  0  0  0  0  0
   -4.6410   23.5870  -30.6080 C   0  0  0  0  0  0  0  0  0  0  0  0
   -4.5710   24.7950  -30.9610 O   0  0  0  0  0  0  0  0  0  0  0  0
   -3.8340   23.1060  -29.5200 N   0  0  0  0  0  0  0  0  0  0  0  0
   -3.2260   23.9610  -28.5370 C   0  0  0  0  0  0  0  0  0  0  0  0
   -3.8400   24.2030  -27.2940 C   0  0  0  0  0  0  0  0  0  0  0  0
   -3.2140   25.0210  -26.3460 C   0  0  0  0  0  0  0  0  0  0  0  0
   -1.9690   25.5900  -26.6240 C   0  0  0  0  0  0  0  0  0  0  0  0
   -1.3430   25.3380  -27.8470 C   0  0  0  0  0  0  0  0  0  0  0  0
   -1.9650   24.5210  -28.7980 C   0  0  0  0  0  0  0  0  0  0  0  0
   -6.9000   22.5240  -31.1880 C   0  0  0  0  0  0  0  0  0  0  0  0
   -6.8520   17.8131  -30.5347 H   0  0  0  0  0  0  0  0  0  0  0  0
   -6.0044   16.7531  -31.7114 H   0  0  0  0  0  0  0  0  0  0  0  0
   -5.6950   18.5225  -31.7114 H   0  0  0  0  0  0  0  0  0  0  0  0
   -7.1976   18.4631  -33.4421 H   0  0  0  0  0  0  0  0  0  0  0  0
   -7.9893   16.9470  -32.8081 H   0  0  0  0  0  0  0  0  0  0  0  0
   -9.6527   18.1224  -31.9357 H   0  0  0  0  0  0  0  0  0  0  0  0
   -8.4441   19.1318  -30.9990 H   0  0  0  0  0  0  0  0  0  0  0  0
   -8.5400   19.9800  -33.6620 H   0  0  0  0  0  0  0  0  0  0  0  0
   -9.5055   22.0112  -32.5135 H   0  0  0  0  0  0  0  0  0  0  0  0
   -9.2429   21.0777  -31.0020 H   0  0  0  0  0  0  0  0  0  0  0  0
   -6.7561   20.2081  -33.6624 H   0  0  0  0  0  0  0  0  0  0  0  0
   -3.5880   22.0910  -29.5000 H   0  0  0  0  0  0  0  0  0  0  0  0
   -4.8152   23.7478  -27.0666 H   0  0  0  0  0  0  0  0  0  0  0  0
   -3.7035   25.2160  -25.3804 H   0  0  0  0  0  0  0  0  0  0  0  0
   -1.4814   26.2367  -25.8796 H   0  0  0  0  0  0  0  0  0  0  0  0
   -0.3601   25.7822  -28.0629 H   0  0  0  0  0  0  0  0  0  0  0  0
   -1.4632   24.3164  -29.7553 H   0  0  0  0  0  0  0  0  0  0  0  0
   -7.4855   23.0847  -30.4445 H   0  0  0  0  0  0  0  0  0  0  0  0
  1  2  1  0
  2  3  1  0
  3  4  1  0
  4  5  1  0
  5  6  1  0
  6  7  2  0
  7  8  1  0
  8  9  1  0
  9 10  1  0
 10 11  2  0
 10 12  1  0
 12 13  1  0
 13 14  2  0
 14 15  1  0
 15 16  2  0
 16 17  1  0
 17 18  2  0
  9 19  2  0
 19  6  1  0
 18 13  1  0
  1 20  1  0
  1 21  1  0
  1 22  1  0
  2 23  1  0
  2 24  1  0
  3 25  1  0
  3 26  1  0
  4 27  1  0
  5 28  1  0
  5 29  1  0
  7 30  1  0
 12 31  1  0
 14 32  1  0
 15 33  1  0
 16 34  1  0
 17 35  1  0
 18 36  1  0
 19 37  1  0
M  END
>  <UniqueID>  (37) 
33

>  <SMILES>  (37) 
CCCNCc1csc(C(=O)Nc2ccccc2)c1

>  <Energy>  (37) 
62.01073924623003

>  <Genealogy>  (37) 
CCCNCc1csc(C(=O)Nc2ccccc2)c1 (3D coordinates assigned)
CCCNCc1csc(C(=O)Nc2ccccc2)c1 (optimized conformer: 62.01073924623003 kcal/mol)

>  <smiles>  (37) 
CCCNCc1csc(C(=O)Nc2ccccc2)c1

>  <score_type>  (37) 
oracle

>  <origin>  (37) 
adg

>  <m_score__min__energy>  (37) 
-7.8099999999999996

>  <m_primary>  (37) 
energy

$$$$
37:0
     RDKit          3D

 51 53  0  0  0  0  0  0  0  0999 V2000
   -4.0190   24.1760  -28.2450 C   0  0  0  0  0  0  0  0  0  0  0  0
   -2.9430   24.5730  -29.2500 C   0  0  0  0  0  0  0  0  0  0  0  0
   -3.5500   25.1000  -30.4690 N   0  0  0  0  0  0  0  0  0  0  0  0
   -4.9490   25.0110  -30.7600 C   0  0  0  0  0  0  0  0  0  0  0  0
   -5.6830   26.0340  -30.6770 O   0  0  0  0  0  0  0  0  0  0  0  0
   -5.5260   23.6980  -31.2170 C   0  0  1  0  0  0  0  0  0  0  0  0
   -4.5740   22.5290  -30.9280 C   0  0  0  0  0  0  0  0  0  0  0  0
   -5.1690   21.1740  -31.3840 C   0  0  2  0  0  0  0  0  0  0  0  0
   -4.4910   20.6330  -32.6520 C   0  0  0  0  0  0  0  0  0  0  0  0
   -5.1180   19.3330  -33.1050 C   0  0  0  0  0  0  0  0  0  0  0  0
   -4.4080   18.5090  -33.9900 C   0  0  0  0  0  0  0  0  0  0  0  0
   -4.9710   17.3230  -34.4640 C   0  0  0  0  0  0  0  0  0  0  0  0
   -6.2720   16.9560  -34.0870 C   0  0  0  0  0  0  0  0  0  0  0  0
   -6.8790   15.6860  -34.5420 C   0  0  0  0  0  0  0  0  0  0  0  0
   -6.4510   14.4550  -34.2180 C   0  0  0  0  0  0  0  0  0  0  0  0
   -5.1660   14.1370  -33.5650 C   0  0  0  0  0  0  0  0  0  0  0  0
   -4.1350   13.4160  -34.2440 N   0  0  0  0  0  0  0  0  0  0  0  0
   -5.0060   14.4510  -32.3570 O   0  0  0  0  0  0  0  0  0  0  0  0
   -6.9800   17.7650  -33.1870 C   0  0  0  0  0  0  0  0  0  0  0  0
   -6.4300   18.9650  -32.7130 C   0  0  0  0  0  0  0  0  0  0  0  0
   -7.2260   19.7920  -31.7250 C   0  0  0  0  0  0  0  0  0  0  0  0
   -6.6980   21.2410  -31.6160 C   0  0  1  0  0  0  0  0  0  0  0  0
   -7.3100   22.0230  -30.5110 N   0  0  0  0  0  0  0  0  0  0  0  0
   -8.7820   21.9210  -30.4760 C   0  0  0  0  0  0  0  0  0  0  0  0
   -6.9160   23.4570  -30.5730 C   0  0  0  0  0  0  0  0  0  0  0  0
   -3.6365   24.3171  -27.2234 H   0  0  0  0  0  0  0  0  0  0  0  0
   -4.9092   24.8049  -28.3933 H   0  0  0  0  0  0  0  0  0  0  0  0
   -4.2875   23.1196  -28.3933 H   0  0  0  0  0  0  0  0  0  0  0  0
   -2.2983   25.3447  -28.8040 H   0  0  0  0  0  0  0  0  0  0  0  0
   -2.3490   23.6829  -29.5049 H   0  0  0  0  0  0  0  0  0  0  0  0
   -5.6549   23.7517  -32.3081 H   0  0  0  0  0  0  0  0  0  0  0  0
   -3.6281   22.7001  -31.4627 H   0  0  0  0  0  0  0  0  0  0  0  0
   -4.4119   22.4818  -29.8410 H   0  0  0  0  0  0  0  0  0  0  0  0
   -4.9708   20.4822  -30.5521 H   0  0  0  0  0  0  0  0  0  0  0  0
   -4.5910   21.3771  -33.4559 H   0  0  0  0  0  0  0  0  0  0  0  0
   -3.4319   20.4436  -32.4228 H   0  0  0  0  0  0  0  0  0  0  0  0
   -3.3978   18.8000  -34.3138 H   0  0  0  0  0  0  0  0  0  0  0  0
   -4.3921   16.6728  -35.1364 H   0  0  0  0  0  0  0  0  0  0  0  0
   -7.7560   15.7559  -35.2023 H   0  0  0  0  0  0  0  0  0  0  0  0
   -7.1147   13.6118  -34.4599 H   0  0  0  0  0  0  0  0  0  0  0  0
   -3.2200   13.2440  -33.7730 H   0  0  0  0  0  0  0  0  0  0  0  0
   -4.3020   12.9880  -35.1820 H   0  0  0  0  0  0  0  0  0  0  0  0
   -7.9795   17.4546  -32.8483 H   0  0  0  0  0  0  0  0  0  0  0  0
   -8.2757   19.8213  -32.0525 H   0  0  0  0  0  0  0  0  0  0  0  0
   -7.1279   19.3219  -30.7354 H   0  0  0  0  0  0  0  0  0  0  0  0
   -6.9640   21.7566  -32.5506 H   0  0  0  0  0  0  0  0  0  0  0  0
   -9.1231   21.8974  -29.4305 H   0  0  0  0  0  0  0  0  0  0  0  0
   -9.2220   22.7908  -30.9857 H   0  0  0  0  0  0  0  0  0  0  0  0
   -9.0979   20.9988  -30.9857 H   0  0  0  0  0  0  0  0  0  0  0  0
   -7.6700   23.9984  -31.1632 H   0  0  0  0  0  0  0  0  0  0  0  0
   -6.8546   23.8170  -29.5354 H   0  0  0  0  0  0  0  0  0  0  0  0
  1  2  1  0
  2  3  1  0
  3  4  1  0
  4  5  2  0
  4  6  1  0
  6  7  1  0
  7  8  1  0
  8  9  1  0
  9 10  1  0
 10 11  2  0
 11 12  1  0
 12 13  2  0
 13 14  1  0
 14 15  2  3
 15 16  1  0
 16 17  1  0
 16 18  2  0
 13 19  1  0
 19 20  2  0
 20 21  1  0
 21 22  1  0
 22 23  1  0
 23 24  1  0
 23 25  1  0
 25  6  1  0
 22  8  1  0
 20 10  1  0
  1 26  1  0
  1 27  1  0
  1 28  1  0
  2 29  1  0
  2 30  1  0
  6 31  1  6
  7 32  1  0
  7 33  1  0
  8 34  1  1
  9 35  1  0
  9 36  1  0
 11 37  1  0
 12 38  1  0
 14 39  1  0
 15 40  1  0
 17 41  1  0
 17 42  1  0
 19 43  1  0
 21 44  1  0
 21 45  1  0
 22 46  1  6
 24 47  1  0
 24 48  1  0
 24 49  1  0
 25 50  1  0
 25 51  1  0
M  CHG  1   3  -1
M  END
>  <UniqueID>  (38) 
34

>  <SMILES>  (38) 
CC[N-]C(=O)[C@H]1C[C@@H]2Cc3ccc(C=CC(N)=O)cc3CC2N(C)C1

>  <Energy>  (38) 
66.53091754877656

>  <Genealogy>  (38) 
CC[N-]C(=O)C1CC2Cc3ccc(C=CC(N)=O)cc3CC2N(C)C1 (protonated)
CC[N-]C(=O)[C@H]1C[C@@H]2Cc3ccc(C=CC(N)=O)cc3CC2N(C)C1 (chirality)
CC[N-]C(=O)[C@H]1C[C@@H]2Cc3ccc(C=CC(N)=O)cc3CC2N(C)C1 (3D coordinates assigned)
CC[N-]C(=O)[C@H]1C[C@@H]2Cc3ccc(C=CC(N)=O)cc3CC2N(C)C1 (nonaromatic ring conformer: 66.53091754877656 kcal/mol)

>  <smiles>  (38) 
CCNC(=O)C1CC2Cc3ccc(C=CC(N)=O)cc3CC2N(C)C1

>  <score_type>  (38) 
oracle

>  <origin>  (38) 
adg

>  <m_score__min__energy>  (38) 
-10.15

>  <m_primary>  (38) 
energy

$$$$
38:0
     RDKit          3D

 51 54  0  0  0  0  0  0  0  0999 V2000
   -2.0700   28.0200  -25.1930 H   0  0  0  0  0  0  0  0  0  0  0  0
   -1.6140   27.2840  -25.6760 O   0  0  0  0  0  0  0  0  0  0  0  0
   -1.5710   26.1660  -24.8250 C   0  0  2  0  0  0  0  0  0  0  0  0
   -2.5620   26.0025  -24.3764 H   0  0  0  0  0  0  0  0  0  0  0  0
   -0.6270   26.4210  -23.6360 C   0  0  0  0  0  0  0  0  0  0  0  0
   -1.1754   26.2728  -22.6941 H   0  0  0  0  0  0  0  0  0  0  0  0
    0.2187   25.7191  -23.6822 H   0  0  0  0  0  0  0  0  0  0  0  0
   -0.2497   27.4532  -23.6822 H   0  0  0  0  0  0  0  0  0  0  0  0
   -1.2690   24.8680  -25.6330 C   0  0  2  0  0  0  0  0  0  0  0  0
   -2.2022   24.2891  -25.5698 H   0  0  0  0  0  0  0  0  0  0  0  0
   -0.0790   24.0750  -25.0320 C   0  0  0  0  0  0  0  0  0  0  0  0
   -0.3657   23.0301  -24.8426 H   0  0  0  0  0  0  0  0  0  0  0  0
    0.2508   24.4882  -24.0674 H   0  0  0  0  0  0  0  0  0  0  0  0
    0.9310   24.1430  -26.0140 O   0  0  0  0  0  0  0  0  0  0  0  0
    0.4280   24.7250  -27.1520 C   0  0  0  0  0  0  0  0  0  0  0  0
    1.1270   24.9070  -28.1840 O   0  0  0  0  0  0  0  0  0  0  0  0
   -0.9380   25.1240  -27.0630 N   0  0  1  0  0  0  0  0  0  0  0  0
   -1.0020   26.1340  -27.3290 H   0  0  0  0  0  0  0  0  0  0  0  0
   -1.7490   24.3140  -27.9480 C   0  0  0  0  0  0  0  0  0  0  0  0
   -2.4680   24.8970  -28.9510 N   0  0  0  0  0  0  0  0  0  0  0  0
   -3.1920   24.1560  -29.8300 C   0  0  0  0  0  0  0  0  0  0  0  0
   -3.8650   24.7580  -30.7660 N   0  0  0  0  0  0  0  0  0  0  0  0
   -5.2870   24.9550  -30.7750 C   0  0  0  0  0  0  0  0  0  0  0  0
   -5.7380   26.1030  -30.5250 O   0  0  0  0  0  0  0  0  0  0  0  0
   -6.2260   23.8690  -31.1360 C   0  0  0  0  0  0  0  0  0  0  0  0
   -7.6070   23.9870  -31.0000 C   0  0  0  0  0  0  0  0  0  0  0  0
   -8.1455   24.8671  -30.6185 H   0  0  0  0  0  0  0  0  0  0  0  0
   -8.3060   22.5540  -31.5190 S   0  0  0  0  0  0  0  0  0  0  0  0
   -6.8780   21.7620  -31.9410 C   0  0  0  0  0  0  0  0  0  0  0  0
   -6.7810   20.3730  -32.4660 C   0  0  0  0  0  0  0  0  0  0  0  0
   -7.6230   19.3670  -31.9600 C   0  0  0  0  0  0  0  0  0  0  0  0
   -8.3650   19.6154  -31.1869 H   0  0  0  0  0  0  0  0  0  0  0  0
   -7.5260   18.0550  -32.4300 C   0  0  0  0  0  0  0  0  0  0  0  0
   -8.1895   17.2766  -32.0252 H   0  0  0  0  0  0  0  0  0  0  0  0
   -6.5900   17.7300  -33.4110 C   0  0  0  0  0  0  0  0  0  0  0  0
   -6.5164   16.6940  -33.7732 H   0  0  0  0  0  0  0  0  0  0  0  0
   -5.7440   18.7110  -33.9380 C   0  0  0  0  0  0  0  0  0  0  0  0
   -4.8200   18.3320  -34.9230 O   0  0  0  0  0  0  0  0  0  0  0  0
   -4.1560   17.0720  -34.9640 C   0  0  0  0  0  0  0  0  0  0  0  0
   -3.9712   16.7214  -33.9379 H   0  0  0  0  0  0  0  0  0  0  0  0
   -4.7866   16.3422  -35.4929 H   0  0  0  0  0  0  0  0  0  0  0  0
   -3.1975   17.1797  -35.4929 H   0  0  0  0  0  0  0  0  0  0  0  0
   -5.8440   20.0340  -33.4640 C   0  0  0  0  0  0  0  0  0  0  0  0
   -5.1840   20.8111  -33.8769 H   0  0  0  0  0  0  0  0  0  0  0  0
   -5.8220   22.6350  -31.6760 C   0  0  0  0  0  0  0  0  0  0  0  0
   -4.7697   22.3811  -31.8716 H   0  0  0  0  0  0  0  0  0  0  0  0
   -3.2150   22.8000  -29.7070 N   0  0  0  0  0  0  0  0  0  0  0  0
   -2.5110   22.1720  -28.7310 C   0  0  0  0  0  0  0  0  0  0  0  0
   -2.5397   21.0753  -28.6507 H   0  0  0  0  0  0  0  0  0  0  0  0
   -1.7520   22.9170  -27.8310 C   0  0  0  0  0  0  0  0  0  0  0  0
   -1.1666   22.4188  -27.0441 H   0  0  0  0  0  0  0  0  0  0  0  0
  1  2  1  0
  2  3  1  0
  3  4  1  1
  3  5  1  0
  5  6  1  0
  5  7  1  0
  5  8  1  0
  3  9  1  0
  9 10  1  6
  9 11  1  0
 11 12  1  0
 11 13  1  0
 11 14  1  0
 14 15  1  0
 15 16  2  0
 15 17  1  0
 17 18  1  6
 17 19  1  0
 19 20  2  0
 20 21  1  0
 21 22  2  0
 22 23  1  0
 23 24  2  0
 23 25  1  0
 25 26  2  0
 26 27  1  0
 26 28  1  0
 28 29  1  0
 29 30  1  0
 30 31  2  0
 31 32  1  0
 31 33  1  0
 33 34  1  0
 33 35  2  0
 35 36  1  0
 35 37  1  0
 37 38  1  0
 38 39  1  0
 39 40  1  0
 39 41  1  0
 39 42  1  0
 37 43  2  0
 43 44  1  0
 29 45  2  0
 45 46  1  0
 21 47  1  0
 47 48  1  0
 48 49  1  0
 48 50  2  0
 50 51  1  0
 17  9  1  0
 50 19  1  0
 45 25  1  0
 43 30  1  0
M  CHG  2  17   1  47  -1
M  END
>  <UniqueID>  (39) 
35

>  <SMILES>  (39) 
COc1cccc(-c2cc(C(=O)/N=c3/nc([N@@H+]4C(=O)OC[C@H]4C(C)O)cc[n-]3)cs2)c1

>  <Energy>  (39) 
103.83989109357498

>  <Genealogy>  (39) 
COc1cccc(-c2cc(C(=O)N=c3nc([NH+]4C(=O)OCC4C(C)O)cc[n-]3)cs2)c1 (protonated)
COc1cccc(-c2cc(C(=O)N=c3nc([N@@H+]4C(=O)OC[C@H]4C(C)O)cc[n-]3)cs2)c1 (chirality)
COc1cccc(-c2cc(C(=O)/N=c3/nc([N@@H+]4C(=O)OC[C@H]4C(C)O)cc[n-]3)cs2)c1 (cis-trans isomerization)
COc1cccc(-c2cc(C(=O)/N=c3/nc([N@@H+]4C(=O)OC[C@H]4C(C)O)cc[n-]3)cs2)c1 (3D coordinates assigned)
COc1cccc(-c2cc(C(=O)/N=c3/nc([N@@H+]4C(=O)OC[C@H]4C(C)O)cc[n-]3)cs2)c1 (nonaromatic ring conformer: 103.83989109357498 kcal/mol)

>  <smiles>  (39) 
COc1cccc(-c2cc(C(=O)N=c3nc(N4C(=O)OCC4C(C)O)cc[nH]3)cs2)c1

>  <score_type>  (39) 
oracle

>  <origin>  (39) 
adg

>  <m_score__min__energy>  (39) 
-10.52

>  <m_primary>  (39) 
energy

$$$$
39:0
     RDKit          3D

 36 38  0  0  0  0  0  0  0  0999 V2000
   -5.3610   26.0280  -30.4790 C   0  0  0  0  0  0  0  0  0  0  0  0
   -4.0270   25.5290  -30.4700 O   0  0  0  0  0  0  0  0  0  0  0  0
   -3.6290   24.3310  -29.8580 C   0  0  0  0  0  0  0  0  0  0  0  0
   -4.3680   23.1420  -29.9940 C   0  0  0  0  0  0  0  0  0  0  0  0
   -3.9430   21.9690  -29.3700 C   0  0  0  0  0  0  0  0  0  0  0  0
   -2.7740   21.9540  -28.5900 C   0  0  0  0  0  0  0  0  0  0  0  0
   -2.3420   20.6920  -27.9340 C   0  0  0  0  0  0  0  0  0  0  0  0
   -3.0990   19.9920  -26.9900 C   0  0  0  0  0  0  0  0  0  0  0  0
   -2.2280   18.6300  -26.5350 S   0  0  0  0  0  0  0  0  0  0  0  0
   -0.9280   18.9690  -27.5460 C   0  0  0  0  0  0  0  0  0  0  0  0
    0.2950   18.1480  -27.6880 C   0  0  0  0  0  0  0  0  0  0  0  0
    1.4030   18.6520  -28.3900 C   0  0  0  0  0  0  0  0  0  0  0  0
    2.5520   17.8710  -28.5200 C   0  0  0  0  0  0  0  0  0  0  0  0
    2.5940   16.5990  -27.9520 C   0  0  0  0  0  0  0  0  0  0  0  0
    1.4790   16.1230  -27.2590 C   0  0  0  0  0  0  0  0  0  0  0  0
    0.3640   16.8950  -27.1400 N   0  0  0  0  0  0  0  0  0  0  0  0
   -1.1450   20.1130  -28.2340 N   0  0  0  0  0  0  0  0  0  0  0  0
   -2.0330   23.1440  -28.4600 C   0  0  0  0  0  0  0  0  0  0  0  0
   -2.4570   24.3320  -29.0890 C   0  0  0  0  0  0  0  0  0  0  0  0
   -1.7370   25.5330  -28.9760 O   0  0  0  0  0  0  0  0  0  0  0  0
   -1.0130   25.9360  -27.8180 C   0  0  0  0  0  0  0  0  0  0  0  0
   -5.7106   26.1588  -29.4442 H   0  0  0  0  0  0  0  0  0  0  0  0
   -5.3867   26.9965  -30.9999 H   0  0  0  0  0  0  0  0  0  0  0  0
   -6.0160   25.3141  -30.9999 H   0  0  0  0  0  0  0  0  0  0  0  0
   -5.2880   23.1371  -30.5970 H   0  0  0  0  0  0  0  0  0  0  0  0
   -4.5291   21.0459  -29.4897 H   0  0  0  0  0  0  0  0  0  0  0  0
   -4.0904   20.2821  -26.6118 H   0  0  0  0  0  0  0  0  0  0  0  0
    1.3648   19.6573  -28.8349 H   0  0  0  0  0  0  0  0  0  0  0  0
    3.4226   18.2584  -29.0695 H   0  0  0  0  0  0  0  0  0  0  0  0
    3.4958   15.9766  -28.0486 H   0  0  0  0  0  0  0  0  0  0  0  0
    1.5017   15.1202  -26.8074 H   0  0  0  0  0  0  0  0  0  0  0  0
   -0.4470   16.5020  -26.6130 H   0  0  0  0  0  0  0  0  0  0  0  0
   -1.1112   23.1467  -27.8598 H   0  0  0  0  0  0  0  0  0  0  0  0
   -1.5635   25.6296  -26.9163 H   0  0  0  0  0  0  0  0  0  0  0  0
   -0.0213   25.4601  -27.8216 H   0  0  0  0  0  0  0  0  0  0  0  0
   -0.8949   27.0296  -27.8216 H   0  0  0  0  0  0  0  0  0  0  0  0
  1  2  1  0
  2  3  1  0
  3  4  2  0
  4  5  1  0
  5  6  2  0
  6  7  1  0
  7  8  2  0
  8  9  1  0
  9 10  1  0
 10 11  1  0
 11 12  2  0
 12 13  1  0
 13 14  2  0
 14 15  1  0
 15 16  2  0
 10 17  2  0
  6 18  1  0
 18 19  2  0
 19 20  1  0
 20 21  1  0
 19  3  1  0
 17  7  1  0
 16 11  1  0
  1 22  1  0
  1 23  1  0
  1 24  1  0
  4 25  1  0
  5 26  1  0
  8 27  1  0
 12 28  1  0
 13 29  1  0
 14 30  1  0
 15 31  1  0
 16 32  1  0
 18 33  1  0
 21 34  1  0
 21 35  1  0
 21 36  1  0
M  CHG  1  16   1
M  END
>  <UniqueID>  (40) 
36

>  <SMILES>  (40) 
COc1ccc(-c2csc(-c3cccc[nH+]3)n2)cc1OC

>  <Energy>  (40) 
70.27586912461722

>  <Genealogy>  (40) 
COc1ccc(-c2csc(-c3cccc[nH+]3)n2)cc1OC (protonated)
COc1ccc(-c2csc(-c3cccc[nH+]3)n2)cc1OC (3D coordinates assigned)
COc1ccc(-c2csc(-c3cccc[nH+]3)n2)cc1OC (optimized conformer: 70.27586912461722 kcal/mol)

>  <smiles>  (40) 
COc1ccc(-c2csc(-c3ccccn3)n2)cc1OC

>  <score_type>  (40) 
oracle

>  <origin>  (40) 
adg

>  <m_score__min__energy>  (40) 
-7.29

>  <m_primary>  (40) 
energy

$$$$
40:0
     RDKit          3D

 35 36  0  0  0  0  0  0  0  0999 V2000
   -9.1080   22.5300  -31.9490 C   0  0  0  0  0  0  0  0  0  0  0  0
   -7.8730   23.4320  -31.8480 C   0  0  0  0  0  0  0  0  0  0  0  0
   -6.8470   22.8690  -30.9350 N   0  0  0  0  0  0  0  0  0  0  0  0
   -6.6160   23.7320  -29.7490 C   0  0  0  0  0  0  0  0  0  0  0  0
   -6.4810   25.2280  -30.0690 C   0  0  0  0  0  0  0  0  0  0  0  0
   -5.5970   22.5750  -31.6140 C   0  0  0  0  0  0  0  0  0  0  0  0
   -4.6570   23.4200  -31.5980 O   0  0  0  0  0  0  0  0  0  0  0  0
   -5.3700   21.2820  -32.3050 C   0  0  0  0  0  0  0  0  0  0  0  0
   -4.2590   20.9850  -32.9960 C   0  0  0  0  0  0  0  0  0  0  0  0
   -4.3830   19.6300  -33.5310 C   0  0  0  0  0  0  0  0  0  0  0  0
   -3.5250   19.0290  -34.2290 O   0  0  0  0  0  0  0  0  0  0  0  0
   -5.6700   19.1140  -33.1040 C   0  0  0  0  0  0  0  0  0  0  0  0
   -6.3040   17.8830  -33.3010 C   0  0  0  0  0  0  0  0  0  0  0  0
   -5.6620   16.7890  -34.1020 C   0  0  0  0  0  0  0  0  0  0  0  0
   -7.5700   17.7100  -32.7070 C   0  0  0  0  0  0  0  0  0  0  0  0
   -8.1410   18.7540  -31.9510 C   0  0  0  0  0  0  0  0  0  0  0  0
   -7.4780   19.9350  -31.7900 N   0  0  0  0  0  0  0  0  0  0  0  0
   -6.2610   20.1100  -32.3660 C   0  0  0  0  0  0  0  0  0  0  0  0
   -9.4586   22.2739  -30.9383 H   0  0  0  0  0  0  0  0  0  0  0  0
   -9.9056   23.0597  -32.4906 H   0  0  0  0  0  0  0  0  0  0  0  0
   -8.8461   21.6091  -32.4906 H   0  0  0  0  0  0  0  0  0  0  0  0
   -7.4331   23.5455  -32.8498 H   0  0  0  0  0  0  0  0  0  0  0  0
   -8.1934   24.4029  -31.4420 H   0  0  0  0  0  0  0  0  0  0  0  0
   -7.2440   21.9710  -30.5740 H   0  0  0  0  0  0  0  0  0  0  0  0
   -7.4632   23.6029  -29.0594 H   0  0  0  0  0  0  0  0  0  0  0  0
   -5.6564   23.4165  -29.3136 H   0  0  0  0  0  0  0  0  0  0  0  0
   -6.4293   25.8004  -29.1311 H   0  0  0  0  0  0  0  0  0  0  0  0
   -5.5640   25.3968  -30.6526 H   0  0  0  0  0  0  0  0  0  0  0  0
   -7.3530   25.5583  -30.6526 H   0  0  0  0  0  0  0  0  0  0  0  0
   -3.3958   21.6520  -33.1370 H   0  0  0  0  0  0  0  0  0  0  0  0
   -5.2248   16.0440  -33.4209 H   0  0  0  0  0  0  0  0  0  0  0  0
   -6.4198   16.3058  -34.7362 H   0  0  0  0  0  0  0  0  0  0  0  0
   -4.8706   17.2150  -34.7362 H   0  0  0  0  0  0  0  0  0  0  0  0
   -8.1123   16.7613  -32.8330 H   0  0  0  0  0  0  0  0  0  0  0  0
   -9.1288   18.6150  -31.4874 H   0  0  0  0  0  0  0  0  0  0  0  0
  1  2  1  0
  2  3  1  0
  3  4  1  0
  4  5  1  0
  3  6  1  0
  6  7  2  0
  6  8  1  0
  8  9  2  0
  9 10  1  0
 10 11  2  0
 10 12  1  0
 12 13  2  0
 13 14  1  0
 13 15  1  0
 15 16  2  0
 16 17  1  0
 17 18  2  0
 18  8  1  0
 18 12  1  0
  1 19  1  0
  1 20  1  0
  1 21  1  0
  2 22  1  0
  2 23  1  0
  3 24  1  0
  4 25  1  0
  4 26  1  0
  5 27  1  0
  5 28  1  0
  5 29  1  0
  9 30  1  0
 14 31  1  0
 14 32  1  0
 14 33  1  0
 15 34  1  0
 16 35  1  0
M  CHG  1   3   1
M  END
>  <UniqueID>  (41) 
37

>  <SMILES>  (41) 
CC[NH+](CC)C(=O)C1=CC(=O)c2c(C)ccnc21

>  <Energy>  (41) 
67.60260360144432

>  <Genealogy>  (41) 
CC[NH+](CC)C(=O)C1=CC(=O)c2c(C)ccnc21 (protonated)
CC[NH+](CC)C(=O)C1=CC(=O)c2c(C)ccnc21 (3D coordinates assigned)
CC[NH+](CC)C(=O)C1=CC(=O)c2c(C)ccnc21 (nonaromatic ring conformer: 67.60260360144432 kcal/mol)

>  <smiles>  (41) 
CCN(CC)C(=O)C1=CC(=O)c2c(C)ccnc21

>  <score_type>  (41) 
oracle

>  <origin>  (41) 
adg

>  <m_score__min__energy>  (41) 
-6.4100000000000001

>  <m_primary>  (41) 
energy

$$$$
41:0
     RDKit          3D

 37 38  0  0  0  0  0  0  0  0999 V2000
   -6.1190   24.4220  -30.5250 C   0  0  0  0  0  0  0  0  0  0  0  0
   -5.2520   25.6620  -30.6680 C   0  0  0  0  0  0  0  0  0  0  0  0
   -3.8860   25.3120  -30.4700 O   0  0  0  0  0  0  0  0  0  0  0  0
   -3.4700   24.4010  -29.4960 C   0  0  0  0  0  0  0  0  0  0  0  0
   -3.8980   24.4990  -28.3120 O   0  0  0  0  0  0  0  0  0  0  0  0
   -2.5370   23.3150  -29.8510 C   0  0  0  0  0  0  0  0  0  0  0  0
   -2.9460   22.1190  -30.4660 C   0  0  0  0  0  0  0  0  0  0  0  0
   -1.9040   21.2380  -30.7290 C   0  0  0  0  0  0  0  0  0  0  0  0
   -0.4670   21.9330  -30.2000 S   0  0  0  0  0  0  0  0  0  0  0  0
   -1.1600   23.3660  -29.6490 C   0  0  0  0  0  0  0  0  0  0  0  0
   -0.4600   24.4200  -28.9800 N   0  0  0  0  0  0  0  0  0  0  0  0
   -0.8900   25.0320  -27.7600 C   0  0  0  0  0  0  0  0  0  0  0  0
   -1.5870   26.0770  -27.8140 O   0  0  0  0  0  0  0  0  0  0  0  0
   -0.5090   24.4830  -26.4440 C   0  0  0  0  0  0  0  0  0  0  0  0
   -0.0400   25.1600  -25.3250 C   0  0  0  0  0  0  0  0  0  0  0  0
    0.1220   26.6440  -25.1450 C   0  0  0  0  0  0  0  0  0  0  0  0
   -0.8410   27.1810  -24.0910 C   0  0  0  0  0  0  0  0  0  0  0  0
    0.1180   24.2660  -24.3290 N   0  0  0  0  0  0  0  0  0  0  0  0
   -0.2260   23.0920  -24.7700 O   0  0  0  0  0  0  0  0  0  0  0  0
   -0.6090   23.1660  -26.0250 C   0  0  0  0  0  0  0  0  0  0  0  0
   -1.0840   22.0000  -26.8270 C   0  0  0  0  0  0  0  0  0  0  0  0
   -6.2723   24.2028  -29.4580 H   0  0  0  0  0  0  0  0  0  0  0  0
   -7.0922   24.5975  -31.0067 H   0  0  0  0  0  0  0  0  0  0  0  0
   -5.6201   23.5682  -31.0067 H   0  0  0  0  0  0  0  0  0  0  0  0
   -5.3798   26.0845  -31.6755 H   0  0  0  0  0  0  0  0  0  0  0  0
   -5.5519   26.4075  -29.9168 H   0  0  0  0  0  0  0  0  0  0  0  0
   -3.9947   21.9005  -30.7161 H   0  0  0  0  0  0  0  0  0  0  0  0
   -2.0027   20.2507  -31.2040 H   0  0  0  0  0  0  0  0  0  0  0  0
    1.1541   26.8564  -24.8293 H   0  0  0  0  0  0  0  0  0  0  0  0
   -0.1003   27.1370  -26.1029 H   0  0  0  0  0  0  0  0  0  0  0  0
   -0.4466   26.9611  -23.0880 H   0  0  0  0  0  0  0  0  0  0  0  0
   -0.9480   28.2690  -24.2125 H   0  0  0  0  0  0  0  0  0  0  0  0
   -1.8229   26.7002  -24.2125 H   0  0  0  0  0  0  0  0  0  0  0  0
    0.4270   24.4660  -23.3520 H   0  0  0  0  0  0  0  0  0  0  0  0
   -1.4109   21.1976  -26.1493 H   0  0  0  0  0  0  0  0  0  0  0  0
   -1.9273   22.3104  -27.4613 H   0  0  0  0  0  0  0  0  0  0  0  0
   -0.2638   21.6328  -27.4613 H   0  0  0  0  0  0  0  0  0  0  0  0
  1  2  1  0
  2  3  1  0
  3  4  1  0
  4  5  2  0
  4  6  1  0
  6  7  1  0
  7  8  2  0
  8  9  1  0
  9 10  1  0
 10 11  1  0
 11 12  1  0
 12 13  2  0
 12 14  1  0
 14 15  1  0
 15 16  1  0
 16 17  1  0
 15 18  2  0
 18 19  1  0
 19 20  1  0
 20 21  1  0
 10  6  2  0
 20 14  2  0
  1 22  1  0
  1 23  1  0
  1 24  1  0
  2 25  1  0
  2 26  1  0
  7 27  1  0
  8 28  1  0
 16 29  1  0
 16 30  1  0
 17 31  1  0
 17 32  1  0
 17 33  1  0
 18 34  1  0
 21 35  1  0
 21 36  1  0
 21 37  1  0
M  CHG  2  11  -1  18   1
M  END
>  <UniqueID>  (42) 
38

>  <SMILES>  (42) 
CCOC(=O)c1ccsc1[N-]C(=O)c1c(CC)[nH+]oc1C

>  <Energy>  (42) 
90.04505388919661

>  <Genealogy>  (42) 
CCOC(=O)c1ccsc1[N-]C(=O)c1c(CC)[nH+]oc1C (protonated)
CCOC(=O)c1ccsc1[N-]C(=O)c1c(CC)[nH+]oc1C (3D coordinates assigned)
CCOC(=O)c1ccsc1[N-]C(=O)c1c(CC)[nH+]oc1C (optimized conformer: 90.04505388919661 kcal/mol)

>  <smiles>  (42) 
CCOC(=O)c1ccsc1NC(=O)c1c(CC)noc1C

>  <score_type>  (42) 
oracle

>  <origin>  (42) 
adg

>  <m_score__min__energy>  (42) 
-8.1999999999999993

>  <m_primary>  (42) 
energy

$$$$
42:0
     RDKit          3D

 49 52  0  0  0  0  0  0  0  0999 V2000
   -2.9780   24.4590  -29.2140 C   0  0  0  0  0  0  0  0  0  0  0  0
   -3.7590   24.5480  -30.4580 N   0  0  0  0  0  0  0  0  0  0  0  0
   -3.8800   23.2220  -31.1160 C   0  0  0  0  0  0  0  0  0  0  0  0
   -5.2330   22.5500  -30.8380 C   0  0  0  0  0  0  0  0  0  0  0  0
   -6.3550   23.3950  -31.3050 N   0  0  0  0  0  0  0  0  0  0  0  0
   -7.6770   22.9790  -30.7820 C   0  0  0  0  0  0  0  0  0  0  0  0
   -8.7280   22.6480  -31.8590 C   0  0  0  0  0  0  0  0  0  0  0  0
   -9.1130   21.2790  -31.7810 O   0  0  0  0  0  0  0  0  0  0  0  0
   -8.3060   20.1990  -32.1660 C   0  0  0  0  0  0  0  0  0  0  0  0
   -8.6990   18.8600  -31.9800 C   0  0  0  0  0  0  0  0  0  0  0  0
   -7.8650   17.8150  -32.3850 C   0  0  0  0  0  0  0  0  0  0  0  0
   -6.6240   18.0880  -32.9840 C   0  0  0  0  0  0  0  0  0  0  0  0
   -5.7690   17.0480  -33.3950 C   0  0  0  0  0  0  0  0  0  0  0  0
   -4.5420   17.3480  -34.0080 C   0  0  0  0  0  0  0  0  0  0  0  0
   -4.1470   18.6800  -34.1780 C   0  0  0  0  0  0  0  0  0  0  0  0
   -4.9840   19.7180  -33.7610 C   0  0  0  0  0  0  0  0  0  0  0  0
   -6.2240   19.4340  -33.1690 C   0  0  0  0  0  0  0  0  0  0  0  0
   -7.0690   20.4760  -32.7560 C   0  0  0  0  0  0  0  0  0  0  0  0
   -3.7120   16.2730  -34.4650 N   0  0  0  0  0  0  0  0  0  0  0  0
   -4.2450   14.9130  -34.5370 C   0  0  0  0  0  0  0  0  0  0  0  0
   -5.1670   14.6500  -33.3420 C   0  0  0  0  0  0  0  0  0  0  0  0
   -6.1230   15.7050  -33.2070 O   0  0  0  0  0  0  0  0  0  0  0  0
   -6.0940   24.8520  -31.2770 C   0  0  0  0  0  0  0  0  0  0  0  0
   -5.0570   25.2170  -30.2060 C   0  0  0  0  0  0  0  0  0  0  0  0
   -3.6545   24.5361  -28.3500 H   0  0  0  0  0  0  0  0  0  0  0  0
   -2.4495   23.4948  -29.1810 H   0  0  0  0  0  0  0  0  0  0  0  0
   -2.2462   25.2796  -29.1810 H   0  0  0  0  0  0  0  0  0  0  0  0
   -3.7687   23.3555  -32.2022 H   0  0  0  0  0  0  0  0  0  0  0  0
   -3.0929   22.5719  -30.7063 H   0  0  0  0  0  0  0  0  0  0  0  0
   -5.2686   21.5839  -31.3627 H   0  0  0  0  0  0  0  0  0  0  0  0
   -5.3339   22.4050  -29.7523 H   0  0  0  0  0  0  0  0  0  0  0  0
   -7.5316   22.0833  -30.1603 H   0  0  0  0  0  0  0  0  0  0  0  0
   -8.0710   23.8398  -30.2219 H   0  0  0  0  0  0  0  0  0  0  0  0
   -9.6140   23.2818  -31.7061 H   0  0  0  0  0  0  0  0  0  0  0  0
   -8.2908   22.8371  -32.8505 H   0  0  0  0  0  0  0  0  0  0  0  0
   -9.6691   18.6351  -31.5127 H   0  0  0  0  0  0  0  0  0  0  0  0
   -8.1818   16.7725  -32.2340 H   0  0  0  0  0  0  0  0  0  0  0  0
   -3.1759   18.9099  -34.6407 H   0  0  0  0  0  0  0  0  0  0  0  0
   -4.6693   20.7632  -33.8975 H   0  0  0  0  0  0  0  0  0  0  0  0
   -6.7550   21.5206  -32.8979 H   0  0  0  0  0  0  0  0  0  0  0  0
   -2.7550   16.4660  -34.8370 H   0  0  0  0  0  0  0  0  0  0  0  0
   -4.8147   14.7935  -35.4704 H   0  0  0  0  0  0  0  0  0  0  0  0
   -3.4112   14.1958  -34.5157 H   0  0  0  0  0  0  0  0  0  0  0  0
   -5.6969   13.6984  -33.4959 H   0  0  0  0  0  0  0  0  0  0  0  0
   -4.5589   14.6009  -32.4267 H   0  0  0  0  0  0  0  0  0  0  0  0
   -5.7172   25.1666  -32.2614 H   0  0  0  0  0  0  0  0  0  0  0  0
   -7.0356   25.3668  -31.0354 H   0  0  0  0  0  0  0  0  0  0  0  0
   -4.9050   26.3064  -30.2120 H   0  0  0  0  0  0  0  0  0  0  0  0
   -5.4355   24.8803  -29.2296 H   0  0  0  0  0  0  0  0  0  0  0  0
  1  2  1  0
  2  3  1  0
  3  4  1  0
  4  5  1  0
  5  6  1  0
  6  7  1  0
  7  8  1  0
  8  9  1  0
  9 10  2  0
 10 11  1  0
 11 12  2  0
 12 13  1  0
 13 14  2  0
 14 15  1  0
 15 16  2  0
 16 17  1  0
 17 18  2  0
 14 19  1  0
 19 20  1  0
 20 21  1  0
 21 22  1  0
  5 23  1  0
 23 24  1  0
 24  2  1  0
 18  9  1  0
 17 12  1  0
 22 13  1  0
  1 25  1  0
  1 26  1  0
  1 27  1  0
  3 28  1  0
  3 29  1  0
  4 30  1  0
  4 31  1  0
  6 32  1  0
  6 33  1  0
  7 34  1  0
  7 35  1  0
 10 36  1  0
 11 37  1  0
 15 38  1  0
 16 39  1  0
 18 40  1  0
 19 41  1  0
 20 42  1  0
 20 43  1  0
 21 44  1  0
 21 45  1  0
 23 46  1  0
 23 47  1  0
 24 48  1  0
 24 49  1  0
M  END
>  <UniqueID>  (43) 
39

>  <SMILES>  (43) 
CN1CCN(CCOc2ccc3c4c(ccc3c2)NCCO4)CC1

>  <Energy>  (43) 
68.33954074254846

>  <Genealogy>  (43) 
CN1CCN(CCOc2ccc3c4c(ccc3c2)NCCO4)CC1 (3D coordinates assigned)
CN1CCN(CCOc2ccc3c4c(ccc3c2)NCCO4)CC1 (nonaromatic ring conformer: 68.33954074254846 kcal/mol)

>  <smiles>  (43) 
CN1CCN(CCOc2ccc3c4c(ccc3c2)NCCO4)CC1

>  <score_type>  (43) 
oracle

>  <origin>  (43) 
adg

>  <m_score__min__energy>  (43) 
-8.1699999999999999

>  <m_primary>  (43) 
energy

$$$$
43:0
     RDKit          3D

 43 45  0  0  0  0  0  0  0  0999 V2000
   -6.8570   16.8820  -33.2900 C   0  0  0  0  0  0  0  0  0  0  0  0
   -7.4080   18.2000  -32.8070 C   0  0  0  0  0  0  0  0  0  0  0  0
   -8.5380   18.1710  -31.9690 C   0  0  0  0  0  0  0  0  0  0  0  0
   -9.1080   19.3520  -31.4980 C   0  0  0  0  0  0  0  0  0  0  0  0
   -8.5640   20.5830  -31.8600 C   0  0  0  0  0  0  0  0  0  0  0  0
   -7.4560   20.6360  -32.7050 C   0  0  0  0  0  0  0  0  0  0  0  0
   -6.8720   19.4560  -33.2070 C   0  0  0  0  0  0  0  0  0  0  0  0
   -5.6860   19.5850  -34.1510 C   0  0  0  0  0  0  0  0  0  0  0  0
   -4.3950   19.2070  -33.5140 N   0  0  0  0  0  0  0  0  0  0  0  0
   -3.2900   20.1460  -33.8160 C   0  0  0  0  0  0  0  0  0  0  0  0
   -3.5570   21.5530  -33.2600 C   0  0  0  0  0  0  0  0  0  0  0  0
   -4.2800   21.4890  -31.9840 N   0  0  0  0  0  0  0  0  0  0  0  0
   -4.7760   22.7060  -31.3960 C   0  0  0  0  0  0  0  0  0  0  0  0
   -4.0620   23.3380  -30.3630 C   0  0  0  0  0  0  0  0  0  0  0  0
   -4.5440   24.5200  -29.7930 C   0  0  0  0  0  0  0  0  0  0  0  0
   -5.7390   25.0820  -30.2470 C   0  0  0  0  0  0  0  0  0  0  0  0
   -6.2030   26.2280  -29.6940 F   0  0  0  0  0  0  0  0  0  0  0  0
   -6.4540   24.4630  -31.2770 C   0  0  0  0  0  0  0  0  0  0  0  0
   -5.9760   23.2810  -31.8510 C   0  0  0  0  0  0  0  0  0  0  0  0
   -4.2290   20.2550  -31.1930 C   0  0  0  0  0  0  0  0  0  0  0  0
   -4.5520   19.0080  -32.0470 C   0  0  0  0  0  0  0  0  0  0  0  0
   -6.5949   16.2551  -32.4250 H   0  0  0  0  0  0  0  0  0  0  0  0
   -7.6157   16.3683  -33.8987 H   0  0  0  0  0  0  0  0  0  0  0  0
   -5.9584   17.0612  -33.8987 H   0  0  0  0  0  0  0  0  0  0  0  0
   -8.9768   17.2040  -31.6822 H   0  0  0  0  0  0  0  0  0  0  0  0
   -9.9884   19.3127  -30.8397 H   0  0  0  0  0  0  0  0  0  0  0  0
   -9.0092   21.5138  -31.4787 H   0  0  0  0  0  0  0  0  0  0  0  0
   -7.0322   21.6121  -32.9834 H   0  0  0  0  0  0  0  0  0  0  0  0
   -5.8547   18.9296  -35.0182 H   0  0  0  0  0  0  0  0  0  0  0  0
   -5.6118   20.6423  -34.4453 H   0  0  0  0  0  0  0  0  0  0  0  0
   -4.1120   18.2800  -33.9070 H   0  0  0  0  0  0  0  0  0  0  0  0
   -2.3630   19.7581  -33.3685 H   0  0  0  0  0  0  0  0  0  0  0  0
   -3.2033   20.2255  -34.9097 H   0  0  0  0  0  0  0  0  0  0  0  0
   -2.5964   22.0655  -33.1032 H   0  0  0  0  0  0  0  0  0  0  0  0
   -4.1753   22.1033  -33.9845 H   0  0  0  0  0  0  0  0  0  0  0  0
   -3.1197   22.9004  -30.0016 H   0  0  0  0  0  0  0  0  0  0  0  0
   -3.9804   25.0087  -28.9846 H   0  0  0  0  0  0  0  0  0  0  0  0
   -7.3942   24.9067  -31.6363 H   0  0  0  0  0  0  0  0  0  0  0  0
   -6.5412   22.7987  -32.6622 H   0  0  0  0  0  0  0  0  0  0  0  0
   -3.2192   20.1449  -30.7709 H   0  0  0  0  0  0  0  0  0  0  0  0
   -4.9858   20.3286  -30.3981 H   0  0  0  0  0  0  0  0  0  0  0  0
   -3.8790   18.1952  -31.7365 H   0  0  0  0  0  0  0  0  0  0  0  0
   -5.6135   18.7770  -31.8744 H   0  0  0  0  0  0  0  0  0  0  0  0
  1  2  1  0
  2  3  2  0
  3  4  1  0
  4  5  2  0
  5  6  1  0
  6  7  2  0
  7  8  1  0
  8  9  1  0
  9 10  1  0
 10 11  1  0
 11 12  1  0
 12 13  1  0
 13 14  2  0
 14 15  1  0
 15 16  2  0
 16 17  1  0
 16 18  1  0
 18 19  2  0
 12 20  1  0
 20 21  1  0
  7  2  1  0
 21  9  1  0
 19 13  1  0
  1 22  1  0
  1 23  1  0
  1 24  1  0
  3 25  1  0
  4 26  1  0
  5 27  1  0
  6 28  1  0
  8 29  1  0
  8 30  1  0
  9 31  1  0
 10 32  1  0
 10 33  1  0
 11 34  1  0
 11 35  1  0
 14 36  1  0
 15 37  1  0
 18 38  1  0
 19 39  1  0
 20 40  1  0
 20 41  1  0
 21 42  1  0
 21 43  1  0
M  CHG  1   9   1
M  END
>  <UniqueID>  (44) 
40

>  <SMILES>  (44) 
Cc1ccccc1C[NH+]1CCN(c2ccc(F)cc2)CC1

>  <Energy>  (44) 
59.85287757086964

>  <Genealogy>  (44) 
Cc1ccccc1C[NH+]1CCN(c2ccc(F)cc2)CC1 (protonated)
Cc1ccccc1C[NH+]1CCN(c2ccc(F)cc2)CC1 (3D coordinates assigned)
Cc1ccccc1C[NH+]1CCN(c2ccc(F)cc2)CC1 (nonaromatic ring conformer: 59.85287757086964 kcal/mol)

>  <smiles>  (44) 
Cc1ccccc1CN1CCN(c2ccc(F)cc2)CC1

>  <score_type>  (44) 
oracle

>  <origin>  (44) 
adg

>  <m_score__min__energy>  (44) 
-6.5599999999999996

>  <m_primary>  (44) 
energy

$$$$
44:0
     RDKit          3D

 42 44  0  0  0  0  0  0  0  0999 V2000
   -5.4590   18.8800  -33.9070 C   0  0  0  0  0  0  0  0  0  0  0  0
   -6.8290   19.2570  -33.8120 O   0  0  0  0  0  0  0  0  0  0  0  0
   -7.3410   20.1440  -32.8510 C   0  0  0  0  0  0  0  0  0  0  0  0
   -8.5720   19.9290  -32.2030 C   0  0  0  0  0  0  0  0  0  0  0  0
   -9.0450   20.8530  -31.2680 C   0  0  0  0  0  0  0  0  0  0  0  0
   -8.2940   21.9900  -30.9640 C   0  0  0  0  0  0  0  0  0  0  0  0
   -7.0550   22.2100  -31.5860 C   0  0  0  0  0  0  0  0  0  0  0  0
   -6.2880   23.3840  -31.2650 N   0  0  0  0  0  0  0  0  0  0  0  0
   -6.7640   24.5180  -30.7230 C   0  0  0  0  0  0  0  0  0  0  0  0
   -5.7010   25.3550  -30.4720 C   0  0  0  0  0  0  0  0  0  0  0  0
   -4.5520   24.7510  -30.8360 N   0  0  0  0  0  0  0  0  0  0  0  0
   -4.9470   23.5550  -31.3200 C   0  0  0  0  0  0  0  0  0  0  0  0
   -3.7770   22.3010  -31.8500 S   0  0  0  0  0  0  0  0  0  0  0  0
   -3.6900   21.4880  -30.2180 C   0  0  0  0  0  0  0  0  0  0  0  0
   -3.6820   22.5290  -29.1340 C   0  0  0  0  0  0  0  0  0  0  0  0
   -4.7480   22.7060  -28.4850 O   0  0  0  0  0  0  0  0  0  0  0  0
   -2.5230   23.3480  -28.8460 N   0  0  0  0  0  0  0  0  0  0  0  0
   -2.6930   24.5330  -27.9890 C   0  0  0  0  0  0  0  0  0  0  0  0
   -1.3610   24.9480  -27.3600 C   0  0  0  0  0  0  0  0  0  0  0  0
   -0.3550   25.0610  -28.3430 O   0  0  0  0  0  0  0  0  0  0  0  0
   -0.0910   23.7870  -28.8920 C   0  0  0  0  0  0  0  0  0  0  0  0
   -1.3040   23.2660  -29.6690 C   0  0  0  0  0  0  0  0  0  0  0  0
   -6.5930   21.2860  -32.5370 C   0  0  0  0  0  0  0  0  0  0  0  0
   -5.0396   18.7646  -32.8967 H   0  0  0  0  0  0  0  0  0  0  0  0
   -5.3779   17.9262  -34.4489 H   0  0  0  0  0  0  0  0  0  0  0  0
   -4.9013   19.6581  -34.4489 H   0  0  0  0  0  0  0  0  0  0  0  0
   -9.1634   19.0306  -32.4335 H   0  0  0  0  0  0  0  0  0  0  0  0
  -10.0113   20.6843  -30.7702 H   0  0  0  0  0  0  0  0  0  0  0  0
   -8.6755   22.7178  -30.2327 H   0  0  0  0  0  0  0  0  0  0  0  0
   -7.8214   24.7390  -30.5157 H   0  0  0  0  0  0  0  0  0  0  0  0
   -5.7772   26.3637  -30.0400 H   0  0  0  0  0  0  0  0  0  0  0  0
   -4.5637   20.8323  -30.0890 H   0  0  0  0  0  0  0  0  0  0  0  0
   -2.7682   20.8909  -30.1568 H   0  0  0  0  0  0  0  0  0  0  0  0
   -3.0788   25.3647  -28.5969 H   0  0  0  0  0  0  0  0  0  0  0  0
   -3.4000   24.2855  -27.1834 H   0  0  0  0  0  0  0  0  0  0  0  0
   -1.4861   25.9193  -26.8590 H   0  0  0  0  0  0  0  0  0  0  0  0
   -1.0593   24.1783  -26.6344 H   0  0  0  0  0  0  0  0  0  0  0  0
    0.7695   23.8595  -29.5734 H   0  0  0  0  0  0  0  0  0  0  0  0
    0.1277   23.0884  -28.0710 H   0  0  0  0  0  0  0  0  0  0  0  0
   -1.4394   23.8726  -30.5766 H   0  0  0  0  0  0  0  0  0  0  0  0
   -1.1277   22.2137  -29.9366 H   0  0  0  0  0  0  0  0  0  0  0  0
   -5.6315   21.4611  -33.0418 H   0  0  0  0  0  0  0  0  0  0  0  0
  1  2  1  0
  2  3  1  0
  3  4  2  0
  4  5  1  0
  5  6  2  0
  6  7  1  0
  7  8  1  0
  8  9  1  0
  9 10  2  0
 10 11  1  0
 11 12  2  0
 12 13  1  0
 13 14  1  0
 14 15  1  0
 15 16  2  0
 15 17  1  0
 17 18  1  0
 18 19  1  0
 19 20  1  0
 20 21  1  0
 21 22  1  0
  7 23  2  0
 23  3  1  0
 12  8  1  0
 22 17  1  0
  1 24  1  0
  1 25  1  0
  1 26  1  0
  4 27  1  0
  5 28  1  0
  6 29  1  0
  9 30  1  0
 10 31  1  0
 14 32  1  0
 14 33  1  0
 18 34  1  0
 18 35  1  0
 19 36  1  0
 19 37  1  0
 21 38  1  0
 21 39  1  0
 22 40  1  0
 22 41  1  0
 23 42  1  0
M  END
>  <UniqueID>  (45) 
41

>  <SMILES>  (45) 
COc1cccc(-n2ccnc2SCC(=O)N2CCOCC2)c1

>  <Energy>  (45) 
75.7864835281197

>  <Genealogy>  (45) 
COc1cccc(-n2ccnc2SCC(=O)N2CCOCC2)c1 (3D coordinates assigned)
COc1cccc(-n2ccnc2SCC(=O)N2CCOCC2)c1 (nonaromatic ring conformer: 75.7864835281197 kcal/mol)

>  <smiles>  (45) 
COc1cccc(-n2ccnc2SCC(=O)N2CCOCC2)c1

>  <score_type>  (45) 
oracle

>  <origin>  (45) 
adg

>  <m_score__min__energy>  (45) 
-7.7000000000000002

>  <m_primary>  (45) 
energy

$$$$
45:0
     RDKit          3D

 47 50  0  0  0  0  0  0  0  0999 V2000
   -1.0250   13.7010  -31.7990 C   0  0  0  0  0  0  0  0  0  0  0  0
   -1.7560   14.8060  -32.3220 O   0  0  0  0  0  0  0  0  0  0  0  0
   -3.0420   14.7130  -32.8740 C   0  0  0  0  0  0  0  0  0  0  0  0
   -3.4560   13.4660  -33.3980 C   0  0  0  0  0  0  0  0  0  0  0  0
   -4.7380   13.3060  -33.9570 C   0  0  0  0  0  0  0  0  0  0  0  0
   -5.5760   14.4160  -33.9860 C   0  0  0  0  0  0  0  0  0  0  0  0
   -6.8390   14.4750  -34.4480 N   0  0  0  0  0  0  0  0  0  0  0  0
   -7.1890   15.7670  -34.2160 C   0  0  0  0  0  0  0  0  0  0  0  0
   -6.2020   16.4950  -33.6380 N   0  0  0  0  0  0  0  0  0  0  0  0
   -6.2520   17.8890  -33.2910 C   0  0  0  0  0  0  0  0  0  0  0  0
   -5.2270   18.7570  -33.6950 C   0  0  0  0  0  0  0  0  0  0  0  0
   -5.2830   20.1170  -33.3780 C   0  0  0  0  0  0  0  0  0  0  0  0
   -6.3740   20.6380  -32.6630 C   0  0  0  0  0  0  0  0  0  0  0  0
   -6.4230   22.0410  -32.3360 N   0  0  0  0  0  0  0  0  0  0  0  0
   -5.2720   22.9370  -32.2630 C   0  0  0  0  0  0  0  0  0  0  0  0
   -5.8360   24.2910  -31.7380 C   0  0  2  0  0  0  0  0  0  0  0  0
   -5.2600   24.6810  -30.3720 C   0  0  0  0  0  0  0  0  0  0  0  0
   -3.8450   25.0300  -30.4830 N   0  0  0  0  0  0  0  0  0  0  0  0
   -2.7980   24.5350  -29.6370 C   0  0  0  0  0  0  0  0  0  0  0  0
   -2.8040   23.1330  -29.1090 C   0  0  0  0  0  0  0  0  0  0  0  0
   -1.8430   25.3000  -29.3410 O   0  0  0  0  0  0  0  0  0  0  0  0
   -7.2420   24.0930  -31.6240 O   0  0  0  0  0  0  0  0  0  0  0  0
   -7.5610   22.8030  -31.9730 C   0  0  0  0  0  0  0  0  0  0  0  0
   -8.7450   22.3770  -32.0240 O   0  0  0  0  0  0  0  0  0  0  0  0
   -7.3970   19.7660  -32.2540 C   0  0  0  0  0  0  0  0  0  0  0  0
   -7.3420   18.4050  -32.5720 C   0  0  0  0  0  0  0  0  0  0  0  0
   -8.3400   17.5880  -32.1540 F   0  0  0  0  0  0  0  0  0  0  0  0
   -5.1850   15.6270  -33.4960 C   0  0  0  0  0  0  0  0  0  0  0  0
   -3.9280   15.8180  -32.9150 C   0  0  0  0  0  0  0  0  0  0  0  0
   -1.0469   13.7341  -30.6997 H   0  0  0  0  0  0  0  0  0  0  0  0
   -1.4808   12.7622  -32.1467 H   0  0  0  0  0  0  0  0  0  0  0  0
    0.0173   13.7533  -32.1467 H   0  0  0  0  0  0  0  0  0  0  0  0
   -2.7666   12.6094  -33.3682 H   0  0  0  0  0  0  0  0  0  0  0  0
   -5.0662   12.3355  -34.3576 H   0  0  0  0  0  0  0  0  0  0  0  0
   -8.1753   16.1814  -34.4717 H   0  0  0  0  0  0  0  0  0  0  0  0
   -4.3725   18.3643  -34.2657 H   0  0  0  0  0  0  0  0  0  0  0  0
   -4.4665   20.7845  -33.6908 H   0  0  0  0  0  0  0  0  0  0  0  0
   -4.5176   22.5389  -31.5685 H   0  0  0  0  0  0  0  0  0  0  0  0
   -4.7783   23.0500  -33.2395 H   0  0  0  0  0  0  0  0  0  0  0  0
   -5.5661   25.1070  -32.4245 H   0  0  0  0  0  0  0  0  0  0  0  0
   -5.8148   25.5466  -29.9810 H   0  0  0  0  0  0  0  0  0  0  0  0
   -5.3579   23.8225  -29.6912 H   0  0  0  0  0  0  0  0  0  0  0  0
   -2.8039   23.1554  -28.0092 H   0  0  0  0  0  0  0  0  0  0  0  0
   -3.7044   22.6110  -29.4650 H   0  0  0  0  0  0  0  0  0  0  0  0
   -1.9081   22.6033  -29.4650 H   0  0  0  0  0  0  0  0  0  0  0  0
   -8.2489   20.1572  -31.6785 H   0  0  0  0  0  0  0  0  0  0  0  0
   -3.6360   16.7951  -32.5027 H   0  0  0  0  0  0  0  0  0  0  0  0
  1  2  1  0
  2  3  1  0
  3  4  2  0
  4  5  1  0
  5  6  2  0
  6  7  1  0
  7  8  2  0
  8  9  1  0
  9 10  1  0
 10 11  2  0
 11 12  1  0
 12 13  2  0
 13 14  1  0
 14 15  1  0
 15 16  1  0
 16 17  1  0
 17 18  1  0
 18 19  1  0
 19 20  1  0
 19 21  2  0
 16 22  1  0
 22 23  1  0
 23 24  2  0
 13 25  1  0
 25 26  2  0
 26 27  1  0
  9 28  1  0
 28 29  2  0
 29  3  1  0
 28  6  1  0
 26 10  1  0
 23 14  1  0
  1 30  1  0
  1 31  1  0
  1 32  1  0
  4 33  1  0
  5 34  1  0
  8 35  1  0
 11 36  1  0
 12 37  1  0
 15 38  1  0
 15 39  1  0
 16 40  1  6
 17 41  1  0
 17 42  1  0
 20 43  1  0
 20 44  1  0
 20 45  1  0
 25 46  1  0
 29 47  1  0
M  CHG  1  18  -1
M  END
>  <UniqueID>  (46) 
42

>  <SMILES>  (46) 
COc1ccc2ncn(-c3ccc(N4C[C@H](C[N-]C(C)=O)OC4=O)cc3F)c2c1

>  <Energy>  (46) 
108.03711262282286

>  <Genealogy>  (46) 
COc1ccc2ncn(-c3ccc(N4CC(C[N-]C(C)=O)OC4=O)cc3F)c2c1 (protonated)
COc1ccc2ncn(-c3ccc(N4C[C@H](C[N-]C(C)=O)OC4=O)cc3F)c2c1 (chirality)
COc1ccc2ncn(-c3ccc(N4C[C@H](C[N-]C(C)=O)OC4=O)cc3F)c2c1 (3D coordinates assigned)
COc1ccc2ncn(-c3ccc(N4C[C@H](C[N-]C(C)=O)OC4=O)cc3F)c2c1 (nonaromatic ring conformer: 108.03711262282286 kcal/mol)

>  <smiles>  (46) 
COc1ccc2ncn(-c3ccc(N4CC(CNC(C)=O)OC4=O)cc3F)c2c1

>  <score_type>  (46) 
oracle

>  <origin>  (46) 
adg

>  <m_score__min__energy>  (46) 
-9.5700000000000003

>  <m_primary>  (46) 
energy

$$$$
46:0
     RDKit          3D

 54 54  0  0  0  0  0  0  0  0999 V2000
   -9.1860   21.9300  -31.2720 C   0  0  0  0  0  0  0  0  0  0  0  0
   -8.7360   20.4730  -31.3020 C   0  0  0  0  0  0  0  0  0  0  0  0
   -8.3040   20.0580  -32.7160 C   0  0  0  0  0  0  0  0  0  0  0  0
   -7.2520   18.9370  -32.7070 C   0  0  0  0  0  0  0  0  0  0  0  0
   -6.0270   19.2850  -33.5620 C   0  0  0  0  0  0  0  0  0  0  0  0
   -4.7300   18.7750  -32.9200 C   0  0  0  0  0  0  0  0  0  0  0  0
   -3.6540   19.8700  -32.8130 C   0  0  0  0  0  0  0  0  0  0  0  0
   -4.0830   21.2000  -33.4450 C   0  0  0  0  0  0  0  0  0  0  0  0
   -4.0620   22.2400  -32.4700 O   0  0  0  0  0  0  0  0  0  0  0  0
   -5.0350   22.3550  -31.4720 C   0  0  0  0  0  0  0  0  0  0  0  0
   -5.1050   21.5010  -30.5450 O   0  0  0  0  0  0  0  0  0  0  0  0
   -6.0050   23.4980  -31.4990 C   0  0  0  0  0  0  0  0  0  0  0  0
   -6.3310   24.0150  -30.0850 C   0  0  0  0  0  0  0  0  0  0  0  0
   -5.0900   24.1540  -29.1890 C   0  0  0  0  0  0  0  0  0  0  0  0
   -3.9990   24.9350  -29.8710 C   0  0  0  0  0  0  0  0  0  0  0  0
   -4.2920   25.6720  -30.8510 O   0  0  0  0  0  0  0  0  0  0  0  0
   -2.6580   24.9540  -29.3660 N   0  0  0  0  0  0  0  0  0  0  0  0
   -1.8470   23.8020  -29.1030 C   0  0  0  0  0  0  0  0  0  0  0  0
   -1.1770   23.7080  -27.8790 C   0  0  0  0  0  0  0  0  0  0  0  0
   -0.3460   22.6180  -27.6130 C   0  0  0  0  0  0  0  0  0  0  0  0
   -0.1610   21.6250  -28.5780 C   0  0  0  0  0  0  0  0  0  0  0  0
   -0.8040   21.7140  -29.8230 C   0  0  0  0  0  0  0  0  0  0  0  0
   -0.5700   20.6350  -30.8530 C   0  0  0  0  0  0  0  0  0  0  0  0
    0.6450   19.9980  -30.6610 F   0  0  0  0  0  0  0  0  0  0  0  0
   -0.5810   21.1920  -32.1180 F   0  0  0  0  0  0  0  0  0  0  0  0
   -1.5780   19.6930  -30.7680 F   0  0  0  0  0  0  0  0  0  0  0  0
   -1.6470   22.8130  -30.0810 C   0  0  0  0  0  0  0  0  0  0  0  0
   -9.2882   22.2608  -30.2279 H   0  0  0  0  0  0  0  0  0  0  0  0
   -8.4390   22.5551  -31.7832 H   0  0  0  0  0  0  0  0  0  0  0  0
  -10.1553   22.0250  -31.7832 H   0  0  0  0  0  0  0  0  0  0  0  0
   -7.8869   20.3448  -30.6146 H   0  0  0  0  0  0  0  0  0  0  0  0
   -9.5809   19.8395  -30.9942 H   0  0  0  0  0  0  0  0  0  0  0  0
   -9.1893   19.7061  -33.2659 H   0  0  0  0  0  0  0  0  0  0  0  0
   -7.8505   20.9369  -33.1975 H   0  0  0  0  0  0  0  0  0  0  0  0
   -6.9241   18.7672  -31.6708 H   0  0  0  0  0  0  0  0  0  0  0  0
   -7.7159   18.0352  -33.1330 H   0  0  0  0  0  0  0  0  0  0  0  0
   -6.1405   18.8232  -34.5539 H   0  0  0  0  0  0  0  0  0  0  0  0
   -5.9637   20.3800  -33.6449 H   0  0  0  0  0  0  0  0  0  0  0  0
   -4.9585   18.4052  -31.9095 H   0  0  0  0  0  0  0  0  0  0  0  0
   -4.3309   17.9765  -33.5628 H   0  0  0  0  0  0  0  0  0  0  0  0
   -3.4351   20.0427  -31.7489 H   0  0  0  0  0  0  0  0  0  0  0  0
   -2.7701   19.5157  -33.3635 H   0  0  0  0  0  0  0  0  0  0  0  0
   -3.3909   21.4538  -34.2615 H   0  0  0  0  0  0  0  0  0  0  0  0
   -5.1057   21.0969  -33.8367 H   0  0  0  0  0  0  0  0  0  0  0  0
   -5.5683   24.3200  -32.0853 H   0  0  0  0  0  0  0  0  0  0  0  0
   -6.9404   23.1377  -31.9519 H   0  0  0  0  0  0  0  0  0  0  0  0
   -6.8091   25.0016  -30.1753 H   0  0  0  0  0  0  0  0  0  0  0  0
   -6.9940   23.2757  -29.6119 H   0  0  0  0  0  0  0  0  0  0  0  0
   -5.3751   24.6736  -28.2623 H   0  0  0  0  0  0  0  0  0  0  0  0
   -4.7074   23.1457  -28.9722 H   0  0  0  0  0  0  0  0  0  0  0  0
   -1.3053   24.4962  -27.1226 H   0  0  0  0  0  0  0  0  0  0  0  0
    0.1641   22.5410  -26.6415 H   0  0  0  0  0  0  0  0  0  0  0  0
    0.4929   20.7675  -28.3610 H   0  0  0  0  0  0  0  0  0  0  0  0
   -2.1520   22.8974  -31.0546 H   0  0  0  0  0  0  0  0  0  0  0  0
  1  2  1  0
  2  3  1  0
  3  4  1  0
  4  5  1  0
  5  6  1  0
  6  7  1  0
  7  8  1  0
  8  9  1  0
  9 10  1  0
 10 11  2  0
 10 12  1  0
 12 13  1  0
 13 14  1  0
 14 15  1  0
 15 16  2  0
 15 17  1  0
 17 18  1  0
 18 19  2  0
 19 20  1  0
 20 21  2  0
 21 22  1  0
 22 23  1  0
 23 24  1  0
 23 25  1  0
 23 26  1  0
 22 27  2  0
 27 18  1  0
  1 28  1  0
  1 29  1  0
  1 30  1  0
  2 31  1  0
  2 32  1  0
  3 33  1  0
  3 34  1  0
  4 35  1  0
  4 36  1  0
  5 37  1  0
  5 38  1  0
  6 39  1  0
  6 40  1  0
  7 41  1  0
  7 42  1  0
  8 43  1  0
  8 44  1  0
 12 45  1  0
 12 46  1  0
 13 47  1  0
 13 48  1  0
 14 49  1  0
 14 50  1  0
 19 51  1  0
 20 52  1  0
 21 53  1  0
 27 54  1  0
M  CHG  1  17  -1
M  END
>  <UniqueID>  (47) 
43

>  <SMILES>  (47) 
CCCCCCCCOC(=O)CCCC(=O)[N-]c1cccc(C(F)(F)F)c1

>  <Energy>  (47) 
30.37878309809562

>  <Genealogy>  (47) 
CCCCCCCCOC(=O)CCCC(=O)[N-]c1cccc(C(F)(F)F)c1 (protonated)
CCCCCCCCOC(=O)CCCC(=O)[N-]c1cccc(C(F)(F)F)c1 (3D coordinates assigned)
CCCCCCCCOC(=O)CCCC(=O)[N-]c1cccc(C(F)(F)F)c1 (optimized conformer: 30.37878309809562 kcal/mol)

>  <smiles>  (47) 
CCCCCCCCOC(=O)CCCC(=O)Nc1cccc(C(F)(F)F)c1

>  <score_type>  (47) 
oracle

>  <origin>  (47) 
adg

>  <m_score__min__energy>  (47) 
-8.9399999999999995

>  <m_primary>  (47) 
energy

$$$$
47:0
     RDKit          3D

 44 46  0  0  0  0  0  0  0  0999 V2000
   -4.5320   25.5360  -31.2230 O   0  0  0  0  0  0  0  0  0  0  0  0
   -4.2090   24.9290  -30.1670 C   0  0  0  0  0  0  0  0  0  0  0  0
   -5.2480   24.1890  -29.3880 C   0  0  0  0  0  0  0  0  0  0  0  0
   -5.8980   23.1350  -30.2440 C   0  0  0  0  0  0  0  0  0  0  0  0
   -7.2670   22.8490  -30.0980 C   0  0  0  0  0  0  0  0  0  0  0  0
   -7.8730   21.8760  -30.9020 C   0  0  0  0  0  0  0  0  0  0  0  0
   -7.1210   21.1900  -31.8590 C   0  0  0  0  0  0  0  0  0  0  0  0
   -7.8840   19.9590  -32.8540 Cl  0  0  0  0  0  0  0  0  0  0  0  0
   -5.7640   21.4860  -32.0210 C   0  0  0  0  0  0  0  0  0  0  0  0
   -5.1530   22.4550  -31.2200 C   0  0  0  0  0  0  0  0  0  0  0  0
   -2.8490   24.9270  -29.7150 N   0  0  0  0  0  0  0  0  0  0  0  0
   -2.1490   23.7300  -29.2730 C   0  0  0  0  0  0  0  0  0  0  0  0
   -1.5420   23.9490  -27.9100 C   0  0  0  0  0  0  0  0  0  0  0  0
   -1.3990   25.2560  -27.4190 C   0  0  0  0  0  0  0  0  0  0  0  0
   -0.8820   25.4760  -26.1440 C   0  0  0  0  0  0  0  0  0  0  0  0
   -0.5100   24.3860  -25.3610 C   0  0  0  0  0  0  0  0  0  0  0  0
   -0.6500   23.1200  -25.8380 N   0  0  0  0  0  0  0  0  0  0  0  0
   -1.1540   22.8720  -27.0810 C   0  0  0  0  0  0  0  0  0  0  0  0
   -1.2460   21.5130  -27.5350 N   0  0  0  0  0  0  0  0  0  0  0  0
   -2.0210   20.5560  -26.7380 C   0  0  0  0  0  0  0  0  0  0  0  0
   -1.7790   19.1360  -27.2250 C   0  0  0  0  0  0  0  0  0  0  0  0
   -0.3950   18.9520  -27.4300 O   0  0  0  0  0  0  0  0  0  0  0  0
    0.0020   19.6120  -28.6190 C   0  0  0  0  0  0  0  0  0  0  0  0
   -0.4300   21.0970  -28.6860 C   0  0  0  0  0  0  0  0  0  0  0  0
   -4.7748   23.7084  -28.5190 H   0  0  0  0  0  0  0  0  0  0  0  0
   -6.0174   24.9012  -29.0553 H   0  0  0  0  0  0  0  0  0  0  0  0
   -7.8637   23.3914  -29.3498 H   0  0  0  0  0  0  0  0  0  0  0  0
   -8.9429   21.6513  -30.7800 H   0  0  0  0  0  0  0  0  0  0  0  0
   -5.1746   20.9539  -32.7823 H   0  0  0  0  0  0  0  0  0  0  0  0
   -4.0858   22.6852  -31.3549 H   0  0  0  0  0  0  0  0  0  0  0  0
   -2.8599   22.8921  -29.2228 H   0  0  0  0  0  0  0  0  0  0  0  0
   -1.3456   23.5017  -29.9888 H   0  0  0  0  0  0  0  0  0  0  0  0
   -1.6966   26.1110  -28.0439 H   0  0  0  0  0  0  0  0  0  0  0  0
   -0.7688   26.5004  -25.7597 H   0  0  0  0  0  0  0  0  0  0  0  0
   -0.1014   24.5496  -24.3529 H   0  0  0  0  0  0  0  0  0  0  0  0
   -0.3550   22.3200  -25.2340 H   0  0  0  0  0  0  0  0  0  0  0  0
   -1.7171   20.6335  -25.6837 H   0  0  0  0  0  0  0  0  0  0  0  0
   -3.0906   20.7901  -26.8433 H   0  0  0  0  0  0  0  0  0  0  0  0
   -2.1387   18.4207  -26.4707 H   0  0  0  0  0  0  0  0  0  0  0  0
   -2.3206   18.9682  -28.1676 H   0  0  0  0  0  0  0  0  0  0  0  0
    1.0987   19.5667  -28.6906 H   0  0  0  0  0  0  0  0  0  0  0  0
   -0.4972   19.0962  -29.4525 H   0  0  0  0  0  0  0  0  0  0  0  0
    0.4737   21.7233  -28.7191 H   0  0  0  0  0  0  0  0  0  0  0  0
   -1.0485   21.2183  -29.5875 H   0  0  0  0  0  0  0  0  0  0  0  0
  1  2  2  0
  2  3  1  0
  3  4  1  0
  4  5  2  0
  5  6  1  0
  6  7  2  0
  7  8  1  0
  7  9  1  0
  9 10  2  0
  2 11  1  0
 11 12  1  0
 12 13  1  0
 13 14  2  0
 14 15  1  0
 15 16  2  0
 16 17  1  0
 17 18  2  0
 18 19  1  0
 19 20  1  0
 20 21  1  0
 21 22  1  0
 22 23  1  0
 23 24  1  0
 10  4  1  0
 18 13  1  0
 24 19  1  0
  3 25  1  0
  3 26  1  0
  5 27  1  0
  6 28  1  0
  9 29  1  0
 10 30  1  0
 12 31  1  0
 12 32  1  0
 14 33  1  0
 15 34  1  0
 16 35  1  0
 17 36  1  0
 20 37  1  0
 20 38  1  0
 21 39  1  0
 21 40  1  0
 23 41  1  0
 23 42  1  0
 24 43  1  0
 24 44  1  0
M  CHG  2  11  -1  17   1
M  END
>  <UniqueID>  (48) 
44

>  <SMILES>  (48) 
O=C(Cc1ccc(Cl)cc1)[N-]Cc1ccc[nH+]c1N1CCOCC1

>  <Energy>  (48) 
53.01786814305647

>  <Genealogy>  (48) 
O=C(Cc1ccc(Cl)cc1)[N-]Cc1ccc[nH+]c1N1CCOCC1 (protonated)
O=C(Cc1ccc(Cl)cc1)[N-]Cc1ccc[nH+]c1N1CCOCC1 (3D coordinates assigned)
O=C(Cc1ccc(Cl)cc1)[N-]Cc1ccc[nH+]c1N1CCOCC1 (nonaromatic ring conformer: 53.01786814305647 kcal/mol)

>  <smiles>  (48) 
O=C(Cc1ccc(Cl)cc1)NCc1cccnc1N1CCOCC1

>  <score_type>  (48) 
oracle

>  <origin>  (48) 
adg

>  <m_score__min__energy>  (48) 
-9.0199999999999996

>  <m_primary>  (48) 
energy

$$$$
48:0
     RDKit          3D

 31 32  0  0  0  0  0  0  0  0999 V2000
   -1.0820   24.6850  -27.8860 O   0  0  0  0  0  0  0  0  0  0  0  0
   -2.2250   24.5810  -28.4010 C   0  0  0  0  0  0  0  0  0  0  0  0
   -3.4800   24.5860  -27.6270 C   0  0  0  0  0  0  0  0  0  0  0  0
   -4.5290   24.2250  -28.6830 C   0  0  0  0  0  0  0  0  0  0  0  0
   -3.8510   24.4280  -30.0650 C   0  0  2  0  0  0  0  0  0  0  0  0
   -4.2500   25.6670  -30.5980 O   0  0  0  0  0  0  0  0  0  0  0  0
   -4.1750   23.2880  -31.0530 C   0  0  0  0  0  0  0  0  0  0  0  0
   -5.1880   23.7180  -32.0290 N   0  0  0  0  0  0  0  0  0  0  0  0
   -6.5510   23.6160  -31.4870 C   0  0  0  0  0  0  0  0  0  0  0  0
   -7.2150   22.3130  -31.8640 C   0  0  0  0  0  0  0  0  0  0  0  0
   -8.5710   22.0930  -31.5690 C   0  0  0  0  0  0  0  0  0  0  0  0
   -9.1880   20.8960  -31.9450 C   0  0  0  0  0  0  0  0  0  0  0  0
   -8.4580   19.9130  -32.6180 C   0  0  0  0  0  0  0  0  0  0  0  0
   -7.1110   20.1270  -32.9200 C   0  0  0  0  0  0  0  0  0  0  0  0
   -6.4900   21.3230  -32.5470 C   0  0  0  0  0  0  0  0  0  0  0  0
   -2.4200   24.4560  -29.7940 N   0  0  0  0  0  0  0  0  0  0  0  0
   -3.4528   23.8362  -26.8226 H   0  0  0  0  0  0  0  0  0  0  0  0
   -3.6787   25.5440  -27.1243 H   0  0  0  0  0  0  0  0  0  0  0  0
   -4.8432   23.1776  -28.5640 H   0  0  0  0  0  0  0  0  0  0  0  0
   -5.4262   24.8537  -28.5838 H   0  0  0  0  0  0  0  0  0  0  0  0
   -4.1570   25.6100  -31.5850 H   0  0  0  0  0  0  0  0  0  0  0  0
   -3.2572   23.0017  -31.5875 H   0  0  0  0  0  0  0  0  0  0  0  0
   -4.5702   22.4314  -30.4873 H   0  0  0  0  0  0  0  0  0  0  0  0
   -5.0050   24.7120  -32.3030 H   0  0  0  0  0  0  0  0  0  0  0  0
   -6.5029   23.6855  -30.3903 H   0  0  0  0  0  0  0  0  0  0  0  0
   -7.1476   24.4363  -31.9126 H   0  0  0  0  0  0  0  0  0  0  0  0
   -9.1492   22.8652  -31.0404 H   0  0  0  0  0  0  0  0  0  0  0  0
  -10.2495   20.7280  -31.7107 H   0  0  0  0  0  0  0  0  0  0  0  0
   -8.9440   18.9704  -32.9101 H   0  0  0  0  0  0  0  0  0  0  0  0
   -6.5379   19.3534  -33.4521 H   0  0  0  0  0  0  0  0  0  0  0  0
   -5.4300   21.4890  -32.7894 H   0  0  0  0  0  0  0  0  0  0  0  0
  1  2  2  0
  2  3  1  0
  3  4  1  0
  4  5  1  0
  5  6  1  6
  5  7  1  0
  7  8  1  0
  8  9  1  0
  9 10  1  0
 10 11  2  0
 11 12  1  0
 12 13  2  0
 13 14  1  0
 14 15  2  0
  5 16  1  0
 16  2  1  0
 15 10  1  0
  3 17  1  0
  3 18  1  0
  4 19  1  0
  4 20  1  0
  6 21  1  0
  7 22  1  0
  7 23  1  0
  8 24  1  0
  9 25  1  0
  9 26  1  0
 11 27  1  0
 12 28  1  0
 13 29  1  0
 14 30  1  0
 15 31  1  0
M  CHG  1  16  -1
M  END
>  <UniqueID>  (49) 
45

>  <SMILES>  (49) 
O=C1CC[C@](O)(CNCc2ccccc2)[N-]1

>  <Energy>  (49) 
37.055842600204606

>  <Genealogy>  (49) 
O=C1CCC(O)(CNCc2ccccc2)[N-]1 (protonated)
O=C1CC[C@](O)(CNCc2ccccc2)[N-]1 (chirality)
O=C1CC[C@](O)(CNCc2ccccc2)[N-]1 (3D coordinates assigned)
O=C1CC[C@](O)(CNCc2ccccc2)[N-]1 (nonaromatic ring conformer: 37.055842600204606 kcal/mol)

>  <smiles>  (49) 
O=C1CCC(O)(CNCc2ccccc2)N1

>  <score_type>  (49) 
oracle

>  <origin>  (49) 
adg

>  <m_score__min__energy>  (49) 
-8.8300000000000001

>  <m_primary>  (49) 
energy

$$$$
