0:0
     RDKit          3D

 44 44  0  0  0  0  0  0  0  0999 V2000
   -7.5220   22.3530  -30.2590 C   0  0  0  0  0  0  0  0  0  0  0  0
   -7.3740   22.1980  -31.5860 C   0  0  0  0  0  0  0  0  0  0  0  0
   -6.6110   23.2420  -32.3810 C   0  0  0  0  0  0  0  0  0  0  0  0
   -5.1790   22.9110  -32.5100 N   0  0  0  0  0  0  0  0  0  0  0  0
   -4.6910   21.9400  -31.5130 C   0  0  0  0  0  0  0  0  0  0  0  0
   -3.6570   22.5510  -30.5480 C   0  0  0  0  0  0  0  0  0  0  0  0
   -4.1780   23.8400  -29.8980 C   0  0  0  0  0  0  0  0  0  0  0  0
   -4.1630   24.9140  -30.8200 O   0  0  0  0  0  0  0  0  0  0  0  0
   -5.3430   25.6810  -30.7080 C   0  0  0  0  0  0  0  0  0  0  0  0
   -6.0740   25.2920  -29.4320 C   0  0  0  0  0  0  0  0  0  0  0  0
   -7.9280   20.9730  -32.3020 C   0  0  0  0  0  0  0  0  0  0  0  0
   -6.8320   20.2230  -33.1140 C   0  0  0  0  0  0  0  0  0  0  0  0
   -6.4590   18.8680  -32.5000 C   0  0  0  0  0  0  0  0  0  0  0  0
   -7.6850   17.9480  -32.3500 C   0  0  0  0  0  0  0  0  0  0  0  0
   -8.9810   18.6960  -31.9720 C   0  0  0  0  0  0  0  0  0  0  0  0
   -8.6970   20.0550  -31.3250 C   0  0  0  0  0  0  0  0  0  0  0  0
   -8.0735   21.6011  -29.6756 H   0  0  0  0  0  0  0  0  0  0  0  0
   -7.0916   23.2318  -29.7565 H   0  0  0  0  0  0  0  0  0  0  0  0
   -7.0502   23.3112  -33.3872 H   0  0  0  0  0  0  0  0  0  0  0  0
   -6.6883   24.1980  -31.8425 H   0  0  0  0  0  0  0  0  0  0  0  0
   -5.0040   22.5220  -33.4660 H   0  0  0  0  0  0  0  0  0  0  0  0
   -4.6230   23.7950  -32.4320 H   0  0  0  0  0  0  0  0  0  0  0  0
   -5.5478   21.5759  -30.9270 H   0  0  0  0  0  0  0  0  0  0  0  0
   -4.1959   21.1229  -32.0582 H   0  0  0  0  0  0  0  0  0  0  0  0
   -3.4313   21.8196  -29.7580 H   0  0  0  0  0  0  0  0  0  0  0  0
   -2.7544   22.7993  -31.1256 H   0  0  0  0  0  0  0  0  0  0  0  0
   -5.2094   23.6771  -29.5520 H   0  0  0  0  0  0  0  0  0  0  0  0
   -3.5237   24.0953  -29.0514 H   0  0  0  0  0  0  0  0  0  0  0  0
   -5.0850   26.7497  -30.6728 H   0  0  0  0  0  0  0  0  0  0  0  0
   -5.9904   25.4915  -31.5769 H   0  0  0  0  0  0  0  0  0  0  0  0
   -5.4822   25.6069  -28.5599 H   0  0  0  0  0  0  0  0  0  0  0  0
   -7.0561   25.7868  -29.4067 H   0  0  0  0  0  0  0  0  0  0  0  0
   -6.2123   24.2010  -29.4067 H   0  0  0  0  0  0  0  0  0  0  0  0
   -8.6592   21.3212  -33.0464 H   0  0  0  0  0  0  0  0  0  0  0  0
   -7.2045   20.0553  -34.1353 H   0  0  0  0  0  0  0  0  0  0  0  0
   -5.9279   20.8496  -33.1067 H   0  0  0  0  0  0  0  0  0  0  0  0
   -5.7213   18.3743  -33.1497 H   0  0  0  0  0  0  0  0  0  0  0  0
   -6.0453   19.0506  -31.4972 H   0  0  0  0  0  0  0  0  0  0  0  0
   -7.8495   17.4303  -33.3065 H   0  0  0  0  0  0  0  0  0  0  0  0
   -7.4649   17.2516  -31.5275 H   0  0  0  0  0  0  0  0  0  0  0  0
   -9.5768   18.8549  -32.8829 H   0  0  0  0  0  0  0  0  0  0  0  0
   -9.5248   18.0806  -31.2402 H   0  0  0  0  0  0  0  0  0  0  0  0
   -9.6502   20.5328  -31.0546 H   0  0  0  0  0  0  0  0  0  0  0  0
   -8.0814   19.8983  -30.4270 H   0  0  0  0  0  0  0  0  0  0  0  0
  1  2  2  0
  2  3  1  0
  3  4  1  0
  4  5  1  0
  5  6  1  0
  6  7  1  0
  7  8  1  0
  8  9  1  0
  9 10  1  0
  2 11  1  0
 11 12  1  0
 12 13  1  0
 13 14  1  0
 14 15  1  0
 15 16  1  0
 16 11  1  0
  1 17  1  0
  1 18  1  0
  3 19  1  0
  3 20  1  0
  4 21  1  0
  4 22  1  0
  5 23  1  0
  5 24  1  0
  6 25  1  0
  6 26  1  0
  7 27  1  0
  7 28  1  0
  9 29  1  0
  9 30  1  0
 10 31  1  0
 10 32  1  0
 10 33  1  0
 11 34  1  0
 12 35  1  0
 12 36  1  0
 13 37  1  0
 13 38  1  0
 14 39  1  0
 14 40  1  0
 15 41  1  0
 15 42  1  0
 16 43  1  0
 16 44  1  0
M  CHG  1   4   1
M  END
>  <UniqueID>  (1) 
1

>  <SMILES>  (1) 
C=C(C[NH2+]CCCOCC)C1CCCCC1

>  <Energy>  (1) 
36.98187660747158

>  <Genealogy>  (1) 
C=C(C[NH2+]CCCOCC)C1CCCCC1 (protonated)
C=C(C[NH2+]CCCOCC)C1CCCCC1 (3D coordinates assigned)
C=C(C[NH2+]CCCOCC)C1CCCCC1 (nonaromatic ring conformer: 36.98187660747158 kcal/mol)

>  <smiles>  (1) 
C=C(CNCCCOCC)C1CCCCC1

>  <score_type>  (1) 
oracle

>  <origin>  (1) 
adg

>  <m_score__min__energy>  (1) 
-6.54

>  <m_primary>  (1) 
energy

$$$$
1:0
     RDKit          3D

 53 55  0  0  0  0  0  0  0  0999 V2000
   -2.6710   20.4570  -27.4740 C   0  0  0  0  0  0  0  0  0  0  0  0
   -2.9350   21.7870  -28.1760 C   0  0  0  0  0  0  0  0  0  0  0  0
   -2.3430   21.7800  -29.5330 N   0  0  0  0  0  0  0  0  0  0  0  0
   -1.4210   20.6400  -29.6930 C   0  0  0  0  0  0  0  0  0  0  0  0
   -1.6360   23.0480  -29.8220 C   0  0  0  0  0  0  0  0  0  0  0  0
   -2.2660   24.2000  -29.0380 C   0  0  0  0  0  0  0  0  0  0  0  0
   -3.1150   24.9300  -29.8990 O   0  0  0  0  0  0  0  0  0  0  0  0
   -4.0950   24.0870  -30.4720 C   0  0  0  0  0  0  0  0  0  0  0  0
   -5.4820   24.7410  -30.4110 C   0  0  0  0  0  0  0  0  0  0  0  0
   -6.5560   23.9230  -31.1410 C   0  0  0  0  0  0  0  0  0  0  0  0
   -6.0000   23.2520  -32.3130 N   0  0  0  0  0  0  0  0  0  0  0  0
   -5.9160   21.8200  -32.3560 C   0  0  0  0  0  0  0  0  0  0  0  0
   -7.0600   21.0020  -32.2460 C   0  0  0  0  0  0  0  0  0  0  0  0
   -8.3360   21.5680  -32.0430 C   0  0  0  0  0  0  0  0  0  0  0  0
   -9.4680   20.7610  -31.9740 C   0  0  0  0  0  0  0  0  0  0  0  0
   -9.3540   19.3820  -32.1120 C   0  0  0  0  0  0  0  0  0  0  0  0
   -8.1020   18.7920  -32.2950 C   0  0  0  0  0  0  0  0  0  0  0  0
   -6.9230   19.5770  -32.3340 C   0  0  0  0  0  0  0  0  0  0  0  0
   -5.6650   19.0010  -32.4700 N   0  0  0  0  0  0  0  0  0  0  0  0
   -5.4940   17.5350  -32.4290 C   0  0  0  0  0  0  0  0  0  0  0  0
   -4.5750   19.8200  -32.6530 C   0  0  0  0  0  0  0  0  0  0  0  0
   -3.2570   19.4110  -32.9560 C   0  0  0  0  0  0  0  0  0  0  0  0
   -2.3690   20.4740  -33.0940 C   0  0  0  0  0  0  0  0  0  0  0  0
   -3.2050   21.9160  -32.8630 S   0  0  0  0  0  0  0  0  0  0  0  0
   -4.6960   21.1980  -32.5770 C   0  0  0  0  0  0  0  0  0  0  0  0
   -2.7004   20.6053  -26.3844 H   0  0  0  0  0  0  0  0  0  0  0  0
   -3.4421   19.7289  -27.7659 H   0  0  0  0  0  0  0  0  0  0  0  0
   -1.6802   20.0786  -27.7659 H   0  0  0  0  0  0  0  0  0  0  0  0
   -4.0206   21.9462  -28.2548 H   0  0  0  0  0  0  0  0  0  0  0  0
   -2.4761   22.5972  -27.5904 H   0  0  0  0  0  0  0  0  0  0  0  0
   -1.1210   20.2691  -28.7018 H   0  0  0  0  0  0  0  0  0  0  0  0
   -1.9255   19.8355  -30.2483 H   0  0  0  0  0  0  0  0  0  0  0  0
   -0.5288   20.9651  -30.2483 H   0  0  0  0  0  0  0  0  0  0  0  0
   -0.5794   22.9479  -29.5330 H   0  0  0  0  0  0  0  0  0  0  0  0
   -1.7147   23.2633  -30.8978 H   0  0  0  0  0  0  0  0  0  0  0  0
   -2.8503   23.7982  -28.1971 H   0  0  0  0  0  0  0  0  0  0  0  0
   -1.4772   24.8590  -28.6462 H   0  0  0  0  0  0  0  0  0  0  0  0
   -3.8339   23.8933  -31.5229 H   0  0  0  0  0  0  0  0  0  0  0  0
   -4.1247   23.1454  -29.9042 H   0  0  0  0  0  0  0  0  0  0  0  0
   -5.7757   24.8452  -29.3561 H   0  0  0  0  0  0  0  0  0  0  0  0
   -5.4108   25.7176  -30.9122 H   0  0  0  0  0  0  0  0  0  0  0  0
   -6.9612   23.1667  -30.4526 H   0  0  0  0  0  0  0  0  0  0  0  0
   -7.3499   24.6075  -31.4743 H   0  0  0  0  0  0  0  0  0  0  0  0
   -6.0140   23.7650  -33.2240 H   0  0  0  0  0  0  0  0  0  0  0  0
   -8.4375   22.6583  -31.9382 H   0  0  0  0  0  0  0  0  0  0  0  0
  -10.4561   21.2156  -31.8098 H   0  0  0  0  0  0  0  0  0  0  0  0
  -10.2554   18.7525  -32.0768 H   0  0  0  0  0  0  0  0  0  0  0  0
   -8.0297   17.7005  -32.4107 H   0  0  0  0  0  0  0  0  0  0  0  0
   -5.4549   17.1996  -31.3821 H   0  0  0  0  0  0  0  0  0  0  0  0
   -6.3420   17.0526  -32.9372 H   0  0  0  0  0  0  0  0  0  0  0  0
   -4.5578   17.2607  -32.9372 H   0  0  0  0  0  0  0  0  0  0  0  0
   -2.9620   18.3576  -33.0713 H   0  0  0  0  0  0  0  0  0  0  0  0
   -1.2956   20.3858  -33.3176 H   0  0  0  0  0  0  0  0  0  0  0  0
  1  2  1  0
  2  3  1  0
  3  4  1  0
  3  5  1  0
  5  6  1  0
  6  7  1  0
  7  8  1  0
  8  9  1  0
  9 10  1  0
 10 11  1  0
 11 12  1  0
 12 13  2  0
 13 14  1  0
 14 15  2  0
 15 16  1  0
 16 17  2  0
 17 18  1  0
 18 19  2  0
 19 20  1  0
 19 21  1  0
 21 22  1  0
 22 23  2  0
 23 24  1  0
 24 25  1  0
 25 12  1  0
 18 13  1  0
 25 21  2  0
  1 26  1  0
  1 27  1  0
  1 28  1  0
  2 29  1  0
  2 30  1  0
  4 31  1  0
  4 32  1  0
  4 33  1  0
  5 34  1  0
  5 35  1  0
  6 36  1  0
  6 37  1  0
  8 38  1  0
  8 39  1  0
  9 40  1  0
  9 41  1  0
 10 42  1  0
 10 43  1  0
 11 44  1  0
 14 45  1  0
 15 46  1  0
 16 47  1  0
 17 48  1  0
 20 49  1  0
 20 50  1  0
 20 51  1  0
 22 52  1  0
 23 53  1  0
M  CHG  1  19   1
M  END
>  <UniqueID>  (2) 
2

>  <SMILES>  (2) 
CCN(C)CCOCCCNc1c2ccccc2[n+](C)c2ccsc12

>  <Energy>  (2) 
98.36685082705797

>  <Genealogy>  (2) 
CCN(C)CCOCCCNc1c2ccccc2[n+](C)c2ccsc12 (3D coordinates assigned)
CCN(C)CCOCCCNc1c2ccccc2[n+](C)c2ccsc12 (optimized conformer: 98.36685082705797 kcal/mol)

>  <smiles>  (2) 
CCN(C)CCOCCCNc1c2ccccc2[n+](C)c2ccsc12

>  <score_type>  (2) 
oracle

>  <origin>  (2) 
adg

>  <m_score__min__energy>  (2) 
-8.7300000000000004

>  <m_primary>  (2) 
energy

$$$$
2:0
     RDKit          3D

 42 41  0  0  0  0  0  0  0  0999 V2000
   -7.2590   18.1270  -31.6350 C   0  0  0  0  0  0  0  0  0  0  0  0
   -7.0500   18.7640  -33.0120 C   0  0  0  0  0  0  0  0  0  0  0  0
   -7.9160   19.9350  -33.2430 N   0  0  0  0  0  0  0  0  0  0  0  0
   -8.8250   20.2700  -32.1270 C   0  0  0  0  0  0  0  0  0  0  0  0
   -9.0760   21.7810  -31.9340 C   0  0  0  0  0  0  0  0  0  0  0  0
   -7.7990   22.5910  -31.6620 C   0  0  0  0  0  0  0  0  0  0  0  0
   -6.8010   22.3630  -32.7210 N   0  0  0  0  0  0  0  0  0  0  0  0
   -5.4340   22.5980  -32.2320 C   0  0  0  0  0  0  0  0  0  0  0  0
   -5.4710   23.2810  -30.8610 C   0  0  0  0  0  0  0  0  0  0  0  0
   -4.5900   24.4730  -30.8400 N   0  0  0  0  0  0  0  0  0  0  0  0
   -5.3720   25.6800  -30.4830 C   0  0  0  0  0  0  0  0  0  0  0  0
   -6.6390   25.3280  -29.7040 C   0  0  0  0  0  0  0  0  0  0  0  0
   -3.4310   24.2740  -29.9290 C   0  0  0  0  0  0  0  0  0  0  0  0
   -3.8910   23.6370  -28.6230 C   0  0  0  0  0  0  0  0  0  0  0  0
   -7.0183   18.8605  -30.8514 H   0  0  0  0  0  0  0  0  0  0  0  0
   -8.3078   17.8115  -31.5323 H   0  0  0  0  0  0  0  0  0  0  0  0
   -6.6010   17.2515  -31.5323 H   0  0  0  0  0  0  0  0  0  0  0  0
   -6.0004   19.0825  -33.0951 H   0  0  0  0  0  0  0  0  0  0  0  0
   -7.3110   18.0079  -33.7671 H   0  0  0  0  0  0  0  0  0  0  0  0
   -8.4990   19.7540  -34.0950 H   0  0  0  0  0  0  0  0  0  0  0  0
   -7.3150   20.7610  -33.4640 H   0  0  0  0  0  0  0  0  0  0  0  0
   -9.7931   19.7826  -32.3149 H   0  0  0  0  0  0  0  0  0  0  0  0
   -8.3346   19.9156  -31.2084 H   0  0  0  0  0  0  0  0  0  0  0  0
   -9.5482   22.1737  -32.8466 H   0  0  0  0  0  0  0  0  0  0  0  0
   -9.7190   21.8888  -31.0481 H   0  0  0  0  0  0  0  0  0  0  0  0
   -8.0509   23.6612  -31.6279 H   0  0  0  0  0  0  0  0  0  0  0  0
   -7.3738   22.2676  -30.7005 H   0  0  0  0  0  0  0  0  0  0  0  0
   -6.9860   23.0500  -33.4900 H   0  0  0  0  0  0  0  0  0  0  0  0
   -4.9093   21.6352  -32.1440 H   0  0  0  0  0  0  0  0  0  0  0  0
   -4.9063   23.2504  -32.9432 H   0  0  0  0  0  0  0  0  0  0  0  0
   -6.5030   23.5920  -30.6413 H   0  0  0  0  0  0  0  0  0  0  0  0
   -5.1152   22.5675  -30.1032 H   0  0  0  0  0  0  0  0  0  0  0  0
   -4.7457   26.3394  -29.8642 H   0  0  0  0  0  0  0  0  0  0  0  0
   -5.6728   26.1797  -31.4157 H   0  0  0  0  0  0  0  0  0  0  0  0
   -6.4337   25.3850  -28.6248 H   0  0  0  0  0  0  0  0  0  0  0  0
   -7.4380   26.0382  -29.9633 H   0  0  0  0  0  0  0  0  0  0  0  0
   -6.9572   24.3074  -29.9633 H   0  0  0  0  0  0  0  0  0  0  0  0
   -2.6957   23.6159  -30.4150 H   0  0  0  0  0  0  0  0  0  0  0  0
   -2.9745   25.2507  -29.7106 H   0  0  0  0  0  0  0  0  0  0  0  0
   -3.4814   24.2042  -27.7742 H   0  0  0  0  0  0  0  0  0  0  0  0
   -4.9899   23.6493  -28.5761 H   0  0  0  0  0  0  0  0  0  0  0  0
   -3.5337   22.5977  -28.5761 H   0  0  0  0  0  0  0  0  0  0  0  0
  1  2  1  0
  2  3  1  0
  3  4  1  0
  4  5  1  0
  5  6  1  0
  6  7  1  0
  7  8  1  0
  8  9  1  0
  9 10  1  0
 10 11  1  0
 11 12  1  0
 10 13  1  0
 13 14  1  0
  1 15  1  0
  1 16  1  0
  1 17  1  0
  2 18  1  0
  2 19  1  0
  3 20  1  0
  3 21  1  0
  4 22  1  0
  4 23  1  0
  5 24  1  0
  5 25  1  0
  6 26  1  0
  6 27  1  0
  7 28  1  0
  8 29  1  0
  8 30  1  0
  9 31  1  0
  9 32  1  0
 11 33  1  0
 11 34  1  0
 12 35  1  0
 12 36  1  0
 12 37  1  0
 13 38  1  0
 13 39  1  0
 14 40  1  0
 14 41  1  0
 14 42  1  0
M  CHG  1   3   1
M  END
>  <UniqueID>  (3) 
3

>  <SMILES>  (3) 
CC[NH2+]CCCNCCN(CC)CC

>  <Energy>  (3) 
30.518103789513454

>  <Genealogy>  (3) 
CC[NH2+]CCCNCCN(CC)CC (protonated)
CC[NH2+]CCCNCCN(CC)CC (3D coordinates assigned)
CC[NH2+]CCCNCCN(CC)CC (optimized conformer: 30.518103789513454 kcal/mol)

>  <smiles>  (3) 
CCNCCCNCCN(CC)CC

>  <score_type>  (3) 
oracle

>  <origin>  (3) 
adg

>  <m_score__min__energy>  (3) 
-4.4900000000000002

>  <m_primary>  (3) 
energy

$$$$
3:0
     RDKit          3D

 74 76  0  0  0  0  0  0  0  0999 V2000
   -3.4050   22.0230  -29.6600 C   0  0  0  0  0  0  0  0  0  0  0  0
   -2.4980   23.1580  -30.1180 C   0  0  0  0  0  0  0  0  0  0  0  0
   -2.9380   24.4330  -29.4930 N   0  0  0  0  0  0  0  0  0  0  0  0
   -1.9970   24.8820  -28.4430 C   0  0  0  0  0  0  0  0  0  0  0  0
   -2.6500   24.8240  -27.0630 C   0  0  0  0  0  0  0  0  0  0  0  0
   -4.3140   24.3360  -28.9490 C   0  0  0  0  0  0  0  0  0  0  0  0
   -5.3210   25.0860  -29.8290 C   0  0  0  0  0  0  0  0  0  0  0  0
   -4.9880   24.9400  -31.1980 O   0  0  0  0  0  0  0  0  0  0  0  0
   -5.9600   24.1780  -31.8900 C   0  0  0  0  0  0  0  0  0  0  0  0
   -7.2010   23.9450  -31.0180 C   0  0  0  0  0  0  0  0  0  0  0  0
   -7.0840   22.7410  -30.2810 O   0  0  0  0  0  0  0  0  0  0  0  0
   -8.1700   21.8620  -30.5240 C   0  0  0  0  0  0  0  0  0  0  0  0
   -8.6670   22.0400  -31.9570 C   0  0  0  0  0  0  0  0  0  0  0  0
   -8.9390   20.7880  -32.5600 O   0  0  0  0  0  0  0  0  0  0  0  0
   -9.0920   19.7820  -31.5790 C   0  0  0  0  0  0  0  0  0  0  0  0
   -8.1380   18.6310  -31.8860 C   0  0  0  0  0  0  0  0  0  0  0  0
   -7.4550   18.8580  -33.1590 N   0  0  0  0  0  0  0  0  0  0  0  0
   -6.0800   18.4750  -33.3390 C   0  0  0  0  0  0  0  0  0  0  0  0
   -5.7560   17.1410  -33.6400 C   0  0  0  0  0  0  0  0  0  0  0  0
   -6.7670   16.1860  -33.8790 C   0  0  0  0  0  0  0  0  0  0  0  0
   -6.4400   14.8720  -34.2060 C   0  0  0  0  0  0  0  0  0  0  0  0
   -5.1070   14.4920  -34.3150 C   0  0  0  0  0  0  0  0  0  0  0  0
   -4.0930   15.4200  -34.0840 C   0  0  0  0  0  0  0  0  0  0  0  0
   -4.3930   16.7580  -33.7200 C   0  0  0  0  0  0  0  0  0  0  0  0
   -3.3980   17.6780  -33.4600 N   0  0  0  0  0  0  0  0  0  0  0  0
   -2.0410   17.1980  -33.1190 C   0  0  0  0  0  0  0  0  0  0  0  0
   -3.6980   19.0290  -33.4170 C   0  0  0  0  0  0  0  0  0  0  0  0
   -2.6930   20.0420  -33.5220 C   0  0  0  0  0  0  0  0  0  0  0  0
   -1.3810   19.7010  -33.8980 O   0  0  0  0  0  0  0  0  0  0  0  0
   -0.4320   20.5940  -34.4720 C   0  0  0  0  0  0  0  0  0  0  0  0
   -3.0380   21.3890  -33.3060 C   0  0  0  0  0  0  0  0  0  0  0  0
   -4.3550   21.7560  -33.0690 C   0  0  0  0  0  0  0  0  0  0  0  0
   -5.3600   20.7990  -33.0810 C   0  0  0  0  0  0  0  0  0  0  0  0
   -5.0550   19.4380  -33.2810 C   0  0  0  0  0  0  0  0  0  0  0  0
   -3.4287   21.9934  -28.5607 H   0  0  0  0  0  0  0  0  0  0  0  0
   -4.4223   22.1887  -30.0443 H   0  0  0  0  0  0  0  0  0  0  0  0
   -3.0190   21.0673  -30.0443 H   0  0  0  0  0  0  0  0  0  0  0  0
   -1.4619   22.9420  -29.8182 H   0  0  0  0  0  0  0  0  0  0  0  0
   -2.5536   23.2502  -31.2127 H   0  0  0  0  0  0  0  0  0  0  0  0
   -1.1117   24.2292  -28.4500 H   0  0  0  0  0  0  0  0  0  0  0  0
   -1.7091   25.9230  -28.6516 H   0  0  0  0  0  0  0  0  0  0  0  0
   -1.8736   24.8930  -26.2868 H   0  0  0  0  0  0  0  0  0  0  0  0
   -3.3527   25.6633  -26.9543 H   0  0  0  0  0  0  0  0  0  0  0  0
   -3.1938   23.8740  -26.9543 H   0  0  0  0  0  0  0  0  0  0  0  0
   -4.6041   23.2762  -28.8977 H   0  0  0  0  0  0  0  0  0  0  0  0
   -4.3224   24.7934  -27.9487 H   0  0  0  0  0  0  0  0  0  0  0  0
   -6.3277   24.6779  -29.6557 H   0  0  0  0  0  0  0  0  0  0  0  0
   -5.2951   26.1544  -29.5683 H   0  0  0  0  0  0  0  0  0  0  0  0
   -6.2572   24.7171  -32.8016 H   0  0  0  0  0  0  0  0  0  0  0  0
   -5.5227   23.2012  -32.1444 H   0  0  0  0  0  0  0  0  0  0  0  0
   -7.3119   24.7861  -30.3179 H   0  0  0  0  0  0  0  0  0  0  0  0
   -8.0813   23.8709  -31.6734 H   0  0  0  0  0  0  0  0  0  0  0  0
   -7.8390   20.8232  -30.3784 H   0  0  0  0  0  0  0  0  0  0  0  0
   -8.9873   22.0913  -29.8244 H   0  0  0  0  0  0  0  0  0  0  0  0
   -9.5880   22.6414  -31.9460 H   0  0  0  0  0  0  0  0  0  0  0  0
   -7.8827   22.5459  -32.5392 H   0  0  0  0  0  0  0  0  0  0  0  0
   -8.8601   20.1973  -30.5872 H   0  0  0  0  0  0  0  0  0  0  0  0
  -10.1286   19.4141  -31.5861 H   0  0  0  0  0  0  0  0  0  0  0  0
   -7.3906   18.5561  -31.0824 H   0  0  0  0  0  0  0  0  0  0  0  0
   -8.7164   17.6978  -31.9539 H   0  0  0  0  0  0  0  0  0  0  0  0
   -7.8840   19.5260  -33.8380 H   0  0  0  0  0  0  0  0  0  0  0  0
   -7.8239   16.4821  -33.8064 H   0  0  0  0  0  0  0  0  0  0  0  0
   -7.2374   14.1341  -34.3782 H   0  0  0  0  0  0  0  0  0  0  0  0
   -4.8520   13.4564  -34.5842 H   0  0  0  0  0  0  0  0  0  0  0  0
   -3.0426   15.1098  -34.1856 H   0  0  0  0  0  0  0  0  0  0  0  0
   -1.9300   17.1587  -32.0253 H   0  0  0  0  0  0  0  0  0  0  0  0
   -1.8914   16.1924  -33.5391 H   0  0  0  0  0  0  0  0  0  0  0  0
   -1.2924   17.8859  -33.5391 H   0  0  0  0  0  0  0  0  0  0  0  0
    0.1168   21.1104  -33.6707 H   0  0  0  0  0  0  0  0  0  0  0  0
    0.2756   20.0266  -35.0944 H   0  0  0  0  0  0  0  0  0  0  0  0
   -0.9553   21.3348  -35.0944 H   0  0  0  0  0  0  0  0  0  0  0  0
   -2.2541   22.1604  -33.3253 H   0  0  0  0  0  0  0  0  0  0  0  0
   -4.6033   22.8091  -32.8709 H   0  0  0  0  0  0  0  0  0  0  0  0
   -6.4058   21.1062  -32.9328 H   0  0  0  0  0  0  0  0  0  0  0  0
  1  2  1  0
  2  3  1  0
  3  4  1  0
  4  5  1  0
  3  6  1  0
  6  7  1  0
  7  8  1  0
  8  9  1  0
  9 10  1  0
 10 11  1  0
 11 12  1  0
 12 13  1  0
 13 14  1  0
 14 15  1  0
 15 16  1  0
 16 17  1  0
 17 18  1  0
 18 19  2  0
 19 20  1  0
 20 21  2  0
 21 22  1  0
 22 23  2  0
 23 24  1  0
 24 25  2  0
 25 26  1  0
 25 27  1  0
 27 28  2  0
 28 29  1  0
 29 30  1  0
 28 31  1  0
 31 32  2  0
 32 33  1  0
 33 34  2  0
 34 18  1  0
 24 19  1  0
 34 27  1  0
  1 35  1  0
  1 36  1  0
  1 37  1  0
  2 38  1  0
  2 39  1  0
  4 40  1  0
  4 41  1  0
  5 42  1  0
  5 43  1  0
  5 44  1  0
  6 45  1  0
  6 46  1  0
  7 47  1  0
  7 48  1  0
  9 49  1  0
  9 50  1  0
 10 51  1  0
 10 52  1  0
 12 53  1  0
 12 54  1  0
 13 55  1  0
 13 56  1  0
 15 57  1  0
 15 58  1  0
 16 59  1  0
 16 60  1  0
 17 61  1  0
 20 62  1  0
 21 63  1  0
 22 64  1  0
 23 65  1  0
 26 66  1  0
 26 67  1  0
 26 68  1  0
 30 69  1  0
 30 70  1  0
 30 71  1  0
 31 72  1  0
 32 73  1  0
 33 74  1  0
M  CHG  1  25   1
M  END
>  <UniqueID>  (4) 
4

>  <SMILES>  (4) 
CCN(CC)CCOCCOCCOCCNc1c2ccccc2[n+](C)c2c(OC)cccc12

>  <Energy>  (4) 
106.09653227078093

>  <Genealogy>  (4) 
CCN(CC)CCOCCOCCOCCNc1c2ccccc2[n+](C)c2c(OC)cccc12 (3D coordinates assigned)
CCN(CC)CCOCCOCCOCCNc1c2ccccc2[n+](C)c2c(OC)cccc12 (optimized conformer: 106.09653227078093 kcal/mol)

>  <smiles>  (4) 
CCN(CC)CCOCCOCCOCCNc1c2ccccc2[n+](C)c2c(OC)cccc12

>  <score_type>  (4) 
oracle

>  <origin>  (4) 
adg

>  <m_score__min__energy>  (4) 
-9.2300000000000004

>  <m_primary>  (4) 
energy

$$$$
4:0
     RDKit          3D

 54 56  0  0  0  0  0  0  0  0999 V2000
   -3.0010   24.6210  -29.1420 C   0  0  0  0  0  0  0  0  0  0  0  0
   -3.7550   24.6380  -30.3500 O   0  0  0  0  0  0  0  0  0  0  0  0
   -4.4400   23.5340  -30.8810 C   0  0  0  0  0  0  0  0  0  0  0  0
   -3.8260   22.6270  -31.7580 C   0  0  0  0  0  0  0  0  0  0  0  0
   -4.5380   21.5350  -32.2930 C   0  0  0  0  0  0  0  0  0  0  0  0
   -3.9060   20.6120  -33.1460 C   0  0  0  0  0  0  0  0  0  0  0  0
   -2.5630   20.8430  -33.6040 N   0  0  0  0  0  0  0  0  0  0  0  0
   -1.4150   20.7120  -32.7080 C   0  0  0  0  0  0  0  0  0  0  0  0
   -0.1480   20.3670  -33.5010 C   0  0  0  0  0  0  0  0  0  0  0  0
   -0.3440   20.6360  -34.9420 N   0  0  0  0  0  0  0  0  0  0  0  0
    0.2640   19.5760  -35.7660 C   0  0  0  0  0  0  0  0  0  0  0  0
    0.2520   21.9340  -35.3020 C   0  0  0  0  0  0  0  0  0  0  0  0
   -4.5820   19.4370  -33.5150 C   0  0  0  0  0  0  0  0  0  0  0  0
   -3.9270   18.4270  -34.2500 C   0  0  0  0  0  0  0  0  0  0  0  0
   -4.5930   17.2480  -34.6020 C   0  0  0  0  0  0  0  0  0  0  0  0
   -3.8680   16.1660  -35.3470 C   0  0  0  0  0  0  0  0  0  0  0  0
   -5.9070   17.0510  -34.1780 C   0  0  0  0  0  0  0  0  0  0  0  0
   -6.5740   18.0420  -33.4590 C   0  0  0  0  0  0  0  0  0  0  0  0
   -5.9420   19.2710  -33.1440 C   0  0  0  0  0  0  0  0  0  0  0  0
   -6.6080   20.2840  -32.4820 N   0  0  0  0  0  0  0  0  0  0  0  0
   -8.0830   20.2490  -32.3700 C   0  0  0  0  0  0  0  0  0  0  0  0
   -5.8980   21.3430  -31.9440 C   0  0  0  0  0  0  0  0  0  0  0  0
   -6.4870   22.2440  -31.0230 C   0  0  0  0  0  0  0  0  0  0  0  0
   -5.7710   23.3380  -30.5070 C   0  0  0  0  0  0  0  0  0  0  0  0
   -6.3460   24.2510  -29.6090 O   0  0  0  0  0  0  0  0  0  0  0  0
   -6.3170   25.6670  -29.7600 C   0  0  0  0  0  0  0  0  0  0  0  0
   -3.6864   24.6365  -28.2817 H   0  0  0  0  0  0  0  0  0  0  0  0
   -2.3874   23.7088  -29.1056 H   0  0  0  0  0  0  0  0  0  0  0  0
   -2.3469   25.5046  -29.1056 H   0  0  0  0  0  0  0  0  0  0  0  0
   -2.7706   22.7709  -32.0326 H   0  0  0  0  0  0  0  0  0  0  0  0
   -2.4100   21.1600  -34.5880 H   0  0  0  0  0  0  0  0  0  0  0  0
   -1.2611   21.6626  -32.1763 H   0  0  0  0  0  0  0  0  0  0  0  0
   -1.6157   19.9028  -31.9904 H   0  0  0  0  0  0  0  0  0  0  0  0
    0.6879   20.9782  -33.1300 H   0  0  0  0  0  0  0  0  0  0  0  0
    0.0726   19.2976  -33.3676 H   0  0  0  0  0  0  0  0  0  0  0  0
    0.7037   18.8093  -35.1111 H   0  0  0  0  0  0  0  0  0  0  0  0
   -0.5081   19.1169  -36.4009 H   0  0  0  0  0  0  0  0  0  0  0  0
    1.0501   20.0106  -36.4009 H   0  0  0  0  0  0  0  0  0  0  0  0
    0.5061   22.4875  -34.3860 H   0  0  0  0  0  0  0  0  0  0  0  0
    1.1637   21.7672  -35.8944 H   0  0  0  0  0  0  0  0  0  0  0  0
   -0.4687   22.5167  -35.8944 H   0  0  0  0  0  0  0  0  0  0  0  0
   -2.8783   18.5682  -34.5506 H   0  0  0  0  0  0  0  0  0  0  0  0
   -3.4042   15.4738  -34.6288 H   0  0  0  0  0  0  0  0  0  0  0  0
   -4.5803   15.6155  -35.9792 H   0  0  0  0  0  0  0  0  0  0  0  0
   -3.0880   16.6154  -35.9792 H   0  0  0  0  0  0  0  0  0  0  0  0
   -6.4208   16.1071  -34.4125 H   0  0  0  0  0  0  0  0  0  0  0  0
   -7.6091   17.8670  -33.1304 H   0  0  0  0  0  0  0  0  0  0  0  0
   -8.3700   20.2422  -31.3081 H   0  0  0  0  0  0  0  0  0  0  0  0
   -8.5091   21.1373  -32.8593 H   0  0  0  0  0  0  0  0  0  0  0  0
   -8.4664   19.3415  -32.8593 H   0  0  0  0  0  0  0  0  0  0  0  0
   -7.5277   22.0839  -30.7046 H   0  0  0  0  0  0  0  0  0  0  0  0
   -6.3073   26.1414  -28.7676 H   0  0  0  0  0  0  0  0  0  0  0  0
   -5.4127   25.9582  -30.3145 H   0  0  0  0  0  0  0  0  0  0  0  0
   -7.2086   25.9950  -30.3145 H   0  0  0  0  0  0  0  0  0  0  0  0
  1  2  1  0
  2  3  1  0
  3  4  2  0
  4  5  1  0
  5  6  2  0
  6  7  1  0
  7  8  1  0
  8  9  1  0
  9 10  1  0
 10 11  1  0
 10 12  1  0
  6 13  1  0
 13 14  2  0
 14 15  1  0
 15 16  1  0
 15 17  2  0
 17 18  1  0
 18 19  2  0
 19 20  1  0
 20 21  1  0
 20 22  2  0
 22 23  1  0
 23 24  2  0
 24 25  1  0
 25 26  1  0
 24  3  1  0
 22  5  1  0
 19 13  1  0
  1 27  1  0
  1 28  1  0
  1 29  1  0
  4 30  1  0
  7 31  1  0
  8 32  1  0
  8 33  1  0
  9 34  1  0
  9 35  1  0
 11 36  1  0
 11 37  1  0
 11 38  1  0
 12 39  1  0
 12 40  1  0
 12 41  1  0
 14 42  1  0
 16 43  1  0
 16 44  1  0
 16 45  1  0
 17 46  1  0
 18 47  1  0
 21 48  1  0
 21 49  1  0
 21 50  1  0
 23 51  1  0
 26 52  1  0
 26 53  1  0
 26 54  1  0
M  CHG  1  20   1
M  END
>  <UniqueID>  (5) 
5

>  <SMILES>  (5) 
COc1cc2c(NCCN(C)C)c3cc(C)ccc3[n+](C)c2cc1OC

>  <Energy>  (5) 
77.8728124697925

>  <Genealogy>  (5) 
COc1cc2c(NCCN(C)C)c3cc(C)ccc3[n+](C)c2cc1OC (3D coordinates assigned)
COc1cc2c(NCCN(C)C)c3cc(C)ccc3[n+](C)c2cc1OC (optimized conformer: 77.8728124697925 kcal/mol)

>  <smiles>  (5) 
COc1cc2c(NCCN(C)C)c3cc(C)ccc3[n+](C)c2cc1OC

>  <score_type>  (5) 
oracle

>  <origin>  (5) 
adg

>  <m_score__min__energy>  (5) 
-7.4100000000000001

>  <m_primary>  (5) 
energy

$$$$
5:0
     RDKit          3D

 46 46  0  0  0  0  0  0  0  0999 V2000
   -3.9410   19.4550  -33.5020 C   0  0  0  0  0  0  0  0  0  0  0  0
   -4.5080   18.0360  -33.4740 C   0  0  0  0  0  0  0  0  0  0  0  0
   -5.6340   17.8490  -34.4970 C   0  0  0  0  0  0  0  0  0  0  0  0
   -6.8710   17.4260  -33.8290 N   0  0  0  0  0  0  0  0  0  0  0  0
   -6.7150   17.4770  -32.3720 C   0  0  0  0  0  0  0  0  0  0  0  0
   -7.6170   18.5660  -31.7640 C   0  0  0  0  0  0  0  0  0  0  0  0
   -8.1340   19.5220  -32.7880 N   0  0  0  0  0  0  0  0  0  0  0  0
   -9.3780   20.2110  -32.3480 C   0  0  0  0  0  0  0  0  0  0  0  0
   -9.1080   21.5340  -31.5990 C   0  0  0  0  0  0  0  0  0  0  0  0
   -7.7680   21.5090  -30.9870 N   0  0  0  0  0  0  0  0  0  0  0  0
   -7.5560   22.6610  -30.0820 C   0  0  0  0  0  0  0  0  0  0  0  0
   -6.2650   23.4210  -30.4490 C   0  0  0  0  0  0  0  0  0  0  0  0
   -6.4920   24.9390  -30.4350 C   0  0  0  0  0  0  0  0  0  0  0  0
   -5.1350   23.0470  -29.4810 C   0  0  0  0  0  0  0  0  0  0  0  0
   -6.7290   21.4670  -32.0370 C   0  0  0  0  0  0  0  0  0  0  0  0
   -7.1040   20.5060  -33.1890 C   0  0  0  0  0  0  0  0  0  0  0  0
   -3.7979   19.8131  -32.4718 H   0  0  0  0  0  0  0  0  0  0  0  0
   -2.9745   19.4534  -34.0272 H   0  0  0  0  0  0  0  0  0  0  0  0
   -4.6425   20.1199  -34.0272 H   0  0  0  0  0  0  0  0  0  0  0  0
   -3.6995   17.3256  -33.7015 H   0  0  0  0  0  0  0  0  0  0  0  0
   -4.9248   17.8556  -32.4721 H   0  0  0  0  0  0  0  0  0  0  0  0
   -5.8115   18.8014  -35.0180 H   0  0  0  0  0  0  0  0  0  0  0  0
   -5.3352   17.0727  -35.2168 H   0  0  0  0  0  0  0  0  0  0  0  0
   -7.0550   16.4290  -34.0950 H   0  0  0  0  0  0  0  0  0  0  0  0
   -6.9901   16.5011  -31.9454 H   0  0  0  0  0  0  0  0  0  0  0  0
   -5.6671   17.7154  -32.1375 H   0  0  0  0  0  0  0  0  0  0  0  0
   -8.4725   18.0804  -31.2719 H   0  0  0  0  0  0  0  0  0  0  0  0
   -7.0097   19.1404  -31.0490 H   0  0  0  0  0  0  0  0  0  0  0  0
   -8.3700   18.9850  -33.6580 H   0  0  0  0  0  0  0  0  0  0  0  0
   -9.9890   20.4304  -33.2360 H   0  0  0  0  0  0  0  0  0  0  0  0
   -9.8941   19.5381  -31.6474 H   0  0  0  0  0  0  0  0  0  0  0  0
   -9.1674   22.3720  -32.3091 H   0  0  0  0  0  0  0  0  0  0  0  0
   -9.8615   21.6579  -30.8072 H   0  0  0  0  0  0  0  0  0  0  0  0
   -8.4127   23.3460  -30.1647 H   0  0  0  0  0  0  0  0  0  0  0  0
   -7.4613   22.2855  -29.0524 H   0  0  0  0  0  0  0  0  0  0  0  0
   -5.9764   23.1277  -31.4691 H   0  0  0  0  0  0  0  0  0  0  0  0
   -6.5448   25.2923  -29.3946 H   0  0  0  0  0  0  0  0  0  0  0  0
   -5.6587   25.4391  -30.9502 H   0  0  0  0  0  0  0  0  0  0  0  0
   -7.4352   25.1735  -30.9502 H   0  0  0  0  0  0  0  0  0  0  0  0
   -5.4861   23.1632  -28.4451 H   0  0  0  0  0  0  0  0  0  0  0  0
   -4.8365   22.0022  -29.6520 H   0  0  0  0  0  0  0  0  0  0  0  0
   -4.2721   23.7075  -29.6520 H   0  0  0  0  0  0  0  0  0  0  0  0
   -6.5988   22.4791  -32.4477 H   0  0  0  0  0  0  0  0  0  0  0  0
   -5.7991   21.0993  -31.5786 H   0  0  0  0  0  0  0  0  0  0  0  0
   -7.4899   21.0981  -34.0319 H   0  0  0  0  0  0  0  0  0  0  0  0
   -6.1982   19.9488  -33.4702 H   0  0  0  0  0  0  0  0  0  0  0  0
  1  2  1  0
  2  3  1  0
  3  4  1  0
  4  5  1  0
  5  6  1  0
  6  7  1  0
  7  8  1  0
  8  9  1  0
  9 10  1  0
 10 11  1  0
 11 12  1  0
 12 13  1  0
 12 14  1  0
 10 15  1  0
 15 16  1  0
 16  7  1  0
  1 17  1  0
  1 18  1  0
  1 19  1  0
  2 20  1  0
  2 21  1  0
  3 22  1  0
  3 23  1  0
  4 24  1  0
  5 25  1  0
  5 26  1  0
  6 27  1  0
  6 28  1  0
  7 29  1  0
  8 30  1  0
  8 31  1  0
  9 32  1  0
  9 33  1  0
 11 34  1  0
 11 35  1  0
 12 36  1  0
 13 37  1  0
 13 38  1  0
 13 39  1  0
 14 40  1  0
 14 41  1  0
 14 42  1  0
 15 43  1  0
 15 44  1  0
 16 45  1  0
 16 46  1  0
M  CHG  1   7   1
M  END
>  <UniqueID>  (6) 
6

>  <SMILES>  (6) 
CCCNCC[NH+]1CCN(CC(C)C)CC1

>  <Energy>  (6) 
42.42100212557339

>  <Genealogy>  (6) 
CCCNCC[NH+]1CCN(CC(C)C)CC1 (protonated)
CCCNCC[NH+]1CCN(CC(C)C)CC1 (3D coordinates assigned)
CCCNCC[NH+]1CCN(CC(C)C)CC1 (nonaromatic ring conformer: 42.42100212557339 kcal/mol)

>  <smiles>  (6) 
CCCNCCN1CCN(CC(C)C)CC1

>  <score_type>  (6) 
oracle

>  <origin>  (6) 
adg

>  <m_score__min__energy>  (6) 
-5.0800000000000001

>  <m_primary>  (6) 
energy

$$$$
6:0
     RDKit          3D

 54 54  0  0  0  0  0  0  0  0999 V2000
   -3.6710   19.7240  -33.7450 C   0  0  0  0  0  0  0  0  0  0  0  0
   -3.7610   21.2090  -33.4080 C   0  0  0  0  0  0  0  0  0  0  0  0
   -3.1470   21.4710  -32.0870 N   0  0  0  0  0  0  0  0  0  0  0  0
   -1.6710   21.5450  -32.1850 C   0  0  0  0  0  0  0  0  0  0  0  0
   -1.0350   20.2550  -31.6750 C   0  0  0  0  0  0  0  0  0  0  0  0
   -3.5710   20.4640  -31.0850 C   0  0  0  0  0  0  0  0  0  0  0  0
   -3.4850   21.0450  -29.6660 C   0  0  0  0  0  0  0  0  0  0  0  0
   -3.0680   22.3970  -29.6960 O   0  0  0  0  0  0  0  0  0  0  0  0
   -3.5520   23.0960  -28.5680 C   0  0  0  0  0  0  0  0  0  0  0  0
   -3.0550   24.5370  -28.6210 C   0  0  0  0  0  0  0  0  0  0  0  0
   -3.4950   25.1640  -29.8110 O   0  0  0  0  0  0  0  0  0  0  0  0
   -4.8020   24.7420  -30.1520 C   0  0  0  0  0  0  0  0  0  0  0  0
   -4.7750   24.0400  -31.4420 N   0  0  0  0  0  0  0  0  0  0  0  0
   -6.1300   23.8230  -31.9670 C   0  0  0  0  0  0  0  0  0  0  0  0
   -6.8730   22.8060  -31.0940 C   0  0  0  0  0  0  0  0  0  0  0  0
   -8.0930   22.2350  -31.8250 C   0  0  0  0  0  0  0  0  0  0  0  0
   -7.9450   20.7490  -32.0150 C   0  0  0  0  0  0  0  0  0  0  0  0
   -8.8430   19.8630  -31.3910 C   0  0  0  0  0  0  0  0  0  0  0  0
   -8.7350   18.4870  -31.6070 C   0  0  0  0  0  0  0  0  0  0  0  0
   -7.7400   17.9850  -32.4500 C   0  0  0  0  0  0  0  0  0  0  0  0
   -6.8540   18.8600  -33.0840 C   0  0  0  0  0  0  0  0  0  0  0  0
   -6.9570   20.2390  -32.8720 C   0  0  0  0  0  0  0  0  0  0  0  0
   -3.6355   19.1384  -32.8145 H   0  0  0  0  0  0  0  0  0  0  0  0
   -4.5528   19.4271  -34.3317 H   0  0  0  0  0  0  0  0  0  0  0  0
   -2.7598   19.5357  -34.3317 H   0  0  0  0  0  0  0  0  0  0  0  0
   -3.2299   21.7890  -34.1771 H   0  0  0  0  0  0  0  0  0  0  0  0
   -4.8195   21.5068  -33.3775 H   0  0  0  0  0  0  0  0  0  0  0  0
   -1.3854   21.6982  -33.2362 H   0  0  0  0  0  0  0  0  0  0  0  0
   -1.3157   22.3841  -31.5688 H   0  0  0  0  0  0  0  0  0  0  0  0
   -1.0355   20.2559  -30.5750 H   0  0  0  0  0  0  0  0  0  0  0  0
   -1.6111   19.3924  -32.0412 H   0  0  0  0  0  0  0  0  0  0  0  0
    0.0000   20.1868  -32.0412 H   0  0  0  0  0  0  0  0  0  0  0  0
   -4.6091   20.1641  -31.2907 H   0  0  0  0  0  0  0  0  0  0  0  0
   -2.9030   19.5927  -31.1529 H   0  0  0  0  0  0  0  0  0  0  0  0
   -4.4757   20.9846  -29.1919 H   0  0  0  0  0  0  0  0  0  0  0  0
   -2.7476   20.4634  -29.0933 H   0  0  0  0  0  0  0  0  0  0  0  0
   -4.6519   23.0856  -28.5726 H   0  0  0  0  0  0  0  0  0  0  0  0
   -3.1884   22.6128  -27.6492 H   0  0  0  0  0  0  0  0  0  0  0  0
   -3.4472   25.0884  -27.7537 H   0  0  0  0  0  0  0  0  0  0  0  0
   -1.9552   24.5375  -28.6014 H   0  0  0  0  0  0  0  0  0  0  0  0
   -5.1816   24.0631  -29.3742 H   0  0  0  0  0  0  0  0  0  0  0  0
   -5.4598   25.6203  -30.2290 H   0  0  0  0  0  0  0  0  0  0  0  0
   -4.3340   23.1040  -31.2790 H   0  0  0  0  0  0  0  0  0  0  0  0
   -6.6791   24.7762  -31.9636 H   0  0  0  0  0  0  0  0  0  0  0  0
   -6.0618   23.4358  -32.9943 H   0  0  0  0  0  0  0  0  0  0  0  0
   -6.1887   21.9828  -30.8407 H   0  0  0  0  0  0  0  0  0  0  0  0
   -7.2198   23.3162  -30.1832 H   0  0  0  0  0  0  0  0  0  0  0  0
   -8.9973   22.4360  -31.2319 H   0  0  0  0  0  0  0  0  0  0  0  0
   -8.1731   22.7140  -32.8120 H   0  0  0  0  0  0  0  0  0  0  0  0
   -9.6316   20.2548  -30.7318 H   0  0  0  0  0  0  0  0  0  0  0  0
   -9.4347   17.7972  -31.1124 H   0  0  0  0  0  0  0  0  0  0  0  0
   -7.6542   16.9008  -32.6146 H   0  0  0  0  0  0  0  0  0  0  0  0
   -6.0741   18.4638  -33.7510 H   0  0  0  0  0  0  0  0  0  0  0  0
   -6.2621   20.9253  -33.3781 H   0  0  0  0  0  0  0  0  0  0  0  0
  1  2  1  0
  2  3  1  0
  3  4  1  0
  4  5  1  0
  3  6  1  0
  6  7  1  0
  7  8  1  0
  8  9  1  0
  9 10  1  0
 10 11  1  0
 11 12  1  0
 12 13  1  0
 13 14  1  0
 14 15  1  0
 15 16  1  0
 16 17  1  0
 17 18  2  0
 18 19  1  0
 19 20  2  0
 20 21  1  0
 21 22  2  0
 22 17  1  0
  1 23  1  0
  1 24  1  0
  1 25  1  0
  2 26  1  0
  2 27  1  0
  4 28  1  0
  4 29  1  0
  5 30  1  0
  5 31  1  0
  5 32  1  0
  6 33  1  0
  6 34  1  0
  7 35  1  0
  7 36  1  0
  9 37  1  0
  9 38  1  0
 10 39  1  0
 10 40  1  0
 12 41  1  0
 12 42  1  0
 13 43  1  0
 14 44  1  0
 14 45  1  0
 15 46  1  0
 15 47  1  0
 16 48  1  0
 16 49  1  0
 18 50  1  0
 19 51  1  0
 20 52  1  0
 21 53  1  0
 22 54  1  0
M  END
>  <UniqueID>  (7) 
7

>  <SMILES>  (7) 
CCN(CC)CCOCCOCNCCCc1ccccc1

>  <Energy>  (7) 
45.51630747122912

>  <Genealogy>  (7) 
CCN(CC)CCOCCOCNCCCc1ccccc1 (3D coordinates assigned)
CCN(CC)CCOCCOCNCCCc1ccccc1 (optimized conformer: 45.51630747122912 kcal/mol)

>  <smiles>  (7) 
CCN(CC)CCOCCOCNCCCc1ccccc1

>  <score_type>  (7) 
oracle

>  <origin>  (7) 
adg

>  <m_score__min__energy>  (7) 
-7.9699999999999998

>  <m_primary>  (7) 
energy

$$$$
7:0
     RDKit          3D

 62 64  0  0  0  0  0  0  0  0999 V2000
   -1.1450   26.4500  -24.3180 C   0  0  0  0  0  0  0  0  0  0  0  0
   -1.9680   25.7690  -25.4210 C   0  0  0  0  0  0  0  0  0  0  0  0
   -1.5470   26.1130  -26.8030 N   0  0  1  0  0  0  0  0  0  0  0  0
   -0.7890   27.3780  -26.8430 C   0  0  0  0  0  0  0  0  0  0  0  0
   -0.8060   24.9970  -27.4450 C   0  0  0  0  0  0  0  0  0  0  0  0
   -1.0370   24.9200  -28.9620 C   0  0  0  0  0  0  0  0  0  0  0  0
   -2.3780   25.2640  -29.2600 O   0  0  0  0  0  0  0  0  0  0  0  0
   -3.2880   24.2980  -28.7660 C   0  0  0  0  0  0  0  0  0  0  0  0
   -3.7760   23.3530  -29.8720 C   0  0  0  0  0  0  0  0  0  0  0  0
   -4.1200   24.1030  -31.0850 N   0  0  0  0  0  0  0  0  0  0  0  0
   -5.4990   24.6100  -31.0370 C   0  0  0  0  0  0  0  0  0  0  0  0
   -6.5140   23.4910  -31.2790 C   0  0  0  0  0  0  0  0  0  0  0  0
   -6.3000   22.8550  -32.5790 N   0  0  0  0  0  0  0  0  0  0  0  0
   -6.0500   21.4420  -32.6940 C   0  0  0  0  0  0  0  0  0  0  0  0
   -7.0990   20.5190  -32.5160 C   0  0  0  0  0  0  0  0  0  0  0  0
   -8.4150   20.9590  -32.2500 C   0  0  0  0  0  0  0  0  0  0  0  0
   -9.4360   20.0460  -32.0060 C   0  0  0  0  0  0  0  0  0  0  0  0
   -9.1650   18.6830  -32.0050 C   0  0  0  0  0  0  0  0  0  0  0  0
   -7.8800   18.2240  -32.2820 C   0  0  0  0  0  0  0  0  0  0  0  0
   -6.8260   19.1260  -32.5830 C   0  0  0  0  0  0  0  0  0  0  0  0
   -5.5610   18.6790  -32.9170 N   0  0  0  0  0  0  0  0  0  0  0  0
   -5.3470   17.2540  -33.2550 C   0  0  0  0  0  0  0  0  0  0  0  0
   -4.5050   19.5690  -32.9750 C   0  0  0  0  0  0  0  0  0  0  0  0
   -3.1610   19.1240  -33.0790 C   0  0  0  0  0  0  0  0  0  0  0  0
   -2.1140   20.0300  -33.2350 C   0  0  0  0  0  0  0  0  0  0  0  0
   -2.3710   21.3940  -33.2850 C   0  0  0  0  0  0  0  0  0  0  0  0
   -3.6730   21.8630  -33.1310 C   0  0  0  0  0  0  0  0  0  0  0  0
   -4.7450   20.9680  -32.9270 C   0  0  0  0  0  0  0  0  0  0  0  0
   -1.5224   26.1377  -23.3331 H   0  0  0  0  0  0  0  0  0  0  0  0
   -0.0889   26.1581  -24.4154 H   0  0  0  0  0  0  0  0  0  0  0  0
   -1.2341   27.5421  -24.4154 H   0  0  0  0  0  0  0  0  0  0  0  0
   -1.8773   24.6800  -25.2950 H   0  0  0  0  0  0  0  0  0  0  0  0
   -3.0012   26.1297  -25.3091 H   0  0  0  0  0  0  0  0  0  0  0  0
   -2.4350   26.2690  -27.3360 H   0  0  0  0  0  0  0  0  0  0  0  0
   -0.5862   27.7165  -25.8162 H   0  0  0  0  0  0  0  0  0  0  0  0
    0.1626   27.2187  -27.3713 H   0  0  0  0  0  0  0  0  0  0  0  0
   -1.3783   28.1420  -27.3713 H   0  0  0  0  0  0  0  0  0  0  0  0
    0.2692   25.1377  -27.2605 H   0  0  0  0  0  0  0  0  0  0  0  0
   -1.1775   24.0590  -27.0067 H   0  0  0  0  0  0  0  0  0  0  0  0
   -0.3584   25.6203  -29.4709 H   0  0  0  0  0  0  0  0  0  0  0  0
   -0.8389   23.8950  -29.3085 H   0  0  0  0  0  0  0  0  0  0  0  0
   -2.7881   23.7046  -27.9862 H   0  0  0  0  0  0  0  0  0  0  0  0
   -4.1622   24.8290  -28.3611 H   0  0  0  0  0  0  0  0  0  0  0  0
   -2.9793   22.6321  -30.1077 H   0  0  0  0  0  0  0  0  0  0  0  0
   -4.6747   22.8282  -29.5157 H   0  0  0  0  0  0  0  0  0  0  0  0
   -3.4850   24.9340  -31.1360 H   0  0  0  0  0  0  0  0  0  0  0  0
   -5.6834   25.0525  -30.0469 H   0  0  0  0  0  0  0  0  0  0  0  0
   -5.6187   25.3633  -31.8296 H   0  0  0  0  0  0  0  0  0  0  0  0
   -6.4092   22.7342  -30.4877 H   0  0  0  0  0  0  0  0  0  0  0  0
   -7.5235   23.9276  -31.2667 H   0  0  0  0  0  0  0  0  0  0  0  0
   -6.5760   23.3840  -33.4360 H   0  0  0  0  0  0  0  0  0  0  0  0
   -8.6350   22.0367  -32.2357 H   0  0  0  0  0  0  0  0  0  0  0  0
  -10.4585   20.4032  -31.8137 H   0  0  0  0  0  0  0  0  0  0  0  0
   -9.9682   17.9645  -31.7847 H   0  0  0  0  0  0  0  0  0  0  0  0
   -7.6779   17.1428  -32.2673 H   0  0  0  0  0  0  0  0  0  0  0  0
   -5.2588   16.6668  -32.3290 H   0  0  0  0  0  0  0  0  0  0  0  0
   -6.1998   16.8847  -33.8436 H   0  0  0  0  0  0  0  0  0  0  0  0
   -4.4234   17.1515  -33.8436 H   0  0  0  0  0  0  0  0  0  0  0  0
   -2.9427   18.0468  -33.0357 H   0  0  0  0  0  0  0  0  0  0  0  0
   -1.0802   19.6637  -33.3189 H   0  0  0  0  0  0  0  0  0  0  0  0
   -1.5461   22.1036  -33.4462 H   0  0  0  0  0  0  0  0  0  0  0  0
   -3.8685   22.9448  -33.1688 H   0  0  0  0  0  0  0  0  0  0  0  0
  1  2  1  0
  2  3  1  0
  3  4  1  0
  3  5  1  0
  5  6  1  0
  6  7  1  0
  7  8  1  0
  8  9  1  0
  9 10  1  0
 10 11  1  0
 11 12  1  0
 12 13  1  0
 13 14  1  0
 14 15  2  0
 15 16  1  0
 16 17  2  0
 17 18  1  0
 18 19  2  0
 19 20  1  0
 20 21  2  0
 21 22  1  0
 21 23  1  0
 23 24  2  0
 24 25  1  0
 25 26  2  0
 26 27  1  0
 27 28  2  0
 28 14  1  0
 20 15  1  0
 28 23  1  0
  1 29  1  0
  1 30  1  0
  1 31  1  0
  2 32  1  0
  2 33  1  0
  3 34  1  6
  4 35  1  0
  4 36  1  0
  4 37  1  0
  5 38  1  0
  5 39  1  0
  6 40  1  0
  6 41  1  0
  8 42  1  0
  8 43  1  0
  9 44  1  0
  9 45  1  0
 10 46  1  0
 11 47  1  0
 11 48  1  0
 12 49  1  0
 12 50  1  0
 13 51  1  0
 16 52  1  0
 17 53  1  0
 18 54  1  0
 19 55  1  0
 22 56  1  0
 22 57  1  0
 22 58  1  0
 24 59  1  0
 25 60  1  0
 26 61  1  0
 27 62  1  0
M  CHG  2   3   1  21   1
M  END
>  <UniqueID>  (8) 
8

>  <SMILES>  (8) 
CC[N@@H+](C)CCOCCNCCNc1c2ccccc2[n+](C)c2ccccc12

>  <Energy>  (8) 
89.07115701487238

>  <Genealogy>  (8) 
CC[NH+](C)CCOCCNCCNc1c2ccccc2[n+](C)c2ccccc12 (protonated)
CC[N@@H+](C)CCOCCNCCNc1c2ccccc2[n+](C)c2ccccc12 (chirality)
CC[N@@H+](C)CCOCCNCCNc1c2ccccc2[n+](C)c2ccccc12 (3D coordinates assigned)
CC[N@@H+](C)CCOCCNCCNc1c2ccccc2[n+](C)c2ccccc12 (optimized conformer: 89.07115701487238 kcal/mol)

>  <smiles>  (8) 
CCN(C)CCOCCNCCNc1c2ccccc2[n+](C)c2ccccc12

>  <score_type>  (8) 
oracle

>  <origin>  (8) 
adg

>  <m_score__min__energy>  (8) 
-8.3800000000000008

>  <m_primary>  (8) 
energy

$$$$
8:0
     RDKit          3D

 74 76  0  0  0  0  0  0  0  0999 V2000
   -8.7330   18.5400  -31.2920 C   0  0  0  0  0  0  0  0  0  0  0  0
   -8.5070   19.4060  -32.5330 C   0  0  0  0  0  0  0  0  0  0  0  0
   -7.0740   19.7710  -32.6790 N   0  0  0  0  0  0  0  0  0  0  0  0
   -6.1860   18.8750  -33.2540 C   0  0  0  0  0  0  0  0  0  0  0  0
   -6.5450   17.5260  -33.5270 C   0  0  0  0  0  0  0  0  0  0  0  0
   -5.6650   16.6590  -34.1700 C   0  0  0  0  0  0  0  0  0  0  0  0
   -4.4090   17.1000  -34.5620 C   0  0  0  0  0  0  0  0  0  0  0  0
   -4.0090   18.4020  -34.2780 C   0  0  0  0  0  0  0  0  0  0  0  0
   -4.8670   19.2880  -33.5900 C   0  0  0  0  0  0  0  0  0  0  0  0
   -4.4330   20.5800  -33.2490 C   0  0  0  0  0  0  0  0  0  0  0  0
   -3.0740   20.9780  -33.5040 N   0  0  0  0  0  0  0  0  0  0  0  0
   -2.1450   21.2590  -32.4070 C   0  0  0  0  0  0  0  0  0  0  0  0
   -0.6980   21.1530  -32.8790 C   0  0  0  0  0  0  0  0  0  0  0  0
   -0.5810   21.7230  -34.1680 O   0  0  0  0  0  0  0  0  0  0  0  0
    0.6570   21.3820  -34.7670 C   0  0  0  0  0  0  0  0  0  0  0  0
    1.4220   22.6340  -35.1980 C   0  0  0  0  0  0  0  0  0  0  0  0
    1.0850   22.9600  -36.5300 O   0  0  0  0  0  0  0  0  0  0  0  0
    1.2090   24.3520  -36.7520 C   0  0  0  0  0  0  0  0  0  0  0  0
    2.3860   24.9140  -35.9520 C   0  0  0  0  0  0  0  0  0  0  0  0
    2.0630   26.2030  -35.4620 O   0  0  0  0  0  0  0  0  0  0  0  0
    2.1260   27.1600  -36.4990 C   0  0  0  0  0  0  0  0  0  0  0  0
    1.2310   28.3640  -36.1630 C   0  0  0  0  0  0  0  0  0  0  0  0
    1.0560   28.5740  -34.7000 N   0  0  0  0  0  0  0  0  0  0  0  0
   -0.3850   28.6530  -34.3420 C   0  0  0  0  0  0  0  0  0  0  0  0
   -1.3210   27.9320  -35.3280 C   0  0  0  0  0  0  0  0  0  0  0  0
    1.8140   29.7560  -34.1900 C   0  0  0  0  0  0  0  0  0  0  0  0
    3.0610   29.3450  -33.3970 C   0  0  0  0  0  0  0  0  0  0  0  0
   -5.3170   21.4590  -32.6010 C   0  0  0  0  0  0  0  0  0  0  0  0
   -4.9010   22.7600  -32.2440 C   0  0  0  0  0  0  0  0  0  0  0  0
   -5.7490   23.6140  -31.5460 C   0  0  0  0  0  0  0  0  0  0  0  0
   -7.0200   23.1910  -31.1880 C   0  0  0  0  0  0  0  0  0  0  0  0
   -7.4630   21.9180  -31.5450 C   0  0  0  0  0  0  0  0  0  0  0  0
   -6.6360   21.0270  -32.2840 C   0  0  0  0  0  0  0  0  0  0  0  0
   -8.5748   19.1464  -30.3880 H   0  0  0  0  0  0  0  0  0  0  0  0
   -9.7624   18.1523  -31.2979 H   0  0  0  0  0  0  0  0  0  0  0  0
   -8.0243   17.6987  -31.2979 H   0  0  0  0  0  0  0  0  0  0  0  0
   -8.8275   18.8466  -33.4243 H   0  0  0  0  0  0  0  0  0  0  0  0
   -9.0929   20.3306  -32.4243 H   0  0  0  0  0  0  0  0  0  0  0  0
   -7.5373   17.1603  -33.2243 H   0  0  0  0  0  0  0  0  0  0  0  0
   -5.9669   15.6199  -34.3680 H   0  0  0  0  0  0  0  0  0  0  0  0
   -3.7297   16.4203  -35.0972 H   0  0  0  0  0  0  0  0  0  0  0  0
   -3.0126   18.7454  -34.5931 H   0  0  0  0  0  0  0  0  0  0  0  0
   -2.8140   21.2920  -34.4670 H   0  0  0  0  0  0  0  0  0  0  0  0
   -2.3279   22.2767  -32.0318 H   0  0  0  0  0  0  0  0  0  0  0  0
   -2.3096   20.5202  -31.6088 H   0  0  0  0  0  0  0  0  0  0  0  0
   -0.0432   21.6921  -32.1786 H   0  0  0  0  0  0  0  0  0  0  0  0
   -0.4007   20.0946  -32.9171 H   0  0  0  0  0  0  0  0  0  0  0  0
    1.2649   20.8212  -34.0418 H   0  0  0  0  0  0  0  0  0  0  0  0
    0.4574   20.7696  -35.6587 H   0  0  0  0  0  0  0  0  0  0  0  0
    1.1548   23.4719  -34.5372 H   0  0  0  0  0  0  0  0  0  0  0  0
    2.5032   22.4426  -35.1311 H   0  0  0  0  0  0  0  0  0  0  0  0
    1.3780   24.5351  -37.8234 H   0  0  0  0  0  0  0  0  0  0  0  0
    0.2841   24.8503  -36.4261 H   0  0  0  0  0  0  0  0  0  0  0  0
    2.6041   24.2460  -35.1057 H   0  0  0  0  0  0  0  0  0  0  0  0
    3.2677   24.9851  -36.6058 H   0  0  0  0  0  0  0  0  0  0  0  0
    3.1652   27.5009  -36.6166 H   0  0  0  0  0  0  0  0  0  0  0  0
    1.7743   26.7004  -37.4345 H   0  0  0  0  0  0  0  0  0  0  0  0
    1.6851   29.2684  -36.5942 H   0  0  0  0  0  0  0  0  0  0  0  0
    0.2361   28.1598  -36.5853 H   0  0  0  0  0  0  0  0  0  0  0  0
    1.4010   27.7090  -34.2190 H   0  0  0  0  0  0  0  0  0  0  0  0
   -0.5185   28.2023  -33.3475 H   0  0  0  0  0  0  0  0  0  0  0  0
   -0.6589   29.7180  -34.3678 H   0  0  0  0  0  0  0  0  0  0  0  0
   -2.0704   27.3547  -34.7667 H   0  0  0  0  0  0  0  0  0  0  0  0
   -1.8289   28.6745  -35.9611 H   0  0  0  0  0  0  0  0  0  0  0  0
   -0.7327   27.2514  -35.9611 H   0  0  0  0  0  0  0  0  0  0  0  0
    2.1255   30.3734  -35.0455 H   0  0  0  0  0  0  0  0  0  0  0  0
    1.1520   30.3159  -33.5130 H   0  0  0  0  0  0  0  0  0  0  0  0
    2.8499   29.4146  -32.3197 H   0  0  0  0  0  0  0  0  0  0  0  0
    3.3326   28.3098  -33.6513 H   0  0  0  0  0  0  0  0  0  0  0  0
    3.8948   30.0158  -33.6513 H   0  0  0  0  0  0  0  0  0  0  0  0
   -3.8933   23.1029  -32.5213 H   0  0  0  0  0  0  0  0  0  0  0  0
   -5.4108   24.6258  -31.2779 H   0  0  0  0  0  0  0  0  0  0  0  0
   -7.6813   23.8621  -30.6203 H   0  0  0  0  0  0  0  0  0  0  0  0
   -8.4724   21.5961  -31.2492 H   0  0  0  0  0  0  0  0  0  0  0  0
  1  2  1  0
  2  3  1  0
  3  4  2  0
  4  5  1  0
  5  6  2  0
  6  7  1  0
  7  8  2  0
  8  9  1  0
  9 10  2  0
 10 11  1  0
 11 12  1  0
 12 13  1  0
 13 14  1  0
 14 15  1  0
 15 16  1  0
 16 17  1  0
 17 18  1  0
 18 19  1  0
 19 20  1  0
 20 21  1  0
 21 22  1  0
 22 23  1  0
 23 24  1  0
 24 25  1  0
 23 26  1  0
 26 27  1  0
 10 28  1  0
 28 29  2  0
 29 30  1  0
 30 31  2  0
 31 32  1  0
 32 33  2  0
 33  3  1  0
  9  4  1  0
 33 28  1  0
  1 34  1  0
  1 35  1  0
  1 36  1  0
  2 37  1  0
  2 38  1  0
  5 39  1  0
  6 40  1  0
  7 41  1  0
  8 42  1  0
 11 43  1  0
 12 44  1  0
 12 45  1  0
 13 46  1  0
 13 47  1  0
 15 48  1  0
 15 49  1  0
 16 50  1  0
 16 51  1  0
 18 52  1  0
 18 53  1  0
 19 54  1  0
 19 55  1  0
 21 56  1  0
 21 57  1  0
 22 58  1  0
 22 59  1  0
 23 60  1  0
 24 61  1  0
 24 62  1  0
 25 63  1  0
 25 64  1  0
 25 65  1  0
 26 66  1  0
 26 67  1  0
 27 68  1  0
 27 69  1  0
 27 70  1  0
 29 71  1  0
 30 72  1  0
 31 73  1  0
 32 74  1  0
M  CHG  2   3   1  23   1
M  END
>  <UniqueID>  (9) 
9

>  <SMILES>  (9) 
CC[n+]1c2ccccc2c(NCCOCCOCCOCC[NH+](CC)CC)c2ccccc21

>  <Energy>  (9) 
103.19389701171065

>  <Genealogy>  (9) 
CC[n+]1c2ccccc2c(NCCOCCOCCOCC[NH+](CC)CC)c2ccccc21 (protonated)
CC[n+]1c2ccccc2c(NCCOCCOCCOCC[NH+](CC)CC)c2ccccc21 (3D coordinates assigned)
CC[n+]1c2ccccc2c(NCCOCCOCCOCC[NH+](CC)CC)c2ccccc21 (optimized conformer: 103.19389701171065 kcal/mol)

>  <smiles>  (9) 
CCN(CC)CCOCCOCCOCCNc1c2ccccc2[n+](CC)c2ccccc12

>  <score_type>  (9) 
oracle

>  <origin>  (9) 
adg

>  <m_score__min__energy>  (9) 
-9.4800000000000004

>  <m_primary>  (9) 
energy

$$$$
9:0
     RDKit          3D

 40 42  0  0  0  0  0  0  0  0999 V2000
   -7.5220   17.7410  -32.7950 C   0  0  0  0  0  0  0  0  0  0  0  0
   -8.6870   18.5360  -32.2020 C   0  0  0  0  0  0  0  0  0  0  0  0
   -9.0860   19.6700  -33.0680 N   0  0  0  0  0  0  0  0  0  0  0  0
   -9.8410   20.7180  -32.3530 C   0  0  0  0  0  0  0  0  0  0  0  0
   -8.9500   21.6140  -31.4790 C   0  0  0  0  0  0  0  0  0  0  0  0
   -8.1540   22.5240  -32.3020 N   0  0  0  0  0  0  0  0  0  0  0  0
   -6.7590   22.7740  -32.0500 C   0  0  0  0  0  0  0  0  0  0  0  0
   -6.3650   23.9490  -31.3990 C   0  0  0  0  0  0  0  0  0  0  0  0
   -5.0070   24.1930  -31.1880 C   0  0  0  0  0  0  0  0  0  0  0  0
   -4.6410   25.2490  -30.6090 O   0  0  0  0  0  0  0  0  0  0  0  0
   -4.0960   23.3180  -31.5960 O   0  0  0  0  0  0  0  0  0  0  0  0
   -4.4080   22.1800  -32.2150 C   0  0  0  0  0  0  0  0  0  0  0  0
   -5.7660   21.8610  -32.4660 C   0  0  0  0  0  0  0  0  0  0  0  0
   -6.0820   20.6390  -33.0890 C   0  0  0  0  0  0  0  0  0  0  0  0
   -5.0730   19.7590  -33.4780 C   0  0  0  0  0  0  0  0  0  0  0  0
   -3.7280   20.0740  -33.2500 C   0  0  0  0  0  0  0  0  0  0  0  0
   -2.7160   19.1850  -33.6450 C   0  0  0  0  0  0  0  0  0  0  0  0
   -1.3750   19.4980  -33.4120 C   0  0  0  0  0  0  0  0  0  0  0  0
   -1.0340   20.6970  -32.7830 C   0  0  0  0  0  0  0  0  0  0  0  0
   -2.0300   21.5900  -32.3830 C   0  0  0  0  0  0  0  0  0  0  0  0
   -3.3870   21.2930  -32.6120 C   0  0  0  0  0  0  0  0  0  0  0  0
   -6.9108   17.3239  -31.9811 H   0  0  0  0  0  0  0  0  0  0  0  0
   -7.9151   16.9219  -33.4151 H   0  0  0  0  0  0  0  0  0  0  0  0
   -6.9026   18.4056  -33.4151 H   0  0  0  0  0  0  0  0  0  0  0  0
   -9.5488   17.8636  -32.0786 H   0  0  0  0  0  0  0  0  0  0  0  0
   -8.3596   18.9468  -31.2355 H   0  0  0  0  0  0  0  0  0  0  0  0
   -9.7160   19.2980  -33.8170 H   0  0  0  0  0  0  0  0  0  0  0  0
   -8.2640   20.0900  -33.5610 H   0  0  0  0  0  0  0  0  0  0  0  0
  -10.3514   21.3495  -33.0951 H   0  0  0  0  0  0  0  0  0  0  0  0
  -10.5520   20.2109  -31.6842 H   0  0  0  0  0  0  0  0  0  0  0  0
   -9.5862   22.2039  -30.8028 H   0  0  0  0  0  0  0  0  0  0  0  0
   -8.2660   20.9732  -30.9033 H   0  0  0  0  0  0  0  0  0  0  0  0
   -8.6460   23.1010  -33.0200 H   0  0  0  0  0  0  0  0  0  0  0  0
   -7.1188   24.6734  -31.0569 H   0  0  0  0  0  0  0  0  0  0  0  0
   -7.1345   20.3760  -33.2706 H   0  0  0  0  0  0  0  0  0  0  0  0
   -5.3357   18.8098  -33.9679 H   0  0  0  0  0  0  0  0  0  0  0  0
   -2.9801   18.2387  -34.1397 H   0  0  0  0  0  0  0  0  0  0  0  0
   -0.5858   18.7984  -33.7247 H   0  0  0  0  0  0  0  0  0  0  0  0
    0.0236   20.9391  -32.6019 H   0  0  0  0  0  0  0  0  0  0  0  0
   -1.7527   22.5313  -31.8859 H   0  0  0  0  0  0  0  0  0  0  0  0
  1  2  1  0
  2  3  1  0
  3  4  1  0
  4  5  1  0
  5  6  1  0
  6  7  1  0
  7  8  2  0
  8  9  1  0
  9 10  2  0
  9 11  1  0
 11 12  1  0
 12 13  2  0
 13 14  1  0
 14 15  2  0
 15 16  1  0
 16 17  2  0
 17 18  1  0
 18 19  2  0
 19 20  1  0
 20 21  2  0
 13  7  1  0
 21 16  1  0
 21 12  1  0
  1 22  1  0
  1 23  1  0
  1 24  1  0
  2 25  1  0
  2 26  1  0
  3 27  1  0
  3 28  1  0
  4 29  1  0
  4 30  1  0
  5 31  1  0
  5 32  1  0
  6 33  1  0
  8 34  1  0
 14 35  1  0
 15 36  1  0
 17 37  1  0
 18 38  1  0
 19 39  1  0
 20 40  1  0
M  CHG  1   3   1
M  END
>  <UniqueID>  (10) 
10

>  <SMILES>  (10) 
CC[NH2+]CCNc1cc(=O)oc2c1ccc1ccccc12

>  <Energy>  (10) 
51.65880650751178

>  <Genealogy>  (10) 
CC[NH2+]CCNc1cc(=O)oc2c1ccc1ccccc12 (protonated)
CC[NH2+]CCNc1cc(=O)oc2c1ccc1ccccc12 (3D coordinates assigned)
CC[NH2+]CCNc1cc(=O)oc2c1ccc1ccccc12 (optimized conformer: 51.65880650751178 kcal/mol)

>  <smiles>  (10) 
CCNCCNc1cc(=O)oc2c1ccc1ccccc12

>  <score_type>  (10) 
oracle

>  <origin>  (10) 
adg

>  <m_score__min__energy>  (10) 
-7.3700000000000001

>  <m_primary>  (10) 
energy

$$$$
10:0
     RDKit          3D

 61 63  0  0  0  0  0  0  0  0999 V2000
   -3.3330   18.8230  -26.3100 C   0  0  0  0  0  0  0  0  0  0  0  0
   -2.0580   19.6600  -26.3970 C   0  0  0  0  0  0  0  0  0  0  0  0
   -1.6020   19.8220  -27.8620 C   0  0  0  0  0  0  0  0  0  0  0  0
   -1.7640   21.1920  -28.4010 N   0  0  0  0  0  0  0  0  0  0  0  0
   -3.1620   21.6880  -28.4360 C   0  0  0  0  0  0  0  0  0  0  0  0
   -3.3310   22.9940  -27.6590 C   0  0  0  0  0  0  0  0  0  0  0  0
   -1.0780   21.3760  -29.6990 C   0  0  0  0  0  0  0  0  0  0  0  0
   -1.9570   22.2060  -30.6340 C   0  0  0  0  0  0  0  0  0  0  0  0
   -1.6420   21.9060  -32.0370 N   0  0  0  0  0  0  0  0  0  0  0  0
   -2.0410   20.5300  -32.3690 C   0  0  0  0  0  0  0  0  0  0  0  0
   -3.2330   20.4890  -33.3450 C   0  0  0  0  0  0  0  0  0  0  0  0
   -4.0620   21.7170  -33.3760 N   0  0  0  0  0  0  0  0  0  0  0  0
   -5.2820   21.6580  -32.5750 C   0  0  0  0  0  0  0  0  0  0  0  0
   -5.5990   22.6890  -31.6520 C   0  0  0  0  0  0  0  0  0  0  0  0
   -4.6170   23.5910  -31.1880 C   0  0  0  0  0  0  0  0  0  0  0  0
   -4.9460   24.6270  -30.3170 C   0  0  0  0  0  0  0  0  0  0  0  0
   -6.2510   24.7650  -29.8620 C   0  0  0  0  0  0  0  0  0  0  0  0
   -7.2310   23.8590  -30.2630 C   0  0  0  0  0  0  0  0  0  0  0  0
   -6.9300   22.8030  -31.1640 C   0  0  0  0  0  0  0  0  0  0  0  0
   -7.8870   21.8850  -31.5450 N   0  0  0  0  0  0  0  0  0  0  0  0
   -9.3190   22.1570  -31.2940 C   0  0  0  0  0  0  0  0  0  0  0  0
   -7.4960   20.6930  -32.1230 C   0  0  0  0  0  0  0  0  0  0  0  0
   -8.3640   19.5730  -32.1540 C   0  0  0  0  0  0  0  0  0  0  0  0
   -7.9630   18.3630  -32.7100 C   0  0  0  0  0  0  0  0  0  0  0  0
   -6.6880   18.2280  -33.2400 C   0  0  0  0  0  0  0  0  0  0  0  0
   -6.1770   16.6860  -33.9020 Cl  0  0  0  0  0  0  0  0  0  0  0  0
   -5.8020   19.3060  -33.2140 C   0  0  0  0  0  0  0  0  0  0  0  0
   -6.1840   20.5570  -32.6630 C   0  0  0  0  0  0  0  0  0  0  0  0
   -3.5896   18.6545  -25.2537 H   0  0  0  0  0  0  0  0  0  0  0  0
   -4.1566   19.3567  -26.8068 H   0  0  0  0  0  0  0  0  0  0  0  0
   -3.1708   17.8551  -26.8068 H   0  0  0  0  0  0  0  0  0  0  0  0
   -2.2505   20.6545  -25.9681 H   0  0  0  0  0  0  0  0  0  0  0  0
   -1.2626   19.1463  -25.8371 H   0  0  0  0  0  0  0  0  0  0  0  0
   -0.5378   19.5507  -27.9239 H   0  0  0  0  0  0  0  0  0  0  0  0
   -2.2453   19.1664  -28.4673 H   0  0  0  0  0  0  0  0  0  0  0  0
   -3.4511   21.8590  -29.4835 H   0  0  0  0  0  0  0  0  0  0  0  0
   -3.8018   20.9284  -27.9631 H   0  0  0  0  0  0  0  0  0  0  0  0
   -3.3039   22.7845  -26.5795 H   0  0  0  0  0  0  0  0  0  0  0  0
   -2.5146   23.6838  -27.9193 H   0  0  0  0  0  0  0  0  0  0  0  0
   -4.2961   23.4533  -27.9193 H   0  0  0  0  0  0  0  0  0  0  0  0
   -0.1229   21.8970  -29.5370 H   0  0  0  0  0  0  0  0  0  0  0  0
   -0.8901   20.3923  -30.1540 H   0  0  0  0  0  0  0  0  0  0  0  0
   -3.0140   21.9698  -30.4418 H   0  0  0  0  0  0  0  0  0  0  0  0
   -1.7670   23.2732  -30.4470 H   0  0  0  0  0  0  0  0  0  0  0  0
   -0.6030   21.9910  -32.1560 H   0  0  0  0  0  0  0  0  0  0  0  0
   -1.1862   20.0152  -32.8320 H   0  0  0  0  0  0  0  0  0  0  0  0
   -2.3503   20.0339  -31.4372 H   0  0  0  0  0  0  0  0  0  0  0  0
   -2.8387   20.3183  -34.3576 H   0  0  0  0  0  0  0  0  0  0  0  0
   -3.8922   19.6830  -32.9902 H   0  0  0  0  0  0  0  0  0  0  0  0
   -4.3200   21.9330  -34.3690 H   0  0  0  0  0  0  0  0  0  0  0  0
   -3.4260   22.4830  -33.0770 H   0  0  0  0  0  0  0  0  0  0  0  0
   -3.5748   23.4737  -31.5198 H   0  0  0  0  0  0  0  0  0  0  0  0
   -4.1718   25.3363  -29.9893 H   0  0  0  0  0  0  0  0  0  0  0  0
   -6.5115   25.5910  -29.1838 H   0  0  0  0  0  0  0  0  0  0  0  0
   -8.2551   23.9634  -29.8752 H   0  0  0  0  0  0  0  0  0  0  0  0
   -9.5011   22.1916  -30.2097 H   0  0  0  0  0  0  0  0  0  0  0  0
   -9.5929   23.1232  -31.7428 H   0  0  0  0  0  0  0  0  0  0  0  0
   -9.9281   21.3585  -31.7428 H   0  0  0  0  0  0  0  0  0  0  0  0
   -9.3750   19.6626  -31.7298 H   0  0  0  0  0  0  0  0  0  0  0  0
   -8.6584   17.5109  -32.7296 H   0  0  0  0  0  0  0  0  0  0  0  0
   -4.7901   19.1840  -33.6277 H   0  0  0  0  0  0  0  0  0  0  0  0
  1  2  1  0
  2  3  1  0
  3  4  1  0
  4  5  1  0
  5  6  1  0
  4  7  1  0
  7  8  1  0
  8  9  1  0
  9 10  1  0
 10 11  1  0
 11 12  1  0
 12 13  1  0
 13 14  2  0
 14 15  1  0
 15 16  2  0
 16 17  1  0
 17 18  2  0
 18 19  1  0
 19 20  2  0
 20 21  1  0
 20 22  1  0
 22 23  2  0
 23 24  1  0
 24 25  2  0
 25 26  1  0
 25 27  1  0
 27 28  2  0
 28 13  1  0
 19 14  1  0
 28 22  1  0
  1 29  1  0
  1 30  1  0
  1 31  1  0
  2 32  1  0
  2 33  1  0
  3 34  1  0
  3 35  1  0
  5 36  1  0
  5 37  1  0
  6 38  1  0
  6 39  1  0
  6 40  1  0
  7 41  1  0
  7 42  1  0
  8 43  1  0
  8 44  1  0
  9 45  1  0
 10 46  1  0
 10 47  1  0
 11 48  1  0
 11 49  1  0
 12 50  1  0
 12 51  1  0
 15 52  1  0
 16 53  1  0
 17 54  1  0
 18 55  1  0
 21 56  1  0
 21 57  1  0
 21 58  1  0
 23 59  1  0
 24 60  1  0
 27 61  1  0
M  CHG  2  12   1  20   1
M  END
>  <UniqueID>  (11) 
11

>  <SMILES>  (11) 
CCCN(CC)CCNCC[NH2+]c1c2ccccc2[n+](C)c2ccc(Cl)cc12

>  <Energy>  (11) 
89.25347960955041

>  <Genealogy>  (11) 
CCCN(CC)CCNCC[NH2+]c1c2ccccc2[n+](C)c2ccc(Cl)cc12 (protonated)
CCCN(CC)CCNCC[NH2+]c1c2ccccc2[n+](C)c2ccc(Cl)cc12 (3D coordinates assigned)
CCCN(CC)CCNCC[NH2+]c1c2ccccc2[n+](C)c2ccc(Cl)cc12 (optimized conformer: 89.25347960955041 kcal/mol)

>  <smiles>  (11) 
CCCN(CC)CCNCCNc1c2ccccc2[n+](C)c2ccc(Cl)cc12

>  <score_type>  (11) 
oracle

>  <origin>  (11) 
adg

>  <m_score__min__energy>  (11) 
-8.1699999999999999

>  <m_primary>  (11) 
energy

$$$$
11:0
     RDKit          3D

 49 51  0  0  0  0  0  0  0  0999 V2000
    0.3600   23.7010  -26.8050 C   0  0  0  0  0  0  0  0  0  0  0  0
    0.0720   24.8890  -27.6260 N   0  0  0  0  0  0  0  0  0  0  0  0
   -0.7540   25.8750  -26.9020 C   0  0  0  0  0  0  0  0  0  0  0  0
   -2.2110   25.3980  -26.7000 C   0  0  0  0  0  0  0  0  0  0  0  0
   -2.5830   24.3150  -27.6390 N   0  0  0  0  0  0  0  0  0  0  0  0
   -4.0460   24.1280  -27.6890 C   0  0  0  0  0  0  0  0  0  0  0  0
   -4.4760   23.7290  -29.0770 C   0  0  0  0  0  0  0  0  0  0  0  0
   -5.2580   24.5210  -29.8980 C   0  0  0  0  0  0  0  0  0  0  0  0
   -5.3460   23.8660  -31.1070 C   0  0  0  0  0  0  0  0  0  0  0  0
   -4.6220   22.6960  -30.9770 C   0  0  0  0  0  0  0  0  0  0  0  0
   -4.3780   21.7270  -32.1040 C   0  0  0  0  0  0  0  0  0  0  0  0
   -5.4890   21.7650  -33.0660 N   0  0  0  0  0  0  0  0  0  0  0  0
   -6.5060   20.8190  -32.6800 C   0  0  0  0  0  0  0  0  0  0  0  0
   -7.6660   21.2530  -32.0140 C   0  0  0  0  0  0  0  0  0  0  0  0
   -8.6660   20.3390  -31.6670 C   0  0  0  0  0  0  0  0  0  0  0  0
   -8.5210   18.9860  -31.9900 C   0  0  0  0  0  0  0  0  0  0  0  0
   -9.4920   18.1020  -31.6550 F   0  0  0  0  0  0  0  0  0  0  0  0
   -7.3780   18.5480  -32.6640 C   0  0  0  0  0  0  0  0  0  0  0  0
   -6.3760   19.4580  -33.0140 C   0  0  0  0  0  0  0  0  0  0  0  0
   -4.0890   22.6110  -29.7340 N   0  0  0  0  0  0  0  0  0  0  0  0
   -3.1920   21.5720  -29.2200 C   0  0  0  0  0  0  0  0  0  0  0  0
   -2.0430   24.5920  -28.9790 C   0  0  0  0  0  0  0  0  0  0  0  0
   -0.5020   24.5370  -28.9470 C   0  0  0  0  0  0  0  0  0  0  0  0
    0.2955   23.9671  -25.7396 H   0  0  0  0  0  0  0  0  0  0  0  0
   -0.3730   22.9126  -27.0310 H   0  0  0  0  0  0  0  0  0  0  0  0
    1.3727   23.3358  -27.0310 H   0  0  0  0  0  0  0  0  0  0  0  0
   -0.3027   26.0556  -25.9153 H   0  0  0  0  0  0  0  0  0  0  0  0
   -0.7853   26.7921  -27.5085 H   0  0  0  0  0  0  0  0  0  0  0  0
   -2.3223   25.0272  -25.6704 H   0  0  0  0  0  0  0  0  0  0  0  0
   -2.8750   26.2535  -26.8929 H   0  0  0  0  0  0  0  0  0  0  0  0
   -4.3353   23.3393  -26.9789 H   0  0  0  0  0  0  0  0  0  0  0  0
   -4.5368   25.0753  -27.4212 H   0  0  0  0  0  0  0  0  0  0  0  0
   -5.7193   25.4849  -29.6369 H   0  0  0  0  0  0  0  0  0  0  0  0
   -5.8872   24.2078  -32.0016 H   0  0  0  0  0  0  0  0  0  0  0  0
   -3.4443   21.9980  -32.6186 H   0  0  0  0  0  0  0  0  0  0  0  0
   -4.3015   20.7111  -31.6891 H   0  0  0  0  0  0  0  0  0  0  0  0
   -5.8950   22.7300  -33.0950 H   0  0  0  0  0  0  0  0  0  0  0  0
   -5.1420   21.5340  -34.0260 H   0  0  0  0  0  0  0  0  0  0  0  0
   -7.7875   22.3174  -31.7646 H   0  0  0  0  0  0  0  0  0  0  0  0
   -9.5673   20.6845  -31.1396 H   0  0  0  0  0  0  0  0  0  0  0  0
   -7.2663   17.4840  -32.9200 H   0  0  0  0  0  0  0  0  0  0  0  0
   -5.4826   19.1089  -33.5525 H   0  0  0  0  0  0  0  0  0  0  0  0
   -3.2053   21.5874  -28.1202 H   0  0  0  0  0  0  0  0  0  0  0  0
   -3.5286   20.5875  -29.5770 H   0  0  0  0  0  0  0  0  0  0  0  0
   -2.1689   21.7614  -29.5770 H   0  0  0  0  0  0  0  0  0  0  0  0
   -2.4200   23.8390  -29.6867 H   0  0  0  0  0  0  0  0  0  0  0  0
   -2.3625   25.5953  -29.2974 H   0  0  0  0  0  0  0  0  0  0  0  0
   -0.1840   23.5159  -29.2046 H   0  0  0  0  0  0  0  0  0  0  0  0
   -0.1352   25.2811  -29.6694 H   0  0  0  0  0  0  0  0  0  0  0  0
  1  2  1  0
  2  3  1  0
  3  4  1  0
  4  5  1  0
  5  6  1  0
  6  7  1  0
  7  8  2  0
  8  9  1  0
  9 10  2  0
 10 11  1  0
 11 12  1  0
 12 13  1  0
 13 14  2  0
 14 15  1  0
 15 16  2  0
 16 17  1  0
 16 18  1  0
 18 19  2  0
 10 20  1  0
 20 21  1  0
  5 22  1  0
 22 23  1  0
 23  2  1  0
 20  7  1  0
 19 13  1  0
  1 24  1  0
  1 25  1  0
  1 26  1  0
  3 27  1  0
  3 28  1  0
  4 29  1  0
  4 30  1  0
  6 31  1  0
  6 32  1  0
  8 33  1  0
  9 34  1  0
 11 35  1  0
 11 36  1  0
 12 37  1  0
 12 38  1  0
 14 39  1  0
 15 40  1  0
 18 41  1  0
 19 42  1  0
 21 43  1  0
 21 44  1  0
 21 45  1  0
 22 46  1  0
 22 47  1  0
 23 48  1  0
 23 49  1  0
M  CHG  1  12   1
M  END
>  <UniqueID>  (12) 
12

>  <SMILES>  (12) 
CN1CCN(Cc2ccc(C[NH2+]c3ccc(F)cc3)n2C)CC1

>  <Energy>  (12) 
85.38526633329535

>  <Genealogy>  (12) 
CN1CCN(Cc2ccc(C[NH2+]c3ccc(F)cc3)n2C)CC1 (protonated)
CN1CCN(Cc2ccc(C[NH2+]c3ccc(F)cc3)n2C)CC1 (3D coordinates assigned)
CN1CCN(Cc2ccc(C[NH2+]c3ccc(F)cc3)n2C)CC1 (nonaromatic ring conformer: 85.38526633329535 kcal/mol)

>  <smiles>  (12) 
CN1CCN(Cc2ccc(CNc3ccc(F)cc3)n2C)CC1

>  <score_type>  (12) 
oracle

>  <origin>  (12) 
adg

>  <m_score__min__energy>  (12) 
-7.2599999999999998

>  <m_primary>  (12) 
energy

$$$$
12:0
     RDKit          3D

 28 29  0  0  0  0  0  0  0  0999 V2000
   -3.4340   22.2410  -31.8210 C   0  0  0  0  0  0  0  0  0  0  0  0
   -4.6010   23.0240  -31.6890 O   0  0  0  0  0  0  0  0  0  0  0  0
   -5.4520   22.7220  -32.7180 N   0  0  0  0  0  0  0  0  0  0  0  0
   -6.5640   21.9790  -32.1610 C   0  0  0  0  0  0  0  0  0  0  0  0
   -6.7390   20.6020  -32.4860 C   0  0  0  0  0  0  0  0  0  0  0  0
   -5.8080   19.8790  -33.2670 C   0  0  0  0  0  0  0  0  0  0  0  0
   -6.0310   18.5340  -33.5770 C   0  0  0  0  0  0  0  0  0  0  0  0
   -7.1740   17.8860  -33.1120 C   0  0  0  0  0  0  0  0  0  0  0  0
   -8.0950   18.5730  -32.3230 C   0  0  0  0  0  0  0  0  0  0  0  0
   -7.8810   19.9220  -31.9980 C   0  0  0  0  0  0  0  0  0  0  0  0
   -8.7890   20.5940  -31.1860 C   0  0  0  0  0  0  0  0  0  0  0  0
   -8.5490   21.9160  -30.8290 C   0  0  0  0  0  0  0  0  0  0  0  0
   -7.4440   22.5820  -31.2800 N   0  0  0  0  0  0  0  0  0  0  0  0
   -7.2430   23.9630  -30.8140 C   0  0  0  0  0  0  0  0  0  0  0  0
   -3.0503   21.9836  -30.8227 H   0  0  0  0  0  0  0  0  0  0  0  0
   -3.6715   21.3188  -32.3716 H   0  0  0  0  0  0  0  0  0  0  0  0
   -2.6707   22.8104  -32.3716 H   0  0  0  0  0  0  0  0  0  0  0  0
   -4.9780   22.1470  -33.4540 H   0  0  0  0  0  0  0  0  0  0  0  0
   -5.7780   23.5940  -33.1920 H   0  0  0  0  0  0  0  0  0  0  0  0
   -4.8998   20.3794  -33.6341 H   0  0  0  0  0  0  0  0  0  0  0  0
   -5.3014   17.9850  -34.1904 H   0  0  0  0  0  0  0  0  0  0  0  0
   -7.3495   16.8307  -33.3681 H   0  0  0  0  0  0  0  0  0  0  0  0
   -8.9930   18.0563  -31.9535 H   0  0  0  0  0  0  0  0  0  0  0  0
   -9.6937   20.0811  -30.8277 H   0  0  0  0  0  0  0  0  0  0  0  0
   -9.2615   22.4355  -30.1715 H   0  0  0  0  0  0  0  0  0  0  0  0
   -7.2402   23.9821  -29.7142 H   0  0  0  0  0  0  0  0  0  0  0  0
   -6.2805   24.3403  -31.1897 H   0  0  0  0  0  0  0  0  0  0  0  0
   -8.0580   24.5990  -31.1897 H   0  0  0  0  0  0  0  0  0  0  0  0
  1  2  1  0
  2  3  1  0
  3  4  1  0
  4  5  2  0
  5  6  1  0
  6  7  2  0
  7  8  1  0
  8  9  2  0
  9 10  1  0
 10 11  2  0
 11 12  1  0
 12 13  2  0
 13 14  1  0
 13  4  1  0
 10  5  1  0
  1 15  1  0
  1 16  1  0
  1 17  1  0
  3 18  1  0
  3 19  1  0
  6 20  1  0
  7 21  1  0
  8 22  1  0
  9 23  1  0
 11 24  1  0
 12 25  1  0
 14 26  1  0
 14 27  1  0
 14 28  1  0
M  CHG  2   3   1  13   1
M  END
>  <UniqueID>  (13) 
13

>  <SMILES>  (13) 
CO[NH2+]c1c2ccccc2cc[n+]1C

>  <Energy>  (13) 
41.13396850242872

>  <Genealogy>  (13) 
CO[NH2+]c1c2ccccc2cc[n+]1C (protonated)
CO[NH2+]c1c2ccccc2cc[n+]1C (3D coordinates assigned)
CO[NH2+]c1c2ccccc2cc[n+]1C (optimized conformer: 41.13396850242872 kcal/mol)

>  <smiles>  (13) 
CONc1c2ccccc2cc[n+]1C

>  <score_type>  (13) 
oracle

>  <origin>  (13) 
adg

>  <m_score__min__energy>  (13) 
-5.4400000000000004

>  <m_primary>  (13) 
energy

$$$$
13:0
     RDKit          3D

 53 57  0  0  0  0  0  0  0  0999 V2000
   -9.8490   21.2290  -31.9210 C   0  0  0  0  0  0  0  0  0  0  0  0
   -9.4650   19.8230  -32.3650 C   0  0  0  0  0  0  0  0  0  0  0  0
   -8.2690   19.3760  -31.6390 N   0  0  0  0  0  0  0  0  0  0  0  0
   -7.9940   17.9520  -31.8820 C   0  0  0  0  0  0  0  0  0  0  0  0
   -7.1760   17.7780  -33.1660 C   0  0  0  0  0  0  0  0  0  0  0  0
   -6.6790   19.0670  -33.6490 N   0  0  0  0  0  0  0  0  0  0  0  0
   -5.3030   19.4490  -33.4910 C   0  0  0  0  0  0  0  0  0  0  0  0
   -4.9690   20.6390  -32.8170 C   0  0  0  0  0  0  0  0  0  0  0  0
   -3.6200   20.8920  -32.4990 C   0  0  0  0  0  0  0  0  0  0  0  0
   -2.6270   20.1930  -33.1590 N   0  0  0  0  0  0  0  0  0  0  0  0
   -1.2900   20.7930  -33.3450 C   0  0  0  0  0  0  0  0  0  0  0  0
   -2.9260   19.0040  -33.7940 C   0  0  0  0  0  0  0  0  0  0  0  0
   -1.9070   18.1510  -34.2870 C   0  0  0  0  0  0  0  0  0  0  0  0
   -2.2240   16.9620  -34.9450 C   0  0  0  0  0  0  0  0  0  0  0  0
   -3.5530   16.5980  -35.1310 C   0  0  0  0  0  0  0  0  0  0  0  0
   -4.5750   17.4130  -34.6500 C   0  0  0  0  0  0  0  0  0  0  0  0
   -4.2790   18.6100  -33.9630 C   0  0  0  0  0  0  0  0  0  0  0  0
   -3.3280   21.9330  -31.4500 C   0  0  0  0  0  0  0  0  0  0  0  0
   -2.1530   21.8880  -30.6730 C   0  0  0  0  0  0  0  0  0  0  0  0
   -1.8550   22.9010  -29.7610 C   0  0  0  0  0  0  0  0  0  0  0  0
   -2.7460   23.9520  -29.5620 C   0  0  0  0  0  0  0  0  0  0  0  0
   -3.9810   23.9570  -30.2220 C   0  0  0  0  0  0  0  0  0  0  0  0
   -4.9210   24.9630  -29.9540 C   0  0  0  0  0  0  0  0  0  0  0  0
   -6.1810   24.9190  -30.5470 C   0  0  0  0  0  0  0  0  0  0  0  0
   -6.5250   23.8630  -31.3910 C   0  0  0  0  0  0  0  0  0  0  0  0
   -5.5950   22.8490  -31.6800 C   0  0  0  0  0  0  0  0  0  0  0  0
   -4.2960   22.9180  -31.1360 C   0  0  0  0  0  0  0  0  0  0  0  0
   -5.9850   21.6760  -32.4900 C   0  0  0  0  0  0  0  0  0  0  0  0
   -7.1600   21.5930  -32.9370 O   0  0  0  0  0  0  0  0  0  0  0  0
   -9.8618   21.2758  -30.8221 H   0  0  0  0  0  0  0  0  0  0  0  0
   -9.1148   21.9498  -32.3102 H   0  0  0  0  0  0  0  0  0  0  0  0
  -10.8476   21.4765  -32.3102 H   0  0  0  0  0  0  0  0  0  0  0  0
  -10.2970   19.1347  -32.1551 H   0  0  0  0  0  0  0  0  0  0  0  0
   -9.2505   19.8310  -33.4439 H   0  0  0  0  0  0  0  0  0  0  0  0
   -7.4550   19.9230  -32.0070 H   0  0  0  0  0  0  0  0  0  0  0  0
   -7.4275   17.5421  -31.0329 H   0  0  0  0  0  0  0  0  0  0  0  0
   -8.9492   17.4176  -31.9920 H   0  0  0  0  0  0  0  0  0  0  0  0
   -6.3213   17.1165  -32.9613 H   0  0  0  0  0  0  0  0  0  0  0  0
   -7.8250   17.3404  -33.9388 H   0  0  0  0  0  0  0  0  0  0  0  0
   -7.2960   19.6590  -34.2490 H   0  0  0  0  0  0  0  0  0  0  0  0
   -0.8390   20.9954  -32.3623 H   0  0  0  0  0  0  0  0  0  0  0  0
   -0.6500   20.0958  -33.9056 H   0  0  0  0  0  0  0  0  0  0  0  0
   -1.3854   21.7346  -33.9056 H   0  0  0  0  0  0  0  0  0  0  0  0
   -0.8520   18.4301  -34.1490 H   0  0  0  0  0  0  0  0  0  0  0  0
   -1.4199   16.3105  -35.3178 H   0  0  0  0  0  0  0  0  0  0  0  0
   -3.7978   15.6646  -35.6590 H   0  0  0  0  0  0  0  0  0  0  0  0
   -5.6238   17.1208  -34.8072 H   0  0  0  0  0  0  0  0  0  0  0  0
   -1.4602   21.0412  -30.7873 H   0  0  0  0  0  0  0  0  0  0  0  0
   -0.9114   22.8690  -29.1965 H   0  0  0  0  0  0  0  0  0  0  0  0
   -2.4799   24.7783  -28.8864 H   0  0  0  0  0  0  0  0  0  0  0  0
   -4.6628   25.7884  -29.2742 H   0  0  0  0  0  0  0  0  0  0  0  0
   -6.9078   25.7206  -30.3487 H   0  0  0  0  0  0  0  0  0  0  0  0
   -7.5312   23.8233  -31.8337 H   0  0  0  0  0  0  0  0  0  0  0  0
  1  2  1  0
  2  3  1  0
  3  4  1  0
  4  5  1  0
  5  6  1  0
  6  7  1  0
  7  8  2  0
  8  9  1  0
  9 10  2  0
 10 11  1  0
 10 12  1  0
 12 13  2  0
 13 14  1  0
 14 15  2  0
 15 16  1  0
 16 17  2  0
  9 18  1  0
 18 19  2  0
 19 20  1  0
 20 21  2  0
 21 22  1  0
 22 23  2  0
 23 24  1  0
 24 25  2  0
 25 26  1  0
 26 27  2  0
 26 28  1  0
 28 29  2  0
 17  7  1  0
 27 18  1  0
 28  8  1  0
 17 12  1  0
 27 22  1  0
  1 30  1  0
  1 31  1  0
  1 32  1  0
  2 33  1  0
  2 34  1  0
  3 35  1  0
  4 36  1  0
  4 37  1  0
  5 38  1  0
  5 39  1  0
  6 40  1  0
 11 41  1  0
 11 42  1  0
 11 43  1  0
 13 44  1  0
 14 45  1  0
 15 46  1  0
 16 47  1  0
 19 48  1  0
 20 49  1  0
 21 50  1  0
 23 51  1  0
 24 52  1  0
 25 53  1  0
M  CHG  1  10   1
M  END
>  <UniqueID>  (14) 
14

>  <SMILES>  (14) 
CCNCCNc1c2c([n+](C)c3ccccc13)-c1cccc3cccc(c13)C2=O

>  <Energy>  (14) 
94.75044944306808

>  <Genealogy>  (14) 
CCNCCNc1c2c([n+](C)c3ccccc13)-c1cccc3cccc(c13)C2=O (3D coordinates assigned)
CCNCCNc1c2c([n+](C)c3ccccc13)-c1cccc3cccc(c13)C2=O (nonaromatic ring conformer: 94.75044944306808 kcal/mol)

>  <smiles>  (14) 
CCNCCNc1c2c([n+](C)c3ccccc13)-c1cccc3cccc(c13)C2=O

>  <score_type>  (14) 
oracle

>  <origin>  (14) 
adg

>  <m_score__min__energy>  (14) 
-9.8300000000000001

>  <m_primary>  (14) 
energy

$$$$
14:0
     RDKit          3D

 80 84  0  0  0  0  0  0  0  0999 V2000
    3.5730   19.1480  -32.6410 C   0  0  0  0  0  0  0  0  0  0  0  0
    2.6450   18.4410  -33.6370 C   0  0  0  0  0  0  0  0  0  0  0  0
    1.5030   17.6910  -33.0390 N   0  0  0  0  0  0  0  0  0  0  0  0
    0.5640   18.4950  -32.2070 C   0  0  0  0  0  0  0  0  0  0  0  0
   -0.0040   17.7870  -30.9710 C   0  0  0  0  0  0  0  0  0  0  0  0
    0.8760   16.6620  -33.9170 C   0  0  0  0  0  0  0  0  0  0  0  0
    0.3840   17.1670  -35.2910 C   0  0  0  0  0  0  0  0  0  0  0  0
   -1.1430   17.3100  -35.3020 C   0  0  0  0  0  0  0  0  0  0  0  0
   -1.7160   16.8660  -34.0310 N   0  0  0  0  0  0  0  0  0  0  0  0
   -3.1010   17.0890  -33.7320 C   0  0  0  0  0  0  0  0  0  0  0  0
   -3.5350   18.3230  -33.2580 C   0  0  0  0  0  0  0  0  0  0  0  0
   -4.8740   18.5660  -33.0370 C   0  0  0  0  0  0  0  0  0  0  0  0
   -5.8450   17.6540  -33.3730 N   0  0  0  0  0  0  0  0  0  0  0  0
   -7.2540   18.0700  -33.4630 C   0  0  0  0  0  0  0  0  0  0  0  0
   -5.4510   16.3680  -33.7060 C   0  0  0  0  0  0  0  0  0  0  0  0
   -6.3840   15.3110  -33.8290 C   0  0  0  0  0  0  0  0  0  0  0  0
   -5.9750   14.0290  -34.2050 C   0  0  0  0  0  0  0  0  0  0  0  0
   -7.1550   12.7400  -34.3510 Cl  0  0  0  0  0  0  0  0  0  0  0  0
   -4.6290   13.7670  -34.4530 C   0  0  0  0  0  0  0  0  0  0  0  0
   -3.6780   14.7760  -34.3050 C   0  0  0  0  0  0  0  0  0  0  0  0
   -4.0660   16.0750  -33.9220 C   0  0  0  0  0  0  0  0  0  0  0  0
   -4.9720   19.9460  -32.5500 C   0  0  0  0  0  0  0  0  0  0  0  0
   -6.0570   20.6230  -31.9800 C   0  0  0  0  0  0  0  0  0  0  0  0
   -5.8780   21.9470  -31.5190 C   0  0  0  0  0  0  0  0  0  0  0  0
   -4.5940   22.5290  -31.6130 C   0  0  0  0  0  0  0  0  0  0  0  0
   -3.5270   21.7880  -32.1380 C   0  0  0  0  0  0  0  0  0  0  0  0
   -2.3710   22.2890  -32.1960 O   0  0  0  0  0  0  0  0  0  0  0  0
   -3.7480   20.5180  -32.5700 N   0  0  0  0  0  0  0  0  0  0  0  0
   -2.7320   19.5660  -33.0130 C   0  0  0  0  0  0  0  0  0  0  0  0
   -4.3690   23.8360  -31.1850 O   0  0  0  0  0  0  0  0  0  0  0  0
   -5.2090   24.5120  -30.2550 C   0  0  0  0  0  0  0  0  0  0  0  0
   -5.0000   26.0210  -30.4570 C   0  0  0  0  0  0  0  0  0  0  0  0
   -4.7920   24.1200  -28.8310 C   0  0  0  0  0  0  0  0  0  0  0  0
   -6.6640   24.1350  -30.4750 C   0  0  0  0  0  0  0  0  0  0  0  0
   -7.5380   24.9190  -30.1280 O   0  0  0  0  0  0  0  0  0  0  0  0
   -7.0750   22.7640  -31.0150 C   0  0  2  0  0  0  0  0  0  0  0  0
   -7.7590   22.0050  -29.8540 C   0  0  0  0  0  0  0  0  0  0  0  0
   -8.1000   22.9540  -32.1730 C   0  0  0  0  0  0  0  0  0  0  0  0
   -9.4070   22.1770  -31.9720 C   0  0  0  0  0  0  0  0  0  0  0  0
    3.2592   18.9089  -31.6142 H   0  0  0  0  0  0  0  0  0  0  0  0
    4.6069   18.8066  -32.7973 H   0  0  0  0  0  0  0  0  0  0  0  0
    3.5184   20.2355  -32.7973 H   0  0  0  0  0  0  0  0  0  0  0  0
    2.2311   19.2038  -34.3128 H   0  0  0  0  0  0  0  0  0  0  0  0
    3.2667   17.6868  -34.1416 H   0  0  0  0  0  0  0  0  0  0  0  0
    1.9840   17.1000  -32.3170 H   0  0  0  0  0  0  0  0  0  0  0  0
    1.0996   19.3931  -31.8655 H   0  0  0  0  0  0  0  0  0  0  0  0
   -0.3002   18.7089  -32.8530 H   0  0  0  0  0  0  0  0  0  0  0  0
    0.3833   18.2697  -30.0616 H   0  0  0  0  0  0  0  0  0  0  0  0
   -1.1019   17.8537  -30.9824 H   0  0  0  0  0  0  0  0  0  0  0  0
    0.2992   16.7297  -30.9824 H   0  0  0  0  0  0  0  0  0  0  0  0
    1.6186   15.8700  -34.0937 H   0  0  0  0  0  0  0  0  0  0  0  0
   -0.0225   16.3184  -33.3835 H   0  0  0  0  0  0  0  0  0  0  0  0
    0.8397   18.1461  -35.5000 H   0  0  0  0  0  0  0  0  0  0  0  0
    0.6760   16.4375  -36.0608 H   0  0  0  0  0  0  0  0  0  0  0  0
   -1.4051   18.3656  -35.4665 H   0  0  0  0  0  0  0  0  0  0  0  0
   -1.5498   16.6839  -36.1098 H   0  0  0  0  0  0  0  0  0  0  0  0
   -1.0830   16.6210  -33.2360 H   0  0  0  0  0  0  0  0  0  0  0  0
   -7.6658   18.1916  -32.4503 H   0  0  0  0  0  0  0  0  0  0  0  0
   -7.3203   19.0260  -34.0030 H   0  0  0  0  0  0  0  0  0  0  0  0
   -7.8289   17.3033  -34.0030 H   0  0  0  0  0  0  0  0  0  0  0  0
   -7.4480   15.5018  -33.6254 H   0  0  0  0  0  0  0  0  0  0  0  0
   -4.3155   12.7604  -34.7667 H   0  0  0  0  0  0  0  0  0  0  0  0
   -2.6160   14.5559  -34.4888 H   0  0  0  0  0  0  0  0  0  0  0  0
   -7.0366   20.1305  -31.8921 H   0  0  0  0  0  0  0  0  0  0  0  0
   -2.2406   19.9098  -33.9351 H   0  0  0  0  0  0  0  0  0  0  0  0
   -1.9174   19.4253  -32.2873 H   0  0  0  0  0  0  0  0  0  0  0  0
   -4.9314   26.5161  -29.4771 H   0  0  0  0  0  0  0  0  0  0  0  0
   -4.0698   26.1903  -31.0192 H   0  0  0  0  0  0  0  0  0  0  0  0
   -5.8491   26.4368  -31.0192 H   0  0  0  0  0  0  0  0  0  0  0  0
   -5.3935   24.6854  -28.1040 H   0  0  0  0  0  0  0  0  0  0  0  0
   -4.9570   23.0424  -28.6842 H   0  0  0  0  0  0  0  0  0  0  0  0
   -3.7266   24.3512  -28.6842 H   0  0  0  0  0  0  0  0  0  0  0  0
   -7.4000   22.4034  -28.8936 H   0  0  0  0  0  0  0  0  0  0  0  0
   -8.8490   22.1371  -29.9213 H   0  0  0  0  0  0  0  0  0  0  0  0
   -7.5146   20.9346  -29.9213 H   0  0  0  0  0  0  0  0  0  0  0  0
   -8.3408   24.0244  -32.2517 H   0  0  0  0  0  0  0  0  0  0  0  0
   -7.6297   22.5617  -33.0867 H   0  0  0  0  0  0  0  0  0  0  0  0
   -9.6026   22.0607  -30.8958 H   0  0  0  0  0  0  0  0  0  0  0  0
  -10.2368   22.7285  -32.4380 H   0  0  0  0  0  0  0  0  0  0  0  0
   -9.3189   21.1845  -32.4380 H   0  0  0  0  0  0  0  0  0  0  0  0
  1  2  1  0
  2  3  1  0
  3  4  1  0
  4  5  1  0
  3  6  1  0
  6  7  1  0
  7  8  1  0
  8  9  1  0
  9 10  1  0
 10 11  2  0
 11 12  1  0
 12 13  2  0
 13 14  1  0
 13 15  1  0
 15 16  2  0
 16 17  1  0
 17 18  1  0
 17 19  2  0
 19 20  1  0
 20 21  2  0
 12 22  1  0
 22 23  2  0
 23 24  1  0
 24 25  2  0
 25 26  1  0
 26 27  2  0
 26 28  1  0
 28 29  1  0
 25 30  1  0
 30 31  1  0
 31 32  1  0
 31 33  1  0
 31 34  1  0
 34 35  2  0
 34 36  1  0
 36 37  1  1
 36 38  1  0
 38 39  1  0
 21 10  1  0
 28 22  1  0
 29 11  1  0
 21 15  1  0
 36 24  1  0
  1 40  1  0
  1 41  1  0
  1 42  1  0
  2 43  1  0
  2 44  1  0
  3 45  1  0
  4 46  1  0
  4 47  1  0
  5 48  1  0
  5 49  1  0
  5 50  1  0
  6 51  1  0
  6 52  1  0
  7 53  1  0
  7 54  1  0
  8 55  1  0
  8 56  1  0
  9 57  1  0
 14 58  1  0
 14 59  1  0
 14 60  1  0
 16 61  1  0
 19 62  1  0
 20 63  1  0
 23 64  1  0
 29 65  1  0
 29 66  1  0
 32 67  1  0
 32 68  1  0
 32 69  1  0
 33 70  1  0
 33 71  1  0
 33 72  1  0
 37 73  1  0
 37 74  1  0
 37 75  1  0
 38 76  1  0
 38 77  1  0
 39 78  1  0
 39 79  1  0
 39 80  1  0
M  CHG  2   3   1  13   1
M  END
>  <UniqueID>  (15) 
15

>  <SMILES>  (15) 
CC[NH+](CC)CCCNc1c2c([n+](C)c3cc(Cl)ccc13)-c1cc3c(c(=O)n1C2)OC(C)(C)C(=O)[C@@]3(C)CC

>  <Energy>  (15) 
139.02379533564647

>  <Genealogy>  (15) 
CC[NH+](CC)CCCNc1c2c([n+](C)c3cc(Cl)ccc13)-c1cc3c(c(=O)n1C2)OC(C)(C)C(=O)C3(C)CC (protonated)
CC[NH+](CC)CCCNc1c2c([n+](C)c3cc(Cl)ccc13)-c1cc3c(c(=O)n1C2)OC(C)(C)C(=O)[C@@]3(C)CC (chirality)
CC[NH+](CC)CCCNc1c2c([n+](C)c3cc(Cl)ccc13)-c1cc3c(c(=O)n1C2)OC(C)(C)C(=O)[C@@]3(C)CC (3D coordinates assigned)
CC[NH+](CC)CCCNc1c2c([n+](C)c3cc(Cl)ccc13)-c1cc3c(c(=O)n1C2)OC(C)(C)C(=O)[C@@]3(C)CC (nonaromatic ring conformer: 139.02379533564647 kcal/mol)

>  <smiles>  (15) 
CCN(CC)CCCNc1c2c([n+](C)c3cc(Cl)ccc13)-c1cc3c(c(=O)n1C2)OC(C)(C)C(=O)C3(C)CC

>  <score_type>  (15) 
oracle

>  <origin>  (15) 
adg

>  <m_score__min__energy>  (15) 
-8.3100000000000005

>  <m_primary>  (15) 
energy

$$$$
15:0
     RDKit          3D

 55 58  0  0  0  0  0  0  0  0999 V2000
   -6.3590   25.1000  -29.9640 C   0  0  0  0  0  0  0  0  0  0  0  0
   -5.0010   25.5710  -30.4920 C   0  0  0  0  0  0  0  0  0  0  0  0
   -3.9450   24.5300  -30.4800 N   0  0  0  0  0  0  0  0  0  0  0  0
   -3.0240   24.5590  -29.3210 C   0  0  0  0  0  0  0  0  0  0  0  0
   -3.7260   24.1290  -28.0340 C   0  0  0  0  0  0  0  0  0  0  0  0
   -4.4000   23.1800  -30.8930 C   0  0  0  0  0  0  0  0  0  0  0  0
   -3.2570   22.1750  -31.1740 C   0  0  0  0  0  0  0  0  0  0  0  0
   -3.0200   21.9850  -32.6760 C   0  0  0  0  0  0  0  0  0  0  0  0
   -4.2830   21.8960  -33.4080 N   0  0  0  0  0  0  0  0  0  0  0  0
   -5.2540   20.9090  -33.0410 C   0  0  0  0  0  0  0  0  0  0  0  0
   -4.9280   19.5570  -33.0840 C   0  0  0  0  0  0  0  0  0  0  0  0
   -5.8510   18.5820  -32.7530 C   0  0  0  0  0  0  0  0  0  0  0  0
   -7.1560   18.8920  -32.4650 N   0  0  0  0  0  0  0  0  0  0  0  0
   -8.1740   17.8300  -32.4300 C   0  0  0  0  0  0  0  0  0  0  0  0
   -7.4900   20.2240  -32.2730 C   0  0  0  0  0  0  0  0  0  0  0  0
   -8.7500   20.6080  -31.7500 C   0  0  0  0  0  0  0  0  0  0  0  0
   -9.0770   21.9520  -31.5780 C   0  0  0  0  0  0  0  0  0  0  0  0
   -8.1590   22.9470  -31.9010 C   0  0  0  0  0  0  0  0  0  0  0  0
   -6.9000   22.6070  -32.3870 C   0  0  0  0  0  0  0  0  0  0  0  0
   -6.5430   21.2580  -32.5790 C   0  0  0  0  0  0  0  0  0  0  0  0
   -5.1780   17.2640  -32.8620 C   0  0  0  0  0  0  0  0  0  0  0  0
   -5.5570   15.9770  -32.4610 C   0  0  0  0  0  0  0  0  0  0  0  0
   -4.6690   14.9520  -32.6180 N   0  0  0  0  0  0  0  0  0  0  0  0
   -3.4140   15.1450  -33.1240 C   0  0  0  0  0  0  0  0  0  0  0  0
   -2.9830   16.4310  -33.4730 C   0  0  0  0  0  0  0  0  0  0  0  0
   -3.8900   17.4760  -33.3210 C   0  0  0  0  0  0  0  0  0  0  0  0
   -3.6820   18.9060  -33.4830 C   0  0  0  0  0  0  0  0  0  0  0  0
   -2.6290   19.4670  -33.8850 O   0  0  0  0  0  0  0  0  0  0  0  0
   -6.3463   25.1044  -28.8641 H   0  0  0  0  0  0  0  0  0  0  0  0
   -7.1474   25.7772  -30.3243 H   0  0  0  0  0  0  0  0  0  0  0  0
   -6.5588   24.0801  -30.3243 H   0  0  0  0  0  0  0  0  0  0  0  0
   -5.1348   25.9135  -31.5287 H   0  0  0  0  0  0  0  0  0  0  0  0
   -4.6616   26.3705  -29.8170 H   0  0  0  0  0  0  0  0  0  0  0  0
   -2.1843   23.8755  -29.5151 H   0  0  0  0  0  0  0  0  0  0  0  0
   -2.6679   25.5915  -29.1902 H   0  0  0  0  0  0  0  0  0  0  0  0
   -3.1495   24.4821  -27.1663 H   0  0  0  0  0  0  0  0  0  0  0  0
   -4.7361   24.5635  -28.0045 H   0  0  0  0  0  0  0  0  0  0  0  0
   -3.7978   23.0317  -28.0045 H   0  0  0  0  0  0  0  0  0  0  0  0
   -5.0291   22.7689  -30.0897 H   0  0  0  0  0  0  0  0  0  0  0  0
   -4.9426   23.3094  -31.8411 H   0  0  0  0  0  0  0  0  0  0  0  0
   -2.3317   22.5505  -30.7126 H   0  0  0  0  0  0  0  0  0  0  0  0
   -3.5457   21.2025  -30.7486 H   0  0  0  0  0  0  0  0  0  0  0  0
   -2.4440   22.8405  -33.0586 H   0  0  0  0  0  0  0  0  0  0  0  0
   -2.4673   21.0454  -32.8233 H   0  0  0  0  0  0  0  0  0  0  0  0
   -4.6300   22.7550  -33.8920 H   0  0  0  0  0  0  0  0  0  0  0  0
   -8.4106   17.5832  -31.3845 H   0  0  0  0  0  0  0  0  0  0  0  0
   -9.0846   18.1780  -32.9397 H   0  0  0  0  0  0  0  0  0  0  0  0
   -7.7878   16.9350  -32.9397 H   0  0  0  0  0  0  0  0  0  0  0  0
   -9.4812   19.8334  -31.4756 H   0  0  0  0  0  0  0  0  0  0  0  0
  -10.0665   22.2279  -31.1846 H   0  0  0  0  0  0  0  0  0  0  0  0
   -8.4294   24.0054  -31.7718 H   0  0  0  0  0  0  0  0  0  0  0  0
   -6.1758   23.4004  -32.6238 H   0  0  0  0  0  0  0  0  0  0  0  0
   -6.5516   15.7953  -32.0276 H   0  0  0  0  0  0  0  0  0  0  0  0
   -2.7395   14.2864  -33.2577 H   0  0  0  0  0  0  0  0  0  0  0  0
   -1.9661   16.6086  -33.8529 H   0  0  0  0  0  0  0  0  0  0  0  0
  1  2  1  0
  2  3  1  0
  3  4  1  0
  4  5  1  0
  3  6  1  0
  6  7  1  0
  7  8  1  0
  8  9  1  0
  9 10  1  0
 10 11  2  0
 11 12  1  0
 12 13  2  0
 13 14  1  0
 13 15  1  0
 15 16  2  0
 16 17  1  0
 17 18  2  0
 18 19  1  0
 19 20  2  0
 12 21  1  0
 21 22  2  0
 22 23  1  0
 23 24  2  0
 24 25  1  0
 25 26  2  0
 26 27  1  0
 27 28  2  0
 20 10  1  0
 26 21  1  0
 27 11  1  0
 20 15  1  0
  1 29  1  0
  1 30  1  0
  1 31  1  0
  2 32  1  0
  2 33  1  0
  4 34  1  0
  4 35  1  0
  5 36  1  0
  5 37  1  0
  5 38  1  0
  6 39  1  0
  6 40  1  0
  7 41  1  0
  7 42  1  0
  8 43  1  0
  8 44  1  0
  9 45  1  0
 14 46  1  0
 14 47  1  0
 14 48  1  0
 16 49  1  0
 17 50  1  0
 18 51  1  0
 19 52  1  0
 22 53  1  0
 24 54  1  0
 25 55  1  0
M  CHG  1  13   1
M  END
>  <UniqueID>  (16) 
16

>  <SMILES>  (16) 
CCN(CC)CCCNc1c2c([n+](C)c3ccccc13)-c1cnccc1C2=O

>  <Energy>  (16) 
116.73687773111632

>  <Genealogy>  (16) 
CCN(CC)CCCNc1c2c([n+](C)c3ccccc13)-c1cnccc1C2=O (3D coordinates assigned)
CCN(CC)CCCNc1c2c([n+](C)c3ccccc13)-c1cnccc1C2=O (nonaromatic ring conformer: 116.73687773111632 kcal/mol)

>  <smiles>  (16) 
CCN(CC)CCCNc1c2c([n+](C)c3ccccc13)-c1cnccc1C2=O

>  <score_type>  (16) 
oracle

>  <origin>  (16) 
adg

>  <m_score__min__energy>  (16) 
-8.6500000000000004

>  <m_primary>  (16) 
energy

$$$$
16:0
     RDKit          3D

 48 50  0  0  0  0  0  0  0  0999 V2000
   -5.3370   19.2330  -34.1760 C   0  0  0  0  0  0  0  0  0  0  0  0
   -6.5530   19.1190  -33.3130 C   0  0  0  0  0  0  0  0  0  0  0  0
   -6.9020   17.8900  -32.7390 C   0  0  0  0  0  0  0  0  0  0  0  0
   -8.0480   17.8060  -31.9470 C   0  0  0  0  0  0  0  0  0  0  0  0
   -8.8320   18.9410  -31.7350 C   0  0  0  0  0  0  0  0  0  0  0  0
   -8.4590   20.1550  -32.3280 C   0  0  0  0  0  0  0  0  0  0  0  0
   -9.2860   21.3950  -32.1370 C   0  0  0  0  0  0  0  0  0  0  0  0
   -8.4390   22.5960  -32.1770 N   0  0  0  0  0  0  0  0  0  0  0  0
   -7.9800   23.0190  -30.8430 C   0  0  0  0  0  0  0  0  0  0  0  0
   -6.5430   23.4860  -30.8520 C   0  0  0  0  0  0  0  0  0  0  0  0
   -6.2130   24.7830  -30.4380 C   0  0  0  0  0  0  0  0  0  0  0  0
   -4.8790   25.1890  -30.4470 C   0  0  0  0  0  0  0  0  0  0  0  0
   -3.9080   24.3290  -30.8520 N   0  0  0  0  0  0  0  0  0  0  0  0
   -4.1840   23.0570  -31.2540 C   0  0  0  0  0  0  0  0  0  0  0  0
   -3.1070   22.1930  -31.6760 N   0  0  0  0  0  0  0  0  0  0  0  0
   -2.0330   21.8600  -30.7350 C   0  0  0  0  0  0  0  0  0  0  0  0
   -0.7620   21.4860  -31.5040 C   0  0  0  0  0  0  0  0  0  0  0  0
   -0.9800   20.3390  -32.4140 N   0  0  0  0  0  0  0  0  0  0  0  0
    0.0640   20.3020  -33.4490 C   0  0  0  0  0  0  0  0  0  0  0  0
   -2.3380   20.2670  -33.0130 C   0  0  0  0  0  0  0  0  0  0  0  0
   -3.0730   21.6160  -33.0280 C   0  0  0  0  0  0  0  0  0  0  0  0
   -5.5210   22.6200  -31.2670 C   0  0  0  0  0  0  0  0  0  0  0  0
   -7.3360   20.2120  -33.0970 N   0  0  0  0  0  0  0  0  0  0  0  0
   -4.4430   19.3168  -33.5406 H   0  0  0  0  0  0  0  0  0  0  0  0
   -5.2530   18.3388  -34.8111 H   0  0  0  0  0  0  0  0  0  0  0  0
   -5.4206   20.1272  -34.8111 H   0  0  0  0  0  0  0  0  0  0  0  0
   -6.2790   16.9998  -32.9107 H   0  0  0  0  0  0  0  0  0  0  0  0
   -8.3329   16.8466  -31.4905 H   0  0  0  0  0  0  0  0  0  0  0  0
   -9.7342   18.8834  -31.1084 H   0  0  0  0  0  0  0  0  0  0  0  0
  -10.0364   21.4556  -32.9390 H   0  0  0  0  0  0  0  0  0  0  0  0
   -9.7797   21.3430  -31.1554 H   0  0  0  0  0  0  0  0  0  0  0  0
   -7.6070   22.3970  -32.7800 H   0  0  0  0  0  0  0  0  0  0  0  0
   -8.6180   23.8446  -30.4948 H   0  0  0  0  0  0  0  0  0  0  0  0
   -8.0468   22.1493  -30.1729 H   0  0  0  0  0  0  0  0  0  0  0  0
   -7.0007   25.4763  -30.1081 H   0  0  0  0  0  0  0  0  0  0  0  0
   -4.6124   26.2067  -30.1258 H   0  0  0  0  0  0  0  0  0  0  0  0
   -1.8281   22.7295  -30.0931 H   0  0  0  0  0  0  0  0  0  0  0  0
   -2.3460   21.0060  -30.1164 H   0  0  0  0  0  0  0  0  0  0  0  0
   -0.4383   22.3535  -32.0978 H   0  0  0  0  0  0  0  0  0  0  0  0
    0.0051   21.1962  -30.7708 H   0  0  0  0  0  0  0  0  0  0  0  0
    1.0538   20.2669  -32.9703 H   0  0  0  0  0  0  0  0  0  0  0  0
   -0.0722   19.4081  -34.0754 H   0  0  0  0  0  0  0  0  0  0  0  0
   -0.0086   21.2033  -34.0754 H   0  0  0  0  0  0  0  0  0  0  0  0
   -2.2431   19.9106  -34.0493 H   0  0  0  0  0  0  0  0  0  0  0  0
   -2.9311   19.5821  -32.3892 H   0  0  0  0  0  0  0  0  0  0  0  0
   -2.5492   22.3073  -33.7046 H   0  0  0  0  0  0  0  0  0  0  0  0
   -4.1045   21.4579  -33.3759 H   0  0  0  0  0  0  0  0  0  0  0  0
   -5.7644   21.6009  -31.6020 H   0  0  0  0  0  0  0  0  0  0  0  0
  1  2  1  0
  2  3  2  0
  3  4  1  0
  4  5  2  0
  5  6  1  0
  6  7  1  0
  7  8  1  0
  8  9  1  0
  9 10  1  0
 10 11  2  0
 11 12  1  0
 12 13  2  0
 13 14  1  0
 14 15  1  0
 15 16  1  0
 16 17  1  0
 17 18  1  0
 18 19  1  0
 18 20  1  0
 20 21  1  0
 14 22  2  0
  6 23  2  0
 23  2  1  0
 22 10  1  0
 21 15  1  0
  1 24  1  0
  1 25  1  0
  1 26  1  0
  3 27  1  0
  4 28  1  0
  5 29  1  0
  7 30  1  0
  7 31  1  0
  8 32  1  0
  9 33  1  0
  9 34  1  0
 11 35  1  0
 12 36  1  0
 16 37  1  0
 16 38  1  0
 17 39  1  0
 17 40  1  0
 19 41  1  0
 19 42  1  0
 19 43  1  0
 20 44  1  0
 20 45  1  0
 21 46  1  0
 21 47  1  0
 22 48  1  0
M  END
>  <UniqueID>  (17) 
17

>  <SMILES>  (17) 
Cc1cccc(CNCc2ccnc(N3CCN(C)CC3)c2)n1

>  <Energy>  (17) 
56.43269593667276

>  <Genealogy>  (17) 
Cc1cccc(CNCc2ccnc(N3CCN(C)CC3)c2)n1 (3D coordinates assigned)
Cc1cccc(CNCc2ccnc(N3CCN(C)CC3)c2)n1 (nonaromatic ring conformer: 56.43269593667276 kcal/mol)

>  <smiles>  (17) 
Cc1cccc(CNCc2ccnc(N3CCN(C)CC3)c2)n1

>  <score_type>  (17) 
oracle

>  <origin>  (17) 
adg

>  <m_score__min__energy>  (17) 
-7.8799999999999999

>  <m_primary>  (17) 
energy

$$$$
17:0
     RDKit          3D

 50 52  0  0  0  0  0  0  0  0999 V2000
   -7.6900   23.1160  -31.5830 C   0  0  0  0  0  0  0  0  0  0  0  0
   -6.9870   24.1510  -30.6960 C   0  0  0  0  0  0  0  0  0  0  0  0
   -5.9810   23.5400  -29.7850 N   0  0  0  0  0  0  0  0  0  0  0  0
   -5.0180   24.5840  -29.3300 C   0  0  0  0  0  0  0  0  0  0  0  0
   -4.1790   24.1060  -28.1410 C   0  0  0  0  0  0  0  0  0  0  0  0
   -5.2640   22.4260  -30.4630 C   0  0  0  0  0  0  0  0  0  0  0  0
   -4.2040   22.9250  -31.4750 C   0  0  0  0  0  0  0  0  0  0  0  0
   -4.3220   22.2830  -32.7900 N   0  0  0  0  0  0  0  0  0  0  0  0
   -3.9810   20.9050  -33.0390 C   0  0  0  0  0  0  0  0  0  0  0  0
   -4.9740   19.9080  -33.0410 C   0  0  0  0  0  0  0  0  0  0  0  0
   -6.2990   20.2020  -32.6590 C   0  0  0  0  0  0  0  0  0  0  0  0
   -7.3050   19.2460  -32.7810 C   0  0  0  0  0  0  0  0  0  0  0  0
   -9.1030   19.6820  -32.3040 Br  0  0  0  0  0  0  0  0  0  0  0  0
   -7.0030   17.9780  -33.2630 C   0  0  0  0  0  0  0  0  0  0  0  0
   -5.6860   17.6450  -33.5810 C   0  0  0  0  0  0  0  0  0  0  0  0
   -4.6350   18.5850  -33.4310 C   0  0  0  0  0  0  0  0  0  0  0  0
   -3.3160   18.2450  -33.6650 N   0  0  0  0  0  0  0  0  0  0  0  0
   -2.9320   16.8200  -33.7890 C   0  0  0  0  0  0  0  0  0  0  0  0
   -2.3480   19.2280  -33.7400 C   0  0  0  0  0  0  0  0  0  0  0  0
   -1.0410   18.9540  -34.2190 C   0  0  0  0  0  0  0  0  0  0  0  0
   -0.0590   19.9430  -34.2460 C   0  0  0  0  0  0  0  0  0  0  0  0
    1.5500   19.5710  -34.8390 Cl  0  0  0  0  0  0  0  0  0  0  0  0
   -0.3550   21.2300  -33.8140 C   0  0  0  0  0  0  0  0  0  0  0  0
   -1.6430   21.5440  -33.3900 C   0  0  0  0  0  0  0  0  0  0  0  0
   -2.6580   20.5650  -33.3720 C   0  0  0  0  0  0  0  0  0  0  0  0
   -8.1951   22.3724  -30.9490 H   0  0  0  0  0  0  0  0  0  0  0  0
   -8.4325   23.6213  -32.2181 H   0  0  0  0  0  0  0  0  0  0  0  0
   -6.9466   22.6120  -32.2181 H   0  0  0  0  0  0  0  0  0  0  0  0
   -6.4782   24.8809  -31.3428 H   0  0  0  0  0  0  0  0  0  0  0  0
   -7.7554   24.6276  -30.0696 H   0  0  0  0  0  0  0  0  0  0  0  0
   -6.4800   23.1570  -28.9500 H   0  0  0  0  0  0  0  0  0  0  0  0
   -4.3446   24.8343  -30.1630 H   0  0  0  0  0  0  0  0  0  0  0  0
   -5.5948   25.4640  -29.0091 H   0  0  0  0  0  0  0  0  0  0  0  0
   -4.6777   24.3901  -27.2026 H   0  0  0  0  0  0  0  0  0  0  0  0
   -4.0730   23.0119  -28.1833 H   0  0  0  0  0  0  0  0  0  0  0  0
   -3.1838   24.5727  -28.1833 H   0  0  0  0  0  0  0  0  0  0  0  0
   -4.7608   21.8150  -29.6991 H   0  0  0  0  0  0  0  0  0  0  0  0
   -6.0100   21.8437  -31.0237 H   0  0  0  0  0  0  0  0  0  0  0  0
   -4.3246   24.0109  -31.6026 H   0  0  0  0  0  0  0  0  0  0  0  0
   -3.2143   22.6675  -31.0699 H   0  0  0  0  0  0  0  0  0  0  0  0
   -4.8100   22.8090  -33.5480 H   0  0  0  0  0  0  0  0  0  0  0  0
   -6.5413   21.1980  -32.2599 H   0  0  0  0  0  0  0  0  0  0  0  0
   -7.8039   17.2354  -33.3940 H   0  0  0  0  0  0  0  0  0  0  0  0
   -5.4590   16.6356  -33.9546 H   0  0  0  0  0  0  0  0  0  0  0  0
   -2.8143   16.3834  -32.7863 H   0  0  0  0  0  0  0  0  0  0  0  0
   -3.7154   16.2754  -34.3364 H   0  0  0  0  0  0  0  0  0  0  0  0
   -1.9810   16.7428  -34.3364 H   0  0  0  0  0  0  0  0  0  0  0  0
   -0.7980   17.9422  -34.5758 H   0  0  0  0  0  0  0  0  0  0  0  0
    0.4292   22.0013  -33.8071 H   0  0  0  0  0  0  0  0  0  0  0  0
   -1.8723   22.5694  -33.0646 H   0  0  0  0  0  0  0  0  0  0  0  0
  1  2  1  0
  2  3  1  0
  3  4  1  0
  4  5  1  0
  3  6  1  0
  6  7  1  0
  7  8  1  0
  8  9  1  0
  9 10  2  0
 10 11  1  0
 11 12  2  0
 12 13  1  0
 12 14  1  0
 14 15  2  0
 15 16  1  0
 16 17  2  0
 17 18  1  0
 17 19  1  0
 19 20  2  0
 20 21  1  0
 21 22  1  0
 21 23  2  0
 23 24  1  0
 24 25  2  0
 25  9  1  0
 16 10  1  0
 25 19  1  0
  1 26  1  0
  1 27  1  0
  1 28  1  0
  2 29  1  0
  2 30  1  0
  3 31  1  0
  4 32  1  0
  4 33  1  0
  5 34  1  0
  5 35  1  0
  5 36  1  0
  6 37  1  0
  6 38  1  0
  7 39  1  0
  7 40  1  0
  8 41  1  0
 11 42  1  0
 14 43  1  0
 15 44  1  0
 18 45  1  0
 18 46  1  0
 18 47  1  0
 20 48  1  0
 23 49  1  0
 24 50  1  0
M  CHG  2   3   1  17   1
M  END
>  <UniqueID>  (18) 
18

>  <SMILES>  (18) 
CC[NH+](CC)CCNc1c2cc(Br)ccc2[n+](C)c2cc(Cl)ccc12

>  <Energy>  (18) 
76.68037530562026

>  <Genealogy>  (18) 
CC[NH+](CC)CCNc1c2cc(Br)ccc2[n+](C)c2cc(Cl)ccc12 (protonated)
CC[NH+](CC)CCNc1c2cc(Br)ccc2[n+](C)c2cc(Cl)ccc12 (3D coordinates assigned)
CC[NH+](CC)CCNc1c2cc(Br)ccc2[n+](C)c2cc(Cl)ccc12 (optimized conformer: 76.68037530562026 kcal/mol)

>  <smiles>  (18) 
CCN(CC)CCNc1c2cc(Br)ccc2[n+](C)c2cc(Cl)ccc12

>  <score_type>  (18) 
oracle

>  <origin>  (18) 
adg

>  <m_score__min__energy>  (18) 
-7.5300000000000002

>  <m_primary>  (18) 
energy

$$$$
18:0
     RDKit          3D

 72 75  0  0  0  0  0  0  0  0999 V2000
    0.7570   23.5690  -36.0870 C   0  0  0  0  0  0  0  0  0  0  0  0
    1.1510   22.2730  -35.3860 C   0  0  0  0  0  0  0  0  0  0  0  0
   -0.0380   21.6040  -34.8350 N   0  0  0  0  0  0  0  0  0  0  0  0
    0.1530   21.1380  -33.4500 C   0  0  0  0  0  0  0  0  0  0  0  0
   -1.1590   20.6590  -32.8090 C   0  0  0  0  0  0  0  0  0  0  0  0
   -2.2860   20.8830  -33.7160 N   0  0  0  0  0  0  0  0  0  0  0  0
   -3.5620   20.2460  -33.5160 C   0  0  0  0  0  0  0  0  0  0  0  0
   -3.7580   18.9090  -33.9090 C   0  0  0  0  0  0  0  0  0  0  0  0
   -2.6980   18.1490  -34.4480 C   0  0  0  0  0  0  0  0  0  0  0  0
   -2.9170   16.8590  -34.9220 C   0  0  0  0  0  0  0  0  0  0  0  0
   -4.1890   16.3030  -34.8680 C   0  0  0  0  0  0  0  0  0  0  0  0
   -5.2400   17.0150  -34.2910 C   0  0  0  0  0  0  0  0  0  0  0  0
   -5.0380   18.3120  -33.7480 C   0  0  0  0  0  0  0  0  0  0  0  0
   -6.0470   18.9940  -33.0890 N   0  0  0  0  0  0  0  0  0  0  0  0
   -7.2780   18.2820  -32.6720 C   0  0  0  0  0  0  0  0  0  0  0  0
   -5.8910   20.3350  -32.7770 C   0  0  0  0  0  0  0  0  0  0  0  0
   -6.9650   21.1180  -32.2770 C   0  0  0  0  0  0  0  0  0  0  0  0
   -6.7850   22.4620  -31.9030 C   0  0  0  0  0  0  0  0  0  0  0  0
   -7.8290   23.2440  -31.3790 O   0  0  0  0  0  0  0  0  0  0  0  0
   -9.1110   23.3960  -31.9790 C   0  0  0  0  0  0  0  0  0  0  0  0
   -5.5350   23.0610  -32.0640 C   0  0  0  0  0  0  0  0  0  0  0  0
   -5.3640   24.3910  -31.6570 O   0  0  0  0  0  0  0  0  0  0  0  0
   -5.4720   24.8290  -30.3010 C   0  0  0  0  0  0  0  0  0  0  0  0
   -5.3560   23.6230  -29.3410 C   0  0  0  0  0  0  0  0  0  0  0  0
   -3.9900   23.4060  -28.7550 N   0  0  0  0  0  0  0  0  0  0  0  0
   -3.8710   24.1870  -27.4920 C   0  0  0  0  0  0  0  0  0  0  0  0
   -3.0030   23.9350  -29.7440 C   0  0  0  0  0  0  0  0  0  0  0  0
   -1.5280   23.6560  -29.3570 C   0  0  0  0  0  0  0  0  0  0  0  0
   -1.3260   22.3690  -28.6690 N   0  0  0  0  0  0  0  0  0  0  0  0
   -2.3910   21.4120  -28.9650 C   0  0  0  0  0  0  0  0  0  0  0  0
   -3.7640   21.9380  -28.5010 C   0  0  0  0  0  0  0  0  0  0  0  0
   -4.4710   22.3170  -32.5860 C   0  0  0  0  0  0  0  0  0  0  0  0
   -4.6340   20.9670  -32.9580 C   0  0  0  0  0  0  0  0  0  0  0  0
    0.5236   24.3366  -35.3345 H   0  0  0  0  0  0  0  0  0  0  0  0
    1.5909   23.9138  -36.7161 H   0  0  0  0  0  0  0  0  0  0  0  0
   -0.1277   23.3913  -36.7161 H   0  0  0  0  0  0  0  0  0  0  0  0
    1.6402   21.6042  -36.1095 H   0  0  0  0  0  0  0  0  0  0  0  0
    1.8405   22.5092  -34.5621 H   0  0  0  0  0  0  0  0  0  0  0  0
   -0.8540   22.2610  -34.8740 H   0  0  0  0  0  0  0  0  0  0  0  0
    0.8701   20.3039  -33.4533 H   0  0  0  0  0  0  0  0  0  0  0  0
    0.5262   21.9868  -32.8581 H   0  0  0  0  0  0  0  0  0  0  0  0
   -1.0817   19.5845  -32.5865 H   0  0  0  0  0  0  0  0  0  0  0  0
   -1.3300   21.2274  -31.8829 H   0  0  0  0  0  0  0  0  0  0  0  0
   -2.0880   21.3190  -34.6440 H   0  0  0  0  0  0  0  0  0  0  0  0
   -1.6875   18.5811  -34.4940 H   0  0  0  0  0  0  0  0  0  0  0  0
   -2.0814   16.2785  -35.3402 H   0  0  0  0  0  0  0  0  0  0  0  0
   -4.3674   15.2993  -35.2812 H   0  0  0  0  0  0  0  0  0  0  0  0
   -6.2429   16.5645  -34.2557 H   0  0  0  0  0  0  0  0  0  0  0  0
   -7.3300   18.2519  -31.5736 H   0  0  0  0  0  0  0  0  0  0  0  0
   -8.1586   18.8102  -33.0664 H   0  0  0  0  0  0  0  0  0  0  0  0
   -7.2592   17.2553  -33.0664 H   0  0  0  0  0  0  0  0  0  0  0  0
   -7.9616   20.6626  -32.1798 H   0  0  0  0  0  0  0  0  0  0  0  0
   -9.8753   23.4866  -31.1931 H   0  0  0  0  0  0  0  0  0  0  0  0
   -9.1184   24.3013  -32.6038 H   0  0  0  0  0  0  0  0  0  0  0  0
   -9.3299   22.5175  -32.6038 H   0  0  0  0  0  0  0  0  0  0  0  0
   -4.6652   25.5448  -30.0848 H   0  0  0  0  0  0  0  0  0  0  0  0
   -6.4499   25.3113  -30.1558 H   0  0  0  0  0  0  0  0  0  0  0  0
   -6.0621   23.7779  -28.5119 H   0  0  0  0  0  0  0  0  0  0  0  0
   -5.5775   22.7292  -29.9427 H   0  0  0  0  0  0  0  0  0  0  0  0
   -3.9742   23.5100  -26.6312 H   0  0  0  0  0  0  0  0  0  0  0  0
   -2.8876   24.6786  -27.4561 H   0  0  0  0  0  0  0  0  0  0  0  0
   -4.6634   24.9491  -27.4561 H   0  0  0  0  0  0  0  0  0  0  0  0
   -3.2017   23.4658  -30.7189 H   0  0  0  0  0  0  0  0  0  0  0  0
   -3.1284   25.0275  -29.7728 H   0  0  0  0  0  0  0  0  0  0  0  0
   -0.9226   23.6568  -30.2754 H   0  0  0  0  0  0  0  0  0  0  0  0
   -1.2271   24.4458  -28.6530 H   0  0  0  0  0  0  0  0  0  0  0  0
   -1.2820   22.5230  -27.6350 H   0  0  0  0  0  0  0  0  0  0  0  0
   -2.4231   21.2364  -30.0504 H   0  0  0  0  0  0  0  0  0  0  0  0
   -2.1773   20.4778  -28.4250 H   0  0  0  0  0  0  0  0  0  0  0  0
   -4.5451   21.3735  -29.0313 H   0  0  0  0  0  0  0  0  0  0  0  0
   -3.7989   21.8006  -27.4102 H   0  0  0  0  0  0  0  0  0  0  0  0
   -3.4879   22.7950  -32.7085 H   0  0  0  0  0  0  0  0  0  0  0  0
  1  2  1  0
  2  3  1  0
  3  4  1  0
  4  5  1  0
  5  6  1  0
  6  7  1  0
  7  8  2  0
  8  9  1  0
  9 10  2  0
 10 11  1  0
 11 12  2  0
 12 13  1  0
 13 14  2  0
 14 15  1  0
 14 16  1  0
 16 17  2  0
 17 18  1  0
 18 19  1  0
 19 20  1  0
 18 21  2  0
 21 22  1  0
 22 23  1  0
 23 24  1  0
 24 25  1  0
 25 26  1  0
 25 27  1  0
 27 28  1  0
 28 29  1  0
 29 30  1  0
 30 31  1  0
 21 32  1  0
 32 33  2  0
 33  7  1  0
 13  8  1  0
 33 16  1  0
 31 25  1  0
  1 34  1  0
  1 35  1  0
  1 36  1  0
  2 37  1  0
  2 38  1  0
  3 39  1  0
  4 40  1  0
  4 41  1  0
  5 42  1  0
  5 43  1  0
  6 44  1  0
  9 45  1  0
 10 46  1  0
 11 47  1  0
 12 48  1  0
 15 49  1  0
 15 50  1  0
 15 51  1  0
 17 52  1  0
 20 53  1  0
 20 54  1  0
 20 55  1  0
 23 56  1  0
 23 57  1  0
 24 58  1  0
 24 59  1  0
 26 60  1  0
 26 61  1  0
 26 62  1  0
 27 63  1  0
 27 64  1  0
 28 65  1  0
 28 66  1  0
 29 67  1  0
 30 68  1  0
 30 69  1  0
 31 70  1  0
 31 71  1  0
 32 72  1  0
M  CHG  2  14   1  25   1
M  END
>  <UniqueID>  (19) 
19

>  <SMILES>  (19) 
CCNCCNc1c2ccccc2[n+](C)c2cc(OC)c(OCC[N+]3(C)CCNCC3)cc12

>  <Energy>  (19) 
119.39483151348647

>  <Genealogy>  (19) 
CCNCCNc1c2ccccc2[n+](C)c2cc(OC)c(OCC[N+]3(C)CCNCC3)cc12 (3D coordinates assigned)
CCNCCNc1c2ccccc2[n+](C)c2cc(OC)c(OCC[N+]3(C)CCNCC3)cc12 (nonaromatic ring conformer: 119.39483151348647 kcal/mol)

>  <smiles>  (19) 
CCNCCNc1c2ccccc2[n+](C)c2cc(OC)c(OCC[N+]3(C)CCNCC3)cc12

>  <score_type>  (19) 
oracle

>  <origin>  (19) 
adg

>  <m_score__min__energy>  (19) 
-8.1400000000000006

>  <m_primary>  (19) 
energy

$$$$
19:0
     RDKit          3D

 41 43  0  0  0  0  0  0  0  0999 V2000
   -1.3350   18.9850  -32.8360 C   0  0  0  0  0  0  0  0  0  0  0  0
   -1.3080   19.5990  -34.2340 C   0  0  0  0  0  0  0  0  0  0  0  0
   -1.8640   20.9600  -34.2190 N   0  0  0  0  0  0  0  0  0  0  0  0
   -1.8290   21.5210  -32.8590 C   0  0  0  0  0  0  0  0  0  0  0  0
   -3.2420   21.6560  -32.2700 C   0  0  0  0  0  0  0  0  0  0  0  0
   -4.2620   21.5310  -33.3140 N   0  0  0  0  0  0  0  0  0  0  0  0
   -5.4990   20.8350  -33.0910 C   0  0  0  0  0  0  0  0  0  0  0  0
   -5.6450   19.4520  -33.3300 C   0  0  0  0  0  0  0  0  0  0  0  0
   -4.6010   18.7040  -33.9090 C   0  0  0  0  0  0  0  0  0  0  0  0
   -4.7260   17.3290  -34.0880 C   0  0  0  0  0  0  0  0  0  0  0  0
   -5.8910   16.6750  -33.6980 C   0  0  0  0  0  0  0  0  0  0  0  0
   -6.0200   14.9350  -33.8940 Cl  0  0  0  0  0  0  0  0  0  0  0  0
   -6.9570   17.3980  -33.1610 C   0  0  0  0  0  0  0  0  0  0  0  0
   -6.8810   18.8050  -33.0020 C   0  0  0  0  0  0  0  0  0  0  0  0
   -7.9610   19.5450  -32.5390 N   0  0  0  0  0  0  0  0  0  0  0  0
   -9.2760   18.9090  -32.3220 C   0  0  0  0  0  0  0  0  0  0  0  0
   -7.7900   20.8880  -32.2890 C   0  0  0  0  0  0  0  0  0  0  0  0
   -8.7310   21.7650  -31.7050 C   0  0  0  0  0  0  0  0  0  0  0  0
   -8.2640   23.0690  -31.5780 C   0  0  0  0  0  0  0  0  0  0  0  0
   -6.6880   23.1460  -32.1630 S   0  0  0  0  0  0  0  0  0  0  0  0
   -6.5940   21.5220  -32.5870 C   0  0  0  0  0  0  0  0  0  0  0  0
   -1.2998   19.7861  -32.0830 H   0  0  0  0  0  0  0  0  0  0  0  0
   -2.2596   18.4028  -32.7090 H   0  0  0  0  0  0  0  0  0  0  0  0
   -0.4651   18.3239  -32.7090 H   0  0  0  0  0  0  0  0  0  0  0  0
   -0.2680   19.6385  -34.5902 H   0  0  0  0  0  0  0  0  0  0  0  0
   -1.9195   18.9764  -34.9037 H   0  0  0  0  0  0  0  0  0  0  0  0
   -2.8490   20.9270  -34.5640 H   0  0  0  0  0  0  0  0  0  0  0  0
   -1.2990   21.5710  -34.8560 H   0  0  0  0  0  0  0  0  0  0  0  0
   -1.2344   20.8576  -32.2137 H   0  0  0  0  0  0  0  0  0  0  0  0
   -1.3787   22.5233  -32.9101 H   0  0  0  0  0  0  0  0  0  0  0  0
   -3.3960   20.8656  -31.5206 H   0  0  0  0  0  0  0  0  0  0  0  0
   -3.3347   22.6499  -31.8078 H   0  0  0  0  0  0  0  0  0  0  0  0
   -4.2300   22.2280  -34.0920 H   0  0  0  0  0  0  0  0  0  0  0  0
   -3.6771   19.2118  -34.2230 H   0  0  0  0  0  0  0  0  0  0  0  0
   -3.9013   16.7577  -34.5391 H   0  0  0  0  0  0  0  0  0  0  0  0
   -7.8712   16.8677  -32.8561 H   0  0  0  0  0  0  0  0  0  0  0  0
   -9.4653   18.8174  -31.2423 H   0  0  0  0  0  0  0  0  0  0  0  0
  -10.0622   19.5265  -32.7810 H   0  0  0  0  0  0  0  0  0  0  0  0
   -9.2800   17.9094  -32.7810 H   0  0  0  0  0  0  0  0  0  0  0  0
   -9.7338   21.4480  -31.3826 H   0  0  0  0  0  0  0  0  0  0  0  0
   -8.8330   23.9136  -31.1623 H   0  0  0  0  0  0  0  0  0  0  0  0
  1  2  1  0
  2  3  1  0
  3  4  1  0
  4  5  1  0
  5  6  1  0
  6  7  1  0
  7  8  2  0
  8  9  1  0
  9 10  2  0
 10 11  1  0
 11 12  1  0
 11 13  2  0
 13 14  1  0
 14 15  2  0
 15 16  1  0
 15 17  1  0
 17 18  1  0
 18 19  2  0
 19 20  1  0
 20 21  1  0
 21  7  1  0
 14  8  1  0
 21 17  2  0
  1 22  1  0
  1 23  1  0
  1 24  1  0
  2 25  1  0
  2 26  1  0
  3 27  1  0
  3 28  1  0
  4 29  1  0
  4 30  1  0
  5 31  1  0
  5 32  1  0
  6 33  1  0
  9 34  1  0
 10 35  1  0
 13 36  1  0
 16 37  1  0
 16 38  1  0
 16 39  1  0
 18 40  1  0
 19 41  1  0
M  CHG  2   3   1  15   1
M  END
>  <UniqueID>  (20) 
20

>  <SMILES>  (20) 
CC[NH2+]CCNc1c2ccc(Cl)cc2[n+](C)c2ccsc12

>  <Energy>  (20) 
84.69725236161105

>  <Genealogy>  (20) 
CC[NH2+]CCNc1c2ccc(Cl)cc2[n+](C)c2ccsc12 (protonated)
CC[NH2+]CCNc1c2ccc(Cl)cc2[n+](C)c2ccsc12 (3D coordinates assigned)
CC[NH2+]CCNc1c2ccc(Cl)cc2[n+](C)c2ccsc12 (optimized conformer: 84.69725236161105 kcal/mol)

>  <smiles>  (20) 
CCNCCNc1c2ccc(Cl)cc2[n+](C)c2ccsc12

>  <score_type>  (20) 
oracle

>  <origin>  (20) 
adg

>  <m_score__min__energy>  (20) 
-7.0599999999999996

>  <m_primary>  (20) 
energy

$$$$
20:0
     RDKit          3D

 51 53  0  0  0  0  0  0  0  0999 V2000
   -5.0660   24.1920  -29.5300 C   0  0  0  0  0  0  0  0  0  0  0  0
   -4.5330   22.7910  -29.1700 C   0  0  0  0  0  0  0  0  0  0  0  0
   -3.2920   22.3410  -29.8880 N   0  0  0  0  0  0  0  0  0  0  0  0
   -3.1370   20.8720  -29.7430 C   0  0  0  0  0  0  0  0  0  0  0  0
   -2.1080   23.0270  -29.3090 C   0  0  0  0  0  0  0  0  0  0  0  0
   -3.4620   22.7380  -31.3330 C   0  0  0  0  0  0  0  0  0  0  0  0
   -3.3280   21.6390  -32.4290 C   0  0  0  0  0  0  0  0  0  0  0  0
   -4.3910   21.6820  -33.4490 N   0  0  0  0  0  0  0  0  0  0  0  0
   -5.4900   20.7980  -33.0820 C   0  0  0  0  0  0  0  0  0  0  0  0
   -6.6800   21.3280  -32.5180 C   0  0  0  0  0  0  0  0  0  0  0  0
   -6.7860   22.6940  -32.1570 C   0  0  0  0  0  0  0  0  0  0  0  0
   -7.9900   23.2270  -31.7020 C   0  0  0  0  0  0  0  0  0  0  0  0
   -9.1130   22.4200  -31.5990 C   0  0  0  0  0  0  0  0  0  0  0  0
   -9.0240   21.0620  -31.8940 C   0  0  0  0  0  0  0  0  0  0  0  0
   -7.7980   20.4750  -32.3010 C   0  0  0  0  0  0  0  0  0  0  0  0
   -7.6840   19.1120  -32.4940 N   0  0  0  0  0  0  0  0  0  0  0  0
   -8.7390   18.2050  -31.9850 C   0  0  0  0  0  0  0  0  0  0  0  0
   -6.5620   18.5860  -33.1030 C   0  0  0  0  0  0  0  0  0  0  0  0
   -6.5190   17.2300  -33.5230 C   0  0  0  0  0  0  0  0  0  0  0  0
   -5.3550   16.6720  -34.0430 C   0  0  0  0  0  0  0  0  0  0  0  0
   -4.2080   17.4420  -34.1630 C   0  0  0  0  0  0  0  0  0  0  0  0
   -3.0650   16.8840  -34.6360 F   0  0  0  0  0  0  0  0  0  0  0  0
   -4.2340   18.7910  -33.8180 C   0  0  0  0  0  0  0  0  0  0  0  0
   -5.4180   19.4020  -33.3370 C   0  0  0  0  0  0  0  0  0  0  0  0
   -5.2789   24.7516  -28.6072 H   0  0  0  0  0  0  0  0  0  0  0  0
   -4.3103   24.7314  -30.1198 H   0  0  0  0  0  0  0  0  0  0  0  0
   -5.9892   24.0927  -30.1198 H   0  0  0  0  0  0  0  0  0  0  0  0
   -4.3167   22.7826  -28.0915 H   0  0  0  0  0  0  0  0  0  0  0  0
   -5.3209   22.0903  -29.4834 H   0  0  0  0  0  0  0  0  0  0  0  0
   -3.1093   20.6099  -28.6750 H   0  0  0  0  0  0  0  0  0  0  0  0
   -3.9866   20.3645  -30.2232 H   0  0  0  0  0  0  0  0  0  0  0  0
   -2.2002   20.5530  -30.2232 H   0  0  0  0  0  0  0  0  0  0  0  0
   -2.1655   22.9937  -28.2110 H   0  0  0  0  0  0  0  0  0  0  0  0
   -1.1907   22.5205  -29.6437 H   0  0  0  0  0  0  0  0  0  0  0  0
   -2.0912   24.0747  -29.6437 H   0  0  0  0  0  0  0  0  0  0  0  0
   -4.4665   23.1751  -31.4332 H   0  0  0  0  0  0  0  0  0  0  0  0
   -2.6164   23.4143  -31.5266 H   0  0  0  0  0  0  0  0  0  0  0  0
   -2.3587   21.7683  -32.9328 H   0  0  0  0  0  0  0  0  0  0  0  0
   -3.4122   20.6675  -31.9199 H   0  0  0  0  0  0  0  0  0  0  0  0
   -4.0120   21.4160  -34.3800 H   0  0  0  0  0  0  0  0  0  0  0  0
   -4.7370   22.6550  -33.5930 H   0  0  0  0  0  0  0  0  0  0  0  0
   -5.9027   23.3446  -32.2374 H   0  0  0  0  0  0  0  0  0  0  0  0
   -8.0500   24.2896  -31.4240 H   0  0  0  0  0  0  0  0  0  0  0  0
  -10.0741   22.8526  -31.2843 H   0  0  0  0  0  0  0  0  0  0  0  0
   -9.9218   20.4320  -31.8099 H   0  0  0  0  0  0  0  0  0  0  0  0
   -8.7299   18.2128  -30.8851 H   0  0  0  0  0  0  0  0  0  0  0  0
   -9.7207   18.5454  -32.3460 H   0  0  0  0  0  0  0  0  0  0  0  0
   -8.5497   17.1833  -32.3460 H   0  0  0  0  0  0  0  0  0  0  0  0
   -7.4228   16.6091  -33.4356 H   0  0  0  0  0  0  0  0  0  0  0  0
   -5.3448   15.6185  -34.3593 H   0  0  0  0  0  0  0  0  0  0  0  0
   -3.3189   19.3927  -33.9208 H   0  0  0  0  0  0  0  0  0  0  0  0
  1  2  1  0
  2  3  1  0
  3  4  1  0
  3  5  1  0
  3  6  1  0
  6  7  1  0
  7  8  1  0
  8  9  1  0
  9 10  2  0
 10 11  1  0
 11 12  2  0
 12 13  1  0
 13 14  2  0
 14 15  1  0
 15 16  2  0
 16 17  1  0
 16 18  1  0
 18 19  2  0
 19 20  1  0
 20 21  2  0
 21 22  1  0
 21 23  1  0
 23 24  2  0
 24  9  1  0
 15 10  1  0
 24 18  1  0
  1 25  1  0
  1 26  1  0
  1 27  1  0
  2 28  1  0
  2 29  1  0
  4 30  1  0
  4 31  1  0
  4 32  1  0
  5 33  1  0
  5 34  1  0
  5 35  1  0
  6 36  1  0
  6 37  1  0
  7 38  1  0
  7 39  1  0
  8 40  1  0
  8 41  1  0
 11 42  1  0
 12 43  1  0
 13 44  1  0
 14 45  1  0
 17 46  1  0
 17 47  1  0
 17 48  1  0
 19 49  1  0
 20 50  1  0
 23 51  1  0
M  CHG  3   3   1   8   1  16   1
M  END
>  <UniqueID>  (21) 
21

>  <SMILES>  (21) 
CC[N+](C)(C)CC[NH2+]c1c2ccccc2[n+](C)c2ccc(F)cc12

>  <Energy>  (21) 
97.00541336501314

>  <Genealogy>  (21) 
CC[N+](C)(C)CC[NH2+]c1c2ccccc2[n+](C)c2ccc(F)cc12 (protonated)
CC[N+](C)(C)CC[NH2+]c1c2ccccc2[n+](C)c2ccc(F)cc12 (3D coordinates assigned)
CC[N+](C)(C)CC[NH2+]c1c2ccccc2[n+](C)c2ccc(F)cc12 (optimized conformer: 97.00541336501314 kcal/mol)

>  <smiles>  (21) 
CC[N+](C)(C)CCNc1c2ccccc2[n+](C)c2ccc(F)cc12

>  <score_type>  (21) 
oracle

>  <origin>  (21) 
adg

>  <m_score__min__energy>  (21) 
-6.2599999999999998

>  <m_primary>  (21) 
energy

$$$$
21:0
     RDKit          3D

 54 57  0  0  0  0  0  0  0  0999 V2000
   -4.4620   14.3360  -32.3380 C   0  0  0  0  0  0  0  0  0  0  0  0
   -4.9410   14.1640  -33.7800 C   0  0  0  0  0  0  0  0  0  0  0  0
   -3.9280   14.6120  -34.7600 N   0  0  0  0  0  0  0  0  0  0  0  0
   -3.8730   13.6910  -35.9080 C   0  0  0  0  0  0  0  0  0  0  0  0
   -2.5810   14.8760  -34.1940 C   0  0  0  0  0  0  0  0  0  0  0  0
   -2.1770   16.3660  -34.1620 C   0  0  0  0  0  0  0  0  0  0  0  0
   -3.2060   17.1940  -34.8120 N   0  0  0  0  0  0  0  0  0  0  0  0
   -3.5780   18.3150  -33.9610 C   0  0  0  0  0  0  0  0  0  0  0  0
   -4.8720   18.3770  -33.3810 C   0  0  0  0  0  0  0  0  0  0  0  0
   -5.7860   17.2970  -33.4700 C   0  0  0  0  0  0  0  0  0  0  0  0
   -7.0640   17.3880  -32.9240 C   0  0  0  0  0  0  0  0  0  0  0  0
   -7.4650   18.5470  -32.2720 C   0  0  0  0  0  0  0  0  0  0  0  0
   -9.0780   18.6570  -31.5910 Cl  0  0  0  0  0  0  0  0  0  0  0  0
   -6.5810   19.6160  -32.1480 C   0  0  0  0  0  0  0  0  0  0  0  0
   -5.2720   19.5450  -32.6850 C   0  0  0  0  0  0  0  0  0  0  0  0
   -4.3610   20.6170  -32.5390 C   0  0  0  0  0  0  0  0  0  0  0  0
   -4.8090   21.8490  -31.8350 C   0  0  0  0  0  0  0  0  0  0  0  0
   -5.7390   22.6980  -32.4550 C   0  0  0  0  0  0  0  0  0  0  0  0
   -6.1710   23.8600  -31.8100 C   0  0  0  0  0  0  0  0  0  0  0  0
   -5.6780   24.1810  -30.5440 C   0  0  0  0  0  0  0  0  0  0  0  0
   -4.7520   23.3420  -29.9180 C   0  0  0  0  0  0  0  0  0  0  0  0
   -4.3140   22.1760  -30.5570 C   0  0  0  0  0  0  0  0  0  0  0  0
   -3.1480   21.1420  -29.7400 Cl  0  0  0  0  0  0  0  0  0  0  0  0
   -3.0710   20.5120  -33.0220 N   0  0  0  0  0  0  0  0  0  0  0  0
   -2.1790   21.5460  -32.8250 C   0  0  0  0  0  0  0  0  0  0  0  0
   -0.8640   21.4690  -33.2640 C   0  0  0  0  0  0  0  0  0  0  0  0
   -0.4270   20.3270  -33.9070 C   0  0  0  0  0  0  0  0  0  0  0  0
   -1.3110   19.2810  -34.1270 C   0  0  0  0  0  0  0  0  0  0  0  0
   -2.6600   19.3750  -33.7020 C   0  0  0  0  0  0  0  0  0  0  0  0
   -5.2676   14.0467  -31.6471 H   0  0  0  0  0  0  0  0  0  0  0  0
   -3.5834   13.6972  -32.1648 H   0  0  0  0  0  0  0  0  0  0  0  0
   -4.1905   15.3878  -32.1648 H   0  0  0  0  0  0  0  0  0  0  0  0
   -5.1594   13.1005  -33.9567 H   0  0  0  0  0  0  0  0  0  0  0  0
   -5.8398   14.7838  -33.9146 H   0  0  0  0  0  0  0  0  0  0  0  0
   -3.8111   12.6548  -35.5441 H   0  0  0  0  0  0  0  0  0  0  0  0
   -4.7799   13.8116  -36.5186 H   0  0  0  0  0  0  0  0  0  0  0  0
   -2.9869   13.9187  -36.5186 H   0  0  0  0  0  0  0  0  0  0  0  0
   -2.5612   14.4931  -33.1630 H   0  0  0  0  0  0  0  0  0  0  0  0
   -1.8610   14.3723  -34.8557 H   0  0  0  0  0  0  0  0  0  0  0  0
   -2.0614   16.6872  -33.1163 H   0  0  0  0  0  0  0  0  0  0  0  0
   -1.2276   16.4886  -34.7039 H   0  0  0  0  0  0  0  0  0  0  0  0
   -4.0410   16.6170  -35.0520 H   0  0  0  0  0  0  0  0  0  0  0  0
   -2.8750   17.5260  -35.7450 H   0  0  0  0  0  0  0  0  0  0  0  0
   -5.4805   16.3710  -33.9792 H   0  0  0  0  0  0  0  0  0  0  0  0
   -7.7582   16.5390  -33.0094 H   0  0  0  0  0  0  0  0  0  0  0  0
   -6.9038   20.5286  -31.6256 H   0  0  0  0  0  0  0  0  0  0  0  0
   -6.1293   22.4477  -33.4525 H   0  0  0  0  0  0  0  0  0  0  0  0
   -6.8999   24.5221  -32.3001 H   0  0  0  0  0  0  0  0  0  0  0  0
   -6.0191   25.0962  -30.0381 H   0  0  0  0  0  0  0  0  0  0  0  0
   -4.3662   23.5986  -28.9203 H   0  0  0  0  0  0  0  0  0  0  0  0
   -2.5184   22.4549  -32.3067 H   0  0  0  0  0  0  0  0  0  0  0  0
   -0.1753   22.3111  -33.1010 H   0  0  0  0  0  0  0  0  0  0  0  0
    0.6174   20.2476  -34.2430 H   0  0  0  0  0  0  0  0  0  0  0  0
   -0.9620   18.3703  -34.6359 H   0  0  0  0  0  0  0  0  0  0  0  0
  1  2  1  0
  2  3  1  0
  3  4  1  0
  3  5  1  0
  5  6  1  0
  6  7  1  0
  7  8  1  0
  8  9  2  0
  9 10  1  0
 10 11  2  0
 11 12  1  0
 12 13  1  0
 12 14  2  0
 14 15  1  0
 15 16  2  0
 16 17  1  0
 17 18  2  0
 18 19  1  0
 19 20  2  0
 20 21  1  0
 21 22  2  0
 22 23  1  0
 16 24  1  0
 24 25  2  0
 25 26  1  0
 26 27  2  0
 27 28  1  0
 28 29  2  0
 29  8  1  0
 15  9  1  0
 22 17  1  0
 29 24  1  0
  1 30  1  0
  1 31  1  0
  1 32  1  0
  2 33  1  0
  2 34  1  0
  4 35  1  0
  4 36  1  0
  4 37  1  0
  5 38  1  0
  5 39  1  0
  6 40  1  0
  6 41  1  0
  7 42  1  0
  7 43  1  0
 10 44  1  0
 11 45  1  0
 14 46  1  0
 18 47  1  0
 19 48  1  0
 20 49  1  0
 21 50  1  0
 25 51  1  0
 26 52  1  0
 27 53  1  0
 28 54  1  0
M  CHG  2   7   1  24   1
M  END
>  <UniqueID>  (22) 
22

>  <SMILES>  (22) 
CCN(C)CC[NH2+]c1c2ccc(Cl)cc2c(-c2ccccc2Cl)[n+]2ccccc12

>  <Energy>  (22) 
88.89219587977752

>  <Genealogy>  (22) 
CCN(C)CC[NH2+]c1c2ccc(Cl)cc2c(-c2ccccc2Cl)[n+]2ccccc12 (protonated)
CCN(C)CC[NH2+]c1c2ccc(Cl)cc2c(-c2ccccc2Cl)[n+]2ccccc12 (3D coordinates assigned)
CCN(C)CC[NH2+]c1c2ccc(Cl)cc2c(-c2ccccc2Cl)[n+]2ccccc12 (optimized conformer: 88.89219587977752 kcal/mol)

>  <smiles>  (22) 
CCN(C)CCNc1c2ccc(Cl)cc2c(-c2ccccc2Cl)[n+]2ccccc12

>  <score_type>  (22) 
oracle

>  <origin>  (22) 
adg

>  <m_score__min__energy>  (22) 
-8.0199999999999996

>  <m_primary>  (22) 
energy

$$$$
22:0
     RDKit          3D

 57 60  0  0  0  0  0  0  0  0999 V2000
   -3.5060   22.3600  -27.8940 C   0  0  0  0  0  0  0  0  0  0  0  0
   -3.8750   23.7040  -27.2630 C   0  0  0  0  0  0  0  0  0  0  0  0
   -4.6210   24.5720  -28.1910 N   0  0  0  0  0  0  0  0  0  0  0  0
   -4.1000   24.5290  -29.5770 C   0  0  0  0  0  0  0  0  0  0  0  0
   -5.2110   24.7020  -30.6270 C   0  0  0  0  0  0  0  0  0  0  0  0
   -6.1590   23.5860  -30.5890 N   0  0  0  0  0  0  0  0  0  0  0  0
   -6.0880   22.4620  -31.4880 C   0  0  0  0  0  0  0  0  0  0  0  0
   -4.8820   22.1620  -32.1230 C   0  0  0  0  0  0  0  0  0  0  0  0
   -4.8040   21.0970  -33.0110 C   0  0  0  0  0  0  0  0  0  0  0  0
   -5.8930   20.3150  -33.2830 N   0  0  0  0  0  0  0  0  0  0  0  0
   -5.6900   19.1690  -34.1970 C   0  0  0  0  0  0  0  0  0  0  0  0
   -5.3740   17.8530  -33.4850 C   0  0  0  0  0  0  0  0  0  0  0  0
   -5.9570   17.5890  -32.2300 C   0  0  0  0  0  0  0  0  0  0  0  0
   -5.7120   16.3940  -31.5750 C   0  0  0  0  0  0  0  0  0  0  0  0
   -4.9170   15.4250  -32.1730 C   0  0  0  0  0  0  0  0  0  0  0  0
   -4.7020   14.1990  -31.5210 C   0  0  0  0  0  0  0  0  0  0  0  0
   -3.9270   13.2110  -32.1210 C   0  0  0  0  0  0  0  0  0  0  0  0
   -3.3740   13.4290  -33.3800 C   0  0  0  0  0  0  0  0  0  0  0  0
   -3.5780   14.6420  -34.0410 C   0  0  0  0  0  0  0  0  0  0  0  0
   -4.3380   15.6810  -33.4420 C   0  0  0  0  0  0  0  0  0  0  0  0
   -4.5290   16.9110  -34.0560 N   0  0  0  0  0  0  0  0  0  0  0  0
   -3.8490   17.1890  -35.3410 C   0  0  0  0  0  0  0  0  0  0  0  0
   -7.1170   20.6040  -32.7060 C   0  0  0  0  0  0  0  0  0  0  0  0
   -8.2860   19.8730  -33.0320 C   0  0  0  0  0  0  0  0  0  0  0  0
   -9.5030   20.1550  -32.4130 C   0  0  0  0  0  0  0  0  0  0  0  0
   -9.5890   21.1670  -31.4630 C   0  0  0  0  0  0  0  0  0  0  0  0
   -8.4640   21.9250  -31.1430 C   0  0  0  0  0  0  0  0  0  0  0  0
   -7.2270   21.6780  -31.7740 C   0  0  0  0  0  0  0  0  0  0  0  0
   -3.3043   21.6254  -27.1005 H   0  0  0  0  0  0  0  0  0  0  0  0
   -4.3403   22.0063  -28.5176 H   0  0  0  0  0  0  0  0  0  0  0  0
   -2.6081   22.4819  -28.5176 H   0  0  0  0  0  0  0  0  0  0  0  0
   -4.4969   23.5188  -26.3748 H   0  0  0  0  0  0  0  0  0  0  0  0
   -2.9399   24.2194  -26.9986 H   0  0  0  0  0  0  0  0  0  0  0  0
   -5.6120   24.2340  -28.2030 H   0  0  0  0  0  0  0  0  0  0  0  0
   -4.6450   25.5470  -27.8080 H   0  0  0  0  0  0  0  0  0  0  0  0
   -3.3654   25.3379  -29.7035 H   0  0  0  0  0  0  0  0  0  0  0  0
   -3.6424   23.5409  -29.7327 H   0  0  0  0  0  0  0  0  0  0  0  0
   -5.7518   25.6384  -30.4252 H   0  0  0  0  0  0  0  0  0  0  0  0
   -4.7455   24.7278  -31.6233 H   0  0  0  0  0  0  0  0  0  0  0  0
   -6.8990   23.6050  -29.8520 H   0  0  0  0  0  0  0  0  0  0  0  0
   -3.9894   22.7717  -31.9193 H   0  0  0  0  0  0  0  0  0  0  0  0
   -3.8465   20.8777  -33.5060 H   0  0  0  0  0  0  0  0  0  0  0  0
   -6.6077   19.0309  -34.7875 H   0  0  0  0  0  0  0  0  0  0  0  0
   -4.8168   19.4106  -34.8208 H   0  0  0  0  0  0  0  0  0  0  0  0
   -6.6134   18.3397  -31.7658 H   0  0  0  0  0  0  0  0  0  0  0  0
   -6.1470   16.2122  -30.5812 H   0  0  0  0  0  0  0  0  0  0  0  0
   -5.1483   14.0193  -30.5318 H   0  0  0  0  0  0  0  0  0  0  0  0
   -3.7514   12.2579  -31.6006 H   0  0  0  0  0  0  0  0  0  0  0  0
   -2.7727   12.6409  -33.8569 H   0  0  0  0  0  0  0  0  0  0  0  0
   -3.1437   14.7948  -35.0400 H   0  0  0  0  0  0  0  0  0  0  0  0
   -2.8472   17.5986  -35.1446 H   0  0  0  0  0  0  0  0  0  0  0  0
   -3.7574   16.2562  -35.9167 H   0  0  0  0  0  0  0  0  0  0  0  0
   -4.4371   17.9189  -35.9167 H   0  0  0  0  0  0  0  0  0  0  0  0
   -8.2327   19.0719  -33.7839 H   0  0  0  0  0  0  0  0  0  0  0  0
  -10.3992   19.5744  -32.6772 H   0  0  0  0  0  0  0  0  0  0  0  0
  -10.5475   21.3698  -30.9628 H   0  0  0  0  0  0  0  0  0  0  0  0
   -8.5416   22.7239  -30.3908 H   0  0  0  0  0  0  0  0  0  0  0  0
  1  2  1  0
  2  3  1  0
  3  4  1  0
  4  5  1  0
  5  6  1  0
  6  7  1  0
  7  8  2  0
  8  9  1  0
  9 10  2  0
 10 11  1  0
 11 12  1  0
 12 13  2  0
 13 14  1  0
 14 15  2  0
 15 16  1  0
 16 17  2  0
 17 18  1  0
 18 19  2  0
 19 20  1  0
 20 21  2  0
 21 22  1  0
 10 23  1  0
 23 24  2  0
 24 25  1  0
 25 26  2  0
 26 27  1  0
 27 28  2  0
 28  7  1  0
 21 12  1  0
 28 23  1  0
 20 15  1  0
  1 29  1  0
  1 30  1  0
  1 31  1  0
  2 32  1  0
  2 33  1  0
  3 34  1  0
  3 35  1  0
  4 36  1  0
  4 37  1  0
  5 38  1  0
  5 39  1  0
  6 40  1  0
  8 41  1  0
  9 42  1  0
 11 43  1  0
 11 44  1  0
 13 45  1  0
 14 46  1  0
 16 47  1  0
 17 48  1  0
 18 49  1  0
 19 50  1  0
 22 51  1  0
 22 52  1  0
 22 53  1  0
 24 54  1  0
 25 55  1  0
 26 56  1  0
 27 57  1  0
M  CHG  3   3   1  10   1  21   1
M  END
>  <UniqueID>  (23) 
23

>  <SMILES>  (23) 
CC[NH2+]CCNc1cc[n+](Cc2ccc3ccccc3[n+]2C)c2ccccc12

>  <Energy>  (23) 
86.37049331782482

>  <Genealogy>  (23) 
CC[NH2+]CCNc1cc[n+](Cc2ccc3ccccc3[n+]2C)c2ccccc12 (protonated)
CC[NH2+]CCNc1cc[n+](Cc2ccc3ccccc3[n+]2C)c2ccccc12 (3D coordinates assigned)
CC[NH2+]CCNc1cc[n+](Cc2ccc3ccccc3[n+]2C)c2ccccc12 (optimized conformer: 86.37049331782482 kcal/mol)

>  <smiles>  (23) 
CCNCCNc1cc[n+](Cc2ccc3ccccc3[n+]2C)c2ccccc12

>  <score_type>  (23) 
oracle

>  <origin>  (23) 
adg

>  <m_score__min__energy>  (23) 
-7

>  <m_primary>  (23) 
energy

$$$$
23:0
     RDKit          3D

 33 35  0  0  0  0  0  0  0  0999 V2000
   -8.9360   18.1720  -31.6000 C   0  0  0  0  0  0  0  0  0  0  0  0
   -8.4160   19.5500  -31.8860 C   0  0  0  0  0  0  0  0  0  0  0  0
   -7.3560   19.7330  -32.7860 C   0  0  0  0  0  0  0  0  0  0  0  0
   -6.8460   21.0130  -33.0250 C   0  0  0  0  0  0  0  0  0  0  0  0
   -7.3780   22.1270  -32.3540 C   0  0  0  0  0  0  0  0  0  0  0  0
   -6.8750   23.4510  -32.6250 N   0  0  0  0  0  0  0  0  0  0  0  0
   -5.6980   23.6920  -31.8300 C   0  0  0  0  0  0  0  0  0  0  0  0
   -5.5000   24.9490  -31.1950 C   0  0  0  0  0  0  0  0  0  0  0  0
   -4.4030   25.1710  -30.4090 N   0  0  0  0  0  0  0  0  0  0  0  0
   -3.5020   24.1720  -30.2440 C   0  0  0  0  0  0  0  0  0  0  0  0
   -2.3880   24.2190  -29.4910 N   0  0  0  0  0  0  0  0  0  0  0  0
   -1.8720   22.9700  -29.6500 C   0  0  0  0  0  0  0  0  0  0  0  0
   -2.6190   22.1820  -30.4650 N   0  0  0  0  0  0  0  0  0  0  0  0
   -2.3860   20.7810  -30.7980 C   0  0  0  0  0  0  0  0  0  0  0  0
   -3.6510   22.9560  -30.8250 C   0  0  0  0  0  0  0  0  0  0  0  0
   -4.7470   22.6640  -31.6300 C   0  0  0  0  0  0  0  0  0  0  0  0
   -8.4340   21.9390  -31.4450 C   0  0  0  0  0  0  0  0  0  0  0  0
   -8.9430   20.6590  -31.2060 C   0  0  0  0  0  0  0  0  0  0  0  0
   -8.9933   18.0202  -30.5120 H   0  0  0  0  0  0  0  0  0  0  0  0
   -9.9383   18.0599  -32.0391 H   0  0  0  0  0  0  0  0  0  0  0  0
   -8.2577   17.4257  -32.0391 H   0  0  0  0  0  0  0  0  0  0  0  0
   -6.9238   18.8656  -33.3063 H   0  0  0  0  0  0  0  0  0  0  0  0
   -6.0234   21.1485  -33.7426 H   0  0  0  0  0  0  0  0  0  0  0  0
   -6.6470   23.5490  -33.6420 H   0  0  0  0  0  0  0  0  0  0  0  0
   -7.6080   24.1670  -32.4080 H   0  0  0  0  0  0  0  0  0  0  0  0
   -6.2379   25.7522  -31.3377 H   0  0  0  0  0  0  0  0  0  0  0  0
   -0.9431   22.6327  -29.1668 H   0  0  0  0  0  0  0  0  0  0  0  0
   -2.2886   20.1953  -29.8720 H   0  0  0  0  0  0  0  0  0  0  0  0
   -3.2328   20.3983  -31.3866 H   0  0  0  0  0  0  0  0  0  0  0  0
   -1.4609   20.6930  -31.3866 H   0  0  0  0  0  0  0  0  0  0  0  0
   -4.8694   21.6735  -32.0925 H   0  0  0  0  0  0  0  0  0  0  0  0
   -8.8625   22.8046  -30.9185 H   0  0  0  0  0  0  0  0  0  0  0  0
   -9.7597   20.5205  -30.4822 H   0  0  0  0  0  0  0  0  0  0  0  0
  1  2  1  0
  2  3  2  0
  3  4  1  0
  4  5  2  0
  5  6  1  0
  6  7  1  0
  7  8  2  0
  8  9  1  0
  9 10  2  0
 10 11  1  0
 11 12  2  0
 12 13  1  0
 13 14  1  0
 13 15  1  0
 15 16  2  0
  5 17  1  0
 17 18  2  0
 18  2  1  0
 16  7  1  0
 15 10  1  0
  1 19  1  0
  1 20  1  0
  1 21  1  0
  3 22  1  0
  4 23  1  0
  6 24  1  0
  6 25  1  0
  8 26  1  0
 12 27  1  0
 14 28  1  0
 14 29  1  0
 14 30  1  0
 16 31  1  0
 17 32  1  0
 18 33  1  0
M  CHG  1   6   1
M  END
>  <UniqueID>  (24) 
24

>  <SMILES>  (24) 
Cc1ccc([NH2+]c2cnc3ncn(C)c3c2)cc1

>  <Energy>  (24) 
74.97595328766678

>  <Genealogy>  (24) 
Cc1ccc([NH2+]c2cnc3ncn(C)c3c2)cc1 (protonated)
Cc1ccc([NH2+]c2cnc3ncn(C)c3c2)cc1 (3D coordinates assigned)
Cc1ccc([NH2+]c2cnc3ncn(C)c3c2)cc1 (optimized conformer: 74.97595328766678 kcal/mol)

>  <smiles>  (24) 
Cc1ccc(Nc2cnc3ncn(C)c3c2)cc1

>  <score_type>  (24) 
oracle

>  <origin>  (24) 
adg

>  <m_score__min__energy>  (24) 
-6.5999999999999996

>  <m_primary>  (24) 
energy

$$$$
24:0
     RDKit          3D

 69 71  0  0  0  0  0  0  0  0999 V2000
    2.5670   24.1610  -35.7560 C   0  0  0  0  0  0  0  0  0  0  0  0
    1.0740   24.2690  -36.0780 C   0  0  0  0  0  0  0  0  0  0  0  0
    0.2950   23.1450  -35.5290 N   0  0  0  0  0  0  0  0  0  0  0  0
    1.0240   21.8670  -35.5650 C   0  0  0  0  0  0  0  0  0  0  0  0
    0.0880   20.7280  -35.9960 C   0  0  0  0  0  0  0  0  0  0  0  0
   -0.7380   20.1650  -34.8230 C   0  0  0  0  0  0  0  0  0  0  0  0
   -1.5990   21.1970  -34.2060 N   0  0  0  0  0  0  0  0  0  0  0  0
   -1.5340   21.1390  -32.7590 C   0  0  0  0  0  0  0  0  0  0  0  0
   -0.3260   20.6820  -32.2030 C   0  0  0  0  0  0  0  0  0  0  0  0
   -0.0710   20.7860  -30.8490 C   0  0  0  0  0  0  0  0  0  0  0  0
   -1.0040   21.3730  -30.0110 C   0  0  0  0  0  0  0  0  0  0  0  0
   -2.2520   21.8230  -30.4990 C   0  0  0  0  0  0  0  0  0  0  0  0
   -2.5470   21.6810  -31.8920 C   0  0  0  0  0  0  0  0  0  0  0  0
   -3.8300   22.0920  -32.3500 C   0  0  0  0  0  0  0  0  0  0  0  0
   -4.4440   21.3570  -33.4360 N   0  0  0  0  0  0  0  0  0  0  0  0
   -4.7430   19.9210  -33.4480 C   0  0  0  0  0  0  0  0  0  0  0  0
   -6.2440   19.6650  -33.6170 C   0  0  0  0  0  0  0  0  0  0  0  0
   -7.0740   20.5400  -32.6640 C   0  0  0  0  0  0  0  0  0  0  0  0
   -8.4900   20.1050  -32.6360 N   0  0  0  0  0  0  0  0  0  0  0  0
   -8.6210   18.7980  -31.9610 C   0  0  0  0  0  0  0  0  0  0  0  0
   -9.3340   21.1190  -31.9610 C   0  0  0  0  0  0  0  0  0  0  0  0
   -8.5480   21.8340  -30.8630 C   0  0  0  0  0  0  0  0  0  0  0  0
   -4.6000   22.9580  -31.5230 C   0  0  0  0  0  0  0  0  0  0  0  0
   -5.7360   23.6600  -31.9920 C   0  0  0  0  0  0  0  0  0  0  0  0
   -6.4520   24.5210  -31.1630 C   0  0  0  0  0  0  0  0  0  0  0  0
   -6.0500   24.7190  -29.8520 C   0  0  0  0  0  0  0  0  0  0  0  0
   -4.9420   24.0420  -29.3560 C   0  0  0  0  0  0  0  0  0  0  0  0
   -4.2160   23.1300  -30.1640 C   0  0  0  0  0  0  0  0  0  0  0  0
   -3.1670   22.4050  -29.6480 N   0  0  0  0  0  0  0  0  0  0  0  0
   -3.0210   22.2560  -28.1820 C   0  0  0  0  0  0  0  0  0  0  0  0
    2.7070   24.1509  -34.6650 H   0  0  0  0  0  0  0  0  0  0  0  0
    2.9685   23.2315  -36.1858 H   0  0  0  0  0  0  0  0  0  0  0  0
    3.0981   25.0231  -36.1858 H   0  0  0  0  0  0  0  0  0  0  0  0
    0.6883   25.2069  -35.6518 H   0  0  0  0  0  0  0  0  0  0  0  0
    0.9659   24.2472  -37.1725 H   0  0  0  0  0  0  0  0  0  0  0  0
   -0.6010   23.0450  -36.0640 H   0  0  0  0  0  0  0  0  0  0  0  0
    1.8550   21.9439  -36.2816 H   0  0  0  0  0  0  0  0  0  0  0  0
    1.4112   21.6489  -34.5588 H   0  0  0  0  0  0  0  0  0  0  0  0
   -0.6027   21.1102  -36.7621 H   0  0  0  0  0  0  0  0  0  0  0  0
    0.7137   19.9115  -36.3856 H   0  0  0  0  0  0  0  0  0  0  0  0
   -1.3739   19.3486  -35.1960 H   0  0  0  0  0  0  0  0  0  0  0  0
   -0.0368   19.8045  -34.0559 H   0  0  0  0  0  0  0  0  0  0  0  0
   -1.2720   22.1470  -34.4960 H   0  0  0  0  0  0  0  0  0  0  0  0
   -2.5740   21.1320  -34.5610 H   0  0  0  0  0  0  0  0  0  0  0  0
    0.4325   20.2319  -32.8603 H   0  0  0  0  0  0  0  0  0  0  0  0
    0.8738   20.4022  -30.4365 H   0  0  0  0  0  0  0  0  0  0  0  0
   -0.7691   21.4916  -28.9430 H   0  0  0  0  0  0  0  0  0  0  0  0
   -4.5960   21.8880  -34.3240 H   0  0  0  0  0  0  0  0  0  0  0  0
   -4.2032   19.4498  -34.2826 H   0  0  0  0  0  0  0  0  0  0  0  0
   -4.4244   19.4926  -32.4863 H   0  0  0  0  0  0  0  0  0  0  0  0
   -6.5313   19.8935  -34.6539 H   0  0  0  0  0  0  0  0  0  0  0  0
   -6.4436   18.6096  -33.3796 H   0  0  0  0  0  0  0  0  0  0  0  0
   -6.6548   20.4638  -31.6498 H   0  0  0  0  0  0  0  0  0  0  0  0
   -7.0353   21.5795  -33.0218 H   0  0  0  0  0  0  0  0  0  0  0  0
   -8.6063   18.9452  -30.8710 H   0  0  0  0  0  0  0  0  0  0  0  0
   -9.5708   18.3272  -32.2546 H   0  0  0  0  0  0  0  0  0  0  0  0
   -7.7835   18.1481  -32.2546 H   0  0  0  0  0  0  0  0  0  0  0  0
   -9.6723   21.8581  -32.7022 H   0  0  0  0  0  0  0  0  0  0  0  0
  -10.1971   20.6125  -31.5045 H   0  0  0  0  0  0  0  0  0  0  0  0
   -8.9107   21.5041  -29.8783 H   0  0  0  0  0  0  0  0  0  0  0  0
   -7.4794   21.5919  -30.9601 H   0  0  0  0  0  0  0  0  0  0  0  0
   -8.6881   22.9207  -30.9601 H   0  0  0  0  0  0  0  0  0  0  0  0
   -6.0608   23.5228  -33.0340 H   0  0  0  0  0  0  0  0  0  0  0  0
   -7.3384   25.0447  -31.5502 H   0  0  0  0  0  0  0  0  0  0  0  0
   -6.6073   25.4115  -29.2041 H   0  0  0  0  0  0  0  0  0  0  0  0
   -4.6224   24.2167  -28.3180 H   0  0  0  0  0  0  0  0  0  0  0  0
   -3.7034   22.9525  -27.6729 H   0  0  0  0  0  0  0  0  0  0  0  0
   -3.2671   21.2238  -27.8920 H   0  0  0  0  0  0  0  0  0  0  0  0
   -1.9840   22.4810  -27.8920 H   0  0  0  0  0  0  0  0  0  0  0  0
  1  2  1  0
  2  3  1  0
  3  4  1  0
  4  5  1  0
  5  6  1  0
  6  7  1  0
  7  8  1  0
  8  9  2  0
  9 10  1  0
 10 11  2  0
 11 12  1  0
 12 13  2  0
 13 14  1  0
 14 15  1  0
 15 16  1  0
 16 17  1  0
 17 18  1  0
 18 19  1  0
 19 20  1  0
 19 21  1  0
 21 22  1  0
 14 23  2  0
 23 24  1  0
 24 25  2  0
 25 26  1  0
 26 27  2  0
 27 28  1  0
 28 29  2  0
 29 30  1  0
 13  8  1  0
 28 23  1  0
 29 12  1  0
  1 31  1  0
  1 32  1  0
  1 33  1  0
  2 34  1  0
  2 35  1  0
  3 36  1  0
  4 37  1  0
  4 38  1  0
  5 39  1  0
  5 40  1  0
  6 41  1  0
  6 42  1  0
  7 43  1  0
  7 44  1  0
  9 45  1  0
 10 46  1  0
 11 47  1  0
 15 48  1  0
 16 49  1  0
 16 50  1  0
 17 51  1  0
 17 52  1  0
 18 53  1  0
 18 54  1  0
 20 55  1  0
 20 56  1  0
 20 57  1  0
 21 58  1  0
 21 59  1  0
 22 60  1  0
 22 61  1  0
 22 62  1  0
 24 63  1  0
 25 64  1  0
 26 65  1  0
 27 66  1  0
 30 67  1  0
 30 68  1  0
 30 69  1  0
M  CHG  2   7   1  29   1
M  END
>  <UniqueID>  (25) 
25

>  <SMILES>  (25) 
CCNCCC[NH2+]c1cccc2c1c(NCCCN(C)CC)c1ccccc1[n+]2C

>  <Energy>  (25) 
110.22656677534734

>  <Genealogy>  (25) 
CCNCCC[NH2+]c1cccc2c1c(NCCCN(C)CC)c1ccccc1[n+]2C (protonated)
CCNCCC[NH2+]c1cccc2c1c(NCCCN(C)CC)c1ccccc1[n+]2C (3D coordinates assigned)
CCNCCC[NH2+]c1cccc2c1c(NCCCN(C)CC)c1ccccc1[n+]2C (optimized conformer: 110.22656677534734 kcal/mol)

>  <smiles>  (25) 
CCNCCCNc1cccc2c1c(NCCCN(C)CC)c1ccccc1[n+]2C

>  <score_type>  (25) 
oracle

>  <origin>  (25) 
adg

>  <m_score__min__energy>  (25) 
-8.3599999999999994

>  <m_primary>  (25) 
energy

$$$$
25:0
     RDKit          3D

 26 27  0  0  0  0  0  0  0  0999 V2000
   -5.3620   24.9560  -29.7690 C   0  0  0  0  0  0  0  0  0  0  0  0
   -4.9900   24.3570  -31.0620 N   0  0  0  0  0  0  0  0  0  0  0  0
   -4.2410   23.1060  -30.8650 C   0  0  0  0  0  0  0  0  0  0  0  0
   -6.1550   24.1790  -31.9550 C   0  0  0  0  0  0  0  0  0  0  0  0
   -6.6400   22.7570  -32.0280 C   0  0  0  0  0  0  0  0  0  0  0  0
   -6.0740   21.8060  -32.8140 N   0  0  0  0  0  0  0  0  0  0  0  0
   -6.8300   20.7230  -32.5810 C   0  0  0  0  0  0  0  0  0  0  0  0
   -6.7120   19.4460  -33.1240 C   0  0  0  0  0  0  0  0  0  0  0  0
   -7.6460   18.4770  -32.7110 C   0  0  0  0  0  0  0  0  0  0  0  0
   -8.6590   18.8080  -31.7800 C   0  0  0  0  0  0  0  0  0  0  0  0
   -8.7470   20.1110  -31.2530 C   0  0  0  0  0  0  0  0  0  0  0  0
   -7.8060   21.0430  -31.6850 C   0  0  0  0  0  0  0  0  0  0  0  0
   -7.6830   22.3020  -31.3490 O   0  0  0  0  0  0  0  0  0  0  0  0
   -4.9743   24.3316  -28.9506 H   0  0  0  0  0  0  0  0  0  0  0  0
   -4.9318   25.9657  -29.6953 H   0  0  0  0  0  0  0  0  0  0  0  0
   -6.4578   25.0180  -29.6953 H   0  0  0  0  0  0  0  0  0  0  0  0
   -4.1257   22.9134  -29.7882 H   0  0  0  0  0  0  0  0  0  0  0  0
   -4.7893   22.2733  -31.3298 H   0  0  0  0  0  0  0  0  0  0  0  0
   -3.2481   23.1960  -31.3298 H   0  0  0  0  0  0  0  0  0  0  0  0
   -6.9772   24.8093  -31.5853 H   0  0  0  0  0  0  0  0  0  0  0  0
   -5.8347   24.4652  -32.9676 H   0  0  0  0  0  0  0  0  0  0  0  0
   -5.2520   21.8960  -33.4510 H   0  0  0  0  0  0  0  0  0  0  0  0
   -5.9197   19.2039  -33.8476 H   0  0  0  0  0  0  0  0  0  0  0  0
   -7.5879   17.4554  -33.1148 H   0  0  0  0  0  0  0  0  0  0  0  0
   -9.3830   18.0419  -31.4656 H   0  0  0  0  0  0  0  0  0  0  0  0
   -9.5286   20.3824  -30.5282 H   0  0  0  0  0  0  0  0  0  0  0  0
  1  2  1  0
  2  3  1  0
  2  4  1  0
  4  5  1  0
  5  6  2  0
  6  7  1  0
  7  8  2  0
  8  9  1  0
  9 10  2  0
 10 11  1  0
 11 12  2  0
 12 13  1  0
 13  5  1  0
 12  7  1  0
  1 14  1  0
  1 15  1  0
  1 16  1  0
  3 17  1  0
  3 18  1  0
  3 19  1  0
  4 20  1  0
  4 21  1  0
  6 22  1  0
  8 23  1  0
  9 24  1  0
 10 25  1  0
 11 26  1  0
M  CHG  1   6   1
M  END
>  <UniqueID>  (26) 
26

>  <SMILES>  (26) 
CN(C)Cc1[nH+]c2ccccc2o1

>  <Energy>  (26) 
65.72961177148329

>  <Genealogy>  (26) 
CN(C)Cc1[nH+]c2ccccc2o1 (protonated)
CN(C)Cc1[nH+]c2ccccc2o1 (3D coordinates assigned)
CN(C)Cc1[nH+]c2ccccc2o1 (optimized conformer: 65.72961177148329 kcal/mol)

>  <smiles>  (26) 
CN(C)Cc1nc2ccccc2o1

>  <score_type>  (26) 
oracle

>  <origin>  (26) 
adg

>  <m_score__min__energy>  (26) 
-5.0199999999999996

>  <m_primary>  (26) 
energy

$$$$
26:0
     RDKit          3D

 61 64  0  0  0  0  0  0  0  0999 V2000
    0.6640   19.7980  -36.4860 C   0  0  0  0  0  0  0  0  0  0  0  0
    0.5650   21.2080  -35.8950 C   0  0  0  0  0  0  0  0  0  0  0  0
   -0.6030   21.3660  -35.0110 N   0  0  0  0  0  0  0  0  0  0  0  0
   -0.3470   20.8500  -33.6550 C   0  0  0  0  0  0  0  0  0  0  0  0
   -1.6540   20.5360  -32.9150 C   0  0  0  0  0  0  0  0  0  0  0  0
   -2.8100   20.6890  -33.7980 N   0  0  0  0  0  0  0  0  0  0  0  0
   -3.9910   19.9040  -33.5800 C   0  0  0  0  0  0  0  0  0  0  0  0
   -4.0530   18.5340  -33.9090 C   0  0  0  0  0  0  0  0  0  0  0  0
   -2.9730   17.8950  -34.5470 C   0  0  0  0  0  0  0  0  0  0  0  0
   -3.0350   16.5400  -34.9060 C   0  0  0  0  0  0  0  0  0  0  0  0
   -1.9180   15.8970  -35.5700 N   0  0  0  0  0  0  0  0  0  0  0  0
   -2.0430   14.5380  -36.1270 C   0  0  0  0  0  0  0  0  0  0  0  0
   -2.6910   14.5710  -37.5090 C   0  0  0  0  0  0  0  0  0  0  0  0
   -0.6290   16.5950  -35.7000 C   0  0  0  0  0  0  0  0  0  0  0  0
    0.0210   16.8060  -34.3350 C   0  0  0  0  0  0  0  0  0  0  0  0
   -4.2080   15.8240  -34.6310 C   0  0  0  0  0  0  0  0  0  0  0  0
   -5.2910   16.4380  -34.0030 C   0  0  0  0  0  0  0  0  0  0  0  0
   -5.2380   17.7960  -33.6130 C   0  0  0  0  0  0  0  0  0  0  0  0
   -6.3070   18.4080  -32.9730 N   0  0  0  0  0  0  0  0  0  0  0  0
   -7.3360   17.5860  -32.3100 C   0  0  0  0  0  0  0  0  0  0  0  0
   -6.3100   19.7820  -32.8520 C   0  0  0  0  0  0  0  0  0  0  0  0
   -5.1430   20.5050  -33.0930 C   0  0  0  0  0  0  0  0  0  0  0  0
   -5.3530   22.1340  -32.7120 S   0  0  0  0  0  0  0  0  0  0  0  0
   -6.9680   21.9600  -32.2950 C   0  0  0  0  0  0  0  0  0  0  0  0
   -7.8410   22.9780  -31.9170 C   0  0  0  0  0  0  0  0  0  0  0  0
   -9.1880   22.6600  -31.7160 C   0  0  0  0  0  0  0  0  0  0  0  0
   -9.6430   21.3500  -31.9270 C   0  0  0  0  0  0  0  0  0  0  0  0
   -8.7500   20.3360  -32.3120 C   0  0  0  0  0  0  0  0  0  0  0  0
   -7.3810   20.6340  -32.4500 C   0  0  0  0  0  0  0  0  0  0  0  0
    0.7157   19.0615  -35.6706 H   0  0  0  0  0  0  0  0  0  0  0  0
   -0.2223   19.5972  -37.1059 H   0  0  0  0  0  0  0  0  0  0  0  0
    1.5696   19.7230  -37.1059 H   0  0  0  0  0  0  0  0  0  0  0  0
    1.4771   21.4128  -35.3152 H   0  0  0  0  0  0  0  0  0  0  0  0
    0.4512   21.9145  -36.7304 H   0  0  0  0  0  0  0  0  0  0  0  0
   -0.8810   22.3740  -34.9680 H   0  0  0  0  0  0  0  0  0  0  0  0
   -1.3950   20.8220  -35.4300 H   0  0  0  0  0  0  0  0  0  0  0  0
    0.2509   19.9297  -33.7300 H   0  0  0  0  0  0  0  0  0  0  0  0
    0.1924   21.6233  -33.0884 H   0  0  0  0  0  0  0  0  0  0  0  0
   -1.6181   19.5001  -32.5466 H   0  0  0  0  0  0  0  0  0  0  0  0
   -1.7589   21.2413  -32.0774 H   0  0  0  0  0  0  0  0  0  0  0  0
   -2.9330   21.6160  -34.2650 H   0  0  0  0  0  0  0  0  0  0  0  0
   -2.0617   18.4698  -34.7687 H   0  0  0  0  0  0  0  0  0  0  0  0
   -1.0420   14.0895  -36.2096 H   0  0  0  0  0  0  0  0  0  0  0  0
   -2.6783   13.9411  -35.4560 H   0  0  0  0  0  0  0  0  0  0  0  0
   -3.7842   14.6267  -37.4002 H   0  0  0  0  0  0  0  0  0  0  0  0
   -2.3322   15.4520  -38.0613 H   0  0  0  0  0  0  0  0  0  0  0  0
   -2.4235   13.6581  -38.0613 H   0  0  0  0  0  0  0  0  0  0  0  0
    0.0436   15.9935  -36.3292 H   0  0  0  0  0  0  0  0  0  0  0  0
   -0.8088   17.5790  -36.1576 H   0  0  0  0  0  0  0  0  0  0  0  0
   -0.7049   16.5704  -33.5428 H   0  0  0  0  0  0  0  0  0  0  0  0
    0.8955   16.1456  -34.2393 H   0  0  0  0  0  0  0  0  0  0  0  0
    0.3408   17.8541  -34.2393 H   0  0  0  0  0  0  0  0  0  0  0  0
   -4.2752   14.7633  -34.9144 H   0  0  0  0  0  0  0  0  0  0  0  0
   -6.2032   15.8552  -33.8074 H   0  0  0  0  0  0  0  0  0  0  0  0
   -7.2275   17.6726  -31.2188 H   0  0  0  0  0  0  0  0  0  0  0  0
   -8.3346   17.9378  -32.6083 H   0  0  0  0  0  0  0  0  0  0  0  0
   -7.2135   16.5343  -32.6083 H   0  0  0  0  0  0  0  0  0  0  0  0
   -7.4792   24.0077  -31.7799 H   0  0  0  0  0  0  0  0  0  0  0  0
   -9.8929   23.4396  -31.3914 H   0  0  0  0  0  0  0  0  0  0  0  0
  -10.7087   21.1145  -31.7898 H   0  0  0  0  0  0  0  0  0  0  0  0
   -9.1176   19.3172  -32.5041 H   0  0  0  0  0  0  0  0  0  0  0  0
  1  2  1  0
  2  3  1  0
  3  4  1  0
  4  5  1  0
  5  6  1  0
  6  7  1  0
  7  8  2  0
  8  9  1  0
  9 10  2  0
 10 11  1  0
 11 12  1  0
 12 13  1  0
 11 14  1  0
 14 15  1  0
 10 16  1  0
 16 17  2  0
 17 18  1  0
 18 19  2  0
 19 20  1  0
 19 21  1  0
 21 22  2  0
 22 23  1  0
 23 24  1  0
 24 25  2  0
 25 26  1  0
 26 27  2  0
 27 28  1  0
 28 29  2  0
 22  7  1  0
 29 24  1  0
 18  8  1  0
 29 21  1  0
  1 30  1  0
  1 31  1  0
  1 32  1  0
  2 33  1  0
  2 34  1  0
  3 35  1  0
  3 36  1  0
  4 37  1  0
  4 38  1  0
  5 39  1  0
  5 40  1  0
  6 41  1  0
  9 42  1  0
 12 43  1  0
 12 44  1  0
 13 45  1  0
 13 46  1  0
 13 47  1  0
 14 48  1  0
 14 49  1  0
 15 50  1  0
 15 51  1  0
 15 52  1  0
 16 53  1  0
 17 54  1  0
 20 55  1  0
 20 56  1  0
 20 57  1  0
 25 58  1  0
 26 59  1  0
 27 60  1  0
 28 61  1  0
M  CHG  2   3   1  19   1
M  END
>  <UniqueID>  (27) 
27

>  <SMILES>  (27) 
CC[NH2+]CCNc1c2cc(N(CC)CC)ccc2[n+](C)c2c1sc1ccccc12

>  <Energy>  (27) 
117.32251416808512

>  <Genealogy>  (27) 
CC[NH2+]CCNc1c2cc(N(CC)CC)ccc2[n+](C)c2c1sc1ccccc12 (protonated)
CC[NH2+]CCNc1c2cc(N(CC)CC)ccc2[n+](C)c2c1sc1ccccc12 (3D coordinates assigned)
CC[NH2+]CCNc1c2cc(N(CC)CC)ccc2[n+](C)c2c1sc1ccccc12 (optimized conformer: 117.32251416808512 kcal/mol)

>  <smiles>  (27) 
CCNCCNc1c2cc(N(CC)CC)ccc2[n+](C)c2c1sc1ccccc12

>  <score_type>  (27) 
oracle

>  <origin>  (27) 
adg

>  <m_score__min__energy>  (27) 
-7.3700000000000001

>  <m_primary>  (27) 
energy

$$$$
27:0
     RDKit          3D

 45 48  0  0  0  0  0  0  0  0999 V2000
   -3.2180   23.2970  -28.6760 C   0  0  0  0  0  0  0  0  0  0  0  0
   -3.5150   24.5600  -29.4960 C   0  0  0  0  0  0  0  0  0  0  0  0
   -4.2140   24.2960  -30.7730 N   0  0  0  0  0  0  0  0  0  0  0  0
   -5.5330   24.9490  -30.8470 C   0  0  0  0  0  0  0  0  0  0  0  0
   -4.2690   22.8600  -31.1310 C   0  0  0  0  0  0  0  0  0  0  0  0
   -4.8170   22.6810  -32.5540 C   0  0  0  0  0  0  0  0  0  0  0  0
   -5.6020   21.4360  -32.6810 N   0  0  0  0  0  0  0  0  0  0  0  0
   -4.8950   20.3160  -33.0590 C   0  0  0  0  0  0  0  0  0  0  0  0
   -5.5570   19.1160  -33.2040 C   0  0  0  0  0  0  0  0  0  0  0  0
   -5.1510   17.8520  -33.5590 C   0  0  0  0  0  0  0  0  0  0  0  0
   -3.8990   17.3480  -33.9020 C   0  0  0  0  0  0  0  0  0  0  0  0
   -3.8080   15.9810  -34.2180 C   0  0  0  0  0  0  0  0  0  0  0  0
   -4.9570   15.1590  -34.1850 C   0  0  0  0  0  0  0  0  0  0  0  0
   -6.2100   15.6940  -33.8340 C   0  0  0  0  0  0  0  0  0  0  0  0
   -6.2800   17.0520  -33.5240 C   0  0  0  0  0  0  0  0  0  0  0  0
   -7.3870   17.7440  -33.1630 N   0  0  0  0  0  0  0  0  0  0  0  0
   -6.9640   19.0140  -32.9630 C   0  0  0  0  0  0  0  0  0  0  0  0
   -7.6880   20.1330  -32.5600 C   0  0  0  0  0  0  0  0  0  0  0  0
   -9.0650   20.0630  -32.2940 C   0  0  0  0  0  0  0  0  0  0  0  0
   -9.7530   21.1960  -31.8680 C   0  0  0  0  0  0  0  0  0  0  0  0
   -9.0790   22.4010  -31.6990 C   0  0  0  0  0  0  0  0  0  0  0  0
   -7.7110   22.4930  -31.9610 C   0  0  0  0  0  0  0  0  0  0  0  0
   -6.9730   21.3680  -32.4100 C   0  0  0  0  0  0  0  0  0  0  0  0
   -3.2739   23.5346  -27.6034 H   0  0  0  0  0  0  0  0  0  0  0  0
   -3.9579   22.5200  -28.9184 H   0  0  0  0  0  0  0  0  0  0  0  0
   -2.2093   22.9312  -28.9184 H   0  0  0  0  0  0  0  0  0  0  0  0
   -4.1441   25.2272  -28.8885 H   0  0  0  0  0  0  0  0  0  0  0  0
   -2.5443   25.0104  -29.7509 H   0  0  0  0  0  0  0  0  0  0  0  0
   -5.9079   25.1346  -29.8296 H   0  0  0  0  0  0  0  0  0  0  0  0
   -5.4394   25.9048  -31.3833 H   0  0  0  0  0  0  0  0  0  0  0  0
   -6.2363   24.2950  -31.3833 H   0  0  0  0  0  0  0  0  0  0  0  0
   -3.2561   22.4345  -31.0770 H   0  0  0  0  0  0  0  0  0  0  0  0
   -4.9358   22.3428  -30.4254 H   0  0  0  0  0  0  0  0  0  0  0  0
   -5.4632   23.5371  -32.7982 H   0  0  0  0  0  0  0  0  0  0  0  0
   -3.9644   22.6227  -33.2466 H   0  0  0  0  0  0  0  0  0  0  0  0
   -3.8124   20.3787  -33.2434 H   0  0  0  0  0  0  0  0  0  0  0  0
   -3.0114   17.9973  -33.9249 H   0  0  0  0  0  0  0  0  0  0  0  0
   -2.8349   15.5480  -34.4930 H   0  0  0  0  0  0  0  0  0  0  0  0
   -4.8710   14.0915  -34.4360 H   0  0  0  0  0  0  0  0  0  0  0  0
   -7.1082   15.0597  -33.8049 H   0  0  0  0  0  0  0  0  0  0  0  0
   -8.3530   17.3620  -33.0610 H   0  0  0  0  0  0  0  0  0  0  0  0
   -9.6012   19.1112  -32.4224 H   0  0  0  0  0  0  0  0  0  0  0  0
  -10.8325   21.1381  -31.6645 H   0  0  0  0  0  0  0  0  0  0  0  0
   -9.6291   23.2896  -31.3557 H   0  0  0  0  0  0  0  0  0  0  0  0
   -7.1965   23.4545  -31.8168 H   0  0  0  0  0  0  0  0  0  0  0  0
  1  2  1  0
  2  3  1  0
  3  4  1  0
  3  5  1  0
  5  6  1  0
  6  7  1  0
  7  8  1  0
  8  9  2  0
  9 10  1  0
 10 11  2  0
 11 12  1  0
 12 13  2  0
 13 14  1  0
 14 15  2  0
 15 16  1  0
 16 17  2  0
 17 18  1  0
 18 19  2  0
 19 20  1  0
 20 21  2  0
 21 22  1  0
 22 23  2  0
 23  7  1  0
 17  9  1  0
 23 18  1  0
 15 10  1  0
  1 24  1  0
  1 25  1  0
  1 26  1  0
  2 27  1  0
  2 28  1  0
  4 29  1  0
  4 30  1  0
  4 31  1  0
  5 32  1  0
  5 33  1  0
  6 34  1  0
  6 35  1  0
  8 36  1  0
 11 37  1  0
 12 38  1  0
 13 39  1  0
 14 40  1  0
 16 41  1  0
 19 42  1  0
 20 43  1  0
 21 44  1  0
 22 45  1  0
M  CHG  1  16   1
M  END
>  <UniqueID>  (28) 
28

>  <SMILES>  (28) 
CCN(C)CCn1cc2c3ccccc3[nH+]c-2c2ccccc21

>  <Energy>  (28) 
99.84556527034951

>  <Genealogy>  (28) 
CCN(C)CCn1cc2c3ccccc3[nH+]c-2c2ccccc21 (protonated)
CCN(C)CCn1cc2c3ccccc3[nH+]c-2c2ccccc21 (3D coordinates assigned)
CCN(C)CCn1cc2c3ccccc3[nH+]c-2c2ccccc21 (optimized conformer: 99.84556527034951 kcal/mol)

>  <smiles>  (28) 
CCN(C)CCn1cc2c3ccccc3nc-2c2ccccc21

>  <score_type>  (28) 
oracle

>  <origin>  (28) 
adg

>  <m_score__min__energy>  (28) 
-8.1300000000000008

>  <m_primary>  (28) 
energy

$$$$
28:0
     RDKit          3D

 69 71  0  0  0  0  0  0  0  0999 V2000
   -3.8460   18.6090  -26.3690 C   0  0  0  0  0  0  0  0  0  0  0  0
   -2.4730   19.1760  -25.9940 C   0  0  0  0  0  0  0  0  0  0  0  0
   -1.9830   20.1610  -26.9790 N   0  0  0  0  0  0  0  0  0  0  0  0
   -1.1830   21.2290  -26.3500 C   0  0  0  0  0  0  0  0  0  0  0  0
   -0.0300   21.6730  -27.2690 C   0  0  0  0  0  0  0  0  0  0  0  0
    0.0530   20.8410  -28.4090 O   0  0  0  0  0  0  0  0  0  0  0  0
   -0.3310   21.5340  -29.5880 C   0  0  0  0  0  0  0  0  0  0  0  0
   -1.2460   20.6310  -30.4100 C   0  0  0  0  0  0  0  0  0  0  0  0
   -2.2740   20.1520  -29.5680 O   0  0  0  0  0  0  0  0  0  0  0  0
   -3.3810   21.0280  -29.5940 C   0  0  0  0  0  0  0  0  0  0  0  0
   -2.9680   22.3630  -29.3550 O   0  0  0  0  0  0  0  0  0  0  0  0
   -4.0880   23.2310  -29.3410 C   0  0  0  0  0  0  0  0  0  0  0  0
   -3.7430   24.5160  -30.0750 C   0  0  0  0  0  0  0  0  0  0  0  0
   -4.6710   24.7070  -31.1240 O   0  0  0  0  0  0  0  0  0  0  0  0
   -5.9990   24.6090  -30.6430 C   0  0  0  0  0  0  0  0  0  0  0  0
   -6.7530   23.4480  -31.3060 C   0  0  0  0  0  0  0  0  0  0  0  0
   -6.0380   22.9440  -32.4790 N   0  0  0  0  0  0  0  0  0  0  0  0
   -5.8950   21.5330  -32.7420 C   0  0  0  0  0  0  0  0  0  0  0  0
   -4.6340   21.0060  -33.0730 C   0  0  0  0  0  0  0  0  0  0  0  0
   -3.4890   21.8320  -33.0920 C   0  0  0  0  0  0  0  0  0  0  0  0
   -2.2330   21.2990  -33.3700 C   0  0  0  0  0  0  0  0  0  0  0  0
   -2.0960   19.9410  -33.6310 C   0  0  0  0  0  0  0  0  0  0  0  0
   -3.2150   19.1100  -33.6380 C   0  0  0  0  0  0  0  0  0  0  0  0
   -4.5130   19.6270  -33.3920 C   0  0  0  0  0  0  0  0  0  0  0  0
   -5.6350   18.8220  -33.4380 N   0  0  0  0  0  0  0  0  0  0  0  0
   -5.5390   17.4650  -34.0210 C   0  0  0  0  0  0  0  0  0  0  0  0
   -6.8400   19.2870  -32.9390 C   0  0  0  0  0  0  0  0  0  0  0  0
   -7.9390   18.4200  -32.7150 C   0  0  0  0  0  0  0  0  0  0  0  0
   -9.1520   18.9040  -32.2320 C   0  0  0  0  0  0  0  0  0  0  0  0
   -9.2990   20.2520  -31.9320 C   0  0  0  0  0  0  0  0  0  0  0  0
   -8.2270   21.1250  -32.1020 C   0  0  0  0  0  0  0  0  0  0  0  0
   -6.9930   20.6630  -32.6050 C   0  0  0  0  0  0  0  0  0  0  0  0
   -4.4092   18.3764  -25.4532 H   0  0  0  0  0  0  0  0  0  0  0  0
   -4.4001   19.3519  -26.9615 H   0  0  0  0  0  0  0  0  0  0  0  0
   -3.7145   17.6916  -26.9615 H   0  0  0  0  0  0  0  0  0  0  0  0
   -2.5493   19.6661  -25.0122 H   0  0  0  0  0  0  0  0  0  0  0  0
   -1.7590   18.3395  -25.9723 H   0  0  0  0  0  0  0  0  0  0  0  0
   -2.7910   20.5810  -27.5030 H   0  0  0  0  0  0  0  0  0  0  0  0
   -1.3750   19.6540  -27.6660 H   0  0  0  0  0  0  0  0  0  0  0  0
   -1.8333   22.0926  -26.1469 H   0  0  0  0  0  0  0  0  0  0  0  0
   -0.7540   20.8393  -25.4150 H   0  0  0  0  0  0  0  0  0  0  0  0
   -0.2049   22.7100  -27.5915 H   0  0  0  0  0  0  0  0  0  0  0  0
    0.9144   21.5997  -26.7098 H   0  0  0  0  0  0  0  0  0  0  0  0
   -0.8665   22.4560  -29.3176 H   0  0  0  0  0  0  0  0  0  0  0  0
    0.5610   21.7979  -30.1750 H   0  0  0  0  0  0  0  0  0  0  0  0
   -1.6833   21.2033  -31.2414 H   0  0  0  0  0  0  0  0  0  0  0  0
   -0.6727   19.7881  -30.8233 H   0  0  0  0  0  0  0  0  0  0  0  0
   -3.8642   20.9704  -30.5805 H   0  0  0  0  0  0  0  0  0  0  0  0
   -4.0875   20.7293  -28.8056 H   0  0  0  0  0  0  0  0  0  0  0  0
   -4.9376   22.7411  -29.8391 H   0  0  0  0  0  0  0  0  0  0  0  0
   -4.3576   23.4645  -28.3004 H   0  0  0  0  0  0  0  0  0  0  0  0
   -3.7943   25.3650  -29.3774 H   0  0  0  0  0  0  0  0  0  0  0  0
   -2.7247   24.4489  -30.4856 H   0  0  0  0  0  0  0  0  0  0  0  0
   -5.9741   24.4445  -29.5557 H   0  0  0  0  0  0  0  0  0  0  0  0
   -6.5239   25.5448  -30.8855 H   0  0  0  0  0  0  0  0  0  0  0  0
   -6.8642   22.6316  -30.5772 H   0  0  0  0  0  0  0  0  0  0  0  0
   -7.7360   23.8174  -31.6336 H   0  0  0  0  0  0  0  0  0  0  0  0
   -5.6380   23.6280  -33.1640 H   0  0  0  0  0  0  0  0  0  0  0  0
   -3.5902   22.9076  -32.8851 H   0  0  0  0  0  0  0  0  0  0  0  0
   -1.3488   21.9532  -33.3830 H   0  0  0  0  0  0  0  0  0  0  0  0
   -1.1000   19.5200  -33.8330 H   0  0  0  0  0  0  0  0  0  0  0  0
   -3.0896   18.0355  -33.8376 H   0  0  0  0  0  0  0  0  0  0  0  0
   -5.4864   16.7213  -33.2122 H   0  0  0  0  0  0  0  0  0  0  0  0
   -6.4255   17.2692  -34.6421 H   0  0  0  0  0  0  0  0  0  0  0  0
   -4.6337   17.3959  -34.6421 H   0  0  0  0  0  0  0  0  0  0  0  0
   -7.8316   17.3459  -32.9265 H   0  0  0  0  0  0  0  0  0  0  0  0
   -9.9976   18.2155  -32.0874 H   0  0  0  0  0  0  0  0  0  0  0  0
  -10.2625   20.6305  -31.5599 H   0  0  0  0  0  0  0  0  0  0  0  0
   -8.3442   22.1871  -31.8409 H   0  0  0  0  0  0  0  0  0  0  0  0
  1  2  1  0
  2  3  1  0
  3  4  1  0
  4  5  1  0
  5  6  1  0
  6  7  1  0
  7  8  1  0
  8  9  1  0
  9 10  1  0
 10 11  1  0
 11 12  1  0
 12 13  1  0
 13 14  1  0
 14 15  1  0
 15 16  1  0
 16 17  1  0
 17 18  1  0
 18 19  2  0
 19 20  1  0
 20 21  2  0
 21 22  1  0
 22 23  2  0
 23 24  1  0
 24 25  2  0
 25 26  1  0
 25 27  1  0
 27 28  2  0
 28 29  1  0
 29 30  2  0
 30 31  1  0
 31 32  2  0
 32 18  1  0
 24 19  1  0
 32 27  1  0
  1 33  1  0
  1 34  1  0
  1 35  1  0
  2 36  1  0
  2 37  1  0
  3 38  1  0
  3 39  1  0
  4 40  1  0
  4 41  1  0
  5 42  1  0
  5 43  1  0
  7 44  1  0
  7 45  1  0
  8 46  1  0
  8 47  1  0
 10 48  1  0
 10 49  1  0
 12 50  1  0
 12 51  1  0
 13 52  1  0
 13 53  1  0
 15 54  1  0
 15 55  1  0
 16 56  1  0
 16 57  1  0
 17 58  1  0
 20 59  1  0
 21 60  1  0
 22 61  1  0
 23 62  1  0
 26 63  1  0
 26 64  1  0
 26 65  1  0
 28 66  1  0
 29 67  1  0
 30 68  1  0
 31 69  1  0
M  CHG  2   3   1  25   1
M  END
>  <UniqueID>  (29) 
29

>  <SMILES>  (29) 
CC[NH2+]CCOCCOCOCCOCCNc1c2ccccc2[n+](C)c2ccccc12

>  <Energy>  (29) 
84.58014946546604

>  <Genealogy>  (29) 
CC[NH2+]CCOCCOCOCCOCCNc1c2ccccc2[n+](C)c2ccccc12 (protonated)
CC[NH2+]CCOCCOCOCCOCCNc1c2ccccc2[n+](C)c2ccccc12 (3D coordinates assigned)
CC[NH2+]CCOCCOCOCCOCCNc1c2ccccc2[n+](C)c2ccccc12 (optimized conformer: 84.58014946546604 kcal/mol)

>  <smiles>  (29) 
CCNCCOCCOCOCCOCCNc1c2ccccc2[n+](C)c2ccccc12

>  <score_type>  (29) 
oracle

>  <origin>  (29) 
adg

>  <m_score__min__energy>  (29) 
-9.6300000000000008

>  <m_primary>  (29) 
energy

$$$$
29:0
     RDKit          3D

 63 66  0  0  0  0  0  0  0  0999 V2000
   -1.5990   25.6520  -27.0330 C   0  0  0  0  0  0  0  0  0  0  0  0
   -1.1950   25.5600  -28.5030 C   0  0  0  0  0  0  0  0  0  0  0  0
   -2.3620   25.3000  -29.3390 N   0  0  0  0  0  0  0  0  0  0  0  0
   -3.0010   24.0210  -29.4350 C   0  0  0  0  0  0  0  0  0  0  0  0
   -3.2310   23.3410  -28.3970 O   0  0  0  0  0  0  0  0  0  0  0  0
   -3.4630   23.5310  -30.7720 C   0  0  0  0  0  0  0  0  0  0  0  0
   -4.8980   23.0820  -30.7120 C   0  0  0  0  0  0  0  0  0  0  0  0
   -6.0120   23.8980  -30.6030 C   0  0  0  0  0  0  0  0  0  0  0  0
   -6.0150   25.3880  -30.4750 C   0  0  0  0  0  0  0  0  0  0  0  0
   -7.1220   23.1480  -30.7320 N   0  0  0  0  0  0  0  0  0  0  0  0
   -6.7670   21.8870  -30.9220 N   0  0  0  0  0  0  0  0  0  0  0  0
   -7.7340   20.8240  -31.2130 C   0  0  0  0  0  0  0  0  0  0  0  0
   -7.1520   19.8570  -32.2080 C   0  0  0  0  0  0  0  0  0  0  0  0
   -7.0010   18.5030  -31.8730 C   0  0  0  0  0  0  0  0  0  0  0  0
   -6.4220   17.6120  -32.7790 C   0  0  0  0  0  0  0  0  0  0  0  0
   -5.9900   18.0620  -34.0430 C   0  0  0  0  0  0  0  0  0  0  0  0
   -5.4220   17.2040  -35.0000 O   0  0  0  0  0  0  0  0  0  0  0  0
   -4.2930   16.3570  -34.7720 C   0  0  0  0  0  0  0  0  0  0  0  0
   -3.1620   17.1050  -34.0860 C   0  0  0  0  0  0  0  0  0  0  0  0
   -3.1130   18.5070  -34.2100 C   0  0  0  0  0  0  0  0  0  0  0  0
   -2.0520   19.2280  -33.6550 C   0  0  0  0  0  0  0  0  0  0  0  0
   -1.9830   20.7120  -33.8170 C   0  0  0  0  0  0  0  0  0  0  0  0
   -1.0860   18.5780  -32.9580 N   0  0  0  0  0  0  0  0  0  0  0  0
   -1.1110   17.2340  -32.7660 C   0  0  0  0  0  0  0  0  0  0  0  0
   -0.0900   16.6270  -32.0260 C   0  0  0  0  0  0  0  0  0  0  0  0
   -0.1060   15.2490  -31.8030 C   0  0  0  0  0  0  0  0  0  0  0  0
   -1.1510   14.4730  -32.3020 C   0  0  0  0  0  0  0  0  0  0  0  0
   -2.1800   15.0650  -33.0420 C   0  0  0  0  0  0  0  0  0  0  0  0
   -2.1670   16.4540  -33.3070 C   0  0  0  0  0  0  0  0  0  0  0  0
   -6.1350   19.4160  -34.3700 C   0  0  0  0  0  0  0  0  0  0  0  0
   -6.7020   20.3110  -33.4580 C   0  0  0  0  0  0  0  0  0  0  0  0
   -5.4140   21.8050  -30.9140 C   0  0  0  0  0  0  0  0  0  0  0  0
   -4.6160   20.5710  -31.2340 C   0  0  0  0  0  0  0  0  0  0  0  0
   -0.7227   25.4524  -26.3987 H   0  0  0  0  0  0  0  0  0  0  0  0
   -1.9832   26.6606  -26.8208 H   0  0  0  0  0  0  0  0  0  0  0  0
   -2.3821   24.9092  -26.8208 H   0  0  0  0  0  0  0  0  0  0  0  0
   -0.7332   26.5095  -28.8115 H   0  0  0  0  0  0  0  0  0  0  0  0
   -0.4797   24.7331  -28.6240 H   0  0  0  0  0  0  0  0  0  0  0  0
   -3.3707   24.3453  -31.5057 H   0  0  0  0  0  0  0  0  0  0  0  0
   -2.8387   22.6751  -31.0679 H   0  0  0  0  0  0  0  0  0  0  0  0
   -6.0156   25.6646  -29.4103 H   0  0  0  0  0  0  0  0  0  0  0  0
   -5.1177   25.7995  -30.9603 H   0  0  0  0  0  0  0  0  0  0  0  0
   -6.9140   25.7959  -30.9603 H   0  0  0  0  0  0  0  0  0  0  0  0
   -8.1060   23.4970  -30.7360 H   0  0  0  0  0  0  0  0  0  0  0  0
   -7.9770   20.2882  -30.2836 H   0  0  0  0  0  0  0  0  0  0  0  0
   -8.6460   21.2712  -31.6352 H   0  0  0  0  0  0  0  0  0  0  0  0
   -7.3406   18.1413  -30.8912 H   0  0  0  0  0  0  0  0  0  0  0  0
   -6.3024   16.5534  -32.5048 H   0  0  0  0  0  0  0  0  0  0  0  0
   -4.6015   15.5145  -34.1355 H   0  0  0  0  0  0  0  0  0  0  0  0
   -3.9282   16.0002  -35.7465 H   0  0  0  0  0  0  0  0  0  0  0  0
   -3.9137   19.0373  -34.7463 H   0  0  0  0  0  0  0  0  0  0  0  0
   -1.9608   21.1884  -32.8258 H   0  0  0  0  0  0  0  0  0  0  0  0
   -1.0715   20.9782  -34.3722 H   0  0  0  0  0  0  0  0  0  0  0  0
   -2.8659   21.0617  -34.3722 H   0  0  0  0  0  0  0  0  0  0  0  0
    0.7286   17.2383  -31.6183 H   0  0  0  0  0  0  0  0  0  0  0  0
    0.7067   14.7751  -31.2330 H   0  0  0  0  0  0  0  0  0  0  0  0
   -1.1666   13.3895  -32.1129 H   0  0  0  0  0  0  0  0  0  0  0  0
   -3.0059   14.4450  -33.4208 H   0  0  0  0  0  0  0  0  0  0  0  0
   -5.7998   19.7784  -35.3530 H   0  0  0  0  0  0  0  0  0  0  0  0
   -6.7959   21.3750  -33.7208 H   0  0  0  0  0  0  0  0  0  0  0  0
   -4.3016   20.0849  -30.2987 H   0  0  0  0  0  0  0  0  0  0  0  0
   -5.2355   19.8751  -31.8187 H   0  0  0  0  0  0  0  0  0  0  0  0
   -3.7272   20.8505  -31.8187 H   0  0  0  0  0  0  0  0  0  0  0  0
  1  2  1  0
  2  3  1  0
  3  4  1  0
  4  5  2  0
  4  6  1  0
  6  7  1  0
  7  8  1  0
  8  9  1  0
  8 10  2  0
 10 11  1  0
 11 12  1  0
 12 13  1  0
 13 14  2  0
 14 15  1  0
 15 16  2  0
 16 17  1  0
 17 18  1  0
 18 19  1  0
 19 20  2  0
 20 21  1  0
 21 22  1  0
 21 23  2  0
 23 24  1  0
 24 25  2  0
 25 26  1  0
 26 27  2  0
 27 28  1  0
 28 29  2  0
 16 30  1  0
 30 31  2  0
 11 32  1  0
 32 33  1  0
 32  7  2  0
 31 13  1  0
 29 19  1  0
 29 24  1  0
  1 34  1  0
  1 35  1  0
  1 36  1  0
  2 37  1  0
  2 38  1  0
  6 39  1  0
  6 40  1  0
  9 41  1  0
  9 42  1  0
  9 43  1  0
 10 44  1  0
 12 45  1  0
 12 46  1  0
 14 47  1  0
 15 48  1  0
 18 49  1  0
 18 50  1  0
 20 51  1  0
 22 52  1  0
 22 53  1  0
 22 54  1  0
 25 55  1  0
 26 56  1  0
 27 57  1  0
 28 58  1  0
 30 59  1  0
 31 60  1  0
 33 61  1  0
 33 62  1  0
 33 63  1  0
M  CHG  2   3  -1  10   1
M  END
>  <UniqueID>  (30) 
30

>  <SMILES>  (30) 
CC[N-]C(=O)Cc1c(C)[nH+]n(Cc2ccc(OCc3cc(C)nc4ccccc34)cc2)c1C

>  <Energy>  (30) 
93.7235785760758

>  <Genealogy>  (30) 
CC[N-]C(=O)Cc1c(C)[nH+]n(Cc2ccc(OCc3cc(C)nc4ccccc34)cc2)c1C (protonated)
CC[N-]C(=O)Cc1c(C)[nH+]n(Cc2ccc(OCc3cc(C)nc4ccccc34)cc2)c1C (3D coordinates assigned)
CC[N-]C(=O)Cc1c(C)[nH+]n(Cc2ccc(OCc3cc(C)nc4ccccc34)cc2)c1C (optimized conformer: 93.7235785760758 kcal/mol)

>  <smiles>  (30) 
CCNC(=O)Cc1c(C)nn(Cc2ccc(OCc3cc(C)nc4ccccc34)cc2)c1C

>  <score_type>  (30) 
oracle

>  <origin>  (30) 
adg

>  <m_score__min__energy>  (30) 
-10.06

>  <m_primary>  (30) 
energy

$$$$
31:0
     RDKit          3D

 66 69  0  0  0  0  0  0  0  0999 V2000
   -1.9570   28.5940  -35.8040 C   0  0  0  0  0  0  0  0  0  0  0  0
   -0.7820   27.9100  -35.1070 C   0  0  0  0  0  0  0  0  0  0  0  0
    0.0220   27.1390  -36.0840 N   0  0  0  0  0  0  0  0  0  0  0  0
   -0.8640   26.5150  -37.0910 C   0  0  0  0  0  0  0  0  0  0  0  0
    0.8360   26.1180  -35.3830 C   0  0  0  0  0  0  0  0  0  0  0  0
    0.9120   24.7920  -36.1660 C   0  0  0  0  0  0  0  0  0  0  0  0
    1.4600   23.7580  -35.3680 O   0  0  0  0  0  0  0  0  0  0  0  0
    1.5220   22.5270  -36.0710 C   0  0  0  0  0  0  0  0  0  0  0  0
    0.2380   21.7040  -35.8830 C   0  0  0  0  0  0  0  0  0  0  0  0
   -0.2380   21.8720  -34.5620 O   0  0  0  0  0  0  0  0  0  0  0  0
    0.3020   20.8680  -33.7290 C   0  0  0  0  0  0  0  0  0  0  0  0
   -0.8180   19.9090  -33.3300 C   0  0  0  0  0  0  0  0  0  0  0  0
   -2.0580   20.1990  -34.0550 N   0  0  0  0  0  0  0  0  0  0  0  0
   -3.3430   19.7240  -33.6090 C   0  0  0  0  0  0  0  0  0  0  0  0
   -3.7660   18.4290  -33.9510 C   0  0  0  0  0  0  0  0  0  0  0  0
   -2.9530   17.5780  -34.7310 C   0  0  0  0  0  0  0  0  0  0  0  0
   -3.3740   16.2910  -35.0540 C   0  0  0  0  0  0  0  0  0  0  0  0
   -4.6050   15.8260  -34.6010 C   0  0  0  0  0  0  0  0  0  0  0  0
   -5.4240   16.6470  -33.8240 C   0  0  0  0  0  0  0  0  0  0  0  0
   -5.0240   17.9630  -33.4860 C   0  0  0  0  0  0  0  0  0  0  0  0
   -5.8280   18.7830  -32.7210 N   0  0  0  0  0  0  0  0  0  0  0  0
   -6.8470   18.1610  -31.8490 C   0  0  0  0  0  0  0  0  0  0  0  0
   -5.5320   20.1320  -32.6100 C   0  0  0  0  0  0  0  0  0  0  0  0
   -4.2140   20.5690  -32.8960 C   0  0  0  0  0  0  0  0  0  0  0  0
   -3.7860   21.8260  -32.4350 C   0  0  0  0  0  0  0  0  0  0  0  0
   -4.6730   22.6990  -31.8160 C   0  0  0  0  0  0  0  0  0  0  0  0
   -6.0370   22.3840  -31.7300 C   0  0  0  0  0  0  0  0  0  0  0  0
   -6.9710   23.3270  -31.2380 C   0  0  0  0  0  0  0  0  0  0  0  0
   -6.4870   24.8840  -30.5680 Cl  0  0  0  0  0  0  0  0  0  0  0  0
   -8.3380   23.0490  -31.3000 C   0  0  0  0  0  0  0  0  0  0  0  0
   -8.7880   21.8640  -31.8730 C   0  0  0  0  0  0  0  0  0  0  0  0
   -7.8760   20.9140  -32.3330 C   0  0  0  0  0  0  0  0  0  0  0  0
   -6.4870   21.1140  -32.1920 C   0  0  0  0  0  0  0  0  0  0  0  0
   -2.6479   28.9962  -35.0484 H   0  0  0  0  0  0  0  0  0  0  0  0
   -1.5827   29.4153  -36.4327 H   0  0  0  0  0  0  0  0  0  0  0  0
   -2.4864   27.8629  -36.4327 H   0  0  0  0  0  0  0  0  0  0  0  0
   -0.1454   28.6739  -34.6366 H   0  0  0  0  0  0  0  0  0  0  0  0
   -1.1727   27.2205  -34.3441 H   0  0  0  0  0  0  0  0  0  0  0  0
   -1.6608   25.9538  -36.5809 H   0  0  0  0  0  0  0  0  0  0  0  0
   -1.3122   27.2979  -37.7205 H   0  0  0  0  0  0  0  0  0  0  0  0
   -0.2779   25.8293  -37.7205 H   0  0  0  0  0  0  0  0  0  0  0  0
    1.8555   26.5089  -35.2495 H   0  0  0  0  0  0  0  0  0  0  0  0
    0.3555   25.9106  -34.4155 H   0  0  0  0  0  0  0  0  0  0  0  0
   -0.1012   24.5030  -36.4819 H   0  0  0  0  0  0  0  0  0  0  0  0
    1.5628   24.9400  -37.0404 H   0  0  0  0  0  0  0  0  0  0  0  0
    1.6597   22.7342  -37.1425 H   0  0  0  0  0  0  0  0  0  0  0  0
    2.3658   21.9448  -35.6723 H   0  0  0  0  0  0  0  0  0  0  0  0
   -0.5263   22.0484  -36.5952 H   0  0  0  0  0  0  0  0  0  0  0  0
    0.4533   20.6405  -36.0637 H   0  0  0  0  0  0  0  0  0  0  0  0
    1.0847   20.3178  -34.2719 H   0  0  0  0  0  0  0  0  0  0  0  0
    0.7436   21.3236  -32.8304 H   0  0  0  0  0  0  0  0  0  0  0  0
   -0.5042   18.8793  -33.5564 H   0  0  0  0  0  0  0  0  0  0  0  0
   -1.0107   20.0325  -32.2541 H   0  0  0  0  0  0  0  0  0  0  0  0
   -2.0260   20.8960  -34.8340 H   0  0  0  0  0  0  0  0  0  0  0  0
   -1.9759   17.9360  -35.0875 H   0  0  0  0  0  0  0  0  0  0  0  0
   -2.7331   15.6410  -35.6678 H   0  0  0  0  0  0  0  0  0  0  0  0
   -4.9338   14.8078  -34.8562 H   0  0  0  0  0  0  0  0  0  0  0  0
   -6.3933   16.2667  -33.4693 H   0  0  0  0  0  0  0  0  0  0  0  0
   -6.5776   18.3254  -30.7953 H   0  0  0  0  0  0  0  0  0  0  0  0
   -7.8287   18.6140  -32.0515 H   0  0  0  0  0  0  0  0  0  0  0  0
   -6.8929   17.0808  -32.0515 H   0  0  0  0  0  0  0  0  0  0  0  0
   -2.7349   22.1228  -32.5659 H   0  0  0  0  0  0  0  0  0  0  0  0
   -4.3026   23.6434  -31.3907 H   0  0  0  0  0  0  0  0  0  0  0  0
   -9.0624   23.7704  -30.8939 H   0  0  0  0  0  0  0  0  0  0  0  0
   -9.8679   21.6752  -31.9638 H   0  0  0  0  0  0  0  0  0  0  0  0
   -8.2455   19.9956  -32.8126 H   0  0  0  0  0  0  0  0  0  0  0  0
  1  2  1  0
  2  3  1  0
  3  4  1  0
  3  5  1  0
  5  6  1  0
  6  7  1  0
  7  8  1  0
  8  9  1  0
  9 10  1  0
 10 11  1  0
 11 12  1  0
 12 13  1  0
 13 14  1  0
 14 15  2  0
 15 16  1  0
 16 17  2  0
 17 18  1  0
 18 19  2  0
 19 20  1  0
 20 21  2  0
 21 22  1  0
 21 23  1  0
 23 24  2  0
 24 25  1  0
 25 26  2  0
 26 27  1  0
 27 28  2  0
 28 29  1  0
 28 30  1  0
 30 31  2  0
 31 32  1  0
 32 33  2  0
 24 14  1  0
 33 27  1  0
 20 15  1  0
 33 23  1  0
  1 34  1  0
  1 35  1  0
  1 36  1  0
  2 37  1  0
  2 38  1  0
  4 39  1  0
  4 40  1  0
  4 41  1  0
  5 42  1  0
  5 43  1  0
  6 44  1  0
  6 45  1  0
  8 46  1  0
  8 47  1  0
  9 48  1  0
  9 49  1  0
 11 50  1  0
 11 51  1  0
 12 52  1  0
 12 53  1  0
 13 54  1  0
 16 55  1  0
 17 56  1  0
 18 57  1  0
 19 58  1  0
 22 59  1  0
 22 60  1  0
 22 61  1  0
 25 62  1  0
 26 63  1  0
 30 64  1  0
 31 65  1  0
 32 66  1  0
M  CHG  1  21   1
M  END
>  <UniqueID>  (31) 
31

>  <SMILES>  (31) 
CCN(C)CCOCCOCCNc1c2ccccc2[n+](C)c2c1ccc1c(Cl)cccc12

>  <Energy>  (31) 
113.44539945465691

>  <Genealogy>  (31) 
CCN(C)CCOCCOCCNc1c2ccccc2[n+](C)c2c1ccc1c(Cl)cccc12 (3D coordinates assigned)
CCN(C)CCOCCOCCNc1c2ccccc2[n+](C)c2c1ccc1c(Cl)cccc12 (optimized conformer: 113.44539945465691 kcal/mol)

>  <smiles>  (31) 
CCN(C)CCOCCOCCNc1c2ccccc2[n+](C)c2c1ccc1c(Cl)cccc12

>  <score_type>  (31) 
oracle

>  <origin>  (31) 
adg

>  <m_score__min__energy>  (31) 
-9.5500000000000007

>  <m_primary>  (31) 
energy

$$$$
32:0
     RDKit          3D

 45 47  0  0  0  0  0  0  0  0999 V2000
   -3.2930   22.7580  -29.1720 C   0  0  0  0  0  0  0  0  0  0  0  0
   -2.1010   22.0870  -29.8610 C   0  0  0  0  0  0  0  0  0  0  0  0
   -2.1180   22.2770  -31.3230 N   0  0  0  0  0  0  0  0  0  0  0  0
   -2.2240   21.0090  -32.0580 C   0  0  0  0  0  0  0  0  0  0  0  0
   -3.1070   21.1850  -33.2970 C   0  0  0  0  0  0  0  0  0  0  0  0
   -4.5460   20.8030  -32.9920 C   0  0  0  0  0  0  0  0  0  0  0  0
   -5.0970   19.5470  -33.3650 C   0  0  0  0  0  0  0  0  0  0  0  0
   -4.3650   18.5800  -34.0910 C   0  0  0  0  0  0  0  0  0  0  0  0
   -4.9380   17.3510  -34.4230 C   0  0  0  0  0  0  0  0  0  0  0  0
   -6.2580   17.0550  -34.0490 C   0  0  0  0  0  0  0  0  0  0  0  0
   -6.8710   15.8300  -34.3580 O   0  0  0  0  0  0  0  0  0  0  0  0
   -6.2380   14.5610  -34.2380 C   0  0  0  0  0  0  0  0  0  0  0  0
   -6.9980   18.0090  -33.3480 C   0  0  0  0  0  0  0  0  0  0  0  0
   -6.4400   19.2510  -33.0100 C   0  0  0  0  0  0  0  0  0  0  0  0
   -7.1970   20.1730  -32.3490 N   0  0  0  0  0  0  0  0  0  0  0  0
   -6.7090   21.4030  -32.0320 C   0  0  0  0  0  0  0  0  0  0  0  0
   -7.5180   22.3510  -31.3880 C   0  0  0  0  0  0  0  0  0  0  0  0
   -7.0110   23.6150  -31.0890 C   0  0  0  0  0  0  0  0  0  0  0  0
   -5.6940   23.9270  -31.4360 C   0  0  0  0  0  0  0  0  0  0  0  0
   -5.1870   25.1970  -31.1510 O   0  0  0  0  0  0  0  0  0  0  0  0
   -5.7260   26.0260  -30.1270 C   0  0  0  0  0  0  0  0  0  0  0  0
   -4.9200   22.9900  -32.0490 N   0  0  0  0  0  0  0  0  0  0  0  0
   -5.3800   21.7440  -32.3530 C   0  0  0  0  0  0  0  0  0  0  0  0
   -3.1718   22.6898  -28.0808 H   0  0  0  0  0  0  0  0  0  0  0  0
   -3.3411   23.8157  -29.4702 H   0  0  0  0  0  0  0  0  0  0  0  0
   -4.2222   22.2504  -29.4702 H   0  0  0  0  0  0  0  0  0  0  0  0
   -1.1721   22.5181  -29.4594 H   0  0  0  0  0  0  0  0  0  0  0  0
   -2.1626   21.0069  -29.6620 H   0  0  0  0  0  0  0  0  0  0  0  0
   -2.9200   22.8950  -31.5870 H   0  0  0  0  0  0  0  0  0  0  0  0
   -1.2201   20.6859  -32.3708 H   0  0  0  0  0  0  0  0  0  0  0  0
   -2.6761   20.2514  -31.4011 H   0  0  0  0  0  0  0  0  0  0  0  0
   -3.0731   22.2367  -33.6177 H   0  0  0  0  0  0  0  0  0  0  0  0
   -2.7295   20.5293  -34.0954 H   0  0  0  0  0  0  0  0  0  0  0  0
   -3.3316   18.7984  -34.3980 H   0  0  0  0  0  0  0  0  0  0  0  0
   -4.3500   16.6084  -34.9824 H   0  0  0  0  0  0  0  0  0  0  0  0
   -6.1140   14.3123  -33.1737 H   0  0  0  0  0  0  0  0  0  0  0  0
   -6.8591   13.7940  -34.7238 H   0  0  0  0  0  0  0  0  0  0  0  0
   -5.2517   14.5958  -34.7238 H   0  0  0  0  0  0  0  0  0  0  0  0
   -8.0343   17.7834  -33.0563 H   0  0  0  0  0  0  0  0  0  0  0  0
   -8.1850   19.9380  -32.0960 H   0  0  0  0  0  0  0  0  0  0  0  0
   -8.5538   22.0968  -31.1185 H   0  0  0  0  0  0  0  0  0  0  0  0
   -7.6428   24.3605  -30.5840 H   0  0  0  0  0  0  0  0  0  0  0  0
   -5.4582   25.6141  -29.1428 H   0  0  0  0  0  0  0  0  0  0  0  0
   -5.3152   27.0418  -30.2234 H   0  0  0  0  0  0  0  0  0  0  0  0
   -6.8211   26.0627  -30.2234 H   0  0  0  0  0  0  0  0  0  0  0  0
  1  2  1  0
  2  3  1  0
  3  4  1  0
  4  5  1  0
  5  6  1  0
  6  7  2  0
  7  8  1  0
  8  9  2  0
  9 10  1  0
 10 11  1  0
 11 12  1  0
 10 13  2  0
 13 14  1  0
 14 15  2  0
 15 16  1  0
 16 17  2  0
 17 18  1  0
 18 19  2  0
 19 20  1  0
 20 21  1  0
 19 22  1  0
 22 23  2  0
 23  6  1  0
 14  7  1  0
 23 16  1  0
  1 24  1  0
  1 25  1  0
  1 26  1  0
  2 27  1  0
  2 28  1  0
  3 29  1  0
  4 30  1  0
  4 31  1  0
  5 32  1  0
  5 33  1  0
  8 34  1  0
  9 35  1  0
 12 36  1  0
 12 37  1  0
 12 38  1  0
 13 39  1  0
 15 40  1  0
 17 41  1  0
 18 42  1  0
 21 43  1  0
 21 44  1  0
 21 45  1  0
M  CHG  1  15   1
M  END
>  <UniqueID>  (32) 
32

>  <SMILES>  (32) 
CCNCCc1c2ccc(OC)cc2[nH+]c2ccc(OC)nc12

>  <Energy>  (32) 
50.114929875093225

>  <Genealogy>  (32) 
CCNCCc1c2ccc(OC)cc2[nH+]c2ccc(OC)nc12 (protonated)
CCNCCc1c2ccc(OC)cc2[nH+]c2ccc(OC)nc12 (3D coordinates assigned)
CCNCCc1c2ccc(OC)cc2[nH+]c2ccc(OC)nc12 (optimized conformer: 50.114929875093225 kcal/mol)

>  <smiles>  (32) 
CCNCCc1c2ccc(OC)cc2nc2ccc(OC)nc12

>  <score_type>  (32) 
oracle

>  <origin>  (32) 
adg

>  <m_score__min__energy>  (32) 
-7.1100000000000003

>  <m_primary>  (32) 
energy

$$$$
