0:0
     RDKit          3D

 40 43  0  0  0  0  0  0  0  0999 V2000
   -9.4710   19.6520  -33.2080 F   0  0  0  0  0  0  0  0  0  0  0  0
   -8.9740   19.9860  -31.9610 C   0  0  0  0  0  0  0  0  0  0  0  0
   -9.7160   21.0390  -31.4590 F   0  0  0  0  0  0  0  0  0  0  0  0
   -9.1120   18.8940  -31.1240 F   0  0  0  0  0  0  0  0  0  0  0  0
   -7.5210   20.3840  -32.0360 C   0  0  0  0  0  0  0  0  0  0  0  0
   -7.0410   21.5040  -31.4030 N   0  0  0  0  0  0  0  0  0  0  0  0
   -5.7080   21.8500  -31.4610 C   0  0  0  0  0  0  0  0  0  0  0  0
   -5.2240   23.0240  -30.7860 N   0  0  0  0  0  0  0  0  0  0  0  0
   -6.0930   24.1940  -30.6020 C   0  0  0  0  0  0  0  0  0  0  0  0
   -5.2710   25.5040  -30.5200 C   0  0  0  0  0  0  0  0  0  0  0  0
   -3.8710   25.2970  -30.4500 O   0  0  0  0  0  0  0  0  0  0  0  0
   -3.5730   24.3100  -29.4860 C   0  0  0  0  0  0  0  0  0  0  0  0
   -3.9670   22.9370  -30.0320 C   0  0  0  0  0  0  0  0  0  0  0  0
   -4.8370   21.0900  -32.1930 N   0  0  0  0  0  0  0  0  0  0  0  0
   -5.3090   20.0010  -32.8410 C   0  0  0  0  0  0  0  0  0  0  0  0
   -6.6090   19.6250  -32.7650 C   0  0  0  0  0  0  0  0  0  0  0  0
   -6.6930   18.4540  -33.4890 C   0  0  0  0  0  0  0  0  0  0  0  0
   -5.4580   18.1600  -33.9660 N   0  0  0  0  0  0  0  0  0  0  0  0
   -4.6130   19.1110  -33.5750 N   0  0  0  0  0  0  0  0  0  0  0  0
   -3.2070   19.1120  -33.8850 C   0  0  0  0  0  0  0  0  0  0  0  0
   -2.5280   17.9210  -34.2050 C   0  0  0  0  0  0  0  0  0  0  0  0
   -1.1600   17.9440  -34.4970 C   0  0  0  0  0  0  0  0  0  0  0  0
   -0.4560   19.1490  -34.4630 C   0  0  0  0  0  0  0  0  0  0  0  0
   -1.1160   20.3350  -34.1330 C   0  0  0  0  0  0  0  0  0  0  0  0
   -2.4830   20.3170  -33.8390 C   0  0  0  0  0  0  0  0  0  0  0  0
   -7.7040   22.1260  -30.8890 H   0  0  0  0  0  0  0  0  0  0  0  0
   -6.7877   24.2605  -31.4523 H   0  0  0  0  0  0  0  0  0  0  0  0
   -6.6419   24.0711  -29.6567 H   0  0  0  0  0  0  0  0  0  0  0  0
   -5.4883   26.1064  -31.4144 H   0  0  0  0  0  0  0  0  0  0  0  0
   -5.5670   26.0103  -29.5894 H   0  0  0  0  0  0  0  0  0  0  0  0
   -2.4950   24.3232  -29.2673 H   0  0  0  0  0  0  0  0  0  0  0  0
   -4.1343   24.5148  -28.5624 H   0  0  0  0  0  0  0  0  0  0  0  0
   -3.1711   22.5699  -30.6966 H   0  0  0  0  0  0  0  0  0  0  0  0
   -4.1059   22.2453  -29.1880 H   0  0  0  0  0  0  0  0  0  0  0  0
   -7.6049   17.8606  -33.6515 H   0  0  0  0  0  0  0  0  0  0  0  0
   -3.0759   16.9674  -34.2256 H   0  0  0  0  0  0  0  0  0  0  0  0
   -0.6379   17.0105  -34.7540 H   0  0  0  0  0  0  0  0  0  0  0  0
    0.6189   19.1645  -34.6962 H   0  0  0  0  0  0  0  0  0  0  0  0
   -0.5601   21.2837  -34.1044 H   0  0  0  0  0  0  0  0  0  0  0  0
   -2.9959   21.2521  -33.5698 H   0  0  0  0  0  0  0  0  0  0  0  0
  1  2  1  0
  2  3  1  0
  2  4  1  0
  2  5  1  0
  5  6  2  0
  6  7  1  0
  7  8  1  0
  8  9  1  0
  9 10  1  0
 10 11  1  0
 11 12  1  0
 12 13  1  0
  7 14  2  0
 14 15  1  0
 15 16  2  0
 16 17  1  0
 17 18  2  0
 18 19  1  0
 19 20  1  0
 20 21  2  0
 21 22  1  0
 22 23  2  0
 23 24  1  0
 24 25  2  0
 16  5  1  0
 25 20  1  0
 13  8  1  0
 19 15  1  0
  6 26  1  0
  9 27  1  0
  9 28  1  0
 10 29  1  0
 10 30  1  0
 12 31  1  0
 12 32  1  0
 13 33  1  0
 13 34  1  0
 17 35  1  0
 21 36  1  0
 22 37  1  0
 23 38  1  0
 24 39  1  0
 25 40  1  0
M  CHG  1   6   1
M  END
>  <UniqueID>  (1) 
1

>  <SMILES>  (1) 
FC(F)(F)c1[nH+]c(N2CCOCC2)nc2c1cnn2-c1ccccc1

>  <Energy>  (1) 
98.57920603588705

>  <Genealogy>  (1) 
FC(F)(F)c1[nH+]c(N2CCOCC2)nc2c1cnn2-c1ccccc1 (protonated)
FC(F)(F)c1[nH+]c(N2CCOCC2)nc2c1cnn2-c1ccccc1 (3D coordinates assigned)
FC(F)(F)c1[nH+]c(N2CCOCC2)nc2c1cnn2-c1ccccc1 (nonaromatic ring conformer: 98.57920603588705 kcal/mol)

>  <smiles>  (1) 
FC(F)(F)c1nc(N2CCOCC2)nc2c1cnn2-c1ccccc1

>  <score_type>  (1) 
oracle

>  <origin>  (1) 
adg

>  <m_score__min__energy>  (1) 
-7.3200000000000003

>  <m_primary>  (1) 
energy

$$$$
1:0
     RDKit          3D

 24 25  0  0  0  0  0  0  0  0999 V2000
   -6.3530   25.2980  -29.7240 C   0  0  0  0  0  0  0  0  0  0  0  0
   -4.9760   24.8400  -30.8210 S   0  0  0  0  0  0  0  0  0  0  0  0
   -5.7630   23.3210  -31.3730 C   0  0  0  0  0  0  0  0  0  0  0  0
   -7.1160   23.2230  -31.2880 N   0  0  0  0  0  0  0  0  0  0  0  0
   -7.7720   22.1050  -31.6900 C   0  0  0  0  0  0  0  0  0  0  0  0
   -9.1650   22.0290  -31.5970 C   0  0  0  0  0  0  0  0  0  0  0  0
   -9.8300   20.8720  -32.0170 C   0  0  0  0  0  0  0  0  0  0  0  0
   -9.1040   19.7920  -32.5310 C   0  0  0  0  0  0  0  0  0  0  0  0
   -7.7110   19.8630  -32.6270 C   0  0  0  0  0  0  0  0  0  0  0  0
   -7.0360   21.0200  -32.2070 C   0  0  0  0  0  0  0  0  0  0  0  0
   -5.6790   21.1120  -32.2890 N   0  0  0  0  0  0  0  0  0  0  0  0
   -5.0190   22.2350  -31.8790 C   0  0  0  0  0  0  0  0  0  0  0  0
   -3.5190   22.3010  -31.9740 C   0  0  0  0  0  0  0  0  0  0  0  0
   -6.0371   25.1929  -28.6756 H   0  0  0  0  0  0  0  0  0  0  0  0
   -6.6438   26.3412  -29.9165 H   0  0  0  0  0  0  0  0  0  0  0  0
   -7.2107   24.6368  -29.9165 H   0  0  0  0  0  0  0  0  0  0  0  0
   -9.7372   22.8777  -31.1942 H   0  0  0  0  0  0  0  0  0  0  0  0
  -10.9258   20.8112  -31.9430 H   0  0  0  0  0  0  0  0  0  0  0  0
   -9.6308   18.8843  -32.8606 H   0  0  0  0  0  0  0  0  0  0  0  0
   -7.1437   19.0119  -33.0318 H   0  0  0  0  0  0  0  0  0  0  0  0
   -5.1330   20.3050  -32.6700 H   0  0  0  0  0  0  0  0  0  0  0  0
   -3.0880   22.3200  -30.9621 H   0  0  0  0  0  0  0  0  0  0  0  0
   -3.1466   21.4184  -32.5147 H   0  0  0  0  0  0  0  0  0  0  0  0
   -3.2256   23.2129  -32.5147 H   0  0  0  0  0  0  0  0  0  0  0  0
  1  2  1  0
  2  3  1  0
  3  4  2  0
  4  5  1  0
  5  6  2  0
  6  7  1  0
  7  8  2  0
  8  9  1  0
  9 10  2  0
 10 11  1  0
 11 12  2  0
 12 13  1  0
 12  3  1  0
 10  5  1  0
  1 14  1  0
  1 15  1  0
  1 16  1  0
  6 17  1  0
  7 18  1  0
  8 19  1  0
  9 20  1  0
 11 21  1  0
 13 22  1  0
 13 23  1  0
 13 24  1  0
M  CHG  1  11   1
M  END
>  <UniqueID>  (2) 
2

>  <SMILES>  (2) 
CSc1nc2ccccc2[nH+]c1C

>  <Energy>  (2) 
24.0153580536379

>  <Genealogy>  (2) 
CSc1nc2ccccc2[nH+]c1C (protonated)
CSc1nc2ccccc2[nH+]c1C (3D coordinates assigned)
CSc1nc2ccccc2[nH+]c1C (optimized conformer: 24.0153580536379 kcal/mol)

>  <smiles>  (2) 
CSc1nc2ccccc2nc1C

>  <score_type>  (2) 
oracle

>  <origin>  (2) 
adg

>  <m_score__min__energy>  (2) 
-5.2400000000000002

>  <m_primary>  (2) 
energy

$$$$
2:0
     RDKit          3D

 78 82  0  0  0  0  0  0  0  0999 V2000
   -1.2218   22.4106  -29.2469 H   0  0  0  0  0  0  0  0  0  0  0  0
   -1.2860   21.3470  -29.5200 C   0  0  0  0  0  0  0  0  0  0  0  0
   -1.0680   21.0090  -30.7980 C   0  0  0  0  0  0  0  0  0  0  0  0
   -0.4136   20.1534  -31.0211 H   0  0  0  0  0  0  0  0  0  0  0  0
   -1.6940   21.7680  -31.9360 C   0  0  0  0  0  0  0  0  0  0  0  0
   -1.0884   22.6616  -32.1474 H   0  0  0  0  0  0  0  0  0  0  0  0
   -2.7160   22.0519  -31.6447 H   0  0  0  0  0  0  0  0  0  0  0  0
   -1.7720   20.9050  -33.2030 C   0  0  0  0  0  0  0  0  0  0  0  0
   -0.7945   20.4284  -33.3686 H   0  0  0  0  0  0  0  0  0  0  0  0
   -2.0432   21.5604  -34.0438 H   0  0  0  0  0  0  0  0  0  0  0  0
   -2.8450   19.8100  -33.0900 C   0  0  0  0  0  0  0  0  0  0  0  0
   -3.8019   20.2180  -33.4477 H   0  0  0  0  0  0  0  0  0  0  0  0
   -2.8981   19.5077  -32.0337 H   0  0  0  0  0  0  0  0  0  0  0  0
   -2.5080   18.5530  -33.9140 C   0  0  0  0  0  0  0  0  0  0  0  0
   -1.4222   18.5381  -34.0895 H   0  0  0  0  0  0  0  0  0  0  0  0
   -3.0930   18.6218  -34.8430 H   0  0  0  0  0  0  0  0  0  0  0  0
   -2.9050   17.2250  -33.2440 C   0  0  0  0  0  0  0  0  0  0  0  0
   -3.9619   17.2858  -32.9452 H   0  0  0  0  0  0  0  0  0  0  0  0
   -2.2403   17.0821  -32.3793 H   0  0  0  0  0  0  0  0  0  0  0  0
   -2.7300   16.0330  -34.1470 C   0  0  0  0  0  0  0  0  0  0  0  0
   -2.1849   16.1559  -35.0945 H   0  0  0  0  0  0  0  0  0  0  0  0
   -3.2200   14.8250  -33.8290 C   0  0  0  0  0  0  0  0  0  0  0  0
   -2.6668   14.1950  -33.1169 H   0  0  0  0  0  0  0  0  0  0  0  0
   -4.5040   14.3070  -34.4180 C   0  0  0  0  0  0  0  0  0  0  0  0
   -4.4305   13.2148  -34.5260 H   0  0  0  0  0  0  0  0  0  0  0  0
   -4.6519   14.7931  -35.3936 H   0  0  0  0  0  0  0  0  0  0  0  0
   -5.7150   14.6380  -33.5330 C   0  0  0  0  0  0  0  0  0  0  0  0
   -5.3567   15.0306  -32.5699 H   0  0  0  0  0  0  0  0  0  0  0  0
   -6.2982   13.7165  -33.3890 H   0  0  0  0  0  0  0  0  0  0  0  0
   -6.5630   15.6130  -34.1450 O   0  0  0  0  0  0  0  0  0  0  0  0
   -6.5580   16.9890  -33.8650 C   0  0  0  0  0  0  0  0  0  0  0  0
   -5.7860   17.9100  -34.5960 C   0  0  0  0  0  0  0  0  0  0  0  0
   -5.1425   17.5560  -35.4149 H   0  0  0  0  0  0  0  0  0  0  0  0
   -5.8320   19.2710  -34.2880 C   0  0  0  0  0  0  0  0  0  0  0  0
   -5.2257   19.9824  -34.8679 H   0  0  0  0  0  0  0  0  0  0  0  0
   -6.6460   19.7390  -33.2440 C   0  0  0  0  0  0  0  0  0  0  0  0
   -7.3970   18.8180  -32.4820 C   0  0  0  0  0  0  0  0  0  0  0  0
   -7.3550   17.4530  -32.8120 C   0  0  0  0  0  0  0  0  0  0  0  0
   -7.9580   16.7375  -32.2337 H   0  0  0  0  0  0  0  0  0  0  0  0
   -8.3270   19.2790  -31.3850 C   0  0  0  0  0  0  0  0  0  0  0  0
   -9.3627   19.2048  -31.7481 H   0  0  0  0  0  0  0  0  0  0  0  0
   -8.1536   18.6339  -30.5111 H   0  0  0  0  0  0  0  0  0  0  0  0
   -8.0630   20.7240  -30.9510 C   0  0  0  0  0  0  0  0  0  0  0  0
   -8.9247   21.0968  -30.3778 H   0  0  0  0  0  0  0  0  0  0  0  0
   -7.1599   20.7566  -30.3239 H   0  0  0  0  0  0  0  0  0  0  0  0
   -7.8620   21.5720  -32.1410 N   0  0  0  0  0  0  0  0  0  0  0  0
   -7.9170   23.0140  -31.8350 C   0  0  0  0  0  0  0  0  0  0  0  0
   -8.0960   23.5637  -32.7709 H   0  0  0  0  0  0  0  0  0  0  0  0
   -8.7281   23.1636  -31.1072 H   0  0  0  0  0  0  0  0  0  0  0  0
   -6.6480   23.5360  -31.2070 C   0  0  0  0  0  0  0  0  0  0  0  0
   -6.6780   24.7520  -30.5110 C   0  0  0  0  0  0  0  0  0  0  0  0
   -7.6355   25.2729  -30.3632 H   0  0  0  0  0  0  0  0  0  0  0  0
   -5.5020   25.3070  -30.0040 C   0  0  0  0  0  0  0  0  0  0  0  0
   -5.5417   26.2577  -29.4522 H   0  0  0  0  0  0  0  0  0  0  0  0
   -4.2750   24.6660  -30.1910 C   0  0  0  0  0  0  0  0  0  0  0  0
   -3.1200   25.2740  -29.6760 O   0  0  0  0  0  0  0  0  0  0  0  0
   -2.2540   24.6770  -28.7170 C   0  0  0  0  0  0  0  0  0  0  0  0
   -2.6062   24.9198  -27.7036 H   0  0  0  0  0  0  0  0  0  0  0  0
   -2.2530   23.5855  -28.8531 H   0  0  0  0  0  0  0  0  0  0  0  0
   -1.2335   25.0644  -28.8531 H   0  0  0  0  0  0  0  0  0  0  0  0
   -4.2400   23.4430  -30.8900 C   0  0  0  0  0  0  0  0  0  0  0  0
   -3.2818   22.9200  -31.0254 H   0  0  0  0  0  0  0  0  0  0  0  0
   -5.4160   22.8860  -31.4150 C   0  0  0  0  0  0  0  0  0  0  0  0
   -5.3440   21.5560  -32.1160 C   0  0  0  0  0  0  0  0  0  0  0  0
   -4.5054   21.5797  -32.8274 H   0  0  0  0  0  0  0  0  0  0  0  0
   -5.2062   20.7844  -31.3442 H   0  0  0  0  0  0  0  0  0  0  0  0
   -6.6370   21.2100  -32.8900 C   0  0  1  0  0  0  0  0  0  0  0  0
   -6.6406   21.8111  -33.8113 H   0  0  0  0  0  0  0  0  0  0  0  0
   -1.6090   20.3690  -28.4520 C   0  0  0  0  0  0  0  0  0  0  0  0
   -0.7350   19.3250  -28.0860 C   0  0  0  0  0  0  0  0  0  0  0  0
    0.2233   19.2026  -28.6120 H   0  0  0  0  0  0  0  0  0  0  0  0
   -1.0730   18.4680  -27.0840 N   0  0  0  0  0  0  0  0  0  0  0  0
   -2.2440   18.5840  -26.4070 C   0  0  0  0  0  0  0  0  0  0  0  0
   -2.4908   17.8678  -25.6094 H   0  0  0  0  0  0  0  0  0  0  0  0
   -3.1350   19.6110  -26.7220 C   0  0  0  0  0  0  0  0  0  0  0  0
   -4.0823   19.7132  -26.1724 H   0  0  0  0  0  0  0  0  0  0  0  0
   -2.8110   20.5070  -27.7420 C   0  0  0  0  0  0  0  0  0  0  0  0
   -3.5021   21.3259  -27.9905 H   0  0  0  0  0  0  0  0  0  0  0  0
  1  2  1  0
  2  3  2  0
  3  4  1  0
  3  5  1  0
  5  6  1  0
  5  7  1  0
  5  8  1  0
  8  9  1  0
  8 10  1  0
  8 11  1  0
 11 12  1  0
 11 13  1  0
 11 14  1  0
 14 15  1  0
 14 16  1  0
 14 17  1  0
 17 18  1  0
 17 19  1  0
 17 20  1  0
 20 21  1  0
 20 22  2  0
 22 23  1  0
 22 24  1  0
 24 25  1  0
 24 26  1  0
 24 27  1  0
 27 28  1  0
 27 29  1  0
 27 30  1  0
 30 31  1  0
 31 32  2  0
 32 33  1  0
 32 34  1  0
 34 35  1  0
 34 36  2  0
 36 37  1  0
 37 38  2  0
 38 39  1  0
 37 40  1  0
 40 41  1  0
 40 42  1  0
 40 43  1  0
 43 44  1  0
 43 45  1  0
 43 46  1  0
 46 47  1  0
 47 48  1  0
 47 49  1  0
 47 50  1  0
 50 51  2  0
 51 52  1  0
 51 53  1  0
 53 54  1  0
 53 55  2  0
 55 56  1  0
 56 57  1  0
 57 58  1  0
 57 59  1  0
 57 60  1  0
 55 61  1  0
 61 62  1  0
 61 63  2  0
 63 64  1  0
 64 65  1  0
 64 66  1  0
 64 67  1  0
 67 68  1  6
  2 69  1  0
 69 70  2  0
 70 71  1  0
 70 72  1  0
 72 73  2  0
 73 74  1  0
 73 75  1  0
 75 76  1  0
 75 77  2  0
 77 78  1  0
 38 31  1  0
 67 46  1  0
 77 69  1  0
 67 36  1  0
 63 50  1  0
M  END
>  <UniqueID>  (3) 
3

>  <SMILES>  (3) 
COc1ccc2c(c1)C[C@H]1c3ccc(OCC/C=C/CCCCC/C=C/c4cccnc4)cc3CCN1C2

>  <Energy>  (3) 
79.73464927021499

>  <Genealogy>  (3) 
COc1ccc2c(c1)C[C@H]1c3ccc(OCCC=CCCCCCC=Cc4cccnc4)cc3CCN1C2 (chirality)
COc1ccc2c(c1)C[C@H]1c3ccc(OCC/C=C/CCCCC/C=C/c4cccnc4)cc3CCN1C2 (cis-trans isomerization)
COc1ccc2c(c1)C[C@H]1c3ccc(OCC/C=C/CCCCC/C=C/c4cccnc4)cc3CCN1C2 (3D coordinates assigned)
COc1ccc2c(c1)C[C@H]1c3ccc(OCC/C=C/CCCCC/C=C/c4cccnc4)cc3CCN1C2 (nonaromatic ring conformer: 79.73464927021499 kcal/mol)

>  <smiles>  (3) 
COc1ccc2c(c1)CC1c3ccc(OCCC=CCCCCCC=Cc4cccnc4)cc3CCN1C2

>  <score_type>  (3) 
oracle

>  <origin>  (3) 
adg

>  <m_score__min__energy>  (3) 
-11.050000000000001

>  <m_primary>  (3) 
energy

$$$$
3:0
     RDKit          3D

 28 28  0  0  0  0  0  0  0  0999 V2000
   -6.2680   17.8000  -31.1640 O   0  0  0  0  0  0  0  0  0  0  0  0
   -7.0990   17.8990  -32.0560 C   0  0  0  0  0  0  0  0  0  0  0  0
   -6.7850   17.3640  -33.4220 C   0  0  0  0  0  0  0  0  0  0  0  0
   -5.7670   18.5240  -34.3120 Cl  0  0  0  0  0  0  0  0  0  0  0  0
   -8.4200   18.5630  -31.7710 C   0  0  0  0  0  0  0  0  0  0  0  0
   -8.7190   19.5600  -32.7330 O   0  0  0  0  0  0  0  0  0  0  0  0
   -9.1120   20.7780  -32.1220 C   0  0  0  0  0  0  0  0  0  0  0  0
   -7.9090   21.6430  -31.8570 C   0  0  0  0  0  0  0  0  0  0  0  0
   -6.7160   21.4450  -32.5680 C   0  0  0  0  0  0  0  0  0  0  0  0
   -5.6140   22.2760  -32.3430 C   0  0  0  0  0  0  0  0  0  0  0  0
   -5.6910   23.3180  -31.3990 C   0  0  0  0  0  0  0  0  0  0  0  0
   -4.6160   24.1810  -31.1370 O   0  0  0  0  0  0  0  0  0  0  0  0
   -3.6960   24.0280  -30.0590 C   0  0  0  0  0  0  0  0  0  0  0  0
   -2.6510   23.2080  -30.4440 F   0  0  0  0  0  0  0  0  0  0  0  0
   -3.1920   25.2670  -29.7170 F   0  0  0  0  0  0  0  0  0  0  0  0
   -6.8810   23.5070  -30.6880 C   0  0  0  0  0  0  0  0  0  0  0  0
   -7.9840   22.6780  -30.9130 C   0  0  0  0  0  0  0  0  0  0  0  0
   -6.2485   16.4086  -33.3245 H   0  0  0  0  0  0  0  0  0  0  0  0
   -7.7240   17.2102  -33.9740 H   0  0  0  0  0  0  0  0  0  0  0  0
   -9.2136   17.8014  -31.7871 H   0  0  0  0  0  0  0  0  0  0  0  0
   -8.3584   19.0439  -30.7836 H   0  0  0  0  0  0  0  0  0  0  0  0
   -9.8029   21.3126  -32.7904 H   0  0  0  0  0  0  0  0  0  0  0  0
   -9.6087   20.5543  -31.1663 H   0  0  0  0  0  0  0  0  0  0  0  0
   -6.6470   20.6322  -33.3060 H   0  0  0  0  0  0  0  0  0  0  0  0
   -4.6828   22.1149  -32.9060 H   0  0  0  0  0  0  0  0  0  0  0  0
   -4.2150   23.5783  -29.1997 H   0  0  0  0  0  0  0  0  0  0  0  0
   -6.9494   24.3153  -29.9451 H   0  0  0  0  0  0  0  0  0  0  0  0
   -8.9140   22.8379  -30.3478 H   0  0  0  0  0  0  0  0  0  0  0  0
  1  2  2  0
  2  3  1  0
  3  4  1  0
  2  5  1  0
  5  6  1  0
  6  7  1  0
  7  8  1  0
  8  9  2  0
  9 10  1  0
 10 11  2  0
 11 12  1  0
 12 13  1  0
 13 14  1  0
 13 15  1  0
 11 16  1  0
 16 17  2  0
 17  8  1  0
  3 18  1  0
  3 19  1  0
  5 20  1  0
  5 21  1  0
  7 22  1  0
  7 23  1  0
  9 24  1  0
 10 25  1  0
 13 26  1  0
 16 27  1  0
 17 28  1  0
M  END
>  <UniqueID>  (4) 
4

>  <SMILES>  (4) 
O=C(CCl)COCc1ccc(OC(F)F)cc1

>  <Energy>  (4) 
24.578285933977313

>  <Genealogy>  (4) 
O=C(CCl)COCc1ccc(OC(F)F)cc1 (3D coordinates assigned)
O=C(CCl)COCc1ccc(OC(F)F)cc1 (optimized conformer: 24.578285933977313 kcal/mol)

>  <smiles>  (4) 
O=C(CCl)COCc1ccc(OC(F)F)cc1

>  <score_type>  (4) 
oracle

>  <origin>  (4) 
adg

>  <m_score__min__energy>  (4) 
-5.8899999999999997

>  <m_primary>  (4) 
energy

$$$$
4:0
     RDKit          3D

 48 49  0  0  0  0  0  0  0  0999 V2000
   -6.9180   23.7620  -32.1380 C   0  0  0  0  0  0  0  0  0  0  0  0
   -5.9090   22.9600  -31.3180 C   0  0  0  0  0  0  0  0  0  0  0  0
   -4.4860   23.0430  -31.8840 C   0  0  0  0  0  0  0  0  0  0  0  0
   -3.4390   22.9090  -30.7970 C   0  0  0  0  0  0  0  0  0  0  0  0
   -2.8920   21.6430  -30.5070 C   0  0  0  0  0  0  0  0  0  0  0  0
   -3.3560   20.5210  -31.2210 O   0  0  0  0  0  0  0  0  0  0  0  0
   -2.5680   19.7110  -32.0950 C   0  0  0  0  0  0  0  0  0  0  0  0
   -3.2260   19.5880  -33.4790 C   0  0  0  0  0  0  0  0  0  0  0  0
   -4.1380   18.0150  -33.6720 S   0  0  0  0  0  0  0  0  0  0  0  0
   -5.7200   18.6650  -33.1260 C   0  0  0  0  0  0  0  0  0  0  0  0
   -6.6150   17.8450  -32.4320 C   0  0  0  0  0  0  0  0  0  0  0  0
   -7.8700   18.3340  -32.0550 C   0  0  0  0  0  0  0  0  0  0  0  0
   -8.2380   19.6580  -32.3680 C   0  0  0  0  0  0  0  0  0  0  0  0
   -9.4790   20.2000  -32.0030 O   0  0  0  0  0  0  0  0  0  0  0  0
   -9.6830   21.5570  -31.6240 C   0  0  0  0  0  0  0  0  0  0  0  0
   -7.3350   20.4710  -33.0630 C   0  0  0  0  0  0  0  0  0  0  0  0
   -6.0840   19.9790  -33.4440 C   0  0  0  0  0  0  0  0  0  0  0  0
   -1.9010   21.5340  -29.5170 C   0  0  0  0  0  0  0  0  0  0  0  0
   -1.4560   22.6600  -28.8280 C   0  0  0  0  0  0  0  0  0  0  0  0
   -1.9830   23.9320  -29.1080 C   0  0  0  0  0  0  0  0  0  0  0  0
   -1.4950   25.1240  -28.3580 C   0  0  0  0  0  0  0  0  0  0  0  0
   -1.3710   25.1200  -26.8640 C   0  0  0  0  0  0  0  0  0  0  0  0
   -1.2050   26.1850  -28.9750 O   0  0  0  0  0  0  0  0  0  0  0  0
   -2.9780   24.0500  -30.1050 C   0  0  0  0  0  0  0  0  0  0  0  0
   -3.4980   25.3010  -30.4250 O   0  0  0  0  0  0  0  0  0  0  0  0
   -7.5960   24.3009  -31.4598 H   0  0  0  0  0  0  0  0  0  0  0  0
   -6.3834   24.4844  -32.7723 H   0  0  0  0  0  0  0  0  0  0  0  0
   -7.5011   23.0782  -32.7723 H   0  0  0  0  0  0  0  0  0  0  0  0
   -5.9019   23.3503  -30.2896 H   0  0  0  0  0  0  0  0  0  0  0  0
   -6.2183   21.9049  -31.3509 H   0  0  0  0  0  0  0  0  0  0  0  0
   -4.3459   22.2331  -32.6150 H   0  0  0  0  0  0  0  0  0  0  0  0
   -4.3633   24.0285  -32.3571 H   0  0  0  0  0  0  0  0  0  0  0  0
   -1.5738   20.1677  -32.2092 H   0  0  0  0  0  0  0  0  0  0  0  0
   -2.4835   18.7052  -31.6577 H   0  0  0  0  0  0  0  0  0  0  0  0
   -3.9286   20.4237  -33.6129 H   0  0  0  0  0  0  0  0  0  0  0  0
   -2.4281   19.6111  -34.2358 H   0  0  0  0  0  0  0  0  0  0  0  0
   -6.3312   16.8121  -32.1817 H   0  0  0  0  0  0  0  0  0  0  0  0
   -8.5718   17.6834  -31.5127 H   0  0  0  0  0  0  0  0  0  0  0  0
   -9.6945   21.6335  -30.5267 H   0  0  0  0  0  0  0  0  0  0  0  0
   -8.8679   22.1765  -32.0262 H   0  0  0  0  0  0  0  0  0  0  0  0
  -10.6442   21.9095  -32.0262 H   0  0  0  0  0  0  0  0  0  0  0  0
   -7.6126   21.5060  -33.3113 H   0  0  0  0  0  0  0  0  0  0  0  0
   -5.3842   20.6249  -33.9945 H   0  0  0  0  0  0  0  0  0  0  0  0
   -1.4717   20.5485  -29.2834 H   0  0  0  0  0  0  0  0  0  0  0  0
   -0.6816   22.5518  -28.0543 H   0  0  0  0  0  0  0  0  0  0  0  0
   -2.3737   25.1523  -26.4128 H   0  0  0  0  0  0  0  0  0  0  0  0
   -0.8531   24.2047  -26.5415 H   0  0  0  0  0  0  0  0  0  0  0  0
   -0.7952   26.0000  -26.5415 H   0  0  0  0  0  0  0  0  0  0  0  0
  1  2  1  0
  2  3  1  0
  3  4  1  0
  4  5  2  0
  5  6  1  0
  6  7  1  0
  7  8  1  0
  8  9  1  0
  9 10  1  0
 10 11  2  0
 11 12  1  0
 12 13  2  0
 13 14  1  0
 14 15  1  0
 13 16  1  0
 16 17  2  0
  5 18  1  0
 18 19  2  0
 19 20  1  0
 20 21  1  0
 21 22  1  0
 21 23  2  0
 20 24  2  0
 24 25  1  0
 24  4  1  0
 17 10  1  0
  1 26  1  0
  1 27  1  0
  1 28  1  0
  2 29  1  0
  2 30  1  0
  3 31  1  0
  3 32  1  0
  7 33  1  0
  7 34  1  0
  8 35  1  0
  8 36  1  0
 11 37  1  0
 12 38  1  0
 15 39  1  0
 15 40  1  0
 15 41  1  0
 16 42  1  0
 17 43  1  0
 18 44  1  0
 19 45  1  0
 22 46  1  0
 22 47  1  0
 22 48  1  0
M  CHG  1  25  -1
M  END
>  <UniqueID>  (5) 
5

>  <SMILES>  (5) 
CCCc1c(OCCSc2ccc(OC)cc2)ccc(C(C)=O)c1[O-]

>  <Energy>  (5) 
40.1195098611955

>  <Genealogy>  (5) 
CCCc1c(OCCSc2ccc(OC)cc2)ccc(C(C)=O)c1[O-] (protonated)
CCCc1c(OCCSc2ccc(OC)cc2)ccc(C(C)=O)c1[O-] (3D coordinates assigned)
CCCc1c(OCCSc2ccc(OC)cc2)ccc(C(C)=O)c1[O-] (optimized conformer: 40.1195098611955 kcal/mol)

>  <smiles>  (5) 
CCCc1c(OCCSc2ccc(OC)cc2)ccc(C(C)=O)c1O

>  <score_type>  (5) 
oracle

>  <origin>  (5) 
adg

>  <m_score__min__energy>  (5) 
-11.300000000000001

>  <m_primary>  (5) 
energy

$$$$
5:0
     RDKit          3D

 44 46  0  0  0  0  0  0  0  0999 V2000
   -8.9310   21.2960  -31.2700 C   0  0  0  0  0  0  0  0  0  0  0  0
   -9.3740   20.3380  -32.3720 C   0  0  0  0  0  0  0  0  0  0  0  0
   -8.7860   18.9680  -32.1620 C   0  0  0  0  0  0  0  0  0  0  0  0
   -9.4820   18.1180  -31.5410 O   0  0  0  0  0  0  0  0  0  0  0  0
   -7.4450   18.5760  -32.6820 C   0  0  0  0  0  0  0  0  0  0  0  0
   -7.2230   17.3260  -33.2940 C   0  0  0  0  0  0  0  0  0  0  0  0
   -5.9550   16.9810  -33.7670 C   0  0  0  0  0  0  0  0  0  0  0  0
   -4.8910   17.8740  -33.6420 C   0  0  0  0  0  0  0  0  0  0  0  0
   -5.0860   19.1280  -33.0440 C   0  0  0  0  0  0  0  0  0  0  0  0
   -3.9830   20.0440  -32.8970 N   0  0  0  0  0  0  0  0  0  0  0  0
   -4.1860   21.4820  -33.1080 C   0  0  0  0  0  0  0  0  0  0  0  0
   -3.1030   22.2930  -32.3750 C   0  0  0  0  0  0  0  0  0  0  0  0
   -2.7510   21.6810  -31.0760 N   0  0  0  0  0  0  0  0  0  0  0  0
   -3.8820   21.7230  -30.1230 C   0  0  0  0  0  0  0  0  0  0  0  0
   -4.6510   22.9980  -30.2920 C   0  0  0  0  0  0  0  0  0  0  0  0
   -6.0020   23.1020  -30.6000 C   0  0  0  0  0  0  0  0  0  0  0  0
   -6.4480   24.4270  -30.6680 C   0  0  0  0  0  0  0  0  0  0  0  0
   -5.4540   25.3650  -30.4110 C   0  0  0  0  0  0  0  0  0  0  0  0
   -4.0200   24.5430  -30.0970 S   0  0  0  0  0  0  0  0  0  0  0  0
   -2.1860   20.3110  -31.2250 C   0  0  0  0  0  0  0  0  0  0  0  0
   -2.6530   19.5770  -32.4980 C   0  0  0  0  0  0  0  0  0  0  0  0
   -6.3600   19.4670  -32.5600 C   0  0  0  0  0  0  0  0  0  0  0  0
   -9.1389   20.8464  -30.2878 H   0  0  0  0  0  0  0  0  0  0  0  0
   -7.8522   21.4891  -31.3639 H   0  0  0  0  0  0  0  0  0  0  0  0
   -9.4826   22.2431  -31.3639 H   0  0  0  0  0  0  0  0  0  0  0  0
  -10.4715   20.2638  -32.3648 H   0  0  0  0  0  0  0  0  0  0  0  0
   -9.0213   20.7272  -33.3385 H   0  0  0  0  0  0  0  0  0  0  0  0
   -8.0561   16.6156  -33.4001 H   0  0  0  0  0  0  0  0  0  0  0  0
   -5.7948   16.0009  -34.2401 H   0  0  0  0  0  0  0  0  0  0  0  0
   -3.8944   17.5938  -34.0140 H   0  0  0  0  0  0  0  0  0  0  0  0
   -4.1350   21.7005  -34.1849 H   0  0  0  0  0  0  0  0  0  0  0  0
   -5.1719   21.7641  -32.7098 H   0  0  0  0  0  0  0  0  0  0  0  0
   -2.2022   22.3368  -33.0048 H   0  0  0  0  0  0  0  0  0  0  0  0
   -3.4983   23.3017  -32.1844 H   0  0  0  0  0  0  0  0  0  0  0  0
   -4.5485   20.8685  -30.3115 H   0  0  0  0  0  0  0  0  0  0  0  0
   -3.4898   21.6726  -29.0965 H   0  0  0  0  0  0  0  0  0  0  0  0
   -6.6537   22.2328  -30.7726 H   0  0  0  0  0  0  0  0  0  0  0  0
   -7.4872   24.7007  -30.9027 H   0  0  0  0  0  0  0  0  0  0  0  0
   -5.5832   26.4574  -30.4127 H   0  0  0  0  0  0  0  0  0  0  0  0
   -1.0892   20.3900  -31.2536 H   0  0  0  0  0  0  0  0  0  0  0  0
   -2.5452   19.7228  -30.3677 H   0  0  0  0  0  0  0  0  0  0  0  0
   -1.9402   19.7740  -33.3123 H   0  0  0  0  0  0  0  0  0  0  0  0
   -2.7007   18.4977  -32.2908 H   0  0  0  0  0  0  0  0  0  0  0  0
   -6.5135   20.4437  -32.0779 H   0  0  0  0  0  0  0  0  0  0  0  0
  1  2  1  0
  2  3  1  0
  3  4  2  0
  3  5  1  0
  5  6  2  0
  6  7  1  0
  7  8  2  0
  8  9  1  0
  9 10  1  0
 10 11  1  0
 11 12  1  0
 12 13  1  0
 13 14  1  0
 14 15  1  0
 15 16  2  0
 16 17  1  0
 17 18  2  0
 18 19  1  0
 13 20  1  0
 20 21  1  0
  9 22  2  0
 22  5  1  0
 21 10  1  0
 19 15  1  0
  1 23  1  0
  1 24  1  0
  1 25  1  0
  2 26  1  0
  2 27  1  0
  6 28  1  0
  7 29  1  0
  8 30  1  0
 11 31  1  0
 11 32  1  0
 12 33  1  0
 12 34  1  0
 14 35  1  0
 14 36  1  0
 16 37  1  0
 17 38  1  0
 18 39  1  0
 20 40  1  0
 20 41  1  0
 21 42  1  0
 21 43  1  0
 22 44  1  0
M  END
>  <UniqueID>  (6) 
6

>  <SMILES>  (6) 
CCC(=O)c1cccc(N2CCN(Cc3cccs3)CC2)c1

>  <Energy>  (6) 
80.26957894275992

>  <Genealogy>  (6) 
CCC(=O)c1cccc(N2CCN(Cc3cccs3)CC2)c1 (3D coordinates assigned)
CCC(=O)c1cccc(N2CCN(Cc3cccs3)CC2)c1 (nonaromatic ring conformer: 80.26957894275992 kcal/mol)

>  <smiles>  (6) 
CCC(=O)c1cccc(N2CCN(Cc3cccs3)CC2)c1

>  <score_type>  (6) 
oracle

>  <origin>  (6) 
adg

>  <m_score__min__energy>  (6) 
-8.1799999999999997

>  <m_primary>  (6) 
energy

$$$$
6:0
     RDKit          3D

 20 20  0  0  0  0  0  0  0  0999 V2000
   -9.4382   19.3561  -32.2537 H   0  0  0  0  0  0  0  0  0  0  0  0
   -8.7710   20.2280  -32.1850 C   0  0  0  0  0  0  0  0  0  0  0  0
   -9.0150   21.5870  -31.2200 S   0  0  0  0  0  0  0  0  0  0  0  0
   -7.5920   22.3390  -31.7290 C   0  0  0  0  0  0  0  0  0  0  0  0
   -7.1430   23.5000  -31.3470 N   0  0  0  0  0  0  0  0  0  0  0  0
   -5.7830   23.9640  -31.3710 C   0  0  0  0  0  0  0  0  0  0  0  0
   -4.9160   23.4240  -32.1100 O   0  0  0  0  0  0  0  0  0  0  0  0
   -5.3790   25.0960  -30.4700 C   0  0  0  0  0  0  0  0  0  0  0  0
   -5.7425   24.8875  -29.4530 H   0  0  0  0  0  0  0  0  0  0  0  0
   -5.8204   26.0215  -30.8684 H   0  0  0  0  0  0  0  0  0  0  0  0
   -3.9210   25.2710  -30.4260 N   0  0  0  0  0  0  0  0  0  0  0  0
   -3.4990   24.9260  -31.3200 H   0  0  0  0  0  0  0  0  0  0  0  0
   -3.3190   24.5340  -29.3110 C   0  0  0  0  0  0  0  0  0  0  0  0
   -3.6675   24.9606  -28.3588 H   0  0  0  0  0  0  0  0  0  0  0  0
   -3.6145   23.4760  -29.3687 H   0  0  0  0  0  0  0  0  0  0  0  0
   -2.2233   24.6124  -29.3687 H   0  0  0  0  0  0  0  0  0  0  0  0
   -6.9340   21.5700  -32.6220 N   0  0  0  0  0  0  0  0  0  0  0  0
   -6.0290   21.8390  -33.0700 H   0  0  0  0  0  0  0  0  0  0  0  0
   -7.5780   20.4010  -32.8800 C   0  0  0  0  0  0  0  0  0  0  0  0
   -7.1868   19.6508  -33.5829 H   0  0  0  0  0  0  0  0  0  0  0  0
  1  2  1  0
  2  3  1  0
  3  4  1  0
  4  5  2  0
  5  6  1  0
  6  7  2  0
  6  8  1  0
  8  9  1  0
  8 10  1  0
  8 11  1  0
 11 12  1  0
 11 13  1  0
 13 14  1  0
 13 15  1  0
 13 16  1  0
  4 17  1  0
 17 18  1  0
 17 19  1  0
 19 20  1  0
 19  2  2  0
M  END
>  <UniqueID>  (7) 
7

>  <SMILES>  (7) 
CNCC(=O)/N=c1/[nH]ccs1

>  <Energy>  (7) 
49.39600451484247

>  <Genealogy>  (7) 
CNCC(=O)/N=c1/[nH]ccs1 (cis-trans isomerization)
CNCC(=O)/N=c1/[nH]ccs1 (3D coordinates assigned)
CNCC(=O)/N=c1/[nH]ccs1 (optimized conformer: 49.39600451484247 kcal/mol)

>  <smiles>  (7) 
CNCC(=O)N=c1[nH]ccs1

>  <score_type>  (7) 
oracle

>  <origin>  (7) 
adg

>  <m_score__min__energy>  (7) 
-4.8899999999999997

>  <m_primary>  (7) 
energy

$$$$
7:0
     RDKit          3D

 40 42  0  0  0  0  0  0  0  0999 V2000
   -3.8010   24.1710  -27.9280 C   0  0  0  0  0  0  0  0  0  0  0  0
   -4.9850   24.2480  -28.7760 N   0  0  0  0  0  0  0  0  0  0  0  0
   -4.9420   24.8480  -30.0770 C   0  0  0  0  0  0  0  0  0  0  0  0
   -3.8540   25.2870  -30.5380 O   0  0  0  0  0  0  0  0  0  0  0  0
   -6.1850   24.9400  -30.9110 C   0  0  0  0  0  0  0  0  0  0  0  0
   -6.2040   23.9100  -31.8980 O   0  0  0  0  0  0  0  0  0  0  0  0
   -7.1110   22.8390  -31.9370 C   0  0  0  0  0  0  0  0  0  0  0  0
   -8.4800   22.9870  -31.6000 C   0  0  0  0  0  0  0  0  0  0  0  0
   -9.3620   21.8880  -31.6630 C   0  0  0  0  0  0  0  0  0  0  0  0
   -8.9000   20.6240  -32.0590 C   0  0  0  0  0  0  0  0  0  0  0  0
   -7.5500   20.4960  -32.3780 C   0  0  0  0  0  0  0  0  0  0  0  0
   -6.8300   19.4010  -32.7950 C   0  0  0  0  0  0  0  0  0  0  0  0
   -5.5400   19.8530  -33.0160 C   0  0  0  0  0  0  0  0  0  0  0  0
   -5.4310   21.1690  -32.6970 N   0  0  0  0  0  0  0  0  0  0  0  0
   -4.2250   21.9940  -32.7570 C   0  0  0  0  0  0  0  0  0  0  0  0
   -6.6760   21.5600  -32.3230 C   0  0  0  0  0  0  0  0  0  0  0  0
   -4.4220   18.9450  -33.4550 C   0  0  0  0  0  0  0  0  0  0  0  0
   -4.9760   17.6320  -34.0450 C   0  0  0  0  0  0  0  0  0  0  0  0
   -6.1090   17.0450  -33.1800 C   0  0  0  0  0  0  0  0  0  0  0  0
   -7.3050   18.0100  -33.0890 C   0  0  0  0  0  0  0  0  0  0  0  0
   -4.1051   24.1908  -26.8710 H   0  0  0  0  0  0  0  0  0  0  0  0
   -3.2607   23.2358  -28.1367 H   0  0  0  0  0  0  0  0  0  0  0  0
   -3.1442   25.0283  -28.1367 H   0  0  0  0  0  0  0  0  0  0  0  0
   -5.8860   23.8620  -28.4150 H   0  0  0  0  0  0  0  0  0  0  0  0
   -7.0657   24.8338  -30.2605 H   0  0  0  0  0  0  0  0  0  0  0  0
   -6.2016   25.9167  -31.4168 H   0  0  0  0  0  0  0  0  0  0  0  0
   -8.8590   23.9706  -31.2856 H   0  0  0  0  0  0  0  0  0  0  0  0
  -10.4213   22.0233  -31.3993 H   0  0  0  0  0  0  0  0  0  0  0  0
   -9.5813   19.7623  -32.1158 H   0  0  0  0  0  0  0  0  0  0  0  0
   -3.8875   22.2249  -31.7358 H   0  0  0  0  0  0  0  0  0  0  0  0
   -3.4331   21.4475  -33.2902 H   0  0  0  0  0  0  0  0  0  0  0  0
   -4.4473   22.9301  -33.2902 H   0  0  0  0  0  0  0  0  0  0  0  0
   -3.8213   19.4581  -34.2204 H   0  0  0  0  0  0  0  0  0  0  0  0
   -3.8032   18.7019  -32.5787 H   0  0  0  0  0  0  0  0  0  0  0  0
   -5.3663   17.8324  -35.0537 H   0  0  0  0  0  0  0  0  0  0  0  0
   -4.1560   16.8994  -34.0749 H   0  0  0  0  0  0  0  0  0  0  0  0
   -6.4465   16.0982  -33.6270 H   0  0  0  0  0  0  0  0  0  0  0  0
   -5.7192   16.8807  -32.1646 H   0  0  0  0  0  0  0  0  0  0  0  0
   -7.8477   18.0065  -34.0458 H   0  0  0  0  0  0  0  0  0  0  0  0
   -7.9701   17.6800  -32.2773 H   0  0  0  0  0  0  0  0  0  0  0  0
  1  2  1  0
  2  3  1  0
  3  4  2  0
  3  5  1  0
  5  6  1  0
  6  7  1  0
  7  8  2  0
  8  9  1  0
  9 10  2  0
 10 11  1  0
 11 12  1  0
 12 13  2  0
 13 14  1  0
 14 15  1  0
 14 16  1  0
 13 17  1  0
 17 18  1  0
 18 19  1  0
 19 20  1  0
 16  7  1  0
 16 11  2  0
 20 12  1  0
  1 21  1  0
  1 22  1  0
  1 23  1  0
  2 24  1  0
  5 25  1  0
  5 26  1  0
  8 27  1  0
  9 28  1  0
 10 29  1  0
 15 30  1  0
 15 31  1  0
 15 32  1  0
 17 33  1  0
 17 34  1  0
 18 35  1  0
 18 36  1  0
 19 37  1  0
 19 38  1  0
 20 39  1  0
 20 40  1  0
M  END
>  <UniqueID>  (8) 
8

>  <SMILES>  (8) 
CNC(=O)COc1cccc2c3c(n(C)c12)CCCC3

>  <Energy>  (8) 
70.72099026534013

>  <Genealogy>  (8) 
CNC(=O)COc1cccc2c3c(n(C)c12)CCCC3 (3D coordinates assigned)
CNC(=O)COc1cccc2c3c(n(C)c12)CCCC3 (nonaromatic ring conformer: 70.72099026534013 kcal/mol)

>  <smiles>  (8) 
CNC(=O)COc1cccc2c3c(n(C)c12)CCCC3

>  <score_type>  (8) 
oracle

>  <origin>  (8) 
adg

>  <m_score__min__energy>  (8) 
-8.9700000000000006

>  <m_primary>  (8) 
energy

$$$$
8:0
     RDKit          3D

 56 59  0  0  0  0  0  0  0  0999 V2000
   -0.5030   26.8340  -27.4610 C   0  0  0  0  0  0  0  0  0  0  0  0
   -0.2570   25.6500  -28.2130 O   0  0  0  0  0  0  0  0  0  0  0  0
   -0.8070   24.3930  -27.9180 C   0  0  0  0  0  0  0  0  0  0  0  0
   -0.1890   23.4970  -27.0250 C   0  0  0  0  0  0  0  0  0  0  0  0
   -0.7640   22.2510  -26.7640 C   0  0  0  0  0  0  0  0  0  0  0  0
   -1.9790   21.8920  -27.3630 C   0  0  0  0  0  0  0  0  0  0  0  0
   -2.5790   20.5410  -27.1080 C   0  0  0  0  0  0  0  0  0  0  0  0
   -2.5930   22.7800  -28.2560 C   0  0  0  0  0  0  0  0  0  0  0  0
   -2.0010   24.0160  -28.5540 C   0  0  0  0  0  0  0  0  0  0  0  0
   -2.6210   24.9190  -29.4780 N   0  0  0  0  0  0  0  0  0  0  0  0
   -3.6000   24.5550  -30.4610 C   0  0  0  0  0  0  0  0  0  0  0  0
   -4.4560   25.4160  -30.8020 O   0  0  0  0  0  0  0  0  0  0  0  0
   -3.5560   23.2070  -31.1580 C   0  0  0  0  0  0  0  0  0  0  0  0
   -2.1470   22.5950  -31.1760 C   0  0  0  0  0  0  0  0  0  0  0  0
   -2.1450   21.2690  -31.9630 C   0  0  0  0  0  0  0  0  0  0  0  0
   -3.3160   20.3950  -31.6900 N   0  0  0  0  0  0  0  0  0  0  0  0
   -4.3510   20.2040  -33.0940 S   0  0  0  0  0  0  0  0  0  0  0  0
   -4.4520   21.5080  -33.8350 O   0  0  0  0  0  0  0  0  0  0  0  0
   -3.7750   19.1570  -34.0070 O   0  0  0  0  0  0  0  0  0  0  0  0
   -5.9870   19.7160  -32.6050 C   0  0  0  0  0  0  0  0  0  0  0  0
   -6.2550   18.3480  -32.4340 C   0  0  0  0  0  0  0  0  0  0  0  0
   -7.5290   17.9060  -32.0820 C   0  0  0  0  0  0  0  0  0  0  0  0
   -8.5610   18.8190  -31.8870 C   0  0  0  0  0  0  0  0  0  0  0  0
   -8.3220   20.1930  -32.0220 C   0  0  0  0  0  0  0  0  0  0  0  0
   -9.3650   21.1070  -31.8040 C   0  0  0  0  0  0  0  0  0  0  0  0
   -9.1350   22.4780  -31.9180 C   0  0  0  0  0  0  0  0  0  0  0  0
   -7.8640   22.9480  -32.2440 C   0  0  0  0  0  0  0  0  0  0  0  0
   -6.8150   22.0540  -32.4680 C   0  0  0  0  0  0  0  0  0  0  0  0
   -7.0250   20.6590  -32.3740 C   0  0  0  0  0  0  0  0  0  0  0  0
   -4.0810   20.7730  -30.4860 C   0  0  0  0  0  0  0  0  0  0  0  0
   -4.5800   22.2300  -30.5290 C   0  0  0  0  0  0  0  0  0  0  0  0
   -0.4549   26.6026  -26.3867 H   0  0  0  0  0  0  0  0  0  0  0  0
    0.2573   27.5897  -27.7077 H   0  0  0  0  0  0  0  0  0  0  0  0
   -1.5014   27.2243  -27.7077 H   0  0  0  0  0  0  0  0  0  0  0  0
    0.7518   23.7797  -26.5301 H   0  0  0  0  0  0  0  0  0  0  0  0
   -0.2603   21.5477  -26.0845 H   0  0  0  0  0  0  0  0  0  0  0  0
   -2.6541   20.3719  -26.0237 H   0  0  0  0  0  0  0  0  0  0  0  0
   -3.5823   20.4948  -27.5567 H   0  0  0  0  0  0  0  0  0  0  0  0
   -1.9406   19.7657  -27.5567 H   0  0  0  0  0  0  0  0  0  0  0  0
   -3.5480   22.5053  -28.7276 H   0  0  0  0  0  0  0  0  0  0  0  0
   -3.8352   23.3807  -32.2077 H   0  0  0  0  0  0  0  0  0  0  0  0
   -1.4517   23.3008  -31.6539 H   0  0  0  0  0  0  0  0  0  0  0  0
   -1.8323   22.3953  -30.1411 H   0  0  0  0  0  0  0  0  0  0  0  0
   -2.1346   21.5057  -33.0372 H   0  0  0  0  0  0  0  0  0  0  0  0
   -1.2533   20.7118  -31.6399 H   0  0  0  0  0  0  0  0  0  0  0  0
   -5.4479   17.6150  -32.5800 H   0  0  0  0  0  0  0  0  0  0  0  0
   -7.7198   16.8298  -31.9577 H   0  0  0  0  0  0  0  0  0  0  0  0
   -9.5678   18.4608  -31.6260 H   0  0  0  0  0  0  0  0  0  0  0  0
  -10.3684   20.7402  -31.5420 H   0  0  0  0  0  0  0  0  0  0  0  0
   -9.9575   23.1889  -31.7505 H   0  0  0  0  0  0  0  0  0  0  0  0
   -7.6861   24.0305  -32.3254 H   0  0  0  0  0  0  0  0  0  0  0  0
   -5.8158   22.4387  -32.7200 H   0  0  0  0  0  0  0  0  0  0  0  0
   -4.9512   20.1059  -30.3987 H   0  0  0  0  0  0  0  0  0  0  0  0
   -3.4067   20.6791  -29.6220 H   0  0  0  0  0  0  0  0  0  0  0  0
   -5.5062   22.2651  -31.1214 H   0  0  0  0  0  0  0  0  0  0  0  0
   -4.7422   22.5509  -29.4894 H   0  0  0  0  0  0  0  0  0  0  0  0
  1  2  1  0
  2  3  1  0
  3  4  2  0
  4  5  1  0
  5  6  2  0
  6  7  1  0
  6  8  1  0
  8  9  2  0
  9 10  1  0
 10 11  1  0
 11 12  2  0
 11 13  1  0
 13 14  1  0
 14 15  1  0
 15 16  1  0
 16 17  1  0
 17 18  2  0
 17 19  2  0
 17 20  1  0
 20 21  2  0
 21 22  1  0
 22 23  2  0
 23 24  1  0
 24 25  2  0
 25 26  1  0
 26 27  2  0
 27 28  1  0
 28 29  2  0
 16 30  1  0
 30 31  1  0
  9  3  1  0
 31 13  1  0
 29 20  1  0
 29 24  1  0
  1 32  1  0
  1 33  1  0
  1 34  1  0
  4 35  1  0
  5 36  1  0
  7 37  1  0
  7 38  1  0
  7 39  1  0
  8 40  1  0
 13 41  1  0
 14 42  1  0
 14 43  1  0
 15 44  1  0
 15 45  1  0
 21 46  1  0
 22 47  1  0
 23 48  1  0
 25 49  1  0
 26 50  1  0
 27 51  1  0
 28 52  1  0
 30 53  1  0
 30 54  1  0
 31 55  1  0
 31 56  1  0
M  CHG  1  10  -1
M  END
>  <UniqueID>  (9) 
9

>  <SMILES>  (9) 
COc1ccc(C)cc1[N-]C(=O)C1CCN(S(=O)(=O)c2cccc3ccccc23)CC1

>  <Energy>  (9) 
78.26202767256603

>  <Genealogy>  (9) 
COc1ccc(C)cc1[N-]C(=O)C1CCN(S(=O)(=O)c2cccc3ccccc23)CC1 (protonated)
COc1ccc(C)cc1[N-]C(=O)C1CCN(S(=O)(=O)c2cccc3ccccc23)CC1 (3D coordinates assigned)
COc1ccc(C)cc1[N-]C(=O)C1CCN(S(=O)(=O)c2cccc3ccccc23)CC1 (nonaromatic ring conformer: 78.26202767256603 kcal/mol)

>  <smiles>  (9) 
COc1ccc(C)cc1NC(=O)C1CCN(S(=O)(=O)c2cccc3ccccc23)CC1

>  <score_type>  (9) 
oracle

>  <origin>  (9) 
adg

>  <m_score__min__energy>  (9) 
-12.33

>  <m_primary>  (9) 
energy

$$$$
9:0
     RDKit          3D

 39 41  0  0  0  0  0  0  0  0999 V2000
    1.2400   24.7480  -26.5660 C   0  0  0  0  0  0  0  0  0  0  0  0
    0.9060   24.6870  -27.9490 O   0  0  0  0  0  0  0  0  0  0  0  0
   -0.2610   24.0990  -28.4620 C   0  0  0  0  0  0  0  0  0  0  0  0
   -1.3520   24.8680  -28.9070 C   0  0  0  0  0  0  0  0  0  0  0  0
   -2.5050   24.2510  -29.4140 C   0  0  0  0  0  0  0  0  0  0  0  0
   -3.5570   25.0070  -29.8400 N   0  0  0  0  0  0  0  0  0  0  0  0
   -4.6990   24.4470  -30.3330 C   0  0  0  0  0  0  0  0  0  0  0  0
   -5.8260   25.3400  -30.7850 C   0  0  0  0  0  0  0  0  0  0  0  0
   -4.8070   23.0430  -30.4270 C   0  0  0  0  0  0  0  0  0  0  0  0
   -6.0260   22.4060  -30.9750 C   0  0  0  0  0  0  0  0  0  0  0  0
   -7.2380   22.5240  -30.2760 C   0  0  0  0  0  0  0  0  0  0  0  0
   -8.4000   21.9330  -30.7760 C   0  0  0  0  0  0  0  0  0  0  0  0
   -8.3620   21.2200  -31.9760 C   0  0  0  0  0  0  0  0  0  0  0  0
   -7.1610   21.0970  -32.6800 C   0  0  0  0  0  0  0  0  0  0  0  0
   -5.9910   21.6860  -32.1860 C   0  0  0  0  0  0  0  0  0  0  0  0
   -4.4950   21.4900  -33.0920 Cl  0  0  0  0  0  0  0  0  0  0  0  0
   -3.7360   22.2420  -29.9950 C   0  0  0  0  0  0  0  0  0  0  0  0
   -3.8200   20.9840  -30.0760 O   0  0  0  0  0  0  0  0  0  0  0  0
   -2.5730   22.8440  -29.4800 C   0  0  0  0  0  0  0  0  0  0  0  0
   -1.4800   22.0760  -29.0360 C   0  0  0  0  0  0  0  0  0  0  0  0
   -0.3260   22.7000  -28.5260 C   0  0  0  0  0  0  0  0  0  0  0  0
    0.7820   21.9630  -28.0740 O   0  0  0  0  0  0  0  0  0  0  0  0
    0.8090   20.5460  -27.9360 C   0  0  0  0  0  0  0  0  0  0  0  0
    0.3352   24.5828  -25.9626 H   0  0  0  0  0  0  0  0  0  0  0  0
    1.9828   23.9706  -26.3335 H   0  0  0  0  0  0  0  0  0  0  0  0
    1.6600   25.7377  -26.3335 H   0  0  0  0  0  0  0  0  0  0  0  0
   -1.3001   25.9656  -28.8567 H   0  0  0  0  0  0  0  0  0  0  0  0
   -3.4860   26.0490  -29.7860 H   0  0  0  0  0  0  0  0  0  0  0  0
   -6.3439   25.7504  -29.9056 H   0  0  0  0  0  0  0  0  0  0  0  0
   -5.4205   26.1646  -31.3896 H   0  0  0  0  0  0  0  0  0  0  0  0
   -6.5361   24.7567  -31.3896 H   0  0  0  0  0  0  0  0  0  0  0  0
   -7.2722   23.0846  -29.3302 H   0  0  0  0  0  0  0  0  0  0  0  0
   -9.3465   22.0292  -30.2239 H   0  0  0  0  0  0  0  0  0  0  0  0
   -9.2785   20.7546  -32.3677 H   0  0  0  0  0  0  0  0  0  0  0  0
   -7.1349   20.5355  -33.6255 H   0  0  0  0  0  0  0  0  0  0  0  0
   -1.5282   20.9783  -29.0881 H   0  0  0  0  0  0  0  0  0  0  0  0
    0.8140   20.2816  -26.8683 H   0  0  0  0  0  0  0  0  0  0  0  0
   -0.0811   20.1138  -28.4166 H   0  0  0  0  0  0  0  0  0  0  0  0
    1.7149   20.1480  -28.4166 H   0  0  0  0  0  0  0  0  0  0  0  0
  1  2  1  0
  2  3  1  0
  3  4  2  0
  4  5  1  0
  5  6  1  0
  6  7  1  0
  7  8  1  0
  7  9  2  0
  9 10  1  0
 10 11  2  0
 11 12  1  0
 12 13  2  0
 13 14  1  0
 14 15  2  0
 15 16  1  0
  9 17  1  0
 17 18  2  0
 17 19  1  0
 19 20  1  0
 20 21  2  0
 21 22  1  0
 22 23  1  0
 21  3  1  0
 19  5  2  0
 15 10  1  0
  1 24  1  0
  1 25  1  0
  1 26  1  0
  4 27  1  0
  6 28  1  0
  8 29  1  0
  8 30  1  0
  8 31  1  0
 11 32  1  0
 12 33  1  0
 13 34  1  0
 14 35  1  0
 20 36  1  0
 23 37  1  0
 23 38  1  0
 23 39  1  0
M  END
>  <UniqueID>  (10) 
10

>  <SMILES>  (10) 
COc1cc2[nH]c(C)c(-c3ccccc3Cl)c(=O)c2cc1OC

>  <Energy>  (10) 
54.312518744711426

>  <Genealogy>  (10) 
COc1cc2[nH]c(C)c(-c3ccccc3Cl)c(=O)c2cc1OC (3D coordinates assigned)
COc1cc2[nH]c(C)c(-c3ccccc3Cl)c(=O)c2cc1OC (optimized conformer: 54.312518744711426 kcal/mol)

>  <smiles>  (10) 
COc1cc2[nH]c(C)c(-c3ccccc3Cl)c(=O)c2cc1OC

>  <score_type>  (10) 
oracle

>  <origin>  (10) 
adg

>  <m_score__min__energy>  (10) 
-7.9299999999999997

>  <m_primary>  (10) 
energy

$$$$
10:0
     RDKit          3D

 39 42  0  0  1  0  0  0  0  0999 V2000
    0.5020   21.0580  -34.1840 Br  0  0  0  0  0  0  0  0  0  0  0  0
   -1.0500   21.1510  -33.0780 C   0  0  0  0  0  0  0  0  0  0  0  0
   -0.9590   21.3340  -31.7150 C   0  0  0  0  0  0  0  0  0  0  0  0
   -2.0710   21.4040  -30.9010 C   0  0  0  0  0  0  0  0  0  0  0  0
   -3.3420   21.2900  -31.4360 C   0  0  0  0  0  0  0  0  0  0  0  0
   -3.4580   21.1070  -32.7950 C   0  0  0  0  0  0  0  0  0  0  0  0
   -4.7370   20.9790  -33.4270 N   0  0  0  0  0  0  0  0  0  0  0  0
   -5.7650   21.3150  -32.7210 C   0  0  0  0  0  0  0  0  0  0  0  0
   -5.8790   22.5560  -32.2270 N   0  0  0  0  0  0  0  0  0  0  0  0
   -6.9580   22.8810  -31.4960 C   0  0  0  0  0  0  0  0  0  0  0  0
   -7.1190   24.0510  -30.9990 N   0  0  0  0  0  0  0  0  0  0  0  0
   -6.3140   24.5410  -29.9180 C   0  0  0  0  0  0  0  0  0  0  0  0
   -4.9670   23.8690  -29.7820 C   0  0  0  0  0  0  0  0  0  0  0  0
   -4.4330   24.7230  -30.8480 N   0  0  0  0  0  0  0  0  0  0  0  0
   -5.4470   25.6870  -30.4640 C   0  0  0  0  0  0  0  0  0  0  0  0
   -7.9440   21.9790  -31.2400 N   0  0  0  0  0  0  0  0  0  0  0  0
   -7.8560   20.7230  -31.7240 C   0  0  0  0  0  0  0  0  0  0  0  0
   -8.8690   19.8360  -31.4490 C   0  0  0  0  0  0  0  0  0  0  0  0
   -8.7360   18.5490  -31.9680 C   0  0  0  0  0  0  0  0  0  0  0  0
   -7.6320   18.1840  -32.7280 C   0  0  0  0  0  0  0  0  0  0  0  0
   -6.6280   19.0950  -32.9910 C   0  0  0  0  0  0  0  0  0  0  0  0
   -6.7490   20.3700  -32.4820 C   0  0  0  0  0  0  0  0  0  0  0  0
   -2.3230   21.0380  -33.6040 C   0  0  0  0  0  0  0  0  0  0  0  0
    0.0376   21.4278  -31.2589 H   0  0  0  0  0  0  0  0  0  0  0  0
   -1.9461   21.5516  -29.8181 H   0  0  0  0  0  0  0  0  0  0  0  0
   -4.2335   21.3441  -30.7939 H   0  0  0  0  0  0  0  0  0  0  0  0
   -5.1670   23.2840  -32.3860 H   0  0  0  0  0  0  0  0  0  0  0  0
   -7.0391   24.5741  -29.0915 H   0  0  0  0  0  0  0  0  0  0  0  0
   -4.4871   24.0190  -28.8036 H   0  0  0  0  0  0  0  0  0  0  0  0
   -4.8816   22.7744  -29.8503 H   0  0  0  0  0  0  0  0  0  0  0  0
   -4.6250   24.3800  -31.8080 H   0  0  0  0  0  0  0  0  0  0  0  0
   -5.1182   26.4068  -29.7000 H   0  0  0  0  0  0  0  0  0  0  0  0
   -5.8539   26.3957  -31.2004 H   0  0  0  0  0  0  0  0  0  0  0  0
   -8.7640   22.2480  -30.6770 H   0  0  0  0  0  0  0  0  0  0  0  0
   -9.7430   20.1276  -30.8481 H   0  0  0  0  0  0  0  0  0  0  0  0
   -9.5229   17.8059  -31.7713 H   0  0  0  0  0  0  0  0  0  0  0  0
   -7.5568   17.1604  -33.1238 H   0  0  0  0  0  0  0  0  0  0  0  0
   -5.7524   18.8097  -33.5926 H   0  0  0  0  0  0  0  0  0  0  0  0
   -2.4446   20.8900  -34.6872 H   0  0  0  0  0  0  0  0  0  0  0  0
  1  2  1  0
  2  3  2  0
  3  4  1  0
  4  5  2  0
  5  6  1  0
  6  7  1  0
  7  8  2  0
  8  9  1  0
  9 10  1  0
 10 11  2  0
 11 12  1  0
 12 13  1  0
 13 14  1  0
 14 15  1  0
 10 16  1  0
 16 17  1  0
 17 18  2  0
 18 19  1  0
 19 20  2  0
 20 21  1  0
 21 22  2  0
  6 23  2  0
 23  2  1  0
 22  8  1  0
 15 12  1  0
 22 17  1  0
  3 24  1  0
  4 25  1  0
  5 26  1  0
  9 27  1  0
 12 28  1  0
 13 29  1  0
 13 30  1  0
 14 31  1  0
 15 32  1  0
 15 33  1  0
 16 34  1  0
 18 35  1  0
 19 36  1  0
 20 37  1  0
 21 38  1  0
 23 39  1  0
M  END
>  <smiles>  (11) 
Brc1cccc(N=c2[nH]c(=NC3CNC3)[nH]c3ccccc23)c1

>  <score_type>  (11) 
oracle

>  <origin>  (11) 
adg

>  <m_score__min__energy>  (11) 
-9.0099999999999998

>  <m_primary>  (11) 
energy

$$$$
11:0
     RDKit          3D

 32 33  0  0  0  0  0  0  0  0999 V2000
   -5.4087   26.6227  -31.0345 H   0  0  0  0  0  0  0  0  0  0  0  0
   -5.1190   25.5830  -30.8220 C   0  0  0  0  0  0  0  0  0  0  0  0
   -3.8570   25.3060  -30.4100 N   0  0  0  0  0  0  0  0  0  0  0  0
   -3.4560   24.0370  -30.1360 C   0  0  0  0  0  0  0  0  0  0  0  0
   -2.1420   23.8030  -29.7120 C   0  0  0  0  0  0  0  0  0  0  0  0
   -1.4423   24.6448  -29.6032 H   0  0  0  0  0  0  0  0  0  0  0  0
   -1.7180   22.5030  -29.4270 C   0  0  0  0  0  0  0  0  0  0  0  0
   -0.6854   22.3233  -29.0931 H   0  0  0  0  0  0  0  0  0  0  0  0
   -2.6020   21.4310  -29.5650 C   0  0  0  0  0  0  0  0  0  0  0  0
   -2.2623   20.4089  -29.3415 H   0  0  0  0  0  0  0  0  0  0  0  0
   -3.9170   21.6510  -29.9860 C   0  0  0  0  0  0  0  0  0  0  0  0
   -4.6076   20.8011  -30.0902 H   0  0  0  0  0  0  0  0  0  0  0  0
   -4.3630   22.9580  -30.2780 C   0  0  0  0  0  0  0  0  0  0  0  0
   -5.6840   23.2220  -30.7090 C   0  0  0  0  0  0  0  0  0  0  0  0
   -6.5280   22.2330  -30.8410 N   0  0  0  0  0  0  0  0  0  0  0  0
   -7.9900   22.2900  -30.7790 C   0  0  0  0  0  0  0  0  0  0  0  0
   -8.3196   23.3266  -30.9424 H   0  0  0  0  0  0  0  0  0  0  0  0
   -8.3193   21.9405  -29.7894 H   0  0  0  0  0  0  0  0  0  0  0  0
   -8.6100   21.3820  -31.8630 C   0  0  0  0  0  0  0  0  0  0  0  0
   -8.5436   21.9042  -32.8289 H   0  0  0  0  0  0  0  0  0  0  0  0
   -9.6470   21.1853  -31.5533 H   0  0  0  0  0  0  0  0  0  0  0  0
   -7.9530   20.0640  -32.0030 N   0  0  0  0  0  0  0  0  0  0  0  0
   -7.0270   20.0050  -33.1450 C   0  0  0  0  0  0  0  0  0  0  0  0
   -5.9930   19.9391  -32.7756 H   0  0  0  0  0  0  0  0  0  0  0  0
   -7.2550   19.1196  -33.7566 H   0  0  0  0  0  0  0  0  0  0  0  0
   -7.1408   20.9122  -33.7566 H   0  0  0  0  0  0  0  0  0  0  0  0
   -8.9080   18.9450  -32.0330 C   0  0  0  0  0  0  0  0  0  0  0  0
   -9.1597   18.6501  -31.0036 H   0  0  0  0  0  0  0  0  0  0  0  0
   -9.8223   19.2572  -32.5589 H   0  0  0  0  0  0  0  0  0  0  0  0
   -8.4559   18.0911  -32.5589 H   0  0  0  0  0  0  0  0  0  0  0  0
   -6.0520   24.5580  -30.9780 C   0  0  0  0  0  0  0  0  0  0  0  0
   -7.0744   24.7907  -31.3106 H   0  0  0  0  0  0  0  0  0  0  0  0
  1  2  1  0
  2  3  1  0
  3  4  1  0
  4  5  2  0
  5  6  1  0
  5  7  1  0
  7  8  1  0
  7  9  2  0
  9 10  1  0
  9 11  1  0
 11 12  1  0
 11 13  2  0
 13 14  1  0
 14 15  2  0
 15 16  1  0
 16 17  1  0
 16 18  1  0
 16 19  1  0
 19 20  1  0
 19 21  1  0
 19 22  1  0
 22 23  1  0
 23 24  1  0
 23 25  1  0
 23 26  1  0
 22 27  1  0
 27 28  1  0
 27 29  1  0
 27 30  1  0
 14 31  1  0
 31 32  1  0
 31  2  2  0
 13  4  1  0
M  CHG  1   3  -1
M  END
>  <UniqueID>  (12) 
11

>  <SMILES>  (12) 
CN(C)CC/N=c1\cc[n-]c2ccccc12

>  <Energy>  (12) 
40.664316581808166

>  <Genealogy>  (12) 
CN(C)CCN=c1cc[n-]c2ccccc12 (protonated)
CN(C)CC/N=c1\cc[n-]c2ccccc12 (cis-trans isomerization)
CN(C)CC/N=c1\cc[n-]c2ccccc12 (3D coordinates assigned)
CN(C)CC/N=c1\cc[n-]c2ccccc12 (optimized conformer: 40.664316581808166 kcal/mol)

>  <smiles>  (12) 
CN(C)CCN=c1cc[nH]c2ccccc12

>  <score_type>  (12) 
oracle

>  <origin>  (12) 
adg

>  <m_score__min__energy>  (12) 
-7.4800000000000004

>  <m_primary>  (12) 
energy

$$$$
12:0
     RDKit          3D

 34 35  0  0  1  0  0  0  0  0999 V2000
   -3.2990   16.6670  -35.2310 C   0  0  0  0  0  0  0  0  0  0  0  0
   -4.6150   17.0340  -35.5860 O   0  0  0  0  0  0  0  0  0  0  0  0
   -5.4060   17.6010  -34.5940 C   0  0  0  0  0  0  0  0  0  0  0  0
   -6.4690   16.9200  -34.0120 C   0  0  0  0  0  0  0  0  0  0  0  0
   -7.2070   17.5420  -33.0380 C   0  0  0  0  0  0  0  0  0  0  0  0
   -6.9300   18.8250  -32.6160 C   0  0  0  0  0  0  0  0  0  0  0  0
   -7.6580   19.4810  -31.6320 O   0  0  0  0  0  0  0  0  0  0  0  0
   -9.0560   19.6240  -31.6720 C   0  0  0  0  0  0  0  0  0  0  0  0
   -5.8590   19.5020  -33.2080 C   0  0  0  0  0  0  0  0  0  0  0  0
   -5.5970   20.8370  -32.7460 C   0  0  0  0  0  0  0  0  0  0  0  0
   -4.7100   21.5230  -32.3560 N   0  0  0  0  0  0  0  0  0  0  0  0
   -4.6700   22.7400  -31.9740 N   0  0  0  0  0  0  0  0  0  0  0  0
   -5.8890   23.3780  -32.0250 C   0  0  0  0  0  0  0  0  0  0  0  0
   -6.2160   24.5780  -31.7220 N   0  0  0  0  0  0  0  0  0  0  0  0
   -6.1650   25.0450  -30.3650 C   0  0  0  0  0  0  0  0  0  0  0  0
   -4.7590   24.9590  -29.8120 C   0  0  0  0  0  0  0  0  0  0  0  0
   -3.8550   25.3000  -30.7930 O   0  0  0  0  0  0  0  0  0  0  0  0
   -7.0230   22.0980  -32.6460 S   0  0  0  0  0  0  0  0  0  0  0  0
   -5.0990   18.9040  -34.1880 C   0  0  0  0  0  0  0  0  0  0  0  0
   -3.2084   16.6417  -34.1350 H   0  0  0  0  0  0  0  0  0  0  0  0
   -3.0728   15.6715  -35.6407 H   0  0  0  0  0  0  0  0  0  0  0  0
   -2.5903   17.4018  -35.6407 H   0  0  0  0  0  0  0  0  0  0  0  0
   -6.7149   15.8957  -34.3287 H   0  0  0  0  0  0  0  0  0  0  0  0
   -8.0468   17.0001  -32.5787 H   0  0  0  0  0  0  0  0  0  0  0  0
   -9.4500   19.6643  -30.6458 H   0  0  0  0  0  0  0  0  0  0  0  0
   -9.3145   20.5533  -32.2008 H   0  0  0  0  0  0  0  0  0  0  0  0
   -9.4973   18.7663  -32.2008 H   0  0  0  0  0  0  0  0  0  0  0  0
   -3.8170   23.2670  -31.6410 H   0  0  0  0  0  0  0  0  0  0  0  0
   -6.5005   26.0921  -30.3325 H   0  0  0  0  0  0  0  0  0  0  0  0
   -6.8212   24.4098  -29.7519 H   0  0  0  0  0  0  0  0  0  0  0  0
   -4.6565   25.6511  -28.9632 H   0  0  0  0  0  0  0  0  0  0  0  0
   -4.5614   23.9308  -29.4747 H   0  0  0  0  0  0  0  0  0  0  0  0
   -4.2500   25.6450  -31.6260 H   0  0  0  0  0  0  0  0  0  0  0  0
   -4.2587   19.4454  -34.6471 H   0  0  0  0  0  0  0  0  0  0  0  0
  1  2  1  0
  2  3  1  0
  3  4  2  0
  4  5  1  0
  5  6  2  0
  6  7  1  0
  7  8  1  0
  6  9  1  0
  9 10  1  0
 10 11  2  0
 11 12  1  0
 12 13  1  0
 13 14  2  0
 14 15  1  0
 15 16  1  0
 16 17  1  0
 13 18  1  0
  9 19  2  0
 19  3  1  0
 18 10  1  0
  1 20  1  0
  1 21  1  0
  1 22  1  0
  4 23  1  0
  5 24  1  0
  8 25  1  0
  8 26  1  0
  8 27  1  0
 12 28  1  0
 15 29  1  0
 15 30  1  0
 16 31  1  0
 16 32  1  0
 17 33  1  0
 19 34  1  0
M  END
>  <smiles>  (13) 
COc1ccc(OC)c(-c2n[nH]c(=NCCO)s2)c1

>  <score_type>  (13) 
oracle

>  <origin>  (13) 
adg

>  <m_score__min__energy>  (13) 
-6.7999999999999998

>  <m_primary>  (13) 
energy

$$$$
13:0
     RDKit          3D

 42 45  0  0  0  0  0  0  0  0999 V2000
   -2.7180   20.3250  -27.5080 C   0  0  0  0  0  0  0  0  0  0  0  0
   -1.8260   21.3110  -26.9990 O   0  0  0  0  0  0  0  0  0  0  0  0
   -1.7010   22.6100  -27.5150 C   0  0  0  0  0  0  0  0  0  0  0  0
   -0.7340   23.4540  -26.9580 C   0  0  0  0  0  0  0  0  0  0  0  0
   -0.5700   24.7550  -27.4350 C   0  0  0  0  0  0  0  0  0  0  0  0
   -1.3720   25.2270  -28.4770 C   0  0  0  0  0  0  0  0  0  0  0  0
   -1.2000   26.4950  -28.9300 F   0  0  0  0  0  0  0  0  0  0  0  0
   -2.3470   24.4000  -29.0500 C   0  0  0  0  0  0  0  0  0  0  0  0
   -3.1500   24.9220  -30.1170 N   0  0  0  0  0  0  0  0  0  0  0  0
   -4.7920   24.4720  -30.4520 S   0  0  0  0  0  0  0  0  0  0  0  0
   -5.4630   25.5800  -31.2140 O   0  0  0  0  0  0  0  0  0  0  0  0
   -5.5110   24.2250  -29.1540 O   0  0  0  0  0  0  0  0  0  0  0  0
   -4.8340   22.9970  -31.4230 C   0  0  0  0  0  0  0  0  0  0  0  0
   -3.6160   22.4170  -31.8630 C   0  0  0  0  0  0  0  0  0  0  0  0
   -3.6310   21.2370  -32.6270 C   0  0  0  0  0  0  0  0  0  0  0  0
   -4.8630   20.7010  -32.9620 C   0  0  0  0  0  0  0  0  0  0  0  0
   -6.0440   21.2300  -32.5530 C   0  0  0  0  0  0  0  0  0  0  0  0
   -6.0720   22.3900  -31.7720 C   0  0  0  0  0  0  0  0  0  0  0  0
   -7.6210   23.0490  -31.2540 Cl  0  0  0  0  0  0  0  0  0  0  0  0
   -7.1680   20.3720  -33.0500 C   0  0  0  0  0  0  0  0  0  0  0  0
   -6.4460   19.2140  -33.7980 C   0  0  0  0  0  0  0  0  0  0  0  0
   -5.0230   19.5280  -33.7050 N   0  0  0  0  0  0  0  0  0  0  0  0
   -3.8980   18.7000  -34.0070 C   0  0  0  0  0  0  0  0  0  0  0  0
   -4.0440   17.6410  -34.6730 O   0  0  0  0  0  0  0  0  0  0  0  0
   -2.5470   19.0700  -33.4320 C   0  0  0  0  0  0  0  0  0  0  0  0
   -2.3880   20.5980  -33.2040 C   0  0  0  0  0  0  0  0  0  0  0  0
   -2.5100   23.0880  -28.5650 C   0  0  0  0  0  0  0  0  0  0  0  0
   -3.1965   19.7961  -26.6705 H   0  0  0  0  0  0  0  0  0  0  0  0
   -3.4894   20.8111  -28.1234 H   0  0  0  0  0  0  0  0  0  0  0  0
   -2.1573   19.6060  -28.1234 H   0  0  0  0  0  0  0  0  0  0  0  0
   -0.0982   23.0892  -26.1378 H   0  0  0  0  0  0  0  0  0  0  0  0
    0.1927   25.4106  -26.9895 H   0  0  0  0  0  0  0  0  0  0  0  0
   -2.6577   22.8919  -31.6057 H   0  0  0  0  0  0  0  0  0  0  0  0
   -7.7660   19.9848  -32.2118 H   0  0  0  0  0  0  0  0  0  0  0  0
   -7.8712   20.9215  -33.6931 H   0  0  0  0  0  0  0  0  0  0  0  0
   -6.6607   18.2494  -33.3148 H   0  0  0  0  0  0  0  0  0  0  0  0
   -6.7808   19.1267  -34.8422 H   0  0  0  0  0  0  0  0  0  0  0  0
   -2.4228   18.5559  -32.4675 H   0  0  0  0  0  0  0  0  0  0  0  0
   -1.7818   18.7624  -34.1599 H   0  0  0  0  0  0  0  0  0  0  0  0
   -1.5521   20.7644  -32.5086 H   0  0  0  0  0  0  0  0  0  0  0  0
   -2.2020   21.0614  -34.1841 H   0  0  0  0  0  0  0  0  0  0  0  0
   -3.2736   22.4322  -29.0086 H   0  0  0  0  0  0  0  0  0  0  0  0
  1  2  1  0
  2  3  1  0
  3  4  2  0
  4  5  1  0
  5  6  2  0
  6  7  1  0
  6  8  1  0
  8  9  1  0
  9 10  1  0
 10 11  2  0
 10 12  2  0
 10 13  1  0
 13 14  2  0
 14 15  1  0
 15 16  2  0
 16 17  1  0
 17 18  2  0
 18 19  1  0
 17 20  1  0
 20 21  1  0
 21 22  1  0
 22 23  1  0
 23 24  2  0
 23 25  1  0
 25 26  1  0
  8 27  2  0
 27  3  1  0
 18 13  1  0
 26 15  1  0
 22 16  1  0
  1 28  1  0
  1 29  1  0
  1 30  1  0
  4 31  1  0
  5 32  1  0
 14 33  1  0
 20 34  1  0
 20 35  1  0
 21 36  1  0
 21 37  1  0
 25 38  1  0
 25 39  1  0
 26 40  1  0
 26 41  1  0
 27 42  1  0
M  CHG  1   9  -1
M  END
>  <UniqueID>  (14) 
12

>  <SMILES>  (14) 
COc1ccc(F)c([N-]S(=O)(=O)c2cc3c4c(c2Cl)CCN4C(=O)CC3)c1

>  <Energy>  (14) 
68.84768800344398

>  <Genealogy>  (14) 
COc1ccc(F)c([N-]S(=O)(=O)c2cc3c4c(c2Cl)CCN4C(=O)CC3)c1 (protonated)
COc1ccc(F)c([N-]S(=O)(=O)c2cc3c4c(c2Cl)CCN4C(=O)CC3)c1 (3D coordinates assigned)
COc1ccc(F)c([N-]S(=O)(=O)c2cc3c4c(c2Cl)CCN4C(=O)CC3)c1 (nonaromatic ring conformer: 68.84768800344398 kcal/mol)

>  <smiles>  (14) 
COc1ccc(F)c(NS(=O)(=O)c2cc3c4c(c2Cl)CCN4C(=O)CC3)c1

>  <score_type>  (14) 
oracle

>  <origin>  (14) 
adg

>  <m_score__min__energy>  (14) 
-10.720000000000001

>  <m_primary>  (14) 
energy

$$$$
14:0
     RDKit          3D

 34 35  0  0  0  0  0  0  0  0999 V2000
   -0.1799   25.2226  -28.1495 H   0  0  0  0  0  0  0  0  0  0  0  0
   -1.0760   24.6740  -28.4750 C   0  0  0  0  0  0  0  0  0  0  0  0
   -1.9870   25.2800  -29.2820 N   0  0  0  0  0  0  0  0  0  0  0  0
   -3.1120   24.6440  -29.7110 C   0  0  0  0  0  0  0  0  0  0  0  0
   -3.9390   25.2940  -30.4790 N   0  0  0  0  0  0  0  0  0  0  0  0
   -5.1560   24.7580  -31.0890 C   0  0  0  0  0  0  0  0  0  0  0  0
   -5.5413   25.4791  -31.8249 H   0  0  0  0  0  0  0  0  0  0  0  0
   -4.9187   23.8051  -31.5847 H   0  0  0  0  0  0  0  0  0  0  0  0
   -6.2220   24.5110  -30.0170 C   0  0  0  0  0  0  0  0  0  0  0  0
   -5.7250   24.4417  -29.0381 H   0  0  0  0  0  0  0  0  0  0  0  0
   -6.9314   25.3506  -30.0595 H   0  0  0  0  0  0  0  0  0  0  0  0
   -7.0220   23.2230  -30.2510 C   0  0  0  0  0  0  0  0  0  0  0  0
   -6.4310   22.3607  -29.9088 H   0  0  0  0  0  0  0  0  0  0  0  0
   -7.9652   23.2785  -29.6877 H   0  0  0  0  0  0  0  0  0  0  0  0
   -7.3280   23.0660  -31.6950 N   0  0  0  0  0  0  0  0  0  0  0  0
   -8.7760   23.0670  -31.9720 C   0  0  0  0  0  0  0  0  0  0  0  0
   -9.2407   23.9062  -31.4338 H   0  0  0  0  0  0  0  0  0  0  0  0
   -8.9158   23.1676  -33.0584 H   0  0  0  0  0  0  0  0  0  0  0  0
   -9.4490   21.7490  -31.5210 C   0  0  0  0  0  0  0  0  0  0  0  0
  -10.1389   21.9700  -30.6933 H   0  0  0  0  0  0  0  0  0  0  0  0
   -9.9805   21.3303  -32.3883 H   0  0  0  0  0  0  0  0  0  0  0  0
   -8.5090   20.7840  -31.0840 O   0  0  0  0  0  0  0  0  0  0  0  0
   -7.5230   20.5930  -32.0790 C   0  0  0  0  0  0  0  0  0  0  0  0
   -6.8551   19.7756  -31.7697 H   0  0  0  0  0  0  0  0  0  0  0  0
   -8.0269   20.3460  -33.0251 H   0  0  0  0  0  0  0  0  0  0  0  0
   -6.6870   21.8730  -32.2910 C   0  0  0  0  0  0  0  0  0  0  0  0
   -5.7000   21.7321  -31.8263 H   0  0  0  0  0  0  0  0  0  0  0  0
   -6.5997   22.0430  -33.3743 H   0  0  0  0  0  0  0  0  0  0  0  0
   -3.3430   23.3120  -29.3080 C   0  0  0  0  0  0  0  0  0  0  0  0
   -4.2457   22.7798  -29.6425 H   0  0  0  0  0  0  0  0  0  0  0  0
   -2.4160   22.6750  -28.4810 C   0  0  0  0  0  0  0  0  0  0  0  0
   -2.5851   21.6357  -28.1627 H   0  0  0  0  0  0  0  0  0  0  0  0
   -1.2760   23.3570  -28.0590 C   0  0  0  0  0  0  0  0  0  0  0  0
   -0.5422   22.8627  -27.4054 H   0  0  0  0  0  0  0  0  0  0  0  0
  1  2  1  0
  2  3  1  0
  3  4  1  0
  4  5  2  0
  5  6  1  0
  6  7  1  0
  6  8  1  0
  6  9  1  0
  9 10  1  0
  9 11  1  0
  9 12  1  0
 12 13  1  0
 12 14  1  0
 12 15  1  0
 15 16  1  0
 16 17  1  0
 16 18  1  0
 16 19  1  0
 19 20  1  0
 19 21  1  0
 19 22  1  0
 22 23  1  0
 23 24  1  0
 23 25  1  0
 23 26  1  0
 26 27  1  0
 26 28  1  0
  4 29  1  0
 29 30  1  0
 29 31  2  0
 31 32  1  0
 31 33  1  0
 33 34  1  0
 33  2  2  0
 26 15  1  0
M  CHG  1   3  -1
M  END
>  <UniqueID>  (15) 
13

>  <SMILES>  (15) 
c1cc/c(=N\CCCN2CCOCC2)[n-]c1

>  <Energy>  (15) 
44.413527732551

>  <Genealogy>  (15) 
c1ccc(=NCCCN2CCOCC2)[n-]c1 (protonated)
c1cc/c(=N\CCCN2CCOCC2)[n-]c1 (cis-trans isomerization)
c1cc/c(=N\CCCN2CCOCC2)[n-]c1 (3D coordinates assigned)
c1cc/c(=N\CCCN2CCOCC2)[n-]c1 (nonaromatic ring conformer: 44.413527732551 kcal/mol)

>  <smiles>  (15) 
c1ccc(=NCCCN2CCOCC2)[nH]c1

>  <score_type>  (15) 
oracle

>  <origin>  (15) 
adg

>  <m_score__min__energy>  (15) 
-7.8499999999999996

>  <m_primary>  (15) 
energy

$$$$
15:0
     RDKit          3D

 48 48  0  0  0  0  0  0  0  0999 V2000
   -4.1960   25.6790  -31.7940 H   0  0  0  0  0  0  0  0  0  0  0  0
   -3.8770   25.6380  -30.8340 O   0  0  0  0  0  0  0  0  0  0  0  0
   -3.7930   24.4370  -30.1340 C   0  0  0  0  0  0  0  0  0  0  0  0
   -4.1390   23.2960  -30.7390 C   0  0  0  0  0  0  0  0  0  0  0  0
   -3.8250   22.0230  -31.1720 C   0  0  0  0  0  0  0  0  0  0  0  0
   -2.9990   21.0810  -31.2840 O   0  0  0  0  0  0  0  0  0  0  0  0
   -5.0860   22.5360  -31.3970 C   0  0  0  0  0  0  0  0  0  0  0  0
   -6.3120   22.3790  -31.8930 C   0  0  0  0  0  0  0  0  0  0  0  0
   -7.3420   23.3320  -31.5740 N   0  0  0  0  0  0  0  0  0  0  0  0
   -7.1080   24.2920  -30.4950 C   0  0  0  0  0  0  0  0  0  0  0  0
   -7.2305   23.7895  -29.5242 H   0  0  0  0  0  0  0  0  0  0  0  0
   -6.0862   24.6914  -30.5748 H   0  0  0  0  0  0  0  0  0  0  0  0
   -7.8314   25.1168  -30.5748 H   0  0  0  0  0  0  0  0  0  0  0  0
   -8.7240   23.0540  -31.9620 C   0  0  0  0  0  0  0  0  0  0  0  0
   -9.3404   22.9300  -31.0594 H   0  0  0  0  0  0  0  0  0  0  0  0
   -9.1128   23.8919  -32.5593 H   0  0  0  0  0  0  0  0  0  0  0  0
   -8.7586   22.1309  -32.5593 H   0  0  0  0  0  0  0  0  0  0  0  0
   -6.6380   21.1410  -32.6880 C   0  0  0  0  0  0  0  0  0  0  0  0
   -7.2780   21.4151  -33.5396 H   0  0  0  0  0  0  0  0  0  0  0  0
   -5.7012   20.6914  -33.0490 H   0  0  0  0  0  0  0  0  0  0  0  0
   -7.3740   20.1210  -31.8100 C   0  0  0  0  0  0  0  0  0  0  0  0
   -6.6563   19.6766  -31.1048 H   0  0  0  0  0  0  0  0  0  0  0  0
   -8.1796   20.6495  -31.2792 H   0  0  0  0  0  0  0  0  0  0  0  0
   -8.0120   18.9980  -32.6410 C   0  0  0  0  0  0  0  0  0  0  0  0
   -8.9689   18.7131  -32.1792 H   0  0  0  0  0  0  0  0  0  0  0  0
   -8.1626   19.3732  -33.6640 H   0  0  0  0  0  0  0  0  0  0  0  0
   -7.1400   17.8030  -32.7130 N   0  0  0  0  0  0  0  0  0  0  0  0
   -6.3810   17.6190  -31.4630 C   0  0  0  0  0  0  0  0  0  0  0  0
   -7.0470   17.7804  -30.6025 H   0  0  0  0  0  0  0  0  0  0  0  0
   -5.9764   16.5968  -31.4268 H   0  0  0  0  0  0  0  0  0  0  0  0
   -5.5532   18.3425  -31.4268 H   0  0  0  0  0  0  0  0  0  0  0  0
   -6.2010   17.9300  -33.8390 C   0  0  0  0  0  0  0  0  0  0  0  0
   -5.1807   18.0680  -33.4518 H   0  0  0  0  0  0  0  0  0  0  0  0
   -6.2398   17.0184  -34.4534 H   0  0  0  0  0  0  0  0  0  0  0  0
   -6.4806   18.7985  -34.4534 H   0  0  0  0  0  0  0  0  0  0  0  0
   -3.3330   24.4690  -28.7730 N   0  0  0  0  0  0  0  0  0  0  0  0
   -3.6650   25.2550  -28.1700 H   0  0  0  0  0  0  0  0  0  0  0  0
   -2.4690   23.4610  -28.1550 C   0  0  0  0  0  0  0  0  0  0  0  0
   -1.7831   23.0582  -28.9148 H   0  0  0  0  0  0  0  0  0  0  0  0
   -3.0990   22.6574  -27.7459 H   0  0  0  0  0  0  0  0  0  0  0  0
   -1.6540   24.0740  -27.0180 C   0  0  0  0  0  0  0  0  0  0  0  0
   -0.5876   23.8477  -27.1651 H   0  0  0  0  0  0  0  0  0  0  0  0
   -1.9833   23.6535  -26.0564 H   0  0  0  0  0  0  0  0  0  0  0  0
   -1.8450   25.4720  -27.0170 O   0  0  0  0  0  0  0  0  0  0  0  0
   -1.8560   25.9420  -25.6880 C   0  0  0  0  0  0  0  0  0  0  0  0
   -1.8360   25.0868  -24.9965 H   0  0  0  0  0  0  0  0  0  0  0  0
   -0.9724   26.5740  -25.5153 H   0  0  0  0  0  0  0  0  0  0  0  0
   -2.7682   26.5320  -25.5153 H   0  0  0  0  0  0  0  0  0  0  0  0
  1  2  1  0
  2  3  1  0
  3  4  2  0
  4  5  1  0
  5  6  2  0
  5  7  1  0
  7  8  2  0
  8  9  1  0
  9 10  1  0
 10 11  1  0
 10 12  1  0
 10 13  1  0
  9 14  1  0
 14 15  1  0
 14 16  1  0
 14 17  1  0
  8 18  1  0
 18 19  1  0
 18 20  1  0
 18 21  1  0
 21 22  1  0
 21 23  1  0
 21 24  1  0
 24 25  1  0
 24 26  1  0
 24 27  1  0
 27 28  1  0
 28 29  1  0
 28 30  1  0
 28 31  1  0
 27 32  1  0
 32 33  1  0
 32 34  1  0
 32 35  1  0
  3 36  1  0
 36 37  1  0
 36 38  1  0
 38 39  1  0
 38 40  1  0
 38 41  1  0
 41 42  1  0
 41 43  1  0
 41 44  1  0
 44 45  1  0
 45 46  1  0
 45 47  1  0
 45 48  1  0
  7  4  1  0
M  END
>  <UniqueID>  (16) 
14

>  <SMILES>  (16) 
COCCN/C(O)=c1/c(=O)/c1=C(\CCCN(C)C)N(C)C

>  <Energy>  (16) 
29.70735470892826

>  <Genealogy>  (16) 
COCCN/C(O)=c1/c(=O)/c1=C(\CCCN(C)C)N(C)C (cis-trans isomerization)
COCCN/C(O)=c1/c(=O)/c1=C(\CCCN(C)C)N(C)C (3D coordinates assigned)
COCCN/C(O)=c1/c(=O)/c1=C(\CCCN(C)C)N(C)C (optimized conformer: 29.70735470892826 kcal/mol)

>  <smiles>  (16) 
COCCNC(O)=c1c(=O)c1=C(CCCN(C)C)N(C)C

>  <score_type>  (16) 
oracle

>  <origin>  (16) 
adg

>  <m_score__min__energy>  (16) 
-7.7999999999999998

>  <m_primary>  (16) 
energy

$$$$
16:0
     RDKit          3D

 51 54  0  0  0  0  0  0  0  0999 V2000
   -9.4840   21.9030  -31.2660 C   0  0  0  0  0  0  0  0  0  0  0  0
   -8.3040   21.1880  -30.9140 O   0  0  0  0  0  0  0  0  0  0  0  0
   -7.8230   20.0590  -31.5960 C   0  0  0  0  0  0  0  0  0  0  0  0
   -8.5730   18.8700  -31.6950 C   0  0  0  0  0  0  0  0  0  0  0  0
   -8.0500   17.7590  -32.3620 C   0  0  0  0  0  0  0  0  0  0  0  0
   -6.7790   17.8200  -32.9340 C   0  0  0  0  0  0  0  0  0  0  0  0
   -6.0270   18.9930  -32.8440 C   0  0  0  0  0  0  0  0  0  0  0  0
   -6.5450   20.1180  -32.1850 C   0  0  0  0  0  0  0  0  0  0  0  0
   -5.7630   21.3190  -32.0950 N   0  0  0  0  0  0  0  0  0  0  0  0
   -6.3900   22.6260  -32.3180 C   0  0  0  0  0  0  0  0  0  0  0  0
   -5.9350   23.6560  -31.2600 C   0  0  0  0  0  0  0  0  0  0  0  0
   -4.6560   23.2890  -30.6000 N   0  0  0  0  0  0  0  0  0  0  0  0
   -4.0280   24.4520  -29.9960 C   0  0  0  0  0  0  0  0  0  0  0  0
   -3.8720   25.4620  -30.6670 O   0  0  0  0  0  0  0  0  0  0  0  0
   -3.5080   24.4450  -28.5740 C   0  0  0  0  0  0  0  0  0  0  0  0
   -2.7330   23.2190  -28.3100 N   0  0  0  0  0  0  0  0  0  0  0  0
   -1.3750   23.2530  -28.4690 C   0  0  0  0  0  0  0  0  0  0  0  0
   -0.6180   22.1580  -28.2080 N   0  0  0  0  0  0  0  0  0  0  0  0
   -1.1790   21.0010  -27.7830 C   0  0  0  0  0  0  0  0  0  0  0  0
   -0.3730   19.8860  -27.5200 C   0  0  0  0  0  0  0  0  0  0  0  0
   -0.9510   18.6930  -27.0760 C   0  0  0  0  0  0  0  0  0  0  0  0
   -2.3340   18.6100  -26.8930 C   0  0  0  0  0  0  0  0  0  0  0  0
   -3.1460   19.7180  -27.1530 C   0  0  0  0  0  0  0  0  0  0  0  0
   -2.5730   20.9240  -27.6010 C   0  0  0  0  0  0  0  0  0  0  0  0
   -3.3430   22.0690  -27.8750 C   0  0  0  0  0  0  0  0  0  0  0  0
   -4.5960   22.0300  -27.7240 O   0  0  0  0  0  0  0  0  0  0  0  0
   -3.7310   22.5950  -31.5180 C   0  0  0  0  0  0  0  0  0  0  0  0
   -4.3110   21.2280  -31.9080 C   0  0  0  0  0  0  0  0  0  0  0  0
  -10.0071   22.2200  -30.3517 H   0  0  0  0  0  0  0  0  0  0  0  0
   -9.2128   22.7888  -31.8591 H   0  0  0  0  0  0  0  0  0  0  0  0
  -10.1437   21.2526  -31.8591 H   0  0  0  0  0  0  0  0  0  0  0  0
   -9.5753   18.8162  -31.2449 H   0  0  0  0  0  0  0  0  0  0  0  0
   -8.6416   16.8346  -32.4362 H   0  0  0  0  0  0  0  0  0  0  0  0
   -6.3689   16.9431  -33.4564 H   0  0  0  0  0  0  0  0  0  0  0  0
   -5.0233   19.0353  -33.2921 H   0  0  0  0  0  0  0  0  0  0  0  0
   -6.1104   22.9915  -33.3171 H   0  0  0  0  0  0  0  0  0  0  0  0
   -7.4805   22.5056  -32.2382 H   0  0  0  0  0  0  0  0  0  0  0  0
   -5.8070   24.6309  -31.7532 H   0  0  0  0  0  0  0  0  0  0  0  0
   -6.7092   23.6871  -30.4792 H   0  0  0  0  0  0  0  0  0  0  0  0
   -4.8860   22.6190  -29.8250 H   0  0  0  0  0  0  0  0  0  0  0  0
   -2.8609   25.3214  -28.4216 H   0  0  0  0  0  0  0  0  0  0  0  0
   -4.3638   24.4786  -27.8837 H   0  0  0  0  0  0  0  0  0  0  0  0
   -0.8910   24.1791  -28.8125 H   0  0  0  0  0  0  0  0  0  0  0  0
    0.7158   19.9491  -27.6630 H   0  0  0  0  0  0  0  0  0  0  0  0
   -0.3163   17.8184  -26.8704 H   0  0  0  0  0  0  0  0  0  0  0  0
   -2.7852   17.6698  -26.5432 H   0  0  0  0  0  0  0  0  0  0  0  0
   -4.2341   19.6477  -27.0074 H   0  0  0  0  0  0  0  0  0  0  0  0
   -3.5906   23.2036  -32.4235 H   0  0  0  0  0  0  0  0  0  0  0  0
   -2.7636   22.4483  -31.0154 H   0  0  0  0  0  0  0  0  0  0  0  0
   -3.8458   20.8921  -32.8464 H   0  0  0  0  0  0  0  0  0  0  0  0
   -4.1010   20.5099  -31.1016 H   0  0  0  0  0  0  0  0  0  0  0  0
  1  2  1  0
  2  3  1  0
  3  4  2  0
  4  5  1  0
  5  6  2  0
  6  7  1  0
  7  8  2  0
  8  9  1  0
  9 10  1  0
 10 11  1  0
 11 12  1  0
 12 13  1  0
 13 14  2  0
 13 15  1  0
 15 16  1  0
 16 17  1  0
 17 18  2  0
 18 19  1  0
 19 20  2  0
 20 21  1  0
 21 22  2  0
 22 23  1  0
 23 24  2  0
 24 25  1  0
 25 26  2  0
 12 27  1  0
 27 28  1  0
  8  3  1  0
 28  9  1  0
 25 16  1  0
 24 19  1  0
  1 29  1  0
  1 30  1  0
  1 31  1  0
  4 32  1  0
  5 33  1  0
  6 34  1  0
  7 35  1  0
 10 36  1  0
 10 37  1  0
 11 38  1  0
 11 39  1  0
 12 40  1  0
 15 41  1  0
 15 42  1  0
 17 43  1  0
 20 44  1  0
 21 45  1  0
 22 46  1  0
 23 47  1  0
 27 48  1  0
 27 49  1  0
 28 50  1  0
 28 51  1  0
M  CHG  1  12   1
M  END
>  <UniqueID>  (17) 
15

>  <SMILES>  (17) 
COc1ccccc1N1CC[NH+](C(=O)Cn2cnc3ccccc3c2=O)CC1

>  <Energy>  (17) 
72.03211125740002

>  <Genealogy>  (17) 
COc1ccccc1N1CC[NH+](C(=O)Cn2cnc3ccccc3c2=O)CC1 (protonated)
COc1ccccc1N1CC[NH+](C(=O)Cn2cnc3ccccc3c2=O)CC1 (3D coordinates assigned)
COc1ccccc1N1CC[NH+](C(=O)Cn2cnc3ccccc3c2=O)CC1 (nonaromatic ring conformer: 72.03211125740002 kcal/mol)

>  <smiles>  (17) 
COc1ccccc1N1CCN(C(=O)Cn2cnc3ccccc3c2=O)CC1

>  <score_type>  (17) 
oracle

>  <origin>  (17) 
adg

>  <m_score__min__energy>  (17) 
-8.0999999999999996

>  <m_primary>  (17) 
energy

$$$$
17:0
     RDKit          3D

 41 44  0  0  0  0  0  0  0  0999 V2000
   -2.6080   24.5110  -27.9770 C   0  0  0  0  0  0  0  0  0  0  0  0
   -2.7800   24.8940  -29.3370 O   0  0  0  0  0  0  0  0  0  0  0  0
   -3.8970   24.5590  -30.1180 C   0  0  0  0  0  0  0  0  0  0  0  0
   -3.8300   23.4110  -30.9150 C   0  0  0  0  0  0  0  0  0  0  0  0
   -4.9150   23.0350  -31.7110 C   0  0  0  0  0  0  0  0  0  0  0  0
   -6.0910   23.8020  -31.7150 C   0  0  0  0  0  0  0  0  0  0  0  0
   -7.2430   23.4240  -32.6030 C   0  0  0  0  0  0  0  0  0  0  0  0
   -8.0480   22.3370  -31.9630 C   0  0  0  0  0  0  0  0  0  0  0  0
   -9.3100   22.4830  -31.4750 N   0  0  0  0  0  0  0  0  0  0  0  0
   -9.7680   21.2670  -31.1490 N   0  0  0  0  0  0  0  0  0  0  0  0
   -8.7590   20.4300  -31.4420 C   0  0  0  0  0  0  0  0  0  0  0  0
   -8.6280   18.7680  -31.5640 S   0  0  0  0  0  0  0  0  0  0  0  0
   -7.0800   18.9800  -32.3130 C   0  0  0  0  0  0  0  0  0  0  0  0
   -6.2100   17.8840  -32.7990 C   0  0  0  0  0  0  0  0  0  0  0  0
   -5.7430   17.8920  -34.1250 C   0  0  0  0  0  0  0  0  0  0  0  0
   -4.9240   16.8630  -34.5930 C   0  0  0  0  0  0  0  0  0  0  0  0
   -4.5600   15.8150  -33.7460 C   0  0  0  0  0  0  0  0  0  0  0  0
   -5.0110   15.7840  -32.4220 C   0  0  0  0  0  0  0  0  0  0  0  0
   -4.6190   14.7090  -31.6110 O   0  0  0  0  0  0  0  0  0  0  0  0
   -4.3060   13.4060  -32.0940 C   0  0  0  0  0  0  0  0  0  0  0  0
   -5.8390   16.8240  -31.9510 C   0  0  0  0  0  0  0  0  0  0  0  0
   -6.7620   20.3000  -32.4640 N   0  0  0  0  0  0  0  0  0  0  0  0
   -7.7190   21.0450  -31.9360 N   0  0  0  0  0  0  0  0  0  0  0  0
   -6.1580   24.9590  -30.9240 C   0  0  0  0  0  0  0  0  0  0  0  0
   -5.0720   25.3350  -30.1280 C   0  0  0  0  0  0  0  0  0  0  0  0
   -2.9697   25.3163  -27.3207 H   0  0  0  0  0  0  0  0  0  0  0  0
   -3.1800   23.5924  -27.7796 H   0  0  0  0  0  0  0  0  0  0  0  0
   -1.5414   24.3283  -27.7796 H   0  0  0  0  0  0  0  0  0  0  0  0
   -2.9157   22.7995  -30.9149 H   0  0  0  0  0  0  0  0  0  0  0  0
   -4.8475   22.1335  -32.3377 H   0  0  0  0  0  0  0  0  0  0  0  0
   -7.8827   24.3042  -32.7641 H   0  0  0  0  0  0  0  0  0  0  0  0
   -6.8530   23.0645  -33.5667 H   0  0  0  0  0  0  0  0  0  0  0  0
   -6.0249   18.7148  -34.7984 H   0  0  0  0  0  0  0  0  0  0  0  0
   -4.5644   16.8781  -35.6324 H   0  0  0  0  0  0  0  0  0  0  0  0
   -3.9141   15.0079  -34.1221 H   0  0  0  0  0  0  0  0  0  0  0  0
   -4.1433   12.7287  -31.2427 H   0  0  0  0  0  0  0  0  0  0  0  0
   -5.1398   13.0318  -32.7062 H   0  0  0  0  0  0  0  0  0  0  0  0
   -3.3932   13.4513  -32.7062 H   0  0  0  0  0  0  0  0  0  0  0  0
   -6.1981   16.8064  -30.9114 H   0  0  0  0  0  0  0  0  0  0  0  0
   -7.0702   25.5737  -30.9303 H   0  0  0  0  0  0  0  0  0  0  0  0
   -5.1356   26.2407  -29.5070 H   0  0  0  0  0  0  0  0  0  0  0  0
  1  2  1  0
  2  3  1  0
  3  4  2  0
  4  5  1  0
  5  6  2  0
  6  7  1  0
  7  8  1  0
  8  9  2  0
  9 10  1  0
 10 11  2  0
 11 12  1  0
 12 13  1  0
 13 14  1  0
 14 15  2  0
 15 16  1  0
 16 17  2  0
 17 18  1  0
 18 19  1  0
 19 20  1  0
 18 21  2  0
 13 22  2  0
 22 23  1  0
  6 24  1  0
 24 25  2  0
 25  3  1  0
 23  8  1  0
 23 11  1  0
 21 14  1  0
  1 26  1  0
  1 27  1  0
  1 28  1  0
  4 29  1  0
  5 30  1  0
  7 31  1  0
  7 32  1  0
 15 33  1  0
 16 34  1  0
 17 35  1  0
 20 36  1  0
 20 37  1  0
 20 38  1  0
 21 39  1  0
 24 40  1  0
 25 41  1  0
M  END
>  <UniqueID>  (18) 
16

>  <SMILES>  (18) 
COc1ccc(Cc2nnc3sc(-c4cccc(OC)c4)nn23)cc1

>  <Energy>  (18) 
135.79246217871133

>  <Genealogy>  (18) 
COc1ccc(Cc2nnc3sc(-c4cccc(OC)c4)nn23)cc1 (3D coordinates assigned)
COc1ccc(Cc2nnc3sc(-c4cccc(OC)c4)nn23)cc1 (optimized conformer: 135.79246217871133 kcal/mol)

>  <smiles>  (18) 
COc1ccc(Cc2nnc3sc(-c4cccc(OC)c4)nn23)cc1

>  <score_type>  (18) 
oracle

>  <origin>  (18) 
adg

>  <m_score__min__energy>  (18) 
-9.1899999999999995

>  <m_primary>  (18) 
energy

$$$$
18:0
     RDKit          3D

 33 35  0  0  0  0  0  0  0  0999 V2000
   -3.6950   24.1260  -28.0360 C   0  0  0  0  0  0  0  0  0  0  0  0
   -3.3120   24.5050  -29.7730 S   0  0  0  0  0  0  0  0  0  0  0  0
   -4.7410   23.6230  -30.4040 C   0  0  0  0  0  0  0  0  0  0  0  0
   -4.6090   22.7730  -31.5080 C   0  0  0  0  0  0  0  0  0  0  0  0
   -5.7230   22.0870  -32.0010 C   0  0  0  0  0  0  0  0  0  0  0  0
   -6.9820   22.2530  -31.4000 C   0  0  0  0  0  0  0  0  0  0  0  0
   -8.1660   21.5280  -31.9110 C   0  0  0  0  0  0  0  0  0  0  0  0
   -9.4110   22.0390  -31.9010 N   0  0  0  0  0  0  0  0  0  0  0  0
  -10.2440   21.1100  -32.3440 N   0  0  0  0  0  0  0  0  0  0  0  0
   -9.4900   20.0290  -32.6290 C   0  0  0  0  0  0  0  0  0  0  0  0
   -8.1850   20.2570  -32.3740 N   0  0  0  0  0  0  0  0  0  0  0  0
   -7.0930   19.3650  -32.6620 C   0  0  0  0  0  0  0  0  0  0  0  0
   -6.3420   19.5080  -33.8420 C   0  0  0  0  0  0  0  0  0  0  0  0
   -5.2880   18.6320  -34.1170 C   0  0  0  0  0  0  0  0  0  0  0  0
   -4.9820   17.6020  -33.2240 C   0  0  0  0  0  0  0  0  0  0  0  0
   -5.7340   17.4420  -32.0570 C   0  0  0  0  0  0  0  0  0  0  0  0
   -6.7890   18.3160  -31.7780 C   0  0  0  0  0  0  0  0  0  0  0  0
   -7.1020   23.0880  -30.2790 C   0  0  0  0  0  0  0  0  0  0  0  0
   -5.9870   23.7730  -29.7860 C   0  0  0  0  0  0  0  0  0  0  0  0
   -3.0681   24.7463  -27.3785 H   0  0  0  0  0  0  0  0  0  0  0  0
   -4.7560   24.3396  -27.8394 H   0  0  0  0  0  0  0  0  0  0  0  0
   -3.4925   23.0628  -27.8394 H   0  0  0  0  0  0  0  0  0  0  0  0
   -3.6278   22.6445  -31.9883 H   0  0  0  0  0  0  0  0  0  0  0  0
   -5.6132   21.4138  -32.8640 H   0  0  0  0  0  0  0  0  0  0  0  0
   -9.7030   22.9880  -31.5760 H   0  0  0  0  0  0  0  0  0  0  0  0
   -9.8885   19.0812  -33.0199 H   0  0  0  0  0  0  0  0  0  0  0  0
   -6.5849   20.3126  -34.5517 H   0  0  0  0  0  0  0  0  0  0  0  0
   -4.6987   18.7538  -35.0378 H   0  0  0  0  0  0  0  0  0  0  0  0
   -4.1489   16.9168  -33.4396 H   0  0  0  0  0  0  0  0  0  0  0  0
   -5.4956   16.6275  -31.3572 H   0  0  0  0  0  0  0  0  0  0  0  0
   -7.3837   18.1818  -30.8624 H   0  0  0  0  0  0  0  0  0  0  0  0
   -8.0781   23.2044  -29.7854 H   0  0  0  0  0  0  0  0  0  0  0  0
   -6.0899   24.4310  -28.9106 H   0  0  0  0  0  0  0  0  0  0  0  0
  1  2  1  0
  2  3  1  0
  3  4  2  0
  4  5  1  0
  5  6  2  0
  6  7  1  0
  7  8  2  0
  8  9  1  0
  9 10  2  0
 10 11  1  0
 11 12  1  0
 12 13  2  0
 13 14  1  0
 14 15  2  0
 15 16  1  0
 16 17  2  0
  6 18  1  0
 18 19  2  0
 19  3  1  0
 11  7  1  0
 17 12  1  0
  1 20  1  0
  1 21  1  0
  1 22  1  0
  4 23  1  0
  5 24  1  0
  8 25  1  0
 10 26  1  0
 13 27  1  0
 14 28  1  0
 15 29  1  0
 16 30  1  0
 17 31  1  0
 18 32  1  0
 19 33  1  0
M  CHG  1   8   1
M  END
>  <UniqueID>  (19) 
17

>  <SMILES>  (19) 
CSc1ccc(-c2[nH+]ncn2-c2ccccc2)cc1

>  <Energy>  (19) 
75.06558582234032

>  <Genealogy>  (19) 
CSc1ccc(-c2[nH+]ncn2-c2ccccc2)cc1 (protonated)
CSc1ccc(-c2[nH+]ncn2-c2ccccc2)cc1 (3D coordinates assigned)
CSc1ccc(-c2[nH+]ncn2-c2ccccc2)cc1 (optimized conformer: 75.06558582234032 kcal/mol)

>  <smiles>  (19) 
CSc1ccc(-c2nncn2-c2ccccc2)cc1

>  <score_type>  (19) 
oracle

>  <origin>  (19) 
adg

>  <m_score__min__energy>  (19) 
-7.0700000000000003

>  <m_primary>  (19) 
energy

$$$$
19:0
     RDKit          3D

 52 54  0  0  0  0  0  0  0  0999 V2000
   -5.0023   14.9754  -32.3183 H   0  0  0  0  0  0  0  0  0  0  0  0
   -5.1380   14.7840  -33.3930 C   0  0  0  0  0  0  0  0  0  0  0  0
   -6.5970   15.4570  -34.2070 S   0  0  0  0  0  0  0  0  0  0  0  0
   -6.2820   17.1220  -33.6200 C   0  0  0  0  0  0  0  0  0  0  0  0
   -6.1130   18.1710  -34.5310 C   0  0  0  0  0  0  0  0  0  0  0  0
   -6.1739   17.9744  -35.6116 H   0  0  0  0  0  0  0  0  0  0  0  0
   -5.8670   19.4680  -34.0710 C   0  0  0  0  0  0  0  0  0  0  0  0
   -5.7437   20.2889  -34.7927 H   0  0  0  0  0  0  0  0  0  0  0  0
   -5.7760   19.7310  -32.6930 C   0  0  0  0  0  0  0  0  0  0  0  0
   -5.5150   21.1100  -32.2020 C   0  0  0  0  0  0  0  0  0  0  0  0
   -6.4980   22.1080  -32.3200 C   0  0  0  0  0  0  0  0  0  0  0  0
   -7.4678   21.8669  -32.7797 H   0  0  0  0  0  0  0  0  0  0  0  0
   -6.2530   23.4040  -31.8580 C   0  0  0  0  0  0  0  0  0  0  0  0
   -7.0324   24.1741  -31.9549 H   0  0  0  0  0  0  0  0  0  0  0  0
   -5.0240   23.7300  -31.2730 C   0  0  0  0  0  0  0  0  0  0  0  0
   -4.8250   25.0450  -30.8280 O   0  0  0  0  0  0  0  0  0  0  0  0
   -5.7940   25.8080  -30.1160 C   0  0  0  0  0  0  0  0  0  0  0  0
   -5.6361   25.6837  -29.0345 H   0  0  0  0  0  0  0  0  0  0  0  0
   -5.6915   26.8705  -30.3818 H   0  0  0  0  0  0  0  0  0  0  0  0
   -6.8028   25.4592  -30.3818 H   0  0  0  0  0  0  0  0  0  0  0  0
   -4.0360   22.7350  -31.1530 C   0  0  0  0  0  0  0  0  0  0  0  0
   -3.0662   22.9792  -30.6949 H   0  0  0  0  0  0  0  0  0  0  0  0
   -4.2810   21.4380  -31.6130 C   0  0  0  0  0  0  0  0  0  0  0  0
   -3.5021   20.6676  -31.5134 H   0  0  0  0  0  0  0  0  0  0  0  0
   -5.9350   18.6680  -31.7850 C   0  0  0  0  0  0  0  0  0  0  0  0
   -5.8637   18.8580  -30.7039 H   0  0  0  0  0  0  0  0  0  0  0  0
   -6.1830   17.3720  -32.2470 C   0  0  0  0  0  0  0  0  0  0  0  0
   -6.3006   16.5468  -31.5292 H   0  0  0  0  0  0  0  0  0  0  0  0
   -4.2100   14.0610  -34.0350 C   0  0  0  0  0  0  0  0  0  0  0  0
   -4.2734   12.9638  -33.9881 H   0  0  0  0  0  0  0  0  0  0  0  0
   -3.0840   14.6840  -34.8180 C   0  0  0  0  0  0  0  0  0  0  0  0
   -2.1282   14.4247  -34.3393 H   0  0  0  0  0  0  0  0  0  0  0  0
   -3.1211   14.2974  -35.8472 H   0  0  0  0  0  0  0  0  0  0  0  0
   -3.2190   16.2080  -34.8690 C   0  0  0  0  0  0  0  0  0  0  0  0
   -2.5657   16.6026  -35.6611 H   0  0  0  0  0  0  0  0  0  0  0  0
   -4.2680   16.4645  -35.0783 H   0  0  0  0  0  0  0  0  0  0  0  0
   -2.8440   16.7870  -33.6200 O   0  0  0  0  0  0  0  0  0  0  0  0
   -2.2620   18.0550  -33.4450 C   0  0  0  0  0  0  0  0  0  0  0  0
   -2.6810   19.1860  -34.1750 C   0  0  0  0  0  0  0  0  0  0  0  0
   -3.4915   19.0919  -34.9127 H   0  0  0  0  0  0  0  0  0  0  0  0
   -2.0720   20.4250  -33.9660 C   0  0  0  0  0  0  0  0  0  0  0  0
   -2.4020   21.3024  -34.5415 H   0  0  0  0  0  0  0  0  0  0  0  0
   -1.0470   20.5530  -33.0300 C   0  0  0  0  0  0  0  0  0  0  0  0
   -0.5693   21.5306  -32.8688 H   0  0  0  0  0  0  0  0  0  0  0  0
   -0.6260   19.4420  -32.2970 C   0  0  0  0  0  0  0  0  0  0  0  0
    0.1827   19.5479  -31.5589 H   0  0  0  0  0  0  0  0  0  0  0  0
   -1.2320   18.1850  -32.4980 C   0  0  0  0  0  0  0  0  0  0  0  0
   -0.8360   17.0450  -31.7810 O   0  0  0  0  0  0  0  0  0  0  0  0
   -0.2350   15.8940  -32.3650 C   0  0  0  0  0  0  0  0  0  0  0  0
    0.1167   15.2205  -31.5696 H   0  0  0  0  0  0  0  0  0  0  0  0
   -0.9748   15.3704  -32.9883 H   0  0  0  0  0  0  0  0  0  0  0  0
    0.6175   16.2018  -32.9883 H   0  0  0  0  0  0  0  0  0  0  0  0
  1  2  1  0
  2  3  1  0
  3  4  1  0
  4  5  2  0
  5  6  1  0
  5  7  1  0
  7  8  1  0
  7  9  2  0
  9 10  1  0
 10 11  2  0
 11 12  1  0
 11 13  1  0
 13 14  1  0
 13 15  2  0
 15 16  1  0
 16 17  1  0
 17 18  1  0
 17 19  1  0
 17 20  1  0
 15 21  1  0
 21 22  1  0
 21 23  2  0
 23 24  1  0
  9 25  1  0
 25 26  1  0
 25 27  2  0
 27 28  1  0
  2 29  2  0
 29 30  1  0
 29 31  1  0
 31 32  1  0
 31 33  1  0
 31 34  1  0
 34 35  1  0
 34 36  1  0
 34 37  1  0
 37 38  1  0
 38 39  2  0
 39 40  1  0
 39 41  1  0
 41 42  1  0
 41 43  2  0
 43 44  1  0
 43 45  1  0
 45 46  1  0
 45 47  2  0
 47 48  1  0
 48 49  1  0
 49 50  1  0
 49 51  1  0
 49 52  1  0
 27  4  1  0
 47 38  1  0
 23 10  1  0
M  END
>  <UniqueID>  (20) 
18

>  <SMILES>  (20) 
COc1ccc(-c2ccc(S/C=C\CCOc3ccccc3OC)cc2)cc1

>  <Energy>  (20) 
51.16191976242151

>  <Genealogy>  (20) 
COc1ccc(-c2ccc(S/C=C\CCOc3ccccc3OC)cc2)cc1 (cis-trans isomerization)
COc1ccc(-c2ccc(S/C=C\CCOc3ccccc3OC)cc2)cc1 (3D coordinates assigned)
COc1ccc(-c2ccc(S/C=C\CCOc3ccccc3OC)cc2)cc1 (optimized conformer: 51.16191976242151 kcal/mol)

>  <smiles>  (20) 
COc1ccc(-c2ccc(SC=CCCOc3ccccc3OC)cc2)cc1

>  <score_type>  (20) 
oracle

>  <origin>  (20) 
adg

>  <m_score__min__energy>  (20) 
-10.25

>  <m_primary>  (20) 
energy

$$$$
20:0
     RDKit          3D

 43 44  0  0  0  0  0  0  0  0999 V2000
   -9.4720   21.9050  -31.0220 C   0  0  0  0  0  0  0  0  0  0  0  0
   -8.0680   21.4620  -31.0360 N   0  0  0  0  0  0  0  0  0  0  0  0
   -7.2310   22.3540  -30.1900 C   0  0  0  0  0  0  0  0  0  0  0  0
   -6.8350   23.6310  -30.9500 C   0  0  0  0  0  0  0  0  0  0  0  0
   -6.1790   24.7050  -30.0660 C   0  0  0  0  0  0  0  0  0  0  0  0
   -5.2400   25.6230  -30.8510 C   0  0  0  0  0  0  0  0  0  0  0  0
   -3.8900   25.3170  -30.5100 O   0  0  0  0  0  0  0  0  0  0  0  0
   -3.4780   24.1250  -29.8980 C   0  0  0  0  0  0  0  0  0  0  0  0
   -3.2790   24.0180  -28.5060 C   0  0  0  0  0  0  0  0  0  0  0  0
   -2.8690   22.8050  -27.9460 C   0  0  0  0  0  0  0  0  0  0  0  0
   -2.6520   21.6910  -28.7630 C   0  0  0  0  0  0  0  0  0  0  0  0
   -2.8480   21.7900  -30.1430 C   0  0  0  0  0  0  0  0  0  0  0  0
   -3.2580   23.0020  -30.7070 C   0  0  0  0  0  0  0  0  0  0  0  0
   -7.5820   21.3960  -32.4330 C   0  0  0  0  0  0  0  0  0  0  0  0
   -7.1520   19.9990  -32.7880 C   0  0  0  0  0  0  0  0  0  0  0  0
   -7.7100   18.8890  -32.1300 C   0  0  0  0  0  0  0  0  0  0  0  0
   -7.3240   17.5930  -32.4860 C   0  0  0  0  0  0  0  0  0  0  0  0
   -6.3830   17.3960  -33.5010 C   0  0  0  0  0  0  0  0  0  0  0  0
   -5.8240   18.4950  -34.1600 C   0  0  0  0  0  0  0  0  0  0  0  0
   -6.2060   19.7920  -33.8060 C   0  0  0  0  0  0  0  0  0  0  0  0
   -9.8122   22.0124  -29.9815 H   0  0  0  0  0  0  0  0  0  0  0  0
   -9.5561   22.8733  -31.5370 H   0  0  0  0  0  0  0  0  0  0  0  0
  -10.0966   21.1603  -31.5370 H   0  0  0  0  0  0  0  0  0  0  0  0
   -7.8000   22.6334  -29.2910 H   0  0  0  0  0  0  0  0  0  0  0  0
   -6.3132   21.8132  -29.9158 H   0  0  0  0  0  0  0  0  0  0  0  0
   -6.1254   23.3553  -31.7440 H   0  0  0  0  0  0  0  0  0  0  0  0
   -7.7638   24.0675  -31.3460 H   0  0  0  0  0  0  0  0  0  0  0  0
   -6.9709   25.3179  -29.6107 H   0  0  0  0  0  0  0  0  0  0  0  0
   -5.5774   24.1868  -29.3048 H   0  0  0  0  0  0  0  0  0  0  0  0
   -5.3910   25.4680  -31.9295 H   0  0  0  0  0  0  0  0  0  0  0  0
   -5.4551   26.6723  -30.6005 H   0  0  0  0  0  0  0  0  0  0  0  0
   -3.4470   24.8917  -27.8592 H   0  0  0  0  0  0  0  0  0  0  0  0
   -2.7165   22.7263  -26.8595 H   0  0  0  0  0  0  0  0  0  0  0  0
   -2.3274   20.7380  -28.3199 H   0  0  0  0  0  0  0  0  0  0  0  0
   -2.6796   20.9137  -30.7862 H   0  0  0  0  0  0  0  0  0  0  0  0
   -3.4090   23.0746  -31.7942 H   0  0  0  0  0  0  0  0  0  0  0  0
   -8.3910   21.7066  -33.1105 H   0  0  0  0  0  0  0  0  0  0  0  0
   -6.7157   22.0662  -32.5350 H   0  0  0  0  0  0  0  0  0  0  0  0
   -8.4525   19.0404  -31.3327 H   0  0  0  0  0  0  0  0  0  0  0  0
   -7.7613   16.7274  -31.9668 H   0  0  0  0  0  0  0  0  0  0  0  0
   -6.0823   16.3757  -33.7813 H   0  0  0  0  0  0  0  0  0  0  0  0
   -5.0829   18.3388  -34.9578 H   0  0  0  0  0  0  0  0  0  0  0  0
   -5.7641   20.6544  -34.3266 H   0  0  0  0  0  0  0  0  0  0  0  0
  1  2  1  0
  2  3  1  0
  3  4  1  0
  4  5  1  0
  5  6  1  0
  6  7  1  0
  7  8  1  0
  8  9  2  0
  9 10  1  0
 10 11  2  0
 11 12  1  0
 12 13  2  0
  2 14  1  0
 14 15  1  0
 15 16  2  0
 16 17  1  0
 17 18  2  0
 18 19  1  0
 19 20  2  0
 13  8  1  0
 20 15  1  0
  1 21  1  0
  1 22  1  0
  1 23  1  0
  3 24  1  0
  3 25  1  0
  4 26  1  0
  4 27  1  0
  5 28  1  0
  5 29  1  0
  6 30  1  0
  6 31  1  0
  9 32  1  0
 10 33  1  0
 11 34  1  0
 12 35  1  0
 13 36  1  0
 14 37  1  0
 14 38  1  0
 16 39  1  0
 17 40  1  0
 18 41  1  0
 19 42  1  0
 20 43  1  0
M  END
>  <UniqueID>  (21) 
19

>  <SMILES>  (21) 
CN(CCCCOc1ccccc1)Cc1ccccc1

>  <Energy>  (21) 
38.89059387053696

>  <Genealogy>  (21) 
CN(CCCCOc1ccccc1)Cc1ccccc1 (3D coordinates assigned)
CN(CCCCOc1ccccc1)Cc1ccccc1 (optimized conformer: 38.89059387053696 kcal/mol)

>  <smiles>  (21) 
CN(CCCCOc1ccccc1)Cc1ccccc1

>  <score_type>  (21) 
oracle

>  <origin>  (21) 
adg

>  <m_score__min__energy>  (21) 
-7.7199999999999998

>  <m_primary>  (21) 
energy

$$$$
21:0
     RDKit          3D

 42 43  0  0  0  0  0  0  0  0999 V2000
   -1.6300   25.3060  -29.2160 N   0  0  0  0  0  0  0  0  0  0  0  0
   -3.0730   24.4700  -29.6670 S   0  0  0  0  0  0  0  0  0  0  0  0
   -3.8940   25.3480  -30.5720 O   0  0  0  0  0  0  0  0  0  0  0  0
   -3.8790   24.1590  -28.4370 O   0  0  0  0  0  0  0  0  0  0  0  0
   -2.6570   22.9740  -30.4960 C   0  0  0  0  0  0  0  0  0  0  0  0
   -1.4320   22.3480  -30.2320 C   0  0  0  0  0  0  0  0  0  0  0  0
   -1.0900   21.1660  -30.8950 C   0  0  0  0  0  0  0  0  0  0  0  0
   -1.9590   20.6200  -31.8440 C   0  0  0  0  0  0  0  0  0  0  0  0
   -3.1780   21.2510  -32.1290 C   0  0  0  0  0  0  0  0  0  0  0  0
   -4.0940   20.6790  -33.0670 N   0  0  0  0  0  0  0  0  0  0  0  0
   -3.9720   19.3580  -33.6060 C   0  0  0  0  0  0  0  0  0  0  0  0
   -2.9810   19.0770  -34.3290 O   0  0  0  0  0  0  0  0  0  0  0  0
   -4.9670   18.2860  -33.2730 C   0  0  0  0  0  0  0  0  0  0  0  0
   -6.2530   18.8560  -33.0590 O   0  0  0  0  0  0  0  0  0  0  0  0
   -7.1540   18.3340  -32.1270 C   0  0  0  0  0  0  0  0  0  0  0  0
   -6.7400   17.7490  -31.0890 O   0  0  0  0  0  0  0  0  0  0  0  0
   -8.6230   18.5100  -32.3420 C   0  0  0  0  0  0  0  0  0  0  0  0
   -9.1000   19.9070  -31.9330 C   0  0  0  0  0  0  0  0  0  0  0  0
   -8.2180   20.5030  -30.9790 O   0  0  0  0  0  0  0  0  0  0  0  0
   -7.5900   21.7570  -31.0900 C   0  0  0  0  0  0  0  0  0  0  0  0
   -7.0980   22.2660  -32.3080 C   0  0  0  0  0  0  0  0  0  0  0  0
   -6.4830   23.5210  -32.3530 C   0  0  0  0  0  0  0  0  0  0  0  0
   -6.3610   24.2830  -31.1900 C   0  0  0  0  0  0  0  0  0  0  0  0
   -6.8500   23.7890  -29.9790 C   0  0  0  0  0  0  0  0  0  0  0  0
   -7.4600   22.5320  -29.9290 C   0  0  0  0  0  0  0  0  0  0  0  0
   -3.5340   22.4160  -31.4380 C   0  0  0  0  0  0  0  0  0  0  0  0
   -1.2850   25.8010  -30.0680 H   0  0  0  0  0  0  0  0  0  0  0  0
   -0.7375   22.7877  -29.5011 H   0  0  0  0  0  0  0  0  0  0  0  0
   -0.1368   20.6653  -30.6699 H   0  0  0  0  0  0  0  0  0  0  0  0
   -1.6856   19.6926  -32.3686 H   0  0  0  0  0  0  0  0  0  0  0  0
   -5.0215   17.5698  -34.1061 H   0  0  0  0  0  0  0  0  0  0  0  0
   -4.6459   17.7720  -32.3550 H   0  0  0  0  0  0  0  0  0  0  0  0
   -8.8467   18.3564  -33.4080 H   0  0  0  0  0  0  0  0  0  0  0  0
   -9.1484   17.7747  -31.7149 H   0  0  0  0  0  0  0  0  0  0  0  0
   -9.1437   20.5459  -32.8274 H   0  0  0  0  0  0  0  0  0  0  0  0
  -10.0939   19.8111  -31.4715 H   0  0  0  0  0  0  0  0  0  0  0  0
   -7.1982   21.6728  -33.2289 H   0  0  0  0  0  0  0  0  0  0  0  0
   -6.0947   23.9083  -33.3065 H   0  0  0  0  0  0  0  0  0  0  0  0
   -5.8801   25.2716  -31.2274 H   0  0  0  0  0  0  0  0  0  0  0  0
   -6.7551   24.3900  -29.0626 H   0  0  0  0  0  0  0  0  0  0  0  0
   -7.8409   22.1481  -28.9712 H   0  0  0  0  0  0  0  0  0  0  0  0
   -4.5045   22.8950  -31.6346 H   0  0  0  0  0  0  0  0  0  0  0  0
  1  2  1  0
  2  3  2  0
  2  4  2  0
  2  5  1  0
  5  6  2  0
  6  7  1  0
  7  8  2  0
  8  9  1  0
  9 10  1  0
 10 11  1  0
 11 12  2  0
 11 13  1  0
 13 14  1  0
 14 15  1  0
 15 16  2  0
 15 17  1  0
 17 18  1  0
 18 19  1  0
 19 20  1  0
 20 21  2  0
 21 22  1  0
 22 23  2  0
 23 24  1  0
 24 25  2  0
  9 26  2  0
 26  5  1  0
 25 20  1  0
  1 27  1  0
  6 28  1  0
  7 29  1  0
  8 30  1  0
 13 31  1  0
 13 32  1  0
 17 33  1  0
 17 34  1  0
 18 35  1  0
 18 36  1  0
 21 37  1  0
 22 38  1  0
 23 39  1  0
 24 40  1  0
 25 41  1  0
 26 42  1  0
M  CHG  2   1  -1  10  -1
M  END
>  <UniqueID>  (22) 
20

>  <SMILES>  (22) 
[NH-]S(=O)(=O)c1cccc([N-]C(=O)COC(=O)CCOc2ccccc2)c1

>  <Energy>  (22) 
39.032839296700864

>  <Genealogy>  (22) 
[NH-]S(=O)(=O)c1cccc([N-]C(=O)COC(=O)CCOc2ccccc2)c1 (protonated)
[NH-]S(=O)(=O)c1cccc([N-]C(=O)COC(=O)CCOc2ccccc2)c1 (3D coordinates assigned)
[NH-]S(=O)(=O)c1cccc([N-]C(=O)COC(=O)CCOc2ccccc2)c1 (optimized conformer: 39.032839296700864 kcal/mol)

>  <smiles>  (22) 
NS(=O)(=O)c1cccc(NC(=O)COC(=O)CCOc2ccccc2)c1

>  <score_type>  (22) 
oracle

>  <origin>  (22) 
adg

>  <m_score__min__energy>  (22) 
-9.7699999999999996

>  <m_primary>  (22) 
energy

$$$$
22:0
     RDKit          3D

 51 54  0  0  0  0  0  0  0  0999 V2000
   -1.2020   26.1190  -28.3570 C   0  0  0  0  0  0  0  0  0  0  0  0
   -2.0680   25.1970  -29.0080 O   0  0  0  0  0  0  0  0  0  0  0  0
   -2.2090   23.8450  -28.6520 C   0  0  0  0  0  0  0  0  0  0  0  0
   -1.2730   23.1920  -27.8250 C   0  0  0  0  0  0  0  0  0  0  0  0
   -1.4580   21.8540  -27.4690 C   0  0  0  0  0  0  0  0  0  0  0  0
   -2.5750   21.1550  -27.9270 C   0  0  0  0  0  0  0  0  0  0  0  0
   -3.5080   21.7890  -28.7490 C   0  0  0  0  0  0  0  0  0  0  0  0
   -3.3300   23.1310  -29.1240 C   0  0  0  0  0  0  0  0  0  0  0  0
   -4.3040   23.7740  -29.9650 N   0  0  0  0  0  0  0  0  0  0  0  0
   -4.4670   23.3420  -31.3570 C   0  0  0  0  0  0  0  0  0  0  0  0
   -5.7850   23.8810  -31.9380 C   0  0  0  0  0  0  0  0  0  0  0  0
   -6.8720   23.8460  -30.9350 N   0  0  0  0  0  0  0  0  0  0  0  0
   -7.2240   22.4600  -30.5480 C   0  0  0  0  0  0  0  0  0  0  0  0
   -8.3220   21.9120  -31.4650 C   0  0  0  0  0  0  0  0  0  0  0  0
   -7.9470   20.5800  -31.9660 N   0  0  0  0  0  0  0  0  0  0  0  0
   -8.6880   19.4990  -31.5700 C   0  0  0  0  0  0  0  0  0  0  0  0
   -8.3540   18.2080  -31.9840 C   0  0  0  0  0  0  0  0  0  0  0  0
   -7.2440   18.0190  -32.8070 C   0  0  0  0  0  0  0  0  0  0  0  0
   -6.8700   16.7410  -33.2470 C   0  0  0  0  0  0  0  0  0  0  0  0
   -5.7490   16.5910  -34.0650 C   0  0  0  0  0  0  0  0  0  0  0  0
   -5.0120   17.7180  -34.4350 C   0  0  0  0  0  0  0  0  0  0  0  0
   -5.3860   18.9520  -34.0010 N   0  0  0  0  0  0  0  0  0  0  0  0
   -6.4760   19.1310  -33.2030 C   0  0  0  0  0  0  0  0  0  0  0  0
   -6.8410   20.4120  -32.7650 C   0  0  0  0  0  0  0  0  0  0  0  0
   -6.1430   21.4060  -33.1080 O   0  0  0  0  0  0  0  0  0  0  0  0
   -6.5840   24.7090  -29.7570 C   0  0  0  0  0  0  0  0  0  0  0  0
   -5.0810   24.9160  -29.4790 C   0  0  0  0  0  0  0  0  0  0  0  0
   -1.3037   26.0107  -27.2671 H   0  0  0  0  0  0  0  0  0  0  0  0
   -0.1617   25.9147  -28.6503 H   0  0  0  0  0  0  0  0  0  0  0  0
   -1.4710   27.1445  -28.6503 H   0  0  0  0  0  0  0  0  0  0  0  0
   -0.3920   23.7390  -27.4579 H   0  0  0  0  0  0  0  0  0  0  0  0
   -0.7212   21.3504  -26.8260 H   0  0  0  0  0  0  0  0  0  0  0  0
   -2.7206   20.1031  -27.6400 H   0  0  0  0  0  0  0  0  0  0  0  0
   -4.3884   21.2342  -29.1055 H   0  0  0  0  0  0  0  0  0  0  0  0
   -3.6256   23.7224  -31.9548 H   0  0  0  0  0  0  0  0  0  0  0  0
   -4.4881   22.2426  -31.3879 H   0  0  0  0  0  0  0  0  0  0  0  0
   -5.6333   24.9202  -32.2651 H   0  0  0  0  0  0  0  0  0  0  0  0
   -6.0758   23.2432  -32.7857 H   0  0  0  0  0  0  0  0  0  0  0  0
   -6.3312   21.8228  -30.6307 H   0  0  0  0  0  0  0  0  0  0  0  0
   -7.5926   22.4616  -29.5116 H   0  0  0  0  0  0  0  0  0  0  0  0
   -9.2629   21.8363  -30.9003 H   0  0  0  0  0  0  0  0  0  0  0  0
   -8.4505   22.5938  -32.3186 H   0  0  0  0  0  0  0  0  0  0  0  0
   -9.5595   19.6498  -30.9159 H   0  0  0  0  0  0  0  0  0  0  0  0
   -8.9607   17.3480  -31.6640 H   0  0  0  0  0  0  0  0  0  0  0  0
   -7.4577   15.8603  -32.9487 H   0  0  0  0  0  0  0  0  0  0  0  0
   -5.4484   15.5926  -34.4155 H   0  0  0  0  0  0  0  0  0  0  0  0
   -4.1270   17.6077  -35.0789 H   0  0  0  0  0  0  0  0  0  0  0  0
   -7.0419   25.6940  -29.9305 H   0  0  0  0  0  0  0  0  0  0  0  0
   -7.0007   24.1949  -28.8783 H   0  0  0  0  0  0  0  0  0  0  0  0
   -4.7412   25.8284  -29.9909 H   0  0  0  0  0  0  0  0  0  0  0  0
   -4.9312   25.0100  -28.3933 H   0  0  0  0  0  0  0  0  0  0  0  0
  1  2  1  0
  2  3  1  0
  3  4  2  0
  4  5  1  0
  5  6  2  0
  6  7  1  0
  7  8  2  0
  8  9  1  0
  9 10  1  0
 10 11  1  0
 11 12  1  0
 12 13  1  0
 13 14  1  0
 14 15  1  0
 15 16  1  0
 16 17  2  0
 17 18  1  0
 18 19  2  0
 19 20  1  0
 20 21  2  0
 21 22  1  0
 22 23  2  0
 23 24  1  0
 24 25  2  0
 12 26  1  0
 26 27  1  0
  8  3  1  0
 27  9  1  0
 24 15  1  0
 23 18  1  0
  1 28  1  0
  1 29  1  0
  1 30  1  0
  4 31  1  0
  5 32  1  0
  6 33  1  0
  7 34  1  0
 10 35  1  0
 10 36  1  0
 11 37  1  0
 11 38  1  0
 13 39  1  0
 13 40  1  0
 14 41  1  0
 14 42  1  0
 16 43  1  0
 17 44  1  0
 19 45  1  0
 20 46  1  0
 21 47  1  0
 26 48  1  0
 26 49  1  0
 27 50  1  0
 27 51  1  0
M  END
>  <UniqueID>  (23) 
21

>  <SMILES>  (23) 
COc1ccccc1N1CCN(CCn2ccc3cccnc3c2=O)CC1

>  <Energy>  (23) 
69.77409127190907

>  <Genealogy>  (23) 
COc1ccccc1N1CCN(CCn2ccc3cccnc3c2=O)CC1 (3D coordinates assigned)
COc1ccccc1N1CCN(CCn2ccc3cccnc3c2=O)CC1 (nonaromatic ring conformer: 69.77409127190907 kcal/mol)

>  <smiles>  (23) 
COc1ccccc1N1CCN(CCn2ccc3cccnc3c2=O)CC1

>  <score_type>  (23) 
oracle

>  <origin>  (23) 
adg

>  <m_score__min__energy>  (23) 
-8.7699999999999996

>  <m_primary>  (23) 
energy

$$$$
23:0
     RDKit          3D

 45 47  0  0  0  0  0  0  0  0999 V2000
   -6.1920   25.6540  -29.1590 C   0  0  0  0  0  0  0  0  0  0  0  0
   -6.7140   24.9930  -30.4410 C   0  0  0  0  0  0  0  0  0  0  0  0
   -5.9740   23.7580  -30.8000 N   0  0  1  0  0  0  0  0  0  0  0  0
   -6.2690   23.2280  -32.1580 C   0  0  0  0  0  0  0  0  0  0  0  0
   -7.2480   22.0680  -32.1910 C   0  0  0  0  0  0  0  0  0  0  0  0
   -8.5800   22.2340  -31.7710 C   0  0  0  0  0  0  0  0  0  0  0  0
   -9.4690   21.1550  -31.8020 C   0  0  0  0  0  0  0  0  0  0  0  0
   -9.0380   19.9110  -32.2680 C   0  0  0  0  0  0  0  0  0  0  0  0
   -7.7200   19.7400  -32.7080 C   0  0  0  0  0  0  0  0  0  0  0  0
   -6.8290   20.8140  -32.6750 C   0  0  0  0  0  0  0  0  0  0  0  0
   -4.5490   23.9600  -30.6130 C   0  0  0  0  0  0  0  0  0  0  0  0
   -4.0420   25.0990  -30.8300 O   0  0  0  0  0  0  0  0  0  0  0  0
   -3.6740   22.8770  -30.0840 C   0  0  0  0  0  0  0  0  0  0  0  0
   -2.7620   22.2020  -30.9070 C   0  0  0  0  0  0  0  0  0  0  0  0
   -1.9440   21.1910  -30.3830 C   0  0  0  0  0  0  0  0  0  0  0  0
   -2.0560   20.8060  -29.0340 C   0  0  0  0  0  0  0  0  0  0  0  0
   -1.2140   19.7090  -28.4910 C   0  0  0  0  0  0  0  0  0  0  0  0
   -0.0130   19.3470  -29.1180 C   0  0  0  0  0  0  0  0  0  0  0  0
    0.7590   18.2970  -28.6050 C   0  0  0  0  0  0  0  0  0  0  0  0
    0.3150   17.6100  -27.4700 C   0  0  0  0  0  0  0  0  0  0  0  0
   -0.8600   17.9640  -26.8740 N   0  0  0  0  0  0  0  0  0  0  0  0
   -1.6220   18.9910  -27.3470 C   0  0  0  0  0  0  0  0  0  0  0  0
   -2.9800   21.4680  -28.2100 C   0  0  0  0  0  0  0  0  0  0  0  0
   -3.7660   22.5100  -28.7250 C   0  0  0  0  0  0  0  0  0  0  0  0
   -6.6044   25.1318  -28.2831 H   0  0  0  0  0  0  0  0  0  0  0  0
   -5.0938   25.5955  -29.1373 H   0  0  0  0  0  0  0  0  0  0  0  0
   -6.5035   26.7088  -29.1373 H   0  0  0  0  0  0  0  0  0  0  0  0
   -7.7740   24.7369  -30.2966 H   0  0  0  0  0  0  0  0  0  0  0  0
   -6.5729   25.7112  -31.2621 H   0  0  0  0  0  0  0  0  0  0  0  0
   -6.2730   23.0290  -30.1140 H   0  0  0  0  0  0  0  0  0  0  0  0
   -6.6885   24.0468  -32.7610 H   0  0  0  0  0  0  0  0  0  0  0  0
   -5.3178   22.8411  -32.5523 H   0  0  0  0  0  0  0  0  0  0  0  0
   -8.9240   23.2169  -31.4166 H   0  0  0  0  0  0  0  0  0  0  0  0
  -10.5062   21.2859  -31.4599 H   0  0  0  0  0  0  0  0  0  0  0  0
   -9.7371   19.0620  -32.2894 H   0  0  0  0  0  0  0  0  0  0  0  0
   -7.3867   18.7598  -33.0795 H   0  0  0  0  0  0  0  0  0  0  0  0
   -5.7959   20.6802  -33.0283 H   0  0  0  0  0  0  0  0  0  0  0  0
   -2.6875   22.4674  -31.9719 H   0  0  0  0  0  0  0  0  0  0  0  0
   -1.2080   20.6942  -31.0322 H   0  0  0  0  0  0  0  0  0  0  0  0
    0.3234   19.8887  -30.0143 H   0  0  0  0  0  0  0  0  0  0  0  0
    1.7053   18.0152  -29.0898 H   0  0  0  0  0  0  0  0  0  0  0  0
    0.9135   16.7841  -27.0580 H   0  0  0  0  0  0  0  0  0  0  0  0
   -2.5576   19.2606  -26.8352 H   0  0  0  0  0  0  0  0  0  0  0  0
   -3.0882   21.1688  -27.1570 H   0  0  0  0  0  0  0  0  0  0  0  0
   -4.4611   23.0462  -28.0622 H   0  0  0  0  0  0  0  0  0  0  0  0
  1  2  1  0
  2  3  1  0
  3  4  1  0
  4  5  1  0
  5  6  2  0
  6  7  1  0
  7  8  2  0
  8  9  1  0
  9 10  2  0
  3 11  1  0
 11 12  2  0
 11 13  1  0
 13 14  2  0
 14 15  1  0
 15 16  2  0
 16 17  1  0
 17 18  2  0
 18 19  1  0
 19 20  2  0
 20 21  1  0
 21 22  2  0
 16 23  1  0
 23 24  2  0
 10  5  1  0
 24 13  1  0
 22 17  1  0
  1 25  1  0
  1 26  1  0
  1 27  1  0
  2 28  1  0
  2 29  1  0
  3 30  1  1
  4 31  1  0
  4 32  1  0
  6 33  1  0
  7 34  1  0
  8 35  1  0
  9 36  1  0
 10 37  1  0
 14 38  1  0
 15 39  1  0
 18 40  1  0
 19 41  1  0
 20 42  1  0
 22 43  1  0
 23 44  1  0
 24 45  1  0
M  CHG  1   3   1
M  END
>  <UniqueID>  (24) 
22

>  <SMILES>  (24) 
CC[N@@H+](Cc1ccccc1)C(=O)c1ccc(-c2cccnc2)cc1

>  <Energy>  (24) 
63.07514691793742

>  <Genealogy>  (24) 
CC[NH+](Cc1ccccc1)C(=O)c1ccc(-c2cccnc2)cc1 (protonated)
CC[N@@H+](Cc1ccccc1)C(=O)c1ccc(-c2cccnc2)cc1 (chirality)
CC[N@@H+](Cc1ccccc1)C(=O)c1ccc(-c2cccnc2)cc1 (3D coordinates assigned)
CC[N@@H+](Cc1ccccc1)C(=O)c1ccc(-c2cccnc2)cc1 (optimized conformer: 63.07514691793742 kcal/mol)

>  <smiles>  (24) 
CCN(Cc1ccccc1)C(=O)c1ccc(-c2cccnc2)cc1

>  <score_type>  (24) 
oracle

>  <origin>  (24) 
adg

>  <m_score__min__energy>  (24) 
-7.8300000000000001

>  <m_primary>  (24) 
energy

$$$$
24:0
     RDKit          3D

 48 51  0  0  0  0  0  0  0  0999 V2000
    1.5960   24.6010  -26.4960 C   0  0  0  0  0  0  0  0  0  0  0  0
    1.1850   24.7700  -27.8500 O   0  0  0  0  0  0  0  0  0  0  0  0
   -0.0890   24.4440  -28.3420 C   0  0  0  0  0  0  0  0  0  0  0  0
   -0.2950   23.3700  -29.2280 C   0  0  0  0  0  0  0  0  0  0  0  0
   -1.5800   23.0810  -29.7170 C   0  0  0  0  0  0  0  0  0  0  0  0
   -2.6820   23.8490  -29.2880 C   0  0  0  0  0  0  0  0  0  0  0  0
   -2.4780   24.9120  -28.3960 C   0  0  0  0  0  0  0  0  0  0  0  0
   -1.1830   25.2230  -27.9320 C   0  0  0  0  0  0  0  0  0  0  0  0
   -0.9430   26.2980  -27.0610 O   0  0  0  0  0  0  0  0  0  0  0  0
   -1.4610   26.3960  -25.7370 C   0  0  0  0  0  0  0  0  0  0  0  0
   -4.0880   23.5640  -29.7740 C   0  0  0  0  0  0  0  0  0  0  0  0
   -4.1360   22.5350  -30.8320 N   0  0  0  0  0  0  0  0  0  0  0  0
   -5.4200   22.0160  -31.2350 C   0  0  0  0  0  0  0  0  0  0  0  0
   -5.5790   20.6760  -31.4090 N   0  0  0  0  0  0  0  0  0  0  0  0
   -6.7650   20.1380  -31.7910 C   0  0  0  0  0  0  0  0  0  0  0  0
   -7.8780   20.9800  -31.9880 C   0  0  0  0  0  0  0  0  0  0  0  0
   -7.6850   22.3660  -31.8540 C   0  0  0  0  0  0  0  0  0  0  0  0
   -8.6340   23.1670  -32.0860 O   0  0  0  0  0  0  0  0  0  0  0  0
   -6.4700   22.8540  -31.4820 N   0  0  0  0  0  0  0  0  0  0  0  0
   -9.2140   20.4310  -32.4460 C   0  0  0  0  0  0  0  0  0  0  0  0
   -9.3480   18.9240  -32.2070 C   0  0  0  0  0  0  0  0  0  0  0  0
   -8.1010   18.1930  -32.7030 C   0  0  0  0  0  0  0  0  0  0  0  0
   -6.8720   18.6380  -31.9010 C   0  0  0  0  0  0  0  0  0  0  0  0
   -2.9300   22.2550  -31.6200 C   0  0  0  0  0  0  0  0  0  0  0  0
   -1.7770   21.9390  -30.6760 C   0  0  0  0  0  0  0  0  0  0  0  0
    0.7904   24.9323  -25.8242 H   0  0  0  0  0  0  0  0  0  0  0  0
    1.8159   23.5395  -26.3093 H   0  0  0  0  0  0  0  0  0  0  0  0
    2.4990   25.2008  -26.3093 H   0  0  0  0  0  0  0  0  0  0  0  0
    0.5586   22.7507  -29.5407 H   0  0  0  0  0  0  0  0  0  0  0  0
   -3.3366   25.5091  -28.0549 H   0  0  0  0  0  0  0  0  0  0  0  0
   -0.6476   26.2421  -25.0127 H   0  0  0  0  0  0  0  0  0  0  0  0
   -1.9007   27.3933  -25.5882 H   0  0  0  0  0  0  0  0  0  0  0  0
   -2.2346   25.6283  -25.5882 H   0  0  0  0  0  0  0  0  0  0  0  0
   -4.6902   23.2179  -28.9210 H   0  0  0  0  0  0  0  0  0  0  0  0
   -4.4825   24.4964  -30.2041 H   0  0  0  0  0  0  0  0  0  0  0  0
   -6.3460   23.8930  -31.4160 H   0  0  0  0  0  0  0  0  0  0  0  0
  -10.0140   20.9471  -31.8949 H   0  0  0  0  0  0  0  0  0  0  0  0
   -9.2897   20.6032  -33.5298 H   0  0  0  0  0  0  0  0  0  0  0  0
   -9.4732   18.7375  -31.1302 H   0  0  0  0  0  0  0  0  0  0  0  0
  -10.2233   18.5516  -32.7594 H   0  0  0  0  0  0  0  0  0  0  0  0
   -8.2422   17.1091  -32.5799 H   0  0  0  0  0  0  0  0  0  0  0  0
   -7.9428   18.4330  -33.7648 H   0  0  0  0  0  0  0  0  0  0  0  0
   -6.9396   18.2142  -30.8882 H   0  0  0  0  0  0  0  0  0  0  0  0
   -5.9786   18.2777  -32.4321 H   0  0  0  0  0  0  0  0  0  0  0  0
   -3.1128   21.3933  -32.2788 H   0  0  0  0  0  0  0  0  0  0  0  0
   -2.6764   23.1331  -32.2321 H   0  0  0  0  0  0  0  0  0  0  0  0
   -2.0068   21.0231  -30.1118 H   0  0  0  0  0  0  0  0  0  0  0  0
   -0.8571   21.7913  -31.2608 H   0  0  0  0  0  0  0  0  0  0  0  0
  1  2  1  0
  2  3  1  0
  3  4  2  0
  4  5  1  0
  5  6  2  0
  6  7  1  0
  7  8  2  0
  8  9  1  0
  9 10  1  0
  6 11  1  0
 11 12  1  0
 12 13  1  0
 13 14  2  0
 14 15  1  0
 15 16  2  0
 16 17  1  0
 17 18  2  0
 17 19  1  0
 16 20  1  0
 20 21  1  0
 21 22  1  0
 22 23  1  0
 12 24  1  0
 24 25  1  0
  8  3  1  0
 19 13  1  0
 25  5  1  0
 23 15  1  0
  1 26  1  0
  1 27  1  0
  1 28  1  0
  4 29  1  0
  7 30  1  0
 10 31  1  0
 10 32  1  0
 10 33  1  0
 11 34  1  0
 11 35  1  0
 19 36  1  0
 20 37  1  0
 20 38  1  0
 21 39  1  0
 21 40  1  0
 22 41  1  0
 22 42  1  0
 23 43  1  0
 23 44  1  0
 24 45  1  0
 24 46  1  0
 25 47  1  0
 25 48  1  0
M  END
>  <UniqueID>  (25) 
23

>  <SMILES>  (25) 
COc1cc2c(cc1OC)CN(c1nc3c(c(=O)[nH]1)CCCC3)CC2

>  <Energy>  (25) 
54.94285847054014

>  <Genealogy>  (25) 
COc1cc2c(cc1OC)CN(c1nc3c(c(=O)[nH]1)CCCC3)CC2 (3D coordinates assigned)
COc1cc2c(cc1OC)CN(c1nc3c(c(=O)[nH]1)CCCC3)CC2 (nonaromatic ring conformer: 54.94285847054014 kcal/mol)

>  <smiles>  (25) 
COc1cc2c(cc1OC)CN(c1nc3c(c(=O)[nH]1)CCCC3)CC2

>  <score_type>  (25) 
oracle

>  <origin>  (25) 
adg

>  <m_score__min__energy>  (25) 
-7.6600000000000001

>  <m_primary>  (25) 
energy

$$$$
25:0
     RDKit          3D

 47 51  0  0  0  0  0  0  0  0999 V2000
   -3.9150   25.6700  -31.6000 H   0  0  0  0  0  0  0  0  0  0  0  0
   -4.0550   25.2480  -30.6570 N   0  0  0  0  0  0  0  0  0  0  0  0
   -3.1200   24.6360  -30.0020 C   0  0  0  0  0  0  0  0  0  0  0  0
   -2.4280   25.2480  -29.0070 N   0  0  0  0  0  0  0  0  0  0  0  0
   -1.6140   24.2720  -28.5670 C   0  0  0  0  0  0  0  0  0  0  0  0
   -0.6600   24.3610  -27.5550 C   0  0  0  0  0  0  0  0  0  0  0  0
   -0.5156   25.2939  -26.9903 H   0  0  0  0  0  0  0  0  0  0  0  0
    0.1120   23.2180  -27.2800 C   0  0  0  0  0  0  0  0  0  0  0  0
    0.8705   23.2496  -26.4839 H   0  0  0  0  0  0  0  0  0  0  0  0
   -0.0800   22.0300  -28.0190 C   0  0  0  0  0  0  0  0  0  0  0  0
    0.5338   21.1443  -27.7981 H   0  0  0  0  0  0  0  0  0  0  0  0
   -1.0510   21.9710  -29.0360 C   0  0  0  0  0  0  0  0  0  0  0  0
   -1.2045   21.0541  -29.6240 H   0  0  0  0  0  0  0  0  0  0  0  0
   -1.8140   23.1190  -29.2730 C   0  0  0  0  0  0  0  0  0  0  0  0
   -2.7710   23.3310  -30.1970 N   0  0  0  0  0  0  0  0  0  0  0  0
   -3.2740   22.3980  -31.1670 C   0  0  0  0  0  0  0  0  0  0  0  0
   -4.6080   22.1560  -31.2540 N   0  0  0  0  0  0  0  0  0  0  0  0
   -5.1200   21.2670  -32.1480 C   0  0  0  0  0  0  0  0  0  0  0  0
   -6.5890   21.0450  -32.1890 C   0  0  0  0  0  0  0  0  0  0  0  0
   -7.4340   21.7720  -31.3330 C   0  0  0  0  0  0  0  0  0  0  0  0
   -7.0050   22.5023  -30.6312 H   0  0  0  0  0  0  0  0  0  0  0  0
   -8.8140   21.5720  -31.3690 C   0  0  0  0  0  0  0  0  0  0  0  0
   -9.4747   22.1368  -30.6949 H   0  0  0  0  0  0  0  0  0  0  0  0
   -9.3480   20.6490  -32.2680 C   0  0  0  0  0  0  0  0  0  0  0  0
  -10.4346   20.4810  -32.3021 H   0  0  0  0  0  0  0  0  0  0  0  0
   -8.5270   19.9560  -33.1030 N   0  0  0  0  0  0  0  0  0  0  0  0
   -8.9450   19.2760  -33.7770 H   0  0  0  0  0  0  0  0  0  0  0  0
   -7.1780   20.1330  -33.0870 C   0  0  0  0  0  0  0  0  0  0  0  0
   -6.5434   19.5605  -33.7795 H   0  0  0  0  0  0  0  0  0  0  0  0
   -4.2390   20.5700  -32.9920 C   0  0  0  0  0  0  0  0  0  0  0  0
   -4.6225   19.8360  -33.7160 H   0  0  0  0  0  0  0  0  0  0  0  0
   -2.8610   20.8250  -32.8970 C   0  0  0  0  0  0  0  0  0  0  0  0
   -1.9040   20.1510  -33.7330 N   0  0  0  0  0  0  0  0  0  0  0  0
   -1.0300   20.7840  -34.4940 N   0  0  0  0  0  0  0  0  0  0  0  0
   -0.3210   19.8210  -35.1110 C   0  0  0  0  0  0  0  0  0  0  0  0
    0.7960   20.1000  -36.0690 C   0  0  0  0  0  0  0  0  0  0  0  0
    1.7547   19.8556  -35.5882 H   0  0  0  0  0  0  0  0  0  0  0  0
    0.6549   19.4835  -36.9690 H   0  0  0  0  0  0  0  0  0  0  0  0
    0.7980   21.4650  -36.4450 O   0  0  0  0  0  0  0  0  0  0  0  0
    1.5160   22.2290  -35.4990 C   0  0  0  0  0  0  0  0  0  0  0  0
    1.2266   21.9211  -34.4834 H   0  0  0  0  0  0  0  0  0  0  0  0
    2.5948   22.0654  -35.6384 H   0  0  0  0  0  0  0  0  0  0  0  0
    1.2858   23.2956  -35.6384 H   0  0  0  0  0  0  0  0  0  0  0  0
   -0.7110   18.5770  -34.7590 N   0  0  0  0  0  0  0  0  0  0  0  0
   -1.7110   18.8250  -33.8910 C   0  0  0  0  0  0  0  0  0  0  0  0
   -2.2948   18.0469  -33.3774 H   0  0  0  0  0  0  0  0  0  0  0  0
   -2.4180   21.7330  -31.9870 N   0  0  0  0  0  0  0  0  0  0  0  0
  1  2  1  0
  2  3  2  0
  3  4  1  0
  4  5  1  0
  5  6  2  0
  6  7  1  0
  6  8  1  0
  8  9  1  0
  8 10  2  0
 10 11  1  0
 10 12  1  0
 12 13  1  0
 12 14  2  0
 14 15  1  0
 15 16  1  0
 16 17  2  0
 17 18  1  0
 18 19  1  0
 19 20  2  0
 20 21  1  0
 20 22  1  0
 22 23  1  0
 22 24  2  0
 24 25  1  0
 24 26  1  0
 26 27  1  0
 26 28  2  0
 28 29  1  0
 18 30  2  0
 30 31  1  0
 30 32  1  0
 32 33  1  0
 33 34  1  0
 34 35  2  0
 35 36  1  0
 36 37  1  0
 36 38  1  0
 36 39  1  0
 39 40  1  0
 40 41  1  0
 40 42  1  0
 40 43  1  0
 35 44  1  0
 44 45  2  0
 45 46  1  0
 32 47  2  0
 15  3  1  0
 47 16  1  0
 14  5  1  0
 28 19  1  0
 45 33  1  0
M  CHG  2   4  -1  26   1
M  END
>  <UniqueID>  (26) 
24

>  <SMILES>  (26) 
[H]/N=c1/[n-]c2ccccc2n1-c1nc(-c2ccc[nH+]c2)cc(-n2cnc(COC)n2)n1

>  <Energy>  (26) 
136.64669654543675

>  <Genealogy>  (26) 
COCc1ncn(-c2cc(-c3ccc[nH+]c3)nc(-n3c(=N)[n-]c4ccccc43)n2)n1 (protonated)
[H]/N=c1/[n-]c2ccccc2n1-c1nc(-c2ccc[nH+]c2)cc(-n2cnc(COC)n2)n1 (cis-trans isomerization)
[H]/N=c1/[n-]c2ccccc2n1-c1nc(-c2ccc[nH+]c2)cc(-n2cnc(COC)n2)n1 (3D coordinates assigned)
[H]/N=c1/[n-]c2ccccc2n1-c1nc(-c2ccc[nH+]c2)cc(-n2cnc(COC)n2)n1 (optimized conformer: 136.64669654543675 kcal/mol)

>  <smiles>  (26) 
COCc1ncn(-c2cc(-c3cccnc3)nc(-n3c(=N)[nH]c4ccccc43)n2)n1

>  <score_type>  (26) 
oracle

>  <origin>  (26) 
adg

>  <m_score__min__energy>  (26) 
-10.220000000000001

>  <m_primary>  (26) 
energy

$$$$
26:0
     RDKit          3D

 36 38  0  0  0  0  0  0  0  0999 V2000
   -0.2820   26.7260  -23.3760 C   0  0  0  0  0  0  0  0  0  0  0  0
   -0.8520   25.8230  -24.4210 C   0  0  0  0  0  0  0  0  0  0  0  0
   -0.3880   24.6580  -24.5500 O   0  0  0  0  0  0  0  0  0  0  0  0
   -1.9790   26.2530  -25.2000 N   0  0  0  0  0  0  0  0  0  0  0  0
   -2.4870   25.5450  -26.3450 C   0  0  0  0  0  0  0  0  0  0  0  0
   -3.7680   24.9670  -26.3430 C   0  0  0  0  0  0  0  0  0  0  0  0
   -4.2280   24.2640  -27.4600 C   0  0  0  0  0  0  0  0  0  0  0  0
   -3.4160   24.1140  -28.5960 C   0  0  0  0  0  0  0  0  0  0  0  0
   -3.9280   23.3660  -29.7670 C   0  0  0  0  0  0  0  0  0  0  0  0
   -3.2100   22.9620  -30.8810 C   0  0  0  0  0  0  0  0  0  0  0  0
   -4.1070   22.3050  -31.6940 C   0  0  0  0  0  0  0  0  0  0  0  0
   -5.3230   22.3450  -31.0310 C   0  0  0  0  0  0  0  0  0  0  0  0
   -6.6110   21.7750  -31.4900 C   0  0  0  0  0  0  0  0  0  0  0  0
   -6.6680   20.5640  -32.2080 C   0  0  0  0  0  0  0  0  0  0  0  0
   -7.8980   20.0500  -32.6290 C   0  0  0  0  0  0  0  0  0  0  0  0
   -9.0820   20.7330  -32.3400 C   0  0  0  0  0  0  0  0  0  0  0  0
   -9.0370   21.9340  -31.6290 C   0  0  0  0  0  0  0  0  0  0  0  0
   -7.8100   22.4540  -31.2050 C   0  0  0  0  0  0  0  0  0  0  0  0
   -5.1780   22.9830  -29.8910 O   0  0  0  0  0  0  0  0  0  0  0  0
   -2.1250   24.6740  -28.5870 C   0  0  0  0  0  0  0  0  0  0  0  0
   -1.6660   25.3760  -27.4680 C   0  0  0  0  0  0  0  0  0  0  0  0
   -0.5293   26.3342  -22.3783 H   0  0  0  0  0  0  0  0  0  0  0  0
    0.8110   26.7749  -23.4902 H   0  0  0  0  0  0  0  0  0  0  0  0
   -0.7080   27.7337  -23.4902 H   0  0  0  0  0  0  0  0  0  0  0  0
   -2.5110   27.0880  -24.8640 H   0  0  0  0  0  0  0  0  0  0  0  0
   -4.4123   25.0684  -25.4573 H   0  0  0  0  0  0  0  0  0  0  0  0
   -5.2360   23.8238  -27.4492 H   0  0  0  0  0  0  0  0  0  0  0  0
   -2.1409   23.1315  -31.0764 H   0  0  0  0  0  0  0  0  0  0  0  0
   -3.9002   21.8428  -32.6705 H   0  0  0  0  0  0  0  0  0  0  0  0
   -5.7400   20.0203  -32.4384 H   0  0  0  0  0  0  0  0  0  0  0  0
   -7.9337   19.1044  -33.1898 H   0  0  0  0  0  0  0  0  0  0  0  0
  -10.0482   20.3253  -32.6720 H   0  0  0  0  0  0  0  0  0  0  0  0
   -9.9690   22.4724  -31.4019 H   0  0  0  0  0  0  0  0  0  0  0  0
   -7.7820   23.4003  -30.6449 H   0  0  0  0  0  0  0  0  0  0  0  0
   -1.4730   24.5589  -29.4654 H   0  0  0  0  0  0  0  0  0  0  0  0
   -0.6508   25.7996  -27.4693 H   0  0  0  0  0  0  0  0  0  0  0  0
  1  2  1  0
  2  3  2  0
  2  4  1  0
  4  5  1  0
  5  6  2  0
  6  7  1  0
  7  8  2  0
  8  9  1  0
  9 10  2  0
 10 11  1  0
 11 12  2  0
 12 13  1  0
 13 14  2  0
 14 15  1  0
 15 16  2  0
 16 17  1  0
 17 18  2  0
 12 19  1  0
  8 20  1  0
 20 21  2  0
 21  5  1  0
 19  9  1  0
 18 13  1  0
  1 22  1  0
  1 23  1  0
  1 24  1  0
  4 25  1  0
  6 26  1  0
  7 27  1  0
 10 28  1  0
 11 29  1  0
 14 30  1  0
 15 31  1  0
 16 32  1  0
 17 33  1  0
 18 34  1  0
 20 35  1  0
 21 36  1  0
M  END
>  <UniqueID>  (27) 
25

>  <SMILES>  (27) 
CC(=O)Nc1ccc(-c2ccc(-c3ccccc3)o2)cc1

>  <Energy>  (27) 
68.30478080702886

>  <Genealogy>  (27) 
CC(=O)Nc1ccc(-c2ccc(-c3ccccc3)o2)cc1 (3D coordinates assigned)
CC(=O)Nc1ccc(-c2ccc(-c3ccccc3)o2)cc1 (optimized conformer: 68.30478080702886 kcal/mol)

>  <smiles>  (27) 
CC(=O)Nc1ccc(-c2ccc(-c3ccccc3)o2)cc1

>  <score_type>  (27) 
oracle

>  <origin>  (27) 
adg

>  <m_score__min__energy>  (27) 
-7.4699999999999998

>  <m_primary>  (27) 
energy

$$$$
27:0
     RDKit          3D

 41 44  0  0  0  0  0  0  0  0999 V2000
   -2.9060   22.9770  -28.6020 C   0  0  0  0  0  0  0  0  0  0  0  0
   -2.2960   23.0250  -29.9930 C   0  0  0  0  0  0  0  0  0  0  0  0
   -3.1230   23.8080  -30.8490 O   0  0  0  0  0  0  0  0  0  0  0  0
   -4.5260   23.7690  -30.8530 C   0  0  0  0  0  0  0  0  0  0  0  0
   -5.2470   22.6160  -31.2220 C   0  0  0  0  0  0  0  0  0  0  0  0
   -6.6530   22.6150  -31.2080 C   0  0  0  0  0  0  0  0  0  0  0  0
   -7.4190   21.4060  -31.5960 C   0  0  0  0  0  0  0  0  0  0  0  0
   -8.8000   21.2480  -31.5690 C   0  0  0  0  0  0  0  0  0  0  0  0
   -9.1350   19.9980  -31.9800 N   0  0  0  0  0  0  0  0  0  0  0  0
   -7.9440   19.4240  -32.2410 C   0  0  0  0  0  0  0  0  0  0  0  0
   -7.7330   18.1190  -32.6690 C   0  0  0  0  0  0  0  0  0  0  0  0
   -6.3990   17.6900  -32.8480 C   0  0  0  0  0  0  0  0  0  0  0  0
   -6.1020   16.3090  -33.3040 C   0  0  0  0  0  0  0  0  0  0  0  0
   -6.8180   15.5430  -34.2140 C   0  0  0  0  0  0  0  0  0  0  0  0
   -6.2300   14.3380  -34.3500 N   0  0  0  0  0  0  0  0  0  0  0  0
   -5.1640   14.3250  -33.5660 N   0  0  0  0  0  0  0  0  0  0  0  0
   -4.3040   13.1630  -33.3860 C   0  0  0  0  0  0  0  0  0  0  0  0
   -5.0580   15.4920  -32.9060 C   0  0  0  0  0  0  0  0  0  0  0  0
   -5.3510   18.6050  -32.5760 C   0  0  0  0  0  0  0  0  0  0  0  0
   -5.6380   19.8700  -32.1590 N   0  0  0  0  0  0  0  0  0  0  0  0
   -6.9080   20.2410  -32.0210 N   0  0  0  0  0  0  0  0  0  0  0  0
   -7.3330   23.7880  -30.8400 C   0  0  0  0  0  0  0  0  0  0  0  0
   -6.6210   24.9330  -30.4750 C   0  0  0  0  0  0  0  0  0  0  0  0
   -5.2250   24.9220  -30.4780 C   0  0  0  0  0  0  0  0  0  0  0  0
   -4.5450   26.0410  -30.1200 F   0  0  0  0  0  0  0  0  0  0  0  0
   -2.1068   23.0399  -27.8488 H   0  0  0  0  0  0  0  0  0  0  0  0
   -3.5968   23.8236  -28.4752 H   0  0  0  0  0  0  0  0  0  0  0  0
   -3.4559   22.0328  -28.4752 H   0  0  0  0  0  0  0  0  0  0  0  0
   -1.2942   23.4761  -29.9384 H   0  0  0  0  0  0  0  0  0  0  0  0
   -2.2177   22.0036  -30.3938 H   0  0  0  0  0  0  0  0  0  0  0  0
   -4.7047   21.7079  -31.5239 H   0  0  0  0  0  0  0  0  0  0  0  0
   -9.5169   22.0228  -31.2597 H   0  0  0  0  0  0  0  0  0  0  0  0
   -8.5778   17.4415  -32.8623 H   0  0  0  0  0  0  0  0  0  0  0  0
   -7.7257   15.8694  -34.7427 H   0  0  0  0  0  0  0  0  0  0  0  0
   -4.1638   12.9735  -32.3116 H   0  0  0  0  0  0  0  0  0  0  0  0
   -4.7714   12.2847  -33.8553 H   0  0  0  0  0  0  0  0  0  0  0  0
   -3.3275   13.3533  -33.8553 H   0  0  0  0  0  0  0  0  0  0  0  0
   -4.2770   15.7521  -32.1764 H   0  0  0  0  0  0  0  0  0  0  0  0
   -4.3037   18.2930  -32.7019 H   0  0  0  0  0  0  0  0  0  0  0  0
   -8.4329   23.8049  -30.8393 H   0  0  0  0  0  0  0  0  0  0  0  0
   -7.1617   25.8458  -30.1844 H   0  0  0  0  0  0  0  0  0  0  0  0
  1  2  1  0
  2  3  1  0
  3  4  1  0
  4  5  2  0
  5  6  1  0
  6  7  1  0
  7  8  2  0
  8  9  1  0
  9 10  2  0
 10 11  1  0
 11 12  2  0
 12 13  1  0
 13 14  1  0
 14 15  2  0
 15 16  1  0
 16 17  1  0
 16 18  1  0
 12 19  1  0
 19 20  2  0
 20 21  1  0
  6 22  2  0
 22 23  1  0
 23 24  2  0
 24 25  1  0
 24  4  1  0
 21  7  1  0
 21 10  1  0
 18 13  2  0
  1 26  1  0
  1 27  1  0
  1 28  1  0
  2 29  1  0
  2 30  1  0
  5 31  1  0
  8 32  1  0
 11 33  1  0
 14 34  1  0
 17 35  1  0
 17 36  1  0
 17 37  1  0
 18 38  1  0
 19 39  1  0
 22 40  1  0
 23 41  1  0
M  END
>  <UniqueID>  (28) 
26

>  <SMILES>  (28) 
CCOc1cc(-c2cnc3cc(-c4cnn(C)c4)cnn23)ccc1F

>  <Energy>  (28) 
113.22253305694161

>  <Genealogy>  (28) 
CCOc1cc(-c2cnc3cc(-c4cnn(C)c4)cnn23)ccc1F (3D coordinates assigned)
CCOc1cc(-c2cnc3cc(-c4cnn(C)c4)cnn23)ccc1F (optimized conformer: 113.22253305694161 kcal/mol)

>  <smiles>  (28) 
CCOc1cc(-c2cnc3cc(-c4cnn(C)c4)cnn23)ccc1F

>  <score_type>  (28) 
oracle

>  <origin>  (28) 
adg

>  <m_score__min__energy>  (28) 
-7.9100000000000001

>  <m_primary>  (28) 
energy

$$$$
28:0
     RDKit          3D

 33 36  0  0  0  0  0  0  0  0999 V2000
   -5.7750   26.1130  -30.1070 C   0  0  0  0  0  0  0  0  0  0  0  0
   -4.6550   25.6020  -30.8210 O   0  0  0  0  0  0  0  0  0  0  0  0
   -4.1210   24.3140  -30.6480 C   0  0  0  0  0  0  0  0  0  0  0  0
   -4.7320   23.1670  -31.1930 C   0  0  0  0  0  0  0  0  0  0  0  0
   -4.1670   21.8910  -30.9980 C   0  0  0  0  0  0  0  0  0  0  0  0
   -4.7960   20.6720  -31.5660 C   0  0  0  0  0  0  0  0  0  0  0  0
   -4.1270   19.5700  -32.1200 C   0  0  0  0  0  0  0  0  0  0  0  0
   -5.0870   18.7220  -32.4980 N   0  0  0  0  0  0  0  0  0  0  0  0
   -6.2450   19.2760  -32.1930 C   0  0  0  0  0  0  0  0  0  0  0  0
   -6.1490   20.4850  -31.6130 N   0  0  0  0  0  0  0  0  0  0  0  0
   -7.5770   18.3230  -32.6090 S   0  0  0  0  0  0  0  0  0  0  0  0
   -6.5280   17.1170  -33.2250 C   0  0  0  0  0  0  0  0  0  0  0  0
   -6.8610   15.8960  -33.8040 C   0  0  0  0  0  0  0  0  0  0  0  0
   -5.8210   15.0570  -34.2430 C   0  0  0  0  0  0  0  0  0  0  0  0
   -6.1320   13.8300  -34.8250 O   0  0  0  0  0  0  0  0  0  0  0  0
   -4.4710   15.4570  -34.0930 C   0  0  0  0  0  0  0  0  0  0  0  0
   -4.1510   16.6940  -33.5070 C   0  0  0  0  0  0  0  0  0  0  0  0
   -5.1970   17.5100  -33.0790 C   0  0  0  0  0  0  0  0  0  0  0  0
   -2.9830   21.7800  -30.2490 C   0  0  0  0  0  0  0  0  0  0  0  0
   -2.3770   22.9150  -29.7070 C   0  0  0  0  0  0  0  0  0  0  0  0
   -2.9420   24.1770  -29.9040 C   0  0  0  0  0  0  0  0  0  0  0  0
   -2.3280   25.2980  -29.3590 O   0  0  0  0  0  0  0  0  0  0  0  0
   -5.5902   26.0287  -29.0259 H   0  0  0  0  0  0  0  0  0  0  0  0
   -5.9274   27.1698  -30.3716 H   0  0  0  0  0  0  0  0  0  0  0  0
   -6.6731   25.5355  -30.3716 H   0  0  0  0  0  0  0  0  0  0  0  0
   -5.6590   23.2688  -31.7763 H   0  0  0  0  0  0  0  0  0  0  0  0
   -3.0403   19.4333  -32.2216 H   0  0  0  0  0  0  0  0  0  0  0  0
   -7.9129   15.5942  -33.9157 H   0  0  0  0  0  0  0  0  0  0  0  0
   -5.5310   13.4090  -35.5240 H   0  0  0  0  0  0  0  0  0  0  0  0
   -3.6647   14.7932  -34.4384 H   0  0  0  0  0  0  0  0  0  0  0  0
   -3.1038   17.0095  -33.3894 H   0  0  0  0  0  0  0  0  0  0  0  0
   -2.5300   20.7906  -30.0885 H   0  0  0  0  0  0  0  0  0  0  0  0
   -1.4506   22.8149  -29.1223 H   0  0  0  0  0  0  0  0  0  0  0  0
  1  2  1  0
  2  3  1  0
  3  4  2  0
  4  5  1  0
  5  6  1  0
  6  7  2  0
  7  8  1  0
  8  9  1  0
  9 10  2  0
  9 11  1  0
 11 12  1  0
 12 13  2  0
 13 14  1  0
 14 15  1  0
 14 16  2  0
 16 17  1  0
 17 18  2  0
  5 19  2  0
 19 20  1  0
 20 21  2  0
 21 22  1  0
 21  3  1  0
 10  6  1  0
 18 12  1  0
 18  8  1  0
  1 23  1  0
  1 24  1  0
  1 25  1  0
  4 26  1  0
  7 27  1  0
 13 28  1  0
 15 29  1  0
 16 30  1  0
 17 31  1  0
 19 32  1  0
 20 33  1  0
M  CHG  1  22  -1
M  END
>  <UniqueID>  (29) 
27

>  <SMILES>  (29) 
COc1cc(-c2cn3c(n2)sc2cc(O)ccc23)ccc1[O-]

>  <Energy>  (29) 
122.00259814801494

>  <Genealogy>  (29) 
COc1cc(-c2cn3c(n2)sc2cc(O)ccc23)ccc1[O-] (protonated)
COc1cc(-c2cn3c(n2)sc2cc(O)ccc23)ccc1[O-] (3D coordinates assigned)
COc1cc(-c2cn3c(n2)sc2cc(O)ccc23)ccc1[O-] (optimized conformer: 122.00259814801494 kcal/mol)

>  <smiles>  (29) 
COc1cc(-c2cn3c(n2)sc2cc(O)ccc23)ccc1O

>  <score_type>  (29) 
oracle

>  <origin>  (29) 
adg

>  <m_score__min__energy>  (29) 
-9.7200000000000006

>  <m_primary>  (29) 
energy

$$$$
29:0
     RDKit          3D

 30 32  0  0  0  0  0  0  0  0999 V2000
   -2.2290   24.8590  -28.6760 C   0  0  0  0  0  0  0  0  0  0  0  0
   -3.1200   25.2500  -29.7160 O   0  0  0  0  0  0  0  0  0  0  0  0
   -4.2430   24.5120  -30.1150 C   0  0  0  0  0  0  0  0  0  0  0  0
   -5.5580   24.9180  -29.8220 C   0  0  0  0  0  0  0  0  0  0  0  0
   -6.6450   24.1470  -30.2450 C   0  0  0  0  0  0  0  0  0  0  0  0
   -6.4380   22.9670  -30.9770 C   0  0  0  0  0  0  0  0  0  0  0  0
   -7.5820   22.1340  -31.4100 C   0  0  0  0  0  0  0  0  0  0  0  0
   -8.8770   22.6020  -31.5980 C   0  0  0  0  0  0  0  0  0  0  0  0
   -9.6400   21.5280  -32.0310 C   0  0  0  0  0  0  0  0  0  0  0  0
   -8.7790   20.4510  -32.0750 C   0  0  0  0  0  0  0  0  0  0  0  0
   -9.0730   19.1340  -32.4260 C   0  0  0  0  0  0  0  0  0  0  0  0
   -8.0350   18.1940  -32.3570 C   0  0  0  0  0  0  0  0  0  0  0  0
   -6.7520   18.5840  -31.9350 C   0  0  0  0  0  0  0  0  0  0  0  0
   -6.5140   19.9220  -31.5920 C   0  0  0  0  0  0  0  0  0  0  0  0
   -7.5380   20.8140  -31.6960 N   0  0  0  0  0  0  0  0  0  0  0  0
   -5.1250   22.5540  -31.2520 C   0  0  0  0  0  0  0  0  0  0  0  0
   -4.0390   23.3260  -30.8300 C   0  0  0  0  0  0  0  0  0  0  0  0
   -2.6931   25.0627  -27.6997 H   0  0  0  0  0  0  0  0  0  0  0  0
   -2.0138   23.7837  -28.7625 H   0  0  0  0  0  0  0  0  0  0  0  0
   -1.2920   25.4286  -28.7625 H   0  0  0  0  0  0  0  0  0  0  0  0
   -5.7316   25.8461  -29.2576 H   0  0  0  0  0  0  0  0  0  0  0  0
   -7.6691   24.4671  -30.0027 H   0  0  0  0  0  0  0  0  0  0  0  0
   -9.2303   23.6308  -31.4342 H   0  0  0  0  0  0  0  0  0  0  0  0
  -10.7099   21.5337  -32.2864 H   0  0  0  0  0  0  0  0  0  0  0  0
  -10.0843   18.8426  -32.7460 H   0  0  0  0  0  0  0  0  0  0  0  0
   -8.2254   17.1467  -32.6343 H   0  0  0  0  0  0  0  0  0  0  0  0
   -5.9403   17.8441  -31.8744 H   0  0  0  0  0  0  0  0  0  0  0  0
   -5.5210   20.2449  -31.2461 H   0  0  0  0  0  0  0  0  0  0  0  0
   -4.9498   21.6179  -31.8025 H   0  0  0  0  0  0  0  0  0  0  0  0
   -3.0147   22.9986  -31.0618 H   0  0  0  0  0  0  0  0  0  0  0  0
  1  2  1  0
  2  3  1  0
  3  4  2  0
  4  5  1  0
  5  6  2  0
  6  7  1  0
  7  8  2  0
  8  9  1  0
  9 10  2  0
 10 11  1  0
 11 12  2  0
 12 13  1  0
 13 14  2  0
 14 15  1  0
  6 16  1  0
 16 17  2  0
 17  3  1  0
 15  7  1  0
 15 10  1  0
  1 18  1  0
  1 19  1  0
  1 20  1  0
  4 21  1  0
  5 22  1  0
  8 23  1  0
  9 24  1  0
 11 25  1  0
 12 26  1  0
 13 27  1  0
 14 28  1  0
 16 29  1  0
 17 30  1  0
M  END
>  <UniqueID>  (30) 
28

>  <SMILES>  (30) 
COc1ccc(-c2ccc3ccccn23)cc1

>  <Energy>  (30) 
68.53082721940802

>  <Genealogy>  (30) 
COc1ccc(-c2ccc3ccccn23)cc1 (3D coordinates assigned)
COc1ccc(-c2ccc3ccccn23)cc1 (optimized conformer: 68.53082721940802 kcal/mol)

>  <smiles>  (30) 
COc1ccc(-c2ccc3ccccn23)cc1

>  <score_type>  (30) 
oracle

>  <origin>  (30) 
adg

>  <m_score__min__energy>  (30) 
-7.9500000000000002

>  <m_primary>  (30) 
energy

$$$$
30:0
     RDKit          3D

 53 56  0  0  0  0  0  0  0  0999 V2000
    0.3342   18.4738  -27.6768 H   0  0  0  0  0  0  0  0  0  0  0  0
   -0.4780   19.2150  -27.7070 C   0  0  0  0  0  0  0  0  0  0  0  0
   -1.7100   18.9320  -27.0770 C   0  0  0  0  0  0  0  0  0  0  0  0
   -1.8506   17.9721  -26.5586 H   0  0  0  0  0  0  0  0  0  0  0  0
   -2.7580   19.8690  -27.1080 C   0  0  0  0  0  0  0  0  0  0  0  0
   -3.7231   19.6558  -26.6252 H   0  0  0  0  0  0  0  0  0  0  0  0
   -2.5370   21.0760  -27.7690 C   0  0  0  0  0  0  0  0  0  0  0  0
   -1.3350   21.3530  -28.3830 C   0  0  0  0  0  0  0  0  0  0  0  0
   -0.2830   20.4390  -28.3730 C   0  0  0  0  0  0  0  0  0  0  0  0
    0.6710   20.6676  -28.8707 H   0  0  0  0  0  0  0  0  0  0  0  0
   -1.4460   22.6700  -28.9970 C   0  0  0  0  0  0  0  0  0  0  0  0
   -0.5620   23.2310  -29.6960 O   0  0  0  0  0  0  0  0  0  0  0  0
   -2.7340   23.2350  -28.7250 N   0  0  0  0  0  0  0  0  0  0  0  0
   -3.3670   24.3070  -29.4850 C   0  0  0  0  0  0  0  0  0  0  0  0
   -2.7009   25.1818  -29.5159 H   0  0  0  0  0  0  0  0  0  0  0  0
   -4.3148   24.5955  -29.0071 H   0  0  0  0  0  0  0  0  0  0  0  0
   -3.6190   23.8340  -30.8420 N   0  0  0  0  0  0  0  0  0  0  0  0
   -4.4310   22.9830  -31.4320 C   0  0  0  0  0  0  0  0  0  0  0  0
   -5.8080   23.2410  -31.2420 C   0  0  0  0  0  0  0  0  0  0  0  0
   -6.2640   24.3710  -30.4600 C   0  0  0  0  0  0  0  0  0  0  0  0
   -6.6290   25.2750  -29.8370 N   0  0  0  0  0  0  0  0  0  0  0  0
   -6.7630   22.4270  -31.8290 C   0  0  0  0  0  0  0  0  0  0  0  0
   -7.8321   22.6588  -31.7138 H   0  0  0  0  0  0  0  0  0  0  0  0
   -6.3670   21.3210  -32.5610 C   0  0  0  0  0  0  0  0  0  0  0  0
   -5.0060   21.0290  -32.7090 C   0  0  0  0  0  0  0  0  0  0  0  0
   -4.0330   21.8820  -32.1990 N   0  0  0  0  0  0  0  0  0  0  0  0
   -2.6130   21.5640  -32.4730 C   0  0  0  0  0  0  0  0  0  0  0  0
   -2.0055   22.4670  -32.3134 H   0  0  0  0  0  0  0  0  0  0  0  0
   -2.5272   21.2188  -33.5139 H   0  0  0  0  0  0  0  0  0  0  0  0
   -2.1080   20.4520  -31.5490 C   0  0  0  0  0  0  0  0  0  0  0  0
   -2.2458   20.7555  -30.5007 H   0  0  0  0  0  0  0  0  0  0  0  0
   -2.6755   19.5295  -31.7413 H   0  0  0  0  0  0  0  0  0  0  0  0
   -1.0400   20.2723  -31.7413 H   0  0  0  0  0  0  0  0  0  0  0  0
   -4.7190   19.7490  -33.4780 C   0  0  0  0  0  0  0  0  0  0  0  0
   -3.6798   19.4366  -33.2976 H   0  0  0  0  0  0  0  0  0  0  0  0
   -4.8642   19.9240  -34.5542 H   0  0  0  0  0  0  0  0  0  0  0  0
   -5.6780   18.6460  -33.0000 C   0  0  0  0  0  0  0  0  0  0  0  0
   -5.4542   18.4265  -31.9456 H   0  0  0  0  0  0  0  0  0  0  0  0
   -5.5174   17.7787  -33.6573 H   0  0  0  0  0  0  0  0  0  0  0  0
   -7.1270   19.0080  -33.1080 N   0  0  1  0  0  0  0  0  0  0  0  0
   -7.5030   18.5430  -33.9700 H   0  0  0  0  0  0  0  0  0  0  0  0
   -7.9010   18.4830  -31.9550 C   0  0  0  0  0  0  0  0  0  0  0  0
   -8.2857   17.4852  -32.2129 H   0  0  0  0  0  0  0  0  0  0  0  0
   -7.2251   18.4432  -31.0880 H   0  0  0  0  0  0  0  0  0  0  0  0
   -9.0840   19.3860  -31.5840 C   0  0  0  0  0  0  0  0  0  0  0  0
   -9.1674   19.4497  -30.4890 H   0  0  0  0  0  0  0  0  0  0  0  0
   -8.9216   20.3919  -31.9985 H   0  0  0  0  0  0  0  0  0  0  0  0
  -10.0115   18.9640  -31.9985 H   0  0  0  0  0  0  0  0  0  0  0  0
   -7.3810   20.4660  -33.2820 C   0  0  0  0  0  0  0  0  0  0  0  0
   -8.3816   20.6989  -32.8889 H   0  0  0  0  0  0  0  0  0  0  0  0
   -7.3048   20.6921  -34.3558 H   0  0  0  0  0  0  0  0  0  0  0  0
   -3.4180   22.2170  -27.9890 C   0  0  0  0  0  0  0  0  0  0  0  0
   -4.6200   22.2970  -27.6210 O   0  0  0  0  0  0  0  0  0  0  0  0
  1  2  1  0
  2  3  2  0
  3  4  1  0
  3  5  1  0
  5  6  1  0
  5  7  2  0
  7  8  1  0
  8  9  2  0
  9 10  1  0
  8 11  1  0
 11 12  2  0
 11 13  1  0
 13 14  1  0
 14 15  1  0
 14 16  1  0
 14 17  1  0
 17 18  2  0
 18 19  1  0
 19 20  1  0
 20 21  3  0
 19 22  2  0
 22 23  1  0
 22 24  1  0
 24 25  2  0
 25 26  1  0
 26 27  1  0
 27 28  1  0
 27 29  1  0
 27 30  1  0
 30 31  1  0
 30 32  1  0
 30 33  1  0
 25 34  1  0
 34 35  1  0
 34 36  1  0
 34 37  1  0
 37 38  1  0
 37 39  1  0
 37 40  1  0
 40 41  1  6
 40 42  1  0
 42 43  1  0
 42 44  1  0
 42 45  1  0
 45 46  1  0
 45 47  1  0
 45 48  1  0
 40 49  1  0
 49 50  1  0
 49 51  1  0
 13 52  1  0
 52 53  2  0
  9  2  1  0
 26 18  1  0
 52  7  1  0
 49 24  1  0
M  CHG  1  40   1
M  END
>  <UniqueID>  (31) 
29

>  <SMILES>  (31) 
CCn1c2c(cc(C#N)/c1=N/CN1C(=O)c3ccccc3C1=O)C[N@H+](CC)CC2

>  <Energy>  (31) 
121.27946087042565

>  <Genealogy>  (31) 
CCn1c2c(cc(C#N)c1=NCN1C(=O)c3ccccc3C1=O)C[NH+](CC)CC2 (protonated)
CCn1c2c(cc(C#N)c1=NCN1C(=O)c3ccccc3C1=O)C[N@H+](CC)CC2 (chirality)
CCn1c2c(cc(C#N)/c1=N/CN1C(=O)c3ccccc3C1=O)C[N@H+](CC)CC2 (cis-trans isomerization)
CCn1c2c(cc(C#N)/c1=N/CN1C(=O)c3ccccc3C1=O)C[N@H+](CC)CC2 (3D coordinates assigned)
CCn1c2c(cc(C#N)/c1=N/CN1C(=O)c3ccccc3C1=O)C[N@H+](CC)CC2 (nonaromatic ring conformer: 121.27946087042565 kcal/mol)

>  <smiles>  (31) 
CCN1CCc2c(cc(C#N)c(=NCN3C(=O)c4ccccc4C3=O)n2CC)C1

>  <score_type>  (31) 
oracle

>  <origin>  (31) 
adg

>  <m_score__min__energy>  (31) 
-8.5399999999999991

>  <m_primary>  (31) 
energy

$$$$
31:0
     RDKit          3D

 48 51  0  0  0  0  0  0  0  0999 V2000
   -0.0800   26.1760  -27.1790 C   0  0  0  0  0  0  0  0  0  0  0  0
   -0.7360   25.2630  -28.1040 N   0  0  0  0  0  0  0  0  0  0  0  0
   -0.2110   24.1220  -28.5890 C   0  0  0  0  0  0  0  0  0  0  0  0
   -1.1700   23.5190  -29.3720 C   0  0  0  0  0  0  0  0  0  0  0  0
   -1.0430   22.2400  -30.1420 C   0  0  0  0  0  0  0  0  0  0  0  0
   -2.2990   21.9520  -30.8610 N   0  0  0  0  0  0  0  0  0  0  0  0
   -2.9600   20.7440  -30.3140 C   0  0  0  0  0  0  0  0  0  0  0  0
   -3.9060   20.0350  -31.3100 C   0  0  0  0  0  0  0  0  0  0  0  0
   -4.4740   20.9370  -32.4290 C   0  0  0  0  0  0  0  0  0  0  0  0
   -5.7390   21.5920  -32.0080 N   0  0  0  0  0  0  0  0  0  0  0  0
   -5.7870   22.9620  -31.5370 C   0  0  0  0  0  0  0  0  0  0  0  0
   -4.7370   23.5800  -31.2230 O   0  0  0  0  0  0  0  0  0  0  0  0
   -7.1080   23.6570  -31.3580 C   0  0  0  0  0  0  0  0  0  0  0  0
   -8.1490   23.0970  -32.3280 C   0  0  0  0  0  0  0  0  0  0  0  0
   -8.2020   21.5980  -32.2270 C   0  0  0  0  0  0  0  0  0  0  0  0
   -9.4270   20.9210  -32.3200 C   0  0  0  0  0  0  0  0  0  0  0  0
   -9.4690   19.5290  -32.2200 C   0  0  0  0  0  0  0  0  0  0  0  0
   -8.2920   18.8080  -32.0270 C   0  0  0  0  0  0  0  0  0  0  0  0
   -7.0650   19.4690  -31.9500 C   0  0  0  0  0  0  0  0  0  0  0  0
   -6.9990   20.8730  -32.0790 C   0  0  0  0  0  0  0  0  0  0  0  0
   -3.4370   21.9280  -33.0260 C   0  0  0  0  0  0  0  0  0  0  0  0
   -2.0840   21.8560  -32.3150 C   0  0  0  0  0  0  0  0  0  0  0  0
   -2.2710   24.3520  -29.3130 C   0  0  0  0  0  0  0  0  0  0  0  0
   -1.9840   25.4070  -28.5240 N   0  0  0  0  0  0  0  0  0  0  0  0
   -0.2993   25.8708  -26.1452 H   0  0  0  0  0  0  0  0  0  0  0  0
    1.0069   26.1494  -27.3465 H   0  0  0  0  0  0  0  0  0  0  0  0
   -0.4519   27.1976  -27.3465 H   0  0  0  0  0  0  0  0  0  0  0  0
    0.8021   23.7400  -28.3947 H   0  0  0  0  0  0  0  0  0  0  0  0
   -0.2217   22.3327  -30.8679 H   0  0  0  0  0  0  0  0  0  0  0  0
   -0.8336   21.4182  -29.4414 H   0  0  0  0  0  0  0  0  0  0  0  0
   -2.1794   20.0304  -30.0116 H   0  0  0  0  0  0  0  0  0  0  0  0
   -3.5814   21.0778  -29.4699 H   0  0  0  0  0  0  0  0  0  0  0  0
   -3.3484   19.2138  -31.7841 H   0  0  0  0  0  0  0  0  0  0  0  0
   -4.7710   19.6945  -30.7219 H   0  0  0  0  0  0  0  0  0  0  0  0
   -4.7210   20.2702  -33.2683 H   0  0  0  0  0  0  0  0  0  0  0  0
   -7.4582   23.5067  -30.3261 H   0  0  0  0  0  0  0  0  0  0  0  0
   -6.9741   24.7294  -31.5632 H   0  0  0  0  0  0  0  0  0  0  0  0
   -9.1368   23.5127  -32.0801 H   0  0  0  0  0  0  0  0  0  0  0  0
   -7.8694   23.3771  -33.3543 H   0  0  0  0  0  0  0  0  0  0  0  0
  -10.3571   21.4883  -32.4721 H   0  0  0  0  0  0  0  0  0  0  0  0
  -10.4313   19.0012  -32.2936 H   0  0  0  0  0  0  0  0  0  0  0  0
   -8.3302   17.7125  -31.9349 H   0  0  0  0  0  0  0  0  0  0  0  0
   -6.1429   18.8916  -31.7876 H   0  0  0  0  0  0  0  0  0  0  0  0
   -3.2904   21.6876  -34.0894 H   0  0  0  0  0  0  0  0  0  0  0  0
   -3.8315   22.9462  -32.8933 H   0  0  0  0  0  0  0  0  0  0  0  0
   -1.5932   20.9007  -32.5527 H   0  0  0  0  0  0  0  0  0  0  0  0
   -1.4438   22.6850  -32.6509 H   0  0  0  0  0  0  0  0  0  0  0  0
   -3.2283   24.1816  -29.8274 H   0  0  0  0  0  0  0  0  0  0  0  0
  1  2  1  0
  2  3  1  0
  3  4  2  0
  4  5  1  0
  5  6  1  0
  6  7  1  0
  7  8  1  0
  8  9  1  0
  9 10  1  0
 10 11  1  0
 11 12  2  0
 11 13  1  0
 13 14  1  0
 14 15  1  0
 15 16  2  0
 16 17  1  0
 17 18  2  0
 18 19  1  0
 19 20  2  0
  9 21  1  0
 21 22  1  0
  4 23  1  0
 23 24  2  0
 24  2  1  0
 22  6  1  0
 20 10  1  0
 20 15  1  0
  1 25  1  0
  1 26  1  0
  1 27  1  0
  3 28  1  0
  5 29  1  0
  5 30  1  0
  7 31  1  0
  7 32  1  0
  8 33  1  0
  8 34  1  0
  9 35  1  0
 13 36  1  0
 13 37  1  0
 14 38  1  0
 14 39  1  0
 16 40  1  0
 17 41  1  0
 18 42  1  0
 19 43  1  0
 21 44  1  0
 21 45  1  0
 22 46  1  0
 22 47  1  0
 23 48  1  0
M  END
>  <UniqueID>  (32) 
30

>  <SMILES>  (32) 
Cn1cc(CN2CCC(N3C(=O)CCc4ccccc43)CC2)cn1

>  <Energy>  (32) 
95.26205703754998

>  <Genealogy>  (32) 
Cn1cc(CN2CCC(N3C(=O)CCc4ccccc43)CC2)cn1 (3D coordinates assigned)
Cn1cc(CN2CCC(N3C(=O)CCc4ccccc43)CC2)cn1 (nonaromatic ring conformer: 95.26205703754998 kcal/mol)

>  <smiles>  (32) 
Cn1cc(CN2CCC(N3C(=O)CCc4ccccc43)CC2)cn1

>  <score_type>  (32) 
oracle

>  <origin>  (32) 
adg

>  <m_score__min__energy>  (32) 
-8.5899999999999999

>  <m_primary>  (32) 
energy

$$$$
32:0
     RDKit          3D

 29 31  0  0  0  0  0  0  0  0999 V2000
    0.9202   22.8535  -27.5930 H   0  0  0  0  0  0  0  0  0  0  0  0
    0.0480   23.2740  -28.1150 C   0  0  0  0  0  0  0  0  0  0  0  0
   -0.0890   24.6230  -28.2270 N   0  0  0  0  0  0  0  0  0  0  0  0
   -1.1520   25.1870  -28.8630 C   0  0  0  0  0  0  0  0  0  0  0  0
   -1.2360   26.4420  -28.9410 O   0  0  0  0  0  0  0  0  0  0  0  0
   -2.1430   24.3700  -29.4240 C   0  0  0  0  0  0  0  0  0  0  0  0
   -3.2160   24.9070  -30.0660 N   0  0  0  0  0  0  0  0  0  0  0  0
   -4.1770   24.1150  -30.6100 C   0  0  0  0  0  0  0  0  0  0  0  0
   -5.1860   24.6650  -31.2140 N   0  0  0  0  0  0  0  0  0  0  0  0
   -6.5060   24.0480  -31.3630 C   0  0  0  0  0  0  0  0  0  0  0  0
   -7.1796   24.8586  -31.6778 H   0  0  0  0  0  0  0  0  0  0  0  0
   -6.4880   22.9110  -32.3790 C   0  0  0  0  0  0  0  0  0  0  0  0
   -6.7460   23.2884  -33.3795 H   0  0  0  0  0  0  0  0  0  0  0  0
   -5.4915   22.4508  -32.4508 H   0  0  0  0  0  0  0  0  0  0  0  0
   -7.5350   21.9060  -31.9050 C   0  0  0  0  0  0  0  0  0  0  0  0
   -8.4274   21.9588  -32.5459 H   0  0  0  0  0  0  0  0  0  0  0  0
   -7.1455   20.8785  -31.9550 H   0  0  0  0  0  0  0  0  0  0  0  0
   -7.8960   22.2850  -30.4690 C   0  0  0  0  0  0  0  0  0  0  0  0
   -8.9363   22.6389  -30.4198 H   0  0  0  0  0  0  0  0  0  0  0  0
   -7.8070   21.4198  -29.7955 H   0  0  0  0  0  0  0  0  0  0  0  0
   -6.9430   23.3980  -30.0620 C   0  0  0  0  0  0  0  0  0  0  0  0
   -7.4562   24.1288  -29.4197 H   0  0  0  0  0  0  0  0  0  0  0  0
   -6.0868   23.0148  -29.4875 H   0  0  0  0  0  0  0  0  0  0  0  0
   -4.0690   22.7590  -30.5170 N   0  0  0  0  0  0  0  0  0  0  0  0
   -3.0160   22.1760  -29.8870 C   0  0  0  0  0  0  0  0  0  0  0  0
   -2.9492   21.0799  -29.8234 H   0  0  0  0  0  0  0  0  0  0  0  0
   -2.0180   22.9730  -29.3200 C   0  0  0  0  0  0  0  0  0  0  0  0
   -0.9140   22.4210  -28.6600 C   0  0  0  0  0  0  0  0  0  0  0  0
   -0.8056   21.3299  -28.5718 H   0  0  0  0  0  0  0  0  0  0  0  0
  1  2  1  0
  2  3  1  0
  3  4  1  0
  4  5  2  0
  4  6  1  0
  6  7  1  0
  7  8  1  0
  8  9  2  0
  9 10  1  0
 10 11  1  0
 10 12  1  0
 12 13  1  0
 12 14  1  0
 12 15  1  0
 15 16  1  0
 15 17  1  0
 15 18  1  0
 18 19  1  0
 18 20  1  0
 18 21  1  0
 21 22  1  0
 21 23  1  0
  8 24  1  0
 24 25  2  0
 25 26  1  0
 25 27  1  0
 27 28  1  0
 28 29  1  0
 28  2  2  0
 27  6  2  0
 21 10  1  0
M  CHG  2   3  -1   7  -1
M  END
>  <UniqueID>  (33) 
31

>  <SMILES>  (33) 
O=c1[n-]ccc2cn/c(=N\C3CCCC3)[n-]c12

>  <Energy>  (33) 
35.01992353868272

>  <Genealogy>  (33) 
O=c1[n-]ccc2cnc(=NC3CCCC3)[n-]c12 (protonated)
O=c1[n-]ccc2cn/c(=N\C3CCCC3)[n-]c12 (cis-trans isomerization)
O=c1[n-]ccc2cn/c(=N\C3CCCC3)[n-]c12 (3D coordinates assigned)
O=c1[n-]ccc2cn/c(=N\C3CCCC3)[n-]c12 (nonaromatic ring conformer: 35.01992353868272 kcal/mol)

>  <smiles>  (33) 
O=c1[nH]ccc2cnc(=NC3CCCC3)[nH]c12

>  <score_type>  (33) 
oracle

>  <origin>  (33) 
adg

>  <m_score__min__energy>  (33) 
-9.0500000000000007

>  <m_primary>  (33) 
energy

$$$$
33:0
     RDKit          3D

 53 55  0  0  0  0  0  0  0  0999 V2000
   -3.1100   23.0560  -28.3150 C   0  0  0  0  0  0  0  0  0  0  0  0
   -2.8470   23.8840  -29.5710 C   0  0  0  0  0  0  0  0  0  0  0  0
   -3.7300   23.4680  -30.6710 N   0  0  0  0  0  0  0  0  0  0  0  0
   -4.9740   24.2200  -30.9100 C   0  0  0  0  0  0  0  0  0  0  0  0
   -5.4230   24.9440  -29.6430 C   0  0  0  0  0  0  0  0  0  0  0  0
   -3.3780   22.3350  -31.4990 C   0  0  0  0  0  0  0  0  0  0  0  0
   -2.2780   21.5220  -31.1700 C   0  0  0  0  0  0  0  0  0  0  0  0
   -1.9320   20.4330  -31.9740 C   0  0  0  0  0  0  0  0  0  0  0  0
   -2.6840   20.1220  -33.1150 C   0  0  0  0  0  0  0  0  0  0  0  0
   -2.2800   18.9690  -33.9570 C   0  0  0  0  0  0  0  0  0  0  0  0
   -1.1880   19.0740  -34.5800 O   0  0  0  0  0  0  0  0  0  0  0  0
   -3.0030   17.7020  -34.0270 N   0  0  0  0  0  0  0  0  0  0  0  0
   -3.4730   17.1390  -32.7230 C   0  0  0  0  0  0  0  0  0  0  0  0
   -5.0090   17.1050  -32.5470 C   0  0  0  0  0  0  0  0  0  0  0  0
   -5.6750   18.2240  -33.2300 N   0  0  0  0  0  0  0  0  0  0  0  0
   -6.8880   18.7880  -32.6840 C   0  0  0  0  0  0  0  0  0  0  0  0
   -7.9440   17.9550  -32.2670 C   0  0  0  0  0  0  0  0  0  0  0  0
   -9.1150   18.5040  -31.7360 C   0  0  0  0  0  0  0  0  0  0  0  0
   -9.2480   19.8880  -31.6170 C   0  0  0  0  0  0  0  0  0  0  0  0
   -8.2120   20.7290  -32.0320 C   0  0  0  0  0  0  0  0  0  0  0  0
   -8.3780   22.4670  -31.8740 Cl  0  0  0  0  0  0  0  0  0  0  0  0
   -7.0400   20.1830  -32.5670 C   0  0  0  0  0  0  0  0  0  0  0  0
   -5.2560   18.5980  -34.5860 C   0  0  0  0  0  0  0  0  0  0  0  0
   -4.0680   17.7520  -35.0510 C   0  0  0  0  0  0  0  0  0  0  0  0
   -3.7710   20.9390  -33.4560 C   0  0  0  0  0  0  0  0  0  0  0  0
   -4.1200   22.0290  -32.6550 C   0  0  0  0  0  0  0  0  0  0  0  0
   -2.9149   23.6701  -27.4235 H   0  0  0  0  0  0  0  0  0  0  0  0
   -4.1582   22.7226  -28.3084 H   0  0  0  0  0  0  0  0  0  0  0  0
   -2.4462   22.1789  -28.3084 H   0  0  0  0  0  0  0  0  0  0  0  0
   -3.0278   24.9455  -29.3464 H   0  0  0  0  0  0  0  0  0  0  0  0
   -1.8033   23.7281  -29.8813 H   0  0  0  0  0  0  0  0  0  0  0  0
   -4.8009   24.9596  -31.7056 H   0  0  0  0  0  0  0  0  0  0  0  0
   -5.7613   23.5124  -31.2090 H   0  0  0  0  0  0  0  0  0  0  0  0
   -5.0772   24.3865  -28.7600 H   0  0  0  0  0  0  0  0  0  0  0  0
   -4.9943   25.9569  -29.6281 H   0  0  0  0  0  0  0  0  0  0  0  0
   -6.5209   25.0102  -29.6281 H   0  0  0  0  0  0  0  0  0  0  0  0
   -1.6847   21.7458  -30.2712 H   0  0  0  0  0  0  0  0  0  0  0  0
   -1.0618   19.8144  -31.7092 H   0  0  0  0  0  0  0  0  0  0  0  0
   -2.2980   17.0200  -34.3950 H   0  0  0  0  0  0  0  0  0  0  0  0
   -3.0961   16.1090  -32.6393 H   0  0  0  0  0  0  0  0  0  0  0  0
   -3.0864   17.8077  -31.9398 H   0  0  0  0  0  0  0  0  0  0  0  0
   -5.3914   16.1603  -32.9608 H   0  0  0  0  0  0  0  0  0  0  0  0
   -5.2260   17.1904  -31.4720 H   0  0  0  0  0  0  0  0  0  0  0  0
   -7.8468   16.8632  -32.3598 H   0  0  0  0  0  0  0  0  0  0  0  0
   -9.9329   17.8439  -31.4115 H   0  0  0  0  0  0  0  0  0  0  0  0
  -10.1692   20.3173  -31.1961 H   0  0  0  0  0  0  0  0  0  0  0  0
   -6.2303   20.8494  -32.8991 H   0  0  0  0  0  0  0  0  0  0  0  0
   -6.0981   18.4446  -35.2769 H   0  0  0  0  0  0  0  0  0  0  0  0
   -4.9493   19.6543  -34.5771 H   0  0  0  0  0  0  0  0  0  0  0  0
   -4.4162   16.7286  -35.2545 H   0  0  0  0  0  0  0  0  0  0  0  0
   -3.6515   18.2125  -35.9590 H   0  0  0  0  0  0  0  0  0  0  0  0
   -4.3544   20.7198  -34.3625 H   0  0  0  0  0  0  0  0  0  0  0  0
   -4.9825   22.6537  -32.9303 H   0  0  0  0  0  0  0  0  0  0  0  0
  1  2  1  0
  2  3  1  0
  3  4  1  0
  4  5  1  0
  3  6  1  0
  6  7  2  0
  7  8  1  0
  8  9  2  0
  9 10  1  0
 10 11  2  0
 10 12  1  0
 12 13  1  0
 13 14  1  0
 14 15  1  0
 15 16  1  0
 16 17  2  0
 17 18  1  0
 18 19  2  0
 19 20  1  0
 20 21  1  0
 20 22  2  0
 15 23  1  0
 23 24  1  0
  9 25  1  0
 25 26  2  0
 26  6  1  0
 24 12  1  0
 22 16  1  0
  1 27  1  0
  1 28  1  0
  1 29  1  0
  2 30  1  0
  2 31  1  0
  4 32  1  0
  4 33  1  0
  5 34  1  0
  5 35  1  0
  5 36  1  0
  7 37  1  0
  8 38  1  0
 12 39  1  0
 13 40  1  0
 13 41  1  0
 14 42  1  0
 14 43  1  0
 17 44  1  0
 18 45  1  0
 19 46  1  0
 22 47  1  0
 23 48  1  0
 23 49  1  0
 24 50  1  0
 24 51  1  0
 25 52  1  0
 26 53  1  0
M  CHG  1  12   1
M  END
>  <UniqueID>  (34) 
32

>  <SMILES>  (34) 
CCN(CC)c1ccc(C(=O)[NH+]2CCN(c3cccc(Cl)c3)CC2)cc1

>  <Energy>  (34) 
75.5323328926353

>  <Genealogy>  (34) 
CCN(CC)c1ccc(C(=O)[NH+]2CCN(c3cccc(Cl)c3)CC2)cc1 (protonated)
CCN(CC)c1ccc(C(=O)[NH+]2CCN(c3cccc(Cl)c3)CC2)cc1 (3D coordinates assigned)
CCN(CC)c1ccc(C(=O)[NH+]2CCN(c3cccc(Cl)c3)CC2)cc1 (nonaromatic ring conformer: 75.5323328926353 kcal/mol)

>  <smiles>  (34) 
CCN(CC)c1ccc(C(=O)N2CCN(c3cccc(Cl)c3)CC2)cc1

>  <score_type>  (34) 
oracle

>  <origin>  (34) 
adg

>  <m_score__min__energy>  (34) 
-7.6100000000000003

>  <m_primary>  (34) 
energy

$$$$
34:0
     RDKit          3D

 35 37  0  0  0  0  0  0  0  0999 V2000
    1.7287   26.2719  -26.5363 H   0  0  0  0  0  0  0  0  0  0  0  0
    0.6750   25.9790  -26.6540 C   0  0  0  0  0  0  0  0  0  0  0  0
    0.2660   25.3550  -27.7910 N   0  0  0  0  0  0  0  0  0  0  0  0
   -1.0280   24.9830  -27.9880 C   0  0  0  0  0  0  0  0  0  0  0  0
   -1.3680   24.2960  -29.2030 N   0  0  0  0  0  0  0  0  0  0  0  0
   -2.5550   24.1750  -29.7190 C   0  0  0  0  0  0  0  0  0  0  0  0
   -3.4900   25.1510  -29.7240 N   0  0  0  0  0  0  0  0  0  0  0  0
   -4.6220   24.7680  -30.3750 C   0  0  0  0  0  0  0  0  0  0  0  0
   -5.7710   25.7150  -30.5250 C   0  0  0  0  0  0  0  0  0  0  0  0
   -6.1327   26.0131  -29.5299 H   0  0  0  0  0  0  0  0  0  0  0  0
   -5.4412   26.6071  -31.0777 H   0  0  0  0  0  0  0  0  0  0  0  0
   -6.5836   25.2209  -31.0777 H   0  0  0  0  0  0  0  0  0  0  0  0
   -4.5850   23.4610  -30.8890 C   0  0  0  0  0  0  0  0  0  0  0  0
   -5.6290   22.7500  -31.6510 C   0  0  0  0  0  0  0  0  0  0  0  0
   -6.3090   23.3890  -32.4980 O   0  0  0  0  0  0  0  0  0  0  0  0
   -5.8230   21.3360  -31.4980 N   0  0  0  0  0  0  0  0  0  0  0  0
   -4.9910   20.7560  -31.2500 H   0  0  0  0  0  0  0  0  0  0  0  0
   -7.0530   20.6600  -31.8120 C   0  0  0  0  0  0  0  0  0  0  0  0
   -8.2800   21.3510  -31.8580 C   0  0  0  0  0  0  0  0  0  0  0  0
   -8.3066   22.4343  -31.6691 H   0  0  0  0  0  0  0  0  0  0  0  0
   -9.4640   20.6640  -32.1430 C   0  0  0  0  0  0  0  0  0  0  0  0
  -10.4179   21.2100  -32.1869 H   0  0  0  0  0  0  0  0  0  0  0  0
   -9.4390   19.2870  -32.3720 C   0  0  0  0  0  0  0  0  0  0  0  0
  -10.3713   18.7509  -32.6028 H   0  0  0  0  0  0  0  0  0  0  0  0
   -8.2300   18.5900  -32.3080 C   0  0  0  0  0  0  0  0  0  0  0  0
   -8.2115   17.5040  -32.4817 H   0  0  0  0  0  0  0  0  0  0  0  0
   -7.0430   19.2730  -32.0230 C   0  0  0  0  0  0  0  0  0  0  0  0
   -6.0948   18.7186  -31.9639 H   0  0  0  0  0  0  0  0  0  0  0  0
   -3.0720   22.8060  -30.5360 S   0  0  0  0  0  0  0  0  0  0  0  0
   -1.9710   25.2120  -26.9680 C   0  0  0  0  0  0  0  0  0  0  0  0
   -3.0144   24.8873  -27.0939 H   0  0  0  0  0  0  0  0  0  0  0  0
   -1.5700   25.8550  -25.7950 C   0  0  0  0  0  0  0  0  0  0  0  0
   -2.3014   26.0512  -24.9972 H   0  0  0  0  0  0  0  0  0  0  0  0
   -0.2420   26.2480  -25.6360 C   0  0  0  0  0  0  0  0  0  0  0  0
    0.0797   26.7640  -24.7193 H   0  0  0  0  0  0  0  0  0  0  0  0
  1  2  1  0
  2  3  2  0
  3  4  1  0
  4  5  1  0
  5  6  2  0
  6  7  1  0
  7  8  1  0
  8  9  1  0
  9 10  1  0
  9 11  1  0
  9 12  1  0
  8 13  2  0
 13 14  1  0
 14 15  2  0
 14 16  1  0
 16 17  1  0
 16 18  1  0
 18 19  2  0
 19 20  1  0
 19 21  1  0
 21 22  1  0
 21 23  2  0
 23 24  1  0
 23 25  1  0
 25 26  1  0
 25 27  2  0
 27 28  1  0
 13 29  1  0
  4 30  2  0
 30 31  1  0
 30 32  1  0
 32 33  1  0
 32 34  2  0
 34 35  1  0
 34  2  1  0
 29  6  1  0
 27 18  1  0
M  CHG  1   7  -1
M  END
>  <UniqueID>  (35) 
33

>  <SMILES>  (35) 
Cc1[n-]/c(=N\c2ccccn2)sc1C(=O)Nc1ccccc1

>  <Energy>  (35) 
78.8838462398047

>  <Genealogy>  (35) 
Cc1[n-]c(=Nc2ccccn2)sc1C(=O)Nc1ccccc1 (protonated)
Cc1[n-]/c(=N\c2ccccn2)sc1C(=O)Nc1ccccc1 (cis-trans isomerization)
Cc1[n-]/c(=N\c2ccccn2)sc1C(=O)Nc1ccccc1 (3D coordinates assigned)
Cc1[n-]/c(=N\c2ccccn2)sc1C(=O)Nc1ccccc1 (optimized conformer: 78.8838462398047 kcal/mol)

>  <smiles>  (35) 
Cc1[nH]c(=Nc2ccccn2)sc1C(=O)Nc1ccccc1

>  <score_type>  (35) 
oracle

>  <origin>  (35) 
adg

>  <m_score__min__energy>  (35) 
-9.4199999999999999

>  <m_primary>  (35) 
energy

$$$$
35:0
     RDKit          3D

 48 51  0  0  0  0  0  0  0  0999 V2000
    0.6250   23.1490  -24.6370 C   0  0  0  0  0  0  0  0  0  0  0  0
    0.6260   22.8050  -26.0190 O   0  0  0  0  0  0  0  0  0  0  0  0
   -0.4210   23.0940  -26.9070 C   0  0  0  0  0  0  0  0  0  0  0  0
   -1.5090   22.2160  -26.9620 C   0  0  0  0  0  0  0  0  0  0  0  0
   -2.5760   22.4590  -27.8300 C   0  0  0  0  0  0  0  0  0  0  0  0
   -2.5750   23.5910  -28.6640 C   0  0  0  0  0  0  0  0  0  0  0  0
   -3.7090   23.8480  -29.5840 C   0  0  0  0  0  0  0  0  0  0  0  0
   -3.8830   24.9790  -30.1770 N   0  0  0  0  0  0  0  0  0  0  0  0
   -5.0060   24.9300  -30.9590 O   0  0  0  0  0  0  0  0  0  0  0  0
   -5.6500   23.6640  -30.9380 C   0  0  0  0  0  0  0  0  0  0  0  0
   -5.6090   23.0520  -32.3670 C   0  0  0  0  0  0  0  0  0  0  0  0
   -6.8450   22.2030  -32.7170 C   0  0  0  0  0  0  0  0  0  0  0  0
   -7.4500   21.6150  -31.5150 N   0  0  0  0  0  0  0  0  0  0  0  0
   -7.9470   20.2630  -31.5360 C   0  0  0  0  0  0  0  0  0  0  0  0
   -9.0960   20.0200  -31.0770 O   0  0  0  0  0  0  0  0  0  0  0  0
   -7.1300   19.1450  -32.0650 C   0  0  0  0  0  0  0  0  0  0  0  0
   -6.8020   18.0550  -31.2380 C   0  0  0  0  0  0  0  0  0  0  0  0
   -6.0190   17.0060  -31.7300 C   0  0  0  0  0  0  0  0  0  0  0  0
   -5.5480   17.0390  -33.0440 C   0  0  0  0  0  0  0  0  0  0  0  0
   -5.8560   18.1230  -33.8680 C   0  0  0  0  0  0  0  0  0  0  0  0
   -6.6380   19.1740  -33.3820 C   0  0  0  0  0  0  0  0  0  0  0  0
   -7.8420   22.4930  -30.4030 C   0  0  0  0  0  0  0  0  0  0  0  0
   -7.1020   23.8410  -30.4510 C   0  0  0  0  0  0  0  0  0  0  0  0
   -4.7860   22.8660  -29.9200 C   0  0  0  0  0  0  0  0  0  0  0  0
   -1.4810   24.4730  -28.6080 C   0  0  0  0  0  0  0  0  0  0  0  0
   -0.4140   24.2280  -27.7390 C   0  0  0  0  0  0  0  0  0  0  0  0
    0.6277   22.2312  -24.0307 H   0  0  0  0  0  0  0  0  0  0  0  0
    1.5214   23.7434  -24.4064 H   0  0  0  0  0  0  0  0  0  0  0  0
   -0.2749   23.7381  -24.4064 H   0  0  0  0  0  0  0  0  0  0  0  0
   -1.5242   21.3261  -26.3156 H   0  0  0  0  0  0  0  0  0  0  0  0
   -3.4240   21.7591  -27.8614 H   0  0  0  0  0  0  0  0  0  0  0  0
   -5.5362   23.8742  -33.0941 H   0  0  0  0  0  0  0  0  0  0  0  0
   -4.7391   22.3797  -32.4019 H   0  0  0  0  0  0  0  0  0  0  0  0
   -7.5885   22.8422  -33.2156 H   0  0  0  0  0  0  0  0  0  0  0  0
   -6.5262   21.3847  -33.3793 H   0  0  0  0  0  0  0  0  0  0  0  0
   -7.1632   18.0278  -30.1994 H   0  0  0  0  0  0  0  0  0  0  0  0
   -5.7736   16.1529  -31.0803 H   0  0  0  0  0  0  0  0  0  0  0  0
   -4.9346   16.2114  -33.4297 H   0  0  0  0  0  0  0  0  0  0  0  0
   -5.4822   18.1498  -34.9022 H   0  0  0  0  0  0  0  0  0  0  0  0
   -6.8702   20.0293  -34.0336 H   0  0  0  0  0  0  0  0  0  0  0  0
   -8.9246   22.6789  -30.4608 H   0  0  0  0  0  0  0  0  0  0  0  0
   -7.5767   21.9908  -29.4610 H   0  0  0  0  0  0  0  0  0  0  0  0
   -7.6313   24.5164  -31.1393 H   0  0  0  0  0  0  0  0  0  0  0  0
   -7.0793   24.2618  -29.4349 H   0  0  0  0  0  0  0  0  0  0  0  0
   -5.3698   22.5933  -29.0285 H   0  0  0  0  0  0  0  0  0  0  0  0
   -4.4069   21.9116  -30.3142 H   0  0  0  0  0  0  0  0  0  0  0  0
   -1.4649   25.3634  -29.2537 H   0  0  0  0  0  0  0  0  0  0  0  0
    0.4357   24.9258  -27.7056 H   0  0  0  0  0  0  0  0  0  0  0  0
  1  2  1  0
  2  3  1  0
  3  4  2  0
  4  5  1  0
  5  6  2  0
  6  7  1  0
  7  8  2  0
  8  9  1  0
  9 10  1  0
 10 11  1  0
 11 12  1  0
 12 13  1  0
 13 14  1  0
 14 15  2  0
 14 16  1  0
 16 17  2  0
 17 18  1  0
 18 19  2  0
 19 20  1  0
 20 21  2  0
 13 22  1  0
 22 23  1  0
 10 24  1  0
  6 25  1  0
 25 26  2  0
 26  3  1  0
 24  7  1  0
 23 10  1  0
 21 16  1  0
  1 27  1  0
  1 28  1  0
  1 29  1  0
  4 30  1  0
  5 31  1  0
 11 32  1  0
 11 33  1  0
 12 34  1  0
 12 35  1  0
 17 36  1  0
 18 37  1  0
 19 38  1  0
 20 39  1  0
 21 40  1  0
 22 41  1  0
 22 42  1  0
 23 43  1  0
 23 44  1  0
 24 45  1  0
 24 46  1  0
 25 47  1  0
 26 48  1  0
M  END
>  <UniqueID>  (36) 
34

>  <SMILES>  (36) 
COc1ccc(C2=NOC3(CCN(C(=O)c4ccccc4)CC3)C2)cc1

>  <Energy>  (36) 
72.70076649804234

>  <Genealogy>  (36) 
COc1ccc(C2=NOC3(CCN(C(=O)c4ccccc4)CC3)C2)cc1 (3D coordinates assigned)
COc1ccc(C2=NOC3(CCN(C(=O)c4ccccc4)CC3)C2)cc1 (nonaromatic ring conformer: 72.70076649804234 kcal/mol)

>  <smiles>  (36) 
COc1ccc(C2=NOC3(CCN(C(=O)c4ccccc4)CC3)C2)cc1

>  <score_type>  (36) 
oracle

>  <origin>  (36) 
adg

>  <m_score__min__energy>  (36) 
-9.6799999999999997

>  <m_primary>  (36) 
energy

$$$$
36:0
     RDKit          3D

 56 59  0  0  0  0  0  0  0  0999 V2000
   -0.4330   23.0810  -24.1450 C   0  0  0  0  0  0  0  0  0  0  0  0
    0.5890   23.8720  -24.9540 C   0  0  0  0  0  0  0  0  0  0  0  0
    0.2280   25.2960  -24.9840 N   0  0  0  0  0  0  0  0  0  0  0  0
    0.4330   26.1350  -23.7960 C   0  0  0  0  0  0  0  0  0  0  0  0
   -0.8690   26.8240  -23.4040 C   0  0  0  0  0  0  0  0  0  0  0  0
   -0.1680   25.9140  -26.2240 C   0  0  0  0  0  0  0  0  0  0  0  0
    0.4120   26.9690  -26.6000 O   0  0  0  0  0  0  0  0  0  0  0  0
   -1.2520   25.3460  -27.0550 C   0  0  0  0  0  0  0  0  0  0  0  0
   -2.4980   25.0440  -26.4840 C   0  0  0  0  0  0  0  0  0  0  0  0
   -3.5200   24.4950  -27.2620 C   0  0  0  0  0  0  0  0  0  0  0  0
   -3.3150   24.2280  -28.6280 C   0  0  0  0  0  0  0  0  0  0  0  0
   -4.4030   23.6480  -29.4560 C   0  0  0  0  0  0  0  0  0  0  0  0
   -5.6530   24.2830  -29.5510 C   0  0  0  0  0  0  0  0  0  0  0  0
   -6.6490   23.7490  -30.3110 N   0  0  0  0  0  0  0  0  0  0  0  0
   -6.4720   22.5850  -31.0030 C   0  0  0  0  0  0  0  0  0  0  0  0
   -7.4850   22.0150  -31.7980 C   0  0  0  0  0  0  0  0  0  0  0  0
   -9.1070   22.7680  -31.9720 S   0  0  0  0  0  0  0  0  0  0  0  0
   -9.9720   21.1680  -32.0330 C   0  0  0  0  0  0  0  0  0  0  0  0
   -7.2410   20.8530  -32.4590 N   0  0  0  0  0  0  0  0  0  0  0  0
   -6.0400   20.2170  -32.3780 C   0  0  0  0  0  0  0  0  0  0  0  0
   -5.8110   18.9500  -33.1150 C   0  0  0  0  0  0  0  0  0  0  0  0
   -4.6900   18.8010  -33.9540 C   0  0  0  0  0  0  0  0  0  0  0  0
   -4.4780   17.6050  -34.6480 C   0  0  0  0  0  0  0  0  0  0  0  0
   -5.3790   16.5480  -34.5150 C   0  0  0  0  0  0  0  0  0  0  0  0
   -6.4950   16.6810  -33.6870 C   0  0  0  0  0  0  0  0  0  0  0  0
   -6.7120   17.8740  -32.9900 C   0  0  0  0  0  0  0  0  0  0  0  0
   -5.0500   20.7560  -31.6170 N   0  0  0  0  0  0  0  0  0  0  0  0
   -5.2360   21.9150  -30.9350 C   0  0  0  0  0  0  0  0  0  0  0  0
   -4.2060   22.4490  -30.1610 C   0  0  0  0  0  0  0  0  0  0  0  0
   -2.0600   24.5140  -29.1930 C   0  0  0  0  0  0  0  0  0  0  0  0
   -1.0380   25.0630  -28.4140 C   0  0  0  0  0  0  0  0  0  0  0  0
   -0.2436   23.2276  -23.0714 H   0  0  0  0  0  0  0  0  0  0  0  0
   -1.4461   23.4326  -24.3900 H   0  0  0  0  0  0  0  0  0  0  0  0
   -0.3466   22.0121  -24.3900 H   0  0  0  0  0  0  0  0  0  0  0  0
    1.5815   23.7594  -24.4932 H   0  0  0  0  0  0  0  0  0  0  0  0
    0.6042   23.4862  -25.9840 H   0  0  0  0  0  0  0  0  0  0  0  0
    0.7758   25.5053  -22.9618 H   0  0  0  0  0  0  0  0  0  0  0  0
    1.1884   26.9011  -24.0249 H   0  0  0  0  0  0  0  0  0  0  0  0
   -0.9465   26.8650  -22.3075 H   0  0  0  0  0  0  0  0  0  0  0  0
   -0.8800   27.8460  -23.8108 H   0  0  0  0  0  0  0  0  0  0  0  0
   -1.7201   26.2583  -23.8108 H   0  0  0  0  0  0  0  0  0  0  0  0
   -2.6711   25.2411  -25.4157 H   0  0  0  0  0  0  0  0  0  0  0  0
   -4.4937   24.2694  -26.8026 H   0  0  0  0  0  0  0  0  0  0  0  0
   -5.8290   25.2218  -29.0054 H   0  0  0  0  0  0  0  0  0  0  0  0
   -7.5560   24.2660  -30.3490 H   0  0  0  0  0  0  0  0  0  0  0  0
  -10.1628   20.8151  -31.0088 H   0  0  0  0  0  0  0  0  0  0  0  0
  -10.9281   21.2881  -32.5635 H   0  0  0  0  0  0  0  0  0  0  0  0
   -9.3479   20.4338  -32.5635 H   0  0  0  0  0  0  0  0  0  0  0  0
   -3.9762   19.6306  -34.0645 H   0  0  0  0  0  0  0  0  0  0  0  0
   -3.5987   17.4976  -35.3002 H   0  0  0  0  0  0  0  0  0  0  0  0
   -5.2098   15.6093  -35.0629 H   0  0  0  0  0  0  0  0  0  0  0  0
   -7.2044   15.8468  -33.5826 H   0  0  0  0  0  0  0  0  0  0  0  0
   -7.5931   17.9730  -32.3390 H   0  0  0  0  0  0  0  0  0  0  0  0
   -3.2377   21.9304  -30.1025 H   0  0  0  0  0  0  0  0  0  0  0  0
   -1.8808   24.3038  -30.2578 H   0  0  0  0  0  0  0  0  0  0  0  0
   -0.0589   25.2750  -28.8684 H   0  0  0  0  0  0  0  0  0  0  0  0
  1  2  1  0
  2  3  1  0
  3  4  1  0
  4  5  1  0
  3  6  1  0
  6  7  2  0
  6  8  1  0
  8  9  2  0
  9 10  1  0
 10 11  2  0
 11 12  1  0
 12 13  2  0
 13 14  1  0
 14 15  2  0
 15 16  1  0
 16 17  1  0
 17 18  1  0
 16 19  2  0
 19 20  1  0
 20 21  1  0
 21 22  2  0
 22 23  1  0
 23 24  2  0
 24 25  1  0
 25 26  2  0
 20 27  2  0
 27 28  1  0
 28 29  2  0
 11 30  1  0
 30 31  2  0
 31  8  1  0
 29 12  1  0
 28 15  1  0
 26 21  1  0
  1 32  1  0
  1 33  1  0
  1 34  1  0
  2 35  1  0
  2 36  1  0
  4 37  1  0
  4 38  1  0
  5 39  1  0
  5 40  1  0
  5 41  1  0
  9 42  1  0
 10 43  1  0
 13 44  1  0
 14 45  1  0
 18 46  1  0
 18 47  1  0
 18 48  1  0
 22 49  1  0
 23 50  1  0
 24 51  1  0
 25 52  1  0
 26 53  1  0
 29 54  1  0
 30 55  1  0
 31 56  1  0
M  CHG  1  14   1
M  END
>  <UniqueID>  (37) 
35

>  <SMILES>  (37) 
CCN(CC)C(=O)c1ccc(-c2c[nH+]c3c(SC)nc(-c4ccccc4)nc3c2)cc1

>  <Energy>  (37) 
65.41791499565771

>  <Genealogy>  (37) 
CCN(CC)C(=O)c1ccc(-c2c[nH+]c3c(SC)nc(-c4ccccc4)nc3c2)cc1 (protonated)
CCN(CC)C(=O)c1ccc(-c2c[nH+]c3c(SC)nc(-c4ccccc4)nc3c2)cc1 (3D coordinates assigned)
CCN(CC)C(=O)c1ccc(-c2c[nH+]c3c(SC)nc(-c4ccccc4)nc3c2)cc1 (optimized conformer: 65.41791499565771 kcal/mol)

>  <smiles>  (37) 
CCN(CC)C(=O)c1ccc(-c2cnc3c(SC)nc(-c4ccccc4)nc3c2)cc1

>  <score_type>  (37) 
oracle

>  <origin>  (37) 
adg

>  <m_score__min__energy>  (37) 
-8.3000000000000007

>  <m_primary>  (37) 
energy

$$$$
37:0
     RDKit          3D

 23 24  0  0  0  0  0  0  0  0999 V2000
   -3.4000   24.1300  -27.7160 C   0  0  0  0  0  0  0  0  0  0  0  0
   -2.5490   24.6370  -28.8700 C   0  0  0  0  0  0  0  0  0  0  0  0
   -3.3840   24.9310  -29.9860 O   0  0  0  0  0  0  0  0  0  0  0  0
   -4.2260   23.9820  -30.5700 C   0  0  0  0  0  0  0  0  0  0  0  0
   -5.4920   23.7950  -30.1070 N   0  0  0  0  0  0  0  0  0  0  0  0
   -6.3060   22.8740  -30.6780 C   0  0  0  0  0  0  0  0  0  0  0  0
   -7.6060   22.6860  -30.1970 C   0  0  0  0  0  0  0  0  0  0  0  0
   -8.4400   21.7320  -30.7900 C   0  0  0  0  0  0  0  0  0  0  0  0
   -7.9780   20.9640  -31.8640 C   0  0  0  0  0  0  0  0  0  0  0  0
   -9.1230   19.6640  -32.6690 Br  0  0  0  0  0  0  0  0  0  0  0  0
   -6.6780   21.1470  -32.3500 C   0  0  0  0  0  0  0  0  0  0  0  0
   -5.8350   22.1030  -31.7580 C   0  0  0  0  0  0  0  0  0  0  0  0
   -4.5220   22.3380  -32.1940 C   0  0  0  0  0  0  0  0  0  0  0  0
   -4.0350   21.6860  -33.1560 O   0  0  0  0  0  0  0  0  0  0  0  0
   -3.7760   23.2580  -31.5910 O   0  0  0  0  0  0  0  0  0  0  0  0
   -2.9291   24.4105  -26.7623 H   0  0  0  0  0  0  0  0  0  0  0  0
   -4.4029   24.5780  -27.7755 H   0  0  0  0  0  0  0  0  0  0  0  0
   -3.4835   23.0348  -27.7755 H   0  0  0  0  0  0  0  0  0  0  0  0
   -2.0176   25.5489  -28.5600 H   0  0  0  0  0  0  0  0  0  0  0  0
   -1.8194   23.8640  -29.1531 H   0  0  0  0  0  0  0  0  0  0  0  0
   -7.9725   23.2882  -29.3526 H   0  0  0  0  0  0  0  0  0  0  0  0
   -9.4620   21.5854  -30.4106 H   0  0  0  0  0  0  0  0  0  0  0  0
   -6.3164   20.5427  -33.1950 H   0  0  0  0  0  0  0  0  0  0  0  0
  1  2  1  0
  2  3  1  0
  3  4  1  0
  4  5  2  0
  5  6  1  0
  6  7  2  0
  7  8  1  0
  8  9  2  0
  9 10  1  0
  9 11  1  0
 11 12  2  0
 12 13  1  0
 13 14  2  0
 13 15  1  0
 15  4  1  0
 12  6  1  0
  1 16  1  0
  1 17  1  0
  1 18  1  0
  2 19  1  0
  2 20  1  0
  7 21  1  0
  8 22  1  0
 11 23  1  0
M  END
>  <UniqueID>  (38) 
36

>  <SMILES>  (38) 
CCOc1nc2ccc(Br)cc2c(=O)o1

>  <Energy>  (38) 
23.67536287783019

>  <Genealogy>  (38) 
CCOc1nc2ccc(Br)cc2c(=O)o1 (3D coordinates assigned)
CCOc1nc2ccc(Br)cc2c(=O)o1 (optimized conformer: 23.67536287783019 kcal/mol)

>  <smiles>  (38) 
CCOc1nc2ccc(Br)cc2c(=O)o1

>  <score_type>  (38) 
oracle

>  <origin>  (38) 
adg

>  <m_score__min__energy>  (38) 
-6.4500000000000002

>  <m_primary>  (38) 
energy

$$$$
38:0
     RDKit          3D

 44 46  0  0  0  0  0  0  0  0999 V2000
   -8.8100   18.2150  -31.5930 C   0  0  0  0  0  0  0  0  0  0  0  0
   -9.3230   19.3230  -32.5080 C   0  0  0  0  0  0  0  0  0  0  0  0
   -8.3790   20.4660  -32.5070 N   0  0  0  0  0  0  0  0  0  0  0  0
   -6.9760   20.0000  -32.4100 C   0  0  0  0  0  0  0  0  0  0  0  0
   -6.4080   19.6540  -33.7870 C   0  0  0  0  0  0  0  0  0  0  0  0
   -8.6950   21.4080  -31.4050 C   0  0  0  0  0  0  0  0  0  0  0  0
   -8.9550   22.8200  -31.9440 C   0  0  0  0  0  0  0  0  0  0  0  0
   -7.7650   23.3700  -32.5120 O   0  0  0  0  0  0  0  0  0  0  0  0
   -6.5640   23.6030  -31.8240 C   0  0  0  0  0  0  0  0  0  0  0  0
   -5.4430   22.8420  -32.1720 C   0  0  0  0  0  0  0  0  0  0  0  0
   -4.2310   23.0110  -31.4970 C   0  0  0  0  0  0  0  0  0  0  0  0
   -4.1170   23.9590  -30.4660 C   0  0  0  0  0  0  0  0  0  0  0  0
   -2.8370   24.1330  -29.7430 C   0  0  0  0  0  0  0  0  0  0  0  0
   -1.9010   23.1460  -29.6530 N   0  0  0  0  0  0  0  0  0  0  0  0
   -0.9400   23.7380  -28.9310 C   0  0  0  0  0  0  0  0  0  0  0  0
    0.2400   23.1930  -28.5450 N   0  0  0  0  0  0  0  0  0  0  0  0
    1.0950   23.9650  -27.8070 C   0  0  0  0  0  0  0  0  0  0  0  0
    0.7570   25.2530  -27.4750 N   0  0  0  0  0  0  0  0  0  0  0  0
   -0.4330   25.7980  -27.8670 C   0  0  0  0  0  0  0  0  0  0  0  0
   -1.2880   25.0020  -28.6140 C   0  0  0  0  0  0  0  0  0  0  0  0
   -2.4950   25.2930  -29.1150 N   0  0  0  0  0  0  0  0  0  0  0  0
   -5.2360   24.7420  -30.1360 C   0  0  0  0  0  0  0  0  0  0  0  0
   -6.4470   24.5720  -30.8130 C   0  0  0  0  0  0  0  0  0  0  0  0
   -8.9480   18.5131  -30.5432 H   0  0  0  0  0  0  0  0  0  0  0  0
   -9.3711   17.2892  -31.7881 H   0  0  0  0  0  0  0  0  0  0  0  0
   -7.7410   18.0439  -31.7881 H   0  0  0  0  0  0  0  0  0  0  0  0
   -9.4201   18.9328  -33.5319 H   0  0  0  0  0  0  0  0  0  0  0  0
  -10.3021   19.6659  -32.1423 H   0  0  0  0  0  0  0  0  0  0  0  0
   -6.3645   20.7960  -31.9600 H   0  0  0  0  0  0  0  0  0  0  0  0
   -6.9540   19.0931  -31.7879 H   0  0  0  0  0  0  0  0  0  0  0  0
   -5.4743   19.0852  -33.6661 H   0  0  0  0  0  0  0  0  0  0  0  0
   -7.1378   19.0469  -34.3427 H   0  0  0  0  0  0  0  0  0  0  0  0
   -6.2033   20.5810  -34.3427 H   0  0  0  0  0  0  0  0  0  0  0  0
   -9.5923   21.0543  -30.8761 H   0  0  0  0  0  0  0  0  0  0  0  0
   -7.8342   21.4477  -30.7213 H   0  0  0  0  0  0  0  0  0  0  0  0
   -9.7361   22.7734  -32.7171 H   0  0  0  0  0  0  0  0  0  0  0  0
   -9.2797   23.4622  -31.1121 H   0  0  0  0  0  0  0  0  0  0  0  0
   -5.5161   22.1039  -32.9843 H   0  0  0  0  0  0  0  0  0  0  0  0
   -3.3608   22.3981  -31.7745 H   0  0  0  0  0  0  0  0  0  0  0  0
    0.4900   22.2130  -28.8020 H   0  0  0  0  0  0  0  0  0  0  0  0
    2.0594   23.5508  -27.4777 H   0  0  0  0  0  0  0  0  0  0  0  0
   -0.7029   26.8304  -27.5998 H   0  0  0  0  0  0  0  0  0  0  0  0
   -5.1584   25.4952  -29.3381 H   0  0  0  0  0  0  0  0  0  0  0  0
   -7.3123   25.1995  -30.5532 H   0  0  0  0  0  0  0  0  0  0  0  0
  1  2  1  0
  2  3  1  0
  3  4  1  0
  4  5  1  0
  3  6  1  0
  6  7  1  0
  7  8  1  0
  8  9  1  0
  9 10  2  0
 10 11  1  0
 11 12  2  0
 12 13  1  0
 13 14  2  0
 14 15  1  0
 15 16  2  0
 16 17  1  0
 17 18  2  0
 18 19  1  0
 19 20  2  0
 20 21  1  0
 12 22  1  0
 22 23  2  0
 23  9  1  0
 21 13  1  0
 20 15  1  0
  1 24  1  0
  1 25  1  0
  1 26  1  0
  2 27  1  0
  2 28  1  0
  4 29  1  0
  4 30  1  0
  5 31  1  0
  5 32  1  0
  5 33  1  0
  6 34  1  0
  6 35  1  0
  7 36  1  0
  7 37  1  0
 10 38  1  0
 11 39  1  0
 16 40  1  0
 17 41  1  0
 19 42  1  0
 22 43  1  0
 23 44  1  0
M  CHG  2  16   1  21  -1
M  END
>  <UniqueID>  (39) 
37

>  <SMILES>  (39) 
CCN(CC)CCOc1ccc(-c2nc3[nH+]cncc3[n-]2)cc1

>  <Energy>  (39) 
81.25552915612796

>  <Genealogy>  (39) 
CCN(CC)CCOc1ccc(-c2nc3[nH+]cncc3[n-]2)cc1 (protonated)
CCN(CC)CCOc1ccc(-c2nc3[nH+]cncc3[n-]2)cc1 (3D coordinates assigned)
CCN(CC)CCOc1ccc(-c2nc3[nH+]cncc3[n-]2)cc1 (optimized conformer: 81.25552915612796 kcal/mol)

>  <smiles>  (39) 
CCN(CC)CCOc1ccc(-c2nc3ncncc3[nH]2)cc1

>  <score_type>  (39) 
oracle

>  <origin>  (39) 
adg

>  <m_score__min__energy>  (39) 
-7.6399999999999997

>  <m_primary>  (39) 
energy

$$$$
39:0
     RDKit          3D

 47 49  0  0  0  0  0  0  0  0999 V2000
    1.7070   27.3700  -23.7640 C   0  0  0  0  0  0  0  0  0  0  0  0
    1.2630   26.0890  -24.4760 C   0  0  0  0  0  0  0  0  0  0  0  0
   -0.0210   25.5600  -23.9550 N   0  0  1  0  0  0  0  0  0  0  0  0
   -0.8570   26.6610  -23.4360 C   0  0  0  0  0  0  0  0  0  0  0  0
   -0.7680   24.6760  -24.8970 C   0  0  0  0  0  0  0  0  0  0  0  0
   -0.4930   24.8780  -26.4070 C   0  0  0  0  0  0  0  0  0  0  0  0
   -1.5180   24.2470  -27.3030 C   0  0  0  0  0  0  0  0  0  0  0  0
   -2.3510   24.9130  -28.1970 C   0  0  0  0  0  0  0  0  0  0  0  0
   -3.1770   24.0350  -28.8050 N   0  0  0  0  0  0  0  0  0  0  0  0
   -4.4330   24.4430  -29.9320 S   0  0  0  0  0  0  0  0  0  0  0  0
   -5.6340   24.9330  -29.1710 O   0  0  0  0  0  0  0  0  0  0  0  0
   -3.9480   25.5410  -30.8370 O   0  0  0  0  0  0  0  0  0  0  0  0
   -4.9000   23.0400  -30.8900 C   0  0  0  0  0  0  0  0  0  0  0  0
   -6.2070   22.5300  -30.8360 C   0  0  0  0  0  0  0  0  0  0  0  0
   -6.5590   21.4170  -31.6060 C   0  0  0  0  0  0  0  0  0  0  0  0
   -5.6120   20.8120  -32.4400 C   0  0  0  0  0  0  0  0  0  0  0  0
   -6.0990   19.3000  -33.5000 Br  0  0  0  0  0  0  0  0  0  0  0  0
   -4.3110   21.3230  -32.5030 C   0  0  0  0  0  0  0  0  0  0  0  0
   -3.9540   22.4310  -31.7280 C   0  0  0  0  0  0  0  0  0  0  0  0
   -2.8720   22.8150  -28.3190 C   0  0  0  0  0  0  0  0  0  0  0  0
   -3.4740   21.5910  -28.6200 C   0  0  0  0  0  0  0  0  0  0  0  0
   -2.9950   20.4420  -27.9640 C   0  0  0  0  0  0  0  0  0  0  0  0
   -1.9390   20.5380  -27.0340 C   0  0  0  0  0  0  0  0  0  0  0  0
   -1.3550   21.7830  -26.7420 C   0  0  0  0  0  0  0  0  0  0  0  0
   -1.8540   22.9070  -27.4000 C   0  0  0  0  0  0  0  0  0  0  0  0
    1.6554   27.2211  -22.6753 H   0  0  0  0  0  0  0  0  0  0  0  0
    2.7409   27.6104  -24.0526 H   0  0  0  0  0  0  0  0  0  0  0  0
    1.0437   28.1987  -24.0526 H   0  0  0  0  0  0  0  0  0  0  0  0
    1.1454   26.3050  -25.5482 H   0  0  0  0  0  0  0  0  0  0  0  0
    2.0340   25.3252  -24.2970 H   0  0  0  0  0  0  0  0  0  0  0  0
    0.2080   24.9660  -23.1210 H   0  0  0  0  0  0  0  0  0  0  0  0
   -0.8442   26.6441  -22.3362 H   0  0  0  0  0  0  0  0  0  0  0  0
   -0.4595   27.6227  -23.7926 H   0  0  0  0  0  0  0  0  0  0  0  0
   -1.8901   26.5364  -23.7926 H   0  0  0  0  0  0  0  0  0  0  0  0
   -0.5147   23.6348  -24.6486 H   0  0  0  0  0  0  0  0  0  0  0  0
   -1.8277   24.9369  -24.7590 H   0  0  0  0  0  0  0  0  0  0  0  0
   -0.4711   25.9583  -26.6133 H   0  0  0  0  0  0  0  0  0  0  0  0
    0.4665   24.3861  -26.6247 H   0  0  0  0  0  0  0  0  0  0  0  0
   -2.3383   25.9973  -28.3815 H   0  0  0  0  0  0  0  0  0  0  0  0
   -6.9558   23.0070  -30.1865 H   0  0  0  0  0  0  0  0  0  0  0  0
   -7.5822   21.0163  -31.5560 H   0  0  0  0  0  0  0  0  0  0  0  0
   -3.5677   20.8524  -33.1633 H   0  0  0  0  0  0  0  0  0  0  0  0
   -2.9285   22.8261  -31.7756 H   0  0  0  0  0  0  0  0  0  0  0  0
   -4.2969   21.5273  -29.3472 H   0  0  0  0  0  0  0  0  0  0  0  0
   -3.4472   19.4623  -28.1779 H   0  0  0  0  0  0  0  0  0  0  0  0
   -1.5693   19.6312  -26.5330 H   0  0  0  0  0  0  0  0  0  0  0  0
   -0.5312   21.8679  -26.0180 H   0  0  0  0  0  0  0  0  0  0  0  0
  1  2  1  0
  2  3  1  0
  3  4  1  0
  3  5  1  0
  5  6  1  0
  6  7  1  0
  7  8  2  0
  8  9  1  0
  9 10  1  0
 10 11  2  0
 10 12  2  0
 10 13  1  0
 13 14  2  0
 14 15  1  0
 15 16  2  0
 16 17  1  0
 16 18  1  0
 18 19  2  0
  9 20  1  0
 20 21  2  0
 21 22  1  0
 22 23  2  0
 23 24  1  0
 24 25  2  0
 25  7  1  0
 19 13  1  0
 25 20  1  0
  1 26  1  0
  1 27  1  0
  1 28  1  0
  2 29  1  0
  2 30  1  0
  3 31  1  1
  4 32  1  0
  4 33  1  0
  4 34  1  0
  5 35  1  0
  5 36  1  0
  6 37  1  0
  6 38  1  0
  8 39  1  0
 14 40  1  0
 15 41  1  0
 18 42  1  0
 19 43  1  0
 21 44  1  0
 22 45  1  0
 23 46  1  0
 24 47  1  0
M  CHG  1   3   1
M  END
>  <UniqueID>  (40) 
38

>  <SMILES>  (40) 
CC[N@@H+](C)CCc1cn(S(=O)(=O)c2ccc(Br)cc2)c2ccccc12

>  <Energy>  (40) 
86.0820880683517

>  <Genealogy>  (40) 
CC[NH+](C)CCc1cn(S(=O)(=O)c2ccc(Br)cc2)c2ccccc12 (protonated)
CC[N@@H+](C)CCc1cn(S(=O)(=O)c2ccc(Br)cc2)c2ccccc12 (chirality)
CC[N@@H+](C)CCc1cn(S(=O)(=O)c2ccc(Br)cc2)c2ccccc12 (3D coordinates assigned)
CC[N@@H+](C)CCc1cn(S(=O)(=O)c2ccc(Br)cc2)c2ccccc12 (optimized conformer: 86.0820880683517 kcal/mol)

>  <smiles>  (40) 
CCN(C)CCc1cn(S(=O)(=O)c2ccc(Br)cc2)c2ccccc12

>  <score_type>  (40) 
oracle

>  <origin>  (40) 
adg

>  <m_score__min__energy>  (40) 
-8.6600000000000001

>  <m_primary>  (40) 
energy

$$$$
40:0
     RDKit          3D

 53 56  0  0  0  0  0  0  0  0999 V2000
   -4.1030   23.9520  -27.0870 C   0  0  0  0  0  0  0  0  0  0  0  0
   -3.7980   22.9570  -28.1410 N   0  0  2  0  0  0  0  0  0  0  0  0
   -3.5030   21.6440  -27.4910 C   0  0  0  0  0  0  0  0  0  0  0  0
   -2.5360   20.7740  -28.3040 C   0  0  0  0  0  0  0  0  0  0  0  0
   -1.1830   21.4840  -28.4800 C   0  0  0  0  0  0  0  0  0  0  0  0
   -1.3260   23.0140  -28.6050 C   0  0  0  0  0  0  0  0  0  0  0  0
   -2.7320   23.3990  -29.1040 C   0  0  2  0  0  0  0  0  0  0  0  0
   -2.7920   24.8920  -29.4910 C   0  0  0  0  0  0  0  0  0  0  0  0
   -3.8520   25.1170  -30.4680 N   0  0  0  0  0  0  0  0  0  0  0  0
   -4.9770   24.2500  -30.6460 C   0  0  0  0  0  0  0  0  0  0  0  0
   -5.6560   23.9270  -29.6350 O   0  0  0  0  0  0  0  0  0  0  0  0
   -5.3740   23.7690  -32.0200 C   0  0  0  0  0  0  0  0  0  0  0  0
   -5.8070   22.3250  -32.0190 C   0  0  0  0  0  0  0  0  0  0  0  0
   -5.0470   21.1910  -32.3330 C   0  0  0  0  0  0  0  0  0  0  0  0
   -3.5930   21.1310  -32.5740 C   0  0  0  0  0  0  0  0  0  0  0  0
   -3.1110   20.5130  -33.7370 C   0  0  0  0  0  0  0  0  0  0  0  0
   -1.7350   20.4330  -33.9770 C   0  0  0  0  0  0  0  0  0  0  0  0
   -0.8320   20.9590  -33.0470 C   0  0  0  0  0  0  0  0  0  0  0  0
   -1.3030   21.5500  -31.8720 C   0  0  0  0  0  0  0  0  0  0  0  0
   -2.6790   21.6300  -31.6300 C   0  0  0  0  0  0  0  0  0  0  0  0
   -5.8280   20.1300  -32.4320 O   0  0  0  0  0  0  0  0  0  0  0  0
   -7.0590   20.5160  -32.2040 C   0  0  0  0  0  0  0  0  0  0  0  0
   -8.2100   19.7320  -32.2210 C   0  0  0  0  0  0  0  0  0  0  0  0
   -9.4430   20.3670  -31.9830 C   0  0  0  0  0  0  0  0  0  0  0  0
   -9.4950   21.7580  -31.7430 C   0  0  0  0  0  0  0  0  0  0  0  0
   -8.3150   22.5240  -31.7310 C   0  0  0  0  0  0  0  0  0  0  0  0
   -7.1060   21.8620  -31.9540 C   0  0  0  0  0  0  0  0  0  0  0  0
   -3.9622   23.4927  -26.0974 H   0  0  0  0  0  0  0  0  0  0  0  0
   -3.4279   24.8143  -27.1904 H   0  0  0  0  0  0  0  0  0  0  0  0
   -5.1454   24.2879  -27.1904 H   0  0  0  0  0  0  0  0  0  0  0  0
   -4.6790   22.8340  -28.6970 H   0  0  0  0  0  0  0  0  0  0  0  0
   -3.0569   21.8345  -26.5037 H   0  0  0  0  0  0  0  0  0  0  0  0
   -4.4531   21.0950  -27.4146 H   0  0  0  0  0  0  0  0  0  0  0  0
   -2.3780   19.8211  -27.7777 H   0  0  0  0  0  0  0  0  0  0  0  0
   -2.9726   20.5934  -29.2974 H   0  0  0  0  0  0  0  0  0  0  0  0
   -0.5517   21.2596  -27.6076 H   0  0  0  0  0  0  0  0  0  0  0  0
   -0.7329   21.1149  -29.4134 H   0  0  0  0  0  0  0  0  0  0  0  0
   -1.1560   23.4727  -27.6198 H   0  0  0  0  0  0  0  0  0  0  0  0
   -0.5848   23.3767  -29.3324 H   0  0  0  0  0  0  0  0  0  0  0  0
   -2.9458   22.8486  -30.0321 H   0  0  0  0  0  0  0  0  0  0  0  0
   -2.9932   25.4927  -28.5917 H   0  0  0  0  0  0  0  0  0  0  0  0
   -1.8286   25.1875  -29.9321 H   0  0  0  0  0  0  0  0  0  0  0  0
   -6.2075   24.3877  -32.3840 H   0  0  0  0  0  0  0  0  0  0  0  0
   -4.4935   23.8553  -32.6736 H   0  0  0  0  0  0  0  0  0  0  0  0
   -3.8187   20.0888  -34.4645 H   0  0  0  0  0  0  0  0  0  0  0  0
   -1.3634   19.9568  -34.8963 H   0  0  0  0  0  0  0  0  0  0  0  0
    0.2495   20.9072  -33.2410 H   0  0  0  0  0  0  0  0  0  0  0  0
   -0.5914   21.9529  -31.1362 H   0  0  0  0  0  0  0  0  0  0  0  0
   -3.0464   22.0848  -30.6982 H   0  0  0  0  0  0  0  0  0  0  0  0
   -8.1569   18.6504  -32.4144 H   0  0  0  0  0  0  0  0  0  0  0  0
  -10.3714   19.7770  -31.9839 H   0  0  0  0  0  0  0  0  0  0  0  0
  -10.4647   22.2456  -31.5643 H   0  0  0  0  0  0  0  0  0  0  0  0
   -8.3439   23.6089  -31.5518 H   0  0  0  0  0  0  0  0  0  0  0  0
  1  2  1  0
  2  3  1  0
  3  4  1  0
  4  5  1  0
  5  6  1  0
  6  7  1  0
  7  8  1  0
  8  9  1  0
  9 10  1  0
 10 11  2  0
 10 12  1  0
 12 13  1  0
 13 14  2  0
 14 15  1  0
 15 16  2  0
 16 17  1  0
 17 18  2  0
 18 19  1  0
 19 20  2  0
 14 21  1  0
 21 22  1  0
 22 23  2  0
 23 24  1  0
 24 25  2  0
 25 26  1  0
 26 27  2  0
  7  2  1  0
 27 13  1  0
 20 15  1  0
 27 22  1  0
  1 28  1  0
  1 29  1  0
  1 30  1  0
  2 31  1  6
  3 32  1  0
  3 33  1  0
  4 34  1  0
  4 35  1  0
  5 36  1  0
  5 37  1  0
  6 38  1  0
  6 39  1  0
  7 40  1  6
  8 41  1  0
  8 42  1  0
 12 43  1  0
 12 44  1  0
 16 45  1  0
 17 46  1  0
 18 47  1  0
 19 48  1  0
 20 49  1  0
 23 50  1  0
 24 51  1  0
 25 52  1  0
 26 53  1  0
M  CHG  2   2   1   9  -1
M  END
>  <UniqueID>  (41) 
39

>  <SMILES>  (41) 
C[N@@H+]1CCCC[C@@H]1C[N-]C(=O)Cc1c(-c2ccccc2)oc2ccccc12

>  <Energy>  (41) 
103.40874134842367

>  <Genealogy>  (41) 
C[NH+]1CCCCC1C[N-]C(=O)Cc1c(-c2ccccc2)oc2ccccc12 (protonated)
C[N@@H+]1CCCC[C@@H]1C[N-]C(=O)Cc1c(-c2ccccc2)oc2ccccc12 (chirality)
C[N@@H+]1CCCC[C@@H]1C[N-]C(=O)Cc1c(-c2ccccc2)oc2ccccc12 (3D coordinates assigned)
C[N@@H+]1CCCC[C@@H]1C[N-]C(=O)Cc1c(-c2ccccc2)oc2ccccc12 (nonaromatic ring conformer: 103.40874134842367 kcal/mol)

>  <smiles>  (41) 
CN1CCCCC1CNC(=O)Cc1c(-c2ccccc2)oc2ccccc12

>  <score_type>  (41) 
oracle

>  <origin>  (41) 
adg

>  <m_score__min__energy>  (41) 
-10.42

>  <m_primary>  (41) 
energy

$$$$
41:0
     RDKit          3D

 55 58  0  0  0  0  0  0  0  0999 V2000
   -9.5130   21.5430  -30.5580 C   0  0  0  0  0  0  0  0  0  0  0  0
   -8.6300   20.6720  -31.4010 C   0  0  0  0  0  0  0  0  0  0  0  0
   -8.7390   19.2760  -31.3380 C   0  0  0  0  0  0  0  0  0  0  0  0
   -7.9460   18.4680  -32.1570 C   0  0  0  0  0  0  0  0  0  0  0  0
   -7.0550   19.0450  -33.0740 C   0  0  0  0  0  0  0  0  0  0  0  0
   -6.0320   18.0250  -34.0970 S   0  0  0  0  0  0  0  0  0  0  0  0
   -6.6460   16.6520  -34.1260 O   0  0  0  0  0  0  0  0  0  0  0  0
   -6.0510   18.5560  -35.5040 O   0  0  0  0  0  0  0  0  0  0  0  0
   -4.3680   17.8840  -33.5510 N   0  0  1  0  0  0  0  0  0  0  0  0
   -3.9980   18.8300  -32.4630 C   0  0  0  0  0  0  0  0  0  0  0  0
   -3.7180   20.2880  -32.9070 C   0  0  0  0  0  0  0  0  0  0  0  0
   -2.7940   20.9760  -31.9880 N   0  0  0  0  0  0  0  0  0  0  0  0
   -1.5610   20.5240  -31.6320 C   0  0  0  0  0  0  0  0  0  0  0  0
   -0.9220   21.3150  -30.7360 N   0  0  0  0  0  0  0  0  0  0  0  0
   -1.7940   22.3180  -30.5520 C   0  0  0  0  0  0  0  0  0  0  0  0
   -1.6620   23.4150  -29.7220 C   0  0  0  0  0  0  0  0  0  0  0  0
   -0.6430   23.5740  -29.0000 O   0  0  0  0  0  0  0  0  0  0  0  0
   -2.6730   24.3210  -29.7000 N   0  0  0  0  0  0  0  0  0  0  0  0
   -3.7790   24.1830  -30.4940 C   0  0  0  0  0  0  0  0  0  0  0  0
   -4.6820   25.0610  -30.4260 O   0  0  0  0  0  0  0  0  0  0  0  0
   -3.9010   23.1090  -31.3570 N   0  0  0  0  0  0  0  0  0  0  0  0
   -5.0270   23.0530  -32.2970 C   0  0  0  0  0  0  0  0  0  0  0  0
   -2.9090   22.1540  -31.3180 C   0  0  0  0  0  0  0  0  0  0  0  0
   -3.9340   16.4610  -33.3850 C   0  0  0  0  0  0  0  0  0  0  0  0
   -4.0250   15.5590  -34.6190 C   0  0  0  0  0  0  0  0  0  0  0  0
   -3.9690   14.1490  -34.0550 C   0  0  0  0  0  0  0  0  0  0  0  0
   -4.6060   14.2260  -32.6680 C   0  0  0  0  0  0  0  0  0  0  0  0
   -4.7420   15.7090  -32.3220 C   0  0  0  0  0  0  0  0  0  0  0  0
   -6.9270   20.4410  -33.1160 C   0  0  0  0  0  0  0  0  0  0  0  0
   -7.7230   21.2510  -32.3000 C   0  0  0  0  0  0  0  0  0  0  0  0
   -9.3139   21.3466  -29.4942 H   0  0  0  0  0  0  0  0  0  0  0  0
   -9.3057   22.6001  -30.7807 H   0  0  0  0  0  0  0  0  0  0  0  0
  -10.5671   21.3212  -30.7807 H   0  0  0  0  0  0  0  0  0  0  0  0
   -9.4527   18.8140  -30.6400 H   0  0  0  0  0  0  0  0  0  0  0  0
   -8.0209   17.3731  -32.0822 H   0  0  0  0  0  0  0  0  0  0  0  0
   -3.8370   18.2330  -34.3840 H   0  0  0  0  0  0  0  0  0  0  0  0
   -4.8244   18.8504  -31.7373 H   0  0  0  0  0  0  0  0  0  0  0  0
   -3.0502   18.4552  -32.0491 H   0  0  0  0  0  0  0  0  0  0  0  0
   -3.2736   20.2739  -33.9131 H   0  0  0  0  0  0  0  0  0  0  0  0
   -4.6726   20.8345  -32.9019 H   0  0  0  0  0  0  0  0  0  0  0  0
   -1.1222   19.5995  -32.0353 H   0  0  0  0  0  0  0  0  0  0  0  0
   -5.9716   23.0060  -31.7353 H   0  0  0  0  0  0  0  0  0  0  0  0
   -5.0212   23.9525  -32.9301 H   0  0  0  0  0  0  0  0  0  0  0  0
   -4.9320   22.1585  -32.9301 H   0  0  0  0  0  0  0  0  0  0  0  0
   -2.8787   16.6165  -33.1164 H   0  0  0  0  0  0  0  0  0  0  0  0
   -4.9701   15.7270  -35.1562 H   0  0  0  0  0  0  0  0  0  0  0  0
   -3.2215   15.7549  -35.3443 H   0  0  0  0  0  0  0  0  0  0  0  0
   -4.5338   13.4574  -34.6974 H   0  0  0  0  0  0  0  0  0  0  0  0
   -2.9356   13.7755  -34.0042 H   0  0  0  0  0  0  0  0  0  0  0  0
   -5.5967   13.7482  -32.6800 H   0  0  0  0  0  0  0  0  0  0  0  0
   -3.9889   13.7033  -31.9224 H   0  0  0  0  0  0  0  0  0  0  0  0
   -5.7980   16.0150  -32.3559 H   0  0  0  0  0  0  0  0  0  0  0  0
   -4.3751   15.9235  -31.3074 H   0  0  0  0  0  0  0  0  0  0  0  0
   -6.1952   20.9021  -33.7957 H   0  0  0  0  0  0  0  0  0  0  0  0
   -7.6373   22.3458  -32.3636 H   0  0  0  0  0  0  0  0  0  0  0  0
  1  2  1  0
  2  3  2  0
  3  4  1  0
  4  5  2  0
  5  6  1  0
  6  7  2  0
  6  8  2  0
  6  9  1  0
  9 10  1  0
 10 11  1  0
 11 12  1  0
 12 13  1  0
 13 14  2  0
 14 15  1  0
 15 16  1  0
 16 17  2  0
 16 18  1  0
 18 19  1  0
 19 20  2  0
 19 21  1  0
 21 22  1  0
 21 23  1  0
  9 24  1  0
 24 25  1  0
 25 26  1  0
 26 27  1  0
 27 28  1  0
  5 29  1  0
 29 30  2  0
 30  2  1  0
 23 12  1  0
 28 24  1  0
 23 15  2  0
  1 31  1  0
  1 32  1  0
  1 33  1  0
  3 34  1  0
  4 35  1  0
  9 36  1  6
 10 37  1  0
 10 38  1  0
 11 39  1  0
 11 40  1  0
 13 41  1  0
 22 42  1  0
 22 43  1  0
 22 44  1  0
 24 45  1  0
 25 46  1  0
 25 47  1  0
 26 48  1  0
 26 49  1  0
 27 50  1  0
 27 51  1  0
 28 52  1  0
 28 53  1  0
 29 54  1  0
 30 55  1  0
M  CHG  2   9   1  18  -1
M  END
>  <UniqueID>  (42) 
40

>  <SMILES>  (42) 
Cc1ccc(S(=O)(=O)[N@@H+](CCn2cnc3c(=O)[n-]c(=O)n(C)c32)C2CCCC2)cc1

>  <Energy>  (42) 
118.91265009034424

>  <Genealogy>  (42) 
Cc1ccc(S(=O)(=O)[NH+](CCn2cnc3c(=O)[n-]c(=O)n(C)c32)C2CCCC2)cc1 (protonated)
Cc1ccc(S(=O)(=O)[N@@H+](CCn2cnc3c(=O)[n-]c(=O)n(C)c32)C2CCCC2)cc1 (chirality)
Cc1ccc(S(=O)(=O)[N@@H+](CCn2cnc3c(=O)[n-]c(=O)n(C)c32)C2CCCC2)cc1 (3D coordinates assigned)
Cc1ccc(S(=O)(=O)[N@@H+](CCn2cnc3c(=O)[n-]c(=O)n(C)c32)C2CCCC2)cc1 (nonaromatic ring conformer: 118.91265009034424 kcal/mol)

>  <smiles>  (42) 
Cc1ccc(S(=O)(=O)N(CCn2cnc3c(=O)[nH]c(=O)n(C)c32)C2CCCC2)cc1

>  <score_type>  (42) 
oracle

>  <origin>  (42) 
adg

>  <m_score__min__energy>  (42) 
-9.3499999999999996

>  <m_primary>  (42) 
energy

$$$$
42:0
     RDKit          3D

 56 58  0  0  0  0  0  0  0  0999 V2000
   -6.0930   19.3110  -33.7240 C   0  0  0  0  0  0  0  0  0  0  0  0
   -6.6220   20.5700  -33.0350 C   0  0  0  0  0  0  0  0  0  0  0  0
   -7.2910   20.2600  -31.7480 N   0  0  0  0  0  0  0  0  0  0  0  0
   -8.1090   19.0310  -31.8940 C   0  0  0  0  0  0  0  0  0  0  0  0
   -9.4450   19.3300  -32.5750 C   0  0  0  0  0  0  0  0  0  0  0  0
   -8.1140   21.4020  -31.2620 C   0  0  0  0  0  0  0  0  0  0  0  0
   -7.6840   22.7190  -31.9280 C   0  0  0  0  0  0  0  0  0  0  0  0
   -7.2070   23.7620  -30.9110 C   0  0  0  0  0  0  0  0  0  0  0  0
   -6.0420   24.4770  -31.4180 N   0  0  0  0  0  0  0  0  0  0  0  0
   -5.0120   25.0170  -30.5780 C   0  0  0  0  0  0  0  0  0  0  0  0
   -4.0580   25.6720  -31.0740 O   0  0  0  0  0  0  0  0  0  0  0  0
   -5.0450   24.7540  -29.1040 C   0  0  0  0  0  0  0  0  0  0  0  0
   -3.7360   24.2770  -28.6250 N   0  0  0  0  0  0  0  0  0  0  0  0
   -3.3580   24.5380  -27.2680 C   0  0  0  0  0  0  0  0  0  0  0  0
   -4.2520   24.4990  -26.3790 O   0  0  0  0  0  0  0  0  0  0  0  0
   -1.9670   24.9070  -26.8870 C   0  0  0  0  0  0  0  0  0  0  0  0
   -1.7240   25.2930  -25.5520 C   0  0  0  0  0  0  0  0  0  0  0  0
   -0.4820   25.7880  -25.1670 C   0  0  0  0  0  0  0  0  0  0  0  0
    0.5270   25.9050  -26.1140 C   0  0  0  0  0  0  0  0  0  0  0  0
    0.3010   25.5110  -27.3920 N   0  0  0  0  0  0  0  0  0  0  0  0
   -0.8900   25.0030  -27.8110 C   0  0  0  0  0  0  0  0  0  0  0  0
   -0.9590   24.5970  -29.1500 O   0  0  0  0  0  0  0  0  0  0  0  0
   -1.6480   23.4810  -29.6280 C   0  0  0  0  0  0  0  0  0  0  0  0
   -0.9640   22.5750  -30.4490 C   0  0  0  0  0  0  0  0  0  0  0  0
   -1.6170   21.4540  -30.9670 C   0  0  0  0  0  0  0  0  0  0  0  0
   -2.9670   21.2240  -30.6650 C   0  0  0  0  0  0  0  0  0  0  0  0
   -3.6860   20.0420  -31.2470 C   0  0  0  0  0  0  0  0  0  0  0  0
   -3.6620   22.1490  -29.8730 C   0  0  0  0  0  0  0  0  0  0  0  0
   -3.0070   23.2830  -29.3550 C   0  0  0  0  0  0  0  0  0  0  0  0
   -5.7852   18.5785  -32.9632 H   0  0  0  0  0  0  0  0  0  0  0  0
   -6.8847   18.8766  -34.3521 H   0  0  0  0  0  0  0  0  0  0  0  0
   -5.2286   19.5725  -34.3521 H   0  0  0  0  0  0  0  0  0  0  0  0
   -5.7792   21.2501  -32.8423 H   0  0  0  0  0  0  0  0  0  0  0  0
   -7.3644   21.0348  -33.7004 H   0  0  0  0  0  0  0  0  0  0  0  0
   -7.5533   18.3007  -32.5005 H   0  0  0  0  0  0  0  0  0  0  0  0
   -8.3132   18.6289  -30.8907 H   0  0  0  0  0  0  0  0  0  0  0  0
  -10.2161   19.5026  -31.8097 H   0  0  0  0  0  0  0  0  0  0  0  0
   -9.3438   20.2277  -33.2026 H   0  0  0  0  0  0  0  0  0  0  0  0
   -9.7362   18.4748  -33.2026 H   0  0  0  0  0  0  0  0  0  0  0  0
   -9.1709   21.2088  -31.4979 H   0  0  0  0  0  0  0  0  0  0  0  0
   -7.9707   21.4976  -30.1756 H   0  0  0  0  0  0  0  0  0  0  0  0
   -6.8628   22.5083  -32.6289 H   0  0  0  0  0  0  0  0  0  0  0  0
   -8.5612   23.1338  -32.4461 H   0  0  0  0  0  0  0  0  0  0  0  0
   -8.0183   24.4804  -30.7223 H   0  0  0  0  0  0  0  0  0  0  0  0
   -6.9299   23.2479  -29.9789 H   0  0  0  0  0  0  0  0  0  0  0  0
   -5.3035   25.6848  -28.5779 H   0  0  0  0  0  0  0  0  0  0  0  0
   -5.7971   23.9769  -28.9027 H   0  0  0  0  0  0  0  0  0  0  0  0
   -2.5269   25.2014  -24.8057 H   0  0  0  0  0  0  0  0  0  0  0  0
   -0.3011   26.0837  -24.1230 H   0  0  0  0  0  0  0  0  0  0  0  0
    1.5066   26.3160  -25.8285 H   0  0  0  0  0  0  0  0  0  0  0  0
    0.0958   22.7478  -30.6876 H   0  0  0  0  0  0  0  0  0  0  0  0
   -1.0713   20.7504  -31.6129 H   0  0  0  0  0  0  0  0  0  0  0  0
   -4.0706   19.4097  -30.4332 H   0  0  0  0  0  0  0  0  0  0  0  0
   -4.5245   20.3918  -31.8672 H   0  0  0  0  0  0  0  0  0  0  0  0
   -2.9898   19.4583  -31.8672 H   0  0  0  0  0  0  0  0  0  0  0  0
   -4.7279   21.9876  -29.6544 H   0  0  0  0  0  0  0  0  0  0  0  0
  1  2  1  0
  2  3  1  0
  3  4  1  0
  4  5  1  0
  3  6  1  0
  6  7  1  0
  7  8  1  0
  8  9  1  0
  9 10  1  0
 10 11  2  0
 10 12  1  0
 12 13  1  0
 13 14  1  0
 14 15  2  0
 14 16  1  0
 16 17  2  0
 17 18  1  0
 18 19  2  0
 19 20  1  0
 20 21  2  0
 21 22  1  0
 22 23  1  0
 23 24  2  0
 24 25  1  0
 25 26  2  0
 26 27  1  0
 26 28  1  0
 28 29  2  0
 29 13  1  0
 21 16  1  0
 29 23  1  0
  1 30  1  0
  1 31  1  0
  1 32  1  0
  2 33  1  0
  2 34  1  0
  4 35  1  0
  4 36  1  0
  5 37  1  0
  5 38  1  0
  5 39  1  0
  6 40  1  0
  6 41  1  0
  7 42  1  0
  7 43  1  0
  8 44  1  0
  8 45  1  0
 12 46  1  0
 12 47  1  0
 17 48  1  0
 18 49  1  0
 19 50  1  0
 24 51  1  0
 25 52  1  0
 27 53  1  0
 27 54  1  0
 27 55  1  0
 28 56  1  0
M  CHG  1   9  -1
M  END
>  <UniqueID>  (43) 
41

>  <SMILES>  (43) 
CCN(CC)CCC[N-]C(=O)CN1C(=O)c2cccnc2Oc2ccc(C)cc21

>  <Energy>  (43) 
76.00715309827987

>  <Genealogy>  (43) 
CCN(CC)CCC[N-]C(=O)CN1C(=O)c2cccnc2Oc2ccc(C)cc21 (protonated)
CCN(CC)CCC[N-]C(=O)CN1C(=O)c2cccnc2Oc2ccc(C)cc21 (3D coordinates assigned)
CCN(CC)CCC[N-]C(=O)CN1C(=O)c2cccnc2Oc2ccc(C)cc21 (nonaromatic ring conformer: 76.00715309827987 kcal/mol)

>  <smiles>  (43) 
CCN(CC)CCCNC(=O)CN1C(=O)c2cccnc2Oc2ccc(C)cc21

>  <score_type>  (43) 
oracle

>  <origin>  (43) 
adg

>  <m_score__min__energy>  (43) 
-9.8800000000000008

>  <m_primary>  (43) 
energy

$$$$
43:0
     RDKit          3D

 46 49  0  0  0  0  0  0  0  0999 V2000
   -3.0950   14.3450  -36.1030 C   0  0  0  0  0  0  0  0  0  0  0  0
   -3.8810   14.1620  -34.8080 C   0  0  0  0  0  0  0  0  0  0  0  0
   -4.3620   15.4670  -34.3040 N   0  0  0  0  0  0  0  0  0  0  0  0
   -5.7690   15.3940  -33.8750 C   0  0  0  0  0  0  0  0  0  0  0  0
   -6.0830   16.6320  -33.0440 C   0  0  0  0  0  0  0  0  0  0  0  0
   -5.5110   17.8330  -33.6600 N   0  0  0  0  0  0  0  0  0  0  0  0
   -5.5880   19.0760  -32.9530 C   0  0  0  0  0  0  0  0  0  0  0  0
   -4.4400   19.7390  -32.6670 N   0  0  0  0  0  0  0  0  0  0  0  0
   -4.4400   20.9030  -32.0210 N   0  0  0  0  0  0  0  0  0  0  0  0
   -5.5870   21.5010  -31.6060 C   0  0  0  0  0  0  0  0  0  0  0  0
   -5.4740   22.8110  -30.9310 C   0  0  0  0  0  0  0  0  0  0  0  0
   -6.0960   23.9400  -31.4880 C   0  0  0  0  0  0  0  0  0  0  0  0
   -6.0320   25.1740  -30.8360 C   0  0  0  0  0  0  0  0  0  0  0  0
   -5.3590   25.2880  -29.6160 C   0  0  0  0  0  0  0  0  0  0  0  0
   -4.7520   24.1650  -29.0440 C   0  0  0  0  0  0  0  0  0  0  0  0
   -3.8450   24.3190  -27.3700 Br  0  0  0  0  0  0  0  0  0  0  0  0
   -4.8160   22.9280  -29.6940 C   0  0  0  0  0  0  0  0  0  0  0  0
   -6.8220   20.8510  -31.8400 C   0  0  0  0  0  0  0  0  0  0  0  0
   -8.0490   21.3700  -31.3720 C   0  0  0  0  0  0  0  0  0  0  0  0
   -9.2460   20.6980  -31.6270 C   0  0  0  0  0  0  0  0  0  0  0  0
   -9.2400   19.4970  -32.3370 C   0  0  0  0  0  0  0  0  0  0  0  0
   -8.0360   18.9540  -32.7860 C   0  0  0  0  0  0  0  0  0  0  0  0
   -6.8180   19.6170  -32.5390 C   0  0  0  0  0  0  0  0  0  0  0  0
   -4.9770   17.8130  -35.0280 C   0  0  0  0  0  0  0  0  0  0  0  0
   -4.1880   16.5170  -35.3320 C   0  0  0  0  0  0  0  0  0  0  0  0
   -2.0489   14.5886  -35.8657 H   0  0  0  0  0  0  0  0  0  0  0  0
   -3.1311   13.4144  -36.6884 H   0  0  0  0  0  0  0  0  0  0  0  0
   -3.5384   15.1639  -36.6884 H   0  0  0  0  0  0  0  0  0  0  0  0
   -4.7441   13.5071  -34.9981 H   0  0  0  0  0  0  0  0  0  0  0  0
   -3.2211   13.7106  -34.0525 H   0  0  0  0  0  0  0  0  0  0  0  0
   -6.4253   15.3624  -34.7572 H   0  0  0  0  0  0  0  0  0  0  0  0
   -5.9354   14.4855  -33.2776 H   0  0  0  0  0  0  0  0  0  0  0  0
   -7.1742   16.7495  -32.9706 H   0  0  0  0  0  0  0  0  0  0  0  0
   -5.6427   16.5056  -32.0439 H   0  0  0  0  0  0  0  0  0  0  0  0
   -6.6362   23.8524  -32.4422 H   0  0  0  0  0  0  0  0  0  0  0  0
   -6.5118   26.0571  -31.2832 H   0  0  0  0  0  0  0  0  0  0  0  0
   -5.3068   26.2611  -29.1057 H   0  0  0  0  0  0  0  0  0  0  0  0
   -4.3497   22.0434  -29.2356 H   0  0  0  0  0  0  0  0  0  0  0  0
   -8.0619   22.3108  -30.8022 H   0  0  0  0  0  0  0  0  0  0  0  0
  -10.1972   21.1170  -31.2668 H   0  0  0  0  0  0  0  0  0  0  0  0
  -10.1871   18.9769  -32.5433 H   0  0  0  0  0  0  0  0  0  0  0  0
   -8.0378   18.0017  -33.3366 H   0  0  0  0  0  0  0  0  0  0  0  0
   -5.8152   17.8911  -35.7360 H   0  0  0  0  0  0  0  0  0  0  0  0
   -4.2837   18.6608  -35.1308 H   0  0  0  0  0  0  0  0  0  0  0  0
   -4.5309   16.1188  -36.2984 H   0  0  0  0  0  0  0  0  0  0  0  0
   -3.1207   16.7830  -35.3464 H   0  0  0  0  0  0  0  0  0  0  0  0
  1  2  1  0
  2  3  1  0
  3  4  1  0
  4  5  1  0
  5  6  1  0
  6  7  1  0
  7  8  2  0
  8  9  1  0
  9 10  2  0
 10 11  1  0
 11 12  2  0
 12 13  1  0
 13 14  2  0
 14 15  1  0
 15 16  1  0
 15 17  2  0
 10 18  1  0
 18 19  2  0
 19 20  1  0
 20 21  2  0
 21 22  1  0
 22 23  2  0
  6 24  1  0
 24 25  1  0
 25  3  1  0
 23  7  1  0
 17 11  1  0
 23 18  1  0
  1 26  1  0
  1 27  1  0
  1 28  1  0
  2 29  1  0
  2 30  1  0
  4 31  1  0
  4 32  1  0
  5 33  1  0
  5 34  1  0
 12 35  1  0
 13 36  1  0
 14 37  1  0
 17 38  1  0
 19 39  1  0
 20 40  1  0
 21 41  1  0
 22 42  1  0
 24 43  1  0
 24 44  1  0
 25 45  1  0
 25 46  1  0
M  END
>  <UniqueID>  (44) 
42

>  <SMILES>  (44) 
CCN1CCN(c2nnc(-c3cccc(Br)c3)c3ccccc23)CC1

>  <Energy>  (44) 
72.43312298387995

>  <Genealogy>  (44) 
CCN1CCN(c2nnc(-c3cccc(Br)c3)c3ccccc23)CC1 (3D coordinates assigned)
CCN1CCN(c2nnc(-c3cccc(Br)c3)c3ccccc23)CC1 (nonaromatic ring conformer: 72.43312298387995 kcal/mol)

>  <smiles>  (44) 
CCN1CCN(c2nnc(-c3cccc(Br)c3)c3ccccc23)CC1

>  <score_type>  (44) 
oracle

>  <origin>  (44) 
adg

>  <m_score__min__energy>  (44) 
-8.75

>  <m_primary>  (44) 
energy

$$$$
44:0
     RDKit          3D

 42 44  0  0  0  0  0  0  0  0999 V2000
   -5.7070   18.5380  -34.5580 C   0  0  0  0  0  0  0  0  0  0  0  0
   -5.6850   19.5670  -33.5760 O   0  0  0  0  0  0  0  0  0  0  0  0
   -6.8020   19.9950  -32.8440 C   0  0  0  0  0  0  0  0  0  0  0  0
   -7.9610   19.1880  -32.7140 C   0  0  0  0  0  0  0  0  0  0  0  0
   -9.0790   19.6420  -31.9880 C   0  0  0  0  0  0  0  0  0  0  0  0
   -9.0680   20.9050  -31.3820 C   0  0  0  0  0  0  0  0  0  0  0  0
   -7.9240   21.6840  -31.5180 C   0  0  0  0  0  0  0  0  0  0  0  0
   -7.6690   22.9430  -31.0310 C   0  0  0  0  0  0  0  0  0  0  0  0
   -6.3870   23.2500  -31.4680 C   0  0  0  0  0  0  0  0  0  0  0  0
   -5.6770   24.5290  -31.1220 C   0  0  0  0  0  0  0  0  0  0  0  0
   -6.4580   25.3110  -30.0590 C   0  0  0  0  0  0  0  0  0  0  0  0
   -5.7430   25.3130  -28.7830 N   0  0  0  0  0  0  0  0  0  0  0  0
   -5.8510   22.2170  -32.1780 N   0  0  0  0  0  0  0  0  0  0  0  0
   -4.5140   22.2050  -32.7900 C   0  0  0  0  0  0  0  0  0  0  0  0
   -3.4610   21.8100  -31.7830 C   0  0  0  0  0  0  0  0  0  0  0  0
   -3.7470   21.8050  -30.4070 C   0  0  0  0  0  0  0  0  0  0  0  0
   -2.7610   21.4530  -29.4810 C   0  0  0  0  0  0  0  0  0  0  0  0
   -1.4800   21.1100  -29.9180 C   0  0  0  0  0  0  0  0  0  0  0  0
   -1.1810   21.1210  -31.2830 C   0  0  0  0  0  0  0  0  0  0  0  0
   -2.1650   21.4740  -32.2130 C   0  0  0  0  0  0  0  0  0  0  0  0
   -6.8160   21.2580  -32.2150 C   0  0  0  0  0  0  0  0  0  0  0  0
   -5.7280   17.5570  -34.0608 H   0  0  0  0  0  0  0  0  0  0  0  0
   -6.6030   18.6498  -35.1863 H   0  0  0  0  0  0  0  0  0  0  0  0
   -4.8071   18.6114  -35.1863 H   0  0  0  0  0  0  0  0  0  0  0  0
   -7.9870   18.1949  -33.1863 H   0  0  0  0  0  0  0  0  0  0  0  0
   -9.9676   19.0001  -31.8961 H   0  0  0  0  0  0  0  0  0  0  0  0
   -9.9378   21.2695  -30.8158 H   0  0  0  0  0  0  0  0  0  0  0  0
   -8.3369   23.5728  -30.4250 H   0  0  0  0  0  0  0  0  0  0  0  0
   -4.6755   24.2925  -30.7333 H   0  0  0  0  0  0  0  0  0  0  0  0
   -5.5979   25.1465  -32.0289 H   0  0  0  0  0  0  0  0  0  0  0  0
   -6.5900   26.3486  -30.3996 H   0  0  0  0  0  0  0  0  0  0  0  0
   -7.4352   24.8273  -29.9138 H   0  0  0  0  0  0  0  0  0  0  0  0
   -6.0270   24.4840  -28.2110 H   0  0  0  0  0  0  0  0  0  0  0  0
   -5.9840   26.1840  -28.2570 H   0  0  0  0  0  0  0  0  0  0  0  0
   -4.7100   25.2920  -28.9490 H   0  0  0  0  0  0  0  0  0  0  0  0
   -4.5053   21.4842  -33.6209 H   0  0  0  0  0  0  0  0  0  0  0  0
   -4.2870   23.2174  -33.1553 H   0  0  0  0  0  0  0  0  0  0  0  0
   -4.7529   22.0798  -30.0567 H   0  0  0  0  0  0  0  0  0  0  0  0
   -2.9946   21.4462  -28.4061 H   0  0  0  0  0  0  0  0  0  0  0  0
   -0.7061   20.8311  -29.1877 H   0  0  0  0  0  0  0  0  0  0  0  0
   -0.1713   20.8519  -31.6266 H   0  0  0  0  0  0  0  0  0  0  0  0
   -1.9235   21.4888  -33.2861 H   0  0  0  0  0  0  0  0  0  0  0  0
  1  2  1  0
  2  3  1  0
  3  4  2  0
  4  5  1  0
  5  6  2  0
  6  7  1  0
  7  8  1  0
  8  9  2  0
  9 10  1  0
 10 11  1  0
 11 12  1  0
  9 13  1  0
 13 14  1  0
 14 15  1  0
 15 16  2  0
 16 17  1  0
 17 18  2  0
 18 19  1  0
 19 20  2  0
 13 21  1  0
 21  3  1  0
 21  7  2  0
 20 15  1  0
  1 22  1  0
  1 23  1  0
  1 24  1  0
  4 25  1  0
  5 26  1  0
  6 27  1  0
  8 28  1  0
 10 29  1  0
 10 30  1  0
 11 31  1  0
 11 32  1  0
 12 33  1  0
 12 34  1  0
 12 35  1  0
 14 36  1  0
 14 37  1  0
 16 38  1  0
 17 39  1  0
 18 40  1  0
 19 41  1  0
 20 42  1  0
M  CHG  1  12   1
M  END
>  <UniqueID>  (45) 
43

>  <SMILES>  (45) 
COc1cccc2cc(CC[NH3+])n(Cc3ccccc3)c12

>  <Energy>  (45) 
73.51130540937368

>  <Genealogy>  (45) 
COc1cccc2cc(CC[NH3+])n(Cc3ccccc3)c12 (protonated)
COc1cccc2cc(CC[NH3+])n(Cc3ccccc3)c12 (3D coordinates assigned)
COc1cccc2cc(CC[NH3+])n(Cc3ccccc3)c12 (optimized conformer: 73.51130540937368 kcal/mol)

>  <smiles>  (45) 
COc1cccc2cc(CCN)n(Cc3ccccc3)c12

>  <score_type>  (45) 
oracle

>  <origin>  (45) 
adg

>  <m_score__min__energy>  (45) 
-6.96

>  <m_primary>  (45) 
energy

$$$$
45:0
     RDKit          3D

 61 63  0  0  0  0  0  0  0  0999 V2000
   -0.7940   26.8630  -27.8100 C   0  0  0  0  0  0  0  0  0  0  0  0
   -1.2450   26.0760  -28.9470 N   0  0  0  0  0  0  0  0  0  0  0  0
   -1.1740   24.6450  -28.9790 C   0  0  0  0  0  0  0  0  0  0  0  0
   -0.0830   24.0810  -29.2680 O   0  0  0  0  0  0  0  0  0  0  0  0
   -2.4290   23.8240  -28.7320 C   0  0  0  0  0  0  0  0  0  0  0  0
   -2.5550   23.5370  -27.1960 C   0  0  0  0  0  0  0  0  0  0  0  0
   -1.2580   23.6710  -26.3530 C   0  0  0  0  0  0  0  0  0  0  0  0
   -0.8400   22.3950  -25.5980 C   0  0  0  0  0  0  0  0  0  0  0  0
   -0.8430   21.1760  -26.4770 C   0  0  0  0  0  0  0  0  0  0  0  0
   -1.7730   20.1460  -26.2730 C   0  0  0  0  0  0  0  0  0  0  0  0
   -1.7640   19.0370  -27.1210 C   0  0  0  0  0  0  0  0  0  0  0  0
   -0.8340   18.9650  -28.1600 C   0  0  0  0  0  0  0  0  0  0  0  0
    0.0760   20.0090  -28.3350 C   0  0  0  0  0  0  0  0  0  0  0  0
    0.0520   21.0820  -27.4990 N   0  0  0  0  0  0  0  0  0  0  0  0
   -2.2780   22.4810  -29.5000 C   0  0  0  0  0  0  0  0  0  0  0  0
   -3.5800   21.6560  -29.5470 C   0  0  0  0  0  0  0  0  0  0  0  0
   -4.7350   22.4200  -30.0690 N   0  0  0  0  0  0  0  0  0  0  0  0
   -4.6970   22.6210  -31.5350 C   0  0  0  0  0  0  0  0  0  0  0  0
   -5.1670   21.3820  -32.2490 C   0  0  0  0  0  0  0  0  0  0  0  0
   -6.5360   21.0840  -32.3100 C   0  0  0  0  0  0  0  0  0  0  0  0
   -6.9800   19.9230  -32.9510 C   0  0  0  0  0  0  0  0  0  0  0  0
   -6.0570   19.0320  -33.5260 C   0  0  0  0  0  0  0  0  0  0  0  0
   -6.4860   17.8400  -34.2050 N   0  0  0  0  0  0  0  0  0  0  0  0
   -6.3200   16.5110  -33.6870 C   0  0  0  0  0  0  0  0  0  0  0  0
   -6.9720   15.3580  -34.3790 C   0  0  0  0  0  0  0  0  0  0  0  0
   -5.6060   16.3000  -32.6680 O   0  0  0  0  0  0  0  0  0  0  0  0
   -4.6890   19.3430  -33.4820 C   0  0  0  0  0  0  0  0  0  0  0  0
   -4.2460   20.5040  -32.8420 C   0  0  0  0  0  0  0  0  0  0  0  0
   -4.9380   23.6800  -29.3280 C   0  0  0  0  0  0  0  0  0  0  0  0
   -3.6770   24.5610  -29.3060 C   0  0  0  0  0  0  0  0  0  0  0  0
   -1.0834   26.3580  -26.8766 H   0  0  0  0  0  0  0  0  0  0  0  0
    0.3005   26.9665  -27.8467 H   0  0  0  0  0  0  0  0  0  0  0  0
   -1.2580   27.8597  -27.8467 H   0  0  0  0  0  0  0  0  0  0  0  0
   -3.2939   24.2406  -26.7849 H   0  0  0  0  0  0  0  0  0  0  0  0
   -2.8395   22.4770  -27.1223 H   0  0  0  0  0  0  0  0  0  0  0  0
   -0.4378   23.9514  -27.0303 H   0  0  0  0  0  0  0  0  0  0  0  0
   -1.4669   24.4296  -25.5843 H   0  0  0  0  0  0  0  0  0  0  0  0
    0.1747   22.5386  -25.1983 H   0  0  0  0  0  0  0  0  0  0  0  0
   -1.5727   22.2282  -24.7947 H   0  0  0  0  0  0  0  0  0  0  0  0
   -2.5027   20.2114  -25.4525 H   0  0  0  0  0  0  0  0  0  0  0  0
   -2.4876   18.2222  -26.9710 H   0  0  0  0  0  0  0  0  0  0  0  0
   -0.8186   18.0952  -28.8332 H   0  0  0  0  0  0  0  0  0  0  0  0
    0.8135   19.9640  -29.1499 H   0  0  0  0  0  0  0  0  0  0  0  0
   -1.9670   22.7018  -30.5318 H   0  0  0  0  0  0  0  0  0  0  0  0
   -1.5304   21.8799  -28.9617 H   0  0  0  0  0  0  0  0  0  0  0  0
   -3.4171   20.7821  -30.1949 H   0  0  0  0  0  0  0  0  0  0  0  0
   -3.8203   21.3648  -28.5138 H   0  0  0  0  0  0  0  0  0  0  0  0
   -5.3522   23.4633  -31.8021 H   0  0  0  0  0  0  0  0  0  0  0  0
   -3.6615   22.8353  -31.8381 H   0  0  0  0  0  0  0  0  0  0  0  0
   -7.2652   21.7677  -31.8508 H   0  0  0  0  0  0  0  0  0  0  0  0
   -8.0570   19.7059  -33.0055 H   0  0  0  0  0  0  0  0  0  0  0  0
   -6.8550   17.9360  -35.1780 H   0  0  0  0  0  0  0  0  0  0  0  0
   -7.3683   14.6571  -33.6296 H   0  0  0  0  0  0  0  0  0  0  0  0
   -7.7956   15.7262  -35.0084 H   0  0  0  0  0  0  0  0  0  0  0  0
   -6.2320   14.8420  -35.0084 H   0  0  0  0  0  0  0  0  0  0  0  0
   -3.9602   18.6681  -33.9546 H   0  0  0  0  0  0  0  0  0  0  0  0
   -3.1704   20.7308  -32.8028 H   0  0  0  0  0  0  0  0  0  0  0  0
   -5.7532   24.2429  -29.8062 H   0  0  0  0  0  0  0  0  0  0  0  0
   -5.1818   23.4199  -28.2874 H   0  0  0  0  0  0  0  0  0  0  0  0
   -3.4537   24.8792  -30.3350 H   0  0  0  0  0  0  0  0  0  0  0  0
   -3.8852   25.4172  -28.6475 H   0  0  0  0  0  0  0  0  0  0  0  0
  1  2  1  0
  2  3  1  0
  3  4  2  0
  3  5  1  0
  5  6  1  0
  6  7  1  0
  7  8  1  0
  8  9  1  0
  9 10  2  0
 10 11  1  0
 11 12  2  0
 12 13  1  0
 13 14  2  0
  5 15  1  0
 15 16  1  0
 16 17  1  0
 17 18  1  0
 18 19  1  0
 19 20  2  0
 20 21  1  0
 21 22  2  0
 22 23  1  0
 23 24  1  0
 24 25  1  0
 24 26  2  0
 22 27  1  0
 27 28  2  0
 17 29  1  0
 29 30  1  0
 30  5  1  0
 14  9  1  0
 28 19  1  0
  1 31  1  0
  1 32  1  0
  1 33  1  0
  6 34  1  0
  6 35  1  0
  7 36  1  0
  7 37  1  0
  8 38  1  0
  8 39  1  0
 10 40  1  0
 11 41  1  0
 12 42  1  0
 13 43  1  0
 15 44  1  0
 15 45  1  0
 16 46  1  0
 16 47  1  0
 18 48  1  0
 18 49  1  0
 20 50  1  0
 21 51  1  0
 23 52  1  0
 25 53  1  0
 25 54  1  0
 25 55  1  0
 27 56  1  0
 28 57  1  0
 29 58  1  0
 29 59  1  0
 30 60  1  0
 30 61  1  0
M  CHG  1   2  -1
M  END
>  <UniqueID>  (46) 
44

>  <SMILES>  (46) 
C[N-]C(=O)C1(CCCc2ccccn2)CCN(Cc2ccc(NC(C)=O)cc2)CC1

>  <Energy>  (46) 
66.24727421713244

>  <Genealogy>  (46) 
C[N-]C(=O)C1(CCCc2ccccn2)CCN(Cc2ccc(NC(C)=O)cc2)CC1 (protonated)
C[N-]C(=O)C1(CCCc2ccccn2)CCN(Cc2ccc(NC(C)=O)cc2)CC1 (3D coordinates assigned)
C[N-]C(=O)C1(CCCc2ccccn2)CCN(Cc2ccc(NC(C)=O)cc2)CC1 (nonaromatic ring conformer: 66.24727421713244 kcal/mol)

>  <smiles>  (46) 
CNC(=O)C1(CCCc2ccccn2)CCN(Cc2ccc(NC(C)=O)cc2)CC1

>  <score_type>  (46) 
oracle

>  <origin>  (46) 
adg

>  <m_score__min__energy>  (46) 
-11.699999999999999

>  <m_primary>  (46) 
energy

$$$$
46:0
     RDKit          3D

 47 48  0  0  0  0  0  0  0  0999 V2000
   -6.7310   17.7840  -31.8150 C   0  0  0  0  0  0  0  0  0  0  0  0
   -5.8360   17.7600  -33.0180 C   0  0  0  0  0  0  0  0  0  0  0  0
   -4.8580   18.6850  -33.3340 C   0  0  0  0  0  0  0  0  0  0  0  0
   -4.4300   19.8860  -32.5420 C   0  0  0  0  0  0  0  0  0  0  0  0
   -5.1490   21.0930  -33.0050 N   0  0  0  0  0  0  0  0  0  0  0  0
   -4.7720   22.2910  -32.2250 C   0  0  0  0  0  0  0  0  0  0  0  0
   -5.9760   22.7230  -31.3680 C   0  0  2  0  0  0  0  0  0  0  0  0
   -5.6330   22.9300  -29.9500 N   0  0  0  0  0  0  0  0  0  0  0  0
   -5.0620   24.5480  -29.6650 S   0  0  0  0  0  0  0  0  0  0  0  0
   -6.4430   25.6340  -29.3710 C   0  0  0  0  0  0  0  0  0  0  0  0
   -4.1810   24.5480  -28.4470 O   0  0  0  0  0  0  0  0  0  0  0  0
   -4.2720   25.0480  -30.8420 O   0  0  0  0  0  0  0  0  0  0  0  0
   -6.9730   21.5760  -31.5100 C   0  0  1  0  0  0  0  0  0  0  0  0
   -8.4830   21.9420  -31.3740 C   0  0  0  0  0  0  0  0  0  0  0  0
   -8.7650   23.3290  -31.9720 C   0  0  0  0  0  0  0  0  0  0  0  0
   -9.4630   20.9130  -31.9700 C   0  0  0  0  0  0  0  0  0  0  0  0
   -6.6020   20.9390  -32.8420 C   0  0  0  0  0  0  0  0  0  0  0  0
   -4.3790   18.2920  -34.5710 C   0  0  0  0  0  0  0  0  0  0  0  0
   -5.0490   17.1960  -34.9790 N   0  0  0  0  0  0  0  0  0  0  0  0
   -5.9320   16.8870  -34.0420 N   0  0  0  0  0  0  0  0  0  0  0  0
   -6.8500   15.7580  -34.1430 C   0  0  0  0  0  0  0  0  0  0  0  0
   -6.1182   17.7676  -30.9017 H   0  0  0  0  0  0  0  0  0  0  0  0
   -7.3416   18.6988  -31.8304 H   0  0  0  0  0  0  0  0  0  0  0  0
   -7.3897   16.9032  -31.8304 H   0  0  0  0  0  0  0  0  0  0  0  0
   -4.6534   19.7169  -31.4783 H   0  0  0  0  0  0  0  0  0  0  0  0
   -3.3497   20.0389  -32.6821 H   0  0  0  0  0  0  0  0  0  0  0  0
   -3.9192   22.0539  -31.5719 H   0  0  0  0  0  0  0  0  0  0  0  0
   -4.4858   23.1061  -32.9060 H   0  0  0  0  0  0  0  0  0  0  0  0
   -6.3691   23.6924  -31.7080 H   0  0  0  0  0  0  0  0  0  0  0  0
   -4.8900   22.2570  -29.6480 H   0  0  0  0  0  0  0  0  0  0  0  0
   -6.5927   25.7517  -28.2876 H   0  0  0  0  0  0  0  0  0  0  0  0
   -6.2394   26.6164  -29.8219 H   0  0  0  0  0  0  0  0  0  0  0  0
   -7.3497   25.2045  -29.8219 H   0  0  0  0  0  0  0  0  0  0  0  0
   -6.8859   20.8821  -30.6609 H   0  0  0  0  0  0  0  0  0  0  0  0
   -8.6697   21.9417  -30.2900 H   0  0  0  0  0  0  0  0  0  0  0  0
   -8.9127   24.0555  -31.1594 H   0  0  0  0  0  0  0  0  0  0  0  0
   -7.9119   23.6412  -32.5924 H   0  0  0  0  0  0  0  0  0  0  0  0
   -9.6722   23.2833  -32.5924 H   0  0  0  0  0  0  0  0  0  0  0  0
   -9.9728   20.3777  -31.1554 H   0  0  0  0  0  0  0  0  0  0  0  0
  -10.2083   21.4328  -32.5900 H   0  0  0  0  0  0  0  0  0  0  0  0
   -8.9075   20.1940  -32.5900 H   0  0  0  0  0  0  0  0  0  0  0  0
   -6.8703   19.8722  -32.8378 H   0  0  0  0  0  0  0  0  0  0  0  0
   -7.1421   21.4208  -33.6703 H   0  0  0  0  0  0  0  0  0  0  0  0
   -3.5779   18.7946  -35.1328 H   0  0  0  0  0  0  0  0  0  0  0  0
   -7.1261   15.4185  -33.1338 H   0  0  0  0  0  0  0  0  0  0  0  0
   -7.7550   16.0687  -34.6857 H   0  0  0  0  0  0  0  0  0  0  0  0
   -6.3613   14.9354  -34.6857 H   0  0  0  0  0  0  0  0  0  0  0  0
  1  2  1  0
  2  3  2  0
  3  4  1  0
  4  5  1  0
  5  6  1  0
  6  7  1  0
  7  8  1  0
  8  9  1  0
  9 10  1  0
  9 11  2  0
  9 12  2  0
  7 13  1  0
 13 14  1  0
 14 15  1  0
 14 16  1  0
 13 17  1  0
  3 18  1  0
 18 19  2  0
 19 20  1  0
 20 21  1  0
 20  2  1  0
 17  5  1  0
  1 22  1  0
  1 23  1  0
  1 24  1  0
  4 25  1  0
  4 26  1  0
  6 27  1  0
  6 28  1  0
  7 29  1  6
  8 30  1  0
 10 31  1  0
 10 32  1  0
 10 33  1  0
 13 34  1  1
 14 35  1  0
 15 36  1  0
 15 37  1  0
 15 38  1  0
 16 39  1  0
 16 40  1  0
 16 41  1  0
 17 42  1  0
 17 43  1  0
 18 44  1  0
 21 45  1  0
 21 46  1  0
 21 47  1  0
M  END
>  <UniqueID>  (47) 
45

>  <SMILES>  (47) 
Cc1c(CN2C[C@H](NS(C)(=O)=O)[C@@H](C(C)C)C2)cnn1C

>  <Energy>  (47) 
70.84133969410846

>  <Genealogy>  (47) 
Cc1c(CN2C[C@H](NS(C)(=O)=O)[C@@H](C(C)C)C2)cnn1C (chirality)
Cc1c(CN2C[C@H](NS(C)(=O)=O)[C@@H](C(C)C)C2)cnn1C (3D coordinates assigned)
Cc1c(CN2C[C@H](NS(C)(=O)=O)[C@@H](C(C)C)C2)cnn1C (nonaromatic ring conformer: 70.84133969410846 kcal/mol)

>  <smiles>  (47) 
Cc1c(CN2CC(NS(C)(=O)=O)C(C(C)C)C2)cnn1C

>  <score_type>  (47) 
oracle

>  <origin>  (47) 
adg

>  <m_score__min__energy>  (47) 
-8.2699999999999996

>  <m_primary>  (47) 
energy

$$$$
47:0
     RDKit          3D

 57 61  0  0  0  0  0  0  0  0999 V2000
    0.7600   18.4230  -29.9110 C   0  0  0  0  0  0  0  0  0  0  0  0
    0.7460   19.7550  -30.4130 O   0  0  0  0  0  0  0  0  0  0  0  0
    0.3560   20.0990  -31.7170 C   0  0  0  0  0  0  0  0  0  0  0  0
    0.8610   19.4090  -32.8380 C   0  0  0  0  0  0  0  0  0  0  0  0
    0.4830   19.7790  -34.1300 C   0  0  0  0  0  0  0  0  0  0  0  0
   -0.4020   20.8370  -34.3230 C   0  0  0  0  0  0  0  0  0  0  0  0
   -0.9140   21.5280  -33.2240 C   0  0  0  0  0  0  0  0  0  0  0  0
   -0.5370   21.1780  -31.9140 C   0  0  0  0  0  0  0  0  0  0  0  0
   -1.1690   21.9330  -30.7560 C   0  0  0  0  0  0  0  0  0  0  0  0
   -2.6400   22.1240  -30.8430 N   0  0  0  0  0  0  0  0  0  0  0  0
   -3.2060   23.2580  -30.2970 C   0  0  0  0  0  0  0  0  0  0  0  0
   -2.2440   24.4570  -29.3470 S   0  0  0  0  0  0  0  0  0  0  0  0
   -2.5820   23.7290  -27.7030 C   0  0  0  0  0  0  0  0  0  0  0  0
   -2.1380   22.2870  -27.6240 C   0  0  0  0  0  0  0  0  0  0  0  0
   -3.1280   21.2880  -27.5720 C   0  0  0  0  0  0  0  0  0  0  0  0
   -2.7800   19.9400  -27.4680 C   0  0  0  0  0  0  0  0  0  0  0  0
   -1.4400   19.5710  -27.3880 C   0  0  0  0  0  0  0  0  0  0  0  0
   -0.4420   20.5470  -27.4120 C   0  0  0  0  0  0  0  0  0  0  0  0
   -0.7720   21.9100  -27.5380 C   0  0  0  0  0  0  0  0  0  0  0  0
    0.3380   22.9280  -27.5490 C   0  0  0  0  0  0  0  0  0  0  0  0
   -4.5490   23.4440  -30.3400 N   0  0  0  0  0  0  0  0  0  0  0  0
   -5.3790   22.5410  -30.9090 C   0  0  0  0  0  0  0  0  0  0  0  0
   -6.7530   22.7970  -30.9620 C   0  0  0  0  0  0  0  0  0  0  0  0
   -7.6240   21.8520  -31.5230 C   0  0  0  0  0  0  0  0  0  0  0  0
   -9.0040   22.1010  -31.5860 C   0  0  0  0  0  0  0  0  0  0  0  0
   -9.8630   21.1530  -32.1490 C   0  0  0  0  0  0  0  0  0  0  0  0
   -9.3530   19.9530  -32.6510 C   0  0  0  0  0  0  0  0  0  0  0  0
   -7.9810   19.6920  -32.5930 C   0  0  0  0  0  0  0  0  0  0  0  0
   -7.1070   20.6340  -32.0290 C   0  0  0  0  0  0  0  0  0  0  0  0
   -5.7280   20.3810  -31.9600 C   0  0  0  0  0  0  0  0  0  0  0  0
   -4.8570   21.3360  -31.4030 C   0  0  0  0  0  0  0  0  0  0  0  0
   -3.4710   21.1230  -31.3030 C   0  0  0  0  0  0  0  0  0  0  0  0
   -3.0010   19.9950  -31.6230 O   0  0  0  0  0  0  0  0  0  0  0  0
    0.7598   18.4456  -28.8112 H   0  0  0  0  0  0  0  0  0  0  0  0
   -0.1326   17.8876  -30.2669 H   0  0  0  0  0  0  0  0  0  0  0  0
    1.6636   17.9065  -30.2669 H   0  0  0  0  0  0  0  0  0  0  0  0
    1.5592   18.5714  -32.6933 H   0  0  0  0  0  0  0  0  0  0  0  0
    0.8848   19.2341  -34.9970 H   0  0  0  0  0  0  0  0  0  0  0  0
   -0.6974   21.1280  -35.3419 H   0  0  0  0  0  0  0  0  0  0  0  0
   -1.6205   22.3559  -33.3835 H   0  0  0  0  0  0  0  0  0  0  0  0
   -0.9536   21.3773  -29.8314 H   0  0  0  0  0  0  0  0  0  0  0  0
   -0.7318   22.9421  -30.7792 H   0  0  0  0  0  0  0  0  0  0  0  0
   -2.0434   24.3094  -26.9394 H   0  0  0  0  0  0  0  0  0  0  0  0
   -3.6682   23.7614  -27.5323 H   0  0  0  0  0  0  0  0  0  0  0  0
   -4.1896   21.5730  -27.6138 H   0  0  0  0  0  0  0  0  0  0  0  0
   -3.5647   19.1693  -27.4493 H   0  0  0  0  0  0  0  0  0  0  0  0
   -1.1671   18.5086  -27.3057 H   0  0  0  0  0  0  0  0  0  0  0  0
    0.6135   20.2479  -27.3316 H   0  0  0  0  0  0  0  0  0  0  0  0
    0.6138   23.1809  -26.5146 H   0  0  0  0  0  0  0  0  0  0  0  0
    1.2125   22.5113  -28.0702 H   0  0  0  0  0  0  0  0  0  0  0  0
   -0.0016   23.8352  -28.0702 H   0  0  0  0  0  0  0  0  0  0  0  0
   -7.1512   23.7415  -30.5628 H   0  0  0  0  0  0  0  0  0  0  0  0
   -9.4102   23.0441  -31.1915 H   0  0  0  0  0  0  0  0  0  0  0  0
  -10.9437   21.3523  -32.1970 H   0  0  0  0  0  0  0  0  0  0  0  0
  -10.0337   19.2108  -33.0935 H   0  0  0  0  0  0  0  0  0  0  0  0
   -7.5853   18.7457  -32.9905 H   0  0  0  0  0  0  0  0  0  0  0  0
   -5.3260   19.4315  -32.3432 H   0  0  0  0  0  0  0  0  0  0  0  0
  1  2  1  0
  2  3  1  0
  3  4  2  0
  4  5  1  0
  5  6  2  0
  6  7  1  0
  7  8  2  0
  8  9  1  0
  9 10  1  0
 10 11  1  0
 11 12  1  0
 12 13  1  0
 13 14  1  0
 14 15  2  0
 15 16  1  0
 16 17  2  0
 17 18  1  0
 18 19  2  0
 19 20  1  0
 11 21  2  0
 21 22  1  0
 22 23  2  0
 23 24  1  0
 24 25  2  0
 25 26  1  0
 26 27  2  0
 27 28  1  0
 28 29  2  0
 29 30  1  0
 30 31  2  0
 31 32  1  0
 32 33  2  0
  8  3  1  0
 32 10  1  0
 19 14  1  0
 31 22  1  0
 29 24  1  0
  1 34  1  0
  1 35  1  0
  1 36  1  0
  4 37  1  0
  5 38  1  0
  6 39  1  0
  7 40  1  0
  9 41  1  0
  9 42  1  0
 13 43  1  0
 13 44  1  0
 15 45  1  0
 16 46  1  0
 17 47  1  0
 18 48  1  0
 20 49  1  0
 20 50  1  0
 20 51  1  0
 23 52  1  0
 25 53  1  0
 26 54  1  0
 27 55  1  0
 28 56  1  0
 30 57  1  0
M  END
>  <UniqueID>  (48) 
46

>  <SMILES>  (48) 
COc1ccccc1Cn1c(SCc2ccccc2C)nc2cc3ccccc3cc2c1=O

>  <Energy>  (48) 
75.67639192261349

>  <Genealogy>  (48) 
COc1ccccc1Cn1c(SCc2ccccc2C)nc2cc3ccccc3cc2c1=O (3D coordinates assigned)
COc1ccccc1Cn1c(SCc2ccccc2C)nc2cc3ccccc3cc2c1=O (optimized conformer: 75.67639192261349 kcal/mol)

>  <smiles>  (48) 
COc1ccccc1Cn1c(SCc2ccccc2C)nc2cc3ccccc3cc2c1=O

>  <score_type>  (48) 
oracle

>  <origin>  (48) 
adg

>  <m_score__min__energy>  (48) 
-10.58

>  <m_primary>  (48) 
energy

$$$$
