0:0
     RDKit          3D

 30 32  0  0  0  0  0  0  0  0999 V2000
    1.3410   24.5850  -26.4620 C   0  0  0  0  0  0  0  0  0  0  0  0
    1.1670   24.2560  -27.8360 O   0  0  0  0  0  0  0  0  0  0  0  0
   -0.0790   24.1280  -28.4690 C   0  0  0  0  0  0  0  0  0  0  0  0
   -0.3390   23.1360  -29.4320 C   0  0  0  0  0  0  0  0  0  0  0  0
   -1.5970   23.0470  -30.0340 C   0  0  0  0  0  0  0  0  0  0  0  0
   -2.6230   23.9480  -29.6850 C   0  0  0  0  0  0  0  0  0  0  0  0
   -3.9270   23.8730  -30.2980 N   0  0  0  0  0  0  0  0  0  0  0  0
   -4.7150   22.7820  -30.4140 C   0  0  0  0  0  0  0  0  0  0  0  0
   -5.8780   23.1560  -31.0550 C   0  0  0  0  0  0  0  0  0  0  0  0
   -7.0300   22.3050  -31.3930 C   0  0  0  0  0  0  0  0  0  0  0  0
   -8.3450   22.7330  -31.5560 C   0  0  0  0  0  0  0  0  0  0  0  0
   -9.2280   21.6950  -31.8750 C   0  0  0  0  0  0  0  0  0  0  0  0
   -8.6060   20.4580  -31.9620 C   0  0  0  0  0  0  0  0  0  0  0  0
   -9.3960   18.9410  -32.3410 Cl  0  0  0  0  0  0  0  0  0  0  0  0
   -6.9670   20.6410  -31.6460 S   0  0  0  0  0  0  0  0  0  0  0  0
   -5.7350   24.5060  -31.3050 C   0  0  0  0  0  0  0  0  0  0  0  0
   -4.5430   24.9190  -30.8340 N   0  0  0  0  0  0  0  0  0  0  0  0
   -2.3520   24.9410  -28.7270 C   0  0  0  0  0  0  0  0  0  0  0  0
   -1.0940   25.0260  -28.1260 C   0  0  0  0  0  0  0  0  0  0  0  0
    0.9178   23.7849  -25.8369 H   0  0  0  0  0  0  0  0  0  0  0  0
    2.4138   24.6923  -26.2437 H   0  0  0  0  0  0  0  0  0  0  0  0
    0.8259   25.5321  -26.2437 H   0  0  0  0  0  0  0  0  0  0  0  0
    0.4528   22.4260  -29.7129 H   0  0  0  0  0  0  0  0  0  0  0  0
   -1.7880   22.2675  -30.7863 H   0  0  0  0  0  0  0  0  0  0  0  0
   -4.4714   21.7699  -30.0586 H   0  0  0  0  0  0  0  0  0  0  0  0
   -8.6583   23.7816  -31.4452 H   0  0  0  0  0  0  0  0  0  0  0  0
  -10.3052   21.8447  -32.0399 H   0  0  0  0  0  0  0  0  0  0  0  0
   -6.4768   25.1431  -31.8088 H   0  0  0  0  0  0  0  0  0  0  0  0
   -3.1384   25.6578  -28.4482 H   0  0  0  0  0  0  0  0  0  0  0  0
   -0.9002   25.8068  -27.3758 H   0  0  0  0  0  0  0  0  0  0  0  0
  1  2  1  0
  2  3  1  0
  3  4  2  0
  4  5  1  0
  5  6  2  0
  6  7  1  0
  7  8  1  0
  8  9  2  0
  9 10  1  0
 10 11  2  0
 11 12  1  0
 12 13  2  0
 13 14  1  0
 13 15  1  0
  9 16  1  0
 16 17  2  0
  6 18  1  0
 18 19  2  0
 19  3  1  0
 17  7  1  0
 15 10  1  0
  1 20  1  0
  1 21  1  0
  1 22  1  0
  4 23  1  0
  5 24  1  0
  8 25  1  0
 11 26  1  0
 12 27  1  0
 16 28  1  0
 18 29  1  0
 19 30  1  0
M  END
>  <UniqueID>  (1) 
1

>  <SMILES>  (1) 
COc1ccc(-n2cc(-c3ccc(Cl)s3)cn2)cc1

>  <Energy>  (1) 
90.72670825306585

>  <Genealogy>  (1) 
COc1ccc(-n2cc(-c3ccc(Cl)s3)cn2)cc1 (3D coordinates assigned)
COc1ccc(-n2cc(-c3ccc(Cl)s3)cn2)cc1 (optimized conformer: 90.72670825306585 kcal/mol)

>  <smiles>  (1) 
COc1ccc(-n2cc(-c3ccc(Cl)s3)cn2)cc1

>  <score_type>  (1) 
oracle

>  <origin>  (1) 
adg

>  <m_score__min__energy>  (1) 
-7.2800000000000002

>  <m_primary>  (1) 
energy

$$$$
1:0
     RDKit          3D

 52 56  0  0  0  0  0  0  0  0999 V2000
   -6.5791   26.4139  -30.7696 H   0  0  0  0  0  0  0  0  0  0  0  0
   -5.8920   25.5550  -30.7530 C   0  0  0  0  0  0  0  0  0  0  0  0
   -4.6440   25.7010  -30.2500 N   0  0  0  0  0  0  0  0  0  0  0  0
   -3.7750   24.6600  -30.2350 C   0  0  0  0  0  0  0  0  0  0  0  0
   -2.5910   24.8220  -29.7200 N   0  0  0  0  0  0  0  0  0  0  0  0
   -2.0400   24.0690  -28.6240 C   0  0  0  0  0  0  0  0  0  0  0  0
   -2.3150   22.6970  -28.4870 C   0  0  0  0  0  0  0  0  0  0  0  0
   -2.9747   22.1982  -29.2123 H   0  0  0  0  0  0  0  0  0  0  0  0
   -1.7590   21.9630  -27.4400 C   0  0  0  0  0  0  0  0  0  0  0  0
   -1.9918   20.8932  -27.3332 H   0  0  0  0  0  0  0  0  0  0  0  0
   -0.9080   22.5860  -26.5290 C   0  0  0  0  0  0  0  0  0  0  0  0
   -0.4759   22.0090  -25.6982 H   0  0  0  0  0  0  0  0  0  0  0  0
   -0.6030   23.9410  -26.6690 C   0  0  0  0  0  0  0  0  0  0  0  0
    0.0676   24.4272  -25.9452 H   0  0  0  0  0  0  0  0  0  0  0  0
   -1.1460   24.6880  -27.7270 C   0  0  0  0  0  0  0  0  0  0  0  0
   -0.8410   26.1590  -27.8150 C   0  0  0  0  0  0  0  0  0  0  0  0
   -0.7544   26.5768  -26.8011 H   0  0  0  0  0  0  0  0  0  0  0  0
    0.1066   26.3054  -28.3541 H   0  0  0  0  0  0  0  0  0  0  0  0
   -1.6523   26.6701  -28.3541 H   0  0  0  0  0  0  0  0  0  0  0  0
   -4.1680   23.4470  -30.7060 N   0  0  0  0  0  0  0  0  0  0  0  0
   -5.4130   23.2500  -31.2120 C   0  0  0  0  0  0  0  0  0  0  0  0
   -5.8090   21.8940  -31.6380 C   0  0  0  0  0  0  0  0  0  0  0  0
   -4.9730   20.8740  -32.1230 C   0  0  0  0  0  0  0  0  0  0  0  0
   -3.4940   20.9020  -32.2400 C   0  0  0  0  0  0  0  0  0  0  0  0
   -2.6990   20.6230  -31.1150 C   0  0  0  0  0  0  0  0  0  0  0  0
   -3.1753   20.4227  -30.1439 H   0  0  0  0  0  0  0  0  0  0  0  0
   -1.3050   20.5990  -31.2250 C   0  0  0  0  0  0  0  0  0  0  0  0
   -0.6928   20.3712  -30.3399 H   0  0  0  0  0  0  0  0  0  0  0  0
   -0.6810   20.8620  -32.4500 C   0  0  0  0  0  0  0  0  0  0  0  0
    0.7150   20.8230  -32.5040 O   0  0  0  0  0  0  0  0  0  0  0  0
    1.5010   19.6570  -32.2760 C   0  0  0  0  0  0  0  0  0  0  0  0
    1.6105   19.4945  -31.1936 H   0  0  0  0  0  0  0  0  0  0  0  0
    1.0050   18.7860  -32.7292 H   0  0  0  0  0  0  0  0  0  0  0  0
    2.4944   19.7901  -32.7292 H   0  0  0  0  0  0  0  0  0  0  0  0
   -1.4730   21.1630  -33.5750 C   0  0  0  0  0  0  0  0  0  0  0  0
   -0.9942   21.3703  -34.5434 H   0  0  0  0  0  0  0  0  0  0  0  0
   -2.8670   21.1990  -33.4640 C   0  0  0  0  0  0  0  0  0  0  0  0
   -3.4777   21.4615  -34.3404 H   0  0  0  0  0  0  0  0  0  0  0  0
   -5.7330   19.8410  -32.5430 N   0  0  0  0  0  0  0  0  0  0  0  0
   -5.4030   18.9410  -32.9580 H   0  0  0  0  0  0  0  0  0  0  0  0
   -6.9970   20.1680  -32.3590 N   0  0  0  0  0  0  0  0  0  0  0  0
   -8.0800   19.4270  -32.7030 C   0  0  0  0  0  0  0  0  0  0  0  0
   -7.9618   18.4213  -33.1325 H   0  0  0  0  0  0  0  0  0  0  0  0
   -9.3550   19.9760  -32.4970 C   0  0  0  0  0  0  0  0  0  0  0  0
  -10.2543   19.3991  -32.7588 H   0  0  0  0  0  0  0  0  0  0  0  0
   -9.4770   21.2680  -31.9540 C   0  0  0  0  0  0  0  0  0  0  0  0
  -10.4745   21.7034  -31.7944 H   0  0  0  0  0  0  0  0  0  0  0  0
   -8.3300   22.0040  -31.6150 C   0  0  0  0  0  0  0  0  0  0  0  0
   -8.4066   23.0203  -31.2011 H   0  0  0  0  0  0  0  0  0  0  0  0
   -7.0850   21.3970  -31.8230 C   0  0  0  0  0  0  0  0  0  0  0  0
   -6.3120   24.3200  -31.2510 C   0  0  0  0  0  0  0  0  0  0  0  0
   -7.3238   24.1923  -31.6632 H   0  0  0  0  0  0  0  0  0  0  0  0
  1  2  1  0
  2  3  1  0
  3  4  1  0
  4  5  2  0
  5  6  1  0
  6  7  2  0
  7  8  1  0
  7  9  1  0
  9 10  1  0
  9 11  2  0
 11 12  1  0
 11 13  1  0
 13 14  1  0
 13 15  2  0
 15 16  1  0
 16 17  1  0
 16 18  1  0
 16 19  1  0
  4 20  1  0
 20 21  2  0
 21 22  1  0
 22 23  1  0
 23 24  1  0
 24 25  2  0
 25 26  1  0
 25 27  1  0
 27 28  1  0
 27 29  2  0
 29 30  1  0
 30 31  1  0
 31 32  1  0
 31 33  1  0
 31 34  1  0
 29 35  1  0
 35 36  1  0
 35 37  2  0
 37 38  1  0
 23 39  2  0
 39 40  1  0
 39 41  1  0
 41 42  1  0
 42 43  1  0
 42 44  2  0
 44 45  1  0
 44 46  1  0
 46 47  1  0
 46 48  2  0
 48 49  1  0
 48 50  1  0
 21 51  1  0
 51 52  1  0
 51  2  2  0
 15  6  1  0
 50 22  2  0
 37 24  1  0
 50 41  1  0
M  CHG  2   3  -1  39   1
M  END
>  <UniqueID>  (2) 
2

>  <SMILES>  (2) 
COc1ccc(-c2[nH+]n3ccccc3c2-c2cc[n-]/c(=N/c3ccccc3C)n2)cc1

>  <Energy>  (2) 
107.07923876394261

>  <Genealogy>  (2) 
COc1ccc(-c2[nH+]n3ccccc3c2-c2cc[n-]c(=Nc3ccccc3C)n2)cc1 (protonated)
COc1ccc(-c2[nH+]n3ccccc3c2-c2cc[n-]/c(=N/c3ccccc3C)n2)cc1 (cis-trans isomerization)
COc1ccc(-c2[nH+]n3ccccc3c2-c2cc[n-]/c(=N/c3ccccc3C)n2)cc1 (3D coordinates assigned)
COc1ccc(-c2[nH+]n3ccccc3c2-c2cc[n-]/c(=N/c3ccccc3C)n2)cc1 (optimized conformer: 107.07923876394261 kcal/mol)

>  <smiles>  (2) 
COc1ccc(-c2nn3ccccc3c2-c2cc[nH]c(=Nc3ccccc3C)n2)cc1

>  <score_type>  (2) 
oracle

>  <origin>  (2) 
adg

>  <m_score__min__energy>  (2) 
-11.06

>  <m_primary>  (2) 
energy

$$$$
2:0
     RDKit          3D

 34 35  0  0  0  0  0  0  0  0999 V2000
   -3.3720   23.2260  -31.2090 O   0  0  0  0  0  0  0  0  0  0  0  0
   -3.4830   24.2010  -30.4220 C   0  0  0  0  0  0  0  0  0  0  0  0
   -4.2650   25.3280  -30.8410 N   0  0  0  0  0  0  0  0  0  0  0  0
   -5.5770   25.7000  -30.3260 C   0  0  0  0  0  0  0  0  0  0  0  0
   -6.4180   24.4330  -30.1060 C   0  0  0  0  0  0  0  0  0  0  0  0
   -6.2650   23.4550  -31.2120 N   0  0  0  0  0  0  0  0  0  0  0  0
   -6.0290   22.0970  -30.6520 C   0  0  0  0  0  0  0  0  0  0  0  0
   -6.2840   21.0000  -31.6920 C   0  0  0  0  0  0  0  0  0  0  0  0
   -7.7550   21.0020  -32.1460 C   0  0  0  0  0  0  0  0  0  0  0  0
   -8.4250   22.3750  -31.9680 C   0  0  0  0  0  0  0  0  0  0  0  0
   -7.4130   23.5140  -32.1680 C   0  0  0  0  0  0  0  0  0  0  0  0
   -2.7640   24.1530  -29.1340 C   0  0  0  0  0  0  0  0  0  0  0  0
   -2.8820   23.1940  -28.1310 C   0  0  0  0  0  0  0  0  0  0  0  0
   -2.0070   23.4040  -27.0580 C   0  0  0  0  0  0  0  0  0  0  0  0
   -1.1870   24.5130  -27.2120 C   0  0  0  0  0  0  0  0  0  0  0  0
   -1.5470   25.2270  -28.6890 S   0  0  0  0  0  0  0  0  0  0  0  0
   -5.4586   26.2322  -29.3706 H   0  0  0  0  0  0  0  0  0  0  0  0
   -6.0832   26.3554  -31.0501 H   0  0  0  0  0  0  0  0  0  0  0  0
   -6.1008   23.9568  -29.1665 H   0  0  0  0  0  0  0  0  0  0  0  0
   -7.4753   24.7340  -30.0674 H   0  0  0  0  0  0  0  0  0  0  0  0
   -5.3990   23.7060  -31.7490 H   0  0  0  0  0  0  0  0  0  0  0  0
   -4.9853   22.0288  -30.3112 H   0  0  0  0  0  0  0  0  0  0  0  0
   -6.7284   21.9454  -29.8167 H   0  0  0  0  0  0  0  0  0  0  0  0
   -5.6378   21.1746  -32.5649 H   0  0  0  0  0  0  0  0  0  0  0  0
   -6.0593   20.0248  -31.2353 H   0  0  0  0  0  0  0  0  0  0  0  0
   -7.7962   20.7247  -33.2097 H   0  0  0  0  0  0  0  0  0  0  0  0
   -8.2992   20.2809  -31.5185 H   0  0  0  0  0  0  0  0  0  0  0  0
   -9.2335   22.4788  -32.7067 H   0  0  0  0  0  0  0  0  0  0  0  0
   -8.8254   22.4387  -30.9454 H   0  0  0  0  0  0  0  0  0  0  0  0
   -7.0181   23.4551  -33.1930 H   0  0  0  0  0  0  0  0  0  0  0  0
   -7.9439   24.4597  -31.9841 H   0  0  0  0  0  0  0  0  0  0  0  0
   -3.5919   22.3550  -28.1771 H   0  0  0  0  0  0  0  0  0  0  0  0
   -1.9728   22.7500  -26.1742 H   0  0  0  0  0  0  0  0  0  0  0  0
   -0.4327   24.8634  -26.4921 H   0  0  0  0  0  0  0  0  0  0  0  0
  1  2  2  0
  2  3  1  0
  3  4  1  0
  4  5  1  0
  5  6  1  0
  6  7  1  0
  7  8  1  0
  8  9  1  0
  9 10  1  0
 10 11  1  0
  2 12  1  0
 12 13  2  0
 13 14  1  0
 14 15  2  0
 15 16  1  0
 11  6  1  0
 16 12  1  0
  4 17  1  0
  4 18  1  0
  5 19  1  0
  5 20  1  0
  6 21  1  0
  7 22  1  0
  7 23  1  0
  8 24  1  0
  8 25  1  0
  9 26  1  0
  9 27  1  0
 10 28  1  0
 10 29  1  0
 11 30  1  0
 11 31  1  0
 13 32  1  0
 14 33  1  0
 15 34  1  0
M  CHG  2   3  -1   6   1
M  END
>  <UniqueID>  (3) 
3

>  <SMILES>  (3) 
O=C([N-]CC[NH+]1CCCCC1)c1cccs1

>  <Energy>  (3) 
68.15269575030185

>  <Genealogy>  (3) 
O=C([N-]CC[NH+]1CCCCC1)c1cccs1 (protonated)
O=C([N-]CC[NH+]1CCCCC1)c1cccs1 (3D coordinates assigned)
O=C([N-]CC[NH+]1CCCCC1)c1cccs1 (nonaromatic ring conformer: 68.15269575030185 kcal/mol)

>  <smiles>  (3) 
O=C(NCCN1CCCCC1)c1cccs1

>  <score_type>  (3) 
oracle

>  <origin>  (3) 
adg

>  <m_score__min__energy>  (3) 
-6.54

>  <m_primary>  (3) 
energy

$$$$
3:0
     RDKit          3D

 47 49  0  0  0  0  0  0  0  0999 V2000
   -0.5970   23.1200  -28.0380 C   0  0  0  0  0  0  0  0  0  0  0  0
   -0.8750   24.3260  -28.9340 C   0  0  0  0  0  0  0  0  0  0  0  0
   -1.8660   25.2380  -28.3160 N   0  0  0  0  0  0  0  0  0  0  0  0
   -1.2620   26.0780  -27.2580 C   0  0  0  0  0  0  0  0  0  0  0  0
   -1.9750   25.8630  -25.9250 C   0  0  0  0  0  0  0  0  0  0  0  0
   -3.1010   24.5540  -27.8570 C   0  0  0  0  0  0  0  0  0  0  0  0
   -4.0040   24.0800  -28.9800 C   0  0  0  0  0  0  0  0  0  0  0  0
   -5.1350   24.8230  -29.3530 C   0  0  0  0  0  0  0  0  0  0  0  0
   -5.9640   24.3820  -30.3890 C   0  0  0  0  0  0  0  0  0  0  0  0
   -5.6600   23.1980  -31.0840 C   0  0  0  0  0  0  0  0  0  0  0  0
   -6.4750   22.7120  -32.1180 O   0  0  0  0  0  0  0  0  0  0  0  0
   -6.7800   21.3610  -32.3550 C   0  0  0  0  0  0  0  0  0  0  0  0
   -7.9700   20.8660  -31.9810 C   0  0  0  0  0  0  0  0  0  0  0  0
   -8.4160   19.1990  -32.2430 S   0  0  0  0  0  0  0  0  0  0  0  0
   -8.6500   18.5310  -30.9180 O   0  0  0  0  0  0  0  0  0  0  0  0
   -9.6610   19.1420  -33.0830 O   0  0  0  0  0  0  0  0  0  0  0  0
   -7.1060   18.4040  -33.0820 C   0  0  0  0  0  0  0  0  0  0  0  0
   -7.2340   17.0490  -33.4170 C   0  0  0  0  0  0  0  0  0  0  0  0
   -6.2040   16.3900  -34.0880 C   0  0  0  0  0  0  0  0  0  0  0  0
   -5.0390   17.0790  -34.4270 C   0  0  0  0  0  0  0  0  0  0  0  0
   -4.9040   18.4290  -34.0950 C   0  0  0  0  0  0  0  0  0  0  0  0
   -5.9350   19.1120  -33.4180 C   0  0  0  0  0  0  0  0  0  0  0  0
   -5.7640   20.5540  -33.0740 C   0  0  0  0  0  0  0  0  0  0  0  0
   -4.6940   21.1340  -33.4060 O   0  0  0  0  0  0  0  0  0  0  0  0
   -4.5350   22.4560  -30.7120 C   0  0  0  0  0  0  0  0  0  0  0  0
   -3.7050   22.8960  -29.6770 C   0  0  0  0  0  0  0  0  0  0  0  0
   -0.6669   23.4232  -26.9829 H   0  0  0  0  0  0  0  0  0  0  0  0
   -1.3372   22.3325  -28.2430 H   0  0  0  0  0  0  0  0  0  0  0  0
    0.4132   22.7360  -28.2430 H   0  0  0  0  0  0  0  0  0  0  0  0
    0.0641   24.8750  -29.0977 H   0  0  0  0  0  0  0  0  0  0  0  0
   -1.2846   23.9629  -29.8882 H   0  0  0  0  0  0  0  0  0  0  0  0
   -0.2007   25.8110  -27.1469 H   0  0  0  0  0  0  0  0  0  0  0  0
   -1.3617   27.1350  -27.5458 H   0  0  0  0  0  0  0  0  0  0  0  0
   -1.2794   26.0728  -25.0991 H   0  0  0  0  0  0  0  0  0  0  0  0
   -2.8389   26.5406  -25.8578 H   0  0  0  0  0  0  0  0  0  0  0  0
   -2.3203   24.8208  -25.8578 H   0  0  0  0  0  0  0  0  0  0  0  0
   -2.8083   23.6795  -27.2574 H   0  0  0  0  0  0  0  0  0  0  0  0
   -3.6759   25.2935  -27.2803 H   0  0  0  0  0  0  0  0  0  0  0  0
   -5.3709   25.7594  -28.8262 H   0  0  0  0  0  0  0  0  0  0  0  0
   -6.8572   24.9634  -30.6613 H   0  0  0  0  0  0  0  0  0  0  0  0
   -8.6916   21.5361  -31.4908 H   0  0  0  0  0  0  0  0  0  0  0  0
   -8.1507   16.5030  -33.1496 H   0  0  0  0  0  0  0  0  0  0  0  0
   -6.3101   15.3269  -34.3500 H   0  0  0  0  0  0  0  0  0  0  0  0
   -4.2267   16.5589  -34.9558 H   0  0  0  0  0  0  0  0  0  0  0  0
   -3.9825   18.9656  -34.3649 H   0  0  0  0  0  0  0  0  0  0  0  0
   -4.3012   21.5186  -31.2379 H   0  0  0  0  0  0  0  0  0  0  0  0
   -2.8127   22.3126  -29.4062 H   0  0  0  0  0  0  0  0  0  0  0  0
  1  2  1  0
  2  3  1  0
  3  4  1  0
  4  5  1  0
  3  6  1  0
  6  7  1  0
  7  8  2  0
  8  9  1  0
  9 10  2  0
 10 11  1  0
 11 12  1  0
 12 13  2  0
 13 14  1  0
 14 15  2  0
 14 16  2  0
 14 17  1  0
 17 18  2  0
 18 19  1  0
 19 20  2  0
 20 21  1  0
 21 22  2  0
 22 23  1  0
 23 24  2  0
 10 25  1  0
 25 26  2  0
 26  7  1  0
 23 12  1  0
 22 17  1  0
  1 27  1  0
  1 28  1  0
  1 29  1  0
  2 30  1  0
  2 31  1  0
  4 32  1  0
  4 33  1  0
  5 34  1  0
  5 35  1  0
  5 36  1  0
  6 37  1  0
  6 38  1  0
  8 39  1  0
  9 40  1  0
 13 41  1  0
 18 42  1  0
 19 43  1  0
 20 44  1  0
 21 45  1  0
 25 46  1  0
 26 47  1  0
M  END
>  <UniqueID>  (4) 
4

>  <SMILES>  (4) 
CCN(CC)Cc1ccc(OC2=CS(=O)(=O)c3ccccc3C2=O)cc1

>  <Energy>  (4) 
62.73341316757386

>  <Genealogy>  (4) 
CCN(CC)Cc1ccc(OC2=CS(=O)(=O)c3ccccc3C2=O)cc1 (3D coordinates assigned)
CCN(CC)Cc1ccc(OC2=CS(=O)(=O)c3ccccc3C2=O)cc1 (nonaromatic ring conformer: 62.73341316757386 kcal/mol)

>  <smiles>  (4) 
CCN(CC)Cc1ccc(OC2=CS(=O)(=O)c3ccccc3C2=O)cc1

>  <score_type>  (4) 
oracle

>  <origin>  (4) 
adg

>  <m_score__min__energy>  (4) 
-8.8000000000000007

>  <m_primary>  (4) 
energy

$$$$
4:0
     RDKit          3D

 52 54  0  0  0  0  0  0  0  0999 V2000
   -3.6640   24.2890  -27.1700 C   0  0  0  0  0  0  0  0  0  0  0  0
   -2.2250   24.7070  -27.4520 C   0  0  0  0  0  0  0  0  0  0  0  0
   -1.9590   24.6980  -28.8540 O   0  0  0  0  0  0  0  0  0  0  0  0
   -2.3910   23.7180  -29.7670 C   0  0  0  0  0  0  0  0  0  0  0  0
   -1.7590   22.4680  -29.8870 C   0  0  0  0  0  0  0  0  0  0  0  0
   -2.2190   21.5170  -30.8070 C   0  0  0  0  0  0  0  0  0  0  0  0
   -3.3710   21.7800  -31.5810 C   0  0  0  0  0  0  0  0  0  0  0  0
   -3.9590   23.0570  -31.4980 C   0  0  0  0  0  0  0  0  0  0  0  0
   -3.4920   24.0150  -30.5800 C   0  0  0  0  0  0  0  0  0  0  0  0
   -4.0840   25.2840  -30.4480 O   0  0  0  0  0  0  0  0  0  0  0  0
   -5.4590   25.5950  -30.6810 C   0  0  0  0  0  0  0  0  0  0  0  0
   -6.2400   25.6130  -29.3720 C   0  0  0  0  0  0  0  0  0  0  0  0
   -3.8740   20.7550  -32.6040 C   0  0  2  0  0  0  0  0  0  0  0  0
   -5.4190   20.6340  -32.6060 C   0  0  0  0  0  0  0  0  0  0  0  0
   -5.8700   19.2580  -33.0260 C   0  0  0  0  0  0  0  0  0  0  0  0
   -6.7700   18.5360  -32.2260 C   0  0  0  0  0  0  0  0  0  0  0  0
   -7.2110   17.2720  -32.6240 C   0  0  0  0  0  0  0  0  0  0  0  0
   -6.7680   16.7110  -33.8280 C   0  0  0  0  0  0  0  0  0  0  0  0
   -7.2410   15.4380  -34.1830 O   0  0  0  0  0  0  0  0  0  0  0  0
   -6.4400   14.2600  -34.2050 C   0  0  0  0  0  0  0  0  0  0  0  0
   -5.8710   17.4350  -34.6340 C   0  0  0  0  0  0  0  0  0  0  0  0
   -5.4290   18.7010  -34.2360 C   0  0  0  0  0  0  0  0  0  0  0  0
   -3.2870   19.4180  -32.3830 N   0  0  0  0  0  0  0  0  0  0  0  0
   -1.8330   19.4900  -32.2220 C   0  0  0  0  0  0  0  0  0  0  0  0
   -1.4830   20.2080  -30.9200 C   0  0  0  0  0  0  0  0  0  0  0  0
   -3.8258   24.2420  -26.0830 H   0  0  0  0  0  0  0  0  0  0  0  0
   -4.3527   25.0242  -27.6118 H   0  0  0  0  0  0  0  0  0  0  0  0
   -3.8516   23.2992  -27.6118 H   0  0  0  0  0  0  0  0  0  0  0  0
   -2.0612   25.7219  -27.0606 H   0  0  0  0  0  0  0  0  0  0  0  0
   -1.5481   23.9926  -26.9606 H   0  0  0  0  0  0  0  0  0  0  0  0
   -0.8928   22.2338  -29.2508 H   0  0  0  0  0  0  0  0  0  0  0  0
   -4.7982   23.3097  -32.1627 H   0  0  0  0  0  0  0  0  0  0  0  0
   -5.5293   26.5845  -31.1564 H   0  0  0  0  0  0  0  0  0  0  0  0
   -5.8885   24.8234  -31.3369 H   0  0  0  0  0  0  0  0  0  0  0  0
   -5.5375   25.5968  -28.5257 H   0  0  0  0  0  0  0  0  0  0  0  0
   -6.8523   26.5255  -29.3229 H   0  0  0  0  0  0  0  0  0  0  0  0
   -6.8937   24.7297  -29.3229 H   0  0  0  0  0  0  0  0  0  0  0  0
   -3.5479   21.1333  -33.5841 H   0  0  0  0  0  0  0  0  0  0  0  0
   -5.7939   20.8380  -31.5922 H   0  0  0  0  0  0  0  0  0  0  0  0
   -5.8190   21.3612  -33.3279 H   0  0  0  0  0  0  0  0  0  0  0  0
   -7.1297   18.9682  -31.2806 H   0  0  0  0  0  0  0  0  0  0  0  0
   -7.9118   16.7128  -31.9867 H   0  0  0  0  0  0  0  0  0  0  0  0
   -6.2248   13.9436  -33.1737 H   0  0  0  0  0  0  0  0  0  0  0  0
   -6.9811   13.4584  -34.7291 H   0  0  0  0  0  0  0  0  0  0  0  0
   -5.4956   14.4685  -34.7291 H   0  0  0  0  0  0  0  0  0  0  0  0
   -5.5155   17.0037  -35.5814 H   0  0  0  0  0  0  0  0  0  0  0  0
   -4.7319   19.2629  -34.8750 H   0  0  0  0  0  0  0  0  0  0  0  0
   -3.6970   18.9900  -31.5180 H   0  0  0  0  0  0  0  0  0  0  0  0
   -1.4189   18.4712  -32.1981 H   0  0  0  0  0  0  0  0  0  0  0  0
   -1.4048   20.0489  -33.0672 H   0  0  0  0  0  0  0  0  0  0  0  0
   -1.7593   19.5662  -30.0705 H   0  0  0  0  0  0  0  0  0  0  0  0
   -0.4024   20.4136  -30.9144 H   0  0  0  0  0  0  0  0  0  0  0  0
  1  2  1  0
  2  3  1  0
  3  4  1  0
  4  5  2  0
  5  6  1  0
  6  7  2  0
  7  8  1  0
  8  9  2  0
  9 10  1  0
 10 11  1  0
 11 12  1  0
  7 13  1  0
 13 14  1  0
 14 15  1  0
 15 16  2  0
 16 17  1  0
 17 18  2  0
 18 19  1  0
 19 20  1  0
 18 21  1  0
 21 22  2  0
 13 23  1  0
 23 24  1  0
 24 25  1  0
  9  4  1  0
 22 15  1  0
 25  6  1  0
  1 26  1  0
  1 27  1  0
  1 28  1  0
  2 29  1  0
  2 30  1  0
  5 31  1  0
  8 32  1  0
 11 33  1  0
 11 34  1  0
 12 35  1  0
 12 36  1  0
 12 37  1  0
 13 38  1  6
 14 39  1  0
 14 40  1  0
 16 41  1  0
 17 42  1  0
 20 43  1  0
 20 44  1  0
 20 45  1  0
 21 46  1  0
 22 47  1  0
 23 48  1  0
 24 49  1  0
 24 50  1  0
 25 51  1  0
 25 52  1  0
M  END
>  <UniqueID>  (5) 
5

>  <SMILES>  (5) 
CCOc1cc2c(cc1OCC)[C@H](Cc1ccc(OC)cc1)NCC2

>  <Energy>  (5) 
51.62390700720487

>  <Genealogy>  (5) 
CCOc1cc2c(cc1OCC)[C@H](Cc1ccc(OC)cc1)NCC2 (chirality)
CCOc1cc2c(cc1OCC)[C@H](Cc1ccc(OC)cc1)NCC2 (3D coordinates assigned)
CCOc1cc2c(cc1OCC)[C@H](Cc1ccc(OC)cc1)NCC2 (nonaromatic ring conformer: 51.62390700720487 kcal/mol)

>  <smiles>  (5) 
CCOc1cc2c(cc1OCC)C(Cc1ccc(OC)cc1)NCC2

>  <score_type>  (5) 
oracle

>  <origin>  (5) 
adg

>  <m_score__min__energy>  (5) 
-8.6199999999999992

>  <m_primary>  (5) 
energy

$$$$
5:0
     RDKit          3D

 48 51  0  0  1  0  0  0  0  0999 V2000
   -3.2870   24.3350  -29.4840 C   0  0  0  0  0  0  0  0  0  0  0  0
   -4.1870   24.6470  -30.5220 O   0  0  0  0  0  0  0  0  0  0  0  0
   -5.3220   23.9050  -30.7340 C   0  0  0  0  0  0  0  0  0  0  0  0
   -5.7400   23.7400  -32.0460 C   0  0  0  0  0  0  0  0  0  0  0  0
   -6.8840   22.9990  -32.3570 C   0  0  0  0  0  0  0  0  0  0  0  0
   -7.6110   22.4220  -31.3340 C   0  0  0  0  0  0  0  0  0  0  0  0
   -8.7970   21.6590  -31.7000 C   0  0  0  0  0  0  0  0  0  0  0  0
   -9.7430   22.2820  -32.2490 O   0  0  0  0  0  0  0  0  0  0  0  0
   -8.9350   20.3020  -31.4780 O   0  0  0  0  0  0  0  0  0  0  0  0
   -8.1450   19.3410  -32.1960 C   0  0  1  0  0  0  0  0  0  0  0  0
   -7.6460   20.0460  -33.4390 C   0  0  0  0  0  0  0  0  0  0  0  0
   -6.4490   19.3160  -34.0200 C   0  0  2  0  0  0  0  0  0  0  0  0
   -6.4480   17.8620  -33.6400 C   0  0  0  0  0  0  0  0  0  0  0  0
   -5.8860   18.3650  -32.3570 C   0  0  2  0  0  0  0  0  0  0  0  0
   -6.9630   18.8770  -31.4110 C   0  0  0  0  0  0  0  0  0  0  0  0
   -5.3610   19.5180  -33.0890 N   0  0  0  0  0  0  0  0  0  0  0  0
   -4.0910   19.2980  -33.7180 C   0  0  0  0  0  0  0  0  0  0  0  0
   -2.9660   20.0490  -33.1140 C   0  0  0  0  0  0  0  0  0  0  0  0
   -1.6470   19.8860  -33.4720 C   0  0  0  0  0  0  0  0  0  0  0  0
   -0.6120   20.6010  -32.9000 C   0  0  0  0  0  0  0  0  0  0  0  0
   -0.8840   21.5220  -31.9300 C   0  0  0  0  0  0  0  0  0  0  0  0
   -2.1960   21.7260  -31.5320 C   0  0  0  0  0  0  0  0  0  0  0  0
   -3.2090   21.0010  -32.1160 C   0  0  0  0  0  0  0  0  0  0  0  0
   -7.2050   22.5790  -30.0250 C   0  0  0  0  0  0  0  0  0  0  0  0
   -6.0730   23.3150  -29.7450 C   0  0  0  0  0  0  0  0  0  0  0  0
   -3.7747   24.5041  -28.5126 H   0  0  0  0  0  0  0  0  0  0  0  0
   -2.9860   23.2801  -29.5644 H   0  0  0  0  0  0  0  0  0  0  0  0
   -2.3976   24.9773  -29.5644 H   0  0  0  0  0  0  0  0  0  0  0  0
   -5.1596   24.2015  -32.8585 H   0  0  0  0  0  0  0  0  0  0  0  0
   -7.2012   22.8770  -33.4032 H   0  0  0  0  0  0  0  0  0  0  0  0
   -8.7592   18.4553  -32.4158 H   0  0  0  0  0  0  0  0  0  0  0  0
   -8.4515   20.0734  -34.1876 H   0  0  0  0  0  0  0  0  0  0  0  0
   -7.3428   21.0687  -33.1704 H   0  0  0  0  0  0  0  0  0  0  0  0
   -6.4194   19.6037  -35.0813 H   0  0  0  0  0  0  0  0  0  0  0  0
   -7.4396   17.3910  -33.5695 H   0  0  0  0  0  0  0  0  0  0  0  0
   -5.9766   17.0735  -34.2451 H   0  0  0  0  0  0  0  0  0  0  0  0
   -5.2723   17.7005  -31.7310 H   0  0  0  0  0  0  0  0  0  0  0  0
   -7.2696   18.0665  -30.7335 H   0  0  0  0  0  0  0  0  0  0  0  0
   -6.5628   19.7176  -30.8251 H   0  0  0  0  0  0  0  0  0  0  0  0
   -3.8591   18.2245  -33.6569 H   0  0  0  0  0  0  0  0  0  0  0  0
   -4.1882   19.6599  -34.7522 H   0  0  0  0  0  0  0  0  0  0  0  0
   -1.4046   19.1497  -34.2525 H   0  0  0  0  0  0  0  0  0  0  0  0
    0.4249   20.4290  -33.2245 H   0  0  0  0  0  0  0  0  0  0  0  0
   -0.0686   22.0977  -31.4678 H   0  0  0  0  0  0  0  0  0  0  0  0
   -2.4267   22.4657  -30.7512 H   0  0  0  0  0  0  0  0  0  0  0  0
   -4.2445   21.1749  -31.7881 H   0  0  0  0  0  0  0  0  0  0  0  0
   -7.7814   22.1194  -29.2086 H   0  0  0  0  0  0  0  0  0  0  0  0
   -5.7609   23.4339  -28.6969 H   0  0  0  0  0  0  0  0  0  0  0  0
  1  2  1  0
  2  3  1  0
  3  4  2  0
  4  5  1  0
  5  6  2  0
  6  7  1  0
  7  8  2  0
  7  9  1  0
  9 10  1  0
 10 11  1  0
 11 12  1  0
 12 13  1  0
 13 14  1  0
 14 15  1  0
 14 16  1  0
 16 17  1  0
 17 18  1  0
 18 19  2  0
 19 20  1  0
 20 21  2  0
 21 22  1  0
 22 23  2  0
  6 24  1  0
 24 25  2  0
 25  3  1  0
 15 10  1  0
 23 18  1  0
 16 12  1  0
  1 26  1  0
  1 27  1  0
  1 28  1  0
  4 29  1  0
  5 30  1  0
 10 31  1  6
 11 32  1  0
 11 33  1  0
 12 34  1  6
 13 35  1  0
 13 36  1  0
 14 37  1  1
 15 38  1  0
 15 39  1  0
 17 40  1  0
 17 41  1  0
 19 42  1  0
 20 43  1  0
 21 44  1  0
 22 45  1  0
 23 46  1  0
 24 47  1  0
 25 48  1  0
M  END
>  <smiles>  (6) 
COc1ccc(C(=O)OC2CC3CC(C2)N3Cc2ccccc2)cc1

>  <score_type>  (6) 
oracle

>  <origin>  (6) 
adg

>  <m_score__min__energy>  (6) 
-9.3300000000000001

>  <m_primary>  (6) 
energy

$$$$
6:0
     RDKit          3D

 56 58  0  0  0  0  0  0  0  0999 V2000
   -2.4660   19.7100  -26.9760 C   0  0  0  0  0  0  0  0  0  0  0  0
   -2.7690   20.8560  -27.9410 C   0  0  0  0  0  0  0  0  0  0  0  0
   -1.6340   21.1140  -28.8590 N   0  0  0  0  0  0  0  0  0  0  0  0
   -0.5640   20.1040  -28.7030 C   0  0  0  0  0  0  0  0  0  0  0  0
   -0.2680   19.4390  -30.0420 C   0  0  0  0  0  0  0  0  0  0  0  0
   -1.1090   22.5030  -28.7950 C   0  0  0  0  0  0  0  0  0  0  0  0
   -2.0480   23.4950  -28.0780 C   0  0  0  0  0  0  0  0  0  0  0  0
   -2.1860   24.7980  -28.8660 C   0  0  0  0  0  0  0  0  0  0  0  0
   -3.5500   24.9240  -29.3750 N   0  0  0  0  0  0  0  0  0  0  0  0
   -4.1100   24.0170  -30.3400 C   0  0  0  0  0  0  0  0  0  0  0  0
   -5.4750   24.0640  -30.6370 C   0  0  0  0  0  0  0  0  0  0  0  0
   -5.9830   23.1690  -31.5790 C   0  0  0  0  0  0  0  0  0  0  0  0
   -7.7210   23.1920  -32.0050 S   0  0  0  0  0  0  0  0  0  0  0  0
   -7.8050   21.4030  -32.1050 C   0  0  0  0  0  0  0  0  0  0  0  0
   -7.0800   20.7170  -33.0880 C   0  0  0  0  0  0  0  0  0  0  0  0
   -7.1280   19.3200  -33.1480 C   0  0  0  0  0  0  0  0  0  0  0  0
   -7.8930   18.6070  -32.2220 C   0  0  0  0  0  0  0  0  0  0  0  0
   -7.9320   17.2520  -32.2740 F   0  0  0  0  0  0  0  0  0  0  0  0
   -8.6190   19.2910  -31.2410 C   0  0  0  0  0  0  0  0  0  0  0  0
   -8.5790   20.6870  -31.1830 C   0  0  0  0  0  0  0  0  0  0  0  0
   -5.1530   22.2840  -32.1880 N   0  0  0  0  0  0  0  0  0  0  0  0
   -3.8230   22.2480  -31.9010 C   0  0  0  0  0  0  0  0  0  0  0  0
   -2.9300   21.2930  -32.6020 C   0  0  0  0  0  0  0  0  0  0  0  0
   -1.5450   21.5340  -32.6790 C   0  0  0  0  0  0  0  0  0  0  0  0
   -0.7000   20.6240  -33.3210 C   0  0  0  0  0  0  0  0  0  0  0  0
   -1.2260   19.4650  -33.8950 C   0  0  0  0  0  0  0  0  0  0  0  0
   -2.6000   19.2160  -33.8300 C   0  0  0  0  0  0  0  0  0  0  0  0
   -3.4480   20.1210  -33.1870 C   0  0  0  0  0  0  0  0  0  0  0  0
   -3.3190   23.1120  -30.9790 N   0  0  0  0  0  0  0  0  0  0  0  0
   -2.5607   20.0681  -25.9402 H   0  0  0  0  0  0  0  0  0  0  0  0
   -3.1779   18.8890  -27.1466 H   0  0  0  0  0  0  0  0  0  0  0  0
   -1.4413   19.3482  -27.1466 H   0  0  0  0  0  0  0  0  0  0  0  0
   -3.6568   20.5957  -28.5361 H   0  0  0  0  0  0  0  0  0  0  0  0
   -2.9447   21.7660  -27.3485 H   0  0  0  0  0  0  0  0  0  0  0  0
    0.3477   20.5950  -28.3318 H   0  0  0  0  0  0  0  0  0  0  0  0
   -0.8959   19.3374  -27.9873 H   0  0  0  0  0  0  0  0  0  0  0  0
    0.1737   18.4466  -29.8688 H   0  0  0  0  0  0  0  0  0  0  0  0
   -1.2026   19.3300  -30.6118 H   0  0  0  0  0  0  0  0  0  0  0  0
    0.4385   20.0604  -30.6118 H   0  0  0  0  0  0  0  0  0  0  0  0
   -0.1489   22.4857  -28.2585 H   0  0  0  0  0  0  0  0  0  0  0  0
   -1.0074   22.8535  -29.8327 H   0  0  0  0  0  0  0  0  0  0  0  0
   -3.0411   23.0344  -27.9705 H   0  0  0  0  0  0  0  0  0  0  0  0
   -1.6187   23.7290  -27.0926 H   0  0  0  0  0  0  0  0  0  0  0  0
   -1.9617   25.6495  -28.2067 H   0  0  0  0  0  0  0  0  0  0  0  0
   -1.4815   24.7891  -29.7107 H   0  0  0  0  0  0  0  0  0  0  0  0
   -4.1830   25.6040  -28.9010 H   0  0  0  0  0  0  0  0  0  0  0  0
   -6.1340   24.7905  -30.1391 H   0  0  0  0  0  0  0  0  0  0  0  0
   -6.4722   21.2774  -33.8136 H   0  0  0  0  0  0  0  0  0  0  0  0
   -6.5633   18.7831  -33.9244 H   0  0  0  0  0  0  0  0  0  0  0  0
   -9.2228   18.7288  -30.5135 H   0  0  0  0  0  0  0  0  0  0  0  0
   -9.1548   21.2228  -30.4140 H   0  0  0  0  0  0  0  0  0  0  0  0
   -1.1243   22.4459  -32.2303 H   0  0  0  0  0  0  0  0  0  0  0  0
    0.3809   20.8213  -33.3740 H   0  0  0  0  0  0  0  0  0  0  0  0
   -0.5598   18.7485  -34.3979 H   0  0  0  0  0  0  0  0  0  0  0  0
   -3.0146   18.3050  -34.2864 H   0  0  0  0  0  0  0  0  0  0  0  0
   -4.5278   19.9169  -33.1372 H   0  0  0  0  0  0  0  0  0  0  0  0
  1  2  1  0
  2  3  1  0
  3  4  1  0
  4  5  1  0
  3  6  1  0
  6  7  1  0
  7  8  1  0
  8  9  1  0
  9 10  1  0
 10 11  2  0
 11 12  1  0
 12 13  1  0
 13 14  1  0
 14 15  2  0
 15 16  1  0
 16 17  2  0
 17 18  1  0
 17 19  1  0
 19 20  2  0
 12 21  2  0
 21 22  1  0
 22 23  1  0
 23 24  2  0
 24 25  1  0
 25 26  2  0
 26 27  1  0
 27 28  2  0
 22 29  2  0
 29 10  1  0
 20 14  1  0
 28 23  1  0
  1 30  1  0
  1 31  1  0
  1 32  1  0
  2 33  1  0
  2 34  1  0
  4 35  1  0
  4 36  1  0
  5 37  1  0
  5 38  1  0
  5 39  1  0
  6 40  1  0
  6 41  1  0
  7 42  1  0
  7 43  1  0
  8 44  1  0
  8 45  1  0
  9 46  1  0
 11 47  1  0
 15 48  1  0
 16 49  1  0
 19 50  1  0
 20 51  1  0
 24 52  1  0
 25 53  1  0
 26 54  1  0
 27 55  1  0
 28 56  1  0
M  END
>  <UniqueID>  (7) 
6

>  <SMILES>  (7) 
CCN(CC)CCCNc1cc(Sc2ccc(F)cc2)nc(-c2ccccc2)n1

>  <Energy>  (7) 
51.73327361841772

>  <Genealogy>  (7) 
CCN(CC)CCCNc1cc(Sc2ccc(F)cc2)nc(-c2ccccc2)n1 (3D coordinates assigned)
CCN(CC)CCCNc1cc(Sc2ccc(F)cc2)nc(-c2ccccc2)n1 (optimized conformer: 51.73327361841772 kcal/mol)

>  <smiles>  (7) 
CCN(CC)CCCNc1cc(Sc2ccc(F)cc2)nc(-c2ccccc2)n1

>  <score_type>  (7) 
oracle

>  <origin>  (7) 
adg

>  <m_score__min__energy>  (7) 
-8.5500000000000007

>  <m_primary>  (7) 
energy

$$$$
7:0
     RDKit          3D

 49 52  0  0  0  0  0  0  0  0999 V2000
   -6.2290   17.5460  -31.0440 C   0  0  0  0  0  0  0  0  0  0  0  0
   -6.1250   18.0190  -32.4290 N   0  0  0  0  0  0  0  0  0  0  0  0
   -7.3330   18.5110  -33.1090 C   0  0  0  0  0  0  0  0  0  0  0  0
   -7.7870   19.8340  -32.5400 C   0  0  0  0  0  0  0  0  0  0  0  0
   -9.1030   20.0020  -32.0720 C   0  0  0  0  0  0  0  0  0  0  0  0
   -9.5190   21.2380  -31.5650 C   0  0  0  0  0  0  0  0  0  0  0  0
   -8.6290   22.3170  -31.5250 C   0  0  0  0  0  0  0  0  0  0  0  0
   -7.3220   22.1630  -31.9950 C   0  0  0  0  0  0  0  0  0  0  0  0
   -6.1080   23.6380  -31.9440 Br  0  0  0  0  0  0  0  0  0  0  0  0
   -6.9030   20.9280  -32.5060 C   0  0  0  0  0  0  0  0  0  0  0  0
   -4.8100   18.2060  -32.9950 C   0  0  0  0  0  0  0  0  0  0  0  0
   -4.3780   17.3940  -34.0080 N   0  0  0  0  0  0  0  0  0  0  0  0
   -3.1520   17.5590  -34.5970 C   0  0  0  0  0  0  0  0  0  0  0  0
   -2.3170   18.5600  -34.1900 N   0  0  0  0  0  0  0  0  0  0  0  0
   -2.7350   19.3700  -33.1840 C   0  0  0  0  0  0  0  0  0  0  0  0
   -3.9460   19.2280  -32.5900 C   0  0  0  0  0  0  0  0  0  0  0  0
   -4.1520   20.2290  -31.7140 N   0  0  0  0  0  0  0  0  0  0  0  0
   -3.0070   20.9580  -31.8010 C   0  0  0  0  0  0  0  0  0  0  0  0
   -2.1140   20.4500  -32.6890 N   0  0  0  0  0  0  0  0  0  0  0  0
   -0.8390   21.0370  -33.1160 C   0  0  2  0  0  0  0  0  0  0  0  0
   -0.8590   21.3040  -34.5040 O   0  0  0  0  0  0  0  0  0  0  0  0
    0.3910   20.9180  -35.0380 C   0  0  1  0  0  0  0  0  0  0  0  0
    0.9820   22.0540  -35.8850 C   0  0  0  0  0  0  0  0  0  0  0  0
    0.2530   23.2410  -35.7220 O   0  0  0  0  0  0  0  0  0  0  0  0
    1.3150   20.5030  -33.8860 C   0  0  2  0  0  0  0  0  0  0  0  0
    2.2080   19.4680  -34.2300 O   0  0  0  0  0  0  0  0  0  0  0  0
    0.3420   20.1220  -32.7960 C   0  0  2  0  0  0  0  0  0  0  0  0
   -0.0370   18.7700  -32.8960 O   0  0  0  0  0  0  0  0  0  0  0  0
   -6.0448   18.3839  -30.3556 H   0  0  0  0  0  0  0  0  0  0  0  0
   -7.2373   17.1426  -30.8690 H   0  0  0  0  0  0  0  0  0  0  0  0
   -5.4829   16.7569  -30.8690 H   0  0  0  0  0  0  0  0  0  0  0  0
   -7.1141   18.6383  -34.1795 H   0  0  0  0  0  0  0  0  0  0  0  0
   -8.1376   17.7760  -32.9591 H   0  0  0  0  0  0  0  0  0  0  0  0
   -9.8079   19.1582  -32.1048 H   0  0  0  0  0  0  0  0  0  0  0  0
  -10.5482   21.3618  -31.1970 H   0  0  0  0  0  0  0  0  0  0  0  0
   -8.9582   23.2867  -31.1235 H   0  0  0  0  0  0  0  0  0  0  0  0
   -5.8761   20.8127  -32.8832 H   0  0  0  0  0  0  0  0  0  0  0  0
   -2.8380   16.8802  -35.4036 H   0  0  0  0  0  0  0  0  0  0  0  0
   -1.3920   18.6980  -34.6520 H   0  0  0  0  0  0  0  0  0  0  0  0
   -2.8228   21.8680  -31.2111 H   0  0  0  0  0  0  0  0  0  0  0  0
   -0.7112   21.9762  -32.5578 H   0  0  0  0  0  0  0  0  0  0  0  0
    0.2716   20.0547  -35.7091 H   0  0  0  0  0  0  0  0  0  0  0  0
    2.0234   22.2273  -35.5760 H   0  0  0  0  0  0  0  0  0  0  0  0
    0.9351   21.7594  -36.9438 H   0  0  0  0  0  0  0  0  0  0  0  0
   -0.7090   22.9980  -35.7740 H   0  0  0  0  0  0  0  0  0  0  0  0
    2.0023   21.3055  -33.5799 H   0  0  0  0  0  0  0  0  0  0  0  0
    1.9800   18.6610  -33.7000 H   0  0  0  0  0  0  0  0  0  0  0  0
    0.7457   20.2329  -31.7788 H   0  0  0  0  0  0  0  0  0  0  0  0
    0.3990   18.4130  -33.7130 H   0  0  0  0  0  0  0  0  0  0  0  0
  1  2  1  0
  2  3  1  0
  3  4  1  0
  4  5  2  0
  5  6  1  0
  6  7  2  0
  7  8  1  0
  8  9  1  0
  8 10  2  0
  2 11  1  0
 11 12  2  0
 12 13  1  0
 13 14  2  0
 14 15  1  0
 15 16  2  0
 16 17  1  0
 17 18  2  0
 18 19  1  0
 19 20  1  0
 20 21  1  0
 21 22  1  0
 22 23  1  0
 23 24  1  0
 22 25  1  0
 25 26  1  0
 25 27  1  0
 27 28  1  0
 10  4  1  0
 16 11  1  0
 27 20  1  0
 19 15  1  0
  1 29  1  0
  1 30  1  0
  1 31  1  0
  3 32  1  0
  3 33  1  0
  5 34  1  0
  6 35  1  0
  7 36  1  0
 10 37  1  0
 13 38  1  0
 14 39  1  0
 18 40  1  0
 20 41  1  1
 22 42  1  6
 23 43  1  0
 23 44  1  0
 24 45  1  0
 25 46  1  1
 26 47  1  0
 27 48  1  1
 28 49  1  0
M  CHG  1  14   1
M  END
>  <UniqueID>  (8) 
7

>  <SMILES>  (8) 
CN(Cc1cccc(Br)c1)c1nc[nH+]c2c1ncn2[C@@H]1O[C@@H](CO)C(O)C1O

>  <Energy>  (8) 
97.826614053854

>  <Genealogy>  (8) 
CN(Cc1cccc(Br)c1)c1nc[nH+]c2c1ncn2C1OC(CO)C(O)C1O (protonated)
CN(Cc1cccc(Br)c1)c1nc[nH+]c2c1ncn2[C@@H]1O[C@@H](CO)C(O)C1O (chirality)
CN(Cc1cccc(Br)c1)c1nc[nH+]c2c1ncn2[C@@H]1O[C@@H](CO)C(O)C1O (3D coordinates assigned)
CN(Cc1cccc(Br)c1)c1nc[nH+]c2c1ncn2[C@@H]1O[C@@H](CO)C(O)C1O (nonaromatic ring conformer: 97.826614053854 kcal/mol)

>  <smiles>  (8) 
CN(Cc1cccc(Br)c1)c1ncnc2c1ncn2C1OC(CO)C(O)C1O

>  <score_type>  (8) 
oracle

>  <origin>  (8) 
adg

>  <m_score__min__energy>  (8) 
-7.8499999999999996

>  <m_primary>  (8) 
energy

$$$$
8:0
     RDKit          3D

 58 61  0  0  0  0  0  0  0  0999 V2000
   -1.4410   24.6370  -26.0530 C   0  0  0  0  0  0  0  0  0  0  0  0
   -1.4380   23.4520  -26.9850 C   0  0  0  0  0  0  0  0  0  0  0  0
   -1.1730   22.1720  -26.4650 C   0  0  0  0  0  0  0  0  0  0  0  0
   -1.1430   21.0560  -27.3050 C   0  0  0  0  0  0  0  0  0  0  0  0
   -1.3840   21.2020  -28.6700 C   0  0  0  0  0  0  0  0  0  0  0  0
   -1.6620   22.4630  -29.2020 C   0  0  0  0  0  0  0  0  0  0  0  0
   -1.6970   23.5990  -28.3730 C   0  0  0  0  0  0  0  0  0  0  0  0
   -1.8830   24.9570  -29.0020 C   0  0  0  0  0  0  0  0  0  0  0  0
   -3.1200   24.9470  -29.7670 N   0  0  0  0  0  0  0  0  0  0  0  0
   -4.3820   24.5510  -29.2370 C   0  0  0  0  0  0  0  0  0  0  0  0
   -4.4620   24.0280  -28.0940 O   0  0  0  0  0  0  0  0  0  0  0  0
   -5.6150   24.7420  -30.0710 C   0  0  0  0  0  0  0  0  0  0  0  0
   -5.4160   24.2780  -31.5250 C   0  0  0  0  0  0  0  0  0  0  0  0
   -5.7400   22.7990  -31.7330 C   0  0  0  0  0  0  0  0  0  0  0  0
   -4.6830   21.8670  -32.0170 C   0  0  0  0  0  0  0  0  0  0  0  0
   -3.2360   22.2660  -32.0330 C   0  0  0  0  0  0  0  0  0  0  0  0
   -4.9720   20.5650  -32.3010 N   0  0  0  0  0  0  0  0  0  0  0  0
   -6.2540   20.1410  -32.3160 C   0  0  0  0  0  0  0  0  0  0  0  0
   -7.3030   20.9830  -32.0880 C   0  0  0  0  0  0  0  0  0  0  0  0
   -8.4240   20.1990  -32.3530 C   0  0  0  0  0  0  0  0  0  0  0  0
   -9.8640   20.5980  -32.3380 C   0  0  0  0  0  0  0  0  0  0  0  0
   -8.0180   18.9570  -32.7130 N   0  0  0  0  0  0  0  0  0  0  0  0
   -6.6920   18.9220  -32.6790 N   0  0  0  0  0  0  0  0  0  0  0  0
   -5.9140   17.7730  -33.0600 C   0  0  0  0  0  0  0  0  0  0  0  0
   -5.2880   17.7010  -34.3210 C   0  0  0  0  0  0  0  0  0  0  0  0
   -4.5310   16.5790  -34.6700 C   0  0  0  0  0  0  0  0  0  0  0  0
   -4.3810   15.5240  -33.7680 C   0  0  0  0  0  0  0  0  0  0  0  0
   -4.9850   15.5910  -32.5110 C   0  0  0  0  0  0  0  0  0  0  0  0
   -5.7440   16.7100  -32.1560 C   0  0  0  0  0  0  0  0  0  0  0  0
   -7.0960   22.3320  -31.7480 C   0  0  0  0  0  0  0  0  0  0  0  0
   -8.2780   23.2320  -31.4880 C   0  0  0  0  0  0  0  0  0  0  0  0
   -1.4401   24.2841  -25.0112 H   0  0  0  0  0  0  0  0  0  0  0  0
   -0.5444   25.2480  -26.2339 H   0  0  0  0  0  0  0  0  0  0  0  0
   -2.3407   25.2435  -26.2339 H   0  0  0  0  0  0  0  0  0  0  0  0
   -0.9878   22.0487  -25.3877 H   0  0  0  0  0  0  0  0  0  0  0  0
   -0.9289   20.0607  -26.8885 H   0  0  0  0  0  0  0  0  0  0  0  0
   -1.3552   20.3222  -29.3296 H   0  0  0  0  0  0  0  0  0  0  0  0
   -1.8555   22.5690  -30.2797 H   0  0  0  0  0  0  0  0  0  0  0  0
   -1.9390   25.7250  -28.2165 H   0  0  0  0  0  0  0  0  0  0  0  0
   -1.0337   25.1853  -29.6627 H   0  0  0  0  0  0  0  0  0  0  0  0
   -6.4369   24.1631  -29.6246 H   0  0  0  0  0  0  0  0  0  0  0  0
   -5.8444   25.8176  -30.0900 H   0  0  0  0  0  0  0  0  0  0  0  0
   -6.0721   24.8748  -32.1756 H   0  0  0  0  0  0  0  0  0  0  0  0
   -4.3531   24.4182  -31.7710 H   0  0  0  0  0  0  0  0  0  0  0  0
   -2.8719   22.3664  -30.9999 H   0  0  0  0  0  0  0  0  0  0  0  0
   -2.6491   21.4962  -32.5554 H   0  0  0  0  0  0  0  0  0  0  0  0
   -3.1266   23.2278  -32.5554 H   0  0  0  0  0  0  0  0  0  0  0  0
  -10.2073   20.6931  -31.2973 H   0  0  0  0  0  0  0  0  0  0  0  0
   -9.9825   21.5628  -32.8528 H   0  0  0  0  0  0  0  0  0  0  0  0
  -10.4622   19.8318  -32.8528 H   0  0  0  0  0  0  0  0  0  0  0  0
   -5.3958   18.5318  -35.0338 H   0  0  0  0  0  0  0  0  0  0  0  0
   -4.0518   16.5271  -35.6588 H   0  0  0  0  0  0  0  0  0  0  0  0
   -3.7876   14.6409  -34.0474 H   0  0  0  0  0  0  0  0  0  0  0  0
   -4.8634   14.7617  -31.7986 H   0  0  0  0  0  0  0  0  0  0  0  0
   -6.2118   16.7591  -31.1616 H   0  0  0  0  0  0  0  0  0  0  0  0
   -8.4231   23.3425  -30.4032 H   0  0  0  0  0  0  0  0  0  0  0  0
   -8.0924   24.2195  -31.9356 H   0  0  0  0  0  0  0  0  0  0  0  0
   -9.1806   22.7904  -31.9356 H   0  0  0  0  0  0  0  0  0  0  0  0
  1  2  1  0
  2  3  2  0
  3  4  1  0
  4  5  2  0
  5  6  1  0
  6  7  2  0
  7  8  1  0
  8  9  1  0
  9 10  1  0
 10 11  2  0
 10 12  1  0
 12 13  1  0
 13 14  1  0
 14 15  2  0
 15 16  1  0
 15 17  1  0
 17 18  2  0
 18 19  1  0
 19 20  1  0
 20 21  1  0
 20 22  2  0
 22 23  1  0
 23 24  1  0
 24 25  2  0
 25 26  1  0
 26 27  2  0
 27 28  1  0
 28 29  2  0
 19 30  2  0
 30 31  1  0
  7  2  1  0
 30 14  1  0
 23 18  1  0
 29 24  1  0
  1 32  1  0
  1 33  1  0
  1 34  1  0
  3 35  1  0
  4 36  1  0
  5 37  1  0
  6 38  1  0
  8 39  1  0
  8 40  1  0
 12 41  1  0
 12 42  1  0
 13 43  1  0
 13 44  1  0
 16 45  1  0
 16 46  1  0
 16 47  1  0
 21 48  1  0
 21 49  1  0
 21 50  1  0
 25 51  1  0
 26 52  1  0
 27 53  1  0
 28 54  1  0
 29 55  1  0
 31 56  1  0
 31 57  1  0
 31 58  1  0
M  CHG  1   9  -1
M  END
>  <UniqueID>  (9) 
8

>  <SMILES>  (9) 
Cc1ccccc1C[N-]C(=O)CCc1c(C)nc2c(c(C)nn2-c2ccccc2)c1C

>  <Energy>  (9) 
101.61447824619451

>  <Genealogy>  (9) 
Cc1ccccc1C[N-]C(=O)CCc1c(C)nc2c(c(C)nn2-c2ccccc2)c1C (protonated)
Cc1ccccc1C[N-]C(=O)CCc1c(C)nc2c(c(C)nn2-c2ccccc2)c1C (3D coordinates assigned)
Cc1ccccc1C[N-]C(=O)CCc1c(C)nc2c(c(C)nn2-c2ccccc2)c1C (optimized conformer: 101.61447824619451 kcal/mol)

>  <smiles>  (9) 
Cc1ccccc1CNC(=O)CCc1c(C)nc2c(c(C)nn2-c2ccccc2)c1C

>  <score_type>  (9) 
oracle

>  <origin>  (9) 
adg

>  <m_score__min__energy>  (9) 
-12.550000000000001

>  <m_primary>  (9) 
energy

$$$$
9:0
     RDKit          3D

 45 47  0  0  0  0  0  0  0  0999 V2000
   -1.2450   25.7760  -27.7490 C   0  0  0  0  0  0  0  0  0  0  0  0
   -1.6140   25.5520  -29.0930 O   0  0  0  0  0  0  0  0  0  0  0  0
   -1.7940   24.1680  -29.3250 C   0  0  0  0  0  0  0  0  0  0  0  0
   -3.1480   23.8970  -29.9190 C   0  0  0  0  0  0  0  0  0  0  0  0
   -4.2300   24.6560  -29.6140 N   0  0  0  0  0  0  0  0  0  0  0  0
   -5.2140   24.0870  -30.3300 C   0  0  0  0  0  0  0  0  0  0  0  0
   -6.5360   24.5120  -30.4100 C   0  0  0  0  0  0  0  0  0  0  0  0
   -6.9680   25.5900  -29.7130 F   0  0  0  0  0  0  0  0  0  0  0  0
   -7.4080   23.8010  -31.2490 C   0  0  0  0  0  0  0  0  0  0  0  0
   -6.9470   22.6770  -31.9660 C   0  0  0  0  0  0  0  0  0  0  0  0
   -5.6070   22.2450  -31.8560 C   0  0  0  0  0  0  0  0  0  0  0  0
   -5.2180   20.9910  -32.5230 C   0  0  0  0  0  0  0  0  0  0  0  0
   -4.7320   21.0360  -33.6860 O   0  0  0  0  0  0  0  0  0  0  0  0
   -5.5120   19.7270  -31.9120 N   0  0  0  0  0  0  0  0  0  0  0  0
   -5.5700   18.5210  -32.6890 C   0  0  0  0  0  0  0  0  0  0  0  0
   -4.4020   17.9890  -33.2820 C   0  0  0  0  0  0  0  0  0  0  0  0
   -3.0630   18.6450  -33.0830 C   0  0  0  0  0  0  0  0  0  0  0  0
   -4.4880   16.8110  -34.0400 C   0  0  0  0  0  0  0  0  0  0  0  0
   -5.7110   16.1600  -34.2010 C   0  0  0  0  0  0  0  0  0  0  0  0
   -6.8640   16.6750  -33.6070 C   0  0  0  0  0  0  0  0  0  0  0  0
   -6.8060   17.8560  -32.8520 C   0  0  0  0  0  0  0  0  0  0  0  0
   -8.0590   18.3990  -32.2200 C   0  0  0  0  0  0  0  0  0  0  0  0
   -4.7470   23.0060  -31.0340 C   0  0  0  0  0  0  0  0  0  0  0  0
   -3.4190   22.8970  -30.8020 N   0  0  0  0  0  0  0  0  0  0  0  0
   -2.4590   21.9610  -31.3860 C   0  0  0  0  0  0  0  0  0  0  0  0
   -1.9932   25.3218  -27.0828 H   0  0  0  0  0  0  0  0  0  0  0  0
   -0.2611   25.3226  -27.5585 H   0  0  0  0  0  0  0  0  0  0  0  0
   -1.1932   26.8581  -27.5585 H   0  0  0  0  0  0  0  0  0  0  0  0
   -1.0181   23.8152  -30.0204 H   0  0  0  0  0  0  0  0  0  0  0  0
   -1.7181   23.6371  -28.3646 H   0  0  0  0  0  0  0  0  0  0  0  0
   -8.4556   24.1216  -31.3479 H   0  0  0  0  0  0  0  0  0  0  0  0
   -7.6412   22.1292  -32.6202 H   0  0  0  0  0  0  0  0  0  0  0  0
   -6.0020   19.7300  -30.9880 H   0  0  0  0  0  0  0  0  0  0  0  0
   -2.8598   18.7445  -32.0065 H   0  0  0  0  0  0  0  0  0  0  0  0
   -2.2799   18.0285  -33.5485 H   0  0  0  0  0  0  0  0  0  0  0  0
   -3.0702   19.6416  -33.5485 H   0  0  0  0  0  0  0  0  0  0  0  0
   -3.5838   16.3979  -34.5108 H   0  0  0  0  0  0  0  0  0  0  0  0
   -5.7668   15.2378  -34.7980 H   0  0  0  0  0  0  0  0  0  0  0  0
   -7.8237   16.1520  -33.7315 H   0  0  0  0  0  0  0  0  0  0  0  0
   -7.9647   18.3581  -31.1248 H   0  0  0  0  0  0  0  0  0  0  0  0
   -8.2070   19.4420  -32.5366 H   0  0  0  0  0  0  0  0  0  0  0  0
   -8.9213   17.7938  -32.5366 H   0  0  0  0  0  0  0  0  0  0  0  0
   -1.9218   21.4372  -30.5816 H   0  0  0  0  0  0  0  0  0  0  0  0
   -2.9936   21.2278  -32.0078 H   0  0  0  0  0  0  0  0  0  0  0  0
   -1.7396   22.5140  -32.0078 H   0  0  0  0  0  0  0  0  0  0  0  0
  1  2  1  0
  2  3  1  0
  3  4  1  0
  4  5  2  0
  5  6  1  0
  6  7  2  0
  7  8  1  0
  7  9  1  0
  9 10  2  0
 10 11  1  0
 11 12  1  0
 12 13  2  0
 12 14  1  0
 14 15  1  0
 15 16  2  0
 16 17  1  0
 16 18  1  0
 18 19  2  0
 19 20  1  0
 20 21  2  0
 21 22  1  0
 11 23  2  0
 23 24  1  0
 24 25  1  0
 24  4  1  0
 23  6  1  0
 21 15  1  0
  1 26  1  0
  1 27  1  0
  1 28  1  0
  3 29  1  0
  3 30  1  0
  9 31  1  0
 10 32  1  0
 14 33  1  0
 17 34  1  0
 17 35  1  0
 17 36  1  0
 18 37  1  0
 19 38  1  0
 20 39  1  0
 22 40  1  0
 22 41  1  0
 22 42  1  0
 25 43  1  0
 25 44  1  0
 25 45  1  0
M  END
>  <UniqueID>  (10) 
9

>  <SMILES>  (10) 
COCc1nc2c(F)ccc(C(=O)Nc3c(C)cccc3C)c2n1C

>  <Energy>  (10) 
99.2683001047411

>  <Genealogy>  (10) 
COCc1nc2c(F)ccc(C(=O)Nc3c(C)cccc3C)c2n1C (3D coordinates assigned)
COCc1nc2c(F)ccc(C(=O)Nc3c(C)cccc3C)c2n1C (optimized conformer: 99.2683001047411 kcal/mol)

>  <smiles>  (10) 
COCc1nc2c(F)ccc(C(=O)Nc3c(C)cccc3C)c2n1C

>  <score_type>  (10) 
oracle

>  <origin>  (10) 
adg

>  <m_score__min__energy>  (10) 
-8.0999999999999996

>  <m_primary>  (10) 
energy

$$$$
10:0
     RDKit          3D

 31 33  0  0  0  0  0  0  0  0999 V2000
   -9.1120   18.4300  -31.6260 C   0  0  0  0  0  0  0  0  0  0  0  0
   -8.9440   19.5200  -32.6770 C   0  0  0  0  0  0  0  0  0  0  0  0
   -7.5960   20.0940  -32.6040 N   0  0  0  0  0  0  0  0  0  0  0  0
   -7.2380   21.2900  -32.0730 C   0  0  0  0  0  0  0  0  0  0  0  0
   -8.0710   22.2210  -31.4430 C   0  0  0  0  0  0  0  0  0  0  0  0
   -7.4980   23.4110  -30.9670 C   0  0  0  0  0  0  0  0  0  0  0  0
   -6.1210   23.6580  -31.1290 C   0  0  0  0  0  0  0  0  0  0  0  0
   -5.3680   25.2870  -30.4760 Br  0  0  0  0  0  0  0  0  0  0  0  0
   -5.2980   22.7180  -31.7740 C   0  0  0  0  0  0  0  0  0  0  0  0
   -5.8820   21.5340  -32.2410 C   0  0  0  0  0  0  0  0  0  0  0  0
   -5.3820   20.4300  -32.9280 C   0  0  0  0  0  0  0  0  0  0  0  0
   -6.4580   19.5880  -33.1360 C   0  0  0  0  0  0  0  0  0  0  0  0
   -6.3030   18.3940  -33.8390 C   0  0  0  0  0  0  0  0  0  0  0  0
   -5.0240   18.0770  -34.3100 C   0  0  0  0  0  0  0  0  0  0  0  0
   -3.9470   18.9530  -34.0730 C   0  0  0  0  0  0  0  0  0  0  0  0
   -4.1240   20.1290  -33.3840 N   0  0  0  0  0  0  0  0  0  0  0  0
   -2.9760   21.0130  -33.1660 C   0  0  0  0  0  0  0  0  0  0  0  0
   -9.0434   18.8748  -30.6223 H   0  0  0  0  0  0  0  0  0  0  0  0
  -10.0946   17.9509  -31.7484 H   0  0  0  0  0  0  0  0  0  0  0  0
   -8.3193   17.6773  -31.7484 H   0  0  0  0  0  0  0  0  0  0  0  0
   -9.1008   19.0878  -33.6763 H   0  0  0  0  0  0  0  0  0  0  0  0
   -9.6818   20.3142  -32.4900 H   0  0  0  0  0  0  0  0  0  0  0  0
   -9.1469   22.0256  -31.3237 H   0  0  0  0  0  0  0  0  0  0  0  0
   -8.1301   24.1570  -30.4631 H   0  0  0  0  0  0  0  0  0  0  0  0
   -4.2229   22.9078  -31.9083 H   0  0  0  0  0  0  0  0  0  0  0  0
   -7.1570   17.7240  -34.0173 H   0  0  0  0  0  0  0  0  0  0  0  0
   -4.8596   17.1423  -34.8661 H   0  0  0  0  0  0  0  0  0  0  0  0
   -2.9459   18.6912  -34.4461 H   0  0  0  0  0  0  0  0  0  0  0  0
   -2.8110   21.1401  -32.0859 H   0  0  0  0  0  0  0  0  0  0  0  0
   -2.0796   20.5697  -33.6242 H   0  0  0  0  0  0  0  0  0  0  0  0
   -3.1756   21.9929  -33.6242 H   0  0  0  0  0  0  0  0  0  0  0  0
  1  2  1  0
  2  3  1  0
  3  4  1  0
  4  5  2  0
  5  6  1  0
  6  7  2  0
  7  8  1  0
  7  9  1  0
  9 10  2  0
 10 11  1  0
 11 12  2  0
 12 13  1  0
 13 14  2  0
 14 15  1  0
 15 16  2  0
 16 17  1  0
 12  3  1  0
 10  4  1  0
 16 11  1  0
  1 18  1  0
  1 19  1  0
  1 20  1  0
  2 21  1  0
  2 22  1  0
  5 23  1  0
  6 24  1  0
  9 25  1  0
 13 26  1  0
 14 27  1  0
 15 28  1  0
 17 29  1  0
 17 30  1  0
 17 31  1  0
M  CHG  1  16   1
M  END
>  <UniqueID>  (11) 
10

>  <SMILES>  (11) 
CCn1c2ccc(Br)cc2c2c1ccc[n+]2C

>  <Energy>  (11) 
76.46859167784577

>  <Genealogy>  (11) 
CCn1c2ccc(Br)cc2c2c1ccc[n+]2C (3D coordinates assigned)
CCn1c2ccc(Br)cc2c2c1ccc[n+]2C (optimized conformer: 76.46859167784577 kcal/mol)

>  <smiles>  (11) 
CCn1c2ccc(Br)cc2c2c1ccc[n+]2C

>  <score_type>  (11) 
oracle

>  <origin>  (11) 
adg

>  <m_score__min__energy>  (11) 
-7.1900000000000004

>  <m_primary>  (11) 
energy

$$$$
11:0
     RDKit          3D

 31 33  0  0  0  0  0  0  0  0999 V2000
   -2.0100   21.2520  -33.4470 C   0  0  0  0  0  0  0  0  0  0  0  0
   -3.3750   20.7290  -33.1150 C   0  0  0  0  0  0  0  0  0  0  0  0
   -3.6220   19.3470  -33.1080 C   0  0  0  0  0  0  0  0  0  0  0  0
   -4.8890   18.8610  -32.7740 C   0  0  0  0  0  0  0  0  0  0  0  0
   -5.9110   19.7480  -32.4230 C   0  0  0  0  0  0  0  0  0  0  0  0
   -5.6670   21.1270  -32.3840 C   0  0  0  0  0  0  0  0  0  0  0  0
   -6.7290   22.0310  -32.0430 N   0  0  0  0  0  0  0  0  0  0  0  0
   -7.9970   21.8060  -32.3480 N   0  0  0  0  0  0  0  0  0  0  0  0
   -8.6850   22.8870  -31.9310 C   0  0  0  0  0  0  0  0  0  0  0  0
   -7.8740   23.8010  -31.3640 N   0  0  0  0  0  0  0  0  0  0  0  0
   -6.6540   23.2390  -31.4370 C   0  0  0  0  0  0  0  0  0  0  0  0
   -5.4480   23.8320  -30.8230 C   0  0  0  0  0  0  0  0  0  0  0  0
   -4.7030   23.2710  -29.8040 C   0  0  0  0  0  0  0  0  0  0  0  0
   -3.6760   24.1730  -29.6250 C   0  0  0  0  0  0  0  0  0  0  0  0
   -2.5800   24.0700  -28.6190 C   0  0  0  0  0  0  0  0  0  0  0  0
   -3.8220   25.1610  -30.4730 O   0  0  0  0  0  0  0  0  0  0  0  0
   -4.8750   24.9870  -31.2160 N   0  0  0  0  0  0  0  0  0  0  0  0
   -4.4010   21.6150  -32.7470 C   0  0  0  0  0  0  0  0  0  0  0  0
   -1.4616   21.4621  -32.5169 H   0  0  0  0  0  0  0  0  0  0  0  0
   -1.4620   20.5002  -34.0339 H   0  0  0  0  0  0  0  0  0  0  0  0
   -2.1047   22.1775  -34.0339 H   0  0  0  0  0  0  0  0  0  0  0  0
   -2.8158   18.6446  -33.3662 H   0  0  0  0  0  0  0  0  0  0  0  0
   -5.0825   17.7782  -32.7873 H   0  0  0  0  0  0  0  0  0  0  0  0
   -6.9109   19.3615  -32.1764 H   0  0  0  0  0  0  0  0  0  0  0  0
   -9.7729   23.0080  -32.0400 H   0  0  0  0  0  0  0  0  0  0  0  0
   -8.1480   24.7110  -30.9310 H   0  0  0  0  0  0  0  0  0  0  0  0
   -4.8855   22.3299  -29.2646 H   0  0  0  0  0  0  0  0  0  0  0  0
   -3.0071   24.1101  -27.6061 H   0  0  0  0  0  0  0  0  0  0  0  0
   -2.0463   23.1177  -28.7544 H   0  0  0  0  0  0  0  0  0  0  0  0
   -1.8782   24.9061  -28.7544 H   0  0  0  0  0  0  0  0  0  0  0  0
   -4.2116   22.6986  -32.7431 H   0  0  0  0  0  0  0  0  0  0  0  0
  1  2  1  0
  2  3  2  0
  3  4  1  0
  4  5  2  0
  5  6  1  0
  6  7  1  0
  7  8  1  0
  8  9  2  0
  9 10  1  0
 10 11  2  0
 11 12  1  0
 12 13  1  0
 13 14  2  0
 14 15  1  0
 14 16  1  0
 16 17  1  0
  6 18  2  0
 18  2  1  0
 11  7  1  0
 17 12  2  0
  1 19  1  0
  1 20  1  0
  1 21  1  0
  3 22  1  0
  4 23  1  0
  5 24  1  0
  9 25  1  0
 10 26  1  0
 13 27  1  0
 15 28  1  0
 15 29  1  0
 15 30  1  0
 18 31  1  0
M  CHG  1  10   1
M  END
>  <UniqueID>  (12) 
11

>  <SMILES>  (12) 
Cc1cccc(-n2nc[nH+]c2-c2cc(C)on2)c1

>  <Energy>  (12) 
102.34547238524455

>  <Genealogy>  (12) 
Cc1cccc(-n2nc[nH+]c2-c2cc(C)on2)c1 (protonated)
Cc1cccc(-n2nc[nH+]c2-c2cc(C)on2)c1 (3D coordinates assigned)
Cc1cccc(-n2nc[nH+]c2-c2cc(C)on2)c1 (optimized conformer: 102.34547238524455 kcal/mol)

>  <smiles>  (12) 
Cc1cccc(-n2ncnc2-c2cc(C)on2)c1

>  <score_type>  (12) 
oracle

>  <origin>  (12) 
adg

>  <m_score__min__energy>  (12) 
-7.4100000000000001

>  <m_primary>  (12) 
energy

$$$$
12:0
     RDKit          3D

 55 57  0  0  0  0  0  0  0  0999 V2000
   -5.3410   16.2180  -32.3190 C   0  0  0  0  0  0  0  0  0  0  0  0
   -5.7150   17.4170  -31.6500 O   0  0  0  0  0  0  0  0  0  0  0  0
   -6.7740   18.2550  -32.0400 C   0  0  0  0  0  0  0  0  0  0  0  0
   -8.0410   18.1820  -31.4280 C   0  0  0  0  0  0  0  0  0  0  0  0
   -9.0740   19.0290  -31.8390 C   0  0  0  0  0  0  0  0  0  0  0  0
   -8.8560   19.9570  -32.8580 C   0  0  0  0  0  0  0  0  0  0  0  0
   -7.6050   20.0420  -33.4710 C   0  0  0  0  0  0  0  0  0  0  0  0
   -6.5570   19.1950  -33.0710 C   0  0  0  0  0  0  0  0  0  0  0  0
   -5.1970   19.3190  -33.7260 C   0  0  0  0  0  0  0  0  0  0  0  0
   -4.2390   20.0630  -32.8710 N   0  0  0  0  0  0  0  0  0  0  0  0
   -2.9510   19.3340  -32.7940 C   0  0  0  0  0  0  0  0  0  0  0  0
   -1.7510   20.2210  -32.3820 C   0  0  0  0  0  0  0  0  0  0  0  0
   -2.1340   21.4840  -31.7190 N   0  0  0  0  0  0  0  0  0  0  0  0
   -2.1020   21.4760  -30.2420 C   0  0  0  0  0  0  0  0  0  0  0  0
   -3.4400   21.8830  -29.5950 C   0  0  0  0  0  0  0  0  0  0  0  0
   -3.4660   23.3700  -29.2130 C   0  0  0  0  0  0  0  0  0  0  0  0
   -4.3100   24.1780  -30.1680 C   0  0  0  0  0  0  0  0  0  0  0  0
   -3.8690   25.2990  -30.5440 O   0  0  0  0  0  0  0  0  0  0  0  0
   -5.6440   23.7170  -30.6480 C   0  0  0  0  0  0  0  0  0  0  0  0
   -6.4920   23.0020  -29.7770 C   0  0  0  0  0  0  0  0  0  0  0  0
   -7.7430   22.5530  -30.2110 C   0  0  0  0  0  0  0  0  0  0  0  0
   -8.1670   22.8080  -31.5150 C   0  0  0  0  0  0  0  0  0  0  0  0
   -9.3800   22.3690  -31.9330 F   0  0  0  0  0  0  0  0  0  0  0  0
   -7.3410   23.5180  -32.3900 C   0  0  0  0  0  0  0  0  0  0  0  0
   -6.0900   23.9720  -31.9630 C   0  0  0  0  0  0  0  0  0  0  0  0
   -3.2320   22.2550  -32.3440 C   0  0  0  0  0  0  0  0  0  0  0  0
   -4.0290   21.4360  -33.3690 C   0  0  0  0  0  0  0  0  0  0  0  0
   -5.0995   15.4436  -31.5760 H   0  0  0  0  0  0  0  0  0  0  0  0
   -6.1746   15.8743  -32.9490 H   0  0  0  0  0  0  0  0  0  0  0  0
   -4.4598   16.4092  -32.9490 H   0  0  0  0  0  0  0  0  0  0  0  0
   -8.2181   17.4544  -30.6223 H   0  0  0  0  0  0  0  0  0  0  0  0
  -10.0611   18.9639  -31.3581 H   0  0  0  0  0  0  0  0  0  0  0  0
   -9.6711   20.6224  -33.1786 H   0  0  0  0  0  0  0  0  0  0  0  0
   -7.4381   20.7767  -34.2725 H   0  0  0  0  0  0  0  0  0  0  0  0
   -4.7987   18.3109  -33.9130 H   0  0  0  0  0  0  0  0  0  0  0  0
   -5.3201   19.8763  -34.6663 H   0  0  0  0  0  0  0  0  0  0  0  0
   -4.6380   20.1160  -31.9070 H   0  0  0  0  0  0  0  0  0  0  0  0
   -3.0542   18.5260  -32.0548 H   0  0  0  0  0  0  0  0  0  0  0  0
   -2.7368   18.9572  -33.8050 H   0  0  0  0  0  0  0  0  0  0  0  0
   -1.1179   19.6460  -31.6903 H   0  0  0  0  0  0  0  0  0  0  0  0
   -1.2268   20.4959  -33.3092 H   0  0  0  0  0  0  0  0  0  0  0  0
   -1.8472   20.4604  -29.9049 H   0  0  0  0  0  0  0  0  0  0  0  0
   -1.3533   22.2195  -29.9310 H   0  0  0  0  0  0  0  0  0  0  0  0
   -4.2539   21.6853  -30.3081 H   0  0  0  0  0  0  0  0  0  0  0  0
   -3.5652   21.2937  -28.6746 H   0  0  0  0  0  0  0  0  0  0  0  0
   -3.8804   23.4702  -28.1990 H   0  0  0  0  0  0  0  0  0  0  0  0
   -2.4359   23.7532  -29.2580 H   0  0  0  0  0  0  0  0  0  0  0  0
   -6.1662   22.7957  -28.7468 H   0  0  0  0  0  0  0  0  0  0  0  0
   -8.3951   21.9967  -29.5216 H   0  0  0  0  0  0  0  0  0  0  0  0
   -7.6762   23.7203  -33.4180 H   0  0  0  0  0  0  0  0  0  0  0  0
   -5.4473   24.5329  -32.6576 H   0  0  0  0  0  0  0  0  0  0  0  0
   -3.9187   22.5917  -31.5534 H   0  0  0  0  0  0  0  0  0  0  0  0
   -2.7776   23.1016  -32.8795 H   0  0  0  0  0  0  0  0  0  0  0  0
   -5.0049   21.9149  -33.5371 H   0  0  0  0  0  0  0  0  0  0  0  0
   -3.4643   21.3936  -34.3121 H   0  0  0  0  0  0  0  0  0  0  0  0
  1  2  1  0
  2  3  1  0
  3  4  2  0
  4  5  1  0
  5  6  2  0
  6  7  1  0
  7  8  2  0
  8  9  1  0
  9 10  1  0
 10 11  1  0
 11 12  1  0
 12 13  1  0
 13 14  1  0
 14 15  1  0
 15 16  1  0
 16 17  1  0
 17 18  2  0
 17 19  1  0
 19 20  2  0
 20 21  1  0
 21 22  2  0
 22 23  1  0
 22 24  1  0
 24 25  2  0
 13 26  1  0
 26 27  1  0
  8  3  1  0
 27 10  1  0
 25 19  1  0
  1 28  1  0
  1 29  1  0
  1 30  1  0
  4 31  1  0
  5 32  1  0
  6 33  1  0
  7 34  1  0
  9 35  1  0
  9 36  1  0
 10 37  1  0
 11 38  1  0
 11 39  1  0
 12 40  1  0
 12 41  1  0
 14 42  1  0
 14 43  1  0
 15 44  1  0
 15 45  1  0
 16 46  1  0
 16 47  1  0
 20 48  1  0
 21 49  1  0
 24 50  1  0
 25 51  1  0
 26 52  1  0
 26 53  1  0
 27 54  1  0
 27 55  1  0
M  CHG  1  10   1
M  END
>  <UniqueID>  (13) 
12

>  <SMILES>  (13) 
COc1ccccc1C[NH+]1CCN(CCCC(=O)c2ccc(F)cc2)CC1

>  <Energy>  (13) 
70.48778975974483

>  <Genealogy>  (13) 
COc1ccccc1C[NH+]1CCN(CCCC(=O)c2ccc(F)cc2)CC1 (protonated)
COc1ccccc1C[NH+]1CCN(CCCC(=O)c2ccc(F)cc2)CC1 (3D coordinates assigned)
COc1ccccc1C[NH+]1CCN(CCCC(=O)c2ccc(F)cc2)CC1 (nonaromatic ring conformer: 70.48778975974483 kcal/mol)

>  <smiles>  (13) 
COc1ccccc1CN1CCN(CCCC(=O)c2ccc(F)cc2)CC1

>  <score_type>  (13) 
oracle

>  <origin>  (13) 
adg

>  <m_score__min__energy>  (13) 
-8.0199999999999996

>  <m_primary>  (13) 
energy

$$$$
13:0
     RDKit          3D

 39 41  0  0  0  0  0  0  0  0999 V2000
   -3.1840   24.5260  -29.4930 C   0  0  0  0  0  0  0  0  0  0  0  0
   -3.8680   25.2800  -30.4700 O   0  0  0  0  0  0  0  0  0  0  0  0
   -5.2670   25.1890  -30.2760 C   0  0  0  0  0  0  0  0  0  0  0  0
   -5.9600   24.6630  -31.5370 C   0  0  0  0  0  0  0  0  0  0  0  0
   -5.4970   23.3110  -31.8510 N   0  0  0  0  0  0  0  0  0  0  0  0
   -4.2240   22.9540  -31.9150 N   0  0  0  0  0  0  0  0  0  0  0  0
   -4.1480   21.6610  -32.3000 C   0  0  0  0  0  0  0  0  0  0  0  0
   -2.8710   20.9590  -32.5480 C   0  0  0  0  0  0  0  0  0  0  0  0
   -2.3700   20.0240  -31.6280 C   0  0  0  0  0  0  0  0  0  0  0  0
   -1.1670   19.3670  -31.8980 C   0  0  0  0  0  0  0  0  0  0  0  0
   -0.4930   19.6240  -33.0490 N   0  0  0  0  0  0  0  0  0  0  0  0
   -0.9610   20.5130  -33.9650 C   0  0  0  0  0  0  0  0  0  0  0  0
   -0.0510   20.8030  -35.4350 Cl  0  0  0  0  0  0  0  0  0  0  0  0
   -2.1610   21.1920  -33.7340 C   0  0  0  0  0  0  0  0  0  0  0  0
   -5.4440   21.1720  -32.4900 C   0  0  0  0  0  0  0  0  0  0  0  0
   -5.8800   19.7990  -32.8270 C   0  0  0  0  0  0  0  0  0  0  0  0
   -5.3640   19.1490  -33.9610 C   0  0  0  0  0  0  0  0  0  0  0  0
   -5.7800   17.8530  -34.2820 C   0  0  0  0  0  0  0  0  0  0  0  0
   -6.7180   17.1990  -33.4790 C   0  0  0  0  0  0  0  0  0  0  0  0
   -7.1200   15.9420  -33.7930 F   0  0  0  0  0  0  0  0  0  0  0  0
   -7.2450   17.8420  -32.3560 C   0  0  0  0  0  0  0  0  0  0  0  0
   -6.8320   19.1370  -32.0320 C   0  0  0  0  0  0  0  0  0  0  0  0
   -6.2550   22.2560  -32.2000 C   0  0  0  0  0  0  0  0  0  0  0  0
   -7.5150   22.2670  -32.2320 O   0  0  0  0  0  0  0  0  0  0  0  0
   -3.4887   24.8619  -28.4909 H   0  0  0  0  0  0  0  0  0  0  0  0
   -3.4302   23.4607  -29.6132 H   0  0  0  0  0  0  0  0  0  0  0  0
   -2.0998   24.6676  -29.6132 H   0  0  0  0  0  0  0  0  0  0  0  0
   -5.4710   24.5035  -29.4403 H   0  0  0  0  0  0  0  0  0  0  0  0
   -5.6572   26.1930  -30.0530 H   0  0  0  0  0  0  0  0  0  0  0  0
   -7.0472   24.6437  -31.3711 H   0  0  0  0  0  0  0  0  0  0  0  0
   -5.7163   25.3268  -32.3796 H   0  0  0  0  0  0  0  0  0  0  0  0
   -3.4180   23.5960  -31.7350 H   0  0  0  0  0  0  0  0  0  0  0  0
   -2.9213   19.8102  -30.7005 H   0  0  0  0  0  0  0  0  0  0  0  0
   -0.7648   18.6401  -31.1770 H   0  0  0  0  0  0  0  0  0  0  0  0
   -2.5457   21.9047  -34.4783 H   0  0  0  0  0  0  0  0  0  0  0  0
   -4.6294   19.6620  -34.5992 H   0  0  0  0  0  0  0  0  0  0  0  0
   -5.3681   17.3477  -35.1680 H   0  0  0  0  0  0  0  0  0  0  0  0
   -7.9860   17.3281  -31.7261 H   0  0  0  0  0  0  0  0  0  0  0  0
   -7.2540   19.6412  -31.1501 H   0  0  0  0  0  0  0  0  0  0  0  0
  1  2  1  0
  2  3  1  0
  3  4  1  0
  4  5  1  0
  5  6  1  0
  6  7  1  0
  7  8  1  0
  8  9  2  0
  9 10  1  0
 10 11  2  0
 11 12  1  0
 12 13  1  0
 12 14  2  0
  7 15  2  0
 15 16  1  0
 16 17  2  0
 17 18  1  0
 18 19  2  0
 19 20  1  0
 19 21  1  0
 21 22  2  0
 15 23  1  0
 23 24  2  0
 23  5  1  0
 14  8  1  0
 22 16  1  0
  1 25  1  0
  1 26  1  0
  1 27  1  0
  3 28  1  0
  3 29  1  0
  4 30  1  0
  4 31  1  0
  6 32  1  0
  9 33  1  0
 10 34  1  0
 14 35  1  0
 17 36  1  0
 18 37  1  0
 21 38  1  0
 22 39  1  0
M  END
>  <UniqueID>  (14) 
13

>  <SMILES>  (14) 
COCCn1[nH]c(-c2ccnc(Cl)c2)c(-c2ccc(F)cc2)c1=O

>  <Energy>  (14) 
82.23596023611252

>  <Genealogy>  (14) 
COCCn1[nH]c(-c2ccnc(Cl)c2)c(-c2ccc(F)cc2)c1=O (3D coordinates assigned)
COCCn1[nH]c(-c2ccnc(Cl)c2)c(-c2ccc(F)cc2)c1=O (optimized conformer: 82.23596023611252 kcal/mol)

>  <smiles>  (14) 
COCCn1[nH]c(-c2ccnc(Cl)c2)c(-c2ccc(F)cc2)c1=O

>  <score_type>  (14) 
oracle

>  <origin>  (14) 
adg

>  <m_score__min__energy>  (14) 
-7.6600000000000001

>  <m_primary>  (14) 
energy

$$$$
14:0
     RDKit          3D

 27 29  0  0  0  0  0  0  0  0999 V2000
   -5.9200   18.1160  -34.3680 C   0  0  0  0  0  0  0  0  0  0  0  0
   -6.0730   19.3420  -33.5900 N   0  0  0  0  0  0  0  0  0  0  0  0
   -7.2300   19.8450  -33.1060 C   0  0  0  0  0  0  0  0  0  0  0  0
   -6.9940   21.0250  -32.4130 C   0  0  0  0  0  0  0  0  0  0  0  0
   -5.6240   21.2390  -32.4860 C   0  0  0  0  0  0  0  0  0  0  0  0
   -4.7840   22.2540  -31.9850 C   0  0  0  0  0  0  0  0  0  0  0  0
   -5.2730   23.4170  -31.1950 C   0  0  0  0  0  0  0  0  0  0  0  0
   -6.4670   23.3280  -30.4520 C   0  0  0  0  0  0  0  0  0  0  0  0
   -6.9080   24.4300  -29.7170 C   0  0  0  0  0  0  0  0  0  0  0  0
   -6.1660   25.6120  -29.7220 C   0  0  0  0  0  0  0  0  0  0  0  0
   -4.9880   25.6710  -30.4670 C   0  0  0  0  0  0  0  0  0  0  0  0
   -4.5760   24.5860  -31.1750 N   0  0  0  0  0  0  0  0  0  0  0  0
   -3.4460   22.1430  -32.2520 N   0  0  0  0  0  0  0  0  0  0  0  0
   -2.9110   21.1090  -32.9700 C   0  0  0  0  0  0  0  0  0  0  0  0
   -3.7370   20.0940  -33.4730 C   0  0  0  0  0  0  0  0  0  0  0  0
   -5.1020   20.1930  -33.2100 C   0  0  0  0  0  0  0  0  0  0  0  0
   -5.8131   17.2597  -33.6858 H   0  0  0  0  0  0  0  0  0  0  0  0
   -6.8070   17.9711  -35.0022 H   0  0  0  0  0  0  0  0  0  0  0  0
   -5.0246   18.1935  -35.0022 H   0  0  0  0  0  0  0  0  0  0  0  0
   -8.2197   19.3845  -33.2419 H   0  0  0  0  0  0  0  0  0  0  0  0
   -7.7387   21.6593  -31.9100 H   0  0  0  0  0  0  0  0  0  0  0  0
   -7.0489   22.3945  -30.4511 H   0  0  0  0  0  0  0  0  0  0  0  0
   -7.8391   24.3667  -29.1347 H   0  0  0  0  0  0  0  0  0  0  0  0
   -6.5055   26.4856  -29.1461 H   0  0  0  0  0  0  0  0  0  0  0  0
   -4.3924   26.5957  -30.4816 H   0  0  0  0  0  0  0  0  0  0  0  0
   -1.8270   21.0736  -33.1537 H   0  0  0  0  0  0  0  0  0  0  0  0
   -3.3247   19.2541  -34.0514 H   0  0  0  0  0  0  0  0  0  0  0  0
  1  2  1  0
  2  3  1  0
  3  4  2  0
  4  5  1  0
  5  6  2  0
  6  7  1  0
  7  8  2  0
  8  9  1  0
  9 10  2  0
 10 11  1  0
 11 12  2  0
  6 13  1  0
 13 14  2  0
 14 15  1  0
 15 16  2  0
 16  2  1  0
 16  5  1  0
 12  7  1  0
  1 17  1  0
  1 18  1  0
  1 19  1  0
  3 20  1  0
  4 21  1  0
  8 22  1  0
  9 23  1  0
 10 24  1  0
 11 25  1  0
 14 26  1  0
 15 27  1  0
M  END
>  <UniqueID>  (15) 
14

>  <SMILES>  (15) 
Cn1ccc2c(-c3ccccn3)nccc21

>  <Energy>  (15) 
67.7646831049205

>  <Genealogy>  (15) 
Cn1ccc2c(-c3ccccn3)nccc21 (3D coordinates assigned)
Cn1ccc2c(-c3ccccn3)nccc21 (optimized conformer: 67.7646831049205 kcal/mol)

>  <smiles>  (15) 
Cn1ccc2c(-c3ccccn3)nccc21

>  <score_type>  (15) 
oracle

>  <origin>  (15) 
adg

>  <m_score__min__energy>  (15) 
-6.6699999999999999

>  <m_primary>  (15) 
energy

$$$$
15:0
     RDKit          3D

 61 63  0  0  0  0  0  0  0  0999 V2000
   -6.1237   20.4317  -34.4423 H   0  0  0  0  0  0  0  0  0  0  0  0
   -6.5540   20.4360  -33.4300 C   0  0  0  0  0  0  0  0  0  0  0  0
   -6.1770   21.4020  -32.5710 C   0  0  0  0  0  0  0  0  0  0  0  0
   -5.3660   21.2030  -31.4920 N   0  0  0  0  0  0  0  0  0  0  0  0
   -4.5290   20.0040  -31.2900 C   0  0  0  0  0  0  0  0  0  0  0  0
   -4.0585   20.0608  -30.2973 H   0  0  0  0  0  0  0  0  0  0  0  0
   -5.1752   19.1174  -31.3699 H   0  0  0  0  0  0  0  0  0  0  0  0
   -3.4450   19.8940  -32.3410 C   0  0  0  0  0  0  0  0  0  0  0  0
   -2.6030   20.9940  -32.5810 C   0  0  0  0  0  0  0  0  0  0  0  0
   -2.7425   21.9232  -32.0090 H   0  0  0  0  0  0  0  0  0  0  0  0
   -1.5920   20.9160  -33.5390 C   0  0  0  0  0  0  0  0  0  0  0  0
   -0.9336   21.7796  -33.7143 H   0  0  0  0  0  0  0  0  0  0  0  0
   -1.4150   19.7460  -34.2740 C   0  0  0  0  0  0  0  0  0  0  0  0
   -0.6112   19.6851  -35.0224 H   0  0  0  0  0  0  0  0  0  0  0  0
   -2.2540   18.6510  -34.0640 C   0  0  0  0  0  0  0  0  0  0  0  0
   -2.1133   17.7333  -34.6539 H   0  0  0  0  0  0  0  0  0  0  0  0
   -3.2800   18.7140  -33.1010 C   0  0  0  0  0  0  0  0  0  0  0  0
   -4.1520   17.6350  -32.8730 O   0  0  0  0  0  0  0  0  0  0  0  0
   -4.8000   16.8560  -33.8780 C   0  0  0  0  0  0  0  0  0  0  0  0
   -4.0756   16.1507  -34.3113 H   0  0  0  0  0  0  0  0  0  0  0  0
   -5.6361   16.3091  -33.4176 H   0  0  0  0  0  0  0  0  0  0  0  0
   -5.3490   17.7520  -34.9830 C   0  0  0  0  0  0  0  0  0  0  0  0
   -5.8736   18.6083  -34.5340 H   0  0  0  0  0  0  0  0  0  0  0  0
   -4.5189   18.1163  -35.6060 H   0  0  0  0  0  0  0  0  0  0  0  0
   -6.0505   17.1778  -35.6060 H   0  0  0  0  0  0  0  0  0  0  0  0
   -5.3070   22.4280  -30.8810 C   0  0  0  0  0  0  0  0  0  0  0  0
   -4.7570   22.7960  -29.6970 C   0  0  0  0  0  0  0  0  0  0  0  0
   -5.4475   22.7736  -28.8411 H   0  0  0  0  0  0  0  0  0  0  0  0
   -3.3420   23.2340  -29.3620 C   0  0  2  0  0  0  0  0  0  0  0  0
   -3.2715   23.2039  -28.2647 H   0  0  0  0  0  0  0  0  0  0  0  0
   -3.0750   24.6730  -29.7260 C   0  0  0  0  0  0  0  0  0  0  0  0
   -3.8590   25.2980  -30.4900 O   0  0  0  0  0  0  0  0  0  0  0  0
   -1.9160   25.2980  -29.2870 O   0  0  0  0  0  0  0  0  0  0  0  0
   -2.2470   22.2340  -29.8140 C   0  0  0  0  0  0  0  0  0  0  0  0
   -2.5270   21.8170  -30.7926 H   0  0  0  0  0  0  0  0  0  0  0  0
   -1.2917   22.7759  -29.8754 H   0  0  0  0  0  0  0  0  0  0  0  0
   -2.0840   21.1030  -28.8290 C   0  0  0  0  0  0  0  0  0  0  0  0
   -3.0760   20.8590  -27.8650 C   0  0  0  0  0  0  0  0  0  0  0  0
   -3.9618   21.5091  -27.8130 H   0  0  0  0  0  0  0  0  0  0  0  0
   -2.9410   19.7930  -26.9720 C   0  0  0  0  0  0  0  0  0  0  0  0
   -3.7163   19.6108  -26.2133 H   0  0  0  0  0  0  0  0  0  0  0  0
   -1.8230   18.9580  -27.0410 C   0  0  0  0  0  0  0  0  0  0  0  0
   -1.7200   18.1182  -26.3381 H   0  0  0  0  0  0  0  0  0  0  0  0
   -0.8360   19.1890  -28.0020 C   0  0  0  0  0  0  0  0  0  0  0  0
    0.0416   18.5282  -28.0579 H   0  0  0  0  0  0  0  0  0  0  0  0
   -0.9620   20.2580  -28.8920 C   0  0  0  0  0  0  0  0  0  0  0  0
   -0.1808   20.4395  -29.6448 H   0  0  0  0  0  0  0  0  0  0  0  0
   -6.0190   23.3310  -31.6500 C   0  0  0  0  0  0  0  0  0  0  0  0
   -6.1177   24.4066  -31.4419 H   0  0  0  0  0  0  0  0  0  0  0  0
   -6.5690   22.6880  -32.6880 N   0  0  0  0  0  0  0  0  0  0  0  0
   -7.1850   23.1160  -33.4150 H   0  0  0  0  0  0  0  0  0  0  0  0
   -7.5420   19.3610  -33.0590 C   0  0  0  0  0  0  0  0  0  0  0  0
   -6.9982   18.4166  -32.9098 H   0  0  0  0  0  0  0  0  0  0  0  0
   -8.2728   19.2779  -33.8769 H   0  0  0  0  0  0  0  0  0  0  0  0
   -8.3110   19.6970  -31.7730 C   0  0  0  0  0  0  0  0  0  0  0  0
   -7.5973   20.0563  -31.0170 H   0  0  0  0  0  0  0  0  0  0  0  0
   -8.8234   18.7833  -31.4373 H   0  0  0  0  0  0  0  0  0  0  0  0
   -9.3740   20.7760  -32.0000 C   0  0  0  0  0  0  0  0  0  0  0  0
   -9.7364   21.1438  -31.0287 H   0  0  0  0  0  0  0  0  0  0  0  0
   -8.9347   21.6099  -32.5672 H   0  0  0  0  0  0  0  0  0  0  0  0
  -10.2144   20.3492  -32.5672 H   0  0  0  0  0  0  0  0  0  0  0  0
  1  2  1  0
  2  3  2  3
  3  4  1  0
  4  5  1  0
  5  6  1  0
  5  7  1  0
  5  8  1  0
  8  9  2  0
  9 10  1  0
  9 11  1  0
 11 12  1  0
 11 13  2  0
 13 14  1  0
 13 15  1  0
 15 16  1  0
 15 17  2  0
 17 18  1  0
 18 19  1  0
 19 20  1  0
 19 21  1  0
 19 22  1  0
 22 23  1  0
 22 24  1  0
 22 25  1  0
  4 26  1  0
 26 27  2  0
 27 28  1  0
 27 29  1  0
 29 30  1  1
 29 31  1  0
 31 32  2  0
 31 33  1  0
 29 34  1  0
 34 35  1  0
 34 36  1  0
 34 37  1  0
 37 38  2  0
 38 39  1  0
 38 40  1  0
 40 41  1  0
 40 42  2  0
 42 43  1  0
 42 44  1  0
 44 45  1  0
 44 46  2  0
 46 47  1  0
 26 48  1  0
 48 49  1  0
 48 50  2  0
 50 51  1  0
  2 52  1  0
 52 53  1  0
 52 54  1  0
 52 55  1  0
 55 56  1  0
 55 57  1  0
 55 58  1  0
 58 59  1  0
 58 60  1  0
 58 61  1  0
 50  3  1  0
 17  8  1  0
 46 37  1  0
M  CHG  2  33  -1  50   1
M  END
>  <UniqueID>  (16) 
15

>  <SMILES>  (16) 
CCCC=c1[nH+]c/c(=C/[C@@H](Cc2ccccc2)C(=O)[O-])n1Cc1ccccc1OCC

>  <Energy>  (16) 
99.91877037736195

>  <Genealogy>  (16) 
CCCC=c1[nH+]cc(=CC(Cc2ccccc2)C(=O)[O-])n1Cc1ccccc1OCC (protonated)
CCCC=c1[nH+]cc(=C[C@@H](Cc2ccccc2)C(=O)[O-])n1Cc1ccccc1OCC (chirality)
CCCC=c1[nH+]c/c(=C/[C@@H](Cc2ccccc2)C(=O)[O-])n1Cc1ccccc1OCC (cis-trans isomerization)
CCCC=c1[nH+]c/c(=C/[C@@H](Cc2ccccc2)C(=O)[O-])n1Cc1ccccc1OCC (3D coordinates assigned)
CCCC=c1[nH+]c/c(=C/[C@@H](Cc2ccccc2)C(=O)[O-])n1Cc1ccccc1OCC (optimized conformer: 99.91877037736195 kcal/mol)

>  <smiles>  (16) 
CCCC=c1ncc(=CC(Cc2ccccc2)C(=O)O)n1Cc1ccccc1OCC

>  <score_type>  (16) 
oracle

>  <origin>  (16) 
adg

>  <m_score__min__energy>  (16) 
-11.48

>  <m_primary>  (16) 
energy

$$$$
16:0
     RDKit          3D

 50 53  0  0  1  0  0  0  0  0999 V2000
   -1.5690   21.2580  -30.5670 C   0  0  0  0  0  0  0  0  0  0  0  0
   -2.1980   22.4830  -30.0640 C   0  0  0  0  0  0  0  0  0  0  0  0
   -3.1770   23.1420  -30.7690 C   0  0  0  0  0  0  0  0  0  0  0  0
   -3.7040   24.2860  -30.2070 C   0  0  0  0  0  0  0  0  0  0  0  0
   -4.6070   24.9060  -30.8440 N   0  0  0  0  0  0  0  0  0  0  0  0
   -6.0280   24.6040  -30.8350 C   0  0  0  0  0  0  0  0  0  0  0  0
   -6.4110   24.1280  -32.1980 C   0  0  0  0  0  0  0  0  0  0  0  0
   -7.3340   22.9830  -32.2580 C   0  0  0  0  0  0  0  0  0  0  0  0
   -7.1760   21.9760  -31.2340 N   0  0  0  0  0  0  0  0  0  0  0  0
   -8.1230   20.9330  -31.4260 C   0  0  0  0  0  0  0  0  0  0  0  0
   -7.5330   19.8010  -32.1800 C   0  0  0  0  0  0  0  0  0  0  0  0
   -6.6450   20.0580  -33.2250 C   0  0  0  0  0  0  0  0  0  0  0  0
   -6.0700   19.0610  -33.9670 C   0  0  0  0  0  0  0  0  0  0  0  0
   -6.3680   17.7360  -33.6840 C   0  0  0  0  0  0  0  0  0  0  0  0
   -7.2470   17.4550  -32.6520 C   0  0  0  0  0  0  0  0  0  0  0  0
   -7.8140   18.4780  -31.9190 C   0  0  0  0  0  0  0  0  0  0  0  0
   -7.3810   22.6540  -29.9710 C   0  0  0  0  0  0  0  0  0  0  0  0
   -6.1550   23.5160  -29.7710 C   0  0  0  0  0  0  0  0  0  0  0  0
   -3.2800   24.7430  -29.0160 N   0  0  0  0  0  0  0  0  0  0  0  0
   -2.3210   24.0870  -28.3380 C   0  0  0  0  0  0  0  0  0  0  0  0
   -1.8420   24.5420  -27.0650 C   0  0  0  0  0  0  0  0  0  0  0  0
   -2.0540   25.6020  -26.2790 C   0  0  0  0  0  0  0  0  0  0  0  0
   -1.4230   25.7280  -25.1060 C   0  0  0  0  0  0  0  0  0  0  0  0
   -0.5380   24.6840  -24.7680 C   0  0  0  0  0  0  0  0  0  0  0  0
   -0.6060   23.5420  -26.1000 S   0  0  0  0  0  0  0  0  0  0  0  0
   -1.7980   22.9780  -28.8630 N   0  0  0  0  0  0  0  0  0  0  0  0
   -1.2492   20.6351  -29.7187 H   0  0  0  0  0  0  0  0  0  0  0  0
   -2.2919   20.6996  -31.1799 H   0  0  0  0  0  0  0  0  0  0  0  0
   -0.6940   21.5201  -31.1799 H   0  0  0  0  0  0  0  0  0  0  0  0
   -3.5266   22.7712  -31.7438 H   0  0  0  0  0  0  0  0  0  0  0  0
   -6.6874   25.4541  -30.6058 H   0  0  0  0  0  0  0  0  0  0  0  0
   -6.8866   24.9687  -32.7243 H   0  0  0  0  0  0  0  0  0  0  0  0
   -5.4760   23.7728  -32.6559 H   0  0  0  0  0  0  0  0  0  0  0  0
   -8.3591   23.3754  -32.1861 H   0  0  0  0  0  0  0  0  0  0  0  0
   -7.1065   22.4737  -33.2061 H   0  0  0  0  0  0  0  0  0  0  0  0
   -8.4617   20.5714  -30.4439 H   0  0  0  0  0  0  0  0  0  0  0  0
   -8.9675   21.3336  -32.0060 H   0  0  0  0  0  0  0  0  0  0  0  0
   -6.3969   21.1031  -33.4623 H   0  0  0  0  0  0  0  0  0  0  0  0
   -5.3755   19.3094  -34.7831 H   0  0  0  0  0  0  0  0  0  0  0  0
   -5.9138   16.9229  -34.2693 H   0  0  0  0  0  0  0  0  0  0  0  0
   -7.4951   16.4100  -32.4147 H   0  0  0  0  0  0  0  0  0  0  0  0
   -8.5096   18.2298  -31.1038 H   0  0  0  0  0  0  0  0  0  0  0  0
   -8.2865   23.2772  -30.0119 H   0  0  0  0  0  0  0  0  0  0  0  0
   -7.5186   21.9423  -29.1436 H   0  0  0  0  0  0  0  0  0  0  0  0
   -6.2170   23.9943  -28.7824 H   0  0  0  0  0  0  0  0  0  0  0  0
   -5.2714   22.8655  -29.8496 H   0  0  0  0  0  0  0  0  0  0  0  0
   -3.7200   25.6140  -28.6470 H   0  0  0  0  0  0  0  0  0  0  0  0
   -2.7583   26.3830  -26.6016 H   0  0  0  0  0  0  0  0  0  0  0  0
   -1.5848   26.5930  -24.4459 H   0  0  0  0  0  0  0  0  0  0  0  0
    0.0710   24.6016  -23.8557 H   0  0  0  0  0  0  0  0  0  0  0  0
  1  2  1  0
  2  3  2  0
  3  4  1  0
  4  5  2  0
  5  6  1  0
  6  7  1  0
  7  8  1  0
  8  9  1  0
  9 10  1  0
 10 11  1  0
 11 12  2  0
 12 13  1  0
 13 14  2  0
 14 15  1  0
 15 16  2  0
  9 17  1  0
 17 18  1  0
  4 19  1  0
 19 20  1  0
 20 21  1  0
 21 22  2  0
 22 23  1  0
 23 24  2  0
 24 25  1  0
 20 26  2  0
 26  2  1  0
 18  6  1  0
 25 21  1  0
 16 11  1  0
  1 27  1  0
  1 28  1  0
  1 29  1  0
  3 30  1  0
  6 31  1  0
  7 32  1  0
  7 33  1  0
  8 34  1  0
  8 35  1  0
 10 36  1  0
 10 37  1  0
 12 38  1  0
 13 39  1  0
 14 40  1  0
 15 41  1  0
 16 42  1  0
 17 43  1  0
 17 44  1  0
 18 45  1  0
 18 46  1  0
 19 47  1  0
 22 48  1  0
 23 49  1  0
 24 50  1  0
M  END
>  <smiles>  (17) 
Cc1cc(=NC2CCN(Cc3ccccc3)CC2)[nH]c(-c2cccs2)n1

>  <score_type>  (17) 
oracle

>  <origin>  (17) 
adg

>  <m_score__min__energy>  (17) 
-9.8900000000000006

>  <m_primary>  (17) 
energy

$$$$
17:0
     RDKit          3D

 42 43  0  0  0  0  0  0  0  0999 V2000
   -6.0780   17.5220  -34.1930 C   0  0  0  0  0  0  0  0  0  0  0  0
   -6.8310   17.1820  -32.9060 C   0  0  0  0  0  0  0  0  0  0  0  0
   -7.4270   18.4230  -32.2250 C   0  0  0  0  0  0  0  0  0  0  0  0
   -7.4730   19.6840  -33.1140 C   0  0  0  0  0  0  0  0  0  0  0  0
   -7.2410   20.9700  -32.3210 C   0  0  0  0  0  0  0  0  0  0  0  0
   -8.3670   21.7010  -31.8470 C   0  0  0  0  0  0  0  0  0  0  0  0
   -9.7820   21.2140  -32.0020 C   0  0  0  0  0  0  0  0  0  0  0  0
   -8.1870   22.8610  -31.1710 N   0  0  0  0  0  0  0  0  0  0  0  0
   -6.9670   23.3810  -30.9160 C   0  0  0  0  0  0  0  0  0  0  0  0
   -6.8630   24.5830  -30.2170 C   0  0  0  0  0  0  0  0  0  0  0  0
   -5.6110   25.1180  -29.9360 C   0  0  0  0  0  0  0  0  0  0  0  0
   -4.4560   24.4360  -30.3540 C   0  0  0  0  0  0  0  0  0  0  0  0
   -3.1620   24.9230  -30.0990 O   0  0  0  0  0  0  0  0  0  0  0  0
   -2.1570   24.2590  -29.3320 C   0  0  0  0  0  0  0  0  0  0  0  0
   -1.6080   25.1790  -28.2460 C   0  0  0  0  0  0  0  0  0  0  0  0
   -4.5820   23.2640  -31.0400 N   0  0  0  0  0  0  0  0  0  0  0  0
   -5.8030   22.7130  -31.3390 C   0  0  0  0  0  0  0  0  0  0  0  0
   -5.9310   21.4890  -32.0560 C   0  0  0  0  0  0  0  0  0  0  0  0
   -4.6650   20.7710  -32.4810 C   0  0  0  0  0  0  0  0  0  0  0  0
   -5.1021   17.9627  -33.9413 H   0  0  0  0  0  0  0  0  0  0  0  0
   -5.9256   16.6054  -34.7817 H   0  0  0  0  0  0  0  0  0  0  0  0
   -6.6648   18.2425  -34.7817 H   0  0  0  0  0  0  0  0  0  0  0  0
   -7.6482   16.4869  -33.1491 H   0  0  0  0  0  0  0  0  0  0  0  0
   -6.1103   16.7323  -32.2072 H   0  0  0  0  0  0  0  0  0  0  0  0
   -8.4550   18.1839  -31.9152 H   0  0  0  0  0  0  0  0  0  0  0  0
   -6.7660   18.6620  -31.3789 H   0  0  0  0  0  0  0  0  0  0  0  0
   -6.6933   19.6001  -33.8854 H   0  0  0  0  0  0  0  0  0  0  0  0
   -8.4777   19.7426  -33.5580 H   0  0  0  0  0  0  0  0  0  0  0  0
  -10.2279   21.0605  -31.0082 H   0  0  0  0  0  0  0  0  0  0  0  0
  -10.3686   21.9619  -32.5556 H   0  0  0  0  0  0  0  0  0  0  0  0
   -9.7841   20.2634  -32.5556 H   0  0  0  0  0  0  0  0  0  0  0  0
   -7.7718   25.1081  -29.8878 H   0  0  0  0  0  0  0  0  0  0  0  0
   -5.5252   26.0690  -29.3900 H   0  0  0  0  0  0  0  0  0  0  0  0
   -2.5939   23.3660  -28.8612 H   0  0  0  0  0  0  0  0  0  0  0  0
   -1.3328   23.9740  -30.0024 H   0  0  0  0  0  0  0  0  0  0  0  0
   -1.8544   24.7661  -27.2566 H   0  0  0  0  0  0  0  0  0  0  0  0
   -0.5156   25.2569  -28.3491 H   0  0  0  0  0  0  0  0  0  0  0  0
   -2.0581   26.1774  -28.3491 H   0  0  0  0  0  0  0  0  0  0  0  0
   -3.6920   22.7990  -31.3250 H   0  0  0  0  0  0  0  0  0  0  0  0
   -4.1060   20.4540  -31.5883 H   0  0  0  0  0  0  0  0  0  0  0  0
   -4.9283   19.8878  -33.0815 H   0  0  0  0  0  0  0  0  0  0  0  0
   -4.0422   21.4503  -33.0815 H   0  0  0  0  0  0  0  0  0  0  0  0
  1  2  1  0
  2  3  1  0
  3  4  1  0
  4  5  1  0
  5  6  2  0
  6  7  1  0
  6  8  1  0
  8  9  2  0
  9 10  1  0
 10 11  2  0
 11 12  1  0
 12 13  1  0
 13 14  1  0
 14 15  1  0
 12 16  2  0
 16 17  1  0
 17 18  2  0
 18 19  1  0
 18  5  1  0
 17  9  1  0
  1 20  1  0
  1 21  1  0
  1 22  1  0
  2 23  1  0
  2 24  1  0
  3 25  1  0
  3 26  1  0
  4 27  1  0
  4 28  1  0
  7 29  1  0
  7 30  1  0
  7 31  1  0
 10 32  1  0
 11 33  1  0
 14 34  1  0
 14 35  1  0
 15 36  1  0
 15 37  1  0
 15 38  1  0
 16 39  1  0
 19 40  1  0
 19 41  1  0
 19 42  1  0
M  CHG  1  16   1
M  END
>  <UniqueID>  (18) 
16

>  <SMILES>  (18) 
CCCCc1c(C)nc2ccc(OCC)[nH+]c2c1C

>  <Energy>  (18) 
46.91189794543355

>  <Genealogy>  (18) 
CCCCc1c(C)nc2ccc(OCC)[nH+]c2c1C (protonated)
CCCCc1c(C)nc2ccc(OCC)[nH+]c2c1C (3D coordinates assigned)
CCCCc1c(C)nc2ccc(OCC)[nH+]c2c1C (optimized conformer: 46.91189794543355 kcal/mol)

>  <smiles>  (18) 
CCCCc1c(C)nc2ccc(OCC)nc2c1C

>  <score_type>  (18) 
oracle

>  <origin>  (18) 
adg

>  <m_score__min__energy>  (18) 
-6.7999999999999998

>  <m_primary>  (18) 
energy

$$$$
18:0
     RDKit          3D

 75 78  0  0  0  0  0  0  0  0999 V2000
   -9.4210   19.5010  -32.6420 C   0  0  0  0  0  0  0  0  0  0  0  0
   -8.6320   20.4950  -31.7900 C   0  0  0  0  0  0  0  0  0  0  0  0
   -9.1700   21.9230  -31.9470 C   0  0  0  0  0  0  0  0  0  0  0  0
   -8.1220   22.8410  -32.2630 O   0  0  0  0  0  0  0  0  0  0  0  0
   -7.0450   23.1650  -31.4250 C   0  0  0  0  0  0  0  0  0  0  0  0
   -6.9230   22.4780  -30.2120 C   0  0  0  0  0  0  0  0  0  0  0  0
   -5.8610   22.7490  -29.3450 C   0  0  0  0  0  0  0  0  0  0  0  0
   -4.8890   23.6940  -29.6920 C   0  0  0  0  0  0  0  0  0  0  0  0
   -3.7430   23.9600  -28.7930 C   0  0  0  0  0  0  0  0  0  0  0  0
   -4.0240   24.5290  -27.5520 C   0  0  0  0  0  0  0  0  0  0  0  0
   -2.9790   24.9080  -26.7210 C   0  0  0  0  0  0  0  0  0  0  0  0
   -3.2500   25.4330  -25.6030 O   0  0  0  0  0  0  0  0  0  0  0  0
   -1.6820   24.7180  -27.1150 N   0  0  0  0  0  0  0  0  0  0  0  0
   -0.5640   25.1320  -26.2430 C   0  0  0  0  0  0  0  0  0  0  0  0
   -0.5260   26.6330  -26.1060 C   0  0  0  0  0  0  0  0  0  0  0  0
   -0.4330   27.4510  -27.2470 C   0  0  0  0  0  0  0  0  0  0  0  0
   -0.4160   28.8440  -27.1180 C   0  0  0  0  0  0  0  0  0  0  0  0
   -0.4920   29.4320  -25.8510 C   0  0  0  0  0  0  0  0  0  0  0  0
   -0.5850   28.6270  -24.7130 C   0  0  0  0  0  0  0  0  0  0  0  0
   -0.6050   27.2320  -24.8370 C   0  0  0  0  0  0  0  0  0  0  0  0
   -1.4150   24.1540  -28.3410 C   0  0  0  0  0  0  0  0  0  0  0  0
   -0.2140   24.0210  -28.7120 O   0  0  0  0  0  0  0  0  0  0  0  0
   -2.4350   23.7430  -29.1700 N   0  0  0  0  0  0  0  0  0  0  0  0
   -2.0940   23.1130  -30.4690 C   0  0  0  0  0  0  0  0  0  0  0  0
   -1.7000   21.6290  -30.3290 C   0  0  0  0  0  0  0  0  0  0  0  0
   -2.7600   20.6440  -30.8730 C   0  0  0  0  0  0  0  0  0  0  0  0
   -2.8740   20.7030  -32.3410 N   0  0  0  0  0  0  0  0  0  0  0  0
   -1.9370   21.5210  -33.1330 C   0  0  0  0  0  0  0  0  0  0  0  0
   -0.7750   20.6760  -33.6540 C   0  0  0  0  0  0  0  0  0  0  0  0
   -3.9490   20.0180  -33.0170 C   0  0  0  0  0  0  0  0  0  0  0  0
   -5.1810   20.6720  -33.1730 C   0  0  0  0  0  0  0  0  0  0  0  0
   -6.2480   20.0330  -33.8020 C   0  0  0  0  0  0  0  0  0  0  0  0
   -6.1020   18.7300  -34.2790 C   0  0  0  0  0  0  0  0  0  0  0  0
   -4.8900   18.0570  -34.1150 C   0  0  0  0  0  0  0  0  0  0  0  0
   -3.8100   18.6780  -33.4660 C   0  0  0  0  0  0  0  0  0  0  0  0
   -2.5280   17.9110  -33.3020 C   0  0  0  0  0  0  0  0  0  0  0  0
   -5.0190   24.4070  -30.8940 C   0  0  0  0  0  0  0  0  0  0  0  0
   -6.0840   24.1420  -31.7590 C   0  0  0  0  0  0  0  0  0  0  0  0
   -9.9697   18.8098  -31.9853 H   0  0  0  0  0  0  0  0  0  0  0  0
  -10.1340   20.0473  -33.2769 H   0  0  0  0  0  0  0  0  0  0  0  0
   -8.7271   18.9306  -33.2769 H   0  0  0  0  0  0  0  0  0  0  0  0
   -8.7079   20.1988  -30.7333 H   0  0  0  0  0  0  0  0  0  0  0  0
   -7.5849   20.4823  -32.1266 H   0  0  0  0  0  0  0  0  0  0  0  0
   -9.9155   21.9381  -32.7557 H   0  0  0  0  0  0  0  0  0  0  0  0
   -9.6241   22.2296  -30.9932 H   0  0  0  0  0  0  0  0  0  0  0  0
   -7.6696   21.7179  -29.9385 H   0  0  0  0  0  0  0  0  0  0  0  0
   -5.7888   22.2168  -28.3850 H   0  0  0  0  0  0  0  0  0  0  0  0
   -5.0665   24.6766  -27.2335 H   0  0  0  0  0  0  0  0  0  0  0  0
   -0.6954   24.6813  -25.2482 H   0  0  0  0  0  0  0  0  0  0  0  0
    0.3809   24.7928  -26.6925 H   0  0  0  0  0  0  0  0  0  0  0  0
   -0.3734   26.9930  -28.2454 H   0  0  0  0  0  0  0  0  0  0  0  0
   -0.3428   29.4777  -28.0141 H   0  0  0  0  0  0  0  0  0  0  0  0
   -0.4785   30.5273  -25.7508 H   0  0  0  0  0  0  0  0  0  0  0  0
   -0.6427   29.0900  -23.7169 H   0  0  0  0  0  0  0  0  0  0  0  0
   -0.6828   26.6030  -23.9380 H   0  0  0  0  0  0  0  0  0  0  0  0
   -2.9677   23.1833  -31.1336 H   0  0  0  0  0  0  0  0  0  0  0  0
   -1.2250   23.6488  -30.8786 H   0  0  0  0  0  0  0  0  0  0  0  0
   -0.7617   21.4666  -30.8797 H   0  0  0  0  0  0  0  0  0  0  0  0
   -1.5993   21.4262  -29.2526 H   0  0  0  0  0  0  0  0  0  0  0  0
   -2.4769   19.6221  -30.5806 H   0  0  0  0  0  0  0  0  0  0  0  0
   -3.7339   20.9273  -30.4472 H   0  0  0  0  0  0  0  0  0  0  0  0
   -2.4749   21.9580  -33.9872 H   0  0  0  0  0  0  0  0  0  0  0  0
   -1.5311   22.3128  -32.4862 H   0  0  0  0  0  0  0  0  0  0  0  0
   -0.2103   20.2653  -32.8040 H   0  0  0  0  0  0  0  0  0  0  0  0
   -1.1674   19.8508  -34.2665 H   0  0  0  0  0  0  0  0  0  0  0  0
   -0.1110   21.3036  -34.2665 H   0  0  0  0  0  0  0  0  0  0  0  0
   -5.3055   21.6977  -32.7956 H   0  0  0  0  0  0  0  0  0  0  0  0
   -7.2075   20.5572  -33.9227 H   0  0  0  0  0  0  0  0  0  0  0  0
   -6.9427   18.2326  -34.7848 H   0  0  0  0  0  0  0  0  0  0  0  0
   -4.7797   17.0315  -34.4973 H   0  0  0  0  0  0  0  0  0  0  0  0
   -2.3123   17.7820  -32.2311 H   0  0  0  0  0  0  0  0  0  0  0  0
   -2.6278   16.9241  -33.7774 H   0  0  0  0  0  0  0  0  0  0  0  0
   -1.7055   18.4656  -33.7774 H   0  0  0  0  0  0  0  0  0  0  0  0
   -4.2793   25.1778  -31.1562 H   0  0  0  0  0  0  0  0  0  0  0  0
   -6.1733   24.6975  -32.7042 H   0  0  0  0  0  0  0  0  0  0  0  0
  1  2  1  0
  2  3  1  0
  3  4  1  0
  4  5  1  0
  5  6  2  0
  6  7  1  0
  7  8  2  0
  8  9  1  0
  9 10  2  0
 10 11  1  0
 11 12  2  0
 11 13  1  0
 13 14  1  0
 14 15  1  0
 15 16  2  0
 16 17  1  0
 17 18  2  0
 18 19  1  0
 19 20  2  0
 13 21  1  0
 21 22  2  0
 21 23  1  0
 23 24  1  0
 24 25  1  0
 25 26  1  0
 26 27  1  0
 27 28  1  0
 28 29  1  0
 27 30  1  0
 30 31  2  0
 31 32  1  0
 32 33  2  0
 33 34  1  0
 34 35  2  0
 35 36  1  0
  8 37  1  0
 37 38  2  0
 38  5  1  0
 23  9  1  0
 35 30  1  0
 20 15  1  0
  1 39  1  0
  1 40  1  0
  1 41  1  0
  2 42  1  0
  2 43  1  0
  3 44  1  0
  3 45  1  0
  6 46  1  0
  7 47  1  0
 10 48  1  0
 14 49  1  0
 14 50  1  0
 16 51  1  0
 17 52  1  0
 18 53  1  0
 19 54  1  0
 20 55  1  0
 24 56  1  0
 24 57  1  0
 25 58  1  0
 25 59  1  0
 26 60  1  0
 26 61  1  0
 28 62  1  0
 28 63  1  0
 29 64  1  0
 29 65  1  0
 29 66  1  0
 31 67  1  0
 32 68  1  0
 33 69  1  0
 34 70  1  0
 36 71  1  0
 36 72  1  0
 36 73  1  0
 37 74  1  0
 38 75  1  0
M  END
>  <UniqueID>  (19) 
17

>  <SMILES>  (19) 
CCCOc1ccc(-c2cc(=O)n(Cc3ccccc3)c(=O)n2CCCN(CC)c2ccccc2C)cc1

>  <Energy>  (19) 
86.06935522680507

>  <Genealogy>  (19) 
CCCOc1ccc(-c2cc(=O)n(Cc3ccccc3)c(=O)n2CCCN(CC)c2ccccc2C)cc1 (3D coordinates assigned)
CCCOc1ccc(-c2cc(=O)n(Cc3ccccc3)c(=O)n2CCCN(CC)c2ccccc2C)cc1 (optimized conformer: 86.06935522680507 kcal/mol)

>  <smiles>  (19) 
CCCOc1ccc(-c2cc(=O)n(Cc3ccccc3)c(=O)n2CCCN(CC)c2ccccc2C)cc1

>  <score_type>  (19) 
oracle

>  <origin>  (19) 
adg

>  <m_score__min__energy>  (19) 
-9.1199999999999992

>  <m_primary>  (19) 
energy

$$$$
19:0
     RDKit          3D

 51 53  0  0  0  0  0  0  0  0999 V2000
   -4.5670   14.0930  -31.7470 C   0  0  0  0  0  0  0  0  0  0  0  0
   -3.8700   13.9880  -33.0400 N   0  0  0  0  0  0  0  0  0  0  0  0
   -3.5580   12.5760  -33.3170 C   0  0  0  0  0  0  0  0  0  0  0  0
   -2.6330   14.8010  -33.0550 C   0  0  0  0  0  0  0  0  0  0  0  0
   -2.7080   15.9360  -34.0970 C   0  0  0  0  0  0  0  0  0  0  0  0
   -3.9890   15.9680  -34.8270 N   0  0  0  0  0  0  0  0  0  0  0  0
   -4.9380   16.8750  -34.2220 C   0  0  0  0  0  0  0  0  0  0  0  0
   -6.2890   16.5150  -34.1110 C   0  0  0  0  0  0  0  0  0  0  0  0
   -7.1950   17.3720  -33.4900 C   0  0  0  0  0  0  0  0  0  0  0  0
   -6.7630   18.5980  -32.9790 C   0  0  0  0  0  0  0  0  0  0  0  0
   -7.8590   19.6220  -32.2190 S   0  0  0  0  0  0  0  0  0  0  0  0
   -7.1350   21.0390  -31.6750 C   0  0  0  0  0  0  0  0  0  0  0  0
   -7.8980   22.0040  -31.0110 C   0  0  0  0  0  0  0  0  0  0  0  0
   -7.2980   23.1740  -30.5510 C   0  0  0  0  0  0  0  0  0  0  0  0
   -5.9330   23.3900  -30.7590 C   0  0  0  0  0  0  0  0  0  0  0  0
   -5.1720   24.8500  -30.1280 S   0  0  0  0  0  0  0  0  0  0  0  0
   -5.2390   24.8290  -28.6270 O   0  0  0  0  0  0  0  0  0  0  0  0
   -5.9070   26.0670  -30.6180 O   0  0  0  0  0  0  0  0  0  0  0  0
   -3.5050   24.9320  -30.6210 N   0  0  0  0  0  0  0  0  0  0  0  0
   -2.7440   23.7870  -30.1160 C   0  0  0  0  0  0  0  0  0  0  0  0
   -1.9970   24.1730  -28.8390 C   0  0  0  0  0  0  0  0  0  0  0  0
   -2.2440   25.5140  -28.5200 O   0  0  0  0  0  0  0  0  0  0  0  0
   -5.1670   22.4220  -31.4250 C   0  0  0  0  0  0  0  0  0  0  0  0
   -5.7500   21.2230  -31.8970 C   0  0  0  0  0  0  0  0  0  0  0  0
   -4.9380   20.2510  -32.5660 C   0  0  0  0  0  0  0  0  0  0  0  0
   -3.7090   20.5160  -32.7110 O   0  0  0  0  0  0  0  0  0  0  0  0
   -5.4130   19.0030  -33.0820 C   0  0  0  0  0  0  0  0  0  0  0  0
   -4.5130   18.1170  -33.7190 C   0  0  0  0  0  0  0  0  0  0  0  0
   -3.8401   13.9835  -30.9287 H   0  0  0  0  0  0  0  0  0  0  0  0
   -5.0570   15.0751  -31.6733 H   0  0  0  0  0  0  0  0  0  0  0  0
   -5.3245   13.2988  -31.6733 H   0  0  0  0  0  0  0  0  0  0  0  0
   -3.4382   12.0338  -32.3674 H   0  0  0  0  0  0  0  0  0  0  0  0
   -4.3783   12.1258  -33.8953 H   0  0  0  0  0  0  0  0  0  0  0  0
   -2.6244   12.5134  -33.8953 H   0  0  0  0  0  0  0  0  0  0  0  0
   -2.4841   15.2417  -32.0582 H   0  0  0  0  0  0  0  0  0  0  0  0
   -1.7938   14.1430  -33.3249 H   0  0  0  0  0  0  0  0  0  0  0  0
   -2.5769   16.8969  -33.5779 H   0  0  0  0  0  0  0  0  0  0  0  0
   -1.9138   15.7553  -34.8363 H   0  0  0  0  0  0  0  0  0  0  0  0
   -3.8060   16.2890  -35.8070 H   0  0  0  0  0  0  0  0  0  0  0  0
   -4.3830   15.0000  -34.8910 H   0  0  0  0  0  0  0  0  0  0  0  0
   -6.6345   15.5523  -34.5158 H   0  0  0  0  0  0  0  0  0  0  0  0
   -8.2526   17.0826  -33.4020 H   0  0  0  0  0  0  0  0  0  0  0  0
   -8.9738   21.8392  -30.8515 H   0  0  0  0  0  0  0  0  0  0  0  0
   -7.8994   23.9289  -30.0233 H   0  0  0  0  0  0  0  0  0  0  0  0
   -3.4347   22.9594  -29.8971 H   0  0  0  0  0  0  0  0  0  0  0  0
   -2.0151   23.4753  -30.8786 H   0  0  0  0  0  0  0  0  0  0  0  0
   -2.3383   23.5339  -28.0113 H   0  0  0  0  0  0  0  0  0  0  0  0
   -0.9175   24.0355  -28.9996 H   0  0  0  0  0  0  0  0  0  0  0  0
   -3.2270   25.6440  -28.5810 H   0  0  0  0  0  0  0  0  0  0  0  0
   -4.0929   22.5987  -31.5831 H   0  0  0  0  0  0  0  0  0  0  0  0
   -3.4569   18.4063  -33.8231 H   0  0  0  0  0  0  0  0  0  0  0  0
  1  2  1  0
  2  3  1  0
  2  4  1  0
  4  5  1  0
  5  6  1  0
  6  7  1  0
  7  8  2  0
  8  9  1  0
  9 10  2  0
 10 11  1  0
 11 12  1  0
 12 13  2  0
 13 14  1  0
 14 15  2  0
 15 16  1  0
 16 17  2  0
 16 18  2  0
 16 19  1  0
 19 20  1  0
 20 21  1  0
 21 22  1  0
 15 23  1  0
 23 24  2  0
 24 25  1  0
 25 26  2  0
 25 27  1  0
 27 28  2  0
 28  7  1  0
 27 10  1  0
 24 12  1  0
  1 29  1  0
  1 30  1  0
  1 31  1  0
  3 32  1  0
  3 33  1  0
  3 34  1  0
  4 35  1  0
  4 36  1  0
  5 37  1  0
  5 38  1  0
  6 39  1  0
  6 40  1  0
  8 41  1  0
  9 42  1  0
 13 43  1  0
 14 44  1  0
 20 45  1  0
 20 46  1  0
 21 47  1  0
 21 48  1  0
 22 49  1  0
 23 50  1  0
 28 51  1  0
M  CHG  2   6   1  19  -1
M  END
>  <UniqueID>  (20) 
18

>  <SMILES>  (20) 
CN(C)CC[NH2+]c1ccc2sc3ccc(S(=O)(=O)[N-]CCO)cc3c(=O)c2c1

>  <Energy>  (20) 
61.496684524188815

>  <Genealogy>  (20) 
CN(C)CC[NH2+]c1ccc2sc3ccc(S(=O)(=O)[N-]CCO)cc3c(=O)c2c1 (protonated)
CN(C)CC[NH2+]c1ccc2sc3ccc(S(=O)(=O)[N-]CCO)cc3c(=O)c2c1 (3D coordinates assigned)
CN(C)CC[NH2+]c1ccc2sc3ccc(S(=O)(=O)[N-]CCO)cc3c(=O)c2c1 (optimized conformer: 61.496684524188815 kcal/mol)

>  <smiles>  (20) 
CN(C)CCNc1ccc2sc3ccc(S(=O)(=O)NCCO)cc3c(=O)c2c1

>  <score_type>  (20) 
oracle

>  <origin>  (20) 
adg

>  <m_score__min__energy>  (20) 
-10.109999999999999

>  <m_primary>  (20) 
energy

$$$$
20:0
     RDKit          3D

 43 44  0  0  0  0  0  0  0  0999 V2000
   -2.5160   24.7240  -30.6110 H   0  0  0  0  0  0  0  0  0  0  0  0
   -3.4880   24.9730  -30.4750 O   0  0  0  0  0  0  0  0  0  0  0  0
   -4.5190   24.0530  -30.6560 C   0  0  0  0  0  0  0  0  0  0  0  0
   -4.3320   22.7480  -31.0840 C   0  0  0  0  0  0  0  0  0  0  0  0
   -3.0460   22.1210  -31.4330 C   0  0  0  0  0  0  0  0  0  0  0  0
   -3.0567   21.1799  -32.0024 H   0  0  0  0  0  0  0  0  0  0  0  0
   -1.8980   22.6320  -31.0970 N   0  0  0  0  0  0  0  0  0  0  0  0
   -1.1690   22.3410  -29.8620 C   0  0  0  0  0  0  0  0  0  0  0  0
   -0.3157   21.6844  -30.0873 H   0  0  0  0  0  0  0  0  0  0  0  0
   -1.8429   21.8408  -29.1509 H   0  0  0  0  0  0  0  0  0  0  0  0
   -0.6580   23.6450  -29.2440 C   0  0  0  0  0  0  0  0  0  0  0  0
   -0.2051   24.2623  -30.0338 H   0  0  0  0  0  0  0  0  0  0  0  0
    0.0840   23.3953  -28.4712 H   0  0  0  0  0  0  0  0  0  0  0  0
   -1.7580   24.4070  -28.6070 N   0  0  0  0  0  0  0  0  0  0  0  0
   -1.2330   25.6210  -27.9420 C   0  0  0  0  0  0  0  0  0  0  0  0
   -1.9998   26.4090  -27.9742 H   0  0  0  0  0  0  0  0  0  0  0  0
   -0.3248   25.9456  -28.4709 H   0  0  0  0  0  0  0  0  0  0  0  0
   -0.8720   25.3340  -26.4850 C   0  0  0  0  0  0  0  0  0  0  0  0
   -1.5593   25.8804  -25.8225 H   0  0  0  0  0  0  0  0  0  0  0  0
   -0.9573   24.2544  -26.2919 H   0  0  0  0  0  0  0  0  0  0  0  0
    0.1605   25.6605  -26.2919 H   0  0  0  0  0  0  0  0  0  0  0  0
   -2.5500   23.5630  -27.6740 C   0  0  0  0  0  0  0  0  0  0  0  0
   -2.7069   22.5705  -28.1216 H   0  0  0  0  0  0  0  0  0  0  0  0
   -2.0043   23.4567  -26.7248 H   0  0  0  0  0  0  0  0  0  0  0  0
   -3.9000   24.2200  -27.4110 C   0  0  0  0  0  0  0  0  0  0  0  0
   -4.0638   24.2997  -26.3262 H   0  0  0  0  0  0  0  0  0  0  0  0
   -3.9122   25.2248  -27.8585 H   0  0  0  0  0  0  0  0  0  0  0  0
   -4.6982   23.6096  -27.8585 H   0  0  0  0  0  0  0  0  0  0  0  0
   -5.6000   22.2100  -31.1900 C   0  0  0  0  0  0  0  0  0  0  0  0
   -6.0290   20.9700  -31.6670 C   0  0  0  0  0  0  0  0  0  0  0  0
   -5.3068   20.2110  -32.0021 H   0  0  0  0  0  0  0  0  0  0  0  0
   -7.4120   20.7210  -31.7060 C   0  0  0  0  0  0  0  0  0  0  0  0
   -8.0550   19.0390  -32.3400 Br  0  0  0  0  0  0  0  0  0  0  0  0
   -8.3280   21.7140  -31.2940 C   0  0  0  0  0  0  0  0  0  0  0  0
   -9.4079   21.5070  -31.3262 H   0  0  0  0  0  0  0  0  0  0  0  0
   -7.8710   22.9650  -30.8430 C   0  0  0  0  0  0  0  0  0  0  0  0
   -8.5787   23.7480  -30.5330 H   0  0  0  0  0  0  0  0  0  0  0  0
   -6.4890   23.1850  -30.8000 C   0  0  0  0  0  0  0  0  0  0  0  0
   -5.8350   24.3150  -30.4490 N   0  0  0  0  0  0  0  0  0  0  0  0
   -6.4190   25.5980  -30.0560 C   0  0  0  0  0  0  0  0  0  0  0  0
   -6.4499   25.6660  -28.9585 H   0  0  0  0  0  0  0  0  0  0  0  0
   -5.8056   26.4183  -30.4570 H   0  0  0  0  0  0  0  0  0  0  0  0
   -7.4405   25.6741  -30.4570 H   0  0  0  0  0  0  0  0  0  0  0  0
  1  2  1  0
  2  3  1  0
  3  4  2  0
  4  5  1  0
  5  6  1  0
  5  7  2  0
  7  8  1  0
  8  9  1  0
  8 10  1  0
  8 11  1  0
 11 12  1  0
 11 13  1  0
 11 14  1  0
 14 15  1  0
 15 16  1  0
 15 17  1  0
 15 18  1  0
 18 19  1  0
 18 20  1  0
 18 21  1  0
 14 22  1  0
 22 23  1  0
 22 24  1  0
 22 25  1  0
 25 26  1  0
 25 27  1  0
 25 28  1  0
  4 29  1  0
 29 30  2  0
 30 31  1  0
 30 32  1  0
 32 33  1  0
 32 34  2  0
 34 35  1  0
 34 36  1  0
 36 37  1  0
 36 38  2  0
 38 39  1  0
 39 40  1  0
 40 41  1  0
 40 42  1  0
 40 43  1  0
 39  3  1  0
 38 29  1  0
M  END
>  <UniqueID>  (21) 
19

>  <SMILES>  (21) 
CCN(CC)CC/N=C\c1c(O)n(C)c2ccc(Br)cc12

>  <Energy>  (21) 
80.3780645956715

>  <Genealogy>  (21) 
CCN(CC)CC/N=C\c1c(O)n(C)c2ccc(Br)cc12 (cis-trans isomerization)
CCN(CC)CC/N=C\c1c(O)n(C)c2ccc(Br)cc12 (3D coordinates assigned)
CCN(CC)CC/N=C\c1c(O)n(C)c2ccc(Br)cc12 (optimized conformer: 80.3780645956715 kcal/mol)

>  <smiles>  (21) 
CCN(CC)CCN=Cc1c(O)n(C)c2ccc(Br)cc12

>  <score_type>  (21) 
oracle

>  <origin>  (21) 
adg

>  <m_score__min__energy>  (21) 
-7.9100000000000001

>  <m_primary>  (21) 
energy

$$$$
21:0
     RDKit          3D

 43 45  0  0  0  0  0  0  0  0999 V2000
   -4.5873   18.1653  -34.4174 H   0  0  0  0  0  0  0  0  0  0  0  0
   -5.2340   18.8090  -33.8030 C   0  0  0  0  0  0  0  0  0  0  0  0
   -6.4380   18.3100  -33.2990 C   0  0  0  0  0  0  0  0  0  0  0  0
   -6.7440   17.2783  -33.5269 H   0  0  0  0  0  0  0  0  0  0  0  0
   -7.2550   19.1230  -32.5040 C   0  0  0  0  0  0  0  0  0  0  0  0
   -8.4890   18.6060  -31.9720 C   0  0  0  0  0  0  0  0  0  0  0  0
   -9.4790   18.1890  -31.5440 N   0  0  0  0  0  0  0  0  0  0  0  0
   -6.8680   20.4390  -32.2230 C   0  0  0  0  0  0  0  0  0  0  0  0
   -7.4946   21.0683  -31.5739 H   0  0  0  0  0  0  0  0  0  0  0  0
   -5.6790   20.9590  -32.7690 C   0  0  0  0  0  0  0  0  0  0  0  0
   -5.2530   22.3030  -32.4910 N   0  0  0  0  0  0  0  0  0  0  0  0
   -5.1680   22.9400  -31.3470 C   0  0  0  0  0  0  0  0  0  0  0  0
   -6.3360   23.5710  -30.8760 C   0  0  0  0  0  0  0  0  0  0  0  0
   -7.6250   23.3190  -31.4810 C   0  0  0  0  0  0  0  0  0  0  0  0
   -8.6550   23.1160  -31.9660 N   0  0  0  0  0  0  0  0  0  0  0  0
   -6.2400   24.5510  -29.8890 C   0  0  0  0  0  0  0  0  0  0  0  0
   -7.1493   25.0511  -29.5243 H   0  0  0  0  0  0  0  0  0  0  0  0
   -5.0310   24.8910  -29.3760 N   0  0  0  0  0  0  0  0  0  0  0  0
   -4.9950   25.6690  -28.6770 H   0  0  0  0  0  0  0  0  0  0  0  0
   -3.8980   24.2070  -29.7010 C   0  0  0  0  0  0  0  0  0  0  0  0
   -2.6870   24.5500  -29.0970 C   0  0  0  0  0  0  0  0  0  0  0  0
   -2.6453   25.4197  -28.4248 H   0  0  0  0  0  0  0  0  0  0  0  0
   -1.5220   23.8040  -29.3330 C   0  0  0  0  0  0  0  0  0  0  0  0
   -0.2930   24.2070  -28.7850 O   0  0  0  0  0  0  0  0  0  0  0  0
    0.2490   23.7430  -27.5540 C   0  0  0  0  0  0  0  0  0  0  0  0
   -0.2929   24.2069  -26.7167 H   0  0  0  0  0  0  0  0  0  0  0  0
    0.1454   22.6494  -27.4968 H   0  0  0  0  0  0  0  0  0  0  0  0
    1.3136   24.0139  -27.4968 H   0  0  0  0  0  0  0  0  0  0  0  0
   -1.6030   22.6190  -30.1060 C   0  0  0  0  0  0  0  0  0  0  0  0
   -0.4850   21.7980  -30.3490 O   0  0  0  0  0  0  0  0  0  0  0  0
   -0.0320   20.6980  -29.5660 C   0  0  0  0  0  0  0  0  0  0  0  0
   -0.1325   20.9420  -28.4981 H   0  0  0  0  0  0  0  0  0  0  0  0
   -0.6373   19.8092  -29.7976 H   0  0  0  0  0  0  0  0  0  0  0  0
    1.0237   20.4932  -29.7976 H   0  0  0  0  0  0  0  0  0  0  0  0
   -2.8540   22.2330  -30.6620 C   0  0  0  0  0  0  0  0  0  0  0  0
   -3.0850   20.9440  -31.1870 O   0  0  0  0  0  0  0  0  0  0  0  0
   -2.1930   20.1530  -31.9650 C   0  0  0  0  0  0  0  0  0  0  0  0
   -1.5392   19.5732  -31.2969 H   0  0  0  0  0  0  0  0  0  0  0  0
   -2.7712   19.4653  -32.5996 H   0  0  0  0  0  0  0  0  0  0  0  0
   -1.5794   20.8093  -32.5996 H   0  0  0  0  0  0  0  0  0  0  0  0
   -3.9510   23.1320  -30.6190 C   0  0  0  0  0  0  0  0  0  0  0  0
   -4.8500   20.1240  -33.5280 C   0  0  0  0  0  0  0  0  0  0  0  0
   -3.8914   20.5053  -33.9098 H   0  0  0  0  0  0  0  0  0  0  0  0
  1  2  1  0
  2  3  2  0
  3  4  1  0
  3  5  1  0
  5  6  1  0
  6  7  3  0
  5  8  2  0
  8  9  1  0
  8 10  1  0
 10 11  1  0
 11 12  2  0
 12 13  1  0
 13 14  1  0
 14 15  3  0
 13 16  2  0
 16 17  1  0
 16 18  1  0
 18 19  1  0
 18 20  1  0
 20 21  2  0
 21 22  1  0
 21 23  1  0
 23 24  1  0
 24 25  1  0
 25 26  1  0
 25 27  1  0
 25 28  1  0
 23 29  2  0
 29 30  1  0
 30 31  1  0
 31 32  1  0
 31 33  1  0
 31 34  1  0
 29 35  1  0
 35 36  1  0
 36 37  1  0
 37 38  1  0
 37 39  1  0
 37 40  1  0
 35 41  2  0
 10 42  2  0
 42 43  1  0
 42  2  1  0
 41 12  1  0
 41 20  1  0
M  END
>  <UniqueID>  (22) 
20

>  <SMILES>  (22) 
COc1cc2[nH]cc(C#N)/c(=N/c3cccc(C#N)c3)c2c(OC)c1OC

>  <Energy>  (22) 
78.83056339731358

>  <Genealogy>  (22) 
COc1cc2[nH]cc(C#N)/c(=N/c3cccc(C#N)c3)c2c(OC)c1OC (cis-trans isomerization)
COc1cc2[nH]cc(C#N)/c(=N/c3cccc(C#N)c3)c2c(OC)c1OC (3D coordinates assigned)
COc1cc2[nH]cc(C#N)/c(=N/c3cccc(C#N)c3)c2c(OC)c1OC (optimized conformer: 78.83056339731358 kcal/mol)

>  <smiles>  (22) 
COc1cc2[nH]cc(C#N)c(=Nc3cccc(C#N)c3)c2c(OC)c1OC

>  <score_type>  (22) 
oracle

>  <origin>  (22) 
adg

>  <m_score__min__energy>  (22) 
-7.4500000000000002

>  <m_primary>  (22) 
energy

$$$$
22:0
     RDKit          3D

 34 36  0  0  0  0  0  0  0  0999 V2000
   -0.8500   22.0280  -25.3160 C   0  0  0  0  0  0  0  0  0  0  0  0
   -1.3580   22.4270  -26.6770 C   0  0  0  0  0  0  0  0  0  0  0  0
   -1.1530   23.7390  -27.1310 C   0  0  0  0  0  0  0  0  0  0  0  0
   -1.6100   24.1370  -28.3880 C   0  0  0  0  0  0  0  0  0  0  0  0
   -2.2810   23.2300  -29.2220 C   0  0  0  0  0  0  0  0  0  0  0  0
   -2.7870   23.6600  -30.5800 C   0  0  2  0  0  0  0  0  0  0  0  0
   -3.5110   24.9280  -30.4660 N   0  0  0  0  0  0  0  0  0  0  0  0
   -4.9350   25.0080  -30.4280 C   0  0  0  0  0  0  0  0  0  0  0  0
   -5.4890   26.1110  -30.1730 O   0  0  0  0  0  0  0  0  0  0  0  0
   -5.7340   23.8060  -30.7140 C   0  0  0  0  0  0  0  0  0  0  0  0
   -7.1380   23.8180  -30.6420 C   0  0  0  0  0  0  0  0  0  0  0  0
   -7.8640   22.6630  -30.9440 C   0  0  0  0  0  0  0  0  0  0  0  0
   -7.1980   21.4950  -31.3220 C   0  0  0  0  0  0  0  0  0  0  0  0
   -5.8020   21.4780  -31.3960 C   0  0  0  0  0  0  0  0  0  0  0  0
   -5.0640   22.6300  -31.0870 C   0  0  0  0  0  0  0  0  0  0  0  0
   -3.6280   22.6090  -31.1610 N   0  0  0  0  0  0  0  0  0  0  0  0
   -2.4880   21.9160  -28.7740 C   0  0  0  0  0  0  0  0  0  0  0  0
   -2.0270   21.5010  -27.5120 C   0  0  0  0  0  0  0  0  0  0  0  0
   -2.2720   20.0830  -27.0660 C   0  0  0  0  0  0  0  0  0  0  0  0
   -1.4632   22.5096  -24.5401 H   0  0  0  0  0  0  0  0  0  0  0  0
   -0.9127   20.9352  -25.2071 H   0  0  0  0  0  0  0  0  0  0  0  0
    0.1968   22.3479  -25.2071 H   0  0  0  0  0  0  0  0  0  0  0  0
   -0.6267   24.4610  -26.4894 H   0  0  0  0  0  0  0  0  0  0  0  0
   -1.4429   25.1698  -28.7276 H   0  0  0  0  0  0  0  0  0  0  0  0
   -1.9331   23.8178  -31.2553 H   0  0  0  0  0  0  0  0  0  0  0  0
   -7.6654   24.7374  -30.3477 H   0  0  0  0  0  0  0  0  0  0  0  0
   -8.9623   22.6736  -30.8839 H   0  0  0  0  0  0  0  0  0  0  0  0
   -7.7722   20.5879  -31.5616 H   0  0  0  0  0  0  0  0  0  0  0  0
   -5.2805   20.5577  -31.6977 H   0  0  0  0  0  0  0  0  0  0  0  0
   -3.1530   21.7430  -31.5050 H   0  0  0  0  0  0  0  0  0  0  0  0
   -3.0185   21.2005  -29.4195 H   0  0  0  0  0  0  0  0  0  0  0  0
   -2.2794   20.0404  -25.9668 H   0  0  0  0  0  0  0  0  0  0  0  0
   -3.2428   19.7395  -27.4528 H   0  0  0  0  0  0  0  0  0  0  0  0
   -1.4727   19.4337  -27.4528 H   0  0  0  0  0  0  0  0  0  0  0  0
  1  2  1  0
  2  3  2  0
  3  4  1  0
  4  5  2  0
  5  6  1  0
  6  7  1  0
  7  8  1  0
  8  9  2  0
  8 10  1  0
 10 11  2  0
 11 12  1  0
 12 13  2  0
 13 14  1  0
 14 15  2  0
 15 16  1  0
  5 17  1  0
 17 18  2  0
 18 19  1  0
 18  2  1  0
 16  6  1  0
 15 10  1  0
  1 20  1  0
  1 21  1  0
  1 22  1  0
  3 23  1  0
  4 24  1  0
  6 25  1  6
 11 26  1  0
 12 27  1  0
 13 28  1  0
 14 29  1  0
 16 30  1  0
 17 31  1  0
 19 32  1  0
 19 33  1  0
 19 34  1  0
M  CHG  1   7  -1
M  END
>  <UniqueID>  (23) 
21

>  <SMILES>  (23) 
Cc1ccc([C@@H]2[N-]C(=O)c3ccccc3N2)cc1C

>  <Energy>  (23) 
38.21619438200356

>  <Genealogy>  (23) 
Cc1ccc(C2[N-]C(=O)c3ccccc3N2)cc1C (protonated)
Cc1ccc([C@@H]2[N-]C(=O)c3ccccc3N2)cc1C (chirality)
Cc1ccc([C@@H]2[N-]C(=O)c3ccccc3N2)cc1C (3D coordinates assigned)
Cc1ccc([C@@H]2[N-]C(=O)c3ccccc3N2)cc1C (nonaromatic ring conformer: 38.21619438200356 kcal/mol)

>  <smiles>  (23) 
Cc1ccc(C2NC(=O)c3ccccc3N2)cc1C

>  <score_type>  (23) 
oracle

>  <origin>  (23) 
adg

>  <m_score__min__energy>  (23) 
-8.3399999999999999

>  <m_primary>  (23) 
energy

$$$$
23:0
     RDKit          3D

 22 23  0  0  0  0  0  0  0  0999 V2000
   -6.8440   25.0140  -29.7660 C   0  0  0  0  0  0  0  0  0  0  0  0
   -6.2950   23.7710  -30.3940 C   0  0  0  0  0  0  0  0  0  0  0  0
   -7.1150   22.7330  -30.7210 N   0  0  0  0  0  0  0  0  0  0  0  0
   -6.4470   21.6970  -31.2790 C   0  0  0  0  0  0  0  0  0  0  0  0
   -7.1040   20.4460  -31.7230 C   0  0  0  0  0  0  0  0  0  0  0  0
   -6.3590   19.2750  -31.9470 C   0  0  0  0  0  0  0  0  0  0  0  0
   -7.0090   18.1110  -32.3660 C   0  0  0  0  0  0  0  0  0  0  0  0
   -8.3540   18.1110  -32.5560 N   0  0  0  0  0  0  0  0  0  0  0  0
   -9.1020   19.2260  -32.3490 C   0  0  0  0  0  0  0  0  0  0  0  0
   -8.4930   20.4120  -31.9290 C   0  0  0  0  0  0  0  0  0  0  0  0
   -4.8000   22.0370  -31.3850 S   0  0  0  0  0  0  0  0  0  0  0  0
   -4.9430   23.5650  -30.6950 C   0  0  0  0  0  0  0  0  0  0  0  0
   -3.8100   24.4790  -30.4710 C   0  0  0  0  0  0  0  0  0  0  0  0
   -3.8610   25.6790  -30.8480 O   0  0  0  0  0  0  0  0  0  0  0  0
   -2.6650   24.0160  -29.8340 O   0  0  0  0  0  0  0  0  0  0  0  0
   -6.8027   24.9205  -28.6708 H   0  0  0  0  0  0  0  0  0  0  0  0
   -6.2448   25.8803  -30.0829 H   0  0  0  0  0  0  0  0  0  0  0  0
   -7.8879   25.1546  -30.0829 H   0  0  0  0  0  0  0  0  0  0  0  0
   -5.2698   19.2750  -31.7932 H   0  0  0  0  0  0  0  0  0  0  0  0
   -6.4300   17.1925  -32.5424 H   0  0  0  0  0  0  0  0  0  0  0  0
  -10.1894   19.1954  -32.5123 H   0  0  0  0  0  0  0  0  0  0  0  0
   -9.0988   21.3146  -31.7606 H   0  0  0  0  0  0  0  0  0  0  0  0
  1  2  1  0
  2  3  1  0
  3  4  2  0
  4  5  1  0
  5  6  2  0
  6  7  1  0
  7  8  2  0
  8  9  1  0
  9 10  2  0
  4 11  1  0
 11 12  1  0
 12 13  1  0
 13 14  2  0
 13 15  1  0
 12  2  2  0
 10  5  1  0
  1 16  1  0
  1 17  1  0
  1 18  1  0
  6 19  1  0
  7 20  1  0
  9 21  1  0
 10 22  1  0
M  CHG  1  15  -1
M  END
>  <UniqueID>  (24) 
22

>  <SMILES>  (24) 
Cc1nc(-c2ccncc2)sc1C(=O)[O-]

>  <Energy>  (24) 
53.41832987577061

>  <Genealogy>  (24) 
Cc1nc(-c2ccncc2)sc1C(=O)[O-] (protonated)
Cc1nc(-c2ccncc2)sc1C(=O)[O-] (3D coordinates assigned)
Cc1nc(-c2ccncc2)sc1C(=O)[O-] (optimized conformer: 53.41832987577061 kcal/mol)

>  <smiles>  (24) 
Cc1nc(-c2ccncc2)sc1C(=O)O

>  <score_type>  (24) 
oracle

>  <origin>  (24) 
adg

>  <m_score__min__energy>  (24) 
-8.5500000000000007

>  <m_primary>  (24) 
energy

$$$$
24:0
     RDKit          3D

 47 50  0  0  0  0  0  0  0  0999 V2000
   -3.0130   24.5470  -29.1370 O   0  0  0  0  0  0  0  0  0  0  0  0
   -3.6920   24.5050  -30.1810 N   0  0  0  0  0  0  0  0  0  0  0  0
   -3.9330   25.6730  -30.8660 O   0  0  0  0  0  0  0  0  0  0  0  0
   -4.2130   23.2700  -30.6930 C   0  0  0  0  0  0  0  0  0  0  0  0
   -5.5220   23.0940  -30.9510 N   0  0  0  0  0  0  0  0  0  0  0  0
   -5.6880   21.8530  -31.3820 N   0  0  0  0  0  0  0  0  0  0  0  0
   -6.9740   21.2870  -31.6950 C   0  0  0  0  0  0  0  0  0  0  0  0
   -7.0660   19.9260  -32.0380 C   0  0  0  0  0  0  0  0  0  0  0  0
   -8.3020   19.3580  -32.3620 C   0  0  0  0  0  0  0  0  0  0  0  0
   -9.4590   20.1380  -32.3390 C   0  0  0  0  0  0  0  0  0  0  0  0
   -9.3840   21.4860  -31.9830 C   0  0  0  0  0  0  0  0  0  0  0  0
   -8.1520   22.0640  -31.6590 C   0  0  0  0  0  0  0  0  0  0  0  0
   -8.1260   23.3620  -31.2690 F   0  0  0  0  0  0  0  0  0  0  0  0
   -4.4980   21.2140  -31.3920 C   0  0  0  0  0  0  0  0  0  0  0  0
   -3.5210   22.0870  -30.9520 C   0  0  0  0  0  0  0  0  0  0  0  0
   -2.0600   21.7530  -30.7580 C   0  0  0  0  0  0  0  0  0  0  0  0
   -1.7360   21.2930  -29.3890 N   0  0  0  0  0  0  0  0  0  0  0  0
   -0.2950   21.2370  -29.0530 C   0  0  0  0  0  0  0  0  0  0  0  0
    0.2400   22.5710  -28.4950 C   0  0  0  0  0  0  0  0  0  0  0  0
   -0.7810   23.2750  -27.7180 N   0  0  0  0  0  0  0  0  0  0  0  0
   -0.5910   24.6690  -27.4170 C   0  0  0  0  0  0  0  0  0  0  0  0
   -1.5510   25.4860  -27.1500 N   0  0  0  0  0  0  0  0  0  0  0  0
   -1.0120   26.8150  -26.9150 C   0  0  0  0  0  0  0  0  0  0  0  0
    0.5030   26.6470  -27.1130 C   0  0  0  0  0  0  0  0  0  0  0  0
    0.6500   25.2730  -27.4290 O   0  0  0  0  0  0  0  0  0  0  0  0
   -1.8990   22.4980  -27.1790 C   0  0  0  0  0  0  0  0  0  0  0  0
   -2.6390   21.7980  -28.3250 C   0  0  0  0  0  0  0  0  0  0  0  0
   -6.1589   19.3039  -32.0515 H   0  0  0  0  0  0  0  0  0  0  0  0
   -8.3625   18.2943  -32.6355 H   0  0  0  0  0  0  0  0  0  0  0  0
  -10.4294   19.6911  -32.6012 H   0  0  0  0  0  0  0  0  0  0  0  0
  -10.2985   22.0967  -31.9572 H   0  0  0  0  0  0  0  0  0  0  0  0
   -4.3336   20.1708  -31.6996 H   0  0  0  0  0  0  0  0  0  0  0  0
   -1.7879   20.9566  -31.4664 H   0  0  0  0  0  0  0  0  0  0  0  0
   -1.4909   22.6782  -30.9315 H   0  0  0  0  0  0  0  0  0  0  0  0
   -0.1404   20.4526  -28.2975 H   0  0  0  0  0  0  0  0  0  0  0  0
    0.2538   21.0223  -29.9818 H   0  0  0  0  0  0  0  0  0  0  0  0
    1.1047   22.3662  -27.8466 H   0  0  0  0  0  0  0  0  0  0  0  0
    0.5292   23.2089  -29.3432 H   0  0  0  0  0  0  0  0  0  0  0  0
   -2.5690   25.2560  -27.1470 H   0  0  0  0  0  0  0  0  0  0  0  0
   -1.4224   27.5359  -27.6374 H   0  0  0  0  0  0  0  0  0  0  0  0
   -1.2664   27.2029  -25.9176 H   0  0  0  0  0  0  0  0  0  0  0  0
    0.8635   27.2799  -27.9373 H   0  0  0  0  0  0  0  0  0  0  0  0
    1.0844   26.9456  -26.2282 H   0  0  0  0  0  0  0  0  0  0  0  0
   -1.5154   21.7437  -26.4762 H   0  0  0  0  0  0  0  0  0  0  0  0
   -2.5924   23.1716  -26.6541 H   0  0  0  0  0  0  0  0  0  0  0  0
   -3.1988   20.9469  -27.9100 H   0  0  0  0  0  0  0  0  0  0  0  0
   -3.3004   22.5450  -28.7883 H   0  0  0  0  0  0  0  0  0  0  0  0
  1  2  2  0
  2  3  1  0
  2  4  1  0
  4  5  2  0
  5  6  1  0
  6  7  1  0
  7  8  2  0
  8  9  1  0
  9 10  2  0
 10 11  1  0
 11 12  2  0
 12 13  1  0
  6 14  1  0
 14 15  2  0
 15 16  1  0
 16 17  1  0
 17 18  1  0
 18 19  1  0
 19 20  1  0
 20 21  1  0
 21 22  2  0
 22 23  1  0
 23 24  1  0
 24 25  1  0
 20 26  1  0
 26 27  1  0
 15  4  1  0
 27 17  1  0
 12  7  1  0
 25 21  1  0
  8 28  1  0
  9 29  1  0
 10 30  1  0
 11 31  1  0
 14 32  1  0
 16 33  1  0
 16 34  1  0
 18 35  1  0
 18 36  1  0
 19 37  1  0
 19 38  1  0
 22 39  1  0
 23 40  1  0
 23 41  1  0
 24 42  1  0
 24 43  1  0
 26 44  1  0
 26 45  1  0
 27 46  1  0
 27 47  1  0
M  CHG  3   2   1   3  -1  22   1
M  END
>  <UniqueID>  (25) 
23

>  <SMILES>  (25) 
O=[N+]([O-])c1nn(-c2ccccc2F)cc1CN1CCN(C2=[NH+]CCO2)CC1

>  <Energy>  (25) 
106.82323170034368

>  <Genealogy>  (25) 
O=[N+]([O-])c1nn(-c2ccccc2F)cc1CN1CCN(C2=[NH+]CCO2)CC1 (protonated)
O=[N+]([O-])c1nn(-c2ccccc2F)cc1CN1CCN(C2=[NH+]CCO2)CC1 (3D coordinates assigned)
O=[N+]([O-])c1nn(-c2ccccc2F)cc1CN1CCN(C2=[NH+]CCO2)CC1 (nonaromatic ring conformer: 106.82323170034368 kcal/mol)

>  <smiles>  (25) 
O=[N+]([O-])c1nn(-c2ccccc2F)cc1CN1CCN(C2=NCCO2)CC1

>  <score_type>  (25) 
oracle

>  <origin>  (25) 
adg

>  <m_score__min__energy>  (25) 
-8.4299999999999997

>  <m_primary>  (25) 
energy

$$$$
25:0
     RDKit          3D

 45 47  0  0  0  0  0  0  0  0999 V2000
   -5.2470   25.6730  -30.4700 C   0  0  0  0  0  0  0  0  0  0  0  0
   -4.0350   24.9850  -30.4690 O   0  0  0  0  0  0  0  0  0  0  0  0
   -3.8780   23.6350  -30.2530 C   0  0  0  0  0  0  0  0  0  0  0  0
   -3.5220   23.1270  -29.0210 C   0  0  0  0  0  0  0  0  0  0  0  0
   -3.3640   21.7510  -28.8060 C   0  0  0  0  0  0  0  0  0  0  0  0
   -2.9700   21.3310  -27.4660 C   0  0  0  0  0  0  0  0  0  0  0  0
   -2.1730   20.1150  -27.3550 C   0  0  0  0  0  0  0  0  0  0  0  0
   -0.9550   20.0560  -28.0530 C   0  0  0  0  0  0  0  0  0  0  0  0
   -0.1520   18.9810  -27.9820 N   0  0  0  0  0  0  0  0  0  0  0  0
   -0.4930   17.9040  -27.2230 C   0  0  0  0  0  0  0  0  0  0  0  0
    0.2770   16.8720  -27.1540 N   0  0  0  0  0  0  0  0  0  0  0  0
   -1.6490   17.9300  -26.5450 N   0  0  0  0  0  0  0  0  0  0  0  0
   -2.4720   19.0050  -26.6050 C   0  0  0  0  0  0  0  0  0  0  0  0
   -3.5680   18.9210  -25.9410 N   0  0  0  0  0  0  0  0  0  0  0  0
   -3.5850   20.9490  -29.8930 C   0  0  0  0  0  0  0  0  0  0  0  0
   -3.9440   21.4330  -31.1390 C   0  0  0  0  0  0  0  0  0  0  0  0
   -4.1590   20.5430  -32.2220 N   0  0  0  0  0  0  0  0  0  0  0  0
   -5.3310   20.0890  -32.7350 C   0  0  0  0  0  0  0  0  0  0  0  0
   -6.6780   20.4820  -32.2020 C   0  0  0  0  0  0  0  0  0  0  0  0
   -5.0590   19.2380  -33.7910 C   0  0  0  0  0  0  0  0  0  0  0  0
   -3.6950   19.1990  -33.8910 C   0  0  0  0  0  0  0  0  0  0  0  0
   -3.1310   20.0050  -32.9230 C   0  0  0  0  0  0  0  0  0  0  0  0
   -1.6720   20.2000  -32.7390 C   0  0  0  0  0  0  0  0  0  0  0  0
   -4.0940   22.7840  -31.3290 C   0  0  0  0  0  0  0  0  0  0  0  0
   -5.5665   25.8544  -29.4332 H   0  0  0  0  0  0  0  0  0  0  0  0
   -5.1222   26.6349  -30.9888 H   0  0  0  0  0  0  0  0  0  0  0  0
   -6.0089   25.0728  -30.9888 H   0  0  0  0  0  0  0  0  0  0  0  0
   -3.3575   23.8212  -28.1838 H   0  0  0  0  0  0  0  0  0  0  0  0
   -2.3867   22.1505  -27.0207 H   0  0  0  0  0  0  0  0  0  0  0  0
   -3.9148   21.0979  -26.9532 H   0  0  0  0  0  0  0  0  0  0  0  0
   -0.6510   20.9119  -28.6735 H   0  0  0  0  0  0  0  0  0  0  0  0
    0.7400   18.9970  -28.5240 H   0  0  0  0  0  0  0  0  0  0  0  0
    0.0720   16.0220  -26.6230 H   0  0  0  0  0  0  0  0  0  0  0  0
   -1.8860   17.0930  -25.9720 H   0  0  0  0  0  0  0  0  0  0  0  0
   -4.2340   19.7140  -25.9700 H   0  0  0  0  0  0  0  0  0  0  0  0
   -3.4712   19.8619  -29.7697 H   0  0  0  0  0  0  0  0  0  0  0  0
   -6.6535   20.4749  -31.1023 H   0  0  0  0  0  0  0  0  0  0  0  0
   -6.9323   21.4918  -32.5565 H   0  0  0  0  0  0  0  0  0  0  0  0
   -7.4354   19.7674  -32.5565 H   0  0  0  0  0  0  0  0  0  0  0  0
   -5.7872   18.7041  -34.4192 H   0  0  0  0  0  0  0  0  0  0  0  0
   -3.1320   18.6128  -34.6322 H   0  0  0  0  0  0  0  0  0  0  0  0
   -1.4389   20.2312  -31.6644 H   0  0  0  0  0  0  0  0  0  0  0  0
   -1.1286   19.3665  -33.2081 H   0  0  0  0  0  0  0  0  0  0  0  0
   -1.3666   21.1470  -33.2081 H   0  0  0  0  0  0  0  0  0  0  0  0
   -4.3794   23.1843  -32.3130 H   0  0  0  0  0  0  0  0  0  0  0  0
  1  2  1  0
  2  3  1  0
  3  4  2  0
  4  5  1  0
  5  6  1  0
  6  7  1  0
  7  8  2  0
  8  9  1  0
  9 10  1  0
 10 11  2  3
 10 12  1  0
 12 13  1  0
 13 14  2  3
  5 15  2  0
 15 16  1  0
 16 17  1  0
 17 18  1  0
 18 19  1  0
 18 20  2  0
 20 21  1  0
 21 22  2  0
 22 23  1  0
 16 24  2  0
 24  3  1  0
 13  7  1  0
 22 17  1  0
  1 25  1  0
  1 26  1  0
  1 27  1  0
  4 28  1  0
  6 29  1  0
  6 30  1  0
  8 31  1  0
  9 32  1  0
 11 33  1  0
 12 34  1  0
 14 35  1  0
 15 36  1  0
 19 37  1  0
 19 38  1  0
 19 39  1  0
 20 40  1  0
 21 41  1  0
 23 42  1  0
 23 43  1  0
 23 44  1  0
 24 45  1  0
M  END
>  <smiles>  (26) 
COc1cc(Cc2c[nH]c(=N)[nH]c2=N)cc(-n2c(C)ccc2C)c1

>  <score_type>  (26) 
oracle

>  <origin>  (26) 
adg

>  <m_score__min__energy>  (26) 
-8.5299999999999994

>  <m_primary>  (26) 
energy

$$$$
26:0
     RDKit          3D

 37 38  0  0  0  0  0  0  0  0999 V2000
   -1.3060   25.8980  -26.2740 C   0  0  0  0  0  0  0  0  0  0  0  0
   -0.1360   26.3230  -27.1470 C   0  0  0  0  0  0  0  0  0  0  0  0
    0.2970   25.2170  -27.9100 O   0  0  0  0  0  0  0  0  0  0  0  0
   -0.7140   24.2260  -27.9730 C   0  0  0  0  0  0  0  0  0  0  0  0
   -1.4400   24.2590  -29.3260 C   0  0  0  0  0  0  0  0  0  0  0  0
   -2.9340   24.5400  -29.1650 C   0  0  0  0  0  0  0  0  0  0  0  0
   -3.5000   24.9280  -30.4530 N   0  0  0  0  0  0  0  0  0  0  0  0
   -4.8280   24.6000  -30.8730 C   0  0  0  0  0  0  0  0  0  0  0  0
   -5.7050   25.5030  -30.8940 O   0  0  0  0  0  0  0  0  0  0  0  0
   -5.1940   23.2330  -31.2870 C   0  0  0  0  0  0  0  0  0  0  0  0
   -4.3260   22.2020  -31.6150 C   0  0  0  0  0  0  0  0  0  0  0  0
   -2.8340   22.2660  -31.6050 C   0  0  0  0  0  0  0  0  0  0  0  0
   -5.0260   21.1010  -31.9800 N   0  0  0  0  0  0  0  0  0  0  0  0
   -6.3130   21.4950  -31.8680 C   0  0  0  0  0  0  0  0  0  0  0  0
   -7.4350   20.7160  -32.1530 C   0  0  0  0  0  0  0  0  0  0  0  0
   -7.2820   19.0470  -32.6790 Cl  0  0  0  0  0  0  0  0  0  0  0  0
   -8.6980   21.3130  -32.0140 C   0  0  0  0  0  0  0  0  0  0  0  0
   -8.8090   22.6570  -31.6130 C   0  0  0  0  0  0  0  0  0  0  0  0
   -7.6480   23.3950  -31.3440 C   0  0  0  0  0  0  0  0  0  0  0  0
   -6.4450   22.7720  -31.4630 N   0  0  0  0  0  0  0  0  0  0  0  0
   -1.0285   25.9988  -25.2144 H   0  0  0  0  0  0  0  0  0  0  0  0
   -2.1747   26.5380  -26.4880 H   0  0  0  0  0  0  0  0  0  0  0  0
   -1.5614   24.8497  -26.4880 H   0  0  0  0  0  0  0  0  0  0  0  0
   -0.4538   27.1330  -27.8200 H   0  0  0  0  0  0  0  0  0  0  0  0
    0.6884   26.6812  -26.5130 H   0  0  0  0  0  0  0  0  0  0  0  0
   -0.2549   23.2358  -27.8361 H   0  0  0  0  0  0  0  0  0  0  0  0
   -1.4481   24.4261  -27.1786 H   0  0  0  0  0  0  0  0  0  0  0  0
   -0.9948   25.0486  -29.9492 H   0  0  0  0  0  0  0  0  0  0  0  0
   -1.3279   23.2713  -29.7970 H   0  0  0  0  0  0  0  0  0  0  0  0
   -3.4399   23.6337  -28.8007 H   0  0  0  0  0  0  0  0  0  0  0  0
   -3.0766   25.3567  -28.4420 H   0  0  0  0  0  0  0  0  0  0  0  0
   -2.4746   22.2814  -30.5655 H   0  0  0  0  0  0  0  0  0  0  0  0
   -2.4257   21.3845  -32.1211 H   0  0  0  0  0  0  0  0  0  0  0  0
   -2.5027   23.1792  -32.1211 H   0  0  0  0  0  0  0  0  0  0  0  0
   -9.6058   20.7268  -32.2197 H   0  0  0  0  0  0  0  0  0  0  0  0
   -9.7992   23.1251  -31.5114 H   0  0  0  0  0  0  0  0  0  0  0  0
   -7.7085   24.4516  -31.0442 H   0  0  0  0  0  0  0  0  0  0  0  0
  1  2  1  0
  2  3  1  0
  3  4  1  0
  4  5  1  0
  5  6  1  0
  6  7  1  0
  7  8  1  0
  8  9  2  0
  8 10  1  0
 10 11  2  0
 11 12  1  0
 11 13  1  0
 13 14  2  0
 14 15  1  0
 15 16  1  0
 15 17  2  0
 17 18  1  0
 18 19  2  0
 19 20  1  0
 20 10  1  0
 20 14  1  0
  1 21  1  0
  1 22  1  0
  1 23  1  0
  2 24  1  0
  2 25  1  0
  4 26  1  0
  4 27  1  0
  5 28  1  0
  5 29  1  0
  6 30  1  0
  6 31  1  0
 12 32  1  0
 12 33  1  0
 12 34  1  0
 17 35  1  0
 18 36  1  0
 19 37  1  0
M  CHG  1   7  -1
M  END
>  <UniqueID>  (27) 
24

>  <SMILES>  (27) 
CCOCCC[N-]C(=O)c1c(C)nc2c(Cl)cccn12

>  <Energy>  (27) 
69.49750899908514

>  <Genealogy>  (27) 
CCOCCC[N-]C(=O)c1c(C)nc2c(Cl)cccn12 (protonated)
CCOCCC[N-]C(=O)c1c(C)nc2c(Cl)cccn12 (3D coordinates assigned)
CCOCCC[N-]C(=O)c1c(C)nc2c(Cl)cccn12 (optimized conformer: 69.49750899908514 kcal/mol)

>  <smiles>  (27) 
CCOCCCNC(=O)c1c(C)nc2c(Cl)cccn12

>  <score_type>  (27) 
oracle

>  <origin>  (27) 
adg

>  <m_score__min__energy>  (27) 
-8.6799999999999997

>  <m_primary>  (27) 
energy

$$$$
27:0
     RDKit          3D

 41 42  0  0  0  0  0  0  0  0999 V2000
   -0.2760   21.2980  -28.4580 C   0  0  0  0  0  0  0  0  0  0  0  0
   -1.2930   22.4420  -28.5340 C   0  0  0  0  0  0  0  0  0  0  0  0
   -1.8570   22.7480  -27.1330 C   0  0  0  0  0  0  0  0  0  0  0  0
   -2.3730   22.1290  -29.5780 C   0  0  0  0  0  0  0  0  0  0  0  0
   -2.5100   20.7930  -30.0040 C   0  0  0  0  0  0  0  0  0  0  0  0
   -3.5440   20.4020  -30.8400 C   0  0  0  0  0  0  0  0  0  0  0  0
   -4.4560   21.3350  -31.3100 C   0  0  0  0  0  0  0  0  0  0  0  0
   -4.3050   22.7020  -31.0140 C   0  0  0  0  0  0  0  0  0  0  0  0
   -5.2030   23.6670  -31.5350 C   0  0  0  0  0  0  0  0  0  0  0  0
   -6.2820   23.3170  -32.4250 N   0  0  0  0  0  0  0  0  0  0  0  0
   -7.6410   23.0590  -31.9510 C   0  0  0  0  0  0  0  0  0  0  0  0
   -7.7930   21.5980  -31.5130 C   0  0  0  0  0  0  0  0  0  0  0  0
   -8.0840   20.7250  -32.6730 N   0  0  0  0  0  0  0  0  0  0  0  0
   -9.1040   19.7180  -32.3330 C   0  0  0  0  0  0  0  0  0  0  0  0
   -6.8590   20.0480  -33.1260 C   0  0  0  0  0  0  0  0  0  0  0  0
   -5.0230   24.9710  -31.2140 N   0  0  0  0  0  0  0  0  0  0  0  0
   -4.0070   25.3820  -30.4660 N   0  0  0  0  0  0  0  0  0  0  0  0
   -3.0920   24.5250  -29.9550 C   0  0  0  0  0  0  0  0  0  0  0  0
   -2.1140   25.0170  -29.3370 O   0  0  0  0  0  0  0  0  0  0  0  0
   -3.2360   23.1250  -30.1610 C   0  0  0  0  0  0  0  0  0  0  0  0
   -0.0669   21.0627  -27.4040 H   0  0  0  0  0  0  0  0  0  0  0  0
   -0.6868   20.4083  -28.9577 H   0  0  0  0  0  0  0  0  0  0  0  0
    0.6557   21.6018  -28.9577 H   0  0  0  0  0  0  0  0  0  0  0  0
   -0.7958   23.3622  -28.8747 H   0  0  0  0  0  0  0  0  0  0  0  0
   -1.1624   22.3712  -26.3678 H   0  0  0  0  0  0  0  0  0  0  0  0
   -1.9773   23.8351  -27.0156 H   0  0  0  0  0  0  0  0  0  0  0  0
   -2.8339   22.2562  -27.0156 H   0  0  0  0  0  0  0  0  0  0  0  0
   -1.7798   20.0433  -29.6654 H   0  0  0  0  0  0  0  0  0  0  0  0
   -3.6418   19.3460  -31.1322 H   0  0  0  0  0  0  0  0  0  0  0  0
   -5.3076   21.0022  -31.9215 H   0  0  0  0  0  0  0  0  0  0  0  0
   -6.1650   23.4120  -33.4580 H   0  0  0  0  0  0  0  0  0  0  0  0
   -7.8563   23.7167  -31.0960 H   0  0  0  0  0  0  0  0  0  0  0  0
   -8.3459   23.2576  -32.7718 H   0  0  0  0  0  0  0  0  0  0  0  0
   -6.8583   21.2656  -31.0379 H   0  0  0  0  0  0  0  0  0  0  0  0
   -8.6308   21.5297  -30.8034 H   0  0  0  0  0  0  0  0  0  0  0  0
   -9.1875   19.6355  -31.2393 H   0  0  0  0  0  0  0  0  0  0  0  0
  -10.0741   20.0224  -32.7529 H   0  0  0  0  0  0  0  0  0  0  0  0
   -8.8121   18.7441  -32.7529 H   0  0  0  0  0  0  0  0  0  0  0  0
   -6.2742   19.7248  -32.2522 H   0  0  0  0  0  0  0  0  0  0  0  0
   -7.1279   19.1704  -33.7323 H   0  0  0  0  0  0  0  0  0  0  0  0
   -6.2590   20.7426  -33.7323 H   0  0  0  0  0  0  0  0  0  0  0  0
  1  2  1  0
  2  3  1  0
  2  4  1  0
  4  5  2  0
  5  6  1  0
  6  7  2  0
  7  8  1  0
  8  9  1  0
  9 10  1  0
 10 11  1  0
 11 12  1  0
 12 13  1  0
 13 14  1  0
 13 15  1  0
  9 16  2  0
 16 17  1  0
 17 18  1  0
 18 19  2  0
 18 20  1  0
 20  4  1  0
 20  8  2  0
  1 21  1  0
  1 22  1  0
  1 23  1  0
  2 24  1  0
  3 25  1  0
  3 26  1  0
  3 27  1  0
  5 28  1  0
  6 29  1  0
  7 30  1  0
 10 31  1  0
 11 32  1  0
 11 33  1  0
 12 34  1  0
 12 35  1  0
 14 36  1  0
 14 37  1  0
 14 38  1  0
 15 39  1  0
 15 40  1  0
 15 41  1  0
M  CHG  1  17  -1
M  END
>  <UniqueID>  (28) 
25

>  <SMILES>  (28) 
CC(C)c1cccc2c(NCCN(C)C)n[n-]c(=O)c12

>  <Energy>  (28) 
54.73336072370687

>  <Genealogy>  (28) 
CC(C)c1cccc2c(NCCN(C)C)n[n-]c(=O)c12 (protonated)
CC(C)c1cccc2c(NCCN(C)C)n[n-]c(=O)c12 (3D coordinates assigned)
CC(C)c1cccc2c(NCCN(C)C)n[n-]c(=O)c12 (optimized conformer: 54.73336072370687 kcal/mol)

>  <smiles>  (28) 
CC(C)c1cccc2c(NCCN(C)C)n[nH]c(=O)c12

>  <score_type>  (28) 
oracle

>  <origin>  (28) 
adg

>  <m_score__min__energy>  (28) 
-8.8800000000000008

>  <m_primary>  (28) 
energy

$$$$
28:0
     RDKit          3D

 51 53  0  0  0  0  0  0  0  0999 V2000
    1.9990   22.4520  -35.8000 C   0  0  0  0  0  0  0  0  0  0  0  0
    0.8820   21.4490  -35.5290 C   0  0  2  0  0  0  0  0  0  0  0  0
    0.2430   21.1630  -36.7210 F   0  0  0  0  0  0  0  0  0  0  0  0
   -0.0740   21.9940  -34.6190 O   0  0  0  0  0  0  0  0  0  0  0  0
   -0.8550   21.2580  -33.7130 C   0  0  0  0  0  0  0  0  0  0  0  0
   -1.7980   20.3630  -34.2340 C   0  0  0  0  0  0  0  0  0  0  0  0
   -2.6110   19.6120  -33.3820 C   0  0  0  0  0  0  0  0  0  0  0  0
   -2.4860   19.7440  -31.9980 C   0  0  0  0  0  0  0  0  0  0  0  0
   -1.5340   20.6200  -31.4560 C   0  0  0  0  0  0  0  0  0  0  0  0
   -1.4300   20.7980  -29.9620 C   0  0  0  0  0  0  0  0  0  0  0  0
   -2.3050   21.8920  -29.5120 N   0  0  0  0  0  0  0  0  0  0  0  0
   -2.2120   22.0640  -28.0530 C   0  0  0  0  0  0  0  0  0  0  0  0
   -2.8440   23.3880  -27.5830 C   0  0  0  0  0  0  0  0  0  0  0  0
   -2.1620   24.6490  -28.1380 C   0  0  0  0  0  0  0  0  0  0  0  0
   -2.5760   24.9080  -29.5180 N   0  0  0  0  0  0  0  0  0  0  0  0
   -3.8390   24.4700  -30.0480 C   0  0  0  0  0  0  0  0  0  0  0  0
   -5.0180   25.1390  -29.6930 C   0  0  0  0  0  0  0  0  0  0  0  0
   -6.2490   24.6800  -30.1730 C   0  0  0  0  0  0  0  0  0  0  0  0
   -7.3060   25.2820  -29.8390 O   0  0  0  0  0  0  0  0  0  0  0  0
   -6.2930   23.5540  -31.0160 C   0  0  0  0  0  0  0  0  0  0  0  0
   -7.5050   23.0410  -31.5150 C   0  0  0  0  0  0  0  0  0  0  0  0
   -7.5010   21.9160  -32.3460 C   0  0  0  0  0  0  0  0  0  0  0  0
   -6.2950   21.2970  -32.6890 C   0  0  0  0  0  0  0  0  0  0  0  0
   -5.0860   21.7980  -32.1990 C   0  0  0  0  0  0  0  0  0  0  0  0
   -5.0790   22.9210  -31.3650 C   0  0  0  0  0  0  0  0  0  0  0  0
   -3.9020   23.3930  -30.8770 N   0  0  0  0  0  0  0  0  0  0  0  0
   -0.7250   21.3820  -32.3150 C   0  0  0  0  0  0  0  0  0  0  0  0
    2.4046   22.8162  -34.8445 H   0  0  0  0  0  0  0  0  0  0  0  0
    2.7990   21.9633  -36.3754 H   0  0  0  0  0  0  0  0  0  0  0  0
    1.5989   23.2998  -36.3754 H   0  0  0  0  0  0  0  0  0  0  0  0
    1.3183   20.5400  -35.0892 H   0  0  0  0  0  0  0  0  0  0  0  0
   -1.8992   20.2506  -35.3236 H   0  0  0  0  0  0  0  0  0  0  0  0
   -3.3511   18.9153  -33.8024 H   0  0  0  0  0  0  0  0  0  0  0  0
   -3.1360   19.1593  -31.3304 H   0  0  0  0  0  0  0  0  0  0  0  0
   -1.7319   19.8647  -29.4642 H   0  0  0  0  0  0  0  0  0  0  0  0
   -0.3896   21.0453  -29.7044 H   0  0  0  0  0  0  0  0  0  0  0  0
   -3.2890   21.6660  -29.7770 H   0  0  0  0  0  0  0  0  0  0  0  0
   -2.0180   22.7800  -29.9870 H   0  0  0  0  0  0  0  0  0  0  0  0
   -2.7341   21.2286  -27.5636 H   0  0  0  0  0  0  0  0  0  0  0  0
   -1.1461   22.0830  -27.7819 H   0  0  0  0  0  0  0  0  0  0  0  0
   -3.8972   23.3984  -27.9004 H   0  0  0  0  0  0  0  0  0  0  0  0
   -2.7255   23.4220  -26.4899 H   0  0  0  0  0  0  0  0  0  0  0  0
   -2.4372   25.5111  -27.5126 H   0  0  0  0  0  0  0  0  0  0  0  0
   -1.0733   24.4925  -28.1234 H   0  0  0  0  0  0  0  0  0  0  0  0
   -1.9920   25.5650  -30.0840 H   0  0  0  0  0  0  0  0  0  0  0  0
   -4.9755   26.0224  -29.0389 H   0  0  0  0  0  0  0  0  0  0  0  0
   -8.4566   23.5255  -31.2511 H   0  0  0  0  0  0  0  0  0  0  0  0
   -8.4506   21.5164  -32.7314 H   0  0  0  0  0  0  0  0  0  0  0  0
   -6.2980   20.4144  -33.3455 H   0  0  0  0  0  0  0  0  0  0  0  0
   -4.1387   21.3087  -32.4695 H   0  0  0  0  0  0  0  0  0  0  0  0
    0.0142   22.0795  -31.8943 H   0  0  0  0  0  0  0  0  0  0  0  0
  1  2  1  0
  2  3  1  0
  2  4  1  0
  4  5  1  0
  5  6  2  0
  6  7  1  0
  7  8  2  0
  8  9  1  0
  9 10  1  0
 10 11  1  0
 11 12  1  0
 12 13  1  0
 13 14  1  0
 14 15  1  0
 15 16  1  0
 16 17  2  0
 17 18  1  0
 18 19  2  0
 18 20  1  0
 20 21  2  0
 21 22  1  0
 22 23  2  0
 23 24  1  0
 24 25  2  0
 25 26  1  0
  9 27  2  0
 27  5  1  0
 26 16  1  0
 25 20  1  0
  1 28  1  0
  1 29  1  0
  1 30  1  0
  2 31  1  1
  6 32  1  0
  7 33  1  0
  8 34  1  0
 10 35  1  0
 10 36  1  0
 11 37  1  0
 11 38  1  0
 12 39  1  0
 12 40  1  0
 13 41  1  0
 13 42  1  0
 14 43  1  0
 14 44  1  0
 15 45  1  0
 17 46  1  0
 21 47  1  0
 22 48  1  0
 23 49  1  0
 24 50  1  0
 27 51  1  0
M  CHG  2  11   1  26  -1
M  END
>  <UniqueID>  (29) 
26

>  <SMILES>  (29) 
C[C@H](F)Oc1cccc(C[NH2+]CCCNc2cc(=O)c3ccccc3[n-]2)c1

>  <Energy>  (29) 
46.62205371829787

>  <Genealogy>  (29) 
CC(F)Oc1cccc(C[NH2+]CCCNc2cc(=O)c3ccccc3[n-]2)c1 (protonated)
C[C@H](F)Oc1cccc(C[NH2+]CCCNc2cc(=O)c3ccccc3[n-]2)c1 (chirality)
C[C@H](F)Oc1cccc(C[NH2+]CCCNc2cc(=O)c3ccccc3[n-]2)c1 (3D coordinates assigned)
C[C@H](F)Oc1cccc(C[NH2+]CCCNc2cc(=O)c3ccccc3[n-]2)c1 (optimized conformer: 46.62205371829787 kcal/mol)

>  <smiles>  (29) 
CC(F)Oc1cccc(CNCCCNc2cc(=O)c3ccccc3[nH]2)c1

>  <score_type>  (29) 
oracle

>  <origin>  (29) 
adg

>  <m_score__min__energy>  (29) 
-9.3900000000000006

>  <m_primary>  (29) 
energy

$$$$
29:0
     RDKit          3D

 40 42  0  0  0  0  0  0  0  0999 V2000
   -9.4610   20.7210  -31.9800 C   0  0  0  0  0  0  0  0  0  0  0  0
   -8.1050   20.2530  -32.4410 C   0  0  0  0  0  0  0  0  0  0  0  0
   -7.9220   18.8880  -32.7220 C   0  0  0  0  0  0  0  0  0  0  0  0
   -6.6850   18.4020  -33.1650 C   0  0  0  0  0  0  0  0  0  0  0  0
   -5.6190   19.2970  -33.3720 C   0  0  0  0  0  0  0  0  0  0  0  0
   -5.7900   20.6560  -33.0790 C   0  0  0  0  0  0  0  0  0  0  0  0
   -7.0200   21.1490  -32.6110 C   0  0  0  0  0  0  0  0  0  0  0  0
   -7.1200   22.6300  -32.3080 C   0  0  0  0  0  0  0  0  0  0  0  0
   -6.8360   22.8810  -30.8870 N   0  0  0  0  0  0  0  0  0  0  0  0
   -7.8030   22.4530  -29.8720 C   0  0  0  0  0  0  0  0  0  0  0  0
   -5.5770   23.4340  -30.4550 C   0  0  0  0  0  0  0  0  0  0  0  0
   -4.8730   22.8910  -29.3700 C   0  0  0  0  0  0  0  0  0  0  0  0
   -3.6550   23.4550  -28.9970 C   0  0  0  0  0  0  0  0  0  0  0  0
   -3.1580   24.5390  -29.7170 C   0  0  0  0  0  0  0  0  0  0  0  0
   -3.8640   25.0200  -30.7720 N   0  0  0  0  0  0  0  0  0  0  0  0
   -5.0320   24.4840  -31.1300 N   0  0  0  0  0  0  0  0  0  0  0  0
   -4.2640   18.7920  -33.8050 C   0  0  0  0  0  0  0  0  0  0  0  0
   -4.3610   17.4910  -34.4790 N   0  0  0  0  0  0  0  0  0  0  0  0
   -5.0720   16.5300  -33.6310 C   0  0  0  0  0  0  0  0  0  0  0  0
   -6.5410   16.9400  -33.5040 C   0  0  0  0  0  0  0  0  0  0  0  0
   -9.4910   20.7314  -30.8805 H   0  0  0  0  0  0  0  0  0  0  0  0
   -9.6479   21.7357  -32.3615 H   0  0  0  0  0  0  0  0  0  0  0  0
  -10.2340   20.0376  -32.3615 H   0  0  0  0  0  0  0  0  0  0  0  0
   -8.7628   18.1908  -32.5921 H   0  0  0  0  0  0  0  0  0  0  0  0
   -4.9472   21.3492  -33.2176 H   0  0  0  0  0  0  0  0  0  0  0  0
   -6.3921   23.1766  -32.9255 H   0  0  0  0  0  0  0  0  0  0  0  0
   -8.1401   22.9734  -32.5349 H   0  0  0  0  0  0  0  0  0  0  0  0
   -7.3882   22.6366  -28.8699 H   0  0  0  0  0  0  0  0  0  0  0  0
   -8.7368   23.0219  -29.9922 H   0  0  0  0  0  0  0  0  0  0  0  0
   -8.0097   21.3793  -29.9922 H   0  0  0  0  0  0  0  0  0  0  0  0
   -5.2783   22.0291  -28.8196 H   0  0  0  0  0  0  0  0  0  0  0  0
   -3.0921   23.0490  -28.1436 H   0  0  0  0  0  0  0  0  0  0  0  0
   -2.2012   25.0015  -29.4330 H   0  0  0  0  0  0  0  0  0  0  0  0
   -3.8165   19.5201  -34.4975 H   0  0  0  0  0  0  0  0  0  0  0  0
   -3.6404   18.6683  -32.9073 H   0  0  0  0  0  0  0  0  0  0  0  0
   -3.3880   17.1330  -34.6230 H   0  0  0  0  0  0  0  0  0  0  0  0
   -5.0098   15.5287  -34.0821 H   0  0  0  0  0  0  0  0  0  0  0  0
   -4.6109   16.5154  -32.6324 H   0  0  0  0  0  0  0  0  0  0  0  0
   -7.0496   16.7439  -34.4594 H   0  0  0  0  0  0  0  0  0  0  0  0
   -6.9914   16.3534  -32.6897 H   0  0  0  0  0  0  0  0  0  0  0  0
  1  2  1  0
  2  3  2  0
  3  4  1  0
  4  5  2  0
  5  6  1  0
  6  7  2  0
  7  8  1  0
  8  9  1  0
  9 10  1  0
  9 11  1  0
 11 12  2  0
 12 13  1  0
 13 14  2  0
 14 15  1  0
 15 16  2  0
  5 17  1  0
 17 18  1  0
 18 19  1  0
 19 20  1  0
  7  2  1  0
 16 11  1  0
 20  4  1  0
  1 21  1  0
  1 22  1  0
  1 23  1  0
  3 24  1  0
  6 25  1  0
  8 26  1  0
  8 27  1  0
 10 28  1  0
 10 29  1  0
 10 30  1  0
 12 31  1  0
 13 32  1  0
 14 33  1  0
 17 34  1  0
 17 35  1  0
 18 36  1  0
 19 37  1  0
 19 38  1  0
 20 39  1  0
 20 40  1  0
M  END
>  <UniqueID>  (30) 
27

>  <SMILES>  (30) 
Cc1cc2c(cc1CN(C)c1cccnn1)CNCC2

>  <Energy>  (30) 
46.546160476747175

>  <Genealogy>  (30) 
Cc1cc2c(cc1CN(C)c1cccnn1)CNCC2 (3D coordinates assigned)
Cc1cc2c(cc1CN(C)c1cccnn1)CNCC2 (nonaromatic ring conformer: 46.546160476747175 kcal/mol)

>  <smiles>  (30) 
Cc1cc2c(cc1CN(C)c1cccnn1)CNCC2

>  <score_type>  (30) 
oracle

>  <origin>  (30) 
adg

>  <m_score__min__energy>  (30) 
-8.4800000000000004

>  <m_primary>  (30) 
energy

$$$$
30:0
     RDKit          3D

 49 52  0  0  0  0  0  0  0  0999 V2000
   -0.9000   26.5870  -23.9380 C   0  0  0  0  0  0  0  0  0  0  0  0
   -1.9510   26.2540  -24.8390 O   0  0  0  0  0  0  0  0  0  0  0  0
   -1.7710   25.5660  -26.0490 C   0  0  0  0  0  0  0  0  0  0  0  0
   -2.8510   25.0540  -26.7950 C   0  0  0  0  0  0  0  0  0  0  0  0
   -2.6190   24.3650  -27.9970 C   0  0  0  0  0  0  0  0  0  0  0  0
   -3.6940   23.8480  -28.7950 N   0  0  0  0  0  0  0  0  0  0  0  0
   -3.9350   24.1210  -30.1820 C   0  0  0  0  0  0  0  0  0  0  0  0
   -3.8540   25.2990  -30.6230 O   0  0  0  0  0  0  0  0  0  0  0  0
   -4.2730   23.0060  -31.0940 C   0  0  0  0  0  0  0  0  0  0  0  0
   -3.2170   22.3550  -31.7470 C   0  0  0  0  0  0  0  0  0  0  0  0
   -3.4720   21.3340  -32.6740 C   0  0  0  0  0  0  0  0  0  0  0  0
   -2.3490   20.6560  -33.3680 C   0  0  0  0  0  0  0  0  0  0  0  0
   -2.4310   19.2930  -33.7090 C   0  0  0  0  0  0  0  0  0  0  0  0
   -1.3660   18.6620  -34.3600 C   0  0  0  0  0  0  0  0  0  0  0  0
   -0.2110   19.3810  -34.6760 C   0  0  0  0  0  0  0  0  0  0  0  0
   -0.1190   20.7340  -34.3410 C   0  0  0  0  0  0  0  0  0  0  0  0
   -1.1800   21.3700  -33.6910 C   0  0  0  0  0  0  0  0  0  0  0  0
   -4.7610   20.9700  -32.9340 N   0  0  0  0  0  0  0  0  0  0  0  0
   -5.8180   21.5570  -32.3050 C   0  0  0  0  0  0  0  0  0  0  0  0
   -7.1260   21.1320  -32.5910 C   0  0  0  0  0  0  0  0  0  0  0  0
   -8.2140   21.7000  -31.9300 C   0  0  0  0  0  0  0  0  0  0  0  0
   -8.0100   22.6880  -30.9690 C   0  0  0  0  0  0  0  0  0  0  0  0
   -6.7170   23.1270  -30.6730 C   0  0  0  0  0  0  0  0  0  0  0  0
   -5.6020   22.5870  -31.3520 C   0  0  0  0  0  0  0  0  0  0  0  0
   -1.3100   24.2290  -28.4700 C   0  0  0  0  0  0  0  0  0  0  0  0
   -0.2270   24.7300  -27.7410 C   0  0  0  0  0  0  0  0  0  0  0  0
    1.0640   24.5460  -28.2560 O   0  0  0  0  0  0  0  0  0  0  0  0
    2.2540   24.5700  -27.4740 C   0  0  0  0  0  0  0  0  0  0  0  0
   -0.4660   25.3940  -26.5240 C   0  0  0  0  0  0  0  0  0  0  0  0
   -1.2550   26.4745  -22.9029 H   0  0  0  0  0  0  0  0  0  0  0  0
   -0.0453   25.9157  -24.1075 H   0  0  0  0  0  0  0  0  0  0  0  0
   -0.5878   27.6281  -24.1075 H   0  0  0  0  0  0  0  0  0  0  0  0
   -3.8807   25.1944  -26.4345 H   0  0  0  0  0  0  0  0  0  0  0  0
   -2.1790   22.6477  -31.5303 H   0  0  0  0  0  0  0  0  0  0  0  0
   -3.3375   18.7209  -33.4622 H   0  0  0  0  0  0  0  0  0  0  0  0
   -1.4382   17.5966  -34.6239 H   0  0  0  0  0  0  0  0  0  0  0  0
    0.6252   18.8824  -35.1881 H   0  0  0  0  0  0  0  0  0  0  0  0
    0.7908   21.3001  -34.5895 H   0  0  0  0  0  0  0  0  0  0  0  0
   -1.1010   22.4357  -33.4301 H   0  0  0  0  0  0  0  0  0  0  0  0
   -4.9430   20.2270  -33.6460 H   0  0  0  0  0  0  0  0  0  0  0  0
   -7.2929   20.3455  -33.3418 H   0  0  0  0  0  0  0  0  0  0  0  0
   -9.2353   21.3676  -32.1675 H   0  0  0  0  0  0  0  0  0  0  0  0
   -8.8707   23.1243  -30.4410 H   0  0  0  0  0  0  0  0  0  0  0  0
   -6.5659   23.8996  -29.9048 H   0  0  0  0  0  0  0  0  0  0  0  0
   -1.1298   23.7209  -29.4288 H   0  0  0  0  0  0  0  0  0  0  0  0
    1.9910   24.5647  -26.4059 H   0  0  0  0  0  0  0  0  0  0  0  0
    2.8632   23.6840  -27.7060 H   0  0  0  0  0  0  0  0  0  0  0  0
    2.8269   25.4799  -27.7060 H   0  0  0  0  0  0  0  0  0  0  0  0
    0.3815   25.7819  -25.9399 H   0  0  0  0  0  0  0  0  0  0  0  0
  1  2  1  0
  2  3  1  0
  3  4  2  0
  4  5  1  0
  5  6  1  0
  6  7  1  0
  7  8  2  0
  7  9  1  0
  9 10  2  0
 10 11  1  0
 11 12  1  0
 12 13  2  0
 13 14  1  0
 14 15  2  0
 15 16  1  0
 16 17  2  0
 11 18  2  0
 18 19  1  0
 19 20  2  0
 20 21  1  0
 21 22  2  0
 22 23  1  0
 23 24  2  0
  5 25  2  0
 25 26  1  0
 26 27  1  0
 27 28  1  0
 26 29  2  0
 29  3  1  0
 24  9  1  0
 17 12  1  0
 24 19  1  0
  1 30  1  0
  1 31  1  0
  1 32  1  0
  4 33  1  0
 10 34  1  0
 13 35  1  0
 14 36  1  0
 15 37  1  0
 16 38  1  0
 17 39  1  0
 18 40  1  0
 20 41  1  0
 21 42  1  0
 22 43  1  0
 23 44  1  0
 25 45  1  0
 28 46  1  0
 28 47  1  0
 28 48  1  0
 29 49  1  0
M  CHG  2   6  -1  18   1
M  END
>  <UniqueID>  (31) 
28

>  <SMILES>  (31) 
COc1cc([N-]C(=O)c2cc(-c3ccccc3)[nH+]c3ccccc23)cc(OC)c1

>  <Energy>  (31) 
71.28476059566584

>  <Genealogy>  (31) 
COc1cc([N-]C(=O)c2cc(-c3ccccc3)[nH+]c3ccccc23)cc(OC)c1 (protonated)
COc1cc([N-]C(=O)c2cc(-c3ccccc3)[nH+]c3ccccc23)cc(OC)c1 (3D coordinates assigned)
COc1cc([N-]C(=O)c2cc(-c3ccccc3)[nH+]c3ccccc23)cc(OC)c1 (optimized conformer: 71.28476059566584 kcal/mol)

>  <smiles>  (31) 
COc1cc(NC(=O)c2cc(-c3ccccc3)nc3ccccc23)cc(OC)c1

>  <score_type>  (31) 
oracle

>  <origin>  (31) 
adg

>  <m_score__min__energy>  (31) 
-9.7400000000000002

>  <m_primary>  (31) 
energy

$$$$
31:0
     RDKit          3D

 32 34  0  0  0  0  0  0  0  0999 V2000
   -8.4220   19.3060  -31.9180 C   0  0  0  0  0  0  0  0  0  0  0  0
   -9.1090   20.3720  -31.3330 C   0  0  0  0  0  0  0  0  0  0  0  0
   -8.6720   21.6840  -31.5360 C   0  0  0  0  0  0  0  0  0  0  0  0
   -7.5350   21.9410  -32.3240 C   0  0  0  0  0  0  0  0  0  0  0  0
   -7.1010   23.2950  -32.5610 N   0  0  0  0  0  0  0  0  0  0  0  0
   -6.0890   23.6540  -31.5990 C   0  0  0  0  0  0  0  0  0  0  0  0
   -4.8310   23.0310  -31.6240 C   0  0  0  0  0  0  0  0  0  0  0  0
   -3.8590   23.3560  -30.6730 C   0  0  0  0  0  0  0  0  0  0  0  0
   -4.1270   24.3090  -29.6720 C   0  0  0  0  0  0  0  0  0  0  0  0
   -3.1380   24.6540  -28.6800 N   0  0  0  0  0  0  0  0  0  0  0  0
   -3.1850   24.4030  -27.3540 C   0  0  0  0  0  0  0  0  0  0  0  0
   -2.0350   24.8880  -26.7730 C   0  0  0  0  0  0  0  0  0  0  0  0
   -1.3150   25.4310  -27.8170 C   0  0  0  0  0  0  0  0  0  0  0  0
   -2.0020   25.2760  -28.9640 N   0  0  0  0  0  0  0  0  0  0  0  0
   -5.3940   24.9200  -29.6440 C   0  0  0  0  0  0  0  0  0  0  0  0
   -6.3640   24.5950  -30.5950 C   0  0  0  0  0  0  0  0  0  0  0  0
   -6.8550   20.8600  -32.9170 C   0  0  0  0  0  0  0  0  0  0  0  0
   -7.2970   19.5500  -32.7100 C   0  0  0  0  0  0  0  0  0  0  0  0
   -8.7666   18.2741  -31.7552 H   0  0  0  0  0  0  0  0  0  0  0  0
   -9.9957   20.1787  -30.7113 H   0  0  0  0  0  0  0  0  0  0  0  0
   -9.2200   22.5202  -31.0772 H   0  0  0  0  0  0  0  0  0  0  0  0
   -7.9140   23.9510  -32.4920 H   0  0  0  0  0  0  0  0  0  0  0  0
   -6.7230   23.3860  -33.5340 H   0  0  0  0  0  0  0  0  0  0  0  0
   -4.6084   22.2815  -32.3977 H   0  0  0  0  0  0  0  0  0  0  0  0
   -2.8764   22.8628  -30.7072 H   0  0  0  0  0  0  0  0  0  0  0  0
   -4.0057   23.8954  -26.8259 H   0  0  0  0  0  0  0  0  0  0  0  0
   -1.7525   24.8508  -25.7105 H   0  0  0  0  0  0  0  0  0  0  0  0
   -0.3317   25.9156  -27.7261 H   0  0  0  0  0  0  0  0  0  0  0  0
   -5.6232   25.6617  -28.8647 H   0  0  0  0  0  0  0  0  0  0  0  0
   -7.3505   25.0801  -30.5566 H   0  0  0  0  0  0  0  0  0  0  0  0
   -5.9721   21.0471  -33.5459 H   0  0  0  0  0  0  0  0  0  0  0  0
   -6.7580   18.7095  -33.1716 H   0  0  0  0  0  0  0  0  0  0  0  0
  1  2  2  0
  2  3  1  0
  3  4  2  0
  4  5  1  0
  5  6  1  0
  6  7  2  0
  7  8  1  0
  8  9  2  0
  9 10  1  0
 10 11  1  0
 11 12  2  0
 12 13  1  0
 13 14  2  0
  9 15  1  0
 15 16  2  0
  4 17  1  0
 17 18  2  0
 18  1  1  0
 16  6  1  0
 14 10  1  0
  1 19  1  0
  2 20  1  0
  3 21  1  0
  5 22  1  0
  5 23  1  0
  7 24  1  0
  8 25  1  0
 11 26  1  0
 12 27  1  0
 13 28  1  0
 15 29  1  0
 16 30  1  0
 17 31  1  0
 18 32  1  0
M  CHG  1   5   1
M  END
>  <UniqueID>  (32) 
29

>  <SMILES>  (32) 
c1ccc([NH2+]c2ccc(-n3cccn3)cc2)cc1

>  <Energy>  (32) 
68.40593360924129

>  <Genealogy>  (32) 
c1ccc([NH2+]c2ccc(-n3cccn3)cc2)cc1 (protonated)
c1ccc([NH2+]c2ccc(-n3cccn3)cc2)cc1 (3D coordinates assigned)
c1ccc([NH2+]c2ccc(-n3cccn3)cc2)cc1 (optimized conformer: 68.40593360924129 kcal/mol)

>  <smiles>  (32) 
c1ccc(Nc2ccc(-n3cccn3)cc2)cc1

>  <score_type>  (32) 
oracle

>  <origin>  (32) 
adg

>  <m_score__min__energy>  (32) 
-6.9199999999999999

>  <m_primary>  (32) 
energy

$$$$
32:0
     RDKit          3D

 42 43  0  0  0  0  0  0  0  0999 V2000
   -5.6850   25.6710  -30.1330 C   0  0  0  0  0  0  0  0  0  0  0  0
   -4.6230   25.0910  -30.8590 O   0  0  0  0  0  0  0  0  0  0  0  0
   -4.9780   23.7970  -31.3180 C   0  0  0  0  0  0  0  0  0  0  0  0
   -3.8290   22.7940  -31.0600 C   0  0  1  0  0  0  0  0  0  0  0  0
   -4.2690   21.6540  -30.1170 C   0  0  0  0  0  0  0  0  0  0  0  0
   -3.0600   20.8190  -29.6520 C   0  0  0  0  0  0  0  0  0  0  0  0
   -1.8480   20.9560  -30.5870 C   0  0  0  0  0  0  0  0  0  0  0  0
   -2.3010   21.0810  -32.0470 C   0  0  0  0  0  0  0  0  0  0  0  0
   -3.1850   22.2560  -32.3020 N   0  0  0  0  0  0  0  0  0  0  0  0
   -4.1290   21.9590  -33.4080 C   0  0  0  0  0  0  0  0  0  0  0  0
   -5.1880   21.0440  -32.9540 N   0  0  0  0  0  0  0  0  0  0  0  0
   -6.3210   21.5860  -32.4970 N   0  0  0  0  0  0  0  0  0  0  0  0
   -7.3680   20.8370  -32.0580 C   0  0  0  0  0  0  0  0  0  0  0  0
   -8.6010   21.5360  -31.5670 C   0  0  0  0  0  0  0  0  0  0  0  0
   -7.2650   19.4350  -32.0800 C   0  0  0  0  0  0  0  0  0  0  0  0
   -8.3910   18.5530  -31.6090 C   0  0  0  0  0  0  0  0  0  0  0  0
   -6.0800   18.8630  -32.5530 C   0  0  0  0  0  0  0  0  0  0  0  0
   -5.0410   19.6820  -32.9900 C   0  0  0  0  0  0  0  0  0  0  0  0
   -3.9770   19.1540  -33.4160 O   0  0  0  0  0  0  0  0  0  0  0  0
   -5.4927   25.5660  -29.0550 H   0  0  0  0  0  0  0  0  0  0  0  0
   -5.7646   26.7378  -30.3890 H   0  0  0  0  0  0  0  0  0  0  0  0
   -6.6256   25.1613  -30.3890 H   0  0  0  0  0  0  0  0  0  0  0  0
   -5.8793   23.4591  -30.7855 H   0  0  0  0  0  0  0  0  0  0  0  0
   -5.1709   23.8449  -32.3999 H   0  0  0  0  0  0  0  0  0  0  0  0
   -3.0466   23.3814  -30.5572 H   0  0  0  0  0  0  0  0  0  0  0  0
   -4.7656   22.0879  -29.2366 H   0  0  0  0  0  0  0  0  0  0  0  0
   -4.9583   20.9946  -30.6648 H   0  0  0  0  0  0  0  0  0  0  0  0
   -2.7675   21.1537  -28.6458 H   0  0  0  0  0  0  0  0  0  0  0  0
   -3.3651   19.7622  -29.6572 H   0  0  0  0  0  0  0  0  0  0  0  0
   -1.2765   21.8535  -30.3082 H   0  0  0  0  0  0  0  0  0  0  0  0
   -1.2209   20.0578  -30.4870 H   0  0  0  0  0  0  0  0  0  0  0  0
   -1.4071   21.1747  -32.6812 H   0  0  0  0  0  0  0  0  0  0  0  0
   -2.8880   20.1803  -32.2798 H   0  0  0  0  0  0  0  0  0  0  0  0
   -4.5863   22.8975  -33.7546 H   0  0  0  0  0  0  0  0  0  0  0  0
   -3.5744   21.4799  -34.2283 H   0  0  0  0  0  0  0  0  0  0  0  0
   -8.6071   21.5394  -30.4670 H   0  0  0  0  0  0  0  0  0  0  0  0
   -8.6071   22.5719  -31.9370 H   0  0  0  0  0  0  0  0  0  0  0  0
   -9.4930   21.0093  -31.9370 H   0  0  0  0  0  0  0  0  0  0  0  0
   -8.4098   18.5383  -30.5093 H   0  0  0  0  0  0  0  0  0  0  0  0
   -9.3467   18.9453  -31.9868 H   0  0  0  0  0  0  0  0  0  0  0  0
   -8.2390   17.5312  -31.9868 H   0  0  0  0  0  0  0  0  0  0  0  0
   -5.9683   17.7690  -32.5800 H   0  0  0  0  0  0  0  0  0  0  0  0
  1  2  1  0
  2  3  1  0
  3  4  1  0
  4  5  1  0
  5  6  1  0
  6  7  1  0
  7  8  1  0
  8  9  1  0
  9 10  1  0
 10 11  1  0
 11 12  1  0
 12 13  2  0
 13 14  1  0
 13 15  1  0
 15 16  1  0
 15 17  2  0
 17 18  1  0
 18 19  2  0
  9  4  1  0
 18 11  1  0
  1 20  1  0
  1 21  1  0
  1 22  1  0
  3 23  1  0
  3 24  1  0
  4 25  1  1
  5 26  1  0
  5 27  1  0
  6 28  1  0
  6 29  1  0
  7 30  1  0
  7 31  1  0
  8 32  1  0
  8 33  1  0
 10 34  1  0
 10 35  1  0
 14 36  1  0
 14 37  1  0
 14 38  1  0
 16 39  1  0
 16 40  1  0
 16 41  1  0
 17 42  1  0
M  END
>  <UniqueID>  (33) 
30

>  <SMILES>  (33) 
COC[C@H]1CCCCN1Cn1nc(C)c(C)cc1=O

>  <Energy>  (33) 
56.71665999856735

>  <Genealogy>  (33) 
COC[C@H]1CCCCN1Cn1nc(C)c(C)cc1=O (chirality)
COC[C@H]1CCCCN1Cn1nc(C)c(C)cc1=O (3D coordinates assigned)
COC[C@H]1CCCCN1Cn1nc(C)c(C)cc1=O (nonaromatic ring conformer: 56.71665999856735 kcal/mol)

>  <smiles>  (33) 
COCC1CCCCN1Cn1nc(C)c(C)cc1=O

>  <score_type>  (33) 
oracle

>  <origin>  (33) 
adg

>  <m_score__min__energy>  (33) 
-6.8700000000000001

>  <m_primary>  (33) 
energy

$$$$
33:0
     RDKit          3D

 57 60  0  0  0  0  0  0  0  0999 V2000
   -3.9340   18.1240  -34.1390 C   0  0  0  0  0  0  0  0  0  0  0  0
   -4.6350   18.0130  -32.9050 O   0  0  0  0  0  0  0  0  0  0  0  0
   -5.6710   18.8670  -32.5030 C   0  0  0  0  0  0  0  0  0  0  0  0
   -6.9270   18.3760  -32.0510 C   0  0  0  0  0  0  0  0  0  0  0  0
   -7.9430   19.2630  -31.6520 C   0  0  0  0  0  0  0  0  0  0  0  0
   -7.6820   20.6320  -31.7190 C   0  0  0  0  0  0  0  0  0  0  0  0
   -6.4730   21.1090  -32.1550 C   0  0  0  0  0  0  0  0  0  0  0  0
   -5.4440   20.2560  -32.5540 C   0  0  0  0  0  0  0  0  0  0  0  0
   -6.5330   22.4880  -32.0870 C   0  0  0  0  0  0  0  0  0  0  0  0
   -5.4450   23.4620  -32.4250 C   0  0  0  0  0  0  0  0  0  0  0  0
   -4.6590   23.7900  -31.2190 N   0  0  0  0  0  0  0  0  0  0  0  0
   -3.4330   22.9560  -31.1020 C   0  0  0  0  0  0  0  0  0  0  0  0
   -3.6010   21.8000  -30.1010 C   0  0  0  0  0  0  0  0  0  0  0  0
   -3.9700   22.2750  -28.7420 N   0  0  0  0  0  0  0  0  0  0  0  0
   -2.8100   22.3090  -27.8270 C   0  0  0  0  0  0  0  0  0  0  0  0
   -2.1850   20.9400  -27.7140 C   0  0  0  0  0  0  0  0  0  0  0  0
   -2.7300   19.9920  -26.8300 C   0  0  0  0  0  0  0  0  0  0  0  0
   -2.1550   18.7260  -26.7110 C   0  0  0  0  0  0  0  0  0  0  0  0
   -1.0340   18.3920  -27.4710 C   0  0  0  0  0  0  0  0  0  0  0  0
   -0.4820   19.3240  -28.3540 C   0  0  0  0  0  0  0  0  0  0  0  0
   -1.0510   20.6060  -28.4840 C   0  0  0  0  0  0  0  0  0  0  0  0
   -0.5200   21.5680  -29.3610 O   0  0  0  0  0  0  0  0  0  0  0  0
   -0.3940   21.3950  -30.7680 C   0  0  0  0  0  0  0  0  0  0  0  0
   -4.6740   23.5780  -28.7430 C   0  0  0  0  0  0  0  0  0  0  0  0
   -5.5160   23.7510  -30.0110 C   0  0  0  0  0  0  0  0  0  0  0  0
   -7.8010   22.7910  -31.6000 C   0  0  0  0  0  0  0  0  0  0  0  0
   -8.4990   21.6510  -31.3810 N   0  0  0  0  0  0  0  0  0  0  0  0
   -9.8560   21.5560  -30.8520 C   0  0  0  0  0  0  0  0  0  0  0  0
   -2.8655   18.2932  -33.9398 H   0  0  0  0  0  0  0  0  0  0  0  0
   -4.0569   17.1952  -34.7154 H   0  0  0  0  0  0  0  0  0  0  0  0
   -4.3379   18.9694  -34.7154 H   0  0  0  0  0  0  0  0  0  0  0  0
   -7.1056   17.2913  -32.0131 H   0  0  0  0  0  0  0  0  0  0  0  0
   -8.9147   18.8885  -31.2976 H   0  0  0  0  0  0  0  0  0  0  0  0
   -4.4801   20.6578  -32.8996 H   0  0  0  0  0  0  0  0  0  0  0  0
   -4.7813   23.0169  -33.1809 H   0  0  0  0  0  0  0  0  0  0  0  0
   -5.8989   24.3836  -32.8183 H   0  0  0  0  0  0  0  0  0  0  0  0
   -3.1967   22.5353  -32.0905 H   0  0  0  0  0  0  0  0  0  0  0  0
   -2.6227   23.6023  -30.7337 H   0  0  0  0  0  0  0  0  0  0  0  0
   -4.3915   21.1282  -30.4669 H   0  0  0  0  0  0  0  0  0  0  0  0
   -2.6342   21.2811  -30.0233 H   0  0  0  0  0  0  0  0  0  0  0  0
   -2.0631   23.0169  -28.2157 H   0  0  0  0  0  0  0  0  0  0  0  0
   -3.1520   22.6270  -26.8310 H   0  0  0  0  0  0  0  0  0  0  0  0
   -3.6145   20.2497  -26.2289 H   0  0  0  0  0  0  0  0  0  0  0  0
   -2.5866   17.9901  -26.0166 H   0  0  0  0  0  0  0  0  0  0  0  0
   -0.5836   17.3930  -27.3751 H   0  0  0  0  0  0  0  0  0  0  0  0
    0.4019   19.0549  -28.9509 H   0  0  0  0  0  0  0  0  0  0  0  0
    0.2421   20.5216  -30.9745 H   0  0  0  0  0  0  0  0  0  0  0  0
   -1.3893   21.2361  -31.2085 H   0  0  0  0  0  0  0  0  0  0  0  0
    0.0627   22.2936  -31.2085 H   0  0  0  0  0  0  0  0  0  0  0  0
   -5.3336   23.6303  -27.8642 H   0  0  0  0  0  0  0  0  0  0  0  0
   -3.9222   24.3804  -28.7116 H   0  0  0  0  0  0  0  0  0  0  0  0
   -6.2168   22.9073  -30.0948 H   0  0  0  0  0  0  0  0  0  0  0  0
   -6.0633   24.7026  -29.9399 H   0  0  0  0  0  0  0  0  0  0  0  0
   -8.1808   23.8074  -31.4194 H   0  0  0  0  0  0  0  0  0  0  0  0
   -9.8219   21.5584  -29.7525 H   0  0  0  0  0  0  0  0  0  0  0  0
  -10.4471   22.4150  -31.2024 H   0  0  0  0  0  0  0  0  0  0  0  0
  -10.3217   20.6231  -31.2024 H   0  0  0  0  0  0  0  0  0  0  0  0
  1  2  1  0
  2  3  1  0
  3  4  2  0
  4  5  1  0
  5  6  2  0
  6  7  1  0
  7  8  2  0
  7  9  1  0
  9 10  1  0
 10 11  1  0
 11 12  1  0
 12 13  1  0
 13 14  1  0
 14 15  1  0
 15 16  1  0
 16 17  2  0
 17 18  1  0
 18 19  2  0
 19 20  1  0
 20 21  2  0
 21 22  1  0
 22 23  1  0
 14 24  1  0
 24 25  1  0
  9 26  2  0
 26 27  1  0
 27 28  1  0
  8  3  1  0
 25 11  1  0
 27  6  1  0
 21 16  1  0
  1 29  1  0
  1 30  1  0
  1 31  1  0
  4 32  1  0
  5 33  1  0
  8 34  1  0
 10 35  1  0
 10 36  1  0
 12 37  1  0
 12 38  1  0
 13 39  1  0
 13 40  1  0
 15 41  1  0
 15 42  1  0
 17 43  1  0
 18 44  1  0
 19 45  1  0
 20 46  1  0
 23 47  1  0
 23 48  1  0
 23 49  1  0
 24 50  1  0
 24 51  1  0
 25 52  1  0
 25 53  1  0
 26 54  1  0
 28 55  1  0
 28 56  1  0
 28 57  1  0
M  END
>  <UniqueID>  (34) 
31

>  <SMILES>  (34) 
COc1ccc2c(c1)c(CN1CCN(Cc3ccccc3OC)CC1)cn2C

>  <Energy>  (34) 
103.48528109667187

>  <Genealogy>  (34) 
COc1ccc2c(c1)c(CN1CCN(Cc3ccccc3OC)CC1)cn2C (3D coordinates assigned)
COc1ccc2c(c1)c(CN1CCN(Cc3ccccc3OC)CC1)cn2C (nonaromatic ring conformer: 103.48528109667187 kcal/mol)

>  <smiles>  (34) 
COc1ccc2c(c1)c(CN1CCN(Cc3ccccc3OC)CC1)cn2C

>  <score_type>  (34) 
oracle

>  <origin>  (34) 
adg

>  <m_score__min__energy>  (34) 
-8.8599999999999994

>  <m_primary>  (34) 
energy

$$$$
34:0
     RDKit          3D

 41 44  0  0  0  0  0  0  0  0999 V2000
   -2.3120   24.5320  -29.1270 C   0  0  0  0  0  0  0  0  0  0  0  0
   -3.1520   24.9230  -30.2090 O   0  0  0  0  0  0  0  0  0  0  0  0
   -4.4860   24.5140  -30.3730 C   0  0  0  0  0  0  0  0  0  0  0  0
   -5.5620   25.2980  -29.9080 C   0  0  0  0  0  0  0  0  0  0  0  0
   -6.8810   24.8680  -30.0850 C   0  0  0  0  0  0  0  0  0  0  0  0
   -7.1460   23.6550  -30.7230 C   0  0  0  0  0  0  0  0  0  0  0  0
   -6.0910   22.8670  -31.1880 C   0  0  0  0  0  0  0  0  0  0  0  0
   -6.3440   21.6840  -31.8000 N   0  0  0  0  0  0  0  0  0  0  0  0
   -5.3480   20.8860  -32.2660 C   0  0  0  0  0  0  0  0  0  0  0  0
   -5.7210   19.5850  -32.8640 C   0  0  0  0  0  0  0  0  0  0  0  0
   -5.3920   19.3110  -34.2020 C   0  0  0  0  0  0  0  0  0  0  0  0
   -5.7490   18.0900  -34.7820 C   0  0  0  0  0  0  0  0  0  0  0  0
   -6.4490   17.1370  -34.0360 C   0  0  0  0  0  0  0  0  0  0  0  0
   -6.7940   15.9540  -34.6000 F   0  0  0  0  0  0  0  0  0  0  0  0
   -6.8000   17.4090  -32.7100 C   0  0  0  0  0  0  0  0  0  0  0  0
   -6.4450   18.6300  -32.1270 C   0  0  0  0  0  0  0  0  0  0  0  0
   -4.0050   21.3170  -32.1300 C   0  0  0  0  0  0  0  0  0  0  0  0
   -2.8690   20.5520  -32.6990 C   0  0  0  0  0  0  0  0  0  0  0  0
   -2.6630   19.2060  -32.3480 C   0  0  0  0  0  0  0  0  0  0  0  0
   -1.5910   18.4930  -32.8920 C   0  0  0  0  0  0  0  0  0  0  0  0
   -0.7250   19.1110  -33.7980 C   0  0  0  0  0  0  0  0  0  0  0  0
    0.3130   18.4170  -34.3260 F   0  0  0  0  0  0  0  0  0  0  0  0
   -0.9340   20.4430  -34.1650 C   0  0  0  0  0  0  0  0  0  0  0  0
   -2.0030   21.1620  -33.6220 C   0  0  0  0  0  0  0  0  0  0  0  0
   -3.7500   22.4990  -31.4940 N   0  0  0  0  0  0  0  0  0  0  0  0
   -4.7560   23.2880  -31.0180 C   0  0  0  0  0  0  0  0  0  0  0  0
   -2.8099   24.7638  -28.1739 H   0  0  0  0  0  0  0  0  0  0  0  0
   -2.1177   23.4509  -29.1858 H   0  0  0  0  0  0  0  0  0  0  0  0
   -1.3597   25.0794  -29.1858 H   0  0  0  0  0  0  0  0  0  0  0  0
   -5.3625   26.2544  -29.4026 H   0  0  0  0  0  0  0  0  0  0  0  0
   -7.7130   25.4882  -29.7200 H   0  0  0  0  0  0  0  0  0  0  0  0
   -8.1849   23.3202  -30.8593 H   0  0  0  0  0  0  0  0  0  0  0  0
   -4.8504   20.0614  -34.7967 H   0  0  0  0  0  0  0  0  0  0  0  0
   -5.4787   17.8788  -35.8271 H   0  0  0  0  0  0  0  0  0  0  0  0
   -7.3560   16.6619  -32.1246 H   0  0  0  0  0  0  0  0  0  0  0  0
   -6.7333   18.8445  -31.0873 H   0  0  0  0  0  0  0  0  0  0  0  0
   -3.3480   18.7125  -31.6428 H   0  0  0  0  0  0  0  0  0  0  0  0
   -1.4287   17.4432  -32.6064 H   0  0  0  0  0  0  0  0  0  0  0  0
   -0.2557   20.9271  -34.8830 H   0  0  0  0  0  0  0  0  0  0  0  0
   -2.1666   22.2086  -33.9183 H   0  0  0  0  0  0  0  0  0  0  0  0
   -2.7560   22.8130  -31.3990 H   0  0  0  0  0  0  0  0  0  0  0  0
  1  2  1  0
  2  3  1  0
  3  4  2  0
  4  5  1  0
  5  6  2  0
  6  7  1  0
  7  8  2  0
  8  9  1  0
  9 10  1  0
 10 11  2  0
 11 12  1  0
 12 13  2  0
 13 14  1  0
 13 15  1  0
 15 16  2  0
  9 17  2  0
 17 18  1  0
 18 19  2  0
 19 20  1  0
 20 21  2  0
 21 22  1  0
 21 23  1  0
 23 24  2  0
 17 25  1  0
 25 26  2  0
 26  3  1  0
 26  7  1  0
 16 10  1  0
 24 18  1  0
  1 27  1  0
  1 28  1  0
  1 29  1  0
  4 30  1  0
  5 31  1  0
  6 32  1  0
 11 33  1  0
 12 34  1  0
 15 35  1  0
 16 36  1  0
 19 37  1  0
 20 38  1  0
 23 39  1  0
 24 40  1  0
 25 41  1  0
M  CHG  1  25   1
M  END
>  <UniqueID>  (35) 
32

>  <SMILES>  (35) 
COc1cccc2nc(-c3ccc(F)cc3)c(-c3ccc(F)cc3)[nH+]c12

>  <Energy>  (35) 
61.525457011676785

>  <Genealogy>  (35) 
COc1cccc2nc(-c3ccc(F)cc3)c(-c3ccc(F)cc3)[nH+]c12 (protonated)
COc1cccc2nc(-c3ccc(F)cc3)c(-c3ccc(F)cc3)[nH+]c12 (3D coordinates assigned)
COc1cccc2nc(-c3ccc(F)cc3)c(-c3ccc(F)cc3)[nH+]c12 (optimized conformer: 61.525457011676785 kcal/mol)

>  <smiles>  (35) 
COc1cccc2nc(-c3ccc(F)cc3)c(-c3ccc(F)cc3)nc12

>  <score_type>  (35) 
oracle

>  <origin>  (35) 
adg

>  <m_score__min__energy>  (35) 
-7.6900000000000004

>  <m_primary>  (35) 
energy

$$$$
35:0
     RDKit          3D

 34 34  0  0  0  0  0  0  0  0999 V2000
   -0.8992   23.2484  -26.5970 H   0  0  0  0  0  0  0  0  0  0  0  0
   -1.5290   23.6060  -27.4250 C   0  0  0  0  0  0  0  0  0  0  0  0
   -1.2950   24.8600  -28.0020 C   0  0  0  0  0  0  0  0  0  0  0  0
   -0.1810   25.7260  -27.5070 C   0  0  0  0  0  0  0  0  0  0  0  0
   -0.1789   25.7276  -26.4070 H   0  0  0  0  0  0  0  0  0  0  0  0
    0.7789   25.3346  -27.8749 H   0  0  0  0  0  0  0  0  0  0  0  0
   -0.3235   26.7528  -27.8749 H   0  0  0  0  0  0  0  0  0  0  0  0
   -2.0850   25.2900  -29.0240 N   0  0  0  0  0  0  0  0  0  0  0  0
   -3.1160   24.5430  -29.5110 C   0  0  0  0  0  0  0  0  0  0  0  0
   -3.8520   24.9620  -30.5000 N   0  0  0  0  0  0  0  0  0  0  0  0
   -5.2620   25.2490  -30.4990 C   0  0  0  0  0  0  0  0  0  0  0  0
   -5.6250   26.4550  -30.4850 O   0  0  0  0  0  0  0  0  0  0  0  0
   -6.3130   24.1650  -30.5230 C   0  0  0  0  0  0  0  0  0  0  0  0
   -7.3069   24.6261  -30.4247 H   0  0  0  0  0  0  0  0  0  0  0  0
   -6.1223   23.4752  -29.6877 H   0  0  0  0  0  0  0  0  0  0  0  0
   -6.2590   23.3970  -31.7890 N   0  0  0  0  0  0  0  0  0  0  0  0
   -7.6230   23.1060  -32.2850 C   0  0  0  0  0  0  0  0  0  0  0  0
   -7.5549   22.6059  -33.2624 H   0  0  0  0  0  0  0  0  0  0  0  0
   -8.1775   24.0509  -32.3835 H   0  0  0  0  0  0  0  0  0  0  0  0
   -8.3600   22.1970  -31.3040 C   0  0  0  0  0  0  0  0  0  0  0  0
   -8.1174   22.4963  -30.2737 H   0  0  0  0  0  0  0  0  0  0  0  0
   -9.4444   22.2856  -31.4658 H   0  0  0  0  0  0  0  0  0  0  0  0
   -8.0491   21.1543  -31.4658 H   0  0  0  0  0  0  0  0  0  0  0  0
   -5.4740   22.1530  -31.6160 C   0  0  0  0  0  0  0  0  0  0  0  0
   -5.0122   22.1512  -30.6176 H   0  0  0  0  0  0  0  0  0  0  0  0
   -6.1457   21.2884  -31.7221 H   0  0  0  0  0  0  0  0  0  0  0  0
   -4.3800   22.0650  -32.6770 C   0  0  0  0  0  0  0  0  0  0  0  0
   -3.3987   21.9861  -32.1862 H   0  0  0  0  0  0  0  0  0  0  0  0
   -4.5485   21.1775  -33.3047 H   0  0  0  0  0  0  0  0  0  0  0  0
   -4.4045   22.9680  -33.3047 H   0  0  0  0  0  0  0  0  0  0  0  0
   -3.3680   23.2800  -28.9600 C   0  0  0  0  0  0  0  0  0  0  0  0
   -4.1881   22.6591  -29.3496 H   0  0  0  0  0  0  0  0  0  0  0  0
   -2.5700   22.8150  -27.9120 C   0  0  0  0  0  0  0  0  0  0  0  0
   -2.7622   21.8258  -27.4710 H   0  0  0  0  0  0  0  0  0  0  0  0
  1  2  1  0
  2  3  2  0
  3  4  1  0
  4  5  1  0
  4  6  1  0
  4  7  1  0
  3  8  1  0
  8  9  1  0
  9 10  2  0
 10 11  1  0
 11 12  2  0
 11 13  1  0
 13 14  1  0
 13 15  1  0
 13 16  1  0
 16 17  1  0
 17 18  1  0
 17 19  1  0
 17 20  1  0
 20 21  1  0
 20 22  1  0
 20 23  1  0
 16 24  1  0
 24 25  1  0
 24 26  1  0
 24 27  1  0
 27 28  1  0
 27 29  1  0
 27 30  1  0
  9 31  1  0
 31 32  1  0
 31 33  2  0
 33 34  1  0
 33  2  1  0
M  CHG  1   8  -1
M  END
>  <UniqueID>  (36) 
33

>  <SMILES>  (36) 
CCN(CC)CC(=O)/N=c1/cccc(C)[n-]1

>  <Energy>  (36) 
33.803103796353916

>  <Genealogy>  (36) 
CCN(CC)CC(=O)N=c1cccc(C)[n-]1 (protonated)
CCN(CC)CC(=O)/N=c1/cccc(C)[n-]1 (cis-trans isomerization)
CCN(CC)CC(=O)/N=c1/cccc(C)[n-]1 (3D coordinates assigned)
CCN(CC)CC(=O)/N=c1/cccc(C)[n-]1 (optimized conformer: 33.803103796353916 kcal/mol)

>  <smiles>  (36) 
CCN(CC)CC(=O)N=c1cccc(C)[nH]1

>  <score_type>  (36) 
oracle

>  <origin>  (36) 
adg

>  <m_score__min__energy>  (36) 
-7.3899999999999997

>  <m_primary>  (36) 
energy

$$$$
36:0
     RDKit          3D

 47 48  0  0  0  0  0  0  0  0999 V2000
   -8.7100   20.7440  -31.2320 C   0  0  0  0  0  0  0  0  0  0  0  0
   -8.5440   22.2060  -31.6470 C   0  0  0  0  0  0  0  0  0  0  0  0
   -7.2060   22.7280  -31.2820 N   0  0  0  0  0  0  0  0  0  0  0  0
   -6.2080   22.4810  -32.3450 C   0  0  0  0  0  0  0  0  0  0  0  0
   -5.4780   21.1640  -32.0930 C   0  0  0  0  0  0  0  0  0  0  0  0
   -7.2110   24.1420  -30.8280 C   0  0  0  0  0  0  0  0  0  0  0  0
   -5.9380   24.9300  -31.1970 C   0  0  0  0  0  0  0  0  0  0  0  0
   -4.7770   24.4440  -30.3840 C   0  0  0  0  0  0  0  0  0  0  0  0
   -3.6790   25.0610  -30.4390 O   0  0  0  0  0  0  0  0  0  0  0  0
   -4.9080   23.2670  -29.5740 N   0  0  0  0  0  0  0  0  0  0  0  0
   -3.7850   22.7320  -28.7950 C   0  0  1  0  0  0  0  0  0  0  0  0
   -2.5060   22.6950  -29.6560 C   0  0  0  0  0  0  0  0  0  0  0  0
   -1.6840   23.7840  -29.0890 C   0  0  0  0  0  0  0  0  0  0  0  0
   -0.5520   24.1010  -29.5400 O   0  0  0  0  0  0  0  0  0  0  0  0
   -2.2630   24.3770  -27.9370 N   0  0  0  0  0  0  0  0  0  0  0  0
   -1.7400   25.4980  -27.1960 C   0  0  0  0  0  0  0  0  0  0  0  0
   -2.0780   25.6730  -25.8410 C   0  0  0  0  0  0  0  0  0  0  0  0
   -1.5880   26.7690  -25.1230 C   0  0  0  0  0  0  0  0  0  0  0  0
   -0.7600   27.7050  -25.7500 C   0  0  0  0  0  0  0  0  0  0  0  0
   -0.1480   29.0790  -24.8490 Cl  0  0  0  0  0  0  0  0  0  0  0  0
   -0.4270   27.5480  -27.0980 C   0  0  0  0  0  0  0  0  0  0  0  0
   -0.9150   26.4540  -27.8190 C   0  0  0  0  0  0  0  0  0  0  0  0
   -3.4640   23.6380  -27.5810 C   0  0  0  0  0  0  0  0  0  0  0  0
   -8.7181   20.6731  -30.1343 H   0  0  0  0  0  0  0  0  0  0  0  0
   -9.6581   20.3548  -31.6315 H   0  0  0  0  0  0  0  0  0  0  0  0
   -7.8733   20.1522  -31.6315 H   0  0  0  0  0  0  0  0  0  0  0  0
   -8.6728   22.2846  -32.7366 H   0  0  0  0  0  0  0  0  0  0  0  0
   -9.3020   22.8021  -31.1178 H   0  0  0  0  0  0  0  0  0  0  0  0
   -6.7191   22.4319  -33.3178 H   0  0  0  0  0  0  0  0  0  0  0  0
   -5.4752   23.3013  -32.3444 H   0  0  0  0  0  0  0  0  0  0  0  0
   -5.3857   20.9974  -31.0096 H   0  0  0  0  0  0  0  0  0  0  0  0
   -6.0467   20.3374  -32.5439 H   0  0  0  0  0  0  0  0  0  0  0  0
   -4.4756   21.2083  -32.5439 H   0  0  0  0  0  0  0  0  0  0  0  0
   -8.0742   24.6478  -31.2852 H   0  0  0  0  0  0  0  0  0  0  0  0
   -7.2615   24.1205  -29.7294 H   0  0  0  0  0  0  0  0  0  0  0  0
   -5.7189   24.7874  -32.2655 H   0  0  0  0  0  0  0  0  0  0  0  0
   -6.1022   25.9973  -30.9875 H   0  0  0  0  0  0  0  0  0  0  0  0
   -5.8340   22.7820  -29.5570 H   0  0  0  0  0  0  0  0  0  0  0  0
   -4.0802   21.7256  -28.4634 H   0  0  0  0  0  0  0  0  0  0  0  0
   -1.9952   21.7254  -29.5616 H   0  0  0  0  0  0  0  0  0  0  0  0
   -2.7061   22.8209  -30.7303 H   0  0  0  0  0  0  0  0  0  0  0  0
   -2.7324   24.9425  -25.3429 H   0  0  0  0  0  0  0  0  0  0  0  0
   -1.8546   26.8947  -24.0632 H   0  0  0  0  0  0  0  0  0  0  0  0
    0.2205   28.2867  -27.5930 H   0  0  0  0  0  0  0  0  0  0  0  0
   -0.6524   26.3393  -28.8810 H   0  0  0  0  0  0  0  0  0  0  0  0
   -3.2844   23.0261  -26.6847 H   0  0  0  0  0  0  0  0  0  0  0  0
   -4.3001   24.3152  -27.3522 H   0  0  0  0  0  0  0  0  0  0  0  0
  1  2  1  0
  2  3  1  0
  3  4  1  0
  4  5  1  0
  3  6  1  0
  6  7  1  0
  7  8  1  0
  8  9  2  0
  8 10  1  0
 10 11  1  0
 11 12  1  0
 12 13  1  0
 13 14  2  0
 13 15  1  0
 15 16  1  0
 16 17  2  0
 17 18  1  0
 18 19  2  0
 19 20  1  0
 19 21  1  0
 21 22  2  0
 15 23  1  0
 23 11  1  0
 22 16  1  0
  1 24  1  0
  1 25  1  0
  1 26  1  0
  2 27  1  0
  2 28  1  0
  4 29  1  0
  4 30  1  0
  5 31  1  0
  5 32  1  0
  5 33  1  0
  6 34  1  0
  6 35  1  0
  7 36  1  0
  7 37  1  0
 10 38  1  0
 11 39  1  1
 12 40  1  0
 12 41  1  0
 17 42  1  0
 18 43  1  0
 21 44  1  0
 22 45  1  0
 23 46  1  0
 23 47  1  0
M  END
>  <UniqueID>  (37) 
34

>  <SMILES>  (37) 
CCN(CC)CCC(=O)N[C@H]1CC(=O)N(c2ccc(Cl)cc2)C1

>  <Energy>  (37) 
54.34357009126023

>  <Genealogy>  (37) 
CCN(CC)CCC(=O)N[C@H]1CC(=O)N(c2ccc(Cl)cc2)C1 (chirality)
CCN(CC)CCC(=O)N[C@H]1CC(=O)N(c2ccc(Cl)cc2)C1 (3D coordinates assigned)
CCN(CC)CCC(=O)N[C@H]1CC(=O)N(c2ccc(Cl)cc2)C1 (nonaromatic ring conformer: 54.34357009126023 kcal/mol)

>  <smiles>  (37) 
CCN(CC)CCC(=O)NC1CC(=O)N(c2ccc(Cl)cc2)C1

>  <score_type>  (37) 
oracle

>  <origin>  (37) 
adg

>  <m_score__min__energy>  (37) 
-7.4400000000000004

>  <m_primary>  (37) 
energy

$$$$
37:0
     RDKit          3D

 59 61  0  0  0  0  0  0  0  0999 V2000
   -0.6120   30.5980  -27.5400 C   0  0  0  0  0  0  0  0  0  0  0  0
   -0.4840   29.2570  -26.8220 C   0  0  0  0  0  0  0  0  0  0  0  0
   -0.8870   29.3800  -25.3410 C   0  0  0  0  0  0  0  0  0  0  0  0
   -1.2380   28.0820  -24.7280 N   0  0  0  0  0  0  0  0  0  0  0  0
   -0.4700   26.9210  -25.2380 C   0  0  1  0  0  0  0  0  0  0  0  0
    0.1320   26.0700  -24.1040 C   0  0  0  0  0  0  0  0  0  0  0  0
   -1.3520   26.0520  -26.1190 C   0  0  0  0  0  0  0  0  0  0  0  0
   -0.9160   25.6280  -27.3880 C   0  0  0  0  0  0  0  0  0  0  0  0
   -1.7500   24.8600  -28.2050 C   0  0  0  0  0  0  0  0  0  0  0  0
   -3.0450   24.5250  -27.7830 C   0  0  0  0  0  0  0  0  0  0  0  0
   -3.9740   23.7620  -28.7000 C   0  0  0  0  0  0  0  0  0  0  0  0
   -4.1140   24.3540  -30.0520 N   0  0  0  0  0  0  0  0  0  0  0  0
   -5.0870   25.4530  -30.1930 C   0  0  0  0  0  0  0  0  0  0  0  0
   -6.5350   24.9830  -30.4370 C   0  0  0  0  0  0  0  0  0  0  0  0
   -6.6540   23.6450  -31.1220 C   0  0  0  0  0  0  0  0  0  0  0  0
   -7.9320   23.1290  -31.3820 C   0  0  0  0  0  0  0  0  0  0  0  0
   -8.0820   21.8730  -31.9730 C   0  0  0  0  0  0  0  0  0  0  0  0
   -6.9620   21.1100  -32.3170 C   0  0  0  0  0  0  0  0  0  0  0  0
   -7.1660   19.8510  -32.8990 O   0  0  0  0  0  0  0  0  0  0  0  0
   -6.2100   18.7930  -32.8760 C   0  0  0  0  0  0  0  0  0  0  0  0
   -6.8590   17.5210  -32.3500 C   0  0  0  0  0  0  0  0  0  0  0  0
   -6.1620   17.0570  -31.2500 F   0  0  0  0  0  0  0  0  0  0  0  0
   -6.8610   16.5500  -33.3380 F   0  0  0  0  0  0  0  0  0  0  0  0
   -8.1650   17.7900  -31.9800 F   0  0  0  0  0  0  0  0  0  0  0  0
   -5.6770   21.6280  -32.0670 C   0  0  0  0  0  0  0  0  0  0  0  0
   -5.5180   22.8800  -31.4510 C   0  0  0  0  0  0  0  0  0  0  0  0
   -4.1340   23.4040  -31.1790 C   0  0  0  0  0  0  0  0  0  0  0  0
   -3.4620   24.9010  -26.4970 C   0  0  0  0  0  0  0  0  0  0  0  0
   -2.6300   25.6670  -25.6770 C   0  0  0  0  0  0  0  0  0  0  0  0
   -0.6891   31.4057  -26.7973 H   0  0  0  0  0  0  0  0  0  0  0  0
    0.2745   30.7627  -28.1701 H   0  0  0  0  0  0  0  0  0  0  0  0
   -1.5137   30.5920  -28.1701 H   0  0  0  0  0  0  0  0  0  0  0  0
   -1.1397   28.5227  -27.3129 H   0  0  0  0  0  0  0  0  0  0  0  0
    0.5659   28.9327  -26.8724 H   0  0  0  0  0  0  0  0  0  0  0  0
   -0.0442   29.8144  -24.7834 H   0  0  0  0  0  0  0  0  0  0  0  0
   -1.7820   30.0179  -25.2956 H   0  0  0  0  0  0  0  0  0  0  0  0
   -2.2600   27.9100  -24.8830 H   0  0  0  0  0  0  0  0  0  0  0  0
   -1.0950   28.1730  -23.6970 H   0  0  0  0  0  0  0  0  0  0  0  0
    0.3657   27.3239  -25.8290 H   0  0  0  0  0  0  0  0  0  0  0  0
   -0.1656   26.4907  -23.1322 H   0  0  0  0  0  0  0  0  0  0  0  0
   -0.2375   25.0371  -24.1850 H   0  0  0  0  0  0  0  0  0  0  0  0
    1.2290   26.0744  -24.1850 H   0  0  0  0  0  0  0  0  0  0  0  0
    0.0893   25.9033  -27.7397 H   0  0  0  0  0  0  0  0  0  0  0  0
   -1.3886   24.5160  -29.1853 H   0  0  0  0  0  0  0  0  0  0  0  0
   -3.5864   22.7384  -28.8099 H   0  0  0  0  0  0  0  0  0  0  0  0
   -4.9712   23.7924  -28.2366 H   0  0  0  0  0  0  0  0  0  0  0  0
   -5.0687   26.0513  -29.2702 H   0  0  0  0  0  0  0  0  0  0  0  0
   -4.7870   26.0310  -31.0795 H   0  0  0  0  0  0  0  0  0  0  0  0
   -7.0427   24.9163  -29.4634 H   0  0  0  0  0  0  0  0  0  0  0  0
   -6.9924   25.7207  -31.1127 H   0  0  0  0  0  0  0  0  0  0  0  0
   -8.8227   23.7182  -31.1183 H   0  0  0  0  0  0  0  0  0  0  0  0
   -9.0904   21.4802  -32.1698 H   0  0  0  0  0  0  0  0  0  0  0  0
   -5.8358   18.6171  -33.8953 H   0  0  0  0  0  0  0  0  0  0  0  0
   -5.3750   19.0732  -32.2170 H   0  0  0  0  0  0  0  0  0  0  0  0
   -4.7893   21.0467  -32.3569 H   0  0  0  0  0  0  0  0  0  0  0  0
   -3.4741   22.5568  -30.9409 H   0  0  0  0  0  0  0  0  0  0  0  0
   -3.7899   23.9365  -32.0779 H   0  0  0  0  0  0  0  0  0  0  0  0
   -4.4519   24.5901  -26.1317 H   0  0  0  0  0  0  0  0  0  0  0  0
   -2.9771   25.9711  -24.6785 H   0  0  0  0  0  0  0  0  0  0  0  0
  1  2  1  0
  2  3  1  0
  3  4  1  0
  4  5  1  0
  5  6  1  0
  5  7  1  0
  7  8  2  0
  8  9  1  0
  9 10  2  0
 10 11  1  0
 11 12  1  0
 12 13  1  0
 13 14  1  0
 14 15  1  0
 15 16  2  0
 16 17  1  0
 17 18  2  0
 18 19  1  0
 19 20  1  0
 20 21  1  0
 21 22  1  0
 21 23  1  0
 21 24  1  0
 18 25  1  0
 25 26  2  0
 26 27  1  0
 10 28  1  0
 28 29  2  0
 29  7  1  0
 27 12  1  0
 26 15  1  0
  1 30  1  0
  1 31  1  0
  1 32  1  0
  2 33  1  0
  2 34  1  0
  3 35  1  0
  3 36  1  0
  4 37  1  0
  4 38  1  0
  5 39  1  6
  6 40  1  0
  6 41  1  0
  6 42  1  0
  8 43  1  0
  9 44  1  0
 11 45  1  0
 11 46  1  0
 13 47  1  0
 13 48  1  0
 14 49  1  0
 14 50  1  0
 16 51  1  0
 17 52  1  0
 20 53  1  0
 20 54  1  0
 25 55  1  0
 27 56  1  0
 27 57  1  0
 28 58  1  0
 29 59  1  0
M  CHG  1   4   1
M  END
>  <UniqueID>  (38) 
35

>  <SMILES>  (38) 
CCC[NH2+][C@@H](C)c1ccc(CN2CCc3ccc(OCC(F)(F)F)cc3C2)cc1

>  <Energy>  (38) 
62.459375041646595

>  <Genealogy>  (38) 
CCC[NH2+]C(C)c1ccc(CN2CCc3ccc(OCC(F)(F)F)cc3C2)cc1 (protonated)
CCC[NH2+][C@@H](C)c1ccc(CN2CCc3ccc(OCC(F)(F)F)cc3C2)cc1 (chirality)
CCC[NH2+][C@@H](C)c1ccc(CN2CCc3ccc(OCC(F)(F)F)cc3C2)cc1 (3D coordinates assigned)
CCC[NH2+][C@@H](C)c1ccc(CN2CCc3ccc(OCC(F)(F)F)cc3C2)cc1 (nonaromatic ring conformer: 62.459375041646595 kcal/mol)

>  <smiles>  (38) 
CCCNC(C)c1ccc(CN2CCc3ccc(OCC(F)(F)F)cc3C2)cc1

>  <score_type>  (38) 
oracle

>  <origin>  (38) 
adg

>  <m_score__min__energy>  (38) 
-8.4399999999999995

>  <m_primary>  (38) 
energy

$$$$
38:0
     RDKit          3D

 45 47  0  0  0  0  0  0  0  0999 V2000
   -3.6940   13.7890  -34.8420 C   0  0  0  0  0  0  0  0  0  0  0  0
   -3.1370   14.9830  -35.4900 N   0  0  0  0  0  0  0  0  0  0  0  0
   -2.3530   14.8220  -36.7210 C   0  0  0  0  0  0  0  0  0  0  0  0
   -3.3580   16.3020  -34.9230 C   0  0  0  0  0  0  0  0  0  0  0  0
   -2.2590   17.1470  -34.6000 C   0  0  0  0  0  0  0  0  0  0  0  0
   -2.4630   18.4230  -34.0530 C   0  0  0  0  0  0  0  0  0  0  0  0
   -3.7700   18.8460  -33.8320 C   0  0  0  0  0  0  0  0  0  0  0  0
   -4.8510   18.0460  -34.1350 C   0  0  0  0  0  0  0  0  0  0  0  0
   -4.6720   16.7750  -34.6810 C   0  0  0  0  0  0  0  0  0  0  0  0
   -6.1500   18.7280  -33.8090 C   0  0  0  0  0  0  0  0  0  0  0  0
   -5.6450   20.0340  -33.2700 C   0  0  0  0  0  0  0  0  0  0  0  0
   -6.3990   21.1070  -32.7940 C   0  0  0  0  0  0  0  0  0  0  0  0
   -5.7280   22.2590  -32.3320 C   0  0  0  0  0  0  0  0  0  0  0  0
   -6.4790   23.3840  -31.8330 N   0  0  0  0  0  0  0  0  0  0  0  0
   -7.9470   23.3760  -31.9160 C   0  0  0  0  0  0  0  0  0  0  0  0
   -8.5260   22.2990  -31.0010 C   0  0  0  0  0  0  0  0  0  0  0  0
   -9.5040   21.1490  -31.9480 Cl  0  0  0  0  0  0  0  0  0  0  0  0
   -5.7740   24.5280  -31.2330 C   0  0  0  0  0  0  0  0  0  0  0  0
   -5.2570   24.1810  -29.8360 C   0  0  0  0  0  0  0  0  0  0  0  0
   -3.5180   24.5460  -29.6930 Cl  0  0  0  0  0  0  0  0  0  0  0  0
   -4.3140   22.3040  -32.3580 C   0  0  0  0  0  0  0  0  0  0  0  0
   -3.5720   21.2140  -32.8390 C   0  0  0  0  0  0  0  0  0  0  0  0
   -4.2660   20.0920  -33.2900 C   0  0  0  0  0  0  0  0  0  0  0  0
   -3.6396   13.9056  -33.7496 H   0  0  0  0  0  0  0  0  0  0  0  0
   -4.7438   13.6631  -35.1455 H   0  0  0  0  0  0  0  0  0  0  0  0
   -3.1159   12.9037  -35.1455 H   0  0  0  0  0  0  0  0  0  0  0  0
   -1.3055   14.6069  -36.4631 H   0  0  0  0  0  0  0  0  0  0  0  0
   -2.7637   13.9895  -37.3111 H   0  0  0  0  0  0  0  0  0  0  0  0
   -2.4024   15.7490  -37.3111 H   0  0  0  0  0  0  0  0  0  0  0  0
   -1.2332   16.7940  -34.7821 H   0  0  0  0  0  0  0  0  0  0  0  0
   -1.6108   19.0728  -33.8051 H   0  0  0  0  0  0  0  0  0  0  0  0
   -5.5419   16.1461  -34.9214 H   0  0  0  0  0  0  0  0  0  0  0  0
   -6.7698   18.8714  -34.7064 H   0  0  0  0  0  0  0  0  0  0  0  0
   -6.8013   18.1691  -33.1209 H   0  0  0  0  0  0  0  0  0  0  0  0
   -7.4977   21.0558  -32.7791 H   0  0  0  0  0  0  0  0  0  0  0  0
   -8.3328   24.3590  -31.6081 H   0  0  0  0  0  0  0  0  0  0  0  0
   -8.2446   23.1611  -32.9529 H   0  0  0  0  0  0  0  0  0  0  0  0
   -7.7034   21.7584  -30.5100 H   0  0  0  0  0  0  0  0  0  0  0  0
   -9.1656   22.7764  -30.2441 H   0  0  0  0  0  0  0  0  0  0  0  0
   -4.9230   24.8025  -31.8737 H   0  0  0  0  0  0  0  0  0  0  0  0
   -6.4785   25.3685  -31.1475 H   0  0  0  0  0  0  0  0  0  0  0  0
   -5.8112   24.7699  -29.0903 H   0  0  0  0  0  0  0  0  0  0  0  0
   -5.4058   23.1049  -29.6633 H   0  0  0  0  0  0  0  0  0  0  0  0
   -3.7911   23.2022  -31.9977 H   0  0  0  0  0  0  0  0  0  0  0  0
   -2.4726   21.2442  -32.8596 H   0  0  0  0  0  0  0  0  0  0  0  0
  1  2  1  0
  2  3  1  0
  2  4  1  0
  4  5  2  0
  5  6  1  0
  6  7  2  0
  7  8  1  0
  8  9  2  0
  8 10  1  0
 10 11  1  0
 11 12  2  0
 12 13  1  0
 13 14  1  0
 14 15  1  0
 15 16  1  0
 16 17  1  0
 14 18  1  0
 18 19  1  0
 19 20  1  0
 13 21  2  0
 21 22  1  0
 22 23  2  0
  9  4  1  0
 23 11  1  0
 23  7  1  0
  1 24  1  0
  1 25  1  0
  1 26  1  0
  3 27  1  0
  3 28  1  0
  3 29  1  0
  5 30  1  0
  6 31  1  0
  9 32  1  0
 10 33  1  0
 10 34  1  0
 12 35  1  0
 15 36  1  0
 15 37  1  0
 16 38  1  0
 16 39  1  0
 18 40  1  0
 18 41  1  0
 19 42  1  0
 19 43  1  0
 21 44  1  0
 22 45  1  0
M  END
>  <UniqueID>  (39) 
36

>  <SMILES>  (39) 
CN(C)c1ccc2c(c1)Cc1cc(N(CCCl)CCCl)ccc1-2

>  <Energy>  (39) 
66.79939740942221

>  <Genealogy>  (39) 
CN(C)c1ccc2c(c1)Cc1cc(N(CCCl)CCCl)ccc1-2 (3D coordinates assigned)
CN(C)c1ccc2c(c1)Cc1cc(N(CCCl)CCCl)ccc1-2 (nonaromatic ring conformer: 66.79939740942221 kcal/mol)

>  <smiles>  (39) 
CN(C)c1ccc2c(c1)Cc1cc(N(CCCl)CCCl)ccc1-2

>  <score_type>  (39) 
oracle

>  <origin>  (39) 
adg

>  <m_score__min__energy>  (39) 
-6.9000000000000004

>  <m_primary>  (39) 
energy

$$$$
39:0
     RDKit          3D

 41 44  0  0  0  0  0  0  0  0999 V2000
   -1.7910   24.9290  -28.0720 C   0  0  0  0  0  0  0  0  0  0  0  0
   -2.3560   25.2840  -29.3300 O   0  0  0  0  0  0  0  0  0  0  0  0
   -3.3070   24.5140  -30.0160 C   0  0  0  0  0  0  0  0  0  0  0  0
   -2.9340   23.2430  -30.4630 C   0  0  0  0  0  0  0  0  0  0  0  0
   -3.8450   22.4350  -31.1510 C   0  0  0  0  0  0  0  0  0  0  0  0
   -5.1550   22.8860  -31.3910 C   0  0  0  0  0  0  0  0  0  0  0  0
   -6.1420   22.0420  -32.1670 C   0  0  1  0  0  0  0  0  0  0  0  0
   -6.1190   20.5400  -31.7230 C   0  0  2  0  0  0  0  0  0  0  0  0
   -5.4840   19.6450  -32.7710 C   0  0  0  0  0  0  0  0  0  0  0  0
   -6.2930   18.8900  -33.6380 C   0  0  0  0  0  0  0  0  0  0  0  0
   -5.7140   18.0510  -34.5960 C   0  0  0  0  0  0  0  0  0  0  0  0
   -4.3240   17.9540  -34.6950 C   0  0  0  0  0  0  0  0  0  0  0  0
   -3.7650   17.1390  -35.6230 F   0  0  0  0  0  0  0  0  0  0  0  0
   -3.5100   18.6950  -33.8340 C   0  0  0  0  0  0  0  0  0  0  0  0
   -4.0830   19.5340  -32.8760 C   0  0  0  0  0  0  0  0  0  0  0  0
   -7.5980   20.1440  -31.4130 C   0  0  0  0  0  0  0  0  0  0  0  0
   -8.2840   21.4470  -31.5260 C   0  0  0  0  0  0  0  0  0  0  0  0
   -9.5990   21.8060  -31.7180 C   0  0  0  0  0  0  0  0  0  0  0  0
   -9.6030   23.0660  -32.2110 N   0  0  0  0  0  0  0  0  0  0  0  0
   -8.3040   23.4200  -32.3430 C   0  0  0  0  0  0  0  0  0  0  0  0
   -7.5030   22.4410  -31.8920 N   0  0  0  0  0  0  0  0  0  0  0  0
   -5.5250   24.1700  -30.9570 C   0  0  0  0  0  0  0  0  0  0  0  0
   -4.6130   24.9760  -30.2700 C   0  0  0  0  0  0  0  0  0  0  0  0
   -2.4213   25.3250  -27.2621 H   0  0  0  0  0  0  0  0  0  0  0  0
   -1.7355   23.8334  -27.9911 H   0  0  0  0  0  0  0  0  0  0  0  0
   -0.7798   25.3544  -27.9911 H   0  0  0  0  0  0  0  0  0  0  0  0
   -1.9151   22.8752  -30.2719 H   0  0  0  0  0  0  0  0  0  0  0  0
   -3.5350   21.4412  -31.5063 H   0  0  0  0  0  0  0  0  0  0  0  0
   -5.8489   22.1750  -33.2188 H   0  0  0  0  0  0  0  0  0  0  0  0
   -5.4928   20.4067  -30.8285 H   0  0  0  0  0  0  0  0  0  0  0  0
   -7.3882   18.9594  -33.5626 H   0  0  0  0  0  0  0  0  0  0  0  0
   -6.3546   17.4665  -35.2727 H   0  0  0  0  0  0  0  0  0  0  0  0
   -2.4155   18.6172  -33.9111 H   0  0  0  0  0  0  0  0  0  0  0  0
   -3.4367   20.1119  -32.1990 H   0  0  0  0  0  0  0  0  0  0  0  0
   -7.9830   19.4225  -32.1487 H   0  0  0  0  0  0  0  0  0  0  0  0
   -7.7344   19.6493  -30.4400 H   0  0  0  0  0  0  0  0  0  0  0  0
  -10.4821   21.1842  -31.5094 H   0  0  0  0  0  0  0  0  0  0  0  0
  -10.4340   23.6090  -32.5340 H   0  0  0  0  0  0  0  0  0  0  0  0
   -7.9533   24.3752  -32.7609 H   0  0  0  0  0  0  0  0  0  0  0  0
   -6.5396   24.5436  -31.1593 H   0  0  0  0  0  0  0  0  0  0  0  0
   -4.9166   25.9758  -29.9261 H   0  0  0  0  0  0  0  0  0  0  0  0
  1  2  1  0
  2  3  1  0
  3  4  2  0
  4  5  1  0
  5  6  2  0
  6  7  1  0
  7  8  1  0
  8  9  1  0
  9 10  2  0
 10 11  1  0
 11 12  2  0
 12 13  1  0
 12 14  1  0
 14 15  2  0
  8 16  1  0
 16 17  1  0
 17 18  2  0
 18 19  1  0
 19 20  2  0
 20 21  1  0
  6 22  1  0
 22 23  2  0
 23  3  1  0
 21  7  1  0
 15  9  1  0
 21 17  1  0
  1 24  1  0
  1 25  1  0
  1 26  1  0
  4 27  1  0
  5 28  1  0
  7 29  1  6
  8 30  1  1
 10 31  1  0
 11 32  1  0
 14 33  1  0
 15 34  1  0
 16 35  1  0
 16 36  1  0
 18 37  1  0
 19 38  1  0
 20 39  1  0
 22 40  1  0
 23 41  1  0
M  CHG  1  19   1
M  END
>  <UniqueID>  (40) 
37

>  <SMILES>  (40) 
COc1ccc([C@H]2[C@H](c3ccc(F)cc3)Cc3c[nH+]cn32)cc1

>  <Energy>  (40) 
98.07965323066843

>  <Genealogy>  (40) 
COc1ccc(C2C(c3ccc(F)cc3)Cc3c[nH+]cn32)cc1 (protonated)
COc1ccc([C@H]2[C@H](c3ccc(F)cc3)Cc3c[nH+]cn32)cc1 (chirality)
COc1ccc([C@H]2[C@H](c3ccc(F)cc3)Cc3c[nH+]cn32)cc1 (3D coordinates assigned)
COc1ccc([C@H]2[C@H](c3ccc(F)cc3)Cc3c[nH+]cn32)cc1 (nonaromatic ring conformer: 98.07965323066843 kcal/mol)

>  <smiles>  (40) 
COc1ccc(C2C(c3ccc(F)cc3)Cc3cncn32)cc1

>  <score_type>  (40) 
oracle

>  <origin>  (40) 
adg

>  <m_score__min__energy>  (40) 
-7.6200000000000001

>  <m_primary>  (40) 
energy

$$$$
40:0
     RDKit          3D

 98 99  0  0  0  0  0  0  0  0999 V2000
   -2.2700   25.3100  -26.4990 C   0  0  0  0  0  0  0  0  0  0  0  0
   -1.3510   25.6450  -27.6730 C   0  0  0  0  0  0  0  0  0  0  0  0
   -0.5220   24.4400  -28.1470 C   0  0  0  0  0  0  0  0  0  0  0  0
    0.3120   23.7770  -27.0310 C   0  0  0  0  0  0  0  0  0  0  0  0
   -0.1890   22.3930  -26.5760 C   0  0  0  0  0  0  0  0  0  0  0  0
   -0.1860   21.1820  -27.5640 C   0  0  0  0  0  0  0  0  0  0  0  0
   -1.1070   20.0110  -27.3350 N   0  0  0  0  0  0  0  0  0  0  0  0
   -1.6240   20.1170  -25.9380 C   0  0  0  0  0  0  0  0  0  0  0  0
   -0.4050   18.6820  -27.4630 C   0  0  0  0  0  0  0  0  0  0  0  0
    0.7670   18.6000  -28.4850 C   0  0  0  0  0  0  0  0  0  0  0  0
    0.2810   18.4490  -29.9410 C   0  0  0  0  0  0  0  0  0  0  0  0
    0.3890   19.7240  -30.8040 C   0  0  0  0  0  0  0  0  0  0  0  0
   -0.4810   19.7260  -32.0710 C   0  0  0  0  0  0  0  0  0  0  0  0
   -0.3000   20.9880  -32.9150 C   0  0  0  0  0  0  0  0  0  0  0  0
   -2.2650   20.0130  -28.3020 C   0  0  0  0  0  0  0  0  0  0  0  0
   -2.6560   21.3720  -28.8780 C   0  0  0  0  0  0  0  0  0  0  0  0
   -2.1290   21.8400  -30.0930 C   0  0  0  0  0  0  0  0  0  0  0  0
   -2.5220   23.0810  -30.6060 C   0  0  0  0  0  0  0  0  0  0  0  0
   -3.4370   23.8770  -29.9130 C   0  0  0  0  0  0  0  0  0  0  0  0
   -3.8210   25.1470  -30.4610 N   0  0  0  0  0  0  0  0  0  0  0  0
   -5.1660   25.6230  -30.6020 C   0  0  0  0  0  0  0  0  0  0  0  0
   -5.3900   26.8550  -30.4630 O   0  0  0  0  0  0  0  0  0  0  0  0
   -6.3270   24.6810  -30.7850 C   0  0  0  0  0  0  0  0  0  0  0  0
   -6.4050   24.1530  -32.2220 C   0  0  0  0  0  0  0  0  0  0  0  0
   -6.3420   22.6140  -32.2970 C   0  0  0  0  0  0  0  0  0  0  0  0
   -5.0010   22.0740  -31.9850 N   0  0  0  0  0  0  0  0  0  0  0  0
   -4.1170   22.0340  -33.1590 C   0  0  0  0  0  0  0  0  0  0  0  0
   -3.6350   20.6050  -33.4200 C   0  0  0  0  0  0  0  0  0  0  0  0
   -4.7690   19.6530  -33.2190 C   0  0  0  0  0  0  0  0  0  0  0  0
   -5.6390   19.5150  -34.1250 O   0  0  0  0  0  0  0  0  0  0  0  0
   -4.9020   18.9940  -31.9920 O   0  0  0  0  0  0  0  0  0  0  0  0
   -6.1430   18.8720  -31.2980 C   0  0  2  0  0  0  0  0  0  0  0  0
   -6.8430   17.5520  -31.7320 C   0  0  0  0  0  0  0  0  0  0  0  0
   -7.9310   17.8350  -32.7700 C   0  0  0  0  0  0  0  0  0  0  0  0
   -8.9510   18.8630  -32.2410 C   0  0  2  0  0  0  0  0  0  0  0  0
   -9.4850   19.5650  -33.3370 O   0  0  0  0  0  0  0  0  0  0  0  0
   -8.2740   19.8300  -31.2260 C   0  0  2  0  0  0  0  0  0  0  0  0
   -8.9750   21.1860  -31.1330 C   0  0  0  0  0  0  0  0  0  0  0  0
   -6.9190   20.0290  -31.5840 O   0  0  0  0  0  0  0  0  0  0  0  0
   -4.0120   23.3940  -28.7290 C   0  0  0  0  0  0  0  0  0  0  0  0
   -3.6310   22.1490  -28.2210 C   0  0  0  0  0  0  0  0  0  0  0  0
   -1.7419   25.5025  -25.5534 H   0  0  0  0  0  0  0  0  0  0  0  0
   -3.1724   25.9370  -26.5492 H   0  0  0  0  0  0  0  0  0  0  0  0
   -2.5572   24.2493  -26.5492 H   0  0  0  0  0  0  0  0  0  0  0  0
   -1.9683   25.9982  -28.5122 H   0  0  0  0  0  0  0  0  0  0  0  0
   -0.6457   26.4164  -27.3303 H   0  0  0  0  0  0  0  0  0  0  0  0
   -1.2099   23.6870  -28.5591 H   0  0  0  0  0  0  0  0  0  0  0  0
    0.1897   24.8170  -28.8963 H   0  0  0  0  0  0  0  0  0  0  0  0
    1.3427   23.6627  -27.3979 H   0  0  0  0  0  0  0  0  0  0  0  0
    0.2300   24.4362  -26.1542 H   0  0  0  0  0  0  0  0  0  0  0  0
    0.4326   22.1000  -25.7171 H   0  0  0  0  0  0  0  0  0  0  0  0
   -1.2611   22.5647  -26.3998 H   0  0  0  0  0  0  0  0  0  0  0  0
   -0.4283   21.5849  -28.5585 H   0  0  0  0  0  0  0  0  0  0  0  0
    0.8133   20.7452  -27.4201 H   0  0  0  0  0  0  0  0  0  0  0  0
   -0.8005   19.9482  -25.2285 H   0  0  0  0  0  0  0  0  0  0  0  0
   -2.0457   21.1203  -25.7782 H   0  0  0  0  0  0  0  0  0  0  0  0
   -2.4065   19.3606  -25.7782 H   0  0  0  0  0  0  0  0  0  0  0  0
   -0.0015   18.4226  -26.4731 H   0  0  0  0  0  0  0  0  0  0  0  0
   -1.1690   17.9898  -27.8466 H   0  0  0  0  0  0  0  0  0  0  0  0
    1.3655   19.5197  -28.4079 H   0  0  0  0  0  0  0  0  0  0  0  0
    1.3589   17.7060  -28.2391 H   0  0  0  0  0  0  0  0  0  0  0  0
    0.8810   17.6615  -30.4204 H   0  0  0  0  0  0  0  0  0  0  0  0
   -0.7910   18.2093  -29.8823 H   0  0  0  0  0  0  0  0  0  0  0  0
    0.0907   20.5822  -30.1838 H   0  0  0  0  0  0  0  0  0  0  0  0
    1.4327   19.7754  -31.1475 H   0  0  0  0  0  0  0  0  0  0  0  0
   -0.2116   18.8527  -32.6832 H   0  0  0  0  0  0  0  0  0  0  0  0
   -1.5324   19.6918  -31.7495 H   0  0  0  0  0  0  0  0  0  0  0  0
   -0.1753   21.8573  -32.2526 H   0  0  0  0  0  0  0  0  0  0  0  0
    0.5918   20.8798  -33.5498 H   0  0  0  0  0  0  0  0  0  0  0  0
   -1.1863   21.1348  -33.5498 H   0  0  0  0  0  0  0  0  0  0  0  0
   -2.0019   19.3545  -29.1429 H   0  0  0  0  0  0  0  0  0  0  0  0
   -3.1362   19.6764  -27.7209 H   0  0  0  0  0  0  0  0  0  0  0  0
   -1.4020   21.2264  -30.6452 H   0  0  0  0  0  0  0  0  0  0  0  0
   -2.1073   23.4324  -31.5623 H   0  0  0  0  0  0  0  0  0  0  0  0
   -6.2078   23.8301  -30.0981 H   0  0  0  0  0  0  0  0  0  0  0  0
   -7.2543   25.2325  -30.5706 H   0  0  0  0  0  0  0  0  0  0  0  0
   -7.3527   24.4882  -32.6687 H   0  0  0  0  0  0  0  0  0  0  0  0
   -5.5350   24.5472  -32.7675 H   0  0  0  0  0  0  0  0  0  0  0  0
   -7.0631   22.1983  -31.5779 H   0  0  0  0  0  0  0  0  0  0  0  0
   -6.5802   22.3253  -33.3314 H   0  0  0  0  0  0  0  0  0  0  0  0
   -5.0820   21.1090  -31.5880 H   0  0  0  0  0  0  0  0  0  0  0  0
   -4.6681   22.3964  -34.0393 H   0  0  0  0  0  0  0  0  0  0  0  0
   -3.2433   22.6743  -32.9678 H   0  0  0  0  0  0  0  0  0  0  0  0
   -3.2677   20.5249  -34.4538 H   0  0  0  0  0  0  0  0  0  0  0  0
   -2.8213   20.3590  -32.7219 H   0  0  0  0  0  0  0  0  0  0  0  0
   -6.0010   18.8149  -30.2087 H   0  0  0  0  0  0  0  0  0  0  0  0
   -6.0955   16.8729  -32.1679 H   0  0  0  0  0  0  0  0  0  0  0  0
   -7.3076   17.0901  -30.8484 H   0  0  0  0  0  0  0  0  0  0  0  0
   -7.4621   18.2315  -33.6826 H   0  0  0  0  0  0  0  0  0  0  0  0
   -8.4617   16.8955  -32.9840 H   0  0  0  0  0  0  0  0  0  0  0  0
   -9.7641   18.3488  -31.7077 H   0  0  0  0  0  0  0  0  0  0  0  0
   -8.7190   19.9220  -33.8610 H   0  0  0  0  0  0  0  0  0  0  0  0
   -8.3490   19.3542  -30.2371 H   0  0  0  0  0  0  0  0  0  0  0  0
   -9.1141   21.4551  -30.0755 H   0  0  0  0  0  0  0  0  0  0  0  0
   -8.3597   21.9516  -31.6283 H   0  0  0  0  0  0  0  0  0  0  0  0
   -9.9554   21.1267  -31.6283 H   0  0  0  0  0  0  0  0  0  0  0  0
   -4.7645   23.9962  -28.1988 H   0  0  0  0  0  0  0  0  0  0  0  0
   -4.0970   21.7717  -27.2988 H   0  0  0  0  0  0  0  0  0  0  0  0
  1  2  1  0
  2  3  1  0
  3  4  1  0
  4  5  1  0
  5  6  1  0
  6  7  1  0
  7  8  1  0
  7  9  1  0
  9 10  1  0
 10 11  1  0
 11 12  1  0
 12 13  1  0
 13 14  1  0
  7 15  1  0
 15 16  1  0
 16 17  2  0
 17 18  1  0
 18 19  2  0
 19 20  1  0
 20 21  1  0
 21 22  2  0
 21 23  1  0
 23 24  1  0
 24 25  1  0
 25 26  1  0
 26 27  1  0
 27 28  1  0
 28 29  1  0
 29 30  2  0
 29 31  1  0
 31 32  1  0
 32 33  1  0
 33 34  1  0
 34 35  1  0
 35 36  1  0
 35 37  1  0
 37 38  1  0
 37 39  1  0
 19 40  1  0
 40 41  2  0
 41 16  1  0
 39 32  1  0
  1 42  1  0
  1 43  1  0
  1 44  1  0
  2 45  1  0
  2 46  1  0
  3 47  1  0
  3 48  1  0
  4 49  1  0
  4 50  1  0
  5 51  1  0
  5 52  1  0
  6 53  1  0
  6 54  1  0
  8 55  1  0
  8 56  1  0
  8 57  1  0
  9 58  1  0
  9 59  1  0
 10 60  1  0
 10 61  1  0
 11 62  1  0
 11 63  1  0
 12 64  1  0
 12 65  1  0
 13 66  1  0
 13 67  1  0
 14 68  1  0
 14 69  1  0
 14 70  1  0
 15 71  1  0
 15 72  1  0
 17 73  1  0
 18 74  1  0
 23 75  1  0
 23 76  1  0
 24 77  1  0
 24 78  1  0
 25 79  1  0
 25 80  1  0
 26 81  1  0
 27 82  1  0
 27 83  1  0
 28 84  1  0
 28 85  1  0
 32 86  1  1
 33 87  1  0
 33 88  1  0
 34 89  1  0
 34 90  1  0
 35 91  1  1
 36 92  1  0
 37 93  1  1
 38 94  1  0
 38 95  1  0
 38 96  1  0
 40 97  1  0
 41 98  1  0
M  CHG  2   7   1  20  -1
M  END
>  <UniqueID>  (41) 
38

>  <SMILES>  (41) 
CCCCCC[N+](C)(CCCCCC)Cc1ccc([N-]C(=O)CCCNCCC(=O)O[C@@H]2CC[C@H](O)C(C)O2)cc1

>  <Energy>  (41) 
113.03156488305288

>  <Genealogy>  (41) 
CCCCCC[N+](C)(CCCCCC)Cc1ccc([N-]C(=O)CCCNCCC(=O)OC2CCC(O)C(C)O2)cc1 (protonated)
CCCCCC[N+](C)(CCCCCC)Cc1ccc([N-]C(=O)CCCNCCC(=O)O[C@@H]2CC[C@H](O)C(C)O2)cc1 (chirality)
CCCCCC[N+](C)(CCCCCC)Cc1ccc([N-]C(=O)CCCNCCC(=O)O[C@@H]2CC[C@H](O)C(C)O2)cc1 (3D coordinates assigned)
CCCCCC[N+](C)(CCCCCC)Cc1ccc([N-]C(=O)CCCNCCC(=O)O[C@@H]2CC[C@H](O)C(C)O2)cc1 (nonaromatic ring conformer: 113.03156488305288 kcal/mol)

>  <smiles>  (41) 
CCCCCC[N+](C)(CCCCCC)Cc1ccc(NC(=O)CCCNCCC(=O)OC2CCC(O)C(C)O2)cc1

>  <score_type>  (41) 
oracle

>  <origin>  (41) 
adg

>  <m_score__min__energy>  (41) 
-10.23

>  <m_primary>  (41) 
energy

$$$$
41:0
     RDKit          3D

 39 42  0  0  0  0  0  0  0  0999 V2000
   -8.8963   23.0910  -31.8710 H   0  0  0  0  0  0  0  0  0  0  0  0
   -7.8560   23.2160  -31.5360 C   0  0  0  0  0  0  0  0  0  0  0  0
   -6.8790   23.6490  -32.4360 C   0  0  0  0  0  0  0  0  0  0  0  0
   -7.1524   23.8707  -33.4781 H   0  0  0  0  0  0  0  0  0  0  0  0
   -5.5550   23.8010  -32.0150 C   0  0  0  0  0  0  0  0  0  0  0  0
   -4.7912   24.1496  -32.7257 H   0  0  0  0  0  0  0  0  0  0  0  0
   -5.1940   23.5100  -30.6850 C   0  0  0  0  0  0  0  0  0  0  0  0
   -3.8370   23.6760  -30.2300 N   0  0  0  0  0  0  0  0  0  0  0  0
   -3.4050   24.7770  -29.6320 N   0  0  0  0  0  0  0  0  0  0  0  0
   -2.1020   24.5980  -29.3340 C   0  0  0  0  0  0  0  0  0  0  0  0
   -1.2700   25.5990  -28.5940 C   0  0  0  0  0  0  0  0  0  0  0  0
   -1.2026   26.3308  -29.4125 H   0  0  0  0  0  0  0  0  0  0  0  0
   -0.2880   24.9920  -27.6030 C   0  0  0  0  0  0  0  0  0  0  0  0
   -0.1868   23.8992  -27.5283 H   0  0  0  0  0  0  0  0  0  0  0  0
    0.7883   25.1052  -27.4062 H   0  0  0  0  0  0  0  0  0  0  0  0
   -1.5490   25.6740  -27.1010 C   0  0  0  0  0  0  0  0  0  0  0  0
   -2.3607   25.0749  -26.6626 H   0  0  0  0  0  0  0  0  0  0  0  0
   -1.7635   26.4855  -26.3900 H   0  0  0  0  0  0  0  0  0  0  0  0
   -1.6890   23.3370  -29.7210 C   0  0  0  0  0  0  0  0  0  0  0  0
   -0.6959   22.8796  -29.6008 H   0  0  0  0  0  0  0  0  0  0  0  0
   -2.8220   22.7860  -30.2960 C   0  0  0  0  0  0  0  0  0  0  0  0
   -2.9500   21.5700  -30.7480 N   0  0  0  0  0  0  0  0  0  0  0  0
   -2.9660   21.1830  -32.1290 C   0  0  0  0  0  0  0  0  0  0  0  0
   -2.0050   21.5320  -32.8650 O   0  0  0  0  0  0  0  0  0  0  0  0
   -4.0400   20.3260  -32.6920 C   0  0  0  0  0  0  0  0  0  0  0  0
   -3.7500   19.3620  -33.6750 C   0  0  0  0  0  0  0  0  0  0  0  0
   -2.7173   19.2398  -34.0337 H   0  0  0  0  0  0  0  0  0  0  0  0
   -4.7670   18.5590  -34.1980 C   0  0  0  0  0  0  0  0  0  0  0  0
   -4.5309   17.8026  -34.9609 H   0  0  0  0  0  0  0  0  0  0  0  0
   -6.0820   18.7140  -33.7550 C   0  0  0  0  0  0  0  0  0  0  0  0
   -6.8796   18.0780  -34.1665 H   0  0  0  0  0  0  0  0  0  0  0  0
   -6.3850   19.6780  -32.7880 C   0  0  0  0  0  0  0  0  0  0  0  0
   -8.0370   19.8760  -32.2360 Cl  0  0  0  0  0  0  0  0  0  0  0  0
   -5.3690   20.4850  -32.2620 C   0  0  0  0  0  0  0  0  0  0  0  0
   -5.6121   21.2480  -31.5078 H   0  0  0  0  0  0  0  0  0  0  0  0
   -6.1880   23.0940  -29.7850 C   0  0  0  0  0  0  0  0  0  0  0  0
   -5.9241   22.8862  -28.7375 H   0  0  0  0  0  0  0  0  0  0  0  0
   -7.5110   22.9420  -30.2110 C   0  0  0  0  0  0  0  0  0  0  0  0
   -8.2813   22.6060  -29.5012 H   0  0  0  0  0  0  0  0  0  0  0  0
  1  2  1  0
  2  3  2  0
  3  4  1  0
  3  5  1  0
  5  6  1  0
  5  7  2  0
  7  8  1  0
  8  9  1  0
  9 10  1  0
 10 11  1  0
 11 12  1  0
 11 13  1  0
 13 14  1  0
 13 15  1  0
 13 16  1  0
 16 17  1  0
 16 18  1  0
 10 19  2  0
 19 20  1  0
 19 21  1  0
 21 22  2  0
 22 23  1  0
 23 24  2  0
 23 25  1  0
 25 26  2  0
 26 27  1  0
 26 28  1  0
 28 29  1  0
 28 30  2  0
 30 31  1  0
 30 32  1  0
 32 33  1  0
 32 34  2  0
 34 35  1  0
  7 36  1  0
 36 37  1  0
 36 38  2  0
 38 39  1  0
 38  2  1  0
 21  8  1  0
 34 25  1  0
 16 11  1  0
M  CHG  1   9  -1
M  END
>  <UniqueID>  (42) 
39

>  <SMILES>  (42) 
O=C(/N=c1\cc(C2CC2)[n-]n1-c1ccccc1)c1cccc(Cl)c1

>  <Energy>  (42) 
349.18369925123477

>  <Genealogy>  (42) 
O=C(N=c1cc(C2CC2)[n-]n1-c1ccccc1)c1cccc(Cl)c1 (protonated)
O=C(/N=c1\cc(C2CC2)[n-]n1-c1ccccc1)c1cccc(Cl)c1 (cis-trans isomerization)
O=C(/N=c1\cc(C2CC2)[n-]n1-c1ccccc1)c1cccc(Cl)c1 (3D coordinates assigned)
O=C(/N=c1\cc(C2CC2)[n-]n1-c1ccccc1)c1cccc(Cl)c1 (nonaromatic ring conformer: 349.18369925123477 kcal/mol)

>  <smiles>  (42) 
O=C(N=c1cc(C2CC2)[nH]n1-c1ccccc1)c1cccc(Cl)c1

>  <score_type>  (42) 
oracle

>  <origin>  (42) 
adg

>  <m_score__min__energy>  (42) 
-9.3900000000000006

>  <m_primary>  (42) 
energy

$$$$
42:0
     RDKit          3D

 42 43  0  0  0  0  0  0  0  0999 V2000
   -5.2315   26.7789  -30.7837 H   0  0  0  0  0  0  0  0  0  0  0  0
   -5.0780   25.6900  -30.7580 C   0  0  0  0  0  0  0  0  0  0  0  0
   -3.8550   25.1870  -30.4500 N   0  0  0  0  0  0  0  0  0  0  0  0
   -3.6210   23.8500  -30.4070 C   0  0  0  0  0  0  0  0  0  0  0  0
   -2.3440   23.3810  -30.0780 C   0  0  0  0  0  0  0  0  0  0  0  0
   -1.5361   24.0958  -29.8628 H   0  0  0  0  0  0  0  0  0  0  0  0
   -2.0920   22.0070  -30.0220 C   0  0  0  0  0  0  0  0  0  0  0  0
   -0.4900   21.4270  -29.6080 Cl  0  0  0  0  0  0  0  0  0  0  0  0
   -3.1160   21.0960  -30.2940 C   0  0  0  0  0  0  0  0  0  0  0  0
   -2.9145   20.0156  -30.2476 H   0  0  0  0  0  0  0  0  0  0  0  0
   -4.3960   21.5520  -30.6250 C   0  0  0  0  0  0  0  0  0  0  0  0
   -5.1965   20.8282  -30.8381 H   0  0  0  0  0  0  0  0  0  0  0  0
   -4.6660   22.9350  -30.6870 C   0  0  0  0  0  0  0  0  0  0  0  0
   -5.9480   23.4360  -31.0120 C   0  0  0  0  0  0  0  0  0  0  0  0
   -6.9170   22.5990  -31.2700 N   0  0  0  0  0  0  0  0  0  0  0  0
   -8.2240   22.8910  -31.8620 C   0  0  0  0  0  0  0  0  0  0  0  0
   -8.1066   23.0114  -32.9491 H   0  0  0  0  0  0  0  0  0  0  0  0
   -8.6128   23.8149  -31.4090 H   0  0  0  0  0  0  0  0  0  0  0  0
   -9.2260   21.7550  -31.5880 C   0  0  0  0  0  0  0  0  0  0  0  0
  -10.2301   22.1155  -31.8560 H   0  0  0  0  0  0  0  0  0  0  0  0
   -9.1178   21.5042  -30.5225 H   0  0  0  0  0  0  0  0  0  0  0  0
   -8.9650   20.4380  -32.3680 C   0  0  0  0  0  0  0  0  0  0  0  0
   -9.1050   20.6535  -33.4376 H   0  0  0  0  0  0  0  0  0  0  0  0
   -9.6726   19.7113  -31.9423 H   0  0  0  0  0  0  0  0  0  0  0  0
   -7.6200   19.8050  -32.2090 N   0  0  0  0  0  0  0  0  0  0  0  0
   -7.0810   20.4540  -31.5860 H   0  0  0  0  0  0  0  0  0  0  0  0
   -6.8860   19.7340  -33.4990 C   0  0  0  0  0  0  0  0  0  0  0  0
   -7.4798   20.2488  -34.2687 H   0  0  0  0  0  0  0  0  0  0  0  0
   -6.7400   18.6697  -33.7356 H   0  0  0  0  0  0  0  0  0  0  0  0
   -5.4980   20.3840  -33.4370 C   0  0  0  0  0  0  0  0  0  0  0  0
   -5.2042   20.5216  -32.3859 H   0  0  0  0  0  0  0  0  0  0  0  0
   -4.7663   19.7349  -33.9403 H   0  0  0  0  0  0  0  0  0  0  0  0
   -5.5281   21.3616  -33.9403 H   0  0  0  0  0  0  0  0  0  0  0  0
   -7.6470   18.4880  -31.5190 C   0  0  0  0  0  0  0  0  0  0  0  0
   -7.7065   18.6636  -30.4347 H   0  0  0  0  0  0  0  0  0  0  0  0
   -8.5212   17.9397  -31.9001 H   0  0  0  0  0  0  0  0  0  0  0  0
   -6.4100   17.6240  -31.8050 C   0  0  0  0  0  0  0  0  0  0  0  0
   -5.9563   17.3071  -30.8543 H   0  0  0  0  0  0  0  0  0  0  0  0
   -6.7081   16.7367  -32.3828 H   0  0  0  0  0  0  0  0  0  0  0  0
   -5.6795   18.2093  -32.3828 H   0  0  0  0  0  0  0  0  0  0  0  0
   -6.1410   24.8320  -31.0420 C   0  0  0  0  0  0  0  0  0  0  0  0
   -7.1300   25.2451  -31.2894 H   0  0  0  0  0  0  0  0  0  0  0  0
  1  2  1  0
  2  3  1  0
  3  4  1  0
  4  5  2  0
  5  6  1  0
  5  7  1  0
  7  8  1  0
  7  9  2  0
  9 10  1  0
  9 11  1  0
 11 12  1  0
 11 13  2  0
 13 14  1  0
 14 15  2  0
 15 16  1  0
 16 17  1  0
 16 18  1  0
 16 19  1  0
 19 20  1  0
 19 21  1  0
 19 22  1  0
 22 23  1  0
 22 24  1  0
 22 25  1  0
 25 26  1  0
 25 27  1  0
 27 28  1  0
 27 29  1  0
 27 30  1  0
 30 31  1  0
 30 32  1  0
 30 33  1  0
 25 34  1  0
 34 35  1  0
 34 36  1  0
 34 37  1  0
 37 38  1  0
 37 39  1  0
 37 40  1  0
 14 41  1  0
 41 42  1  0
 41  2  2  0
 13  4  1  0
M  CHG  2   3  -1  25   1
M  END
>  <UniqueID>  (43) 
40

>  <SMILES>  (43) 
CC[NH+](CC)CCC/N=c1\cc[n-]c2cc(Cl)ccc12

>  <Energy>  (43) 
54.53926984347615

>  <Genealogy>  (43) 
CC[NH+](CC)CCCN=c1cc[n-]c2cc(Cl)ccc12 (protonated)
CC[NH+](CC)CCC/N=c1\cc[n-]c2cc(Cl)ccc12 (cis-trans isomerization)
CC[NH+](CC)CCC/N=c1\cc[n-]c2cc(Cl)ccc12 (3D coordinates assigned)
CC[NH+](CC)CCC/N=c1\cc[n-]c2cc(Cl)ccc12 (optimized conformer: 54.53926984347615 kcal/mol)

>  <smiles>  (43) 
CCN(CC)CCCN=c1cc[nH]c2cc(Cl)ccc12

>  <score_type>  (43) 
oracle

>  <origin>  (43) 
adg

>  <m_score__min__energy>  (43) 
-8.0199999999999996

>  <m_primary>  (43) 
energy

$$$$
43:0
     RDKit          3D

 53 55  0  0  0  0  0  0  0  0999 V2000
   -4.7943   22.0799  -30.0759 H   0  0  0  0  0  0  0  0  0  0  0  0
   -4.8010   21.4680  -30.9900 C   0  0  0  0  0  0  0  0  0  0  0  0
   -5.9580   20.8880  -31.3390 C   0  0  0  0  0  0  0  0  0  0  0  0
   -5.9577   19.8016  -31.5113 H   0  0  0  0  0  0  0  0  0  0  0  0
   -7.2330   21.6140  -31.5070 C   0  0  0  0  0  0  0  0  0  0  0  0
   -7.2790   22.9720  -31.8310 C   0  0  0  0  0  0  0  0  0  0  0  0
   -6.1130   23.8760  -32.0990 C   0  0  0  0  0  0  0  0  0  0  0  0
   -6.3556   24.5384  -32.9430 H   0  0  0  0  0  0  0  0  0  0  0  0
   -5.2343   23.2596  -32.3395 H   0  0  0  0  0  0  0  0  0  0  0  0
   -5.7980   24.7230  -30.8720 C   0  0  0  0  0  0  0  0  0  0  0  0
   -6.0133   24.1441  -29.9618 H   0  0  0  0  0  0  0  0  0  0  0  0
   -4.7349   25.0051  -30.8843 H   0  0  0  0  0  0  0  0  0  0  0  0
   -6.4185   25.6312  -30.8843 H   0  0  0  0  0  0  0  0  0  0  0  0
   -8.8900   23.4240  -31.9820 S   0  0  0  0  0  0  0  0  0  0  0  0
   -9.4790   21.8910  -31.6330 C   0  0  0  0  0  0  0  0  0  0  0  0
  -10.5465   21.6293  -31.5894 H   0  0  0  0  0  0  0  0  0  0  0  0
   -8.4650   21.0180  -31.4120 N   0  0  0  0  0  0  0  0  0  0  0  0
   -8.7010   19.5750  -31.2650 C   0  0  0  0  0  0  0  0  0  0  0  0
   -7.9489   19.1574  -30.5795 H   0  0  0  0  0  0  0  0  0  0  0  0
   -9.7159   19.4290  -30.8668 H   0  0  0  0  0  0  0  0  0  0  0  0
   -8.6030   18.8510  -32.6150 C   0  0  0  0  0  0  0  0  0  0  0  0
   -9.2696   17.9761  -32.5997 H   0  0  0  0  0  0  0  0  0  0  0  0
   -8.8979   19.5570  -33.4053 H   0  0  0  0  0  0  0  0  0  0  0  0
   -7.1970   18.3890  -32.8980 C   0  0  0  0  0  0  0  0  0  0  0  0
   -6.6110   17.3850  -32.1120 C   0  0  0  0  0  0  0  0  0  0  0  0
   -7.1644   16.9623  -31.2605 H   0  0  0  0  0  0  0  0  0  0  0  0
   -5.3250   16.9200  -32.4080 C   0  0  0  0  0  0  0  0  0  0  0  0
   -4.8668   16.1381  -31.7845 H   0  0  0  0  0  0  0  0  0  0  0  0
   -4.6220   17.4470  -33.4940 C   0  0  0  0  0  0  0  0  0  0  0  0
   -3.6107   17.0809  -33.7245 H   0  0  0  0  0  0  0  0  0  0  0  0
   -5.2040   18.4400  -34.2880 C   0  0  0  0  0  0  0  0  0  0  0  0
   -4.6518   18.8520  -35.1455 H   0  0  0  0  0  0  0  0  0  0  0  0
   -6.4860   18.9090  -33.9930 C   0  0  0  0  0  0  0  0  0  0  0  0
   -6.9414   19.6891  -34.6207 H   0  0  0  0  0  0  0  0  0  0  0  0
   -3.5300   21.3470  -31.7430 C   0  0  0  0  0  0  0  0  0  0  0  0
   -2.2920   21.6530  -31.1600 C   0  0  0  0  0  0  0  0  0  0  0  0
   -2.2495   21.9906  -30.1140 H   0  0  0  0  0  0  0  0  0  0  0  0
   -1.1110   21.5320  -31.8990 C   0  0  0  0  0  0  0  0  0  0  0  0
   -0.1464   21.7612  -31.4225 H   0  0  0  0  0  0  0  0  0  0  0  0
   -1.1410   21.1200  -33.2470 C   0  0  0  0  0  0  0  0  0  0  0  0
    0.0860   20.9880  -34.0150 N   0  0  0  0  0  0  0  0  0  0  0  0
    1.1830   20.1400  -33.5300 C   0  0  0  0  0  0  0  0  0  0  0  0
    1.1859   20.1377  -32.4300 H   0  0  0  0  0  0  0  0  0  0  0  0
    1.0430   19.1130  -33.8984 H   0  0  0  0  0  0  0  0  0  0  0  0
    2.1416   20.5342  -33.8984 H   0  0  0  0  0  0  0  0  0  0  0  0
    0.2510   21.6990  -35.2890 C   0  0  0  0  0  0  0  0  0  0  0  0
    0.4956   22.7531  -35.0916 H   0  0  0  0  0  0  0  0  0  0  0  0
    1.0654   21.2352  -35.8649 H   0  0  0  0  0  0  0  0  0  0  0  0
   -0.6844   21.6413  -35.8649 H   0  0  0  0  0  0  0  0  0  0  0  0
   -2.3960   20.8520  -33.8330 C   0  0  0  0  0  0  0  0  0  0  0  0
   -2.4481   20.5423  -34.8872 H   0  0  0  0  0  0  0  0  0  0  0  0
   -3.5740   20.9750  -33.0910 C   0  0  0  0  0  0  0  0  0  0  0  0
   -4.5439   20.7777  -33.5709 H   0  0  0  0  0  0  0  0  0  0  0  0
  1  2  1  0
  2  3  2  0
  3  4  1  0
  3  5  1  0
  5  6  2  0
  6  7  1  0
  7  8  1  0
  7  9  1  0
  7 10  1  0
 10 11  1  0
 10 12  1  0
 10 13  1  0
  6 14  1  0
 14 15  1  0
 15 16  1  0
 15 17  2  0
 17 18  1  0
 18 19  1  0
 18 20  1  0
 18 21  1  0
 21 22  1  0
 21 23  1  0
 21 24  1  0
 24 25  2  0
 25 26  1  0
 25 27  1  0
 27 28  1  0
 27 29  2  0
 29 30  1  0
 29 31  1  0
 31 32  1  0
 31 33  2  0
 33 34  1  0
  2 35  1  0
 35 36  2  0
 36 37  1  0
 36 38  1  0
 38 39  1  0
 38 40  2  0
 40 41  1  0
 41 42  1  0
 42 43  1  0
 42 44  1  0
 42 45  1  0
 41 46  1  0
 46 47  1  0
 46 48  1  0
 46 49  1  0
 40 50  1  0
 50 51  1  0
 50 52  2  0
 52 53  1  0
 17  5  1  0
 33 24  1  0
 52 35  1  0
M  CHG  1  17   1
M  END
>  <UniqueID>  (44) 
41

>  <SMILES>  (44) 
CCc1sc[n+](CCc2ccccc2)c1/C=C\c1ccc(N(C)C)cc1

>  <Energy>  (44) 
87.49220281492502

>  <Genealogy>  (44) 
CCc1sc[n+](CCc2ccccc2)c1/C=C\c1ccc(N(C)C)cc1 (cis-trans isomerization)
CCc1sc[n+](CCc2ccccc2)c1/C=C\c1ccc(N(C)C)cc1 (3D coordinates assigned)
CCc1sc[n+](CCc2ccccc2)c1/C=C\c1ccc(N(C)C)cc1 (optimized conformer: 87.49220281492502 kcal/mol)

>  <smiles>  (44) 
CCc1sc[n+](CCc2ccccc2)c1C=Cc1ccc(N(C)C)cc1

>  <score_type>  (44) 
oracle

>  <origin>  (44) 
adg

>  <m_score__min__energy>  (44) 
-7.8200000000000003

>  <m_primary>  (44) 
energy

$$$$
44:0
     RDKit          3D

 45 47  0  0  0  0  0  0  0  0999 V2000
   -0.8260   26.6400  -27.8260 C   0  0  0  0  0  0  0  0  0  0  0  0
   -1.4770   26.0520  -28.9450 O   0  0  0  0  0  0  0  0  0  0  0  0
   -1.9480   24.7280  -29.0370 C   0  0  0  0  0  0  0  0  0  0  0  0
   -1.2040   23.7480  -28.3640 C   0  0  0  0  0  0  0  0  0  0  0  0
   -1.5900   22.4130  -28.3800 C   0  0  0  0  0  0  0  0  0  0  0  0
   -2.7320   22.0280  -29.0790 C   0  0  0  0  0  0  0  0  0  0  0  0
   -3.4900   22.9790  -29.7610 C   0  0  0  0  0  0  0  0  0  0  0  0
   -3.1160   24.3380  -29.7470 C   0  0  0  0  0  0  0  0  0  0  0  0
   -3.8600   25.2890  -30.5190 N   0  0  0  0  0  0  0  0  0  0  0  0
   -5.2900   25.3690  -30.5940 C   0  0  0  0  0  0  0  0  0  0  0  0
   -5.9290   26.1300  -29.8180 O   0  0  0  0  0  0  0  0  0  0  0  0
   -6.0330   24.5400  -31.5940 C   0  0  0  0  0  0  0  0  0  0  0  0
   -5.9610   23.1530  -31.2680 O   0  0  0  0  0  0  0  0  0  0  0  0
   -6.9770   22.2040  -31.4820 C   0  0  0  0  0  0  0  0  0  0  0  0
   -8.2600   22.3440  -30.9110 C   0  0  0  0  0  0  0  0  0  0  0  0
   -9.2620   21.4110  -31.1840 C   0  0  0  0  0  0  0  0  0  0  0  0
   -9.0030   20.3300  -32.0260 C   0  0  0  0  0  0  0  0  0  0  0  0
   -7.7370   20.1730  -32.5930 C   0  0  0  0  0  0  0  0  0  0  0  0
   -6.7110   21.0940  -32.3170 C   0  0  0  0  0  0  0  0  0  0  0  0
   -5.3900   20.9150  -32.9670 C   0  0  0  0  0  0  0  0  0  0  0  0
   -4.6290   21.9150  -33.0800 O   0  0  0  0  0  0  0  0  0  0  0  0
   -4.9410   19.6060  -33.4980 C   0  0  0  0  0  0  0  0  0  0  0  0
   -5.7070   18.9420  -34.4750 C   0  0  0  0  0  0  0  0  0  0  0  0
   -5.2960   17.7010  -34.9720 C   0  0  0  0  0  0  0  0  0  0  0  0
   -4.1260   17.1050  -34.4930 C   0  0  0  0  0  0  0  0  0  0  0  0
   -3.3640   17.7510  -33.5170 C   0  0  0  0  0  0  0  0  0  0  0  0
   -3.7700   18.9940  -33.0180 C   0  0  0  0  0  0  0  0  0  0  0  0
   -1.2638   26.2446  -26.8976 H   0  0  0  0  0  0  0  0  0  0  0  0
    0.2467   26.3987  -27.8574 H   0  0  0  0  0  0  0  0  0  0  0  0
   -0.9573   27.7317  -27.8574 H   0  0  0  0  0  0  0  0  0  0  0  0
   -0.2981   24.0414  -27.8133 H   0  0  0  0  0  0  0  0  0  0  0  0
   -0.9945   21.6612  -27.8414 H   0  0  0  0  0  0  0  0  0  0  0  0
   -3.0364   20.9711  -29.0929 H   0  0  0  0  0  0  0  0  0  0  0  0
   -4.3875   22.6661  -30.3147 H   0  0  0  0  0  0  0  0  0  0  0  0
   -7.0878   24.8517  -31.6059 H   0  0  0  0  0  0  0  0  0  0  0  0
   -5.5735   24.6904  -32.5821 H   0  0  0  0  0  0  0  0  0  0  0  0
   -8.4720   23.1943  -30.2461 H   0  0  0  0  0  0  0  0  0  0  0  0
  -10.2586   21.5289  -30.7336 H   0  0  0  0  0  0  0  0  0  0  0  0
   -9.7969   19.6004  -32.2436 H   0  0  0  0  0  0  0  0  0  0  0  0
   -7.5405   19.3217  -33.2613 H   0  0  0  0  0  0  0  0  0  0  0  0
   -6.6336   19.4017  -34.8494 H   0  0  0  0  0  0  0  0  0  0  0  0
   -5.8951   17.1927  -35.7419 H   0  0  0  0  0  0  0  0  0  0  0  0
   -3.8057   16.1281  -34.8843 H   0  0  0  0  0  0  0  0  0  0  0  0
   -2.4432   17.2821  -33.1398 H   0  0  0  0  0  0  0  0  0  0  0  0
   -3.1689   19.4953  -32.2452 H   0  0  0  0  0  0  0  0  0  0  0  0
  1  2  1  0
  2  3  1  0
  3  4  2  0
  4  5  1  0
  5  6  2  0
  6  7  1  0
  7  8  2  0
  8  9  1  0
  9 10  1  0
 10 11  2  0
 10 12  1  0
 12 13  1  0
 13 14  1  0
 14 15  2  0
 15 16  1  0
 16 17  2  0
 17 18  1  0
 18 19  2  0
 19 20  1  0
 20 21  2  0
 20 22  1  0
 22 23  2  0
 23 24  1  0
 24 25  2  0
 25 26  1  0
 26 27  2  0
  8  3  1  0
 19 14  1  0
 27 22  1  0
  1 28  1  0
  1 29  1  0
  1 30  1  0
  4 31  1  0
  5 32  1  0
  6 33  1  0
  7 34  1  0
 12 35  1  0
 12 36  1  0
 15 37  1  0
 16 38  1  0
 17 39  1  0
 18 40  1  0
 23 41  1  0
 24 42  1  0
 25 43  1  0
 26 44  1  0
 27 45  1  0
M  CHG  1   9  -1
M  END
>  <UniqueID>  (45) 
42

>  <SMILES>  (45) 
COc1ccccc1[N-]C(=O)COc1ccccc1C(=O)c1ccccc1

>  <Energy>  (45) 
58.90389708031306

>  <Genealogy>  (45) 
COc1ccccc1[N-]C(=O)COc1ccccc1C(=O)c1ccccc1 (protonated)
COc1ccccc1[N-]C(=O)COc1ccccc1C(=O)c1ccccc1 (3D coordinates assigned)
COc1ccccc1[N-]C(=O)COc1ccccc1C(=O)c1ccccc1 (optimized conformer: 58.90389708031306 kcal/mol)

>  <smiles>  (45) 
COc1ccccc1NC(=O)COc1ccccc1C(=O)c1ccccc1

>  <score_type>  (45) 
oracle

>  <origin>  (45) 
adg

>  <m_score__min__energy>  (45) 
-11.17

>  <m_primary>  (45) 
energy

$$$$
45:0
     RDKit          3D

 50 52  0  0  0  0  0  0  0  0999 V2000
   -2.2640   24.2080  -29.3400 C   0  0  0  0  0  0  0  0  0  0  0  0
   -3.1540   24.6770  -30.3460 O   0  0  0  0  0  0  0  0  0  0  0  0
   -4.5160   24.3400  -30.4270 C   0  0  0  0  0  0  0  0  0  0  0  0
   -5.5230   25.1760  -29.9030 C   0  0  0  0  0  0  0  0  0  0  0  0
   -6.8690   24.8310  -30.0480 C   0  0  0  0  0  0  0  0  0  0  0  0
   -7.2270   23.6580  -30.7190 C   0  0  0  0  0  0  0  0  0  0  0  0
   -6.2380   22.8140  -31.2260 C   0  0  0  0  0  0  0  0  0  0  0  0
   -4.8820   23.1410  -31.0710 C   0  0  0  0  0  0  0  0  0  0  0  0
   -3.8740   22.2640  -31.5980 N   0  0  0  0  0  0  0  0  0  0  0  0
   -3.1770   21.3290  -30.7060 C   0  0  0  0  0  0  0  0  0  0  0  0
   -2.6840   20.1030  -31.4950 C   0  0  0  0  0  0  0  0  0  0  0  0
   -3.6260   19.7980  -32.5940 N   0  0  0  0  0  0  0  0  0  0  0  0
   -3.3130   18.5160  -33.1980 C   0  0  0  0  0  0  0  0  0  0  0  0
   -2.4780   17.7790  -32.6910 O   0  0  0  0  0  0  0  0  0  0  0  0
   -4.0120   18.0730  -34.4540 C   0  0  0  0  0  0  0  0  0  0  0  0
   -5.2390   17.2260  -34.1090 C   0  0  0  0  0  0  0  0  0  0  0  0
   -5.5250   17.1860  -32.3030 S   0  0  0  0  0  0  0  0  0  0  0  0
   -6.8510   18.3990  -32.3260 C   0  0  0  0  0  0  0  0  0  0  0  0
   -8.0300   18.1700  -31.6020 C   0  0  0  0  0  0  0  0  0  0  0  0
   -9.0680   19.1070  -31.6410 C   0  0  0  0  0  0  0  0  0  0  0  0
   -8.9250   20.2830  -32.3870 C   0  0  0  0  0  0  0  0  0  0  0  0
   -7.7420   20.5220  -33.0930 C   0  0  0  0  0  0  0  0  0  0  0  0
   -6.7040   19.5830  -33.0600 C   0  0  0  0  0  0  0  0  0  0  0  0
   -3.6240   20.8610  -33.6280 C   0  0  0  0  0  0  0  0  0  0  0  0
   -3.5390   22.2820  -33.0270 C   0  0  0  0  0  0  0  0  0  0  0  0
   -2.6834   24.4290  -28.3474 H   0  0  0  0  0  0  0  0  0  0  0  0
   -2.1290   23.1216  -29.4474 H   0  0  0  0  0  0  0  0  0  0  0  0
   -1.2915   24.7108  -29.4474 H   0  0  0  0  0  0  0  0  0  0  0  0
   -5.2480   26.1029  -29.3783 H   0  0  0  0  0  0  0  0  0  0  0  0
   -7.6500   25.4848  -29.6326 H   0  0  0  0  0  0  0  0  0  0  0  0
   -8.2886   23.4002  -30.8474 H   0  0  0  0  0  0  0  0  0  0  0  0
   -6.5223   21.8890  -31.7491 H   0  0  0  0  0  0  0  0  0  0  0  0
   -2.3148   21.8374  -30.2499 H   0  0  0  0  0  0  0  0  0  0  0  0
   -3.8745   20.9939  -29.9242 H   0  0  0  0  0  0  0  0  0  0  0  0
   -1.6900   20.3157  -31.9154 H   0  0  0  0  0  0  0  0  0  0  0  0
   -2.6249   19.2375  -30.8187 H   0  0  0  0  0  0  0  0  0  0  0  0
   -4.5880   19.7440  -32.1820 H   0  0  0  0  0  0  0  0  0  0  0  0
   -4.3309   18.9585  -35.0233 H   0  0  0  0  0  0  0  0  0  0  0  0
   -3.3175   17.4681  -35.0554 H   0  0  0  0  0  0  0  0  0  0  0  0
   -6.1227   17.6558  -34.6032 H   0  0  0  0  0  0  0  0  0  0  0  0
   -5.0629   16.1977  -34.4576 H   0  0  0  0  0  0  0  0  0  0  0  0
   -8.1386   17.2535  -31.0034 H   0  0  0  0  0  0  0  0  0  0  0  0
   -9.9982   18.9195  -31.0846 H   0  0  0  0  0  0  0  0  0  0  0  0
   -9.7426   21.0183  -32.4177 H   0  0  0  0  0  0  0  0  0  0  0  0
   -7.6268   21.4484  -33.6748 H   0  0  0  0  0  0  0  0  0  0  0  0
   -5.7717   19.7753  -33.6113 H   0  0  0  0  0  0  0  0  0  0  0  0
   -2.7582   20.7067  -34.2888 H   0  0  0  0  0  0  0  0  0  0  0  0
   -4.5746   20.7903  -34.1769 H   0  0  0  0  0  0  0  0  0  0  0  0
   -2.5160   22.6663  -33.1529 H   0  0  0  0  0  0  0  0  0  0  0  0
   -4.2581   22.9297  -33.5498 H   0  0  0  0  0  0  0  0  0  0  0  0
  1  2  1  0
  2  3  1  0
  3  4  2  0
  4  5  1  0
  5  6  2  0
  6  7  1  0
  7  8  2  0
  8  9  1  0
  9 10  1  0
 10 11  1  0
 11 12  1  0
 12 13  1  0
 13 14  2  0
 13 15  1  0
 15 16  1  0
 16 17  1  0
 17 18  1  0
 18 19  2  0
 19 20  1  0
 20 21  2  0
 21 22  1  0
 22 23  2  0
 12 24  1  0
 24 25  1  0
  8  3  1  0
 25  9  1  0
 23 18  1  0
  1 26  1  0
  1 27  1  0
  1 28  1  0
  4 29  1  0
  5 30  1  0
  6 31  1  0
  7 32  1  0
 10 33  1  0
 10 34  1  0
 11 35  1  0
 11 36  1  0
 12 37  1  0
 15 38  1  0
 15 39  1  0
 16 40  1  0
 16 41  1  0
 19 42  1  0
 20 43  1  0
 21 44  1  0
 22 45  1  0
 23 46  1  0
 24 47  1  0
 24 48  1  0
 25 49  1  0
 25 50  1  0
M  CHG  1  12   1
M  END
>  <UniqueID>  (46) 
43

>  <SMILES>  (46) 
COc1ccccc1N1CC[NH+](C(=O)CCSc2ccccc2)CC1

>  <Energy>  (46) 
53.54160691029446

>  <Genealogy>  (46) 
COc1ccccc1N1CC[NH+](C(=O)CCSc2ccccc2)CC1 (protonated)
COc1ccccc1N1CC[NH+](C(=O)CCSc2ccccc2)CC1 (3D coordinates assigned)
COc1ccccc1N1CC[NH+](C(=O)CCSc2ccccc2)CC1 (nonaromatic ring conformer: 53.54160691029446 kcal/mol)

>  <smiles>  (46) 
COc1ccccc1N1CCN(C(=O)CCSc2ccccc2)CC1

>  <score_type>  (46) 
oracle

>  <origin>  (46) 
adg

>  <m_score__min__energy>  (46) 
-7.79

>  <m_primary>  (46) 
energy

$$$$
46:0
     RDKit          3D

 52 54  0  0  0  0  0  0  0  0999 V2000
   -3.4960   21.8940  -30.2870 C   0  0  0  0  0  0  0  0  0  0  0  0
   -3.6110   23.1360  -31.1870 C   0  0  0  0  0  0  0  0  0  0  0  0
   -3.8740   24.4010  -30.4600 N   0  0  0  0  0  0  0  0  0  0  0  0
   -3.1940   24.5130  -29.1510 C   0  0  0  0  0  0  0  0  0  0  0  0
   -4.1380   24.1850  -27.9930 C   0  0  0  0  0  0  0  0  0  0  0  0
   -5.2870   24.8530  -30.4990 C   0  0  0  0  0  0  0  0  0  0  0  0
   -6.2620   23.7890  -30.9480 C   0  0  0  0  0  0  0  0  0  0  0  0
   -7.0480   23.1050  -30.0050 C   0  0  0  0  0  0  0  0  0  0  0  0
   -7.9510   22.1210  -30.4180 C   0  0  0  0  0  0  0  0  0  0  0  0
   -8.0670   21.7930  -31.7770 C   0  0  0  0  0  0  0  0  0  0  0  0
   -9.0740   20.7640  -32.2260 C   0  0  0  0  0  0  0  0  0  0  0  0
   -8.4900   19.8890  -33.2550 N   0  0  0  0  0  0  0  0  0  0  0  0
   -7.2020   19.3150  -32.8150 C   0  0  0  0  0  0  0  0  0  0  0  0
   -7.3090   17.7820  -32.6120 C   0  0  0  0  0  0  0  0  0  0  0  0
   -6.0760   17.2560  -33.2380 C   0  0  0  0  0  0  0  0  0  0  0  0
   -5.6220   15.9350  -33.2140 C   0  0  0  0  0  0  0  0  0  0  0  0
   -4.4370   15.6140  -33.8950 C   0  0  0  0  0  0  0  0  0  0  0  0
   -3.7310   16.6130  -34.5900 C   0  0  0  0  0  0  0  0  0  0  0  0
   -4.2100   17.9310  -34.6100 C   0  0  0  0  0  0  0  0  0  0  0  0
   -5.3870   18.2290  -33.9200 C   0  0  0  0  0  0  0  0  0  0  0  0
   -6.0630   19.5430  -33.8440 C   0  0  0  0  0  0  0  0  0  0  0  0
   -7.2820   22.4720  -32.7200 C   0  0  0  0  0  0  0  0  0  0  0  0
   -6.3770   23.4540  -32.3070 C   0  0  0  0  0  0  0  0  0  0  0  0
   -3.5245   22.2022  -29.2314 H   0  0  0  0  0  0  0  0  0  0  0  0
   -4.3349   21.2130  -30.4930 H   0  0  0  0  0  0  0  0  0  0  0  0
   -2.5463   21.3786  -30.4930 H   0  0  0  0  0  0  0  0  0  0  0  0
   -2.6668   23.2478  -31.7402 H   0  0  0  0  0  0  0  0  0  0  0  0
   -4.4773   22.9670  -31.8434 H   0  0  0  0  0  0  0  0  0  0  0  0
   -2.3459   23.8128  -29.1288 H   0  0  0  0  0  0  0  0  0  0  0  0
   -2.8513   25.5513  -29.0304 H   0  0  0  0  0  0  0  0  0  0  0  0
   -3.6226   24.3641  -27.0378 H   0  0  0  0  0  0  0  0  0  0  0  0
   -5.0299   24.8259  -28.0542 H   0  0  0  0  0  0  0  0  0  0  0  0
   -4.4403   23.1291  -28.0542 H   0  0  0  0  0  0  0  0  0  0  0  0
   -5.5733   25.1799  -29.4885 H   0  0  0  0  0  0  0  0  0  0  0  0
   -5.3404   25.6653  -31.2388 H   0  0  0  0  0  0  0  0  0  0  0  0
   -6.9521   23.3452  -28.9358 H   0  0  0  0  0  0  0  0  0  0  0  0
   -8.5732   21.6017  -29.6742 H   0  0  0  0  0  0  0  0  0  0  0  0
   -9.3789   20.1545  -31.3625 H   0  0  0  0  0  0  0  0  0  0  0  0
   -9.9469   21.2810  -32.6511 H   0  0  0  0  0  0  0  0  0  0  0  0
   -9.1610   19.1050  -33.4380 H   0  0  0  0  0  0  0  0  0  0  0  0
   -8.3560   20.4260  -34.1470 H   0  0  0  0  0  0  0  0  0  0  0  0
   -6.9668   19.8302  -31.8720 H   0  0  0  0  0  0  0  0  0  0  0  0
   -7.3434   17.5299  -31.5418 H   0  0  0  0  0  0  0  0  0  0  0  0
   -8.2236   17.3576  -33.0517 H   0  0  0  0  0  0  0  0  0  0  0  0
   -6.1831   15.1601  -32.6711 H   0  0  0  0  0  0  0  0  0  0  0  0
   -4.0602   14.5806  -33.8852 H   0  0  0  0  0  0  0  0  0  0  0  0
   -2.8006   16.3596  -35.1193 H   0  0  0  0  0  0  0  0  0  0  0  0
   -3.6686   18.7155  -35.1590 H   0  0  0  0  0  0  0  0  0  0  0  0
   -5.3687   20.3211  -33.4939 H   0  0  0  0  0  0  0  0  0  0  0  0
   -6.4347   19.8870  -34.8205 H   0  0  0  0  0  0  0  0  0  0  0  0
   -7.3788   22.2309  -33.7889 H   0  0  0  0  0  0  0  0  0  0  0  0
   -5.7508   23.9677  -33.0513 H   0  0  0  0  0  0  0  0  0  0  0  0
  1  2  1  0
  2  3  1  0
  3  4  1  0
  4  5  1  0
  3  6  1  0
  6  7  1  0
  7  8  2  0
  8  9  1  0
  9 10  2  0
 10 11  1  0
 11 12  1  0
 12 13  1  0
 13 14  1  0
 14 15  1  0
 15 16  2  0
 16 17  1  0
 17 18  2  0
 18 19  1  0
 19 20  2  0
 20 21  1  0
 10 22  1  0
 22 23  2  0
 23  7  1  0
 21 13  1  0
 20 15  1  0
  1 24  1  0
  1 25  1  0
  1 26  1  0
  2 27  1  0
  2 28  1  0
  4 29  1  0
  4 30  1  0
  5 31  1  0
  5 32  1  0
  5 33  1  0
  6 34  1  0
  6 35  1  0
  8 36  1  0
  9 37  1  0
 11 38  1  0
 11 39  1  0
 12 40  1  0
 12 41  1  0
 13 42  1  0
 14 43  1  0
 14 44  1  0
 16 45  1  0
 17 46  1  0
 18 47  1  0
 19 48  1  0
 21 49  1  0
 21 50  1  0
 22 51  1  0
 23 52  1  0
M  CHG  1  12   1
M  END
>  <UniqueID>  (47) 
44

>  <SMILES>  (47) 
CCN(CC)Cc1ccc(C[NH2+]C2Cc3ccccc3C2)cc1

>  <Energy>  (47) 
66.18125006283233

>  <Genealogy>  (47) 
CCN(CC)Cc1ccc(C[NH2+]C2Cc3ccccc3C2)cc1 (protonated)
CCN(CC)Cc1ccc(C[NH2+]C2Cc3ccccc3C2)cc1 (3D coordinates assigned)
CCN(CC)Cc1ccc(C[NH2+]C2Cc3ccccc3C2)cc1 (nonaromatic ring conformer: 66.18125006283233 kcal/mol)

>  <smiles>  (47) 
CCN(CC)Cc1ccc(CNC2Cc3ccccc3C2)cc1

>  <score_type>  (47) 
oracle

>  <origin>  (47) 
adg

>  <m_score__min__energy>  (47) 
-8.1699999999999999

>  <m_primary>  (47) 
energy

$$$$
47:0
     RDKit          3D

 47 49  0  0  0  0  0  0  0  0999 V2000
   -0.2410   22.8550  -26.4450 C   0  0  0  0  0  0  0  0  0  0  0  0
    0.9520   23.4800  -27.1600 C   0  0  0  0  0  0  0  0  0  0  0  0
    0.5510   24.0640  -28.4000 O   0  0  0  0  0  0  0  0  0  0  0  0
   -0.5700   23.7020  -29.1670 C   0  0  0  0  0  0  0  0  0  0  0  0
   -0.6320   22.4590  -29.8270 C   0  0  0  0  0  0  0  0  0  0  0  0
   -1.7460   22.1050  -30.5930 C   0  0  0  0  0  0  0  0  0  0  0  0
   -1.7750   20.7900  -31.3240 C   0  0  0  0  0  0  0  0  0  0  0  0
   -3.1340   20.5620  -31.9060 C   0  0  0  0  0  0  0  0  0  0  0  0
   -3.4340   20.7380  -33.2120 N   0  0  0  0  0  0  0  0  0  0  0  0
   -4.7530   20.5450  -33.4770 C   0  0  0  0  0  0  0  0  0  0  0  0
   -5.5240   20.2220  -32.3630 C   0  0  0  0  0  0  0  0  0  0  0  0
   -6.9730   19.9690  -32.3430 C   0  0  0  0  0  0  0  0  0  0  0  0
   -7.5950   18.7250  -32.3710 C   0  0  0  0  0  0  0  0  0  0  0  0
   -8.9920   18.8050  -32.3410 C   0  0  0  0  0  0  0  0  0  0  0  0
   -9.4770   20.1050  -32.2890 C   0  0  0  0  0  0  0  0  0  0  0  0
   -8.1650   21.1550  -32.2810 S   0  0  0  0  0  0  0  0  0  0  0  0
   -4.5090   20.1850  -31.0150 S   0  0  0  0  0  0  0  0  0  0  0  0
   -2.8050   23.0090  -30.7300 C   0  0  0  0  0  0  0  0  0  0  0  0
   -2.7690   24.2560  -30.0800 C   0  0  0  0  0  0  0  0  0  0  0  0
   -3.8160   25.1870  -30.1920 O   0  0  0  0  0  0  0  0  0  0  0  0
   -5.1020   24.9380  -30.7630 C   0  0  0  0  0  0  0  0  0  0  0  0
   -5.9420   24.0590  -29.8420 C   0  0  0  0  0  0  0  0  0  0  0  0
   -1.6560   24.6070  -29.2980 C   0  0  0  0  0  0  0  0  0  0  0  0
   -1.6990   25.8710  -28.6770 O   0  0  0  0  0  0  0  0  0  0  0  0
   -1.1900   26.2030  -27.3900 C   0  0  0  0  0  0  0  0  0  0  0  0
   -0.0971   22.9304  -25.3571 H   0  0  0  0  0  0  0  0  0  0  0  0
   -1.1601   23.3875  -26.7311 H   0  0  0  0  0  0  0  0  0  0  0  0
   -0.3265   21.7963  -26.7311 H   0  0  0  0  0  0  0  0  0  0  0  0
    1.3888   24.2597  -26.5187 H   0  0  0  0  0  0  0  0  0  0  0  0
    1.6927   22.6928  -27.3642 H   0  0  0  0  0  0  0  0  0  0  0  0
    0.2095   21.7561  -29.7381 H   0  0  0  0  0  0  0  0  0  0  0  0
   -1.0296   20.8056  -32.1328 H   0  0  0  0  0  0  0  0  0  0  0  0
   -1.5415   19.9782  -30.6193 H   0  0  0  0  0  0  0  0  0  0  0  0
   -2.7340   21.0030  -33.9400 H   0  0  0  0  0  0  0  0  0  0  0  0
   -5.1767   20.6364  -34.4880 H   0  0  0  0  0  0  0  0  0  0  0  0
   -7.0441   17.7738  -32.4126 H   0  0  0  0  0  0  0  0  0  0  0  0
   -9.6451   17.9201  -32.3571 H   0  0  0  0  0  0  0  0  0  0  0  0
  -10.5371   20.3971  -32.2583 H   0  0  0  0  0  0  0  0  0  0  0  0
   -3.6729   22.7424  -31.3511 H   0  0  0  0  0  0  0  0  0  0  0  0
   -5.6196   25.8962  -30.9179 H   0  0  0  0  0  0  0  0  0  0  0  0
   -4.9672   24.4165  -31.7221 H   0  0  0  0  0  0  0  0  0  0  0  0
   -5.7113   24.3004  -28.7939 H   0  0  0  0  0  0  0  0  0  0  0  0
   -7.0096   24.2418  -30.0339 H   0  0  0  0  0  0  0  0  0  0  0  0
   -5.7109   23.0008  -30.0339 H   0  0  0  0  0  0  0  0  0  0  0  0
   -1.8444   25.7762  -26.6156 H   0  0  0  0  0  0  0  0  0  0  0  0
   -0.1755   25.7924  -27.2798 H   0  0  0  0  0  0  0  0  0  0  0  0
   -1.1568   27.2970  -27.2798 H   0  0  0  0  0  0  0  0  0  0  0  0
  1  2  1  0
  2  3  1  0
  3  4  1  0
  4  5  2  0
  5  6  1  0
  6  7  1  0
  7  8  1  0
  8  9  2  0
  9 10  1  0
 10 11  2  0
 11 12  1  0
 12 13  2  0
 13 14  1  0
 14 15  2  0
 15 16  1  0
 11 17  1  0
  6 18  2  0
 18 19  1  0
 19 20  1  0
 20 21  1  0
 21 22  1  0
 19 23  2  0
 23 24  1  0
 24 25  1  0
 23  4  1  0
 17  8  1  0
 16 12  1  0
  1 26  1  0
  1 27  1  0
  1 28  1  0
  2 29  1  0
  2 30  1  0
  5 31  1  0
  7 32  1  0
  7 33  1  0
  9 34  1  0
 10 35  1  0
 13 36  1  0
 14 37  1  0
 15 38  1  0
 18 39  1  0
 21 40  1  0
 21 41  1  0
 22 42  1  0
 22 43  1  0
 22 44  1  0
 25 45  1  0
 25 46  1  0
 25 47  1  0
M  CHG  1   9   1
M  END
>  <UniqueID>  (48) 
45

>  <SMILES>  (48) 
CCOc1cc(Cc2[nH+]cc(-c3cccs3)s2)cc(OCC)c1OC

>  <Energy>  (48) 
99.75730120096107

>  <Genealogy>  (48) 
CCOc1cc(Cc2[nH+]cc(-c3cccs3)s2)cc(OCC)c1OC (protonated)
CCOc1cc(Cc2[nH+]cc(-c3cccs3)s2)cc(OCC)c1OC (3D coordinates assigned)
CCOc1cc(Cc2[nH+]cc(-c3cccs3)s2)cc(OCC)c1OC (optimized conformer: 99.75730120096107 kcal/mol)

>  <smiles>  (48) 
CCOc1cc(Cc2ncc(-c3cccs3)s2)cc(OCC)c1OC

>  <score_type>  (48) 
oracle

>  <origin>  (48) 
adg

>  <m_score__min__energy>  (48) 
-7.4699999999999998

>  <m_primary>  (48) 
energy

$$$$
