0:0
     RDKit          3D

 42 45  0  0  0  0  0  0  0  0999 V2000
   -1.4310   25.4740  -27.6450 C   0  0  0  0  0  0  0  0  0  0  0  0
   -1.9850   25.5400  -28.9550 O   0  0  0  0  0  0  0  0  0  0  0  0
   -2.8010   24.5480  -29.5190 C   0  0  0  0  0  0  0  0  0  0  0  0
   -2.4420   23.1870  -29.5250 C   0  0  0  0  0  0  0  0  0  0  0  0
   -3.2890   22.2370  -30.1040 C   0  0  0  0  0  0  0  0  0  0  0  0
   -4.5030   22.6290  -30.6960 C   0  0  0  0  0  0  0  0  0  0  0  0
   -5.4250   21.6340  -31.2930 C   0  0  0  0  0  0  0  0  0  0  0  0
   -6.7340   21.9570  -31.4000 N   0  0  0  0  0  0  0  0  0  0  0  0
   -7.6340   21.0770  -31.8860 C   0  0  0  0  0  0  0  0  0  0  0  0
   -8.9930   21.3960  -31.9010 C   0  0  0  0  0  0  0  0  0  0  0  0
   -9.8980   20.4710  -32.3080 N   0  0  0  0  0  0  0  0  0  0  0  0
   -9.4970   19.2380  -32.7060 C   0  0  0  0  0  0  0  0  0  0  0  0
   -8.1770   18.9210  -32.7150 N   0  0  0  0  0  0  0  0  0  0  0  0
   -7.2160   19.8090  -32.3390 C   0  0  0  0  0  0  0  0  0  0  0  0
   -5.8650   19.4920  -32.3630 N   0  0  0  0  0  0  0  0  0  0  0  0
   -5.3190   18.1980  -32.9040 C   0  0  0  0  0  0  0  0  0  0  0  0
   -5.7740   17.9110  -34.3520 C   0  0  0  0  0  0  0  0  0  0  0  0
   -5.8900   16.3970  -34.5120 C   0  0  0  0  0  0  0  0  0  0  0  0
   -5.5280   15.7950  -33.1680 C   0  0  0  0  0  0  0  0  0  0  0  0
   -5.7270   16.9140  -32.1680 C   0  0  0  0  0  0  0  0  0  0  0  0
   -4.9870   20.3730  -31.7520 C   0  0  0  0  0  0  0  0  0  0  0  0
   -3.7730   20.0630  -31.5970 O   0  0  0  0  0  0  0  0  0  0  0  0
   -4.8640   23.9850  -30.6700 C   0  0  0  0  0  0  0  0  0  0  0  0
   -4.0170   24.9340  -30.0930 C   0  0  0  0  0  0  0  0  0  0  0  0
   -2.2358   25.5699  -26.9013 H   0  0  0  0  0  0  0  0  0  0  0  0
   -0.9209   24.5087  -27.5108 H   0  0  0  0  0  0  0  0  0  0  0  0
   -0.7084   26.2924  -27.5108 H   0  0  0  0  0  0  0  0  0  0  0  0
   -1.4911   22.8694  -29.0723 H   0  0  0  0  0  0  0  0  0  0  0  0
   -3.0036   21.1747  -30.0964 H   0  0  0  0  0  0  0  0  0  0  0  0
   -9.3289   22.3943  -31.5838 H   0  0  0  0  0  0  0  0  0  0  0  0
  -10.2426   18.4936  -33.0220 H   0  0  0  0  0  0  0  0  0  0  0  0
   -4.2416   18.3876  -32.7890 H   0  0  0  0  0  0  0  0  0  0  0  0
   -6.7499   18.3831  -34.5383 H   0  0  0  0  0  0  0  0  0  0  0  0
   -5.0489   18.3195  -35.0713 H   0  0  0  0  0  0  0  0  0  0  0  0
   -6.9186   16.1213  -34.7876 H   0  0  0  0  0  0  0  0  0  0  0  0
   -5.2245   16.0280  -35.3063 H   0  0  0  0  0  0  0  0  0  0  0  0
   -6.1881   14.9466  -32.9345 H   0  0  0  0  0  0  0  0  0  0  0  0
   -4.4985   15.4079  -33.1537 H   0  0  0  0  0  0  0  0  0  0  0  0
   -6.7804   16.9679  -31.8557 H   0  0  0  0  0  0  0  0  0  0  0  0
   -5.1306   16.7584  -31.2569 H   0  0  0  0  0  0  0  0  0  0  0  0
   -5.8218   24.3030  -31.1076 H   0  0  0  0  0  0  0  0  0  0  0  0
   -4.3088   25.9946  -30.0899 H   0  0  0  0  0  0  0  0  0  0  0  0
  1  2  1  0
  2  3  1  0
  3  4  2  0
  4  5  1  0
  5  6  2  0
  6  7  1  0
  7  8  2  0
  8  9  1  0
  9 10  2  0
 10 11  1  0
 11 12  2  0
 12 13  1  0
 13 14  2  0
 14 15  1  0
 15 16  1  0
 16 17  1  0
 17 18  1  0
 18 19  1  0
 19 20  1  0
 15 21  1  0
 21 22  2  0
  6 23  1  0
 23 24  2  0
 24  3  1  0
 21  7  1  0
 14  9  1  0
 20 16  1  0
  1 25  1  0
  1 26  1  0
  1 27  1  0
  4 28  1  0
  5 29  1  0
 10 30  1  0
 12 31  1  0
 16 32  1  0
 17 33  1  0
 17 34  1  0
 18 35  1  0
 18 36  1  0
 19 37  1  0
 19 38  1  0
 20 39  1  0
 20 40  1  0
 23 41  1  0
 24 42  1  0
M  END
>  <UniqueID>  (1) 
1

>  <SMILES>  (1) 
COc1ccc(-c2nc3cncnc3n(C3CCCC3)c2=O)cc1

>  <Energy>  (1) 
73.03178249254572

>  <Genealogy>  (1) 
COc1ccc(-c2nc3cncnc3n(C3CCCC3)c2=O)cc1 (3D coordinates assigned)
COc1ccc(-c2nc3cncnc3n(C3CCCC3)c2=O)cc1 (nonaromatic ring conformer: 73.03178249254572 kcal/mol)

>  <smiles>  (1) 
COc1ccc(-c2nc3cncnc3n(C3CCCC3)c2=O)cc1

>  <score_type>  (1) 
oracle

>  <origin>  (1) 
adg

>  <m_score__min__energy>  (1) 
-8.1500000000000004

>  <m_primary>  (1) 
energy

$$$$
1:0
     RDKit          3D

 42 43  0  0  0  0  0  0  0  0999 V2000
   -0.3140   21.9970  -27.6020 C   0  0  0  0  0  0  0  0  0  0  0  0
   -0.4890   22.8290  -28.7440 O   0  0  0  0  0  0  0  0  0  0  0  0
   -1.6500   22.8840  -29.5330 C   0  0  0  0  0  0  0  0  0  0  0  0
   -2.1240   21.7340  -30.1940 C   0  0  0  0  0  0  0  0  0  0  0  0
   -3.2730   21.7860  -30.9920 C   0  0  0  0  0  0  0  0  0  0  0  0
   -3.7450   20.5580  -31.7270 C   0  0  0  0  0  0  0  0  0  0  0  0
   -4.5720   20.9120  -32.8920 N   0  0  0  0  0  0  0  0  0  0  0  0
   -5.4620   19.8230  -33.3330 C   0  0  0  0  0  0  0  0  0  0  0  0
   -6.8520   19.9610  -32.7830 C   0  0  0  0  0  0  0  0  0  0  0  0
   -7.8020   18.9600  -32.7190 C   0  0  0  0  0  0  0  0  0  0  0  0
   -8.9240   19.5450  -32.1710 C   0  0  0  0  0  0  0  0  0  0  0  0
   -8.5840   20.8650  -31.9440 C   0  0  0  0  0  0  0  0  0  0  0  0
   -9.4730   21.9030  -31.3460 C   0  0  0  0  0  0  0  0  0  0  0  0
   -7.3440   21.0840  -32.3140 O   0  0  0  0  0  0  0  0  0  0  0  0
   -3.9580   22.9950  -31.1350 C   0  0  0  0  0  0  0  0  0  0  0  0
   -3.5100   24.1540  -30.4790 C   0  0  0  0  0  0  0  0  0  0  0  0
   -4.1810   25.3810  -30.6000 O   0  0  0  0  0  0  0  0  0  0  0  0
   -5.5770   25.5650  -30.3790 C   0  0  0  0  0  0  0  0  0  0  0  0
   -2.3560   24.1060  -29.6750 C   0  0  0  0  0  0  0  0  0  0  0  0
   -1.9700   25.3090  -29.0530 O   0  0  0  0  0  0  0  0  0  0  0  0
   -1.5400   25.4680  -27.7060 C   0  0  0  0  0  0  0  0  0  0  0  0
   -0.4402   22.5968  -26.6886 H   0  0  0  0  0  0  0  0  0  0  0  0
   -1.0622   21.1908  -27.6175 H   0  0  0  0  0  0  0  0  0  0  0  0
    0.6956   21.5606  -27.6175 H   0  0  0  0  0  0  0  0  0  0  0  0
   -1.5840   20.7823  -30.0816 H   0  0  0  0  0  0  0  0  0  0  0  0
   -2.8691   19.9880  -32.0703 H   0  0  0  0  0  0  0  0  0  0  0  0
   -4.3574   19.9573  -31.0384 H   0  0  0  0  0  0  0  0  0  0  0  0
   -5.1590   21.7400  -32.6370 H   0  0  0  0  0  0  0  0  0  0  0  0
   -5.5144   19.8327  -34.4317 H   0  0  0  0  0  0  0  0  0  0  0  0
   -5.0454   18.8768  -32.9574 H   0  0  0  0  0  0  0  0  0  0  0  0
   -7.6872   17.9138  -33.0387 H   0  0  0  0  0  0  0  0  0  0  0  0
   -9.8890   19.0615  -31.9587 H   0  0  0  0  0  0  0  0  0  0  0  0
   -9.4211   21.8424  -30.2489 H   0  0  0  0  0  0  0  0  0  0  0  0
   -9.1446   22.9002  -31.6741 H   0  0  0  0  0  0  0  0  0  0  0  0
  -10.5089   21.7318  -31.6741 H   0  0  0  0  0  0  0  0  0  0  0  0
   -4.8569   23.0401  -31.7674 H   0  0  0  0  0  0  0  0  0  0  0  0
   -5.7767   25.5913  -29.2976 H   0  0  0  0  0  0  0  0  0  0  0  0
   -5.8985   26.5133  -30.8344 H   0  0  0  0  0  0  0  0  0  0  0  0
   -6.1332   24.7324  -30.8344 H   0  0  0  0  0  0  0  0  0  0  0  0
   -2.3500   25.1685  -27.0247 H   0  0  0  0  0  0  0  0  0  0  0  0
   -0.6573   24.8368  -27.5260 H   0  0  0  0  0  0  0  0  0  0  0  0
   -1.2803   26.5216  -27.5260 H   0  0  0  0  0  0  0  0  0  0  0  0
  1  2  1  0
  2  3  1  0
  3  4  2  0
  4  5  1  0
  5  6  1  0
  6  7  1  0
  7  8  1  0
  8  9  1  0
  9 10  2  0
 10 11  1  0
 11 12  2  0
 12 13  1  0
 12 14  1  0
  5 15  2  0
 15 16  1  0
 16 17  1  0
 17 18  1  0
 16 19  2  0
 19 20  1  0
 20 21  1  0
 19  3  1  0
 14  9  1  0
  1 22  1  0
  1 23  1  0
  1 24  1  0
  4 25  1  0
  6 26  1  0
  6 27  1  0
  7 28  1  0
  8 29  1  0
  8 30  1  0
 10 31  1  0
 11 32  1  0
 13 33  1  0
 13 34  1  0
 13 35  1  0
 15 36  1  0
 18 37  1  0
 18 38  1  0
 18 39  1  0
 21 40  1  0
 21 41  1  0
 21 42  1  0
M  END
>  <UniqueID>  (2) 
2

>  <SMILES>  (2) 
COc1cc(CNCc2ccc(C)o2)cc(OC)c1OC

>  <Energy>  (2) 
66.10234351732723

>  <Genealogy>  (2) 
COc1cc(CNCc2ccc(C)o2)cc(OC)c1OC (3D coordinates assigned)
COc1cc(CNCc2ccc(C)o2)cc(OC)c1OC (optimized conformer: 66.10234351732723 kcal/mol)

>  <smiles>  (2) 
COc1cc(CNCc2ccc(C)o2)cc(OC)c1OC

>  <score_type>  (2) 
oracle

>  <origin>  (2) 
adg

>  <m_score__min__energy>  (2) 
-6.8799999999999999

>  <m_primary>  (2) 
energy

$$$$
2:0
     RDKit          3D

 46 49  0  0  0  0  0  0  0  0999 V2000
    0.7100   18.6010  -34.6590 C   0  0  0  0  0  0  0  0  0  0  0  0
   -0.0850   19.5750  -33.8600 C   0  0  0  0  0  0  0  0  0  0  0  0
   -1.3850   19.8590  -34.1170 N   0  0  0  0  0  0  0  0  0  0  0  0
   -1.8910   20.7020  -33.1820 C   0  0  0  0  0  0  0  0  0  0  0  0
   -3.2000   21.1690  -33.1680 C   0  0  0  0  0  0  0  0  0  0  0  0
   -3.5910   22.0130  -32.1180 C   0  0  0  0  0  0  0  0  0  0  0  0
   -2.7120   22.3620  -31.1140 N   0  0  0  0  0  0  0  0  0  0  0  0
   -3.2050   23.2060  -30.0080 C   0  0  0  0  0  0  0  0  0  0  0  0
   -4.3070   24.1200  -30.4850 C   0  0  0  0  0  0  0  0  0  0  0  0
   -4.0150   25.2930  -30.8430 O   0  0  0  0  0  0  0  0  0  0  0  0
   -5.6630   23.6550  -30.6070 N   0  0  0  0  0  0  0  0  0  0  0  0
   -6.3650   23.9840  -31.8670 C   0  0  0  0  0  0  0  0  0  0  0  0
   -7.7830   23.4020  -31.9800 C   0  0  0  0  0  0  0  0  0  0  0  0
   -7.9090   22.2010  -31.1600 N   0  0  0  0  0  0  0  0  0  0  0  0
   -7.8110   20.8740  -31.7240 C   0  0  0  0  0  0  0  0  0  0  0  0
   -8.7890   19.9070  -31.4260 C   0  0  0  0  0  0  0  0  0  0  0  0
   -8.6950   18.6160  -31.9530 C   0  0  0  0  0  0  0  0  0  0  0  0
   -7.6330   18.2770  -32.7950 C   0  0  0  0  0  0  0  0  0  0  0  0
   -6.6630   19.2310  -33.1120 C   0  0  0  0  0  0  0  0  0  0  0  0
   -5.3570   18.8180  -34.2080 Cl  0  0  0  0  0  0  0  0  0  0  0  0
   -6.7430   20.5190  -32.5720 C   0  0  0  0  0  0  0  0  0  0  0  0
   -7.6710   22.4250  -29.7410 C   0  0  0  0  0  0  0  0  0  0  0  0
   -6.2020   22.7800  -29.5440 C   0  0  0  0  0  0  0  0  0  0  0  0
   -1.4050   21.9270  -31.1580 C   0  0  0  0  0  0  0  0  0  0  0  0
   -0.5660   22.2770  -30.2820 O   0  0  0  0  0  0  0  0  0  0  0  0
   -1.0120   21.0790  -32.1890 C   0  0  0  0  0  0  0  0  0  0  0  0
    0.4720   20.3360  -32.4530 S   0  0  0  0  0  0  0  0  0  0  0  0
    1.2574   17.9303  -33.9804 H   0  0  0  0  0  0  0  0  0  0  0  0
    0.0340   18.0088  -35.2933 H   0  0  0  0  0  0  0  0  0  0  0  0
    1.4256   19.1446  -35.2933 H   0  0  0  0  0  0  0  0  0  0  0  0
   -3.9099   20.8846  -33.9586 H   0  0  0  0  0  0  0  0  0  0  0  0
   -4.6188   22.4042  -32.0949 H   0  0  0  0  0  0  0  0  0  0  0  0
   -3.5930   22.5604  -29.2063 H   0  0  0  0  0  0  0  0  0  0  0  0
   -2.3728   23.8205  -29.6340 H   0  0  0  0  0  0  0  0  0  0  0  0
   -6.4364   25.0790  -31.9442 H   0  0  0  0  0  0  0  0  0  0  0  0
   -5.7767   23.5317  -32.6790 H   0  0  0  0  0  0  0  0  0  0  0  0
   -8.5107   24.1523  -31.6374 H   0  0  0  0  0  0  0  0  0  0  0  0
   -7.9768   23.1380  -33.0301 H   0  0  0  0  0  0  0  0  0  0  0  0
   -9.6344   20.1694  -30.7729 H   0  0  0  0  0  0  0  0  0  0  0  0
   -9.4592   17.8649  -31.7042 H   0  0  0  0  0  0  0  0  0  0  0  0
   -7.5607   17.2600  -33.2079 H   0  0  0  0  0  0  0  0  0  0  0  0
   -5.9663   21.2603  -32.8112 H   0  0  0  0  0  0  0  0  0  0  0  0
   -8.3030   23.2521  -29.3854 H   0  0  0  0  0  0  0  0  0  0  0  0
   -7.9178   21.5172  -29.1709 H   0  0  0  0  0  0  0  0  0  0  0  0
   -6.0943   23.2966  -28.5788 H   0  0  0  0  0  0  0  0  0  0  0  0
   -5.6327   21.8393  -29.5772 H   0  0  0  0  0  0  0  0  0  0  0  0
  1  2  1  0
  2  3  2  0
  3  4  1  0
  4  5  1  0
  5  6  2  0
  6  7  1  0
  7  8  1  0
  8  9  1  0
  9 10  2  0
  9 11  1  0
 11 12  1  0
 12 13  1  0
 13 14  1  0
 14 15  1  0
 15 16  2  0
 16 17  1  0
 17 18  2  0
 18 19  1  0
 19 20  1  0
 19 21  2  0
 14 22  1  0
 22 23  1  0
  7 24  1  0
 24 25  2  0
 24 26  1  0
 26 27  1  0
 27  2  1  0
 26  4  2  0
 23 11  1  0
 21 15  1  0
  1 28  1  0
  1 29  1  0
  1 30  1  0
  5 31  1  0
  6 32  1  0
  8 33  1  0
  8 34  1  0
 12 35  1  0
 12 36  1  0
 13 37  1  0
 13 38  1  0
 16 39  1  0
 17 40  1  0
 18 41  1  0
 21 42  1  0
 22 43  1  0
 22 44  1  0
 23 45  1  0
 23 46  1  0
M  END
>  <UniqueID>  (3) 
3

>  <SMILES>  (3) 
Cc1nc2ccn(CC(=O)N3CCN(c4cccc(Cl)c4)CC3)c(=O)c2s1

>  <Energy>  (3) 
90.77199336090354

>  <Genealogy>  (3) 
Cc1nc2ccn(CC(=O)N3CCN(c4cccc(Cl)c4)CC3)c(=O)c2s1 (3D coordinates assigned)
Cc1nc2ccn(CC(=O)N3CCN(c4cccc(Cl)c4)CC3)c(=O)c2s1 (nonaromatic ring conformer: 90.77199336090354 kcal/mol)

>  <smiles>  (3) 
Cc1nc2ccn(CC(=O)N3CCN(c4cccc(Cl)c4)CC3)c(=O)c2s1

>  <score_type>  (3) 
oracle

>  <origin>  (3) 
adg

>  <m_score__min__energy>  (3) 
-10.48

>  <m_primary>  (3) 
energy

$$$$
3:0
     RDKit          3D

 56 59  0  0  0  0  0  0  0  0999 V2000
   -6.5980   17.7910  -31.1830 C   0  0  0  0  0  0  0  0  0  0  0  0
   -7.9320   18.2890  -31.1820 O   0  0  0  0  0  0  0  0  0  0  0  0
   -8.2770   19.6300  -31.4030 C   0  0  0  0  0  0  0  0  0  0  0  0
   -9.4490   20.0060  -32.0880 C   0  0  0  0  0  0  0  0  0  0  0  0
   -9.7490   21.3560  -32.2810 C   0  0  0  0  0  0  0  0  0  0  0  0
   -8.8910   22.3430  -31.7910 C   0  0  0  0  0  0  0  0  0  0  0  0
   -7.7230   21.9850  -31.1000 C   0  0  0  0  0  0  0  0  0  0  0  0
   -6.8360   23.0560  -30.5290 C   0  0  0  0  0  0  0  0  0  0  0  0
   -5.4330   22.5830  -30.5130 N   0  0  0  0  0  0  0  0  0  0  0  0
   -4.5950   23.2340  -29.4660 C   0  0  1  0  0  0  0  0  0  0  0  0
   -3.6480   22.1930  -28.7950 C   0  0  0  0  0  0  0  0  0  0  0  0
   -2.2540   22.0760  -29.4350 C   0  0  0  0  0  0  0  0  0  0  0  0
   -1.2740   23.1360  -28.9090 C   0  0  0  0  0  0  0  0  0  0  0  0
   -1.9560   24.3750  -28.3140 C   0  0  0  0  0  0  0  0  0  0  0  0
   -2.7570   25.0670  -29.3120 N   0  0  0  0  0  0  0  0  0  0  0  0
   -3.9460   24.5450  -29.9220 C   0  0  0  0  0  0  0  0  0  0  0  0
   -4.5140   25.2560  -30.7910 O   0  0  0  0  0  0  0  0  0  0  0  0
   -4.7320   22.5260  -32.1310 S   0  0  0  0  0  0  0  0  0  0  0  0
   -5.4600   23.4700  -33.0470 O   0  0  0  0  0  0  0  0  0  0  0  0
   -3.2880   22.9430  -32.0930 O   0  0  0  0  0  0  0  0  0  0  0  0
   -4.8670   20.9000  -32.8350 C   0  0  0  0  0  0  0  0  0  0  0  0
   -6.0680   20.5410  -33.4720 C   0  0  0  0  0  0  0  0  0  0  0  0
   -6.2110   19.2980  -34.0860 C   0  0  0  0  0  0  0  0  0  0  0  0
   -5.1630   18.3800  -34.0670 C   0  0  0  0  0  0  0  0  0  0  0  0
   -3.9640   18.6960  -33.4160 C   0  0  0  0  0  0  0  0  0  0  0  0
   -2.9110   17.7700  -33.3840 C   0  0  0  0  0  0  0  0  0  0  0  0
   -1.7530   18.0700  -32.7400 N   0  0  0  0  0  0  0  0  0  0  0  0
   -1.5810   19.2600  -32.1080 C   0  0  0  0  0  0  0  0  0  0  0  0
   -2.5980   20.2150  -32.1130 C   0  0  0  0  0  0  0  0  0  0  0  0
   -3.8070   19.9540  -32.7800 C   0  0  0  0  0  0  0  0  0  0  0  0
   -7.4210   20.6260  -30.9160 C   0  0  0  0  0  0  0  0  0  0  0  0
   -6.2538   17.6625  -30.1462 H   0  0  0  0  0  0  0  0  0  0  0  0
   -6.5689   16.8215  -31.7018 H   0  0  0  0  0  0  0  0  0  0  0  0
   -5.9407   18.5043  -31.7018 H   0  0  0  0  0  0  0  0  0  0  0  0
  -10.1307   19.2330  -32.4724 H   0  0  0  0  0  0  0  0  0  0  0  0
  -10.6637   21.6429  -32.8205 H   0  0  0  0  0  0  0  0  0  0  0  0
   -9.1315   23.4050  -31.9472 H   0  0  0  0  0  0  0  0  0  0  0  0
   -6.9099   23.9616  -31.1490 H   0  0  0  0  0  0  0  0  0  0  0  0
   -7.1557   23.2858  -29.5019 H   0  0  0  0  0  0  0  0  0  0  0  0
   -5.2574   23.5855  -28.6612 H   0  0  0  0  0  0  0  0  0  0  0  0
   -3.5168   22.4802  -27.7413 H   0  0  0  0  0  0  0  0  0  0  0  0
   -4.1288   21.2120  -28.9233 H   0  0  0  0  0  0  0  0  0  0  0  0
   -1.8468   21.0784  -29.2136 H   0  0  0  0  0  0  0  0  0  0  0  0
   -2.3688   22.2350  -30.5174 H   0  0  0  0  0  0  0  0  0  0  0  0
   -0.6519   22.6748  -28.1278 H   0  0  0  0  0  0  0  0  0  0  0  0
   -0.6842   23.4803  -29.7713 H   0  0  0  0  0  0  0  0  0  0  0  0
   -2.6080   24.0620  -27.4852 H   0  0  0  0  0  0  0  0  0  0  0  0
   -1.1758   25.0631  -27.9564 H   0  0  0  0  0  0  0  0  0  0  0  0
   -6.9073   21.2519  -33.4860 H   0  0  0  0  0  0  0  0  0  0  0  0
   -7.1554   19.0406  -34.5878 H   0  0  0  0  0  0  0  0  0  0  0  0
   -5.2776   17.4055  -34.5642 H   0  0  0  0  0  0  0  0  0  0  0  0
   -3.0233   16.7961  -33.8828 H   0  0  0  0  0  0  0  0  0  0  0  0
   -0.9800   17.3680  -32.7250 H   0  0  0  0  0  0  0  0  0  0  0  0
   -0.6344   19.4719  -31.5893 H   0  0  0  0  0  0  0  0  0  0  0  0
   -2.4532   21.1740  -31.5939 H   0  0  0  0  0  0  0  0  0  0  0  0
   -6.5019   20.3404  -30.3834 H   0  0  0  0  0  0  0  0  0  0  0  0
  1  2  1  0
  2  3  1  0
  3  4  2  0
  4  5  1  0
  5  6  2  0
  6  7  1  0
  7  8  1  0
  8  9  1  0
  9 10  1  0
 10 11  1  0
 11 12  1  0
 12 13  1  0
 13 14  1  0
 14 15  1  0
 15 16  1  0
 16 17  2  0
  9 18  1  0
 18 19  2  0
 18 20  2  0
 18 21  1  0
 21 22  2  0
 22 23  1  0
 23 24  2  0
 24 25  1  0
 25 26  2  0
 26 27  1  0
 27 28  2  0
 28 29  1  0
 29 30  2  0
  7 31  2  0
 31  3  1  0
 16 10  1  0
 30 21  1  0
 30 25  1  0
  1 32  1  0
  1 33  1  0
  1 34  1  0
  4 35  1  0
  5 36  1  0
  6 37  1  0
  8 38  1  0
  8 39  1  0
 10 40  1  1
 11 41  1  0
 11 42  1  0
 12 43  1  0
 12 44  1  0
 13 45  1  0
 13 46  1  0
 14 47  1  0
 14 48  1  0
 22 49  1  0
 23 50  1  0
 24 51  1  0
 26 52  1  0
 27 53  1  0
 28 54  1  0
 29 55  1  0
 31 56  1  0
M  CHG  2  15  -1  27   1
M  END
>  <UniqueID>  (4) 
4

>  <SMILES>  (4) 
COc1cccc(CN([C@H]2CCCC[N-]C2=O)S(=O)(=O)c2cccc3c[nH+]ccc23)c1

>  <Energy>  (4) 
75.9156765225907

>  <Genealogy>  (4) 
COc1cccc(CN(C2CCCC[N-]C2=O)S(=O)(=O)c2cccc3c[nH+]ccc23)c1 (protonated)
COc1cccc(CN([C@H]2CCCC[N-]C2=O)S(=O)(=O)c2cccc3c[nH+]ccc23)c1 (chirality)
COc1cccc(CN([C@H]2CCCC[N-]C2=O)S(=O)(=O)c2cccc3c[nH+]ccc23)c1 (3D coordinates assigned)
COc1cccc(CN([C@H]2CCCC[N-]C2=O)S(=O)(=O)c2cccc3c[nH+]ccc23)c1 (nonaromatic ring conformer: 75.9156765225907 kcal/mol)

>  <smiles>  (4) 
COc1cccc(CN(C2CCCCNC2=O)S(=O)(=O)c2cccc3cnccc23)c1

>  <score_type>  (4) 
oracle

>  <origin>  (4) 
adg

>  <m_score__min__energy>  (4) 
-9.7899999999999991

>  <m_primary>  (4) 
energy

$$$$
4:0
     RDKit          3D

 30 31  0  0  0  0  0  0  0  0999 V2000
   -7.2625   23.9434  -31.6412 H   0  0  0  0  0  0  0  0  0  0  0  0
   -6.6800   23.0650  -31.9560 C   0  0  0  0  0  0  0  0  0  0  0  0
   -5.3630   23.2220  -32.1690 C   0  0  0  0  0  0  0  0  0  0  0  0
   -5.0316   23.5837  -33.1535 H   0  0  0  0  0  0  0  0  0  0  0  0
   -4.3330   22.9310  -31.1400 C   0  0  0  0  0  0  0  0  0  0  0  0
   -3.9380   21.6090  -30.8510 C   0  0  0  0  0  0  0  0  0  0  0  0
   -4.4095   20.7705  -31.3845 H   0  0  0  0  0  0  0  0  0  0  0  0
   -2.9540   21.3540  -29.8940 C   0  0  0  0  0  0  0  0  0  0  0  0
   -2.6598   20.3177  -29.6717 H   0  0  0  0  0  0  0  0  0  0  0  0
   -2.3440   22.4100  -29.2200 C   0  0  0  0  0  0  0  0  0  0  0  0
   -1.5727   22.2056  -28.4628 H   0  0  0  0  0  0  0  0  0  0  0  0
   -2.7100   23.7270  -29.5040 C   0  0  0  0  0  0  0  0  0  0  0  0
   -2.2198   24.5563  -28.9731 H   0  0  0  0  0  0  0  0  0  0  0  0
   -3.7030   24.0020  -30.4660 C   0  0  0  0  0  0  0  0  0  0  0  0
   -4.0910   25.3180  -30.7670 O   0  0  0  0  0  0  0  0  0  0  0  0
   -5.3710   25.8720  -30.4730 C   0  0  0  0  0  0  0  0  0  0  0  0
   -5.5040   25.9295  -29.3826 H   0  0  0  0  0  0  0  0  0  0  0  0
   -5.4417   26.8812  -30.9048 H   0  0  0  0  0  0  0  0  0  0  0  0
   -6.1552   25.2327  -30.9048 H   0  0  0  0  0  0  0  0  0  0  0  0
   -7.3940   21.7750  -32.1210 C   0  0  0  0  0  0  0  0  0  0  0  0
   -8.7730   21.7330  -31.8500 C   0  0  0  0  0  0  0  0  0  0  0  0
   -9.2916   22.6445  -31.5180 H   0  0  0  0  0  0  0  0  0  0  0  0
   -9.4910   20.5420  -31.9990 C   0  0  0  0  0  0  0  0  0  0  0  0
  -10.5677   20.5176  -31.7749 H   0  0  0  0  0  0  0  0  0  0  0  0
   -8.8420   19.3840  -32.4320 C   0  0  0  0  0  0  0  0  0  0  0  0
   -9.4063   18.4464  -32.5438 H   0  0  0  0  0  0  0  0  0  0  0  0
   -7.4770   19.4160  -32.7230 C   0  0  0  0  0  0  0  0  0  0  0  0
   -6.9689   18.5044  -33.0706 H   0  0  0  0  0  0  0  0  0  0  0  0
   -6.7540   20.6030  -32.5740 C   0  0  0  0  0  0  0  0  0  0  0  0
   -5.6801   20.6229  -32.8114 H   0  0  0  0  0  0  0  0  0  0  0  0
  1  2  1  0
  2  3  2  0
  3  4  1  0
  3  5  1  0
  5  6  2  0
  6  7  1  0
  6  8  1  0
  8  9  1  0
  8 10  2  0
 10 11  1  0
 10 12  1  0
 12 13  1  0
 12 14  2  0
 14 15  1  0
 15 16  1  0
 16 17  1  0
 16 18  1  0
 16 19  1  0
  2 20  1  0
 20 21  2  0
 21 22  1  0
 21 23  1  0
 23 24  1  0
 23 25  2  0
 25 26  1  0
 25 27  1  0
 27 28  1  0
 27 29  2  0
 29 30  1  0
 14  5  1  0
 29 20  1  0
M  END
>  <UniqueID>  (5) 
5

>  <SMILES>  (5) 
COc1ccccc1/C=C/c1ccccc1

>  <Energy>  (5) 
36.016058541240646

>  <Genealogy>  (5) 
COc1ccccc1/C=C/c1ccccc1 (cis-trans isomerization)
COc1ccccc1/C=C/c1ccccc1 (3D coordinates assigned)
COc1ccccc1/C=C/c1ccccc1 (optimized conformer: 36.016058541240646 kcal/mol)

>  <smiles>  (5) 
COc1ccccc1C=Cc1ccccc1

>  <score_type>  (5) 
oracle

>  <origin>  (5) 
adg

>  <m_score__min__energy>  (5) 
-7.0499999999999998

>  <m_primary>  (5) 
energy

$$$$
5:0
     RDKit          3D

 44 46  0  0  0  0  0  0  0  0999 V2000
   -7.6560   23.5030  -31.6780 C   0  0  0  0  0  0  0  0  0  0  0  0
   -6.3970   23.1980  -30.8530 C   0  0  0  0  0  0  0  0  0  0  0  0
   -5.2040   24.0110  -31.2030 N   0  0  0  0  0  0  0  0  0  0  0  0
   -5.3200   25.4430  -30.8390 C   0  0  0  0  0  0  0  0  0  0  0  0
   -6.1470   25.6490  -29.5690 C   0  0  0  0  0  0  0  0  0  0  0  0
   -3.9360   23.4340  -30.6960 C   0  0  0  0  0  0  0  0  0  0  0  0
   -3.3310   22.4120  -31.6840 C   0  0  0  0  0  0  0  0  0  0  0  0
   -4.2940   21.9350  -32.6850 N   0  0  0  0  0  0  0  0  0  0  0  0
   -4.4850   20.5520  -33.0500 C   0  0  0  0  0  0  0  0  0  0  0  0
   -3.4060   19.7430  -33.5320 C   0  0  0  0  0  0  0  0  0  0  0  0
   -1.6750   20.4520  -33.9480 Br  0  0  0  0  0  0  0  0  0  0  0  0
   -3.6050   18.3740  -33.8130 C   0  0  0  0  0  0  0  0  0  0  0  0
   -4.8720   17.8250  -33.6350 C   0  0  0  0  0  0  0  0  0  0  0  0
   -5.8980   18.6070  -33.2200 C   0  0  0  0  0  0  0  0  0  0  0  0
   -7.0640   17.9120  -33.1260 C   0  0  0  0  0  0  0  0  0  0  0  0
   -8.2330   18.5570  -32.7160 C   0  0  0  0  0  0  0  0  0  0  0  0
   -8.1680   19.9300  -32.4110 C   0  0  0  0  0  0  0  0  0  0  0  0
   -6.9470   20.6360  -32.5170 C   0  0  0  0  0  0  0  0  0  0  0  0
   -5.7740   19.9630  -32.9290 C   0  0  0  0  0  0  0  0  0  0  0  0
   -6.8540   16.4830  -33.5130 C   0  0  0  0  0  0  0  0  0  0  0  0
   -5.3410   16.4240  -33.8700 C   0  0  0  0  0  0  0  0  0  0  0  0
   -8.4980   23.7070  -31.0002 H   0  0  0  0  0  0  0  0  0  0  0  0
   -7.4744   24.3831  -32.3123 H   0  0  0  0  0  0  0  0  0  0  0  0
   -7.8973   22.6373  -32.3123 H   0  0  0  0  0  0  0  0  0  0  0  0
   -6.6322   23.3761  -29.7933 H   0  0  0  0  0  0  0  0  0  0  0  0
   -6.1318   22.1532  -31.0724 H   0  0  0  0  0  0  0  0  0  0  0  0
   -4.3113   25.8501  -30.6753 H   0  0  0  0  0  0  0  0  0  0  0  0
   -5.8309   25.9616  -31.6636 H   0  0  0  0  0  0  0  0  0  0  0  0
   -5.5096   25.4902  -28.6866 H   0  0  0  0  0  0  0  0  0  0  0  0
   -6.5460   26.6740  -29.5535 H   0  0  0  0  0  0  0  0  0  0  0  0
   -6.9802   24.9309  -29.5535 H   0  0  0  0  0  0  0  0  0  0  0  0
   -3.2128   24.2479  -30.5393 H   0  0  0  0  0  0  0  0  0  0  0  0
   -4.1535   22.9091  -29.7541 H   0  0  0  0  0  0  0  0  0  0  0  0
   -2.4892   22.8883  -32.2079 H   0  0  0  0  0  0  0  0  0  0  0  0
   -3.0111   21.5390  -31.0962 H   0  0  0  0  0  0  0  0  0  0  0  0
   -4.9800   22.6360  -33.0430 H   0  0  0  0  0  0  0  0  0  0  0  0
   -2.7712   17.7501  -34.1674 H   0  0  0  0  0  0  0  0  0  0  0  0
   -9.1813   18.0058  -32.6334 H   0  0  0  0  0  0  0  0  0  0  0  0
   -9.0763   20.4591  -32.0869 H   0  0  0  0  0  0  0  0  0  0  0  0
   -6.9101   21.7093  -32.2787 H   0  0  0  0  0  0  0  0  0  0  0  0
   -7.0870   15.8100  -32.6747 H   0  0  0  0  0  0  0  0  0  0  0  0
   -7.5032   16.1628  -34.3413 H   0  0  0  0  0  0  0  0  0  0  0  0
   -4.8100   15.7167  -33.2160 H   0  0  0  0  0  0  0  0  0  0  0  0
   -5.1564   16.0770  -34.8974 H   0  0  0  0  0  0  0  0  0  0  0  0
  1  2  1  0
  2  3  1  0
  3  4  1  0
  4  5  1  0
  3  6  1  0
  6  7  1  0
  7  8  1  0
  8  9  1  0
  9 10  2  0
 10 11  1  0
 10 12  1  0
 12 13  2  0
 13 14  1  0
 14 15  2  0
 15 16  1  0
 16 17  2  0
 17 18  1  0
 18 19  2  0
 15 20  1  0
 20 21  1  0
 19  9  1  0
 21 13  1  0
 19 14  1  0
  1 22  1  0
  1 23  1  0
  1 24  1  0
  2 25  1  0
  2 26  1  0
  4 27  1  0
  4 28  1  0
  5 29  1  0
  5 30  1  0
  5 31  1  0
  6 32  1  0
  6 33  1  0
  7 34  1  0
  7 35  1  0
  8 36  1  0
 12 37  1  0
 16 38  1  0
 17 39  1  0
 18 40  1  0
 20 41  1  0
 20 42  1  0
 21 43  1  0
 21 44  1  0
M  END
>  <UniqueID>  (6) 
6

>  <SMILES>  (6) 
CCN(CC)CCNc1c(Br)cc2c3c(cccc13)CC2

>  <Energy>  (6) 
74.5681342970725

>  <Genealogy>  (6) 
CCN(CC)CCNc1c(Br)cc2c3c(cccc13)CC2 (3D coordinates assigned)
CCN(CC)CCNc1c(Br)cc2c3c(cccc13)CC2 (nonaromatic ring conformer: 74.5681342970725 kcal/mol)

>  <smiles>  (6) 
CCN(CC)CCNc1c(Br)cc2c3c(cccc13)CC2

>  <score_type>  (6) 
oracle

>  <origin>  (6) 
adg

>  <m_score__min__energy>  (6) 
-9.0600000000000005

>  <m_primary>  (6) 
energy

$$$$
6:0
     RDKit          3D

 40 42  0  0  0  0  0  0  0  0999 V2000
   -6.8230   16.5410  -33.9520 C   0  0  0  0  0  0  0  0  0  0  0  0
   -6.6640   17.9130  -33.3650 C   0  0  0  0  0  0  0  0  0  0  0  0
   -5.4590   18.6080  -33.5180 C   0  0  0  0  0  0  0  0  0  0  0  0
   -5.2930   19.8640  -32.9320 C   0  0  0  0  0  0  0  0  0  0  0  0
   -6.3180   20.4410  -32.1670 C   0  0  0  0  0  0  0  0  0  0  0  0
   -6.0580   21.7590  -31.5470 C   0  0  0  0  0  0  0  0  0  0  0  0
   -4.8340   22.3060  -31.3810 N   0  0  0  0  0  0  0  0  0  0  0  0
   -5.0660   23.5050  -30.8140 C   0  0  0  0  0  0  0  0  0  0  0  0
   -4.0060   24.4660  -30.4620 C   0  0  0  0  0  0  0  0  0  0  0  0
   -4.2430   25.7020  -30.5390 O   0  0  0  0  0  0  0  0  0  0  0  0
   -2.7030   24.0000  -30.0900 N   0  0  0  0  0  0  0  0  0  0  0  0
   -2.3720   23.1600  -28.9740 C   0  0  0  0  0  0  0  0  0  0  0  0
   -2.6870   21.7900  -28.9530 C   0  0  0  0  0  0  0  0  0  0  0  0
   -2.3230   21.0070  -27.8560 C   0  0  0  0  0  0  0  0  0  0  0  0
   -1.6360   21.5940  -26.7930 C   0  0  0  0  0  0  0  0  0  0  0  0
   -1.3170   22.9140  -26.8370 N   0  0  0  0  0  0  0  0  0  0  0  0
   -1.6580   23.7010  -27.8920 C   0  0  0  0  0  0  0  0  0  0  0  0
   -1.2010   25.3970  -27.8710 Cl  0  0  0  0  0  0  0  0  0  0  0  0
   -6.4370   23.6450  -30.6620 C   0  0  0  0  0  0  0  0  0  0  0  0
   -7.1840   24.8030  -30.0860 C   0  0  0  0  0  0  0  0  0  0  0  0
   -7.0120   22.5600  -31.1250 O   0  0  0  0  0  0  0  0  0  0  0  0
   -7.5530   19.7550  -32.0330 C   0  0  0  0  0  0  0  0  0  0  0  0
   -8.7270   20.3420  -31.2920 C   0  0  0  0  0  0  0  0  0  0  0  0
   -7.6980   18.4820  -32.6100 C   0  0  0  0  0  0  0  0  0  0  0  0
   -6.9085   15.8028  -33.1409 H   0  0  0  0  0  0  0  0  0  0  0  0
   -7.7307   16.5107  -34.5727 H   0  0  0  0  0  0  0  0  0  0  0  0
   -5.9463   16.3039  -34.5727 H   0  0  0  0  0  0  0  0  0  0  0  0
   -4.6399   18.1630  -34.1020 H   0  0  0  0  0  0  0  0  0  0  0  0
   -4.3472   20.4080  -33.0716 H   0  0  0  0  0  0  0  0  0  0  0  0
   -3.9120   21.9140  -31.6720 H   0  0  0  0  0  0  0  0  0  0  0  0
   -3.2202   21.3351  -29.8008 H   0  0  0  0  0  0  0  0  0  0  0  0
   -2.5756   19.9367  -27.8300 H   0  0  0  0  0  0  0  0  0  0  0  0
   -1.3527   20.9883  -25.9195 H   0  0  0  0  0  0  0  0  0  0  0  0
   -7.1506   24.7512  -28.9877 H   0  0  0  0  0  0  0  0  0  0  0  0
   -6.7211   25.7422  -30.4230 H   0  0  0  0  0  0  0  0  0  0  0  0
   -8.2305   24.7685  -30.4230 H   0  0  0  0  0  0  0  0  0  0  0  0
   -8.5566   20.2568  -30.2086 H   0  0  0  0  0  0  0  0  0  0  0  0
   -8.8389   21.4021  -31.5633 H   0  0  0  0  0  0  0  0  0  0  0  0
   -9.6423   19.7955  -31.5633 H   0  0  0  0  0  0  0  0  0  0  0  0
   -8.6356   17.9249  -32.4670 H   0  0  0  0  0  0  0  0  0  0  0  0
  1  2  1  0
  2  3  2  0
  3  4  1  0
  4  5  2  0
  5  6  1  0
  6  7  2  0
  7  8  1  0
  8  9  1  0
  9 10  2  0
  9 11  1  0
 11 12  1  0
 12 13  2  0
 13 14  1  0
 14 15  2  0
 15 16  1  0
 16 17  2  0
 17 18  1  0
  8 19  2  0
 19 20  1  0
 19 21  1  0
  5 22  1  0
 22 23  1  0
 22 24  2  0
 24  2  1  0
 21  6  1  0
 17 12  1  0
  1 25  1  0
  1 26  1  0
  1 27  1  0
  3 28  1  0
  4 29  1  0
  7 30  1  0
 13 31  1  0
 14 32  1  0
 15 33  1  0
 20 34  1  0
 20 35  1  0
 20 36  1  0
 23 37  1  0
 23 38  1  0
 23 39  1  0
 24 40  1  0
M  CHG  2   7   1  11  -1
M  END
>  <UniqueID>  (7) 
7

>  <SMILES>  (7) 
Cc1ccc(-c2[nH+]c(C(=O)[N-]c3cccnc3Cl)c(C)o2)c(C)c1

>  <Energy>  (7) 
81.00559600584282

>  <Genealogy>  (7) 
Cc1ccc(-c2[nH+]c(C(=O)[N-]c3cccnc3Cl)c(C)o2)c(C)c1 (protonated)
Cc1ccc(-c2[nH+]c(C(=O)[N-]c3cccnc3Cl)c(C)o2)c(C)c1 (3D coordinates assigned)
Cc1ccc(-c2[nH+]c(C(=O)[N-]c3cccnc3Cl)c(C)o2)c(C)c1 (optimized conformer: 81.00559600584282 kcal/mol)

>  <smiles>  (7) 
Cc1ccc(-c2nc(C(=O)Nc3cccnc3Cl)c(C)o2)c(C)c1

>  <score_type>  (7) 
oracle

>  <origin>  (7) 
adg

>  <m_score__min__energy>  (7) 
-8.6999999999999993

>  <m_primary>  (7) 
energy

$$$$
7:0
     RDKit          3D

 22 22  0  0  0  0  0  0  0  0999 V2000
   -3.0270   23.0360  -28.9800 C   0  0  0  0  0  0  0  0  0  0  0  0
   -2.8010   24.5200  -29.2430 C   0  0  0  0  0  0  0  0  0  0  0  0
   -3.4790   24.9240  -30.4770 N   0  0  0  0  0  0  0  0  0  0  0  0
   -5.2040   24.9890  -30.2610 S   0  0  0  0  0  0  0  0  0  0  0  0
   -5.7320   26.2880  -30.8030 O   0  0  0  0  0  0  0  0  0  0  0  0
   -5.5190   24.9230  -28.7940 O   0  0  0  0  0  0  0  0  0  0  0  0
   -5.9800   23.6320  -31.0750 C   0  0  0  0  0  0  0  0  0  0  0  0
   -7.3690   23.4670  -30.9870 C   0  0  0  0  0  0  0  0  0  0  0  0
   -7.9880   22.3790  -31.6110 C   0  0  0  0  0  0  0  0  0  0  0  0
   -7.2220   21.4510  -32.3210 C   0  0  0  0  0  0  0  0  0  0  0  0
   -5.8360   21.6080  -32.4080 C   0  0  0  0  0  0  0  0  0  0  0  0
   -5.2140   22.6950  -31.7870 C   0  0  0  0  0  0  0  0  0  0  0  0
   -3.0544   22.8559  -27.8952 H   0  0  0  0  0  0  0  0  0  0  0  0
   -3.9828   22.7257  -29.4275 H   0  0  0  0  0  0  0  0  0  0  0  0
   -2.2069   22.4553  -29.4275 H   0  0  0  0  0  0  0  0  0  0  0  0
   -3.2013   25.1034  -28.4007 H   0  0  0  0  0  0  0  0  0  0  0  0
   -1.7220   24.7055  -29.3491 H   0  0  0  0  0  0  0  0  0  0  0  0
   -7.9737   24.1947  -30.4260 H   0  0  0  0  0  0  0  0  0  0  0  0
   -9.0787   22.2539  -31.5427 H   0  0  0  0  0  0  0  0  0  0  0  0
   -7.7102   20.5962  -32.8119 H   0  0  0  0  0  0  0  0  0  0  0  0
   -5.2340   20.8755  -32.9657 H   0  0  0  0  0  0  0  0  0  0  0  0
   -4.1229   22.8165  -31.8562 H   0  0  0  0  0  0  0  0  0  0  0  0
  1  2  1  0
  2  3  1  0
  3  4  1  0
  4  5  2  0
  4  6  2  0
  4  7  1  0
  7  8  2  0
  8  9  1  0
  9 10  2  0
 10 11  1  0
 11 12  2  0
 12  7  1  0
  1 13  1  0
  1 14  1  0
  1 15  1  0
  2 16  1  0
  2 17  1  0
  8 18  1  0
  9 19  1  0
 10 20  1  0
 11 21  1  0
 12 22  1  0
M  CHG  1   3  -1
M  END
>  <UniqueID>  (8) 
8

>  <SMILES>  (8) 
CC[N-]S(=O)(=O)c1ccccc1

>  <Energy>  (8) 
16.998676523836213

>  <Genealogy>  (8) 
CC[N-]S(=O)(=O)c1ccccc1 (protonated)
CC[N-]S(=O)(=O)c1ccccc1 (3D coordinates assigned)
CC[N-]S(=O)(=O)c1ccccc1 (optimized conformer: 16.998676523836213 kcal/mol)

>  <smiles>  (8) 
CCNS(=O)(=O)c1ccccc1

>  <score_type>  (8) 
oracle

>  <origin>  (8) 
adg

>  <m_score__min__energy>  (8) 
-6.6600000000000001

>  <m_primary>  (8) 
energy

$$$$
8:0
     RDKit          3D

 34 35  0  0  0  0  0  0  0  0999 V2000
   -8.4880   23.0540  -31.9760 C   0  0  0  0  0  0  0  0  0  0  0  0
   -7.7480   22.6680  -30.6970 C   0  0  0  0  0  0  0  0  0  0  0  0
   -6.3380   23.0820  -30.7610 N   0  0  0  0  0  0  0  0  0  0  0  0
   -5.8220   24.0300  -29.7630 C   0  0  0  0  0  0  0  0  0  0  0  0
   -5.3080   25.3000  -30.4470 C   0  0  0  0  0  0  0  0  0  0  0  0
   -3.8930   25.2900  -30.4980 O   0  0  0  0  0  0  0  0  0  0  0  0
   -3.3710   24.4220  -29.5160 C   0  0  0  0  0  0  0  0  0  0  0  0
   -5.4140   22.4400  -31.6670 C   0  0  0  0  0  0  0  0  0  0  0  0
   -4.3590   23.0400  -32.0070 O   0  0  0  0  0  0  0  0  0  0  0  0
   -5.6770   21.1080  -32.2410 C   0  0  0  0  0  0  0  0  0  0  0  0
   -5.1730   20.6820  -33.4320 N   0  0  0  0  0  0  0  0  0  0  0  0
   -5.6660   19.4360  -33.5030 C   0  0  0  0  0  0  0  0  0  0  0  0
   -5.4750   18.5410  -34.5040 N   0  0  0  0  0  0  0  0  0  0  0  0
   -6.0580   17.3060  -34.4040 C   0  0  0  0  0  0  0  0  0  0  0  0
   -6.8450   16.9740  -33.2750 C   0  0  0  0  0  0  0  0  0  0  0  0
   -7.0290   17.9180  -32.2480 C   0  0  0  0  0  0  0  0  0  0  0  0
   -6.4120   19.1520  -32.4080 C   0  0  0  0  0  0  0  0  0  0  0  0
   -6.4150   20.1950  -31.6240 O   0  0  0  0  0  0  0  0  0  0  0  0
   -9.4357   23.5484  -31.7163 H   0  0  0  0  0  0  0  0  0  0  0  0
   -7.8653   23.7422  -32.5665 H   0  0  0  0  0  0  0  0  0  0  0  0
   -8.6960   22.1495  -32.5665 H   0  0  0  0  0  0  0  0  0  0  0  0
   -8.2295   23.1610  -29.8396 H   0  0  0  0  0  0  0  0  0  0  0  0
   -7.7884   21.5746  -30.5840 H   0  0  0  0  0  0  0  0  0  0  0  0
   -6.6293   24.2960  -29.0648 H   0  0  0  0  0  0  0  0  0  0  0  0
   -4.9912   23.5573  -29.2187 H   0  0  0  0  0  0  0  0  0  0  0  0
   -5.7081   25.3487  -31.4705 H   0  0  0  0  0  0  0  0  0  0  0  0
   -5.6400   26.1768  -29.8717 H   0  0  0  0  0  0  0  0  0  0  0  0
   -3.6074   24.8150  -28.5162 H   0  0  0  0  0  0  0  0  0  0  0  0
   -3.8190   23.4242  -29.6331 H   0  0  0  0  0  0  0  0  0  0  0  0
   -2.2796   24.3500  -29.6331 H   0  0  0  0  0  0  0  0  0  0  0  0
   -4.8940   18.7870  -35.3370 H   0  0  0  0  0  0  0  0  0  0  0  0
   -5.9139   16.5671  -35.2061 H   0  0  0  0  0  0  0  0  0  0  0  0
   -7.3115   15.9806  -33.2009 H   0  0  0  0  0  0  0  0  0  0  0  0
   -7.6342   17.6890  -31.3585 H   0  0  0  0  0  0  0  0  0  0  0  0
  1  2  1  0
  2  3  1  0
  3  4  1  0
  4  5  1  0
  5  6  1  0
  6  7  1  0
  3  8  1  0
  8  9  2  0
  8 10  1  0
 10 11  2  0
 11 12  1  0
 12 13  2  0
 13 14  1  0
 14 15  2  0
 15 16  1  0
 16 17  2  0
 17 18  1  0
 18 10  1  0
 17 12  1  0
  1 19  1  0
  1 20  1  0
  1 21  1  0
  2 22  1  0
  2 23  1  0
  4 24  1  0
  4 25  1  0
  5 26  1  0
  5 27  1  0
  7 28  1  0
  7 29  1  0
  7 30  1  0
 13 31  1  0
 14 32  1  0
 15 33  1  0
 16 34  1  0
M  CHG  1  13   1
M  END
>  <UniqueID>  (9) 
9

>  <SMILES>  (9) 
CCN(CCOC)C(=O)c1nc2[nH+]cccc2o1

>  <Energy>  (9) 
70.67751953604646

>  <Genealogy>  (9) 
CCN(CCOC)C(=O)c1nc2[nH+]cccc2o1 (protonated)
CCN(CCOC)C(=O)c1nc2[nH+]cccc2o1 (3D coordinates assigned)
CCN(CCOC)C(=O)c1nc2[nH+]cccc2o1 (optimized conformer: 70.67751953604646 kcal/mol)

>  <smiles>  (9) 
CCN(CCOC)C(=O)c1nc2ncccc2o1

>  <score_type>  (9) 
oracle

>  <origin>  (9) 
adg

>  <m_score__min__energy>  (9) 
-6.0300000000000002

>  <m_primary>  (9) 
energy

$$$$
9:0
     RDKit          3D

 43 45  0  0  0  0  0  0  0  0999 V2000
   -0.8820   24.1530  -29.2000 C   0  0  0  0  0  0  0  0  0  0  0  0
   -1.9350   24.4980  -28.2470 C   0  0  0  0  0  0  0  0  0  0  0  0
   -3.2440   24.1210  -28.5140 C   0  0  0  0  0  0  0  0  0  0  0  0
   -3.6720   23.4000  -29.7110 C   0  0  0  0  0  0  0  0  0  0  0  0
   -4.0140   24.1300  -30.8480 N   0  0  0  0  0  0  0  0  0  0  0  0
   -5.3490   23.8600  -31.3320 C   0  0  0  0  0  0  0  0  0  0  0  0
   -5.4460   22.7630  -32.3350 C   0  0  0  0  0  0  0  0  0  0  0  0
   -6.7590   22.0330  -32.2200 C   0  0  0  0  0  0  0  0  0  0  0  0
   -7.8440   22.6660  -31.6140 C   0  0  0  0  0  0  0  0  0  0  0  0
   -9.0160   21.9480  -31.5400 C   0  0  0  0  0  0  0  0  0  0  0  0
   -9.1160   20.6780  -32.0320 C   0  0  0  0  0  0  0  0  0  0  0  0
   -8.0510   20.0410  -32.6340 C   0  0  0  0  0  0  0  0  0  0  0  0
   -6.8690   20.7480  -32.7170 C   0  0  0  0  0  0  0  0  0  0  0  0
   -5.8180   20.1220  -33.3080 F   0  0  0  0  0  0  0  0  0  0  0  0
   -4.1910   24.4810  -27.5460 C   0  0  0  0  0  0  0  0  0  0  0  0
   -3.8450   25.1520  -26.4330 N   0  0  0  0  0  0  0  0  0  0  0  0
   -2.5980   25.5180  -26.1690 C   0  0  0  0  0  0  0  0  0  0  0  0
   -2.3030   26.1930  -25.0350 N   0  0  0  0  0  0  0  0  0  0  0  0
   -1.0310   26.5560  -24.7880 C   0  0  0  0  0  0  0  0  0  0  0  0
   -0.7420   27.2090  -23.6910 N   0  0  0  0  0  0  0  0  0  0  0  0
   -0.0460   26.2550  -25.6600 N   0  0  0  0  0  0  0  0  0  0  0  0
   -0.3230   25.5850  -26.7900 C   0  0  0  0  0  0  0  0  0  0  0  0
    0.6320   25.3240  -27.5840 N   0  0  0  0  0  0  0  0  0  0  0  0
   -1.6060   25.1850  -27.0990 C   0  0  0  0  0  0  0  0  0  0  0  0
    0.0248   23.8559  -28.6528 H   0  0  0  0  0  0  0  0  0  0  0  0
   -1.2188   23.3182  -29.8322 H   0  0  0  0  0  0  0  0  0  0  0  0
   -0.6595   25.0252  -29.8322 H   0  0  0  0  0  0  0  0  0  0  0  0
   -2.8495   22.7267  -29.9943 H   0  0  0  0  0  0  0  0  0  0  0  0
   -4.6147   22.9198  -29.4096 H   0  0  0  0  0  0  0  0  0  0  0  0
   -3.3040   24.2700  -31.5910 H   0  0  0  0  0  0  0  0  0  0  0  0
   -5.9764   23.5902  -30.4697 H   0  0  0  0  0  0  0  0  0  0  0  0
   -5.6806   24.7750  -31.8447 H   0  0  0  0  0  0  0  0  0  0  0  0
   -5.3611   23.1915  -33.3445 H   0  0  0  0  0  0  0  0  0  0  0  0
   -4.6322   22.0470  -32.1474 H   0  0  0  0  0  0  0  0  0  0  0  0
   -7.7670   23.6882  -31.2150 H   0  0  0  0  0  0  0  0  0  0  0  0
   -9.8972   22.4103  -31.0712 H   0  0  0  0  0  0  0  0  0  0  0  0
  -10.0753   20.1468  -31.9455 H   0  0  0  0  0  0  0  0  0  0  0  0
   -8.1397   19.0182  -33.0291 H   0  0  0  0  0  0  0  0  0  0  0  0
   -5.2452   24.2076  -27.7005 H   0  0  0  0  0  0  0  0  0  0  0  0
   -3.0870   26.4230  -24.3590 H   0  0  0  0  0  0  0  0  0  0  0  0
   -1.5940   27.5750  -23.1790 H   0  0  0  0  0  0  0  0  0  0  0  0
    0.9190   26.5590  -25.4200 H   0  0  0  0  0  0  0  0  0  0  0  0
    1.2400   24.4910  -27.3750 H   0  0  0  0  0  0  0  0  0  0  0  0
  1  2  1  0
  2  3  2  0
  3  4  1  0
  4  5  1  0
  5  6  1  0
  6  7  1  0
  7  8  1  0
  8  9  2  0
  9 10  1  0
 10 11  2  0
 11 12  1  0
 12 13  2  0
 13 14  1  0
  3 15  1  0
 15 16  2  0
 16 17  1  0
 17 18  1  0
 18 19  1  0
 19 20  2  3
 19 21  1  0
 21 22  1  0
 22 23  2  3
 22 24  1  0
 24  2  1  0
 13  8  1  0
 24 17  2  0
  1 25  1  0
  1 26  1  0
  1 27  1  0
  4 28  1  0
  4 29  1  0
  5 30  1  0
  6 31  1  0
  6 32  1  0
  7 33  1  0
  7 34  1  0
  9 35  1  0
 10 36  1  0
 11 37  1  0
 12 38  1  0
 15 39  1  0
 18 40  1  0
 20 41  1  0
 21 42  1  0
 23 43  1  0
M  END
>  <smiles>  (10) 
Cc1c(CNCCc2ccccc2F)cnc2[nH]c(=N)[nH]c(=N)c12

>  <score_type>  (10) 
oracle

>  <origin>  (10) 
adg

>  <m_score__min__energy>  (10) 
-8.1400000000000006

>  <m_primary>  (10) 
energy

$$$$
10:0
     RDKit          3D

 43 45  0  0  0  0  0  0  0  0999 V2000
    0.2917   20.0873  -28.8838 H   0  0  0  0  0  0  0  0  0  0  0  0
   -0.6440   20.6360  -28.7010 C   0  0  0  0  0  0  0  0  0  0  0  0
   -0.9370   21.7840  -29.4450 C   0  0  0  0  0  0  0  0  0  0  0  0
   -0.2368   22.1253  -30.2217 H   0  0  0  0  0  0  0  0  0  0  0  0
   -2.1170   22.5020  -29.2070 C   0  0  0  0  0  0  0  0  0  0  0  0
   -2.3950   23.6540  -30.0200 N   0  0  0  0  0  0  0  0  0  0  0  0
   -3.5610   24.0420  -30.4450 C   0  0  0  0  0  0  0  0  0  0  0  0
   -3.8700   25.3020  -30.8100 N   0  0  0  0  0  0  0  0  0  0  0  0
   -5.1370   25.2690  -31.1930 N   0  0  0  0  0  0  0  0  0  0  0  0
   -5.5430   23.9920  -31.0490 C   0  0  0  0  0  0  0  0  0  0  0  0
   -6.9260   23.5090  -31.3500 C   0  0  0  0  0  0  0  0  0  0  0  0
   -7.5923   24.3747  -31.4790 H   0  0  0  0  0  0  0  0  0  0  0  0
   -7.2758   22.8844  -30.5148 H   0  0  0  0  0  0  0  0  0  0  0  0
   -6.9310   22.7100  -32.5750 N   0  0  0  0  0  0  0  0  0  0  0  0
   -6.6780   23.2100  -33.4560 H   0  0  0  0  0  0  0  0  0  0  0  0
   -7.1980   21.2910  -32.6160 C   0  0  0  0  0  0  0  0  0  0  0  0
   -6.3240   20.4080  -33.2820 C   0  0  0  0  0  0  0  0  0  0  0  0
   -5.4100   20.8015  -33.7507 H   0  0  0  0  0  0  0  0  0  0  0  0
   -6.6020   19.0360  -33.3560 C   0  0  0  0  0  0  0  0  0  0  0  0
   -5.6750   18.1310  -34.0680 C   0  0  0  0  0  0  0  0  0  0  0  0
   -5.5900   18.2180  -35.3230 O   0  0  0  0  0  0  0  0  0  0  0  0
   -4.8880   17.1470  -33.3670 N   0  0  0  0  0  0  0  0  0  0  0  0
   -3.6860   16.6090  -34.0090 C   0  0  0  0  0  0  0  0  0  0  0  0
   -2.9704   16.2887  -33.2375 H   0  0  0  0  0  0  0  0  0  0  0  0
   -3.9595   15.7474  -34.6358 H   0  0  0  0  0  0  0  0  0  0  0  0
   -3.2257   17.3870  -34.6358 H   0  0  0  0  0  0  0  0  0  0  0  0
   -5.3670   16.5760  -32.1030 C   0  0  0  0  0  0  0  0  0  0  0  0
   -4.9125   17.1177  -31.2604 H   0  0  0  0  0  0  0  0  0  0  0  0
   -6.4619   16.6683  -32.0505 H   0  0  0  0  0  0  0  0  0  0  0  0
   -5.0857   15.5139  -32.0505 H   0  0  0  0  0  0  0  0  0  0  0  0
   -7.7410   18.5290  -32.7180 C   0  0  0  0  0  0  0  0  0  0  0  0
   -7.9535   17.4502  -32.7517 H   0  0  0  0  0  0  0  0  0  0  0  0
   -8.6070   19.3870  -32.0400 C   0  0  0  0  0  0  0  0  0  0  0  0
   -9.5000   18.9805  -31.5427 H   0  0  0  0  0  0  0  0  0  0  0  0
   -8.3480   20.7610  -31.9880 C   0  0  0  0  0  0  0  0  0  0  0  0
   -9.5020   21.7880  -31.1450 Cl  0  0  0  0  0  0  0  0  0  0  0  0
   -4.5770   23.2280  -30.5960 O   0  0  0  0  0  0  0  0  0  0  0  0
   -3.0280   22.0240  -28.2440 C   0  0  0  0  0  0  0  0  0  0  0  0
   -3.9757   22.5562  -28.0746 H   0  0  0  0  0  0  0  0  0  0  0  0
   -2.7320   20.8760  -27.5030 C   0  0  0  0  0  0  0  0  0  0  0  0
   -3.4406   20.5158  -26.7427 H   0  0  0  0  0  0  0  0  0  0  0  0
   -1.5380   20.1850  -27.7260 C   0  0  0  0  0  0  0  0  0  0  0  0
   -1.2550   19.0710  -27.0090 F   0  0  0  0  0  0  0  0  0  0  0  0
  1  2  1  0
  2  3  2  0
  3  4  1  0
  3  5  1  0
  5  6  1  0
  6  7  2  0
  7  8  1  0
  8  9  1  0
  9 10  2  0
 10 11  1  0
 11 12  1  0
 11 13  1  0
 11 14  1  0
 14 15  1  0
 14 16  1  0
 16 17  2  0
 17 18  1  0
 17 19  1  0
 19 20  1  0
 20 21  2  0
 20 22  1  0
 22 23  1  0
 23 24  1  0
 23 25  1  0
 23 26  1  0
 22 27  1  0
 27 28  1  0
 27 29  1  0
 27 30  1  0
 19 31  2  0
 31 32  1  0
 31 33  1  0
 33 34  1  0
 33 35  2  0
 35 36  1  0
 10 37  1  0
  5 38  2  0
 38 39  1  0
 38 40  1  0
 40 41  1  0
 40 42  2  0
 42 43  1  0
 42  2  1  0
 37  7  1  0
 35 16  1  0
M  CHG  1   8  -1
M  END
>  <UniqueID>  (11) 
10

>  <SMILES>  (11) 
CN(C)C(=O)c1ccc(Cl)c(NCc2n[n-]/c(=N\c3ccc(F)cc3)o2)c1

>  <Energy>  (11) 
89.40904574814836

>  <Genealogy>  (11) 
CN(C)C(=O)c1ccc(Cl)c(NCc2n[n-]c(=Nc3ccc(F)cc3)o2)c1 (protonated)
CN(C)C(=O)c1ccc(Cl)c(NCc2n[n-]/c(=N\c3ccc(F)cc3)o2)c1 (cis-trans isomerization)
CN(C)C(=O)c1ccc(Cl)c(NCc2n[n-]/c(=N\c3ccc(F)cc3)o2)c1 (3D coordinates assigned)
CN(C)C(=O)c1ccc(Cl)c(NCc2n[n-]/c(=N\c3ccc(F)cc3)o2)c1 (optimized conformer: 89.40904574814836 kcal/mol)

>  <smiles>  (11) 
CN(C)C(=O)c1ccc(Cl)c(NCc2n[nH]c(=Nc3ccc(F)cc3)o2)c1

>  <score_type>  (11) 
oracle

>  <origin>  (11) 
adg

>  <m_score__min__energy>  (11) 
-10.85

>  <m_primary>  (11) 
energy

$$$$
11:0
     RDKit          3D

 22 23  0  0  0  0  0  0  0  0999 V2000
   -3.9770   18.9190  -33.8060 C   0  0  0  0  0  0  0  0  0  0  0  0
   -5.0280   19.8780  -33.7520 O   0  0  0  0  0  0  0  0  0  0  0  0
   -6.2650   19.6720  -33.1160 C   0  0  0  0  0  0  0  0  0  0  0  0
   -6.8180   18.3830  -32.9750 C   0  0  0  0  0  0  0  0  0  0  0  0
   -8.0480   18.2050  -32.3380 C   0  0  0  0  0  0  0  0  0  0  0  0
   -8.7460   19.3010  -31.8320 C   0  0  0  0  0  0  0  0  0  0  0  0
   -8.2150   20.5900  -31.9610 C   0  0  0  0  0  0  0  0  0  0  0  0
   -8.9030   21.7020  -31.4580 C   0  0  0  0  0  0  0  0  0  0  0  0
   -8.3580   22.9770  -31.5950 C   0  0  0  0  0  0  0  0  0  0  0  0
   -7.1280   23.1320  -32.2350 C   0  0  0  0  0  0  0  0  0  0  0  0
   -6.4620   22.0500  -32.7220 N   0  0  0  0  0  0  0  0  0  0  0  0
   -6.9680   20.7840  -32.6040 C   0  0  0  0  0  0  0  0  0  0  0  0
   -3.6773   18.6455  -32.7836 H   0  0  0  0  0  0  0  0  0  0  0  0
   -4.3262   18.0218  -34.3381 H   0  0  0  0  0  0  0  0  0  0  0  0
   -3.1155   19.3487  -34.3381 H   0  0  0  0  0  0  0  0  0  0  0  0
   -6.2765   17.5107  -33.3697 H   0  0  0  0  0  0  0  0  0  0  0  0
   -8.4688   17.1939  -32.2348 H   0  0  0  0  0  0  0  0  0  0  0  0
   -9.7142   19.1528  -31.3313 H   0  0  0  0  0  0  0  0  0  0  0  0
   -9.8724   21.5686  -30.9555 H   0  0  0  0  0  0  0  0  0  0  0  0
   -8.8930   23.8540  -31.2018 H   0  0  0  0  0  0  0  0  0  0  0  0
   -6.6934   24.1363  -32.3467 H   0  0  0  0  0  0  0  0  0  0  0  0
   -5.5430   22.2160  -33.1930 H   0  0  0  0  0  0  0  0  0  0  0  0
  1  2  1  0
  2  3  1  0
  3  4  2  0
  4  5  1  0
  5  6  2  0
  6  7  1  0
  7  8  2  0
  8  9  1  0
  9 10  2  0
 10 11  1  0
 11 12  2  0
 12  3  1  0
 12  7  1  0
  1 13  1  0
  1 14  1  0
  1 15  1  0
  4 16  1  0
  5 17  1  0
  6 18  1  0
  8 19  1  0
  9 20  1  0
 10 21  1  0
 11 22  1  0
M  CHG  1  11   1
M  END
>  <UniqueID>  (12) 
11

>  <SMILES>  (12) 
COc1cccc2ccc[nH+]c12

>  <Energy>  (12) 
25.806331833411573

>  <Genealogy>  (12) 
COc1cccc2ccc[nH+]c12 (protonated)
COc1cccc2ccc[nH+]c12 (3D coordinates assigned)
COc1cccc2ccc[nH+]c12 (optimized conformer: 25.806331833411573 kcal/mol)

>  <smiles>  (12) 
COc1cccc2cccnc12

>  <score_type>  (12) 
oracle

>  <origin>  (12) 
adg

>  <m_score__min__energy>  (12) 
-4.6200000000000001

>  <m_primary>  (12) 
energy

$$$$
12:0
     RDKit          3D

 35 37  0  0  0  0  0  0  0  0999 V2000
  -10.3404   19.9894  -32.6172 H   0  0  0  0  0  0  0  0  0  0  0  0
   -9.3820   20.4550  -32.3440 C   0  0  0  0  0  0  0  0  0  0  0  0
   -9.4070   21.6790  -31.8970 N   0  0  0  0  0  0  0  0  0  0  0  0
   -8.2940   22.4650  -31.4420 C   0  0  0  0  0  0  0  0  0  0  0  0
   -7.6580   23.3290  -32.3430 C   0  0  0  0  0  0  0  0  0  0  0  0
   -8.0310   23.4158  -33.3742 H   0  0  0  0  0  0  0  0  0  0  0  0
   -6.5520   24.0810  -31.9380 C   0  0  0  0  0  0  0  0  0  0  0  0
   -6.0721   24.7743  -32.6444 H   0  0  0  0  0  0  0  0  0  0  0  0
   -6.0530   23.9550  -30.6370 C   0  0  0  0  0  0  0  0  0  0  0  0
   -4.6330   24.9180  -30.1200 S   0  0  0  0  0  0  0  0  0  0  0  0
   -3.4800   23.6030  -30.5140 C   0  0  0  0  0  0  0  0  0  0  0  0
   -3.6140   22.7920  -31.5800 N   0  0  0  0  0  0  0  0  0  0  0  0
   -2.5750   21.9680  -31.5670 N   0  0  0  0  0  0  0  0  0  0  0  0
   -1.8260   22.2870  -30.4940 C   0  0  0  0  0  0  0  0  0  0  0  0
   -0.8874   21.7841  -30.2180 H   0  0  0  0  0  0  0  0  0  0  0  0
   -2.3770   23.3010  -29.8050 N   0  0  0  0  0  0  0  0  0  0  0  0
   -1.8190   23.9850  -28.6440 C   0  0  0  0  0  0  0  0  0  0  0  0
   -2.2006   23.5173  -27.7244 H   0  0  0  0  0  0  0  0  0  0  0  0
   -0.7218   23.9091  -28.6660 H   0  0  0  0  0  0  0  0  0  0  0  0
   -2.1137   25.0446  -28.6660 H   0  0  0  0  0  0  0  0  0  0  0  0
   -6.6670   23.0740  -29.7380 C   0  0  0  0  0  0  0  0  0  0  0  0
   -6.2791   22.9746  -28.7135 H   0  0  0  0  0  0  0  0  0  0  0  0
   -7.7730   22.3210  -30.1430 C   0  0  0  0  0  0  0  0  0  0  0  0
   -8.2384   21.6121  -29.4424 H   0  0  0  0  0  0  0  0  0  0  0  0
   -8.1520   19.6490  -32.5090 C   0  0  0  0  0  0  0  0  0  0  0  0
   -7.1410   20.0300  -33.4100 C   0  0  0  0  0  0  0  0  0  0  0  0
   -7.2673   20.9325  -34.0260 H   0  0  0  0  0  0  0  0  0  0  0  0
   -5.9760   19.2650  -33.5250 C   0  0  0  0  0  0  0  0  0  0  0  0
   -5.1955   19.5577  -34.2427 H   0  0  0  0  0  0  0  0  0  0  0  0
   -5.8020   18.1300  -32.7300 C   0  0  0  0  0  0  0  0  0  0  0  0
   -4.8887   17.5248  -32.8280 H   0  0  0  0  0  0  0  0  0  0  0  0
   -6.7880   17.7630  -31.8100 C   0  0  0  0  0  0  0  0  0  0  0  0
   -6.6459   16.8741  -31.1778 H   0  0  0  0  0  0  0  0  0  0  0  0
   -7.9560   18.5250  -31.6920 C   0  0  0  0  0  0  0  0  0  0  0  0
   -8.7231   18.2418  -30.9562 H   0  0  0  0  0  0  0  0  0  0  0  0
  1  2  1  0
  2  3  2  0
  3  4  1  0
  4  5  2  0
  5  6  1  0
  5  7  1  0
  7  8  1  0
  7  9  2  0
  9 10  1  0
 10 11  1  0
 11 12  2  0
 12 13  1  0
 13 14  2  0
 14 15  1  0
 14 16  1  0
 16 17  1  0
 17 18  1  0
 17 19  1  0
 17 20  1  0
  9 21  1  0
 21 22  1  0
 21 23  2  0
 23 24  1  0
  2 25  1  0
 25 26  2  0
 26 27  1  0
 26 28  1  0
 28 29  1  0
 28 30  2  0
 30 31  1  0
 30 32  1  0
 32 33  1  0
 32 34  2  0
 34 35  1  0
 23  4  1  0
 34 25  1  0
 16 11  1  0
M  END
>  <UniqueID>  (13) 
12

>  <SMILES>  (13) 
Cn1cnnc1Sc1ccc(/N=C\c2ccccc2)cc1

>  <Energy>  (13) 
77.9832769668104

>  <Genealogy>  (13) 
Cn1cnnc1Sc1ccc(/N=C\c2ccccc2)cc1 (cis-trans isomerization)
Cn1cnnc1Sc1ccc(/N=C\c2ccccc2)cc1 (3D coordinates assigned)
Cn1cnnc1Sc1ccc(/N=C\c2ccccc2)cc1 (optimized conformer: 77.9832769668104 kcal/mol)

>  <smiles>  (13) 
Cn1cnnc1Sc1ccc(N=Cc2ccccc2)cc1

>  <score_type>  (13) 
oracle

>  <origin>  (13) 
adg

>  <m_score__min__energy>  (13) 
-8.0600000000000005

>  <m_primary>  (13) 
energy

$$$$
13:0
     RDKit          3D

 41 43  0  0  0  0  0  0  0  0999 V2000
   -8.0580   17.7800  -32.3140 C   0  0  0  0  0  0  0  0  0  0  0  0
   -8.4750   18.9410  -33.0230 O   0  0  0  0  0  0  0  0  0  0  0  0
   -8.2830   20.2660  -32.5940 C   0  0  0  0  0  0  0  0  0  0  0  0
   -9.3620   21.0060  -32.0810 C   0  0  0  0  0  0  0  0  0  0  0  0
   -9.1640   22.2740  -31.5570 C   0  0  0  0  0  0  0  0  0  0  0  0
   -7.8890   22.8180  -31.5010 C   0  0  0  0  0  0  0  0  0  0  0  0
   -6.7670   22.1200  -32.0090 C   0  0  0  0  0  0  0  0  0  0  0  0
   -6.9830   20.8520  -32.6300 C   0  0  0  0  0  0  0  0  0  0  0  0
   -5.8840   20.1990  -33.2430 C   0  0  0  0  0  0  0  0  0  0  0  0
   -6.0870   19.0900  -34.1370 N   0  0  0  0  0  0  0  0  0  0  0  0
   -4.5910   20.7280  -33.0900 C   0  0  0  0  0  0  0  0  0  0  0  0
   -3.4110   20.0410  -33.6650 C   0  0  0  0  0  0  0  0  0  0  0  0
   -2.3130   20.7940  -34.1810 N   0  0  0  0  0  0  0  0  0  0  0  0
   -3.3610   18.7820  -33.6770 O   0  0  0  0  0  0  0  0  0  0  0  0
   -4.4160   21.9470  -32.4180 C   0  0  0  0  0  0  0  0  0  0  0  0
   -3.2430   22.4040  -32.2920 O   0  0  0  0  0  0  0  0  0  0  0  0
   -5.4870   22.6410  -31.9100 N   0  0  0  0  0  0  0  0  0  0  0  0
   -5.2370   23.9550  -31.2610 C   0  0  0  0  0  0  0  0  0  0  0  0
   -4.4930   23.7920  -29.9570 C   0  0  0  0  0  0  0  0  0  0  0  0
   -3.3300   24.5380  -29.6990 C   0  0  0  0  0  0  0  0  0  0  0  0
   -2.6310   24.3650  -28.5000 C   0  0  0  0  0  0  0  0  0  0  0  0
   -3.0760   23.4350  -27.5580 C   0  0  0  0  0  0  0  0  0  0  0  0
   -4.2190   22.6730  -27.8140 C   0  0  0  0  0  0  0  0  0  0  0  0
   -4.9210   22.8430  -29.0110 C   0  0  0  0  0  0  0  0  0  0  0  0
   -8.1252   17.9672  -31.2321 H   0  0  0  0  0  0  0  0  0  0  0  0
   -8.7085   16.9340  -32.5809 H   0  0  0  0  0  0  0  0  0  0  0  0
   -7.0179   17.5412  -32.5809 H   0  0  0  0  0  0  0  0  0  0  0  0
  -10.3738   20.5747  -32.0954 H   0  0  0  0  0  0  0  0  0  0  0  0
  -10.0223   22.8519  -31.1836 H   0  0  0  0  0  0  0  0  0  0  0  0
   -7.7469   23.8123  -31.0526 H   0  0  0  0  0  0  0  0  0  0  0  0
   -6.9990   18.9160  -34.6110 H   0  0  0  0  0  0  0  0  0  0  0  0
   -5.3920   18.3120  -34.1790 H   0  0  0  0  0  0  0  0  0  0  0  0
   -1.4720   20.3060  -34.5610 H   0  0  0  0  0  0  0  0  0  0  0  0
   -2.3490   21.8380  -34.2110 H   0  0  0  0  0  0  0  0  0  0  0  0
   -4.6383   24.5810  -31.9390 H   0  0  0  0  0  0  0  0  0  0  0  0
   -6.2077   24.4272  -31.0494 H   0  0  0  0  0  0  0  0  0  0  0  0
   -2.9677   25.2617  -30.4440 H   0  0  0  0  0  0  0  0  0  0  0  0
   -1.7295   24.9623  -28.2987 H   0  0  0  0  0  0  0  0  0  0  0  0
   -2.5266   23.3023  -26.6143 H   0  0  0  0  0  0  0  0  0  0  0  0
   -4.5669   21.9385  -27.0728 H   0  0  0  0  0  0  0  0  0  0  0  0
   -5.8126   22.2315  -29.2141 H   0  0  0  0  0  0  0  0  0  0  0  0
  1  2  1  0
  2  3  1  0
  3  4  2  0
  4  5  1  0
  5  6  2  0
  6  7  1  0
  7  8  2  0
  8  9  1  0
  9 10  1  0
  9 11  2  0
 11 12  1  0
 12 13  1  0
 12 14  2  0
 11 15  1  0
 15 16  2  0
 15 17  1  0
 17 18  1  0
 18 19  1  0
 19 20  2  0
 20 21  1  0
 21 22  2  0
 22 23  1  0
 23 24  2  0
  8  3  1  0
 24 19  1  0
 17  7  1  0
  1 25  1  0
  1 26  1  0
  1 27  1  0
  4 28  1  0
  5 29  1  0
  6 30  1  0
 10 31  1  0
 10 32  1  0
 13 33  1  0
 13 34  1  0
 18 35  1  0
 18 36  1  0
 20 37  1  0
 21 38  1  0
 22 39  1  0
 23 40  1  0
 24 41  1  0
M  END
>  <UniqueID>  (14) 
13

>  <SMILES>  (14) 
COc1cccc2c1c(N)c(C(N)=O)c(=O)n2Cc1ccccc1

>  <Energy>  (14) 
70.18222881682526

>  <Genealogy>  (14) 
COc1cccc2c1c(N)c(C(N)=O)c(=O)n2Cc1ccccc1 (3D coordinates assigned)
COc1cccc2c1c(N)c(C(N)=O)c(=O)n2Cc1ccccc1 (optimized conformer: 70.18222881682526 kcal/mol)

>  <smiles>  (14) 
COc1cccc2c1c(N)c(C(N)=O)c(=O)n2Cc1ccccc1

>  <score_type>  (14) 
oracle

>  <origin>  (14) 
adg

>  <m_score__min__energy>  (14) 
-8.0500000000000007

>  <m_primary>  (14) 
energy

$$$$
14:0
     RDKit          3D

 51 55  0  0  0  0  0  0  0  0999 V2000
   -6.6480   16.0880  -34.1960 C   0  0  0  0  0  0  0  0  0  0  0  0
   -6.0980   17.2090  -33.4300 N   0  0  0  0  0  0  0  0  0  0  0  0
   -4.6700   17.4160  -33.3680 C   0  0  0  0  0  0  0  0  0  0  0  0
   -3.9950   16.8280  -32.4780 O   0  0  0  0  0  0  0  0  0  0  0  0
   -3.9800   18.3340  -34.3510 C   0  0  0  0  0  0  0  0  0  0  0  0
   -2.8200   19.1260  -33.7230 C   0  0  0  0  0  0  0  0  0  0  0  0
   -3.3190   20.2930  -32.9230 C   0  0  0  0  0  0  0  0  0  0  0  0
   -4.2260   21.1730  -33.4670 N   0  0  0  0  0  0  0  0  0  0  0  0
   -4.6960   22.2190  -32.7720 N   0  0  0  0  0  0  0  0  0  0  0  0
   -4.2740   22.3870  -31.4980 C   0  0  0  0  0  0  0  0  0  0  0  0
   -3.3880   21.5140  -30.9450 C   0  0  0  0  0  0  0  0  0  0  0  0
   -2.8910   20.4630  -31.6350 N   0  0  0  0  0  0  0  0  0  0  0  0
   -3.1070   21.9750  -29.6840 C   0  0  0  0  0  0  0  0  0  0  0  0
   -2.2510   21.5060  -28.6930 C   0  0  0  0  0  0  0  0  0  0  0  0
   -2.1640   22.2500  -27.5050 C   0  0  0  0  0  0  0  0  0  0  0  0
   -2.9170   23.4340  -27.3420 C   0  0  0  0  0  0  0  0  0  0  0  0
   -3.7700   23.8910  -28.3640 C   0  0  0  0  0  0  0  0  0  0  0  0
   -3.8530   23.1350  -29.5350 C   0  0  0  0  0  0  0  0  0  0  0  0
   -4.5910   23.3920  -30.6520 N   0  0  0  0  0  0  0  0  0  0  0  0
   -5.4080   24.5680  -30.9520 C   0  0  0  0  0  0  0  0  0  0  0  0
   -6.8530   24.3210  -30.5040 C   0  0  0  0  0  0  0  0  0  0  0  0
   -7.6590   23.4310  -31.4380 C   0  0  0  0  0  0  0  0  0  0  0  0
   -7.1980   22.8990  -30.0900 C   0  0  0  0  0  0  0  0  0  0  0  0
   -6.9960   18.1980  -32.8930 C   0  0  0  0  0  0  0  0  0  0  0  0
   -6.8390   19.5580  -33.2090 C   0  0  0  0  0  0  0  0  0  0  0  0
   -7.7200   20.4960  -32.6660 C   0  0  0  0  0  0  0  0  0  0  0  0
   -8.7480   20.0750  -31.8190 C   0  0  0  0  0  0  0  0  0  0  0  0
   -8.8770   18.7140  -31.5230 C   0  0  0  0  0  0  0  0  0  0  0  0
   -8.0050   17.8160  -32.0560 N   0  0  0  0  0  0  0  0  0  0  0  0
   -7.0245   15.3206  -33.5037 H   0  0  0  0  0  0  0  0  0  0  0  0
   -7.4726   16.4464  -34.8297 H   0  0  0  0  0  0  0  0  0  0  0  0
   -5.8599   15.6552  -34.8297 H   0  0  0  0  0  0  0  0  0  0  0  0
   -3.5826   17.7269  -35.1778 H   0  0  0  0  0  0  0  0  0  0  0  0
   -4.7261   19.0638  -34.6985 H   0  0  0  0  0  0  0  0  0  0  0  0
   -2.2481   18.4582  -33.0620 H   0  0  0  0  0  0  0  0  0  0  0  0
   -2.1860   19.5109  -34.5353 H   0  0  0  0  0  0  0  0  0  0  0  0
   -1.6640   20.5865  -28.8345 H   0  0  0  0  0  0  0  0  0  0  0  0
   -1.5038   21.9078  -26.6944 H   0  0  0  0  0  0  0  0  0  0  0  0
   -2.8358   24.0054  -26.4056 H   0  0  0  0  0  0  0  0  0  0  0  0
   -4.3536   24.8157  -28.2439 H   0  0  0  0  0  0  0  0  0  0  0  0
   -5.0035   25.4403  -30.4176 H   0  0  0  0  0  0  0  0  0  0  0  0
   -5.3898   24.7575  -32.0354 H   0  0  0  0  0  0  0  0  0  0  0  0
   -6.9884   25.3103  -30.0425 H   0  0  0  0  0  0  0  0  0  0  0  0
   -8.7251   23.6388  -31.6119 H   0  0  0  0  0  0  0  0  0  0  0  0
   -7.5531   23.1011  -32.4820 H   0  0  0  0  0  0  0  0  0  0  0  0
   -7.9307   22.7219  -29.2889 H   0  0  0  0  0  0  0  0  0  0  0  0
   -6.6205   22.0247  -29.7552 H   0  0  0  0  0  0  0  0  0  0  0  0
   -6.0286   19.8815  -33.8788 H   0  0  0  0  0  0  0  0  0  0  0  0
   -7.6046   21.5636  -32.9047 H   0  0  0  0  0  0  0  0  0  0  0  0
   -9.4487   20.8061  -31.3893 H   0  0  0  0  0  0  0  0  0  0  0  0
   -9.6837   18.3697  -30.8591 H   0  0  0  0  0  0  0  0  0  0  0  0
  1  2  1  0
  2  3  1  0
  3  4  2  0
  3  5  1  0
  5  6  1  0
  6  7  1  0
  7  8  2  0
  8  9  1  0
  9 10  2  0
 10 11  1  0
 11 12  2  0
 11 13  1  0
 13 14  2  0
 14 15  1  0
 15 16  2  0
 16 17  1  0
 17 18  2  0
 18 19  1  0
 19 20  1  0
 20 21  1  0
 21 22  1  0
 22 23  1  0
  2 24  1  0
 24 25  2  0
 25 26  1  0
 26 27  2  0
 27 28  1  0
 28 29  2  0
 12  7  1  0
 18 13  1  0
 23 21  1  0
 29 24  1  0
 19 10  1  0
  1 30  1  0
  1 31  1  0
  1 32  1  0
  5 33  1  0
  5 34  1  0
  6 35  1  0
  6 36  1  0
 14 37  1  0
 15 38  1  0
 16 39  1  0
 17 40  1  0
 20 41  1  0
 20 42  1  0
 21 43  1  0
 22 44  1  0
 22 45  1  0
 23 46  1  0
 23 47  1  0
 25 48  1  0
 26 49  1  0
 27 50  1  0
 28 51  1  0
M  END
>  <UniqueID>  (15) 
14

>  <SMILES>  (15) 
CN(C(=O)CCc1nnc2c(n1)c1ccccc1n2CC1CC1)c1ccccn1

>  <Energy>  (15) 
370.0279272868195

>  <Genealogy>  (15) 
CN(C(=O)CCc1nnc2c(n1)c1ccccc1n2CC1CC1)c1ccccn1 (3D coordinates assigned)
CN(C(=O)CCc1nnc2c(n1)c1ccccc1n2CC1CC1)c1ccccn1 (nonaromatic ring conformer: 370.0279272868195 kcal/mol)

>  <smiles>  (15) 
CN(C(=O)CCc1nnc2c(n1)c1ccccc1n2CC1CC1)c1ccccn1

>  <score_type>  (15) 
oracle

>  <origin>  (15) 
adg

>  <m_score__min__energy>  (15) 
-10.1

>  <m_primary>  (15) 
energy

$$$$
15:0
     RDKit          3D

 53 56  0  0  0  0  0  0  0  0999 V2000
   -0.8860   25.8360  -29.6930 H   0  0  0  0  0  0  0  0  0  0  0  0
   -1.5980   25.3970  -29.0650 N   0  0  0  0  0  0  0  0  0  0  0  0
   -2.5270   24.6250  -29.5300 C   0  0  0  0  0  0  0  0  0  0  0  0
   -3.5970   25.1600  -30.1830 N   0  0  0  0  0  0  0  0  0  0  0  0
   -4.5910   24.3790  -30.6850 C   0  0  0  0  0  0  0  0  0  0  0  0
   -5.4421   24.8403  -31.2073 H   0  0  0  0  0  0  0  0  0  0  0  0
   -4.5310   22.9870  -30.5370 C   0  0  0  0  0  0  0  0  0  0  0  0
   -5.5810   22.1550  -31.0560 C   0  0  0  0  0  0  0  0  0  0  0  0
   -6.4560   21.4560  -31.5020 C   0  0  0  0  0  0  0  0  0  0  0  0
   -7.5070   20.6090  -32.0240 C   0  0  0  0  0  0  0  0  0  0  0  0
   -8.8630   20.9550  -31.8540 C   0  0  0  0  0  0  0  0  0  0  0  0
   -9.2900   22.2270  -31.1650 C   0  0  0  0  0  0  0  0  0  0  0  0
  -10.3488   22.1436  -30.8786 H   0  0  0  0  0  0  0  0  0  0  0  0
   -8.6616   22.3724  -30.2740 H   0  0  0  0  0  0  0  0  0  0  0  0
   -9.1150   23.4300  -32.0870 C   0  0  0  0  0  0  0  0  0  0  0  0
   -8.9827   24.3393  -31.4823 H   0  0  0  0  0  0  0  0  0  0  0  0
   -8.2293   23.2797  -32.7217 H   0  0  0  0  0  0  0  0  0  0  0  0
  -10.0068   23.5383  -32.7217 H   0  0  0  0  0  0  0  0  0  0  0  0
   -9.8280   20.0980  -32.2790 N   0  0  0  0  0  0  0  0  0  0  0  0
   -9.5170   18.9220  -32.8780 C   0  0  0  0  0  0  0  0  0  0  0  0
  -10.3197   18.2490  -33.2137 H   0  0  0  0  0  0  0  0  0  0  0  0
   -8.2190   18.5720  -33.0650 N   0  0  0  0  0  0  0  0  0  0  0  0
   -8.0100   17.6640  -33.5380 H   0  0  0  0  0  0  0  0  0  0  0  0
   -7.2030   19.3870  -32.6640 C   0  0  0  0  0  0  0  0  0  0  0  0
   -5.8020   18.9550  -32.8930 C   0  0  0  0  0  0  0  0  0  0  0  0
   -5.3770   17.6690  -32.5200 C   0  0  0  0  0  0  0  0  0  0  0  0
   -6.0877   16.9731  -32.0502 H   0  0  0  0  0  0  0  0  0  0  0  0
   -4.0580   17.2690  -32.7420 C   0  0  0  0  0  0  0  0  0  0  0  0
   -3.7346   16.2607  -32.4440 H   0  0  0  0  0  0  0  0  0  0  0  0
   -3.1430   18.1460  -33.3430 C   0  0  0  0  0  0  0  0  0  0  0  0
   -1.7530   17.7100  -33.5710 C   0  0  0  0  0  0  0  0  0  0  0  0
   -1.5070   16.9390  -34.5370 O   0  0  0  0  0  0  0  0  0  0  0  0
   -0.6770   18.1600  -32.7260 N   0  0  0  0  0  0  0  0  0  0  0  0
   -0.7030   19.4100  -31.9830 C   0  0  0  0  0  0  0  0  0  0  0  0
   -0.8256   20.2618  -32.6681 H   0  0  0  0  0  0  0  0  0  0  0  0
   -1.5430   19.4454  -31.2736 H   0  0  0  0  0  0  0  0  0  0  0  0
    0.6410   19.4890  -31.2710 C   0  0  0  0  0  0  0  0  0  0  0  0
    1.0541   20.5058  -31.3457 H   0  0  0  0  0  0  0  0  0  0  0  0
    0.5446   19.2543  -30.2007 H   0  0  0  0  0  0  0  0  0  0  0  0
    1.5520   18.4930  -31.9820 C   0  0  0  0  0  0  0  0  0  0  0  0
    2.2015   19.0145  -32.7004 H   0  0  0  0  0  0  0  0  0  0  0  0
    2.2072   17.9680  -31.2714 H   0  0  0  0  0  0  0  0  0  0  0  0
    0.6280   17.5240  -32.7100 C   0  0  0  0  0  0  0  0  0  0  0  0
    0.9838   17.3534  -33.7368 H   0  0  0  0  0  0  0  0  0  0  0  0
    0.5951   16.5438  -32.2120 H   0  0  0  0  0  0  0  0  0  0  0  0
   -3.5550   19.4460  -33.6820 C   0  0  0  0  0  0  0  0  0  0  0  0
   -2.6710   20.3400  -34.1950 F   0  0  0  0  0  0  0  0  0  0  0  0
   -4.8760   19.8460  -33.4570 C   0  0  0  0  0  0  0  0  0  0  0  0
   -5.1913   20.8655  -33.7238 H   0  0  0  0  0  0  0  0  0  0  0  0
   -3.4430   22.4170  -29.8690 C   0  0  0  0  0  0  0  0  0  0  0  0
   -3.3826   21.3259  -29.7432 H   0  0  0  0  0  0  0  0  0  0  0  0
   -2.4330   23.2380  -29.3620 C   0  0  0  0  0  0  0  0  0  0  0  0
   -1.5723   22.7993  -28.8360 H   0  0  0  0  0  0  0  0  0  0  0  0
  1  2  1  0
  2  3  2  0
  3  4  1  0
  4  5  1  0
  5  6  1  0
  5  7  2  0
  7  8  1  0
  8  9  3  0
  9 10  1  0
 10 11  2  0
 11 12  1  0
 12 13  1  0
 12 14  1  0
 12 15  1  0
 15 16  1  0
 15 17  1  0
 15 18  1  0
 11 19  1  0
 19 20  2  0
 20 21  1  0
 20 22  1  0
 22 23  1  0
 22 24  2  0
 24 25  1  0
 25 26  2  0
 26 27  1  0
 26 28  1  0
 28 29  1  0
 28 30  2  0
 30 31  1  0
 31 32  2  0
 31 33  1  0
 33 34  1  0
 34 35  1  0
 34 36  1  0
 34 37  1  0
 37 38  1  0
 37 39  1  0
 37 40  1  0
 40 41  1  0
 40 42  1  0
 40 43  1  0
 43 44  1  0
 43 45  1  0
 30 46  1  0
 46 47  1  0
 46 48  2  0
 48 49  1  0
  7 50  1  0
 50 51  1  0
 50 52  2  0
 52 53  1  0
 52  3  1  0
 24 10  1  0
 48 25  1  0
 43 33  1  0
M  CHG  2   4  -1  22   1
M  END
>  <UniqueID>  (16) 
15

>  <SMILES>  (16) 
[H]/N=c1/ccc(C#Cc2c(CC)nc[nH+]c2-c2ccc(C(=O)N3CCCC3)c(F)c2)c[n-]1

>  <Energy>  (16) 
62.4884110824959

>  <Genealogy>  (16) 
CCc1nc[nH+]c(-c2ccc(C(=O)N3CCCC3)c(F)c2)c1C#Cc1ccc(=N)[n-]c1 (protonated)
[H]/N=c1/ccc(C#Cc2c(CC)nc[nH+]c2-c2ccc(C(=O)N3CCCC3)c(F)c2)c[n-]1 (cis-trans isomerization)
[H]/N=c1/ccc(C#Cc2c(CC)nc[nH+]c2-c2ccc(C(=O)N3CCCC3)c(F)c2)c[n-]1 (3D coordinates assigned)
[H]/N=c1/ccc(C#Cc2c(CC)nc[nH+]c2-c2ccc(C(=O)N3CCCC3)c(F)c2)c[n-]1 (nonaromatic ring conformer: 62.4884110824959 kcal/mol)

>  <smiles>  (16) 
CCc1ncnc(-c2ccc(C(=O)N3CCCC3)c(F)c2)c1C#Cc1ccc(=N)[nH]c1

>  <score_type>  (16) 
oracle

>  <origin>  (16) 
adg

>  <m_score__min__energy>  (16) 
-9.5500000000000007

>  <m_primary>  (16) 
energy

$$$$
16:0
     RDKit          3D

 36 38  0  0  0  0  0  0  0  0999 V2000
   -4.2530   20.5770  -33.1580 C   0  0  0  0  0  0  0  0  0  0  0  0
   -5.1220   21.4850  -32.3240 C   0  0  0  0  0  0  0  0  0  0  0  0
   -4.5470   22.5280  -31.6600 N   0  0  0  0  0  0  0  0  0  0  0  0
   -5.2520   23.3690  -30.8910 N   0  0  0  0  0  0  0  0  0  0  0  0
   -4.5630   24.4290  -30.1910 C   0  0  0  0  0  0  0  0  0  0  0  0
   -3.9180   25.2960  -30.8410 O   0  0  0  0  0  0  0  0  0  0  0  0
   -4.6000   24.5210  -28.6910 C   0  0  0  0  0  0  0  0  0  0  0  0
   -3.5590   23.6220  -28.0780 C   0  0  0  0  0  0  0  0  0  0  0  0
   -3.6300   22.2310  -28.2660 C   0  0  0  0  0  0  0  0  0  0  0  0
   -2.6460   21.3950  -27.7310 C   0  0  0  0  0  0  0  0  0  0  0  0
   -1.5810   21.9400  -27.0080 C   0  0  0  0  0  0  0  0  0  0  0  0
   -1.5000   23.3230  -26.8200 C   0  0  0  0  0  0  0  0  0  0  0  0
   -2.4830   24.1630  -27.3520 C   0  0  0  0  0  0  0  0  0  0  0  0
   -6.6070   23.2190  -30.7520 C   0  0  0  0  0  0  0  0  0  0  0  0
   -7.2620   24.0080  -30.0130 O   0  0  0  0  0  0  0  0  0  0  0  0
   -7.2660   22.1730  -31.4170 C   0  0  0  0  0  0  0  0  0  0  0  0
   -8.6590   21.9910  -31.2940 C   0  0  0  0  0  0  0  0  0  0  0  0
   -9.2960   20.9420  -31.9570 C   0  0  0  0  0  0  0  0  0  0  0  0
   -8.5560   20.0630  -32.7480 C   0  0  0  0  0  0  0  0  0  0  0  0
   -7.1760   20.2270  -32.8800 C   0  0  0  0  0  0  0  0  0  0  0  0
   -6.5140   21.2840  -32.2160 C   0  0  0  0  0  0  0  0  0  0  0  0
   -3.6453   19.9420  -32.4966 H   0  0  0  0  0  0  0  0  0  0  0  0
   -4.8889   19.9424  -33.7928 H   0  0  0  0  0  0  0  0  0  0  0  0
   -3.5911   21.1844  -33.7928 H   0  0  0  0  0  0  0  0  0  0  0  0
   -3.5190   22.6790  -31.7740 H   0  0  0  0  0  0  0  0  0  0  0  0
   -4.4039   25.5600  -28.3878 H   0  0  0  0  0  0  0  0  0  0  0  0
   -5.5931   24.2029  -28.3410 H   0  0  0  0  0  0  0  0  0  0  0  0
   -4.4644   21.7980  -28.8372 H   0  0  0  0  0  0  0  0  0  0  0  0
   -2.7097   20.3069  -27.8791 H   0  0  0  0  0  0  0  0  0  0  0  0
   -0.8071   21.2811  -26.5872 H   0  0  0  0  0  0  0  0  0  0  0  0
   -0.6609   23.7513  -26.2522 H   0  0  0  0  0  0  0  0  0  0  0  0
   -2.4145   25.2506  -27.2022 H   0  0  0  0  0  0  0  0  0  0  0  0
   -9.2472   22.6809  -30.6710 H   0  0  0  0  0  0  0  0  0  0  0  0
  -10.3831   20.8078  -31.8560 H   0  0  0  0  0  0  0  0  0  0  0  0
   -9.0619   19.2373  -33.2698 H   0  0  0  0  0  0  0  0  0  0  0  0
   -6.6001   19.5287  -33.5051 H   0  0  0  0  0  0  0  0  0  0  0  0
  1  2  1  0
  2  3  2  0
  3  4  1  0
  4  5  1  0
  5  6  2  0
  5  7  1  0
  7  8  1  0
  8  9  2  0
  9 10  1  0
 10 11  2  0
 11 12  1  0
 12 13  2  0
  4 14  1  0
 14 15  2  0
 14 16  1  0
 16 17  2  0
 17 18  1  0
 18 19  2  0
 19 20  1  0
 20 21  2  0
 21  2  1  0
 13  8  1  0
 21 16  1  0
  1 22  1  0
  1 23  1  0
  1 24  1  0
  3 25  1  0
  7 26  1  0
  7 27  1  0
  9 28  1  0
 10 29  1  0
 11 30  1  0
 12 31  1  0
 13 32  1  0
 17 33  1  0
 18 34  1  0
 19 35  1  0
 20 36  1  0
M  CHG  1   3   1
M  END
>  <UniqueID>  (17) 
16

>  <SMILES>  (17) 
Cc1[nH+]n(C(=O)Cc2ccccc2)c(=O)c2ccccc12

>  <Energy>  (17) 
48.771669523137604

>  <Genealogy>  (17) 
Cc1[nH+]n(C(=O)Cc2ccccc2)c(=O)c2ccccc12 (protonated)
Cc1[nH+]n(C(=O)Cc2ccccc2)c(=O)c2ccccc12 (3D coordinates assigned)
Cc1[nH+]n(C(=O)Cc2ccccc2)c(=O)c2ccccc12 (optimized conformer: 48.771669523137604 kcal/mol)

>  <smiles>  (17) 
Cc1nn(C(=O)Cc2ccccc2)c(=O)c2ccccc12

>  <score_type>  (17) 
oracle

>  <origin>  (17) 
adg

>  <m_score__min__energy>  (17) 
-7.8099999999999996

>  <m_primary>  (17) 
energy

$$$$
17:0
     RDKit          3D

 39 39  0  0  0  0  0  0  0  0999 V2000
   -6.8080   25.6630  -29.3480 C   0  0  0  0  0  0  0  0  0  0  0  0
   -5.7180   25.7340  -30.4160 C   0  0  0  0  0  0  0  0  0  0  0  0
   -5.3300   24.3610  -31.0100 C   0  0  0  0  0  0  0  0  0  0  0  0
   -3.9080   23.9640  -30.8490 N   0  0  0  0  0  0  0  0  0  0  0  0
   -3.3270   24.1660  -29.5020 C   0  0  0  0  0  0  0  0  0  0  0  0
   -4.1700   23.4860  -28.4120 C   0  0  0  0  0  0  0  0  0  0  0  0
   -4.1140   24.2680  -27.1030 C   0  0  0  0  0  0  0  0  0  0  0  0
   -3.5820   22.6370  -31.4210 C   0  0  0  0  0  0  0  0  0  0  0  0
   -4.5480   22.2850  -32.5550 C   0  0  0  0  0  0  0  0  0  0  0  0
   -5.3020   21.1090  -32.2510 O   0  0  0  0  0  0  0  0  0  0  0  0
   -6.7020   21.0230  -32.1490 C   0  0  0  0  0  0  0  0  0  0  0  0
   -7.4920   22.0640  -31.6170 C   0  0  0  0  0  0  0  0  0  0  0  0
   -8.8810   21.9270  -31.5430 C   0  0  0  0  0  0  0  0  0  0  0  0
   -9.4970   20.7590  -31.9970 C   0  0  0  0  0  0  0  0  0  0  0  0
   -8.7240   19.7230  -32.5230 C   0  0  0  0  0  0  0  0  0  0  0  0
   -7.3320   19.8500  -32.5980 C   0  0  0  0  0  0  0  0  0  0  0  0
   -6.3080   18.4200  -33.3480 Br  0  0  0  0  0  0  0  0  0  0  0  0
   -6.3461   25.6931  -28.3501 H   0  0  0  0  0  0  0  0  0  0  0  0
   -7.4898   26.5186  -29.4624 H   0  0  0  0  0  0  0  0  0  0  0  0
   -7.3730   24.7261  -29.4624 H   0  0  0  0  0  0  0  0  0  0  0  0
   -6.0765   26.3760  -31.2341 H   0  0  0  0  0  0  0  0  0  0  0  0
   -4.8182   26.1348  -29.9264 H   0  0  0  0  0  0  0  0  0  0  0  0
   -5.9512   23.5951  -30.5227 H   0  0  0  0  0  0  0  0  0  0  0  0
   -5.4942   24.4481  -32.0942 H   0  0  0  0  0  0  0  0  0  0  0  0
   -2.3121   23.7421  -29.4842 H   0  0  0  0  0  0  0  0  0  0  0  0
   -3.3064   25.2463  -29.2958 H   0  0  0  0  0  0  0  0  0  0  0  0
   -5.2149   23.4277  -28.7507 H   0  0  0  0  0  0  0  0  0  0  0  0
   -3.7632   22.4796  -28.2342 H   0  0  0  0  0  0  0  0  0  0  0  0
   -4.1641   23.5685  -26.2556 H   0  0  0  0  0  0  0  0  0  0  0  0
   -3.1729   24.8355  -27.0549 H   0  0  0  0  0  0  0  0  0  0  0  0
   -4.9646   24.9638  -27.0549 H   0  0  0  0  0  0  0  0  0  0  0  0
   -2.5549   22.6557  -31.8142 H   0  0  0  0  0  0  0  0  0  0  0  0
   -3.6738   21.8784  -30.6297 H   0  0  0  0  0  0  0  0  0  0  0  0
   -5.2413   23.1251  -32.7084 H   0  0  0  0  0  0  0  0  0  0  0  0
   -3.9596   22.0938  -33.4645 H   0  0  0  0  0  0  0  0  0  0  0  0
   -7.0128   22.9872  -31.2590 H   0  0  0  0  0  0  0  0  0  0  0  0
   -9.4908   22.7419  -31.1258 H   0  0  0  0  0  0  0  0  0  0  0  0
  -10.5906   20.6556  -31.9401 H   0  0  0  0  0  0  0  0  0  0  0  0
   -9.2104   18.8032  -32.8800 H   0  0  0  0  0  0  0  0  0  0  0  0
  1  2  1  0
  2  3  1  0
  3  4  1  0
  4  5  1  0
  5  6  1  0
  6  7  1  0
  4  8  1  0
  8  9  1  0
  9 10  1  0
 10 11  1  0
 11 12  2  0
 12 13  1  0
 13 14  2  0
 14 15  1  0
 15 16  2  0
 16 17  1  0
 16 11  1  0
  1 18  1  0
  1 19  1  0
  1 20  1  0
  2 21  1  0
  2 22  1  0
  3 23  1  0
  3 24  1  0
  5 25  1  0
  5 26  1  0
  6 27  1  0
  6 28  1  0
  7 29  1  0
  7 30  1  0
  7 31  1  0
  8 32  1  0
  8 33  1  0
  9 34  1  0
  9 35  1  0
 12 36  1  0
 13 37  1  0
 14 38  1  0
 15 39  1  0
M  END
>  <UniqueID>  (18) 
17

>  <SMILES>  (18) 
CCCN(CCC)CCOc1ccccc1Br

>  <Energy>  (18) 
35.2112601615922

>  <Genealogy>  (18) 
CCCN(CCC)CCOc1ccccc1Br (3D coordinates assigned)
CCCN(CCC)CCOc1ccccc1Br (optimized conformer: 35.2112601615922 kcal/mol)

>  <smiles>  (18) 
CCCN(CCC)CCOc1ccccc1Br

>  <score_type>  (18) 
oracle

>  <origin>  (18) 
adg

>  <m_score__min__energy>  (18) 
-6.3499999999999996

>  <m_primary>  (18) 
energy

$$$$
18:0
     RDKit          3D

 41 44  0  0  0  0  0  0  0  0999 V2000
    1.8597   23.7602  -26.8971 H   0  0  0  0  0  0  0  0  0  0  0  0
    0.9170   24.0930  -27.3560 C   0  0  0  0  0  0  0  0  0  0  0  0
    0.5890   25.4690  -27.3700 C   0  0  0  0  0  0  0  0  0  0  0  0
    1.2787   26.1994  -26.9218 H   0  0  0  0  0  0  0  0  0  0  0  0
   -0.6130   25.9100  -27.9530 C   0  0  0  0  0  0  0  0  0  0  0  0
   -0.8781   26.9773  -27.9761 H   0  0  0  0  0  0  0  0  0  0  0  0
   -1.4550   24.9440  -28.5000 C   0  0  0  0  0  0  0  0  0  0  0  0
   -1.1400   23.6170  -28.4910 C   0  0  0  0  0  0  0  0  0  0  0  0
   -2.0890   22.9040  -29.1220 N   0  0  0  0  0  0  0  0  0  0  0  0
   -2.9790   23.8590  -29.4960 C   0  0  0  0  0  0  0  0  0  0  0  0
   -4.0250   23.5690  -30.2130 N   0  0  0  0  0  0  0  0  0  0  0  0
   -4.9770   24.4870  -30.7670 C   0  0  0  0  0  0  0  0  0  0  0  0
   -4.6890   25.7020  -30.9390 O   0  0  0  0  0  0  0  0  0  0  0  0
   -6.3540   23.9960  -31.0960 C   0  0  0  0  0  0  0  0  0  0  0  0
   -6.9010   23.8256  -30.1570 H   0  0  0  0  0  0  0  0  0  0  0  0
   -6.8417   24.7625  -31.7162 H   0  0  0  0  0  0  0  0  0  0  0  0
   -6.3380   22.6850  -31.9020 C   0  0  0  0  0  0  0  0  0  0  0  0
   -5.7454   22.8505  -32.8138 H   0  0  0  0  0  0  0  0  0  0  0  0
   -5.9086   21.9184  -31.2402 H   0  0  0  0  0  0  0  0  0  0  0  0
   -7.7280   22.1700  -32.3200 C   0  0  0  0  0  0  0  0  0  0  0  0
   -8.4876   22.6765  -31.7065 H   0  0  0  0  0  0  0  0  0  0  0  0
   -7.8493   22.3887  -33.3912 H   0  0  0  0  0  0  0  0  0  0  0  0
   -7.8860   20.6830  -32.1460 C   0  0  0  0  0  0  0  0  0  0  0  0
   -8.7750   20.0300  -31.2960 C   0  0  0  0  0  0  0  0  0  0  0  0
   -9.4831   20.5343  -30.6220 H   0  0  0  0  0  0  0  0  0  0  0  0
   -8.6460   18.6890  -31.4150 N   0  0  0  0  0  0  0  0  0  0  0  0
   -9.1800   17.9610  -30.8930 H   0  0  0  0  0  0  0  0  0  0  0  0
   -7.6950   18.4880  -32.3440 C   0  0  0  0  0  0  0  0  0  0  0  0
   -7.2150   17.2640  -32.8090 C   0  0  0  0  0  0  0  0  0  0  0  0
   -7.6053   16.3144  -32.4140 H   0  0  0  0  0  0  0  0  0  0  0  0
   -6.2160   17.2820  -33.7990 C   0  0  0  0  0  0  0  0  0  0  0  0
   -5.8093   16.3345  -34.1822 H   0  0  0  0  0  0  0  0  0  0  0  0
   -5.7320   18.5080  -34.3040 C   0  0  0  0  0  0  0  0  0  0  0  0
   -4.9538   18.5094  -35.0814 H   0  0  0  0  0  0  0  0  0  0  0  0
   -6.2380   19.7280  -33.8200 C   0  0  0  0  0  0  0  0  0  0  0  0
   -5.8747   20.6890  -34.2129 H   0  0  0  0  0  0  0  0  0  0  0  0
   -7.2160   19.6800  -32.8250 C   0  0  0  0  0  0  0  0  0  0  0  0
   -2.6210   25.1210  -29.1330 N   0  0  0  0  0  0  0  0  0  0  0  0
   -3.0830   26.0320  -29.3410 H   0  0  0  0  0  0  0  0  0  0  0  0
    0.0440   23.1470  -27.9260 C   0  0  0  0  0  0  0  0  0  0  0  0
    0.2879   22.0744  -27.9254 H   0  0  0  0  0  0  0  0  0  0  0  0
  1  2  1  0
  2  3  2  0
  3  4  1  0
  3  5  1  0
  5  6  1  0
  5  7  2  0
  7  8  1  0
  8  9  1  0
  9 10  1  0
 10 11  2  0
 11 12  1  0
 12 13  2  0
 12 14  1  0
 14 15  1  0
 14 16  1  0
 14 17  1  0
 17 18  1  0
 17 19  1  0
 17 20  1  0
 20 21  1  0
 20 22  1  0
 20 23  1  0
 23 24  2  0
 24 25  1  0
 24 26  1  0
 26 27  1  0
 26 28  1  0
 28 29  2  0
 29 30  1  0
 29 31  1  0
 31 32  1  0
 31 33  2  0
 33 34  1  0
 33 35  1  0
 35 36  1  0
 35 37  2  0
 10 38  1  0
 38 39  1  0
  8 40  2  0
 40 41  1  0
 40  2  1  0
 38  7  1  0
 37 23  1  0
 37 28  1  0
M  CHG  1   9  -1
M  END
>  <UniqueID>  (19) 
18

>  <SMILES>  (19) 
O=C(CCCc1c[nH]c2ccccc12)/N=c1/[n-]c2ccccc2[nH]1

>  <Energy>  (19) 
111.72471361366202

>  <Genealogy>  (19) 
O=C(CCCc1c[nH]c2ccccc12)N=c1[n-]c2ccccc2[nH]1 (protonated)
O=C(CCCc1c[nH]c2ccccc12)/N=c1/[n-]c2ccccc2[nH]1 (cis-trans isomerization)
O=C(CCCc1c[nH]c2ccccc12)/N=c1/[n-]c2ccccc2[nH]1 (3D coordinates assigned)
O=C(CCCc1c[nH]c2ccccc12)/N=c1/[n-]c2ccccc2[nH]1 (optimized conformer: 111.72471361366202 kcal/mol)

>  <smiles>  (19) 
O=C(CCCc1c[nH]c2ccccc12)N=c1[nH]c2ccccc2[nH]1

>  <score_type>  (19) 
oracle

>  <origin>  (19) 
adg

>  <m_score__min__energy>  (19) 
-10.94

>  <m_primary>  (19) 
energy

$$$$
19:0
     RDKit          3D

 33 35  0  0  0  0  0  0  0  0999 V2000
   -0.8600   26.5630  -27.9320 C   0  0  0  0  0  0  0  0  0  0  0  0
   -1.6090   25.9340  -28.9680 O   0  0  0  0  0  0  0  0  0  0  0  0
   -2.0870   24.6150  -28.9140 C   0  0  0  0  0  0  0  0  0  0  0  0
   -1.3420   23.6720  -28.2010 C   0  0  0  0  0  0  0  0  0  0  0  0
   -1.7730   22.3380  -28.1090 C   0  0  0  0  0  0  0  0  0  0  0  0
   -1.0540   21.3620  -27.4010 O   0  0  0  0  0  0  0  0  0  0  0  0
   -1.6410   20.2290  -26.7710 C   0  0  0  0  0  0  0  0  0  0  0  0
   -2.9610   21.9570  -28.7420 C   0  0  0  0  0  0  0  0  0  0  0  0
   -3.7240   22.8860  -29.4680 C   0  0  0  0  0  0  0  0  0  0  0  0
   -4.9810   22.4500  -30.1290 C   0  0  0  0  0  0  0  0  0  0  0  0
   -4.9930   21.6010  -31.1950 N   0  0  0  0  0  0  0  0  0  0  0  0
   -6.3020   21.4810  -31.4750 C   0  0  0  0  0  0  0  0  0  0  0  0
   -6.8920   20.7260  -32.4860 C   0  0  0  0  0  0  0  0  0  0  0  0
   -8.2950   20.7600  -32.5920 C   0  0  0  0  0  0  0  0  0  0  0  0
   -9.0620   21.5400  -31.6950 C   0  0  0  0  0  0  0  0  0  0  0  0
   -8.4320   22.2920  -30.6860 C   0  0  0  0  0  0  0  0  0  0  0  0
   -7.0410   22.2310  -30.6120 C   0  0  0  0  0  0  0  0  0  0  0  0
   -6.2250   22.8520  -29.7530 N   0  0  0  0  0  0  0  0  0  0  0  0
   -3.2800   24.2190  -29.5460 C   0  0  0  0  0  0  0  0  0  0  0  0
   -1.2447   26.2399  -26.9534 H   0  0  0  0  0  0  0  0  0  0  0  0
    0.1991   26.2796  -28.0214 H   0  0  0  0  0  0  0  0  0  0  0  0
   -0.9561   27.6551  -28.0214 H   0  0  0  0  0  0  0  0  0  0  0  0
   -0.4081   23.9774  -27.7065 H   0  0  0  0  0  0  0  0  0  0  0  0
   -1.5810   20.3447  -25.6788 H   0  0  0  0  0  0  0  0  0  0  0  0
   -2.6953   20.1464  -27.0736 H   0  0  0  0  0  0  0  0  0  0  0  0
   -1.1004   19.3201  -27.0736 H   0  0  0  0  0  0  0  0  0  0  0  0
   -3.3027   20.9139  -28.6700 H   0  0  0  0  0  0  0  0  0  0  0  0
   -6.2830   20.1246  -33.1770 H   0  0  0  0  0  0  0  0  0  0  0  0
   -8.7982   20.1765  -33.3771 H   0  0  0  0  0  0  0  0  0  0  0  0
  -10.1580   21.5588  -31.7868 H   0  0  0  0  0  0  0  0  0  0  0  0
   -9.0148   22.9046  -29.9824 H   0  0  0  0  0  0  0  0  0  0  0  0
   -6.5050   23.5070  -28.9910 H   0  0  0  0  0  0  0  0  0  0  0  0
   -3.8712   24.9583  -30.1063 H   0  0  0  0  0  0  0  0  0  0  0  0
  1  2  1  0
  2  3  1  0
  3  4  2  0
  4  5  1  0
  5  6  1  0
  6  7  1  0
  5  8  2  0
  8  9  1  0
  9 10  1  0
 10 11  2  0
 11 12  1  0
 12 13  2  0
 13 14  1  0
 14 15  2  0
 15 16  1  0
 16 17  2  0
 17 18  1  0
  9 19  2  0
 19  3  1  0
 18 10  1  0
 17 12  1  0
  1 20  1  0
  1 21  1  0
  1 22  1  0
  4 23  1  0
  7 24  1  0
  7 25  1  0
  7 26  1  0
  8 27  1  0
 13 28  1  0
 14 29  1  0
 15 30  1  0
 16 31  1  0
 18 32  1  0
 19 33  1  0
M  END
>  <UniqueID>  (20) 
19

>  <SMILES>  (20) 
COc1cc(OC)cc(-c2nc3ccccc3[nH]2)c1

>  <Energy>  (20) 
72.327014932042

>  <Genealogy>  (20) 
COc1cc(OC)cc(-c2nc3ccccc3[nH]2)c1 (3D coordinates assigned)
COc1cc(OC)cc(-c2nc3ccccc3[nH]2)c1 (optimized conformer: 72.327014932042 kcal/mol)

>  <smiles>  (20) 
COc1cc(OC)cc(-c2nc3ccccc3[nH]2)c1

>  <score_type>  (20) 
oracle

>  <origin>  (20) 
adg

>  <m_score__min__energy>  (20) 
-6.29

>  <m_primary>  (20) 
energy

$$$$
20:0
     RDKit          3D

 49 52  0  0  0  0  0  0  0  0999 V2000
   -6.4400   25.6820  -29.5950 C   0  0  0  0  0  0  0  0  0  0  0  0
   -6.1360   24.4750  -30.4420 C   0  0  0  0  0  0  0  0  0  0  0  0
   -7.1910   23.6460  -30.8510 C   0  0  0  0  0  0  0  0  0  0  0  0
   -6.9410   22.4900  -31.5930 C   0  0  0  0  0  0  0  0  0  0  0  0
   -5.6290   22.1400  -31.9410 C   0  0  0  0  0  0  0  0  0  0  0  0
   -5.3690   20.9070  -32.7130 C   0  0  0  0  0  0  0  0  0  0  0  0
   -6.3550   20.1260  -33.2360 N   0  0  0  0  0  0  0  0  0  0  0  0
   -5.6480   19.1520  -33.8320 C   0  0  0  0  0  0  0  0  0  0  0  0
   -6.1170   18.0520  -34.5410 C   0  0  0  0  0  0  0  0  0  0  0  0
   -5.1960   17.1860  -35.0610 N   0  0  0  0  0  0  0  0  0  0  0  0
   -3.8460   17.3770  -34.9020 C   0  0  0  0  0  0  0  0  0  0  0  0
   -3.3660   18.4910  -34.1840 C   0  0  0  0  0  0  0  0  0  0  0  0
   -1.6490   18.7660  -33.9600 Cl  0  0  0  0  0  0  0  0  0  0  0  0
   -4.3180   19.3590  -33.6620 C   0  0  0  0  0  0  0  0  0  0  0  0
   -4.1520   20.4510  -32.9660 O   0  0  0  0  0  0  0  0  0  0  0  0
   -4.5700   22.9770  -31.5510 C   0  0  0  0  0  0  0  0  0  0  0  0
   -4.8150   24.1550  -30.8340 C   0  0  0  0  0  0  0  0  0  0  0  0
   -3.6990   24.9810  -30.4780 N   0  0  0  0  0  0  0  0  0  0  0  0
   -2.9750   24.8540  -29.2510 C   0  0  0  0  0  0  0  0  0  0  0  0
   -1.7880   25.2730  -29.1630 O   0  0  0  0  0  0  0  0  0  0  0  0
   -3.6000   24.1370  -28.0920 C   0  0  0  0  0  0  0  0  0  0  0  0
   -2.9540   22.8280  -27.8620 N   0  0  0  0  0  0  0  0  0  0  0  0
   -1.6970   22.9990  -27.1160 C   0  0  0  0  0  0  0  0  0  0  0  0
   -1.1480   21.6260  -26.6810 C   0  0  0  0  0  0  0  0  0  0  0  0
   -1.4940   20.5310  -27.6180 N   0  0  0  0  0  0  0  0  0  0  0  0
   -2.6720   19.7660  -27.1720 C   0  0  0  0  0  0  0  0  0  0  0  0
   -1.6410   21.0080  -29.0050 C   0  0  0  0  0  0  0  0  0  0  0  0
   -2.7110   22.1160  -29.1390 C   0  0  0  0  0  0  0  0  0  0  0  0
   -6.3715   25.4102  -28.5313 H   0  0  0  0  0  0  0  0  0  0  0  0
   -5.7143   26.4782  -29.8174 H   0  0  0  0  0  0  0  0  0  0  0  0
   -7.4562   26.0395  -29.8174 H   0  0  0  0  0  0  0  0  0  0  0  0
   -8.2253   23.9092  -30.5846 H   0  0  0  0  0  0  0  0  0  0  0  0
   -7.7789   21.8499  -31.9065 H   0  0  0  0  0  0  0  0  0  0  0  0
   -7.1952   17.8838  -34.6792 H   0  0  0  0  0  0  0  0  0  0  0  0
   -3.1360   16.6579  -35.3366 H   0  0  0  0  0  0  0  0  0  0  0  0
   -3.5368   22.7040  -31.8117 H   0  0  0  0  0  0  0  0  0  0  0  0
   -3.4921   24.7542  -27.1879 H   0  0  0  0  0  0  0  0  0  0  0  0
   -4.6623   23.9658  -28.3203 H   0  0  0  0  0  0  0  0  0  0  0  0
   -0.9577   23.4994  -27.7587 H   0  0  0  0  0  0  0  0  0  0  0  0
   -1.8895   23.6095  -26.2214 H   0  0  0  0  0  0  0  0  0  0  0  0
   -0.0522   21.6940  -26.6133 H   0  0  0  0  0  0  0  0  0  0  0  0
   -1.6097   21.3832  -25.7125 H   0  0  0  0  0  0  0  0  0  0  0  0
   -2.7019   19.7466  -26.0726 H   0  0  0  0  0  0  0  0  0  0  0  0
   -3.5859   20.2434  -27.5553 H   0  0  0  0  0  0  0  0  0  0  0  0
   -2.6075   18.7369  -27.5553 H   0  0  0  0  0  0  0  0  0  0  0  0
   -0.6743   21.4080  -29.3450 H   0  0  0  0  0  0  0  0  0  0  0  0
   -1.9640   20.1549  -29.6197 H   0  0  0  0  0  0  0  0  0  0  0  0
   -2.3721   22.8446  -29.8902 H   0  0  0  0  0  0  0  0  0  0  0  0
   -3.6541   21.6354  -29.4383 H   0  0  0  0  0  0  0  0  0  0  0  0
  1  2  1  0
  2  3  2  0
  3  4  1  0
  4  5  2  0
  5  6  1  0
  6  7  2  0
  7  8  1  0
  8  9  2  0
  9 10  1  0
 10 11  2  0
 11 12  1  0
 12 13  1  0
 12 14  2  0
 14 15  1  0
  5 16  1  0
 16 17  2  0
 17 18  1  0
 18 19  1  0
 19 20  2  0
 19 21  1  0
 21 22  1  0
 22 23  1  0
 23 24  1  0
 24 25  1  0
 25 26  1  0
 25 27  1  0
 27 28  1  0
 17  2  1  0
 28 22  1  0
 15  6  1  0
 14  8  1  0
  1 29  1  0
  1 30  1  0
  1 31  1  0
  3 32  1  0
  4 33  1  0
  9 34  1  0
 11 35  1  0
 16 36  1  0
 21 37  1  0
 21 38  1  0
 23 39  1  0
 23 40  1  0
 24 41  1  0
 24 42  1  0
 26 43  1  0
 26 44  1  0
 26 45  1  0
 27 46  1  0
 27 47  1  0
 28 48  1  0
 28 49  1  0
M  CHG  1  18  -1
M  END
>  <UniqueID>  (21) 
20

>  <SMILES>  (21) 
Cc1ccc(-c2nc3cncc(Cl)c3o2)cc1[N-]C(=O)CN1CCN(C)CC1

>  <Energy>  (21) 
107.6220062791429

>  <Genealogy>  (21) 
Cc1ccc(-c2nc3cncc(Cl)c3o2)cc1[N-]C(=O)CN1CCN(C)CC1 (protonated)
Cc1ccc(-c2nc3cncc(Cl)c3o2)cc1[N-]C(=O)CN1CCN(C)CC1 (3D coordinates assigned)
Cc1ccc(-c2nc3cncc(Cl)c3o2)cc1[N-]C(=O)CN1CCN(C)CC1 (nonaromatic ring conformer: 107.6220062791429 kcal/mol)

>  <smiles>  (21) 
Cc1ccc(-c2nc3cncc(Cl)c3o2)cc1NC(=O)CN1CCN(C)CC1

>  <score_type>  (21) 
oracle

>  <origin>  (21) 
adg

>  <m_score__min__energy>  (21) 
-10.65

>  <m_primary>  (21) 
energy

$$$$
21:0
     RDKit          3D

 43 46  0  0  0  0  0  0  0  0999 V2000
   -0.2250   22.1490  -26.5320 C   0  0  0  0  0  0  0  0  0  0  0  0
    0.4160   23.3530  -26.1280 O   0  0  0  0  0  0  0  0  0  0  0  0
   -0.2580   24.5020  -25.6870 C   0  0  0  0  0  0  0  0  0  0  0  0
   -0.2670   24.8560  -24.3650 N   0  0  0  0  0  0  0  0  0  0  0  0
   -0.9120   25.9710  -23.9270 C   0  0  0  0  0  0  0  0  0  0  0  0
   -1.5750   26.7990  -24.8300 C   0  0  0  0  0  0  0  0  0  0  0  0
   -1.5790   26.4700  -26.1830 C   0  0  0  0  0  0  0  0  0  0  0  0
   -0.9380   25.3040  -26.6280 C   0  0  0  0  0  0  0  0  0  0  0  0
   -0.9470   24.9640  -28.1020 C   0  0  0  0  0  0  0  0  0  0  0  0
   -2.3170   24.9080  -28.6170 N   0  0  0  0  0  0  0  0  0  0  0  0
   -2.7920   23.9280  -29.5600 C   0  0  0  0  0  0  0  0  0  0  0  0
   -1.8780   23.0320  -30.1360 C   0  0  0  0  0  0  0  0  0  0  0  0
   -2.3090   22.0680  -31.0510 C   0  0  0  0  0  0  0  0  0  0  0  0
   -3.6570   21.9950  -31.4100 C   0  0  0  0  0  0  0  0  0  0  0  0
   -4.5830   22.8940  -30.8630 C   0  0  0  0  0  0  0  0  0  0  0  0
   -6.0090   22.8030  -31.2360 C   0  0  0  0  0  0  0  0  0  0  0  0
   -6.7890   23.9220  -31.2730 N   0  0  0  0  0  0  0  0  0  0  0  0
   -8.2950   23.4220  -31.7780 S   0  0  0  0  0  0  0  0  0  0  0  0
   -7.9970   21.7980  -31.9490 C   0  0  0  0  0  0  0  0  0  0  0  0
   -8.8460   20.7640  -32.3270 C   0  0  0  0  0  0  0  0  0  0  0  0
   -8.3270   19.4610  -32.3380 C   0  0  0  0  0  0  0  0  0  0  0  0
   -6.9910   19.2260  -31.9590 C   0  0  0  0  0  0  0  0  0  0  0  0
   -6.1560   20.2930  -31.5810 C   0  0  0  0  0  0  0  0  0  0  0  0
   -6.6710   21.5980  -31.5970 C   0  0  0  0  0  0  0  0  0  0  0  0
   -4.1510   23.8390  -29.9180 C   0  0  0  0  0  0  0  0  0  0  0  0
   -0.5286   21.5787  -25.6417 H   0  0  0  0  0  0  0  0  0  0  0  0
   -1.1138   22.3907  -27.1333 H   0  0  0  0  0  0  0  0  0  0  0  0
    0.4718   21.5466  -27.1333 H   0  0  0  0  0  0  0  0  0  0  0  0
    0.2160   24.2670  -23.6520 H   0  0  0  0  0  0  0  0  0  0  0  0
   -0.9099   26.2197  -22.8555 H   0  0  0  0  0  0  0  0  0  0  0  0
   -2.0906   27.7044  -24.4774 H   0  0  0  0  0  0  0  0  0  0  0  0
   -2.0864   27.1264  -26.9053 H   0  0  0  0  0  0  0  0  0  0  0  0
   -0.3864   25.7338  -28.6526 H   0  0  0  0  0  0  0  0  0  0  0  0
   -0.4798   23.9775  -28.2380 H   0  0  0  0  0  0  0  0  0  0  0  0
   -2.9910   25.6280  -28.2650 H   0  0  0  0  0  0  0  0  0  0  0  0
   -0.8135   23.0892  -29.8648 H   0  0  0  0  0  0  0  0  0  0  0  0
   -1.5853   21.3651  -31.4895 H   0  0  0  0  0  0  0  0  0  0  0  0
   -3.9931   21.2292  -32.1246 H   0  0  0  0  0  0  0  0  0  0  0  0
   -9.8909   20.9614  -32.6083 H   0  0  0  0  0  0  0  0  0  0  0  0
   -8.9659   18.6194  -32.6438 H   0  0  0  0  0  0  0  0  0  0  0  0
   -6.5971   18.1990  -31.9586 H   0  0  0  0  0  0  0  0  0  0  0  0
   -5.1152   20.1071  -31.2775 H   0  0  0  0  0  0  0  0  0  0  0  0
   -4.8819   24.5167  -29.4527 H   0  0  0  0  0  0  0  0  0  0  0  0
  1  2  1  0
  2  3  1  0
  3  4  2  0
  4  5  1  0
  5  6  2  0
  6  7  1  0
  7  8  2  0
  8  9  1  0
  9 10  1  0
 10 11  1  0
 11 12  2  0
 12 13  1  0
 13 14  2  0
 14 15  1  0
 15 16  1  0
 16 17  2  0
 17 18  1  0
 18 19  1  0
 19 20  2  0
 20 21  1  0
 21 22  2  0
 22 23  1  0
 23 24  2  0
 15 25  2  0
  8  3  1  0
 25 11  1  0
 24 16  1  0
 24 19  1  0
  1 26  1  0
  1 27  1  0
  1 28  1  0
  4 29  1  0
  5 30  1  0
  6 31  1  0
  7 32  1  0
  9 33  1  0
  9 34  1  0
 10 35  1  0
 12 36  1  0
 13 37  1  0
 14 38  1  0
 20 39  1  0
 21 40  1  0
 22 41  1  0
 23 42  1  0
 25 43  1  0
M  CHG  1   4   1
M  END
>  <UniqueID>  (22) 
21

>  <SMILES>  (22) 
COc1[nH+]cccc1CNc1cccc(-c2nsc3ccccc23)c1

>  <Energy>  (22) 
86.61959369872106

>  <Genealogy>  (22) 
COc1[nH+]cccc1CNc1cccc(-c2nsc3ccccc23)c1 (protonated)
COc1[nH+]cccc1CNc1cccc(-c2nsc3ccccc23)c1 (3D coordinates assigned)
COc1[nH+]cccc1CNc1cccc(-c2nsc3ccccc23)c1 (optimized conformer: 86.61959369872106 kcal/mol)

>  <smiles>  (22) 
COc1ncccc1CNc1cccc(-c2nsc3ccccc23)c1

>  <score_type>  (22) 
oracle

>  <origin>  (22) 
adg

>  <m_score__min__energy>  (22) 
-9.1400000000000006

>  <m_primary>  (22) 
energy

$$$$
22:0
     RDKit          3D

 46 49  0  0  0  0  0  0  0  0999 V2000
   -8.9370   23.0520  -31.9780 C   0  0  0  0  0  0  0  0  0  0  0  0
   -7.6000   23.3850  -32.3380 O   0  0  0  0  0  0  0  0  0  0  0  0
   -6.5750   23.6730  -31.4230 C   0  0  0  0  0  0  0  0  0  0  0  0
   -6.8170   24.4070  -30.2450 C   0  0  0  0  0  0  0  0  0  0  0  0
   -5.7760   24.6940  -29.3610 C   0  0  0  0  0  0  0  0  0  0  0  0
   -4.4680   24.2650  -29.6330 C   0  0  0  0  0  0  0  0  0  0  0  0
   -3.3590   24.5830  -28.6970 C   0  0  0  0  0  0  0  0  0  0  0  0
   -3.3140   24.2340  -27.3450 C   0  0  0  0  0  0  0  0  0  0  0  0
   -2.1160   24.7310  -26.8830 C   0  0  0  0  0  0  0  0  0  0  0  0
   -1.5410   24.6790  -25.6160 C   0  0  0  0  0  0  0  0  0  0  0  0
   -0.2850   25.2890  -25.4400 C   0  0  0  0  0  0  0  0  0  0  0  0
    0.3570   25.9290  -26.5230 C   0  0  0  0  0  0  0  0  0  0  0  0
   -0.2500   25.9630  -27.7920 C   0  0  0  0  0  0  0  0  0  0  0  0
   -1.4940   25.3480  -27.9350 C   0  0  0  0  0  0  0  0  0  0  0  0
   -2.2390   25.2660  -29.0490 N   0  0  0  0  0  0  0  0  0  0  0  0
   -4.2240   23.5290  -30.8040 C   0  0  0  0  0  0  0  0  0  0  0  0
   -5.2680   23.2180  -31.6950 C   0  0  0  0  0  0  0  0  0  0  0  0
   -4.9820   22.4820  -32.9040 N   0  0  0  0  0  0  0  0  0  0  0  0
   -4.4310   21.1610  -32.5720 C   0  0  0  0  0  0  0  0  0  0  0  0
   -5.5120   20.1120  -32.6210 C   0  0  0  0  0  0  0  0  0  0  0  0
   -5.1820   18.7630  -32.8350 C   0  0  0  0  0  0  0  0  0  0  0  0
   -6.1840   17.7870  -32.8450 C   0  0  0  0  0  0  0  0  0  0  0  0
   -7.5160   18.1480  -32.6280 C   0  0  0  0  0  0  0  0  0  0  0  0
   -7.8500   19.4860  -32.3980 C   0  0  0  0  0  0  0  0  0  0  0  0
   -6.8510   20.4650  -32.3890 C   0  0  0  0  0  0  0  0  0  0  0  0
   -9.0268   23.0296  -30.8819 H   0  0  0  0  0  0  0  0  0  0  0  0
   -9.6255   23.8061  -32.3870 H   0  0  0  0  0  0  0  0  0  0  0  0
   -9.1914   22.0631  -32.3870 H   0  0  0  0  0  0  0  0  0  0  0  0
   -7.8353   24.7569  -30.0201 H   0  0  0  0  0  0  0  0  0  0  0  0
   -5.9829   25.2621  -28.4420 H   0  0  0  0  0  0  0  0  0  0  0  0
   -4.0730   23.6808  -26.7724 H   0  0  0  0  0  0  0  0  0  0  0  0
   -2.0515   24.1778  -24.7804 H   0  0  0  0  0  0  0  0  0  0  0  0
    0.1997   25.2672  -24.4528 H   0  0  0  0  0  0  0  0  0  0  0  0
    1.3379   26.4039  -26.3735 H   0  0  0  0  0  0  0  0  0  0  0  0
    0.2402   26.4582  -28.6432 H   0  0  0  0  0  0  0  0  0  0  0  0
   -2.0020   25.6720  -29.9810 H   0  0  0  0  0  0  0  0  0  0  0  0
   -3.2016   23.1906  -31.0281 H   0  0  0  0  0  0  0  0  0  0  0  0
   -5.8590   22.3640  -33.4650 H   0  0  0  0  0  0  0  0  0  0  0  0
   -4.3010   23.0140  -33.4960 H   0  0  0  0  0  0  0  0  0  0  0  0
   -3.6441   20.9043  -33.2965 H   0  0  0  0  0  0  0  0  0  0  0  0
   -4.0131   21.1947  -31.5550 H   0  0  0  0  0  0  0  0  0  0  0  0
   -4.1329   18.4737  -32.9951 H   0  0  0  0  0  0  0  0  0  0  0  0
   -5.9227   16.7336  -33.0240 H   0  0  0  0  0  0  0  0  0  0  0  0
   -8.3025   17.3791  -32.6381 H   0  0  0  0  0  0  0  0  0  0  0  0
   -8.8987   19.7689  -32.2241 H   0  0  0  0  0  0  0  0  0  0  0  0
   -7.1155   21.5158  -32.1994 H   0  0  0  0  0  0  0  0  0  0  0  0
  1  2  1  0
  2  3  1  0
  3  4  2  0
  4  5  1  0
  5  6  2  0
  6  7  1  0
  7  8  2  0
  8  9  1  0
  9 10  2  0
 10 11  1  0
 11 12  2  0
 12 13  1  0
 13 14  2  0
 14 15  1  0
  6 16  1  0
 16 17  2  0
 17 18  1  0
 18 19  1  0
 19 20  1  0
 20 21  2  0
 21 22  1  0
 22 23  2  0
 23 24  1  0
 24 25  2  0
 17  3  1  0
 25 20  1  0
 15  7  1  0
 14  9  1  0
  1 26  1  0
  1 27  1  0
  1 28  1  0
  4 29  1  0
  5 30  1  0
  8 31  1  0
 10 32  1  0
 11 33  1  0
 12 34  1  0
 13 35  1  0
 15 36  1  0
 16 37  1  0
 18 38  1  0
 18 39  1  0
 19 40  1  0
 19 41  1  0
 21 42  1  0
 22 43  1  0
 23 44  1  0
 24 45  1  0
 25 46  1  0
M  CHG  1  18   1
M  END
>  <UniqueID>  (23) 
22

>  <SMILES>  (23) 
COc1ccc(-c2cc3ccccc3[nH]2)cc1[NH2+]Cc1ccccc1

>  <Energy>  (23) 
85.44613044259013

>  <Genealogy>  (23) 
COc1ccc(-c2cc3ccccc3[nH]2)cc1[NH2+]Cc1ccccc1 (protonated)
COc1ccc(-c2cc3ccccc3[nH]2)cc1[NH2+]Cc1ccccc1 (3D coordinates assigned)
COc1ccc(-c2cc3ccccc3[nH]2)cc1[NH2+]Cc1ccccc1 (optimized conformer: 85.44613044259013 kcal/mol)

>  <smiles>  (23) 
COc1ccc(-c2cc3ccccc3[nH]2)cc1NCc1ccccc1

>  <score_type>  (23) 
oracle

>  <origin>  (23) 
adg

>  <m_score__min__energy>  (23) 
-8.6799999999999997

>  <m_primary>  (23) 
energy

$$$$
23:0
     RDKit          3D

 46 49  0  0  0  0  0  0  0  0999 V2000
   -9.3470   21.9230  -31.6510 C   0  0  0  0  0  0  0  0  0  0  0  0
   -7.9660   21.5830  -31.7080 O   0  0  0  0  0  0  0  0  0  0  0  0
   -6.9200   22.4620  -31.3870 C   0  0  0  0  0  0  0  0  0  0  0  0
   -7.1470   23.7420  -30.8450 C   0  0  0  0  0  0  0  0  0  0  0  0
   -6.0690   24.5770  -30.5350 C   0  0  0  0  0  0  0  0  0  0  0  0
   -4.7490   24.1440  -30.7540 C   0  0  0  0  0  0  0  0  0  0  0  0
   -3.6200   24.9840  -30.4760 N   0  0  0  0  0  0  0  0  0  0  0  0
   -2.7920   24.9210  -29.3080 C   0  0  0  0  0  0  0  0  0  0  0  0
   -1.6080   25.3550  -29.3380 O   0  0  0  0  0  0  0  0  0  0  0  0
   -3.3750   24.3820  -28.0360 C   0  0  0  0  0  0  0  0  0  0  0  0
   -2.4090   23.5510  -27.3080 N   0  0  0  0  0  0  0  0  0  0  0  0
   -1.3660   23.9440  -26.5200 C   0  0  0  0  0  0  0  0  0  0  0  0
   -1.0320   25.3440  -26.1840 C   0  0  0  0  0  0  0  0  0  0  0  0
   -0.2450   26.1280  -27.0460 C   0  0  0  0  0  0  0  0  0  0  0  0
    0.0550   27.4540  -26.7200 C   0  0  0  0  0  0  0  0  0  0  0  0
   -0.4390   28.0140  -25.5370 C   0  0  0  0  0  0  0  0  0  0  0  0
   -0.0300   29.8280  -25.0940 Br  0  0  0  0  0  0  0  0  0  0  0  0
   -1.2410   27.2490  -24.6840 C   0  0  0  0  0  0  0  0  0  0  0  0
   -1.5410   25.9200  -25.0090 C   0  0  0  0  0  0  0  0  0  0  0  0
   -0.6340   22.8910  -26.0710 N   0  0  0  0  0  0  0  0  0  0  0  0
   -1.2510   21.8120  -26.5770 C   0  0  0  0  0  0  0  0  0  0  0  0
   -0.9140   20.4710  -26.4130 C   0  0  0  0  0  0  0  0  0  0  0  0
   -1.7230   19.5120  -27.0510 C   0  0  0  0  0  0  0  0  0  0  0  0
   -2.8330   19.9140  -27.8280 C   0  0  0  0  0  0  0  0  0  0  0  0
   -3.1460   21.2790  -27.9720 C   0  0  0  0  0  0  0  0  0  0  0  0
   -2.3250   22.2050  -27.3250 C   0  0  0  0  0  0  0  0  0  0  0  0
   -4.5280   22.8810  -31.3150 C   0  0  0  0  0  0  0  0  0  0  0  0
   -5.6050   22.0440  -31.6210 C   0  0  0  0  0  0  0  0  0  0  0  0
   -9.6624   22.0007  -30.6001 H   0  0  0  0  0  0  0  0  0  0  0  0
   -9.5082   22.8877  -32.1544 H   0  0  0  0  0  0  0  0  0  0  0  0
   -9.9376   21.1434  -32.1544 H   0  0  0  0  0  0  0  0  0  0  0  0
   -8.1761   24.0861  -30.6649 H   0  0  0  0  0  0  0  0  0  0  0  0
   -6.2544   25.5777  -30.1177 H   0  0  0  0  0  0  0  0  0  0  0  0
   -3.6749   25.2246  -27.3957 H   0  0  0  0  0  0  0  0  0  0  0  0
   -4.2420   23.7559  -28.2934 H   0  0  0  0  0  0  0  0  0  0  0  0
    0.1369   25.6954  -27.9825 H   0  0  0  0  0  0  0  0  0  0  0  0
    0.6801   28.0576  -27.3944 H   0  0  0  0  0  0  0  0  0  0  0  0
   -1.6363   27.6912  -23.7576 H   0  0  0  0  0  0  0  0  0  0  0  0
   -2.1791   25.3241  -24.3398 H   0  0  0  0  0  0  0  0  0  0  0  0
    0.2090   22.9120  -25.4540 H   0  0  0  0  0  0  0  0  0  0  0  0
   -0.0465   20.1717  -25.8065 H   0  0  0  0  0  0  0  0  0  0  0  0
   -1.4897   18.4424  -26.9441 H   0  0  0  0  0  0  0  0  0  0  0  0
   -3.4565   19.1553  -28.3235 H   0  0  0  0  0  0  0  0  0  0  0  0
   -4.0075   21.6049  -28.5734 H   0  0  0  0  0  0  0  0  0  0  0  0
   -3.5002   22.5448  -31.5164 H   0  0  0  0  0  0  0  0  0  0  0  0
   -5.4173   21.0484  -32.0494 H   0  0  0  0  0  0  0  0  0  0  0  0
  1  2  1  0
  2  3  1  0
  3  4  2  0
  4  5  1  0
  5  6  2  0
  6  7  1  0
  7  8  1  0
  8  9  2  0
  8 10  1  0
 10 11  1  0
 11 12  1  0
 12 13  1  0
 13 14  2  0
 14 15  1  0
 15 16  2  0
 16 17  1  0
 16 18  1  0
 18 19  2  0
 12 20  2  0
 20 21  1  0
 21 22  2  0
 22 23  1  0
 23 24  2  0
 24 25  1  0
 25 26  2  0
  6 27  1  0
 27 28  2  0
 28  3  1  0
 26 11  1  0
 19 13  1  0
 26 21  1  0
  1 29  1  0
  1 30  1  0
  1 31  1  0
  4 32  1  0
  5 33  1  0
 10 34  1  0
 10 35  1  0
 14 36  1  0
 15 37  1  0
 18 38  1  0
 19 39  1  0
 20 40  1  0
 22 41  1  0
 23 42  1  0
 24 43  1  0
 25 44  1  0
 27 45  1  0
 28 46  1  0
M  CHG  2   7  -1  20   1
M  END
>  <UniqueID>  (24) 
23

>  <SMILES>  (24) 
COc1ccc([N-]C(=O)Cn2c(-c3ccc(Br)cc3)[nH+]c3ccccc32)cc1

>  <Energy>  (24) 
96.14175651722172

>  <Genealogy>  (24) 
COc1ccc([N-]C(=O)Cn2c(-c3ccc(Br)cc3)[nH+]c3ccccc32)cc1 (protonated)
COc1ccc([N-]C(=O)Cn2c(-c3ccc(Br)cc3)[nH+]c3ccccc32)cc1 (3D coordinates assigned)
COc1ccc([N-]C(=O)Cn2c(-c3ccc(Br)cc3)[nH+]c3ccccc32)cc1 (optimized conformer: 96.14175651722172 kcal/mol)

>  <smiles>  (24) 
COc1ccc(NC(=O)Cn2c(-c3ccc(Br)cc3)nc3ccccc32)cc1

>  <score_type>  (24) 
oracle

>  <origin>  (24) 
adg

>  <m_score__min__energy>  (24) 
-9.5600000000000005

>  <m_primary>  (24) 
energy

$$$$
24:0
     RDKit          3D

 53 55  0  0  0  0  0  0  0  0999 V2000
    1.9900   28.6840  -23.8730 C   0  0  0  0  0  0  0  0  0  0  0  0
    1.4550   27.5360  -23.0110 C   0  0  0  0  0  0  0  0  0  0  0  0
    0.9850   26.3840  -23.8140 N   0  0  2  0  0  0  0  0  0  0  0  0
    1.9260   26.1310  -24.9170 C   0  0  0  0  0  0  0  0  0  0  0  0
   -0.6160   26.6640  -24.4700 S   0  0  0  0  0  0  0  0  0  0  0  0
   -1.6170   26.7860  -23.3550 O   0  0  0  0  0  0  0  0  0  0  0  0
   -0.6310   27.9370  -25.2710 O   0  0  0  0  0  0  0  0  0  0  0  0
   -1.1120   25.3140  -25.4920 C   0  0  0  0  0  0  0  0  0  0  0  0
   -0.4420   24.0860  -25.4290 C   0  0  0  0  0  0  0  0  0  0  0  0
   -0.8600   23.0180  -26.2260 C   0  0  0  0  0  0  0  0  0  0  0  0
   -1.9480   23.1690  -27.0890 C   0  0  0  0  0  0  0  0  0  0  0  0
   -2.6270   24.3980  -27.1680 C   0  0  0  0  0  0  0  0  0  0  0  0
   -3.7910   24.5520  -28.0720 C   0  0  0  0  0  0  0  0  0  0  0  0
   -4.9250   24.8110  -27.5810 O   0  0  0  0  0  0  0  0  0  0  0  0
   -3.6500   24.4290  -29.4990 N   0  0  0  0  0  0  0  0  0  0  0  0
   -4.5180   25.1680  -30.3990 C   0  0  0  0  0  0  0  0  0  0  0  0
   -5.7060   24.2970  -30.8120 C   0  0  0  0  0  0  0  0  0  0  0  0
   -5.4030   22.8490  -30.9550 N   0  0  0  0  0  0  0  0  0  0  0  0
   -6.4650   21.9570  -31.4270 C   0  0  0  0  0  0  0  0  0  0  0  0
   -7.8200   22.1640  -31.0600 C   0  0  0  0  0  0  0  0  0  0  0  0
   -8.8290   21.3100  -31.5130 C   0  0  0  0  0  0  0  0  0  0  0  0
   -8.5190   20.2310  -32.3360 C   0  0  0  0  0  0  0  0  0  0  0  0
   -7.1960   19.9970  -32.7040 C   0  0  0  0  0  0  0  0  0  0  0  0
   -6.1790   20.8450  -32.2580 C   0  0  0  0  0  0  0  0  0  0  0  0
   -4.1310   22.2460  -30.4820 C   0  0  0  0  0  0  0  0  0  0  0  0
   -3.0420   23.2480  -30.0910 C   0  0  0  0  0  0  0  0  0  0  0  0
   -2.2080   25.4640  -26.3530 C   0  0  0  0  0  0  0  0  0  0  0  0
    2.3645   29.4876  -23.2219 H   0  0  0  0  0  0  0  0  0  0  0  0
    2.8089   28.3149  -24.5080 H   0  0  0  0  0  0  0  0  0  0  0  0
    1.1807   29.0737  -24.5080 H   0  0  0  0  0  0  0  0  0  0  0  0
    2.2595   27.1938  -22.3434 H   0  0  0  0  0  0  0  0  0  0  0  0
    0.5918   27.9203  -22.4477 H   0  0  0  0  0  0  0  0  0  0  0  0
    0.9520   25.5270  -23.2140 H   0  0  0  0  0  0  0  0  0  0  0  0
    2.9110   25.8662  -24.5052 H   0  0  0  0  0  0  0  0  0  0  0  0
    1.5519   25.3015  -25.5351 H   0  0  0  0  0  0  0  0  0  0  0  0
    2.0183   27.0362  -25.5351 H   0  0  0  0  0  0  0  0  0  0  0  0
    0.4150   23.9623  -24.7506 H   0  0  0  0  0  0  0  0  0  0  0  0
   -0.3309   22.0550  -26.1740 H   0  0  0  0  0  0  0  0  0  0  0  0
   -2.2754   22.3222  -27.7100 H   0  0  0  0  0  0  0  0  0  0  0  0
   -4.8874   26.0704  -29.8898 H   0  0  0  0  0  0  0  0  0  0  0  0
   -3.9495   25.4527  -31.2966 H   0  0  0  0  0  0  0  0  0  0  0  0
   -6.4916   24.4077  -30.0500 H   0  0  0  0  0  0  0  0  0  0  0  0
   -6.0123   24.6471  -31.8088 H   0  0  0  0  0  0  0  0  0  0  0  0
   -8.0804   23.0108  -30.4080 H   0  0  0  0  0  0  0  0  0  0  0  0
   -9.8731   21.4912  -31.2179 H   0  0  0  0  0  0  0  0  0  0  0  0
   -9.3171   19.5645  -32.6950 H   0  0  0  0  0  0  0  0  0  0  0  0
   -6.9507   19.1403  -33.3489 H   0  0  0  0  0  0  0  0  0  0  0  0
   -5.1392   20.6463  -32.5568 H   0  0  0  0  0  0  0  0  0  0  0  0
   -4.3549   21.6256  -29.6017 H   0  0  0  0  0  0  0  0  0  0  0  0
   -3.7294   21.6738  -31.3313 H   0  0  0  0  0  0  0  0  0  0  0  0
   -2.3621   22.7827  -29.3621 H   0  0  0  0  0  0  0  0  0  0  0  0
   -2.4780   23.5408  -30.9889 H   0  0  0  0  0  0  0  0  0  0  0  0
   -2.7445   26.4236  -26.3912 H   0  0  0  0  0  0  0  0  0  0  0  0
  1  2  1  0
  2  3  1  0
  3  4  1  0
  3  5  1  0
  5  6  2  0
  5  7  2  0
  5  8  1  0
  8  9  2  0
  9 10  1  0
 10 11  2  0
 11 12  1  0
 12 13  1  0
 13 14  2  0
 13 15  1  0
 15 16  1  0
 16 17  1  0
 17 18  1  0
 18 19  1  0
 19 20  2  0
 20 21  1  0
 21 22  2  0
 22 23  1  0
 23 24  2  0
 18 25  1  0
 25 26  1  0
 12 27  2  0
 27  8  1  0
 26 15  1  0
 24 19  1  0
  1 28  1  0
  1 29  1  0
  1 30  1  0
  2 31  1  0
  2 32  1  0
  3 33  1  1
  4 34  1  0
  4 35  1  0
  4 36  1  0
  9 37  1  0
 10 38  1  0
 11 39  1  0
 16 40  1  0
 16 41  1  0
 17 42  1  0
 17 43  1  0
 20 44  1  0
 21 45  1  0
 22 46  1  0
 23 47  1  0
 24 48  1  0
 25 49  1  0
 25 50  1  0
 26 51  1  0
 26 52  1  0
 27 53  1  0
M  CHG  1   3   1
M  END
>  <UniqueID>  (25) 
24

>  <SMILES>  (25) 
CC[N@H+](C)S(=O)(=O)c1cccc(C(=O)N2CCN(c3ccccc3)CC2)c1

>  <Energy>  (25) 
65.80098475899156

>  <Genealogy>  (25) 
CC[NH+](C)S(=O)(=O)c1cccc(C(=O)N2CCN(c3ccccc3)CC2)c1 (protonated)
CC[N@H+](C)S(=O)(=O)c1cccc(C(=O)N2CCN(c3ccccc3)CC2)c1 (chirality)
CC[N@H+](C)S(=O)(=O)c1cccc(C(=O)N2CCN(c3ccccc3)CC2)c1 (3D coordinates assigned)
CC[N@H+](C)S(=O)(=O)c1cccc(C(=O)N2CCN(c3ccccc3)CC2)c1 (nonaromatic ring conformer: 65.80098475899156 kcal/mol)

>  <smiles>  (25) 
CCN(C)S(=O)(=O)c1cccc(C(=O)N2CCN(c3ccccc3)CC2)c1

>  <score_type>  (25) 
oracle

>  <origin>  (25) 
adg

>  <m_score__min__energy>  (25) 
-8.7699999999999996

>  <m_primary>  (25) 
energy

$$$$
25:0
     RDKit          3D

 45 48  0  0  0  0  0  0  0  0999 V2000
   -0.7760   18.2690  -32.4710 C   0  0  0  0  0  0  0  0  0  0  0  0
   -0.9540   18.8730  -33.7460 O   0  0  0  0  0  0  0  0  0  0  0  0
   -1.7030   20.0400  -33.9330 C   0  0  0  0  0  0  0  0  0  0  0  0
   -1.1600   21.0530  -34.4550 O   0  0  0  0  0  0  0  0  0  0  0  0
   -3.1180   20.1250  -33.4740 C   0  0  0  0  0  0  0  0  0  0  0  0
   -4.0420   19.1740  -33.7680 C   0  0  0  0  0  0  0  0  0  0  0  0
   -3.7350   17.9590  -34.5950 C   0  0  0  0  0  0  0  0  0  0  0  0
   -5.3600   19.2980  -33.3170 O   0  0  0  0  0  0  0  0  0  0  0  0
   -5.8450   20.4380  -32.6790 C   0  0  0  0  0  0  0  0  0  0  0  0
   -7.2060   20.5310  -32.3860 C   0  0  0  0  0  0  0  0  0  0  0  0
   -7.7350   21.6790  -31.7750 C   0  0  0  0  0  0  0  0  0  0  0  0
   -9.2120   21.7370  -31.4810 C   0  0  0  0  0  0  0  0  0  0  0  0
   -6.8670   22.7510  -31.4560 C   0  0  0  0  0  0  0  0  0  0  0  0
   -7.3190   23.9340  -30.8450 C   0  0  0  0  0  0  0  0  0  0  0  0
   -6.4140   24.9510  -30.5480 C   0  0  0  0  0  0  0  0  0  0  0  0
   -5.0680   24.7710  -30.8660 C   0  0  0  0  0  0  0  0  0  0  0  0
   -4.2330   25.6760  -30.6040 O   0  0  0  0  0  0  0  0  0  0  0  0
   -4.6600   23.6470  -31.4430 O   0  0  0  0  0  0  0  0  0  0  0  0
   -5.4840   22.6460  -31.7480 C   0  0  0  0  0  0  0  0  0  0  0  0
   -4.9740   21.4820  -32.3550 C   0  0  0  0  0  0  0  0  0  0  0  0
   -3.4870   21.3190  -32.5990 C   0  0  1  0  0  0  0  0  0  0  0  0
   -2.7590   21.2180  -31.2730 C   0  0  0  0  0  0  0  0  0  0  0  0
   -3.4320   20.7630  -30.1260 C   0  0  0  0  0  0  0  0  0  0  0  0
   -2.7610   20.6650  -28.9040 C   0  0  0  0  0  0  0  0  0  0  0  0
   -1.4120   21.0220  -28.8130 C   0  0  0  0  0  0  0  0  0  0  0  0
   -0.4980   20.8880  -27.1420 Br  0  0  0  0  0  0  0  0  0  0  0  0
   -0.7340   21.4770  -29.9470 C   0  0  0  0  0  0  0  0  0  0  0  0
   -1.4010   21.5770  -31.1710 C   0  0  0  0  0  0  0  0  0  0  0  0
   -0.9930   19.0052  -31.6830 H   0  0  0  0  0  0  0  0  0  0  0  0
   -1.4602   17.4134  -32.3719 H   0  0  0  0  0  0  0  0  0  0  0  0
    0.2628   17.9212  -32.3719 H   0  0  0  0  0  0  0  0  0  0  0  0
   -3.5201   17.1085  -33.9314 H   0  0  0  0  0  0  0  0  0  0  0  0
   -4.6008   17.7192  -35.2298 H   0  0  0  0  0  0  0  0  0  0  0  0
   -2.8592   18.1592  -35.2298 H   0  0  0  0  0  0  0  0  0  0  0  0
   -7.8735   19.6935  -32.6371 H   0  0  0  0  0  0  0  0  0  0  0  0
   -9.3692   21.7432  -30.3923 H   0  0  0  0  0  0  0  0  0  0  0  0
   -9.6372   22.6525  -31.9181 H   0  0  0  0  0  0  0  0  0  0  0  0
   -9.7077   20.8576  -31.9181 H   0  0  0  0  0  0  0  0  0  0  0  0
   -8.3848   24.0563  -30.6020 H   0  0  0  0  0  0  0  0  0  0  0  0
   -6.7557   25.8811  -30.0703 H   0  0  0  0  0  0  0  0  0  0  0  0
   -3.1744   22.2142  -33.1566 H   0  0  0  0  0  0  0  0  0  0  0  0
   -4.4936   20.4823  -30.1906 H   0  0  0  0  0  0  0  0  0  0  0  0
   -3.2952   20.3063  -28.0118 H   0  0  0  0  0  0  0  0  0  0  0  0
    0.3274   21.7572  -29.8761 H   0  0  0  0  0  0  0  0  0  0  0  0
   -0.8624   21.9381  -32.0596 H   0  0  0  0  0  0  0  0  0  0  0  0
  1  2  1  0
  2  3  1  0
  3  4  2  0
  3  5  1  0
  5  6  2  0
  6  7  1  0
  6  8  1  0
  8  9  1  0
  9 10  2  0
 10 11  1  0
 11 12  1  0
 11 13  2  0
 13 14  1  0
 14 15  2  0
 15 16  1  0
 16 17  2  0
 16 18  1  0
 18 19  1  0
 19 20  2  0
 20 21  1  0
 21 22  1  0
 22 23  2  0
 23 24  1  0
 24 25  2  0
 25 26  1  0
 25 27  1  0
 27 28  2  0
 21  5  1  0
 28 22  1  0
 20  9  1  0
 19 13  1  0
  1 29  1  0
  1 30  1  0
  1 31  1  0
  7 32  1  0
  7 33  1  0
  7 34  1  0
 10 35  1  0
 12 36  1  0
 12 37  1  0
 12 38  1  0
 14 39  1  0
 15 40  1  0
 21 41  1  6
 23 42  1  0
 24 43  1  0
 27 44  1  0
 28 45  1  0
M  END
>  <UniqueID>  (26) 
25

>  <SMILES>  (26) 
COC(=O)C1=C(C)Oc2cc(C)c3ccc(=O)oc3c2[C@H]1c1ccc(Br)cc1

>  <Energy>  (26) 
58.4249105032568

>  <Genealogy>  (26) 
COC(=O)C1=C(C)Oc2cc(C)c3ccc(=O)oc3c2[C@H]1c1ccc(Br)cc1 (chirality)
COC(=O)C1=C(C)Oc2cc(C)c3ccc(=O)oc3c2[C@H]1c1ccc(Br)cc1 (3D coordinates assigned)
COC(=O)C1=C(C)Oc2cc(C)c3ccc(=O)oc3c2[C@H]1c1ccc(Br)cc1 (nonaromatic ring conformer: 58.4249105032568 kcal/mol)

>  <smiles>  (26) 
COC(=O)C1=C(C)Oc2cc(C)c3ccc(=O)oc3c2C1c1ccc(Br)cc1

>  <score_type>  (26) 
oracle

>  <origin>  (26) 
adg

>  <m_score__min__energy>  (26) 
-9.5600000000000005

>  <m_primary>  (26) 
energy

$$$$
26:0
     RDKit          3D

 43 47  0  0  0  0  0  0  0  0999 V2000
   -4.8910   24.9450  -30.8580 O   0  0  0  0  0  0  0  0  0  0  0  0
   -4.2570   24.1800  -30.0840 C   0  0  0  0  0  0  0  0  0  0  0  0
   -3.4630   24.7260  -29.1170 N   0  0  0  0  0  0  0  0  0  0  0  0
   -2.7740   23.8930  -28.3030 C   0  0  0  0  0  0  0  0  0  0  0  0
   -1.8630   24.2270  -27.3680 N   0  0  0  0  0  0  0  0  0  0  0  0
   -1.4560   25.5360  -26.9280 C   0  0  0  0  0  0  0  0  0  0  0  0
   -0.8460   26.4210  -27.8350 C   0  0  0  0  0  0  0  0  0  0  0  0
   -0.4390   27.6920  -27.4200 C   0  0  0  0  0  0  0  0  0  0  0  0
   -0.6260   28.0900  -26.0940 C   0  0  0  0  0  0  0  0  0  0  0  0
   -1.2150   27.2130  -25.1800 C   0  0  0  0  0  0  0  0  0  0  0  0
   -1.6260   25.9400  -25.5900 C   0  0  0  0  0  0  0  0  0  0  0  0
   -1.3240   23.0900  -26.9310 N   0  0  0  0  0  0  0  0  0  0  0  0
   -1.9310   22.0750  -27.6000 C   0  0  0  0  0  0  0  0  0  0  0  0
   -1.5790   20.6460  -27.4270 C   0  0  0  0  0  0  0  0  0  0  0  0
   -2.4110   19.7670  -26.7070 C   0  0  0  0  0  0  0  0  0  0  0  0
   -2.0550   18.4240  -26.5540 C   0  0  0  0  0  0  0  0  0  0  0  0
   -0.8650   17.9460  -27.1070 C   0  0  0  0  0  0  0  0  0  0  0  0
   -0.0260   18.8110  -27.8100 C   0  0  0  0  0  0  0  0  0  0  0  0
   -0.3770   20.1560  -27.9660 C   0  0  0  0  0  0  0  0  0  0  0  0
   -2.8360   22.5750  -28.4630 N   0  0  0  0  0  0  0  0  0  0  0  0
   -3.5650   21.9870  -29.4070 N   0  0  0  0  0  0  0  0  0  0  0  0
   -4.3290   22.7640  -30.2310 C   0  0  0  0  0  0  0  0  0  0  0  0
   -5.1620   22.1050  -31.2650 C   0  0  0  0  0  0  0  0  0  0  0  0
   -6.5530   22.3140  -31.3260 C   0  0  0  0  0  0  0  0  0  0  0  0
   -7.3230   21.6670  -32.2970 C   0  0  0  0  0  0  0  0  0  0  0  0
   -6.7180   20.7980  -33.2080 C   0  0  0  0  0  0  0  0  0  0  0  0
   -5.3410   20.5700  -33.1450 C   0  0  0  0  0  0  0  0  0  0  0  0
   -4.5670   21.2130  -32.1760 C   0  0  0  0  0  0  0  0  0  0  0  0
   -0.6881   26.1106  -28.8784 H   0  0  0  0  0  0  0  0  0  0  0  0
    0.0295   28.3803  -28.1389 H   0  0  0  0  0  0  0  0  0  0  0  0
   -0.3099   29.0926  -25.7701 H   0  0  0  0  0  0  0  0  0  0  0  0
   -1.3561   27.5243  -24.1345 H   0  0  0  0  0  0  0  0  0  0  0  0
   -2.0838   25.2520  -24.8640 H   0  0  0  0  0  0  0  0  0  0  0  0
   -3.3459   20.1392  -26.2627 H   0  0  0  0  0  0  0  0  0  0  0  0
   -2.7138   17.7419  -25.9966 H   0  0  0  0  0  0  0  0  0  0  0  0
   -0.5893   16.8877  -26.9883 H   0  0  0  0  0  0  0  0  0  0  0  0
    0.9129   18.4348  -28.2422 H   0  0  0  0  0  0  0  0  0  0  0  0
    0.2925   20.8350  -28.5144 H   0  0  0  0  0  0  0  0  0  0  0  0
   -7.0366   22.9901  -30.6056 H   0  0  0  0  0  0  0  0  0  0  0  0
   -8.4079   21.8427  -32.3437 H   0  0  0  0  0  0  0  0  0  0  0  0
   -7.3251   20.2937  -33.9742 H   0  0  0  0  0  0  0  0  0  0  0  0
   -4.8653   19.8826  -33.8600 H   0  0  0  0  0  0  0  0  0  0  0  0
   -3.4852   21.0207  -32.1249 H   0  0  0  0  0  0  0  0  0  0  0  0
  1  2  2  0
  2  3  1  0
  3  4  2  0
  4  5  1  0
  5  6  1  0
  6  7  2  0
  7  8  1  0
  8  9  2  0
  9 10  1  0
 10 11  2  0
  5 12  1  0
 12 13  2  0
 13 14  1  0
 14 15  2  0
 15 16  1  0
 16 17  2  0
 17 18  1  0
 18 19  2  0
 13 20  1  0
 20 21  1  0
 21 22  2  0
 22 23  1  0
 23 24  2  0
 24 25  1  0
 25 26  2  0
 26 27  1  0
 27 28  2  0
 22  2  1  0
 28 23  1  0
 20  4  1  0
 11  6  1  0
 19 14  1  0
  7 29  1  0
  8 30  1  0
  9 31  1  0
 10 32  1  0
 11 33  1  0
 15 34  1  0
 16 35  1  0
 17 36  1  0
 18 37  1  0
 19 38  1  0
 24 39  1  0
 25 40  1  0
 26 41  1  0
 27 42  1  0
 28 43  1  0
M  END
>  <UniqueID>  (27) 
26

>  <SMILES>  (27) 
O=c1nc2n(-c3ccccc3)nc(-c3ccccc3)n2nc1-c1ccccc1

>  <Energy>  (27) 
109.67136873576574

>  <Genealogy>  (27) 
O=c1nc2n(-c3ccccc3)nc(-c3ccccc3)n2nc1-c1ccccc1 (3D coordinates assigned)
O=c1nc2n(-c3ccccc3)nc(-c3ccccc3)n2nc1-c1ccccc1 (optimized conformer: 109.67136873576574 kcal/mol)

>  <smiles>  (27) 
O=c1nc2n(-c3ccccc3)nc(-c3ccccc3)n2nc1-c1ccccc1

>  <score_type>  (27) 
oracle

>  <origin>  (27) 
adg

>  <m_score__min__energy>  (27) 
-8.6699999999999999

>  <m_primary>  (27) 
energy

$$$$
27:0
     RDKit          3D

 34 35  0  0  0  0  0  0  0  0999 V2000
   -7.1024   24.8722  -31.7607 H   0  0  0  0  0  0  0  0  0  0  0  0
   -6.0970   24.5260  -31.4790 C   0  0  0  0  0  0  0  0  0  0  0  0
   -5.1170   25.4190  -31.1880 N   0  0  0  0  0  0  0  0  0  0  0  0
   -3.8950   25.0150  -30.8430 N   0  0  0  0  0  0  0  0  0  0  0  0
   -3.5950   23.6900  -30.7670 C   0  0  0  0  0  0  0  0  0  0  0  0
   -2.4070   23.2900  -30.4280 N   0  0  0  0  0  0  0  0  0  0  0  0
   -1.9110   23.2720  -29.0530 C   0  0  0  0  0  0  0  0  0  0  0  0
   -0.8156   23.1713  -29.0603 H   0  0  0  0  0  0  0  0  0  0  0  0
   -2.3555   22.4214  -28.5155 H   0  0  0  0  0  0  0  0  0  0  0  0
   -2.2970   24.5720  -28.3520 C   0  0  0  0  0  0  0  0  0  0  0  0
   -1.9805   24.5250  -27.2996 H   0  0  0  0  0  0  0  0  0  0  0  0
   -3.3878   24.7012  -28.4110 H   0  0  0  0  0  0  0  0  0  0  0  0
   -1.6670   25.6730  -28.9810 O   0  0  0  0  0  0  0  0  0  0  0  0
   -0.8450   26.3600  -28.0630 C   0  0  0  0  0  0  0  0  0  0  0  0
   -1.1492   26.1058  -27.0369 H   0  0  0  0  0  0  0  0  0  0  0  0
    0.2035   26.0658  -28.2182 H   0  0  0  0  0  0  0  0  0  0  0  0
   -0.9484   27.4441  -28.2182 H   0  0  0  0  0  0  0  0  0  0  0  0
   -4.5540   22.7740  -31.0510 N   0  0  0  0  0  0  0  0  0  0  0  0
   -5.8080   23.1550  -31.4150 C   0  0  0  0  0  0  0  0  0  0  0  0
   -6.8310   22.1190  -31.7130 C   0  0  0  0  0  0  0  0  0  0  0  0
   -8.1700   22.2720  -31.3060 C   0  0  0  0  0  0  0  0  0  0  0  0
   -8.4732   23.1715  -30.7501 H   0  0  0  0  0  0  0  0  0  0  0  0
   -9.1160   21.2880  -31.6040 C   0  0  0  0  0  0  0  0  0  0  0  0
  -10.1589   21.4154  -31.2782 H   0  0  0  0  0  0  0  0  0  0  0  0
   -8.7450   20.1440  -32.3130 C   0  0  0  0  0  0  0  0  0  0  0  0
   -9.4943   19.3710  -32.5389 H   0  0  0  0  0  0  0  0  0  0  0  0
   -7.4150   19.9780  -32.7390 C   0  0  0  0  0  0  0  0  0  0  0  0
   -6.9910   18.8500  -33.4570 O   0  0  0  0  0  0  0  0  0  0  0  0
   -5.7370   18.7460  -34.1240 C   0  0  0  0  0  0  0  0  0  0  0  0
   -4.9301   18.6791  -33.3794 H   0  0  0  0  0  0  0  0  0  0  0  0
   -5.7304   17.8442  -34.7539 H   0  0  0  0  0  0  0  0  0  0  0  0
   -5.5819   19.6344  -34.7539 H   0  0  0  0  0  0  0  0  0  0  0  0
   -6.4700   20.9680  -32.4380 C   0  0  0  0  0  0  0  0  0  0  0  0
   -5.4299   20.8436  -32.7736 H   0  0  0  0  0  0  0  0  0  0  0  0
  1  2  1  0
  2  3  2  0
  3  4  1  0
  4  5  1  0
  5  6  2  0
  6  7  1  0
  7  8  1  0
  7  9  1  0
  7 10  1  0
 10 11  1  0
 10 12  1  0
 10 13  1  0
 13 14  1  0
 14 15  1  0
 14 16  1  0
 14 17  1  0
  5 18  1  0
 18 19  2  0
 19 20  1  0
 20 21  2  0
 21 22  1  0
 21 23  1  0
 23 24  1  0
 23 25  2  0
 25 26  1  0
 25 27  1  0
 27 28  1  0
 28 29  1  0
 29 30  1  0
 29 31  1  0
 29 32  1  0
 27 33  2  0
 33 34  1  0
 19  2  1  0
 33 20  1  0
M  CHG  1   4  -1
M  END
>  <UniqueID>  (28) 
27

>  <SMILES>  (28) 
COCC/N=c1/nc(-c2cccc(OC)c2)cn[n-]1

>  <Energy>  (28) 
38.39358803683468

>  <Genealogy>  (28) 
COCCN=c1nc(-c2cccc(OC)c2)cn[n-]1 (protonated)
COCC/N=c1/nc(-c2cccc(OC)c2)cn[n-]1 (cis-trans isomerization)
COCC/N=c1/nc(-c2cccc(OC)c2)cn[n-]1 (3D coordinates assigned)
COCC/N=c1/nc(-c2cccc(OC)c2)cn[n-]1 (optimized conformer: 38.39358803683468 kcal/mol)

>  <smiles>  (28) 
COCCN=c1nc(-c2cccc(OC)c2)cn[nH]1

>  <score_type>  (28) 
oracle

>  <origin>  (28) 
adg

>  <m_score__min__energy>  (28) 
-8.2400000000000002

>  <m_primary>  (28) 
energy

$$$$
28:0
     RDKit          3D

 46 49  0  0  0  0  0  0  0  0999 V2000
   -4.2230   25.6760  -31.7440 H   0  0  0  0  0  0  0  0  0  0  0  0
   -3.8500   25.6600  -30.8050 O   0  0  0  0  0  0  0  0  0  0  0  0
   -3.9740   24.5530  -29.9650 C   0  0  0  0  0  0  0  0  0  0  0  0
   -2.8850   24.2020  -29.1570 C   0  0  0  0  0  0  0  0  0  0  0  0
   -1.9405   24.7598  -29.2393 H   0  0  0  0  0  0  0  0  0  0  0  0
   -2.9920   23.1470  -28.2470 C   0  0  0  0  0  0  0  0  0  0  0  0
   -2.1298   22.8706  -27.6223 H   0  0  0  0  0  0  0  0  0  0  0  0
   -4.1910   22.4440  -28.1300 C   0  0  0  0  0  0  0  0  0  0  0  0
   -4.2799   21.6277  -27.3980 H   0  0  0  0  0  0  0  0  0  0  0  0
   -5.2790   22.7750  -28.9410 C   0  0  0  0  0  0  0  0  0  0  0  0
   -6.2267   22.2267  -28.8352 H   0  0  0  0  0  0  0  0  0  0  0  0
   -5.1700   23.8020  -29.8890 C   0  0  0  0  0  0  0  0  0  0  0  0
   -6.2870   24.0590  -30.7550 N   0  0  0  0  0  0  0  0  0  0  0  0
   -6.5690   23.4140  -31.8530 C   0  0  0  0  0  0  0  0  0  0  0  0
   -7.2752   23.8738  -32.5600 H   0  0  0  0  0  0  0  0  0  0  0  0
   -5.9890   22.0950  -32.1990 C   0  0  0  0  0  0  0  0  0  0  0  0
   -6.8480   21.0090  -32.3630 C   0  0  0  0  0  0  0  0  0  0  0  0
   -7.9271   21.1329  -32.1891 H   0  0  0  0  0  0  0  0  0  0  0  0
   -6.3440   19.7650  -32.7470 C   0  0  0  0  0  0  0  0  0  0  0  0
   -7.2140   18.6820  -32.9460 C   0  0  0  0  0  0  0  0  0  0  0  0
   -8.2933   18.8078  -32.7747 H   0  0  0  0  0  0  0  0  0  0  0  0
   -6.7160   17.4470  -33.3600 C   0  0  0  0  0  0  0  0  0  0  0  0
   -7.4018   16.6002  -33.5107 H   0  0  0  0  0  0  0  0  0  0  0  0
   -5.3490   17.2850  -33.5830 C   0  0  0  0  0  0  0  0  0  0  0  0
   -4.9607   16.3111  -33.9158 H   0  0  0  0  0  0  0  0  0  0  0  0
   -4.4700   18.3530  -33.3860 C   0  0  0  0  0  0  0  0  0  0  0  0
   -3.3942   18.2140  -33.5684 H   0  0  0  0  0  0  0  0  0  0  0  0
   -4.9510   19.6120  -32.9540 C   0  0  0  0  0  0  0  0  0  0  0  0
   -4.1070   20.6820  -32.7390 N   0  0  0  0  0  0  0  0  0  0  0  0
   -2.6820   20.5570  -32.9280 C   0  0  0  0  0  0  0  0  0  0  0  0
   -1.8150   20.6020  -31.8290 C   0  0  0  0  0  0  0  0  0  0  0  0
   -2.2226   20.7221  -30.8144 H   0  0  0  0  0  0  0  0  0  0  0  0
   -0.4340   20.4950  -32.0160 C   0  0  0  0  0  0  0  0  0  0  0  0
    0.2409   20.5249  -31.1479 H   0  0  0  0  0  0  0  0  0  0  0  0
    0.0960   20.3490  -33.3130 C   0  0  0  0  0  0  0  0  0  0  0  0
    1.4740   20.2380  -33.5540 O   0  0  0  0  0  0  0  0  0  0  0  0
    2.2980   19.1980  -33.0380 C   0  0  0  0  0  0  0  0  0  0  0  0
    2.2768   19.2248  -31.9385 H   0  0  0  0  0  0  0  0  0  0  0  0
    1.9230   18.2251  -33.3884 H   0  0  0  0  0  0  0  0  0  0  0  0
    3.3309   19.3406  -33.3884 H   0  0  0  0  0  0  0  0  0  0  0  0
   -0.7750   20.3110  -34.4080 C   0  0  0  0  0  0  0  0  0  0  0  0
   -0.3692   20.1976  -35.4241 H   0  0  0  0  0  0  0  0  0  0  0  0
   -2.1560   20.4160  -34.2210 C   0  0  0  0  0  0  0  0  0  0  0  0
   -2.8315   20.3881  -35.0887 H   0  0  0  0  0  0  0  0  0  0  0  0
   -4.6040   21.8990  -32.3430 C   0  0  0  0  0  0  0  0  0  0  0  0
   -3.8120   22.8490  -32.0800 O   0  0  0  0  0  0  0  0  0  0  0  0
  1  2  1  0
  2  3  1  0
  3  4  2  0
  4  5  1  0
  4  6  1  0
  6  7  1  0
  6  8  2  0
  8  9  1  0
  8 10  1  0
 10 11  1  0
 10 12  2  0
 12 13  1  0
 13 14  2  0
 14 15  1  0
 14 16  1  0
 16 17  2  0
 17 18  1  0
 17 19  1  0
 19 20  2  0
 20 21  1  0
 20 22  1  0
 22 23  1  0
 22 24  2  0
 24 25  1  0
 24 26  1  0
 26 27  1  0
 26 28  2  0
 28 29  1  0
 29 30  1  0
 30 31  2  0
 31 32  1  0
 31 33  1  0
 33 34  1  0
 33 35  2  0
 35 36  1  0
 36 37  1  0
 37 38  1  0
 37 39  1  0
 37 40  1  0
 35 41  1  0
 41 42  1  0
 41 43  2  0
 43 44  1  0
 29 45  1  0
 45 46  2  0
 12  3  1  0
 45 16  1  0
 28 19  1  0
 43 30  1  0
M  END
>  <UniqueID>  (29) 
28

>  <SMILES>  (29) 
COc1ccc(-n2c(=O)c(/C=N\c3ccccc3O)cc3ccccc32)cc1

>  <Energy>  (29) 
79.51407845711368

>  <Genealogy>  (29) 
COc1ccc(-n2c(=O)c(/C=N\c3ccccc3O)cc3ccccc32)cc1 (cis-trans isomerization)
COc1ccc(-n2c(=O)c(/C=N\c3ccccc3O)cc3ccccc32)cc1 (3D coordinates assigned)
COc1ccc(-n2c(=O)c(/C=N\c3ccccc3O)cc3ccccc32)cc1 (optimized conformer: 79.51407845711368 kcal/mol)

>  <smiles>  (29) 
COc1ccc(-n2c(=O)c(C=Nc3ccccc3O)cc3ccccc32)cc1

>  <score_type>  (29) 
oracle

>  <origin>  (29) 
adg

>  <m_score__min__energy>  (29) 
-10.609999999999999

>  <m_primary>  (29) 
energy

$$$$
29:0
     RDKit          3D

 41 43  0  0  0  0  0  0  0  0999 V2000
   -0.8580   26.7260  -27.8730 C   0  0  0  0  0  0  0  0  0  0  0  0
   -1.4370   25.9920  -28.9470 O   0  0  0  0  0  0  0  0  0  0  0  0
   -1.6630   24.6060  -28.9330 C   0  0  0  0  0  0  0  0  0  0  0  0
   -0.8780   23.7290  -28.1560 C   0  0  0  0  0  0  0  0  0  0  0  0
   -1.1300   22.3550  -28.1740 C   0  0  0  0  0  0  0  0  0  0  0  0
   -2.1540   21.8410  -28.9690 C   0  0  0  0  0  0  0  0  0  0  0  0
   -2.9370   22.7000  -29.7440 C   0  0  0  0  0  0  0  0  0  0  0  0
   -2.7090   24.0880  -29.7170 C   0  0  0  0  0  0  0  0  0  0  0  0
   -3.4830   24.9930  -30.5170 N   0  0  0  0  0  0  0  0  0  0  0  0
   -4.9020   25.1840  -30.4600 C   0  0  0  0  0  0  0  0  0  0  0  0
   -5.5180   25.7420  -31.4070 O   0  0  0  0  0  0  0  0  0  0  0  0
   -5.6750   24.6130  -29.3100 C   0  0  0  0  0  0  0  0  0  0  0  0
   -6.5260   23.4210  -29.7550 C   0  0  0  0  0  0  0  0  0  0  0  0
   -7.2040   23.7190  -31.0210 N   0  0  0  0  0  0  0  0  0  0  0  0
   -8.2640   22.4120  -31.4500 S   0  0  0  0  0  0  0  0  0  0  0  0
   -8.9790   21.9120  -30.2260 O   0  0  0  0  0  0  0  0  0  0  0  0
   -9.2960   22.9200  -32.4190 O   0  0  0  0  0  0  0  0  0  0  0  0
   -7.3540   21.1020  -32.2130 C   0  0  0  0  0  0  0  0  0  0  0  0
   -7.9890   19.8750  -32.4690 C   0  0  0  0  0  0  0  0  0  0  0  0
   -7.3000   18.8220  -33.0900 C   0  0  0  0  0  0  0  0  0  0  0  0
   -5.9620   18.9740  -33.4740 C   0  0  0  0  0  0  0  0  0  0  0  0
   -5.3190   20.1870  -33.2340 C   0  0  0  0  0  0  0  0  0  0  0  0
   -4.0290   20.4130  -33.5880 N   0  0  0  0  0  0  0  0  0  0  0  0
   -3.8540   21.9750  -33.0740 S   0  0  0  0  0  0  0  0  0  0  0  0
   -5.3100   22.4080  -32.4200 N   0  0  0  0  0  0  0  0  0  0  0  0
   -6.0130   21.2600  -32.6020 C   0  0  0  0  0  0  0  0  0  0  0  0
   -1.1934   26.3008  -26.9155 H   0  0  0  0  0  0  0  0  0  0  0  0
    0.2385   26.6658  -27.9369 H   0  0  0  0  0  0  0  0  0  0  0  0
   -1.1718   27.7783  -27.9369 H   0  0  0  0  0  0  0  0  0  0  0  0
   -0.0640   24.1285  -27.5333 H   0  0  0  0  0  0  0  0  0  0  0  0
   -0.5193   21.6770  -27.5597 H   0  0  0  0  0  0  0  0  0  0  0  0
   -2.3454   20.7579  -28.9859 H   0  0  0  0  0  0  0  0  0  0  0  0
   -3.7359   22.2890  -30.3786 H   0  0  0  0  0  0  0  0  0  0  0  0
   -4.9705   24.2812  -28.5331 H   0  0  0  0  0  0  0  0  0  0  0  0
   -6.3444   25.3928  -28.9177 H   0  0  0  0  0  0  0  0  0  0  0  0
   -5.8772   22.5430  -29.8896 H   0  0  0  0  0  0  0  0  0  0  0  0
   -7.2841   23.2173  -28.9844 H   0  0  0  0  0  0  0  0  0  0  0  0
   -6.4790   23.7820  -31.7730 H   0  0  0  0  0  0  0  0  0  0  0  0
   -9.0411   19.7379  -32.1785 H   0  0  0  0  0  0  0  0  0  0  0  0
   -7.8157   17.8685  -33.2768 H   0  0  0  0  0  0  0  0  0  0  0  0
   -5.4248   18.1458  -33.9593 H   0  0  0  0  0  0  0  0  0  0  0  0
  1  2  1  0
  2  3  1  0
  3  4  2  0
  4  5  1  0
  5  6  2  0
  6  7  1  0
  7  8  2  0
  8  9  1  0
  9 10  1  0
 10 11  2  0
 10 12  1  0
 12 13  1  0
 13 14  1  0
 14 15  1  0
 15 16  2  0
 15 17  2  0
 15 18  1  0
 18 19  2  0
 19 20  1  0
 20 21  2  0
 21 22  1  0
 22 23  2  0
 23 24  1  0
 24 25  1  0
 25 26  2  0
  8  3  1  0
 26 18  1  0
 26 22  1  0
  1 27  1  0
  1 28  1  0
  1 29  1  0
  4 30  1  0
  5 31  1  0
  6 32  1  0
  7 33  1  0
 12 34  1  0
 12 35  1  0
 13 36  1  0
 13 37  1  0
 14 38  1  0
 19 39  1  0
 20 40  1  0
 21 41  1  0
M  CHG  1   9  -1
M  END
>  <UniqueID>  (30) 
29

>  <SMILES>  (30) 
COc1ccccc1[N-]C(=O)CCNS(=O)(=O)c1cccc2nsnc12

>  <Energy>  (30) 
78.72082339393125

>  <Genealogy>  (30) 
COc1ccccc1[N-]C(=O)CCNS(=O)(=O)c1cccc2nsnc12 (protonated)
COc1ccccc1[N-]C(=O)CCNS(=O)(=O)c1cccc2nsnc12 (3D coordinates assigned)
COc1ccccc1[N-]C(=O)CCNS(=O)(=O)c1cccc2nsnc12 (optimized conformer: 78.72082339393125 kcal/mol)

>  <smiles>  (30) 
COc1ccccc1NC(=O)CCNS(=O)(=O)c1cccc2nsnc12

>  <score_type>  (30) 
oracle

>  <origin>  (30) 
adg

>  <m_score__min__energy>  (30) 
-11.699999999999999

>  <m_primary>  (30) 
energy

$$$$
30:0
     RDKit          3D

 53 56  0  0  0  0  0  0  0  0999 V2000
    0.4640   21.8850  -35.4820 C   0  0  0  0  0  0  0  0  0  0  0  0
    0.5730   21.7490  -34.0680 O   0  0  0  0  0  0  0  0  0  0  0  0
   -0.4200   21.1930  -33.2470 C   0  0  0  0  0  0  0  0  0  0  0  0
   -1.6910   20.9800  -33.7940 C   0  0  0  0  0  0  0  0  0  0  0  0
   -2.7160   20.4370  -33.0160 C   0  0  0  0  0  0  0  0  0  0  0  0
   -2.4790   20.1000  -31.6820 C   0  0  0  0  0  0  0  0  0  0  0  0
   -1.2110   20.2990  -31.1150 C   0  0  0  0  0  0  0  0  0  0  0  0
   -0.9600   19.9690  -29.6640 C   0  0  0  0  0  0  0  0  0  0  0  0
   -0.6740   21.1850  -28.8840 N   0  0  0  0  0  0  0  0  0  0  0  0
    0.6410   21.2740  -28.2110 C   0  0  0  0  0  0  0  0  0  0  0  0
    0.7350   22.4170  -27.1930 C   0  0  0  0  0  0  0  0  0  0  0  0
   -0.6970   22.3470  -26.0800 S   0  0  0  0  0  0  0  0  0  0  0  0
   -1.8020   22.8150  -27.4080 C   0  0  0  0  0  0  0  0  0  0  0  0
   -2.7160   23.8530  -27.2120 C   0  0  0  0  0  0  0  0  0  0  0  0
   -3.5800   24.2330  -28.2400 C   0  0  0  0  0  0  0  0  0  0  0  0
   -3.5290   23.5880  -29.4870 C   0  0  0  0  0  0  0  0  0  0  0  0
   -4.4270   23.9960  -30.5940 C   0  0  0  0  0  0  0  0  0  0  0  0
   -4.5830   25.2230  -30.8440 O   0  0  0  0  0  0  0  0  0  0  0  0
   -5.1090   23.0170  -31.3940 N   0  0  0  0  0  0  0  0  0  0  0  0
   -6.1790   23.3770  -32.3220 C   0  0  0  0  0  0  0  0  0  0  0  0
   -7.2320   22.3040  -32.3420 C   0  0  0  0  0  0  0  0  0  0  0  0
   -6.8930   20.9940  -32.7200 C   0  0  0  0  0  0  0  0  0  0  0  0
   -7.8620   19.9860  -32.7140 C   0  0  0  0  0  0  0  0  0  0  0  0
   -9.1730   20.2770  -32.3280 C   0  0  0  0  0  0  0  0  0  0  0  0
   -9.5160   21.5760  -31.9440 C   0  0  0  0  0  0  0  0  0  0  0  0
   -8.5500   22.5870  -31.9470 C   0  0  0  0  0  0  0  0  0  0  0  0
   -2.5780   22.5700  -29.6890 C   0  0  0  0  0  0  0  0  0  0  0  0
   -1.7120   22.1720  -28.6550 C   0  0  0  0  0  0  0  0  0  0  0  0
   -0.1850   20.8500  -31.9020 C   0  0  0  0  0  0  0  0  0  0  0  0
   -0.2078   22.7232  -35.7190 H   0  0  0  0  0  0  0  0  0  0  0  0
    1.4586   22.0801  -35.9093 H   0  0  0  0  0  0  0  0  0  0  0  0
    0.0570   20.9567  -35.9093 H   0  0  0  0  0  0  0  0  0  0  0  0
   -1.8839   21.2423  -34.8447 H   0  0  0  0  0  0  0  0  0  0  0  0
   -3.7115   20.2746  -33.4549 H   0  0  0  0  0  0  0  0  0  0  0  0
   -3.2906   19.6763  -31.0723 H   0  0  0  0  0  0  0  0  0  0  0  0
   -1.8518   19.4773  -29.2482 H   0  0  0  0  0  0  0  0  0  0  0  0
   -0.0868   19.3027  -29.6039 H   0  0  0  0  0  0  0  0  0  0  0  0
    0.8279   20.3253  -27.6865 H   0  0  0  0  0  0  0  0  0  0  0  0
    1.3893   21.4757  -28.9917 H   0  0  0  0  0  0  0  0  0  0  0  0
    1.6607   22.3130  -26.6080 H   0  0  0  0  0  0  0  0  0  0  0  0
    0.7446   23.3817  -27.7215 H   0  0  0  0  0  0  0  0  0  0  0  0
   -2.7549   24.3730  -26.2435 H   0  0  0  0  0  0  0  0  0  0  0  0
   -4.3056   25.0427  -28.0728 H   0  0  0  0  0  0  0  0  0  0  0  0
   -4.8140   22.0160  -31.3540 H   0  0  0  0  0  0  0  0  0  0  0  0
   -6.6335   24.3262  -32.0019 H   0  0  0  0  0  0  0  0  0  0  0  0
   -5.7569   23.4845  -33.3321 H   0  0  0  0  0  0  0  0  0  0  0  0
   -5.8613   20.7605  -33.0218 H   0  0  0  0  0  0  0  0  0  0  0  0
   -7.5919   18.9626  -33.0135 H   0  0  0  0  0  0  0  0  0  0  0  0
   -9.9349   19.4836  -32.3264 H   0  0  0  0  0  0  0  0  0  0  0  0
  -10.5480   21.8037  -31.6387 H   0  0  0  0  0  0  0  0  0  0  0  0
   -8.8230   23.6071  -31.6391 H   0  0  0  0  0  0  0  0  0  0  0  0
   -2.5112   22.0783  -30.6707 H   0  0  0  0  0  0  0  0  0  0  0  0
    0.8102   21.0146  -31.4632 H   0  0  0  0  0  0  0  0  0  0  0  0
  1  2  1  0
  2  3  1  0
  3  4  2  0
  4  5  1  0
  5  6  2  0
  6  7  1  0
  7  8  1  0
  8  9  1  0
  9 10  1  0
 10 11  1  0
 11 12  1  0
 12 13  1  0
 13 14  2  0
 14 15  1  0
 15 16  2  0
 16 17  1  0
 17 18  2  0
 17 19  1  0
 19 20  1  0
 20 21  1  0
 21 22  2  0
 22 23  1  0
 23 24  2  0
 24 25  1  0
 25 26  2  0
 16 27  1  0
 27 28  2  0
  7 29  2  0
 29  3  1  0
 28  9  1  0
 28 13  1  0
 26 21  1  0
  1 30  1  0
  1 31  1  0
  1 32  1  0
  4 33  1  0
  5 34  1  0
  6 35  1  0
  8 36  1  0
  8 37  1  0
 10 38  1  0
 10 39  1  0
 11 40  1  0
 11 41  1  0
 14 42  1  0
 15 43  1  0
 19 44  1  0
 20 45  1  0
 20 46  1  0
 22 47  1  0
 23 48  1  0
 24 49  1  0
 25 50  1  0
 26 51  1  0
 27 52  1  0
 29 53  1  0
M  END
>  <UniqueID>  (31) 
30

>  <SMILES>  (31) 
COc1cccc(CN2CCSc3ccc(C(=O)NCc4ccccc4)cc32)c1

>  <Energy>  (31) 
62.653147515888634

>  <Genealogy>  (31) 
COc1cccc(CN2CCSc3ccc(C(=O)NCc4ccccc4)cc32)c1 (3D coordinates assigned)
COc1cccc(CN2CCSc3ccc(C(=O)NCc4ccccc4)cc32)c1 (nonaromatic ring conformer: 62.653147515888634 kcal/mol)

>  <smiles>  (31) 
COc1cccc(CN2CCSc3ccc(C(=O)NCc4ccccc4)cc32)c1

>  <score_type>  (31) 
oracle

>  <origin>  (31) 
adg

>  <m_score__min__energy>  (31) 
-9.4600000000000009

>  <m_primary>  (31) 
energy

$$$$
31:0
     RDKit          3D

 33 35  0  0  0  0  0  0  0  0999 V2000
   -2.8970   22.6000  -31.6110 O   0  0  0  0  0  0  0  0  0  0  0  0
   -3.8150   23.3280  -31.1480 C   0  0  0  0  0  0  0  0  0  0  0  0
   -3.4560   24.5380  -30.4640 N   0  0  0  0  0  0  0  0  0  0  0  0
   -3.0180   24.6480  -29.1020 C   0  0  0  0  0  0  0  0  0  0  0  0
   -3.8970   24.4400  -28.0230 C   0  0  0  0  0  0  0  0  0  0  0  0
   -3.4330   24.5510  -26.7080 C   0  0  0  0  0  0  0  0  0  0  0  0
   -2.0900   24.8510  -26.4610 C   0  0  0  0  0  0  0  0  0  0  0  0
   -1.6420   24.9560  -25.1860 F   0  0  0  0  0  0  0  0  0  0  0  0
   -1.2080   25.0320  -27.5300 C   0  0  0  0  0  0  0  0  0  0  0  0
   -1.6700   24.9230  -28.8460 C   0  0  0  0  0  0  0  0  0  0  0  0
   -5.2260   22.9220  -31.3410 C   0  0  0  0  0  0  0  0  0  0  0  0
   -5.4820   21.6720  -31.9300 C   0  0  0  0  0  0  0  0  0  0  0  0
   -6.7910   21.1870  -32.0430 C   0  0  0  0  0  0  0  0  0  0  0  0
   -7.0410   19.9300  -32.6140 C   0  0  0  0  0  0  0  0  0  0  0  0
   -8.3500   19.4520  -32.7140 C   0  0  0  0  0  0  0  0  0  0  0  0
   -9.4170   20.2230  -32.2450 C   0  0  0  0  0  0  0  0  0  0  0  0
   -9.1810   21.4760  -31.6750 C   0  0  0  0  0  0  0  0  0  0  0  0
   -7.8690   21.9670  -31.5680 C   0  0  0  0  0  0  0  0  0  0  0  0
   -7.6210   23.2250  -31.0050 C   0  0  0  0  0  0  0  0  0  0  0  0
   -6.3110   23.7240  -30.9040 C   0  0  0  0  0  0  0  0  0  0  0  0
   -6.1050   25.0560  -30.4010 N   0  0  0  0  0  0  0  0  0  0  0  0
   -6.6680   25.4240  -29.3500 O   0  0  0  0  0  0  0  0  0  0  0  0
   -5.4300   25.9880  -31.1540 O   0  0  0  0  0  0  0  0  0  0  0  0
   -4.9510   24.1896  -28.2139 H   0  0  0  0  0  0  0  0  0  0  0  0
   -4.1260   24.4020  -25.8668 H   0  0  0  0  0  0  0  0  0  0  0  0
   -0.1495   25.2604  -27.3364 H   0  0  0  0  0  0  0  0  0  0  0  0
   -0.9698   25.0542  -29.6841 H   0  0  0  0  0  0  0  0  0  0  0  0
   -4.6441   21.0672  -32.3069 H   0  0  0  0  0  0  0  0  0  0  0  0
   -6.2042   19.3193  -32.9839 H   0  0  0  0  0  0  0  0  0  0  0  0
   -8.5412   18.4662  -33.1631 H   0  0  0  0  0  0  0  0  0  0  0  0
  -10.4458   19.8419  -32.3250 H   0  0  0  0  0  0  0  0  0  0  0  0
  -10.0244   22.0799  -31.3090 H   0  0  0  0  0  0  0  0  0  0  0  0
   -8.4624   23.8305  -30.6370 H   0  0  0  0  0  0  0  0  0  0  0  0
  1  2  2  0
  2  3  1  0
  3  4  1  0
  4  5  2  0
  5  6  1  0
  6  7  2  0
  7  8  1  0
  7  9  1  0
  9 10  2  0
  2 11  1  0
 11 12  2  0
 12 13  1  0
 13 14  2  0
 14 15  1  0
 15 16  2  0
 16 17  1  0
 17 18  2  0
 18 19  1  0
 19 20  2  0
 20 21  1  0
 21 22  2  0
 21 23  1  0
 10  4  1  0
 20 11  1  0
 18 13  1  0
  5 24  1  0
  6 25  1  0
  9 26  1  0
 10 27  1  0
 12 28  1  0
 14 29  1  0
 15 30  1  0
 16 31  1  0
 17 32  1  0
 19 33  1  0
M  CHG  3   3  -1  21   1  23  -1
M  END
>  <UniqueID>  (32) 
31

>  <SMILES>  (32) 
O=C([N-]c1ccc(F)cc1)c1cc2ccccc2cc1[N+](=O)[O-]

>  <Energy>  (32) 
51.77001422460641

>  <Genealogy>  (32) 
O=C([N-]c1ccc(F)cc1)c1cc2ccccc2cc1[N+](=O)[O-] (protonated)
O=C([N-]c1ccc(F)cc1)c1cc2ccccc2cc1[N+](=O)[O-] (3D coordinates assigned)
O=C([N-]c1ccc(F)cc1)c1cc2ccccc2cc1[N+](=O)[O-] (optimized conformer: 51.77001422460641 kcal/mol)

>  <smiles>  (32) 
O=C(Nc1ccc(F)cc1)c1cc2ccccc2cc1[N+](=O)[O-]

>  <score_type>  (32) 
oracle

>  <origin>  (32) 
adg

>  <m_score__min__energy>  (32) 
-9.8200000000000003

>  <m_primary>  (32) 
energy

$$$$
32:0
     RDKit          3D

 36 38  0  0  0  0  0  0  0  0999 V2000
  -10.2260   21.9540  -30.8620 O   0  0  0  0  0  0  0  0  0  0  0  0
   -9.1110   21.6280  -31.3490 C   0  0  0  0  0  0  0  0  0  0  0  0
   -8.3730   22.5980  -32.0990 N   0  0  0  0  0  0  0  0  0  0  0  0
   -6.9470   22.7220  -32.0590 C   0  0  0  0  0  0  0  0  0  0  0  0
   -6.4420   23.8470  -32.3270 O   0  0  0  0  0  0  0  0  0  0  0  0
   -6.0550   21.5830  -31.6050 C   0  0  2  0  0  0  0  0  0  0  0  0
   -4.5740   21.9440  -31.6700 C   0  0  0  0  0  0  0  0  0  0  0  0
   -3.9530   21.6470  -32.7280 O   0  0  0  0  0  0  0  0  0  0  0  0
   -3.8550   22.6180  -30.6010 N   0  0  0  0  0  0  0  0  0  0  0  0
   -2.4230   22.8920  -30.7910 C   0  0  0  0  0  0  0  0  0  0  0  0
   -1.8910   23.7890  -29.6740 C   0  0  0  0  0  0  0  0  0  0  0  0
   -2.8200   24.8230  -29.4340 O   0  0  0  0  0  0  0  0  0  0  0  0
   -3.9690   24.3170  -28.7730 C   0  0  0  0  0  0  0  0  0  0  0  0
   -4.4570   22.9430  -29.2950 C   0  0  0  0  0  0  0  0  0  0  0  0
   -6.4120   20.2550  -32.2730 C   0  0  0  0  0  0  0  0  0  0  0  0
   -5.4800   19.5270  -33.0530 C   0  0  0  0  0  0  0  0  0  0  0  0
   -5.8170   18.2940  -33.6170 C   0  0  0  0  0  0  0  0  0  0  0  0
   -4.6480   17.4290  -34.5980 Cl  0  0  0  0  0  0  0  0  0  0  0  0
   -7.0750   17.7440  -33.3860 C   0  0  0  0  0  0  0  0  0  0  0  0
   -7.9940   18.4190  -32.5860 C   0  0  0  0  0  0  0  0  0  0  0  0
   -7.6810   19.6710  -32.0350 C   0  0  0  0  0  0  0  0  0  0  0  0
   -8.6400   20.2880  -31.1680 N   0  0  0  0  0  0  0  0  0  0  0  0
   -8.9090   23.4150  -32.4720 H   0  0  0  0  0  0  0  0  0  0  0  0
   -6.2592   21.4196  -30.5365 H   0  0  0  0  0  0  0  0  0  0  0  0
   -1.8697   21.9413  -30.7849 H   0  0  0  0  0  0  0  0  0  0  0  0
   -2.2865   23.4073  -31.7532 H   0  0  0  0  0  0  0  0  0  0  0  0
   -1.7546   23.1957  -28.7578 H   0  0  0  0  0  0  0  0  0  0  0  0
   -0.9238   24.2200  -29.9721 H   0  0  0  0  0  0  0  0  0  0  0  0
   -3.7328   24.2141  -27.7036 H   0  0  0  0  0  0  0  0  0  0  0  0
   -4.7820   25.0322  -28.9670 H   0  0  0  0  0  0  0  0  0  0  0  0
   -4.1782   22.1650  -28.5691 H   0  0  0  0  0  0  0  0  0  0  0  0
   -5.5490   22.9883  -29.4193 H   0  0  0  0  0  0  0  0  0  0  0  0
   -4.4737   19.9396  -33.2174 H   0  0  0  0  0  0  0  0  0  0  0  0
   -7.3432   16.7764  -33.8353 H   0  0  0  0  0  0  0  0  0  0  0  0
   -8.9757   17.9657  -32.3840 H   0  0  0  0  0  0  0  0  0  0  0  0
   -9.2300   19.6580  -30.5770 H   0  0  0  0  0  0  0  0  0  0  0  0
  1  2  2  0
  2  3  1  0
  3  4  1  0
  4  5  2  0
  4  6  1  0
  6  7  1  0
  7  8  2  0
  7  9  1  0
  9 10  1  0
 10 11  1  0
 11 12  1  0
 12 13  1  0
 13 14  1  0
  6 15  1  0
 15 16  2  0
 16 17  1  0
 17 18  1  0
 17 19  2  0
 19 20  1  0
 20 21  2  0
 21 22  1  0
 22  2  1  0
 14  9  1  0
 21 15  1  0
  3 23  1  0
  6 24  1  1
 10 25  1  0
 10 26  1  0
 11 27  1  0
 11 28  1  0
 13 29  1  0
 13 30  1  0
 14 31  1  0
 14 32  1  0
 16 33  1  0
 19 34  1  0
 20 35  1  0
 22 36  1  0
M  END
>  <UniqueID>  (33) 
32

>  <SMILES>  (33) 
O=C1NC(=O)[C@H](C(=O)N2CCOCC2)c2cc(Cl)ccc2N1

>  <Energy>  (33) 
61.42555780100178

>  <Genealogy>  (33) 
O=C1NC(=O)[C@H](C(=O)N2CCOCC2)c2cc(Cl)ccc2N1 (chirality)
O=C1NC(=O)[C@H](C(=O)N2CCOCC2)c2cc(Cl)ccc2N1 (3D coordinates assigned)
O=C1NC(=O)[C@H](C(=O)N2CCOCC2)c2cc(Cl)ccc2N1 (nonaromatic ring conformer: 61.42555780100178 kcal/mol)

>  <smiles>  (33) 
O=C1NC(=O)C(C(=O)N2CCOCC2)c2cc(Cl)ccc2N1

>  <score_type>  (33) 
oracle

>  <origin>  (33) 
adg

>  <m_score__min__energy>  (33) 
-7.3399999999999999

>  <m_primary>  (33) 
energy

$$$$
33:0
     RDKit          3D

 36 38  0  0  0  0  0  0  0  0999 V2000
   -6.4040   25.6150  -29.7750 C   0  0  0  0  0  0  0  0  0  0  0  0
   -5.8480   24.5410  -30.6090 N   0  0  0  0  0  0  0  0  0  0  0  0
   -4.4940   24.4410  -30.8390 C   0  0  0  0  0  0  0  0  0  0  0  0
   -3.6990   25.2980  -30.3670 O   0  0  0  0  0  0  0  0  0  0  0  0
   -3.9910   23.4060  -31.5820 N   0  0  0  0  0  0  0  0  0  0  0  0
   -4.7960   22.4400  -32.1050 C   0  0  0  0  0  0  0  0  0  0  0  0
   -4.2970   21.4980  -32.7740 O   0  0  0  0  0  0  0  0  0  0  0  0
   -6.1660   22.5330  -31.8630 C   0  0  0  0  0  0  0  0  0  0  0  0
   -6.6500   23.5640  -31.1200 C   0  0  0  0  0  0  0  0  0  0  0  0
   -7.9840   23.4530  -30.9630 N   0  0  0  0  0  0  0  0  0  0  0  0
   -8.2760   22.3150  -31.6430 C   0  0  0  0  0  0  0  0  0  0  0  0
   -7.1880   21.7260  -32.2020 N   0  0  0  0  0  0  0  0  0  0  0  0
   -7.1960   20.4900  -32.9870 C   0  0  0  0  0  0  0  0  0  0  0  0
   -8.3910   19.5930  -32.6280 C   0  0  0  0  0  0  0  0  0  0  0  0
   -7.9910   18.2360  -32.0120 C   0  0  0  0  0  0  0  0  0  0  0  0
   -6.4890   18.0990  -31.7200 C   0  0  0  0  0  0  0  0  0  0  0  0
   -5.7170   17.9470  -32.9530 N   0  0  0  0  0  0  0  0  0  0  0  0
   -6.1000   17.3180  -34.0750 C   0  0  0  0  0  0  0  0  0  0  0  0
   -5.0700   17.4120  -34.9820 C   0  0  0  0  0  0  0  0  0  0  0  0
   -4.0450   18.0980  -34.4350 N   0  0  0  0  0  0  0  0  0  0  0  0
   -4.4750   18.4100  -33.1960 C   0  0  0  0  0  0  0  0  0  0  0  0
   -6.2721   25.3602  -28.7131 H   0  0  0  0  0  0  0  0  0  0  0  0
   -5.8805   26.5574  -29.9937 H   0  0  0  0  0  0  0  0  0  0  0  0
   -7.4757   25.7316  -29.9937 H   0  0  0  0  0  0  0  0  0  0  0  0
   -9.2947   21.9097  -31.7324 H   0  0  0  0  0  0  0  0  0  0  0  0
   -7.2521   20.7470  -34.0551 H   0  0  0  0  0  0  0  0  0  0  0  0
   -6.2729   19.9359  -32.7613 H   0  0  0  0  0  0  0  0  0  0  0  0
   -9.0217   20.1296  -31.9040 H   0  0  0  0  0  0  0  0  0  0  0  0
   -8.9195   19.3739  -33.5675 H   0  0  0  0  0  0  0  0  0  0  0  0
   -8.5397   18.1103  -31.0669 H   0  0  0  0  0  0  0  0  0  0  0  0
   -8.2419   17.4640  -32.7543 H   0  0  0  0  0  0  0  0  0  0  0  0
   -6.1439   18.9992  -31.1904 H   0  0  0  0  0  0  0  0  0  0  0  0
   -6.3368   17.2008  -31.1035 H   0  0  0  0  0  0  0  0  0  0  0  0
   -7.0652   16.8168  -34.2399 H   0  0  0  0  0  0  0  0  0  0  0  0
   -5.0805   16.9918  -35.9985 H   0  0  0  0  0  0  0  0  0  0  0  0
   -3.8796   18.9781  -32.4661 H   0  0  0  0  0  0  0  0  0  0  0  0
  1  2  1  0
  2  3  1  0
  3  4  2  0
  3  5  1  0
  5  6  1  0
  6  7  2  0
  6  8  1  0
  8  9  2  0
  9 10  1  0
 10 11  2  0
 11 12  1  0
 12 13  1  0
 13 14  1  0
 14 15  1  0
 15 16  1  0
 16 17  1  0
 17 18  1  0
 18 19  2  0
 19 20  1  0
 20 21  2  0
  9  2  1  0
 21 17  1  0
 12  8  1  0
  1 22  1  0
  1 23  1  0
  1 24  1  0
 11 25  1  0
 13 26  1  0
 13 27  1  0
 14 28  1  0
 14 29  1  0
 15 30  1  0
 15 31  1  0
 16 32  1  0
 16 33  1  0
 18 34  1  0
 19 35  1  0
 21 36  1  0
M  CHG  1   5  -1
M  END
>  <UniqueID>  (34) 
33

>  <SMILES>  (34) 
Cn1c(=O)[n-]c(=O)c2c1ncn2CCCCn1ccnc1

>  <Energy>  (34) 
104.56327057106503

>  <Genealogy>  (34) 
Cn1c(=O)[n-]c(=O)c2c1ncn2CCCCn1ccnc1 (protonated)
Cn1c(=O)[n-]c(=O)c2c1ncn2CCCCn1ccnc1 (3D coordinates assigned)
Cn1c(=O)[n-]c(=O)c2c1ncn2CCCCn1ccnc1 (optimized conformer: 104.56327057106503 kcal/mol)

>  <smiles>  (34) 
Cn1c(=O)[nH]c(=O)c2c1ncn2CCCCn1ccnc1

>  <score_type>  (34) 
oracle

>  <origin>  (34) 
adg

>  <m_score__min__energy>  (34) 
-7.8700000000000001

>  <m_primary>  (34) 
energy

$$$$
34:0
     RDKit          3D

 37 39  0  0  0  0  0  0  0  0999 V2000
   -8.3970   23.0780  -32.0740 O   0  0  0  0  0  0  0  0  0  0  0  0
   -7.3740   23.1500  -31.3410 C   0  0  0  0  0  0  0  0  0  0  0  0
   -7.0700   24.4310  -30.6260 C   0  0  0  0  0  0  0  0  0  0  0  0
   -5.8660   24.3040  -29.8710 O   0  0  0  0  0  0  0  0  0  0  0  0
   -4.5910   24.4980  -30.4140 C   0  0  0  0  0  0  0  0  0  0  0  0
   -4.2540   25.6380  -30.8350 O   0  0  0  0  0  0  0  0  0  0  0  0
   -3.6620   23.3470  -30.4780 C   0  0  0  0  0  0  0  0  0  0  0  0
   -3.5370   22.7090  -31.6760 N   0  0  0  0  0  0  0  0  0  0  0  0
   -2.7140   21.6440  -31.8550 C   0  0  0  0  0  0  0  0  0  0  0  0
   -2.6130   20.8810  -33.4290 Cl  0  0  0  0  0  0  0  0  0  0  0  0
   -1.9550   21.1620  -30.7910 C   0  0  0  0  0  0  0  0  0  0  0  0
   -2.0530   21.7880  -29.5480 C   0  0  0  0  0  0  0  0  0  0  0  0
   -2.9030   22.8850  -29.3740 C   0  0  0  0  0  0  0  0  0  0  0  0
   -2.9660   23.6180  -27.7730 Cl  0  0  0  0  0  0  0  0  0  0  0  0
   -6.4630   22.0430  -31.2400 N   0  0  0  0  0  0  0  0  0  0  0  0
   -6.7290   20.7310  -31.7620 C   0  0  0  0  0  0  0  0  0  0  0  0
   -7.9810   20.1090  -31.5850 C   0  0  0  0  0  0  0  0  0  0  0  0
   -8.2100   18.8240  -32.0880 C   0  0  0  0  0  0  0  0  0  0  0  0
   -7.1890   18.1470  -32.7600 C   0  0  0  0  0  0  0  0  0  0  0  0
   -5.9270   18.7380  -32.8960 C   0  0  0  0  0  0  0  0  0  0  0  0
   -5.6980   20.0270  -32.4070 C   0  0  0  0  0  0  0  0  0  0  0  0
   -4.9050   18.0190  -33.5260 O   0  0  0  0  0  0  0  0  0  0  0  0
   -5.0360   16.6190  -33.7820 C   0  0  0  0  0  0  0  0  0  0  0  0
   -6.4730   16.2890  -34.2090 C   0  0  0  0  0  0  0  0  0  0  0  0
   -7.4070   16.8750  -33.2980 O   0  0  0  0  0  0  0  0  0  0  0  0
   -6.9523   25.2388  -31.3633 H   0  0  0  0  0  0  0  0  0  0  0  0
   -7.8987   24.6633  -29.9409 H   0  0  0  0  0  0  0  0  0  0  0  0
   -1.2870   20.2990  -30.9290 H   0  0  0  0  0  0  0  0  0  0  0  0
   -1.4585   21.4168  -28.7002 H   0  0  0  0  0  0  0  0  0  0  0  0
   -5.5140   22.2330  -30.8460 H   0  0  0  0  0  0  0  0  0  0  0  0
   -8.7829   20.6370  -31.0482 H   0  0  0  0  0  0  0  0  0  0  0  0
   -9.1923   18.3472  -31.9547 H   0  0  0  0  0  0  0  0  0  0  0  0
   -4.7082   20.4916  -32.5273 H   0  0  0  0  0  0  0  0  0  0  0  0
   -4.3430   16.3305  -34.5860 H   0  0  0  0  0  0  0  0  0  0  0  0
   -4.7986   16.0629  -32.8631 H   0  0  0  0  0  0  0  0  0  0  0  0
   -6.6522   16.6868  -35.2188 H   0  0  0  0  0  0  0  0  0  0  0  0
   -6.6061   15.1971  -34.2058 H   0  0  0  0  0  0  0  0  0  0  0  0
  1  2  2  0
  2  3  1  0
  3  4  1  0
  4  5  1  0
  5  6  2  0
  5  7  1  0
  7  8  2  0
  8  9  1  0
  9 10  1  0
  9 11  2  0
 11 12  1  0
 12 13  2  0
 13 14  1  0
  2 15  1  0
 15 16  1  0
 16 17  2  0
 17 18  1  0
 18 19  2  0
 19 20  1  0
 20 21  2  0
 20 22  1  0
 22 23  1  0
 23 24  1  0
 24 25  1  0
 13  7  1  0
 21 16  1  0
 25 19  1  0
  3 26  1  0
  3 27  1  0
 11 28  1  0
 12 29  1  0
 15 30  1  0
 17 31  1  0
 18 32  1  0
 21 33  1  0
 23 34  1  0
 23 35  1  0
 24 36  1  0
 24 37  1  0
M  END
>  <UniqueID>  (35) 
34

>  <SMILES>  (35) 
O=C(COC(=O)c1nc(Cl)ccc1Cl)Nc1ccc2c(c1)OCCO2

>  <Energy>  (35) 
44.05697521260818

>  <Genealogy>  (35) 
O=C(COC(=O)c1nc(Cl)ccc1Cl)Nc1ccc2c(c1)OCCO2 (3D coordinates assigned)
O=C(COC(=O)c1nc(Cl)ccc1Cl)Nc1ccc2c(c1)OCCO2 (nonaromatic ring conformer: 44.05697521260818 kcal/mol)

>  <smiles>  (35) 
O=C(COC(=O)c1nc(Cl)ccc1Cl)Nc1ccc2c(c1)OCCO2

>  <score_type>  (35) 
oracle

>  <origin>  (35) 
adg

>  <m_score__min__energy>  (35) 
-8.1500000000000004

>  <m_primary>  (35) 
energy

$$$$
35:0
     RDKit          3D

 33 35  0  0  0  0  0  0  0  0999 V2000
   -5.2560   25.6450  -30.4450 C   0  0  0  0  0  0  0  0  0  0  0  0
   -3.8780   25.3000  -30.5030 O   0  0  0  0  0  0  0  0  0  0  0  0
   -3.4160   23.9930  -30.3040 C   0  0  0  0  0  0  0  0  0  0  0  0
   -2.6060   23.7460  -29.3680 O   0  0  0  0  0  0  0  0  0  0  0  0
   -3.8760   22.9060  -31.1950 C   0  0  0  0  0  0  0  0  0  0  0  0
   -2.9650   22.2160  -32.0160 C   0  0  0  0  0  0  0  0  0  0  0  0
   -3.4050   21.1900  -32.8550 C   0  0  0  0  0  0  0  0  0  0  0  0
   -4.7560   20.8430  -32.8910 C   0  0  0  0  0  0  0  0  0  0  0  0
   -5.6830   21.5280  -32.0900 C   0  0  0  0  0  0  0  0  0  0  0  0
   -7.1130   21.1480  -32.1150 C   0  0  0  0  0  0  0  0  0  0  0  0
   -8.0680   22.1540  -31.8890 C   0  0  0  0  0  0  0  0  0  0  0  0
   -9.4310   21.8760  -31.9870 C   0  0  0  0  0  0  0  0  0  0  0  0
   -9.8590   20.5900  -32.3140 C   0  0  0  0  0  0  0  0  0  0  0  0
   -8.9270   19.5750  -32.5280 C   0  0  0  0  0  0  0  0  0  0  0  0
   -7.5470   19.8280  -32.4170 C   0  0  0  0  0  0  0  0  0  0  0  0
   -6.6130   18.6880  -32.5770 C   0  0  0  0  0  0  0  0  0  0  0  0
   -6.1790   17.8950  -31.5780 N   0  0  0  0  0  0  0  0  0  0  0  0
   -5.3870   16.9920  -32.1340 N   0  0  0  0  0  0  0  0  0  0  0  0
   -5.3700   17.2590  -33.4520 C   0  0  0  0  0  0  0  0  0  0  0  0
   -6.1230   18.2950  -33.7300 O   0  0  0  0  0  0  0  0  0  0  0  0
   -5.2350   22.5470  -31.2330 C   0  0  0  0  0  0  0  0  0  0  0  0
   -5.5703   25.7237  -29.3938 H   0  0  0  0  0  0  0  0  0  0  0  0
   -5.4138   26.6104  -30.9482 H   0  0  0  0  0  0  0  0  0  0  0  0
   -5.8500   24.8679  -30.9482 H   0  0  0  0  0  0  0  0  0  0  0  0
   -1.8990   22.4866  -31.9968 H   0  0  0  0  0  0  0  0  0  0  0  0
   -2.6842   20.6536  -33.4896 H   0  0  0  0  0  0  0  0  0  0  0  0
   -5.0957   20.0299  -33.5493 H   0  0  0  0  0  0  0  0  0  0  0  0
   -7.7369   23.1711  -31.6322 H   0  0  0  0  0  0  0  0  0  0  0  0
  -10.1688   22.6716  -31.8062 H   0  0  0  0  0  0  0  0  0  0  0  0
  -10.9342   20.3756  -32.4034 H   0  0  0  0  0  0  0  0  0  0  0  0
   -9.2748   18.5640  -32.7868 H   0  0  0  0  0  0  0  0  0  0  0  0
   -4.8002   16.6845  -34.1972 H   0  0  0  0  0  0  0  0  0  0  0  0
   -5.9545   23.0692  -30.5852 H   0  0  0  0  0  0  0  0  0  0  0  0
  1  2  1  0
  2  3  1  0
  3  4  2  0
  3  5  1  0
  5  6  2  0
  6  7  1  0
  7  8  2  0
  8  9  1  0
  9 10  1  0
 10 11  2  0
 11 12  1  0
 12 13  2  0
 13 14  1  0
 14 15  2  0
 15 16  1  0
 16 17  2  0
 17 18  1  0
 18 19  2  0
 19 20  1  0
  9 21  2  0
 21  5  1  0
 15 10  1  0
 20 16  1  0
  1 22  1  0
  1 23  1  0
  1 24  1  0
  6 25  1  0
  7 26  1  0
  8 27  1  0
 11 28  1  0
 12 29  1  0
 13 30  1  0
 14 31  1  0
 19 32  1  0
 21 33  1  0
M  END
>  <UniqueID>  (36) 
35

>  <SMILES>  (36) 
COC(=O)c1cccc(-c2ccccc2-c2nnco2)c1

>  <Energy>  (36) 
78.2479338444798

>  <Genealogy>  (36) 
COC(=O)c1cccc(-c2ccccc2-c2nnco2)c1 (3D coordinates assigned)
COC(=O)c1cccc(-c2ccccc2-c2nnco2)c1 (optimized conformer: 78.2479338444798 kcal/mol)

>  <smiles>  (36) 
COC(=O)c1cccc(-c2ccccc2-c2nnco2)c1

>  <score_type>  (36) 
oracle

>  <origin>  (36) 
adg

>  <m_score__min__energy>  (36) 
-8.4100000000000001

>  <m_primary>  (36) 
energy

$$$$
36:0
     RDKit          3D

 54 56  0  0  0  0  0  0  0  0999 V2000
   -1.1810   22.6580  -29.1700 C   0  0  0  0  0  0  0  0  0  0  0  0
   -0.9300   24.1590  -29.2690 C   0  0  0  0  0  0  0  0  0  0  0  0
   -1.9440   24.9030  -28.4860 N   0  0  0  0  0  0  0  0  0  0  0  0
   -1.3190   25.7030  -27.4070 C   0  0  0  0  0  0  0  0  0  0  0  0
   -2.1560   25.6970  -26.1270 C   0  0  0  0  0  0  0  0  0  0  0  0
   -3.0530   24.0270  -28.0310 C   0  0  0  0  0  0  0  0  0  0  0  0
   -4.3890   24.2720  -28.7650 C   0  0  0  0  0  0  0  0  0  0  0  0
   -4.2110   24.3100  -30.2910 C   0  0  0  0  0  0  0  0  0  0  0  0
   -5.1580   23.3980  -30.9700 N   0  0  0  0  0  0  0  0  0  0  0  0
   -4.7300   22.1620  -31.3750 C   0  0  0  0  0  0  0  0  0  0  0  0
   -3.5260   21.8200  -31.1960 O   0  0  0  0  0  0  0  0  0  0  0  0
   -5.6190   21.2700  -31.9870 C   0  0  0  0  0  0  0  0  0  0  0  0
   -5.2020   19.9940  -32.4050 C   0  0  0  0  0  0  0  0  0  0  0  0
   -6.1140   19.1220  -33.0120 C   0  0  0  0  0  0  0  0  0  0  0  0
   -5.6820   17.7750  -33.4610 C   0  0  0  0  0  0  0  0  0  0  0  0
   -6.5920   16.7000  -33.4910 C   0  0  0  0  0  0  0  0  0  0  0  0
   -6.1780   15.4350  -33.9180 C   0  0  0  0  0  0  0  0  0  0  0  0
   -4.8570   15.2280  -34.3200 C   0  0  0  0  0  0  0  0  0  0  0  0
   -3.9450   16.2860  -34.2960 C   0  0  0  0  0  0  0  0  0  0  0  0
   -4.3540   17.5540  -33.8700 C   0  0  0  0  0  0  0  0  0  0  0  0
   -7.4030   19.5270  -33.1930 N   0  0  0  0  0  0  0  0  0  0  0  0
   -7.8360   20.7540  -32.8000 C   0  0  0  0  0  0  0  0  0  0  0  0
   -6.9550   21.6710  -32.1810 C   0  0  0  0  0  0  0  0  0  0  0  0
   -7.3630   22.9220  -31.7710 N   0  0  0  0  0  0  0  0  0  0  0  0
   -8.7630   23.3530  -31.9710 C   0  0  0  0  0  0  0  0  0  0  0  0
   -6.4650   23.7730  -31.1670 C   0  0  0  0  0  0  0  0  0  0  0  0
   -6.8460   24.9160  -30.7850 O   0  0  0  0  0  0  0  0  0  0  0  0
   -1.2302   22.3635  -28.1113 H   0  0  0  0  0  0  0  0  0  0  0  0
   -2.1327   22.4120  -29.6636 H   0  0  0  0  0  0  0  0  0  0  0  0
   -0.3611   22.1158  -29.6636 H   0  0  0  0  0  0  0  0  0  0  0  0
    0.0714   24.3862  -28.8745 H   0  0  0  0  0  0  0  0  0  0  0  0
   -0.9979   24.4642  -30.3236 H   0  0  0  0  0  0  0  0  0  0  0  0
   -0.3269   25.2836  -27.1839 H   0  0  0  0  0  0  0  0  0  0  0  0
   -1.2434   26.7430  -27.7571 H   0  0  0  0  0  0  0  0  0  0  0  0
   -1.4887   25.7018  -25.2525 H   0  0  0  0  0  0  0  0  0  0  0  0
   -2.7971   26.5906  -26.1039 H   0  0  0  0  0  0  0  0  0  0  0  0
   -2.7842   24.7943  -26.1039 H   0  0  0  0  0  0  0  0  0  0  0  0
   -2.7560   22.9804  -28.1936 H   0  0  0  0  0  0  0  0  0  0  0  0
   -3.2261   24.2584  -26.9696 H   0  0  0  0  0  0  0  0  0  0  0  0
   -5.0880   23.4620  -28.5094 H   0  0  0  0  0  0  0  0  0  0  0  0
   -4.7775   25.2500  -28.4446 H   0  0  0  0  0  0  0  0  0  0  0  0
   -4.3863   25.3363  -30.6459 H   0  0  0  0  0  0  0  0  0  0  0  0
   -3.1875   23.9835  -30.5275 H   0  0  0  0  0  0  0  0  0  0  0  0
   -4.1584   19.6805  -32.2550 H   0  0  0  0  0  0  0  0  0  0  0  0
   -7.6344   16.8570  -33.1766 H   0  0  0  0  0  0  0  0  0  0  0  0
   -6.8946   14.6007  -33.9374 H   0  0  0  0  0  0  0  0  0  0  0  0
   -4.5342   14.2315  -34.6557 H   0  0  0  0  0  0  0  0  0  0  0  0
   -2.9044   16.1218  -34.6124 H   0  0  0  0  0  0  0  0  0  0  0  0
   -3.6324   18.3841  -33.8546 H   0  0  0  0  0  0  0  0  0  0  0  0
   -8.0980   18.8790  -33.6270 H   0  0  0  0  0  0  0  0  0  0  0  0
   -8.8858   21.0376  -32.9656 H   0  0  0  0  0  0  0  0  0  0  0  0
   -9.2443   23.5012  -30.9930 H   0  0  0  0  0  0  0  0  0  0  0  0
   -8.7789   24.2976  -32.5344 H   0  0  0  0  0  0  0  0  0  0  0  0
   -9.3074   22.5809  -32.5344 H   0  0  0  0  0  0  0  0  0  0  0  0
  1  2  1  0
  2  3  1  0
  3  4  1  0
  4  5  1  0
  3  6  1  0
  6  7  1  0
  7  8  1  0
  8  9  1  0
  9 10  1  0
 10 11  2  0
 10 12  1  0
 12 13  2  0
 13 14  1  0
 14 15  1  0
 15 16  2  0
 16 17  1  0
 17 18  2  0
 18 19  1  0
 19 20  2  0
 14 21  2  0
 21 22  1  0
 22 23  2  0
 23 24  1  0
 24 25  1  0
 24 26  1  0
 26 27  2  0
 26  9  1  0
 23 12  1  0
 20 15  1  0
  1 28  1  0
  1 29  1  0
  1 30  1  0
  2 31  1  0
  2 32  1  0
  4 33  1  0
  4 34  1  0
  5 35  1  0
  5 36  1  0
  5 37  1  0
  6 38  1  0
  6 39  1  0
  7 40  1  0
  7 41  1  0
  8 42  1  0
  8 43  1  0
 13 44  1  0
 16 45  1  0
 17 46  1  0
 18 47  1  0
 19 48  1  0
 20 49  1  0
 21 50  1  0
 22 51  1  0
 25 52  1  0
 25 53  1  0
 25 54  1  0
M  CHG  1  21   1
M  END
>  <UniqueID>  (37) 
36

>  <SMILES>  (37) 
CCN(CC)CCCn1c(=O)c2cc(-c3ccccc3)[nH+]cc2n(C)c1=O

>  <Energy>  (37) 
73.53935625484932

>  <Genealogy>  (37) 
CCN(CC)CCCn1c(=O)c2cc(-c3ccccc3)[nH+]cc2n(C)c1=O (protonated)
CCN(CC)CCCn1c(=O)c2cc(-c3ccccc3)[nH+]cc2n(C)c1=O (3D coordinates assigned)
CCN(CC)CCCn1c(=O)c2cc(-c3ccccc3)[nH+]cc2n(C)c1=O (optimized conformer: 73.53935625484932 kcal/mol)

>  <smiles>  (37) 
CCN(CC)CCCn1c(=O)c2cc(-c3ccccc3)ncc2n(C)c1=O

>  <score_type>  (37) 
oracle

>  <origin>  (37) 
adg

>  <m_score__min__energy>  (37) 
-7.0700000000000003

>  <m_primary>  (37) 
energy

$$$$
37:0
     RDKit          3D

 48 50  0  0  0  0  0  0  0  0999 V2000
   -3.8960   25.6570  -30.7420 O   0  0  0  0  0  0  0  0  0  0  0  0
   -4.4190   24.5200  -30.5840 C   0  0  0  0  0  0  0  0  0  0  0  0
   -5.2800   24.0180  -31.6130 N   0  0  0  0  0  0  0  0  0  0  0  0
   -5.3520   22.6670  -32.0960 C   0  0  0  0  0  0  0  0  0  0  0  0
   -4.2100   22.0240  -32.6070 C   0  0  0  0  0  0  0  0  0  0  0  0
   -4.2930   20.7250  -33.1110 C   0  0  0  0  0  0  0  0  0  0  0  0
   -5.5200   20.0600  -33.1360 C   0  0  0  0  0  0  0  0  0  0  0  0
   -6.6700   20.6940  -32.6590 C   0  0  0  0  0  0  0  0  0  0  0  0
   -6.6020   22.0020  -32.1340 C   0  0  0  0  0  0  0  0  0  0  0  0
   -7.8450   22.6920  -31.6200 C   0  0  0  0  0  0  0  0  0  0  0  0
   -7.6400   23.1060  -30.3170 F   0  0  0  0  0  0  0  0  0  0  0  0
   -8.9110   21.8100  -31.6490 F   0  0  0  0  0  0  0  0  0  0  0  0
   -8.1730   23.7980  -32.3860 F   0  0  0  0  0  0  0  0  0  0  0  0
   -4.2000   23.7920  -29.3160 C   0  0  0  0  0  0  0  0  0  0  0  0
   -4.7880   22.6960  -29.1090 O   0  0  0  0  0  0  0  0  0  0  0  0
   -3.3510   24.3420  -28.3000 N   0  0  0  0  0  0  0  0  0  0  0  0
   -3.0350   23.5880  -27.0850 C   0  0  0  0  0  0  0  0  0  0  0  0
   -1.9250   24.2720  -26.2670 C   0  0  1  0  0  0  0  0  0  0  0  0
   -1.2270   23.3150  -25.4970 O   0  0  0  0  0  0  0  0  0  0  0  0
   -0.5060   23.9390  -24.4420 C   0  0  0  0  0  0  0  0  0  0  0  0
   -0.0700   25.3940  -24.7250 C   0  0  0  0  0  0  0  0  0  0  0  0
    0.1410   25.6100  -26.2300 C   0  0  0  0  0  0  0  0  0  0  0  0
   -0.9660   25.0790  -27.0660 N   0  0  0  0  0  0  0  0  0  0  0  0
   -0.2970   24.2290  -28.4540 S   0  0  0  0  0  0  0  0  0  0  0  0
    1.1740   24.5210  -28.5610 O   0  0  0  0  0  0  0  0  0  0  0  0
   -0.9480   24.7180  -29.7180 O   0  0  0  0  0  0  0  0  0  0  0  0
   -0.5030   22.4880  -28.3190 C   0  0  0  0  0  0  0  0  0  0  0  0
    0.1430   21.6550  -27.4150 C   0  0  0  0  0  0  0  0  0  0  0  0
   -0.2450   20.3150  -27.5300 C   0  0  0  0  0  0  0  0  0  0  0  0
   -1.2020   20.0950  -28.5130 C   0  0  0  0  0  0  0  0  0  0  0  0
   -1.5640   21.5690  -29.2420 S   0  0  0  0  0  0  0  0  0  0  0  0
   -3.2435   22.5493  -32.6094 H   0  0  0  0  0  0  0  0  0  0  0  0
   -3.3896   20.2243  -33.4893 H   0  0  0  0  0  0  0  0  0  0  0  0
   -5.5816   19.0355  -33.5318 H   0  0  0  0  0  0  0  0  0  0  0  0
   -7.6362   20.1693  -32.6930 H   0  0  0  0  0  0  0  0  0  0  0  0
   -2.9620   25.3040  -28.4290 H   0  0  0  0  0  0  0  0  0  0  0  0
   -3.9408   23.5134  -26.4653 H   0  0  0  0  0  0  0  0  0  0  0  0
   -2.6790   22.5904  -27.3817 H   0  0  0  0  0  0  0  0  0  0  0  0
   -2.4443   24.9909  -25.6162 H   0  0  0  0  0  0  0  0  0  0  0  0
   -1.1445   23.9415  -23.5463 H   0  0  0  0  0  0  0  0  0  0  0  0
    0.4196   23.3584  -24.3147 H   0  0  0  0  0  0  0  0  0  0  0  0
   -0.8502   26.0817  -24.3667 H   0  0  0  0  0  0  0  0  0  0  0  0
    0.8777   25.5891  -24.2017 H   0  0  0  0  0  0  0  0  0  0  0  0
    0.2315   26.6901  -26.4173 H   0  0  0  0  0  0  0  0  0  0  0  0
    1.0512   25.0600  -26.5112 H   0  0  0  0  0  0  0  0  0  0  0  0
    0.8834   22.0115  -26.6838 H   0  0  0  0  0  0  0  0  0  0  0  0
    0.1685   19.5123  -26.9018 H   0  0  0  0  0  0  0  0  0  0  0  0
   -1.6475   19.1229  -28.7711 H   0  0  0  0  0  0  0  0  0  0  0  0
  1  2  2  0
  2  3  1  0
  3  4  1  0
  4  5  2  0
  5  6  1  0
  6  7  2  0
  7  8  1  0
  8  9  2  0
  9 10  1  0
 10 11  1  0
 10 12  1  0
 10 13  1  0
  2 14  1  0
 14 15  2  0
 14 16  1  0
 16 17  1  0
 17 18  1  0
 18 19  1  0
 19 20  1  0
 20 21  1  0
 21 22  1  0
 22 23  1  0
 23 24  1  0
 24 25  2  0
 24 26  2  0
 24 27  1  0
 27 28  2  0
 28 29  1  0
 29 30  2  0
 30 31  1  0
  9  4  1  0
 23 18  1  0
 31 27  1  0
  5 32  1  0
  6 33  1  0
  7 34  1  0
  8 35  1  0
 16 36  1  0
 17 37  1  0
 17 38  1  0
 18 39  1  1
 20 40  1  0
 20 41  1  0
 21 42  1  0
 21 43  1  0
 22 44  1  0
 22 45  1  0
 28 46  1  0
 29 47  1  0
 30 48  1  0
M  CHG  1   3  -1
M  END
>  <UniqueID>  (38) 
37

>  <SMILES>  (38) 
O=C([N-]c1ccccc1C(F)(F)F)C(=O)NC[C@H]1OCCCN1S(=O)(=O)c1cccs1

>  <Energy>  (38) 
94.27798713248026

>  <Genealogy>  (38) 
O=C([N-]c1ccccc1C(F)(F)F)C(=O)NCC1OCCCN1S(=O)(=O)c1cccs1 (protonated)
O=C([N-]c1ccccc1C(F)(F)F)C(=O)NC[C@H]1OCCCN1S(=O)(=O)c1cccs1 (chirality)
O=C([N-]c1ccccc1C(F)(F)F)C(=O)NC[C@H]1OCCCN1S(=O)(=O)c1cccs1 (3D coordinates assigned)
O=C([N-]c1ccccc1C(F)(F)F)C(=O)NC[C@H]1OCCCN1S(=O)(=O)c1cccs1 (nonaromatic ring conformer: 94.27798713248026 kcal/mol)

>  <smiles>  (38) 
O=C(NCC1OCCCN1S(=O)(=O)c1cccs1)C(=O)Nc1ccccc1C(F)(F)F

>  <score_type>  (38) 
oracle

>  <origin>  (38) 
adg

>  <m_score__min__energy>  (38) 
-10.43

>  <m_primary>  (38) 
energy

$$$$
38:0
     RDKit          3D

 60 63  0  0  0  0  0  0  0  0999 V2000
    1.5810   24.1100  -35.7870 C   0  0  0  0  0  0  0  0  0  0  0  0
    0.5210   23.1630  -35.7030 O   0  0  0  0  0  0  0  0  0  0  0  0
    0.6370   21.8950  -35.1140 C   0  0  0  0  0  0  0  0  0  0  0  0
    1.9160   21.4240  -34.7990 C   0  0  0  0  0  0  0  0  0  0  0  0
    2.0840   20.1650  -34.2180 C   0  0  0  0  0  0  0  0  0  0  0  0
    0.9730   19.3660  -33.9420 C   0  0  0  0  0  0  0  0  0  0  0  0
   -0.3210   19.8270  -34.2320 C   0  0  0  0  0  0  0  0  0  0  0  0
   -1.5040   18.9830  -33.9530 C   0  0  0  0  0  0  0  0  0  0  0  0
   -1.6880   17.6970  -34.4350 C   0  0  0  0  0  0  0  0  0  0  0  0
   -2.8590   17.2680  -33.8380 C   0  0  0  0  0  0  0  0  0  0  0  0
   -3.4730   15.9070  -33.9700 C   0  0  0  0  0  0  0  0  0  0  0  0
   -4.9450   15.9790  -33.8580 N   0  0  0  0  0  0  0  0  0  0  0  0
   -5.4660   17.2620  -34.3950 C   0  0  0  0  0  0  0  0  0  0  0  0
   -6.8600   17.5830  -33.8370 C   0  0  0  0  0  0  0  0  0  0  0  0
   -6.8600   17.7080  -32.3580 N   0  0  0  0  0  0  0  0  0  0  0  0
   -6.8660   19.1170  -31.9370 C   0  0  0  0  0  0  0  0  0  0  0  0
   -5.7490   16.9790  -31.7030 C   0  0  0  0  0  0  0  0  0  0  0  0
   -5.3960   15.6970  -32.4700 C   0  0  0  0  0  0  0  0  0  0  0  0
   -3.3400   18.2440  -33.0450 N   0  0  0  0  0  0  0  0  0  0  0  0
   -2.5300   19.2890  -33.1190 N   0  0  0  0  0  0  0  0  0  0  0  0
   -2.7940   20.5400  -32.4620 C   0  0  0  0  0  0  0  0  0  0  0  0
   -1.9080   21.0460  -31.4980 C   0  0  0  0  0  0  0  0  0  0  0  0
   -2.1690   22.2680  -30.8700 C   0  0  0  0  0  0  0  0  0  0  0  0
   -3.3000   23.0150  -31.2180 C   0  0  0  0  0  0  0  0  0  0  0  0
   -3.5530   24.2480  -30.5320 N   0  0  0  0  0  0  0  0  0  0  0  0
   -4.8290   24.8780  -30.3530 C   0  0  0  0  0  0  0  0  0  0  0  0
   -4.9890   26.0560  -30.7690 O   0  0  0  0  0  0  0  0  0  0  0  0
   -5.9880   24.1610  -29.7210 C   0  0  0  0  0  0  0  0  0  0  0  0
   -7.1300   23.6010  -30.9690 Cl  0  0  0  0  0  0  0  0  0  0  0  0
   -4.1950   22.5050  -32.1740 C   0  0  0  0  0  0  0  0  0  0  0  0
   -3.9350   21.2830  -32.8010 C   0  0  0  0  0  0  0  0  0  0  0  0
   -0.4830   21.0870  -34.8330 C   0  0  0  0  0  0  0  0  0  0  0  0
    1.8996   24.3946  -34.7733 H   0  0  0  0  0  0  0  0  0  0  0  0
    2.4295   23.6637  -36.3263 H   0  0  0  0  0  0  0  0  0  0  0  0
    1.2328   25.0033  -36.3263 H   0  0  0  0  0  0  0  0  0  0  0  0
    2.7957   22.0496  -35.0104 H   0  0  0  0  0  0  0  0  0  0  0  0
    3.0942   19.8022  -33.9773 H   0  0  0  0  0  0  0  0  0  0  0  0
    1.1121   18.3705  -33.4952 H   0  0  0  0  0  0  0  0  0  0  0  0
   -1.0465   17.1420  -35.1353 H   0  0  0  0  0  0  0  0  0  0  0  0
   -3.2067   15.4854  -34.9505 H   0  0  0  0  0  0  0  0  0  0  0  0
   -3.0899   15.2687  -33.1602 H   0  0  0  0  0  0  0  0  0  0  0  0
   -4.7752   18.0719  -34.1178 H   0  0  0  0  0  0  0  0  0  0  0  0
   -5.5454   17.1708  -35.4883 H   0  0  0  0  0  0  0  0  0  0  0  0
   -7.2051   18.5325  -34.2722 H   0  0  0  0  0  0  0  0  0  0  0  0
   -7.5289   16.7517  -34.1043 H   0  0  0  0  0  0  0  0  0  0  0  0
   -6.8662   19.1714  -30.8383 H   0  0  0  0  0  0  0  0  0  0  0  0
   -5.9700   19.6206  -32.3289 H   0  0  0  0  0  0  0  0  0  0  0  0
   -7.7663   19.6129  -32.3289 H   0  0  0  0  0  0  0  0  0  0  0  0
   -4.8638   17.6310  -31.6678 H   0  0  0  0  0  0  0  0  0  0  0  0
   -6.0669   16.7003  -30.6875 H   0  0  0  0  0  0  0  0  0  0  0  0
   -4.5894   15.1747  -31.9347 H   0  0  0  0  0  0  0  0  0  0  0  0
   -6.3035   15.0782  -32.5291 H   0  0  0  0  0  0  0  0  0  0  0  0
   -4.2170   18.2000  -32.4780 H   0  0  0  0  0  0  0  0  0  0  0  0
   -1.0033   20.4782  -31.2350 H   0  0  0  0  0  0  0  0  0  0  0  0
   -1.4814   22.6441  -30.0982 H   0  0  0  0  0  0  0  0  0  0  0  0
   -5.6135   23.2937  -29.1575 H   0  0  0  0  0  0  0  0  0  0  0  0
   -6.5104   24.8547  -29.0458 H   0  0  0  0  0  0  0  0  0  0  0  0
   -5.1037   23.0696  -32.4299 H   0  0  0  0  0  0  0  0  0  0  0  0
   -4.6289   20.9016  -33.5646 H   0  0  0  0  0  0  0  0  0  0  0  0
   -1.4917   21.4453  -35.0860 H   0  0  0  0  0  0  0  0  0  0  0  0
  1  2  1  0
  2  3  1  0
  3  4  2  0
  4  5  1  0
  5  6  2  0
  6  7  1  0
  7  8  1  0
  8  9  2  0
  9 10  1  0
 10 11  1  0
 11 12  1  0
 12 13  1  0
 13 14  1  0
 14 15  1  0
 15 16  1  0
 15 17  1  0
 17 18  1  0
 10 19  2  0
 19 20  1  0
 20 21  1  0
 21 22  2  0
 22 23  1  0
 23 24  2  0
 24 25  1  0
 25 26  1  0
 26 27  2  0
 26 28  1  0
 28 29  1  0
 24 30  1  0
 30 31  2  0
  7 32  2  0
 32  3  1  0
 20  8  1  0
 31 21  1  0
 18 12  1  0
  1 33  1  0
  1 34  1  0
  1 35  1  0
  4 36  1  0
  5 37  1  0
  6 38  1  0
  9 39  1  0
 11 40  1  0
 11 41  1  0
 13 42  1  0
 13 43  1  0
 14 44  1  0
 14 45  1  0
 16 46  1  0
 16 47  1  0
 16 48  1  0
 17 49  1  0
 17 50  1  0
 18 51  1  0
 18 52  1  0
 19 53  1  0
 22 54  1  0
 23 55  1  0
 28 56  1  0
 28 57  1  0
 30 58  1  0
 31 59  1  0
 32 60  1  0
M  CHG  2  19   1  25  -1
M  END
>  <UniqueID>  (39) 
38

>  <SMILES>  (39) 
COc1cccc(-c2cc(CN3CCN(C)CC3)[nH+]n2-c2ccc([N-]C(=O)CCl)cc2)c1

>  <Energy>  (39) 
116.63606141031867

>  <Genealogy>  (39) 
COc1cccc(-c2cc(CN3CCN(C)CC3)[nH+]n2-c2ccc([N-]C(=O)CCl)cc2)c1 (protonated)
COc1cccc(-c2cc(CN3CCN(C)CC3)[nH+]n2-c2ccc([N-]C(=O)CCl)cc2)c1 (3D coordinates assigned)
COc1cccc(-c2cc(CN3CCN(C)CC3)[nH+]n2-c2ccc([N-]C(=O)CCl)cc2)c1 (nonaromatic ring conformer: 116.63606141031867 kcal/mol)

>  <smiles>  (39) 
COc1cccc(-c2cc(CN3CCN(C)CC3)nn2-c2ccc(NC(=O)CCl)cc2)c1

>  <score_type>  (39) 
oracle

>  <origin>  (39) 
adg

>  <m_score__min__energy>  (39) 
-10.039999999999999

>  <m_primary>  (39) 
energy

$$$$
39:0
     RDKit          3D

 45 48  0  0  0  0  0  0  0  0999 V2000
   -1.1560   23.0664  -28.1859 H   0  0  0  0  0  0  0  0  0  0  0  0
   -2.2100   23.2980  -28.3990 C   0  0  0  0  0  0  0  0  0  0  0  0
   -2.7680   24.5490  -29.3710 S   0  0  0  0  0  0  0  0  0  0  0  0
   -4.4130   24.2320  -29.1820 C   0  0  0  0  0  0  0  0  0  0  0  0
   -5.5110   25.0000  -29.8190 C   0  0  0  0  0  0  0  0  0  0  0  0
   -6.1520   26.0400  -29.0630 N   0  0  0  0  0  0  0  0  0  0  0  0
   -7.0850   26.4220  -29.3320 H   0  0  0  0  0  0  0  0  0  0  0  0
   -5.7370   26.3890  -28.1720 H   0  0  0  0  0  0  0  0  0  0  0  0
   -5.9220   24.6890  -31.0230 N   0  0  0  0  0  0  0  0  0  0  0  0
   -5.7680   25.3580  -31.8110 H   0  0  0  0  0  0  0  0  0  0  0  0
   -6.5500   23.4450  -31.3760 C   0  0  0  0  0  0  0  0  0  0  0  0
   -7.9390   23.4240  -31.6570 C   0  0  0  0  0  0  0  0  0  0  0  0
   -8.5131   24.3621  -31.6357 H   0  0  0  0  0  0  0  0  0  0  0  0
   -8.5910   22.2150  -31.9630 C   0  0  0  0  0  0  0  0  0  0  0  0
   -9.6642   22.1922  -32.2033 H   0  0  0  0  0  0  0  0  0  0  0  0
   -7.8290   21.0460  -31.9510 C   0  0  0  0  0  0  0  0  0  0  0  0
   -6.4950   21.0570  -31.6640 C   0  0  0  0  0  0  0  0  0  0  0  0
   -5.9830   19.8170  -31.7470 N   0  0  0  0  0  0  0  0  0  0  0  0
   -7.0600   19.0620  -32.0890 C   0  0  0  0  0  0  0  0  0  0  0  0
   -6.9530   17.5930  -32.3700 C   0  0  0  0  0  0  0  0  0  0  0  0
   -6.6562   17.0683  -31.4499 H   0  0  0  0  0  0  0  0  0  0  0  0
   -7.9292   17.2233  -32.7168 H   0  0  0  0  0  0  0  0  0  0  0  0
   -5.9550   17.3460  -33.4090 N   0  0  0  0  0  0  0  0  0  0  0  0
   -4.8680   16.4460  -33.2990 C   0  0  0  0  0  0  0  0  0  0  0  0
   -4.7280   15.6460  -32.3360 O   0  0  0  0  0  0  0  0  0  0  0  0
   -3.9130   16.5530  -34.4200 C   0  0  0  0  0  0  0  0  0  0  0  0
   -3.7964   15.5865  -34.9321 H   0  0  0  0  0  0  0  0  0  0  0  0
   -2.9015   16.8415  -34.0982 H   0  0  0  0  0  0  0  0  0  0  0  0
   -4.5690   17.5900  -35.3440 C   0  0  0  0  0  0  0  0  0  0  0  0
   -4.9112   17.1061  -36.2707 H   0  0  0  0  0  0  0  0  0  0  0  0
   -3.8522   18.3785  -35.6170 H   0  0  0  0  0  0  0  0  0  0  0  0
   -5.7710   18.1830  -34.5830 C   0  0  0  0  0  0  0  0  0  0  0  0
   -6.6718   18.1598  -35.2138 H   0  0  0  0  0  0  0  0  0  0  0  0
   -5.5939   19.2326  -34.3055 H   0  0  0  0  0  0  0  0  0  0  0  0
   -8.2080   19.7830  -32.2080 N   0  0  0  0  0  0  0  0  0  0  0  0
   -9.5170   19.3200  -32.6660 C   0  0  0  0  0  0  0  0  0  0  0  0
  -10.1516   19.0956  -31.7960 H   0  0  0  0  0  0  0  0  0  0  0  0
   -9.9916   20.1048  -33.2733 H   0  0  0  0  0  0  0  0  0  0  0  0
   -9.3926   18.4113  -33.2733 H   0  0  0  0  0  0  0  0  0  0  0  0
   -5.8180   22.2340  -31.3610 C   0  0  0  0  0  0  0  0  0  0  0  0
   -4.7455   22.2236  -31.1170 H   0  0  0  0  0  0  0  0  0  0  0  0
   -4.5390   23.1220  -28.3460 C   0  0  0  0  0  0  0  0  0  0  0  0
   -5.5091   22.6922  -28.0558 H   0  0  0  0  0  0  0  0  0  0  0  0
   -3.3100   22.6080  -27.9120 C   0  0  0  0  0  0  0  0  0  0  0  0
   -3.2253   21.7368  -27.2458 H   0  0  0  0  0  0  0  0  0  0  0  0
  1  2  1  0
  2  3  1  0
  3  4  1  0
  4  5  1  0
  5  6  1  0
  6  7  1  0
  6  8  1  0
  5  9  2  0
  9 10  1  0
  9 11  1  0
 11 12  2  0
 12 13  1  0
 12 14  1  0
 14 15  1  0
 14 16  2  0
 16 17  1  0
 17 18  1  0
 18 19  2  0
 19 20  1  0
 20 21  1  0
 20 22  1  0
 20 23  1  0
 23 24  1  0
 24 25  2  0
 24 26  1  0
 26 27  1  0
 26 28  1  0
 26 29  1  0
 29 30  1  0
 29 31  1  0
 29 32  1  0
 32 33  1  0
 32 34  1  0
 19 35  1  0
 35 36  1  0
 36 37  1  0
 36 38  1  0
 36 39  1  0
 17 40  2  0
 40 41  1  0
  4 42  2  0
 42 43  1  0
 42 44  1  0
 44 45  1  0
 44  2  2  0
 40 11  1  0
 35 16  1  0
 32 23  1  0
M  CHG  1   9   1
M  END
>  <UniqueID>  (40) 
39

>  <SMILES>  (40) 
Cn1c(CN2CCCC2=O)nc2cc(/[NH+]=C(\N)c3cccs3)ccc21

>  <Energy>  (40) 
123.11714849182094

>  <Genealogy>  (40) 
Cn1c(CN2CCCC2=O)nc2cc([NH+]=C(N)c3cccs3)ccc21 (protonated)
Cn1c(CN2CCCC2=O)nc2cc(/[NH+]=C(\N)c3cccs3)ccc21 (cis-trans isomerization)
Cn1c(CN2CCCC2=O)nc2cc(/[NH+]=C(\N)c3cccs3)ccc21 (3D coordinates assigned)
Cn1c(CN2CCCC2=O)nc2cc(/[NH+]=C(\N)c3cccs3)ccc21 (nonaromatic ring conformer: 123.11714849182094 kcal/mol)

>  <smiles>  (40) 
Cn1c(CN2CCCC2=O)nc2cc(N=C(N)c3cccs3)ccc21

>  <score_type>  (40) 
oracle

>  <origin>  (40) 
adg

>  <m_score__min__energy>  (40) 
-8.7100000000000009

>  <m_primary>  (40) 
energy

$$$$
40:0
     RDKit          3D

 44 46  0  0  0  0  0  0  0  0999 V2000
   -0.5090   22.5720  -29.3200 C   0  0  0  0  0  0  0  0  0  0  0  0
   -1.6830   23.0770  -28.5990 N   0  0  0  0  0  0  0  0  0  0  0  0
   -2.0400   22.4940  -27.2960 C   0  0  0  0  0  0  0  0  0  0  0  0
   -1.2610   23.1630  -26.1960 C   0  0  0  0  0  0  0  0  0  0  0  0
   -1.2950   24.5580  -26.0560 C   0  0  0  0  0  0  0  0  0  0  0  0
   -0.5860   25.1640  -25.0180 C   0  0  0  0  0  0  0  0  0  0  0  0
    0.1300   24.4060  -24.1430 N   0  0  0  0  0  0  0  0  0  0  0  0
    0.1770   23.0510  -24.2540 C   0  0  0  0  0  0  0  0  0  0  0  0
   -0.5190   22.4050  -25.2800 C   0  0  0  0  0  0  0  0  0  0  0  0
   -2.4750   24.1590  -29.1420 C   0  0  0  0  0  0  0  0  0  0  0  0
   -1.9510   25.2910  -29.3230 O   0  0  0  0  0  0  0  0  0  0  0  0
   -3.9350   23.9900  -29.4650 C   0  0  0  0  0  0  0  0  0  0  0  0
   -4.3150   24.9020  -30.5450 N   0  0  0  0  0  0  0  0  0  0  0  0
   -5.5450   24.4140  -31.1880 C   0  0  2  0  0  0  0  0  0  0  0  0
   -6.8360   24.6860  -30.4140 C   0  0  0  0  0  0  0  0  0  0  0  0
   -6.2270   23.2840  -30.4200 C   0  0  1  0  0  0  0  0  0  0  0  0
   -6.9550   22.2290  -31.2350 C   0  0  0  0  0  0  0  0  0  0  0  0
   -6.3020   21.3040  -32.0810 C   0  0  0  0  0  0  0  0  0  0  0  0
   -7.0400   20.3580  -32.7990 C   0  0  0  0  0  0  0  0  0  0  0  0
   -8.4310   20.3200  -32.6860 C   0  0  0  0  0  0  0  0  0  0  0  0
   -9.0880   21.2250  -31.8530 C   0  0  0  0  0  0  0  0  0  0  0  0
   -8.3560   22.1750  -31.1330 C   0  0  0  0  0  0  0  0  0  0  0  0
    0.2525   22.2445  -28.5969 H   0  0  0  0  0  0  0  0  0  0  0  0
   -0.8046   21.7214  -29.9518 H   0  0  0  0  0  0  0  0  0  0  0  0
   -0.0948   23.3715  -29.9518 H   0  0  0  0  0  0  0  0  0  0  0  0
   -3.1161   22.6358  -27.1171 H   0  0  0  0  0  0  0  0  0  0  0  0
   -1.7988   21.4208  -27.3049 H   0  0  0  0  0  0  0  0  0  0  0  0
   -1.8770   25.1708  -26.7601 H   0  0  0  0  0  0  0  0  0  0  0  0
   -0.6058   26.2582  -24.9065 H   0  0  0  0  0  0  0  0  0  0  0  0
    0.6550   24.8750  -23.3710 H   0  0  0  0  0  0  0  0  0  0  0  0
    0.7644   22.4619  -23.5343 H   0  0  0  0  0  0  0  0  0  0  0  0
   -0.4845   21.3091  -25.3678 H   0  0  0  0  0  0  0  0  0  0  0  0
   -4.1210   22.9529  -29.7810 H   0  0  0  0  0  0  0  0  0  0  0  0
   -4.5327   24.2190  -28.5704 H   0  0  0  0  0  0  0  0  0  0  0  0
   -3.5200   24.9490  -31.2270 H   0  0  0  0  0  0  0  0  0  0  0  0
   -5.2189   24.5794  -32.2254 H   0  0  0  0  0  0  0  0  0  0  0  0
   -6.8103   25.2932  -29.4971 H   0  0  0  0  0  0  0  0  0  0  0  0
   -7.8201   25.1082  -30.6656 H   0  0  0  0  0  0  0  0  0  0  0  0
   -5.9062   22.5676  -29.6494 H   0  0  0  0  0  0  0  0  0  0  0  0
   -5.2063   21.3285  -32.1751 H   0  0  0  0  0  0  0  0  0  0  0  0
   -6.5232   19.6418  -33.4547 H   0  0  0  0  0  0  0  0  0  0  0  0
   -9.0088   19.5761  -33.2541 H   0  0  0  0  0  0  0  0  0  0  0  0
  -10.1837   21.1918  -31.7619 H   0  0  0  0  0  0  0  0  0  0  0  0
   -8.8821   22.8871  -30.4803 H   0  0  0  0  0  0  0  0  0  0  0  0
  1  2  1  0
  2  3  1  0
  3  4  1  0
  4  5  2  0
  5  6  1  0
  6  7  2  0
  7  8  1  0
  8  9  2  0
  2 10  1  0
 10 11  2  0
 10 12  1  0
 12 13  1  0
 13 14  1  0
 14 15  1  0
 15 16  1  0
 16 17  1  0
 17 18  2  0
 18 19  1  0
 19 20  2  0
 20 21  1  0
 21 22  2  0
  9  4  1  0
 16 14  1  0
 22 17  1  0
  1 23  1  0
  1 24  1  0
  1 25  1  0
  3 26  1  0
  3 27  1  0
  5 28  1  0
  6 29  1  0
  7 30  1  0
  8 31  1  0
  9 32  1  0
 12 33  1  0
 12 34  1  0
 13 35  1  0
 14 36  1  6
 15 37  1  0
 15 38  1  0
 16 39  1  1
 18 40  1  0
 19 41  1  0
 20 42  1  0
 21 43  1  0
 22 44  1  0
M  CHG  1   7   1
M  END
>  <UniqueID>  (41) 
40

>  <SMILES>  (41) 
CN(Cc1cc[nH+]cc1)C(=O)CN[C@@H]1C[C@H]1c1ccccc1

>  <Energy>  (41) 
312.40014048964406

>  <Genealogy>  (41) 
CN(Cc1cc[nH+]cc1)C(=O)CNC1CC1c1ccccc1 (protonated)
CN(Cc1cc[nH+]cc1)C(=O)CN[C@@H]1C[C@H]1c1ccccc1 (chirality)
CN(Cc1cc[nH+]cc1)C(=O)CN[C@@H]1C[C@H]1c1ccccc1 (3D coordinates assigned)
CN(Cc1cc[nH+]cc1)C(=O)CN[C@@H]1C[C@H]1c1ccccc1 (nonaromatic ring conformer: 312.40014048964406 kcal/mol)

>  <smiles>  (41) 
CN(Cc1ccncc1)C(=O)CNC1CC1c1ccccc1

>  <score_type>  (41) 
oracle

>  <origin>  (41) 
adg

>  <m_score__min__energy>  (41) 
-9.0800000000000001

>  <m_primary>  (41) 
energy

$$$$
41:0
     RDKit          3D

 75 77  0  0  0  0  0  0  0  0999 V2000
   -6.0600   16.9440  -31.3880 C   0  0  0  0  0  0  0  0  0  0  0  0
   -5.0510   16.0680  -32.1520 C   0  0  0  0  0  0  0  0  0  0  0  0
   -4.2820   16.7530  -33.2350 N   0  0  0  0  0  0  0  0  0  0  0  0
   -4.8750   16.6540  -34.5970 C   0  0  0  0  0  0  0  0  0  0  0  0
   -6.3460   17.0700  -34.6320 C   0  0  0  0  0  0  0  0  0  0  0  0
   -2.8280   16.4420  -33.2210 C   0  0  0  0  0  0  0  0  0  0  0  0
   -1.9220   17.6340  -32.8740 C   0  0  0  0  0  0  0  0  0  0  0  0
   -2.4300   18.8350  -33.4540 O   0  0  0  0  0  0  0  0  0  0  0  0
   -2.0020   20.1130  -33.0870 C   0  0  0  0  0  0  0  0  0  0  0  0
   -0.8260   20.3010  -32.6510 O   0  0  0  0  0  0  0  0  0  0  0  0
   -2.9280   21.2760  -33.2890 C   0  0  0  0  0  0  0  0  0  0  0  0
   -4.1300   21.2540  -32.3580 C   0  0  0  0  0  0  0  0  0  0  0  0
   -4.9010   20.1580  -32.4000 C   0  0  0  0  0  0  0  0  0  0  0  0
   -6.2190   20.0480  -31.7160 C   0  0  0  0  0  0  0  0  0  0  0  0
   -7.1170   21.2310  -32.1840 C   0  0  1  0  0  0  0  0  0  0  0  0
   -8.6050   20.8530  -32.5950 C   0  0  1  0  0  0  0  0  0  0  0  0
   -9.1000   19.4710  -32.1140 C   0  0  0  0  0  0  0  0  0  0  0  0
   -9.6570   21.9220  -32.2070 C   0  0  0  0  0  0  0  0  0  0  0  0
   -9.1820   23.3700  -32.3350 C   0  0  0  0  0  0  0  0  0  0  0  0
   -7.7240   23.6330  -31.8900 C   0  0  0  0  0  0  0  0  0  0  0  0
   -7.0010   22.4380  -31.1970 C   0  0  1  0  0  0  0  0  0  0  0  0
   -7.6920   22.0780  -29.8330 C   0  0  0  0  0  0  0  0  0  0  0  0
   -5.5440   22.8990  -30.8590 C   0  0  0  0  0  0  0  0  0  0  0  0
   -5.4650   23.9730  -29.9330 C   0  0  0  0  0  0  0  0  0  0  0  0
   -4.2540   24.4570  -29.4470 C   0  0  0  0  0  0  0  0  0  0  0  0
   -3.0550   23.8740  -29.8400 C   0  0  0  0  0  0  0  0  0  0  0  0
   -1.7230   24.4020  -29.3320 C   0  0  0  0  0  0  0  0  0  0  0  0
   -1.8910   25.1020  -27.9760 C   0  0  0  0  0  0  0  0  0  0  0  0
   -0.6750   23.2850  -29.2450 C   0  0  0  0  0  0  0  0  0  0  0  0
   -3.0940   22.7970  -30.7310 C   0  0  0  0  0  0  0  0  0  0  0  0
   -4.2970   22.3260  -31.3090 C   0  0  0  0  0  0  0  0  0  0  0  0
   -5.9116   16.8152  -30.3057 H   0  0  0  0  0  0  0  0  0  0  0  0
   -5.9059   17.9996  -31.6562 H   0  0  0  0  0  0  0  0  0  0  0  0
   -7.0835   16.6432  -31.6562 H   0  0  0  0  0  0  0  0  0  0  0  0
   -4.3280   15.6727  -31.4233 H   0  0  0  0  0  0  0  0  0  0  0  0
   -5.6492   15.2939  -32.6550 H   0  0  0  0  0  0  0  0  0  0  0  0
   -4.3080   17.7700  -32.9780 H   0  0  0  0  0  0  0  0  0  0  0  0
   -4.3081   17.3079  -35.2760 H   0  0  0  0  0  0  0  0  0  0  0  0
   -4.8204   15.6001  -34.9073 H   0  0  0  0  0  0  0  0  0  0  0  0
   -6.7216   17.1762  -33.6036 H   0  0  0  0  0  0  0  0  0  0  0  0
   -6.4429   18.0308  -35.1588 H   0  0  0  0  0  0  0  0  0  0  0  0
   -6.9317   16.3023  -35.1588 H   0  0  0  0  0  0  0  0  0  0  0  0
   -2.6536   15.6506  -32.4772 H   0  0  0  0  0  0  0  0  0  0  0  0
   -2.5644   16.1378  -34.2447 H   0  0  0  0  0  0  0  0  0  0  0  0
   -1.8795   17.7499  -31.7810 H   0  0  0  0  0  0  0  0  0  0  0  0
   -0.9156   17.4438  -33.2752 H   0  0  0  0  0  0  0  0  0  0  0  0
   -2.3661   22.2050  -33.1124 H   0  0  0  0  0  0  0  0  0  0  0  0
   -3.3109   21.2138  -34.3183 H   0  0  0  0  0  0  0  0  0  0  0  0
   -4.5394   19.2909  -32.9722 H   0  0  0  0  0  0  0  0  0  0  0  0
   -6.6959   19.0926  -31.9803 H   0  0  0  0  0  0  0  0  0  0  0  0
   -6.0826   20.0861  -30.6252 H   0  0  0  0  0  0  0  0  0  0  0  0
   -6.7068   21.5552  -33.1518 H   0  0  0  0  0  0  0  0  0  0  0  0
   -8.5205   20.8086  -33.6909 H   0  0  0  0  0  0  0  0  0  0  0  0
   -9.1086   19.4470  -31.0143 H   0  0  0  0  0  0  0  0  0  0  0  0
  -10.1175   19.2938  -32.4926 H   0  0  0  0  0  0  0  0  0  0  0  0
   -8.4264   18.6881  -32.4926 H   0  0  0  0  0  0  0  0  0  0  0  0
  -10.5334   21.7911  -32.8588 H   0  0  0  0  0  0  0  0  0  0  0  0
   -9.8789   21.7635  -31.1413 H   0  0  0  0  0  0  0  0  0  0  0  0
   -9.2727   23.6646  -33.3909 H   0  0  0  0  0  0  0  0  0  0  0  0
   -9.8165   23.9578  -31.6554 H   0  0  0  0  0  0  0  0  0  0  0  0
   -7.1428   23.9075  -32.7827 H   0  0  0  0  0  0  0  0  0  0  0  0
   -7.7814   24.4281  -31.1321 H   0  0  0  0  0  0  0  0  0  0  0  0
   -7.0547   22.4100  -29.0002 H   0  0  0  0  0  0  0  0  0  0  0  0
   -8.6676   22.5825  -29.7718 H   0  0  0  0  0  0  0  0  0  0  0  0
   -7.8376   20.9894  -29.7718 H   0  0  0  0  0  0  0  0  0  0  0  0
   -6.3981   24.4409  -29.5861 H   0  0  0  0  0  0  0  0  0  0  0  0
   -4.2457   25.3060  -28.7477 H   0  0  0  0  0  0  0  0  0  0  0  0
   -1.3604   25.1445  -30.0581 H   0  0  0  0  0  0  0  0  0  0  0  0
   -1.7174   24.3785  -27.1659 H   0  0  0  0  0  0  0  0  0  0  0  0
   -1.1647   25.9241  -27.8953 H   0  0  0  0  0  0  0  0  0  0  0  0
   -2.9114   25.5049  -27.8953 H   0  0  0  0  0  0  0  0  0  0  0  0
   -0.4648   23.0609  -28.1888 H   0  0  0  0  0  0  0  0  0  0  0  0
   -1.0594   22.3821  -29.7419 H   0  0  0  0  0  0  0  0  0  0  0  0
    0.2506   23.6111  -29.7419 H   0  0  0  0  0  0  0  0  0  0  0  0
   -2.1510   22.2952  -30.9935 H   0  0  0  0  0  0  0  0  0  0  0  0
  1  2  1  0
  2  3  1  0
  3  4  1  0
  4  5  1  0
  3  6  1  0
  6  7  1  0
  7  8  1  0
  8  9  1  0
  9 10  2  0
  9 11  1  0
 11 12  1  0
 12 13  2  0
 13 14  1  0
 14 15  1  0
 15 16  1  0
 16 17  1  0
 16 18  1  0
 18 19  1  0
 19 20  1  0
 20 21  1  0
 21 22  1  1
 21 23  1  0
 23 24  2  0
 24 25  1  0
 25 26  2  0
 26 27  1  0
 27 28  1  0
 27 29  1  0
 26 30  1  0
 30 31  2  0
 31 12  1  0
 21 15  1  0
 31 23  1  0
  1 32  1  0
  1 33  1  0
  1 34  1  0
  2 35  1  0
  2 36  1  0
  3 37  1  0
  4 38  1  0
  4 39  1  0
  5 40  1  0
  5 41  1  0
  5 42  1  0
  6 43  1  0
  6 44  1  0
  7 45  1  0
  7 46  1  0
 11 47  1  0
 11 48  1  0
 13 49  1  0
 14 50  1  0
 14 51  1  0
 15 52  1  6
 16 53  1  6
 17 54  1  0
 17 55  1  0
 17 56  1  0
 18 57  1  0
 18 58  1  0
 19 59  1  0
 19 60  1  0
 20 61  1  0
 20 62  1  0
 22 63  1  0
 22 64  1  0
 22 65  1  0
 24 66  1  0
 25 67  1  0
 27 68  1  0
 28 69  1  0
 28 70  1  0
 28 71  1  0
 29 72  1  0
 29 73  1  0
 29 74  1  0
 30 75  1  0
M  CHG  1   3   1
M  END
>  <UniqueID>  (42) 
41

>  <SMILES>  (42) 
CC[NH+](CC)CCOC(=O)CC1=CC[C@H]2[C@@H](C)CCCC2(C)c2ccc(C(C)C)cc21

>  <Energy>  (42) 
124.41826787588744

>  <Genealogy>  (42) 
CC[NH+](CC)CCOC(=O)CC1=CCC2C(C)CCCC2(C)c2ccc(C(C)C)cc21 (protonated)
CC[NH+](CC)CCOC(=O)CC1=CC[C@H]2[C@@H](C)CCCC2(C)c2ccc(C(C)C)cc21 (chirality)
CC[NH+](CC)CCOC(=O)CC1=CC[C@H]2[C@@H](C)CCCC2(C)c2ccc(C(C)C)cc21 (3D coordinates assigned)
CC[NH+](CC)CCOC(=O)CC1=CC[C@H]2[C@@H](C)CCCC2(C)c2ccc(C(C)C)cc21 (nonaromatic ring conformer: 124.41826787588744 kcal/mol)

>  <smiles>  (42) 
CCN(CC)CCOC(=O)CC1=CCC2C(C)CCCC2(C)c2ccc(C(C)C)cc21

>  <score_type>  (42) 
oracle

>  <origin>  (42) 
adg

>  <m_score__min__energy>  (42) 
-8.8399999999999999

>  <m_primary>  (42) 
energy

$$$$
42:0
     RDKit          3D

 36 39  0  0  0  0  0  0  0  0999 V2000
   -5.5460   25.6690  -30.1860 C   0  0  0  0  0  0  0  0  0  0  0  0
   -4.2250   25.4720  -30.6730 O   0  0  0  0  0  0  0  0  0  0  0  0
   -3.4950   24.3270  -30.3460 C   0  0  0  0  0  0  0  0  0  0  0  0
   -3.8850   23.0840  -30.8640 C   0  0  0  0  0  0  0  0  0  0  0  0
   -5.4190   22.9370  -32.0000 Br  0  0  0  0  0  0  0  0  0  0  0  0
   -3.1560   21.9340  -30.5540 C   0  0  0  0  0  0  0  0  0  0  0  0
   -2.0330   22.0090  -29.7210 C   0  0  0  0  0  0  0  0  0  0  0  0
   -1.3000   20.8520  -29.4140 C   0  0  0  0  0  0  0  0  0  0  0  0
   -0.1730   20.9170  -28.5770 C   0  0  0  0  0  0  0  0  0  0  0  0
    0.6000   19.6910  -28.2550 C   0  0  0  0  0  0  0  0  0  0  0  0
    2.0200   19.6950  -28.3260 C   0  0  0  0  0  0  0  0  0  0  0  0
    2.7580   18.5360  -28.0210 C   0  0  0  0  0  0  0  0  0  0  0  0
    2.0530   17.3960  -27.6520 C   0  0  0  0  0  0  0  0  0  0  0  0
    0.6990   17.3800  -27.5810 C   0  0  0  0  0  0  0  0  0  0  0  0
   -0.0700   18.5030  -27.8750 C   0  0  0  0  0  0  0  0  0  0  0  0
    0.2730   16.1250  -27.1890 O   0  0  0  0  0  0  0  0  0  0  0  0
    1.4340   15.3010  -27.0030 C   0  0  0  0  0  0  0  0  0  0  0  0
    2.5470   16.1520  -27.3090 O   0  0  0  0  0  0  0  0  0  0  0  0
    0.2120   22.1610  -28.0490 C   0  0  0  0  0  0  0  0  0  0  0  0
   -0.5100   23.3180  -28.3470 C   0  0  0  0  0  0  0  0  0  0  0  0
   -1.6370   23.2580  -29.1840 C   0  0  0  0  0  0  0  0  0  0  0  0
   -2.3780   24.4180  -29.4930 C   0  0  0  0  0  0  0  0  0  0  0  0
   -2.0030   25.6480  -28.9470 O   0  0  0  0  0  0  0  0  0  0  0  0
   -5.5353   25.6674  -29.0861 H   0  0  0  0  0  0  0  0  0  0  0  0
   -5.9299   26.6343  -30.5476 H   0  0  0  0  0  0  0  0  0  0  0  0
   -6.1949   24.8577  -30.5476 H   0  0  0  0  0  0  0  0  0  0  0  0
   -3.4660   20.9627  -30.9670 H   0  0  0  0  0  0  0  0  0  0  0  0
   -1.6111   19.8838  -29.8332 H   0  0  0  0  0  0  0  0  0  0  0  0
    2.5474   20.6137  -28.6224 H   0  0  0  0  0  0  0  0  0  0  0  0
    3.8568   18.5323  -28.0729 H   0  0  0  0  0  0  0  0  0  0  0  0
   -1.1677   18.4681  -27.8137 H   0  0  0  0  0  0  0  0  0  0  0  0
    1.4934   14.9458  -25.9636 H   0  0  0  0  0  0  0  0  0  0  0  0
    1.4113   14.4055  -27.6414 H   0  0  0  0  0  0  0  0  0  0  0  0
    1.0928   22.2239  -27.3931 H   0  0  0  0  0  0  0  0  0  0  0  0
   -0.1945   24.2831  -27.9238 H   0  0  0  0  0  0  0  0  0  0  0  0
   -2.6070   26.4600  -28.9720 H   0  0  0  0  0  0  0  0  0  0  0  0
  1  2  1  0
  2  3  1  0
  3  4  2  0
  4  5  1  0
  4  6  1  0
  6  7  2  0
  7  8  1  0
  8  9  2  0
  9 10  1  0
 10 11  2  0
 11 12  1  0
 12 13  2  0
 13 14  1  0
 14 15  2  0
 14 16  1  0
 16 17  1  0
 17 18  1  0
  9 19  1  0
 19 20  2  0
 20 21  1  0
 21 22  2  0
 22 23  1  0
 22  3  1  0
 21  7  1  0
 15 10  1  0
 18 13  1  0
  1 24  1  0
  1 25  1  0
  1 26  1  0
  6 27  1  0
  8 28  1  0
 11 29  1  0
 12 30  1  0
 15 31  1  0
 17 32  1  0
 17 33  1  0
 19 34  1  0
 20 35  1  0
 23 36  1  0
M  END
>  <UniqueID>  (43) 
42

>  <SMILES>  (43) 
COc1c(Br)cc2cc(-c3ccc4c(c3)OCO4)ccc2c1O

>  <Energy>  (43) 
83.7526127963179

>  <Genealogy>  (43) 
COc1c(Br)cc2cc(-c3ccc4c(c3)OCO4)ccc2c1O (3D coordinates assigned)
COc1c(Br)cc2cc(-c3ccc4c(c3)OCO4)ccc2c1O (nonaromatic ring conformer: 83.7526127963179 kcal/mol)

>  <smiles>  (43) 
COc1c(Br)cc2cc(-c3ccc4c(c3)OCO4)ccc2c1O

>  <score_type>  (43) 
oracle

>  <origin>  (43) 
adg

>  <m_score__min__energy>  (43) 
-9.0299999999999994

>  <m_primary>  (43) 
energy

$$$$
43:0
     RDKit          3D

 28 29  0  0  0  0  0  0  0  0999 V2000
   -5.4980   20.1860  -32.8950 F   0  0  0  0  0  0  0  0  0  0  0  0
   -6.8010   20.4180  -32.5980 C   0  0  0  0  0  0  0  0  0  0  0  0
   -7.7250   19.3790  -32.7470 C   0  0  0  0  0  0  0  0  0  0  0  0
   -9.0700   19.5830  -32.4320 C   0  0  0  0  0  0  0  0  0  0  0  0
   -9.4950   20.8260  -31.9570 C   0  0  0  0  0  0  0  0  0  0  0  0
   -8.5780   21.8700  -31.8060 C   0  0  0  0  0  0  0  0  0  0  0  0
   -7.2240   21.6840  -32.1420 C   0  0  0  0  0  0  0  0  0  0  0  0
   -6.2390   22.8250  -31.9910 C   0  0  0  0  0  0  0  0  0  0  0  0
   -6.1170   23.3380  -30.6060 N   0  0  0  0  0  0  0  0  0  0  0  0
   -4.8600   22.9940  -29.9150 C   0  0  0  0  0  0  0  0  0  0  0  0
   -3.7530   24.0550  -30.1230 C   0  0  0  0  0  0  0  0  0  0  0  0
   -4.2040   25.1930  -30.8320 O   0  0  0  0  0  0  0  0  0  0  0  0
   -5.3670   25.7010  -30.2190 C   0  0  0  0  0  0  0  0  0  0  0  0
   -6.5510   24.7380  -30.4070 C   0  0  0  0  0  0  0  0  0  0  0  0
   -7.3910   18.3972  -33.1138 H   0  0  0  0  0  0  0  0  0  0  0  0
   -9.7947   18.7651  -32.5579 H   0  0  0  0  0  0  0  0  0  0  0  0
  -10.5532   20.9835  -31.7013 H   0  0  0  0  0  0  0  0  0  0  0  0
   -8.9168   22.8435  -31.4220 H   0  0  0  0  0  0  0  0  0  0  0  0
   -5.2494   22.4729  -32.3177 H   0  0  0  0  0  0  0  0  0  0  0  0
   -6.6178   23.6552  -32.6052 H   0  0  0  0  0  0  0  0  0  0  0  0
   -5.0639   22.9050  -28.8377 H   0  0  0  0  0  0  0  0  0  0  0  0
   -4.4960   22.0471  -30.3404 H   0  0  0  0  0  0  0  0  0  0  0  0
   -3.3877   24.3783  -29.1371 H   0  0  0  0  0  0  0  0  0  0  0  0
   -2.9579   23.5877  -30.7226 H   0  0  0  0  0  0  0  0  0  0  0  0
   -5.1784   25.8344  -29.1435 H   0  0  0  0  0  0  0  0  0  0  0  0
   -5.6192   26.6640  -30.6869 H   0  0  0  0  0  0  0  0  0  0  0  0
   -7.1897   24.7855  -29.5127 H   0  0  0  0  0  0  0  0  0  0  0  0
   -7.0955   25.0505  -31.3102 H   0  0  0  0  0  0  0  0  0  0  0  0
  1  2  1  0
  2  3  2  0
  3  4  1  0
  4  5  2  0
  5  6  1  0
  6  7  2  0
  7  8  1  0
  8  9  1  0
  9 10  1  0
 10 11  1  0
 11 12  1  0
 12 13  1  0
 13 14  1  0
  7  2  1  0
 14  9  1  0
  3 15  1  0
  4 16  1  0
  5 17  1  0
  6 18  1  0
  8 19  1  0
  8 20  1  0
 10 21  1  0
 10 22  1  0
 11 23  1  0
 11 24  1  0
 13 25  1  0
 13 26  1  0
 14 27  1  0
 14 28  1  0
M  END
>  <UniqueID>  (44) 
43

>  <SMILES>  (44) 
Fc1ccccc1CN1CCOCC1

>  <Energy>  (44) 
42.92795846000944

>  <Genealogy>  (44) 
Fc1ccccc1CN1CCOCC1 (3D coordinates assigned)
Fc1ccccc1CN1CCOCC1 (nonaromatic ring conformer: 42.92795846000944 kcal/mol)

>  <smiles>  (44) 
Fc1ccccc1CN1CCOCC1

>  <score_type>  (44) 
oracle

>  <origin>  (44) 
adg

>  <m_score__min__energy>  (44) 
-6.5999999999999996

>  <m_primary>  (44) 
energy

$$$$
44:0
     RDKit          3D

 53 55  0  0  0  0  0  0  0  0999 V2000
   -9.4110   21.6450  -30.7880 C   0  0  0  0  0  0  0  0  0  0  0  0
   -8.5770   22.5440  -31.6930 C   0  0  0  0  0  0  0  0  0  0  0  0
   -7.2700   21.8830  -32.0350 C   0  0  0  0  0  0  0  0  0  0  0  0
   -6.0120   22.4840  -32.1590 C   0  0  0  0  0  0  0  0  0  0  0  0
   -5.6960   23.9200  -31.8160 C   0  0  0  0  0  0  0  0  0  0  0  0
   -5.0510   24.0330  -30.4300 C   0  0  0  0  0  0  0  0  0  0  0  0
   -3.9190   24.9620  -30.4680 N   0  0  0  0  0  0  0  0  0  0  0  0
   -2.6980   24.4640  -29.3360 S   0  0  0  0  0  0  0  0  0  0  0  0
   -3.4600   23.6870  -27.9270 C   0  0  0  0  0  0  0  0  0  0  0  0
   -1.7420   23.5030  -29.9880 O   0  0  0  0  0  0  0  0  0  0  0  0
   -1.9380   25.6740  -28.8700 O   0  0  0  0  0  0  0  0  0  0  0  0
   -5.0920   21.5700  -32.5810 N   0  0  0  0  0  0  0  0  0  0  0  0
   -3.6780   21.8210  -32.8930 C   0  0  0  0  0  0  0  0  0  0  0  0
   -2.7860   21.3320  -31.7790 C   0  0  0  0  0  0  0  0  0  0  0  0
   -1.4050   21.1870  -31.9860 C   0  0  0  0  0  0  0  0  0  0  0  0
   -0.5770   20.7370  -30.9530 C   0  0  0  0  0  0  0  0  0  0  0  0
   -1.1190   20.4320  -29.6910 C   0  0  0  0  0  0  0  0  0  0  0  0
   -0.3320   19.9760  -28.6230 O   0  0  0  0  0  0  0  0  0  0  0  0
   -0.8460   19.3230  -27.4670 C   0  0  0  0  0  0  0  0  0  0  0  0
   -2.4940   20.5910  -29.4830 C   0  0  0  0  0  0  0  0  0  0  0  0
   -3.3220   21.0400  -30.5150 C   0  0  0  0  0  0  0  0  0  0  0  0
   -5.7670   20.4080  -32.7410 C   0  0  0  0  0  0  0  0  0  0  0  0
   -5.2770   19.1730  -33.1860 C   0  0  0  0  0  0  0  0  0  0  0  0
   -6.1800   18.1030  -33.3010 C   0  0  0  0  0  0  0  0  0  0  0  0
   -7.5420   18.2780  -32.9790 C   0  0  0  0  0  0  0  0  0  0  0  0
   -8.0120   19.5250  -32.5360 C   0  0  0  0  0  0  0  0  0  0  0  0
   -7.0940   20.5700  -32.4230 C   0  0  0  0  0  0  0  0  0  0  0  0
   -9.1928   21.8802  -29.7358 H   0  0  0  0  0  0  0  0  0  0  0  0
  -10.4795   21.8138  -30.9875 H   0  0  0  0  0  0  0  0  0  0  0  0
   -9.1626   20.5921  -30.9875 H   0  0  0  0  0  0  0  0  0  0  0  0
   -9.1354   22.7423  -32.6197 H   0  0  0  0  0  0  0  0  0  0  0  0
   -8.3707   23.4864  -31.1646 H   0  0  0  0  0  0  0  0  0  0  0  0
   -5.0021   24.3236  -32.5681 H   0  0  0  0  0  0  0  0  0  0  0  0
   -6.6367   24.4901  -31.8085 H   0  0  0  0  0  0  0  0  0  0  0  0
   -5.7981   24.4011  -29.7114 H   0  0  0  0  0  0  0  0  0  0  0  0
   -4.6884   23.0409  -30.1231 H   0  0  0  0  0  0  0  0  0  0  0  0
   -3.4900   24.9090  -31.4200 H   0  0  0  0  0  0  0  0  0  0  0  0
   -3.0422   24.1130  -27.0029 H   0  0  0  0  0  0  0  0  0  0  0  0
   -4.5455   23.8628  -27.9538 H   0  0  0  0  0  0  0  0  0  0  0  0
   -3.2630   22.6051  -27.9538 H   0  0  0  0  0  0  0  0  0  0  0  0
   -3.4152   21.2944  -33.8223 H   0  0  0  0  0  0  0  0  0  0  0  0
   -3.5311   22.9047  -33.0109 H   0  0  0  0  0  0  0  0  0  0  0  0
   -0.9714   21.4290  -32.9675 H   0  0  0  0  0  0  0  0  0  0  0  0
    0.5028   20.6210  -31.1278 H   0  0  0  0  0  0  0  0  0  0  0  0
   -0.4575   19.8165  -26.5639 H   0  0  0  0  0  0  0  0  0  0  0  0
   -1.9445   19.3795  -27.4720 H   0  0  0  0  0  0  0  0  0  0  0  0
   -0.5331   18.2685  -27.4720 H   0  0  0  0  0  0  0  0  0  0  0  0
   -2.9266   20.3604  -28.4983 H   0  0  0  0  0  0  0  0  0  0  0  0
   -4.4001   21.1654  -30.3359 H   0  0  0  0  0  0  0  0  0  0  0  0
   -4.2141   19.0448  -33.4385 H   0  0  0  0  0  0  0  0  0  0  0  0
   -5.8221   17.1213  -33.6448 H   0  0  0  0  0  0  0  0  0  0  0  0
   -8.2398   17.4332  -33.0754 H   0  0  0  0  0  0  0  0  0  0  0  0
   -9.0727   19.6737  -32.2854 H   0  0  0  0  0  0  0  0  0  0  0  0
  1  2  1  0
  2  3  1  0
  3  4  2  0
  4  5  1  0
  5  6  1  0
  6  7  1  0
  7  8  1  0
  8  9  1  0
  8 10  2  0
  8 11  2  0
  4 12  1  0
 12 13  1  0
 13 14  1  0
 14 15  2  0
 15 16  1  0
 16 17  2  0
 17 18  1  0
 18 19  1  0
 17 20  1  0
 20 21  2  0
 12 22  1  0
 22 23  2  0
 23 24  1  0
 24 25  2  0
 25 26  1  0
 26 27  2  0
 27  3  1  0
 21 14  1  0
 27 22  1  0
  1 28  1  0
  1 29  1  0
  1 30  1  0
  2 31  1  0
  2 32  1  0
  5 33  1  0
  5 34  1  0
  6 35  1  0
  6 36  1  0
  7 37  1  0
  9 38  1  0
  9 39  1  0
  9 40  1  0
 13 41  1  0
 13 42  1  0
 15 43  1  0
 16 44  1  0
 19 45  1  0
 19 46  1  0
 19 47  1  0
 20 48  1  0
 21 49  1  0
 23 50  1  0
 24 51  1  0
 25 52  1  0
 26 53  1  0
M  END
>  <UniqueID>  (45) 
44

>  <SMILES>  (45) 
CCc1c(CCNS(C)(=O)=O)n(Cc2ccc(OC)cc2)c2ccccc12

>  <Energy>  (45) 
73.14931554464685

>  <Genealogy>  (45) 
CCc1c(CCNS(C)(=O)=O)n(Cc2ccc(OC)cc2)c2ccccc12 (3D coordinates assigned)
CCc1c(CCNS(C)(=O)=O)n(Cc2ccc(OC)cc2)c2ccccc12 (optimized conformer: 73.14931554464685 kcal/mol)

>  <smiles>  (45) 
CCc1c(CCNS(C)(=O)=O)n(Cc2ccc(OC)cc2)c2ccccc12

>  <score_type>  (45) 
oracle

>  <origin>  (45) 
adg

>  <m_score__min__energy>  (45) 
-9.2400000000000002

>  <m_primary>  (45) 
energy

$$$$
45:0
     RDKit          3D

 42 45  0  0  0  0  0  0  0  0999 V2000
   -9.1220   19.9310  -32.3660 C   0  0  0  0  0  0  0  0  0  0  0  0
   -8.4990   20.9610  -31.5220 N   0  0  0  0  0  0  0  0  0  0  0  0
   -9.4840   21.5520  -30.6030 C   0  0  0  0  0  0  0  0  0  0  0  0
   -7.7600   21.9780  -32.3050 C   0  0  0  0  0  0  0  0  0  0  0  0
   -6.2790   22.0530  -31.9810 C   0  0  0  0  0  0  0  0  0  0  0  0
   -5.3430   21.0110  -32.0030 C   0  0  0  0  0  0  0  0  0  0  0  0
   -5.5450   19.6250  -32.4660 C   0  0  0  0  0  0  0  0  0  0  0  0
   -5.4390   19.3250  -33.8320 C   0  0  0  0  0  0  0  0  0  0  0  0
   -5.6300   18.0170  -34.2850 C   0  0  0  0  0  0  0  0  0  0  0  0
   -5.9480   16.9870  -33.3810 C   0  0  0  0  0  0  0  0  0  0  0  0
   -6.1490   15.5970  -33.8500 C   0  0  0  0  0  0  0  0  0  0  0  0
   -7.2390   15.1920  -34.5410 N   0  0  0  0  0  0  0  0  0  0  0  0
   -7.1890   13.8700  -34.8560 C   0  0  0  0  0  0  0  0  0  0  0  0
   -6.0530   13.2010  -34.4200 C   0  0  0  0  0  0  0  0  0  0  0  0
   -5.0840   14.3110  -33.6120 S   0  0  0  0  0  0  0  0  0  0  0  0
   -6.0800   17.2990  -32.0170 C   0  0  0  0  0  0  0  0  0  0  0  0
   -5.8870   18.6070  -31.5650 C   0  0  0  0  0  0  0  0  0  0  0  0
   -4.1660   21.4590  -31.5110 N   0  0  0  0  0  0  0  0  0  0  0  0
   -4.3870   22.7530  -31.2230 C   0  0  0  0  0  0  0  0  0  0  0  0
   -3.4660   23.6570  -30.6990 C   0  0  0  0  0  0  0  0  0  0  0  0
   -3.8800   24.9380  -30.4790 N   0  0  0  0  0  0  0  0  0  0  0  0
   -5.1560   25.3380  -30.7620 C   0  0  0  0  0  0  0  0  0  0  0  0
   -6.0730   24.4160  -31.2900 C   0  0  0  0  0  0  0  0  0  0  0  0
   -5.6430   23.1430  -31.4970 N   0  0  0  0  0  0  0  0  0  0  0  0
   -9.5855   19.1647  -31.7273 H   0  0  0  0  0  0  0  0  0  0  0  0
   -9.8918   20.3937  -33.0011 H   0  0  0  0  0  0  0  0  0  0  0  0
   -8.3548   19.4640  -33.0011 H   0  0  0  0  0  0  0  0  0  0  0  0
   -9.1740   21.3660  -29.5641 H   0  0  0  0  0  0  0  0  0  0  0  0
   -9.5452   22.6361  -30.7788 H   0  0  0  0  0  0  0  0  0  0  0  0
  -10.4694   21.0958  -30.7788 H   0  0  0  0  0  0  0  0  0  0  0  0
   -7.8683   21.7377  -33.3730 H   0  0  0  0  0  0  0  0  0  0  0  0
   -8.1920   22.9553  -32.0438 H   0  0  0  0  0  0  0  0  0  0  0  0
   -5.2042   20.1239  -34.5508 H   0  0  0  0  0  0  0  0  0  0  0  0
   -5.5309   17.7909  -35.3569 H   0  0  0  0  0  0  0  0  0  0  0  0
   -7.9909   13.3667  -35.4160 H   0  0  0  0  0  0  0  0  0  0  0  0
   -5.8278   12.1356  -34.5756 H   0  0  0  0  0  0  0  0  0  0  0  0
   -6.3375   16.5065  -31.2989 H   0  0  0  0  0  0  0  0  0  0  0  0
   -6.0041   18.8392  -30.4962 H   0  0  0  0  0  0  0  0  0  0  0  0
   -3.2750   20.9250  -31.3960 H   0  0  0  0  0  0  0  0  0  0  0  0
   -2.4358   23.3473  -30.4695 H   0  0  0  0  0  0  0  0  0  0  0  0
   -5.4628   26.3780  -30.5767 H   0  0  0  0  0  0  0  0  0  0  0  0
   -7.1049   24.7134  -31.5283 H   0  0  0  0  0  0  0  0  0  0  0  0
  1  2  1  0
  2  3  1  0
  2  4  1  0
  4  5  1  0
  5  6  2  0
  6  7  1  0
  7  8  2  0
  8  9  1  0
  9 10  2  0
 10 11  1  0
 11 12  2  0
 12 13  1  0
 13 14  2  0
 14 15  1  0
 10 16  1  0
 16 17  2  0
  6 18  1  0
 18 19  2  0
 19 20  1  0
 20 21  2  0
 21 22  1  0
 22 23  2  0
 23 24  1  0
 24  5  1  0
 17  7  1  0
 24 19  1  0
 15 11  1  0
  1 25  1  0
  1 26  1  0
  1 27  1  0
  3 28  1  0
  3 29  1  0
  3 30  1  0
  4 31  1  0
  4 32  1  0
  8 33  1  0
  9 34  1  0
 13 35  1  0
 14 36  1  0
 16 37  1  0
 17 38  1  0
 18 39  1  0
 20 40  1  0
 22 41  1  0
 23 42  1  0
M  CHG  1  18   1
M  END
>  <UniqueID>  (46) 
45

>  <SMILES>  (46) 
CN(C)Cc1c(-c2ccc(-c3nccs3)cc2)[nH+]c2cnccn12

>  <Energy>  (46) 
121.8698510047883

>  <Genealogy>  (46) 
CN(C)Cc1c(-c2ccc(-c3nccs3)cc2)[nH+]c2cnccn12 (protonated)
CN(C)Cc1c(-c2ccc(-c3nccs3)cc2)[nH+]c2cnccn12 (3D coordinates assigned)
CN(C)Cc1c(-c2ccc(-c3nccs3)cc2)[nH+]c2cnccn12 (optimized conformer: 121.8698510047883 kcal/mol)

>  <smiles>  (46) 
CN(C)Cc1c(-c2ccc(-c3nccs3)cc2)nc2cnccn12

>  <score_type>  (46) 
oracle

>  <origin>  (46) 
adg

>  <m_score__min__energy>  (46) 
-7.25

>  <m_primary>  (46) 
energy

$$$$
46:0
     RDKit          3D

 80 83  0  0  0  0  0  0  0  0999 V2000
   -5.8340   19.0540  -34.0970 C   0  0  0  0  0  0  0  0  0  0  0  0
   -6.1420   19.7690  -32.7850 C   0  0  0  0  0  0  0  0  0  0  0  0
   -7.6030   19.9060  -32.5960 N   0  0  0  0  0  0  0  0  0  0  0  0
   -8.3140   18.6060  -32.6860 C   0  0  0  0  0  0  0  0  0  0  0  0
   -9.0930   18.2140  -31.4200 C   0  0  0  0  0  0  0  0  0  0  0  0
   -7.9430   20.6840  -31.3810 C   0  0  0  0  0  0  0  0  0  0  0  0
   -8.6420   22.0120  -31.7230 C   0  0  0  0  0  0  0  0  0  0  0  0
   -7.6720   23.1000  -32.2220 C   0  0  0  0  0  0  0  0  0  0  0  0
   -6.8150   23.6630  -31.1110 C   0  0  0  0  0  0  0  0  0  0  0  0
   -7.2380   24.6270  -30.4890 O   0  0  0  0  0  0  0  0  0  0  0  0
   -5.5150   23.0100  -30.6520 C   0  0  1  0  0  0  0  0  0  0  0  0
   -4.6290   22.4090  -31.7710 C   0  0  0  0  0  0  0  0  0  0  0  0
   -3.1780   22.4950  -31.2680 C   0  0  0  0  0  0  0  0  0  0  0  0
   -3.2910   23.0550  -29.8500 C   0  0  1  0  0  0  0  0  0  0  0  0
   -2.0450   23.7600  -29.2460 C   0  0  2  0  0  0  0  0  0  0  0  0
   -0.9320   22.7110  -28.9880 C   0  0  0  0  0  0  0  0  0  0  0  0
   -0.7010   22.3780  -27.5440 C   0  0  0  0  0  0  0  0  0  0  0  0
   -0.6930   23.3380  -26.6020 C   0  0  0  0  0  0  0  0  0  0  0  0
    0.4100   23.2830  -25.5740 C   0  0  0  0  0  0  0  0  0  0  0  0
    1.5970   24.1030  -26.1190 C   0  0  2  0  0  0  0  0  0  0  0  0
    2.6270   24.1800  -25.1330 O   0  0  0  0  0  0  0  0  0  0  0  0
    3.8510   24.8240  -25.3470 C   0  0  0  0  0  0  0  0  0  0  0  0
    3.9730   26.2770  -25.0380 C   0  0  0  0  0  0  0  0  0  0  0  0
    4.8430   24.1920  -25.8040 O   0  0  0  0  0  0  0  0  0  0  0  0
    1.1740   25.5370  -26.5190 C   0  0  0  0  0  0  0  0  0  0  0  0
   -0.0820   25.5810  -27.4310 C   0  0  0  0  0  0  0  0  0  0  0  0
   -1.2650   24.7150  -26.9010 C   0  0  2  0  0  0  0  0  0  0  0  0
   -1.8070   25.3720  -25.5980 C   0  0  0  0  0  0  0  0  0  0  0  0
   -2.4260   24.6220  -27.9740 C   0  0  2  0  0  0  0  0  0  0  0  0
   -3.8030   24.1650  -27.3820 C   0  0  0  0  0  0  0  0  0  0  0  0
   -4.9760   24.2140  -28.4000 C   0  0  0  0  0  0  0  0  0  0  0  0
   -4.5460   23.9330  -29.8680 C   0  0  2  0  0  0  0  0  0  0  0  0
   -4.3380   25.2730  -30.6480 C   0  0  0  0  0  0  0  0  0  0  0  0
   -5.4071   18.0630  -33.8831 H   0  0  0  0  0  0  0  0  0  0  0  0
   -6.7613   18.9364  -34.6769 H   0  0  0  0  0  0  0  0  0  0  0  0
   -5.1115   19.6470  -34.6769 H   0  0  0  0  0  0  0  0  0  0  0  0
   -5.7225   19.1886  -31.9501 H   0  0  0  0  0  0  0  0  0  0  0  0
   -5.6930   20.7728  -32.8148 H   0  0  0  0  0  0  0  0  0  0  0  0
   -9.0253   18.6611  -33.5233 H   0  0  0  0  0  0  0  0  0  0  0  0
   -7.5406   17.8366  -32.8270 H   0  0  0  0  0  0  0  0  0  0  0  0
   -8.5159   18.5044  -30.5297 H   0  0  0  0  0  0  0  0  0  0  0  0
  -10.0640   18.7308  -31.4122 H   0  0  0  0  0  0  0  0  0  0  0  0
   -9.2565   17.1263  -31.4122 H   0  0  0  0  0  0  0  0  0  0  0  0
   -8.6135   20.0821  -30.7500 H   0  0  0  0  0  0  0  0  0  0  0  0
   -7.0059   20.9191  -30.8550 H   0  0  0  0  0  0  0  0  0  0  0  0
   -9.3877   21.8218  -32.5090 H   0  0  0  0  0  0  0  0  0  0  0  0
   -9.1026   22.3859  -30.7967 H   0  0  0  0  0  0  0  0  0  0  0  0
   -7.0146   22.6626  -32.9879 H   0  0  0  0  0  0  0  0  0  0  0  0
   -8.2749   23.9244  -32.6306 H   0  0  0  0  0  0  0  0  0  0  0  0
   -5.9415   22.2242  -30.0111 H   0  0  0  0  0  0  0  0  0  0  0  0
   -4.9067   21.3606  -31.9545 H   0  0  0  0  0  0  0  0  0  0  0  0
   -4.7564   22.9549  -32.7175 H   0  0  0  0  0  0  0  0  0  0  0  0
   -2.7121   21.4986  -31.2555 H   0  0  0  0  0  0  0  0  0  0  0  0
   -2.5499   23.1248  -31.9152 H   0  0  0  0  0  0  0  0  0  0  0  0
   -3.3631   22.2118  -29.1473 H   0  0  0  0  0  0  0  0  0  0  0  0
   -1.6418   24.4864  -29.9669 H   0  0  0  0  0  0  0  0  0  0  0  0
   -1.2076   21.7843  -29.5126 H   0  0  0  0  0  0  0  0  0  0  0  0
    0.0039   23.1573  -29.3554 H   0  0  0  0  0  0  0  0  0  0  0  0
   -0.5353   21.3309  -27.2504 H   0  0  0  0  0  0  0  0  0  0  0  0
    0.0600   23.7151  -24.6249 H   0  0  0  0  0  0  0  0  0  0  0  0
    0.7128   22.2420  -25.3878 H   0  0  0  0  0  0  0  0  0  0  0  0
    1.9655   23.5888  -27.0189 H   0  0  0  0  0  0  0  0  0  0  0  0
    3.9850   26.4202  -23.9474 H   0  0  0  0  0  0  0  0  0  0  0  0
    4.9070   26.6664  -25.4693 H   0  0  0  0  0  0  0  0  0  0  0  0
    3.1170   26.8167  -25.4693 H   0  0  0  0  0  0  0  0  0  0  0  0
    0.9584   26.1049  -25.6019 H   0  0  0  0  0  0  0  0  0  0  0  0
    2.0058   25.9713  -27.0930 H   0  0  0  0  0  0  0  0  0  0  0  0
   -0.4210   26.6247  -27.5068 H   0  0  0  0  0  0  0  0  0  0  0  0
    0.2114   25.1661  -28.4066 H   0  0  0  0  0  0  0  0  0  0  0  0
   -1.3822   24.8571  -24.7237 H   0  0  0  0  0  0  0  0  0  0  0  0
   -1.5181   26.4331  -25.5748 H   0  0  0  0  0  0  0  0  0  0  0  0
   -2.9037   25.2900  -25.5748 H   0  0  0  0  0  0  0  0  0  0  0  0
   -2.5531   25.6614  -28.3108 H   0  0  0  0  0  0  0  0  0  0  0  0
   -3.6991   23.1303  -27.0235 H   0  0  0  0  0  0  0  0  0  0  0  0
   -4.0522   24.8698  -26.5751 H   0  0  0  0  0  0  0  0  0  0  0  0
   -5.7213   23.4601  -28.1067 H   0  0  0  0  0  0  0  0  0  0  0  0
   -5.3792   25.2371  -28.3748 H   0  0  0  0  0  0  0  0  0  0  0  0
   -4.2099   26.0981  -29.9318 H   0  0  0  0  0  0  0  0  0  0  0  0
   -3.4414   25.1938  -31.2803 H   0  0  0  0  0  0  0  0  0  0  0  0
   -5.2164   25.4694  -31.2803 H   0  0  0  0  0  0  0  0  0  0  0  0
  1  2  1  0
  2  3  1  0
  3  4  1  0
  4  5  1  0
  3  6  1  0
  6  7  1  0
  7  8  1  0
  8  9  1  0
  9 10  2  0
  9 11  1  0
 11 12  1  0
 12 13  1  0
 13 14  1  0
 14 15  1  0
 15 16  1  0
 16 17  1  0
 17 18  2  0
 18 19  1  0
 19 20  1  0
 20 21  1  0
 21 22  1  0
 22 23  1  0
 22 24  2  0
 20 25  1  0
 25 26  1  0
 26 27  1  0
 27 28  1  1
 27 29  1  0
 29 30  1  0
 30 31  1  0
 31 32  1  0
 32 33  1  6
 32 11  1  0
 32 14  1  0
 29 15  1  0
 27 18  1  0
  1 34  1  0
  1 35  1  0
  1 36  1  0
  2 37  1  0
  2 38  1  0
  4 39  1  0
  4 40  1  0
  5 41  1  0
  5 42  1  0
  5 43  1  0
  6 44  1  0
  6 45  1  0
  7 46  1  0
  7 47  1  0
  8 48  1  0
  8 49  1  0
 11 50  1  1
 12 51  1  0
 12 52  1  0
 13 53  1  0
 13 54  1  0
 14 55  1  1
 15 56  1  6
 16 57  1  0
 16 58  1  0
 17 59  1  0
 19 60  1  0
 19 61  1  0
 20 62  1  6
 23 63  1  0
 23 64  1  0
 23 65  1  0
 25 66  1  0
 25 67  1  0
 26 68  1  0
 26 69  1  0
 28 70  1  0
 28 71  1  0
 28 72  1  0
 29 73  1  6
 30 74  1  0
 30 75  1  0
 31 76  1  0
 31 77  1  0
 33 78  1  0
 33 79  1  0
 33 80  1  0
M  END
>  <UniqueID>  (47) 
46

>  <SMILES>  (47) 
CCN(CC)CCCC(=O)[C@H]1CC[C@H]2C3CC=C4CC(OC(C)=O)CCC4(C)C3CCC12C

>  <Energy>  (47) 
113.9701723233116

>  <Genealogy>  (47) 
CCN(CC)CCCC(=O)[C@H]1CC[C@H]2C3CC=C4CC(OC(C)=O)CCC4(C)C3CCC12C (chirality)
CCN(CC)CCCC(=O)[C@H]1CC[C@H]2C3CC=C4CC(OC(C)=O)CCC4(C)C3CCC12C (3D coordinates assigned)
CCN(CC)CCCC(=O)[C@H]1CC[C@H]2C3CC=C4CC(OC(C)=O)CCC4(C)C3CCC12C (nonaromatic ring conformer: 113.9701723233116 kcal/mol)

>  <smiles>  (47) 
CCN(CC)CCCC(=O)C1CCC2C3CC=C4CC(OC(C)=O)CCC4(C)C3CCC12C

>  <score_type>  (47) 
oracle

>  <origin>  (47) 
adg

>  <m_score__min__energy>  (47) 
-9.7200000000000006

>  <m_primary>  (47) 
energy

$$$$
47:0
     RDKit          3D

 40 41  0  0  0  0  0  0  0  0999 V2000
   -8.1170   20.6370  -32.0640 C   0  0  0  0  0  0  0  0  0  0  0  0
   -7.1600   21.5030  -31.2320 C   0  0  0  0  0  0  0  0  0  0  0  0
   -7.5440   22.9320  -31.1620 N   0  0  0  0  0  0  0  0  0  0  0  0
   -8.7210   23.2320  -31.9970 C   0  0  0  0  0  0  0  0  0  0  0  0
   -6.4100   23.8400  -31.4430 C   0  0  0  0  0  0  0  0  0  0  0  0
   -5.8710   24.4830  -30.1490 C   0  0  0  0  0  0  0  0  0  0  0  0
   -4.8090   25.5490  -30.4300 C   0  0  0  0  0  0  0  0  0  0  0  0
   -3.4920   24.9240  -30.4790 N   0  0  0  0  0  0  0  0  0  0  0  0
   -2.6440   24.7100  -29.3440 C   0  0  0  0  0  0  0  0  0  0  0  0
   -1.9520   25.6760  -28.9250 O   0  0  0  0  0  0  0  0  0  0  0  0
   -2.6060   23.3810  -28.6220 C   0  0  2  0  0  0  0  0  0  0  0  0
   -1.2400   22.7550  -28.7140 C   0  0  0  0  0  0  0  0  0  0  0  0
   -0.8560   22.0630  -29.7470 N   0  0  0  0  0  0  0  0  0  0  0  0
   -1.6910   21.7550  -30.8710 C   0  0  0  0  0  0  0  0  0  0  0  0
   -1.0970   21.3930  -32.0870 C   0  0  0  0  0  0  0  0  0  0  0  0
   -1.8870   21.1850  -33.2220 C   0  0  0  0  0  0  0  0  0  0  0  0
   -3.2750   21.3420  -33.1470 C   0  0  0  0  0  0  0  0  0  0  0  0
   -3.8760   21.6840  -31.9320 C   0  0  0  0  0  0  0  0  0  0  0  0
   -3.0900   21.8670  -30.7880 C   0  0  0  0  0  0  0  0  0  0  0  0
   -3.8850   22.2090  -29.2120 S   0  0  0  0  0  0  0  0  0  0  0  0
   -8.7622   20.0532  -31.3910 H   0  0  0  0  0  0  0  0  0  0  0  0
   -8.7398   21.2847  -32.6985 H   0  0  0  0  0  0  0  0  0  0  0  0
   -7.5346   19.9528  -32.6985 H   0  0  0  0  0  0  0  0  0  0  0  0
   -7.1329   21.1020  -30.2081 H   0  0  0  0  0  0  0  0  0  0  0  0
   -6.1802   21.4617  -31.7303 H   0  0  0  0  0  0  0  0  0  0  0  0
   -9.5831   23.4517  -31.3501 H   0  0  0  0  0  0  0  0  0  0  0  0
   -8.5073   24.1044  -32.6320 H   0  0  0  0  0  0  0  0  0  0  0  0
   -8.9510   22.3638  -32.6320 H   0  0  0  0  0  0  0  0  0  0  0  0
   -5.6022   23.2666  -31.9213 H   0  0  0  0  0  0  0  0  0  0  0  0
   -6.7647   24.6422  -32.1069 H   0  0  0  0  0  0  0  0  0  0  0  0
   -6.7085   24.9510  -29.6109 H   0  0  0  0  0  0  0  0  0  0  0  0
   -5.4016   23.6897  -29.5487 H   0  0  0  0  0  0  0  0  0  0  0  0
   -5.0214   26.0324  -31.3950 H   0  0  0  0  0  0  0  0  0  0  0  0
   -4.8267   26.3034  -29.6296 H   0  0  0  0  0  0  0  0  0  0  0  0
   -2.8318   23.5980  -27.5675 H   0  0  0  0  0  0  0  0  0  0  0  0
   -0.5398   22.8876  -27.8761 H   0  0  0  0  0  0  0  0  0  0  0  0
   -0.0055   21.2720  -32.1492 H   0  0  0  0  0  0  0  0  0  0  0  0
   -1.4168   20.8978  -34.1741 H   0  0  0  0  0  0  0  0  0  0  0  0
   -3.8939   21.1963  -34.0446 H   0  0  0  0  0  0  0  0  0  0  0  0
   -4.9673   21.8094  -31.8748 H   0  0  0  0  0  0  0  0  0  0  0  0
  1  2  1  0
  2  3  1  0
  3  4  1  0
  3  5  1  0
  5  6  1  0
  6  7  1  0
  7  8  1  0
  8  9  1  0
  9 10  2  0
  9 11  1  0
 11 12  1  0
 12 13  2  0
 13 14  1  0
 14 15  2  0
 15 16  1  0
 16 17  2  0
 17 18  1  0
 18 19  2  0
 19 20  1  0
 20 11  1  0
 19 14  1  0
  1 21  1  0
  1 22  1  0
  1 23  1  0
  2 24  1  0
  2 25  1  0
  4 26  1  0
  4 27  1  0
  4 28  1  0
  5 29  1  0
  5 30  1  0
  6 31  1  0
  6 32  1  0
  7 33  1  0
  7 34  1  0
 11 35  1  1
 12 36  1  0
 15 37  1  0
 16 38  1  0
 17 39  1  0
 18 40  1  0
M  CHG  1   8  -1
M  END
>  <UniqueID>  (48) 
47

>  <SMILES>  (48) 
CCN(C)CCC[N-]C(=O)[C@@H]1C=Nc2ccccc2S1

>  <Energy>  (48) 
45.1813362671631

>  <Genealogy>  (48) 
CCN(C)CCC[N-]C(=O)C1C=Nc2ccccc2S1 (protonated)
CCN(C)CCC[N-]C(=O)[C@@H]1C=Nc2ccccc2S1 (chirality)
CCN(C)CCC[N-]C(=O)[C@@H]1C=Nc2ccccc2S1 (3D coordinates assigned)
CCN(C)CCC[N-]C(=O)[C@@H]1C=Nc2ccccc2S1 (nonaromatic ring conformer: 45.1813362671631 kcal/mol)

>  <smiles>  (48) 
CCN(C)CCCNC(=O)C1C=Nc2ccccc2S1

>  <score_type>  (48) 
oracle

>  <origin>  (48) 
adg

>  <m_score__min__energy>  (48) 
-8.6899999999999995

>  <m_primary>  (48) 
energy

$$$$
48:0
     RDKit          3D

 47 49  0  0  0  0  0  0  0  0999 V2000
   -8.7721   21.7309  -30.1526 H   0  0  0  0  0  0  0  0  0  0  0  0
   -8.6590   21.9040  -31.2330 C   0  0  0  0  0  0  0  0  0  0  0  0
   -9.0020   20.7940  -32.1560 C   0  0  0  0  0  0  0  0  0  0  0  0
  -10.2130   20.6850  -32.4920 O   0  0  0  0  0  0  0  0  0  0  0  0
   -8.0560   19.8030  -32.6420 N   0  0  0  0  0  0  0  0  0  0  0  0
   -8.4990   19.3540  -33.4820 H   0  0  0  0  0  0  0  0  0  0  0  0
   -7.7670   18.7400  -31.6690 C   0  0  0  0  0  0  0  0  0  0  0  0
   -8.7148   18.3485  -31.2708 H   0  0  0  0  0  0  0  0  0  0  0  0
   -7.1553   19.1621  -30.8580 H   0  0  0  0  0  0  0  0  0  0  0  0
   -6.9880   17.5960  -32.3260 C   0  0  0  0  0  0  0  0  0  0  0  0
   -7.7066   16.9447  -32.8450 H   0  0  0  0  0  0  0  0  0  0  0  0
   -6.4468   17.0817  -31.5182 H   0  0  0  0  0  0  0  0  0  0  0  0
   -5.9660   18.0320  -33.3070 N   0  0  0  0  0  0  0  0  0  0  0  0
   -5.1000   17.0200  -33.9160 C   0  0  0  0  0  0  0  0  0  0  0  0
   -4.2880   17.3240  -35.0360 C   0  0  0  0  0  0  0  0  0  0  0  0
   -4.3050   18.3404  -35.4563 H   0  0  0  0  0  0  0  0  0  0  0  0
   -3.4670   16.3560  -35.6150 C   0  0  0  0  0  0  0  0  0  0  0  0
   -2.8486   16.6150  -36.4870 H   0  0  0  0  0  0  0  0  0  0  0  0
   -3.4250   15.0650  -35.0970 C   0  0  0  0  0  0  0  0  0  0  0  0
   -2.7777   14.3070  -35.5623 H   0  0  0  0  0  0  0  0  0  0  0  0
   -4.2080   14.7290  -33.9810 C   0  0  0  0  0  0  0  0  0  0  0  0
   -4.1960   13.4440  -33.4160 O   0  0  0  0  0  0  0  0  0  0  0  0
   -4.2550   13.1780  -32.0190 C   0  0  0  0  0  0  0  0  0  0  0  0
   -4.0498   14.1032  -31.4606 H   0  0  0  0  0  0  0  0  0  0  0  0
   -5.2572   12.8071  -31.7584 H   0  0  0  0  0  0  0  0  0  0  0  0
   -3.5036   12.4181  -31.7584 H   0  0  0  0  0  0  0  0  0  0  0  0
   -5.0320   15.7020  -33.4010 C   0  0  0  0  0  0  0  0  0  0  0  0
   -5.6411   15.4363  -32.5244 H   0  0  0  0  0  0  0  0  0  0  0  0
   -5.9070   19.4220  -33.8160 C   0  0  0  0  0  0  0  0  0  0  0  0
   -6.2163   19.4123  -34.8716 H   0  0  0  0  0  0  0  0  0  0  0  0
   -4.8708   19.7601  -33.6677 H   0  0  0  0  0  0  0  0  0  0  0  0
   -6.7970   20.4250  -33.0680 C   0  0  0  0  0  0  0  0  0  0  0  0
   -7.0222   21.2710  -33.7340 H   0  0  0  0  0  0  0  0  0  0  0  0
   -6.2580   20.7686  -32.1728 H   0  0  0  0  0  0  0  0  0  0  0  0
   -8.2200   23.1040  -31.6350 C   0  0  0  0  0  0  0  0  0  0  0  0
   -8.8522   23.6821  -32.3250 H   0  0  0  0  0  0  0  0  0  0  0  0
   -6.9310   23.6990  -31.2040 C   0  0  0  0  0  0  0  0  0  0  0  0
   -6.8550   24.9050  -30.4750 C   0  0  0  0  0  0  0  0  0  0  0  0
   -7.7777   25.4366  -30.1994 H   0  0  0  0  0  0  0  0  0  0  0  0
   -5.6130   25.4280  -30.1010 C   0  0  0  0  0  0  0  0  0  0  0  0
   -5.5627   26.3640  -29.5254 H   0  0  0  0  0  0  0  0  0  0  0  0
   -4.4350   24.7640  -30.4570 C   0  0  0  0  0  0  0  0  0  0  0  0
   -3.2040   25.2870  -30.0830 O   0  0  0  0  0  0  0  0  0  0  0  0
   -4.4990   23.5780  -31.1900 C   0  0  0  0  0  0  0  0  0  0  0  0
   -3.5726   23.0560  -31.4717 H   0  0  0  0  0  0  0  0  0  0  0  0
   -5.7390   23.0520  -31.5670 C   0  0  0  0  0  0  0  0  0  0  0  0
   -5.7807   22.1224  -32.1536 H   0  0  0  0  0  0  0  0  0  0  0  0
  1  2  1  0
  2  3  1  0
  3  4  2  0
  3  5  1  0
  5  6  1  0
  5  7  1  0
  7  8  1  0
  7  9  1  0
  7 10  1  0
 10 11  1  0
 10 12  1  0
 10 13  1  0
 13 14  1  0
 14 15  2  0
 15 16  1  0
 15 17  1  0
 17 18  1  0
 17 19  2  0
 19 20  1  0
 19 21  1  0
 21 22  1  0
 22 23  1  0
 23 24  1  0
 23 25  1  0
 23 26  1  0
 21 27  2  0
 27 28  1  0
 13 29  1  0
 29 30  1  0
 29 31  1  0
 29 32  1  0
 32 33  1  0
 32 34  1  0
  2 35  2  0
 35 36  1  0
 35 37  1  0
 37 38  2  0
 38 39  1  0
 38 40  1  0
 40 41  1  0
 40 42  2  0
 42 43  1  0
 42 44  1  0
 44 45  1  0
 44 46  2  0
 46 47  1  0
 32  5  1  0
 46 37  1  0
 27 14  1  0
M  CHG  2   5   1  43  -1
M  END
>  <UniqueID>  (49) 
48

>  <SMILES>  (49) 
COc1cccc(N2CC[NH+](C(=O)/C=C/c3ccc([O-])cc3)CC2)c1

>  <Energy>  (49) 
67.81084885795397

>  <Genealogy>  (49) 
COc1cccc(N2CC[NH+](C(=O)C=Cc3ccc([O-])cc3)CC2)c1 (protonated)
COc1cccc(N2CC[NH+](C(=O)/C=C/c3ccc([O-])cc3)CC2)c1 (cis-trans isomerization)
COc1cccc(N2CC[NH+](C(=O)/C=C/c3ccc([O-])cc3)CC2)c1 (3D coordinates assigned)
COc1cccc(N2CC[NH+](C(=O)/C=C/c3ccc([O-])cc3)CC2)c1 (nonaromatic ring conformer: 67.81084885795397 kcal/mol)

>  <smiles>  (49) 
COc1cccc(N2CCN(C(=O)C=Cc3ccc(O)cc3)CC2)c1

>  <score_type>  (49) 
oracle

>  <origin>  (49) 
adg

>  <m_score__min__energy>  (49) 
-11.210000000000001

>  <m_primary>  (49) 
energy

$$$$
49:0
     RDKit          3D

 44 46  0  0  0  0  0  0  0  0999 V2000
   -9.4610   21.5590  -30.5480 C   0  0  0  0  0  0  0  0  0  0  0  0
   -9.3840   20.9950  -31.8520 O   0  0  0  0  0  0  0  0  0  0  0  0
   -8.3960   20.0900  -32.2750 C   0  0  0  0  0  0  0  0  0  0  0  0
   -8.6200   18.7000  -32.2770 C   0  0  0  0  0  0  0  0  0  0  0  0
   -7.6290   17.8220  -32.7170 C   0  0  0  0  0  0  0  0  0  0  0  0
   -6.4070   18.3170  -33.1730 C   0  0  0  0  0  0  0  0  0  0  0  0
   -5.0590   17.1140  -33.7900 Br  0  0  0  0  0  0  0  0  0  0  0  0
   -6.1710   19.6930  -33.1800 C   0  0  0  0  0  0  0  0  0  0  0  0
   -7.1470   20.5910  -32.7110 C   0  0  0  0  0  0  0  0  0  0  0  0
   -6.8540   22.0830  -32.6980 C   0  0  0  0  0  0  0  0  0  0  0  0
   -6.5950   22.6320  -31.3470 N   0  0  0  0  0  0  0  0  0  0  0  0
   -6.9800   24.0540  -31.1720 C   0  0  0  0  0  0  0  0  0  0  0  0
   -5.7600   24.9800  -31.0590 C   0  0  0  0  0  0  0  0  0  0  0  0
   -4.8560   24.5850  -29.8650 C   0  0  0  0  0  0  0  0  0  0  0  0
   -3.4620   24.9220  -30.1580 N   0  0  0  0  0  0  0  0  0  0  0  0
   -2.3170   24.6880  -29.3260 C   0  0  0  0  0  0  0  0  0  0  0  0
   -1.6250   25.6780  -28.9700 O   0  0  0  0  0  0  0  0  0  0  0  0
   -1.9150   23.3450  -28.8580 C   0  0  0  0  0  0  0  0  0  0  0  0
   -1.5310   22.2960  -29.6870 C   0  0  0  0  0  0  0  0  0  0  0  0
   -1.2800   21.1030  -28.9980 C   0  0  0  0  0  0  0  0  0  0  0  0
   -1.4840   21.1950  -27.6280 C   0  0  0  0  0  0  0  0  0  0  0  0
   -1.9800   22.7630  -27.2790 S   0  0  0  0  0  0  0  0  0  0  0  0
   -4.9520   23.0780  -29.5380 C   0  0  0  0  0  0  0  0  0  0  0  0
   -5.2700   22.2630  -30.7940 C   0  0  0  0  0  0  0  0  0  0  0  0
   -9.3523   20.7626  -29.7971 H   0  0  0  0  0  0  0  0  0  0  0  0
   -8.6552   22.2967  -30.4194 H   0  0  0  0  0  0  0  0  0  0  0  0
  -10.4350   22.0537  -30.4194 H   0  0  0  0  0  0  0  0  0  0  0  0
   -9.5848   18.3028  -31.9286 H   0  0  0  0  0  0  0  0  0  0  0  0
   -7.8116   16.7373  -32.7043 H   0  0  0  0  0  0  0  0  0  0  0  0
   -5.2120   20.0789  -33.5561 H   0  0  0  0  0  0  0  0  0  0  0  0
   -5.9675   22.2673  -33.3226 H   0  0  0  0  0  0  0  0  0  0  0  0
   -7.7529   22.5883  -33.0810 H   0  0  0  0  0  0  0  0  0  0  0  0
   -7.5819   24.3664  -32.0381 H   0  0  0  0  0  0  0  0  0  0  0  0
   -7.5508   24.1346  -30.2351 H   0  0  0  0  0  0  0  0  0  0  0  0
   -5.1743   24.9144  -31.9878 H   0  0  0  0  0  0  0  0  0  0  0  0
   -6.1199   26.0064  -30.8946 H   0  0  0  0  0  0  0  0  0  0  0  0
   -5.2093   25.1499  -28.9897 H   0  0  0  0  0  0  0  0  0  0  0  0
   -1.4339   22.3941  -30.7783 H   0  0  0  0  0  0  0  0  0  0  0  0
   -0.9517   20.1788  -29.4961 H   0  0  0  0  0  0  0  0  0  0  0  0
   -1.3453   20.3837  -26.8982 H   0  0  0  0  0  0  0  0  0  0  0  0
   -3.9919   22.7383  -29.1224 H   0  0  0  0  0  0  0  0  0  0  0  0
   -5.7621   22.9286  -28.8090 H   0  0  0  0  0  0  0  0  0  0  0  0
   -4.4974   22.4559  -31.5529 H   0  0  0  0  0  0  0  0  0  0  0  0
   -5.2882   21.1968  -30.5239 H   0  0  0  0  0  0  0  0  0  0  0  0
  1  2  1  0
  2  3  1  0
  3  4  2  0
  4  5  1  0
  5  6  2  0
  6  7  1  0
  6  8  1  0
  8  9  2  0
  9 10  1  0
 10 11  1  0
 11 12  1  0
 12 13  1  0
 13 14  1  0
 14 15  1  0
 15 16  1  0
 16 17  2  0
 16 18  1  0
 18 19  2  0
 19 20  1  0
 20 21  2  0
 21 22  1  0
 14 23  1  0
 23 24  1  0
  9  3  1  0
 24 11  1  0
 22 18  1  0
  1 25  1  0
  1 26  1  0
  1 27  1  0
  4 28  1  0
  5 29  1  0
  8 30  1  0
 10 31  1  0
 10 32  1  0
 12 33  1  0
 12 34  1  0
 13 35  1  0
 13 36  1  0
 14 37  1  0
 19 38  1  0
 20 39  1  0
 21 40  1  0
 23 41  1  0
 23 42  1  0
 24 43  1  0
 24 44  1  0
M  CHG  1  15  -1
M  END
>  <UniqueID>  (50) 
49

>  <SMILES>  (50) 
COc1ccc(Br)cc1CN1CCC([N-]C(=O)c2cccs2)CC1

>  <Energy>  (50) 
83.18451034486874

>  <Genealogy>  (50) 
COc1ccc(Br)cc1CN1CCC([N-]C(=O)c2cccs2)CC1 (protonated)
COc1ccc(Br)cc1CN1CCC([N-]C(=O)c2cccs2)CC1 (3D coordinates assigned)
COc1ccc(Br)cc1CN1CCC([N-]C(=O)c2cccs2)CC1 (nonaromatic ring conformer: 83.18451034486874 kcal/mol)

>  <smiles>  (50) 
COc1ccc(Br)cc1CN1CCC(NC(=O)c2cccs2)CC1

>  <score_type>  (50) 
oracle

>  <origin>  (50) 
adg

>  <m_score__min__energy>  (50) 
-10.68

>  <m_primary>  (50) 
energy

$$$$
