0:0
     RDKit          3D

 71 74  0  0  0  0  0  0  0  0999 V2000
   -4.5980   14.6990  -32.3330 C   0  0  0  0  0  0  0  0  0  0  0  0
   -3.2550   14.9280  -33.0220 C   0  0  0  0  0  0  0  0  0  0  0  0
   -3.1800   16.3140  -33.5540 N   0  0  0  0  0  0  0  0  0  0  0  0
   -1.7980   16.7160  -33.8980 C   0  0  0  0  0  0  0  0  0  0  0  0
   -1.1900   17.6010  -32.8080 C   0  0  0  0  0  0  0  0  0  0  0  0
   -4.0840   16.5200  -34.7080 C   0  0  0  0  0  0  0  0  0  0  0  0
   -5.0370   17.6740  -34.4440 C   0  0  0  0  0  0  0  0  0  0  0  0
   -4.7560   18.3020  -33.1560 N   0  0  0  0  0  0  0  0  0  0  0  0
   -5.2410   19.6230  -32.8810 C   0  0  0  0  0  0  0  0  0  0  0  0
   -6.4770   19.7790  -32.3370 C   0  0  0  0  0  0  0  0  0  0  0  0
   -7.1830   18.6050  -31.9500 C   0  0  0  0  0  0  0  0  0  0  0  0
   -8.5570   18.6070  -31.7580 C   0  0  0  0  0  0  0  0  0  0  0  0
   -9.2830   19.7590  -31.9980 C   0  0  0  0  0  0  0  0  0  0  0  0
   -8.6140   20.9400  -32.3090 C   0  0  0  0  0  0  0  0  0  0  0  0
   -7.1920   21.0240  -32.3100 C   0  0  0  0  0  0  0  0  0  0  0  0
   -6.5910   22.2000  -32.2440 N   0  0  0  0  0  0  0  0  0  0  0  0
   -7.3190   23.4460  -32.5580 C   0  0  0  0  0  0  0  0  0  0  0  0
   -5.3050   22.3560  -31.5900 C   0  0  0  0  0  0  0  0  0  0  0  0
   -5.1660   23.2520  -30.5150 C   0  0  0  0  0  0  0  0  0  0  0  0
   -3.9270   23.5000  -29.9400 C   0  0  0  0  0  0  0  0  0  0  0  0
   -2.7740   22.9550  -30.4960 C   0  0  0  0  0  0  0  0  0  0  0  0
   -1.5170   23.1310  -29.8350 N   0  0  0  0  0  0  0  0  0  0  0  0
   -1.0090   22.2080  -28.8280 C   0  0  0  0  0  0  0  0  0  0  0  0
   -0.2840   23.0080  -27.7350 C   0  0  0  0  0  0  0  0  0  0  0  0
    0.2340   24.3030  -28.2090 N   0  0  0  0  0  0  0  0  0  0  0  0
    1.6310   24.5770  -27.8370 C   0  0  0  0  0  0  0  0  0  0  0  0
   -0.6730   25.4390  -28.0470 C   0  0  0  0  0  0  0  0  0  0  0  0
   -2.8730   22.1450  -31.6420 C   0  0  0  0  0  0  0  0  0  0  0  0
   -1.7360   21.7430  -32.3510 C   0  0  0  0  0  0  0  0  0  0  0  0
   -1.8590   20.9590  -33.4870 C   0  0  0  0  0  0  0  0  0  0  0  0
   -3.0990   20.4450  -33.8450 C   0  0  0  0  0  0  0  0  0  0  0  0
   -4.2410   20.7250  -33.0580 C   0  0  0  0  0  0  0  0  0  0  0  0
   -4.1550   21.7430  -32.1050 C   0  0  0  0  0  0  0  0  0  0  0  0
   -4.4592   14.7227  -31.2421 H   0  0  0  0  0  0  0  0  0  0  0  0
   -5.3022   15.4900  -32.6303 H   0  0  0  0  0  0  0  0  0  0  0  0
   -5.0003   13.7193  -32.6303 H   0  0  0  0  0  0  0  0  0  0  0  0
   -2.4432   14.7732  -32.2960 H   0  0  0  0  0  0  0  0  0  0  0  0
   -3.1540   14.2178  -33.8559 H   0  0  0  0  0  0  0  0  0  0  0  0
   -1.1801   15.8132  -34.0129 H   0  0  0  0  0  0  0  0  0  0  0  0
   -1.8261   17.2897  -34.8361 H   0  0  0  0  0  0  0  0  0  0  0  0
   -1.4627   17.2041  -31.8190 H   0  0  0  0  0  0  0  0  0  0  0  0
   -0.0948   17.6090  -32.9107 H   0  0  0  0  0  0  0  0  0  0  0  0
   -1.5754   18.6261  -32.9107 H   0  0  0  0  0  0  0  0  0  0  0  0
   -3.4834   16.7448  -35.6017 H   0  0  0  0  0  0  0  0  0  0  0  0
   -4.6724   15.6039  -34.8645 H   0  0  0  0  0  0  0  0  0  0  0  0
   -4.9241   18.4232  -35.2415 H   0  0  0  0  0  0  0  0  0  0  0  0
   -6.0646   17.2820  -34.4254 H   0  0  0  0  0  0  0  0  0  0  0  0
   -3.8790   18.0390  -32.6650 H   0  0  0  0  0  0  0  0  0  0  0  0
   -6.6235   17.6701  -31.7990 H   0  0  0  0  0  0  0  0  0  0  0  0
   -9.0674   17.6947  -31.4158 H   0  0  0  0  0  0  0  0  0  0  0  0
  -10.3815   19.7427  -31.9436 H   0  0  0  0  0  0  0  0  0  0  0  0
   -9.2014   21.8351  -32.5615 H   0  0  0  0  0  0  0  0  0  0  0  0
   -7.6110   23.9457  -31.6226 H   0  0  0  0  0  0  0  0  0  0  0  0
   -6.6686   24.1133  -33.1426 H   0  0  0  0  0  0  0  0  0  0  0  0
   -8.2196   23.2071  -33.1426 H   0  0  0  0  0  0  0  0  0  0  0  0
   -6.0558   23.7660  -30.1224 H   0  0  0  0  0  0  0  0  0  0  0  0
   -3.8566   24.1300  -29.0411 H   0  0  0  0  0  0  0  0  0  0  0  0
   -0.9680   23.9920  -30.0440 H   0  0  0  0  0  0  0  0  0  0  0  0
   -1.8464   21.6508  -28.3828 H   0  0  0  0  0  0  0  0  0  0  0  0
   -0.3097   21.4983  -29.2941 H   0  0  0  0  0  0  0  0  0  0  0  0
   -0.9898   23.1941  -26.9120 H   0  0  0  0  0  0  0  0  0  0  0  0
    0.5804   22.4094  -27.4116 H   0  0  0  0  0  0  0  0  0  0  0  0
    1.7218   24.5948  -26.7409 H   0  0  0  0  0  0  0  0  0  0  0  0
    2.2806   23.7892  -28.2460 H   0  0  0  0  0  0  0  0  0  0  0  0
    1.9349   25.5519  -28.2460 H   0  0  0  0  0  0  0  0  0  0  0  0
   -0.8287   25.6340  -26.9757 H   0  0  0  0  0  0  0  0  0  0  0  0
   -0.2343   26.3290  -28.5217 H   0  0  0  0  0  0  0  0  0  0  0  0
   -1.6381   25.2083  -28.5217 H   0  0  0  0  0  0  0  0  0  0  0  0
   -0.7384   22.0511  -32.0047 H   0  0  0  0  0  0  0  0  0  0  0  0
   -0.9750   20.7437  -34.1052 H   0  0  0  0  0  0  0  0  0  0  0  0
   -3.1934   19.8179  -34.7438 H   0  0  0  0  0  0  0  0  0  0  0  0
  1  2  1  0
  2  3  1  0
  3  4  1  0
  4  5  1  0
  3  6  1  0
  6  7  1  0
  7  8  1  0
  8  9  1  0
  9 10  2  0
 10 11  1  0
 11 12  2  0
 12 13  1  0
 13 14  2  0
 14 15  1  0
 15 16  2  0
 16 17  1  0
 16 18  1  0
 18 19  2  0
 19 20  1  0
 20 21  2  0
 21 22  1  0
 22 23  1  0
 23 24  1  0
 24 25  1  0
 25 26  1  0
 25 27  1  0
 21 28  1  0
 28 29  2  0
 29 30  1  0
 30 31  2  0
 31 32  1  0
 32 33  2  0
 32  9  1  0
 15 10  1  0
 33 18  1  0
 33 28  1  0
  1 34  1  0
  1 35  1  0
  1 36  1  0
  2 37  1  0
  2 38  1  0
  4 39  1  0
  4 40  1  0
  5 41  1  0
  5 42  1  0
  5 43  1  0
  6 44  1  0
  6 45  1  0
  7 46  1  0
  7 47  1  0
  8 48  1  0
 11 49  1  0
 12 50  1  0
 13 51  1  0
 14 52  1  0
 17 53  1  0
 17 54  1  0
 17 55  1  0
 19 56  1  0
 20 57  1  0
 22 58  1  0
 23 59  1  0
 23 60  1  0
 24 61  1  0
 24 62  1  0
 26 63  1  0
 26 64  1  0
 26 65  1  0
 27 66  1  0
 27 67  1  0
 27 68  1  0
 29 69  1  0
 30 70  1  0
 31 71  1  0
M  CHG  1  16   1
M  END
>  <UniqueID>  (1) 
1

>  <SMILES>  (1) 
CCN(CC)CCNC1=c2ccccc2=[N+](C)c2ccc(NCCN(C)C)c3cccc1c23

>  <Energy>  (1) 
159.2860692019592

>  <Genealogy>  (1) 
CCN(CC)CCNC1=c2ccccc2=[N+](C)c2ccc(NCCN(C)C)c3cccc1c23 (3D coordinates assigned)
CCN(CC)CCNC1=c2ccccc2=[N+](C)c2ccc(NCCN(C)C)c3cccc1c23 (nonaromatic ring conformer: 159.2860692019592 kcal/mol)

>  <smiles>  (1) 
CCN(CC)CCNC1=c2ccccc2=[N+](C)c2ccc(NCCN(C)C)c3cccc1c23

>  <score_type>  (1) 
oracle

>  <origin>  (1) 
adg

>  <m_score__min__energy>  (1) 
-8.0199999999999996

>  <m_primary>  (1) 
energy

$$$$
1:0
     RDKit          3D

 66 69  0  0  0  0  0  0  0  0999 V2000
    0.3060   20.2220  -31.4110 C   0  0  0  0  0  0  0  0  0  0  0  0
   -0.6290   19.7100  -32.5140 C   0  0  0  0  0  0  0  0  0  0  0  0
   -1.2840   20.7720  -33.3090 N   0  0  0  0  0  0  0  0  0  0  0  0
   -0.4310   21.4120  -34.3230 C   0  0  0  0  0  0  0  0  0  0  0  0
   -2.1430   21.7060  -32.5470 C   0  0  0  0  0  0  0  0  0  0  0  0
   -3.5710   21.2340  -32.4050 C   0  0  0  0  0  0  0  0  0  0  0  0
   -3.8990   19.9380  -32.6590 N   0  0  0  0  0  0  0  0  0  0  0  0
   -5.2310   19.9390  -32.5130 C   0  0  0  0  0  0  0  0  0  0  0  0
   -6.3600   18.7040  -32.7120 S   0  0  0  0  0  0  0  0  0  0  0  0
   -7.6250   19.8010  -32.3880 C   0  0  0  0  0  0  0  0  0  0  0  0
   -8.9920   19.5430  -32.3860 C   0  0  0  0  0  0  0  0  0  0  0  0
   -9.8710   20.6110  -32.1530 C   0  0  0  0  0  0  0  0  0  0  0  0
   -9.3750   21.9130  -31.9480 C   0  0  0  0  0  0  0  0  0  0  0  0
   -7.9910   22.1620  -31.9560 C   0  0  0  0  0  0  0  0  0  0  0  0
   -7.1170   21.0840  -32.1520 C   0  0  0  0  0  0  0  0  0  0  0  0
   -5.7600   21.1140  -32.2080 N   0  0  0  0  0  0  0  0  0  0  0  0
   -4.7320   21.9800  -32.0810 C   0  0  0  0  0  0  0  0  0  0  0  0
   -4.8970   23.4280  -31.6760 C   0  0  0  0  0  0  0  0  0  0  0  0
   -3.7680   23.9160  -30.8710 N   0  0  0  0  0  0  0  0  0  0  0  0
   -4.1340   24.0780  -29.4580 C   0  0  0  0  0  0  0  0  0  0  0  0
   -2.9210   24.5250  -28.6290 C   0  0  0  0  0  0  0  0  0  0  0  0
   -2.4580   23.4530  -27.6290 C   0  0  0  0  0  0  0  0  0  0  0  0
   -1.4500   22.5540  -28.2370 N   0  0  0  0  0  0  0  0  0  0  0  0
   -2.0690   21.5150  -29.1050 C   0  0  0  0  0  0  0  0  0  0  0  0
   -1.6220   20.0820  -28.7640 C   0  0  0  0  0  0  0  0  0  0  0  0
   -1.7610   19.7920  -27.3210 N   0  0  0  0  0  0  0  0  0  0  0  0
   -3.1610   19.4780  -26.9570 C   0  0  0  0  0  0  0  0  0  0  0  0
   -3.2130   18.6370  -25.6830 C   0  0  0  0  0  0  0  0  0  0  0  0
   -1.1710   20.8430  -26.4470 C   0  0  0  0  0  0  0  0  0  0  0  0
   -0.5230   22.0000  -27.2280 C   0  0  0  0  0  0  0  0  0  0  0  0
   -0.1246   19.9862  -30.4266 H   0  0  0  0  0  0  0  0  0  0  0  0
    1.2879   19.7357  -31.5077 H   0  0  0  0  0  0  0  0  0  0  0  0
    0.4252   21.3112  -31.5077 H   0  0  0  0  0  0  0  0  0  0  0  0
   -0.0399   19.0826  -33.1991 H   0  0  0  0  0  0  0  0  0  0  0  0
   -1.4347   19.1579  -32.0080 H   0  0  0  0  0  0  0  0  0  0  0  0
    0.3532   22.0004  -33.8241 H   0  0  0  0  0  0  0  0  0  0  0  0
    0.0348   20.6386  -34.9514 H   0  0  0  0  0  0  0  0  0  0  0  0
   -1.0433   22.0754  -34.9514 H   0  0  0  0  0  0  0  0  0  0  0  0
   -1.7157   21.8295  -31.5409 H   0  0  0  0  0  0  0  0  0  0  0  0
   -2.1697   22.6514  -33.1087 H   0  0  0  0  0  0  0  0  0  0  0  0
   -9.3741   18.5267  -32.5627 H   0  0  0  0  0  0  0  0  0  0  0  0
  -10.9558   20.4302  -32.1302 H   0  0  0  0  0  0  0  0  0  0  0  0
  -10.0769   22.7431  -31.7800 H   0  0  0  0  0  0  0  0  0  0  0  0
   -7.6027   23.1810  -31.8115 H   0  0  0  0  0  0  0  0  0  0  0  0
   -4.9747   24.0426  -32.5850 H   0  0  0  0  0  0  0  0  0  0  0  0
   -5.8055   23.5030  -31.0604 H   0  0  0  0  0  0  0  0  0  0  0  0
   -3.5040   24.8620  -31.2300 H   0  0  0  0  0  0  0  0  0  0  0  0
   -4.9267   24.8362  -29.3753 H   0  0  0  0  0  0  0  0  0  0  0  0
   -4.4881   23.1107  -29.0720 H   0  0  0  0  0  0  0  0  0  0  0  0
   -2.0901   24.7495  -29.3140 H   0  0  0  0  0  0  0  0  0  0  0  0
   -3.2222   25.4108  -28.0506 H   0  0  0  0  0  0  0  0  0  0  0  0
   -2.0152   23.9477  -26.7519 H   0  0  0  0  0  0  0  0  0  0  0  0
   -3.3302   22.8506  -27.3350 H   0  0  0  0  0  0  0  0  0  0  0  0
   -3.1617   21.5744  -28.9935 H   0  0  0  0  0  0  0  0  0  0  0  0
   -1.7423   21.7186  -30.1355 H   0  0  0  0  0  0  0  0  0  0  0  0
   -2.2412   19.3715  -29.3312 H   0  0  0  0  0  0  0  0  0  0  0  0
   -0.5598   19.9824  -29.0319 H   0  0  0  0  0  0  0  0  0  0  0  0
   -3.7104   20.4167  -26.7925 H   0  0  0  0  0  0  0  0  0  0  0  0
   -3.6193   18.9057  -27.7770 H   0  0  0  0  0  0  0  0  0  0  0  0
   -3.1721   19.2985  -24.8051 H   0  0  0  0  0  0  0  0  0  0  0  0
   -4.1486   18.0589  -25.6632 H   0  0  0  0  0  0  0  0  0  0  0  0
   -2.3557   17.9480  -25.6632 H   0  0  0  0  0  0  0  0  0  0  0  0
   -1.9688   21.2556  -25.8120 H   0  0  0  0  0  0  0  0  0  0  0  0
   -0.3743   20.3642  -25.8588 H   0  0  0  0  0  0  0  0  0  0  0  0
   -0.2441   22.7965  -26.5224 H   0  0  0  0  0  0  0  0  0  0  0  0
    0.3649   21.6122  -27.7489 H   0  0  0  0  0  0  0  0  0  0  0  0
  1  2  1  0
  2  3  1  0
  3  4  1  0
  3  5  1  0
  5  6  1  0
  6  7  1  0
  7  8  2  0
  8  9  1  0
  9 10  1  0
 10 11  2  0
 11 12  1  0
 12 13  2  0
 13 14  1  0
 14 15  2  0
 15 16  1  0
 16 17  1  0
 17 18  1  0
 18 19  1  0
 19 20  1  0
 20 21  1  0
 21 22  1  0
 22 23  1  0
 23 24  1  0
 24 25  1  0
 25 26  1  0
 26 27  1  0
 27 28  1  0
 26 29  1  0
 29 30  1  0
 17  6  2  0
 30 23  1  0
 16  8  1  0
 15 10  1  0
  1 31  1  0
  1 32  1  0
  1 33  1  0
  2 34  1  0
  2 35  1  0
  4 36  1  0
  4 37  1  0
  4 38  1  0
  5 39  1  0
  5 40  1  0
 11 41  1  0
 12 42  1  0
 13 43  1  0
 14 44  1  0
 18 45  1  0
 18 46  1  0
 19 47  1  0
 20 48  1  0
 20 49  1  0
 21 50  1  0
 21 51  1  0
 22 52  1  0
 22 53  1  0
 24 54  1  0
 24 55  1  0
 25 56  1  0
 25 57  1  0
 27 58  1  0
 27 59  1  0
 28 60  1  0
 28 61  1  0
 28 62  1  0
 29 63  1  0
 29 64  1  0
 30 65  1  0
 30 66  1  0
M  END
>  <UniqueID>  (2) 
2

>  <SMILES>  (2) 
CCN(C)Cc1nc2sc3ccccc3n2c1CNCCCN1CCN(CC)CC1

>  <Energy>  (2) 
171.8037601280466

>  <Genealogy>  (2) 
CCN(C)Cc1nc2sc3ccccc3n2c1CNCCCN1CCN(CC)CC1 (3D coordinates assigned)
CCN(C)Cc1nc2sc3ccccc3n2c1CNCCCN1CCN(CC)CC1 (nonaromatic ring conformer: 171.8037601280466 kcal/mol)

>  <smiles>  (2) 
CCN(C)Cc1nc2sc3ccccc3n2c1CNCCCN1CCN(CC)CC1

>  <score_type>  (2) 
oracle

>  <origin>  (2) 
adg

>  <m_score__min__energy>  (2) 
-8.5800000000000001

>  <m_primary>  (2) 
energy

$$$$
2:0
     RDKit          3D

 40 41  0  0  0  0  0  0  0  0999 V2000
   -5.9280   24.9380  -29.4190 C   0  0  0  0  0  0  0  0  0  0  0  0
   -5.2400   25.7120  -30.5380 C   0  0  0  0  0  0  0  0  0  0  0  0
   -3.8730   25.2350  -30.7220 N   0  0  0  0  0  0  0  0  0  0  0  0
   -3.0720   24.5880  -29.7250 C   0  0  0  0  0  0  0  0  0  0  0  0
   -2.1180   25.2290  -29.2080 O   0  0  0  0  0  0  0  0  0  0  0  0
   -3.2730   23.1440  -29.3490 C   0  0  0  0  0  0  0  0  0  0  0  0
   -3.8150   22.4070  -30.4430 O   0  0  0  0  0  0  0  0  0  0  0  0
   -3.0970   22.1400  -31.6140 C   0  0  0  0  0  0  0  0  0  0  0  0
   -1.8370   22.1240  -31.6080 O   0  0  0  0  0  0  0  0  0  0  0  0
   -3.8340   21.9200  -32.8950 C   0  0  0  0  0  0  0  0  0  0  0  0
   -5.2740   22.0360  -32.6680 N   0  0  0  0  0  0  0  0  0  0  0  0
   -5.9460   23.1730  -32.3590 C   0  0  0  0  0  0  0  0  0  0  0  0
   -7.2570   22.9480  -32.1050 N   0  0  0  0  0  0  0  0  0  0  0  0
   -7.3960   21.6160  -32.2490 C   0  0  0  0  0  0  0  0  0  0  0  0
   -6.2060   21.0610  -32.5830 C   0  0  0  0  0  0  0  0  0  0  0  0
   -6.1030   19.6860  -32.7580 C   0  0  0  0  0  0  0  0  0  0  0  0
   -5.0050   19.1620  -33.0930 O   0  0  0  0  0  0  0  0  0  0  0  0
   -7.2270   18.9170  -32.5610 N   0  0  0  0  0  0  0  0  0  0  0  0
   -7.1580   17.4590  -32.7580 C   0  0  0  0  0  0  0  0  0  0  0  0
   -8.4370   19.5140  -32.2460 C   0  0  0  0  0  0  0  0  0  0  0  0
   -9.4700   18.7970  -32.1130 O   0  0  0  0  0  0  0  0  0  0  0  0
   -8.5280   20.8800  -32.0800 N   0  0  0  0  0  0  0  0  0  0  0  0
   -9.7870   21.5470  -31.7190 C   0  0  0  0  0  0  0  0  0  0  0  0
   -5.5878   25.3208  -28.4455 H   0  0  0  0  0  0  0  0  0  0  0  0
   -7.0176   25.0641  -29.5021 H   0  0  0  0  0  0  0  0  0  0  0  0
   -5.6750   23.8707  -29.5021 H   0  0  0  0  0  0  0  0  0  0  0  0
   -5.8015   25.5722  -31.4735 H   0  0  0  0  0  0  0  0  0  0  0  0
   -5.2122   26.7782  -30.2690 H   0  0  0  0  0  0  0  0  0  0  0  0
   -2.3044   22.7072  -29.0644 H   0  0  0  0  0  0  0  0  0  0  0  0
   -3.9779   23.0938  -28.5061 H   0  0  0  0  0  0  0  0  0  0  0  0
   -3.5190   22.6744  -33.6310 H   0  0  0  0  0  0  0  0  0  0  0  0
   -3.6075   20.9126  -33.2742 H   0  0  0  0  0  0  0  0  0  0  0  0
   -5.4779   24.1676  -32.3192 H   0  0  0  0  0  0  0  0  0  0  0  0
   -7.9790   23.6530  -31.8370 H   0  0  0  0  0  0  0  0  0  0  0  0
   -7.1343   16.9575  -31.7793 H   0  0  0  0  0  0  0  0  0  0  0  0
   -8.0412   17.1229  -33.3209 H   0  0  0  0  0  0  0  0  0  0  0  0
   -6.2470   17.2078  -33.3209 H   0  0  0  0  0  0  0  0  0  0  0  0
   -9.8760   21.5941  -30.6236 H   0  0  0  0  0  0  0  0  0  0  0  0
   -9.7932   22.5667  -32.1316 H   0  0  0  0  0  0  0  0  0  0  0  0
  -10.6341   20.9794  -32.1316 H   0  0  0  0  0  0  0  0  0  0  0  0
  1  2  1  0
  2  3  1  0
  3  4  1  0
  4  5  2  0
  4  6  1  0
  6  7  1  0
  7  8  1  0
  8  9  2  0
  8 10  1  0
 10 11  1  0
 11 12  1  0
 12 13  2  0
 13 14  1  0
 14 15  2  0
 15 16  1  0
 16 17  2  0
 16 18  1  0
 18 19  1  0
 18 20  1  0
 20 21  2  0
 20 22  1  0
 22 23  1  0
 15 11  1  0
 22 14  1  0
  1 24  1  0
  1 25  1  0
  1 26  1  0
  2 27  1  0
  2 28  1  0
  6 29  1  0
  6 30  1  0
 10 31  1  0
 10 32  1  0
 12 33  1  0
 13 34  1  0
 19 35  1  0
 19 36  1  0
 19 37  1  0
 23 38  1  0
 23 39  1  0
 23 40  1  0
M  CHG  2   3  -1  13   1
M  END
>  <UniqueID>  (3) 
3

>  <SMILES>  (3) 
CC[N-]C(=O)COC(=O)Cn1c[nH+]c2c1c(=O)n(C)c(=O)n2C

>  <Energy>  (3) 
79.20736619446559

>  <Genealogy>  (3) 
CC[N-]C(=O)COC(=O)Cn1c[nH+]c2c1c(=O)n(C)c(=O)n2C (protonated)
CC[N-]C(=O)COC(=O)Cn1c[nH+]c2c1c(=O)n(C)c(=O)n2C (3D coordinates assigned)
CC[N-]C(=O)COC(=O)Cn1c[nH+]c2c1c(=O)n(C)c(=O)n2C (optimized conformer: 79.20736619446559 kcal/mol)

>  <smiles>  (3) 
CCNC(=O)COC(=O)Cn1cnc2c1c(=O)n(C)c(=O)n2C

>  <score_type>  (3) 
oracle

>  <origin>  (3) 
adg

>  <m_score__min__energy>  (3) 
-7.9900000000000002

>  <m_primary>  (3) 
energy

$$$$
3:0
     RDKit          3D

 69 72  0  0  0  0  0  0  0  0999 V2000
   -5.7150   25.6050  -30.5270 C   0  0  0  0  0  0  0  0  0  0  0  0
   -5.4700   24.4370  -29.5740 C   0  0  0  0  0  0  0  0  0  0  0  0
   -4.0010   24.3780  -29.1400 C   0  0  0  0  0  0  0  0  0  0  0  0
   -3.8670   23.7920  -27.7230 C   0  0  0  0  0  0  0  0  0  0  0  0
   -2.9370   22.6500  -27.6800 N   0  0  0  0  0  0  0  0  0  0  0  0
   -1.7180   22.9350  -26.9050 C   0  0  0  0  0  0  0  0  0  0  0  0
   -0.5320   22.1150  -27.4290 C   0  0  0  0  0  0  0  0  0  0  0  0
   -0.9500   21.1050  -28.3300 O   0  0  0  0  0  0  0  0  0  0  0  0
   -0.3820   21.3050  -29.6080 C   0  0  0  0  0  0  0  0  0  0  0  0
   -1.4830   21.1510  -30.6690 C   0  0  0  0  0  0  0  0  0  0  0  0
   -2.7950   20.8040  -30.0950 N   0  0  0  0  0  0  0  0  0  0  0  0
   -3.9280   21.5150  -30.7110 C   0  0  0  0  0  0  0  0  0  0  0  0
   -3.5320   22.1930  -32.0280 C   0  0  0  0  0  0  0  0  0  0  0  0
   -4.5230   21.9450  -33.0760 N   0  0  0  0  0  0  0  0  0  0  0  0
   -5.6170   21.0500  -32.8440 C   0  0  0  0  0  0  0  0  0  0  0  0
   -5.4640   19.6840  -33.0610 C   0  0  0  0  0  0  0  0  0  0  0  0
   -6.5330   18.8200  -32.9130 C   0  0  0  0  0  0  0  0  0  0  0  0
   -7.7440   19.2390  -32.4200 N   0  0  0  0  0  0  0  0  0  0  0  0
   -8.7420   18.2520  -31.9790 C   0  0  0  0  0  0  0  0  0  0  0  0
   -7.9670   20.6010  -32.2860 C   0  0  0  0  0  0  0  0  0  0  0  0
   -9.2490   21.1210  -31.9790 C   0  0  0  0  0  0  0  0  0  0  0  0
   -9.4470   22.4910  -31.8140 C   0  0  0  0  0  0  0  0  0  0  0  0
   -8.3870   23.3800  -31.9620 C   0  0  0  0  0  0  0  0  0  0  0  0
   -7.1190   22.9080  -32.2970 C   0  0  0  0  0  0  0  0  0  0  0  0
   -6.8940   21.5290  -32.4820 C   0  0  0  0  0  0  0  0  0  0  0  0
   -6.0980   17.4910  -33.3630 C   0  0  0  0  0  0  0  0  0  0  0  0
   -6.8200   16.3180  -33.6350 C   0  0  0  0  0  0  0  0  0  0  0  0
   -6.1340   15.2080  -34.1500 C   0  0  0  0  0  0  0  0  0  0  0  0
   -4.7580   15.2870  -34.4290 C   0  0  0  0  0  0  0  0  0  0  0  0
   -4.0640   16.4870  -34.2200 C   0  0  0  0  0  0  0  0  0  0  0  0
   -4.7570   17.5810  -33.7000 C   0  0  0  0  0  0  0  0  0  0  0  0
   -4.2280   18.9680  -33.5230 C   0  0  0  0  0  0  0  0  0  0  0  0
   -5.9067   26.5188  -29.9454 H   0  0  0  0  0  0  0  0  0  0  0  0
   -4.8284   25.7531  -31.1610 H   0  0  0  0  0  0  0  0  0  0  0  0
   -6.5864   25.3844  -31.1610 H   0  0  0  0  0  0  0  0  0  0  0  0
   -6.1031   24.5613  -28.6831 H   0  0  0  0  0  0  0  0  0  0  0  0
   -5.7178   23.5015  -30.0968 H   0  0  0  0  0  0  0  0  0  0  0  0
   -3.4428   23.7448  -29.8453 H   0  0  0  0  0  0  0  0  0  0  0  0
   -3.5957   25.4006  -29.1359 H   0  0  0  0  0  0  0  0  0  0  0  0
   -3.4955   24.5773  -27.0483 H   0  0  0  0  0  0  0  0  0  0  0  0
   -4.8586   23.4327  -27.4104 H   0  0  0  0  0  0  0  0  0  0  0  0
   -2.6650   22.3790  -28.6550 H   0  0  0  0  0  0  0  0  0  0  0  0
   -1.4804   24.0058  -26.9883 H   0  0  0  0  0  0  0  0  0  0  0  0
   -1.8974   22.6619  -25.8547 H   0  0  0  0  0  0  0  0  0  0  0  0
    0.1657   22.7889  -27.9478 H   0  0  0  0  0  0  0  0  0  0  0  0
   -0.0458   21.6285  -26.5705 H   0  0  0  0  0  0  0  0  0  0  0  0
    0.0494   22.3152  -29.6668 H   0  0  0  0  0  0  0  0  0  0  0  0
    0.4125   20.5649  -29.7838 H   0  0  0  0  0  0  0  0  0  0  0  0
   -1.5797   22.1018  -31.2136 H   0  0  0  0  0  0  0  0  0  0  0  0
   -1.1863   20.3247  -31.3318 H   0  0  0  0  0  0  0  0  0  0  0  0
   -2.7840   21.0130  -29.0700 H   0  0  0  0  0  0  0  0  0  0  0  0
   -4.7338   20.7934  -30.9111 H   0  0  0  0  0  0  0  0  0  0  0  0
   -4.2593   22.2971  -30.0120 H   0  0  0  0  0  0  0  0  0  0  0  0
   -3.4507   23.2773  -31.8619 H   0  0  0  0  0  0  0  0  0  0  0  0
   -2.5691   21.7748  -32.3565 H   0  0  0  0  0  0  0  0  0  0  0  0
   -4.5630   22.5570  -33.9210 H   0  0  0  0  0  0  0  0  0  0  0  0
   -8.7697   18.2246  -30.8797 H   0  0  0  0  0  0  0  0  0  0  0  0
   -9.7328   18.5353  -32.3638 H   0  0  0  0  0  0  0  0  0  0  0  0
   -8.4697   17.2581  -32.3638 H   0  0  0  0  0  0  0  0  0  0  0  0
  -10.1006   20.4334  -31.8693 H   0  0  0  0  0  0  0  0  0  0  0  0
  -10.4485   22.8719  -31.5650 H   0  0  0  0  0  0  0  0  0  0  0  0
   -8.5500   24.4578  -31.8143 H   0  0  0  0  0  0  0  0  0  0  0  0
   -6.2872   23.6175  -32.4180 H   0  0  0  0  0  0  0  0  0  0  0  0
   -7.9029   16.2703  -33.4478 H   0  0  0  0  0  0  0  0  0  0  0  0
   -6.6762   14.2693  -34.3369 H   0  0  0  0  0  0  0  0  0  0  0  0
   -4.2246   14.4046  -34.8124 H   0  0  0  0  0  0  0  0  0  0  0  0
   -2.9936   16.5648  -34.4613 H   0  0  0  0  0  0  0  0  0  0  0  0
   -3.4321   19.0039  -32.7646 H   0  0  0  0  0  0  0  0  0  0  0  0
   -3.7633   19.3964  -34.4233 H   0  0  0  0  0  0  0  0  0  0  0  0
  1  2  1  0
  2  3  1  0
  3  4  1  0
  4  5  1  0
  5  6  1  0
  6  7  1  0
  7  8  1  0
  8  9  1  0
  9 10  1  0
 10 11  1  0
 11 12  1  0
 12 13  1  0
 13 14  1  0
 14 15  1  0
 15 16  2  0
 16 17  1  0
 17 18  2  0
 18 19  1  0
 18 20  1  0
 20 21  2  0
 21 22  1  0
 22 23  2  0
 23 24  1  0
 24 25  2  0
 17 26  1  0
 26 27  2  0
 27 28  1  0
 28 29  2  0
 29 30  1  0
 30 31  2  0
 31 32  1  0
 25 15  1  0
 31 26  1  0
 32 16  1  0
 25 20  1  0
  1 33  1  0
  1 34  1  0
  1 35  1  0
  2 36  1  0
  2 37  1  0
  3 38  1  0
  3 39  1  0
  4 40  1  0
  4 41  1  0
  5 42  1  0
  6 43  1  0
  6 44  1  0
  7 45  1  0
  7 46  1  0
  9 47  1  0
  9 48  1  0
 10 49  1  0
 10 50  1  0
 11 51  1  0
 12 52  1  0
 12 53  1  0
 13 54  1  0
 13 55  1  0
 14 56  1  0
 19 57  1  0
 19 58  1  0
 19 59  1  0
 21 60  1  0
 22 61  1  0
 23 62  1  0
 24 63  1  0
 27 64  1  0
 28 65  1  0
 29 66  1  0
 30 67  1  0
 32 68  1  0
 32 69  1  0
M  CHG  1  18   1
M  END
>  <UniqueID>  (4) 
4

>  <SMILES>  (4) 
CCCCNCCOCCNCCNc1c2c([n+](C)c3ccccc13)-c1ccccc1C2

>  <Energy>  (4) 
108.14691175411343

>  <Genealogy>  (4) 
CCCCNCCOCCNCCNc1c2c([n+](C)c3ccccc13)-c1ccccc1C2 (3D coordinates assigned)
CCCCNCCOCCNCCNc1c2c([n+](C)c3ccccc13)-c1ccccc1C2 (nonaromatic ring conformer: 108.14691175411343 kcal/mol)

>  <smiles>  (4) 
CCCCNCCOCCNCCNc1c2c([n+](C)c3ccccc13)-c1ccccc1C2

>  <score_type>  (4) 
oracle

>  <origin>  (4) 
adg

>  <m_score__min__energy>  (4) 
-10.140000000000001

>  <m_primary>  (4) 
energy

$$$$
4:0
     RDKit          3D

 46 48  0  0  0  0  0  0  0  0999 V2000
   -2.6370   23.1140  -30.0280 C   0  0  0  0  0  0  0  0  0  0  0  0
   -3.0860   24.5040  -29.5820 C   0  0  0  0  0  0  0  0  0  0  0  0
   -3.9340   25.1380  -30.6020 N   0  0  0  0  0  0  0  0  0  0  0  0
   -5.3010   25.4090  -30.1210 C   0  0  0  0  0  0  0  0  0  0  0  0
   -6.3060   24.6550  -30.9960 C   0  0  0  0  0  0  0  0  0  0  0  0
   -6.0020   23.1530  -31.0540 C   0  0  0  0  0  0  0  0  0  0  0  0
   -5.8690   22.6900  -32.4340 N   0  0  0  0  0  0  0  0  0  0  0  0
   -5.7560   21.2880  -32.7190 C   0  0  0  0  0  0  0  0  0  0  0  0
   -6.8700   20.4460  -32.5770 C   0  0  0  0  0  0  0  0  0  0  0  0
   -8.0960   20.9480  -32.0910 C   0  0  0  0  0  0  0  0  0  0  0  0
   -9.1870   20.1020  -31.9060 C   0  0  0  0  0  0  0  0  0  0  0  0
   -9.0700   18.7450  -32.1830 C   0  0  0  0  0  0  0  0  0  0  0  0
   -7.8700   18.2270  -32.6660 C   0  0  0  0  0  0  0  0  0  0  0  0
   -6.7510   19.0680  -32.9030 C   0  0  0  0  0  0  0  0  0  0  0  0
   -5.5640   18.5760  -33.4160 N   0  0  0  0  0  0  0  0  0  0  0  0
   -5.5210   17.2240  -34.0160 C   0  0  0  0  0  0  0  0  0  0  0  0
   -4.4230   19.3570  -33.3870 C   0  0  0  0  0  0  0  0  0  0  0  0
   -3.1380   18.8160  -33.6520 C   0  0  0  0  0  0  0  0  0  0  0  0
   -2.0050   19.6280  -33.6730 C   0  0  0  0  0  0  0  0  0  0  0  0
   -2.1150   20.9920  -33.4200 C   0  0  0  0  0  0  0  0  0  0  0  0
   -1.0090   21.7760  -33.4480 F   0  0  0  0  0  0  0  0  0  0  0  0
   -3.3560   21.5460  -33.1160 C   0  0  0  0  0  0  0  0  0  0  0  0
   -4.5130   20.7390  -33.0730 C   0  0  0  0  0  0  0  0  0  0  0  0
   -2.4361   22.4921  -29.1432 H   0  0  0  0  0  0  0  0  0  0  0  0
   -3.4304   22.6483  -30.6310 H   0  0  0  0  0  0  0  0  0  0  0  0
   -1.7211   23.2005  -30.6310 H   0  0  0  0  0  0  0  0  0  0  0  0
   -3.6562   24.4143  -28.6456 H   0  0  0  0  0  0  0  0  0  0  0  0
   -2.1930   25.1286  -29.4320 H   0  0  0  0  0  0  0  0  0  0  0  0
   -3.4880   26.0500  -30.8570 H   0  0  0  0  0  0  0  0  0  0  0  0
   -5.3968   25.0721  -29.0783 H   0  0  0  0  0  0  0  0  0  0  0  0
   -5.5029   26.4889  -30.1762 H   0  0  0  0  0  0  0  0  0  0  0  0
   -7.3150   24.7976  -30.5818 H   0  0  0  0  0  0  0  0  0  0  0  0
   -6.2357   25.0561  -32.0178 H   0  0  0  0  0  0  0  0  0  0  0  0
   -5.0615   22.9570  -30.5183 H   0  0  0  0  0  0  0  0  0  0  0  0
   -6.8373   22.6118  -30.5856 H   0  0  0  0  0  0  0  0  0  0  0  0
   -5.9890   23.3500  -33.2350 H   0  0  0  0  0  0  0  0  0  0  0  0
   -8.1911   22.0184  -31.8558 H   0  0  0  0  0  0  0  0  0  0  0  0
  -10.1417   20.5081  -31.5405 H   0  0  0  0  0  0  0  0  0  0  0  0
   -9.9286   18.0769  -32.0202 H   0  0  0  0  0  0  0  0  0  0  0  0
   -7.7883   17.1486  -32.8670 H   0  0  0  0  0  0  0  0  0  0  0  0
   -5.4970   16.4687  -33.2167 H   0  0  0  0  0  0  0  0  0  0  0  0
   -6.4147   17.0706  -34.6387 H   0  0  0  0  0  0  0  0  0  0  0  0
   -4.6193   17.1277  -34.6387 H   0  0  0  0  0  0  0  0  0  0  0  0
   -3.0343   17.7379  -33.8441 H   0  0  0  0  0  0  0  0  0  0  0  0
   -1.0202   19.1888  -33.8904 H   0  0  0  0  0  0  0  0  0  0  0  0
   -3.4352   22.6231  -32.9074 H   0  0  0  0  0  0  0  0  0  0  0  0
  1  2  1  0
  2  3  1  0
  3  4  1  0
  4  5  1  0
  5  6  1  0
  6  7  1  0
  7  8  1  0
  8  9  2  0
  9 10  1  0
 10 11  2  0
 11 12  1  0
 12 13  2  0
 13 14  1  0
 14 15  2  0
 15 16  1  0
 15 17  1  0
 17 18  2  0
 18 19  1  0
 19 20  2  0
 20 21  1  0
 20 22  1  0
 22 23  2  0
 23  8  1  0
 14  9  1  0
 23 17  1  0
  1 24  1  0
  1 25  1  0
  1 26  1  0
  2 27  1  0
  2 28  1  0
  3 29  1  0
  4 30  1  0
  4 31  1  0
  5 32  1  0
  5 33  1  0
  6 34  1  0
  6 35  1  0
  7 36  1  0
 10 37  1  0
 11 38  1  0
 12 39  1  0
 13 40  1  0
 16 41  1  0
 16 42  1  0
 16 43  1  0
 18 44  1  0
 19 45  1  0
 22 46  1  0
M  CHG  1  15   1
M  END
>  <UniqueID>  (5) 
5

>  <SMILES>  (5) 
CCNCCCNc1c2ccccc2[n+](C)c2ccc(F)cc12

>  <Energy>  (5) 
68.36062686266172

>  <Genealogy>  (5) 
CCNCCCNc1c2ccccc2[n+](C)c2ccc(F)cc12 (3D coordinates assigned)
CCNCCCNc1c2ccccc2[n+](C)c2ccc(F)cc12 (optimized conformer: 68.36062686266172 kcal/mol)

>  <smiles>  (5) 
CCNCCCNc1c2ccccc2[n+](C)c2ccc(F)cc12

>  <score_type>  (5) 
oracle

>  <origin>  (5) 
adg

>  <m_score__min__energy>  (5) 
-8.8900000000000006

>  <m_primary>  (5) 
energy

$$$$
5:0
     RDKit          3D

 45 46  0  0  0  0  0  0  0  0999 V2000
   -9.1280   19.9220  -32.2670 C   0  0  0  0  0  0  0  0  0  0  0  0
   -8.6930   18.4820  -32.0180 C   0  0  0  0  0  0  0  0  0  0  0  0
   -7.2550   18.3310  -32.2830 N   0  0  0  0  0  0  0  0  0  0  0  0
   -6.8930   16.9270  -32.5170 C   0  0  0  0  0  0  0  0  0  0  0  0
   -6.4810   16.7100  -33.9820 C   0  0  0  0  0  0  0  0  0  0  0  0
   -6.2840   17.9810  -34.7100 N   0  0  0  0  0  0  0  0  0  0  0  0
   -4.9020   18.4750  -34.6030 C   0  0  0  0  0  0  0  0  0  0  0  0
   -4.8260   19.6240  -33.6300 C   0  0  0  0  0  0  0  0  0  0  0  0
   -3.6390   19.8800  -32.9280 C   0  0  0  0  0  0  0  0  0  0  0  0
   -3.5570   20.9680  -32.0550 C   0  0  0  0  0  0  0  0  0  0  0  0
   -4.6590   21.8210  -31.8740 C   0  0  0  0  0  0  0  0  0  0  0  0
   -4.5760   22.9500  -30.9840 N   0  0  0  0  0  0  0  0  0  0  0  0
   -5.7230   23.8550  -30.8220 C   0  0  0  0  0  0  0  0  0  0  0  0
   -5.2610   25.3180  -30.6170 C   0  0  0  0  0  0  0  0  0  0  0  0
   -3.8600   25.4560  -30.4450 O   0  0  0  0  0  0  0  0  0  0  0  0
   -3.3910   24.5170  -29.5020 C   0  0  0  0  0  0  0  0  0  0  0  0
   -3.3960   23.1220  -30.1280 C   0  0  0  0  0  0  0  0  0  0  0  0
   -5.8390   21.5740  -32.5960 C   0  0  0  0  0  0  0  0  0  0  0  0
   -5.9200   20.4860  -33.4690 C   0  0  0  0  0  0  0  0  0  0  0  0
   -9.2816   20.4304  -31.3037 H   0  0  0  0  0  0  0  0  0  0  0  0
   -8.3483   20.4470  -32.8385 H   0  0  0  0  0  0  0  0  0  0  0  0
  -10.0679   19.9275  -32.8385 H   0  0  0  0  0  0  0  0  0  0  0  0
   -8.8989   18.2166  -30.9706 H   0  0  0  0  0  0  0  0  0  0  0  0
   -9.2531   17.8171  -32.6920 H   0  0  0  0  0  0  0  0  0  0  0  0
   -6.7330   18.6560  -31.4350 H   0  0  0  0  0  0  0  0  0  0  0  0
   -6.0521   16.6566  -31.8614 H   0  0  0  0  0  0  0  0  0  0  0  0
   -7.7661   16.2949  -32.2974 H   0  0  0  0  0  0  0  0  0  0  0  0
   -5.5392   16.1421  -34.0029 H   0  0  0  0  0  0  0  0  0  0  0  0
   -7.2950   16.1629  -34.4800 H   0  0  0  0  0  0  0  0  0  0  0  0
   -6.9530   18.7110  -34.3660 H   0  0  0  0  0  0  0  0  0  0  0  0
   -6.4920   17.8150  -35.7240 H   0  0  0  0  0  0  0  0  0  0  0  0
   -4.2523   17.6597  -34.2519 H   0  0  0  0  0  0  0  0  0  0  0  0
   -4.5713   18.8241  -35.5923 H   0  0  0  0  0  0  0  0  0  0  0  0
   -2.7688   19.2213  -33.0653 H   0  0  0  0  0  0  0  0  0  0  0  0
   -2.6232   21.1581  -31.5056 H   0  0  0  0  0  0  0  0  0  0  0  0
   -6.3521   23.8008  -31.7227 H   0  0  0  0  0  0  0  0  0  0  0  0
   -6.2891   23.5419  -29.9323 H   0  0  0  0  0  0  0  0  0  0  0  0
   -5.5618   25.9036  -31.4982 H   0  0  0  0  0  0  0  0  0  0  0  0
   -5.7348   25.6774  -29.6916 H   0  0  0  0  0  0  0  0  0  0  0  0
   -2.3664   24.7802  -29.2005 H   0  0  0  0  0  0  0  0  0  0  0  0
   -4.0461   24.5253  -28.6184 H   0  0  0  0  0  0  0  0  0  0  0  0
   -2.4869   22.9932  -30.7337 H   0  0  0  0  0  0  0  0  0  0  0  0
   -3.4247   22.3705  -29.3252 H   0  0  0  0  0  0  0  0  0  0  0  0
   -6.7046   22.2415  -32.4731 H   0  0  0  0  0  0  0  0  0  0  0  0
   -6.8469   20.3048  -34.0329 H   0  0  0  0  0  0  0  0  0  0  0  0
  1  2  1  0
  2  3  1  0
  3  4  1  0
  4  5  1  0
  5  6  1  0
  6  7  1  0
  7  8  1  0
  8  9  2  0
  9 10  1  0
 10 11  2  0
 11 12  1  0
 12 13  1  0
 13 14  1  0
 14 15  1  0
 15 16  1  0
 16 17  1  0
 11 18  1  0
 18 19  2  0
 19  8  1  0
 17 12  1  0
  1 20  1  0
  1 21  1  0
  1 22  1  0
  2 23  1  0
  2 24  1  0
  3 25  1  0
  4 26  1  0
  4 27  1  0
  5 28  1  0
  5 29  1  0
  6 30  1  0
  6 31  1  0
  7 32  1  0
  7 33  1  0
  9 34  1  0
 10 35  1  0
 13 36  1  0
 13 37  1  0
 14 38  1  0
 14 39  1  0
 16 40  1  0
 16 41  1  0
 17 42  1  0
 17 43  1  0
 18 44  1  0
 19 45  1  0
M  CHG  1   6   1
M  END
>  <UniqueID>  (6) 
6

>  <SMILES>  (6) 
CCNCC[NH2+]Cc1ccc(N2CCOCC2)cc1

>  <Energy>  (6) 
50.02356975653555

>  <Genealogy>  (6) 
CCNCC[NH2+]Cc1ccc(N2CCOCC2)cc1 (protonated)
CCNCC[NH2+]Cc1ccc(N2CCOCC2)cc1 (3D coordinates assigned)
CCNCC[NH2+]Cc1ccc(N2CCOCC2)cc1 (nonaromatic ring conformer: 50.02356975653555 kcal/mol)

>  <smiles>  (6) 
CCNCCNCc1ccc(N2CCOCC2)cc1

>  <score_type>  (6) 
oracle

>  <origin>  (6) 
adg

>  <m_score__min__energy>  (6) 
-6.6399999999999997

>  <m_primary>  (6) 
energy

$$$$
6:0
     RDKit          3D

 51 53  0  0  0  0  0  0  0  0999 V2000
   -2.8130   24.9060  -26.7930 C   0  0  0  0  0  0  0  0  0  0  0  0
   -4.2370   24.5370  -27.2020 C   0  0  0  0  0  0  0  0  0  0  0  0
   -4.2710   24.0100  -28.5840 N   0  0  0  0  0  0  0  0  0  0  0  0
   -5.5100   24.3340  -29.3250 C   0  0  0  0  0  0  0  0  0  0  0  0
   -5.3690   25.5320  -30.2660 C   0  0  0  0  0  0  0  0  0  0  0  0
   -3.7620   22.6300  -28.7920 C   0  0  0  0  0  0  0  0  0  0  0  0
   -2.3240   22.5440  -29.3520 C   0  0  0  0  0  0  0  0  0  0  0  0
   -2.3230   22.3030  -30.8610 C   0  0  0  0  0  0  0  0  0  0  0  0
   -3.4410   21.4990  -31.2260 O   0  0  0  0  0  0  0  0  0  0  0  0
   -4.5740   22.0220  -31.8550 C   0  0  0  0  0  0  0  0  0  0  0  0
   -4.6950   23.2670  -32.0180 O   0  0  0  0  0  0  0  0  0  0  0  0
   -5.6120   21.1020  -32.3700 C   0  0  0  0  0  0  0  0  0  0  0  0
   -6.9660   21.3730  -32.1090 C   0  0  0  0  0  0  0  0  0  0  0  0
   -7.9460   20.5070  -32.5130 C   0  0  0  0  0  0  0  0  0  0  0  0
   -7.6590   19.3660  -33.1860 N   0  0  0  0  0  0  0  0  0  0  0  0
   -6.3650   19.0540  -33.4970 C   0  0  0  0  0  0  0  0  0  0  0  0
   -6.0810   17.8800  -34.2130 C   0  0  0  0  0  0  0  0  0  0  0  0
   -4.7680   17.5660  -34.5600 C   0  0  0  0  0  0  0  0  0  0  0  0
   -3.7250   18.4220  -34.2050 C   0  0  0  0  0  0  0  0  0  0  0  0
   -3.9840   19.5920  -33.4890 C   0  0  0  0  0  0  0  0  0  0  0  0
   -5.3020   19.9210  -33.1040 C   0  0  0  0  0  0  0  0  0  0  0  0
   -9.3010   20.9410  -32.1100 C   0  0  0  0  0  0  0  0  0  0  0  0
   -9.0510   22.2240  -31.2990 C   0  0  0  0  0  0  0  0  0  0  0  0
   -7.5410   22.5220  -31.3600 C   0  0  0  0  0  0  0  0  0  0  0  0
   -2.7400   24.9249  -25.6956 H   0  0  0  0  0  0  0  0  0  0  0  0
   -2.1113   24.1600  -27.1944 H   0  0  0  0  0  0  0  0  0  0  0  0
   -2.5619   25.8989  -27.1944 H   0  0  0  0  0  0  0  0  0  0  0  0
   -4.6214   23.7692  -26.5145 H   0  0  0  0  0  0  0  0  0  0  0  0
   -4.8608   25.4418  -27.1561 H   0  0  0  0  0  0  0  0  0  0  0  0
   -5.7974   23.4557  -29.9217 H   0  0  0  0  0  0  0  0  0  0  0  0
   -6.2711   24.6009  -28.5770 H   0  0  0  0  0  0  0  0  0  0  0  0
   -5.2606   26.4526  -29.6738 H   0  0  0  0  0  0  0  0  0  0  0  0
   -4.4805   25.3974  -30.9004 H   0  0  0  0  0  0  0  0  0  0  0  0
   -6.2645   25.6073  -30.9004 H   0  0  0  0  0  0  0  0  0  0  0  0
   -3.7833   22.1084  -27.8238 H   0  0  0  0  0  0  0  0  0  0  0  0
   -4.4155   22.1710  -29.5485 H   0  0  0  0  0  0  0  0  0  0  0  0
   -1.8013   23.4885  -29.1407 H   0  0  0  0  0  0  0  0  0  0  0  0
   -1.8155   21.6975  -28.8674 H   0  0  0  0  0  0  0  0  0  0  0  0
   -2.3823   23.2687  -31.3843 H   0  0  0  0  0  0  0  0  0  0  0  0
   -1.3960   21.7825  -31.1432 H   0  0  0  0  0  0  0  0  0  0  0  0
   -8.4410   18.7320  -33.4700 H   0  0  0  0  0  0  0  0  0  0  0  0
   -6.8994   17.2041  -34.5018 H   0  0  0  0  0  0  0  0  0  0  0  0
   -4.5536   16.6409  -35.1152 H   0  0  0  0  0  0  0  0  0  0  0  0
   -2.6923   18.1734  -34.4911 H   0  0  0  0  0  0  0  0  0  0  0  0
   -3.1543   20.2633  -33.2225 H   0  0  0  0  0  0  0  0  0  0  0  0
   -9.9237   21.1505  -32.9923 H   0  0  0  0  0  0  0  0  0  0  0  0
   -9.8395   20.1732  -31.5351 H   0  0  0  0  0  0  0  0  0  0  0  0
   -9.6170   23.0604  -31.7350 H   0  0  0  0  0  0  0  0  0  0  0  0
   -9.3790   22.0944  -30.2571 H   0  0  0  0  0  0  0  0  0  0  0  0
   -7.3520   23.4665  -31.8913 H   0  0  0  0  0  0  0  0  0  0  0  0
   -7.0958   22.6354  -30.3605 H   0  0  0  0  0  0  0  0  0  0  0  0
  1  2  1  0
  2  3  1  0
  3  4  1  0
  4  5  1  0
  3  6  1  0
  6  7  1  0
  7  8  1  0
  8  9  1  0
  9 10  1  0
 10 11  2  0
 10 12  1  0
 12 13  2  0
 13 14  1  0
 14 15  2  0
 15 16  1  0
 16 17  2  0
 17 18  1  0
 18 19  2  0
 19 20  1  0
 20 21  2  0
 14 22  1  0
 22 23  1  0
 23 24  1  0
 21 12  1  0
 24 13  1  0
 21 16  1  0
  1 25  1  0
  1 26  1  0
  1 27  1  0
  2 28  1  0
  2 29  1  0
  4 30  1  0
  4 31  1  0
  5 32  1  0
  5 33  1  0
  5 34  1  0
  6 35  1  0
  6 36  1  0
  7 37  1  0
  7 38  1  0
  8 39  1  0
  8 40  1  0
 15 41  1  0
 17 42  1  0
 18 43  1  0
 19 44  1  0
 20 45  1  0
 22 46  1  0
 22 47  1  0
 23 48  1  0
 23 49  1  0
 24 50  1  0
 24 51  1  0
M  CHG  1  15   1
M  END
>  <UniqueID>  (7) 
7

>  <SMILES>  (7) 
CCN(CC)CCCOC(=O)c1c2c([nH+]c3ccccc13)CCC2

>  <Energy>  (7) 
68.85357350631708

>  <Genealogy>  (7) 
CCN(CC)CCCOC(=O)c1c2c([nH+]c3ccccc13)CCC2 (protonated)
CCN(CC)CCCOC(=O)c1c2c([nH+]c3ccccc13)CCC2 (3D coordinates assigned)
CCN(CC)CCCOC(=O)c1c2c([nH+]c3ccccc13)CCC2 (nonaromatic ring conformer: 68.85357350631708 kcal/mol)

>  <smiles>  (7) 
CCN(CC)CCCOC(=O)c1c2c(nc3ccccc13)CCC2

>  <score_type>  (7) 
oracle

>  <origin>  (7) 
adg

>  <m_score__min__energy>  (7) 
-7.6200000000000001

>  <m_primary>  (7) 
energy

$$$$
7:0
     RDKit          3D

 42 44  0  0  0  0  0  0  0  0999 V2000
   -5.1360   14.6830  -33.4000 C   0  0  0  0  0  0  0  0  0  0  0  0
   -6.3340   15.1480  -34.2240 C   0  0  0  0  0  0  0  0  0  0  0  0
   -6.0950   16.4390  -34.7840 O   0  0  0  0  0  0  0  0  0  0  0  0
   -5.8370   17.6150  -34.0610 C   0  0  0  0  0  0  0  0  0  0  0  0
   -4.5230   18.0890  -34.0310 C   0  0  0  0  0  0  0  0  0  0  0  0
   -4.2030   19.2510  -33.3330 C   0  0  0  0  0  0  0  0  0  0  0  0
   -5.1940   19.9650  -32.6450 C   0  0  0  0  0  0  0  0  0  0  0  0
   -4.8620   21.1010  -31.9680 N   0  0  0  0  0  0  0  0  0  0  0  0
   -5.7880   21.8290  -31.2870 C   0  0  0  0  0  0  0  0  0  0  0  0
   -5.3910   23.0220  -30.5830 N   0  0  0  0  0  0  0  0  0  0  0  0
   -4.0460   23.1270  -30.0020 C   0  0  0  0  0  0  0  0  0  0  0  0
   -3.7080   24.5870  -29.6850 C   0  0  0  0  0  0  0  0  0  0  0  0
   -4.2070   25.4450  -30.7640 N   0  0  0  0  0  0  0  0  0  0  0  0
   -5.6820   25.4730  -30.8120 C   0  0  0  0  0  0  0  0  0  0  0  0
   -6.3320   24.1340  -30.4040 C   0  0  0  0  0  0  0  0  0  0  0  0
   -7.1220   21.4060  -31.2620 C   0  0  0  0  0  0  0  0  0  0  0  0
   -7.5180   20.2420  -31.9430 C   0  0  0  0  0  0  0  0  0  0  0  0
   -8.9750   19.8130  -31.9030 C   0  0  0  0  0  0  0  0  0  0  0  0
   -9.4460   19.4570  -33.1560 F   0  0  0  0  0  0  0  0  0  0  0  0
   -9.7560   20.8530  -31.4340 F   0  0  0  0  0  0  0  0  0  0  0  0
   -9.1160   18.7170  -31.0690 F   0  0  0  0  0  0  0  0  0  0  0  0
   -6.5340   19.5020  -32.6530 C   0  0  0  0  0  0  0  0  0  0  0  0
   -6.8380   18.3200  -33.3660 C   0  0  0  0  0  0  0  0  0  0  0  0
   -5.3701   14.7739  -32.3291 H   0  0  0  0  0  0  0  0  0  0  0  0
   -4.9123   13.6327  -33.6386 H   0  0  0  0  0  0  0  0  0  0  0  0
   -4.2623   15.3073  -33.6386 H   0  0  0  0  0  0  0  0  0  0  0  0
   -6.5125   14.4296  -35.0377 H   0  0  0  0  0  0  0  0  0  0  0  0
   -7.2128   15.2072  -33.5651 H   0  0  0  0  0  0  0  0  0  0  0  0
   -3.7334   17.5390  -34.5639 H   0  0  0  0  0  0  0  0  0  0  0  0
   -3.1638   19.6115  -33.3215 H   0  0  0  0  0  0  0  0  0  0  0  0
   -3.8630   21.4110  -31.9490 H   0  0  0  0  0  0  0  0  0  0  0  0
   -4.0058   22.5371  -29.0745 H   0  0  0  0  0  0  0  0  0  0  0  0
   -3.3148   22.7435  -30.7289 H   0  0  0  0  0  0  0  0  0  0  0  0
   -4.1829   24.8764  -28.7359 H   0  0  0  0  0  0  0  0  0  0  0  0
   -2.6176   24.7021  -29.5970 H   0  0  0  0  0  0  0  0  0  0  0  0
   -3.8660   26.4200  -30.5920 H   0  0  0  0  0  0  0  0  0  0  0  0
   -6.0387   26.2570  -30.1278 H   0  0  0  0  0  0  0  0  0  0  0  0
   -5.9702   25.6704  -31.8551 H   0  0  0  0  0  0  0  0  0  0  0  0
   -6.6319   24.1860  -29.3470 H   0  0  0  0  0  0  0  0  0  0  0  0
   -7.2101   23.9592  -31.0430 H   0  0  0  0  0  0  0  0  0  0  0  0
   -7.8681   21.9905  -30.7037 H   0  0  0  0  0  0  0  0  0  0  0  0
   -7.8722   17.9454  -33.3780 H   0  0  0  0  0  0  0  0  0  0  0  0
  1  2  1  0
  2  3  1  0
  3  4  1  0
  4  5  2  0
  5  6  1  0
  6  7  2  0
  7  8  1  0
  8  9  2  0
  9 10  1  0
 10 11  1  0
 11 12  1  0
 12 13  1  0
 13 14  1  0
 14 15  1  0
  9 16  1  0
 16 17  2  0
 17 18  1  0
 18 19  1  0
 18 20  1  0
 18 21  1  0
 17 22  1  0
 22 23  2  0
 23  4  1  0
 22  7  1  0
 15 10  1  0
  1 24  1  0
  1 25  1  0
  1 26  1  0
  2 27  1  0
  2 28  1  0
  5 29  1  0
  6 30  1  0
  8 31  1  0
 11 32  1  0
 11 33  1  0
 12 34  1  0
 12 35  1  0
 13 36  1  0
 14 37  1  0
 14 38  1  0
 15 39  1  0
 15 40  1  0
 16 41  1  0
 23 42  1  0
M  CHG  1   8   1
M  END
>  <UniqueID>  (8) 
8

>  <SMILES>  (8) 
CCOc1ccc2[nH+]c(N3CCNCC3)cc(C(F)(F)F)c2c1

>  <Energy>  (8) 
55.63596985020116

>  <Genealogy>  (8) 
CCOc1ccc2[nH+]c(N3CCNCC3)cc(C(F)(F)F)c2c1 (protonated)
CCOc1ccc2[nH+]c(N3CCNCC3)cc(C(F)(F)F)c2c1 (3D coordinates assigned)
CCOc1ccc2[nH+]c(N3CCNCC3)cc(C(F)(F)F)c2c1 (nonaromatic ring conformer: 55.63596985020116 kcal/mol)

>  <smiles>  (8) 
CCOc1ccc2nc(N3CCNCC3)cc(C(F)(F)F)c2c1

>  <score_type>  (8) 
oracle

>  <origin>  (8) 
adg

>  <m_score__min__energy>  (8) 
-6.8700000000000001

>  <m_primary>  (8) 
energy

$$$$
8:0
     RDKit          3D

 42 44  0  0  0  0  0  0  0  0999 V2000
   -5.7480   26.0370  -30.0870 C   0  0  0  0  0  0  0  0  0  0  0  0
   -5.5160   24.7000  -30.7050 C   0  0  0  0  0  0  0  0  0  0  0  0
   -4.2900   24.1500  -30.8510 N   0  0  0  0  0  0  0  0  0  0  0  0
   -4.5720   23.0080  -31.5090 C   0  0  0  0  0  0  0  0  0  0  0  0
   -3.5310   22.0140  -31.9150 C   0  0  0  0  0  0  0  0  0  0  0  0
   -5.8930   22.8900  -31.7480 N   0  0  0  0  0  0  0  0  0  0  0  0
   -6.5830   21.8400  -32.4970 C   0  0  0  0  0  0  0  0  0  0  0  0
   -7.5080   21.0280  -31.5740 C   0  0  1  0  0  0  0  0  0  0  0  0
   -8.6900   21.8760  -31.0970 C   0  0  0  0  0  0  0  0  0  0  0  0
   -9.8450   21.4550  -31.9750 C   0  0  0  0  0  0  0  0  0  0  0  0
   -9.5330   20.0150  -32.3260 C   0  0  0  0  0  0  0  0  0  0  0  0
   -8.0700   19.8850  -32.3180 N   0  0  0  0  0  0  0  0  0  0  0  0
   -7.5700   18.5410  -31.9380 C   0  0  0  0  0  0  0  0  0  0  0  0
   -6.5260   17.9600  -32.8720 C   0  0  0  0  0  0  0  0  0  0  0  0
   -5.7520   16.8540  -32.4790 C   0  0  0  0  0  0  0  0  0  0  0  0
   -4.8080   16.3260  -33.3580 C   0  0  0  0  0  0  0  0  0  0  0  0
   -4.6540   16.8810  -34.6280 C   0  0  0  0  0  0  0  0  0  0  0  0
   -5.4650   17.9520  -35.0060 C   0  0  0  0  0  0  0  0  0  0  0  0
   -6.3830   18.4570  -34.1380 N   0  0  0  0  0  0  0  0  0  0  0  0
   -6.4950   23.9580  -31.2570 N   0  0  0  0  0  0  0  0  0  0  0  0
   -5.7316   25.9423  -28.9912 H   0  0  0  0  0  0  0  0  0  0  0  0
   -4.9569   26.7311  -30.4069 H   0  0  0  0  0  0  0  0  0  0  0  0
   -6.7267   26.4240  -30.4069 H   0  0  0  0  0  0  0  0  0  0  0  0
   -3.0721   21.5759  -31.0164 H   0  0  0  0  0  0  0  0  0  0  0  0
   -3.9978   21.2179  -32.5136 H   0  0  0  0  0  0  0  0  0  0  0  0
   -2.7573   22.5171  -32.5136 H   0  0  0  0  0  0  0  0  0  0  0  0
   -7.1840   22.3014  -33.2944 H   0  0  0  0  0  0  0  0  0  0  0  0
   -5.8313   21.1621  -32.9275 H   0  0  0  0  0  0  0  0  0  0  0  0
   -6.9091   20.6950  -30.7136 H   0  0  0  0  0  0  0  0  0  0  0  0
   -8.9123   21.6711  -30.0394 H   0  0  0  0  0  0  0  0  0  0  0  0
   -8.4841   22.9541  -31.1697 H   0  0  0  0  0  0  0  0  0  0  0  0
  -10.7974   21.5268  -31.4293 H   0  0  0  0  0  0  0  0  0  0  0  0
   -9.9552   22.0931  -32.8642 H   0  0  0  0  0  0  0  0  0  0  0  0
   -9.9776   19.3386  -31.5812 H   0  0  0  0  0  0  0  0  0  0  0  0
   -9.9480   19.7491  -33.3094 H   0  0  0  0  0  0  0  0  0  0  0  0
   -7.1277   18.6125  -30.9334 H   0  0  0  0  0  0  0  0  0  0  0  0
   -8.4365   17.8650  -31.9854 H   0  0  0  0  0  0  0  0  0  0  0  0
   -5.8907   16.4078  -31.4832 H   0  0  0  0  0  0  0  0  0  0  0  0
   -4.1854   15.4729  -33.0504 H   0  0  0  0  0  0  0  0  0  0  0  0
   -3.9023   16.4794  -35.3235 H   0  0  0  0  0  0  0  0  0  0  0  0
   -5.3616   18.3897  -36.0099 H   0  0  0  0  0  0  0  0  0  0  0  0
   -6.9970   19.2350  -34.4670 H   0  0  0  0  0  0  0  0  0  0  0  0
  1  2  1  0
  2  3  1  0
  3  4  2  0
  4  5  1  0
  4  6  1  0
  6  7  1  0
  7  8  1  0
  8  9  1  0
  9 10  1  0
 10 11  1  0
 11 12  1  0
 12 13  1  0
 13 14  1  0
 14 15  2  0
 15 16  1  0
 16 17  2  0
 17 18  1  0
 18 19  2  0
  6 20  1  0
 20  2  2  0
 12  8  1  0
 19 14  1  0
  1 21  1  0
  1 22  1  0
  1 23  1  0
  5 24  1  0
  5 25  1  0
  5 26  1  0
  7 27  1  0
  7 28  1  0
  8 29  1  1
  9 30  1  0
  9 31  1  0
 10 32  1  0
 10 33  1  0
 11 34  1  0
 11 35  1  0
 13 36  1  0
 13 37  1  0
 15 38  1  0
 16 39  1  0
 17 40  1  0
 18 41  1  0
 19 42  1  0
M  CHG  1  19   1
M  END
>  <UniqueID>  (9) 
9

>  <SMILES>  (9) 
Cc1nc(C)n(C[C@H]2CCCN2Cc2cccc[nH+]2)n1

>  <Energy>  (9) 
76.21927680033227

>  <Genealogy>  (9) 
Cc1nc(C)n(CC2CCCN2Cc2cccc[nH+]2)n1 (protonated)
Cc1nc(C)n(C[C@H]2CCCN2Cc2cccc[nH+]2)n1 (chirality)
Cc1nc(C)n(C[C@H]2CCCN2Cc2cccc[nH+]2)n1 (3D coordinates assigned)
Cc1nc(C)n(C[C@H]2CCCN2Cc2cccc[nH+]2)n1 (nonaromatic ring conformer: 76.21927680033227 kcal/mol)

>  <smiles>  (9) 
Cc1nc(C)n(CC2CCCN2Cc2ccccn2)n1

>  <score_type>  (9) 
oracle

>  <origin>  (9) 
adg

>  <m_score__min__energy>  (9) 
-7.6299999999999999

>  <m_primary>  (9) 
energy

$$$$
9:0
     RDKit          3D

 32 33  0  0  0  0  0  0  0  0999 V2000
   -8.7660   18.5490  -31.2220 C   0  0  0  0  0  0  0  0  0  0  0  0
   -7.4700   17.8900  -31.6820 C   0  0  0  0  0  0  0  0  0  0  0  0
   -7.5360   17.5990  -33.1190 N   0  0  0  0  0  0  0  0  0  0  0  0
   -6.2050   17.7110  -33.7260 C   0  0  0  0  0  0  0  0  0  0  0  0
   -5.7680   19.1770  -33.8280 C   0  0  0  0  0  0  0  0  0  0  0  0
   -6.8750   20.0650  -33.6550 O   0  0  0  0  0  0  0  0  0  0  0  0
   -6.9450   21.1430  -32.7570 C   0  0  0  0  0  0  0  0  0  0  0  0
   -8.1330   21.5130  -32.0900 C   0  0  0  0  0  0  0  0  0  0  0  0
   -8.1400   22.5940  -31.2030 C   0  0  0  0  0  0  0  0  0  0  0  0
   -6.9650   23.3210  -30.9730 C   0  0  0  0  0  0  0  0  0  0  0  0
   -6.9350   24.4070  -30.0940 C   0  0  0  0  0  0  0  0  0  0  0  0
   -5.7400   25.0980  -29.9000 C   0  0  0  0  0  0  0  0  0  0  0  0
   -4.5980   24.6840  -30.5940 C   0  0  0  0  0  0  0  0  0  0  0  0
   -3.5090   25.2940  -30.4340 O   0  0  0  0  0  0  0  0  0  0  0  0
   -4.6540   23.6460  -31.4260 O   0  0  0  0  0  0  0  0  0  0  0  0
   -5.7750   22.9600  -31.6390 C   0  0  0  0  0  0  0  0  0  0  0  0
   -5.7740   21.8770  -32.5240 C   0  0  0  0  0  0  0  0  0  0  0  0
   -8.7988   18.5657  -30.1226 H   0  0  0  0  0  0  0  0  0  0  0  0
   -8.8100   19.5789  -31.6058 H   0  0  0  0  0  0  0  0  0  0  0  0
   -9.6241   17.9778  -31.6058 H   0  0  0  0  0  0  0  0  0  0  0  0
   -6.6270   18.5690  -31.4864 H   0  0  0  0  0  0  0  0  0  0  0  0
   -7.3281   16.9493  -31.1298 H   0  0  0  0  0  0  0  0  0  0  0  0
   -8.1440   18.3310  -33.5560 H   0  0  0  0  0  0  0  0  0  0  0  0
   -5.4802   17.1620  -33.1069 H   0  0  0  0  0  0  0  0  0  0  0  0
   -6.2460   17.2867  -34.7400 H   0  0  0  0  0  0  0  0  0  0  0  0
   -5.0194   19.3823  -33.0486 H   0  0  0  0  0  0  0  0  0  0  0  0
   -5.3446   19.3429  -34.8296 H   0  0  0  0  0  0  0  0  0  0  0  0
   -9.0592   20.9472  -32.2692 H   0  0  0  0  0  0  0  0  0  0  0  0
   -9.0693   22.8738  -30.6853 H   0  0  0  0  0  0  0  0  0  0  0  0
   -7.8464   24.7138  -29.5599 H   0  0  0  0  0  0  0  0  0  0  0  0
   -5.6956   25.9552  -29.2121 H   0  0  0  0  0  0  0  0  0  0  0  0
   -4.8447   21.5985  -33.0425 H   0  0  0  0  0  0  0  0  0  0  0  0
  1  2  1  0
  2  3  1  0
  3  4  1  0
  4  5  1  0
  5  6  1  0
  6  7  1  0
  7  8  2  0
  8  9  1  0
  9 10  2  0
 10 11  1  0
 11 12  2  0
 12 13  1  0
 13 14  2  0
 13 15  1  0
 15 16  1  0
 16 17  2  0
 17  7  1  0
 16 10  1  0
  1 18  1  0
  1 19  1  0
  1 20  1  0
  2 21  1  0
  2 22  1  0
  3 23  1  0
  4 24  1  0
  4 25  1  0
  5 26  1  0
  5 27  1  0
  8 28  1  0
  9 29  1  0
 11 30  1  0
 12 31  1  0
 17 32  1  0
M  END
>  <UniqueID>  (10) 
10

>  <SMILES>  (10) 
CCNCCOc1ccc2ccc(=O)oc2c1

>  <Energy>  (10) 
31.67070382657543

>  <Genealogy>  (10) 
CCNCCOc1ccc2ccc(=O)oc2c1 (3D coordinates assigned)
CCNCCOc1ccc2ccc(=O)oc2c1 (optimized conformer: 31.67070382657543 kcal/mol)

>  <smiles>  (10) 
CCNCCOc1ccc2ccc(=O)oc2c1

>  <score_type>  (10) 
oracle

>  <origin>  (10) 
adg

>  <m_score__min__energy>  (10) 
-6.8399999999999999

>  <m_primary>  (10) 
energy

$$$$
10:0
     RDKit          3D

 51 54  0  0  0  0  0  0  0  0999 V2000
   -6.5140   23.6350  -30.8310 C   0  0  0  0  0  0  0  0  0  0  0  0
   -5.2080   24.1900  -31.2260 N   0  0  0  0  0  0  0  0  0  0  0  0
   -5.0480   25.5310  -30.6380 C   0  0  0  0  0  0  0  0  0  0  0  0
   -4.1100   23.2900  -30.8100 C   0  0  0  0  0  0  0  0  0  0  0  0
   -3.6550   22.3680  -31.9690 C   0  0  0  0  0  0  0  0  0  0  0  0
   -4.6690   22.0330  -33.0100 N   0  0  0  0  0  0  0  0  0  0  0  0
   -5.0800   20.6420  -33.0920 C   0  0  0  0  0  0  0  0  0  0  0  0
   -6.4280   20.2680  -32.8020 C   0  0  0  0  0  0  0  0  0  0  0  0
   -7.4280   21.2400  -32.5530 C   0  0  0  0  0  0  0  0  0  0  0  0
   -8.7490   20.8720  -32.3140 C   0  0  0  0  0  0  0  0  0  0  0  0
   -9.1150   19.5340  -32.3300 C   0  0  0  0  0  0  0  0  0  0  0  0
   -8.1600   18.5490  -32.5660 C   0  0  0  0  0  0  0  0  0  0  0  0
   -6.7990   18.8840  -32.7770 C   0  0  0  0  0  0  0  0  0  0  0  0
   -5.8470   17.9030  -32.9720 N   0  0  0  0  0  0  0  0  0  0  0  0
   -6.1170   16.5000  -32.6120 C   0  0  0  0  0  0  0  0  0  0  0  0
   -4.6110   18.2790  -33.4290 C   0  0  0  0  0  0  0  0  0  0  0  0
   -3.5570   17.5010  -33.8950 C   0  0  0  0  0  0  0  0  0  0  0  0
   -3.4480   16.1380  -34.2170 C   0  0  0  0  0  0  0  0  0  0  0  0
   -2.2190   15.6600  -34.6940 C   0  0  0  0  0  0  0  0  0  0  0  0
   -1.1340   16.5360  -34.8670 C   0  0  0  0  0  0  0  0  0  0  0  0
   -1.2750   17.9050  -34.5950 C   0  0  0  0  0  0  0  0  0  0  0  0
   -2.5150   18.3730  -34.1290 C   0  0  0  0  0  0  0  0  0  0  0  0
   -2.8790   19.6590  -33.8820 N   0  0  0  0  0  0  0  0  0  0  0  0
   -1.9960   20.8220  -34.0400 C   0  0  0  0  0  0  0  0  0  0  0  0
   -4.1830   19.5990  -33.4550 C   0  0  0  0  0  0  0  0  0  0  0  0
   -6.5831   23.6056  -29.7336 H   0  0  0  0  0  0  0  0  0  0  0  0
   -7.3184   24.2691  -31.2322 H   0  0  0  0  0  0  0  0  0  0  0  0
   -6.6158   22.6159  -31.2322 H   0  0  0  0  0  0  0  0  0  0  0  0
   -5.0572   25.4537  -29.5408 H   0  0  0  0  0  0  0  0  0  0  0  0
   -4.0918   25.9640  -30.9671 H   0  0  0  0  0  0  0  0  0  0  0  0
   -5.8755   26.1768  -30.9671 H   0  0  0  0  0  0  0  0  0  0  0  0
   -3.2547   23.8990  -30.4821 H   0  0  0  0  0  0  0  0  0  0  0  0
   -4.4786   22.6550  -29.9910 H   0  0  0  0  0  0  0  0  0  0  0  0
   -2.8125   22.8626  -32.4744 H   0  0  0  0  0  0  0  0  0  0  0  0
   -3.4120   21.4081  -31.4898 H   0  0  0  0  0  0  0  0  0  0  0  0
   -5.4920   22.6600  -32.9300 H   0  0  0  0  0  0  0  0  0  0  0  0
   -4.3020   22.3270  -33.9450 H   0  0  0  0  0  0  0  0  0  0  0  0
   -7.1554   22.3057  -32.5484 H   0  0  0  0  0  0  0  0  0  0  0  0
   -9.5053   21.6448  -32.1118 H   0  0  0  0  0  0  0  0  0  0  0  0
  -10.1634   19.2504  -32.1556 H   0  0  0  0  0  0  0  0  0  0  0  0
   -8.4668   17.4929  -32.5891 H   0  0  0  0  0  0  0  0  0  0  0  0
   -6.1363   16.3997  -31.5168 H   0  0  0  0  0  0  0  0  0  0  0  0
   -7.0901   16.1962  -33.0252 H   0  0  0  0  0  0  0  0  0  0  0  0
   -5.3262   15.8567  -33.0252 H   0  0  0  0  0  0  0  0  0  0  0  0
   -4.3069   15.4612  -34.0977 H   0  0  0  0  0  0  0  0  0  0  0  0
   -2.1036   14.5928  -34.9342 H   0  0  0  0  0  0  0  0  0  0  0  0
   -0.1674   16.1456  -35.2181 H   0  0  0  0  0  0  0  0  0  0  0  0
   -0.4329   18.5970  -34.7434 H   0  0  0  0  0  0  0  0  0  0  0  0
   -1.7081   21.2012  -33.0484 H   0  0  0  0  0  0  0  0  0  0  0  0
   -1.0940   20.5248  -34.5950 H   0  0  0  0  0  0  0  0  0  0  0  0
   -2.5246   21.6110  -34.5950 H   0  0  0  0  0  0  0  0  0  0  0  0
  1  2  1  0
  2  3  1  0
  2  4  1  0
  4  5  1  0
  5  6  1  0
  6  7  1  0
  7  8  2  0
  8  9  1  0
  9 10  2  0
 10 11  1  0
 11 12  2  0
 12 13  1  0
 13 14  2  0
 14 15  1  0
 14 16  1  0
 16 17  1  0
 17 18  2  0
 18 19  1  0
 19 20  2  0
 20 21  1  0
 21 22  2  0
 22 23  1  0
 23 24  1  0
 23 25  1  0
 25  7  1  0
 13  8  1  0
 25 16  2  0
 22 17  1  0
  1 26  1  0
  1 27  1  0
  1 28  1  0
  3 29  1  0
  3 30  1  0
  3 31  1  0
  4 32  1  0
  4 33  1  0
  5 34  1  0
  5 35  1  0
  6 36  1  0
  6 37  1  0
  9 38  1  0
 10 39  1  0
 11 40  1  0
 12 41  1  0
 15 42  1  0
 15 43  1  0
 15 44  1  0
 18 45  1  0
 19 46  1  0
 20 47  1  0
 21 48  1  0
 24 49  1  0
 24 50  1  0
 24 51  1  0
M  CHG  2   6   1  14   1
M  END
>  <UniqueID>  (11) 
11

>  <SMILES>  (11) 
CN(C)CC[NH2+]c1c2ccccc2[n+](C)c2c3ccccc3n(C)c12

>  <Energy>  (11) 
128.83410446696348

>  <Genealogy>  (11) 
CN(C)CC[NH2+]c1c2ccccc2[n+](C)c2c3ccccc3n(C)c12 (protonated)
CN(C)CC[NH2+]c1c2ccccc2[n+](C)c2c3ccccc3n(C)c12 (3D coordinates assigned)
CN(C)CC[NH2+]c1c2ccccc2[n+](C)c2c3ccccc3n(C)c12 (optimized conformer: 128.83410446696348 kcal/mol)

>  <smiles>  (11) 
CN(C)CCNc1c2ccccc2[n+](C)c2c3ccccc3n(C)c12

>  <score_type>  (11) 
oracle

>  <origin>  (11) 
adg

>  <m_score__min__energy>  (11) 
-8.3200000000000003

>  <m_primary>  (11) 
energy

$$$$
11:0
     RDKit          3D

 40 41  0  0  0  0  0  0  0  0999 V2000
   -9.3060   23.0750  -32.3350 C   0  0  0  0  0  0  0  0  0  0  0  0
   -8.8930   21.8340  -31.5280 C   0  0  2  0  0  0  0  0  0  0  0  0
   -8.2970   22.2360  -30.1550 C   0  0  0  0  0  0  0  0  0  0  0  0
   -7.0290   23.0510  -30.2630 C   0  0  0  0  0  0  0  0  0  0  0  0
   -5.8010   22.4220  -30.5320 C   0  0  0  0  0  0  0  0  0  0  0  0
   -4.6250   23.1760  -30.6170 C   0  0  0  0  0  0  0  0  0  0  0  0
   -4.6660   24.5610  -30.4400 C   0  0  0  0  0  0  0  0  0  0  0  0
   -3.4980   25.3080  -30.5230 O   0  0  0  0  0  0  0  0  0  0  0  0
   -5.8850   25.1960  -30.1780 C   0  0  0  0  0  0  0  0  0  0  0  0
   -7.0620   24.4460  -30.0920 C   0  0  0  0  0  0  0  0  0  0  0  0
   -7.9360   21.0100  -32.2960 N   0  0  0  0  0  0  0  0  0  0  0  0
   -8.5460   19.9080  -33.0680 C   0  0  0  0  0  0  0  0  0  0  0  0
   -8.2000   18.4800  -32.5730 C   0  0  2  0  0  0  0  0  0  0  0  0
   -8.2200   18.4280  -31.1690 O   0  0  0  0  0  0  0  0  0  0  0  0
   -6.8860   17.9680  -33.1310 C   0  0  0  0  0  0  0  0  0  0  0  0
   -6.8120   16.6630  -33.6470 C   0  0  0  0  0  0  0  0  0  0  0  0
   -5.6230   16.1930  -34.2140 C   0  0  0  0  0  0  0  0  0  0  0  0
   -4.5020   17.0240  -34.2830 C   0  0  0  0  0  0  0  0  0  0  0  0
   -4.5680   18.3290  -33.7840 C   0  0  0  0  0  0  0  0  0  0  0  0
   -3.1660   19.3800  -33.8910 Cl  0  0  0  0  0  0  0  0  0  0  0  0
   -5.7540   18.8010  -33.2120 C   0  0  0  0  0  0  0  0  0  0  0  0
   -9.5765   23.8878  -31.6449 H   0  0  0  0  0  0  0  0  0  0  0  0
   -8.4664   23.3963  -32.9688 H   0  0  0  0  0  0  0  0  0  0  0  0
  -10.1707   22.8291  -32.9688 H   0  0  0  0  0  0  0  0  0  0  0  0
   -9.7946   21.2323  -31.3404 H   0  0  0  0  0  0  0  0  0  0  0  0
   -9.0465   22.8289  -29.6103 H   0  0  0  0  0  0  0  0  0  0  0  0
   -8.0390   21.3048  -29.6294 H   0  0  0  0  0  0  0  0  0  0  0  0
   -5.7642   21.3321  -30.6764 H   0  0  0  0  0  0  0  0  0  0  0  0
   -3.6667   22.6771  -30.8236 H   0  0  0  0  0  0  0  0  0  0  0  0
   -5.9174   26.2868  -30.0395 H   0  0  0  0  0  0  0  0  0  0  0  0
   -8.0185   24.9500  -29.8895 H   0  0  0  0  0  0  0  0  0  0  0  0
   -7.1860   20.6300  -31.6780 H   0  0  0  0  0  0  0  0  0  0  0  0
   -9.6387   20.0271  -33.0245 H   0  0  0  0  0  0  0  0  0  0  0  0
   -8.1338   19.9851  -34.0849 H   0  0  0  0  0  0  0  0  0  0  0  0
   -8.9777   17.8044  -32.9588 H   0  0  0  0  0  0  0  0  0  0  0  0
   -8.1680   19.3650  -30.8450 H   0  0  0  0  0  0  0  0  0  0  0  0
   -7.6943   16.0074  -33.6047 H   0  0  0  0  0  0  0  0  0  0  0  0
   -5.5703   15.1668  -34.6065 H   0  0  0  0  0  0  0  0  0  0  0  0
   -3.5680   16.6522  -34.7295 H   0  0  0  0  0  0  0  0  0  0  0  0
   -5.8024   19.8289  -32.8233 H   0  0  0  0  0  0  0  0  0  0  0  0
  1  2  1  0
  2  3  1  0
  3  4  1  0
  4  5  2  0
  5  6  1  0
  6  7  2  0
  7  8  1  0
  7  9  1  0
  9 10  2  0
  2 11  1  0
 11 12  1  0
 12 13  1  0
 13 14  1  0
 13 15  1  0
 15 16  2  0
 16 17  1  0
 17 18  2  0
 18 19  1  0
 19 20  1  0
 19 21  2  0
 10  4  1  0
 21 15  1  0
  1 22  1  0
  1 23  1  0
  1 24  1  0
  2 25  1  1
  3 26  1  0
  3 27  1  0
  5 28  1  0
  6 29  1  0
  9 30  1  0
 10 31  1  0
 11 32  1  0
 12 33  1  0
 12 34  1  0
 13 35  1  6
 14 36  1  0
 16 37  1  0
 17 38  1  0
 18 39  1  0
 21 40  1  0
M  CHG  1   8  -1
M  END
>  <UniqueID>  (12) 
12

>  <SMILES>  (12) 
C[C@H](Cc1ccc([O-])cc1)NC[C@H](O)c1cccc(Cl)c1

>  <Energy>  (12) 
41.142630247188464

>  <Genealogy>  (12) 
CC(Cc1ccc([O-])cc1)NCC(O)c1cccc(Cl)c1 (protonated)
C[C@H](Cc1ccc([O-])cc1)NC[C@H](O)c1cccc(Cl)c1 (chirality)
C[C@H](Cc1ccc([O-])cc1)NC[C@H](O)c1cccc(Cl)c1 (3D coordinates assigned)
C[C@H](Cc1ccc([O-])cc1)NC[C@H](O)c1cccc(Cl)c1 (optimized conformer: 41.142630247188464 kcal/mol)

>  <smiles>  (12) 
CC(Cc1ccc(O)cc1)NCC(O)c1cccc(Cl)c1

>  <score_type>  (12) 
oracle

>  <origin>  (12) 
adg

>  <m_score__min__energy>  (12) 
-10.49

>  <m_primary>  (12) 
energy

$$$$
12:0
     RDKit          3D

 41 44  0  0  0  0  0  0  0  0999 V2000
   -3.8750   15.0050  -34.5170 C   0  0  0  0  0  0  0  0  0  0  0  0
   -4.9980   15.9440  -34.2370 C   0  0  0  0  0  0  0  0  0  0  0  0
   -6.1620   15.5630  -33.6670 N   0  0  0  0  0  0  0  0  0  0  0  0
   -6.8580   16.7130  -33.5800 C   0  0  0  0  0  0  0  0  0  0  0  0
   -6.0910   17.7340  -34.0930 C   0  0  0  0  0  0  0  0  0  0  0  0
   -6.4570   19.1810  -34.1660 C   0  0  0  0  0  0  0  0  0  0  0  0
   -5.3710   19.9940  -33.6230 N   0  0  0  0  0  0  0  0  0  0  0  0
   -4.0840   19.6910  -33.7330 N   0  0  0  0  0  0  0  0  0  0  0  0
   -3.3570   20.5890  -33.0350 C   0  0  0  0  0  0  0  0  0  0  0  0
   -4.2330   21.4780  -32.4460 C   0  0  0  0  0  0  0  0  0  0  0  0
   -5.4830   21.0920  -32.8490 C   0  0  0  0  0  0  0  0  0  0  0  0
   -6.7340   21.7410  -32.3420 C   0  0  0  0  0  0  0  0  0  0  0  0
   -6.3860   23.1160  -31.7320 C   0  0  0  0  0  0  0  0  0  0  0  0
   -5.2120   23.0120  -30.8330 N   0  0  0  0  0  0  0  0  0  0  0  0
   -4.9850   24.5070  -29.9450 S   0  0  0  0  0  0  0  0  0  0  0  0
   -3.8640   25.3040  -30.5530 O   0  0  0  0  0  0  0  0  0  0  0  0
   -6.2360   25.3430  -29.9880 O   0  0  0  0  0  0  0  0  0  0  0  0
   -4.5390   24.1870  -28.2360 C   0  0  0  0  0  0  0  0  0  0  0  0
   -3.8600   22.8470  -27.9980 C   0  0  0  0  0  0  0  0  0  0  0  0
   -3.0500   24.1310  -27.9260 C   0  0  0  0  0  0  0  0  0  0  0  0
   -3.9820   22.6730  -31.5860 C   0  0  0  0  0  0  0  0  0  0  0  0
   -4.9470   17.2340  -34.4850 O   0  0  0  0  0  0  0  0  0  0  0  0
   -3.4492   14.6490  -33.5673 H   0  0  0  0  0  0  0  0  0  0  0  0
   -4.2496   14.1475  -35.0952 H   0  0  0  0  0  0  0  0  0  0  0  0
   -3.0973   15.5255  -35.0952 H   0  0  0  0  0  0  0  0  0  0  0  0
   -7.8721   16.8186  -33.1671 H   0  0  0  0  0  0  0  0  0  0  0  0
   -6.6332   19.4607  -35.2152 H   0  0  0  0  0  0  0  0  0  0  0  0
   -7.3701   19.3549  -33.5778 H   0  0  0  0  0  0  0  0  0  0  0  0
   -3.7050   18.8730  -34.2620 H   0  0  0  0  0  0  0  0  0  0  0  0
   -2.2604   20.6087  -32.9506 H   0  0  0  0  0  0  0  0  0  0  0  0
   -7.4405   21.8766  -33.1741 H   0  0  0  0  0  0  0  0  0  0  0  0
   -7.1938   21.1030  -31.5729 H   0  0  0  0  0  0  0  0  0  0  0  0
   -6.1573   23.8228  -32.5433 H   0  0  0  0  0  0  0  0  0  0  0  0
   -7.2475   23.4699  -31.1468 H   0  0  0  0  0  0  0  0  0  0  0  0
   -5.3957   24.7256  -27.8049 H   0  0  0  0  0  0  0  0  0  0  0  0
   -4.0720   22.2785  -27.0805 H   0  0  0  0  0  0  0  0  0  0  0  0
   -3.7774   21.9063  -28.5621 H   0  0  0  0  0  0  0  0  0  0  0  0
   -2.6761   24.4918  -26.9564 H   0  0  0  0  0  0  0  0  0  0  0  0
   -2.1389   24.5044  -28.4163 H   0  0  0  0  0  0  0  0  0  0  0  0
   -3.6939   23.5253  -32.2190 H   0  0  0  0  0  0  0  0  0  0  0  0
   -3.1708   22.4488  -30.8777 H   0  0  0  0  0  0  0  0  0  0  0  0
  1  2  1  0
  2  3  2  0
  3  4  1  0
  4  5  2  0
  5  6  1  0
  6  7  1  0
  7  8  1  0
  8  9  2  0
  9 10  1  0
 10 11  2  0
 11 12  1  0
 12 13  1  0
 13 14  1  0
 14 15  1  0
 15 16  2  0
 15 17  2  0
 15 18  1  0
 18 19  1  0
 19 20  1  0
 14 21  1  0
  5 22  1  0
 22  2  1  0
 11  7  1  0
 20 18  1  0
 21 10  1  0
  1 23  1  0
  1 24  1  0
  1 25  1  0
  4 26  1  0
  6 27  1  0
  6 28  1  0
  8 29  1  0
  9 30  1  0
 12 31  1  0
 12 32  1  0
 13 33  1  0
 13 34  1  0
 18 35  1  0
 19 36  1  0
 19 37  1  0
 20 38  1  0
 20 39  1  0
 21 40  1  0
 21 41  1  0
M  CHG  1   8   1
M  END
>  <UniqueID>  (13) 
13

>  <SMILES>  (13) 
Cc1ncc(Cn2[nH+]cc3c2CCN(S(=O)(=O)C2CC2)C3)o1

>  <Energy>  (13) 
365.52245910087356

>  <Genealogy>  (13) 
Cc1ncc(Cn2[nH+]cc3c2CCN(S(=O)(=O)C2CC2)C3)o1 (protonated)
Cc1ncc(Cn2[nH+]cc3c2CCN(S(=O)(=O)C2CC2)C3)o1 (3D coordinates assigned)
Cc1ncc(Cn2[nH+]cc3c2CCN(S(=O)(=O)C2CC2)C3)o1 (nonaromatic ring conformer: 365.52245910087356 kcal/mol)

>  <smiles>  (13) 
Cc1ncc(Cn2ncc3c2CCN(S(=O)(=O)C2CC2)C3)o1

>  <score_type>  (13) 
oracle

>  <origin>  (13) 
adg

>  <m_score__min__energy>  (13) 
-8.4000000000000004

>  <m_primary>  (13) 
energy

$$$$
13:0
     RDKit          3D

 55 58  0  0  0  0  0  0  0  0999 V2000
   -3.5870   20.4260  -30.7480 C   0  0  0  0  0  0  0  0  0  0  0  0
   -3.5170   19.7100  -31.9750 O   0  0  0  0  0  0  0  0  0  0  0  0
   -2.4440   19.8220  -32.8740 C   0  0  0  0  0  0  0  0  0  0  0  0
   -1.8920   21.0770  -33.2110 C   0  0  0  0  0  0  0  0  0  0  0  0
   -2.3860   22.2230  -32.6850 F   0  0  0  0  0  0  0  0  0  0  0  0
   -0.8440   21.1590  -34.1330 C   0  0  0  0  0  0  0  0  0  0  0  0
   -0.3470   20.0050  -34.7380 C   0  0  0  0  0  0  0  0  0  0  0  0
   -0.8870   18.7590  -34.4160 C   0  0  0  0  0  0  0  0  0  0  0  0
   -1.9320   18.6540  -33.4820 C   0  0  0  0  0  0  0  0  0  0  0  0
   -2.4600   17.2960  -33.0870 C   0  0  0  0  0  0  0  0  0  0  0  0
   -2.8650   16.5450  -34.2830 N   0  0  0  0  0  0  0  0  0  0  0  0
   -3.7660   17.3420  -35.1300 C   0  0  0  0  0  0  0  0  0  0  0  0
   -4.9840   17.7660  -34.3510 C   0  0  0  0  0  0  0  0  0  0  0  0
   -5.6940   16.8250  -33.5570 C   0  0  0  0  0  0  0  0  0  0  0  0
   -6.8020   17.2260  -32.7860 C   0  0  0  0  0  0  0  0  0  0  0  0
   -7.1730   18.5700  -32.8330 C   0  0  0  0  0  0  0  0  0  0  0  0
   -6.4910   19.4810  -33.5990 C   0  0  0  0  0  0  0  0  0  0  0  0
   -5.3930   19.1200  -34.3700 C   0  0  0  0  0  0  0  0  0  0  0  0
   -7.0170   20.7030  -33.4210 N   0  0  0  0  0  0  0  0  0  0  0  0
   -8.0370   20.5040  -32.5530 C   0  0  0  0  0  0  0  0  0  0  0  0
   -9.0640   21.8340  -31.9280 S   0  0  0  0  0  0  0  0  0  0  0  0
   -8.1950   21.9650  -30.3220 C   0  0  0  0  0  0  0  0  0  0  0  0
   -7.0610   22.9430  -30.4470 C   0  0  0  0  0  0  0  0  0  0  0  0
   -7.1790   24.2490  -29.9420 C   0  0  0  0  0  0  0  0  0  0  0  0
   -6.1220   25.1550  -30.0800 C   0  0  0  0  0  0  0  0  0  0  0  0
   -4.9450   24.7680  -30.7330 C   0  0  0  0  0  0  0  0  0  0  0  0
   -3.9190   25.6440  -30.8590 F   0  0  0  0  0  0  0  0  0  0  0  0
   -4.8210   23.4700  -31.2420 C   0  0  0  0  0  0  0  0  0  0  0  0
   -5.8750   22.5610  -31.1070 C   0  0  0  0  0  0  0  0  0  0  0  0
   -8.1640   19.2000  -32.1780 N   0  0  0  0  0  0  0  0  0  0  0  0
   -9.1100   18.6260  -31.2210 C   0  0  0  0  0  0  0  0  0  0  0  0
   -3.5180   19.7202  -29.9071 H   0  0  0  0  0  0  0  0  0  0  0  0
   -2.7547   21.1432  -30.6940 H   0  0  0  0  0  0  0  0  0  0  0  0
   -4.5425   20.9684  -30.6940 H   0  0  0  0  0  0  0  0  0  0  0  0
   -0.4095   22.1383  -34.3823 H   0  0  0  0  0  0  0  0  0  0  0  0
    0.4713   20.0769  -35.4696 H   0  0  0  0  0  0  0  0  0  0  0  0
   -0.4917   17.8521  -34.8969 H   0  0  0  0  0  0  0  0  0  0  0  0
   -1.6729   16.7395  -32.5571 H   0  0  0  0  0  0  0  0  0  0  0  0
   -3.3329   17.4259  -32.4304 H   0  0  0  0  0  0  0  0  0  0  0  0
   -3.3990   15.7040  -33.9610 H   0  0  0  0  0  0  0  0  0  0  0  0
   -3.2330   18.2368  -35.4840 H   0  0  0  0  0  0  0  0  0  0  0  0
   -4.0861   16.7285  -35.9851 H   0  0  0  0  0  0  0  0  0  0  0  0
   -5.3746   15.7725  -33.5446 H   0  0  0  0  0  0  0  0  0  0  0  0
   -7.3560   16.5042  -32.1678 H   0  0  0  0  0  0  0  0  0  0  0  0
   -4.8577   19.8649  -34.9771 H   0  0  0  0  0  0  0  0  0  0  0  0
   -6.7210   21.6040  -33.8750 H   0  0  0  0  0  0  0  0  0  0  0  0
   -8.8981   22.3146  -29.5516 H   0  0  0  0  0  0  0  0  0  0  0  0
   -7.8002   20.9789  -30.0361 H   0  0  0  0  0  0  0  0  0  0  0  0
   -8.1053   24.5599  -29.4367 H   0  0  0  0  0  0  0  0  0  0  0  0
   -6.2155   26.1734  -29.6748 H   0  0  0  0  0  0  0  0  0  0  0  0
   -3.8936   23.1647  -31.7487 H   0  0  0  0  0  0  0  0  0  0  0  0
   -5.7786   21.5448  -31.5170 H   0  0  0  0  0  0  0  0  0  0  0  0
   -8.7671   18.8341  -30.1967 H   0  0  0  0  0  0  0  0  0  0  0  0
  -10.1030   19.0740  -31.3734 H   0  0  0  0  0  0  0  0  0  0  0  0
   -9.1712   17.5383  -31.3734 H   0  0  0  0  0  0  0  0  0  0  0  0
  1  2  1  0
  2  3  1  0
  3  4  2  0
  4  5  1  0
  4  6  1  0
  6  7  2  0
  7  8  1  0
  8  9  2  0
  9 10  1  0
 10 11  1  0
 11 12  1  0
 12 13  1  0
 13 14  2  0
 14 15  1  0
 15 16  2  0
 16 17  1  0
 17 18  2  0
 17 19  1  0
 19 20  2  0
 20 21  1  0
 21 22  1  0
 22 23  1  0
 23 24  2  0
 24 25  1  0
 25 26  2  0
 26 27  1  0
 26 28  1  0
 28 29  2  0
 20 30  1  0
 30 31  1  0
  9  3  1  0
 18 13  1  0
 29 23  1  0
 30 16  1  0
  1 32  1  0
  1 33  1  0
  1 34  1  0
  6 35  1  0
  7 36  1  0
  8 37  1  0
 10 38  1  0
 10 39  1  0
 11 40  1  0
 12 41  1  0
 12 42  1  0
 14 43  1  0
 15 44  1  0
 18 45  1  0
 19 46  1  0
 22 47  1  0
 22 48  1  0
 24 49  1  0
 25 50  1  0
 28 51  1  0
 29 52  1  0
 31 53  1  0
 31 54  1  0
 31 55  1  0
M  CHG  1  19   1
M  END
>  <UniqueID>  (14) 
14

>  <SMILES>  (14) 
COc1c(F)cccc1CNCc1ccc2c(c1)[nH+]c(SCc1ccc(F)cc1)n2C

>  <Energy>  (14) 
97.1975816118674

>  <Genealogy>  (14) 
COc1c(F)cccc1CNCc1ccc2c(c1)[nH+]c(SCc1ccc(F)cc1)n2C (protonated)
COc1c(F)cccc1CNCc1ccc2c(c1)[nH+]c(SCc1ccc(F)cc1)n2C (3D coordinates assigned)
COc1c(F)cccc1CNCc1ccc2c(c1)[nH+]c(SCc1ccc(F)cc1)n2C (optimized conformer: 97.1975816118674 kcal/mol)

>  <smiles>  (14) 
COc1c(F)cccc1CNCc1ccc2c(c1)nc(SCc1ccc(F)cc1)n2C

>  <score_type>  (14) 
oracle

>  <origin>  (14) 
adg

>  <m_score__min__energy>  (14) 
-9.3599999999999994

>  <m_primary>  (14) 
energy

$$$$
14:0
     RDKit          3D

 54 56  0  0  0  0  0  0  0  0999 V2000
   -8.5980   21.4840  -31.3000 C   0  0  0  0  0  0  0  0  0  0  0  0
   -8.9550   20.4720  -32.3970 C   0  0  0  0  0  0  0  0  0  0  0  0
   -7.7790   19.6640  -32.8200 N   0  0  0  0  0  0  0  0  0  0  0  0
   -7.9320   18.2540  -32.3660 C   0  0  0  0  0  0  0  0  0  0  0  0
   -6.7500   17.7920  -31.5050 C   0  0  0  0  0  0  0  0  0  0  0  0
   -6.5260   20.2490  -32.2710 C   0  0  0  0  0  0  0  0  0  0  0  0
   -5.3540   20.1380  -33.2580 C   0  0  0  0  0  0  0  0  0  0  0  0
   -4.5480   21.3570  -33.2250 N   0  0  0  0  0  0  0  0  0  0  0  0
   -4.0310   21.8580  -31.9850 C   0  0  0  0  0  0  0  0  0  0  0  0
   -4.7590   22.8430  -31.2960 C   0  0  0  0  0  0  0  0  0  0  0  0
   -5.8010   23.5500  -31.9360 C   0  0  0  0  0  0  0  0  0  0  0  0
   -6.4930   24.5560  -31.2660 C   0  0  0  0  0  0  0  0  0  0  0  0
   -6.1530   24.8830  -29.9590 C   0  0  0  0  0  0  0  0  0  0  0  0
   -5.1380   24.1870  -29.3040 C   0  0  0  0  0  0  0  0  0  0  0  0
   -4.4440   23.1300  -29.9470 C   0  0  0  0  0  0  0  0  0  0  0  0
   -3.4890   22.3800  -29.2920 N   0  0  0  0  0  0  0  0  0  0  0  0
   -3.4050   22.4260  -27.8150 C   0  0  0  0  0  0  0  0  0  0  0  0
   -2.6250   21.5750  -30.0140 C   0  0  0  0  0  0  0  0  0  0  0  0
   -1.4790   21.0110  -29.4080 C   0  0  0  0  0  0  0  0  0  0  0  0
   -0.6260   20.1730  -30.1100 C   0  0  0  0  0  0  0  0  0  0  0  0
   -0.8390   19.9140  -31.4660 C   0  0  0  0  0  0  0  0  0  0  0  0
    0.0350   19.0960  -32.2030 O   0  0  0  0  0  0  0  0  0  0  0  0
    1.4390   19.0010  -31.9840 C   0  0  0  0  0  0  0  0  0  0  0  0
   -1.9350   20.5000  -32.1220 C   0  0  0  0  0  0  0  0  0  0  0  0
   -1.9440   20.2870  -34.0410 Br  0  0  0  0  0  0  0  0  0  0  0  0
   -2.8680   21.3050  -31.3950 C   0  0  0  0  0  0  0  0  0  0  0  0
   -8.7593   21.0267  -30.3127 H   0  0  0  0  0  0  0  0  0  0  0  0
   -7.5424   21.7766  -31.4005 H   0  0  0  0  0  0  0  0  0  0  0  0
   -9.2364   22.3742  -31.4005 H   0  0  0  0  0  0  0  0  0  0  0  0
   -9.7318   19.7937  -32.0142 H   0  0  0  0  0  0  0  0  0  0  0  0
   -9.3112   21.0344  -33.2727 H   0  0  0  0  0  0  0  0  0  0  0  0
   -7.7250   19.6750  -33.8680 H   0  0  0  0  0  0  0  0  0  0  0  0
   -8.8555   18.1704  -31.7743 H   0  0  0  0  0  0  0  0  0  0  0  0
   -7.9702   17.6134  -33.2594 H   0  0  0  0  0  0  0  0  0  0  0  0
   -7.0097   17.8935  -30.4409 H   0  0  0  0  0  0  0  0  0  0  0  0
   -6.5232   16.7390  -31.7282 H   0  0  0  0  0  0  0  0  0  0  0  0
   -5.8693   18.4121  -31.7282 H   0  0  0  0  0  0  0  0  0  0  0  0
   -6.7000   21.3115  -32.0454 H   0  0  0  0  0  0  0  0  0  0  0  0
   -6.2590   19.6863  -31.3643 H   0  0  0  0  0  0  0  0  0  0  0  0
   -4.7253   19.2792  -32.9801 H   0  0  0  0  0  0  0  0  0  0  0  0
   -5.7526   19.9991  -34.2738 H   0  0  0  0  0  0  0  0  0  0  0  0
   -4.5760   21.9960  -34.0520 H   0  0  0  0  0  0  0  0  0  0  0  0
   -6.0686   23.3035  -32.9741 H   0  0  0  0  0  0  0  0  0  0  0  0
   -7.3094   25.0921  -31.7720 H   0  0  0  0  0  0  0  0  0  0  0  0
   -6.6861   25.6931  -29.4398 H   0  0  0  0  0  0  0  0  0  0  0  0
   -4.8712   24.4617  -28.2728 H   0  0  0  0  0  0  0  0  0  0  0  0
   -4.2919   21.9403  -27.3820 H   0  0  0  0  0  0  0  0  0  0  0  0
   -2.4989   21.8982  -27.4827 H   0  0  0  0  0  0  0  0  0  0  0  0
   -3.3617   23.4737  -27.4827 H   0  0  0  0  0  0  0  0  0  0  0  0
   -1.2589   21.2423  -28.3553 H   0  0  0  0  0  0  0  0  0  0  0  0
    0.2268   19.7076  -29.5940 H   0  0  0  0  0  0  0  0  0  0  0  0
    1.6414   18.9873  -30.9029 H   0  0  0  0  0  0  0  0  0  0  0  0
    1.8194   18.0751  -32.4400 H   0  0  0  0  0  0  0  0  0  0  0  0
    1.9407   19.8673  -32.4400 H   0  0  0  0  0  0  0  0  0  0  0  0
  1  2  1  0
  2  3  1  0
  3  4  1  0
  4  5  1  0
  3  6  1  0
  6  7  1  0
  7  8  1  0
  8  9  1  0
  9 10  2  0
 10 11  1  0
 11 12  2  0
 12 13  1  0
 13 14  2  0
 14 15  1  0
 15 16  2  0
 16 17  1  0
 16 18  1  0
 18 19  2  0
 19 20  1  0
 20 21  2  0
 21 22  1  0
 22 23  1  0
 21 24  1  0
 24 25  1  0
 24 26  2  0
 26  9  1  0
 15 10  1  0
 26 18  1  0
  1 27  1  0
  1 28  1  0
  1 29  1  0
  2 30  1  0
  2 31  1  0
  3 32  1  0
  4 33  1  0
  4 34  1  0
  5 35  1  0
  5 36  1  0
  5 37  1  0
  6 38  1  0
  6 39  1  0
  7 40  1  0
  7 41  1  0
  8 42  1  0
 11 43  1  0
 12 44  1  0
 13 45  1  0
 14 46  1  0
 17 47  1  0
 17 48  1  0
 17 49  1  0
 19 50  1  0
 20 51  1  0
 23 52  1  0
 23 53  1  0
 23 54  1  0
M  CHG  2   3   1  16   1
M  END
>  <UniqueID>  (15) 
15

>  <SMILES>  (15) 
CC[NH+](CC)CCNc1c2ccccc2[n+](C)c2ccc(OC)c(Br)c12

>  <Energy>  (15) 
91.9966080643193

>  <Genealogy>  (15) 
CC[NH+](CC)CCNc1c2ccccc2[n+](C)c2ccc(OC)c(Br)c12 (protonated)
CC[NH+](CC)CCNc1c2ccccc2[n+](C)c2ccc(OC)c(Br)c12 (3D coordinates assigned)
CC[NH+](CC)CCNc1c2ccccc2[n+](C)c2ccc(OC)c(Br)c12 (optimized conformer: 91.9966080643193 kcal/mol)

>  <smiles>  (15) 
CCN(CC)CCNc1c2ccccc2[n+](C)c2ccc(OC)c(Br)c12

>  <score_type>  (15) 
oracle

>  <origin>  (15) 
adg

>  <m_score__min__energy>  (15) 
-6.9800000000000004

>  <m_primary>  (15) 
energy

$$$$
15:0
     RDKit          3D

 34 35  0  0  0  0  0  0  0  0999 V2000
   -1.6510   25.1710  -28.1990 C   0  0  0  0  0  0  0  0  0  0  0  0
   -2.4920   25.2960  -29.3410 O   0  0  0  0  0  0  0  0  0  0  0  0
   -3.3840   24.3070  -29.7800 C   0  0  0  0  0  0  0  0  0  0  0  0
   -3.1530   22.9340  -29.5660 C   0  0  0  0  0  0  0  0  0  0  0  0
   -4.0710   21.9830  -30.0210 C   0  0  0  0  0  0  0  0  0  0  0  0
   -5.2320   22.3860  -30.6960 C   0  0  0  0  0  0  0  0  0  0  0  0
   -6.1560   21.4380  -31.1570 C   0  0  0  0  0  0  0  0  0  0  0  0
   -7.3140   21.8460  -31.8400 C   0  0  0  0  0  0  0  0  0  0  0  0
   -8.3090   20.8180  -32.3430 C   0  0  0  0  0  0  0  0  0  0  0  0
   -7.6850   19.6600  -33.0280 N   0  0  0  0  0  0  0  0  0  0  0  0
   -6.4970   20.0450  -33.8130 C   0  0  0  0  0  0  0  0  0  0  0  0
   -7.3630   18.5630  -32.1000 C   0  0  0  0  0  0  0  0  0  0  0  0
   -7.5470   23.2160  -32.0440 C   0  0  0  0  0  0  0  0  0  0  0  0
   -6.6310   24.1680  -31.5870 C   0  0  0  0  0  0  0  0  0  0  0  0
   -5.4700   23.7630  -30.9140 C   0  0  0  0  0  0  0  0  0  0  0  0
   -4.5430   24.7110  -30.4540 C   0  0  0  0  0  0  0  0  0  0  0  0
   -2.2572   25.2611  -27.2856 H   0  0  0  0  0  0  0  0  0  0  0  0
   -1.1550   24.1893  -28.2146 H   0  0  0  0  0  0  0  0  0  0  0  0
   -0.8910   25.9660  -28.2146 H   0  0  0  0  0  0  0  0  0  0  0  0
   -2.2448   22.6082  -29.0377 H   0  0  0  0  0  0  0  0  0  0  0  0
   -3.8816   20.9132  -29.8486 H   0  0  0  0  0  0  0  0  0  0  0  0
   -5.9732   20.3674  -30.9828 H   0  0  0  0  0  0  0  0  0  0  0  0
   -8.8835   20.4429  -31.4832 H   0  0  0  0  0  0  0  0  0  0  0  0
   -8.9419   21.3246  -33.0865 H   0  0  0  0  0  0  0  0  0  0  0  0
   -8.3940   19.2920  -33.7070 H   0  0  0  0  0  0  0  0  0  0  0  0
   -5.6767   20.3109  -33.1301 H   0  0  0  0  0  0  0  0  0  0  0  0
   -6.1873   19.2012  -34.4472 H   0  0  0  0  0  0  0  0  0  0  0  0
   -6.7411   20.9100  -34.4472 H   0  0  0  0  0  0  0  0  0  0  0  0
   -7.4669   18.9170  -31.0637 H   0  0  0  0  0  0  0  0  0  0  0  0
   -8.0526   17.7233  -32.2715 H   0  0  0  0  0  0  0  0  0  0  0  0
   -6.3290   18.2292  -32.2715 H   0  0  0  0  0  0  0  0  0  0  0  0
   -8.4576   23.5425  -32.5676 H   0  0  0  0  0  0  0  0  0  0  0  0
   -6.8219   25.2380  -31.7560 H   0  0  0  0  0  0  0  0  0  0  0  0
   -4.7287   25.7817  -30.6246 H   0  0  0  0  0  0  0  0  0  0  0  0
  1  2  1  0
  2  3  1  0
  3  4  2  0
  4  5  1  0
  5  6  2  0
  6  7  1  0
  7  8  2  0
  8  9  1  0
  9 10  1  0
 10 11  1  0
 10 12  1  0
  8 13  1  0
 13 14  2  0
 14 15  1  0
 15 16  2  0
 16  3  1  0
 15  6  1  0
  1 17  1  0
  1 18  1  0
  1 19  1  0
  4 20  1  0
  5 21  1  0
  7 22  1  0
  9 23  1  0
  9 24  1  0
 10 25  1  0
 11 26  1  0
 11 27  1  0
 11 28  1  0
 12 29  1  0
 12 30  1  0
 12 31  1  0
 13 32  1  0
 14 33  1  0
 16 34  1  0
M  CHG  1  10   1
M  END
>  <UniqueID>  (16) 
16

>  <SMILES>  (16) 
COc1ccc2cc(C[NH+](C)C)ccc2c1

>  <Energy>  (16) 
37.985550422152706

>  <Genealogy>  (16) 
COc1ccc2cc(C[NH+](C)C)ccc2c1 (protonated)
COc1ccc2cc(C[NH+](C)C)ccc2c1 (3D coordinates assigned)
COc1ccc2cc(C[NH+](C)C)ccc2c1 (optimized conformer: 37.985550422152706 kcal/mol)

>  <smiles>  (16) 
COc1ccc2cc(CN(C)C)ccc2c1

>  <score_type>  (16) 
oracle

>  <origin>  (16) 
adg

>  <m_score__min__energy>  (16) 
-6.3899999999999997

>  <m_primary>  (16) 
energy

$$$$
16:0
     RDKit          3D

 38 39  0  0  0  0  0  0  0  0999 V2000
   -3.4310   18.9220  -26.3550 C   0  0  0  0  0  0  0  0  0  0  0  0
   -2.0960   19.6000  -26.6660 C   0  0  0  0  0  0  0  0  0  0  0  0
   -2.0420   20.0270  -28.0290 O   0  0  0  0  0  0  0  0  0  0  0  0
   -2.7550   21.1040  -28.5780 C   0  0  0  0  0  0  0  0  0  0  0  0
   -3.4540   22.0390  -27.7880 C   0  0  0  0  0  0  0  0  0  0  0  0
   -4.1300   23.1040  -28.3910 C   0  0  0  0  0  0  0  0  0  0  0  0
   -4.1210   23.2480  -29.7830 C   0  0  0  0  0  0  0  0  0  0  0  0
   -4.9100   24.6400  -30.5160 S   0  0  0  0  0  0  0  0  0  0  0  0
   -3.8620   25.6560  -30.8670 O   0  0  0  0  0  0  0  0  0  0  0  0
   -5.8960   25.2580  -29.5680 O   0  0  0  0  0  0  0  0  0  0  0  0
   -5.7430   24.1500  -31.9600 N   0  0  0  0  0  0  0  0  0  0  0  0
   -6.5190   22.9490  -32.0870 C   0  0  0  0  0  0  0  0  0  0  0  0
   -7.8880   22.9990  -31.8050 C   0  0  0  0  0  0  0  0  0  0  0  0
   -8.6810   21.8530  -31.9140 C   0  0  0  0  0  0  0  0  0  0  0  0
   -8.1130   20.6240  -32.3000 C   0  0  0  0  0  0  0  0  0  0  0  0
   -8.9350   19.3870  -32.4000 C   0  0  0  0  0  0  0  0  0  0  0  0
   -8.6300   18.1660  -31.5830 C   0  0  0  0  0  0  0  0  0  0  0  0
   -9.9030   19.3420  -33.2070 O   0  0  0  0  0  0  0  0  0  0  0  0
   -6.7340   20.5790  -32.5800 C   0  0  0  0  0  0  0  0  0  0  0  0
   -5.9450   21.7240  -32.4720 C   0  0  0  0  0  0  0  0  0  0  0  0
   -3.4460   22.3060  -30.5720 C   0  0  0  0  0  0  0  0  0  0  0  0
   -2.7690   21.2430  -29.9700 C   0  0  0  0  0  0  0  0  0  0  0  0
   -3.5630   18.8549  -25.2650 H   0  0  0  0  0  0  0  0  0  0  0  0
   -4.2518   19.5125  -26.7881 H   0  0  0  0  0  0  0  0  0  0  0  0
   -3.4384   17.9109  -26.7881 H   0  0  0  0  0  0  0  0  0  0  0  0
   -1.9758   20.4749  -26.0102 H   0  0  0  0  0  0  0  0  0  0  0  0
   -1.2870   18.8747  -26.4943 H   0  0  0  0  0  0  0  0  0  0  0  0
   -3.4677   21.9304  -26.6935 H   0  0  0  0  0  0  0  0  0  0  0  0
   -4.6712   23.8318  -27.7686 H   0  0  0  0  0  0  0  0  0  0  0  0
   -8.3454   23.9499  -31.4942 H   0  0  0  0  0  0  0  0  0  0  0  0
   -9.7576   21.9119  -31.6964 H   0  0  0  0  0  0  0  0  0  0  0  0
   -8.6923   18.4155  -30.5135 H   0  0  0  0  0  0  0  0  0  0  0  0
   -9.3584   17.3760  -31.8183 H   0  0  0  0  0  0  0  0  0  0  0  0
   -7.6157   17.8114  -31.8183 H   0  0  0  0  0  0  0  0  0  0  0  0
   -6.2730   19.6289  -32.8878 H   0  0  0  0  0  0  0  0  0  0  0  0
   -4.8680   21.6687  -32.6891 H   0  0  0  0  0  0  0  0  0  0  0  0
   -3.4496   22.4043  -31.6676 H   0  0  0  0  0  0  0  0  0  0  0  0
   -2.2419   20.5082  -30.5963 H   0  0  0  0  0  0  0  0  0  0  0  0
  1  2  1  0
  2  3  1  0
  3  4  1  0
  4  5  2  0
  5  6  1  0
  6  7  2  0
  7  8  1  0
  8  9  2  0
  8 10  2  0
  8 11  1  0
 11 12  1  0
 12 13  2  0
 13 14  1  0
 14 15  2  0
 15 16  1  0
 16 17  1  0
 16 18  2  0
 15 19  1  0
 19 20  2  0
  7 21  1  0
 21 22  2  0
 22  4  1  0
 20 12  1  0
  1 23  1  0
  1 24  1  0
  1 25  1  0
  2 26  1  0
  2 27  1  0
  5 28  1  0
  6 29  1  0
 13 30  1  0
 14 31  1  0
 17 32  1  0
 17 33  1  0
 17 34  1  0
 19 35  1  0
 20 36  1  0
 21 37  1  0
 22 38  1  0
M  CHG  1  11  -1
M  END
>  <UniqueID>  (17) 
17

>  <SMILES>  (17) 
CCOc1ccc(S(=O)(=O)[N-]c2ccc(C(C)=O)cc2)cc1

>  <Energy>  (17) 
39.825102069849656

>  <Genealogy>  (17) 
CCOc1ccc(S(=O)(=O)[N-]c2ccc(C(C)=O)cc2)cc1 (protonated)
CCOc1ccc(S(=O)(=O)[N-]c2ccc(C(C)=O)cc2)cc1 (3D coordinates assigned)
CCOc1ccc(S(=O)(=O)[N-]c2ccc(C(C)=O)cc2)cc1 (optimized conformer: 39.825102069849656 kcal/mol)

>  <smiles>  (17) 
CCOc1ccc(S(=O)(=O)Nc2ccc(C(C)=O)cc2)cc1

>  <score_type>  (17) 
oracle

>  <origin>  (17) 
adg

>  <m_score__min__energy>  (17) 
-8.6999999999999993

>  <m_primary>  (17) 
energy

$$$$
17:0
     RDKit          3D

 39 39  0  0  0  0  0  0  0  0999 V2000
   -3.4020   21.3620  -33.0750 C   0  0  0  0  0  0  0  0  0  0  0  0
   -3.7160   20.8700  -31.6600 C   0  0  0  0  0  0  0  0  0  0  0  0
   -4.5300   21.8310  -30.8960 N   0  0  0  0  0  0  0  0  0  0  0  0
   -3.8260   22.3880  -29.7170 C   0  0  0  0  0  0  0  0  0  0  0  0
   -3.9840   23.9090  -29.6200 C   0  0  0  0  0  0  0  0  0  0  0  0
   -4.4870   24.4030  -30.8440 O   0  0  0  0  0  0  0  0  0  0  0  0
   -5.7670   24.9830  -30.6610 C   0  0  0  0  0  0  0  0  0  0  0  0
   -6.8240   24.1790  -31.4190 C   0  0  0  0  0  0  0  0  0  0  0  0
   -6.9230   22.8100  -30.8790 N   0  0  0  0  0  0  0  0  0  0  0  0
   -8.1230   22.0980  -31.3480 C   0  0  0  0  0  0  0  0  0  0  0  0
   -7.7530   20.7840  -31.9820 C   0  0  0  0  0  0  0  0  0  0  0  0
   -8.3400   19.5930  -31.5260 C   0  0  0  0  0  0  0  0  0  0  0  0
   -7.9600   18.3640  -32.0740 C   0  0  0  0  0  0  0  0  0  0  0  0
   -6.9930   18.3170  -33.0840 C   0  0  0  0  0  0  0  0  0  0  0  0
   -6.4690   16.6370  -33.8260 Br  0  0  0  0  0  0  0  0  0  0  0  0
   -6.4080   19.4990  -33.5450 C   0  0  0  0  0  0  0  0  0  0  0  0
   -6.7840   20.7300  -32.9980 C   0  0  0  0  0  0  0  0  0  0  0  0
   -2.8110   22.2880  -33.0185 H   0  0  0  0  0  0  0  0  0  0  0  0
   -2.8276   20.5926  -33.6117 H   0  0  0  0  0  0  0  0  0  0  0  0
   -4.3418   21.5590  -33.6117 H   0  0  0  0  0  0  0  0  0  0  0  0
   -4.2659   19.9199  -31.7308 H   0  0  0  0  0  0  0  0  0  0  0  0
   -2.7603   20.7458  -31.1297 H   0  0  0  0  0  0  0  0  0  0  0  0
   -4.8760   22.5860  -31.5350 H   0  0  0  0  0  0  0  0  0  0  0  0
   -5.3760   21.3170  -30.5560 H   0  0  0  0  0  0  0  0  0  0  0  0
   -4.2397   21.9292  -28.8068 H   0  0  0  0  0  0  0  0  0  0  0  0
   -2.7544   22.1638  -29.8238 H   0  0  0  0  0  0  0  0  0  0  0  0
   -4.6845   24.1550  -28.8083 H   0  0  0  0  0  0  0  0  0  0  0  0
   -3.0074   24.3692  -29.4093 H   0  0  0  0  0  0  0  0  0  0  0  0
   -6.0138   24.9880  -29.5891 H   0  0  0  0  0  0  0  0  0  0  0  0
   -5.7533   26.0126  -31.0479 H   0  0  0  0  0  0  0  0  0  0  0  0
   -7.7989   24.6785  -31.3181 H   0  0  0  0  0  0  0  0  0  0  0  0
   -6.5328   24.1215  -32.4782 H   0  0  0  0  0  0  0  0  0  0  0  0
   -6.9950   22.8800  -29.8370 H   0  0  0  0  0  0  0  0  0  0  0  0
   -8.7883   21.9106  -30.4923 H   0  0  0  0  0  0  0  0  0  0  0  0
   -8.6306   22.7208  -32.0994 H   0  0  0  0  0  0  0  0  0  0  0  0
   -9.1025   19.6268  -30.7339 H   0  0  0  0  0  0  0  0  0  0  0  0
   -8.4215   17.4338  -31.7109 H   0  0  0  0  0  0  0  0  0  0  0  0
   -5.6493   19.4613  -34.3406 H   0  0  0  0  0  0  0  0  0  0  0  0
   -6.3201   21.6579  -33.3640 H   0  0  0  0  0  0  0  0  0  0  0  0
  1  2  1  0
  2  3  1  0
  3  4  1  0
  4  5  1  0
  5  6  1  0
  6  7  1  0
  7  8  1  0
  8  9  1  0
  9 10  1  0
 10 11  1  0
 11 12  2  0
 12 13  1  0
 13 14  2  0
 14 15  1  0
 14 16  1  0
 16 17  2  0
 17 11  1  0
  1 18  1  0
  1 19  1  0
  1 20  1  0
  2 21  1  0
  2 22  1  0
  3 23  1  0
  3 24  1  0
  4 25  1  0
  4 26  1  0
  5 27  1  0
  5 28  1  0
  7 29  1  0
  7 30  1  0
  8 31  1  0
  8 32  1  0
  9 33  1  0
 10 34  1  0
 10 35  1  0
 12 36  1  0
 13 37  1  0
 16 38  1  0
 17 39  1  0
M  CHG  1   3   1
M  END
>  <UniqueID>  (18) 
18

>  <SMILES>  (18) 
CC[NH2+]CCOCCNCc1ccc(Br)cc1

>  <Energy>  (18) 
34.22426742756048

>  <Genealogy>  (18) 
CC[NH2+]CCOCCNCc1ccc(Br)cc1 (protonated)
CC[NH2+]CCOCCNCc1ccc(Br)cc1 (3D coordinates assigned)
CC[NH2+]CCOCCNCc1ccc(Br)cc1 (optimized conformer: 34.22426742756048 kcal/mol)

>  <smiles>  (18) 
CCNCCOCCNCc1ccc(Br)cc1

>  <score_type>  (18) 
oracle

>  <origin>  (18) 
adg

>  <m_score__min__energy>  (18) 
-6.9800000000000004

>  <m_primary>  (18) 
energy

$$$$
18:0
     RDKit          3D

 57 59  0  0  0  0  0  0  0  0999 V2000
   -2.5180   16.0940  -33.2540 C   0  0  0  0  0  0  0  0  0  0  0  0
   -1.5240   16.6760  -34.2610 C   0  0  0  0  0  0  0  0  0  0  0  0
   -1.2350   18.1000  -34.0090 N   0  0  0  0  0  0  0  0  0  0  0  0
    0.1500   18.3150  -33.5490 C   0  0  0  0  0  0  0  0  0  0  0  0
    0.6910   19.6930  -33.9660 C   0  0  0  0  0  0  0  0  0  0  0  0
   -0.3260   20.5010  -34.7960 C   0  0  0  0  0  0  0  0  0  0  0  0
   -1.5710   20.7660  -34.0540 N   0  0  0  0  0  0  0  0  0  0  0  0
   -1.3170   21.1660  -32.6630 C   0  0  0  0  0  0  0  0  0  0  0  0
   -2.5470   21.8630  -32.0800 C   0  0  0  0  0  0  0  0  0  0  0  0
   -3.7280   21.6360  -32.9120 N   0  0  0  0  0  0  0  0  0  0  0  0
   -5.0230   21.5650  -32.2970 C   0  0  0  0  0  0  0  0  0  0  0  0
   -5.4800   22.6500  -31.5260 C   0  0  0  0  0  0  0  0  0  0  0  0
   -4.6120   23.7060  -31.1710 C   0  0  0  0  0  0  0  0  0  0  0  0
   -5.0560   24.7520  -30.3630 C   0  0  0  0  0  0  0  0  0  0  0  0
   -6.3640   24.7620  -29.8930 C   0  0  0  0  0  0  0  0  0  0  0  0
   -7.2450   23.7430  -30.2540 C   0  0  0  0  0  0  0  0  0  0  0  0
   -6.8340   22.6860  -31.1080 C   0  0  0  0  0  0  0  0  0  0  0  0
   -7.7150   21.7170  -31.5430 N   0  0  0  0  0  0  0  0  0  0  0  0
   -9.1740   21.9370  -31.4130 C   0  0  0  0  0  0  0  0  0  0  0  0
   -7.2370   20.5550  -32.1220 C   0  0  0  0  0  0  0  0  0  0  0  0
   -8.0880   19.4440  -32.3450 C   0  0  0  0  0  0  0  0  0  0  0  0
   -7.6250   18.2950  -32.9760 C   0  0  0  0  0  0  0  0  0  0  0  0
   -6.2950   18.1920  -33.3510 C   0  0  0  0  0  0  0  0  0  0  0  0
   -5.3960   19.2320  -33.0920 C   0  0  0  0  0  0  0  0  0  0  0  0
   -4.0040   18.9760  -33.3220 N   0  0  0  0  0  0  0  0  0  0  0  0
   -3.2080   18.9740  -32.3580 O   0  0  0  0  0  0  0  0  0  0  0  0
   -3.5010   19.0800  -34.6000 O   0  0  0  0  0  0  0  0  0  0  0  0
   -5.8640   20.4480  -32.5040 C   0  0  0  0  0  0  0  0  0  0  0  0
   -2.1672   16.2994  -32.2319 H   0  0  0  0  0  0  0  0  0  0  0  0
   -3.5046   16.5571  -33.4031 H   0  0  0  0  0  0  0  0  0  0  0  0
   -2.5969   15.0070  -33.4031 H   0  0  0  0  0  0  0  0  0  0  0  0
   -0.5839   16.1084  -34.1974 H   0  0  0  0  0  0  0  0  0  0  0  0
   -1.9760   16.5980  -35.2608 H   0  0  0  0  0  0  0  0  0  0  0  0
   -1.8980   18.4360  -33.2680 H   0  0  0  0  0  0  0  0  0  0  0  0
   -1.4160   18.6480  -34.8830 H   0  0  0  0  0  0  0  0  0  0  0  0
    0.1747   18.2415  -32.4517 H   0  0  0  0  0  0  0  0  0  0  0  0
    0.7847   17.5468  -34.0150 H   0  0  0  0  0  0  0  0  0  0  0  0
    0.9386   20.2638  -33.0589 H   0  0  0  0  0  0  0  0  0  0  0  0
    1.5782   19.5270  -34.5947 H   0  0  0  0  0  0  0  0  0  0  0  0
    0.1302   21.4621  -35.0757 H   0  0  0  0  0  0  0  0  0  0  0  0
   -0.5845   19.9046  -35.6834 H   0  0  0  0  0  0  0  0  0  0  0  0
   -2.1740   19.9110  -34.0630 H   0  0  0  0  0  0  0  0  0  0  0  0
   -1.0881   20.2722  -32.0641 H   0  0  0  0  0  0  0  0  0  0  0  0
   -0.4657   21.8622  -32.6399 H   0  0  0  0  0  0  0  0  0  0  0  0
   -2.7380   21.4690  -31.0709 H   0  0  0  0  0  0  0  0  0  0  0  0
   -2.3496   22.9445  -32.0434 H   0  0  0  0  0  0  0  0  0  0  0  0
   -3.6030   21.1470  -33.8290 H   0  0  0  0  0  0  0  0  0  0  0  0
   -3.5743   23.7033  -31.5359 H   0  0  0  0  0  0  0  0  0  0  0  0
   -4.3704   25.5701  -30.0973 H   0  0  0  0  0  0  0  0  0  0  0  0
   -6.7048   25.5751  -29.2352 H   0  0  0  0  0  0  0  0  0  0  0  0
   -8.2759   23.7585  -29.8705 H   0  0  0  0  0  0  0  0  0  0  0  0
   -9.4452   21.9779  -30.3477 H   0  0  0  0  0  0  0  0  0  0  0  0
   -9.4463   22.8864  -31.8974 H   0  0  0  0  0  0  0  0  0  0  0  0
   -9.7141   21.1101  -31.8974 H   0  0  0  0  0  0  0  0  0  0  0  0
   -9.1354   19.4917  -32.0123 H   0  0  0  0  0  0  0  0  0  0  0  0
   -8.3172   17.4644  -33.1784 H   0  0  0  0  0  0  0  0  0  0  0  0
   -5.9421   17.2820  -33.8582 H   0  0  0  0  0  0  0  0  0  0  0  0
  1  2  1  0
  2  3  1  0
  3  4  1  0
  4  5  1  0
  5  6  1  0
  6  7  1  0
  7  8  1  0
  8  9  1  0
  9 10  1  0
 10 11  1  0
 11 12  2  0
 12 13  1  0
 13 14  2  0
 14 15  1  0
 15 16  2  0
 16 17  1  0
 17 18  2  0
 18 19  1  0
 18 20  1  0
 20 21  2  0
 21 22  1  0
 22 23  2  0
 23 24  1  0
 24 25  1  0
 25 26  2  0
 25 27  1  0
 24 28  2  0
 28 11  1  0
 17 12  1  0
 28 20  1  0
  1 29  1  0
  1 30  1  0
  1 31  1  0
  2 32  1  0
  2 33  1  0
  3 34  1  0
  3 35  1  0
  4 36  1  0
  4 37  1  0
  5 38  1  0
  5 39  1  0
  6 40  1  0
  6 41  1  0
  7 42  1  0
  8 43  1  0
  8 44  1  0
  9 45  1  0
  9 46  1  0
 10 47  1  0
 13 48  1  0
 14 49  1  0
 15 50  1  0
 16 51  1  0
 19 52  1  0
 19 53  1  0
 19 54  1  0
 21 55  1  0
 22 56  1  0
 23 57  1  0
M  CHG  4   3   1  18   1  25   1  27  -1
M  END
>  <UniqueID>  (19) 
19

>  <SMILES>  (19) 
CC[NH2+]CCCNCCNc1c2ccccc2[n+](C)c2cccc([N+](=O)[O-])c12

>  <Energy>  (19) 
89.6277999815349

>  <Genealogy>  (19) 
CC[NH2+]CCCNCCNc1c2ccccc2[n+](C)c2cccc([N+](=O)[O-])c12 (protonated)
CC[NH2+]CCCNCCNc1c2ccccc2[n+](C)c2cccc([N+](=O)[O-])c12 (3D coordinates assigned)
CC[NH2+]CCCNCCNc1c2ccccc2[n+](C)c2cccc([N+](=O)[O-])c12 (optimized conformer: 89.6277999815349 kcal/mol)

>  <smiles>  (19) 
CCNCCCNCCNc1c2ccccc2[n+](C)c2cccc([N+](=O)[O-])c12

>  <score_type>  (19) 
oracle

>  <origin>  (19) 
adg

>  <m_score__min__energy>  (19) 
-7.1100000000000003

>  <m_primary>  (19) 
energy

$$$$
19:0
     RDKit          3D

 45 47  0  0  0  0  0  0  0  0999 V2000
   -3.6018   19.6463  -34.1572 H   0  0  0  0  0  0  0  0  0  0  0  0
   -3.5350   20.1330  -33.1730 C   0  0  0  0  0  0  0  0  0  0  0  0
   -2.4570   19.8800  -32.4170 C   0  0  0  0  0  0  0  0  0  0  0  0
   -1.8435   18.9988  -32.6558 H   0  0  0  0  0  0  0  0  0  0  0  0
   -2.0560   20.7300  -31.2790 C   0  0  0  0  0  0  0  0  0  0  0  0
   -2.9190   20.8330  -29.8390 S   0  0  0  0  0  0  0  0  0  0  0  0
   -1.9020   21.9360  -29.0820 C   0  0  0  0  0  0  0  0  0  0  0  0
   -2.0328   22.3433  -28.0686 H   0  0  0  0  0  0  0  0  0  0  0  0
   -0.8670   22.2450  -29.9570 C   0  0  0  0  0  0  0  0  0  0  0  0
   -0.0604   22.9506  -29.7090 H   0  0  0  0  0  0  0  0  0  0  0  0
   -0.9470   21.5740  -31.1840 C   0  0  0  0  0  0  0  0  0  0  0  0
   -0.2106   21.6991  -31.9915 H   0  0  0  0  0  0  0  0  0  0  0  0
   -4.6410   21.0280  -32.7630 C   0  0  0  0  0  0  0  0  0  0  0  0
   -5.8690   20.5190  -32.7590 O   0  0  0  0  0  0  0  0  0  0  0  0
   -6.9530   21.1970  -32.3950 C   0  0  0  0  0  0  0  0  0  0  0  0
   -8.2320   20.5790  -32.3960 C   0  0  0  0  0  0  0  0  0  0  0  0
   -8.4640   19.2070  -32.7970 N   0  0  0  0  0  0  0  0  0  0  0  0
   -8.9920   19.0460  -33.6860 H   0  0  0  0  0  0  0  0  0  0  0  0
   -7.9860   17.9960  -32.1220 C   0  0  0  0  0  0  0  0  0  0  0  0
   -8.8271   17.2970  -32.0038 H   0  0  0  0  0  0  0  0  0  0  0  0
   -7.5767   18.2854  -31.1428 H   0  0  0  0  0  0  0  0  0  0  0  0
   -6.8710   17.3050  -32.9260 C   0  0  0  0  0  0  0  0  0  0  0  0
   -7.3190   16.5320  -33.5677 H   0  0  0  0  0  0  0  0  0  0  0  0
   -6.1585   16.8589  -32.2166 H   0  0  0  0  0  0  0  0  0  0  0  0
   -6.1430   18.2660  -33.7710 N   0  0  0  0  0  0  0  0  0  0  0  0
   -6.7980   19.0280  -34.0690 H   0  0  0  0  0  0  0  0  0  0  0  0
   -5.3510   18.6810  -33.2230 H   0  0  0  0  0  0  0  0  0  0  0  0
   -5.6040   17.5990  -34.9650 C   0  0  0  0  0  0  0  0  0  0  0  0
   -5.6424   18.2964  -35.8148 H   0  0  0  0  0  0  0  0  0  0  0  0
   -6.2117   16.7057  -35.1717 H   0  0  0  0  0  0  0  0  0  0  0  0
   -4.1560   17.1620  -34.7420 C   0  0  0  0  0  0  0  0  0  0  0  0
   -3.9535   17.1009  -33.6625 H   0  0  0  0  0  0  0  0  0  0  0  0
   -3.9958   16.1755  -35.2015 H   0  0  0  0  0  0  0  0  0  0  0  0
   -3.4768   17.8952  -35.2015 H   0  0  0  0  0  0  0  0  0  0  0  0
   -9.3450   21.3370  -31.9910 C   0  0  0  0  0  0  0  0  0  0  0  0
  -10.3413   20.8708  -31.9818 H   0  0  0  0  0  0  0  0  0  0  0  0
   -9.2090   22.6680  -31.6010 C   0  0  0  0  0  0  0  0  0  0  0  0
  -10.0952   23.2393  -31.2875 H   0  0  0  0  0  0  0  0  0  0  0  0
   -7.9570   23.2790  -31.6060 C   0  0  0  0  0  0  0  0  0  0  0  0
   -7.8578   24.3312  -31.3010 H   0  0  0  0  0  0  0  0  0  0  0  0
   -6.8220   22.5530  -32.0000 C   0  0  0  0  0  0  0  0  0  0  0  0
   -5.5440   23.1350  -32.0120 C   0  0  0  0  0  0  0  0  0  0  0  0
   -5.3740   24.3390  -31.6790 O   0  0  0  0  0  0  0  0  0  0  0  0
   -4.4440   22.3690  -32.3950 C   0  0  0  0  0  0  0  0  0  0  0  0
   -3.4358   22.8087  -32.4088 H   0  0  0  0  0  0  0  0  0  0  0  0
  1  2  1  0
  2  3  2  0
  3  4  1  0
  3  5  1  0
  5  6  1  0
  6  7  1  0
  7  8  1  0
  7  9  2  0
  9 10  1  0
  9 11  1  0
 11 12  1  0
  2 13  1  0
 13 14  1  0
 14 15  1  0
 15 16  2  0
 16 17  1  0
 17 18  1  0
 17 19  1  0
 19 20  1  0
 19 21  1  0
 19 22  1  0
 22 23  1  0
 22 24  1  0
 22 25  1  0
 25 26  1  0
 25 27  1  0
 25 28  1  0
 28 29  1  0
 28 30  1  0
 28 31  1  0
 31 32  1  0
 31 33  1  0
 31 34  1  0
 16 35  1  0
 35 36  1  0
 35 37  2  0
 37 38  1  0
 37 39  1  0
 39 40  1  0
 39 41  2  0
 41 42  1  0
 42 43  2  0
 42 44  1  0
 44 45  1  0
 11  5  2  0
 44 13  2  0
 41 15  1  0
M  CHG  1  25   1
M  END
>  <UniqueID>  (20) 
20

>  <SMILES>  (20) 
CC[NH2+]CCNc1cccc2c(=O)cc(/C=C/c3cccs3)oc12

>  <Energy>  (20) 
76.77090949804521

>  <Genealogy>  (20) 
CC[NH2+]CCNc1cccc2c(=O)cc(C=Cc3cccs3)oc12 (protonated)
CC[NH2+]CCNc1cccc2c(=O)cc(/C=C/c3cccs3)oc12 (cis-trans isomerization)
CC[NH2+]CCNc1cccc2c(=O)cc(/C=C/c3cccs3)oc12 (3D coordinates assigned)
CC[NH2+]CCNc1cccc2c(=O)cc(/C=C/c3cccs3)oc12 (optimized conformer: 76.77090949804521 kcal/mol)

>  <smiles>  (20) 
CCNCCNc1cccc2c(=O)cc(C=Cc3cccs3)oc12

>  <score_type>  (20) 
oracle

>  <origin>  (20) 
adg

>  <m_score__min__energy>  (20) 
-7.54

>  <m_primary>  (20) 
energy

$$$$
20:0
     RDKit          3D

 37 38  0  0  0  0  0  0  0  0999 V2000
   -7.8980   18.1680  -31.8890 C   0  0  0  0  0  0  0  0  0  0  0  0
   -8.9340   19.2780  -32.0230 C   0  0  0  0  0  0  0  0  0  0  0  0
   -8.5250   20.2250  -33.0650 N   0  0  0  0  0  0  0  0  0  0  0  0
   -7.1180   20.0130  -33.4230 C   0  0  0  0  0  0  0  0  0  0  0  0
   -6.2580   21.0360  -32.7320 C   0  0  0  0  0  0  0  0  0  0  0  0
   -4.8670   21.0240  -32.9020 C   0  0  0  0  0  0  0  0  0  0  0  0
   -4.0720   21.9960  -32.2880 C   0  0  0  0  0  0  0  0  0  0  0  0
   -4.6600   23.0030  -31.4990 C   0  0  0  0  0  0  0  0  0  0  0  0
   -3.8990   23.9970  -30.8600 O   0  0  0  0  0  0  0  0  0  0  0  0
   -2.7250   23.7670  -30.0810 C   0  0  0  0  0  0  0  0  0  0  0  0
   -2.8840   24.3270  -28.6930 C   0  0  0  0  0  0  0  0  0  0  0  0
   -1.8020   24.9650  -28.0630 C   0  0  0  0  0  0  0  0  0  0  0  0
   -1.9430   25.4800  -26.7710 C   0  0  0  0  0  0  0  0  0  0  0  0
   -3.1590   25.3530  -26.0950 C   0  0  0  0  0  0  0  0  0  0  0  0
   -4.2370   24.7080  -26.7090 C   0  0  0  0  0  0  0  0  0  0  0  0
   -4.1000   24.1930  -28.0020 C   0  0  0  0  0  0  0  0  0  0  0  0
   -6.0550   23.0240  -31.3480 C   0  0  0  0  0  0  0  0  0  0  0  0
   -6.8260   24.2710  -30.3790 Cl  0  0  0  0  0  0  0  0  0  0  0  0
   -6.8480   22.0500  -31.9630 C   0  0  0  0  0  0  0  0  0  0  0  0
   -7.7110   17.9676  -30.8237 H   0  0  0  0  0  0  0  0  0  0  0  0
   -8.2743   17.2548  -32.3733 H   0  0  0  0  0  0  0  0  0  0  0  0
   -6.9611   18.4805  -32.3733 H   0  0  0  0  0  0  0  0  0  0  0  0
   -9.9058   18.8383  -32.2919 H   0  0  0  0  0  0  0  0  0  0  0  0
   -9.0171   19.8109  -31.0643 H   0  0  0  0  0  0  0  0  0  0  0  0
   -9.1040   20.0350  -33.9170 H   0  0  0  0  0  0  0  0  0  0  0  0
   -6.8092   19.0047  -33.1101 H   0  0  0  0  0  0  0  0  0  0  0  0
   -7.0004   20.1147  -34.5120 H   0  0  0  0  0  0  0  0  0  0  0  0
   -4.3983   20.2455  -33.5219 H   0  0  0  0  0  0  0  0  0  0  0  0
   -2.9804   21.9740  -32.4220 H   0  0  0  0  0  0  0  0  0  0  0  0
   -2.5435   22.6841  -30.0140 H   0  0  0  0  0  0  0  0  0  0  0  0
   -1.8759   24.2691  -30.5678 H   0  0  0  0  0  0  0  0  0  0  0  0
   -0.8403   25.0596  -28.5885 H   0  0  0  0  0  0  0  0  0  0  0  0
   -1.0952   25.9860  -26.2859 H   0  0  0  0  0  0  0  0  0  0  0  0
   -3.2684   25.7606  -25.0792 H   0  0  0  0  0  0  0  0  0  0  0  0
   -5.1931   24.6056  -26.1748 H   0  0  0  0  0  0  0  0  0  0  0  0
   -4.9480   23.6808  -28.4801 H   0  0  0  0  0  0  0  0  0  0  0  0
   -7.9410   22.0792  -31.8430 H   0  0  0  0  0  0  0  0  0  0  0  0
  1  2  1  0
  2  3  1  0
  3  4  1  0
  4  5  1  0
  5  6  2  0
  6  7  1  0
  7  8  2  0
  8  9  1  0
  9 10  1  0
 10 11  1  0
 11 12  2  0
 12 13  1  0
 13 14  2  0
 14 15  1  0
 15 16  2  0
  8 17  1  0
 17 18  1  0
 17 19  2  0
 19  5  1  0
 16 11  1  0
  1 20  1  0
  1 21  1  0
  1 22  1  0
  2 23  1  0
  2 24  1  0
  3 25  1  0
  4 26  1  0
  4 27  1  0
  6 28  1  0
  7 29  1  0
 10 30  1  0
 10 31  1  0
 12 32  1  0
 13 33  1  0
 14 34  1  0
 15 35  1  0
 16 36  1  0
 19 37  1  0
M  END
>  <UniqueID>  (21) 
21

>  <SMILES>  (21) 
CCNCc1ccc(OCc2ccccc2)c(Cl)c1

>  <Energy>  (21) 
32.14614779870707

>  <Genealogy>  (21) 
CCNCc1ccc(OCc2ccccc2)c(Cl)c1 (3D coordinates assigned)
CCNCc1ccc(OCc2ccccc2)c(Cl)c1 (optimized conformer: 32.14614779870707 kcal/mol)

>  <smiles>  (21) 
CCNCc1ccc(OCc2ccccc2)c(Cl)c1

>  <score_type>  (21) 
oracle

>  <origin>  (21) 
adg

>  <m_score__min__energy>  (21) 
-7.7999999999999998

>  <m_primary>  (21) 
energy

$$$$
21:0
     RDKit          3D

 76 78  0  0  0  0  0  0  0  0999 V2000
    1.1048   25.7348  -26.9064 H   0  0  0  0  0  0  0  0  0  0  0  0
    0.4140   25.0710  -27.4470 C   0  0  0  0  0  0  0  0  0  0  0  0
    0.6720   23.7030  -27.5130 C   0  0  0  0  0  0  0  0  0  0  0  0
    1.5707   23.2898  -27.0318 H   0  0  0  0  0  0  0  0  0  0  0  0
   -0.2100   22.8550  -28.1900 C   0  0  0  0  0  0  0  0  0  0  0  0
   -0.0025   21.7756  -28.2332 H   0  0  0  0  0  0  0  0  0  0  0  0
   -1.3650   23.3710  -28.8190 C   0  0  0  0  0  0  0  0  0  0  0  0
   -2.2470   22.5430  -29.5650 C   0  0  0  0  0  0  0  0  0  0  0  0
   -1.8280   21.3290  -29.8270 N   0  0  0  0  0  0  0  0  0  0  0  0
   -1.5340   20.1710  -28.9890 C   0  0  0  0  0  0  0  0  0  0  0  0
   -1.0985   20.5073  -28.0365 H   0  0  0  0  0  0  0  0  0  0  0  0
   -2.4618   19.6151  -28.7884 H   0  0  0  0  0  0  0  0  0  0  0  0
   -0.5340   19.2600  -29.7180 C   0  0  0  0  0  0  0  0  0  0  0  0
    0.4498   19.3505  -29.2343 H   0  0  0  0  0  0  0  0  0  0  0  0
   -0.9056   18.2262  -29.6616 H   0  0  0  0  0  0  0  0  0  0  0  0
   -0.4030   19.6280  -31.1460 N   0  0  0  0  0  0  0  0  0  0  0  0
   -0.9530   18.9380  -31.7120 H   0  0  0  0  0  0  0  0  0  0  0  0
   -0.8320   20.5600  -31.3480 H   0  0  0  0  0  0  0  0  0  0  0  0
    0.9930   19.5930  -31.6230 C   0  0  0  0  0  0  0  0  0  0  0  0
    1.1014   20.3186  -32.4426 H   0  0  0  0  0  0  0  0  0  0  0  0
    1.6388   19.8395  -30.7674 H   0  0  0  0  0  0  0  0  0  0  0  0
    1.4210   18.2020  -32.1380 C   0  0  0  0  0  0  0  0  0  0  0  0
    2.4112   18.2838  -32.6100 H   0  0  0  0  0  0  0  0  0  0  0  0
    1.4532   17.5102  -31.2834 H   0  0  0  0  0  0  0  0  0  0  0  0
    0.4450   17.6690  -33.1410 C   0  0  0  0  0  0  0  0  0  0  0  0
    0.7690   16.7100  -33.8920 O   0  0  0  0  0  0  0  0  0  0  0  0
   -0.8470   18.1970  -33.1710 O   0  0  0  0  0  0  0  0  0  0  0  0
   -1.4800   18.6710  -34.3550 C   0  0  0  0  0  0  0  0  0  0  0  0
   -0.7106   18.8836  -35.1118 H   0  0  0  0  0  0  0  0  0  0  0  0
   -2.1737   17.8953  -34.7116 H   0  0  0  0  0  0  0  0  0  0  0  0
   -2.2810   19.9480  -34.0860 C   0  0  0  0  0  0  0  0  0  0  0  0
   -1.7478   20.8076  -34.5183 H   0  0  0  0  0  0  0  0  0  0  0  0
   -3.2751   19.8480  -34.5461 H   0  0  0  0  0  0  0  0  0  0  0  0
   -2.4390   20.1500  -32.6940 O   0  0  0  0  0  0  0  0  0  0  0  0
   -3.7180   19.7300  -32.2500 C   0  0  0  0  0  0  0  0  0  0  0  0
   -3.7431   18.6318  -32.1931 H   0  0  0  0  0  0  0  0  0  0  0  0
   -3.9167   20.1555  -31.2553 H   0  0  0  0  0  0  0  0  0  0  0  0
   -4.7870   20.2130  -33.2310 C   0  0  0  0  0  0  0  0  0  0  0  0
   -5.2519   21.1305  -32.8411 H   0  0  0  0  0  0  0  0  0  0  0  0
   -4.3185   20.4183  -34.2048 H   0  0  0  0  0  0  0  0  0  0  0  0
   -5.8270   19.1680  -33.4000 N   0  0  0  0  0  0  0  0  0  0  0  0
   -7.1910   19.6400  -33.0750 C   0  0  0  0  0  0  0  0  0  0  0  0
   -7.1073   20.5897  -32.5263 H   0  0  0  0  0  0  0  0  0  0  0  0
   -7.7268   19.7494  -34.0294 H   0  0  0  0  0  0  0  0  0  0  0  0
   -8.0030   18.6560  -32.2180 C   0  0  0  0  0  0  0  0  0  0  0  0
   -7.8286   18.8673  -31.1527 H   0  0  0  0  0  0  0  0  0  0  0  0
   -9.0735   18.7699  -32.4440 H   0  0  0  0  0  0  0  0  0  0  0  0
   -7.6880   17.6266  -32.4440 H   0  0  0  0  0  0  0  0  0  0  0  0
   -5.7500   18.4580  -34.6950 C   0  0  0  0  0  0  0  0  0  0  0  0
   -6.7654   18.1858  -35.0189 H   0  0  0  0  0  0  0  0  0  0  0  0
   -5.2792   19.1213  -35.4355 H   0  0  0  0  0  0  0  0  0  0  0  0
   -4.9080   17.1900  -34.5640 C   0  0  0  0  0  0  0  0  0  0  0  0
   -4.7551   16.9598  -33.4993 H   0  0  0  0  0  0  0  0  0  0  0  0
   -5.4295   16.3518  -35.0492 H   0  0  0  0  0  0  0  0  0  0  0  0
   -3.9331   17.3455  -35.0492 H   0  0  0  0  0  0  0  0  0  0  0  0
   -3.4640   23.1200  -30.0610 C   0  0  0  0  0  0  0  0  0  0  0  0
   -4.5540   22.3760  -30.5750 C   0  0  0  0  0  0  0  0  0  0  0  0
   -4.5051   21.2771  -30.5673 H   0  0  0  0  0  0  0  0  0  0  0  0
   -5.6930   23.0060  -31.0930 C   0  0  0  0  0  0  0  0  0  0  0  0
   -6.7250   22.1940  -31.5930 O   0  0  0  0  0  0  0  0  0  0  0  0
   -8.0860   22.5890  -31.7730 C   0  0  0  0  0  0  0  0  0  0  0  0
   -8.3349   22.5454  -32.8436 H   0  0  0  0  0  0  0  0  0  0  0  0
   -8.2077   23.6134  -31.3912 H   0  0  0  0  0  0  0  0  0  0  0  0
   -9.0270   21.6680  -31.0040 C   0  0  0  0  0  0  0  0  0  0  0  0
   -8.8795   21.8124  -29.9235 H   0  0  0  0  0  0  0  0  0  0  0  0
  -10.0684   21.9055  -31.2669 H   0  0  0  0  0  0  0  0  0  0  0  0
   -8.8119   20.6217  -31.2669 H   0  0  0  0  0  0  0  0  0  0  0  0
   -5.7770   24.4040  -31.0750 C   0  0  0  0  0  0  0  0  0  0  0  0
   -6.6489   24.9082  -31.5172 H   0  0  0  0  0  0  0  0  0  0  0  0
   -4.7580   25.1550  -30.4980 C   0  0  0  0  0  0  0  0  0  0  0  0
   -4.8442   26.2509  -30.4571 H   0  0  0  0  0  0  0  0  0  0  0  0
   -3.6260   24.5290  -29.9700 C   0  0  0  0  0  0  0  0  0  0  0  0
   -2.7020   25.2910  -29.3330 N   0  0  0  0  0  0  0  0  0  0  0  0
   -1.6090   24.7600  -28.7410 C   0  0  0  0  0  0  0  0  0  0  0  0
   -0.7180   25.5990  -28.0650 C   0  0  0  0  0  0  0  0  0  0  0  0
   -0.9114   26.6810  -28.0207 H   0  0  0  0  0  0  0  0  0  0  0  0
  1  2  1  0
  2  3  2  0
  3  4  1  0
  3  5  1  0
  5  6  1  0
  5  7  2  0
  7  8  1  0
  8  9  2  0
  9 10  1  0
 10 11  1  0
 10 12  1  0
 10 13  1  0
 13 14  1  0
 13 15  1  0
 13 16  1  0
 16 17  1  0
 16 18  1  0
 16 19  1  0
 19 20  1  0
 19 21  1  0
 19 22  1  0
 22 23  1  0
 22 24  1  0
 22 25  1  0
 25 26  2  0
 25 27  1  0
 27 28  1  0
 28 29  1  0
 28 30  1  0
 28 31  1  0
 31 32  1  0
 31 33  1  0
 31 34  1  0
 34 35  1  0
 35 36  1  0
 35 37  1  0
 35 38  1  0
 38 39  1  0
 38 40  1  0
 38 41  1  0
 41 42  1  0
 42 43  1  0
 42 44  1  0
 42 45  1  0
 45 46  1  0
 45 47  1  0
 45 48  1  0
 41 49  1  0
 49 50  1  0
 49 51  1  0
 49 52  1  0
 52 53  1  0
 52 54  1  0
 52 55  1  0
  8 56  1  0
 56 57  2  0
 57 58  1  0
 57 59  1  0
 59 60  1  0
 60 61  1  0
 61 62  1  0
 61 63  1  0
 61 64  1  0
 64 65  1  0
 64 66  1  0
 64 67  1  0
 59 68  2  0
 68 69  1  0
 68 70  1  0
 70 71  1  0
 70 72  2  0
 72 73  1  0
 73 74  1  0
 74 75  2  0
 75 76  1  0
 75  2  1  0
 74  7  1  0
 72 56  1  0
M  CHG  2  16   1  73  -1
M  END
>  <UniqueID>  (22) 
22

>  <SMILES>  (22) 
CCOc1ccc2[n-]c3ccccc3/c(=N/CC[NH2+]CCC(=O)OCCOCCN(CC)CC)c2c1

>  <Energy>  (22) 
88.97550205208252

>  <Genealogy>  (22) 
CCOc1ccc2[n-]c3ccccc3c(=NCC[NH2+]CCC(=O)OCCOCCN(CC)CC)c2c1 (protonated)
CCOc1ccc2[n-]c3ccccc3/c(=N/CC[NH2+]CCC(=O)OCCOCCN(CC)CC)c2c1 (cis-trans isomerization)
CCOc1ccc2[n-]c3ccccc3/c(=N/CC[NH2+]CCC(=O)OCCOCCN(CC)CC)c2c1 (3D coordinates assigned)
CCOc1ccc2[n-]c3ccccc3/c(=N/CC[NH2+]CCC(=O)OCCOCCN(CC)CC)c2c1 (optimized conformer: 88.97550205208252 kcal/mol)

>  <smiles>  (22) 
CCOc1ccc2[nH]c3ccccc3c(=NCCNCCC(=O)OCCOCCN(CC)CC)c2c1

>  <score_type>  (22) 
oracle

>  <origin>  (22) 
adg

>  <m_score__min__energy>  (22) 
-10.26

>  <m_primary>  (22) 
energy

$$$$
22:0
     RDKit          3D

 56 59  0  0  0  0  0  0  0  0999 V2000
    2.3780   23.1560  -35.7110 C   0  0  0  0  0  0  0  0  0  0  0  0
    1.0650   23.8300  -36.1090 C   0  0  0  0  0  0  0  0  0  0  0  0
   -0.0630   22.8900  -36.0030 N   0  0  0  0  0  0  0  0  0  0  0  0
    0.3890   21.4820  -35.9720 C   0  0  0  0  0  0  0  0  0  0  0  0
   -0.2380   20.6780  -34.8170 C   0  0  0  0  0  0  0  0  0  0  0  0
   -1.0160   21.5320  -33.9080 N   0  0  0  0  0  0  0  0  0  0  0  0
   -1.0060   21.0070  -32.5370 C   0  0  0  0  0  0  0  0  0  0  0  0
   -2.3260   21.3430  -31.8380 C   0  0  0  0  0  0  0  0  0  0  0  0
   -3.3280   21.8100  -32.7990 N   0  0  0  0  0  0  0  0  0  0  0  0
   -4.7340   21.6650  -32.5560 C   0  0  0  0  0  0  0  0  0  0  0  0
   -5.4690   22.6310  -31.8310 C   0  0  0  0  0  0  0  0  0  0  0  0
   -4.8160   23.7100  -31.2030 C   0  0  0  0  0  0  0  0  0  0  0  0
   -5.5380   24.6480  -30.4680 C   0  0  0  0  0  0  0  0  0  0  0  0
   -6.9150   24.5170  -30.3270 C   0  0  0  0  0  0  0  0  0  0  0  0
   -7.5870   23.4500  -30.9220 C   0  0  0  0  0  0  0  0  0  0  0  0
   -6.8930   22.4880  -31.6960 C   0  0  0  0  0  0  0  0  0  0  0  0
   -7.5500   21.4230  -32.2940 N   0  0  0  0  0  0  0  0  0  0  0  0
   -9.0210   21.3140  -32.2640 C   0  0  0  0  0  0  0  0  0  0  0  0
   -6.7970   20.4520  -32.9000 C   0  0  0  0  0  0  0  0  0  0  0  0
   -7.2530   19.2900  -33.4350 N   0  0  0  0  0  0  0  0  0  0  0  0
   -6.1570   18.6710  -33.9180 C   0  0  0  0  0  0  0  0  0  0  0  0
   -6.1140   17.4320  -34.5570 C   0  0  0  0  0  0  0  0  0  0  0  0
   -4.8620   16.9490  -34.9760 C   0  0  0  0  0  0  0  0  0  0  0  0
   -3.6910   17.7010  -34.7430 C   0  0  0  0  0  0  0  0  0  0  0  0
   -3.7570   18.9440  -34.0910 C   0  0  0  0  0  0  0  0  0  0  0  0
   -5.0150   19.4110  -33.6960 C   0  0  0  0  0  0  0  0  0  0  0  0
   -5.4270   20.5570  -33.0350 C   0  0  0  0  0  0  0  0  0  0  0  0
    2.4527   23.1176  -34.6142 H   0  0  0  0  0  0  0  0  0  0  0  0
    2.4029   22.1337  -36.1162 H   0  0  0  0  0  0  0  0  0  0  0  0
    3.2232   23.7317  -36.1162 H   0  0  0  0  0  0  0  0  0  0  0  0
    0.8837   24.6863  -35.4428 H   0  0  0  0  0  0  0  0  0  0  0  0
    1.1453   24.1652  -37.1536 H   0  0  0  0  0  0  0  0  0  0  0  0
   -0.6350   23.1140  -35.1540 H   0  0  0  0  0  0  0  0  0  0  0  0
   -0.6760   23.0200  -36.8430 H   0  0  0  0  0  0  0  0  0  0  0  0
    0.1133   21.0035  -36.9233 H   0  0  0  0  0  0  0  0  0  0  0  0
    1.4782   21.4876  -35.8181 H   0  0  0  0  0  0  0  0  0  0  0  0
   -0.9034   19.9105  -35.2392 H   0  0  0  0  0  0  0  0  0  0  0  0
    0.5791   20.2228  -34.2381 H   0  0  0  0  0  0  0  0  0  0  0  0
   -2.0090   21.5230  -34.2430 H   0  0  0  0  0  0  0  0  0  0  0  0
   -0.8768   19.9150  -32.5660 H   0  0  0  0  0  0  0  0  0  0  0  0
   -0.1757   21.4662  -31.9805 H   0  0  0  0  0  0  0  0  0  0  0  0
   -2.7048   20.4419  -31.3334 H   0  0  0  0  0  0  0  0  0  0  0  0
   -2.1407   22.1455  -31.1089 H   0  0  0  0  0  0  0  0  0  0  0  0
   -3.0150   22.3050  -33.6620 H   0  0  0  0  0  0  0  0  0  0  0  0
   -3.7246   23.8130  -31.2939 H   0  0  0  0  0  0  0  0  0  0  0  0
   -5.0169   25.4949  -29.9978 H   0  0  0  0  0  0  0  0  0  0  0  0
   -7.4777   25.2597  -29.7424 H   0  0  0  0  0  0  0  0  0  0  0  0
   -8.6746   23.3537  -30.7880 H   0  0  0  0  0  0  0  0  0  0  0  0
   -9.3656   21.2885  -31.2197 H   0  0  0  0  0  0  0  0  0  0  0  0
   -9.4635   22.1818  -32.7750 H   0  0  0  0  0  0  0  0  0  0  0  0
   -9.3307   20.3904  -32.7750 H   0  0  0  0  0  0  0  0  0  0  0  0
   -8.2240   18.9090  -33.4560 H   0  0  0  0  0  0  0  0  0  0  0  0
   -7.0319   16.8504  -34.7279 H   0  0  0  0  0  0  0  0  0  0  0  0
   -4.7948   15.9783  -35.4890 H   0  0  0  0  0  0  0  0  0  0  0  0
   -2.7176   17.3106  -35.0748 H   0  0  0  0  0  0  0  0  0  0  0  0
   -2.8475   19.5316  -33.8972 H   0  0  0  0  0  0  0  0  0  0  0  0
  1  2  1  0
  2  3  1  0
  3  4  1  0
  4  5  1  0
  5  6  1  0
  6  7  1  0
  7  8  1  0
  8  9  1  0
  9 10  1  0
 10 11  2  0
 11 12  1  0
 12 13  2  0
 13 14  1  0
 14 15  2  0
 15 16  1  0
 16 17  2  0
 17 18  1  0
 17 19  1  0
 19 20  1  0
 20 21  1  0
 21 22  2  0
 22 23  1  0
 23 24  2  0
 24 25  1  0
 25 26  2  0
 26 27  1  0
 27 10  1  0
 16 11  1  0
 27 19  2  0
 26 21  1  0
  1 28  1  0
  1 29  1  0
  1 30  1  0
  2 31  1  0
  2 32  1  0
  3 33  1  0
  3 34  1  0
  4 35  1  0
  4 36  1  0
  5 37  1  0
  5 38  1  0
  6 39  1  0
  7 40  1  0
  7 41  1  0
  8 42  1  0
  8 43  1  0
  9 44  1  0
 12 45  1  0
 13 46  1  0
 14 47  1  0
 15 48  1  0
 18 49  1  0
 18 50  1  0
 18 51  1  0
 20 52  1  0
 22 53  1  0
 23 54  1  0
 24 55  1  0
 25 56  1  0
M  CHG  2   3   1  17   1
M  END
>  <UniqueID>  (23) 
23

>  <SMILES>  (23) 
CC[NH2+]CCNCCNc1c2ccccc2[n+](C)c2[nH]c3ccccc3c12

>  <Energy>  (23) 
110.27853751639314

>  <Genealogy>  (23) 
CC[NH2+]CCNCCNc1c2ccccc2[n+](C)c2[nH]c3ccccc3c12 (protonated)
CC[NH2+]CCNCCNc1c2ccccc2[n+](C)c2[nH]c3ccccc3c12 (3D coordinates assigned)
CC[NH2+]CCNCCNc1c2ccccc2[n+](C)c2[nH]c3ccccc3c12 (optimized conformer: 110.27853751639314 kcal/mol)

>  <smiles>  (23) 
CCNCCNCCNc1c2ccccc2[n+](C)c2[nH]c3ccccc3c12

>  <score_type>  (23) 
oracle

>  <origin>  (23) 
adg

>  <m_score__min__energy>  (23) 
-8.8399999999999999

>  <m_primary>  (23) 
energy

$$$$
