0:0
     RDKit          3D

 59 60  0  0  0  0  0  0  0  0999 V2000
    1.0270   27.2040  -23.4300 C   0  0  0  0  0  0  0  0  0  0  0  0
   -0.4350   26.7530  -23.3320 C   0  0  0  0  0  0  0  0  0  0  0  0
   -1.1590   26.9010  -24.6230 N   0  0  0  0  0  0  0  0  0  0  0  0
   -0.4530   27.8730  -25.4990 C   0  0  0  0  0  0  0  0  0  0  0  0
   -0.9050   29.3150  -25.2440 C   0  0  0  0  0  0  0  0  0  0  0  0
   -1.2790   25.5810  -25.3050 C   0  0  0  0  0  0  0  0  0  0  0  0
   -2.2780   25.6170  -26.4710 C   0  0  0  0  0  0  0  0  0  0  0  0
   -1.6170   26.0500  -27.6430 O   0  0  0  0  0  0  0  0  0  0  0  0
   -1.0100   24.9570  -28.3050 C   0  0  0  0  0  0  0  0  0  0  0  0
   -2.0780   24.1140  -29.0260 C   0  0  0  0  0  0  0  0  0  0  0  0
   -3.1460   24.9410  -29.6140 N   0  0  0  0  0  0  0  0  0  0  0  0
   -4.4950   24.5220  -29.2000 C   0  0  0  0  0  0  0  0  0  0  0  0
   -5.5550   25.1260  -30.1280 C   0  0  0  0  0  0  0  0  0  0  0  0
   -5.4200   24.6510  -31.4670 O   0  0  0  0  0  0  0  0  0  0  0  0
   -5.6650   23.3370  -31.8990 C   0  0  0  0  0  0  0  0  0  0  0  0
   -6.9550   22.7740  -31.9390 C   0  0  0  0  0  0  0  0  0  0  0  0
   -7.1340   21.4500  -32.3540 C   0  0  0  0  0  0  0  0  0  0  0  0
   -6.0340   20.6690  -32.7480 C   0  0  0  0  0  0  0  0  0  0  0  0
   -6.2230   19.2620  -33.1880 C   0  0  0  0  0  0  0  0  0  0  0  0
   -7.0290   18.3800  -32.4430 C   0  0  0  0  0  0  0  0  0  0  0  0
   -7.2110   17.0590  -32.8640 C   0  0  0  0  0  0  0  0  0  0  0  0
   -6.5890   16.6030  -34.0280 C   0  0  0  0  0  0  0  0  0  0  0  0
   -5.7800   17.4660  -34.7710 C   0  0  0  0  0  0  0  0  0  0  0  0
   -5.5980   18.7880  -34.3580 C   0  0  0  0  0  0  0  0  0  0  0  0
   -4.7520   21.2430  -32.7270 C   0  0  0  0  0  0  0  0  0  0  0  0
   -4.5740   22.5620  -32.3020 C   0  0  0  0  0  0  0  0  0  0  0  0
    1.4400   27.3314  -22.4185 H   0  0  0  0  0  0  0  0  0  0  0  0
    1.6097   26.4439  -23.9709 H   0  0  0  0  0  0  0  0  0  0  0  0
    1.0802   28.1603  -23.9709 H   0  0  0  0  0  0  0  0  0  0  0  0
   -0.4595   25.6950  -23.0319 H   0  0  0  0  0  0  0  0  0  0  0  0
   -0.9355   27.3926  -22.5901 H   0  0  0  0  0  0  0  0  0  0  0  0
   -2.1210   27.2680  -24.4240 H   0  0  0  0  0  0  0  0  0  0  0  0
    0.6280   27.8015  -25.3087 H   0  0  0  0  0  0  0  0  0  0  0  0
   -0.6925   27.6232  -26.5431 H   0  0  0  0  0  0  0  0  0  0  0  0
   -0.9615   29.4953  -24.1604 H   0  0  0  0  0  0  0  0  0  0  0  0
   -0.1819   30.0110  -25.6943 H   0  0  0  0  0  0  0  0  0  0  0  0
   -1.8960   29.4737  -25.6943 H   0  0  0  0  0  0  0  0  0  0  0  0
   -0.2913   25.2925  -25.6940 H   0  0  0  0  0  0  0  0  0  0  0  0
   -1.6481   24.8531  -24.5675 H   0  0  0  0  0  0  0  0  0  0  0  0
   -2.6896   24.6098  -26.6327 H   0  0  0  0  0  0  0  0  0  0  0  0
   -3.0960   26.3127  -26.2324 H   0  0  0  0  0  0  0  0  0  0  0  0
   -0.2863   25.3348  -29.0422 H   0  0  0  0  0  0  0  0  0  0  0  0
   -0.4959   24.3280  -27.5633 H   0  0  0  0  0  0  0  0  0  0  0  0
   -1.5922   23.5413  -29.8297 H   0  0  0  0  0  0  0  0  0  0  0  0
   -2.5406   23.4509  -28.2801 H   0  0  0  0  0  0  0  0  0  0  0  0
   -2.9950   25.9410  -29.3420 H   0  0  0  0  0  0  0  0  0  0  0  0
   -4.5614   23.4248  -29.2409 H   0  0  0  0  0  0  0  0  0  0  0  0
   -4.6776   24.8758  -28.1746 H   0  0  0  0  0  0  0  0  0  0  0  0
   -6.5528   24.8547  -29.7529 H   0  0  0  0  0  0  0  0  0  0  0  0
   -5.4193   26.2176  -30.1372 H   0  0  0  0  0  0  0  0  0  0  0  0
   -7.8255   23.3776  -31.6427 H   0  0  0  0  0  0  0  0  0  0  0  0
   -8.1448   21.0164  -32.3721 H   0  0  0  0  0  0  0  0  0  0  0  0
   -7.5189   18.7326  -31.5234 H   0  0  0  0  0  0  0  0  0  0  0  0
   -7.8451   16.3781  -32.2773 H   0  0  0  0  0  0  0  0  0  0  0  0
   -6.7360   15.5646  -34.3598 H   0  0  0  0  0  0  0  0  0  0  0  0
   -5.2848   17.1035  -35.6839 H   0  0  0  0  0  0  0  0  0  0  0  0
   -4.9627   19.4631  -34.9501 H   0  0  0  0  0  0  0  0  0  0  0  0
   -3.8826   20.6501  -33.0473 H   0  0  0  0  0  0  0  0  0  0  0  0
   -3.5632   22.9956  -32.2844 H   0  0  0  0  0  0  0  0  0  0  0  0
  1  2  1  0
  2  3  1  0
  3  4  1  0
  4  5  1  0
  3  6  1  0
  6  7  1  0
  7  8  1  0
  8  9  1  0
  9 10  1  0
 10 11  1  0
 11 12  1  0
 12 13  1  0
 13 14  1  0
 14 15  1  0
 15 16  2  0
 16 17  1  0
 17 18  2  0
 18 19  1  0
 19 20  2  0
 20 21  1  0
 21 22  2  0
 22 23  1  0
 23 24  2  0
 18 25  1  0
 25 26  2  0
 26 15  1  0
 24 19  1  0
  1 27  1  0
  1 28  1  0
  1 29  1  0
  2 30  1  0
  2 31  1  0
  3 32  1  0
  4 33  1  0
  4 34  1  0
  5 35  1  0
  5 36  1  0
  5 37  1  0
  6 38  1  0
  6 39  1  0
  7 40  1  0
  7 41  1  0
  9 42  1  0
  9 43  1  0
 10 44  1  0
 10 45  1  0
 11 46  1  0
 12 47  1  0
 12 48  1  0
 13 49  1  0
 13 50  1  0
 16 51  1  0
 17 52  1  0
 20 53  1  0
 21 54  1  0
 22 55  1  0
 23 56  1  0
 24 57  1  0
 25 58  1  0
 26 59  1  0
M  CHG  1   3   1
M  END
>  <UniqueID>  (1) 
1

>  <SMILES>  (1) 
CC[NH+](CC)CCOCCNCCOc1ccc(-c2ccccc2)cc1

>  <Energy>  (1) 
60.48589942844792

>  <Genealogy>  (1) 
CC[NH+](CC)CCOCCNCCOc1ccc(-c2ccccc2)cc1 (protonated)
CC[NH+](CC)CCOCCNCCOc1ccc(-c2ccccc2)cc1 (3D coordinates assigned)
CC[NH+](CC)CCOCCNCCOc1ccc(-c2ccccc2)cc1 (optimized conformer: 60.48589942844792 kcal/mol)

>  <smiles>  (1) 
CCN(CC)CCOCCNCCOc1ccc(-c2ccccc2)cc1

>  <score_type>  (1) 
oracle

>  <origin>  (1) 
adg

>  <m_score__min__energy>  (1) 
-8.4600000000000009

>  <m_primary>  (1) 
energy

$$$$
1:0
     RDKit          3D

 46 48  0  0  0  0  0  0  0  0999 V2000
   -8.2470   22.0090  -30.4830 C   0  0  0  0  0  0  0  0  0  0  0  0
   -6.9570   22.6990  -30.0260 C   0  0  0  0  0  0  0  0  0  0  0  0
   -6.9630   24.0520  -30.5410 N   0  0  0  0  0  0  0  0  0  0  0  0
   -6.4890   24.1010  -31.9150 C   0  0  0  0  0  0  0  0  0  0  0  0
   -6.1590   24.9090  -29.6820 C   0  0  0  0  0  0  0  0  0  0  0  0
   -5.1730   25.7230  -30.4590 C   0  0  0  0  0  0  0  0  0  0  0  0
   -3.8840   25.2490  -30.5350 O   0  0  0  0  0  0  0  0  0  0  0  0
   -3.2510   24.1880  -29.9970 C   0  0  0  0  0  0  0  0  0  0  0  0
   -2.4750   24.1590  -28.8640 C   0  0  0  0  0  0  0  0  0  0  0  0
   -1.8600   23.0130  -28.3880 C   0  0  0  0  0  0  0  0  0  0  0  0
   -2.0050   21.8130  -29.0490 C   0  0  0  0  0  0  0  0  0  0  0  0
   -2.7770   21.8130  -30.1880 C   0  0  0  0  0  0  0  0  0  0  0  0
   -3.0860   20.8030  -31.0190 N   0  0  0  0  0  0  0  0  0  0  0  0
   -3.8760   21.2760  -32.0050 C   0  0  0  0  0  0  0  0  0  0  0  0
   -4.3920   20.4030  -33.0930 C   0  0  0  0  0  0  0  0  0  0  0  0
   -5.6780   19.7630  -32.7020 C   0  0  0  0  0  0  0  0  0  0  0  0
   -5.7510   18.6270  -31.9230 C   0  0  0  0  0  0  0  0  0  0  0  0
   -7.0160   18.1100  -31.6180 C   0  0  0  0  0  0  0  0  0  0  0  0
   -8.1750   18.7040  -32.0720 C   0  0  0  0  0  0  0  0  0  0  0  0
   -8.0640   19.8520  -32.8580 C   0  0  0  0  0  0  0  0  0  0  0  0
   -6.8340   20.3810  -33.1730 C   0  0  0  0  0  0  0  0  0  0  0  0
   -4.0520   22.5780  -31.7770 N   0  0  0  0  0  0  0  0  0  0  0  0
   -3.3880   22.9540  -30.6590 C   0  0  0  0  0  0  0  0  0  0  0  0
   -8.8283   21.6981  -29.6024 H   0  0  0  0  0  0  0  0  0  0  0  0
   -8.8429   22.7088  -31.0873 H   0  0  0  0  0  0  0  0  0  0  0  0
   -7.9957   21.1249  -31.0873 H   0  0  0  0  0  0  0  0  0  0  0  0
   -6.9141   22.7187  -28.9270 H   0  0  0  0  0  0  0  0  0  0  0  0
   -6.0793   22.1525  -30.4015 H   0  0  0  0  0  0  0  0  0  0  0  0
   -5.3949   24.2141  -31.9216 H   0  0  0  0  0  0  0  0  0  0  0  0
   -6.7645   23.1696  -32.4313 H   0  0  0  0  0  0  0  0  0  0  0  0
   -6.9492   24.9564  -32.4313 H   0  0  0  0  0  0  0  0  0  0  0  0
   -6.8278   25.5900  -29.1352 H   0  0  0  0  0  0  0  0  0  0  0  0
   -5.5951   24.2629  -28.9931 H   0  0  0  0  0  0  0  0  0  0  0  0
   -5.5540   25.8103  -31.4872 H   0  0  0  0  0  0  0  0  0  0  0  0
   -5.0930   26.6714  -29.9075 H   0  0  0  0  0  0  0  0  0  0  0  0
   -2.3345   25.0959  -28.3049 H   0  0  0  0  0  0  0  0  0  0  0  0
   -1.2502   23.0614  -27.4738 H   0  0  0  0  0  0  0  0  0  0  0  0
   -1.5242   20.8942  -28.6820 H   0  0  0  0  0  0  0  0  0  0  0  0
   -2.7560   19.8150  -30.9040 H   0  0  0  0  0  0  0  0  0  0  0  0
   -4.5530   21.0109  -33.9955 H   0  0  0  0  0  0  0  0  0  0  0  0
   -3.6526   19.6119  -33.2866 H   0  0  0  0  0  0  0  0  0  0  0  0
   -4.8380   18.1393  -31.5506 H   0  0  0  0  0  0  0  0  0  0  0  0
   -7.0875   17.2039  -30.9984 H   0  0  0  0  0  0  0  0  0  0  0  0
   -9.1604   18.2843  -31.8213 H   0  0  0  0  0  0  0  0  0  0  0  0
   -8.9753   20.3418  -33.2317 H   0  0  0  0  0  0  0  0  0  0  0  0
   -6.7637   21.2868  -33.7932 H   0  0  0  0  0  0  0  0  0  0  0  0
  1  2  1  0
  2  3  1  0
  3  4  1  0
  3  5  1  0
  5  6  1  0
  6  7  1  0
  7  8  1  0
  8  9  2  0
  9 10  1  0
 10 11  2  0
 11 12  1  0
 12 13  1  0
 13 14  1  0
 14 15  1  0
 15 16  1  0
 16 17  2  0
 17 18  1  0
 18 19  2  0
 19 20  1  0
 20 21  2  0
 14 22  2  0
 22 23  1  0
 23  8  1  0
 23 12  2  0
 21 16  1  0
  1 24  1  0
  1 25  1  0
  1 26  1  0
  2 27  1  0
  2 28  1  0
  4 29  1  0
  4 30  1  0
  4 31  1  0
  5 32  1  0
  5 33  1  0
  6 34  1  0
  6 35  1  0
  9 36  1  0
 10 37  1  0
 11 38  1  0
 13 39  1  0
 15 40  1  0
 15 41  1  0
 17 42  1  0
 18 43  1  0
 19 44  1  0
 20 45  1  0
 21 46  1  0
M  END
>  <smiles>  (2) 
CCN(C)CCOc1cccc2[nH]c(Cc3ccccc3)nc12

>  <score_type>  (2) 
oracle

>  <origin>  (2) 
adg

>  <m_score__min__energy>  (2) 
-8.0299999999999994

>  <m_primary>  (2) 
energy

$$$$
2:0
     RDKit          3D

 59 61  0  0  0  0  0  0  0  0999 V2000
   -4.6710   17.5200  -33.9660 C   0  0  0  0  0  0  0  0  0  0  0  0
   -4.9980   18.2140  -32.7670 O   0  0  0  0  0  0  0  0  0  0  0  0
   -6.2620   18.7450  -32.4610 C   0  0  0  0  0  0  0  0  0  0  0  0
   -7.3760   17.9000  -32.2990 C   0  0  0  0  0  0  0  0  0  0  0  0
   -8.6250   18.4230  -31.9810 C   0  0  0  0  0  0  0  0  0  0  0  0
   -8.7920   19.7950  -31.8320 C   0  0  0  0  0  0  0  0  0  0  0  0
   -7.7100   20.6710  -32.0160 C   0  0  0  0  0  0  0  0  0  0  0  0
   -7.9340   22.1680  -31.8430 C   0  0  0  0  0  0  0  0  0  0  0  0
   -6.7690   22.9120  -31.2950 N   0  0  0  0  0  0  0  0  0  0  0  0
   -6.4880   24.1700  -32.0290 C   0  0  0  0  0  0  0  0  0  0  0  0
   -5.6390   25.1720  -31.2120 C   0  0  0  0  0  0  0  0  0  0  0  0
   -4.7650   24.5110  -30.2190 N   0  0  0  0  0  0  0  0  0  0  0  0
   -3.5920   23.8500  -30.8330 C   0  0  0  0  0  0  0  0  0  0  0  0
   -3.0550   22.7800  -29.9200 C   0  0  0  0  0  0  0  0  0  0  0  0
   -2.4650   23.1150  -28.6930 C   0  0  0  0  0  0  0  0  0  0  0  0
   -1.9830   22.1150  -27.8440 C   0  0  0  0  0  0  0  0  0  0  0  0
   -2.0800   20.7530  -28.2000 C   0  0  0  0  0  0  0  0  0  0  0  0
   -1.5780   19.7130  -27.3190 N   0  0  0  0  0  0  0  0  0  0  0  0
   -0.2270   19.1660  -27.5010 C   0  0  0  0  0  0  0  0  0  0  0  0
   -2.4120   19.1900  -26.2290 C   0  0  0  0  0  0  0  0  0  0  0  0
   -2.6800   20.4290  -29.4360 C   0  0  0  0  0  0  0  0  0  0  0  0
   -3.1610   21.4310  -30.2830 C   0  0  0  0  0  0  0  0  0  0  0  0
   -5.5180   23.6370  -29.2820 C   0  0  0  0  0  0  0  0  0  0  0  0
   -6.8690   23.1470  -29.8440 C   0  0  0  0  0  0  0  0  0  0  0  0
   -6.4270   20.1490  -32.3080 C   0  0  0  0  0  0  0  0  0  0  0  0
   -5.3640   21.0680  -32.4260 O   0  0  0  0  0  0  0  0  0  0  0  0
   -4.2940   21.0210  -33.3640 C   0  0  0  0  0  0  0  0  0  0  0  0
   -4.2144   16.5510  -33.7159 H   0  0  0  0  0  0  0  0  0  0  0  0
   -5.5854   17.3535  -34.5543 H   0  0  0  0  0  0  0  0  0  0  0  0
   -3.9605   18.1192  -34.5543 H   0  0  0  0  0  0  0  0  0  0  0  0
   -7.2575   16.8137  -32.4253 H   0  0  0  0  0  0  0  0  0  0  0  0
   -9.4836   17.7486  -31.8469 H   0  0  0  0  0  0  0  0  0  0  0  0
   -9.7807   20.1981  -31.5676 H   0  0  0  0  0  0  0  0  0  0  0  0
   -8.1800   22.5935  -32.8271 H   0  0  0  0  0  0  0  0  0  0  0  0
   -8.7456   22.2776  -31.1086 H   0  0  0  0  0  0  0  0  0  0  0  0
   -5.9520   22.2730  -31.4420 H   0  0  0  0  0  0  0  0  0  0  0  0
   -5.9447   23.9225  -32.9529 H   0  0  0  0  0  0  0  0  0  0  0  0
   -7.4548   24.6518  -32.2365 H   0  0  0  0  0  0  0  0  0  0  0  0
   -5.0087   25.7463  -31.9070 H   0  0  0  0  0  0  0  0  0  0  0  0
   -6.3350   25.8201  -30.6592 H   0  0  0  0  0  0  0  0  0  0  0  0
   -3.8915   23.3945  -31.7884 H   0  0  0  0  0  0  0  0  0  0  0  0
   -2.8069   24.6016  -31.0023 H   0  0  0  0  0  0  0  0  0  0  0  0
   -2.3810   24.1711  -28.3969 H   0  0  0  0  0  0  0  0  0  0  0  0
   -1.5217   22.3935  -26.8850 H   0  0  0  0  0  0  0  0  0  0  0  0
    0.2294   18.9812  -26.5173 H   0  0  0  0  0  0  0  0  0  0  0  0
   -0.2864   18.2211  -28.0610 H   0  0  0  0  0  0  0  0  0  0  0  0
    0.3878   19.8861  -28.0610 H   0  0  0  0  0  0  0  0  0  0  0  0
   -1.9681   19.4683  -25.2618 H   0  0  0  0  0  0  0  0  0  0  0  0
   -3.4234   19.6159  -26.3044 H   0  0  0  0  0  0  0  0  0  0  0  0
   -2.4691   18.0941  -26.3044 H   0  0  0  0  0  0  0  0  0  0  0  0
   -2.7700   19.3746  -29.7362 H   0  0  0  0  0  0  0  0  0  0  0  0
   -3.6263   21.1586  -31.2418 H   0  0  0  0  0  0  0  0  0  0  0  0
   -4.8978   22.7581  -29.0520 H   0  0  0  0  0  0  0  0  0  0  0  0
   -5.7398   24.2384  -28.3881 H   0  0  0  0  0  0  0  0  0  0  0  0
   -7.1503   22.2086  -29.3438 H   0  0  0  0  0  0  0  0  0  0  0  0
   -7.6317   23.9180  -29.6600 H   0  0  0  0  0  0  0  0  0  0  0  0
   -3.3358   20.9789  -32.8254 H   0  0  0  0  0  0  0  0  0  0  0  0
   -4.3992   20.1266  -33.9957 H   0  0  0  0  0  0  0  0  0  0  0  0
   -4.3203   21.9212  -33.9957 H   0  0  0  0  0  0  0  0  0  0  0  0
  1  2  1  0
  2  3  1  0
  3  4  2  0
  4  5  1  0
  5  6  2  0
  6  7  1  0
  7  8  1  0
  8  9  1  0
  9 10  1  0
 10 11  1  0
 11 12  1  0
 12 13  1  0
 13 14  1  0
 14 15  2  0
 15 16  1  0
 16 17  2  0
 17 18  1  0
 18 19  1  0
 18 20  1  0
 17 21  1  0
 21 22  2  0
 12 23  1  0
 23 24  1  0
  7 25  2  0
 25 26  1  0
 26 27  1  0
 25  3  1  0
 24  9  1  0
 22 14  1  0
  1 28  1  0
  1 29  1  0
  1 30  1  0
  4 31  1  0
  5 32  1  0
  6 33  1  0
  8 34  1  0
  8 35  1  0
  9 36  1  0
 10 37  1  0
 10 38  1  0
 11 39  1  0
 11 40  1  0
 13 41  1  0
 13 42  1  0
 15 43  1  0
 16 44  1  0
 19 45  1  0
 19 46  1  0
 19 47  1  0
 20 48  1  0
 20 49  1  0
 20 50  1  0
 21 51  1  0
 22 52  1  0
 23 53  1  0
 23 54  1  0
 24 55  1  0
 24 56  1  0
 27 57  1  0
 27 58  1  0
 27 59  1  0
M  CHG  1   9   1
M  END
>  <UniqueID>  (3) 
2

>  <SMILES>  (3) 
COc1cccc(C[NH+]2CCN(Cc3ccc(N(C)C)cc3)CC2)c1OC

>  <Energy>  (3) 
80.4127914741471

>  <Genealogy>  (3) 
COc1cccc(C[NH+]2CCN(Cc3ccc(N(C)C)cc3)CC2)c1OC (protonated)
COc1cccc(C[NH+]2CCN(Cc3ccc(N(C)C)cc3)CC2)c1OC (3D coordinates assigned)
COc1cccc(C[NH+]2CCN(Cc3ccc(N(C)C)cc3)CC2)c1OC (nonaromatic ring conformer: 80.4127914741471 kcal/mol)

>  <smiles>  (3) 
COc1cccc(CN2CCN(Cc3ccc(N(C)C)cc3)CC2)c1OC

>  <score_type>  (3) 
oracle

>  <origin>  (3) 
adg

>  <m_score__min__energy>  (3) 
-8.0899999999999999

>  <m_primary>  (3) 
energy

$$$$
3:0
     RDKit          3D

 41 42  0  0  0  0  0  0  0  0999 V2000
   -6.1090   25.6820  -29.6600 C   0  0  0  0  0  0  0  0  0  0  0  0
   -5.3760   25.1720  -30.8950 C   0  0  0  0  0  0  0  0  0  0  0  0
   -3.9330   25.3690  -30.7530 N   0  0  0  0  0  0  0  0  0  0  0  0
   -3.1940   24.1590  -29.7400 S   0  0  0  0  0  0  0  0  0  0  0  0
   -4.0010   23.9510  -28.4890 O   0  0  0  0  0  0  0  0  0  0  0  0
   -1.8510   24.6810  -29.3110 O   0  0  0  0  0  0  0  0  0  0  0  0
   -2.9310   22.6470  -30.6420 C   0  0  0  0  0  0  0  0  0  0  0  0
   -1.5920   22.2690  -30.8500 C   0  0  0  0  0  0  0  0  0  0  0  0
   -1.2700   21.0950  -31.5290 C   0  0  0  0  0  0  0  0  0  0  0  0
   -2.2780   20.2760  -32.0270 C   0  0  0  0  0  0  0  0  0  0  0  0
   -3.6170   20.6300  -31.8570 C   0  0  0  0  0  0  0  0  0  0  0  0
   -4.5820   19.8220  -32.3720 N   0  0  0  0  0  0  0  0  0  0  0  0
   -5.9090   20.1030  -32.2730 C   0  0  0  0  0  0  0  0  0  0  0  0
   -6.8760   19.1910  -32.8490 N   0  0  0  0  0  0  0  0  0  0  0  0
   -8.3120   19.4660  -32.6840 C   0  0  0  0  0  0  0  0  0  0  0  0
   -8.9080   18.5850  -31.5930 C   0  0  0  0  0  0  0  0  0  0  0  0
   -6.4660   17.9550  -33.5390 C   0  0  0  0  0  0  0  0  0  0  0  0
   -5.7430   18.2680  -34.8470 C   0  0  0  0  0  0  0  0  0  0  0  0
   -6.3020   21.2710  -31.6030 C   0  0  0  0  0  0  0  0  0  0  0  0
   -5.3380   22.1220  -31.0620 C   0  0  0  0  0  0  0  0  0  0  0  0
   -3.9670   21.8190  -31.1680 C   0  0  0  0  0  0  0  0  0  0  0  0
   -5.5955   25.3247  -28.7552 H   0  0  0  0  0  0  0  0  0  0  0  0
   -6.1173   26.7819  -29.6667 H   0  0  0  0  0  0  0  0  0  0  0  0
   -7.1432   25.3074  -29.6667 H   0  0  0  0  0  0  0  0  0  0  0  0
   -5.5840   24.0994  -31.0221 H   0  0  0  0  0  0  0  0  0  0  0  0
   -5.7267   25.7333  -31.7736 H   0  0  0  0  0  0  0  0  0  0  0  0
   -0.7843   22.9117  -30.4698 H   0  0  0  0  0  0  0  0  0  0  0  0
   -0.2157   20.8154  -31.6714 H   0  0  0  0  0  0  0  0  0  0  0  0
   -2.0190   19.3470  -32.5561 H   0  0  0  0  0  0  0  0  0  0  0  0
   -8.4480   20.5224  -32.4093 H   0  0  0  0  0  0  0  0  0  0  0  0
   -8.8246   19.2489  -33.6327 H   0  0  0  0  0  0  0  0  0  0  0  0
   -8.6353   18.9881  -30.6065 H   0  0  0  0  0  0  0  0  0  0  0  0
  -10.0034   18.5687  -31.6924 H   0  0  0  0  0  0  0  0  0  0  0  0
   -8.5156   17.5622  -31.6924 H   0  0  0  0  0  0  0  0  0  0  0  0
   -5.7914   17.3848  -32.8835 H   0  0  0  0  0  0  0  0  0  0  0  0
   -7.3678   17.3692  -33.7705 H   0  0  0  0  0  0  0  0  0  0  0  0
   -4.7541   18.6961  -34.6260 H   0  0  0  0  0  0  0  0  0  0  0  0
   -5.6202   17.3425  -35.4286 H   0  0  0  0  0  0  0  0  0  0  0  0
   -6.3338   18.9909  -35.4286 H   0  0  0  0  0  0  0  0  0  0  0  0
   -7.3698   21.5158  -31.5042 H   0  0  0  0  0  0  0  0  0  0  0  0
   -5.6528   23.0411  -30.5462 H   0  0  0  0  0  0  0  0  0  0  0  0
  1  2  1  0
  2  3  1  0
  3  4  1  0
  4  5  2  0
  4  6  2  0
  4  7  1  0
  7  8  2  0
  8  9  1  0
  9 10  2  0
 10 11  1  0
 11 12  2  0
 12 13  1  0
 13 14  1  0
 14 15  1  0
 15 16  1  0
 14 17  1  0
 17 18  1  0
 13 19  2  0
 19 20  1  0
 20 21  2  0
 21  7  1  0
 21 11  1  0
  1 22  1  0
  1 23  1  0
  1 24  1  0
  2 25  1  0
  2 26  1  0
  8 27  1  0
  9 28  1  0
 10 29  1  0
 15 30  1  0
 15 31  1  0
 16 32  1  0
 16 33  1  0
 16 34  1  0
 17 35  1  0
 17 36  1  0
 18 37  1  0
 18 38  1  0
 18 39  1  0
 19 40  1  0
 20 41  1  0
M  CHG  1   3  -1
M  END
>  <UniqueID>  (4) 
3

>  <SMILES>  (4) 
CC[N-]S(=O)(=O)c1cccc2nc(N(CC)CC)ccc12

>  <Energy>  (4) 
42.04164887995126

>  <Genealogy>  (4) 
CC[N-]S(=O)(=O)c1cccc2nc(N(CC)CC)ccc12 (protonated)
CC[N-]S(=O)(=O)c1cccc2nc(N(CC)CC)ccc12 (3D coordinates assigned)
CC[N-]S(=O)(=O)c1cccc2nc(N(CC)CC)ccc12 (optimized conformer: 42.04164887995126 kcal/mol)

>  <smiles>  (4) 
CCNS(=O)(=O)c1cccc2nc(N(CC)CC)ccc12

>  <score_type>  (4) 
oracle

>  <origin>  (4) 
adg

>  <m_score__min__energy>  (4) 
-8.8300000000000001

>  <m_primary>  (4) 
energy

$$$$
4:0
     RDKit          3D

 85 89  0  0  0  0  0  0  0  0999 V2000
   -2.5890   24.2300  -29.1350 C   0  0  0  0  0  0  0  0  0  0  0  0
   -3.4160   24.0550  -30.4120 C   0  0  0  0  0  0  0  0  0  0  0  0
   -4.2220   25.2470  -30.7260 N   0  0  0  0  0  0  0  0  0  0  0  0
   -5.6570   24.9490  -30.8400 C   0  0  0  0  0  0  0  0  0  0  0  0
   -5.8750   23.4370  -30.9310 C   0  0  0  0  0  0  0  0  0  0  0  0
   -5.8870   22.9950  -32.3260 N   0  0  0  0  0  0  0  0  0  0  0  0
   -5.9140   21.6040  -32.6820 C   0  0  0  0  0  0  0  0  0  0  0  0
   -7.1030   20.8620  -32.5670 C   0  0  0  0  0  0  0  0  0  0  0  0
   -8.3110   21.4840  -32.1840 C   0  0  0  0  0  0  0  0  0  0  0  0
   -9.4690   20.7350  -31.9920 C   0  0  0  0  0  0  0  0  0  0  0  0
   -9.4430   19.3570  -32.1750 C   0  0  0  0  0  0  0  0  0  0  0  0
   -8.2730   18.7270  -32.5950 C   0  0  0  0  0  0  0  0  0  0  0  0
   -7.0910   19.4700  -32.8510 C   0  0  0  0  0  0  0  0  0  0  0  0
   -5.9470   18.8720  -33.3480 N   0  0  0  0  0  0  0  0  0  0  0  0
   -6.0100   17.5000  -33.9000 C   0  0  0  0  0  0  0  0  0  0  0  0
   -4.7510   19.5670  -33.3630 C   0  0  0  0  0  0  0  0  0  0  0  0
   -3.5150   18.9220  -33.6320 C   0  0  0  0  0  0  0  0  0  0  0  0
   -2.3130   19.6330  -33.6780 C   0  0  0  0  0  0  0  0  0  0  0  0
   -1.1280   18.9260  -33.9240 O   0  0  0  0  0  0  0  0  0  0  0  0
    0.1720   19.3830  -33.5580 C   0  0  0  0  0  0  0  0  0  0  0  0
    1.0790   18.1940  -33.1620 C   0  0  0  0  0  0  0  0  0  0  0  0
    0.7720   17.5220  -31.8550 N   0  0  1  0  0  0  0  0  0  0  0  0
    0.0700   16.2330  -32.0970 C   0  0  0  0  0  0  0  0  0  0  0  0
    2.0840   17.2270  -31.1820 C   0  0  0  0  0  0  0  0  0  0  0  0
    1.9620   17.1680  -29.6460 C   0  0  0  0  0  0  0  0  0  0  0  0
    1.5380   18.4770  -29.0480 N   0  0  2  0  0  0  0  0  0  0  0  0
    2.7430   19.2740  -28.6910 C   0  0  0  0  0  0  0  0  0  0  0  0
    0.7010   18.2490  -27.8220 C   0  0  0  0  0  0  0  0  0  0  0  0
   -0.3790   19.2930  -27.5800 C   0  0  0  0  0  0  0  0  0  0  0  0
   -0.0400   20.6560  -27.5080 C   0  0  0  0  0  0  0  0  0  0  0  0
   -1.0270   21.6230  -27.3010 C   0  0  0  0  0  0  0  0  0  0  0  0
   -2.3640   21.2400  -27.1740 C   0  0  0  0  0  0  0  0  0  0  0  0
   -2.7170   19.8920  -27.2640 C   0  0  0  0  0  0  0  0  0  0  0  0
   -1.7330   18.9220  -27.4740 C   0  0  0  0  0  0  0  0  0  0  0  0
    0.7380   19.2820  -30.0320 C   0  0  0  0  0  0  0  0  0  0  0  0
   -0.0880   18.3950  -30.9840 C   0  0  0  0  0  0  0  0  0  0  0  0
   -2.3270   21.0190  -33.4720 C   0  0  0  0  0  0  0  0  0  0  0  0
   -3.5190   21.6710  -33.1780 C   0  0  0  0  0  0  0  0  0  0  0  0
   -4.7310   20.9580  -33.0800 C   0  0  0  0  0  0  0  0  0  0  0  0
   -3.2371   24.0929  -28.2568 H   0  0  0  0  0  0  0  0  0  0  0  0
   -1.7820   23.4827  -29.1155 H   0  0  0  0  0  0  0  0  0  0  0  0
   -2.1539   25.2401  -29.1155 H   0  0  0  0  0  0  0  0  0  0  0  0
   -2.7327   23.8593  -31.2515 H   0  0  0  0  0  0  0  0  0  0  0  0
   -4.1077   23.2149  -30.2514 H   0  0  0  0  0  0  0  0  0  0  0  0
   -3.8830   25.6730  -31.6200 H   0  0  0  0  0  0  0  0  0  0  0  0
   -6.1810   25.3394  -29.9551 H   0  0  0  0  0  0  0  0  0  0  0  0
   -6.0522   25.4249  -31.7496 H   0  0  0  0  0  0  0  0  0  0  0  0
   -5.0621   22.9230  -30.3972 H   0  0  0  0  0  0  0  0  0  0  0  0
   -6.8467   23.1937  -30.4765 H   0  0  0  0  0  0  0  0  0  0  0  0
   -5.8300   23.7090  -33.0880 H   0  0  0  0  0  0  0  0  0  0  0  0
   -8.3378   22.5736  -32.0354 H   0  0  0  0  0  0  0  0  0  0  0  0
  -10.4039   21.2333  -31.6957 H   0  0  0  0  0  0  0  0  0  0  0  0
  -10.3490   18.7620  -31.9876 H   0  0  0  0  0  0  0  0  0  0  0  0
   -8.2654   17.6354  -32.7304 H   0  0  0  0  0  0  0  0  0  0  0  0
   -6.0433   16.7738  -33.0745 H   0  0  0  0  0  0  0  0  0  0  0  0
   -6.9139   17.3945  -34.5179 H   0  0  0  0  0  0  0  0  0  0  0  0
   -5.1195   17.3121  -34.5179 H   0  0  0  0  0  0  0  0  0  0  0  0
   -3.5034   17.8363  -33.8085 H   0  0  0  0  0  0  0  0  0  0  0  0
    0.6221   19.9119  -34.4110 H   0  0  0  0  0  0  0  0  0  0  0  0
    0.0790   20.0591  -32.6953 H   0  0  0  0  0  0  0  0  0  0  0  0
    0.9998   17.4352  -33.9544 H   0  0  0  0  0  0  0  0  0  0  0  0
    2.0841   18.6237  -33.0388 H   0  0  0  0  0  0  0  0  0  0  0  0
   -0.1837   15.7671  -31.1334 H   0  0  0  0  0  0  0  0  0  0  0  0
   -0.8514   16.4189  -32.6683 H   0  0  0  0  0  0  0  0  0  0  0  0
    0.7261   15.5598  -32.6683 H   0  0  0  0  0  0  0  0  0  0  0  0
    2.8021   18.0166  -31.4484 H   0  0  0  0  0  0  0  0  0  0  0  0
    2.4212   16.2387  -31.5278 H   0  0  0  0  0  0  0  0  0  0  0  0
    2.9397   16.8894  -29.2258 H   0  0  0  0  0  0  0  0  0  0  0  0
    1.1879   16.4253  -29.4025 H   0  0  0  0  0  0  0  0  0  0  0  0
    2.8324   19.3331  -27.5962 H   0  0  0  0  0  0  0  0  0  0  0  0
    3.6391   18.7899  -29.1064 H   0  0  0  0  0  0  0  0  0  0  0  0
    2.6482   20.2881  -29.1064 H   0  0  0  0  0  0  0  0  0  0  0  0
    0.2124   17.2683  -27.9194 H   0  0  0  0  0  0  0  0  0  0  0  0
    1.3871   18.3106  -26.9644 H   0  0  0  0  0  0  0  0  0  0  0  0
    1.0107   20.9632  -27.6155 H   0  0  0  0  0  0  0  0  0  0  0  0
   -0.7510   22.6859  -27.2381 H   0  0  0  0  0  0  0  0  0  0  0  0
   -3.1397   22.0009  -27.0029 H   0  0  0  0  0  0  0  0  0  0  0  0
   -3.7714   19.5930  -27.1695 H   0  0  0  0  0  0  0  0  0  0  0  0
   -2.0180   17.8628  -27.5569 H   0  0  0  0  0  0  0  0  0  0  0  0
    1.4279   19.8952  -30.6303 H   0  0  0  0  0  0  0  0  0  0  0  0
    0.0349   19.9063  -29.4611 H   0  0  0  0  0  0  0  0  0  0  0  0
   -0.6981   19.0441  -31.6293 H   0  0  0  0  0  0  0  0  0  0  0  0
   -0.7128   17.7345  -30.3649 H   0  0  0  0  0  0  0  0  0  0  0  0
   -1.3914   21.5931  -33.5432 H   0  0  0  0  0  0  0  0  0  0  0  0
   -3.5164   22.7595  -33.0195 H   0  0  0  0  0  0  0  0  0  0  0  0
  1  2  1  0
  2  3  1  0
  3  4  1  0
  4  5  1  0
  5  6  1  0
  6  7  1  0
  7  8  2  0
  8  9  1  0
  9 10  2  0
 10 11  1  0
 11 12  2  0
 12 13  1  0
 13 14  2  0
 14 15  1  0
 14 16  1  0
 16 17  2  0
 17 18  1  0
 18 19  1  0
 19 20  1  0
 20 21  1  0
 22 21  1  6
 22 23  1  0
 22 24  1  0
 24 25  1  0
 25 26  1  0
 26 27  1  1
 26 28  1  0
 28 29  1  0
 29 30  2  0
 30 31  1  0
 31 32  2  0
 32 33  1  0
 33 34  2  0
 26 35  1  0
 35 36  1  0
 18 37  2  0
 37 38  1  0
 38 39  2  0
 39  7  1  0
 13  8  1  0
 39 16  1  0
 36 22  1  0
 34 29  1  0
  1 40  1  0
  1 41  1  0
  1 42  1  0
  2 43  1  0
  2 44  1  0
  3 45  1  0
  4 46  1  0
  4 47  1  0
  5 48  1  0
  5 49  1  0
  6 50  1  0
  9 51  1  0
 10 52  1  0
 11 53  1  0
 12 54  1  0
 15 55  1  0
 15 56  1  0
 15 57  1  0
 17 58  1  0
 20 59  1  0
 20 60  1  0
 21 61  1  0
 21 62  1  0
 23 63  1  0
 23 64  1  0
 23 65  1  0
 24 66  1  0
 24 67  1  0
 25 68  1  0
 25 69  1  0
 27 70  1  0
 27 71  1  0
 27 72  1  0
 28 73  1  0
 28 74  1  0
 30 75  1  0
 31 76  1  0
 32 77  1  0
 33 78  1  0
 34 79  1  0
 35 80  1  0
 35 81  1  0
 36 82  1  0
 36 83  1  0
 37 84  1  0
 38 85  1  0
M  CHG  3  14   1  22   1  26   1
M  END
>  <UniqueID>  (5) 
4

>  <SMILES>  (5) 
CCNCCNc1c2ccccc2[n+](C)c2cc(OCC[N+]3(C)CC[N+](C)(Cc4ccccc4)CC3)ccc12

>  <Energy>  (5) 
143.78476370869475

>  <Genealogy>  (5) 
CCNCCNc1c2ccccc2[n+](C)c2cc(OCC[N+]3(C)CC[N+](C)(Cc4ccccc4)CC3)ccc12 (3D coordinates assigned)
CCNCCNc1c2ccccc2[n+](C)c2cc(OCC[N+]3(C)CC[N+](C)(Cc4ccccc4)CC3)ccc12 (nonaromatic ring conformer: 143.78476370869475 kcal/mol)

>  <smiles>  (5) 
CCNCCNc1c2ccccc2[n+](C)c2cc(OCC[N+]3(C)CC[N+](C)(Cc4ccccc4)CC3)ccc12

>  <score_type>  (5) 
oracle

>  <origin>  (5) 
adg

>  <m_score__min__energy>  (5) 
-9.4800000000000004

>  <m_primary>  (5) 
energy

$$$$
5:0
     RDKit          3D

 50 52  0  0  0  0  0  0  0  0999 V2000
   -6.1170   25.1230  -29.6480 C   0  0  0  0  0  0  0  0  0  0  0  0
   -5.0210   25.2880  -30.6990 C   0  0  0  0  0  0  0  0  0  0  0  0
   -3.9090   24.3440  -30.4680 N   0  0  0  0  0  0  0  0  0  0  0  0
   -3.2910   24.5510  -29.1470 C   0  0  0  0  0  0  0  0  0  0  0  0
   -4.2300   22.9200  -30.7370 C   0  0  0  0  0  0  0  0  0  0  0  0
   -3.6320   22.3340  -32.0390 C   0  0  0  0  0  0  0  0  0  0  0  0
   -4.6670   21.8710  -32.9670 N   0  0  0  0  0  0  0  0  0  0  0  0
   -5.0260   20.4810  -32.9980 C   0  0  0  0  0  0  0  0  0  0  0  0
   -4.0560   19.5370  -33.3840 C   0  0  0  0  0  0  0  0  0  0  0  0
   -2.7780   19.9500  -33.8240 C   0  0  0  0  0  0  0  0  0  0  0  0
   -1.8370   19.0190  -34.2530 C   0  0  0  0  0  0  0  0  0  0  0  0
   -2.1490   17.6640  -34.2600 C   0  0  0  0  0  0  0  0  0  0  0  0
   -0.8710   16.3950  -34.8950 Br  0  0  0  0  0  0  0  0  0  0  0  0
   -3.3970   17.2320  -33.8070 C   0  0  0  0  0  0  0  0  0  0  0  0
   -4.3610   18.1550  -33.3240 C   0  0  0  0  0  0  0  0  0  0  0  0
   -5.5710   17.7370  -32.8090 N   0  0  0  0  0  0  0  0  0  0  0  0
   -5.7620   16.3170  -32.4390 C   0  0  0  0  0  0  0  0  0  0  0  0
   -6.5930   18.6480  -32.6140 C   0  0  0  0  0  0  0  0  0  0  0  0
   -7.9180   18.2140  -32.3680 C   0  0  0  0  0  0  0  0  0  0  0  0
   -8.9400   19.1200  -32.1250 C   0  0  0  0  0  0  0  0  0  0  0  0
   -8.6870   20.4810  -32.1480 C   0  0  0  0  0  0  0  0  0  0  0  0
   -7.4020   20.9710  -32.4410 C   0  0  0  0  0  0  0  0  0  0  0  0
   -7.1780   22.3560  -32.5220 O   0  0  0  0  0  0  0  0  0  0  0  0
   -8.0300   23.3550  -31.9640 C   0  0  0  0  0  0  0  0  0  0  0  0
   -6.3370   20.0510  -32.6770 C   0  0  0  0  0  0  0  0  0  0  0  0
   -5.6744   25.1896  -28.6432 H   0  0  0  0  0  0  0  0  0  0  0  0
   -6.8666   25.9184  -29.7720 H   0  0  0  0  0  0  0  0  0  0  0  0
   -6.5992   24.1421  -29.7720 H   0  0  0  0  0  0  0  0  0  0  0  0
   -5.4487   25.1009  -31.6950 H   0  0  0  0  0  0  0  0  0  0  0  0
   -4.6263   26.3125  -30.6309 H   0  0  0  0  0  0  0  0  0  0  0  0
   -4.0191   24.3071  -28.3593 H   0  0  0  0  0  0  0  0  0  0  0  0
   -2.4110   23.8986  -29.0476 H   0  0  0  0  0  0  0  0  0  0  0  0
   -2.9815   25.6019  -29.0476 H   0  0  0  0  0  0  0  0  0  0  0  0
   -3.8538   22.3230  -29.8932 H   0  0  0  0  0  0  0  0  0  0  0  0
   -5.3221   22.8759  -30.8610 H   0  0  0  0  0  0  0  0  0  0  0  0
   -3.0343   23.1126  -32.5355 H   0  0  0  0  0  0  0  0  0  0  0  0
   -3.0135   21.4667  -31.7647 H   0  0  0  0  0  0  0  0  0  0  0  0
   -4.9200   22.4450  -33.8020 H   0  0  0  0  0  0  0  0  0  0  0  0
   -2.5241   21.0203  -33.8274 H   0  0  0  0  0  0  0  0  0  0  0  0
   -0.8445   19.3556  -34.5872 H   0  0  0  0  0  0  0  0  0  0  0  0
   -3.6371   16.1587  -33.8247 H   0  0  0  0  0  0  0  0  0  0  0  0
   -5.7748   16.2221  -31.3432 H   0  0  0  0  0  0  0  0  0  0  0  0
   -6.7167   15.9564  -32.8494 H   0  0  0  0  0  0  0  0  0  0  0  0
   -4.9365   15.7169  -32.8494 H   0  0  0  0  0  0  0  0  0  0  0  0
   -8.1415   17.1369  -32.3696 H   0  0  0  0  0  0  0  0  0  0  0  0
   -9.9560   18.7555  -31.9131 H   0  0  0  0  0  0  0  0  0  0  0  0
   -9.5019   21.1883  -31.9343 H   0  0  0  0  0  0  0  0  0  0  0  0
   -7.9858   23.3031  -30.8661 H   0  0  0  0  0  0  0  0  0  0  0  0
   -7.6972   24.3489  -32.2978 H   0  0  0  0  0  0  0  0  0  0  0  0
   -9.0640   23.1833  -32.2978 H   0  0  0  0  0  0  0  0  0  0  0  0
  1  2  1  0
  2  3  1  0
  3  4  1  0
  3  5  1  0
  5  6  1  0
  6  7  1  0
  7  8  1  0
  8  9  2  0
  9 10  1  0
 10 11  2  0
 11 12  1  0
 12 13  1  0
 12 14  2  0
 14 15  1  0
 15 16  2  0
 16 17  1  0
 16 18  1  0
 18 19  2  0
 19 20  1  0
 20 21  2  0
 21 22  1  0
 22 23  1  0
 23 24  1  0
 22 25  2  0
 25  8  1  0
 15  9  1  0
 25 18  1  0
  1 26  1  0
  1 27  1  0
  1 28  1  0
  2 29  1  0
  2 30  1  0
  4 31  1  0
  4 32  1  0
  4 33  1  0
  5 34  1  0
  5 35  1  0
  6 36  1  0
  6 37  1  0
  7 38  1  0
 10 39  1  0
 11 40  1  0
 14 41  1  0
 17 42  1  0
 17 43  1  0
 17 44  1  0
 19 45  1  0
 20 46  1  0
 21 47  1  0
 24 48  1  0
 24 49  1  0
 24 50  1  0
M  CHG  1  16   1
M  END
>  <UniqueID>  (6) 
5

>  <SMILES>  (6) 
CCN(C)CCNc1c2ccc(Br)cc2[n+](C)c2cccc(OC)c12

>  <Energy>  (6) 
83.56736170703728

>  <Genealogy>  (6) 
CCN(C)CCNc1c2ccc(Br)cc2[n+](C)c2cccc(OC)c12 (3D coordinates assigned)
CCN(C)CCNc1c2ccc(Br)cc2[n+](C)c2cccc(OC)c12 (optimized conformer: 83.56736170703728 kcal/mol)

>  <smiles>  (6) 
CCN(C)CCNc1c2ccc(Br)cc2[n+](C)c2cccc(OC)c12

>  <score_type>  (6) 
oracle

>  <origin>  (6) 
adg

>  <m_score__min__energy>  (6) 
-8.0399999999999991

>  <m_primary>  (6) 
energy

$$$$
6:0
     RDKit          3D

 51 53  0  0  0  0  0  0  0  0999 V2000
   -6.5850   24.9370  -30.2060 C   0  0  0  0  0  0  0  0  0  0  0  0
   -5.1590   24.5590  -29.7950 C   0  0  0  0  0  0  0  0  0  0  0  0
   -4.9590   24.6200  -28.3360 N   0  0  0  0  0  0  0  0  0  0  0  0
   -3.6590   24.0610  -27.9310 C   0  0  0  0  0  0  0  0  0  0  0  0
   -3.1270   23.1860  -28.9840 C   0  0  0  0  0  0  0  0  0  0  0  0
   -2.6930   22.4650  -29.8480 C   0  0  0  0  0  0  0  0  0  0  0  0
   -2.1700   21.5880  -30.9000 C   0  0  0  0  0  0  0  0  0  0  0  0
   -2.9000   21.7930  -32.1490 N   0  0  0  0  0  0  0  0  0  0  0  0
   -3.5040   20.6810  -32.8220 C   0  0  0  0  0  0  0  0  0  0  0  0
   -2.6770   19.7820  -33.5200 C   0  0  0  0  0  0  0  0  0  0  0  0
   -1.2950   20.0600  -33.5190 O   0  0  0  0  0  0  0  0  0  0  0  0
   -0.5150   20.5030  -34.6230 C   0  0  0  0  0  0  0  0  0  0  0  0
   -3.2500   18.6610  -34.1710 C   0  0  0  0  0  0  0  0  0  0  0  0
   -2.4300   17.7580  -34.8670 O   0  0  0  0  0  0  0  0  0  0  0  0
   -2.7020   16.3710  -35.0420 C   0  0  0  0  0  0  0  0  0  0  0  0
   -4.6440   18.4670  -34.1090 C   0  0  0  0  0  0  0  0  0  0  0  0
   -5.4660   19.3720  -33.4280 C   0  0  0  0  0  0  0  0  0  0  0  0
   -6.8500   19.1730  -33.3870 C   0  0  0  0  0  0  0  0  0  0  0  0
   -7.6660   20.0920  -32.7180 C   0  0  0  0  0  0  0  0  0  0  0  0
   -9.0550   19.8910  -32.6790 C   0  0  0  0  0  0  0  0  0  0  0  0
   -9.8650   20.8110  -32.0170 C   0  0  0  0  0  0  0  0  0  0  0  0
   -9.2920   21.9220  -31.4030 C   0  0  0  0  0  0  0  0  0  0  0  0
   -7.9070   22.1000  -31.4570 C   0  0  0  0  0  0  0  0  0  0  0  0
   -7.1110   21.1940  -32.1060 N   0  0  0  0  0  0  0  0  0  0  0  0
   -5.7590   21.4000  -32.1380 C   0  0  0  0  0  0  0  0  0  0  0  0
   -4.9020   20.4910  -32.7860 C   0  0  0  0  0  0  0  0  0  0  0  0
   -7.1955   25.0988  -29.3054 H   0  0  0  0  0  0  0  0  0  0  0  0
   -6.5618   25.8600  -30.8039 H   0  0  0  0  0  0  0  0  0  0  0  0
   -7.0220   24.1237  -30.8039 H   0  0  0  0  0  0  0  0  0  0  0  0
   -4.9529   23.5341  -30.1371 H   0  0  0  0  0  0  0  0  0  0  0  0
   -4.4736   25.2844  -30.2577 H   0  0  0  0  0  0  0  0  0  0  0  0
   -5.7340   24.1130  -27.8470 H   0  0  0  0  0  0  0  0  0  0  0  0
   -4.9960   25.6270  -28.0510 H   0  0  0  0  0  0  0  0  0  0  0  0
   -2.9510   24.8835  -27.7513 H   0  0  0  0  0  0  0  0  0  0  0  0
   -3.7949   23.4715  -27.0123 H   0  0  0  0  0  0  0  0  0  0  0  0
   -1.1055   21.8127  -31.0622 H   0  0  0  0  0  0  0  0  0  0  0  0
   -2.2937   20.5416  -30.5840 H   0  0  0  0  0  0  0  0  0  0  0  0
   -2.8230   22.6990  -32.6670 H   0  0  0  0  0  0  0  0  0  0  0  0
    0.3859   21.0147  -34.2536 H   0  0  0  0  0  0  0  0  0  0  0  0
   -0.2203   19.6375  -35.2346 H   0  0  0  0  0  0  0  0  0  0  0  0
   -1.1074   21.1994  -35.2346 H   0  0  0  0  0  0  0  0  0  0  0  0
   -2.7965   15.8889  -34.0578 H   0  0  0  0  0  0  0  0  0  0  0  0
   -3.6411   16.2493  -35.6017 H   0  0  0  0  0  0  0  0  0  0  0  0
   -1.8784   15.9036  -35.6017 H   0  0  0  0  0  0  0  0  0  0  0  0
   -5.0925   17.5922  -34.6026 H   0  0  0  0  0  0  0  0  0  0  0  0
   -7.2958   18.2962  -33.8795 H   0  0  0  0  0  0  0  0  0  0  0  0
   -9.5009   19.0125  -33.1682 H   0  0  0  0  0  0  0  0  0  0  0  0
  -10.9540   20.6604  -31.9793 H   0  0  0  0  0  0  0  0  0  0  0  0
   -9.9248   22.6538  -30.8795 H   0  0  0  0  0  0  0  0  0  0  0  0
   -7.4515   22.9767  -30.9733 H   0  0  0  0  0  0  0  0  0  0  0  0
   -5.3351   22.2899  -31.6497 H   0  0  0  0  0  0  0  0  0  0  0  0
  1  2  1  0
  2  3  1  0
  3  4  1  0
  4  5  1  0
  5  6  3  0
  6  7  1  0
  7  8  1  0
  8  9  1  0
  9 10  2  0
 10 11  1  0
 11 12  1  0
 10 13  1  0
 13 14  1  0
 14 15  1  0
 13 16  2  0
 16 17  1  0
 17 18  2  0
 18 19  1  0
 19 20  2  0
 20 21  1  0
 21 22  2  0
 22 23  1  0
 23 24  2  0
 24 25  1  0
 25 26  2  0
 26  9  1  0
 26 17  1  0
 24 19  1  0
  1 27  1  0
  1 28  1  0
  1 29  1  0
  2 30  1  0
  2 31  1  0
  3 32  1  0
  3 33  1  0
  4 34  1  0
  4 35  1  0
  7 36  1  0
  7 37  1  0
  8 38  1  0
 12 39  1  0
 12 40  1  0
 12 41  1  0
 15 42  1  0
 15 43  1  0
 15 44  1  0
 16 45  1  0
 18 46  1  0
 20 47  1  0
 21 48  1  0
 22 49  1  0
 23 50  1  0
 25 51  1  0
M  CHG  2   3   1  24   1
M  END
>  <UniqueID>  (7) 
6

>  <SMILES>  (7) 
CC[NH2+]CC#CCNc1c(OC)c(OC)cc2cc3cccc[n+]3cc12

>  <Energy>  (7) 
61.17893223322349

>  <Genealogy>  (7) 
CC[NH2+]CC#CCNc1c(OC)c(OC)cc2cc3cccc[n+]3cc12 (protonated)
CC[NH2+]CC#CCNc1c(OC)c(OC)cc2cc3cccc[n+]3cc12 (3D coordinates assigned)
CC[NH2+]CC#CCNc1c(OC)c(OC)cc2cc3cccc[n+]3cc12 (optimized conformer: 61.17893223322349 kcal/mol)

>  <smiles>  (7) 
CCNCC#CCNc1c(OC)c(OC)cc2cc3cccc[n+]3cc12

>  <score_type>  (7) 
oracle

>  <origin>  (7) 
adg

>  <m_score__min__energy>  (7) 
-7

>  <m_primary>  (7) 
energy

$$$$
7:0
     RDKit          3D

 51 54  0  0  0  0  0  0  0  0999 V2000
   -0.9170   26.2770  -28.1500 C   0  0  0  0  0  0  0  0  0  0  0  0
   -1.5240   25.0900  -28.7790 N   0  0  0  0  0  0  0  0  0  0  0  0
   -0.4880   24.0640  -28.9810 C   0  0  0  0  0  0  0  0  0  0  0  0
   -2.6220   24.5520  -27.9470 C   0  0  0  0  0  0  0  0  0  0  0  0
   -3.7570   24.0160  -28.8280 C   0  0  0  0  0  0  0  0  0  0  0  0
   -3.3150   23.8720  -30.2140 N   0  0  0  0  0  0  0  0  0  0  0  0
   -3.7750   22.7750  -31.0150 C   0  0  0  0  0  0  0  0  0  0  0  0
   -5.1440   22.6190  -31.2810 C   0  0  0  0  0  0  0  0  0  0  0  0
   -5.5860   21.4940  -32.0110 C   0  0  0  0  0  0  0  0  0  0  0  0
   -4.6690   20.7020  -32.6760 N   0  0  0  0  0  0  0  0  0  0  0  0
   -5.0990   19.8440  -33.7990 C   0  0  0  0  0  0  0  0  0  0  0  0
   -3.3260   20.7950  -32.3660 C   0  0  0  0  0  0  0  0  0  0  0  0
   -2.3830   19.8580  -32.8600 C   0  0  0  0  0  0  0  0  0  0  0  0
   -1.0290   19.9710  -32.5480 C   0  0  0  0  0  0  0  0  0  0  0  0
   -0.5800   21.0090  -31.7380 C   0  0  0  0  0  0  0  0  0  0  0  0
   -1.4840   21.9370  -31.2280 C   0  0  0  0  0  0  0  0  0  0  0  0
   -2.8600   21.8410  -31.5280 C   0  0  0  0  0  0  0  0  0  0  0  0
   -7.0660   21.2490  -32.0570 C   0  0  0  0  0  0  0  0  0  0  0  0
   -7.6090   19.9490  -32.0740 C   0  0  0  0  0  0  0  0  0  0  0  0
   -8.9930   19.7590  -32.0970 C   0  0  0  0  0  0  0  0  0  0  0  0
   -9.8520   20.8580  -32.0590 C   0  0  0  0  0  0  0  0  0  0  0  0
   -9.3300   22.1490  -31.9600 C   0  0  0  0  0  0  0  0  0  0  0  0
   -7.9420   22.3460  -31.9220 C   0  0  0  0  0  0  0  0  0  0  0  0
   -7.3680   23.7190  -31.7070 C   0  0  0  0  0  0  0  0  0  0  0  0
   -6.1560   23.6290  -30.7700 C   0  0  0  0  0  0  0  0  0  0  0  0
   -0.9675   26.1783  -27.0556 H   0  0  0  0  0  0  0  0  0  0  0  0
    0.1344   26.3603  -28.4625 H   0  0  0  0  0  0  0  0  0  0  0  0
   -1.4649   27.1782  -28.4625 H   0  0  0  0  0  0  0  0  0  0  0  0
   -0.1288   23.7083  -28.0040 H   0  0  0  0  0  0  0  0  0  0  0  0
   -0.9125   23.2203  -29.5450 H   0  0  0  0  0  0  0  0  0  0  0  0
    0.3515   24.4967  -29.5450 H   0  0  0  0  0  0  0  0  0  0  0  0
   -2.2338   23.7348  -27.3213 H   0  0  0  0  0  0  0  0  0  0  0  0
   -3.0166   25.3617  -27.3156 H   0  0  0  0  0  0  0  0  0  0  0  0
   -4.0760   23.0345  -28.4475 H   0  0  0  0  0  0  0  0  0  0  0  0
   -4.5939   24.7292  -28.7973 H   0  0  0  0  0  0  0  0  0  0  0  0
   -2.5190   24.4440  -30.5760 H   0  0  0  0  0  0  0  0  0  0  0  0
   -5.5590   18.9262  -33.4040 H   0  0  0  0  0  0  0  0  0  0  0  0
   -5.8321   20.3859  -34.4146 H   0  0  0  0  0  0  0  0  0  0  0  0
   -4.2262   19.5810  -34.4146 H   0  0  0  0  0  0  0  0  0  0  0  0
   -2.7249   19.0301  -33.4986 H   0  0  0  0  0  0  0  0  0  0  0  0
   -0.3126   19.2362  -32.9440 H   0  0  0  0  0  0  0  0  0  0  0  0
    0.4904   21.0967  -31.5002 H   0  0  0  0  0  0  0  0  0  0  0  0
   -1.1224   22.7530  -30.5850 H   0  0  0  0  0  0  0  0  0  0  0  0
   -6.9383   19.0771  -32.0691 H   0  0  0  0  0  0  0  0  0  0  0  0
   -9.4064   18.7408  -32.1452 H   0  0  0  0  0  0  0  0  0  0  0  0
  -10.9405   20.7071  -32.1070 H   0  0  0  0  0  0  0  0  0  0  0  0
  -10.0087   23.0133  -31.9117 H   0  0  0  0  0  0  0  0  0  0  0  0
   -7.0532   24.1397  -32.6734 H   0  0  0  0  0  0  0  0  0  0  0  0
   -8.1323   24.3679  -31.2545 H   0  0  0  0  0  0  0  0  0  0  0  0
   -5.6768   24.6171  -30.7065 H   0  0  0  0  0  0  0  0  0  0  0  0
   -6.5042   23.3038  -29.7785 H   0  0  0  0  0  0  0  0  0  0  0  0
  1  2  1  0
  2  3  1  0
  2  4  1  0
  4  5  1  0
  5  6  1  0
  6  7  1  0
  7  8  2  0
  8  9  1  0
  9 10  2  0
 10 11  1  0
 10 12  1  0
 12 13  2  0
 13 14  1  0
 14 15  2  0
 15 16  1  0
 16 17  2  0
  9 18  1  0
 18 19  2  0
 19 20  1  0
 20 21  2  0
 21 22  1  0
 22 23  2  0
 23 24  1  0
 24 25  1  0
 17  7  1  0
 23 18  1  0
 25  8  1  0
 17 12  1  0
  1 26  1  0
  1 27  1  0
  1 28  1  0
  3 29  1  0
  3 30  1  0
  3 31  1  0
  4 32  1  0
  4 33  1  0
  5 34  1  0
  5 35  1  0
  6 36  1  0
 11 37  1  0
 11 38  1  0
 11 39  1  0
 13 40  1  0
 14 41  1  0
 15 42  1  0
 16 43  1  0
 19 44  1  0
 20 45  1  0
 21 46  1  0
 22 47  1  0
 24 48  1  0
 24 49  1  0
 25 50  1  0
 25 51  1  0
M  CHG  1  10   1
M  END
>  <UniqueID>  (8) 
7

>  <SMILES>  (8) 
CN(C)CCNc1c2c([n+](C)c3ccccc13)-c1ccccc1CC2

>  <Energy>  (8) 
82.77764601860117

>  <Genealogy>  (8) 
CN(C)CCNc1c2c([n+](C)c3ccccc13)-c1ccccc1CC2 (3D coordinates assigned)
CN(C)CCNc1c2c([n+](C)c3ccccc13)-c1ccccc1CC2 (nonaromatic ring conformer: 82.77764601860117 kcal/mol)

>  <smiles>  (8) 
CN(C)CCNc1c2c([n+](C)c3ccccc13)-c1ccccc1CC2

>  <score_type>  (8) 
oracle

>  <origin>  (8) 
adg

>  <m_score__min__energy>  (8) 
-8.9900000000000002

>  <m_primary>  (8) 
energy

$$$$
8:0
     RDKit          3D

110111  0  0  0  0  0  0  0  0999 V2000
   -6.8110   15.7980  -34.0400 C   0  0  0  0  0  0  0  0  0  0  0  0
   -5.8410   16.9070  -33.6050 C   0  0  0  0  0  0  0  0  0  0  0  0
   -6.0300   17.2030  -32.1080 C   0  0  0  0  0  0  0  0  0  0  0  0
   -6.0380   18.2040  -34.4250 C   0  0  0  0  0  0  0  0  0  0  0  0
   -6.0720   19.5000  -33.5950 C   0  0  0  0  0  0  0  0  0  0  0  0
   -7.4860   20.0970  -33.4520 C   0  0  0  0  0  0  0  0  0  0  0  0
   -8.0600   19.9210  -32.0230 C   0  0  2  0  0  0  0  0  0  0  0  0
   -9.0220   18.7220  -31.9560 C   0  0  0  0  0  0  0  0  0  0  0  0
   -8.8000   21.1980  -31.5510 C   0  0  0  0  0  0  0  0  0  0  0  0
   -8.0130   22.0250  -30.5040 C   0  0  0  0  0  0  0  0  0  0  0  0
   -7.2730   23.2550  -31.0830 C   0  0  0  0  0  0  0  0  0  0  0  0
   -5.7820   23.4400  -30.6710 C   0  0  2  0  0  0  0  0  0  0  0  0
   -5.4190   24.9120  -30.4100 C   0  0  0  0  0  0  0  0  0  0  0  0
   -4.7590   22.7940  -31.6420 C   0  0  0  0  0  0  0  0  0  0  0  0
   -4.6700   21.2540  -31.5510 C   0  0  0  0  0  0  0  0  0  0  0  0
   -3.2430   20.6750  -31.2330 C   0  0  2  0  0  0  0  0  0  0  0  0
   -2.4400   21.5320  -30.1670 C   0  0  2  0  0  0  0  0  0  0  0  0
   -3.2640   21.7650  -28.8800 C   0  0  0  0  0  0  0  0  0  0  0  0
   -2.1410   22.7910  -30.7300 O   0  0  0  0  0  0  0  0  0  0  0  0
   -1.1060   20.8150  -29.7490 C   0  0  0  0  0  0  0  0  0  0  0  0
   -0.6360   19.7320  -30.7290 C   0  0  0  0  0  0  0  0  0  0  0  0
   -0.8820   20.1790  -32.1820 C   0  0  1  0  0  0  0  0  0  0  0  0
   -0.1520   19.5200  -33.2100 O   0  0  0  0  0  0  0  0  0  0  0  0
   -0.0900   18.0950  -33.2890 C   0  0  0  0  0  0  0  0  0  0  0  0
    0.0030   17.7770  -34.8050 C   0  0  0  0  0  0  0  0  0  0  0  0
    1.2500   17.6500  -32.6640 C   0  0  0  0  0  0  0  0  0  0  0  0
   -1.2530   17.2420  -32.6490 C   0  0  2  0  0  0  0  0  0  0  0  0
   -1.1840   15.9150  -33.1920 O   0  0  0  0  0  0  0  0  0  0  0  0
   -1.0160   14.7450  -32.4400 C   0  0  0  0  0  0  0  0  0  0  0  0
    0.1170   14.4210  -31.9970 O   0  0  0  0  0  0  0  0  0  0  0  0
   -2.2200   13.9120  -32.1230 C   0  0  0  0  0  0  0  0  0  0  0  0
   -3.4520   14.5170  -32.6610 N   0  0  0  0  0  0  0  0  0  0  0  0
   -4.1540   13.6420  -33.6170 C   0  0  0  0  0  0  0  0  0  0  0  0
   -3.7640   13.9910  -35.0700 C   0  0  0  0  0  0  0  0  0  0  0  0
   -2.7730   15.0880  -35.2210 N   0  0  0  0  0  0  0  0  0  0  0  0
   -1.6220   14.7140  -36.0650 C   0  0  0  0  0  0  0  0  0  0  0  0
   -3.3730   16.3490  -35.6870 C   0  0  0  0  0  0  0  0  0  0  0  0
   -2.7090   17.7800  -32.7620 C   0  0  0  0  0  0  0  0  0  0  0  0
   -2.9310   19.1780  -33.3560 C   0  0  0  0  0  0  0  0  0  0  0  0
   -2.3830   20.3980  -32.5520 C   0  0  1  0  0  0  0  0  0  0  0  0
   -2.4400   21.6030  -33.5470 C   0  0  0  0  0  0  0  0  0  0  0  0
   -7.2359   15.3123  -33.1492 H   0  0  0  0  0  0  0  0  0  0  0  0
   -7.6219   16.2351  -34.6412 H   0  0  0  0  0  0  0  0  0  0  0  0
   -6.2698   15.0525  -34.6412 H   0  0  0  0  0  0  0  0  0  0  0  0
   -4.8179   16.5485  -33.7911 H   0  0  0  0  0  0  0  0  0  0  0  0
   -5.5317   16.4226  -31.5142 H   0  0  0  0  0  0  0  0  0  0  0  0
   -5.5898   18.1824  -31.8695 H   0  0  0  0  0  0  0  0  0  0  0  0
   -7.1037   17.2157  -31.8695 H   0  0  0  0  0  0  0  0  0  0  0  0
   -5.2099   18.2816  -35.1449 H   0  0  0  0  0  0  0  0  0  0  0  0
   -7.0254   18.1188  -34.9023 H   0  0  0  0  0  0  0  0  0  0  0  0
   -5.6825   19.2809  -32.5899 H   0  0  0  0  0  0  0  0  0  0  0  0
   -5.4577   20.2423  -34.1256 H   0  0  0  0  0  0  0  0  0  0  0  0
   -7.4411   21.1711  -33.6848 H   0  0  0  0  0  0  0  0  0  0  0  0
   -8.1483   19.5610  -34.1478 H   0  0  0  0  0  0  0  0  0  0  0  0
   -7.2064   19.7364  -31.3543 H   0  0  0  0  0  0  0  0  0  0  0  0
   -9.2230   18.4715  -30.9039 H   0  0  0  0  0  0  0  0  0  0  0  0
   -9.9659   18.9807  -32.4581 H   0  0  0  0  0  0  0  0  0  0  0  0
   -8.5648   17.8566  -32.4581 H   0  0  0  0  0  0  0  0  0  0  0  0
   -8.9859   21.8354  -32.4280 H   0  0  0  0  0  0  0  0  0  0  0  0
   -9.7305   20.8684  -31.0656 H   0  0  0  0  0  0  0  0  0  0  0  0
   -8.7225   22.3784  -29.7413 H   0  0  0  0  0  0  0  0  0  0  0  0
   -7.2396   21.3581  -30.0953 H   0  0  0  0  0  0  0  0  0  0  0  0
   -7.3073   23.1774  -32.1797 H   0  0  0  0  0  0  0  0  0  0  0  0
   -7.7962   24.1273  -30.6641 H   0  0  0  0  0  0  0  0  0  0  0  0
   -5.7010   22.8860  -29.7241 H   0  0  0  0  0  0  0  0  0  0  0  0
   -5.3746   25.0920  -29.3257 H   0  0  0  0  0  0  0  0  0  0  0  0
   -4.4394   25.1332  -30.8588 H   0  0  0  0  0  0  0  0  0  0  0  0
   -6.1834   25.5633  -30.8588 H   0  0  0  0  0  0  0  0  0  0  0  0
   -5.0456   23.0610  -32.6699 H   0  0  0  0  0  0  0  0  0  0  0  0
   -3.7699   23.1810  -31.3557 H   0  0  0  0  0  0  0  0  0  0  0  0
   -5.3551   20.9215  -30.7572 H   0  0  0  0  0  0  0  0  0  0  0  0
   -4.9324   20.8772  -32.5506 H   0  0  0  0  0  0  0  0  0  0  0  0
   -3.4246   19.6981  -30.7612 H   0  0  0  0  0  0  0  0  0  0  0  0
   -2.6286   21.5853  -28.0002 H   0  0  0  0  0  0  0  0  0  0  0  0
   -3.6305   22.8020  -28.8620 H   0  0  0  0  0  0  0  0  0  0  0  0
   -4.1193   21.0735  -28.8620 H   0  0  0  0  0  0  0  0  0  0  0  0
   -1.2400   22.7460  -31.1410 H   0  0  0  0  0  0  0  0  0  0  0  0
   -1.2605   20.3462  -28.7660 H   0  0  0  0  0  0  0  0  0  0  0  0
   -0.3239   21.5884  -29.7363 H   0  0  0  0  0  0  0  0  0  0  0  0
   -1.1925   18.8029  -30.5365 H   0  0  0  0  0  0  0  0  0  0  0  0
    0.4415   19.5641  -30.5851 H   0  0  0  0  0  0  0  0  0  0  0  0
   -0.4139   21.1741  -32.1560 H   0  0  0  0  0  0  0  0  0  0  0  0
    0.3094   16.7294  -34.9418 H   0  0  0  0  0  0  0  0  0  0  0  0
   -0.9793   17.9360  -35.2739 H   0  0  0  0  0  0  0  0  0  0  0  0
    0.7448   18.4402  -35.2739 H   0  0  0  0  0  0  0  0  0  0  0  0
    1.1698   17.6766  -31.5673 H   0  0  0  0  0  0  0  0  0  0  0  0
    1.4843   16.6258  -32.9898 H   0  0  0  0  0  0  0  0  0  0  0  0
    2.0505   18.3306  -32.9898 H   0  0  0  0  0  0  0  0  0  0  0  0
   -1.0629   17.2902  -31.5666 H   0  0  0  0  0  0  0  0  0  0  0  0
   -2.0899   12.9130  -32.5647 H   0  0  0  0  0  0  0  0  0  0  0  0
   -2.3165   13.8468  -31.0292 H   0  0  0  0  0  0  0  0  0  0  0  0
   -4.0950   14.7590  -31.8690 H   0  0  0  0  0  0  0  0  0  0  0  0
   -3.8841   12.5953  -33.4129 H   0  0  0  0  0  0  0  0  0  0  0  0
   -5.2377   13.7887  -33.4984 H   0  0  0  0  0  0  0  0  0  0  0  0
   -3.3423   13.0872  -35.5340 H   0  0  0  0  0  0  0  0  0  0  0  0
   -4.6857   14.3485  -35.5523 H   0  0  0  0  0  0  0  0  0  0  0  0
   -2.3950   15.2740  -34.2630 H   0  0  0  0  0  0  0  0  0  0  0  0
   -0.7718   14.4377  -35.4241 H   0  0  0  0  0  0  0  0  0  0  0  0
   -1.8956   13.8585  -36.7001 H   0  0  0  0  0  0  0  0  0  0  0  0
   -1.3405   15.5669  -36.7001 H   0  0  0  0  0  0  0  0  0  0  0  0
   -3.6635   16.9595  -34.8193 H   0  0  0  0  0  0  0  0  0  0  0  0
   -2.6409   16.9008  -36.2949 H   0  0  0  0  0  0  0  0  0  0  0  0
   -4.2629   16.1290  -36.2949 H   0  0  0  0  0  0  0  0  0  0  0  0
   -3.1315   17.7882  -31.7464 H   0  0  0  0  0  0  0  0  0  0  0  0
   -3.1904   17.1025  -33.4826 H   0  0  0  0  0  0  0  0  0  0  0  0
   -4.0160   19.3190  -33.4699 H   0  0  0  0  0  0  0  0  0  0  0  0
   -2.3553   19.1788  -34.2933 H   0  0  0  0  0  0  0  0  0  0  0  0
   -2.4845   22.5447  -32.9802 H   0  0  0  0  0  0  0  0  0  0  0  0
   -1.5406   21.5984  -34.1803 H   0  0  0  0  0  0  0  0  0  0  0  0
   -3.3349   21.5135  -34.1803 H   0  0  0  0  0  0  0  0  0  0  0  0
  1  2  1  0
  2  3  1  0
  2  4  1  0
  4  5  1  0
  5  6  1  0
  6  7  1  0
  7  8  1  0
  7  9  1  0
  9 10  1  0
 10 11  1  0
 11 12  1  0
 12 13  1  0
 12 14  1  0
 14 15  1  0
 15 16  1  0
 16 17  1  0
 17 18  1  0
 17 19  1  6
 17 20  1  0
 20 21  1  0
 21 22  1  0
 22 23  1  0
 23 24  1  0
 24 25  1  0
 24 26  1  0
 24 27  1  0
 27 28  1  0
 28 29  1  0
 29 30  2  0
 29 31  1  0
 31 32  1  0
 32 33  1  0
 33 34  1  0
 34 35  1  0
 35 36  1  0
 35 37  1  0
 27 38  1  0
 38 39  1  0
 39 40  1  0
 40 41  1  6
 40 16  1  0
 40 22  1  0
  1 42  1  0
  1 43  1  0
  1 44  1  0
  2 45  1  0
  3 46  1  0
  3 47  1  0
  3 48  1  0
  4 49  1  0
  4 50  1  0
  5 51  1  0
  5 52  1  0
  6 53  1  0
  6 54  1  0
  7 55  1  1
  8 56  1  0
  8 57  1  0
  8 58  1  0
  9 59  1  0
  9 60  1  0
 10 61  1  0
 10 62  1  0
 11 63  1  0
 11 64  1  0
 12 65  1  1
 13 66  1  0
 13 67  1  0
 13 68  1  0
 14 69  1  0
 14 70  1  0
 15 71  1  0
 15 72  1  0
 16 73  1  1
 18 74  1  0
 18 75  1  0
 18 76  1  0
 19 77  1  0
 20 78  1  0
 20 79  1  0
 21 80  1  0
 21 81  1  0
 22 82  1  1
 25 83  1  0
 25 84  1  0
 25 85  1  0
 26 86  1  0
 26 87  1  0
 26 88  1  0
 27 89  1  1
 31 90  1  0
 31 91  1  0
 32 92  1  0
 33 93  1  0
 33 94  1  0
 34 95  1  0
 34 96  1  0
 35 97  1  0
 36 98  1  0
 36 99  1  0
 36100  1  0
 37101  1  0
 37102  1  0
 37103  1  0
 38104  1  0
 38105  1  0
 39106  1  0
 39107  1  0
 41108  1  0
 41109  1  0
 41110  1  0
M  CHG  1  35   1
M  END
>  <UniqueID>  (9) 
8

>  <SMILES>  (9) 
CC(C)CCC[C@H](C)CCC[C@H](C)CCC1C(C)(O)CCC2OC(C)(C)C(OC(=O)CNCC[NH+](C)C)CCC21C

>  <Energy>  (9) 
151.05485120129416

>  <Genealogy>  (9) 
CC(C)CCCC(C)CCCC(C)CCC1C(C)(O)CCC2OC(C)(C)C(OC(=O)CNCC[NH+](C)C)CCC21C (protonated)
CC(C)CCC[C@H](C)CCC[C@H](C)CCC1C(C)(O)CCC2OC(C)(C)C(OC(=O)CNCC[NH+](C)C)CCC21C (chirality)
CC(C)CCC[C@H](C)CCC[C@H](C)CCC1C(C)(O)CCC2OC(C)(C)C(OC(=O)CNCC[NH+](C)C)CCC21C (3D coordinates assigned)
CC(C)CCC[C@H](C)CCC[C@H](C)CCC1C(C)(O)CCC2OC(C)(C)C(OC(=O)CNCC[NH+](C)C)CCC21C (nonaromatic ring conformer: 151.05485120129416 kcal/mol)

>  <smiles>  (9) 
CC(C)CCCC(C)CCCC(C)CCC1C(C)(O)CCC2OC(C)(C)C(OC(=O)CNCCN(C)C)CCC21C

>  <score_type>  (9) 
oracle

>  <origin>  (9) 
adg

>  <m_score__min__energy>  (9) 
-8.5299999999999994

>  <m_primary>  (9) 
energy

$$$$
9:0
     RDKit          3D

 65 68  0  0  0  0  0  0  0  0999 V2000
    0.2660   21.8640  -35.5710 C   0  0  0  0  0  0  0  0  0  0  0  0
    0.1340   21.1080  -34.2530 C   0  0  0  0  0  0  0  0  0  0  0  0
   -1.2820   21.0080  -33.8820 N   0  0  0  0  0  0  0  0  0  0  0  0
   -1.5400   21.4970  -32.5160 C   0  0  0  0  0  0  0  0  0  0  0  0
   -3.0580   21.6470  -32.2710 C   0  0  0  0  0  0  0  0  0  0  0  0
   -3.9720   21.2150  -33.3670 N   0  0  0  0  0  0  0  0  0  0  0  0
   -5.2630   20.6730  -32.9640 C   0  0  0  0  0  0  0  0  0  0  0  0
   -6.2820   21.5700  -32.5320 C   0  0  0  0  0  0  0  0  0  0  0  0
   -6.0080   22.9350  -32.2540 C   0  0  0  0  0  0  0  0  0  0  0  0
   -7.0090   23.7990  -31.8230 C   0  0  0  0  0  0  0  0  0  0  0  0
   -8.3000   23.3290  -31.6370 C   0  0  0  0  0  0  0  0  0  0  0  0
   -8.5990   21.9940  -31.8880 C   0  0  0  0  0  0  0  0  0  0  0  0
   -7.6070   21.0960  -32.3580 C   0  0  0  0  0  0  0  0  0  0  0  0
   -7.9060   19.7810  -32.6220 N   0  0  0  0  0  0  0  0  0  0  0  0
   -9.3200   19.3610  -32.7700 C   0  0  0  0  0  0  0  0  0  0  0  0
   -6.8930   18.8520  -32.7410 C   0  0  0  0  0  0  0  0  0  0  0  0
   -7.1770   17.4780  -32.5800 C   0  0  0  0  0  0  0  0  0  0  0  0
   -6.1980   16.5120  -32.7160 C   0  0  0  0  0  0  0  0  0  0  0  0
   -4.8920   16.8690  -33.0420 C   0  0  0  0  0  0  0  0  0  0  0  0
   -3.8930   15.8830  -33.1910 C   0  0  0  0  0  0  0  0  0  0  0  0
   -4.1900   14.4870  -33.0210 N   0  0  0  0  0  0  0  0  0  0  0  0
   -4.2930   13.6140  -34.1890 C   0  0  0  0  0  0  0  0  0  0  0  0
   -4.2130   13.9210  -31.6730 C   0  0  0  0  0  0  0  0  0  0  0  0
   -2.5900   16.2600  -33.5030 C   0  0  0  0  0  0  0  0  0  0  0  0
   -2.2750   17.6130  -33.6580 C   0  0  0  0  0  0  0  0  0  0  0  0
   -0.9300   18.0280  -33.9950 N   0  0  0  0  0  0  0  0  0  0  0  0
    0.0660   18.2780  -32.9510 C   0  0  0  0  0  0  0  0  0  0  0  0
   -0.5020   18.1170  -35.3940 C   0  0  0  0  0  0  0  0  0  0  0  0
   -3.2560   18.5400  -33.4900 N   0  0  0  0  0  0  0  0  0  0  0  0
   -4.5520   18.2370  -33.1910 C   0  0  0  0  0  0  0  0  0  0  0  0
   -5.5460   19.2630  -32.9880 C   0  0  0  0  0  0  0  0  0  0  0  0
    0.4519   22.9286  -35.3660 H   0  0  0  0  0  0  0  0  0  0  0  0
    1.1054   21.4498  -36.1488 H   0  0  0  0  0  0  0  0  0  0  0  0
   -0.6641   21.7588  -36.1488 H   0  0  0  0  0  0  0  0  0  0  0  0
    0.5548   20.0980  -34.3667 H   0  0  0  0  0  0  0  0  0  0  0  0
    0.6803   21.6484  -33.4659 H   0  0  0  0  0  0  0  0  0  0  0  0
   -1.5540   19.9970  -33.9260 H   0  0  0  0  0  0  0  0  0  0  0  0
   -1.1256   20.7808  -31.7911 H   0  0  0  0  0  0  0  0  0  0  0  0
   -1.0618   22.4802  -32.3946 H   0  0  0  0  0  0  0  0  0  0  0  0
   -3.3090   21.0551  -31.3784 H   0  0  0  0  0  0  0  0  0  0  0  0
   -3.2236   22.7302  -32.1747 H   0  0  0  0  0  0  0  0  0  0  0  0
   -3.4940   20.5610  -34.0210 H   0  0  0  0  0  0  0  0  0  0  0  0
   -4.1200   22.0190  -34.0160 H   0  0  0  0  0  0  0  0  0  0  0  0
   -4.9843   23.3166  -32.3820 H   0  0  0  0  0  0  0  0  0  0  0  0
   -6.7762   24.8565  -31.6295 H   0  0  0  0  0  0  0  0  0  0  0  0
   -9.0889   24.0128  -31.2905 H   0  0  0  0  0  0  0  0  0  0  0  0
   -9.6226   21.6284  -31.7190 H   0  0  0  0  0  0  0  0  0  0  0  0
   -9.7690   19.2276  -31.7747 H   0  0  0  0  0  0  0  0  0  0  0  0
   -9.8758   20.1328  -33.3226 H   0  0  0  0  0  0  0  0  0  0  0  0
   -9.3644   18.4109  -33.3226 H   0  0  0  0  0  0  0  0  0  0  0  0
   -8.2049   17.1684  -32.3399 H   0  0  0  0  0  0  0  0  0  0  0  0
   -6.4525   15.4525  -32.5655 H   0  0  0  0  0  0  0  0  0  0  0  0
   -4.4159   12.5721  -33.8583 H   0  0  0  0  0  0  0  0  0  0  0  0
   -5.1622   13.9117  -34.7938 H   0  0  0  0  0  0  0  0  0  0  0  0
   -3.3783   13.7013  -34.7938 H   0  0  0  0  0  0  0  0  0  0  0  0
   -4.1799   14.7344  -30.9332 H   0  0  0  0  0  0  0  0  0  0  0  0
   -5.1356   13.3379  -31.5359 H   0  0  0  0  0  0  0  0  0  0  0  0
   -3.3408   13.2649  -31.5359 H   0  0  0  0  0  0  0  0  0  0  0  0
   -1.8097   15.4947  -33.6273 H   0  0  0  0  0  0  0  0  0  0  0  0
   -0.4017   18.1606  -31.9623 H   0  0  0  0  0  0  0  0  0  0  0  0
    0.8926   17.5595  -33.0532 H   0  0  0  0  0  0  0  0  0  0  0  0
    0.4553   19.3017  -33.0532 H   0  0  0  0  0  0  0  0  0  0  0  0
    0.5742   18.3408  -35.4347 H   0  0  0  0  0  0  0  0  0  0  0  0
   -0.6967   17.1592  -35.8986 H   0  0  0  0  0  0  0  0  0  0  0  0
   -1.0624   18.9178  -35.8986 H   0  0  0  0  0  0  0  0  0  0  0  0
  1  2  1  0
  2  3  1  0
  3  4  1  0
  4  5  1  0
  5  6  1  0
  6  7  1  0
  7  8  2  0
  8  9  1  0
  9 10  2  0
 10 11  1  0
 11 12  2  0
 12 13  1  0
 13 14  2  0
 14 15  1  0
 14 16  1  0
 16 17  2  0
 17 18  1  0
 18 19  2  0
 19 20  1  0
 20 21  1  0
 21 22  1  0
 21 23  1  0
 20 24  2  0
 24 25  1  0
 25 26  1  0
 26 27  1  0
 26 28  1  0
 25 29  2  0
 29 30  1  0
 30 31  2  0
 31  7  1  0
 13  8  1  0
 31 16  1  0
 30 19  1  0
  1 32  1  0
  1 33  1  0
  1 34  1  0
  2 35  1  0
  2 36  1  0
  3 37  1  0
  4 38  1  0
  4 39  1  0
  5 40  1  0
  5 41  1  0
  6 42  1  0
  6 43  1  0
  9 44  1  0
 10 45  1  0
 11 46  1  0
 12 47  1  0
 15 48  1  0
 15 49  1  0
 15 50  1  0
 17 51  1  0
 18 52  1  0
 22 53  1  0
 22 54  1  0
 22 55  1  0
 23 56  1  0
 23 57  1  0
 23 58  1  0
 24 59  1  0
 27 60  1  0
 27 61  1  0
 27 62  1  0
 28 63  1  0
 28 64  1  0
 28 65  1  0
M  CHG  2   6   1  14   1
M  END
>  <UniqueID>  (10) 
9

>  <SMILES>  (10) 
CCNCC[NH2+]c1c2ccccc2[n+](C)c2ccc3c(N(C)C)cc(N(C)C)nc3c12

>  <Energy>  (10) 
113.03011128742598

>  <Genealogy>  (10) 
CCNCC[NH2+]c1c2ccccc2[n+](C)c2ccc3c(N(C)C)cc(N(C)C)nc3c12 (protonated)
CCNCC[NH2+]c1c2ccccc2[n+](C)c2ccc3c(N(C)C)cc(N(C)C)nc3c12 (3D coordinates assigned)
CCNCC[NH2+]c1c2ccccc2[n+](C)c2ccc3c(N(C)C)cc(N(C)C)nc3c12 (optimized conformer: 113.03011128742598 kcal/mol)

>  <smiles>  (10) 
CCNCCNc1c2ccccc2[n+](C)c2ccc3c(N(C)C)cc(N(C)C)nc3c12

>  <score_type>  (10) 
oracle

>  <origin>  (10) 
adg

>  <m_score__min__energy>  (10) 
-8.1600000000000001

>  <m_primary>  (10) 
energy

$$$$
10:0
     RDKit          3D

 81 84  0  0  0  0  0  0  0  0999 V2000
   -6.3760   25.2670  -29.6750 C   0  0  0  0  0  0  0  0  0  0  0  0
   -5.3840   25.5570  -30.8040 C   0  0  0  0  0  0  0  0  0  0  0  0
   -4.0050   25.1900  -30.4530 N   0  0  0  0  0  0  0  0  0  0  0  0
   -3.9460   24.0770  -29.4940 C   0  0  0  0  0  0  0  0  0  0  0  0
   -3.4490   22.8010  -30.1840 C   0  0  0  0  0  0  0  0  0  0  0  0
   -3.6990   22.7940  -31.7020 C   0  0  0  0  0  0  0  0  0  0  0  0
   -3.5520   21.3960  -32.3140 C   0  0  0  0  0  0  0  0  0  0  0  0
   -4.6060   21.1440  -33.2970 N   0  0  0  0  0  0  0  0  0  0  0  0
   -5.7690   20.3870  -32.9330 C   0  0  0  0  0  0  0  0  0  0  0  0
   -6.9030   21.0620  -32.4540 C   0  0  0  0  0  0  0  0  0  0  0  0
   -6.8790   22.4610  -32.2520 C   0  0  0  0  0  0  0  0  0  0  0  0
   -8.0190   23.1370  -31.8230 C   0  0  0  0  0  0  0  0  0  0  0  0
   -9.2030   22.4400  -31.6120 C   0  0  0  0  0  0  0  0  0  0  0  0
   -9.2460   21.0590  -31.7920 C   0  0  0  0  0  0  0  0  0  0  0  0
   -8.0860   20.3350  -32.1710 C   0  0  0  0  0  0  0  0  0  0  0  0
   -8.0960   18.9600  -32.2870 N   0  0  0  0  0  0  0  0  0  0  0  0
   -9.2110   18.1790  -31.7070 C   0  0  0  0  0  0  0  0  0  0  0  0
   -7.0440   18.3050  -32.8980 C   0  0  0  0  0  0  0  0  0  0  0  0
   -7.1530   16.9500  -33.2870 C   0  0  0  0  0  0  0  0  0  0  0  0
   -6.0740   16.2720  -33.8380 C   0  0  0  0  0  0  0  0  0  0  0  0
   -4.8530   16.9110  -34.0030 C   0  0  0  0  0  0  0  0  0  0  0  0
   -4.7030   18.2650  -33.6610 C   0  0  0  0  0  0  0  0  0  0  0  0
   -3.4540   18.9010  -33.7700 O   0  0  0  0  0  0  0  0  0  0  0  0
   -2.1700   18.2950  -33.6410 C   0  0  0  0  0  0  0  0  0  0  0  0
   -1.3810   18.9480  -32.4790 C   0  0  0  0  0  0  0  0  0  0  0  0
   -0.4010   20.0120  -32.8790 N   0  0  0  0  0  0  0  0  0  0  0  0
   -0.3500   21.0750  -31.8400 C   0  0  0  0  0  0  0  0  0  0  0  0
    0.9700   19.4290  -33.0620 C   0  0  0  0  0  0  0  0  0  0  0  0
    1.2750   19.0640  -34.5280 C   0  0  0  0  0  0  0  0  0  0  0  0
    1.2470   20.2600  -35.4240 N   0  0  0  0  0  0  0  0  0  0  0  0
    2.5840   20.9030  -35.4410 C   0  0  0  0  0  0  0  0  0  0  0  0
    0.9430   19.8120  -36.8050 C   0  0  0  0  0  0  0  0  0  0  0  0
    0.2250   21.2650  -34.9860 C   0  0  0  0  0  0  0  0  0  0  0  0
   -0.9040   20.6270  -34.1520 C   0  0  0  0  0  0  0  0  0  0  0  0
   -5.8240   18.9920  -33.1650 C   0  0  0  0  0  0  0  0  0  0  0  0
   -5.8794   25.4122  -28.7043 H   0  0  0  0  0  0  0  0  0  0  0  0
   -7.2328   25.9523  -29.7547 H   0  0  0  0  0  0  0  0  0  0  0  0
   -6.7287   24.2281  -29.7547 H   0  0  0  0  0  0  0  0  0  0  0  0
   -5.6854   24.9843  -31.6935 H   0  0  0  0  0  0  0  0  0  0  0  0
   -5.4024   26.6404  -30.9934 H   0  0  0  0  0  0  0  0  0  0  0  0
   -3.4840   24.9230  -31.3200 H   0  0  0  0  0  0  0  0  0  0  0  0
   -3.2574   24.3388  -28.6772 H   0  0  0  0  0  0  0  0  0  0  0  0
   -4.9551   23.8964  -29.0952 H   0  0  0  0  0  0  0  0  0  0  0  0
   -2.3673   22.7073  -30.0077 H   0  0  0  0  0  0  0  0  0  0  0  0
   -4.0127   21.9586  -29.7568 H   0  0  0  0  0  0  0  0  0  0  0  0
   -4.7194   23.1575  -31.8933 H   0  0  0  0  0  0  0  0  0  0  0  0
   -2.9444   23.4444  -32.1684 H   0  0  0  0  0  0  0  0  0  0  0  0
   -2.5724   21.3204  -32.8086 H   0  0  0  0  0  0  0  0  0  0  0  0
   -3.6347   20.6496  -31.5103 H   0  0  0  0  0  0  0  0  0  0  0  0
   -4.5370   21.5230  -34.2690 H   0  0  0  0  0  0  0  0  0  0  0  0
   -5.9505   23.0216  -32.4355 H   0  0  0  0  0  0  0  0  0  0  0  0
   -7.9822   24.2229  -31.6511 H   0  0  0  0  0  0  0  0  0  0  0  0
  -10.1093   22.9807  -31.3018 H   0  0  0  0  0  0  0  0  0  0  0  0
  -10.1935   20.5219  -31.6380 H   0  0  0  0  0  0  0  0  0  0  0  0
   -9.1543   18.2187  -30.6092 H   0  0  0  0  0  0  0  0  0  0  0  0
  -10.1690   18.6045  -32.0403 H   0  0  0  0  0  0  0  0  0  0  0  0
   -9.1385   17.1332  -32.0403 H   0  0  0  0  0  0  0  0  0  0  0  0
   -8.1094   16.4239  -33.1507 H   0  0  0  0  0  0  0  0  0  0  0  0
   -6.1875   15.2220  -34.1457 H   0  0  0  0  0  0  0  0  0  0  0  0
   -3.9952   16.3521  -34.4052 H   0  0  0  0  0  0  0  0  0  0  0  0
   -2.2945   17.2213  -33.4367 H   0  0  0  0  0  0  0  0  0  0  0  0
   -1.6112   18.4384  -34.5776 H   0  0  0  0  0  0  0  0  0  0  0  0
   -2.1079   19.3997  -31.7880 H   0  0  0  0  0  0  0  0  0  0  0  0
   -0.7831   18.1412  -32.0300 H   0  0  0  0  0  0  0  0  0  0  0  0
   -0.3721   20.6134  -30.8418 H   0  0  0  0  0  0  0  0  0  0  0  0
    0.5770   21.6559  -31.9549 H   0  0  0  0  0  0  0  0  0  0  0  0
   -1.2172   21.7419  -31.9549 H   0  0  0  0  0  0  0  0  0  0  0  0
    1.7129   20.1653  -32.7216 H   0  0  0  0  0  0  0  0  0  0  0  0
    1.0153   18.5004  -32.4740 H   0  0  0  0  0  0  0  0  0  0  0  0
    2.2740   18.6063  -34.5789 H   0  0  0  0  0  0  0  0  0  0  0  0
    0.4975   18.3658  -34.8715 H   0  0  0  0  0  0  0  0  0  0  0  0
    2.9251   21.0671  -34.4082 H   0  0  0  0  0  0  0  0  0  0  0  0
    3.2983   20.2499  -35.9637 H   0  0  0  0  0  0  0  0  0  0  0  0
    2.5198   21.8687  -35.9637 H   0  0  0  0  0  0  0  0  0  0  0  0
    0.3257   18.9023  -36.7678 H   0  0  0  0  0  0  0  0  0  0  0  0
    0.3957   20.6050  -37.3356 H   0  0  0  0  0  0  0  0  0  0  0  0
    1.8821   19.5964  -37.3356 H   0  0  0  0  0  0  0  0  0  0  0  0
    0.7233   22.0337  -34.3771 H   0  0  0  0  0  0  0  0  0  0  0  0
   -0.2284   21.6991  -35.8893 H   0  0  0  0  0  0  0  0  0  0  0  0
   -1.6400   21.4050  -33.9011 H   0  0  0  0  0  0  0  0  0  0  0  0
   -1.3532   19.8249  -34.7560 H   0  0  0  0  0  0  0  0  0  0  0  0
  1  2  1  0
  2  3  1  0
  3  4  1  0
  4  5  1  0
  5  6  1  0
  6  7  1  0
  7  8  1  0
  8  9  1  0
  9 10  2  0
 10 11  1  0
 11 12  2  0
 12 13  1  0
 13 14  2  0
 14 15  1  0
 15 16  2  0
 16 17  1  0
 16 18  1  0
 18 19  2  0
 19 20  1  0
 20 21  2  0
 21 22  1  0
 22 23  1  0
 23 24  1  0
 24 25  1  0
 25 26  1  0
 26 27  1  0
 26 28  1  0
 28 29  1  0
 29 30  1  0
 30 31  1  0
 30 32  1  0
 30 33  1  0
 33 34  1  0
 22 35  2  0
 35  9  1  0
 15 10  1  0
 35 18  1  0
 34 26  1  0
  1 36  1  0
  1 37  1  0
  1 38  1  0
  2 39  1  0
  2 40  1  0
  3 41  1  0
  4 42  1  0
  4 43  1  0
  5 44  1  0
  5 45  1  0
  6 46  1  0
  6 47  1  0
  7 48  1  0
  7 49  1  0
  8 50  1  0
 11 51  1  0
 12 52  1  0
 13 53  1  0
 14 54  1  0
 17 55  1  0
 17 56  1  0
 17 57  1  0
 19 58  1  0
 20 59  1  0
 21 60  1  0
 24 61  1  0
 24 62  1  0
 25 63  1  0
 25 64  1  0
 27 65  1  0
 27 66  1  0
 27 67  1  0
 28 68  1  0
 28 69  1  0
 29 70  1  0
 29 71  1  0
 31 72  1  0
 31 73  1  0
 31 74  1  0
 32 75  1  0
 32 76  1  0
 32 77  1  0
 33 78  1  0
 33 79  1  0
 34 80  1  0
 34 81  1  0
M  CHG  3  16   1  26   1  30   1
M  END
>  <UniqueID>  (11) 
10

>  <SMILES>  (11) 
CCNCCCCNc1c2ccccc2[n+](C)c2cccc(OCC[N+]3(C)CC[N+](C)(C)CC3)c12

>  <Energy>  (11) 
130.07553867630136

>  <Genealogy>  (11) 
CCNCCCCNc1c2ccccc2[n+](C)c2cccc(OCC[N+]3(C)CC[N+](C)(C)CC3)c12 (3D coordinates assigned)
CCNCCCCNc1c2ccccc2[n+](C)c2cccc(OCC[N+]3(C)CC[N+](C)(C)CC3)c12 (nonaromatic ring conformer: 130.07553867630136 kcal/mol)

>  <smiles>  (11) 
CCNCCCCNc1c2ccccc2[n+](C)c2cccc(OCC[N+]3(C)CC[N+](C)(C)CC3)c12

>  <score_type>  (11) 
oracle

>  <origin>  (11) 
adg

>  <m_score__min__energy>  (11) 
-9.25

>  <m_primary>  (11) 
energy

$$$$
11:0
     RDKit          3D

 51 52  0  0  0  0  0  0  0  0999 V2000
   -3.3150   23.6140  -28.1790 C   0  0  0  0  0  0  0  0  0  0  0  0
   -2.5890   23.8930  -29.4910 C   0  0  0  0  0  0  0  0  0  0  0  0
   -3.4810   24.4590  -30.4520 O   0  0  0  0  0  0  0  0  0  0  0  0
   -4.8280   24.1020  -30.6280 C   0  0  0  0  0  0  0  0  0  0  0  0
   -5.9020   24.9760  -30.3040 C   0  0  0  0  0  0  0  0  0  0  0  0
   -7.2360   24.5730  -30.4910 C   0  0  0  0  0  0  0  0  0  0  0  0
   -7.4680   23.2990  -30.9990 C   0  0  0  0  0  0  0  0  0  0  0  0
   -8.6270   22.7380  -31.2390 O   0  0  0  0  0  0  0  0  0  0  0  0
   -8.3980   21.5280  -31.7160 C   0  0  0  0  0  0  0  0  0  0  0  0
   -9.4970   20.6040  -32.1290 C   0  0  0  0  0  0  0  0  0  0  0  0
   -7.0210   21.2810  -31.7760 C   0  0  0  0  0  0  0  0  0  0  0  0
   -6.3200   20.0700  -32.2540 C   0  0  0  0  0  0  0  0  0  0  0  0
   -5.3440   19.6240  -31.5910 O   0  0  0  0  0  0  0  0  0  0  0  0
   -6.7560   19.3820  -33.4360 N   0  0  0  0  0  0  0  0  0  0  0  0
   -6.0840   18.1790  -33.9290 C   0  0  0  0  0  0  0  0  0  0  0  0
   -4.7020   18.5040  -34.5250 C   0  0  0  0  0  0  0  0  0  0  0  0
   -3.6200   18.3760  -33.5210 N   0  0  0  0  0  0  0  0  0  0  0  0
   -3.4380   16.9640  -33.1270 C   0  0  0  0  0  0  0  0  0  0  0  0
   -2.3470   18.9300  -34.0410 C   0  0  0  0  0  0  0  0  0  0  0  0
   -2.3000   20.4520  -33.8130 C   0  0  0  0  0  0  0  0  0  0  0  0
   -3.0350   20.8650  -32.6050 N   0  0  0  0  0  0  0  0  0  0  0  0
   -2.1530   21.0250  -31.4460 C   0  0  0  0  0  0  0  0  0  0  0  0
   -6.4420   22.4510  -31.3180 C   0  0  0  0  0  0  0  0  0  0  0  0
   -5.1070   22.8180  -31.1370 C   0  0  0  0  0  0  0  0  0  0  0  0
   -2.6568   23.8669  -27.3347 H   0  0  0  0  0  0  0  0  0  0  0  0
   -4.2281   24.2253  -28.1280 H   0  0  0  0  0  0  0  0  0  0  0  0
   -3.5837   22.5485  -28.1280 H   0  0  0  0  0  0  0  0  0  0  0  0
   -1.7649   24.5973  -29.3048 H   0  0  0  0  0  0  0  0  0  0  0  0
   -2.1985   22.9441  -29.8874 H   0  0  0  0  0  0  0  0  0  0  0  0
   -5.6869   25.9775  -29.9030 H   0  0  0  0  0  0  0  0  0  0  0  0
   -8.0709   25.2449  -30.2431 H   0  0  0  0  0  0  0  0  0  0  0  0
   -9.9861   20.1927  -31.2337 H   0  0  0  0  0  0  0  0  0  0  0  0
  -10.2350   21.1569  -32.7287 H   0  0  0  0  0  0  0  0  0  0  0  0
   -9.0790   19.7820  -32.7287 H   0  0  0  0  0  0  0  0  0  0  0  0
   -7.6730   19.6350  -33.8630 H   0  0  0  0  0  0  0  0  0  0  0  0
   -5.9557   17.4745  -33.0940 H   0  0  0  0  0  0  0  0  0  0  0  0
   -6.7056   17.7393  -34.7229 H   0  0  0  0  0  0  0  0  0  0  0  0
   -4.5008   17.8098  -35.3542 H   0  0  0  0  0  0  0  0  0  0  0  0
   -4.7196   19.5470  -34.8742 H   0  0  0  0  0  0  0  0  0  0  0  0
   -3.4282   16.8879  -32.0297 H   0  0  0  0  0  0  0  0  0  0  0  0
   -4.2659   16.3615  -33.5290 H   0  0  0  0  0  0  0  0  0  0  0  0
   -2.4844   16.5912  -33.5290 H   0  0  0  0  0  0  0  0  0  0  0  0
   -1.5034   18.4574  -33.5166 H   0  0  0  0  0  0  0  0  0  0  0  0
   -2.2793   18.7253  -35.1197 H   0  0  0  0  0  0  0  0  0  0  0  0
   -1.2493   20.7608  -33.7093 H   0  0  0  0  0  0  0  0  0  0  0  0
   -2.7802   20.9342  -34.6773 H   0  0  0  0  0  0  0  0  0  0  0  0
   -3.7720   20.1580  -32.3750 H   0  0  0  0  0  0  0  0  0  0  0  0
   -2.7395   20.9186  -30.5215 H   0  0  0  0  0  0  0  0  0  0  0  0
   -1.3684   20.2545  -31.4732 H   0  0  0  0  0  0  0  0  0  0  0  0
   -1.6890   22.0220  -31.4732 H   0  0  0  0  0  0  0  0  0  0  0  0
   -4.2927   22.1216  -31.3858 H   0  0  0  0  0  0  0  0  0  0  0  0
  1  2  1  0
  2  3  1  0
  3  4  1  0
  4  5  2  0
  5  6  1  0
  6  7  2  0
  7  8  1  0
  8  9  1  0
  9 10  1  0
  9 11  2  0
 11 12  1  0
 12 13  2  0
 12 14  1  0
 14 15  1  0
 15 16  1  0
 16 17  1  0
 17 18  1  0
 17 19  1  0
 19 20  1  0
 20 21  1  0
 21 22  1  0
 11 23  1  0
 23 24  2  0
 24  4  1  0
 23  7  1  0
  1 25  1  0
  1 26  1  0
  1 27  1  0
  2 28  1  0
  2 29  1  0
  5 30  1  0
  6 31  1  0
 10 32  1  0
 10 33  1  0
 10 34  1  0
 14 35  1  0
 15 36  1  0
 15 37  1  0
 16 38  1  0
 16 39  1  0
 18 40  1  0
 18 41  1  0
 18 42  1  0
 19 43  1  0
 19 44  1  0
 20 45  1  0
 20 46  1  0
 21 47  1  0
 22 48  1  0
 22 49  1  0
 22 50  1  0
 24 51  1  0
M  END
>  <UniqueID>  (12) 
11

>  <SMILES>  (12) 
CCOc1ccc2oc(C)c(C(=O)NCCN(C)CCNC)c2c1

>  <Energy>  (12) 
83.01699085155208

>  <Genealogy>  (12) 
CCOc1ccc2oc(C)c(C(=O)NCCN(C)CCNC)c2c1 (3D coordinates assigned)
CCOc1ccc2oc(C)c(C(=O)NCCN(C)CCNC)c2c1 (optimized conformer: 83.01699085155208 kcal/mol)

>  <smiles>  (12) 
CCOc1ccc2oc(C)c(C(=O)NCCN(C)CCNC)c2c1

>  <score_type>  (12) 
oracle

>  <origin>  (12) 
adg

>  <m_score__min__energy>  (12) 
-7.3300000000000001

>  <m_primary>  (12) 
energy

$$$$
12:0
     RDKit          3D

 50 54  0  0  0  0  0  0  0  0999 V2000
    0.4520   27.3690  -22.9510 C   0  0  0  0  0  0  0  0  0  0  0  0
   -0.0340   27.1750  -24.3100 N   0  0  0  0  0  0  0  0  0  0  0  0
   -0.8530   26.1880  -24.7180 C   0  0  0  0  0  0  0  0  0  0  0  0
   -1.1350   26.3960  -26.0560 C   0  0  0  0  0  0  0  0  0  0  0  0
   -1.9870   25.5880  -26.9520 C   0  0  0  0  0  0  0  0  0  0  0  0
   -3.1520   24.9570  -26.4880 C   0  0  0  0  0  0  0  0  0  0  0  0
   -3.9250   24.2040  -27.3730 C   0  0  0  0  0  0  0  0  0  0  0  0
   -3.5480   24.0890  -28.7180 C   0  0  0  0  0  0  0  0  0  0  0  0
   -4.3550   23.2730  -29.6530 C   0  0  0  0  0  0  0  0  0  0  0  0
   -4.0080   21.9820  -30.0560 C   0  0  0  0  0  0  0  0  0  0  0  0
   -4.9930   21.6200  -30.9410 C   0  0  0  0  0  0  0  0  0  0  0  0
   -5.1240   20.4660  -31.6400 N   0  0  0  0  0  0  0  0  0  0  0  0
   -6.1850   20.3050  -32.4910 C   0  0  0  0  0  0  0  0  0  0  0  0
   -6.3190   19.0720  -33.2320 N   0  0  0  0  0  0  0  0  0  0  0  0
   -7.2820   18.0610  -32.7760 C   0  0  0  0  0  0  0  0  0  0  0  0
   -6.8450   16.6660  -33.2320 C   0  0  0  0  0  0  0  0  0  0  0  0
   -6.5810   16.6530  -34.6200 O   0  0  0  0  0  0  0  0  0  0  0  0
   -5.4630   17.4720  -34.8970 C   0  0  0  0  0  0  0  0  0  0  0  0
   -5.7710   18.9400  -34.5880 C   0  0  0  0  0  0  0  0  0  0  0  0
   -7.1390   21.3530  -32.6240 C   0  0  0  0  0  0  0  0  0  0  0  0
   -6.9860   22.5450  -31.8930 C   0  0  0  0  0  0  0  0  0  0  0  0
   -5.8840   22.6460  -31.0460 C   0  0  0  0  0  0  0  0  0  0  0  0
   -5.5180   23.6690  -30.2460 N   0  0  0  0  0  0  0  0  0  0  0  0
   -6.2390   24.9300  -30.0610 C   0  0  0  0  0  0  0  0  0  0  0  0
   -2.3670   24.7190  -29.1380 C   0  0  0  0  0  0  0  0  0  0  0  0
   -1.6290   25.4440  -28.2580 N   0  0  0  0  0  0  0  0  0  0  0  0
   -0.4530   27.5540  -26.3890 C   0  0  0  0  0  0  0  0  0  0  0  0
    0.2030   28.0140  -25.3050 N   0  0  0  0  0  0  0  0  0  0  0  0
   -0.3245   27.0590  -22.2362 H   0  0  0  0  0  0  0  0  0  0  0  0
    1.3568   26.7631  -22.7952 H   0  0  0  0  0  0  0  0  0  0  0  0
    0.6908   28.4314  -22.7952 H   0  0  0  0  0  0  0  0  0  0  0  0
   -1.2311   25.3623  -24.0974 H   0  0  0  0  0  0  0  0  0  0  0  0
   -3.4534   25.0553  -25.4347 H   0  0  0  0  0  0  0  0  0  0  0  0
   -4.8336   23.6988  -27.0136 H   0  0  0  0  0  0  0  0  0  0  0  0
   -3.1394   21.3878  -29.7359 H   0  0  0  0  0  0  0  0  0  0  0  0
   -7.3379   18.0827  -31.6776 H   0  0  0  0  0  0  0  0  0  0  0  0
   -8.2682   18.2859  -33.2084 H   0  0  0  0  0  0  0  0  0  0  0  0
   -5.9331   16.3779  -32.6885 H   0  0  0  0  0  0  0  0  0  0  0  0
   -7.6570   15.9548  -33.0203 H   0  0  0  0  0  0  0  0  0  0  0  0
   -4.6144   17.1442  -34.2786 H   0  0  0  0  0  0  0  0  0  0  0  0
   -5.2174   17.3818  -35.9654 H   0  0  0  0  0  0  0  0  0  0  0  0
   -4.8449   19.5287  -34.6639 H   0  0  0  0  0  0  0  0  0  0  0  0
   -6.5131   19.3095  -35.3110 H   0  0  0  0  0  0  0  0  0  0  0  0
   -7.9980   21.2304  -33.3001 H   0  0  0  0  0  0  0  0  0  0  0  0
   -7.7101   23.3678  -31.9866 H   0  0  0  0  0  0  0  0  0  0  0  0
   -6.3545   25.1320  -28.9859 H   0  0  0  0  0  0  0  0  0  0  0  0
   -5.6724   25.7484  -30.5291 H   0  0  0  0  0  0  0  0  0  0  0  0
   -7.2318   24.8568  -30.5291 H   0  0  0  0  0  0  0  0  0  0  0  0
   -2.0376   24.6255  -30.1834 H   0  0  0  0  0  0  0  0  0  0  0  0
   -0.4474   28.0251  -27.3830 H   0  0  0  0  0  0  0  0  0  0  0  0
  1  2  1  0
  2  3  1  0
  3  4  2  0
  4  5  1  0
  5  6  2  0
  6  7  1  0
  7  8  2  0
  8  9  1  0
  9 10  2  0
 10 11  1  0
 11 12  2  0
 12 13  1  0
 13 14  1  0
 14 15  1  0
 15 16  1  0
 16 17  1  0
 17 18  1  0
 18 19  1  0
 13 20  2  0
 20 21  1  0
 21 22  2  0
 22 23  1  0
 23 24  1  0
  8 25  1  0
 25 26  2  0
  4 27  1  0
 27 28  2  0
 28  2  1  0
 26  5  1  0
 23  9  1  0
 22 11  1  0
 19 14  1  0
  1 29  1  0
  1 30  1  0
  1 31  1  0
  3 32  1  0
  6 33  1  0
  7 34  1  0
 10 35  1  0
 15 36  1  0
 15 37  1  0
 16 38  1  0
 16 39  1  0
 18 40  1  0
 18 41  1  0
 19 42  1  0
 19 43  1  0
 20 44  1  0
 21 45  1  0
 24 46  1  0
 24 47  1  0
 24 48  1  0
 25 49  1  0
 27 50  1  0
M  END
>  <UniqueID>  (13) 
12

>  <SMILES>  (13) 
Cn1cc(-c2ccc(-c3cc4nc(N5CCOCC5)ccc4n3C)cn2)cn1

>  <Energy>  (13) 
130.4956937827845

>  <Genealogy>  (13) 
Cn1cc(-c2ccc(-c3cc4nc(N5CCOCC5)ccc4n3C)cn2)cn1 (3D coordinates assigned)
Cn1cc(-c2ccc(-c3cc4nc(N5CCOCC5)ccc4n3C)cn2)cn1 (nonaromatic ring conformer: 130.4956937827845 kcal/mol)

>  <smiles>  (13) 
Cn1cc(-c2ccc(-c3cc4nc(N5CCOCC5)ccc4n3C)cn2)cn1

>  <score_type>  (13) 
oracle

>  <origin>  (13) 
adg

>  <m_score__min__energy>  (13) 
-8.1999999999999993

>  <m_primary>  (13) 
energy

$$$$
13:0
     RDKit          3D

 64 67  0  0  0  0  0  0  0  0999 V2000
   -0.0300   21.0780  -35.2830 C   0  0  0  0  0  0  0  0  0  0  0  0
   -0.9270   20.1500  -34.4660 C   0  0  0  0  0  0  0  0  0  0  0  0
   -2.1640   20.8280  -34.0470 N   0  0  0  0  0  0  0  0  0  0  0  0
   -2.1930   21.1190  -32.6030 C   0  0  0  0  0  0  0  0  0  0  0  0
   -3.5920   21.6110  -32.2100 C   0  0  0  0  0  0  0  0  0  0  0  0
   -4.5510   21.5480  -33.3320 N   0  0  0  0  0  0  0  0  0  0  0  0
   -5.7150   20.7260  -33.0270 C   0  0  0  0  0  0  0  0  0  0  0  0
   -5.7380   19.3500  -33.4290 C   0  0  0  0  0  0  0  0  0  0  0  0
   -4.6940   18.7550  -34.1930 C   0  0  0  0  0  0  0  0  0  0  0  0
   -4.7280   17.4110  -34.5530 C   0  0  0  0  0  0  0  0  0  0  0  0
   -5.8030   16.6200  -34.1890 C   0  0  0  0  0  0  0  0  0  0  0  0
   -6.8540   17.1690  -33.4660 C   0  0  0  0  0  0  0  0  0  0  0  0
   -6.8430   18.5310  -33.0650 C   0  0  0  0  0  0  0  0  0  0  0  0
   -7.9010   19.0660  -32.3740 N   0  0  0  0  0  0  0  0  0  0  0  0
   -8.8960   18.1750  -31.7340 C   0  0  0  0  0  0  0  0  0  0  0  0
   -8.0310   20.4300  -32.2560 C   0  0  0  0  0  0  0  0  0  0  0  0
   -9.2950   20.9950  -31.9680 C   0  0  0  0  0  0  0  0  0  0  0  0
   -9.4390   22.3480  -31.7230 C   0  0  0  0  0  0  0  0  0  0  0  0
   -8.3250   23.1610  -31.6910 C   0  0  0  0  0  0  0  0  0  0  0  0
   -7.0520   22.6560  -31.9780 C   0  0  0  0  0  0  0  0  0  0  0  0
   -5.7380   23.8470  -31.6410 S   0  0  0  0  0  0  0  0  0  0  0  0
   -5.5760   23.4380  -29.8620 C   0  0  0  0  0  0  0  0  0  0  0  0
   -4.6140   24.3830  -29.1170 C   0  0  0  0  0  0  0  0  0  0  0  0
   -4.2630   23.9200  -27.6910 C   0  0  0  0  0  0  0  0  0  0  0  0
   -3.0640   24.5970  -27.1720 N   0  0  0  0  0  0  0  0  0  0  0  0
   -3.1350   25.3020  -26.0020 C   0  0  0  0  0  0  0  0  0  0  0  0
   -2.0080   25.9590  -25.5000 C   0  0  0  0  0  0  0  0  0  0  0  0
   -0.8040   25.8840  -26.1970 C   0  0  0  0  0  0  0  0  0  0  0  0
   -0.7370   25.1540  -27.3820 C   0  0  0  0  0  0  0  0  0  0  0  0
   -1.8810   24.5100  -27.8560 C   0  0  0  0  0  0  0  0  0  0  0  0
   -6.8980   21.2870  -32.4180 C   0  0  0  0  0  0  0  0  0  0  0  0
    0.5708   21.6996  -34.6028 H   0  0  0  0  0  0  0  0  0  0  0  0
    0.6383   20.4771  -35.9173 H   0  0  0  0  0  0  0  0  0  0  0  0
   -0.6532   21.7255  -35.9173 H   0  0  0  0  0  0  0  0  0  0  0  0
   -1.1889   19.2749  -35.0789 H   0  0  0  0  0  0  0  0  0  0  0  0
   -0.3775   19.8450  -33.5632 H   0  0  0  0  0  0  0  0  0  0  0  0
   -2.2110   21.7370  -34.5650 H   0  0  0  0  0  0  0  0  0  0  0  0
   -1.9538   20.2050  -32.0396 H   0  0  0  0  0  0  0  0  0  0  0  0
   -1.4512   21.8971  -32.3702 H   0  0  0  0  0  0  0  0  0  0  0  0
   -3.9686   20.9835  -31.3887 H   0  0  0  0  0  0  0  0  0  0  0  0
   -3.5022   22.6645  -31.9065 H   0  0  0  0  0  0  0  0  0  0  0  0
   -4.0970   21.2090  -34.1980 H   0  0  0  0  0  0  0  0  0  0  0  0
   -4.7850   22.5130  -33.6380 H   0  0  0  0  0  0  0  0  0  0  0  0
   -3.8396   19.3728  -34.5064 H   0  0  0  0  0  0  0  0  0  0  0  0
   -3.8975   16.9764  -35.1287 H   0  0  0  0  0  0  0  0  0  0  0  0
   -5.8253   15.5572  -34.4719 H   0  0  0  0  0  0  0  0  0  0  0  0
   -7.7126   16.5356  -33.1985 H   0  0  0  0  0  0  0  0  0  0  0  0
   -8.8085   18.2534  -30.6403 H   0  0  0  0  0  0  0  0  0  0  0  0
   -9.9084   18.4740  -32.0432 H   0  0  0  0  0  0  0  0  0  0  0  0
   -8.7101   17.1358  -32.0432 H   0  0  0  0  0  0  0  0  0  0  0  0
  -10.1817   20.3447  -31.9383 H   0  0  0  0  0  0  0  0  0  0  0  0
  -10.4386   22.7748  -31.5541 H   0  0  0  0  0  0  0  0  0  0  0  0
   -8.4394   24.2248  -31.4354 H   0  0  0  0  0  0  0  0  0  0  0  0
   -6.5690   23.5069  -29.3938 H   0  0  0  0  0  0  0  0  0  0  0  0
   -5.1615   22.4215  -29.7924 H   0  0  0  0  0  0  0  0  0  0  0  0
   -3.6820   24.4556  -29.6967 H   0  0  0  0  0  0  0  0  0  0  0  0
   -5.1283   25.3506  -29.0206 H   0  0  0  0  0  0  0  0  0  0  0  0
   -5.1114   24.1411  -27.0267 H   0  0  0  0  0  0  0  0  0  0  0  0
   -4.0559   22.8402  -27.7253 H   0  0  0  0  0  0  0  0  0  0  0  0
   -4.0863   25.3523  -25.4520 H   0  0  0  0  0  0  0  0  0  0  0  0
   -2.0712   26.5306  -24.5623 H   0  0  0  0  0  0  0  0  0  0  0  0
    0.0894   26.3986  -25.8137 H   0  0  0  0  0  0  0  0  0  0  0  0
    0.2091   25.0859  -27.9390 H   0  0  0  0  0  0  0  0  0  0  0  0
   -1.8318   23.9272  -28.7876 H   0  0  0  0  0  0  0  0  0  0  0  0
  1  2  1  0
  2  3  1  0
  3  4  1  0
  4  5  1  0
  5  6  1  0
  6  7  1  0
  7  8  2  0
  8  9  1  0
  9 10  2  0
 10 11  1  0
 11 12  2  0
 12 13  1  0
 13 14  2  0
 14 15  1  0
 14 16  1  0
 16 17  2  0
 17 18  1  0
 18 19  2  0
 19 20  1  0
 20 21  1  0
 21 22  1  0
 22 23  1  0
 23 24  1  0
 24 25  1  0
 25 26  2  0
 26 27  1  0
 27 28  2  0
 28 29  1  0
 29 30  2  0
 20 31  2  0
 31  7  1  0
 13  8  1  0
 31 16  1  0
 30 25  1  0
  1 32  1  0
  1 33  1  0
  1 34  1  0
  2 35  1  0
  2 36  1  0
  3 37  1  0
  4 38  1  0
  4 39  1  0
  5 40  1  0
  5 41  1  0
  6 42  1  0
  6 43  1  0
  9 44  1  0
 10 45  1  0
 11 46  1  0
 12 47  1  0
 15 48  1  0
 15 49  1  0
 15 50  1  0
 17 51  1  0
 18 52  1  0
 19 53  1  0
 22 54  1  0
 22 55  1  0
 23 56  1  0
 23 57  1  0
 24 58  1  0
 24 59  1  0
 26 60  1  0
 27 61  1  0
 28 62  1  0
 29 63  1  0
 30 64  1  0
M  CHG  3   6   1  14   1  25   1
M  END
>  <UniqueID>  (14) 
13

>  <SMILES>  (14) 
CCNCC[NH2+]c1c2ccccc2[n+](C)c2cccc(SCCC[n+]3ccccc3)c12

>  <Energy>  (14) 
103.22840328833527

>  <Genealogy>  (14) 
CCNCC[NH2+]c1c2ccccc2[n+](C)c2cccc(SCCC[n+]3ccccc3)c12 (protonated)
CCNCC[NH2+]c1c2ccccc2[n+](C)c2cccc(SCCC[n+]3ccccc3)c12 (3D coordinates assigned)
CCNCC[NH2+]c1c2ccccc2[n+](C)c2cccc(SCCC[n+]3ccccc3)c12 (optimized conformer: 103.22840328833527 kcal/mol)

>  <smiles>  (14) 
CCNCCNc1c2ccccc2[n+](C)c2cccc(SCCC[n+]3ccccc3)c12

>  <score_type>  (14) 
oracle

>  <origin>  (14) 
adg

>  <m_score__min__energy>  (14) 
-8.7799999999999994

>  <m_primary>  (14) 
energy

$$$$
14:0
     RDKit          3D

 72 74  0  0  0  0  0  0  0  0999 V2000
   -0.7000   20.5070  -30.3060 C   0  0  0  0  0  0  0  0  0  0  0  0
   -0.5100   22.0150  -30.0560 C   0  0  0  0  0  0  0  0  0  0  0  0
   -1.4370   22.6220  -29.0540 N   0  0  0  0  0  0  0  0  0  0  0  0
   -2.0750   21.6260  -28.1520 C   0  0  0  0  0  0  0  0  0  0  0  0
   -1.3450   21.4670  -26.8120 C   0  0  0  0  0  0  0  0  0  0  0  0
   -0.8500   23.8030  -28.3620 C   0  0  0  0  0  0  0  0  0  0  0  0
   -1.7980   25.0070  -28.1950 C   0  0  0  0  0  0  0  0  0  0  0  0
   -2.6970   25.0910  -29.2860 O   0  0  0  0  0  0  0  0  0  0  0  0
   -3.9680   24.5400  -28.9750 C   0  0  0  0  0  0  0  0  0  0  0  0
   -4.5690   23.9100  -30.2260 C   0  0  0  0  0  0  0  0  0  0  0  0
   -3.5320   23.3590  -31.0150 O   0  0  0  0  0  0  0  0  0  0  0  0
   -3.7000   21.9620  -31.1840 C   0  0  0  0  0  0  0  0  0  0  0  0
   -3.3510   21.5230  -32.6120 C   0  0  0  0  0  0  0  0  0  0  0  0
   -4.5380   21.4640  -33.4650 N   0  0  0  0  0  0  0  0  0  0  0  0
   -5.6780   20.6940  -33.0670 C   0  0  0  0  0  0  0  0  0  0  0  0
   -5.6930   19.3060  -33.2680 C   0  0  0  0  0  0  0  0  0  0  0  0
   -6.8100   18.5600  -32.8530 C   0  0  0  0  0  0  0  0  0  0  0  0
   -7.8530   19.1740  -32.1890 N   0  0  0  0  0  0  0  0  0  0  0  0
   -8.9120   18.3470  -31.5730 C   0  0  0  0  0  0  0  0  0  0  0  0
   -7.9220   20.5550  -32.1290 C   0  0  0  0  0  0  0  0  0  0  0  0
   -6.8070   21.3360  -32.5340 C   0  0  0  0  0  0  0  0  0  0  0  0
   -6.8370   22.8570  -32.4990 C   0  0  0  0  0  0  0  0  0  0  0  0
   -7.9690   23.4310  -31.6500 C   0  0  0  0  0  0  0  0  0  0  0  0
   -9.2720   22.7130  -31.9660 C   0  0  0  0  0  0  0  0  0  0  0  0
   -9.1600   21.2430  -31.5670 C   0  0  0  0  0  0  0  0  0  0  0  0
   -6.8030   17.0740  -33.1660 C   0  0  0  0  0  0  0  0  0  0  0  0
   -6.2610   16.8390  -34.5780 C   0  0  0  0  0  0  0  0  0  0  0  0
   -4.8490   17.4210  -34.7790 C   0  0  0  0  0  0  0  0  0  0  0  0
   -4.4840   18.5740  -33.8200 C   0  0  0  0  0  0  0  0  0  0  0  0
   -0.7663   19.9810  -29.3422 H   0  0  0  0  0  0  0  0  0  0  0  0
   -1.6258   20.3438  -30.8772 H   0  0  0  0  0  0  0  0  0  0  0  0
    0.1564   20.1193  -30.8772 H   0  0  0  0  0  0  0  0  0  0  0  0
    0.5202   22.1732  -29.7042 H   0  0  0  0  0  0  0  0  0  0  0  0
   -0.7325   22.5104  -31.0126 H   0  0  0  0  0  0  0  0  0  0  0  0
   -2.2200   23.0210  -29.6270 H   0  0  0  0  0  0  0  0  0  0  0  0
   -3.1076   21.9476  -27.9512 H   0  0  0  0  0  0  0  0  0  0  0  0
   -2.0364   20.6522  -28.6621 H   0  0  0  0  0  0  0  0  0  0  0  0
   -2.0556   21.6218  -25.9867 H   0  0  0  0  0  0  0  0  0  0  0  0
   -0.9191   20.4550  -26.7443 H   0  0  0  0  0  0  0  0  0  0  0  0
   -0.5369   22.2102  -26.7443 H   0  0  0  0  0  0  0  0  0  0  0  0
   -0.5264   23.4838  -27.3603 H   0  0  0  0  0  0  0  0  0  0  0  0
   -0.0255   24.1514  -29.0013 H   0  0  0  0  0  0  0  0  0  0  0  0
   -2.3708   24.8892  -27.2633 H   0  0  0  0  0  0  0  0  0  0  0  0
   -1.1974   25.9279  -28.1597 H   0  0  0  0  0  0  0  0  0  0  0  0
   -3.8538   23.7716  -28.1962 H   0  0  0  0  0  0  0  0  0  0  0  0
   -4.6333   25.3363  -28.6099 H   0  0  0  0  0  0  0  0  0  0  0  0
   -5.2721   23.1154  -29.9360 H   0  0  0  0  0  0  0  0  0  0  0  0
   -5.1049   24.6770  -30.8044 H   0  0  0  0  0  0  0  0  0  0  0  0
   -3.0425   21.4347  -30.4771 H   0  0  0  0  0  0  0  0  0  0  0  0
   -4.7553   21.7157  -30.9951 H   0  0  0  0  0  0  0  0  0  0  0  0
   -2.6384   22.2422  -33.0420 H   0  0  0  0  0  0  0  0  0  0  0  0
   -2.9129   20.5152  -32.5636 H   0  0  0  0  0  0  0  0  0  0  0  0
   -4.5540   21.9190  -34.4070 H   0  0  0  0  0  0  0  0  0  0  0  0
   -8.8341   18.4079  -30.4775 H   0  0  0  0  0  0  0  0  0  0  0  0
   -9.8978   18.7167  -31.8916 H   0  0  0  0  0  0  0  0  0  0  0  0
   -8.7922   17.3010  -31.8916 H   0  0  0  0  0  0  0  0  0  0  0  0
   -5.8806   23.2135  -32.0889 H   0  0  0  0  0  0  0  0  0  0  0  0
   -7.0054   23.1983  -33.5311 H   0  0  0  0  0  0  0  0  0  0  0  0
   -7.7289   23.2980  -30.5848 H   0  0  0  0  0  0  0  0  0  0  0  0
   -8.0827   24.5015  -31.8761 H   0  0  0  0  0  0  0  0  0  0  0  0
  -10.0935   23.1825  -31.4050 H   0  0  0  0  0  0  0  0  0  0  0  0
   -9.4740   22.7831  -33.0450 H   0  0  0  0  0  0  0  0  0  0  0  0
   -9.1247   21.1816  -30.4693 H   0  0  0  0  0  0  0  0  0  0  0  0
  -10.0363   20.7259  -31.9850 H   0  0  0  0  0  0  0  0  0  0  0  0
   -6.1640   16.5516  -32.4389 H   0  0  0  0  0  0  0  0  0  0  0  0
   -7.8310   16.6873  -33.1048 H   0  0  0  0  0  0  0  0  0  0  0  0
   -6.2246   15.7556  -34.7649 H   0  0  0  0  0  0  0  0  0  0  0  0
   -6.9341   17.3515  -35.2811 H   0  0  0  0  0  0  0  0  0  0  0  0
   -4.1202   16.6101  -34.6329 H   0  0  0  0  0  0  0  0  0  0  0  0
   -4.8288   17.8434  -35.7945 H   0  0  0  0  0  0  0  0  0  0  0  0
   -3.9133   18.1582  -32.9765 H   0  0  0  0  0  0  0  0  0  0  0  0
   -3.8993   19.3042  -34.3987 H   0  0  0  0  0  0  0  0  0  0  0  0
  1  2  1  0
  2  3  1  0
  3  4  1  0
  4  5  1  0
  3  6  1  0
  6  7  1  0
  7  8  1  0
  8  9  1  0
  9 10  1  0
 10 11  1  0
 11 12  1  0
 12 13  1  0
 13 14  1  0
 14 15  1  0
 15 16  2  0
 16 17  1  0
 17 18  2  0
 18 19  1  0
 18 20  1  0
 20 21  2  0
 21 22  1  0
 22 23  1  0
 23 24  1  0
 24 25  1  0
 17 26  1  0
 26 27  1  0
 27 28  1  0
 28 29  1  0
 21 15  1  0
 29 16  1  0
 25 20  1  0
  1 30  1  0
  1 31  1  0
  1 32  1  0
  2 33  1  0
  2 34  1  0
  3 35  1  0
  4 36  1  0
  4 37  1  0
  5 38  1  0
  5 39  1  0
  5 40  1  0
  6 41  1  0
  6 42  1  0
  7 43  1  0
  7 44  1  0
  9 45  1  0
  9 46  1  0
 10 47  1  0
 10 48  1  0
 12 49  1  0
 12 50  1  0
 13 51  1  0
 13 52  1  0
 14 53  1  0
 19 54  1  0
 19 55  1  0
 19 56  1  0
 22 57  1  0
 22 58  1  0
 23 59  1  0
 23 60  1  0
 24 61  1  0
 24 62  1  0
 25 63  1  0
 25 64  1  0
 26 65  1  0
 26 66  1  0
 27 67  1  0
 27 68  1  0
 28 69  1  0
 28 70  1  0
 29 71  1  0
 29 72  1  0
M  CHG  2   3   1  18   1
M  END
>  <UniqueID>  (15) 
14

>  <SMILES>  (15) 
CC[NH+](CC)CCOCCOCCNc1c2c([n+](C)c3c1CCCC3)CCCC2

>  <Energy>  (15) 
100.74231943980033

>  <Genealogy>  (15) 
CC[NH+](CC)CCOCCOCCNc1c2c([n+](C)c3c1CCCC3)CCCC2 (protonated)
CC[NH+](CC)CCOCCOCCNc1c2c([n+](C)c3c1CCCC3)CCCC2 (3D coordinates assigned)
CC[NH+](CC)CCOCCOCCNc1c2c([n+](C)c3c1CCCC3)CCCC2 (nonaromatic ring conformer: 100.74231943980033 kcal/mol)

>  <smiles>  (15) 
CCN(CC)CCOCCOCCNc1c2c([n+](C)c3c1CCCC3)CCCC2

>  <score_type>  (15) 
oracle

>  <origin>  (15) 
adg

>  <m_score__min__energy>  (15) 
-9.6400000000000006

>  <m_primary>  (15) 
energy

$$$$
15:0
     RDKit          3D

 25 24  0  0  0  0  0  0  0  0999 V2000
   -2.8190   21.8910  -31.6430 C   0  0  0  0  0  0  0  0  0  0  0  0
   -3.7010   21.6880  -32.8690 C   0  0  0  0  0  0  0  0  0  0  0  0
   -4.9600   22.4210  -32.7350 N   0  0  0  0  0  0  0  0  0  0  0  0
   -6.1080   21.8270  -32.1160 C   0  0  0  0  0  0  0  0  0  0  0  0
   -6.0500   20.6510  -31.6650 O   0  0  0  0  0  0  0  0  0  0  0  0
   -7.3740   22.6180  -31.9620 C   0  0  0  0  0  0  0  0  0  0  0  0
   -7.1630   23.8330  -31.0610 C   0  0  0  0  0  0  0  0  0  0  0  0
   -5.8100   24.3590  -31.2340 N   0  0  0  0  0  0  0  0  0  0  0  0
   -5.0670   24.8520  -30.2860 C   0  0  0  0  0  0  0  0  0  0  0  0
   -5.5500   24.9840  -28.9420 N   0  0  0  0  0  0  0  0  0  0  0  0
   -3.7390   25.2740  -30.5960 N   0  0  0  0  0  0  0  0  0  0  0  0
   -3.4199   21.7527  -30.7321 H   0  0  0  0  0  0  0  0  0  0  0  0
   -1.9988   21.1582  -31.6560 H   0  0  0  0  0  0  0  0  0  0  0  0
   -2.4017   22.9087  -31.6560 H   0  0  0  0  0  0  0  0  0  0  0  0
   -3.1672   22.0495  -33.7603 H   0  0  0  0  0  0  0  0  0  0  0  0
   -3.9276   20.6159  -32.9646 H   0  0  0  0  0  0  0  0  0  0  0  0
   -5.0340   23.4020  -33.0900 H   0  0  0  0  0  0  0  0  0  0  0  0
   -7.7055   22.9603  -32.9534 H   0  0  0  0  0  0  0  0  0  0  0  0
   -8.1338   21.9707  -31.4997 H   0  0  0  0  0  0  0  0  0  0  0  0
   -7.8928   24.6126  -31.3250 H   0  0  0  0  0  0  0  0  0  0  0  0
   -7.3001   23.5311  -30.0122 H   0  0  0  0  0  0  0  0  0  0  0  0
   -6.5100   24.6890  -28.6610 H   0  0  0  0  0  0  0  0  0  0  0  0
   -4.9300   25.3850  -28.2050 H   0  0  0  0  0  0  0  0  0  0  0  0
   -3.3690   25.1890  -31.5690 H   0  0  0  0  0  0  0  0  0  0  0  0
   -3.1220   25.6740  -29.8550 H   0  0  0  0  0  0  0  0  0  0  0  0
  1  2  1  0
  2  3  1  0
  3  4  1  0
  4  5  2  0
  4  6  1  0
  6  7  1  0
  7  8  1  0
  8  9  2  3
  9 10  1  0
  9 11  1  0
  1 12  1  0
  1 13  1  0
  1 14  1  0
  2 15  1  0
  2 16  1  0
  3 17  1  0
  6 18  1  0
  6 19  1  0
  7 20  1  0
  7 21  1  0
 10 22  1  0
 10 23  1  0
 11 24  1  0
 11 25  1  0
M  END
>  <UniqueID>  (16) 
15

>  <SMILES>  (16) 
CCNC(=O)CCN=C(N)N

>  <Energy>  (16) 
8.575636736209212

>  <Genealogy>  (16) 
CCNC(=O)CCN=C(N)N (3D coordinates assigned)
CCNC(=O)CCN=C(N)N (optimized conformer: 8.575636736209212 kcal/mol)

>  <smiles>  (16) 
CCNC(=O)CCN=C(N)N

>  <score_type>  (16) 
oracle

>  <origin>  (16) 
adg

>  <m_score__min__energy>  (16) 
-5.3200000000000003

>  <m_primary>  (16) 
energy

$$$$
16:0
     RDKit          3D

 40 42  0  0  0  0  0  0  0  0999 V2000
   -3.1140   21.7890  -29.5240 C   0  0  0  0  0  0  0  0  0  0  0  0
   -2.4150   23.0840  -29.9630 C   0  0  0  0  0  0  0  0  0  0  0  0
   -2.9540   24.3200  -29.3440 N   0  0  0  0  0  0  0  0  0  0  0  0
   -2.0240   24.8840  -28.3500 C   0  0  0  0  0  0  0  0  0  0  0  0
   -4.3100   24.1860  -28.7680 C   0  0  0  0  0  0  0  0  0  0  0  0
   -5.4040   24.3140  -29.8380 C   0  0  0  0  0  0  0  0  0  0  0  0
   -4.8290   24.2980  -31.1300 O   0  0  0  0  0  0  0  0  0  0  0  0
   -5.7460   23.8000  -32.0860 C   0  0  2  0  0  0  0  0  0  0  0  0
   -7.1930   23.7340  -31.4950 C   0  0  0  0  0  0  0  0  0  0  0  0
   -7.5200   22.2740  -31.5240 C   0  0  0  0  0  0  0  0  0  0  0  0
   -8.6810   21.6080  -31.1230 C   0  0  0  0  0  0  0  0  0  0  0  0
   -8.7340   20.2020  -31.2590 C   0  0  0  0  0  0  0  0  0  0  0  0
   -7.6330   19.4890  -31.7910 C   0  0  0  0  0  0  0  0  0  0  0  0
   -6.4780   20.1890  -32.1860 C   0  0  0  0  0  0  0  0  0  0  0  0
   -5.3280   19.5890  -32.7290 C   0  0  0  0  0  0  0  0  0  0  0  0
   -4.2250   20.3980  -33.0950 C   0  0  0  0  0  0  0  0  0  0  0  0
   -4.2720   21.7990  -32.9180 C   0  0  0  0  0  0  0  0  0  0  0  0
   -5.4280   22.3650  -32.3730 C   0  0  0  0  0  0  0  0  0  0  0  0
   -6.4750   21.5700  -32.0310 C   0  0  0  0  0  0  0  0  0  0  0  0
   -3.1401   21.7407  -28.4254 H   0  0  0  0  0  0  0  0  0  0  0  0
   -4.1417   21.7760  -29.9161 H   0  0  0  0  0  0  0  0  0  0  0  0
   -2.5609   20.9227  -29.9161 H   0  0  0  0  0  0  0  0  0  0  0  0
   -1.3501   23.0049  -29.6991 H   0  0  0  0  0  0  0  0  0  0  0  0
   -2.5868   23.1782  -31.0454 H   0  0  0  0  0  0  0  0  0  0  0  0
   -2.3908   24.6616  -27.3371 H   0  0  0  0  0  0  0  0  0  0  0  0
   -1.0277   24.4378  -28.4854 H   0  0  0  0  0  0  0  0  0  0  0  0
   -1.9592   25.9737  -28.4854 H   0  0  0  0  0  0  0  0  0  0  0  0
   -4.3962   23.2001  -28.2879 H   0  0  0  0  0  0  0  0  0  0  0  0
   -4.4513   24.9971  -28.0385 H   0  0  0  0  0  0  0  0  0  0  0  0
   -6.1058   23.4724  -29.7424 H   0  0  0  0  0  0  0  0  0  0  0  0
   -5.9364   25.2658  -29.6943 H   0  0  0  0  0  0  0  0  0  0  0  0
   -5.6802   24.4603  -32.9633 H   0  0  0  0  0  0  0  0  0  0  0  0
   -7.2145   24.1207  -30.4654 H   0  0  0  0  0  0  0  0  0  0  0  0
   -7.9131   24.3441  -32.0599 H   0  0  0  0  0  0  0  0  0  0  0  0
   -9.5349   22.1655  -30.7106 H   0  0  0  0  0  0  0  0  0  0  0  0
   -9.6381   19.6576  -30.9489 H   0  0  0  0  0  0  0  0  0  0  0  0
   -7.6800   18.3949  -31.8950 H   0  0  0  0  0  0  0  0  0  0  0  0
   -5.2855   18.4987  -32.8685 H   0  0  0  0  0  0  0  0  0  0  0  0
   -3.3241   19.9319  -33.5206 H   0  0  0  0  0  0  0  0  0  0  0  0
   -3.4175   22.4305  -33.2029 H   0  0  0  0  0  0  0  0  0  0  0  0
  1  2  1  0
  2  3  1  0
  3  4  1  0
  3  5  1  0
  5  6  1  0
  6  7  1  0
  7  8  1  0
  8  9  1  0
  9 10  1  0
 10 11  2  0
 11 12  1  0
 12 13  2  0
 13 14  1  0
 14 15  2  0
 15 16  1  0
 16 17  2  0
 17 18  1  0
 18 19  2  0
 18  8  1  0
 19 10  1  0
 19 14  1  0
  1 20  1  0
  1 21  1  0
  1 22  1  0
  2 23  1  0
  2 24  1  0
  4 25  1  0
  4 26  1  0
  4 27  1  0
  5 28  1  0
  5 29  1  0
  6 30  1  0
  6 31  1  0
  8 32  1  6
  9 33  1  0
  9 34  1  0
 11 35  1  0
 12 36  1  0
 13 37  1  0
 15 38  1  0
 16 39  1  0
 17 40  1  0
M  END
>  <UniqueID>  (17) 
16

>  <SMILES>  (17) 
CCN(C)CCO[C@@H]1Cc2cccc3cccc1c23

>  <Energy>  (17) 
65.83430802903835

>  <Genealogy>  (17) 
CCN(C)CCO[C@@H]1Cc2cccc3cccc1c23 (chirality)
CCN(C)CCO[C@@H]1Cc2cccc3cccc1c23 (3D coordinates assigned)
CCN(C)CCO[C@@H]1Cc2cccc3cccc1c23 (nonaromatic ring conformer: 65.83430802903835 kcal/mol)

>  <smiles>  (17) 
CCN(C)CCOC1Cc2cccc3cccc1c23

>  <score_type>  (17) 
oracle

>  <origin>  (17) 
adg

>  <m_score__min__energy>  (17) 
-7.3799999999999999

>  <m_primary>  (17) 
energy

$$$$
17:0
     RDKit          3D

 60 64  0  0  0  0  0  0  0  0999 V2000
   -9.1190   19.5770  -31.7760 C   0  0  0  0  0  0  0  0  0  0  0  0
   -8.3900   19.8010  -33.0200 N   0  0  0  0  0  0  0  0  0  0  0  0
   -6.9640   19.6160  -33.1220 C   0  0  0  0  0  0  0  0  0  0  0  0
   -6.4720   18.5420  -33.8550 C   0  0  0  0  0  0  0  0  0  0  0  0
   -5.1110   18.3050  -33.9380 C   0  0  0  0  0  0  0  0  0  0  0  0
   -4.1670   19.0980  -33.2510 C   0  0  0  0  0  0  0  0  0  0  0  0
   -4.6500   20.2090  -32.4860 C   0  0  0  0  0  0  0  0  0  0  0  0
   -3.7920   21.0510  -31.7300 C   0  0  0  0  0  0  0  0  0  0  0  0
   -4.2820   22.2800  -31.2060 C   0  0  0  0  0  0  0  0  0  0  0  0
   -3.4210   23.2600  -30.6520 C   0  0  0  0  0  0  0  0  0  0  0  0
   -3.9330   24.4440  -30.1190 C   0  0  0  0  0  0  0  0  0  0  0  0
   -5.3030   24.6850  -30.1370 C   0  0  0  0  0  0  0  0  0  0  0  0
   -6.1680   23.7510  -30.7040 C   0  0  0  0  0  0  0  0  0  0  0  0
   -5.6650   22.5570  -31.2510 C   0  0  0  0  0  0  0  0  0  0  0  0
   -6.5350   21.6490  -31.8460 C   0  0  0  0  0  0  0  0  0  0  0  0
   -6.0560   20.4850  -32.4720 C   0  0  0  0  0  0  0  0  0  0  0  0
   -2.3890   20.6690  -31.4540 C   0  0  0  0  0  0  0  0  0  0  0  0
   -1.9010   20.6340  -30.0930 N   0  0  0  0  0  0  0  0  0  0  0  0
   -0.8640   19.6980  -29.6520 C   0  0  0  0  0  0  0  0  0  0  0  0
   -0.9000   19.5210  -28.1260 C   0  0  0  0  0  0  0  0  0  0  0  0
   -2.0450   20.2570  -27.5500 N   0  0  0  0  0  0  0  0  0  0  0  0
   -1.5730   21.4030  -26.7560 C   0  0  0  0  0  0  0  0  0  0  0  0
   -2.8600   19.3720  -26.6970 C   0  0  0  0  0  0  0  0  0  0  0  0
   -1.5440   20.5880  -32.4850 C   0  0  0  0  0  0  0  0  0  0  0  0
   -0.3150   21.2780  -32.4390 C   0  0  0  0  0  0  0  0  0  0  0  0
    0.5980   21.1790  -33.4860 C   0  0  0  0  0  0  0  0  0  0  0  0
    0.3230   20.3560  -34.5710 C   0  0  0  0  0  0  0  0  0  0  0  0
   -0.8540   19.6120  -34.6000 C   0  0  0  0  0  0  0  0  0  0  0  0
   -1.8170   19.7090  -33.5650 C   0  0  0  0  0  0  0  0  0  0  0  0
   -2.7530   18.7860  -33.4570 N   0  0  0  0  0  0  0  0  0  0  0  0
   -2.3830   17.3820  -33.7350 C   0  0  0  0  0  0  0  0  0  0  0  0
   -8.4570   19.7804  -30.9214 H   0  0  0  0  0  0  0  0  0  0  0  0
   -9.9886   20.2494  -31.7344 H   0  0  0  0  0  0  0  0  0  0  0  0
   -9.4610   18.5323  -31.7344 H   0  0  0  0  0  0  0  0  0  0  0  0
   -8.9410   20.0510  -33.8720 H   0  0  0  0  0  0  0  0  0  0  0  0
   -7.1729   17.8726  -34.3752 H   0  0  0  0  0  0  0  0  0  0  0  0
   -4.7532   17.4712  -34.5599 H   0  0  0  0  0  0  0  0  0  0  0  0
   -2.3350   23.0852  -30.6420 H   0  0  0  0  0  0  0  0  0  0  0  0
   -3.2510   25.1890  -29.6833 H   0  0  0  0  0  0  0  0  0  0  0  0
   -5.7037   25.6132  -29.7035 H   0  0  0  0  0  0  0  0  0  0  0  0
   -7.2499   23.9487  -30.7238 H   0  0  0  0  0  0  0  0  0  0  0  0
   -7.6171   21.8454  -31.8263 H   0  0  0  0  0  0  0  0  0  0  0  0
   -2.1540   21.3980  -29.4260 H   0  0  0  0  0  0  0  0  0  0  0  0
   -1.0313   18.7225  -30.1320 H   0  0  0  0  0  0  0  0  0  0  0  0
    0.1188   20.1019  -29.9364 H   0  0  0  0  0  0  0  0  0  0  0  0
   -0.9990   18.4518  -27.8872 H   0  0  0  0  0  0  0  0  0  0  0  0
    0.0321   19.9186  -27.6981 H   0  0  0  0  0  0  0  0  0  0  0  0
   -1.6685   21.1712  -25.6849 H   0  0  0  0  0  0  0  0  0  0  0  0
   -0.5184   21.6051  -26.9948 H   0  0  0  0  0  0  0  0  0  0  0  0
   -2.1794   22.2892  -26.9948 H   0  0  0  0  0  0  0  0  0  0  0  0
   -2.6563   19.5932  -25.6389 H   0  0  0  0  0  0  0  0  0  0  0  0
   -3.9265   19.5398  -26.9079 H   0  0  0  0  0  0  0  0  0  0  0  0
   -2.6051   18.3229  -26.9079 H   0  0  0  0  0  0  0  0  0  0  0  0
   -0.0746   21.9020  -31.5656 H   0  0  0  0  0  0  0  0  0  0  0  0
    1.5364   21.7521  -33.4539 H   0  0  0  0  0  0  0  0  0  0  0  0
    1.0349   20.2920  -35.4071 H   0  0  0  0  0  0  0  0  0  0  0  0
   -1.0403   18.9336  -35.4456 H   0  0  0  0  0  0  0  0  0  0  0  0
   -2.2415   16.8452  -32.7854 H   0  0  0  0  0  0  0  0  0  0  0  0
   -3.1846   16.8992  -34.3132 H   0  0  0  0  0  0  0  0  0  0  0  0
   -1.4476   17.3569  -34.3132 H   0  0  0  0  0  0  0  0  0  0  0  0
  1  2  1  0
  2  3  1  0
  3  4  2  0
  4  5  1  0
  5  6  2  0
  6  7  1  0
  7  8  2  0
  8  9  1  0
  9 10  2  0
 10 11  1  0
 11 12  2  0
 12 13  1  0
 13 14  2  0
 14 15  1  0
 15 16  2  0
  8 17  1  0
 17 18  1  0
 18 19  1  0
 19 20  1  0
 20 21  1  0
 21 22  1  0
 21 23  1  0
 17 24  2  0
 24 25  1  0
 25 26  2  0
 26 27  1  0
 27 28  2  0
 28 29  1  0
 29 30  2  0
 30 31  1  0
 16  3  1  0
 29 24  1  0
 30  6  1  0
 16  7  1  0
 14  9  1  0
  1 32  1  0
  1 33  1  0
  1 34  1  0
  2 35  1  0
  4 36  1  0
  5 37  1  0
 10 38  1  0
 11 39  1  0
 12 40  1  0
 13 41  1  0
 15 42  1  0
 18 43  1  0
 19 44  1  0
 19 45  1  0
 20 46  1  0
 20 47  1  0
 22 48  1  0
 22 49  1  0
 22 50  1  0
 23 51  1  0
 23 52  1  0
 23 53  1  0
 25 54  1  0
 26 55  1  0
 27 56  1  0
 28 57  1  0
 31 58  1  0
 31 59  1  0
 31 60  1  0
M  CHG  1  30   1
M  END
>  <UniqueID>  (18) 
17

>  <SMILES>  (18) 
CNc1ccc2c3c(c4ccccc4cc13)C(NCCN(C)C)=c1ccccc1=[N+]2C

>  <Energy>  (18) 
147.3095351074742

>  <Genealogy>  (18) 
CNc1ccc2c3c(c4ccccc4cc13)C(NCCN(C)C)=c1ccccc1=[N+]2C (3D coordinates assigned)
CNc1ccc2c3c(c4ccccc4cc13)C(NCCN(C)C)=c1ccccc1=[N+]2C (nonaromatic ring conformer: 147.3095351074742 kcal/mol)

>  <smiles>  (18) 
CNc1ccc2c3c(c4ccccc4cc13)C(NCCN(C)C)=c1ccccc1=[N+]2C

>  <score_type>  (18) 
oracle

>  <origin>  (18) 
adg

>  <m_score__min__energy>  (18) 
-8.9199999999999999

>  <m_primary>  (18) 
energy

$$$$
18:0
     RDKit          3D

 75 78  0  0  0  0  0  0  0  0999 V2000
   -2.7140   18.9730  -26.6340 C   0  0  0  0  0  0  0  0  0  0  0  0
   -1.3220   19.4710  -27.0190 C   0  0  0  0  0  0  0  0  0  0  0  0
   -0.7530   18.6460  -28.1100 N   0  0  0  0  0  0  0  0  0  0  0  0
    0.2080   17.6660  -27.5600 C   0  0  0  0  0  0  0  0  0  0  0  0
   -0.1050   19.5120  -29.1240 C   0  0  0  0  0  0  0  0  0  0  0  0
   -0.2550   18.9610  -30.5500 C   0  0  0  0  0  0  0  0  0  0  0  0
   -1.3290   19.6030  -31.2070 O   0  0  0  0  0  0  0  0  0  0  0  0
   -1.3530   20.9850  -30.9060 C   0  0  0  0  0  0  0  0  0  0  0  0
   -2.5890   21.3450  -30.0690 C   0  0  0  0  0  0  0  0  0  0  0  0
   -2.2140   22.1670  -28.8940 N   0  0  0  0  0  0  0  0  0  0  0  0
   -3.2850   22.2060  -27.8590 C   0  0  0  0  0  0  0  0  0  0  0  0
   -3.6220   23.6260  -27.3790 C   0  0  0  0  0  0  0  0  0  0  0  0
   -3.9200   24.5190  -28.5170 N   0  0  0  0  0  0  0  0  0  0  0  0
   -5.2900   24.3120  -29.0420 C   0  0  0  0  0  0  0  0  0  0  0  0
   -5.7210   25.5060  -29.9050 C   0  0  0  0  0  0  0  0  0  0  0  0
   -6.1270   25.0640  -31.2420 N   0  0  0  0  0  0  0  0  0  0  0  0
   -6.2640   23.6870  -31.6330 C   0  0  0  0  0  0  0  0  0  0  0  0
   -7.4930   23.0220  -31.5820 C   0  0  0  0  0  0  0  0  0  0  0  0
   -7.6040   21.6930  -32.0230 C   0  0  0  0  0  0  0  0  0  0  0  0
   -9.0100   21.1710  -32.2080 C   0  0  0  0  0  0  0  0  0  0  0  0
   -6.4210   20.9760  -32.3940 C   0  0  0  0  0  0  0  0  0  0  0  0
   -5.2230   21.7360  -32.5160 C   0  0  0  0  0  0  0  0  0  0  0  0
   -4.0770   21.1820  -33.0830 C   0  0  0  0  0  0  0  0  0  0  0  0
   -4.0810   19.8740  -33.5470 C   0  0  0  0  0  0  0  0  0  0  0  0
   -5.2000   19.0600  -33.3480 C   0  0  0  0  0  0  0  0  0  0  0  0
   -5.1580   17.7160  -33.7460 C   0  0  0  0  0  0  0  0  0  0  0  0
   -6.1940   16.8750  -33.4650 N   0  0  0  0  0  0  0  0  0  0  0  0
   -6.1230   15.4680  -33.8700 C   0  0  0  0  0  0  0  0  0  0  0  0
   -7.2450   17.3060  -32.7110 C   0  0  0  0  0  0  0  0  0  0  0  0
   -7.3350   18.6380  -32.3050 C   0  0  0  0  0  0  0  0  0  0  0  0
   -6.3560   19.5740  -32.7000 C   0  0  0  0  0  0  0  0  0  0  0  0
   -5.1820   23.0340  -32.1160 N   0  0  0  0  0  0  0  0  0  0  0  0
   -2.8910   24.4710  -29.5920 C   0  0  0  0  0  0  0  0  0  0  0  0
   -1.7290   23.5080  -29.2880 C   0  0  0  0  0  0  0  0  0  0  0  0
   -2.8020   18.9415  -25.5380 H   0  0  0  0  0  0  0  0  0  0  0  0
   -3.4737   19.6551  -27.0434 H   0  0  0  0  0  0  0  0  0  0  0  0
   -2.8686   17.9638  -27.0434 H   0  0  0  0  0  0  0  0  0  0  0  0
   -1.3928   20.5158  -27.3559 H   0  0  0  0  0  0  0  0  0  0  0  0
   -0.6646   19.3966  -26.1402 H   0  0  0  0  0  0  0  0  0  0  0  0
    0.1762   17.6984  -26.4609 H   0  0  0  0  0  0  0  0  0  0  0  0
   -0.0599   16.6564  -27.9050 H   0  0  0  0  0  0  0  0  0  0  0  0
    1.2226   17.9141  -27.9050 H   0  0  0  0  0  0  0  0  0  0  0  0
   -0.5650   20.5103  -29.0813 H   0  0  0  0  0  0  0  0  0  0  0  0
    0.9696   19.5518  -28.8922 H   0  0  0  0  0  0  0  0  0  0  0  0
    0.6745   19.1417  -31.1098 H   0  0  0  0  0  0  0  0  0  0  0  0
   -0.4569   17.8809  -30.4998 H   0  0  0  0  0  0  0  0  0  0  0  0
   -0.4468   21.2455  -30.3395 H   0  0  0  0  0  0  0  0  0  0  0  0
   -1.3930   21.5484  -31.8499 H   0  0  0  0  0  0  0  0  0  0  0  0
   -3.2942   21.9121  -30.6944 H   0  0  0  0  0  0  0  0  0  0  0  0
   -3.0534   20.4141  -29.7115 H   0  0  0  0  0  0  0  0  0  0  0  0
   -4.1952   21.7565  -28.2827 H   0  0  0  0  0  0  0  0  0  0  0  0
   -2.9121   21.6495  -26.9865 H   0  0  0  0  0  0  0  0  0  0  0  0
   -4.5002   23.5821  -26.7181 H   0  0  0  0  0  0  0  0  0  0  0  0
   -2.7505   24.0273  -26.8409 H   0  0  0  0  0  0  0  0  0  0  0  0
   -5.3091   23.3978  -29.6534 H   0  0  0  0  0  0  0  0  0  0  0  0
   -5.9850   24.2161  -28.1948 H   0  0  0  0  0  0  0  0  0  0  0  0
   -6.5682   26.0136  -29.4206 H   0  0  0  0  0  0  0  0  0  0  0  0
   -4.8683   26.1936  -30.0055 H   0  0  0  0  0  0  0  0  0  0  0  0
   -6.4630   25.7950  -31.9080 H   0  0  0  0  0  0  0  0  0  0  0  0
   -8.3800   23.5438  -31.1934 H   0  0  0  0  0  0  0  0  0  0  0  0
   -9.4702   21.0002  -31.2236 H   0  0  0  0  0  0  0  0  0  0  0  0
   -9.6042   21.9084  -32.7675 H   0  0  0  0  0  0  0  0  0  0  0  0
   -8.9790   20.2244  -32.7675 H   0  0  0  0  0  0  0  0  0  0  0  0
   -3.1615   21.7864  -33.1635 H   0  0  0  0  0  0  0  0  0  0  0  0
   -3.2006   19.4764  -34.0732 H   0  0  0  0  0  0  0  0  0  0  0  0
   -4.2807   17.3364  -34.2902 H   0  0  0  0  0  0  0  0  0  0  0  0
   -6.0908   14.8299  -32.9746 H   0  0  0  0  0  0  0  0  0  0  0  0
   -7.0095   15.2139  -34.4697 H   0  0  0  0  0  0  0  0  0  0  0  0
   -5.2155   15.3044  -34.4697 H   0  0  0  0  0  0  0  0  0  0  0  0
   -8.0318   16.5949  -32.4191 H   0  0  0  0  0  0  0  0  0  0  0  0
   -8.1752   18.9605  -31.6725 H   0  0  0  0  0  0  0  0  0  0  0  0
   -3.3766   24.1472  -30.5244 H   0  0  0  0  0  0  0  0  0  0  0  0
   -2.4615   25.4804  -29.6737 H   0  0  0  0  0  0  0  0  0  0  0  0
   -1.1034   23.4100  -30.1875 H   0  0  0  0  0  0  0  0  0  0  0  0
   -1.1526   23.9229  -28.4480 H   0  0  0  0  0  0  0  0  0  0  0  0
  1  2  1  0
  2  3  1  0
  3  4  1  0
  3  5  1  0
  5  6  1  0
  6  7  1  0
  7  8  1  0
  8  9  1  0
  9 10  1  0
 10 11  1  0
 11 12  1  0
 12 13  1  0
 13 14  1  0
 14 15  1  0
 15 16  1  0
 16 17  1  0
 17 18  2  0
 18 19  1  0
 19 20  1  0
 19 21  2  0
 21 22  1  0
 22 23  1  0
 23 24  2  0
 24 25  1  0
 25 26  2  0
 26 27  1  0
 27 28  1  0
 27 29  2  0
 29 30  1  0
 30 31  2  0
 22 32  2  0
 13 33  1  0
 33 34  1  0
 34 10  1  0
 32 17  1  0
 31 21  1  0
 31 25  1  0
  1 35  1  0
  1 36  1  0
  1 37  1  0
  2 38  1  0
  2 39  1  0
  4 40  1  0
  4 41  1  0
  4 42  1  0
  5 43  1  0
  5 44  1  0
  6 45  1  0
  6 46  1  0
  8 47  1  0
  8 48  1  0
  9 49  1  0
  9 50  1  0
 11 51  1  0
 11 52  1  0
 12 53  1  0
 12 54  1  0
 14 55  1  0
 14 56  1  0
 15 57  1  0
 15 58  1  0
 16 59  1  0
 18 60  1  0
 20 61  1  0
 20 62  1  0
 20 63  1  0
 23 64  1  0
 24 65  1  0
 26 66  1  0
 28 67  1  0
 28 68  1  0
 28 69  1  0
 29 70  1  0
 30 71  1  0
 33 72  1  0
 33 73  1  0
 34 74  1  0
 34 75  1  0
M  CHG  1  27   1
M  END
>  <UniqueID>  (19) 
18

>  <SMILES>  (19) 
CCN(C)CCOCCN1CCN(CCNc2cc(C)c3c(ccc4c[n+](C)ccc43)n2)CC1

>  <Energy>  (19) 
113.7279811030477

>  <Genealogy>  (19) 
CCN(C)CCOCCN1CCN(CCNc2cc(C)c3c(ccc4c[n+](C)ccc43)n2)CC1 (3D coordinates assigned)
CCN(C)CCOCCN1CCN(CCNc2cc(C)c3c(ccc4c[n+](C)ccc43)n2)CC1 (nonaromatic ring conformer: 113.7279811030477 kcal/mol)

>  <smiles>  (19) 
CCN(C)CCOCCN1CCN(CCNc2cc(C)c3c(ccc4c[n+](C)ccc43)n2)CC1

>  <score_type>  (19) 
oracle

>  <origin>  (19) 
adg

>  <m_score__min__energy>  (19) 
-8.4499999999999993

>  <m_primary>  (19) 
energy

$$$$
19:0
     RDKit          3D

 51 51  0  0  0  0  0  0  0  0999 V2000
   -0.7400   22.4130  -26.1170 C   0  0  0  0  0  0  0  0  0  0  0  0
   -0.7600   23.8470  -25.5890 C   0  0  0  0  0  0  0  0  0  0  0  0
   -0.2040   24.7920  -26.5850 N   0  0  0  0  0  0  0  0  0  0  0  0
   -0.5750   26.1810  -26.2310 C   0  0  0  0  0  0  0  0  0  0  0  0
   -1.6900   26.2160  -25.1860 C   0  0  0  0  0  0  0  0  0  0  0  0
   -0.6260   24.4400  -27.9680 C   0  0  0  0  0  0  0  0  0  0  0  0
   -1.4050   25.5990  -28.5900 C   0  0  0  0  0  0  0  0  0  0  0  0
   -2.5610   25.1000  -29.2280 O   0  0  0  0  0  0  0  0  0  0  0  0
   -2.9250   23.8630  -28.6530 C   0  0  0  0  0  0  0  0  0  0  0  0
   -4.4220   23.6020  -28.8810 C   0  0  0  0  0  0  0  0  0  0  0  0
   -5.2430   24.8290  -28.9230 N   0  0  0  0  0  0  0  0  0  0  0  0
   -6.0490   25.0050  -30.1460 C   0  0  0  0  0  0  0  0  0  0  0  0
   -6.8250   23.7320  -30.5370 C   0  0  0  0  0  0  0  0  0  0  0  0
   -6.6960   23.4050  -32.0320 C   0  0  0  0  0  0  0  0  0  0  0  0
   -6.7710   21.9190  -32.3040 C   0  0  0  0  0  0  0  0  0  0  0  0
   -5.6090   21.2490  -32.7280 C   0  0  0  0  0  0  0  0  0  0  0  0
   -5.6280   19.8740  -32.9690 C   0  0  0  0  0  0  0  0  0  0  0  0
   -6.8060   19.1470  -32.7860 C   0  0  0  0  0  0  0  0  0  0  0  0
   -6.8280   17.4190  -33.0880 Cl  0  0  0  0  0  0  0  0  0  0  0  0
   -7.9680   19.7980  -32.3600 C   0  0  0  0  0  0  0  0  0  0  0  0
   -7.9600   21.1760  -32.1160 C   0  0  0  0  0  0  0  0  0  0  0  0
   -9.4580   21.9250  -31.5700 Cl  0  0  0  0  0  0  0  0  0  0  0  0
   -0.7302   21.7107  -25.2705 H   0  0  0  0  0  0  0  0  0  0  0  0
   -1.6358   22.2356  -26.7303 H   0  0  0  0  0  0  0  0  0  0  0  0
    0.1604   22.2606  -26.7303 H   0  0  0  0  0  0  0  0  0  0  0  0
   -1.7983   24.1322  -25.3643 H   0  0  0  0  0  0  0  0  0  0  0  0
   -0.1403   23.8928  -24.6813 H   0  0  0  0  0  0  0  0  0  0  0  0
    0.3096   26.6949  -25.8267 H   0  0  0  0  0  0  0  0  0  0  0  0
   -0.9390   26.6824  -27.1399 H   0  0  0  0  0  0  0  0  0  0  0  0
   -1.2488   26.2022  -24.1785 H   0  0  0  0  0  0  0  0  0  0  0  0
   -2.2836   27.1332  -25.3138 H   0  0  0  0  0  0  0  0  0  0  0  0
   -2.3400   25.3378  -25.3138 H   0  0  0  0  0  0  0  0  0  0  0  0
    0.2650   24.2313  -28.5784 H   0  0  0  0  0  0  0  0  0  0  0  0
   -1.2716   23.5501  -27.9322 H   0  0  0  0  0  0  0  0  0  0  0  0
   -1.6983   26.3084  -27.8021 H   0  0  0  0  0  0  0  0  0  0  0  0
   -0.7714   26.1124  -29.3282 H   0  0  0  0  0  0  0  0  0  0  0  0
   -2.3389   23.0573  -29.1192 H   0  0  0  0  0  0  0  0  0  0  0  0
   -2.7224   23.8919  -27.5722 H   0  0  0  0  0  0  0  0  0  0  0  0
   -4.5397   23.0734  -29.8385 H   0  0  0  0  0  0  0  0  0  0  0  0
   -4.7770   23.0090  -28.0253 H   0  0  0  0  0  0  0  0  0  0  0  0
   -4.6170   25.6610  -28.8180 H   0  0  0  0  0  0  0  0  0  0  0  0
   -5.8840   24.8250  -28.0950 H   0  0  0  0  0  0  0  0  0  0  0  0
   -6.7700   25.8186  -29.9779 H   0  0  0  0  0  0  0  0  0  0  0  0
   -5.3568   25.2373  -30.9688 H   0  0  0  0  0  0  0  0  0  0  0  0
   -6.4318   22.8856  -29.9548 H   0  0  0  0  0  0  0  0  0  0  0  0
   -7.8894   23.9083  -30.3224 H   0  0  0  0  0  0  0  0  0  0  0  0
   -7.5113   23.9054  -32.5750 H   0  0  0  0  0  0  0  0  0  0  0  0
   -5.7109   23.7593  -32.3698 H   0  0  0  0  0  0  0  0  0  0  0  0
   -4.6761   21.8141  -32.8711 H   0  0  0  0  0  0  0  0  0  0  0  0
   -4.7135   19.3625  -33.3036 H   0  0  0  0  0  0  0  0  0  0  0  0
   -8.8946   19.2231  -32.2157 H   0  0  0  0  0  0  0  0  0  0  0  0
  1  2  1  0
  2  3  1  0
  3  4  1  0
  4  5  1  0
  3  6  1  0
  6  7  1  0
  7  8  1  0
  8  9  1  0
  9 10  1  0
 10 11  1  0
 11 12  1  0
 12 13  1  0
 13 14  1  0
 14 15  1  0
 15 16  2  0
 16 17  1  0
 17 18  2  0
 18 19  1  0
 18 20  1  0
 20 21  2  0
 21 22  1  0
 21 15  1  0
  1 23  1  0
  1 24  1  0
  1 25  1  0
  2 26  1  0
  2 27  1  0
  4 28  1  0
  4 29  1  0
  5 30  1  0
  5 31  1  0
  5 32  1  0
  6 33  1  0
  6 34  1  0
  7 35  1  0
  7 36  1  0
  9 37  1  0
  9 38  1  0
 10 39  1  0
 10 40  1  0
 11 41  1  0
 11 42  1  0
 12 43  1  0
 12 44  1  0
 13 45  1  0
 13 46  1  0
 14 47  1  0
 14 48  1  0
 16 49  1  0
 17 50  1  0
 20 51  1  0
M  CHG  1  11   1
M  END
>  <UniqueID>  (20) 
19

>  <SMILES>  (20) 
CCN(CC)CCOCC[NH2+]CCCc1ccc(Cl)cc1Cl

>  <Energy>  (20) 
44.340991303560365

>  <Genealogy>  (20) 
CCN(CC)CCOCC[NH2+]CCCc1ccc(Cl)cc1Cl (protonated)
CCN(CC)CCOCC[NH2+]CCCc1ccc(Cl)cc1Cl (3D coordinates assigned)
CCN(CC)CCOCC[NH2+]CCCc1ccc(Cl)cc1Cl (optimized conformer: 44.340991303560365 kcal/mol)

>  <smiles>  (20) 
CCN(CC)CCOCCNCCCc1ccc(Cl)cc1Cl

>  <score_type>  (20) 
oracle

>  <origin>  (20) 
adg

>  <m_score__min__energy>  (20) 
-7.04

>  <m_primary>  (20) 
energy

$$$$
20:0
     RDKit          3D

 25 26  0  0  0  0  0  0  0  0999 V2000
   -6.4570   17.0120  -33.8040 C   0  0  0  0  0  0  0  0  0  0  0  0
   -5.5740   18.2560  -33.8010 C   0  0  0  0  0  0  0  0  0  0  0  0
   -6.3790   19.4660  -33.9810 N   0  0  0  0  0  0  0  0  0  0  0  0
   -6.5220   20.5100  -32.9930 C   0  0  0  0  0  0  0  0  0  0  0  0
   -5.5130   21.4780  -32.8080 C   0  0  0  0  0  0  0  0  0  0  0  0
   -5.6680   22.4940  -31.8610 C   0  0  0  0  0  0  0  0  0  0  0  0
   -6.8310   22.5630  -31.0860 C   0  0  0  0  0  0  0  0  0  0  0  0
   -7.8320   21.6060  -31.2500 C   0  0  0  0  0  0  0  0  0  0  0  0
   -7.6900   20.5860  -32.1990 C   0  0  0  0  0  0  0  0  0  0  0  0
   -9.1070   19.3010  -32.3410 Br  0  0  0  0  0  0  0  0  0  0  0  0
   -6.9740   23.5760  -30.1290 O   0  0  0  0  0  0  0  0  0  0  0  0
   -6.1680   24.7590  -30.1150 C   0  0  0  0  0  0  0  0  0  0  0  0
   -4.8120   24.5160  -30.7160 C   0  0  0  0  0  0  0  0  0  0  0  0
   -3.8570   25.2940  -30.4580 O   0  0  0  0  0  0  0  0  0  0  0  0
   -4.6250   23.4450  -31.6430 N   0  0  0  0  0  0  0  0  0  0  0  0
   -6.6704   16.7113  -32.7676 H   0  0  0  0  0  0  0  0  0  0  0  0
   -7.4010   17.2337  -34.3233 H   0  0  0  0  0  0  0  0  0  0  0  0
   -5.9362   16.1940  -34.3233 H   0  0  0  0  0  0  0  0  0  0  0  0
   -5.0407   18.3173  -32.8409 H   0  0  0  0  0  0  0  0  0  0  0  0
   -4.8581   18.1820  -34.6329 H   0  0  0  0  0  0  0  0  0  0  0  0
   -6.8730   19.5600  -34.8960 H   0  0  0  0  0  0  0  0  0  0  0  0
   -4.5963   21.4329  -33.4143 H   0  0  0  0  0  0  0  0  0  0  0  0
   -8.7393   21.6526  -30.6297 H   0  0  0  0  0  0  0  0  0  0  0  0
   -6.6780   25.5444  -30.6921 H   0  0  0  0  0  0  0  0  0  0  0  0
   -6.0286   25.0661  -29.0680 H   0  0  0  0  0  0  0  0  0  0  0  0
  1  2  1  0
  2  3  1  0
  3  4  1  0
  4  5  2  0
  5  6  1  0
  6  7  2  0
  7  8  1  0
  8  9  2  0
  9 10  1  0
  7 11  1  0
 11 12  1  0
 12 13  1  0
 13 14  2  0
 13 15  1  0
  9  4  1  0
 15  6  1  0
  1 16  1  0
  1 17  1  0
  1 18  1  0
  2 19  1  0
  2 20  1  0
  3 21  1  0
  5 22  1  0
  8 23  1  0
 12 24  1  0
 12 25  1  0
M  CHG  1  15  -1
M  END
>  <UniqueID>  (21) 
20

>  <SMILES>  (21) 
CCNc1cc2c(cc1Br)OCC(=O)[N-]2

>  <Energy>  (21) 
25.68853157421848

>  <Genealogy>  (21) 
CCNc1cc2c(cc1Br)OCC(=O)[N-]2 (protonated)
CCNc1cc2c(cc1Br)OCC(=O)[N-]2 (3D coordinates assigned)
CCNc1cc2c(cc1Br)OCC(=O)[N-]2 (nonaromatic ring conformer: 25.68853157421848 kcal/mol)

>  <smiles>  (21) 
CCNc1cc2c(cc1Br)OCC(=O)N2

>  <score_type>  (21) 
oracle

>  <origin>  (21) 
adg

>  <m_score__min__energy>  (21) 
-8.2100000000000009

>  <m_primary>  (21) 
energy

$$$$
21:0
     RDKit          3D

101105  0  0  0  0  0  0  0  0999 V2000
   -3.7850   21.1350  -32.9640 C   0  0  0  0  0  0  0  0  0  0  0  0
   -4.1600   22.5000  -32.3980 C   0  0  0  0  0  0  0  0  0  0  0  0
   -5.3730   22.3740  -31.5550 N   0  0  0  0  0  0  0  0  0  0  0  0
   -6.6260   22.2690  -32.3320 C   0  0  0  0  0  0  0  0  0  0  0  0
   -7.7430   23.0550  -31.6530 C   0  0  0  0  0  0  0  0  0  0  0  0
   -5.4370   23.3810  -30.4700 C   0  0  0  0  0  0  0  0  0  0  0  0
   -5.0330   24.8100  -30.8940 C   0  0  0  0  0  0  0  0  0  0  0  0
   -3.7170   25.0940  -30.4500 O   0  0  0  0  0  0  0  0  0  0  0  0
   -3.4040   24.3160  -29.3110 C   0  0  0  0  0  0  0  0  0  0  0  0
   -2.1490   23.4920  -29.5910 C   0  0  0  0  0  0  0  0  0  0  0  0
   -2.4980   22.1440  -30.0440 N   0  0  0  0  0  0  0  0  0  0  0  0
   -1.5930   21.0340  -29.8900 C   0  0  0  0  0  0  0  0  0  0  0  0
   -1.6230   20.2480  -28.7290 C   0  0  0  0  0  0  0  0  0  0  0  0
   -2.4020   20.6370  -27.6180 C   0  0  0  0  0  0  0  0  0  0  0  0
   -2.4220   19.8660  -26.4600 C   0  0  0  0  0  0  0  0  0  0  0  0
   -1.6440   18.7180  -26.3780 C   0  0  0  0  0  0  0  0  0  0  0  0
   -0.8460   18.3270  -27.4520 C   0  0  0  0  0  0  0  0  0  0  0  0
   -0.8360   19.0670  -28.6640 C   0  0  0  0  0  0  0  0  0  0  0  0
   -0.0900   18.6660  -29.7570 N   0  0  0  0  0  0  0  0  0  0  0  0
    0.4870   17.3050  -29.7940 C   0  0  0  0  0  0  0  0  0  0  0  0
    0.0900   19.5280  -30.8240 C   0  0  0  0  0  0  0  0  0  0  0  0
    1.0210   19.2520  -31.8610 C   0  0  0  0  0  0  0  0  0  0  0  0
    1.1340   20.0950  -32.9800 C   0  0  0  0  0  0  0  0  0  0  0  0
    1.9750   19.7980  -34.0630 O   0  0  0  0  0  0  0  0  0  0  0  0
    1.5430   19.2010  -35.2820 C   0  0  0  0  0  0  0  0  0  0  0  0
    0.0290   18.8850  -35.2180 C   0  0  0  0  0  0  0  0  0  0  0  0
   -0.3630   17.5440  -34.6650 N   0  0  1  0  0  0  0  0  0  0  0  0
    0.9160   16.8470  -34.3330 C   0  0  0  0  0  0  0  0  0  0  0  0
   -1.1560   17.6630  -33.3950 C   0  0  0  0  0  0  0  0  0  0  0  0
   -2.6730   17.4790  -33.6100 C   0  0  0  0  0  0  0  0  0  0  0  0
   -3.0220   16.1360  -34.1850 N   0  0  1  0  0  0  0  0  0  0  0  0
   -3.1730   15.1720  -33.0600 C   0  0  0  0  0  0  0  0  0  0  0  0
   -4.3570   16.1920  -34.8810 C   0  0  0  0  0  0  0  0  0  0  0  0
   -5.4260   17.0470  -34.2060 C   0  0  0  0  0  0  0  0  0  0  0  0
   -6.2410   16.4940  -33.2020 C   0  0  0  0  0  0  0  0  0  0  0  0
   -7.1900   17.2830  -32.5480 C   0  0  0  0  0  0  0  0  0  0  0  0
   -7.3340   18.6390  -32.8640 C   0  0  0  0  0  0  0  0  0  0  0  0
   -8.3470   19.4690  -32.1160 C   0  0  0  0  0  0  0  0  0  0  0  0
   -8.8660   20.4830  -32.9100 F   0  0  0  0  0  0  0  0  0  0  0  0
   -7.7450   20.0320  -31.0070 F   0  0  0  0  0  0  0  0  0  0  0  0
   -9.3910   18.6600  -31.6970 F   0  0  0  0  0  0  0  0  0  0  0  0
   -6.4940   19.2020  -33.8340 C   0  0  0  0  0  0  0  0  0  0  0  0
   -5.5400   18.4190  -34.4890 C   0  0  0  0  0  0  0  0  0  0  0  0
   -1.9430   15.6200  -35.0950 C   0  0  0  0  0  0  0  0  0  0  0  0
   -1.0780   16.7390  -35.7100 C   0  0  0  0  0  0  0  0  0  0  0  0
    0.3650   21.2550  -33.0440 C   0  0  0  0  0  0  0  0  0  0  0  0
   -0.5390   21.5630  -32.0320 C   0  0  0  0  0  0  0  0  0  0  0  0
   -0.6820   20.7190  -30.9110 C   0  0  0  0  0  0  0  0  0  0  0  0
   -3.5928   20.4354  -32.1372 H   0  0  0  0  0  0  0  0  0  0  0  0
   -4.6119   20.7544  -33.5816 H   0  0  0  0  0  0  0  0  0  0  0  0
   -2.8798   21.2303  -33.5816 H   0  0  0  0  0  0  0  0  0  0  0  0
   -3.3290   22.8841  -31.7882 H   0  0  0  0  0  0  0  0  0  0  0  0
   -4.3619   23.1953  -33.2261 H   0  0  0  0  0  0  0  0  0  0  0  0
   -6.4609   22.6733  -33.3416 H   0  0  0  0  0  0  0  0  0  0  0  0
   -6.9205   21.2108  -32.3908 H   0  0  0  0  0  0  0  0  0  0  0  0
   -7.6339   22.9783  -30.5611 H   0  0  0  0  0  0  0  0  0  0  0  0
   -7.6834   24.1113  -31.9541 H   0  0  0  0  0  0  0  0  0  0  0  0
   -8.7172   22.6423  -31.9541 H   0  0  0  0  0  0  0  0  0  0  0  0
   -6.4699   23.4141  -30.0932 H   0  0  0  0  0  0  0  0  0  0  0  0
   -4.7095   23.0647  -29.7080 H   0  0  0  0  0  0  0  0  0  0  0  0
   -5.0726   24.8895  -31.9904 H   0  0  0  0  0  0  0  0  0  0  0  0
   -5.7299   25.5312  -30.4421 H   0  0  0  0  0  0  0  0  0  0  0  0
   -3.2242   24.9787  -28.4516 H   0  0  0  0  0  0  0  0  0  0  0  0
   -4.2434   23.6425  -29.0831 H   0  0  0  0  0  0  0  0  0  0  0  0
   -1.5568   23.9920  -30.3716 H   0  0  0  0  0  0  0  0  0  0  0  0
   -1.5680   23.4102  -28.6605 H   0  0  0  0  0  0  0  0  0  0  0  0
   -3.4830   21.9550  -30.3340 H   0  0  0  0  0  0  0  0  0  0  0  0
   -2.9994   21.5592  -27.6683 H   0  0  0  0  0  0  0  0  0  0  0  0
   -3.0532   20.1651  -25.6102 H   0  0  0  0  0  0  0  0  0  0  0  0
   -1.6578   18.1133  -25.4592 H   0  0  0  0  0  0  0  0  0  0  0  0
   -0.2142   17.4313  -27.3592 H   0  0  0  0  0  0  0  0  0  0  0  0
    0.6402   16.9436  -28.7664 H   0  0  0  0  0  0  0  0  0  0  0  0
   -0.2019   16.6289  -30.3216 H   0  0  0  0  0  0  0  0  0  0  0  0
    1.4519   17.3300  -30.3216 H   0  0  0  0  0  0  0  0  0  0  0  0
    1.6646   18.3631  -31.7869 H   0  0  0  0  0  0  0  0  0  0  0  0
    1.7341   19.8951  -36.1137 H   0  0  0  0  0  0  0  0  0  0  0  0
    2.0979   18.2642  -35.4382 H   0  0  0  0  0  0  0  0  0  0  0  0
   -0.4448   19.6545  -34.5908 H   0  0  0  0  0  0  0  0  0  0  0  0
   -0.3056   18.8719  -36.2658 H   0  0  0  0  0  0  0  0  0  0  0  0
    1.0275   16.7862  -33.2404 H   0  0  0  0  0  0  0  0  0  0  0  0
    0.9013   15.8321  -34.7571 H   0  0  0  0  0  0  0  0  0  0  0  0
    1.7609   17.4094  -34.7571 H   0  0  0  0  0  0  0  0  0  0  0  0
   -0.8063   16.8941  -32.6904 H   0  0  0  0  0  0  0  0  0  0  0  0
   -1.0006   18.6797  -33.0049 H   0  0  0  0  0  0  0  0  0  0  0  0
   -3.1810   17.5887  -32.6405 H   0  0  0  0  0  0  0  0  0  0  0  0
   -2.9997   18.2425  -34.3313 H   0  0  0  0  0  0  0  0  0  0  0  0
   -3.0889   15.7087  -32.1035 H   0  0  0  0  0  0  0  0  0  0  0  0
   -4.1581   14.6866  -33.1228 H   0  0  0  0  0  0  0  0  0  0  0  0
   -2.3835   14.4086  -33.1228 H   0  0  0  0  0  0  0  0  0  0  0  0
   -4.1933   16.5934  -35.8920 H   0  0  0  0  0  0  0  0  0  0  0  0
   -4.7448   15.1628  -34.8638 H   0  0  0  0  0  0  0  0  0  0  0  0
   -6.1304   15.4339  -32.9302 H   0  0  0  0  0  0  0  0  0  0  0  0
   -7.8316   16.8336  -31.7757 H   0  0  0  0  0  0  0  0  0  0  0  0
   -6.5865   20.2697  -34.0820 H   0  0  0  0  0  0  0  0  0  0  0  0
   -4.8728   18.8801  -35.2321 H   0  0  0  0  0  0  0  0  0  0  0  0
   -1.2889   14.9507  -34.5168 H   0  0  0  0  0  0  0  0  0  0  0  0
   -2.4394   15.0975  -35.9260 H   0  0  0  0  0  0  0  0  0  0  0  0
   -0.3319   16.2832  -36.3776 H   0  0  0  0  0  0  0  0  0  0  0  0
   -1.7464   17.4181  -36.2596 H   0  0  0  0  0  0  0  0  0  0  0  0
    0.4735   21.9338  -33.9027 H   0  0  0  0  0  0  0  0  0  0  0  0
   -1.1491   22.4752  -32.1071 H   0  0  0  0  0  0  0  0  0  0  0  0
  1  2  1  0
  2  3  1  0
  3  4  1  0
  4  5  1  0
  3  6  1  0
  6  7  1  0
  7  8  1  0
  8  9  1  0
  9 10  1  0
 10 11  1  0
 11 12  1  0
 12 13  2  0
 13 14  1  0
 14 15  2  0
 15 16  1  0
 16 17  2  0
 17 18  1  0
 18 19  2  0
 19 20  1  0
 19 21  1  0
 21 22  2  0
 22 23  1  0
 23 24  1  0
 24 25  1  0
 25 26  1  0
 27 26  1  6
 27 28  1  0
 27 29  1  0
 29 30  1  0
 30 31  1  0
 31 32  1  1
 31 33  1  0
 33 34  1  0
 34 35  2  0
 35 36  1  0
 36 37  2  0
 37 38  1  0
 38 39  1  0
 38 40  1  0
 38 41  1  0
 37 42  1  0
 42 43  2  0
 31 44  1  0
 44 45  1  0
 23 46  2  0
 46 47  1  0
 47 48  2  0
 48 12  1  0
 18 13  1  0
 48 21  1  0
 45 27  1  0
 43 34  1  0
  1 49  1  0
  1 50  1  0
  1 51  1  0
  2 52  1  0
  2 53  1  0
  4 54  1  0
  4 55  1  0
  5 56  1  0
  5 57  1  0
  5 58  1  0
  6 59  1  0
  6 60  1  0
  7 61  1  0
  7 62  1  0
  9 63  1  0
  9 64  1  0
 10 65  1  0
 10 66  1  0
 11 67  1  0
 14 68  1  0
 15 69  1  0
 16 70  1  0
 17 71  1  0
 20 72  1  0
 20 73  1  0
 20 74  1  0
 22 75  1  0
 25 76  1  0
 25 77  1  0
 26 78  1  0
 26 79  1  0
 28 80  1  0
 28 81  1  0
 28 82  1  0
 29 83  1  0
 29 84  1  0
 30 85  1  0
 30 86  1  0
 32 87  1  0
 32 88  1  0
 32 89  1  0
 33 90  1  0
 33 91  1  0
 35 92  1  0
 36 93  1  0
 42 94  1  0
 43 95  1  0
 44 96  1  0
 44 97  1  0
 45 98  1  0
 45 99  1  0
 46100  1  0
 47101  1  0
M  CHG  3  19   1  27   1  31   1
M  END
>  <UniqueID>  (22) 
21

>  <SMILES>  (22) 
CCN(CC)CCOCCNc1c2ccccc2[n+](C)c2cc(OCC[N+]3(C)CC[N+](C)(Cc4ccc(C(F)(F)F)cc4)CC3)ccc12

>  <Energy>  (22) 
164.4195335813477

>  <Genealogy>  (22) 
CCN(CC)CCOCCNc1c2ccccc2[n+](C)c2cc(OCC[N+]3(C)CC[N+](C)(Cc4ccc(C(F)(F)F)cc4)CC3)ccc12 (3D coordinates assigned)
CCN(CC)CCOCCNc1c2ccccc2[n+](C)c2cc(OCC[N+]3(C)CC[N+](C)(Cc4ccc(C(F)(F)F)cc4)CC3)ccc12 (nonaromatic ring conformer: 164.4195335813477 kcal/mol)

>  <smiles>  (22) 
CCN(CC)CCOCCNc1c2ccccc2[n+](C)c2cc(OCC[N+]3(C)CC[N+](C)(Cc4ccc(C(F)(F)F)cc4)CC3)ccc12

>  <score_type>  (22) 
oracle

>  <origin>  (22) 
adg

>  <m_score__min__energy>  (22) 
-9.1799999999999997

>  <m_primary>  (22) 
energy

$$$$
22:0
     RDKit          3D

 48 50  0  0  0  0  0  0  0  0999 V2000
   -6.7938   24.4419  -31.6513 H   0  0  0  0  0  0  0  0  0  0  0  0
   -5.9580   24.2010  -30.9780 C   0  0  0  0  0  0  0  0  0  0  0  0
   -5.5600   22.9170  -30.9080 C   0  0  0  0  0  0  0  0  0  0  0  0
   -6.0641   22.2669  -30.1778 H   0  0  0  0  0  0  0  0  0  0  0  0
   -4.4720   22.3020  -31.7580 C   0  0  0  0  0  0  0  0  0  0  0  0
   -3.6615   23.0350  -31.8842 H   0  0  0  0  0  0  0  0  0  0  0  0
   -4.1103   21.3968  -31.2484 H   0  0  0  0  0  0  0  0  0  0  0  0
   -4.9730   21.9100  -33.0890 N   0  0  0  0  0  0  0  0  0  0  0  0
   -5.8170   22.4800  -33.3210 H   0  0  0  0  0  0  0  0  0  0  0  0
   -4.3120   22.2080  -33.8370 H   0  0  0  0  0  0  0  0  0  0  0  0
   -5.3100   20.4920  -33.1510 C   0  0  0  0  0  0  0  0  0  0  0  0
   -4.3060   19.5350  -33.4730 C   0  0  0  0  0  0  0  0  0  0  0  0
   -2.9880   19.9280  -33.8230 C   0  0  0  0  0  0  0  0  0  0  0  0
   -2.7494   20.9982  -33.9109 H   0  0  0  0  0  0  0  0  0  0  0  0
   -1.9920   18.9850  -34.0570 C   0  0  0  0  0  0  0  0  0  0  0  0
   -0.9795   19.3134  -34.3346 H   0  0  0  0  0  0  0  0  0  0  0  0
   -2.2730   17.6330  -33.9410 C   0  0  0  0  0  0  0  0  0  0  0  0
   -1.4752   16.8908  -34.0918 H   0  0  0  0  0  0  0  0  0  0  0  0
   -3.5630   17.2140  -33.6340 C   0  0  0  0  0  0  0  0  0  0  0  0
   -3.7714   16.1383  -33.5371 H   0  0  0  0  0  0  0  0  0  0  0  0
   -4.6170   18.1470  -33.4430 C   0  0  0  0  0  0  0  0  0  0  0  0
   -5.9110   17.7250  -33.2190 N   0  0  0  0  0  0  0  0  0  0  0  0
   -6.2850   16.3190  -33.4980 C   0  0  0  0  0  0  0  0  0  0  0  0
   -6.4278   15.7822  -32.5485 H   0  0  0  0  0  0  0  0  0  0  0  0
   -7.2204   16.2963  -34.0763 H   0  0  0  0  0  0  0  0  0  0  0  0
   -5.4845   15.8345  -34.0763 H   0  0  0  0  0  0  0  0  0  0  0  0
   -6.8700   18.6210  -32.7930 C   0  0  0  0  0  0  0  0  0  0  0  0
   -8.1310   18.1720  -32.3190 C   0  0  0  0  0  0  0  0  0  0  0  0
   -8.3167   17.0921  -32.2230 H   0  0  0  0  0  0  0  0  0  0  0  0
   -9.1350   19.0680  -31.9740 C   0  0  0  0  0  0  0  0  0  0  0  0
  -10.1074   18.6946  -31.6205 H   0  0  0  0  0  0  0  0  0  0  0  0
   -8.9120   20.4320  -32.0750 C   0  0  0  0  0  0  0  0  0  0  0  0
   -9.7194   21.1393  -31.8345 H   0  0  0  0  0  0  0  0  0  0  0  0
   -7.6690   20.9090  -32.4800 C   0  0  0  0  0  0  0  0  0  0  0  0
   -7.5029   21.9946  -32.5431 H   0  0  0  0  0  0  0  0  0  0  0  0
   -6.6120   20.0240  -32.8130 C   0  0  0  0  0  0  0  0  0  0  0  0
   -5.3380   25.3310  -30.1980 C   0  0  0  0  0  0  0  0  0  0  0  0
   -5.6272   25.2394  -29.1406 H   0  0  0  0  0  0  0  0  0  0  0  0
   -5.6977   26.2834  -30.6147 H   0  0  0  0  0  0  0  0  0  0  0  0
   -3.8720   25.2990  -30.3000 N   0  0  0  0  0  0  0  0  0  0  0  0
   -3.6350   24.9470  -31.2560 H   0  0  0  0  0  0  0  0  0  0  0  0
   -3.2960   24.3660  -29.3230 C   0  0  0  0  0  0  0  0  0  0  0  0
   -2.3129   24.7391  -28.9999 H   0  0  0  0  0  0  0  0  0  0  0  0
   -3.1865   23.3771  -29.7921 H   0  0  0  0  0  0  0  0  0  0  0  0
   -4.2100   24.2430  -28.1120 C   0  0  0  0  0  0  0  0  0  0  0  0
   -3.6125   24.3234  -27.1920 H   0  0  0  0  0  0  0  0  0  0  0  0
   -4.9588   25.0485  -28.1345 H   0  0  0  0  0  0  0  0  0  0  0  0
   -4.7192   23.2682  -28.1345 H   0  0  0  0  0  0  0  0  0  0  0  0
  1  2  1  0
  2  3  2  0
  3  4  1  0
  3  5  1  0
  5  6  1  0
  5  7  1  0
  5  8  1  0
  8  9  1  0
  8 10  1  0
  8 11  1  0
 11 12  2  0
 12 13  1  0
 13 14  1  0
 13 15  2  0
 15 16  1  0
 15 17  1  0
 17 18  1  0
 17 19  2  0
 19 20  1  0
 19 21  1  0
 21 22  2  0
 22 23  1  0
 23 24  1  0
 23 25  1  0
 23 26  1  0
 22 27  1  0
 27 28  2  0
 28 29  1  0
 28 30  1  0
 30 31  1  0
 30 32  2  0
 32 33  1  0
 32 34  1  0
 34 35  1  0
 34 36  2  0
  2 37  1  0
 37 38  1  0
 37 39  1  0
 37 40  1  0
 40 41  1  0
 40 42  1  0
 42 43  1  0
 42 44  1  0
 42 45  1  0
 45 46  1  0
 45 47  1  0
 45 48  1  0
 36 11  1  0
 21 12  1  0
 36 27  1  0
M  CHG  2   8   1  22   1
M  END
>  <UniqueID>  (23) 
22

>  <SMILES>  (23) 
CCNC/C=C\C[NH2+]c1c2ccccc2[n+](C)c2ccccc12

>  <Energy>  (23) 
71.8241829730915

>  <Genealogy>  (23) 
CCNCC=CC[NH2+]c1c2ccccc2[n+](C)c2ccccc12 (protonated)
CCNC/C=C\C[NH2+]c1c2ccccc2[n+](C)c2ccccc12 (cis-trans isomerization)
CCNC/C=C\C[NH2+]c1c2ccccc2[n+](C)c2ccccc12 (3D coordinates assigned)
CCNC/C=C\C[NH2+]c1c2ccccc2[n+](C)c2ccccc12 (optimized conformer: 71.8241829730915 kcal/mol)

>  <smiles>  (23) 
CCNCC=CCNc1c2ccccc2[n+](C)c2ccccc12

>  <score_type>  (23) 
oracle

>  <origin>  (23) 
adg

>  <m_score__min__energy>  (23) 
-8.7100000000000009

>  <m_primary>  (23) 
energy

$$$$
23:0
     RDKit          3D

 38 39  0  0  0  0  0  0  0  0999 V2000
   -1.0990   25.7360  -27.8470 C   0  0  0  0  0  0  0  0  0  0  0  0
   -1.7270   24.9140  -28.9680 C   0  0  0  0  0  0  0  0  0  0  0  0
   -3.1500   24.7170  -28.7180 N   0  0  0  0  0  0  0  0  0  0  0  0
   -4.1620   24.8980  -29.7140 C   0  0  0  0  0  0  0  0  0  0  0  0
   -3.8640   25.3450  -30.8550 O   0  0  0  0  0  0  0  0  0  0  0  0
   -5.5770   24.5090  -29.4140 C   0  0  0  0  0  0  0  0  0  0  0  0
   -6.0000   23.3830  -30.2710 N   0  0  0  0  0  0  0  0  0  0  0  0
   -7.1900   22.6910  -29.7060 C   0  0  0  0  0  0  0  0  0  0  0  0
   -7.9780   21.8820  -30.7580 C   0  0  0  0  0  0  0  0  0  0  0  0
   -7.1240   21.5500  -31.9030 N   0  0  0  0  0  0  0  0  0  0  0  0
   -7.0450   20.2010  -32.4050 C   0  0  0  0  0  0  0  0  0  0  0  0
   -6.1290   19.8690  -33.4200 C   0  0  0  0  0  0  0  0  0  0  0  0
   -6.0480   18.5580  -33.8980 C   0  0  0  0  0  0  0  0  0  0  0  0
   -6.8720   17.5630  -33.3620 C   0  0  0  0  0  0  0  0  0  0  0  0
   -6.7660   15.9180  -33.9620 Cl  0  0  0  0  0  0  0  0  0  0  0  0
   -7.7780   17.8810  -32.3470 C   0  0  0  0  0  0  0  0  0  0  0  0
   -7.8630   19.1920  -31.8680 C   0  0  0  0  0  0  0  0  0  0  0  0
   -6.3860   22.6310  -32.5710 C   0  0  0  0  0  0  0  0  0  0  0  0
   -6.2510   23.8470  -31.6480 C   0  0  0  0  0  0  0  0  0  0  0  0
   -1.4107   25.3279  -26.8742 H   0  0  0  0  0  0  0  0  0  0  0  0
   -0.0030   25.6912  -27.9292 H   0  0  0  0  0  0  0  0  0  0  0  0
   -1.4304   26.7817  -27.9292 H   0  0  0  0  0  0  0  0  0  0  0  0
   -1.5968   25.4442  -29.9229 H   0  0  0  0  0  0  0  0  0  0  0  0
   -1.2329   23.9321  -29.0104 H   0  0  0  0  0  0  0  0  0  0  0  0
   -5.6532   24.2084  -28.3586 H   0  0  0  0  0  0  0  0  0  0  0  0
   -6.2312   25.3708  -29.6127 H   0  0  0  0  0  0  0  0  0  0  0  0
   -6.8527   22.0032  -28.9166 H   0  0  0  0  0  0  0  0  0  0  0  0
   -7.8655   23.4668  -29.3164 H   0  0  0  0  0  0  0  0  0  0  0  0
   -8.3436   20.9518  -30.2985 H   0  0  0  0  0  0  0  0  0  0  0  0
   -8.8231   22.4908  -31.1119 H   0  0  0  0  0  0  0  0  0  0  0  0
   -5.4728   20.6456  -33.8398 H   0  0  0  0  0  0  0  0  0  0  0  0
   -5.3348   18.3083  -34.6973 H   0  0  0  0  0  0  0  0  0  0  0  0
   -8.4255   17.0988  -31.9240 H   0  0  0  0  0  0  0  0  0  0  0  0
   -8.5749   19.4353  -31.0655 H   0  0  0  0  0  0  0  0  0  0  0  0
   -5.3827   22.2698  -32.8411 H   0  0  0  0  0  0  0  0  0  0  0  0
   -6.9395   22.9318  -33.4728 H   0  0  0  0  0  0  0  0  0  0  0  0
   -5.4115   24.4732  -31.9843 H   0  0  0  0  0  0  0  0  0  0  0  0
   -7.1783   24.4381  -31.6763 H   0  0  0  0  0  0  0  0  0  0  0  0
  1  2  1  0
  2  3  1  0
  3  4  1  0
  4  5  2  0
  4  6  1  0
  6  7  1  0
  7  8  1  0
  8  9  1  0
  9 10  1  0
 10 11  1  0
 11 12  2  0
 12 13  1  0
 13 14  2  0
 14 15  1  0
 14 16  1  0
 16 17  2  0
 10 18  1  0
 18 19  1  0
 19  7  1  0
 17 11  1  0
  1 20  1  0
  1 21  1  0
  1 22  1  0
  2 23  1  0
  2 24  1  0
  6 25  1  0
  6 26  1  0
  8 27  1  0
  8 28  1  0
  9 29  1  0
  9 30  1  0
 12 31  1  0
 13 32  1  0
 16 33  1  0
 17 34  1  0
 18 35  1  0
 18 36  1  0
 19 37  1  0
 19 38  1  0
M  CHG  1   3  -1
M  END
>  <UniqueID>  (24) 
23

>  <SMILES>  (24) 
CC[N-]C(=O)CN1CCN(c2ccc(Cl)cc2)CC1

>  <Energy>  (24) 
41.101499142274015

>  <Genealogy>  (24) 
CC[N-]C(=O)CN1CCN(c2ccc(Cl)cc2)CC1 (protonated)
CC[N-]C(=O)CN1CCN(c2ccc(Cl)cc2)CC1 (3D coordinates assigned)
CC[N-]C(=O)CN1CCN(c2ccc(Cl)cc2)CC1 (nonaromatic ring conformer: 41.101499142274015 kcal/mol)

>  <smiles>  (24) 
CCNC(=O)CN1CCN(c2ccc(Cl)cc2)CC1

>  <score_type>  (24) 
oracle

>  <origin>  (24) 
adg

>  <m_score__min__energy>  (24) 
-9.0700000000000003

>  <m_primary>  (24) 
energy

$$$$
24:0
     RDKit          3D

 73 75  0  0  0  0  0  0  0  0999 V2000
   -5.7350   18.5320  -34.9520 C   0  0  0  0  0  0  0  0  0  0  0  0
   -4.6070   17.5460  -34.6340 C   0  0  0  0  0  0  0  0  0  0  0  0
   -3.7370   18.0220  -33.5460 N   0  0  0  0  0  0  0  0  0  0  0  0
   -2.4890   17.2520  -33.4590 C   0  0  0  0  0  0  0  0  0  0  0  0
   -1.4130   18.0760  -32.7600 C   0  0  0  0  0  0  0  0  0  0  0  0
   -2.0160   19.1800  -32.1190 O   0  0  0  0  0  0  0  0  0  0  0  0
   -1.3000   20.3560  -32.4260 C   0  0  0  0  0  0  0  0  0  0  0  0
   -2.0610   21.1260  -33.5100 C   0  0  0  0  0  0  0  0  0  0  0  0
   -3.4980   21.4980  -33.0840 C   0  0  0  0  0  0  0  0  0  0  0  0
   -4.0300   20.6320  -32.0100 N   0  0  0  0  0  0  0  0  0  0  0  0
   -5.3100   21.1000  -31.4800 C   0  0  0  0  0  0  0  0  0  0  0  0
   -6.4830   20.3340  -31.6790 C   0  0  0  0  0  0  0  0  0  0  0  0
   -6.4380   18.9260  -31.8020 C   0  0  0  0  0  0  0  0  0  0  0  0
   -7.6030   18.1860  -31.9770 C   0  0  0  0  0  0  0  0  0  0  0  0
   -8.8360   18.8260  -32.0250 C   0  0  0  0  0  0  0  0  0  0  0  0
   -8.9110   20.2120  -31.8970 C   0  0  0  0  0  0  0  0  0  0  0  0
   -7.7390   20.9940  -31.7260 C   0  0  0  0  0  0  0  0  0  0  0  0
   -7.7980   22.3620  -31.5860 N   0  0  0  0  0  0  0  0  0  0  0  0
   -9.0260   23.0960  -31.9700 C   0  0  0  0  0  0  0  0  0  0  0  0
   -6.7250   23.0400  -31.0360 C   0  0  0  0  0  0  0  0  0  0  0  0
   -6.8590   24.3740  -30.5720 C   0  0  0  0  0  0  0  0  0  0  0  0
   -5.7830   25.0530  -30.0170 C   0  0  0  0  0  0  0  0  0  0  0  0
   -4.5650   24.4110  -29.8440 C   0  0  0  0  0  0  0  0  0  0  0  0
   -4.3960   23.0770  -30.2420 C   0  0  0  0  0  0  0  0  0  0  0  0
   -3.2170   22.3850  -29.8080 N   0  0  0  0  0  0  0  0  0  0  0  0
   -1.9550   23.0730  -29.5380 C   0  0  0  0  0  0  0  0  0  0  0  0
   -1.1920   22.3590  -28.4180 C   0  0  0  0  0  0  0  0  0  0  0  0
   -2.1310   21.5870  -27.4860 C   0  0  0  0  0  0  0  0  0  0  0  0
   -2.3120   20.2030  -27.9860 N   0  0  0  0  0  0  0  0  0  0  0  0
   -1.0740   19.6880  -28.5970 C   0  0  0  0  0  0  0  0  0  0  0  0
   -2.7630   19.2990  -26.9160 C   0  0  0  0  0  0  0  0  0  0  0  0
   -5.4600   22.3960  -30.9120 C   0  0  0  0  0  0  0  0  0  0  0  0
   -6.1672   18.9098  -34.0136 H   0  0  0  0  0  0  0  0  0  0  0  0
   -5.3329   19.3734  -35.5354 H   0  0  0  0  0  0  0  0  0  0  0  0
   -6.5151   18.0210  -35.5354 H   0  0  0  0  0  0  0  0  0  0  0  0
   -5.0513   16.5847  -34.3364 H   0  0  0  0  0  0  0  0  0  0  0  0
   -3.9881   17.4410  -35.5373 H   0  0  0  0  0  0  0  0  0  0  0  0
   -3.5100   19.0340  -33.6930 H   0  0  0  0  0  0  0  0  0  0  0  0
   -2.6696   16.3296  -32.8875 H   0  0  0  0  0  0  0  0  0  0  0  0
   -2.1484   17.0022  -34.4746 H   0  0  0  0  0  0  0  0  0  0  0  0
   -0.8995   17.4526  -32.0132 H   0  0  0  0  0  0  0  0  0  0  0  0
   -0.6820   18.4329  -33.5004 H   0  0  0  0  0  0  0  0  0  0  0  0
   -1.2084   20.9795  -31.5244 H   0  0  0  0  0  0  0  0  0  0  0  0
   -0.2932   20.0983  -32.7864 H   0  0  0  0  0  0  0  0  0  0  0  0
   -1.5107   22.0514  -33.7354 H   0  0  0  0  0  0  0  0  0  0  0  0
   -2.1361   20.4707  -34.3903 H   0  0  0  0  0  0  0  0  0  0  0  0
   -3.4984   22.5383  -32.7266 H   0  0  0  0  0  0  0  0  0  0  0  0
   -4.1449   21.3628  -33.9634 H   0  0  0  0  0  0  0  0  0  0  0  0
   -3.3270   20.5360  -31.2470 H   0  0  0  0  0  0  0  0  0  0  0  0
   -4.0990   19.6800  -32.4220 H   0  0  0  0  0  0  0  0  0  0  0  0
   -5.4683   18.4086  -31.7587 H   0  0  0  0  0  0  0  0  0  0  0  0
   -7.5483   17.0920  -32.0776 H   0  0  0  0  0  0  0  0  0  0  0  0
   -9.7547   18.2373  -32.1643 H   0  0  0  0  0  0  0  0  0  0  0  0
   -9.8929   20.7069  -31.9290 H   0  0  0  0  0  0  0  0  0  0  0  0
   -9.5607   23.4156  -31.0634 H   0  0  0  0  0  0  0  0  0  0  0  0
   -8.7538   23.9797  -32.5659 H   0  0  0  0  0  0  0  0  0  0  0  0
   -9.6754   22.4378  -32.5659 H   0  0  0  0  0  0  0  0  0  0  0  0
   -7.8327   24.8791  -30.6535 H   0  0  0  0  0  0  0  0  0  0  0  0
   -5.8963   26.1041  -29.7131 H   0  0  0  0  0  0  0  0  0  0  0  0
   -3.7232   24.9542  -29.3899 H   0  0  0  0  0  0  0  0  0  0  0  0
   -3.3270   21.4060  -29.4630 H   0  0  0  0  0  0  0  0  0  0  0  0
   -1.3409   23.0770  -30.4506 H   0  0  0  0  0  0  0  0  0  0  0  0
   -2.1691   24.1055  -29.2247 H   0  0  0  0  0  0  0  0  0  0  0  0
   -0.4789   21.6528  -28.8683 H   0  0  0  0  0  0  0  0  0  0  0  0
   -0.6723   23.1225  -27.8205 H   0  0  0  0  0  0  0  0  0  0  0  0
   -1.6976   21.5560  -26.4754 H   0  0  0  0  0  0  0  0  0  0  0  0
   -3.1077   22.0921  -27.4562 H   0  0  0  0  0  0  0  0  0  0  0  0
   -0.3689   19.3947  -27.8053 H   0  0  0  0  0  0  0  0  0  0  0  0
   -1.3094   18.8132  -29.2209 H   0  0  0  0  0  0  0  0  0  0  0  0
   -0.6195   20.4717  -29.2209 H   0  0  0  0  0  0  0  0  0  0  0  0
   -2.5387   19.7485  -25.9374 H   0  0  0  0  0  0  0  0  0  0  0  0
   -3.8474   19.1373  -27.0054 H   0  0  0  0  0  0  0  0  0  0  0  0
   -2.2400   18.3354  -27.0054 H   0  0  0  0  0  0  0  0  0  0  0  0
  1  2  1  0
  2  3  1  0
  3  4  1  0
  4  5  1  0
  5  6  1  0
  6  7  1  0
  7  8  1  0
  8  9  1  0
  9 10  1  0
 10 11  1  0
 11 12  2  0
 12 13  1  0
 13 14  2  0
 14 15  1  0
 15 16  2  0
 16 17  1  0
 17 18  2  0
 18 19  1  0
 18 20  1  0
 20 21  2  0
 21 22  1  0
 22 23  2  0
 23 24  1  0
 24 25  1  0
 25 26  1  0
 26 27  1  0
 27 28  1  0
 28 29  1  0
 29 30  1  0
 29 31  1  0
 24 32  2  0
 32 11  1  0
 17 12  1  0
 32 20  1  0
  1 33  1  0
  1 34  1  0
  1 35  1  0
  2 36  1  0
  2 37  1  0
  3 38  1  0
  4 39  1  0
  4 40  1  0
  5 41  1  0
  5 42  1  0
  7 43  1  0
  7 44  1  0
  8 45  1  0
  8 46  1  0
  9 47  1  0
  9 48  1  0
 10 49  1  0
 10 50  1  0
 13 51  1  0
 14 52  1  0
 15 53  1  0
 16 54  1  0
 19 55  1  0
 19 56  1  0
 19 57  1  0
 21 58  1  0
 22 59  1  0
 23 60  1  0
 25 61  1  0
 26 62  1  0
 26 63  1  0
 27 64  1  0
 27 65  1  0
 28 66  1  0
 28 67  1  0
 30 68  1  0
 30 69  1  0
 30 70  1  0
 31 71  1  0
 31 72  1  0
 31 73  1  0
M  CHG  2  10   1  18   1
M  END
>  <UniqueID>  (25) 
24

>  <SMILES>  (25) 
CCNCCOCCC[NH2+]c1c2ccccc2[n+](C)c2cccc(NCCCN(C)C)c12

>  <Energy>  (25) 
107.47407053440459

>  <Genealogy>  (25) 
CCNCCOCCC[NH2+]c1c2ccccc2[n+](C)c2cccc(NCCCN(C)C)c12 (protonated)
CCNCCOCCC[NH2+]c1c2ccccc2[n+](C)c2cccc(NCCCN(C)C)c12 (3D coordinates assigned)
CCNCCOCCC[NH2+]c1c2ccccc2[n+](C)c2cccc(NCCCN(C)C)c12 (optimized conformer: 107.47407053440459 kcal/mol)

>  <smiles>  (25) 
CCNCCOCCCNc1c2ccccc2[n+](C)c2cccc(NCCCN(C)C)c12

>  <score_type>  (25) 
oracle

>  <origin>  (25) 
adg

>  <m_score__min__energy>  (25) 
-8.5899999999999999

>  <m_primary>  (25) 
energy

$$$$
25:0
     RDKit          3D

 62 65  0  0  0  0  0  0  0  0999 V2000
   -0.2670   21.1530  -33.7270 C   0  0  0  0  0  0  0  0  0  0  0  0
   -0.8930   20.0550  -34.5770 C   0  0  0  0  0  0  0  0  0  0  0  0
   -1.8420   19.2650  -33.7570 N   0  0  0  0  0  0  0  0  0  0  0  0
   -1.9370   17.8480  -34.1830 C   0  0  0  0  0  0  0  0  0  0  0  0
   -3.3480   17.4160  -34.6130 C   0  0  0  0  0  0  0  0  0  0  0  0
   -1.6310   19.4210  -32.3020 C   0  0  0  0  0  0  0  0  0  0  0  0
   -2.6560   20.3970  -31.6990 C   0  0  0  0  0  0  0  0  0  0  0  0
   -3.7450   20.7520  -32.6230 N   0  0  0  0  0  0  0  0  0  0  0  0
   -5.0920   21.0690  -32.2120 C   0  0  0  0  0  0  0  0  0  0  0  0
   -6.1240   20.1380  -32.4320 C   0  0  0  0  0  0  0  0  0  0  0  0
   -5.8720   18.9340  -33.1250 C   0  0  0  0  0  0  0  0  0  0  0  0
   -6.8650   17.9690  -33.2620 C   0  0  0  0  0  0  0  0  0  0  0  0
   -8.1210   18.1800  -32.7070 C   0  0  0  0  0  0  0  0  0  0  0  0
   -8.4000   19.3700  -32.0370 C   0  0  0  0  0  0  0  0  0  0  0  0
   -7.4220   20.3900  -31.9130 C   0  0  0  0  0  0  0  0  0  0  0  0
   -7.6950   21.5850  -31.2750 N   0  0  0  0  0  0  0  0  0  0  0  0
   -9.0960   21.9580  -30.9680 C   0  0  0  0  0  0  0  0  0  0  0  0
   -6.6660   22.4490  -30.9520 C   0  0  0  0  0  0  0  0  0  0  0  0
   -6.8590   23.5430  -30.0720 C   0  0  0  0  0  0  0  0  0  0  0  0
   -5.8270   24.4390  -29.7980 C   0  0  0  0  0  0  0  0  0  0  0  0
   -4.5770   24.2800  -30.4010 C   0  0  0  0  0  0  0  0  0  0  0  0
   -3.5000   25.1900  -30.1350 N   0  0  0  0  0  0  0  0  0  0  0  0
   -2.3700   24.9020  -29.3010 C   0  0  0  0  0  0  0  0  0  0  0  0
   -1.6190   25.8510  -28.9520 O   0  0  0  0  0  0  0  0  0  0  0  0
   -2.0380   23.5190  -28.8850 C   0  0  0  0  0  0  0  0  0  0  0  0
   -0.8890   22.8720  -29.3790 C   0  0  0  0  0  0  0  0  0  0  0  0
   -0.5890   21.5640  -28.9850 C   0  0  0  0  0  0  0  0  0  0  0  0
   -1.4230   20.8940  -28.0860 C   0  0  0  0  0  0  0  0  0  0  0  0
   -2.5540   21.5340  -27.5740 C   0  0  0  0  0  0  0  0  0  0  0  0
   -2.8600   22.8420  -27.9670 C   0  0  0  0  0  0  0  0  0  0  0  0
   -4.3640   23.2110  -31.2670 C   0  0  0  0  0  0  0  0  0  0  0  0
   -5.3670   22.2440  -31.4860 C   0  0  0  0  0  0  0  0  0  0  0  0
   -0.4030   20.9145  -32.6618 H   0  0  0  0  0  0  0  0  0  0  0  0
    0.8073   21.2239  -33.9527 H   0  0  0  0  0  0  0  0  0  0  0  0
   -0.7532   22.1136  -33.9527 H   0  0  0  0  0  0  0  0  0  0  0  0
   -1.4310   20.5093  -35.4221 H   0  0  0  0  0  0  0  0  0  0  0  0
   -0.1008   19.3922  -34.9553 H   0  0  0  0  0  0  0  0  0  0  0  0
   -1.2551   17.6961  -35.0327 H   0  0  0  0  0  0  0  0  0  0  0  0
   -1.6697   17.2352  -33.3095 H   0  0  0  0  0  0  0  0  0  0  0  0
   -3.9620   17.2280  -33.7199 H   0  0  0  0  0  0  0  0  0  0  0  0
   -3.8088   18.2142  -35.2134 H   0  0  0  0  0  0  0  0  0  0  0  0
   -3.2830   16.4966  -35.2134 H   0  0  0  0  0  0  0  0  0  0  0  0
   -1.7384   18.4403  -31.8155 H   0  0  0  0  0  0  0  0  0  0  0  0
   -0.6215   19.8248  -32.1351 H   0  0  0  0  0  0  0  0  0  0  0  0
   -3.0962   19.9308  -30.8052 H   0  0  0  0  0  0  0  0  0  0  0  0
   -2.1169   21.3264  -31.4632 H   0  0  0  0  0  0  0  0  0  0  0  0
   -3.5590   20.6510  -33.6460 H   0  0  0  0  0  0  0  0  0  0  0  0
   -4.8783   18.7566  -33.5621 H   0  0  0  0  0  0  0  0  0  0  0  0
   -6.6554   17.0385  -33.8100 H   0  0  0  0  0  0  0  0  0  0  0  0
   -8.8974   17.4059  -32.7965 H   0  0  0  0  0  0  0  0  0  0  0  0
   -9.3966   19.5209  -31.5964 H   0  0  0  0  0  0  0  0  0  0  0  0
   -9.2350   21.9950  -29.8774 H   0  0  0  0  0  0  0  0  0  0  0  0
   -9.3154   22.9458  -31.3993 H   0  0  0  0  0  0  0  0  0  0  0  0
   -9.7775   21.2100  -31.3993 H   0  0  0  0  0  0  0  0  0  0  0  0
   -7.8405   23.6876  -29.5968 H   0  0  0  0  0  0  0  0  0  0  0  0
   -5.9977   25.2751  -29.1038 H   0  0  0  0  0  0  0  0  0  0  0  0
   -0.2234   23.3984  -30.0789 H   0  0  0  0  0  0  0  0  0  0  0  0
    0.3049   21.0619  -29.3835 H   0  0  0  0  0  0  0  0  0  0  0  0
   -1.1889   19.8632  -27.7817 H   0  0  0  0  0  0  0  0  0  0  0  0
   -3.2057   21.0088  -26.8603 H   0  0  0  0  0  0  0  0  0  0  0  0
   -3.7485   23.3431  -27.5554 H   0  0  0  0  0  0  0  0  0  0  0  0
   -3.3995   23.1192  -31.7879 H   0  0  0  0  0  0  0  0  0  0  0  0
  1  2  1  0
  2  3  1  0
  3  4  1  0
  4  5  1  0
  3  6  1  0
  6  7  1  0
  7  8  1  0
  8  9  1  0
  9 10  2  0
 10 11  1  0
 11 12  2  0
 12 13  1  0
 13 14  2  0
 14 15  1  0
 15 16  2  0
 16 17  1  0
 16 18  1  0
 18 19  2  0
 19 20  1  0
 20 21  2  0
 21 22  1  0
 22 23  1  0
 23 24  2  0
 23 25  1  0
 25 26  2  0
 26 27  1  0
 27 28  2  0
 28 29  1  0
 29 30  2  0
 21 31  1  0
 31 32  2  0
 32  9  1  0
 15 10  1  0
 32 18  1  0
 30 25  1  0
  1 33  1  0
  1 34  1  0
  1 35  1  0
  2 36  1  0
  2 37  1  0
  4 38  1  0
  4 39  1  0
  5 40  1  0
  5 41  1  0
  5 42  1  0
  6 43  1  0
  6 44  1  0
  7 45  1  0
  7 46  1  0
  8 47  1  0
 11 48  1  0
 12 49  1  0
 13 50  1  0
 14 51  1  0
 17 52  1  0
 17 53  1  0
 17 54  1  0
 19 55  1  0
 20 56  1  0
 26 57  1  0
 27 58  1  0
 28 59  1  0
 29 60  1  0
 30 61  1  0
 31 62  1  0
M  CHG  2  16   1  22  -1
M  END
>  <UniqueID>  (26) 
25

>  <SMILES>  (26) 
CCN(CC)CCNc1c2ccccc2[n+](C)c2ccc([N-]C(=O)c3ccccc3)cc12

>  <Energy>  (26) 
98.16808146218207

>  <Genealogy>  (26) 
CCN(CC)CCNc1c2ccccc2[n+](C)c2ccc([N-]C(=O)c3ccccc3)cc12 (protonated)
CCN(CC)CCNc1c2ccccc2[n+](C)c2ccc([N-]C(=O)c3ccccc3)cc12 (3D coordinates assigned)
CCN(CC)CCNc1c2ccccc2[n+](C)c2ccc([N-]C(=O)c3ccccc3)cc12 (optimized conformer: 98.16808146218207 kcal/mol)

>  <smiles>  (26) 
CCN(CC)CCNc1c2ccccc2[n+](C)c2ccc(NC(=O)c3ccccc3)cc12

>  <score_type>  (26) 
oracle

>  <origin>  (26) 
adg

>  <m_score__min__energy>  (26) 
-11.06

>  <m_primary>  (26) 
energy

$$$$
26:0
     RDKit          3D

 69 71  0  0  0  0  0  0  0  0999 V2000
   -1.3100   20.1690  -27.0380 C   0  0  0  0  0  0  0  0  0  0  0  0
   -2.5260   19.7450  -27.8460 C   0  0  0  0  0  0  0  0  0  0  0  0
   -2.4640   20.3450  -29.1210 O   0  0  0  0  0  0  0  0  0  0  0  0
   -1.1970   20.1030  -29.6970 C   0  0  0  0  0  0  0  0  0  0  0  0
   -0.7640   21.3280  -30.4920 C   0  0  0  0  0  0  0  0  0  0  0  0
   -1.9010   21.9110  -31.0890 O   0  0  0  0  0  0  0  0  0  0  0  0
   -2.0210   21.4700  -32.4250 C   0  0  0  0  0  0  0  0  0  0  0  0
   -3.4480   20.9810  -32.6590 C   0  0  0  0  0  0  0  0  0  0  0  0
   -4.1470   20.7740  -31.3870 N   0  0  0  0  0  0  0  0  0  0  0  0
   -5.4780   21.2850  -31.2210 C   0  0  0  0  0  0  0  0  0  0  0  0
   -6.5560   20.5080  -31.6740 C   0  0  0  0  0  0  0  0  0  0  0  0
   -6.3980   19.1280  -31.9240 C   0  0  0  0  0  0  0  0  0  0  0  0
   -7.4800   18.3510  -32.3330 C   0  0  0  0  0  0  0  0  0  0  0  0
   -8.7330   18.9330  -32.4890 C   0  0  0  0  0  0  0  0  0  0  0  0
   -8.9050   20.3000  -32.2650 C   0  0  0  0  0  0  0  0  0  0  0  0
   -7.8120   21.1220  -31.8880 C   0  0  0  0  0  0  0  0  0  0  0  0
   -7.9400   22.4880  -31.7480 N   0  0  0  0  0  0  0  0  0  0  0  0
   -9.1180   23.1790  -32.3200 C   0  0  0  0  0  0  0  0  0  0  0  0
   -6.9640   23.2090  -31.0810 C   0  0  0  0  0  0  0  0  0  0  0  0
   -7.1890   24.5520  -30.6940 C   0  0  0  0  0  0  0  0  0  0  0  0
   -6.2140   25.2860  -30.0340 C   0  0  0  0  0  0  0  0  0  0  0  0
   -5.0220   24.6870  -29.6640 C   0  0  0  0  0  0  0  0  0  0  0  0
   -4.7680   23.3370  -29.9560 C   0  0  0  0  0  0  0  0  0  0  0  0
   -3.6310   22.7240  -29.3000 N   0  0  0  0  0  0  0  0  0  0  0  0
   -3.8420   22.6340  -27.8460 C   0  0  0  0  0  0  0  0  0  0  0  0
   -3.3540   23.9100  -27.1410 C   0  0  0  0  0  0  0  0  0  0  0  0
   -1.8220   23.9850  -27.0960 C   0  0  0  0  0  0  0  0  0  0  0  0
   -1.2670   24.3490  -28.4180 N   0  0  0  0  0  0  0  0  0  0  0  0
   -1.2360   25.8110  -28.5940 C   0  0  0  0  0  0  0  0  0  0  0  0
    0.0930   23.8060  -28.5720 C   0  0  0  0  0  0  0  0  0  0  0  0
   -5.7110   22.6020  -30.7520 C   0  0  0  0  0  0  0  0  0  0  0  0
   -1.5372   20.0898  -25.9646 H   0  0  0  0  0  0  0  0  0  0  0  0
   -0.4608   19.5139  -27.2824 H   0  0  0  0  0  0  0  0  0  0  0  0
   -1.0522   21.2101  -27.2824 H   0  0  0  0  0  0  0  0  0  0  0  0
   -2.5334   18.6503  -27.9538 H   0  0  0  0  0  0  0  0  0  0  0  0
   -3.4437   20.0639  -27.3302 H   0  0  0  0  0  0  0  0  0  0  0  0
   -0.4638   19.9029  -28.9017 H   0  0  0  0  0  0  0  0  0  0  0  0
   -1.2562   19.2315  -30.3655 H   0  0  0  0  0  0  0  0  0  0  0  0
   -0.2867   22.0552  -29.8187 H   0  0  0  0  0  0  0  0  0  0  0  0
   -0.0451   21.0320  -31.2702 H   0  0  0  0  0  0  0  0  0  0  0  0
   -1.7990   22.3019  -33.1096 H   0  0  0  0  0  0  0  0  0  0  0  0
   -1.3113   20.6506  -32.6117 H   0  0  0  0  0  0  0  0  0  0  0  0
   -3.9929   21.7310  -33.2511 H   0  0  0  0  0  0  0  0  0  0  0  0
   -3.4065   20.0222  -33.1965 H   0  0  0  0  0  0  0  0  0  0  0  0
   -3.8430   19.9940  -30.7610 H   0  0  0  0  0  0  0  0  0  0  0  0
   -5.4105   18.6610  -31.7946 H   0  0  0  0  0  0  0  0  0  0  0  0
   -7.3429   17.2779  -32.5323 H   0  0  0  0  0  0  0  0  0  0  0  0
   -9.5914   18.3144  -32.7898 H   0  0  0  0  0  0  0  0  0  0  0  0
   -9.9033   20.7467  -32.3826 H   0  0  0  0  0  0  0  0  0  0  0  0
   -9.7553   23.5528  -31.5051 H   0  0  0  0  0  0  0  0  0  0  0  0
   -8.7825   24.0235  -32.9399 H   0  0  0  0  0  0  0  0  0  0  0  0
   -9.6914   22.4741  -32.9399 H   0  0  0  0  0  0  0  0  0  0  0  0
   -8.1566   25.0233  -30.9212 H   0  0  0  0  0  0  0  0  0  0  0  0
   -6.3887   26.3474  -29.8040 H   0  0  0  0  0  0  0  0  0  0  0  0
   -4.2615   25.2780  -29.1327 H   0  0  0  0  0  0  0  0  0  0  0  0
   -2.7410   23.2040  -29.5460 H   0  0  0  0  0  0  0  0  0  0  0  0
   -3.5140   21.7500  -29.6700 H   0  0  0  0  0  0  0  0  0  0  0  0
   -4.9152   22.4997  -27.6454 H   0  0  0  0  0  0  0  0  0  0  0  0
   -3.2690   21.7781  -27.4600 H   0  0  0  0  0  0  0  0  0  0  0  0
   -3.7377   24.7861  -27.6844 H   0  0  0  0  0  0  0  0  0  0  0  0
   -3.7263   23.8929  -26.1061 H   0  0  0  0  0  0  0  0  0  0  0  0
   -1.5211   24.7440  -26.3588 H   0  0  0  0  0  0  0  0  0  0  0  0
   -1.4322   22.9958  -26.8141 H   0  0  0  0  0  0  0  0  0  0  0  0
   -1.2257   26.2989  -27.6082 H   0  0  0  0  0  0  0  0  0  0  0  0
   -0.3317   26.0940  -29.1526 H   0  0  0  0  0  0  0  0  0  0  0  0
   -2.1275   26.1321  -29.1526 H   0  0  0  0  0  0  0  0  0  0  0  0
    0.5324   23.6306  -27.5789 H   0  0  0  0  0  0  0  0  0  0  0  0
    0.0483   22.8568  -29.1261 H   0  0  0  0  0  0  0  0  0  0  0  0
    0.7143   24.5250  -29.1261 H   0  0  0  0  0  0  0  0  0  0  0  0
  1  2  1  0
  2  3  1  0
  3  4  1  0
  4  5  1  0
  5  6  1  0
  6  7  1  0
  7  8  1  0
  8  9  1  0
  9 10  1  0
 10 11  2  0
 11 12  1  0
 12 13  2  0
 13 14  1  0
 14 15  2  0
 15 16  1  0
 16 17  2  0
 17 18  1  0
 17 19  1  0
 19 20  2  0
 20 21  1  0
 21 22  2  0
 22 23  1  0
 23 24  1  0
 24 25  1  0
 25 26  1  0
 26 27  1  0
 27 28  1  0
 28 29  1  0
 28 30  1  0
 23 31  2  0
 31 10  1  0
 16 11  1  0
 31 19  1  0
  1 32  1  0
  1 33  1  0
  1 34  1  0
  2 35  1  0
  2 36  1  0
  4 37  1  0
  4 38  1  0
  5 39  1  0
  5 40  1  0
  7 41  1  0
  7 42  1  0
  8 43  1  0
  8 44  1  0
  9 45  1  0
 12 46  1  0
 13 47  1  0
 14 48  1  0
 15 49  1  0
 18 50  1  0
 18 51  1  0
 18 52  1  0
 20 53  1  0
 21 54  1  0
 22 55  1  0
 24 56  1  0
 24 57  1  0
 25 58  1  0
 25 59  1  0
 26 60  1  0
 26 61  1  0
 27 62  1  0
 27 63  1  0
 29 64  1  0
 29 65  1  0
 29 66  1  0
 30 67  1  0
 30 68  1  0
 30 69  1  0
M  CHG  2  17   1  24   1
M  END
>  <UniqueID>  (27) 
26

>  <SMILES>  (27) 
CCOCCOCCNc1c2ccccc2[n+](C)c2cccc([NH2+]CCCN(C)C)c12

>  <Energy>  (27) 
98.24057398889533

>  <Genealogy>  (27) 
CCOCCOCCNc1c2ccccc2[n+](C)c2cccc([NH2+]CCCN(C)C)c12 (protonated)
CCOCCOCCNc1c2ccccc2[n+](C)c2cccc([NH2+]CCCN(C)C)c12 (3D coordinates assigned)
CCOCCOCCNc1c2ccccc2[n+](C)c2cccc([NH2+]CCCN(C)C)c12 (optimized conformer: 98.24057398889533 kcal/mol)

>  <smiles>  (27) 
CCOCCOCCNc1c2ccccc2[n+](C)c2cccc(NCCCN(C)C)c12

>  <score_type>  (27) 
oracle

>  <origin>  (27) 
adg

>  <m_score__min__energy>  (27) 
-8.1600000000000001

>  <m_primary>  (27) 
energy

$$$$
27:0
     RDKit          3D

 70 73  0  0  0  0  0  0  0  0999 V2000
   -4.1730   25.0010  -26.2760 C   0  0  0  0  0  0  0  0  0  0  0  0
   -2.6400   24.9100  -26.2220 C   0  0  0  0  0  0  0  0  0  0  0  0
   -1.9200   26.0050  -26.9250 N   0  0  0  0  0  0  0  0  0  0  0  0
   -0.9970   26.7740  -26.0560 C   0  0  0  0  0  0  0  0  0  0  0  0
   -1.2480   26.5120  -24.5700 C   0  0  0  0  0  0  0  0  0  0  0  0
   -1.2210   25.5650  -28.1570 C   0  0  0  0  0  0  0  0  0  0  0  0
   -2.0320   24.5490  -28.9750 C   0  0  0  0  0  0  0  0  0  0  0  0
   -3.1020   25.1990  -29.6420 O   0  0  0  0  0  0  0  0  0  0  0  0
   -4.3510   24.5980  -29.3540 C   0  0  0  0  0  0  0  0  0  0  0  0
   -4.2070   23.0890  -29.1030 C   0  0  0  0  0  0  0  0  0  0  0  0
   -4.3080   22.2850  -30.4020 C   0  0  0  0  0  0  0  0  0  0  0  0
   -3.5180   22.9360  -31.4560 N   0  0  0  0  0  0  0  0  0  0  0  0
   -2.4500   22.0550  -31.9510 C   0  0  0  0  0  0  0  0  0  0  0  0
   -2.9440   21.2060  -33.1260 C   0  0  0  0  0  0  0  0  0  0  0  0
   -4.3150   21.5730  -33.4770 N   0  0  0  0  0  0  0  0  0  0  0  0
   -5.4200   20.7150  -33.1560 C   0  0  0  0  0  0  0  0  0  0  0  0
   -6.6470   21.2180  -32.6770 C   0  0  0  0  0  0  0  0  0  0  0  0
   -6.8220   22.5960  -32.4350 C   0  0  0  0  0  0  0  0  0  0  0  0
   -8.0500   23.0910  -32.0040 C   0  0  0  0  0  0  0  0  0  0  0  0
   -9.1200   22.2250  -31.8020 C   0  0  0  0  0  0  0  0  0  0  0  0
   -8.9630   20.8530  -31.9960 C   0  0  0  0  0  0  0  0  0  0  0  0
   -7.7180   20.3100  -32.4000 C   0  0  0  0  0  0  0  0  0  0  0  0
   -7.5300   18.9410  -32.5260 N   0  0  0  0  0  0  0  0  0  0  0  0
   -8.4630   18.0100  -31.8690 C   0  0  0  0  0  0  0  0  0  0  0  0
   -6.3840   18.4790  -33.1390 C   0  0  0  0  0  0  0  0  0  0  0  0
   -5.3190   19.3480  -33.3750 C   0  0  0  0  0  0  0  0  0  0  0  0
   -3.9900   18.5210  -34.0030 S   0  0  0  0  0  0  0  0  0  0  0  0
   -4.7700   17.0370  -34.0390 C   0  0  0  0  0  0  0  0  0  0  0  0
   -4.2500   15.8430  -34.5340 C   0  0  0  0  0  0  0  0  0  0  0  0
   -5.0900   14.7260  -34.5950 C   0  0  0  0  0  0  0  0  0  0  0  0
   -6.4320   14.8300  -34.1960 C   0  0  0  0  0  0  0  0  0  0  0  0
   -6.9420   16.0450  -33.7080 C   0  0  0  0  0  0  0  0  0  0  0  0
   -6.0840   17.1560  -33.5770 C   0  0  0  0  0  0  0  0  0  0  0  0
   -4.5752   25.0249  -25.2524 H   0  0  0  0  0  0  0  0  0  0  0  0
   -4.4674   25.9182  -26.8071 H   0  0  0  0  0  0  0  0  0  0  0  0
   -4.5738   24.1251  -26.8071 H   0  0  0  0  0  0  0  0  0  0  0  0
   -2.3344   24.9240  -25.1654 H   0  0  0  0  0  0  0  0  0  0  0  0
   -2.3688   23.9799  -26.7429 H   0  0  0  0  0  0  0  0  0  0  0  0
    0.0373   26.4869  -26.2964 H   0  0  0  0  0  0  0  0  0  0  0  0
   -1.1699   27.8440  -26.2437 H   0  0  0  0  0  0  0  0  0  0  0  0
   -0.6112   27.1767  -23.9678 H   0  0  0  0  0  0  0  0  0  0  0  0
   -2.3052   26.7068  -24.3368 H   0  0  0  0  0  0  0  0  0  0  0  0
   -1.0081   25.4641  -24.3368 H   0  0  0  0  0  0  0  0  0  0  0  0
   -1.0283   26.4472  -28.7851 H   0  0  0  0  0  0  0  0  0  0  0  0
   -0.2884   25.0702  -27.8481 H   0  0  0  0  0  0  0  0  0  0  0  0
   -1.3751   24.0743  -29.7188 H   0  0  0  0  0  0  0  0  0  0  0  0
   -2.4425   23.7874  -28.2957 H   0  0  0  0  0  0  0  0  0  0  0  0
   -4.7761   25.0704  -28.4562 H   0  0  0  0  0  0  0  0  0  0  0  0
   -5.0107   24.7413  -30.2225 H   0  0  0  0  0  0  0  0  0  0  0  0
   -3.2277   22.8967  -28.6404 H   0  0  0  0  0  0  0  0  0  0  0  0
   -5.0260   22.7727  -28.4402 H   0  0  0  0  0  0  0  0  0  0  0  0
   -3.9229   21.2686  -30.2327 H   0  0  0  0  0  0  0  0  0  0  0  0
   -5.3609   22.2362  -30.7166 H   0  0  0  0  0  0  0  0  0  0  0  0
   -3.0590   23.7760  -31.0310 H   0  0  0  0  0  0  0  0  0  0  0  0
   -1.6005   22.6699  -32.2828 H   0  0  0  0  0  0  0  0  0  0  0  0
   -2.1422   21.3831  -31.1363 H   0  0  0  0  0  0  0  0  0  0  0  0
   -2.2900   21.3732  -33.9946 H   0  0  0  0  0  0  0  0  0  0  0  0
   -2.9211   20.1454  -32.8352 H   0  0  0  0  0  0  0  0  0  0  0  0
   -4.5120   22.5840  -33.6500 H   0  0  0  0  0  0  0  0  0  0  0  0
   -5.9799   23.2870  -32.5882 H   0  0  0  0  0  0  0  0  0  0  0  0
   -8.1744   24.1688  -31.8229 H   0  0  0  0  0  0  0  0  0  0  0  0
  -10.0953   22.6248  -31.4875 H   0  0  0  0  0  0  0  0  0  0  0  0
   -9.8190   20.1817  -31.8329 H   0  0  0  0  0  0  0  0  0  0  0  0
   -8.3678   18.1050  -30.7773 H   0  0  0  0  0  0  0  0  0  0  0  0
   -9.4934   18.2506  -32.1695 H   0  0  0  0  0  0  0  0  0  0  0  0
   -8.2246   16.9790  -32.1695 H   0  0  0  0  0  0  0  0  0  0  0  0
   -3.2041   15.7801  -34.8688 H   0  0  0  0  0  0  0  0  0  0  0  0
   -4.6981   13.7639  -34.9565 H   0  0  0  0  0  0  0  0  0  0  0  0
   -7.0907   13.9518  -34.2661 H   0  0  0  0  0  0  0  0  0  0  0  0
   -8.0030   16.1287  -33.4302 H   0  0  0  0  0  0  0  0  0  0  0  0
  1  2  1  0
  2  3  1  0
  3  4  1  0
  4  5  1  0
  3  6  1  0
  6  7  1  0
  7  8  1  0
  8  9  1  0
  9 10  1  0
 10 11  1  0
 11 12  1  0
 12 13  1  0
 13 14  1  0
 14 15  1  0
 15 16  1  0
 16 17  2  0
 17 18  1  0
 18 19  2  0
 19 20  1  0
 20 21  2  0
 21 22  1  0
 22 23  2  0
 23 24  1  0
 23 25  1  0
 25 26  2  0
 26 27  1  0
 27 28  1  0
 28 29  2  0
 29 30  1  0
 30 31  2  0
 31 32  1  0
 32 33  2  0
 26 16  1  0
 33 28  1  0
 22 17  1  0
 33 25  1  0
  1 34  1  0
  1 35  1  0
  1 36  1  0
  2 37  1  0
  2 38  1  0
  4 39  1  0
  4 40  1  0
  5 41  1  0
  5 42  1  0
  5 43  1  0
  6 44  1  0
  6 45  1  0
  7 46  1  0
  7 47  1  0
  9 48  1  0
  9 49  1  0
 10 50  1  0
 10 51  1  0
 11 52  1  0
 11 53  1  0
 12 54  1  0
 13 55  1  0
 13 56  1  0
 14 57  1  0
 14 58  1  0
 15 59  1  0
 18 60  1  0
 19 61  1  0
 20 62  1  0
 21 63  1  0
 24 64  1  0
 24 65  1  0
 24 66  1  0
 29 67  1  0
 30 68  1  0
 31 69  1  0
 32 70  1  0
M  CHG  1  23   1
M  END
>  <UniqueID>  (28) 
27

>  <SMILES>  (28) 
CCN(CC)CCOCCCNCCNc1c2ccccc2[n+](C)c2c1sc1ccccc12

>  <Energy>  (28) 
129.96392269437308

>  <Genealogy>  (28) 
CCN(CC)CCOCCCNCCNc1c2ccccc2[n+](C)c2c1sc1ccccc12 (3D coordinates assigned)
CCN(CC)CCOCCCNCCNc1c2ccccc2[n+](C)c2c1sc1ccccc12 (optimized conformer: 129.96392269437308 kcal/mol)

>  <smiles>  (28) 
CCN(CC)CCOCCCNCCNc1c2ccccc2[n+](C)c2c1sc1ccccc12

>  <score_type>  (28) 
oracle

>  <origin>  (28) 
adg

>  <m_score__min__energy>  (28) 
-10.56

>  <m_primary>  (28) 
energy

$$$$
28:0
     RDKit          3D

 93 96  0  0  0  0  0  0  0  0999 V2000
   -0.5440   26.4310  -37.3640 C   0  0  0  0  0  0  0  0  0  0  0  0
    0.6680   26.0420  -38.2100 C   0  0  0  0  0  0  0  0  0  0  0  0
    1.4340   24.9620  -37.5480 N   0  0  0  0  0  0  0  0  0  0  0  0
    2.8590   25.3290  -37.4680 C   0  0  0  0  0  0  0  0  0  0  0  0
    0.8960   24.6730  -36.1970 C   0  0  0  0  0  0  0  0  0  0  0  0
    0.5700   23.1860  -36.0490 C   0  0  0  0  0  0  0  0  0  0  0  0
    1.2940   22.6450  -34.9580 O   0  0  0  0  0  0  0  0  0  0  0  0
    1.4930   21.2510  -35.1010 C   0  0  0  0  0  0  0  0  0  0  0  0
    0.4130   20.6250  -35.9850 C   0  0  0  0  0  0  0  0  0  0  0  0
   -0.7780   20.4660  -35.2360 O   0  0  0  0  0  0  0  0  0  0  0  0
   -0.5510   19.7380  -34.0410 C   0  0  0  0  0  0  0  0  0  0  0  0
   -1.5280   20.1490  -32.9270 C   0  0  0  0  0  0  0  0  0  0  0  0
   -2.6320   20.9540  -33.4540 N   0  0  0  0  0  0  0  0  0  0  0  0
   -3.9620   20.8800  -32.9110 C   0  0  0  0  0  0  0  0  0  0  0  0
   -4.8250   19.8300  -33.2700 C   0  0  0  0  0  0  0  0  0  0  0  0
   -4.3670   18.7510  -34.0560 C   0  0  0  0  0  0  0  0  0  0  0  0
   -5.2170   17.6990  -34.3860 C   0  0  0  0  0  0  0  0  0  0  0  0
   -6.5230   17.6870  -33.9130 C   0  0  0  0  0  0  0  0  0  0  0  0
   -6.9970   18.7380  -33.1290 C   0  0  0  0  0  0  0  0  0  0  0  0
   -6.1690   19.8430  -32.8110 C   0  0  0  0  0  0  0  0  0  0  0  0
   -6.6320   20.9040  -32.0560 N   0  0  0  0  0  0  0  0  0  0  0  0
   -8.0870   21.0770  -31.8600 C   0  0  0  0  0  0  0  0  0  0  0  0
   -5.7380   21.8210  -31.5310 C   0  0  0  0  0  0  0  0  0  0  0  0
   -6.1250   22.7510  -30.5380 C   0  0  0  0  0  0  0  0  0  0  0  0
   -5.2380   23.7350  -30.0700 C   0  0  0  0  0  0  0  0  0  0  0  0
   -5.6200   24.6850  -29.1090 O   0  0  0  0  0  0  0  0  0  0  0  0
   -6.5260   25.7580  -29.3420 C   0  0  0  0  0  0  0  0  0  0  0  0
   -3.9360   23.7900  -30.5690 C   0  0  0  0  0  0  0  0  0  0  0  0
   -3.1000   24.8130  -30.0930 O   0  0  0  0  0  0  0  0  0  0  0  0
   -2.3940   24.8250  -28.8530 C   0  0  0  0  0  0  0  0  0  0  0  0
   -2.6870   23.5430  -28.0410 C   0  0  0  0  0  0  0  0  0  0  0  0
   -1.7400   22.3880  -28.2490 N   0  0  0  0  0  0  0  0  0  0  0  0
   -0.7790   22.6820  -29.3790 C   0  0  0  0  0  0  0  0  0  0  0  0
   -0.4440   21.5390  -30.3600 C   0  0  0  0  0  0  0  0  0  0  0  0
   -1.0420   22.0580  -26.9530 C   0  0  0  0  0  0  0  0  0  0  0  0
   -0.6680   20.5770  -26.8350 C   0  0  0  0  0  0  0  0  0  0  0  0
   -1.9380   19.7120  -26.7780 C   0  0  0  0  0  0  0  0  0  0  0  0
   -3.1160   20.3510  -27.5370 C   0  0  0  0  0  0  0  0  0  0  0  0
   -2.5990   21.2200  -28.6980 C   0  0  0  0  0  0  0  0  0  0  0  0
   -3.5150   22.8420  -31.5140 C   0  0  0  0  0  0  0  0  0  0  0  0
   -4.3940   21.8430  -31.9810 C   0  0  0  0  0  0  0  0  0  0  0  0
   -0.2882   26.3489  -36.2973 H   0  0  0  0  0  0  0  0  0  0  0  0
   -0.8336   27.4672  -37.5929 H   0  0  0  0  0  0  0  0  0  0  0  0
   -1.3825   25.7569  -37.5929 H   0  0  0  0  0  0  0  0  0  0  0  0
    0.3253   25.6920  -39.1949 H   0  0  0  0  0  0  0  0  0  0  0  0
    1.3187   26.9212  -38.3267 H   0  0  0  0  0  0  0  0  0  0  0  0
    3.1590   25.4063  -36.4125 H   0  0  0  0  0  0  0  0  0  0  0  0
    3.4648   24.5576  -37.9659 H   0  0  0  0  0  0  0  0  0  0  0  0
    3.0168   26.2971  -37.9659 H   0  0  0  0  0  0  0  0  0  0  0  0
    1.6453   24.9548  -35.4426 H   0  0  0  0  0  0  0  0  0  0  0  0
   -0.0280   25.2525  -36.0540 H   0  0  0  0  0  0  0  0  0  0  0  0
   -0.5083   23.0642  -35.8687 H   0  0  0  0  0  0  0  0  0  0  0  0
    0.8522   22.6575  -36.9715 H   0  0  0  0  0  0  0  0  0  0  0  0
    2.4777   21.0743  -35.5584 H   0  0  0  0  0  0  0  0  0  0  0  0
    1.4388   20.7878  -34.1048 H   0  0  0  0  0  0  0  0  0  0  0  0
    0.2192   21.2807  -36.8467 H   0  0  0  0  0  0  0  0  0  0  0  0
    0.7555   19.6422  -36.3411 H   0  0  0  0  0  0  0  0  0  0  0  0
   -0.6782   18.6652  -34.2481 H   0  0  0  0  0  0  0  0  0  0  0  0
    0.4708   19.9560  -33.6969 H   0  0  0  0  0  0  0  0  0  0  0  0
   -1.9382   19.2423  -32.4584 H   0  0  0  0  0  0  0  0  0  0  0  0
   -0.9787   20.7547  -32.1912 H   0  0  0  0  0  0  0  0  0  0  0  0
   -2.4690   21.5440  -34.3050 H   0  0  0  0  0  0  0  0  0  0  0  0
   -3.3263   18.7411  -34.4120 H   0  0  0  0  0  0  0  0  0  0  0  0
   -4.8545   16.8774  -35.0212 H   0  0  0  0  0  0  0  0  0  0  0  0
   -7.1863   16.8444  -34.1581 H   0  0  0  0  0  0  0  0  0  0  0  0
   -8.0298   18.7089  -32.7515 H   0  0  0  0  0  0  0  0  0  0  0  0
   -8.3113   21.1037  -30.7835 H   0  0  0  0  0  0  0  0  0  0  0  0
   -8.4101   22.0199  -32.3254 H   0  0  0  0  0  0  0  0  0  0  0  0
   -8.6222   20.2362  -32.3254 H   0  0  0  0  0  0  0  0  0  0  0  0
   -7.1426   22.7028  -30.1231 H   0  0  0  0  0  0  0  0  0  0  0  0
   -6.8689   26.1641  -28.3789 H   0  0  0  0  0  0  0  0  0  0  0  0
   -6.0184   26.5490  -29.9136 H   0  0  0  0  0  0  0  0  0  0  0  0
   -7.3908   25.3901  -29.9136 H   0  0  0  0  0  0  0  0  0  0  0  0
   -1.3142   24.8857  -29.0536 H   0  0  0  0  0  0  0  0  0  0  0  0
   -2.7248   25.6957  -28.2679 H   0  0  0  0  0  0  0  0  0  0  0  0
   -2.6613   23.8092  -26.9740 H   0  0  0  0  0  0  0  0  0  0  0  0
   -3.6650   23.1876  -28.3977 H   0  0  0  0  0  0  0  0  0  0  0  0
   -1.2097   23.5042  -29.9693 H   0  0  0  0  0  0  0  0  0  0  0  0
    0.1751   22.9031  -28.8782 H   0  0  0  0  0  0  0  0  0  0  0  0
   -0.1790   20.6347  -29.7926 H   0  0  0  0  0  0  0  0  0  0  0  0
   -1.3190   21.3311  -30.9934 H   0  0  0  0  0  0  0  0  0  0  0  0
    0.4048   21.8364  -30.9934 H   0  0  0  0  0  0  0  0  0  0  0  0
   -0.1224   22.6581  -26.8874 H   0  0  0  0  0  0  0  0  0  0  0  0
   -1.7410   22.2871  -26.1351 H   0  0  0  0  0  0  0  0  0  0  0  0
   -0.0671   20.2832  -27.7083 H   0  0  0  0  0  0  0  0  0  0  0  0
   -0.0885   20.4253  -25.9124 H   0  0  0  0  0  0  0  0  0  0  0  0
   -1.7186   18.7318  -27.2263 H   0  0  0  0  0  0  0  0  0  0  0  0
   -2.2314   19.6148  -25.7223 H   0  0  0  0  0  0  0  0  0  0  0  0
   -3.7619   19.5564  -27.9389 H   0  0  0  0  0  0  0  0  0  0  0  0
   -3.6853   20.9861  -26.8423 H   0  0  0  0  0  0  0  0  0  0  0  0
   -1.9998   20.5851  -29.3672 H   0  0  0  0  0  0  0  0  0  0  0  0
   -3.4810   21.6436  -29.2006 H   0  0  0  0  0  0  0  0  0  0  0  0
   -2.4842   22.8786  -31.8962 H   0  0  0  0  0  0  0  0  0  0  0  0
  1  2  1  0
  2  3  1  0
  3  4  1  0
  3  5  1  0
  5  6  1  0
  6  7  1  0
  7  8  1  0
  8  9  1  0
  9 10  1  0
 10 11  1  0
 11 12  1  0
 12 13  1  0
 13 14  1  0
 14 15  2  0
 15 16  1  0
 16 17  2  0
 17 18  1  0
 18 19  2  0
 19 20  1  0
 20 21  2  0
 21 22  1  0
 21 23  1  0
 23 24  2  0
 24 25  1  0
 25 26  1  0
 26 27  1  0
 25 28  2  0
 28 29  1  0
 29 30  1  0
 30 31  1  0
 31 32  1  0
 32 33  1  0
 33 34  1  0
 32 35  1  0
 35 36  1  0
 36 37  1  0
 37 38  1  0
 38 39  1  0
 28 40  1  0
 40 41  2  0
 41 14  1  0
 20 15  1  0
 41 23  1  0
 39 32  1  0
  1 42  1  0
  1 43  1  0
  1 44  1  0
  2 45  1  0
  2 46  1  0
  4 47  1  0
  4 48  1  0
  4 49  1  0
  5 50  1  0
  5 51  1  0
  6 52  1  0
  6 53  1  0
  8 54  1  0
  8 55  1  0
  9 56  1  0
  9 57  1  0
 11 58  1  0
 11 59  1  0
 12 60  1  0
 12 61  1  0
 13 62  1  0
 16 63  1  0
 17 64  1  0
 18 65  1  0
 19 66  1  0
 22 67  1  0
 22 68  1  0
 22 69  1  0
 24 70  1  0
 27 71  1  0
 27 72  1  0
 27 73  1  0
 30 74  1  0
 30 75  1  0
 31 76  1  0
 31 77  1  0
 33 78  1  0
 33 79  1  0
 34 80  1  0
 34 81  1  0
 34 82  1  0
 35 83  1  0
 35 84  1  0
 36 85  1  0
 36 86  1  0
 37 87  1  0
 37 88  1  0
 38 89  1  0
 38 90  1  0
 39 91  1  0
 39 92  1  0
 40 93  1  0
M  CHG  2  21   1  32   1
M  END
>  <UniqueID>  (29) 
28

>  <SMILES>  (29) 
CCN(C)CCOCCOCCNc1c2ccccc2[n+](C)c2cc(OC)c(OCC[N+]3(CC)CCCCC3)cc12

>  <Energy>  (29) 
147.91328506722368

>  <Genealogy>  (29) 
CCN(C)CCOCCOCCNc1c2ccccc2[n+](C)c2cc(OC)c(OCC[N+]3(CC)CCCCC3)cc12 (3D coordinates assigned)
CCN(C)CCOCCOCCNc1c2ccccc2[n+](C)c2cc(OC)c(OCC[N+]3(CC)CCCCC3)cc12 (nonaromatic ring conformer: 147.91328506722368 kcal/mol)

>  <smiles>  (29) 
CCN(C)CCOCCOCCNc1c2ccccc2[n+](C)c2cc(OC)c(OCC[N+]3(CC)CCCCC3)cc12

>  <score_type>  (29) 
oracle

>  <origin>  (29) 
adg

>  <m_score__min__energy>  (29) 
-9.6600000000000001

>  <m_primary>  (29) 
energy

$$$$
29:0
     RDKit          3D

 63 65  0  0  0  0  0  0  0  0999 V2000
    0.5020   20.1800  -36.0940 C   0  0  0  0  0  0  0  0  0  0  0  0
    0.6800   21.5810  -35.5160 C   0  0  0  0  0  0  0  0  0  0  0  0
   -0.4080   21.9110  -34.5840 N   0  0  0  0  0  0  0  0  0  0  0  0
   -0.9360   20.7310  -33.8750 C   0  0  0  0  0  0  0  0  0  0  0  0
   -1.8280   21.1680  -32.7110 C   0  0  0  0  0  0  0  0  0  0  0  0
   -3.2520   21.5050  -33.1710 C   0  0  0  0  0  0  0  0  0  0  0  0
   -4.2280   21.2010  -32.1220 N   0  0  0  0  0  0  0  0  0  0  0  0
   -5.4490   20.5350  -32.4760 C   0  0  0  0  0  0  0  0  0  0  0  0
   -5.3770   19.2240  -32.9760 C   0  0  0  0  0  0  0  0  0  0  0  0
   -4.1670   18.7140  -33.4940 C   0  0  0  0  0  0  0  0  0  0  0  0
   -4.1100   17.4320  -34.0350 C   0  0  0  0  0  0  0  0  0  0  0  0
   -5.2560   16.6450  -34.0780 C   0  0  0  0  0  0  0  0  0  0  0  0
   -6.4550   17.1210  -33.5500 C   0  0  0  0  0  0  0  0  0  0  0  0
   -6.5310   18.4060  -32.9530 C   0  0  0  0  0  0  0  0  0  0  0  0
   -7.6800   18.8600  -32.3390 N   0  0  0  0  0  0  0  0  0  0  0  0
   -8.7460   17.9010  -31.9710 C   0  0  0  0  0  0  0  0  0  0  0  0
   -7.8260   20.2070  -32.0590 C   0  0  0  0  0  0  0  0  0  0  0  0
   -9.0800   20.7370  -31.6680 C   0  0  0  0  0  0  0  0  0  0  0  0
   -9.2360   22.0830  -31.3790 C   0  0  0  0  0  0  0  0  0  0  0  0
   -8.1790   22.9600  -31.5480 C   0  0  0  0  0  0  0  0  0  0  0  0
   -6.9270   22.5090  -31.9960 C   0  0  0  0  0  0  0  0  0  0  0  0
   -5.9750   23.5160  -32.4200 N   0  0  0  0  0  0  0  0  0  0  0  0
   -6.0650   24.7210  -31.5780 C   0  0  0  0  0  0  0  0  0  0  0  0
   -4.8810   24.8300  -30.6050 C   0  0  0  0  0  0  0  0  0  0  0  0
   -3.8310   23.8650  -30.9590 N   0  0  0  0  0  0  0  0  0  0  0  0
   -3.1160   23.4080  -29.7630 C   0  0  0  0  0  0  0  0  0  0  0  0
   -4.1110   22.9600  -28.6990 C   0  0  0  0  0  0  0  0  0  0  0  0
   -6.7130   21.0990  -32.1730 C   0  0  0  0  0  0  0  0  0  0  0  0
    0.4097   19.4537  -35.2731 H   0  0  0  0  0  0  0  0  0  0  0  0
   -0.4070   20.1514  -36.7128 H   0  0  0  0  0  0  0  0  0  0  0  0
    1.3750   19.9250  -36.7128 H   0  0  0  0  0  0  0  0  0  0  0  0
    1.6393   21.6293  -34.9799 H   0  0  0  0  0  0  0  0  0  0  0  0
    0.6628   22.3053  -36.3437 H   0  0  0  0  0  0  0  0  0  0  0  0
   -1.1850   22.3330  -35.1440 H   0  0  0  0  0  0  0  0  0  0  0  0
   -1.5254   20.1204  -34.5749 H   0  0  0  0  0  0  0  0  0  0  0  0
   -0.0940   20.1434  -33.4804 H   0  0  0  0  0  0  0  0  0  0  0  0
   -1.8766   20.3516  -31.9754 H   0  0  0  0  0  0  0  0  0  0  0  0
   -1.3902   22.0760  -32.2707 H   0  0  0  0  0  0  0  0  0  0  0  0
   -3.3074   22.5763  -33.4144 H   0  0  0  0  0  0  0  0  0  0  0  0
   -3.4877   20.8961  -34.0563 H   0  0  0  0  0  0  0  0  0  0  0  0
   -4.2040   21.7450  -31.2300 H   0  0  0  0  0  0  0  0  0  0  0  0
   -3.2598   19.3356  -33.4701 H   0  0  0  0  0  0  0  0  0  0  0  0
   -3.1594   17.0421  -34.4280 H   0  0  0  0  0  0  0  0  0  0  0  0
   -5.2160   15.6431  -34.5304 H   0  0  0  0  0  0  0  0  0  0  0  0
   -7.3556   16.4912  -33.5968 H   0  0  0  0  0  0  0  0  0  0  0  0
   -8.8184   17.8359  -30.8753 H   0  0  0  0  0  0  0  0  0  0  0  0
   -9.7066   18.2450  -32.3821 H   0  0  0  0  0  0  0  0  0  0  0  0
   -8.5052   16.9095  -32.3821 H   0  0  0  0  0  0  0  0  0  0  0  0
   -9.9482   20.0659  -31.5922 H   0  0  0  0  0  0  0  0  0  0  0  0
  -10.2042   22.4561  -31.0137 H   0  0  0  0  0  0  0  0  0  0  0  0
   -8.3220   24.0282  -31.3277 H   0  0  0  0  0  0  0  0  0  0  0  0
   -6.1980   23.7890  -33.4070 H   0  0  0  0  0  0  0  0  0  0  0  0
   -5.0110   23.1300  -32.4630 H   0  0  0  0  0  0  0  0  0  0  0  0
   -6.0744   25.6087  -32.2275 H   0  0  0  0  0  0  0  0  0  0  0  0
   -6.9888   24.6539  -30.9846 H   0  0  0  0  0  0  0  0  0  0  0  0
   -4.4671   25.8481  -30.6517 H   0  0  0  0  0  0  0  0  0  0  0  0
   -5.2365   24.6104  -29.5874 H   0  0  0  0  0  0  0  0  0  0  0  0
   -3.1370   24.3530  -31.5710 H   0  0  0  0  0  0  0  0  0  0  0  0
   -2.4631   22.5638  -30.0295 H   0  0  0  0  0  0  0  0  0  0  0  0
   -2.5116   24.2367  -29.3655 H   0  0  0  0  0  0  0  0  0  0  0  0
   -3.6902   23.1495  -27.7005 H   0  0  0  0  0  0  0  0  0  0  0  0
   -5.0492   23.5226  -28.8143 H   0  0  0  0  0  0  0  0  0  0  0  0
   -4.3117   21.8846  -28.8143 H   0  0  0  0  0  0  0  0  0  0  0  0
  1  2  1  0
  2  3  1  0
  3  4  1  0
  4  5  1  0
  5  6  1  0
  6  7  1  0
  7  8  1  0
  8  9  2  0
  9 10  1  0
 10 11  2  0
 11 12  1  0
 12 13  2  0
 13 14  1  0
 14 15  2  0
 15 16  1  0
 15 17  1  0
 17 18  2  0
 18 19  1  0
 19 20  2  0
 20 21  1  0
 21 22  1  0
 22 23  1  0
 23 24  1  0
 24 25  1  0
 25 26  1  0
 26 27  1  0
 21 28  2  0
 28  8  1  0
 14  9  1  0
 28 17  1  0
  1 29  1  0
  1 30  1  0
  1 31  1  0
  2 32  1  0
  2 33  1  0
  3 34  1  0
  4 35  1  0
  4 36  1  0
  5 37  1  0
  5 38  1  0
  6 39  1  0
  6 40  1  0
  7 41  1  0
 10 42  1  0
 11 43  1  0
 12 44  1  0
 13 45  1  0
 16 46  1  0
 16 47  1  0
 16 48  1  0
 18 49  1  0
 19 50  1  0
 20 51  1  0
 22 52  1  0
 22 53  1  0
 23 54  1  0
 23 55  1  0
 24 56  1  0
 24 57  1  0
 25 58  1  0
 26 59  1  0
 26 60  1  0
 27 61  1  0
 27 62  1  0
 27 63  1  0
M  CHG  2  15   1  22   1
M  END
>  <UniqueID>  (30) 
29

>  <SMILES>  (30) 
CCNCCCNc1c2ccccc2[n+](C)c2cccc([NH2+]CCNCC)c12

>  <Energy>  (30) 
90.82423598710734

>  <Genealogy>  (30) 
CCNCCCNc1c2ccccc2[n+](C)c2cccc([NH2+]CCNCC)c12 (protonated)
CCNCCCNc1c2ccccc2[n+](C)c2cccc([NH2+]CCNCC)c12 (3D coordinates assigned)
CCNCCCNc1c2ccccc2[n+](C)c2cccc([NH2+]CCNCC)c12 (optimized conformer: 90.82423598710734 kcal/mol)

>  <smiles>  (30) 
CCNCCCNc1c2ccccc2[n+](C)c2cccc(NCCNCC)c12

>  <score_type>  (30) 
oracle

>  <origin>  (30) 
adg

>  <m_score__min__energy>  (30) 
-7.7699999999999996

>  <m_primary>  (30) 
energy

$$$$
30:0
     RDKit          3D

 54 55  0  0  0  0  0  0  0  0999 V2000
   -6.0710   26.0720  -29.6980 C   0  0  0  0  0  0  0  0  0  0  0  0
   -6.9910   24.9000  -30.0670 C   0  0  0  0  0  0  0  0  0  0  0  0
   -6.3350   23.5680  -29.9910 N   0  0  0  0  0  0  0  0  0  0  0  0
   -5.1960   23.5770  -29.0390 C   0  0  0  0  0  0  0  0  0  0  0  0
   -3.8930   23.9730  -29.7370 C   0  0  0  0  0  0  0  0  0  0  0  0
   -4.1100   24.1640  -31.1070 O   0  0  0  0  0  0  0  0  0  0  0  0
   -7.2690   22.4490  -29.7040 C   0  0  0  0  0  0  0  0  0  0  0  0
   -8.1890   22.0840  -30.8810 C   0  0  0  0  0  0  0  0  0  0  0  0
   -7.3200   21.9300  -32.4360 S   0  0  0  0  0  0  0  0  0  0  0  0
   -6.1690   23.1220  -32.7220 O   0  0  0  0  0  0  0  0  0  0  0  0
   -6.7470   20.3060  -32.8050 C   0  0  0  0  0  0  0  0  0  0  0  0
   -7.6260   19.2280  -32.6600 C   0  0  0  0  0  0  0  0  0  0  0  0
   -7.2240   17.9340  -32.9930 C   0  0  0  0  0  0  0  0  0  0  0  0
   -5.9240   17.6990  -33.4590 C   0  0  0  0  0  0  0  0  0  0  0  0
   -5.5010   16.3150  -33.8530 C   0  0  0  0  0  0  0  0  0  0  0  0
   -5.0410   18.7760  -33.6130 C   0  0  0  0  0  0  0  0  0  0  0  0
   -5.4400   20.0850  -33.2870 C   0  0  0  0  0  0  0  0  0  0  0  0
   -4.5270   21.1870  -33.4570 N   0  0  0  0  0  0  0  0  0  0  0  0
   -3.0740   21.0340  -33.3800 C   0  0  0  0  0  0  0  0  0  0  0  0
   -2.6130   21.1990  -31.9580 C   0  0  0  0  0  0  0  0  0  0  0  0
   -3.4400   20.8150  -30.8900 C   0  0  0  0  0  0  0  0  0  0  0  0
   -2.9800   20.9140  -29.5730 C   0  0  0  0  0  0  0  0  0  0  0  0
   -1.6920   21.3910  -29.3150 C   0  0  0  0  0  0  0  0  0  0  0  0
   -0.8610   21.7680  -30.3730 C   0  0  0  0  0  0  0  0  0  0  0  0
   -1.3170   21.6700  -31.6910 C   0  0  0  0  0  0  0  0  0  0  0  0
   -6.0052   26.1559  -28.6032 H   0  0  0  0  0  0  0  0  0  0  0  0
   -5.0678   25.8954  -30.1132 H   0  0  0  0  0  0  0  0  0  0  0  0
   -6.4807   27.0046  -30.1132 H   0  0  0  0  0  0  0  0  0  0  0  0
   -7.8482   24.9030  -29.3776 H   0  0  0  0  0  0  0  0  0  0  0  0
   -7.2894   25.0480  -31.1154 H   0  0  0  0  0  0  0  0  0  0  0  0
   -5.4059   24.2983  -28.2355 H   0  0  0  0  0  0  0  0  0  0  0  0
   -5.0770   22.5631  -28.6294 H   0  0  0  0  0  0  0  0  0  0  0  0
   -3.5156   24.9076  -29.2963 H   0  0  0  0  0  0  0  0  0  0  0  0
   -3.1573   23.1665  -29.6020 H   0  0  0  0  0  0  0  0  0  0  0  0
   -4.6870   23.4130  -31.4020 H   0  0  0  0  0  0  0  0  0  0  0  0
   -6.6748   21.5613  -29.4414 H   0  0  0  0  0  0  0  0  0  0  0  0
   -7.9205   22.7813  -28.8823 H   0  0  0  0  0  0  0  0  0  0  0  0
   -8.6778   21.1242  -30.6576 H   0  0  0  0  0  0  0  0  0  0  0  0
   -8.9152   22.9026  -30.9931 H   0  0  0  0  0  0  0  0  0  0  0  0
   -6.0730   23.6020  -31.8620 H   0  0  0  0  0  0  0  0  0  0  0  0
   -8.6435   19.4018  -32.2800 H   0  0  0  0  0  0  0  0  0  0  0  0
   -7.9295   17.0965  -32.8894 H   0  0  0  0  0  0  0  0  0  0  0  0
   -5.3180   15.7161  -32.9486 H   0  0  0  0  0  0  0  0  0  0  0  0
   -6.2963   15.8444  -34.4497 H   0  0  0  0  0  0  0  0  0  0  0  0
   -4.5785   16.3694  -34.4497 H   0  0  0  0  0  0  0  0  0  0  0  0
   -4.0246   18.5959  -33.9930 H   0  0  0  0  0  0  0  0  0  0  0  0
   -4.8950   22.1060  -33.7910 H   0  0  0  0  0  0  0  0  0  0  0  0
   -2.7937   20.0330  -33.7398 H   0  0  0  0  0  0  0  0  0  0  0  0
   -2.5968   21.8029  -34.0053 H   0  0  0  0  0  0  0  0  0  0  0  0
   -4.4528   20.4351  -31.0899 H   0  0  0  0  0  0  0  0  0  0  0  0
   -3.6327   20.6161  -28.7392 H   0  0  0  0  0  0  0  0  0  0  0  0
   -1.3323   21.4697  -28.2785 H   0  0  0  0  0  0  0  0  0  0  0  0
    0.1530   22.1423  -30.1688 H   0  0  0  0  0  0  0  0  0  0  0  0
   -0.6584   21.9628  -32.5219 H   0  0  0  0  0  0  0  0  0  0  0  0
  1  2  1  0
  2  3  1  0
  3  4  1  0
  4  5  1  0
  5  6  1  0
  3  7  1  0
  7  8  1  0
  8  9  1  0
  9 10  1  1
  9 11  1  0
 11 12  2  0
 12 13  1  0
 13 14  2  0
 14 15  1  0
 14 16  1  0
 16 17  2  0
 17 18  1  0
 18 19  1  0
 19 20  1  0
 20 21  2  0
 21 22  1  0
 22 23  2  0
 23 24  1  0
 24 25  2  0
 17 11  1  0
 25 20  1  0
  1 26  1  0
  1 27  1  0
  1 28  1  0
  2 29  1  0
  2 30  1  0
  4 31  1  0
  4 32  1  0
  5 33  1  0
  5 34  1  0
  6 35  1  0
  7 36  1  0
  7 37  1  0
  8 38  1  0
  8 39  1  0
 10 40  1  0
 12 41  1  0
 13 42  1  0
 15 43  1  0
 15 44  1  0
 15 45  1  0
 16 46  1  0
 18 47  1  0
 19 48  1  0
 19 49  1  0
 21 50  1  0
 22 51  1  0
 23 52  1  0
 24 53  1  0
 25 54  1  0
M  CHG  1   9   1
M  END
>  <UniqueID>  (31) 
30

>  <SMILES>  (31) 
CCN(CCO)CC[S@@+](O)c1ccc(C)cc1NCc1ccccc1

>  <Energy>  (31) 
49.09188962149397

>  <Genealogy>  (31) 
CCN(CCO)CC[S+](O)c1ccc(C)cc1NCc1ccccc1 (protonated)
CCN(CCO)CC[S@@+](O)c1ccc(C)cc1NCc1ccccc1 (chirality)
CCN(CCO)CC[S@@+](O)c1ccc(C)cc1NCc1ccccc1 (3D coordinates assigned)
CCN(CCO)CC[S@@+](O)c1ccc(C)cc1NCc1ccccc1 (optimized conformer: 49.09188962149397 kcal/mol)

>  <smiles>  (31) 
CCN(CCO)CC[S+]([O-])c1ccc(C)cc1NCc1ccccc1

>  <score_type>  (31) 
oracle

>  <origin>  (31) 
adg

>  <m_score__min__energy>  (31) 
-7.8099999999999996

>  <m_primary>  (31) 
energy

$$$$
31:0
     RDKit          3D

 47 49  0  0  0  0  0  0  0  0999 V2000
    1.6030   28.2920  -23.1480 C   0  0  0  0  0  0  0  0  0  0  0  0
    0.2780   27.5310  -23.0310 C   0  0  0  0  0  0  0  0  0  0  0  0
   -0.1290   26.9040  -24.3110 N   0  0  0  0  0  0  0  0  0  0  0  0
    0.7020   25.7070  -24.6210 C   0  0  0  0  0  0  0  0  0  0  0  0
    0.7770   25.3760  -26.1270 C   0  0  0  0  0  0  0  0  0  0  0  0
   -0.3840   25.9190  -26.8410 N   0  0  0  0  0  0  0  0  0  0  0  0
   -1.0820   25.1430  -27.8350 C   0  0  0  0  0  0  0  0  0  0  0  0
   -1.5820   25.7220  -28.8370 O   0  0  0  0  0  0  0  0  0  0  0  0
   -1.2910   23.6860  -27.6640 C   0  0  0  0  0  0  0  0  0  0  0  0
   -0.9950   23.1100  -26.4160 C   0  0  0  0  0  0  0  0  0  0  0  0
   -1.2350   21.7560  -26.1840 C   0  0  0  0  0  0  0  0  0  0  0  0
   -1.7790   20.9610  -27.1910 C   0  0  0  0  0  0  0  0  0  0  0  0
   -2.1090   19.1070  -26.8670 Br  0  0  0  0  0  0  0  0  0  0  0  0
   -2.0760   21.5160  -28.4380 C   0  0  0  0  0  0  0  0  0  0  0  0
   -1.8320   22.8800  -28.6960 C   0  0  0  0  0  0  0  0  0  0  0  0
   -2.0760   23.4280  -30.0080 N   0  0  0  0  0  0  0  0  0  0  0  0
   -3.1540   22.9570  -30.8780 C   0  0  0  0  0  0  0  0  0  0  0  0
   -4.4380   23.6520  -30.5480 C   0  0  0  0  0  0  0  0  0  0  0  0
   -5.6760   23.0420  -30.3910 C   0  0  0  0  0  0  0  0  0  0  0  0
   -6.7140   23.9550  -30.1730 C   0  0  0  0  0  0  0  0  0  0  0  0
   -6.3000   25.2820  -30.1760 C   0  0  0  0  0  0  0  0  0  0  0  0
   -4.6410   25.3180  -30.4530 S   0  0  0  0  0  0  0  0  0  0  0  0
   -0.7120   27.3390  -26.6750 C   0  0  0  0  0  0  0  0  0  0  0  0
   -0.0660   27.9020  -25.4000 C   0  0  0  0  0  0  0  0  0  0  0  0
    1.9887   28.5135  -22.1419 H   0  0  0  0  0  0  0  0  0  0  0  0
    2.3330   27.6755  -23.6930 H   0  0  0  0  0  0  0  0  0  0  0  0
    1.4384   29.2332  -23.6930 H   0  0  0  0  0  0  0  0  0  0  0  0
    0.3891   26.7432  -22.2714 H   0  0  0  0  0  0  0  0  0  0  0  0
   -0.5008   28.2552  -22.7500 H   0  0  0  0  0  0  0  0  0  0  0  0
   -1.1290   26.6000  -24.2140 H   0  0  0  0  0  0  0  0  0  0  0  0
    1.7230   25.8887  -24.2542 H   0  0  0  0  0  0  0  0  0  0  0  0
    0.2248   24.8479  -24.1267 H   0  0  0  0  0  0  0  0  0  0  0  0
    1.6948   25.8136  -26.5466 H   0  0  0  0  0  0  0  0  0  0  0  0
    0.7831   24.2825  -26.2466 H   0  0  0  0  0  0  0  0  0  0  0  0
   -0.5702   23.7331  -25.6152 H   0  0  0  0  0  0  0  0  0  0  0  0
   -0.9947   21.3151  -25.2053 H   0  0  0  0  0  0  0  0  0  0  0  0
   -2.5051   20.8814  -29.2274 H   0  0  0  0  0  0  0  0  0  0  0  0
   -1.4440   24.1800  -30.3650 H   0  0  0  0  0  0  0  0  0  0  0  0
   -2.8897   23.1637  -31.9256 H   0  0  0  0  0  0  0  0  0  0  0  0
   -3.2863   21.8757  -30.7256 H   0  0  0  0  0  0  0  0  0  0  0  0
   -5.8252   21.9530  -30.4336 H   0  0  0  0  0  0  0  0  0  0  0  0
   -7.7592   23.6511  -30.0142 H   0  0  0  0  0  0  0  0  0  0  0  0
   -6.9466   26.1587  -30.0234 H   0  0  0  0  0  0  0  0  0  0  0  0
   -0.3401   27.8993  -27.5455 H   0  0  0  0  0  0  0  0  0  0  0  0
   -1.8041   27.4415  -26.5921 H   0  0  0  0  0  0  0  0  0  0  0  0
    0.9859   28.1500  -25.6049 H   0  0  0  0  0  0  0  0  0  0  0  0
   -0.6119   28.8054  -25.0904 H   0  0  0  0  0  0  0  0  0  0  0  0
  1  2  1  0
  2  3  1  0
  3  4  1  0
  4  5  1  0
  5  6  1  0
  6  7  1  0
  7  8  2  0
  7  9  1  0
  9 10  2  0
 10 11  1  0
 11 12  2  0
 12 13  1  0
 12 14  1  0
 14 15  2  0
 15 16  1  0
 16 17  1  0
 17 18  1  0
 18 19  2  0
 19 20  1  0
 20 21  2  0
 21 22  1  0
  6 23  1  0
 23 24  1  0
 24  3  1  0
 15  9  1  0
 22 18  1  0
  1 25  1  0
  1 26  1  0
  1 27  1  0
  2 28  1  0
  2 29  1  0
  3 30  1  0
  4 31  1  0
  4 32  1  0
  5 33  1  0
  5 34  1  0
 10 35  1  0
 11 36  1  0
 14 37  1  0
 16 38  1  0
 17 39  1  0
 17 40  1  0
 19 41  1  0
 20 42  1  0
 21 43  1  0
 23 44  1  0
 23 45  1  0
 24 46  1  0
 24 47  1  0
M  CHG  1   3   1
M  END
>  <UniqueID>  (32) 
31

>  <SMILES>  (32) 
CC[NH+]1CCN(C(=O)c2ccc(Br)cc2NCc2cccs2)CC1

>  <Energy>  (32) 
84.95923650404326

>  <Genealogy>  (32) 
CC[NH+]1CCN(C(=O)c2ccc(Br)cc2NCc2cccs2)CC1 (protonated)
CC[NH+]1CCN(C(=O)c2ccc(Br)cc2NCc2cccs2)CC1 (3D coordinates assigned)
CC[NH+]1CCN(C(=O)c2ccc(Br)cc2NCc2cccs2)CC1 (nonaromatic ring conformer: 84.95923650404326 kcal/mol)

>  <smiles>  (32) 
CCN1CCN(C(=O)c2ccc(Br)cc2NCc2cccs2)CC1

>  <score_type>  (32) 
oracle

>  <origin>  (32) 
adg

>  <m_score__min__energy>  (32) 
-8.0299999999999994

>  <m_primary>  (32) 
energy

$$$$
