0:0
     RDKit          3D

 64 66  0  0  0  0  0  0  0  0999 V2000
   -2.8200   19.7920  -33.8000 C   0  0  0  0  0  0  0  0  0  0  0  0
   -1.5460   18.9560  -33.9950 C   0  0  0  0  0  0  0  0  0  0  0  0
   -1.7610   17.4880  -33.9970 N   0  0  0  0  0  0  0  0  0  0  0  0
   -1.3330   16.7400  -32.7960 C   0  0  0  0  0  0  0  0  0  0  0  0
   -0.4180   17.5910  -31.9200 C   0  0  0  0  0  0  0  0  0  0  0  0
   -1.5240   16.8040  -35.2900 C   0  0  0  0  0  0  0  0  0  0  0  0
   -1.9920   15.3370  -35.3390 C   0  0  0  0  0  0  0  0  0  0  0  0
   -3.4480   15.2270  -35.4460 N   0  0  0  0  0  0  0  0  0  0  0  0
   -4.3610   16.0340  -34.6800 C   0  0  0  0  0  0  0  0  0  0  0  0
   -4.8510   15.6170  -33.4300 C   0  0  0  0  0  0  0  0  0  0  0  0
   -5.7340   16.4250  -32.7090 C   0  0  0  0  0  0  0  0  0  0  0  0
   -6.1520   17.6680  -33.2220 C   0  0  0  0  0  0  0  0  0  0  0  0
   -7.0630   18.5150  -32.4910 N   0  0  0  0  0  0  0  0  0  0  0  0
   -6.8970   19.8130  -32.1490 C   0  0  0  0  0  0  0  0  0  0  0  0
   -8.0260   20.1810  -31.4490 C   0  0  0  0  0  0  0  0  0  0  0  0
   -8.3190   21.5250  -30.8340 C   0  0  0  0  0  0  0  0  0  0  0  0
   -7.2040   22.4890  -30.9590 N   0  0  0  0  0  0  0  0  0  0  0  0
   -7.1040   23.0980  -32.2940 C   0  0  0  0  0  0  0  0  0  0  0  0
   -5.7400   23.8050  -32.4470 C   0  0  0  0  0  0  0  0  0  0  0  0
   -5.1560   24.2370  -31.1520 N   0  0  0  0  0  0  0  0  0  0  0  0
   -4.2300   23.2330  -30.5800 C   0  0  0  0  0  0  0  0  0  0  0  0
   -3.8040   22.2390  -31.6550 C   0  0  0  0  0  0  0  0  0  0  0  0
   -6.2010   24.6480  -30.1920 C   0  0  0  0  0  0  0  0  0  0  0  0
   -7.2000   23.5090  -29.8900 C   0  0  0  0  0  0  0  0  0  0  0  0
   -8.8360   19.1090  -31.3910 N   0  0  0  0  0  0  0  0  0  0  0  0
   -8.2360   18.1140  -32.0230 N   0  0  0  0  0  0  0  0  0  0  0  0
   -5.6610   18.0790  -34.4740 C   0  0  0  0  0  0  0  0  0  0  0  0
   -4.7800   17.2700  -35.1950 C   0  0  0  0  0  0  0  0  0  0  0  0
   -3.0140   19.9193  -32.7248 H   0  0  0  0  0  0  0  0  0  0  0  0
   -2.6864   20.7786  -34.2678 H   0  0  0  0  0  0  0  0  0  0  0  0
   -3.6719   19.2767  -34.2678 H   0  0  0  0  0  0  0  0  0  0  0  0
   -1.0958   19.2375  -34.9584 H   0  0  0  0  0  0  0  0  0  0  0  0
   -0.8973   19.1734  -33.1336 H   0  0  0  0  0  0  0  0  0  0  0  0
   -2.2219   16.4526  -32.2153 H   0  0  0  0  0  0  0  0  0  0  0  0
   -0.7784   15.8464  -33.1184 H   0  0  0  0  0  0  0  0  0  0  0  0
   -0.6341   17.3900  -30.8603 H   0  0  0  0  0  0  0  0  0  0  0  0
    0.6315   17.3405  -32.1341 H   0  0  0  0  0  0  0  0  0  0  0  0
   -0.5919   18.6559  -32.1341 H   0  0  0  0  0  0  0  0  0  0  0  0
   -2.0581   17.3602  -36.0745 H   0  0  0  0  0  0  0  0  0  0  0  0
   -0.4339   16.7868  -35.4365 H   0  0  0  0  0  0  0  0  0  0  0  0
   -1.5342   14.8475  -36.2113 H   0  0  0  0  0  0  0  0  0  0  0  0
   -1.6835   14.8514  -34.4015 H   0  0  0  0  0  0  0  0  0  0  0  0
   -3.8540   14.5050  -36.0840 H   0  0  0  0  0  0  0  0  0  0  0  0
   -4.5369   14.6473  -33.0164 H   0  0  0  0  0  0  0  0  0  0  0  0
   -6.1064   16.0867  -31.7308 H   0  0  0  0  0  0  0  0  0  0  0  0
   -6.0312   20.4498  -32.3834 H   0  0  0  0  0  0  0  0  0  0  0  0
   -9.2034   21.9497  -31.3314 H   0  0  0  0  0  0  0  0  0  0  0  0
   -8.4831   21.3591  -29.7590 H   0  0  0  0  0  0  0  0  0  0  0  0
   -7.1969   22.3145  -33.0604 H   0  0  0  0  0  0  0  0  0  0  0  0
   -7.9106   23.8356  -32.4174 H   0  0  0  0  0  0  0  0  0  0  0  0
   -5.0387   23.1102  -32.9322 H   0  0  0  0  0  0  0  0  0  0  0  0
   -5.9072   24.7108  -33.0483 H   0  0  0  0  0  0  0  0  0  0  0  0
   -3.3399   23.7435  -30.1835 H   0  0  0  0  0  0  0  0  0  0  0  0
   -4.7423   22.6907  -29.7716 H   0  0  0  0  0  0  0  0  0  0  0  0
   -3.4136   21.3280  -31.1780 H   0  0  0  0  0  0  0  0  0  0  0  0
   -4.6711   21.9822  -32.2813 H   0  0  0  0  0  0  0  0  0  0  0  0
   -3.0200   22.6898  -32.2813 H   0  0  0  0  0  0  0  0  0  0  0  0
   -5.7177   24.9532  -29.2521 H   0  0  0  0  0  0  0  0  0  0  0  0
   -6.7639   25.4789  -30.6424 H   0  0  0  0  0  0  0  0  0  0  0  0
   -6.9182   23.0298  -28.9408 H   0  0  0  0  0  0  0  0  0  0  0  0
   -8.2082   23.9444  -29.8272 H   0  0  0  0  0  0  0  0  0  0  0  0
   -9.7720   19.0470  -30.9330 H   0  0  0  0  0  0  0  0  0  0  0  0
   -5.9742   19.0480  -34.8899 H   0  0  0  0  0  0  0  0  0  0  0  0
   -4.4112   17.6050  -36.1757 H   0  0  0  0  0  0  0  0  0  0  0  0
  1  2  1  0
  2  3  1  0
  3  4  1  0
  4  5  1  0
  3  6  1  0
  6  7  1  0
  7  8  1  0
  8  9  1  0
  9 10  2  0
 10 11  1  0
 11 12  2  0
 12 13  1  0
 13 14  1  0
 14 15  2  0
 15 16  1  0
 16 17  1  0
 17 18  1  0
 18 19  1  0
 19 20  1  0
 20 21  1  0
 21 22  1  0
 20 23  1  0
 23 24  1  0
 15 25  1  0
 25 26  2  0
 12 27  1  0
 27 28  2  0
 28  9  1  0
 26 13  1  0
 24 17  1  0
  1 29  1  0
  1 30  1  0
  1 31  1  0
  2 32  1  0
  2 33  1  0
  4 34  1  0
  4 35  1  0
  5 36  1  0
  5 37  1  0
  5 38  1  0
  6 39  1  0
  6 40  1  0
  7 41  1  0
  7 42  1  0
  8 43  1  0
 10 44  1  0
 11 45  1  0
 14 46  1  0
 16 47  1  0
 16 48  1  0
 18 49  1  0
 18 50  1  0
 19 51  1  0
 19 52  1  0
 21 53  1  0
 21 54  1  0
 22 55  1  0
 22 56  1  0
 22 57  1  0
 23 58  1  0
 23 59  1  0
 24 60  1  0
 24 61  1  0
 25 62  1  0
 27 63  1  0
 28 64  1  0
M  CHG  1  25   1
M  END
>  <UniqueID>  (1) 
1

>  <SMILES>  (1) 
CCN(CC)CCNc1ccc(-n2cc(CN3CCN(CC)CC3)[nH+]n2)cc1

>  <Energy>  (1) 
118.50699594096338

>  <Genealogy>  (1) 
CCN(CC)CCNc1ccc(-n2cc(CN3CCN(CC)CC3)[nH+]n2)cc1 (protonated)
CCN(CC)CCNc1ccc(-n2cc(CN3CCN(CC)CC3)[nH+]n2)cc1 (3D coordinates assigned)
CCN(CC)CCNc1ccc(-n2cc(CN3CCN(CC)CC3)[nH+]n2)cc1 (nonaromatic ring conformer: 118.50699594096338 kcal/mol)

>  <smiles>  (1) 
CCN(CC)CCNc1ccc(-n2cc(CN3CCN(CC)CC3)nn2)cc1

>  <score_type>  (1) 
oracle

>  <origin>  (1) 
adg

>  <m_score__min__energy>  (1) 
-7.5599999999999996

>  <m_primary>  (1) 
energy

$$$$
1:0
     RDKit          3D

 42 43  0  0  0  0  0  0  0  0999 V2000
   -6.6890   16.0070  -34.2160 C   0  0  0  0  0  0  0  0  0  0  0  0
   -6.5420   17.1760  -33.2980 C   0  0  0  0  0  0  0  0  0  0  0  0
   -6.1130   16.9900  -32.1280 O   0  0  0  0  0  0  0  0  0  0  0  0
   -6.8000   18.5020  -33.7860 N   0  0  0  0  0  0  0  0  0  0  0  0
   -6.8550   19.6790  -32.9610 C   0  0  0  0  0  0  0  0  0  0  0  0
   -8.0620   20.1250  -32.3880 C   0  0  0  0  0  0  0  0  0  0  0  0
   -8.0850   21.2790  -31.5990 C   0  0  0  0  0  0  0  0  0  0  0  0
   -6.9140   22.0180  -31.3980 C   0  0  0  0  0  0  0  0  0  0  0  0
   -6.9570   23.5130  -30.4030 S   0  0  0  0  0  0  0  0  0  0  0  0
   -5.9580   24.5050  -31.5650 C   0  0  0  0  0  0  0  0  0  0  0  0
   -4.9950   25.3940  -30.8280 C   0  0  0  0  0  0  0  0  0  0  0  0
   -5.3850   26.5290  -30.4440 O   0  0  0  0  0  0  0  0  0  0  0  0
   -3.6790   24.9560  -30.4660 N   0  0  0  0  0  0  0  0  0  0  0  0
   -3.3060   23.6280  -30.0680 C   0  0  0  0  0  0  0  0  0  0  0  0
   -2.7380   22.7370  -30.9950 C   0  0  0  0  0  0  0  0  0  0  0  0
   -2.3550   21.4450  -30.6050 C   0  0  0  0  0  0  0  0  0  0  0  0
   -1.7290   20.5110  -31.5980 C   0  0  0  0  0  0  0  0  0  0  0  0
   -2.4870   21.0640  -29.2640 C   0  0  0  0  0  0  0  0  0  0  0  0
   -3.0170   21.9550  -28.3280 C   0  0  0  0  0  0  0  0  0  0  0  0
   -3.4350   23.2360  -28.7190 C   0  0  0  0  0  0  0  0  0  0  0  0
   -3.9480   24.1890  -27.6770 C   0  0  0  0  0  0  0  0  0  0  0  0
   -5.7190   21.6020  -31.9960 C   0  0  0  0  0  0  0  0  0  0  0  0
   -5.6900   20.4390  -32.7690 C   0  0  0  0  0  0  0  0  0  0  0  0
   -6.8046   15.0876  -33.6233 H   0  0  0  0  0  0  0  0  0  0  0  0
   -7.5765   16.1483  -34.8504 H   0  0  0  0  0  0  0  0  0  0  0  0
   -5.7942   15.9242  -34.8504 H   0  0  0  0  0  0  0  0  0  0  0  0
   -6.8770   18.6280  -34.8220 H   0  0  0  0  0  0  0  0  0  0  0  0
   -8.9911   19.5625  -32.5622 H   0  0  0  0  0  0  0  0  0  0  0  0
   -9.0267   21.6070  -31.1348 H   0  0  0  0  0  0  0  0  0  0  0  0
   -5.3916   23.8275  -32.2209 H   0  0  0  0  0  0  0  0  0  0  0  0
   -6.6358   25.1382  -32.1562 H   0  0  0  0  0  0  0  0  0  0  0  0
   -2.5922   23.0563  -32.0375 H   0  0  0  0  0  0  0  0  0  0  0  0
   -1.1938   19.7124  -31.0634 H   0  0  0  0  0  0  0  0  0  0  0  0
   -2.5132   20.0678  -32.2294 H   0  0  0  0  0  0  0  0  0  0  0  0
   -1.0210   21.0679  -32.2294 H   0  0  0  0  0  0  0  0  0  0  0  0
   -2.1720   20.0590  -28.9465 H   0  0  0  0  0  0  0  0  0  0  0  0
   -3.1075   21.6497  -27.2751 H   0  0  0  0  0  0  0  0  0  0  0  0
   -3.7323   23.7882  -26.6756 H   0  0  0  0  0  0  0  0  0  0  0  0
   -3.4528   25.1640  -27.7962 H   0  0  0  0  0  0  0  0  0  0  0  0
   -5.0345   24.3126  -27.7962 H   0  0  0  0  0  0  0  0  0  0  0  0
   -4.8010   22.1919  -31.8570 H   0  0  0  0  0  0  0  0  0  0  0  0
   -4.7459   20.1155  -33.2316 H   0  0  0  0  0  0  0  0  0  0  0  0
  1  2  1  0
  2  3  2  0
  2  4  1  0
  4  5  1  0
  5  6  2  0
  6  7  1  0
  7  8  2  0
  8  9  1  0
  9 10  1  0
 10 11  1  0
 11 12  2  0
 11 13  1  0
 13 14  1  0
 14 15  2  0
 15 16  1  0
 16 17  1  0
 16 18  2  0
 18 19  1  0
 19 20  2  0
 20 21  1  0
  8 22  1  0
 22 23  2  0
 23  5  1  0
 20 14  1  0
  1 24  1  0
  1 25  1  0
  1 26  1  0
  4 27  1  0
  6 28  1  0
  7 29  1  0
 10 30  1  0
 10 31  1  0
 15 32  1  0
 17 33  1  0
 17 34  1  0
 17 35  1  0
 18 36  1  0
 19 37  1  0
 21 38  1  0
 21 39  1  0
 21 40  1  0
 22 41  1  0
 23 42  1  0
M  CHG  1  13  -1
M  END
>  <UniqueID>  (2) 
2

>  <SMILES>  (2) 
CC(=O)Nc1ccc(SCC(=O)[N-]c2cc(C)ccc2C)cc1

>  <Energy>  (2) 
40.313049629708686

>  <Genealogy>  (2) 
CC(=O)Nc1ccc(SCC(=O)[N-]c2cc(C)ccc2C)cc1 (protonated)
CC(=O)Nc1ccc(SCC(=O)[N-]c2cc(C)ccc2C)cc1 (3D coordinates assigned)
CC(=O)Nc1ccc(SCC(=O)[N-]c2cc(C)ccc2C)cc1 (optimized conformer: 40.313049629708686 kcal/mol)

>  <smiles>  (2) 
CC(=O)Nc1ccc(SCC(=O)Nc2cc(C)ccc2C)cc1

>  <score_type>  (2) 
oracle

>  <origin>  (2) 
adg

>  <m_score__min__energy>  (2) 
-10.32

>  <m_primary>  (2) 
energy

$$$$
2:0
     RDKit          3D

 54 57  0  0  0  0  0  0  0  0999 V2000
   -6.0980   18.9110  -35.3600 O   0  0  0  0  0  0  0  0  0  0  0  0
   -5.9150   18.5860  -34.1550 C   0  0  0  0  0  0  0  0  0  0  0  0
   -6.9150   19.0040  -33.1530 C   0  0  0  0  0  0  0  0  0  0  0  0
   -7.4590   20.2730  -32.9740 C   0  0  0  0  0  0  0  0  0  0  0  0
   -8.4320   20.3250  -31.9700 C   0  0  0  0  0  0  0  0  0  0  0  0
   -8.6630   19.1060  -31.3510 C   0  0  0  0  0  0  0  0  0  0  0  0
   -7.6560   17.9620  -32.0570 S   0  0  0  0  0  0  0  0  0  0  0  0
   -4.7430   17.8250  -33.7930 N   0  0  0  0  0  0  0  0  0  0  0  0
   -3.4160   18.3260  -34.1970 C   0  0  0  0  0  0  0  0  0  0  0  0
   -2.4560   18.6080  -33.0120 C   0  0  0  0  0  0  0  0  0  0  0  0
   -2.2650   20.0370  -32.6350 N   0  0  0  0  0  0  0  0  0  0  0  0
   -2.8650   21.0040  -33.5980 C   0  0  0  0  0  0  0  0  0  0  0  0
   -4.1610   21.6600  -33.0900 C   0  0  0  0  0  0  0  0  0  0  0  0
   -3.9930   22.2060  -31.7360 N   0  0  0  0  0  0  0  0  0  0  0  0
   -4.9590   23.1370  -31.1970 C   0  0  0  0  0  0  0  0  0  0  0  0
   -6.3380   22.9450  -31.4080 C   0  0  0  0  0  0  0  0  0  0  0  0
   -7.2690   23.8340  -30.8650 C   0  0  0  0  0  0  0  0  0  0  0  0
   -6.8370   24.9280  -30.1130 C   0  0  0  0  0  0  0  0  0  0  0  0
   -5.4730   25.1360  -29.9040 C   0  0  0  0  0  0  0  0  0  0  0  0
   -4.5360   24.2480  -30.4420 C   0  0  0  0  0  0  0  0  0  0  0  0
   -2.8460   21.7730  -30.9320 C   0  0  0  0  0  0  0  0  0  0  0  0
   -2.5750   20.2950  -31.2070 C   0  0  0  0  0  0  0  0  0  0  0  0
   -4.9050   16.4120  -33.5650 C   0  0  0  0  0  0  0  0  0  0  0  0
   -5.9430   15.7140  -34.2060 C   0  0  0  0  0  0  0  0  0  0  0  0
   -6.1090   14.3420  -33.9920 C   0  0  0  0  0  0  0  0  0  0  0  0
   -5.2440   13.6580  -33.1350 C   0  0  0  0  0  0  0  0  0  0  0  0
   -4.2120   14.3440  -32.4900 C   0  0  0  0  0  0  0  0  0  0  0  0
   -4.0400   15.7150  -32.7030 C   0  0  0  0  0  0  0  0  0  0  0  0
   -7.1536   21.1494  -33.5644 H   0  0  0  0  0  0  0  0  0  0  0  0
   -8.9646   21.2479  -31.6969 H   0  0  0  0  0  0  0  0  0  0  0  0
   -9.3811   18.9204  -30.5386 H   0  0  0  0  0  0  0  0  0  0  0  0
   -2.9474   17.5746  -34.8495 H   0  0  0  0  0  0  0  0  0  0  0  0
   -3.5820   19.2872  -34.7054 H   0  0  0  0  0  0  0  0  0  0  0  0
   -2.8491   18.0798  -32.1308 H   0  0  0  0  0  0  0  0  0  0  0  0
   -1.4680   18.2621  -33.3499 H   0  0  0  0  0  0  0  0  0  0  0  0
   -1.2290   20.1850  -32.7120 H   0  0  0  0  0  0  0  0  0  0  0  0
   -2.1294   21.7972  -33.7973 H   0  0  0  0  0  0  0  0  0  0  0  0
   -3.1258   20.4360  -34.5032 H   0  0  0  0  0  0  0  0  0  0  0  0
   -4.4399   22.4763  -33.7726 H   0  0  0  0  0  0  0  0  0  0  0  0
   -4.9472   20.8914  -33.0572 H   0  0  0  0  0  0  0  0  0  0  0  0
   -6.6848   22.0886  -32.0049 H   0  0  0  0  0  0  0  0  0  0  0  0
   -8.3443   23.6716  -31.0303 H   0  0  0  0  0  0  0  0  0  0  0  0
   -7.5717   25.6260  -29.6852 H   0  0  0  0  0  0  0  0  0  0  0  0
   -5.1339   26.0006  -29.3146 H   0  0  0  0  0  0  0  0  0  0  0  0
   -3.4623   24.4184  -30.2744 H   0  0  0  0  0  0  0  0  0  0  0  0
   -1.9606   22.3669  -31.2029 H   0  0  0  0  0  0  0  0  0  0  0  0
   -3.0652   21.9180  -29.8639 H   0  0  0  0  0  0  0  0  0  0  0  0
   -1.7198   19.9721  -30.5951 H   0  0  0  0  0  0  0  0  0  0  0  0
   -3.4853   19.7323  -30.9526 H   0  0  0  0  0  0  0  0  0  0  0  0
   -6.6283   16.2496  -34.8794 H   0  0  0  0  0  0  0  0  0  0  0  0
   -6.9216   13.8011  -34.4991 H   0  0  0  0  0  0  0  0  0  0  0  0
   -5.3753   12.5787  -32.9678 H   0  0  0  0  0  0  0  0  0  0  0  0
   -3.5333   13.8043  -31.8131 H   0  0  0  0  0  0  0  0  0  0  0  0
   -3.2248   16.2505  -32.1943 H   0  0  0  0  0  0  0  0  0  0  0  0
  1  2  2  0
  2  3  1  0
  3  4  2  0
  4  5  1  0
  5  6  2  0
  6  7  1  0
  2  8  1  0
  8  9  1  0
  9 10  1  0
 10 11  1  0
 11 12  1  0
 12 13  1  0
 13 14  1  0
 14 15  1  0
 15 16  2  0
 16 17  1  0
 17 18  2  0
 18 19  1  0
 19 20  2  0
 14 21  1  0
 21 22  1  0
  8 23  1  0
 23 24  2  0
 24 25  1  0
 25 26  2  0
 26 27  1  0
 27 28  2  0
  7  3  1  0
 22 11  1  0
 28 23  1  0
 20 15  1  0
  4 29  1  0
  5 30  1  0
  6 31  1  0
  9 32  1  0
  9 33  1  0
 10 34  1  0
 10 35  1  0
 11 36  1  0
 12 37  1  0
 12 38  1  0
 13 39  1  0
 13 40  1  0
 16 41  1  0
 17 42  1  0
 18 43  1  0
 19 44  1  0
 20 45  1  0
 21 46  1  0
 21 47  1  0
 22 48  1  0
 22 49  1  0
 24 50  1  0
 25 51  1  0
 26 52  1  0
 27 53  1  0
 28 54  1  0
M  CHG  1  11   1
M  END
>  <UniqueID>  (3) 
3

>  <SMILES>  (3) 
O=C(c1cccs1)N(CC[NH+]1CCN(c2ccccc2)CC1)c1ccccc1

>  <Energy>  (3) 
105.95664839225087

>  <Genealogy>  (3) 
O=C(c1cccs1)N(CC[NH+]1CCN(c2ccccc2)CC1)c1ccccc1 (protonated)
O=C(c1cccs1)N(CC[NH+]1CCN(c2ccccc2)CC1)c1ccccc1 (3D coordinates assigned)
O=C(c1cccs1)N(CC[NH+]1CCN(c2ccccc2)CC1)c1ccccc1 (nonaromatic ring conformer: 105.95664839225087 kcal/mol)

>  <smiles>  (3) 
O=C(c1cccs1)N(CCN1CCN(c2ccccc2)CC1)c1ccccc1

>  <score_type>  (3) 
oracle

>  <origin>  (3) 
adg

>  <m_score__min__energy>  (3) 
-8.0199999999999996

>  <m_primary>  (3) 
energy

$$$$
3:0
     RDKit          3D

 51 53  0  0  0  0  0  0  0  0999 V2000
   -3.1290   19.6240  -26.7910 C   0  0  0  0  0  0  0  0  0  0  0  0
   -1.9670   20.0460  -27.6330 C   0  0  0  0  0  0  0  0  0  0  0  0
   -0.8810   19.2650  -27.8210 N   0  0  0  0  0  0  0  0  0  0  0  0
   -0.0780   20.0010  -28.6180 C   0  0  0  0  0  0  0  0  0  0  0  0
   -0.6810   21.2060  -28.8970 C   0  0  0  0  0  0  0  0  0  0  0  0
   -1.8720   21.2320  -28.2740 N   0  0  0  0  0  0  0  0  0  0  0  0
   -2.8470   22.3240  -28.3240 C   0  0  0  0  0  0  0  0  0  0  0  0
   -2.4310   23.3960  -29.3410 C   0  0  0  0  0  0  0  0  0  0  0  0
   -3.4680   24.5200  -29.4560 C   0  0  0  0  0  0  0  0  0  0  0  0
   -4.1490   24.4460  -30.7690 N   0  0  0  0  0  0  0  0  0  0  0  0
   -5.3970   25.2370  -30.8220 C   0  0  0  0  0  0  0  0  0  0  0  0
   -6.5810   24.5450  -30.1110 C   0  0  0  0  0  0  0  0  0  0  0  0
   -6.7690   23.1400  -30.5340 N   0  0  0  0  0  0  0  0  0  0  0  0
   -7.4140   23.0130  -31.8600 C   0  0  0  0  0  0  0  0  0  0  0  0
   -7.6970   21.5660  -32.1690 C   0  0  0  0  0  0  0  0  0  0  0  0
   -8.8650   20.9500  -31.6940 C   0  0  0  0  0  0  0  0  0  0  0  0
   -9.1050   19.6010  -31.9570 C   0  0  0  0  0  0  0  0  0  0  0  0
   -8.1840   18.8550  -32.6990 C   0  0  0  0  0  0  0  0  0  0  0  0
   -7.0200   19.4600  -33.2020 C   0  0  0  0  0  0  0  0  0  0  0  0
   -6.0000   18.6450  -33.9570 C   0  0  0  0  0  0  0  0  0  0  0  0
   -4.7180   18.9480  -33.5320 F   0  0  0  0  0  0  0  0  0  0  0  0
   -6.2130   17.2910  -33.7590 F   0  0  0  0  0  0  0  0  0  0  0  0
   -6.1050   18.9240  -35.3070 F   0  0  0  0  0  0  0  0  0  0  0  0
   -6.7730   20.8140  -32.9110 C   0  0  0  0  0  0  0  0  0  0  0  0
   -5.5070   22.3820  -30.4420 C   0  0  0  0  0  0  0  0  0  0  0  0
   -4.3740   23.0610  -31.2260 C   0  0  0  0  0  0  0  0  0  0  0  0
   -2.8651   19.7198  -25.7274 H   0  0  0  0  0  0  0  0  0  0  0  0
   -3.9948   20.2651  -27.0132 H   0  0  0  0  0  0  0  0  0  0  0  0
   -3.3816   18.5767  -27.0132 H   0  0  0  0  0  0  0  0  0  0  0  0
    0.9086   19.6855  -28.9883 H   0  0  0  0  0  0  0  0  0  0  0  0
   -0.2614   22.0086  -29.5213 H   0  0  0  0  0  0  0  0  0  0  0  0
   -3.8270   21.9166  -28.6132 H   0  0  0  0  0  0  0  0  0  0  0  0
   -2.8980   22.7901  -27.3290 H   0  0  0  0  0  0  0  0  0  0  0  0
   -1.4713   23.8307  -29.0248 H   0  0  0  0  0  0  0  0  0  0  0  0
   -2.3470   22.9125  -30.3255 H   0  0  0  0  0  0  0  0  0  0  0  0
   -4.2120   24.4132  -28.6528 H   0  0  0  0  0  0  0  0  0  0  0  0
   -2.9601   25.4916  -29.3660 H   0  0  0  0  0  0  0  0  0  0  0  0
   -5.2171   26.2085  -30.3384 H   0  0  0  0  0  0  0  0  0  0  0  0
   -5.6701   25.3500  -31.8815 H   0  0  0  0  0  0  0  0  0  0  0  0
   -6.3974   24.5628  -29.0266 H   0  0  0  0  0  0  0  0  0  0  0  0
   -7.4942   25.0949  -30.3824 H   0  0  0  0  0  0  0  0  0  0  0  0
   -8.3595   23.5751  -31.8586 H   0  0  0  0  0  0  0  0  0  0  0  0
   -6.7362   23.4161  -32.6269 H   0  0  0  0  0  0  0  0  0  0  0  0
   -9.5941   21.5329  -31.1121 H   0  0  0  0  0  0  0  0  0  0  0  0
  -10.0211   19.1230  -31.5797 H   0  0  0  0  0  0  0  0  0  0  0  0
   -8.3719   17.7881  -32.8900 H   0  0  0  0  0  0  0  0  0  0  0  0
   -5.8469   21.2879  -33.2684 H   0  0  0  0  0  0  0  0  0  0  0  0
   -5.2130   22.3073  -29.3846 H   0  0  0  0  0  0  0  0  0  0  0  0
   -5.6744   21.3859  -30.8777 H   0  0  0  0  0  0  0  0  0  0  0  0
   -3.4479   22.4843  -31.0858 H   0  0  0  0  0  0  0  0  0  0  0  0
   -4.6616   23.0921  -32.2873 H   0  0  0  0  0  0  0  0  0  0  0  0
  1  2  1  0
  2  3  2  0
  3  4  1  0
  4  5  2  0
  5  6  1  0
  6  7  1  0
  7  8  1  0
  8  9  1  0
  9 10  1  0
 10 11  1  0
 11 12  1  0
 12 13  1  0
 13 14  1  0
 14 15  1  0
 15 16  2  0
 16 17  1  0
 17 18  2  0
 18 19  1  0
 19 20  1  0
 20 21  1  0
 20 22  1  0
 20 23  1  0
 19 24  2  0
 13 25  1  0
 25 26  1  0
  6  2  1  0
 26 10  1  0
 24 15  1  0
  1 27  1  0
  1 28  1  0
  1 29  1  0
  4 30  1  0
  5 31  1  0
  7 32  1  0
  7 33  1  0
  8 34  1  0
  8 35  1  0
  9 36  1  0
  9 37  1  0
 11 38  1  0
 11 39  1  0
 12 40  1  0
 12 41  1  0
 14 42  1  0
 14 43  1  0
 16 44  1  0
 17 45  1  0
 18 46  1  0
 24 47  1  0
 25 48  1  0
 25 49  1  0
 26 50  1  0
 26 51  1  0
M  END
>  <UniqueID>  (4) 
4

>  <SMILES>  (4) 
Cc1nccn1CCCN1CCN(Cc2cccc(C(F)(F)F)c2)CC1

>  <Energy>  (4) 
83.60512661559626

>  <Genealogy>  (4) 
Cc1nccn1CCCN1CCN(Cc2cccc(C(F)(F)F)c2)CC1 (3D coordinates assigned)
Cc1nccn1CCCN1CCN(Cc2cccc(C(F)(F)F)c2)CC1 (nonaromatic ring conformer: 83.60512661559626 kcal/mol)

>  <smiles>  (4) 
Cc1nccn1CCCN1CCN(Cc2cccc(C(F)(F)F)c2)CC1

>  <score_type>  (4) 
oracle

>  <origin>  (4) 
adg

>  <m_score__min__energy>  (4) 
-8.5399999999999991

>  <m_primary>  (4) 
energy

$$$$
4:0
     RDKit          3D

 48 50  0  0  0  0  0  0  0  0999 V2000
    1.2880   21.7320  -34.7840 C   0  0  0  0  0  0  0  0  0  0  0  0
    0.3050   21.5480  -33.7710 O   0  0  0  0  0  0  0  0  0  0  0  0
   -0.8110   20.7070  -33.8940 C   0  0  0  0  0  0  0  0  0  0  0  0
   -0.6180   19.4210  -34.4120 C   0  0  0  0  0  0  0  0  0  0  0  0
   -1.6980   18.5440  -34.5560 C   0  0  0  0  0  0  0  0  0  0  0  0
   -2.9930   18.9440  -34.1870 C   0  0  0  0  0  0  0  0  0  0  0  0
   -4.1040   18.0350  -34.3180 N   0  0  0  0  0  0  0  0  0  0  0  0
   -3.9000   16.5850  -34.3770 C   0  0  0  0  0  0  0  0  0  0  0  0
   -4.7120   15.8840  -33.2700 C   0  0  0  0  0  0  0  0  0  0  0  0
   -5.9650   16.5970  -32.8990 N   0  0  0  0  0  0  0  0  0  0  0  0
   -5.8320   17.3440  -31.6290 C   0  0  0  0  0  0  0  0  0  0  0  0
   -6.8170   18.4730  -31.5900 C   0  0  0  0  0  0  0  0  0  0  0  0
   -8.0270   18.2330  -31.3240 O   0  0  0  0  0  0  0  0  0  0  0  0
   -6.3770   19.8170  -31.8290 N   0  0  0  0  0  0  0  0  0  0  0  0
   -7.2790   20.9320  -31.8970 C   0  0  0  0  0  0  0  0  0  0  0  0
   -8.6600   20.6880  -31.9020 C   0  0  0  0  0  0  0  0  0  0  0  0
   -9.5660   21.7500  -31.9630 C   0  0  0  0  0  0  0  0  0  0  0  0
   -9.1010   23.0660  -32.0050 C   0  0  0  0  0  0  0  0  0  0  0  0
   -7.7280   23.3240  -31.9730 C   0  0  0  0  0  0  0  0  0  0  0  0
   -6.8100   22.2670  -31.9110 C   0  0  0  0  0  0  0  0  0  0  0  0
   -5.4050   22.5710  -31.8000 C   0  0  0  0  0  0  0  0  0  0  0  0
   -4.2770   22.8180  -31.7090 N   0  0  0  0  0  0  0  0  0  0  0  0
   -6.4830   17.4510  -33.9890 C   0  0  0  0  0  0  0  0  0  0  0  0
   -5.4770   18.5510  -34.3700 C   0  0  0  0  0  0  0  0  0  0  0  0
   -3.1860   20.2300  -33.6570 C   0  0  0  0  0  0  0  0  0  0  0  0
   -2.1060   21.1070  -33.5150 C   0  0  0  0  0  0  0  0  0  0  0  0
    2.2666   21.9152  -34.3163 H   0  0  0  0  0  0  0  0  0  0  0  0
    1.3437   20.8287  -35.4092 H   0  0  0  0  0  0  0  0  0  0  0  0
    1.0132   22.5943  -35.4092 H   0  0  0  0  0  0  0  0  0  0  0  0
    0.3908   19.0976  -34.7081 H   0  0  0  0  0  0  0  0  0  0  0  0
   -1.5322   17.5347  -34.9608 H   0  0  0  0  0  0  0  0  0  0  0  0
   -4.2279   16.2122  -35.3586 H   0  0  0  0  0  0  0  0  0  0  0  0
   -2.8319   16.3680  -34.2286 H   0  0  0  0  0  0  0  0  0  0  0  0
   -4.9778   14.8759  -33.6208 H   0  0  0  0  0  0  0  0  0  0  0  0
   -4.0774   15.8643  -32.3717 H   0  0  0  0  0  0  0  0  0  0  0  0
   -6.0238   16.6645  -30.7855 H   0  0  0  0  0  0  0  0  0  0  0  0
   -4.8132   17.7524  -31.5565 H   0  0  0  0  0  0  0  0  0  0  0  0
   -5.3520   20.0150  -31.7810 H   0  0  0  0  0  0  0  0  0  0  0  0
   -9.0324   19.6539  -31.8576 H   0  0  0  0  0  0  0  0  0  0  0  0
  -10.6474   21.5490  -31.9780 H   0  0  0  0  0  0  0  0  0  0  0  0
   -9.8159   23.9000  -32.0633 H   0  0  0  0  0  0  0  0  0  0  0  0
   -7.3658   24.3624  -31.9966 H   0  0  0  0  0  0  0  0  0  0  0  0
   -6.6788   16.8244  -34.8716 H   0  0  0  0  0  0  0  0  0  0  0  0
   -7.4070   17.9345  -33.6392 H   0  0  0  0  0  0  0  0  0  0  0  0
   -5.6933   18.9013  -35.3901 H   0  0  0  0  0  0  0  0  0  0  0  0
   -5.5714   19.3814  -33.6548 H   0  0  0  0  0  0  0  0  0  0  0  0
   -4.1932   20.5496  -33.3515 H   0  0  0  0  0  0  0  0  0  0  0  0
   -2.2695   22.1146  -33.1050 H   0  0  0  0  0  0  0  0  0  0  0  0
  1  2  1  0
  2  3  1  0
  3  4  2  0
  4  5  1  0
  5  6  2  0
  6  7  1  0
  7  8  1  0
  8  9  1  0
  9 10  1  0
 10 11  1  0
 11 12  1  0
 12 13  2  0
 12 14  1  0
 14 15  1  0
 15 16  2  0
 16 17  1  0
 17 18  2  0
 18 19  1  0
 19 20  2  0
 20 21  1  0
 21 22  3  0
 10 23  1  0
 23 24  1  0
  6 25  1  0
 25 26  2  0
 26  3  1  0
 24  7  1  0
 20 15  1  0
  1 27  1  0
  1 28  1  0
  1 29  1  0
  4 30  1  0
  5 31  1  0
  8 32  1  0
  8 33  1  0
  9 34  1  0
  9 35  1  0
 11 36  1  0
 11 37  1  0
 14 38  1  0
 16 39  1  0
 17 40  1  0
 18 41  1  0
 19 42  1  0
 23 43  1  0
 23 44  1  0
 24 45  1  0
 24 46  1  0
 25 47  1  0
 26 48  1  0
M  END
>  <UniqueID>  (5) 
5

>  <SMILES>  (5) 
COc1ccc(N2CCN(CC(=O)Nc3ccccc3C#N)CC2)cc1

>  <Energy>  (5) 
64.18748710188567

>  <Genealogy>  (5) 
COc1ccc(N2CCN(CC(=O)Nc3ccccc3C#N)CC2)cc1 (3D coordinates assigned)
COc1ccc(N2CCN(CC(=O)Nc3ccccc3C#N)CC2)cc1 (nonaromatic ring conformer: 64.18748710188567 kcal/mol)

>  <smiles>  (5) 
COc1ccc(N2CCN(CC(=O)Nc3ccccc3C#N)CC2)cc1

>  <score_type>  (5) 
oracle

>  <origin>  (5) 
adg

>  <m_score__min__energy>  (5) 
-8.1600000000000001

>  <m_primary>  (5) 
energy

$$$$
5:0
     RDKit          3D

 35 36  0  0  0  0  0  0  0  0999 V2000
    0.0180   20.5700  -31.3550 C   0  0  0  0  0  0  0  0  0  0  0  0
   -1.3730   21.0870  -31.5750 C   0  0  0  0  0  0  0  0  0  0  0  0
   -2.1840   20.5280  -32.5720 C   0  0  0  0  0  0  0  0  0  0  0  0
   -3.4640   21.0360  -32.8050 C   0  0  0  0  0  0  0  0  0  0  0  0
   -3.9540   22.1110  -32.0420 C   0  0  0  0  0  0  0  0  0  0  0  0
   -5.2290   22.6500  -32.2790 O   0  0  0  0  0  0  0  0  0  0  0  0
   -6.4360   21.9340  -32.2740 C   0  0  0  0  0  0  0  0  0  0  0  0
   -6.6320   20.8100  -33.0950 C   0  0  0  0  0  0  0  0  0  0  0  0
   -7.8080   20.1260  -33.0550 N   0  0  0  0  0  0  0  0  0  0  0  0
   -8.8160   20.4950  -32.2210 C   0  0  0  0  0  0  0  0  0  0  0  0
   -8.6590   21.5910  -31.3720 C   0  0  0  0  0  0  0  0  0  0  0  0
   -7.4600   22.3170  -31.3910 C   0  0  0  0  0  0  0  0  0  0  0  0
   -7.2700   23.4960  -30.4780 C   0  0  0  0  0  0  0  0  0  0  0  0
   -3.1300   22.6960  -31.0640 C   0  0  0  0  0  0  0  0  0  0  0  0
   -3.7060   24.0790  -30.1280 S   0  0  0  0  0  0  0  0  0  0  0  0
   -4.5880   23.5010  -28.6960 C   0  0  0  0  0  0  0  0  0  0  0  0
   -2.5360   24.9190  -29.7010 O   0  0  0  0  0  0  0  0  0  0  0  0
   -4.6280   24.9240  -30.9620 O   0  0  0  0  0  0  0  0  0  0  0  0
   -1.8430   22.1840  -30.8390 C   0  0  0  0  0  0  0  0  0  0  0  0
    0.2154   20.4966  -30.2753 H   0  0  0  0  0  0  0  0  0  0  0  0
    0.1164   19.5753  -31.8142 H   0  0  0  0  0  0  0  0  0  0  0  0
    0.7422   21.2590  -31.8142 H   0  0  0  0  0  0  0  0  0  0  0  0
   -1.8110   19.6859  -33.1734 H   0  0  0  0  0  0  0  0  0  0  0  0
   -4.0931   20.5922  -33.5907 H   0  0  0  0  0  0  0  0  0  0  0  0
   -5.8308   20.4815  -33.7733 H   0  0  0  0  0  0  0  0  0  0  0  0
   -7.9350   19.2950  -33.6740 H   0  0  0  0  0  0  0  0  0  0  0  0
   -9.7584   19.9277  -32.2154 H   0  0  0  0  0  0  0  0  0  0  0  0
   -9.4719   21.8839  -30.6912 H   0  0  0  0  0  0  0  0  0  0  0  0
   -7.3239   23.1617  -29.4314 H   0  0  0  0  0  0  0  0  0  0  0  0
   -6.2868   23.9516  -30.6672 H   0  0  0  0  0  0  0  0  0  0  0  0
   -8.0603   24.2374  -30.6672 H   0  0  0  0  0  0  0  0  0  0  0  0
   -4.0714   23.8396  -27.7858 H   0  0  0  0  0  0  0  0  0  0  0  0
   -5.6114   23.9042  -28.7082 H   0  0  0  0  0  0  0  0  0  0  0  0
   -4.6268   22.4018  -28.7082 H   0  0  0  0  0  0  0  0  0  0  0  0
   -1.1972   22.6473  -30.0786 H   0  0  0  0  0  0  0  0  0  0  0  0
  1  2  1  0
  2  3  2  0
  3  4  1  0
  4  5  2  0
  5  6  1  0
  6  7  1  0
  7  8  2  0
  8  9  1  0
  9 10  2  0
 10 11  1  0
 11 12  2  0
 12 13  1  0
  5 14  1  0
 14 15  1  0
 15 16  1  0
 15 17  2  0
 15 18  2  0
 14 19  2  0
 19  2  1  0
 12  7  1  0
  1 20  1  0
  1 21  1  0
  1 22  1  0
  3 23  1  0
  4 24  1  0
  8 25  1  0
  9 26  1  0
 10 27  1  0
 11 28  1  0
 13 29  1  0
 13 30  1  0
 13 31  1  0
 16 32  1  0
 16 33  1  0
 16 34  1  0
 19 35  1  0
M  CHG  1   9   1
M  END
>  <UniqueID>  (6) 
6

>  <SMILES>  (6) 
Cc1ccc(Oc2c[nH+]ccc2C)c(S(C)(=O)=O)c1

>  <Energy>  (6) 
37.55839734322727

>  <Genealogy>  (6) 
Cc1ccc(Oc2c[nH+]ccc2C)c(S(C)(=O)=O)c1 (protonated)
Cc1ccc(Oc2c[nH+]ccc2C)c(S(C)(=O)=O)c1 (3D coordinates assigned)
Cc1ccc(Oc2c[nH+]ccc2C)c(S(C)(=O)=O)c1 (optimized conformer: 37.55839734322727 kcal/mol)

>  <smiles>  (6) 
Cc1ccc(Oc2cnccc2C)c(S(C)(=O)=O)c1

>  <score_type>  (6) 
oracle

>  <origin>  (6) 
adg

>  <m_score__min__energy>  (6) 
-7.1600000000000001

>  <m_primary>  (6) 
energy

$$$$
6:0
     RDKit          3D

 56 56  0  0  0  0  0  0  0  0999 V2000
   -2.5300   20.7460  -33.4910 C   0  0  0  0  0  0  0  0  0  0  0  0
   -3.9580   21.3040  -33.4510 C   0  0  0  0  0  0  0  0  0  0  0  0
   -4.9720   20.2400  -33.3410 N   0  0  0  0  0  0  0  0  0  0  0  0
   -4.5210   18.9830  -33.9600 C   0  0  0  0  0  0  0  0  0  0  0  0
   -5.7020   18.2290  -34.5900 C   0  0  0  0  0  0  0  0  0  0  0  0
   -6.1120   17.0390  -33.7170 C   0  0  0  0  0  0  0  0  0  0  0  0
   -6.2180   17.4280  -32.2450 C   0  0  0  0  0  0  0  0  0  0  0  0
   -6.9300   18.7090  -32.1350 N   0  0  0  0  0  0  0  0  0  0  0  0
   -8.3070   18.5330  -31.6550 C   0  0  0  0  0  0  0  0  0  0  0  0
   -9.3060   19.3060  -32.5350 C   0  0  0  0  0  0  0  0  0  0  0  0
   -9.4890   20.7780  -32.1220 C   0  0  0  0  0  0  0  0  0  0  0  0
   -8.3090   21.3530  -31.3130 C   0  0  0  0  0  0  0  0  0  0  0  0
   -7.0660   21.2670  -32.0920 N   0  0  0  0  0  0  0  0  0  0  0  0
   -6.5020   22.5940  -32.3850 C   0  0  0  0  0  0  0  0  0  0  0  0
   -5.9040   23.2470  -31.1550 C   0  0  0  0  0  0  0  0  0  0  0  0
   -6.3100   24.5480  -30.8080 C   0  0  0  0  0  0  0  0  0  0  0  0
   -5.7560   25.1910  -29.7000 C   0  0  0  0  0  0  0  0  0  0  0  0
   -4.7900   24.5450  -28.9280 C   0  0  0  0  0  0  0  0  0  0  0  0
   -4.3900   23.2470  -29.2490 C   0  0  0  0  0  0  0  0  0  0  0  0
   -4.9510   22.5780  -30.3560 C   0  0  0  0  0  0  0  0  0  0  0  0
   -4.5850   21.2610  -30.6840 O   0  0  0  0  0  0  0  0  0  0  0  0
   -3.3990   20.6180  -30.2310 C   0  0  0  0  0  0  0  0  0  0  0  0
   -2.1634   20.6028  -32.4638 H   0  0  0  0  0  0  0  0  0  0  0  0
   -2.5281   19.7810  -34.0189 H   0  0  0  0  0  0  0  0  0  0  0  0
   -1.8743   21.4541  -34.0189 H   0  0  0  0  0  0  0  0  0  0  0  0
   -4.0520   21.9732  -32.5830 H   0  0  0  0  0  0  0  0  0  0  0  0
   -4.1355   21.8415  -34.3942 H   0  0  0  0  0  0  0  0  0  0  0  0
   -5.2180   20.0790  -32.3350 H   0  0  0  0  0  0  0  0  0  0  0  0
   -5.8340   20.5640  -33.8400 H   0  0  0  0  0  0  0  0  0  0  0  0
   -3.7811   19.2112  -34.7413 H   0  0  0  0  0  0  0  0  0  0  0  0
   -4.0732   18.3481  -33.1813 H   0  0  0  0  0  0  0  0  0  0  0  0
   -6.5562   18.9148  -34.6900 H   0  0  0  0  0  0  0  0  0  0  0  0
   -5.3959   17.8542  -35.5778 H   0  0  0  0  0  0  0  0  0  0  0  0
   -7.0891   16.6665  -34.0584 H   0  0  0  0  0  0  0  0  0  0  0  0
   -5.3388   16.2623  -33.8113 H   0  0  0  0  0  0  0  0  0  0  0  0
   -6.7718   16.6509  -31.6978 H   0  0  0  0  0  0  0  0  0  0  0  0
   -5.2104   17.5265  -31.8147 H   0  0  0  0  0  0  0  0  0  0  0  0
   -6.4140   19.3040  -31.4430 H   0  0  0  0  0  0  0  0  0  0  0  0
   -8.5612   17.4630  -31.6785 H   0  0  0  0  0  0  0  0  0  0  0  0
   -8.3711   18.9243  -30.6289 H   0  0  0  0  0  0  0  0  0  0  0  0
   -8.9456   19.2796  -33.5739 H   0  0  0  0  0  0  0  0  0  0  0  0
  -10.2836   18.8160  -32.4157 H   0  0  0  0  0  0  0  0  0  0  0  0
   -9.6096   21.3809  -33.0341 H   0  0  0  0  0  0  0  0  0  0  0  0
  -10.3728   20.8180  -31.4684 H   0  0  0  0  0  0  0  0  0  0  0  0
   -8.5137   22.4065  -31.0717 H   0  0  0  0  0  0  0  0  0  0  0  0
   -8.1921   20.7700  -30.3876 H   0  0  0  0  0  0  0  0  0  0  0  0
   -7.2460   20.7550  -32.9860 H   0  0  0  0  0  0  0  0  0  0  0  0
   -5.7150   22.4842  -33.1456 H   0  0  0  0  0  0  0  0  0  0  0  0
   -7.3196   23.2363  -32.7442 H   0  0  0  0  0  0  0  0  0  0  0  0
   -7.0699   25.0627  -31.4144 H   0  0  0  0  0  0  0  0  0  0  0  0
   -6.0813   26.2079  -29.4352 H   0  0  0  0  0  0  0  0  0  0  0  0
   -4.3428   25.0596  -28.0648 H   0  0  0  0  0  0  0  0  0  0  0  0
   -3.6310   22.7419  -28.6334 H   0  0  0  0  0  0  0  0  0  0  0  0
   -3.3836   20.6097  -29.1311 H   0  0  0  0  0  0  0  0  0  0  0  0
   -3.3764   19.5841  -30.6059 H   0  0  0  0  0  0  0  0  0  0  0  0
   -2.5202   21.1632  -30.6059 H   0  0  0  0  0  0  0  0  0  0  0  0
  1  2  1  0
  2  3  1  0
  3  4  1  0
  4  5  1  0
  5  6  1  0
  6  7  1  0
  7  8  1  0
  8  9  1  0
  9 10  1  0
 10 11  1  0
 11 12  1  0
 12 13  1  0
 13 14  1  0
 14 15  1  0
 15 16  2  0
 16 17  1  0
 17 18  2  0
 18 19  1  0
 19 20  2  0
 20 21  1  0
 21 22  1  0
 20 15  1  0
  1 23  1  0
  1 24  1  0
  1 25  1  0
  2 26  1  0
  2 27  1  0
  3 28  1  0
  3 29  1  0
  4 30  1  0
  4 31  1  0
  5 32  1  0
  5 33  1  0
  6 34  1  0
  6 35  1  0
  7 36  1  0
  7 37  1  0
  8 38  1  0
  9 39  1  0
  9 40  1  0
 10 41  1  0
 10 42  1  0
 11 43  1  0
 11 44  1  0
 12 45  1  0
 12 46  1  0
 13 47  1  0
 14 48  1  0
 14 49  1  0
 16 50  1  0
 17 51  1  0
 18 52  1  0
 19 53  1  0
 22 54  1  0
 22 55  1  0
 22 56  1  0
M  CHG  1   3   1
M  END
>  <UniqueID>  (7) 
7

>  <SMILES>  (7) 
CC[NH2+]CCCCNCCCCNCc1ccccc1OC

>  <Energy>  (7) 
37.0797360579774

>  <Genealogy>  (7) 
CC[NH2+]CCCCNCCCCNCc1ccccc1OC (protonated)
CC[NH2+]CCCCNCCCCNCc1ccccc1OC (3D coordinates assigned)
CC[NH2+]CCCCNCCCCNCc1ccccc1OC (optimized conformer: 37.0797360579774 kcal/mol)

>  <smiles>  (7) 
CCNCCCCNCCCCNCc1ccccc1OC

>  <score_type>  (7) 
oracle

>  <origin>  (7) 
adg

>  <m_score__min__energy>  (7) 
-6.8499999999999996

>  <m_primary>  (7) 
energy

$$$$
7:0
     RDKit          3D

 43 45  0  0  0  0  0  0  0  0999 V2000
   -6.5760   23.0447  -33.5491 H   0  0  0  0  0  0  0  0  0  0  0  0
   -6.4670   22.6610  -32.5240 C   0  0  0  0  0  0  0  0  0  0  0  0
   -7.2700   17.8400  -32.1330 C   0  0  0  0  0  0  0  0  0  0  0  0
   -6.7560   20.2320  -31.9890 C   0  0  0  0  0  0  0  0  0  0  0  0
   -5.5300   20.0130  -31.7860 O   0  0  0  0  0  0  0  0  0  0  0  0
   -7.7180   19.1010  -31.9720 C   0  0  0  0  0  0  0  0  0  0  0  0
   -7.2560   21.6270  -32.1640 C   0  0  0  0  0  0  0  0  0  0  0  0
   -7.7193   17.0481  -31.5158 H   0  0  0  0  0  0  0  0  0  0  0  0
   -6.2130   17.4600  -33.0880 C   0  0  0  0  0  0  0  0  0  0  0  0
   -6.1050   18.1460  -34.3060 C   0  0  0  0  0  0  0  0  0  0  0  0
   -6.8185   18.9469  -34.5501 H   0  0  0  0  0  0  0  0  0  0  0  0
   -5.0920   17.8140  -35.2110 C   0  0  0  0  0  0  0  0  0  0  0  0
   -5.0184   18.3452  -36.1714 H   0  0  0  0  0  0  0  0  0  0  0  0
   -4.1730   16.8090  -34.8980 C   0  0  0  0  0  0  0  0  0  0  0  0
   -3.3793   16.5469  -35.6131 H   0  0  0  0  0  0  0  0  0  0  0  0
   -4.2630   16.1360  -33.6740 C   0  0  0  0  0  0  0  0  0  0  0  0
   -3.5367   15.3482  -33.4255 H   0  0  0  0  0  0  0  0  0  0  0  0
   -5.2750   16.4640  -32.7670 C   0  0  0  0  0  0  0  0  0  0  0  0
   -5.3340   15.8190  -31.5730 F   0  0  0  0  0  0  0  0  0  0  0  0
   -9.1990   19.4170  -31.9110 C   0  0  0  0  0  0  0  0  0  0  0  0
   -9.7107   18.6300  -31.3376 H   0  0  0  0  0  0  0  0  0  0  0  0
   -9.5885   19.4628  -32.9387 H   0  0  0  0  0  0  0  0  0  0  0  0
   -9.4480   20.7680  -31.2370 C   0  0  0  0  0  0  0  0  0  0  0  0
   -9.0755   20.7268  -30.2028 H   0  0  0  0  0  0  0  0  0  0  0  0
  -10.5291   20.9705  -31.2529 H   0  0  0  0  0  0  0  0  0  0  0  0
   -8.7330   21.8990  -31.9800 C   0  0  0  0  0  0  0  0  0  0  0  0
   -8.8516   22.8293  -31.4051 H   0  0  0  0  0  0  0  0  0  0  0  0
   -9.1852   21.9813  -32.9794 H   0  0  0  0  0  0  0  0  0  0  0  0
   -5.4690   23.3210  -31.6570 C   0  0  0  0  0  0  0  0  0  0  0  0
   -5.7250   24.6100  -31.1700 C   0  0  0  0  0  0  0  0  0  0  0  0
   -6.6797   25.1036  -31.4041 H   0  0  0  0  0  0  0  0  0  0  0  0
   -4.7730   25.2720  -30.3880 C   0  0  0  0  0  0  0  0  0  0  0  0
   -4.9899   26.2763  -29.9952 H   0  0  0  0  0  0  0  0  0  0  0  0
   -3.5380   24.6590  -30.1010 C   0  0  0  0  0  0  0  0  0  0  0  0
   -2.5530   25.2790  -29.3200 O   0  0  0  0  0  0  0  0  0  0  0  0
   -2.1160   24.8050  -28.0500 C   0  0  0  0  0  0  0  0  0  0  0  0
   -2.6303   25.3629  -27.2536 H   0  0  0  0  0  0  0  0  0  0  0  0
   -2.3504   23.7342  -27.9578 H   0  0  0  0  0  0  0  0  0  0  0  0
   -1.0297   24.9518  -27.9578 H   0  0  0  0  0  0  0  0  0  0  0  0
   -3.2750   23.3830  -30.6140 C   0  0  0  0  0  0  0  0  0  0  0  0
   -2.3119   22.8969  -30.3993 H   0  0  0  0  0  0  0  0  0  0  0  0
   -4.2250   22.7220  -31.3960 C   0  0  0  0  0  0  0  0  0  0  0  0
   -3.9983   21.7281  -31.8094 H   0  0  0  0  0  0  0  0  0  0  0  0
  1  2  1  0
  2  3  2  0
  3  4  1  0
  4  5  2  0
  4  6  1  0
  6  7  2  0
  7  8  1  0
  7  9  1  0
  9 10  2  0
 10 11  1  0
 10 12  1  0
 12 13  1  0
 12 14  2  0
 14 15  1  0
 14 16  1  0
 16 17  1  0
 16 18  2  0
 18 19  1  0
  6 20  1  0
 20 21  1  0
 20 22  1  0
 20 23  1  0
 23 24  1  0
 23 25  1  0
 23 26  1  0
 26 27  1  0
 26 28  1  0
  2 29  1  0
 29 30  2  0
 30 31  1  0
 30 32  1  0
 32 33  1  0
 32 34  2  0
 34 35  1  0
 35 36  1  0
 36 37  1  0
 36 38  1  0
 36 39  1  0
 34 40  1  0
 40 41  1  0
 40 42  2  0
 42 43  1  0
 26  3  1  0
 42 29  1  0
 18  9  1  0
M  END
>  <UniqueID>  (8) 
8

>  <SMILES>  (8) 
COc1ccc(/C=C2/CCC/C(=C\c3ccccc3F)C2=O)cc1

>  <Energy>  (8) 
61.55473025650841

>  <Genealogy>  (8) 
COc1ccc(/C=C2/CCC/C(=C\c3ccccc3F)C2=O)cc1 (cis-trans isomerization)
COc1ccc(/C=C2/CCC/C(=C\c3ccccc3F)C2=O)cc1 (3D coordinates assigned)
COc1ccc(/C=C2/CCC/C(=C\c3ccccc3F)C2=O)cc1 (nonaromatic ring conformer: 61.55473025650841 kcal/mol)

>  <smiles>  (8) 
COc1ccc(C=C2CCCC(=Cc3ccccc3F)C2=O)cc1

>  <score_type>  (8) 
oracle

>  <origin>  (8) 
adg

>  <m_score__min__energy>  (8) 
-9.7300000000000004

>  <m_primary>  (8) 
energy

$$$$
8:0
     RDKit          3D

 47 49  0  0  0  0  0  0  0  0999 V2000
   -5.8640   19.6700  -33.4870 C   0  0  0  0  0  0  0  0  0  0  0  0
   -5.2160   20.8600  -33.0500 O   0  0  0  0  0  0  0  0  0  0  0  0
   -5.8350   21.8660  -32.2930 C   0  0  0  0  0  0  0  0  0  0  0  0
   -7.1930   21.7270  -31.9860 C   0  0  0  0  0  0  0  0  0  0  0  0
   -7.8540   22.7030  -31.2390 C   0  0  0  0  0  0  0  0  0  0  0  0
   -7.1660   23.8360  -30.7990 C   0  0  0  0  0  0  0  0  0  0  0  0
   -5.8080   24.0040  -31.1120 C   0  0  0  0  0  0  0  0  0  0  0  0
   -5.0820   25.2020  -30.6350 C   0  0  0  0  0  0  0  0  0  0  0  0
   -5.7360   26.2400  -30.3510 O   0  0  0  0  0  0  0  0  0  0  0  0
   -3.6570   25.2210  -30.4670 N   0  0  0  0  0  0  0  0  0  0  0  0
   -2.9140   24.5480  -29.4010 C   0  0  0  0  0  0  0  0  0  0  0  0
   -3.8690   24.1950  -28.2600 C   0  0  0  0  0  0  0  0  0  0  0  0
   -3.1140   23.5060  -27.1040 C   0  0  0  0  0  0  0  0  0  0  0  0
   -2.0170   22.6010  -27.5440 N   0  0  0  0  0  0  0  0  0  0  0  0
   -0.6710   23.1560  -27.2760 C   0  0  0  0  0  0  0  0  0  0  0  0
   -0.7640   24.4460  -26.5030 C   0  0  0  0  0  0  0  0  0  0  0  0
   -0.7930   24.4220  -25.0990 C   0  0  0  0  0  0  0  0  0  0  0  0
   -0.8610   25.6160  -24.3760 C   0  0  0  0  0  0  0  0  0  0  0  0
   -0.8960   26.8420  -25.0480 C   0  0  0  0  0  0  0  0  0  0  0  0
   -0.8610   26.8730  -26.4450 C   0  0  0  0  0  0  0  0  0  0  0  0
   -0.7940   25.6800  -27.1720 C   0  0  0  0  0  0  0  0  0  0  0  0
   -2.1830   22.1270  -28.9360 C   0  0  0  0  0  0  0  0  0  0  0  0
   -2.2320   23.2810  -29.9590 C   0  0  0  0  0  0  0  0  0  0  0  0
   -5.1410   23.0040  -31.8380 C   0  0  0  0  0  0  0  0  0  0  0  0
   -6.1831   19.0840  -32.6125 H   0  0  0  0  0  0  0  0  0  0  0  0
   -6.7436   19.9328  -34.0931 H   0  0  0  0  0  0  0  0  0  0  0  0
   -5.1660   19.0738  -34.0931 H   0  0  0  0  0  0  0  0  0  0  0  0
   -7.7438   20.8416  -32.3362 H   0  0  0  0  0  0  0  0  0  0  0  0
   -8.9197   22.5796  -30.9961 H   0  0  0  0  0  0  0  0  0  0  0  0
   -7.6901   24.5993  -30.2051 H   0  0  0  0  0  0  0  0  0  0  0  0
   -2.1329   25.2177  -29.0119 H   0  0  0  0  0  0  0  0  0  0  0  0
   -4.3385   25.1164  -27.8851 H   0  0  0  0  0  0  0  0  0  0  0  0
   -4.6335   23.5028  -28.6427 H   0  0  0  0  0  0  0  0  0  0  0  0
   -2.6802   24.2867  -26.4618 H   0  0  0  0  0  0  0  0  0  0  0  0
   -3.8482   22.8790  -26.5769 H   0  0  0  0  0  0  0  0  0  0  0  0
   -0.0910   22.4270  -26.6911 H   0  0  0  0  0  0  0  0  0  0  0  0
   -0.1769   23.3581  -28.2378 H   0  0  0  0  0  0  0  0  0  0  0  0
   -0.7621   23.4599  -24.5666 H   0  0  0  0  0  0  0  0  0  0  0  0
   -0.8870   25.5915  -23.2766 H   0  0  0  0  0  0  0  0  0  0  0  0
   -0.9510   27.7810  -24.4777 H   0  0  0  0  0  0  0  0  0  0  0  0
   -0.8862   27.8374  -26.9736 H   0  0  0  0  0  0  0  0  0  0  0  0
   -0.7647   25.7086  -28.2712 H   0  0  0  0  0  0  0  0  0  0  0  0
   -1.3367   21.4706  -29.1870 H   0  0  0  0  0  0  0  0  0  0  0  0
   -3.1436   21.5940  -28.9919 H   0  0  0  0  0  0  0  0  0  0  0  0
   -1.2024   23.5358  -30.2506 H   0  0  0  0  0  0  0  0  0  0  0  0
   -2.8266   22.9364  -30.8179 H   0  0  0  0  0  0  0  0  0  0  0  0
   -4.0675   23.1103  -32.0531 H   0  0  0  0  0  0  0  0  0  0  0  0
  1  2  1  0
  2  3  1  0
  3  4  2  0
  4  5  1  0
  5  6  2  0
  6  7  1  0
  7  8  1  0
  8  9  2  0
  8 10  1  0
 10 11  1  0
 11 12  1  0
 12 13  1  0
 13 14  1  0
 14 15  1  0
 15 16  1  0
 16 17  2  0
 17 18  1  0
 18 19  2  0
 19 20  1  0
 20 21  2  0
 14 22  1  0
 22 23  1  0
  7 24  2  0
 24  3  1  0
 23 11  1  0
 21 16  1  0
  1 25  1  0
  1 26  1  0
  1 27  1  0
  4 28  1  0
  5 29  1  0
  6 30  1  0
 11 31  1  0
 12 32  1  0
 12 33  1  0
 13 34  1  0
 13 35  1  0
 15 36  1  0
 15 37  1  0
 17 38  1  0
 18 39  1  0
 19 40  1  0
 20 41  1  0
 21 42  1  0
 22 43  1  0
 22 44  1  0
 23 45  1  0
 23 46  1  0
 24 47  1  0
M  CHG  1  10  -1
M  END
>  <UniqueID>  (9) 
9

>  <SMILES>  (9) 
COc1cccc(C(=O)[N-]C2CCN(Cc3ccccc3)CC2)c1

>  <Energy>  (9) 
61.0819024031839

>  <Genealogy>  (9) 
COc1cccc(C(=O)[N-]C2CCN(Cc3ccccc3)CC2)c1 (protonated)
COc1cccc(C(=O)[N-]C2CCN(Cc3ccccc3)CC2)c1 (3D coordinates assigned)
COc1cccc(C(=O)[N-]C2CCN(Cc3ccccc3)CC2)c1 (nonaromatic ring conformer: 61.0819024031839 kcal/mol)

>  <smiles>  (9) 
COc1cccc(C(=O)NC2CCN(Cc3ccccc3)CC2)c1

>  <score_type>  (9) 
oracle

>  <origin>  (9) 
adg

>  <m_score__min__energy>  (9) 
-10.369999999999999

>  <m_primary>  (9) 
energy

$$$$
9:0
     RDKit          3D

 48 51  0  0  0  0  0  0  0  0999 V2000
   -1.3130   20.9100  -32.5730 C   0  0  0  0  0  0  0  0  0  0  0  0
   -1.3310   21.4200  -31.2730 C   0  0  0  0  0  0  0  0  0  0  0  0
   -2.4180   22.1830  -30.8340 C   0  0  0  0  0  0  0  0  0  0  0  0
   -3.4910   22.4530  -31.6990 C   0  0  0  0  0  0  0  0  0  0  0  0
   -4.6370   23.2600  -31.2230 C   0  0  0  0  0  0  0  0  0  0  0  0
   -4.4060   24.5560  -30.8680 N   0  0  0  0  0  0  0  0  0  0  0  0
   -5.3830   25.3600  -30.3750 C   0  0  0  0  0  0  0  0  0  0  0  0
   -6.6750   24.8670  -30.2070 C   0  0  0  0  0  0  0  0  0  0  0  0
   -6.9560   23.5510  -30.5720 C   0  0  0  0  0  0  0  0  0  0  0  0
   -5.9480   22.7300  -31.1010 C   0  0  0  0  0  0  0  0  0  0  0  0
   -6.3010   21.3670  -31.5620 C   0  0  0  0  0  0  0  0  0  0  0  0
   -7.4570   21.1520  -32.3310 C   0  0  0  0  0  0  0  0  0  0  0  0
   -7.7690   19.8720  -32.7930 C   0  0  0  0  0  0  0  0  0  0  0  0
   -6.9350   18.7840  -32.4900 C   0  0  0  0  0  0  0  0  0  0  0  0
   -7.2610   17.4060  -33.0210 C   0  0  0  0  0  0  0  0  0  0  0  0
   -6.2880   16.9610  -34.0490 N   0  0  0  0  0  0  0  0  0  0  0  0
   -5.2080   16.1690  -33.4100 C   0  0  0  0  0  0  0  0  0  0  0  0
   -3.9530   16.1350  -34.2970 C   0  0  0  0  0  0  0  0  0  0  0  0
   -3.3940   17.4160  -34.5640 O   0  0  0  0  0  0  0  0  0  0  0  0
   -4.3220   18.4820  -34.4230 C   0  0  0  0  0  0  0  0  0  0  0  0
   -5.7520   18.1010  -34.8460 C   0  0  0  0  0  0  0  0  0  0  0  0
   -5.7950   18.9940  -31.6970 C   0  0  0  0  0  0  0  0  0  0  0  0
   -5.4820   20.2760  -31.2350 C   0  0  0  0  0  0  0  0  0  0  0  0
   -3.4740   21.9150  -32.9990 C   0  0  0  0  0  0  0  0  0  0  0  0
   -2.3860   21.1540  -33.4350 C   0  0  0  0  0  0  0  0  0  0  0  0
   -0.4541   20.3161  -32.9187 H   0  0  0  0  0  0  0  0  0  0  0  0
   -0.4892   21.2214  -30.5934 H   0  0  0  0  0  0  0  0  0  0  0  0
   -2.4325   22.5736  -29.8058 H   0  0  0  0  0  0  0  0  0  0  0  0
   -5.1538   26.4022  -30.1079 H   0  0  0  0  0  0  0  0  0  0  0  0
   -7.4652   25.5092  -29.7908 H   0  0  0  0  0  0  0  0  0  0  0  0
   -7.9738   23.1538  -30.4446 H   0  0  0  0  0  0  0  0  0  0  0  0
   -8.1198   21.9967  -32.5703 H   0  0  0  0  0  0  0  0  0  0  0  0
   -8.6740   19.7149  -33.3982 H   0  0  0  0  0  0  0  0  0  0  0  0
   -7.2464   16.6909  -32.1853 H   0  0  0  0  0  0  0  0  0  0  0  0
   -8.2548   17.4496  -33.4906 H   0  0  0  0  0  0  0  0  0  0  0  0
   -6.7820   16.3140  -34.7110 H   0  0  0  0  0  0  0  0  0  0  0  0
   -4.9523   16.6244  -32.4419 H   0  0  0  0  0  0  0  0  0  0  0  0
   -5.5655   15.1384  -33.2680 H   0  0  0  0  0  0  0  0  0  0  0  0
   -3.1902   15.5238  -33.7925 H   0  0  0  0  0  0  0  0  0  0  0  0
   -4.2615   15.7159  -35.2661 H   0  0  0  0  0  0  0  0  0  0  0  0
   -4.3405   18.7921  -33.3678 H   0  0  0  0  0  0  0  0  0  0  0  0
   -3.9902   19.2941  -35.0866 H   0  0  0  0  0  0  0  0  0  0  0  0
   -6.4079   18.9725  -34.7038 H   0  0  0  0  0  0  0  0  0  0  0  0
   -5.7219   17.7918  -35.9012 H   0  0  0  0  0  0  0  0  0  0  0  0
   -5.1449   18.1453  -31.4380 H   0  0  0  0  0  0  0  0  0  0  0  0
   -4.5888   20.4299  -30.6118 H   0  0  0  0  0  0  0  0  0  0  0  0
   -4.3221   22.0945  -33.6761 H   0  0  0  0  0  0  0  0  0  0  0  0
   -2.3740   20.7469  -34.4568 H   0  0  0  0  0  0  0  0  0  0  0  0
  1  2  2  0
  2  3  1  0
  3  4  2  0
  4  5  1  0
  5  6  2  0
  6  7  1  0
  7  8  2  0
  8  9  1  0
  9 10  2  0
 10 11  1  0
 11 12  2  0
 12 13  1  0
 13 14  2  0
 14 15  1  0
 15 16  1  0
 16 17  1  0
 17 18  1  0
 18 19  1  0
 19 20  1  0
 20 21  1  0
 14 22  1  0
 22 23  2  0
  4 24  1  0
 24 25  2  0
 25  1  1  0
 10  5  1  0
 23 11  1  0
 21 16  1  0
  1 26  1  0
  2 27  1  0
  3 28  1  0
  7 29  1  0
  8 30  1  0
  9 31  1  0
 12 32  1  0
 13 33  1  0
 15 34  1  0
 15 35  1  0
 16 36  1  0
 17 37  1  0
 17 38  1  0
 18 39  1  0
 18 40  1  0
 20 41  1  0
 20 42  1  0
 21 43  1  0
 21 44  1  0
 22 45  1  0
 23 46  1  0
 24 47  1  0
 25 48  1  0
M  CHG  1  16   1
M  END
>  <UniqueID>  (10) 
10

>  <SMILES>  (10) 
c1ccc(-c2ncccc2-c2ccc(C[NH+]3CCOCC3)cc2)cc1

>  <Energy>  (10) 
79.16383087264727

>  <Genealogy>  (10) 
c1ccc(-c2ncccc2-c2ccc(C[NH+]3CCOCC3)cc2)cc1 (protonated)
c1ccc(-c2ncccc2-c2ccc(C[NH+]3CCOCC3)cc2)cc1 (3D coordinates assigned)
c1ccc(-c2ncccc2-c2ccc(C[NH+]3CCOCC3)cc2)cc1 (nonaromatic ring conformer: 79.16383087264727 kcal/mol)

>  <smiles>  (10) 
c1ccc(-c2ncccc2-c2ccc(CN3CCOCC3)cc2)cc1

>  <score_type>  (10) 
oracle

>  <origin>  (10) 
adg

>  <m_score__min__energy>  (10) 
-8.2300000000000004

>  <m_primary>  (10) 
energy

$$$$
10:0
     RDKit          3D

 49 51  0  0  0  0  0  0  0  0999 V2000
   -3.9910   19.5670  -31.9430 C   0  0  0  0  0  0  0  0  0  0  0  0
   -5.3230   20.2630  -31.9970 C   0  0  0  0  0  0  0  0  0  0  0  0
   -6.5700   19.6350  -31.9280 C   0  0  0  0  0  0  0  0  0  0  0  0
   -6.8540   18.1520  -31.8950 C   0  0  0  0  0  0  0  0  0  0  0  0
   -7.0420   17.5940  -33.2480 N   0  0  0  0  0  0  0  0  0  0  0  0
   -5.7880   17.1120  -33.8690 C   0  0  0  0  0  0  0  0  0  0  0  0
   -5.2070   18.0990  -34.8950 C   0  0  0  0  0  0  0  0  0  0  0  0
   -3.9930   18.6080  -34.4660 F   0  0  0  0  0  0  0  0  0  0  0  0
   -5.0070   17.4350  -36.0950 F   0  0  0  0  0  0  0  0  0  0  0  0
   -6.0920   19.1450  -35.1090 F   0  0  0  0  0  0  0  0  0  0  0  0
   -7.5010   20.6560  -31.9470 C   0  0  0  0  0  0  0  0  0  0  0  0
   -8.8970   20.6230  -31.8960 C   0  0  0  0  0  0  0  0  0  0  0  0
   -9.5880   21.8460  -31.9130 C   0  0  0  0  0  0  0  0  0  0  0  0
   -8.8800   23.0640  -31.9730 C   0  0  0  0  0  0  0  0  0  0  0  0
   -7.4750   23.0710  -32.0260 C   0  0  0  0  0  0  0  0  0  0  0  0
   -6.8070   21.8400  -32.0260 C   0  0  0  0  0  0  0  0  0  0  0  0
   -5.4750   21.6120  -32.0890 N   0  0  0  0  0  0  0  0  0  0  0  0
   -4.4030   22.6140  -32.1930 C   0  0  0  0  0  0  0  0  0  0  0  0
   -4.4020   23.5690  -31.0210 C   0  0  0  0  0  0  0  0  0  0  0  0
   -4.9670   24.6870  -31.1750 O   0  0  0  0  0  0  0  0  0  0  0  0
   -3.8020   23.2410  -29.7470 N   0  0  0  0  0  0  0  0  0  0  0  0
   -3.2750   24.3240  -28.9080 C   0  0  0  0  0  0  0  0  0  0  0  0
   -3.2970   23.9160  -27.4310 C   0  0  0  0  0  0  0  0  0  0  0  0
   -2.6790   22.6570  -27.2460 O   0  0  0  0  0  0  0  0  0  0  0  0
   -3.4420   21.6590  -27.8920 C   0  0  0  0  0  0  0  0  0  0  0  0
   -3.4230   21.8610  -29.4100 C   0  0  0  0  0  0  0  0  0  0  0  0
   -3.6992   19.4145  -30.8934 H   0  0  0  0  0  0  0  0  0  0  0  0
   -4.0657   18.5927  -32.4480 H   0  0  0  0  0  0  0  0  0  0  0  0
   -3.2338   20.1847  -32.4480 H   0  0  0  0  0  0  0  0  0  0  0  0
   -6.0080   17.6392  -31.4140 H   0  0  0  0  0  0  0  0  0  0  0  0
   -7.7861   17.9974  -31.3317 H   0  0  0  0  0  0  0  0  0  0  0  0
   -7.7170   16.7960  -33.1980 H   0  0  0  0  0  0  0  0  0  0  0  0
   -7.4870   18.3250  -33.8500 H   0  0  0  0  0  0  0  0  0  0  0  0
   -5.0430   16.9522  -33.0757 H   0  0  0  0  0  0  0  0  0  0  0  0
   -6.0234   16.1809  -34.4053 H   0  0  0  0  0  0  0  0  0  0  0  0
   -9.4391   19.6673  -31.8441 H   0  0  0  0  0  0  0  0  0  0  0  0
  -10.6875   21.8535  -31.8793 H   0  0  0  0  0  0  0  0  0  0  0  0
   -9.4311   24.0160  -31.9784 H   0  0  0  0  0  0  0  0  0  0  0  0
   -6.9158   24.0174  -32.0664 H   0  0  0  0  0  0  0  0  0  0  0  0
   -3.4340   22.0945  -32.2281 H   0  0  0  0  0  0  0  0  0  0  0  0
   -4.5747   23.2003  -33.1077 H   0  0  0  0  0  0  0  0  0  0  0  0
   -2.2396   24.5434  -29.2078 H   0  0  0  0  0  0  0  0  0  0  0  0
   -3.9046   25.2162  -29.0407 H   0  0  0  0  0  0  0  0  0  0  0  0
   -2.7585   24.6718  -26.8405 H   0  0  0  0  0  0  0  0  0  0  0  0
   -4.3441   23.8455  -27.1013 H   0  0  0  0  0  0  0  0  0  0  0  0
   -3.0203   20.6713  -27.6538 H   0  0  0  0  0  0  0  0  0  0  0  0
   -4.4818   21.7251  -27.5394 H   0  0  0  0  0  0  0  0  0  0  0  0
   -2.4105   21.6599  -29.7900 H   0  0  0  0  0  0  0  0  0  0  0  0
   -4.1435   21.1697  -29.8715 H   0  0  0  0  0  0  0  0  0  0  0  0
  1  2  1  0
  2  3  2  0
  3  4  1  0
  4  5  1  0
  5  6  1  0
  6  7  1  0
  7  8  1  0
  7  9  1  0
  7 10  1  0
  3 11  1  0
 11 12  2  0
 12 13  1  0
 13 14  2  0
 14 15  1  0
 15 16  2  0
 16 17  1  0
 17 18  1  0
 18 19  1  0
 19 20  2  0
 19 21  1  0
 21 22  1  0
 22 23  1  0
 23 24  1  0
 24 25  1  0
 25 26  1  0
 17  2  1  0
 26 21  1  0
 16 11  1  0
  1 27  1  0
  1 28  1  0
  1 29  1  0
  4 30  1  0
  4 31  1  0
  5 32  1  0
  5 33  1  0
  6 34  1  0
  6 35  1  0
 12 36  1  0
 13 37  1  0
 14 38  1  0
 15 39  1  0
 18 40  1  0
 18 41  1  0
 22 42  1  0
 22 43  1  0
 23 44  1  0
 23 45  1  0
 25 46  1  0
 25 47  1  0
 26 48  1  0
 26 49  1  0
M  CHG  1   5   1
M  END
>  <UniqueID>  (11) 
11

>  <SMILES>  (11) 
Cc1c(C[NH2+]CC(F)(F)F)c2ccccc2n1CC(=O)N1CCOCC1

>  <Energy>  (11) 
84.10408358820645

>  <Genealogy>  (11) 
Cc1c(C[NH2+]CC(F)(F)F)c2ccccc2n1CC(=O)N1CCOCC1 (protonated)
Cc1c(C[NH2+]CC(F)(F)F)c2ccccc2n1CC(=O)N1CCOCC1 (3D coordinates assigned)
Cc1c(C[NH2+]CC(F)(F)F)c2ccccc2n1CC(=O)N1CCOCC1 (nonaromatic ring conformer: 84.10408358820645 kcal/mol)

>  <smiles>  (11) 
Cc1c(CNCC(F)(F)F)c2ccccc2n1CC(=O)N1CCOCC1

>  <score_type>  (11) 
oracle

>  <origin>  (11) 
adg

>  <m_score__min__energy>  (11) 
-6.8300000000000001

>  <m_primary>  (11) 
energy

$$$$
11:0
     RDKit          3D

 62 65  0  0  0  0  0  0  0  0999 V2000
   -5.7480   17.4990  -31.9870 C   0  0  0  0  0  0  0  0  0  0  0  0
   -6.7990   18.5720  -32.1080 C   0  0  0  0  0  0  0  0  0  0  0  0
   -8.1520   18.2240  -31.9500 C   0  0  0  0  0  0  0  0  0  0  0  0
   -9.1490   19.1990  -32.0320 C   0  0  0  0  0  0  0  0  0  0  0  0
   -8.8080   20.5300  -32.2750 C   0  0  0  0  0  0  0  0  0  0  0  0
   -7.4720   20.8890  -32.4520 C   0  0  0  0  0  0  0  0  0  0  0  0
   -6.4610   19.9170  -32.3980 C   0  0  0  0  0  0  0  0  0  0  0  0
   -5.0650   20.3310  -32.6290 C   0  0  0  0  0  0  0  0  0  0  0  0
   -4.2300   19.8100  -33.5980 C   0  0  0  0  0  0  0  0  0  0  0  0
   -3.0310   20.4850  -33.4200 C   0  0  0  0  0  0  0  0  0  0  0  0
   -1.7450   20.2450  -34.1680 C   0  0  0  0  0  0  0  0  0  0  0  0
   -1.3380   18.7580  -34.0970 C   0  0  0  0  0  0  0  0  0  0  0  0
    0.1520   18.5900  -34.4260 C   0  0  0  0  0  0  0  0  0  0  0  0
    1.0430   19.3360  -33.4940 N   0  0  0  0  0  0  0  0  0  0  0  0
    1.7520   18.4450  -32.5490 C   0  0  0  0  0  0  0  0  0  0  0  0
    3.2290   18.8300  -32.4470 C   0  0  0  0  0  0  0  0  0  0  0  0
    3.5300   19.7900  -33.3970 F   0  0  0  0  0  0  0  0  0  0  0  0
    3.4830   19.3490  -31.1900 F   0  0  0  0  0  0  0  0  0  0  0  0
    4.0400   17.7280  -32.6440 F   0  0  0  0  0  0  0  0  0  0  0  0
    0.3780   20.4500  -32.7740 C   0  0  0  0  0  0  0  0  0  0  0  0
   -0.6210   21.1880  -33.6730 C   0  0  0  0  0  0  0  0  0  0  0  0
   -3.1580   21.3430  -32.3900 N   0  0  0  0  0  0  0  0  0  0  0  0
   -4.3870   21.2500  -31.9070 N   0  0  0  0  0  0  0  0  0  0  0  0
   -4.8320   21.9300  -30.6890 C   0  0  0  0  0  0  0  0  0  0  0  0
   -4.1160   23.2720  -30.5090 C   0  0  0  0  0  0  0  0  0  0  0  0
   -4.8540   24.3470  -31.2210 N   0  0  0  0  0  0  0  0  0  0  0  0
   -6.0460   23.8230  -31.9070 C   0  0  0  0  0  0  0  0  0  0  0  0
   -7.2240   23.9350  -30.9450 C   0  0  0  0  0  0  0  0  0  0  0  0
   -6.7650   24.8890  -29.8570 C   0  0  0  0  0  0  0  0  0  0  0  0
   -5.3880   25.3560  -30.2960 C   0  0  0  0  0  0  0  0  0  0  0  0
   -5.5505   17.2974  -30.9238 H   0  0  0  0  0  0  0  0  0  0  0  0
   -6.1047   16.5797  -32.4744 H   0  0  0  0  0  0  0  0  0  0  0  0
   -4.8215   17.8366  -32.4744 H   0  0  0  0  0  0  0  0  0  0  0  0
   -8.4276   17.1761  -31.7604 H   0  0  0  0  0  0  0  0  0  0  0  0
  -10.2046   18.9170  -31.9048 H   0  0  0  0  0  0  0  0  0  0  0  0
   -9.5943   21.2975  -32.3271 H   0  0  0  0  0  0  0  0  0  0  0  0
   -7.2088   21.9412  -32.6352 H   0  0  0  0  0  0  0  0  0  0  0  0
   -4.4630   19.0348  -34.3428 H   0  0  0  0  0  0  0  0  0  0  0  0
   -1.9126   20.4851  -35.2283 H   0  0  0  0  0  0  0  0  0  0  0  0
   -1.5293   18.3788  -33.0823 H   0  0  0  0  0  0  0  0  0  0  0  0
   -1.9297   18.1926  -34.8320 H   0  0  0  0  0  0  0  0  0  0  0  0
    0.4044   17.5207  -34.3713 H   0  0  0  0  0  0  0  0  0  0  0  0
    0.3140   18.9999  -35.4339 H   0  0  0  0  0  0  0  0  0  0  0  0
    1.2874   18.5295  -31.5555 H   0  0  0  0  0  0  0  0  0  0  0  0
    1.6808   17.4109  -32.9171 H   0  0  0  0  0  0  0  0  0  0  0  0
   -0.1581   20.0429  -31.9040 H   0  0  0  0  0  0  0  0  0  0  0  0
    1.1515   21.1662  -32.4597 H   0  0  0  0  0  0  0  0  0  0  0  0
   -1.0724   22.0134  -33.1030 H   0  0  0  0  0  0  0  0  0  0  0  0
   -0.0786   21.5684  -34.5512 H   0  0  0  0  0  0  0  0  0  0  0  0
   -2.4050   21.9500  -31.9920 H   0  0  0  0  0  0  0  0  0  0  0  0
   -5.9157   22.1076  -30.7530 H   0  0  0  0  0  0  0  0  0  0  0  0
   -4.5934   21.2902  -29.8266 H   0  0  0  0  0  0  0  0  0  0  0  0
   -4.0641   23.5152  -29.4375 H   0  0  0  0  0  0  0  0  0  0  0  0
   -3.1012   23.1961  -30.9266 H   0  0  0  0  0  0  0  0  0  0  0  0
   -6.2457   24.4131  -32.8136 H   0  0  0  0  0  0  0  0  0  0  0  0
   -5.8897   22.7751  -32.2029 H   0  0  0  0  0  0  0  0  0  0  0  0
   -8.1071   24.3376  -31.4628 H   0  0  0  0  0  0  0  0  0  0  0  0
   -7.5132   22.9557  -30.5358 H   0  0  0  0  0  0  0  0  0  0  0  0
   -7.4544   25.7423  -29.7754 H   0  0  0  0  0  0  0  0  0  0  0  0
   -6.7411   24.4066  -28.8687 H   0  0  0  0  0  0  0  0  0  0  0  0
   -5.4656   26.3283  -30.8046 H   0  0  0  0  0  0  0  0  0  0  0  0
   -4.7240   25.4754  -29.4272 H   0  0  0  0  0  0  0  0  0  0  0  0
  1  2  1  0
  2  3  2  0
  3  4  1  0
  4  5  2  0
  5  6  1  0
  6  7  2  0
  7  8  1  0
  8  9  2  0
  9 10  1  0
 10 11  1  0
 11 12  1  0
 12 13  1  0
 13 14  1  0
 14 15  1  0
 15 16  1  0
 16 17  1  0
 16 18  1  0
 16 19  1  0
 14 20  1  0
 20 21  1  0
 10 22  2  0
 22 23  1  0
 23 24  1  0
 24 25  1  0
 25 26  1  0
 26 27  1  0
 27 28  1  0
 28 29  1  0
 29 30  1  0
  7  2  1  0
 23  8  1  0
 30 26  1  0
 21 11  1  0
  1 31  1  0
  1 32  1  0
  1 33  1  0
  3 34  1  0
  4 35  1  0
  5 36  1  0
  6 37  1  0
  9 38  1  0
 11 39  1  0
 12 40  1  0
 12 41  1  0
 13 42  1  0
 13 43  1  0
 15 44  1  0
 15 45  1  0
 20 46  1  0
 20 47  1  0
 21 48  1  0
 21 49  1  0
 22 50  1  0
 24 51  1  0
 24 52  1  0
 25 53  1  0
 25 54  1  0
 27 55  1  0
 27 56  1  0
 28 57  1  0
 28 58  1  0
 29 59  1  0
 29 60  1  0
 30 61  1  0
 30 62  1  0
M  CHG  1  22   1
M  END
>  <UniqueID>  (12) 
12

>  <SMILES>  (12) 
Cc1ccccc1-c1cc(C2CCN(CC(F)(F)F)CC2)[nH+]n1CCN1CCCC1

>  <Energy>  (12) 
108.09512222281293

>  <Genealogy>  (12) 
Cc1ccccc1-c1cc(C2CCN(CC(F)(F)F)CC2)[nH+]n1CCN1CCCC1 (protonated)
Cc1ccccc1-c1cc(C2CCN(CC(F)(F)F)CC2)[nH+]n1CCN1CCCC1 (3D coordinates assigned)
Cc1ccccc1-c1cc(C2CCN(CC(F)(F)F)CC2)[nH+]n1CCN1CCCC1 (nonaromatic ring conformer: 108.09512222281293 kcal/mol)

>  <smiles>  (12) 
Cc1ccccc1-c1cc(C2CCN(CC(F)(F)F)CC2)nn1CCN1CCCC1

>  <score_type>  (12) 
oracle

>  <origin>  (12) 
adg

>  <m_score__min__energy>  (12) 
-8.2899999999999991

>  <m_primary>  (12) 
energy

$$$$
12:0
     RDKit          3D

 51 53  0  0  0  0  0  0  0  0999 V2000
   -5.1450   17.9260  -33.8580 C   0  0  0  0  0  0  0  0  0  0  0  0
   -6.0330   19.0020  -34.1410 O   0  0  0  0  0  0  0  0  0  0  0  0
   -6.8980   19.5840  -33.2020 C   0  0  0  0  0  0  0  0  0  0  0  0
   -7.9630   18.8170  -32.7140 C   0  0  0  0  0  0  0  0  0  0  0  0
   -8.8540   19.3520  -31.7820 C   0  0  0  0  0  0  0  0  0  0  0  0
   -8.6890   20.6620  -31.3260 C   0  0  0  0  0  0  0  0  0  0  0  0
   -7.6240   21.4450  -31.7980 C   0  0  0  0  0  0  0  0  0  0  0  0
   -7.4520   22.8650  -31.3290 C   0  0  0  0  0  0  0  0  0  0  0  0
   -6.0310   23.1490  -31.0930 N   0  0  0  0  0  0  0  0  0  0  0  0
   -5.8070   24.0840  -29.9700 C   0  0  2  0  0  0  0  0  0  0  0  0
   -5.5070   25.4660  -30.5430 C   0  0  0  0  0  0  0  0  0  0  0  0
   -4.1080   25.6510  -30.6290 O   0  0  0  0  0  0  0  0  0  0  0  0
   -3.4900   24.5430  -30.0140 C   0  0  0  0  0  0  0  0  0  0  0  0
   -4.5370   23.8300  -29.1740 C   0  0  2  0  0  0  0  0  0  0  0  0
   -4.2350   22.3800  -28.6980 C   0  0  0  0  0  0  0  0  0  0  0  0
   -3.2010   21.6020  -29.4820 C   0  0  0  0  0  0  0  0  0  0  0  0
   -3.2830   21.5160  -30.8810 C   0  0  0  0  0  0  0  0  0  0  0  0
   -2.3520   20.7610  -31.6110 C   0  0  0  0  0  0  0  0  0  0  0  0
   -2.4170   20.7290  -33.1180 C   0  0  0  0  0  0  0  0  0  0  0  0
   -2.4750   19.4230  -33.5760 F   0  0  0  0  0  0  0  0  0  0  0  0
   -3.5480   21.4030  -33.5390 F   0  0  0  0  0  0  0  0  0  0  0  0
   -1.3010   21.3310  -33.6730 F   0  0  0  0  0  0  0  0  0  0  0  0
   -1.3120   20.1090  -30.9280 C   0  0  0  0  0  0  0  0  0  0  0  0
   -1.2220   20.1730  -29.5280 C   0  0  0  0  0  0  0  0  0  0  0  0
   -0.1510   19.4050  -28.7960 C   0  0  0  0  0  0  0  0  0  0  0  0
    0.6230   18.6760  -29.6830 F   0  0  0  0  0  0  0  0  0  0  0  0
   -0.7140   18.5210  -27.8900 F   0  0  0  0  0  0  0  0  0  0  0  0
    0.6610   20.2920  -28.1140 F   0  0  0  0  0  0  0  0  0  0  0  0
   -2.1960   20.8870  -28.8110 C   0  0  0  0  0  0  0  0  0  0  0  0
   -6.7330   20.9040  -32.7380 C   0  0  0  0  0  0  0  0  0  0  0  0
   -5.0475   17.8079  -32.7687 H   0  0  0  0  0  0  0  0  0  0  0  0
   -5.5434   16.9977  -34.2933 H   0  0  0  0  0  0  0  0  0  0  0  0
   -4.1579   18.1410  -34.2933 H   0  0  0  0  0  0  0  0  0  0  0  0
   -8.0987   17.7844  -33.0680 H   0  0  0  0  0  0  0  0  0  0  0  0
   -9.6877   18.7408  -31.4059 H   0  0  0  0  0  0  0  0  0  0  0  0
   -9.3958   21.0812  -30.5948 H   0  0  0  0  0  0  0  0  0  0  0  0
   -7.8376   23.5513  -32.0973 H   0  0  0  0  0  0  0  0  0  0  0  0
   -8.0081   23.0043  -30.3902 H   0  0  0  0  0  0  0  0  0  0  0  0
   -5.4930   22.2620  -30.9830 H   0  0  0  0  0  0  0  0  0  0  0  0
   -6.7061   23.9756  -29.3456 H   0  0  0  0  0  0  0  0  0  0  0  0
   -5.9496   25.5501  -31.5465 H   0  0  0  0  0  0  0  0  0  0  0  0
   -5.9371   26.2353  -29.8848 H   0  0  0  0  0  0  0  0  0  0  0  0
   -3.0984   23.8597  -30.7820 H   0  0  0  0  0  0  0  0  0  0  0  0
   -2.6524   24.8736  -29.3822 H   0  0  0  0  0  0  0  0  0  0  0  0
   -4.6003   24.2237  -28.1488 H   0  0  0  0  0  0  0  0  0  0  0  0
   -3.8870   22.4383  -27.6561 H   0  0  0  0  0  0  0  0  0  0  0  0
   -5.1766   21.8298  -28.8418 H   0  0  0  0  0  0  0  0  0  0  0  0
   -4.0870   22.0471  -31.4116 H   0  0  0  0  0  0  0  0  0  0  0  0
   -0.5598   19.5420  -31.4960 H   0  0  0  0  0  0  0  0  0  0  0  0
   -2.1712   20.8861  -27.7113 H   0  0  0  0  0  0  0  0  0  0  0  0
   -5.8998   21.5151  -33.1152 H   0  0  0  0  0  0  0  0  0  0  0  0
  1  2  1  0
  2  3  1  0
  3  4  2  0
  4  5  1  0
  5  6  2  0
  6  7  1  0
  7  8  1  0
  8  9  1  0
  9 10  1  0
 10 11  1  0
 11 12  1  0
 12 13  1  0
 13 14  1  0
 14 15  1  0
 15 16  1  0
 16 17  2  0
 17 18  1  0
 18 19  1  0
 19 20  1  0
 19 21  1  0
 19 22  1  0
 18 23  2  0
 23 24  1  0
 24 25  1  0
 25 26  1  0
 25 27  1  0
 25 28  1  0
 24 29  2  0
  7 30  2  0
 30  3  1  0
 14 10  1  0
 29 16  1  0
  1 31  1  0
  1 32  1  0
  1 33  1  0
  4 34  1  0
  5 35  1  0
  6 36  1  0
  8 37  1  0
  8 38  1  0
  9 39  1  0
 10 40  1  1
 11 41  1  0
 11 42  1  0
 13 43  1  0
 13 44  1  0
 14 45  1  1
 15 46  1  0
 15 47  1  0
 17 48  1  0
 23 49  1  0
 29 50  1  0
 30 51  1  0
M  END
>  <UniqueID>  (13) 
13

>  <SMILES>  (13) 
COc1cccc(CN[C@@H]2COC[C@@H]2Cc2cc(C(F)(F)F)cc(C(F)(F)F)c2)c1

>  <Energy>  (13) 
62.36926799976204

>  <Genealogy>  (13) 
COc1cccc(CN[C@@H]2COC[C@@H]2Cc2cc(C(F)(F)F)cc(C(F)(F)F)c2)c1 (chirality)
COc1cccc(CN[C@@H]2COC[C@@H]2Cc2cc(C(F)(F)F)cc(C(F)(F)F)c2)c1 (3D coordinates assigned)
COc1cccc(CN[C@@H]2COC[C@@H]2Cc2cc(C(F)(F)F)cc(C(F)(F)F)c2)c1 (nonaromatic ring conformer: 62.36926799976204 kcal/mol)

>  <smiles>  (13) 
COc1cccc(CNC2COCC2Cc2cc(C(F)(F)F)cc(C(F)(F)F)c2)c1

>  <score_type>  (13) 
oracle

>  <origin>  (13) 
adg

>  <m_score__min__energy>  (13) 
-9.0999999999999996

>  <m_primary>  (13) 
energy

$$$$
13:0
     RDKit          3D

 38 40  0  0  0  0  0  0  0  0999 V2000
   -3.8150   24.9340  -26.4340 C   0  0  0  0  0  0  0  0  0  0  0  0
   -2.3360   25.2700  -26.3300 C   0  0  0  0  0  0  0  0  0  0  0  0
   -1.8650   25.8120  -27.5980 N   0  0  0  0  0  0  0  0  0  0  0  0
   -1.6440   25.0120  -28.7640 C   0  0  0  0  0  0  0  0  0  0  0  0
   -0.4930   24.9700  -29.2720 O   0  0  0  0  0  0  0  0  0  0  0  0
   -2.7040   24.2360  -29.3370 N   0  0  0  0  0  0  0  0  0  0  0  0
   -2.4940   22.8110  -29.5950 C   0  0  0  0  0  0  0  0  0  0  0  0
   -3.8070   22.0450  -29.4150 C   0  0  0  0  0  0  0  0  0  0  0  0
   -4.9070   22.7280  -30.1110 N   0  0  0  0  0  0  0  0  0  0  0  0
   -5.9740   21.9620  -30.7030 C   0  0  0  0  0  0  0  0  0  0  0  0
   -5.8300   20.6880  -31.1540 N   0  0  0  0  0  0  0  0  0  0  0  0
   -6.9880   20.2070  -31.6760 C   0  0  0  0  0  0  0  0  0  0  0  0
   -7.1520   18.9270  -32.2110 C   0  0  0  0  0  0  0  0  0  0  0  0
   -8.4120   18.5630  -32.7170 C   0  0  0  0  0  0  0  0  0  0  0  0
   -9.4870   19.4730  -32.6800 C   0  0  0  0  0  0  0  0  0  0  0  0
   -9.3110   20.7570  -32.1380 C   0  0  0  0  0  0  0  0  0  0  0  0
   -8.0540   21.0940  -31.6450 C   0  0  0  0  0  0  0  0  0  0  0  0
   -7.5540   22.5350  -30.9420 S   0  0  0  0  0  0  0  0  0  0  0  0
   -5.0890   24.1680  -29.8730 C   0  0  0  0  0  0  0  0  0  0  0  0
   -3.7710   24.9100  -30.0780 C   0  0  0  0  0  0  0  0  0  0  0  0
   -4.2409   24.8372  -25.4244 H   0  0  0  0  0  0  0  0  0  0  0  0
   -4.3361   25.7366  -26.9764 H   0  0  0  0  0  0  0  0  0  0  0  0
   -3.9382   23.9850  -26.9764 H   0  0  0  0  0  0  0  0  0  0  0  0
   -2.1854   26.0155  -25.5353 H   0  0  0  0  0  0  0  0  0  0  0  0
   -1.7709   24.3568  -26.0919 H   0  0  0  0  0  0  0  0  0  0  0  0
   -2.1329   22.6771  -30.6254 H   0  0  0  0  0  0  0  0  0  0  0  0
   -1.7499   22.4222  -28.8843 H   0  0  0  0  0  0  0  0  0  0  0  0
   -3.6931   21.0315  -29.8271 H   0  0  0  0  0  0  0  0  0  0  0  0
   -4.0437   21.9965  -28.3419 H   0  0  0  0  0  0  0  0  0  0  0  0
   -4.9500   20.1300  -31.0890 H   0  0  0  0  0  0  0  0  0  0  0  0
   -6.3116   18.2177  -32.2358 H   0  0  0  0  0  0  0  0  0  0  0  0
   -8.5597   17.5605  -33.1449 H   0  0  0  0  0  0  0  0  0  0  0  0
  -10.4689   19.1766  -33.0775 H   0  0  0  0  0  0  0  0  0  0  0  0
  -10.1431   21.4756  -32.1042 H   0  0  0  0  0  0  0  0  0  0  0  0
   -5.8391   24.5599  -30.5757 H   0  0  0  0  0  0  0  0  0  0  0  0
   -5.4273   24.3193  -28.8373 H   0  0  0  0  0  0  0  0  0  0  0  0
   -3.5210   24.9218  -31.1491 H   0  0  0  0  0  0  0  0  0  0  0  0
   -3.8734   25.9418  -29.7107 H   0  0  0  0  0  0  0  0  0  0  0  0
  1  2  1  0
  2  3  1  0
  3  4  1  0
  4  5  2  0
  4  6  1  0
  6  7  1  0
  7  8  1  0
  8  9  1  0
  9 10  1  0
 10 11  2  0
 11 12  1  0
 12 13  2  0
 13 14  1  0
 14 15  2  0
 15 16  1  0
 16 17  2  0
 17 18  1  0
  9 19  1  0
 19 20  1  0
 20  6  1  0
 18 10  1  0
 17 12  1  0
  1 21  1  0
  1 22  1  0
  1 23  1  0
  2 24  1  0
  2 25  1  0
  7 26  1  0
  7 27  1  0
  8 28  1  0
  8 29  1  0
 11 30  1  0
 13 31  1  0
 14 32  1  0
 15 33  1  0
 16 34  1  0
 19 35  1  0
 19 36  1  0
 20 37  1  0
 20 38  1  0
M  CHG  2   3  -1  11   1
M  END
>  <UniqueID>  (14) 
14

>  <SMILES>  (14) 
CC[N-]C(=O)N1CCN(c2[nH+]c3ccccc3s2)CC1

>  <Energy>  (14) 
73.35982163055218

>  <Genealogy>  (14) 
CC[N-]C(=O)N1CCN(c2[nH+]c3ccccc3s2)CC1 (protonated)
CC[N-]C(=O)N1CCN(c2[nH+]c3ccccc3s2)CC1 (3D coordinates assigned)
CC[N-]C(=O)N1CCN(c2[nH+]c3ccccc3s2)CC1 (nonaromatic ring conformer: 73.35982163055218 kcal/mol)

>  <smiles>  (14) 
CCNC(=O)N1CCN(c2nc3ccccc3s2)CC1

>  <score_type>  (14) 
oracle

>  <origin>  (14) 
adg

>  <m_score__min__energy>  (14) 
-6.8899999999999997

>  <m_primary>  (14) 
energy

$$$$
14:0
     RDKit          3D

 50 54  0  0  0  0  0  0  0  0999 V2000
   -7.0479   16.2828  -34.6630 H   0  0  0  0  0  0  0  0  0  0  0  0
   -6.4980   17.0600  -34.1120 C   0  0  0  0  0  0  0  0  0  0  0  0
   -7.0320   17.5810  -32.9120 C   0  0  0  0  0  0  0  0  0  0  0  0
   -7.9920   17.2018  -32.5318 H   0  0  0  0  0  0  0  0  0  0  0  0
   -6.3450   18.5810  -32.2000 C   0  0  0  0  0  0  0  0  0  0  0  0
   -6.7575   19.0061  -31.2731 H   0  0  0  0  0  0  0  0  0  0  0  0
   -5.1190   19.0150  -32.7130 C   0  0  0  0  0  0  0  0  0  0  0  0
   -4.5990   18.5000  -33.8660 C   0  0  0  0  0  0  0  0  0  0  0  0
   -3.4230   19.0860  -34.1580 N   0  0  0  0  0  0  0  0  0  0  0  0
   -3.2610   19.9720  -33.1420 C   0  0  0  0  0  0  0  0  0  0  0  0
   -2.3888   20.6363  -33.0527 H   0  0  0  0  0  0  0  0  0  0  0  0
   -4.2810   19.9570  -32.2480 N   0  0  0  0  0  0  0  0  0  0  0  0
   -4.4470   20.8570  -31.1070 C   0  0  0  0  0  0  0  0  0  0  0  0
   -4.8456   20.2892  -30.2533 H   0  0  0  0  0  0  0  0  0  0  0  0
   -5.1437   21.6609  -31.3869 H   0  0  0  0  0  0  0  0  0  0  0  0
   -3.1330   21.4670  -30.7230 C   0  0  0  0  0  0  0  0  0  0  0  0
   -2.3800   22.1990  -31.5670 N   0  0  0  0  0  0  0  0  0  0  0  0
   -1.2940   22.5650  -30.9010 N   0  0  0  0  0  0  0  0  0  0  0  0
   -1.3970   22.0410  -29.6660 C   0  0  0  0  0  0  0  0  0  0  0  0
   -0.1580   22.2820  -28.3870 S   0  0  0  0  0  0  0  0  0  0  0  0
   -0.0920   24.0950  -28.5790 C   0  0  0  0  0  0  0  0  0  0  0  0
    0.0133   24.3394  -29.6463 H   0  0  0  0  0  0  0  0  0  0  0  0
    0.7679   24.4752  -28.0080 H   0  0  0  0  0  0  0  0  0  0  0  0
   -1.3340   24.7390  -28.0510 C   0  0  0  0  0  0  0  0  0  0  0  0
   -1.5360   24.7620  -26.8080 O   0  0  0  0  0  0  0  0  0  0  0  0
   -2.2890   25.2780  -28.9780 N   0  0  0  0  0  0  0  0  0  0  0  0
   -3.4090   24.7390  -29.3630 C   0  0  0  0  0  0  0  0  0  0  0  0
   -3.8710   24.8920  -30.6270 N   0  0  0  0  0  0  0  0  0  0  0  0
   -5.0350   24.2190  -30.8040 C   0  0  0  0  0  0  0  0  0  0  0  0
   -5.7410   24.1690  -32.0070 C   0  0  0  0  0  0  0  0  0  0  0  0
   -5.3703   24.6995  -32.8965 H   0  0  0  0  0  0  0  0  0  0  0  0
   -6.9350   23.4280  -32.0610 C   0  0  0  0  0  0  0  0  0  0  0  0
   -7.5005   23.3747  -33.0030 H   0  0  0  0  0  0  0  0  0  0  0  0
   -7.4180   22.7480  -30.9120 C   0  0  0  0  0  0  0  0  0  0  0  0
   -8.6130   22.0140  -30.9230 O   0  0  0  0  0  0  0  0  0  0  0  0
   -8.9230   21.0000  -31.8720 C   0  0  0  0  0  0  0  0  0  0  0  0
   -9.2051   20.0773  -31.3437 H   0  0  0  0  0  0  0  0  0  0  0  0
   -9.7607   21.3320  -32.5029 H   0  0  0  0  0  0  0  0  0  0  0  0
   -8.0429   20.8068  -32.5029 H   0  0  0  0  0  0  0  0  0  0  0  0
   -6.6850   22.8080  -29.7130 C   0  0  0  0  0  0  0  0  0  0  0  0
   -7.0369   22.2831  -28.8127 H   0  0  0  0  0  0  0  0  0  0  0  0
   -5.5060   23.5450  -29.6900 C   0  0  0  0  0  0  0  0  0  0  0  0
   -4.4400   23.7750  -28.4150 S   0  0  0  0  0  0  0  0  0  0  0  0
   -2.5430   21.3470  -29.5160 N   0  0  0  0  0  0  0  0  0  0  0  0
   -3.0170   20.6060  -28.3500 C   0  0  0  0  0  0  0  0  0  0  0  0
   -2.6899   21.1174  -27.4327 H   0  0  0  0  0  0  0  0  0  0  0  0
   -4.1157   20.5552  -28.3696 H   0  0  0  0  0  0  0  0  0  0  0  0
   -2.6025   19.5873  -28.3696 H   0  0  0  0  0  0  0  0  0  0  0  0
   -5.2680   17.5290  -34.6060 C   0  0  0  0  0  0  0  0  0  0  0  0
   -4.8482   17.1415  -35.5460 H   0  0  0  0  0  0  0  0  0  0  0  0
  1  2  1  0
  2  3  2  0
  3  4  1  0
  3  5  1  0
  5  6  1  0
  5  7  2  0
  7  8  1  0
  8  9  1  0
  9 10  2  0
 10 11  1  0
 10 12  1  0
 12 13  1  0
 13 14  1  0
 13 15  1  0
 13 16  1  0
 16 17  2  0
 17 18  1  0
 18 19  2  0
 19 20  1  0
 20 21  1  0
 21 22  1  0
 21 23  1  0
 21 24  1  0
 24 25  2  0
 24 26  1  0
 26 27  2  0
 27 28  1  0
 28 29  1  0
 29 30  2  0
 30 31  1  0
 30 32  1  0
 32 33  1  0
 32 34  2  0
 34 35  1  0
 35 36  1  0
 36 37  1  0
 36 38  1  0
 36 39  1  0
 34 40  1  0
 40 41  1  0
 40 42  2  0
 42 43  1  0
 19 44  1  0
 44 45  1  0
 45 46  1  0
 45 47  1  0
 45 48  1  0
  8 49  2  0
 49 50  1  0
 49  2  1  0
 12  7  1  0
 44 16  1  0
 43 27  1  0
 42 29  1  0
M  CHG  1  28  -1
M  END
>  <UniqueID>  (15) 
15

>  <SMILES>  (15) 
COc1ccc2[n-]/c(=N/C(=O)CSc3nnc(Cn4cnc5ccccc54)n3C)sc2c1

>  <Energy>  (15) 
151.47889593629552

>  <Genealogy>  (15) 
COc1ccc2[n-]c(=NC(=O)CSc3nnc(Cn4cnc5ccccc54)n3C)sc2c1 (protonated)
COc1ccc2[n-]/c(=N/C(=O)CSc3nnc(Cn4cnc5ccccc54)n3C)sc2c1 (cis-trans isomerization)
COc1ccc2[n-]/c(=N/C(=O)CSc3nnc(Cn4cnc5ccccc54)n3C)sc2c1 (3D coordinates assigned)
COc1ccc2[n-]/c(=N/C(=O)CSc3nnc(Cn4cnc5ccccc54)n3C)sc2c1 (optimized conformer: 151.47889593629552 kcal/mol)

>  <smiles>  (15) 
COc1ccc2[nH]c(=NC(=O)CSc3nnc(Cn4cnc5ccccc54)n3C)sc2c1

>  <score_type>  (15) 
oracle

>  <origin>  (15) 
adg

>  <m_score__min__energy>  (15) 
-10.82

>  <m_primary>  (15) 
energy

$$$$
15:0
     RDKit          3D

 66 69  0  0  0  0  0  0  0  0999 V2000
   -1.2070   26.1150  -26.9380 C   0  0  0  0  0  0  0  0  0  0  0  0
   -1.1870   25.6800  -28.2010 C   0  0  0  0  0  0  0  0  0  0  0  0
   -1.2970   24.2190  -28.5350 C   0  0  0  0  0  0  0  0  0  0  0  0
   -2.6340   23.9140  -29.1560 C   0  0  0  0  0  0  0  0  0  0  0  0
   -2.7110   23.4070  -30.4630 C   0  0  0  0  0  0  0  0  0  0  0  0
   -3.9540   23.1690  -31.0560 C   0  0  0  0  0  0  0  0  0  0  0  0
   -5.1430   23.4410  -30.3570 C   0  0  0  0  0  0  0  0  0  0  0  0
   -6.4690   23.2120  -30.9790 C   0  0  0  0  0  0  0  0  0  0  0  0
   -7.3900   22.2210  -30.6720 C   0  0  0  0  0  0  0  0  0  0  0  0
   -8.4250   22.3980  -31.5100 N   0  0  0  0  0  0  0  0  0  0  0  0
   -9.6020   21.5440  -31.6350 C   0  0  0  0  0  0  0  0  0  0  0  0
   -9.2540   20.2880  -32.4440 C   0  0  0  0  0  0  0  0  0  0  0  0
   -8.5800   19.2010  -31.5930 C   0  0  0  0  0  0  0  0  0  0  0  0
   -7.7990   18.1810  -32.4540 C   0  0  0  0  0  0  0  0  0  0  0  0
   -6.6110   18.7550  -33.1220 N   0  0  0  0  0  0  0  0  0  0  0  0
   -5.4680   17.8210  -33.2010 C   0  0  0  0  0  0  0  0  0  0  0  0
   -4.2450   18.5060  -33.8130 C   0  0  0  0  0  0  0  0  0  0  0  0
   -3.8900   19.7050  -33.0400 N   0  0  0  0  0  0  0  0  0  0  0  0
   -2.5280   20.1750  -33.0260 C   0  0  0  0  0  0  0  0  0  0  0  0
   -1.8360   20.3420  -34.2400 C   0  0  0  0  0  0  0  0  0  0  0  0
   -0.5230   20.8130  -34.2480 C   0  0  0  0  0  0  0  0  0  0  0  0
    0.1170   21.1210  -33.0490 C   0  0  0  0  0  0  0  0  0  0  0  0
   -0.5520   20.9540  -31.8350 C   0  0  0  0  0  0  0  0  0  0  0  0
   -1.8780   20.4730  -31.8090 C   0  0  0  0  0  0  0  0  0  0  0  0
   -2.5630   20.2640  -30.6030 O   0  0  0  0  0  0  0  0  0  0  0  0
   -1.9940   20.4390  -29.3090 C   0  0  0  0  0  0  0  0  0  0  0  0
   -4.8730   20.2800  -32.1120 C   0  0  0  0  0  0  0  0  0  0  0  0
   -6.2870   20.1410  -32.6910 C   0  0  0  0  0  0  0  0  0  0  0  0
   -8.1470   23.4260  -32.2940 N   0  0  0  0  0  0  0  0  0  0  0  0
   -6.9670   23.9470  -31.9990 N   0  0  0  0  0  0  0  0  0  0  0  0
   -5.0610   23.9510  -29.0500 C   0  0  0  0  0  0  0  0  0  0  0  0
   -3.8180   24.1900  -28.4570 C   0  0  0  0  0  0  0  0  0  0  0  0
   -1.1245   27.1911  -26.7256 H   0  0  0  0  0  0  0  0  0  0  0  0
   -1.3060   25.3970  -26.1105 H   0  0  0  0  0  0  0  0  0  0  0  0
   -1.0874   26.4102  -29.0176 H   0  0  0  0  0  0  0  0  0  0  0  0
   -0.4999   23.9496  -29.2436 H   0  0  0  0  0  0  0  0  0  0  0  0
   -1.1966   23.6358  -27.6077 H   0  0  0  0  0  0  0  0  0  0  0  0
   -1.7882   23.1960  -31.0232 H   0  0  0  0  0  0  0  0  0  0  0  0
   -4.0024   22.7655  -32.0782 H   0  0  0  0  0  0  0  0  0  0  0  0
   -7.2924   21.4458  -29.8977 H   0  0  0  0  0  0  0  0  0  0  0  0
   -9.9459   21.2484  -30.6328 H   0  0  0  0  0  0  0  0  0  0  0  0
  -10.3979   22.0989  -32.1533 H   0  0  0  0  0  0  0  0  0  0  0  0
  -10.1807   19.8765  -32.8706 H   0  0  0  0  0  0  0  0  0  0  0  0
   -8.5415   20.5851  -33.2277 H   0  0  0  0  0  0  0  0  0  0  0  0
   -7.8806   19.6824  -30.8936 H   0  0  0  0  0  0  0  0  0  0  0  0
   -9.3706   18.6542  -31.0582 H   0  0  0  0  0  0  0  0  0  0  0  0
   -7.4681   17.3582  -31.8033 H   0  0  0  0  0  0  0  0  0  0  0  0
   -8.4809   17.8399  -33.2469 H   0  0  0  0  0  0  0  0  0  0  0  0
   -5.2167   17.4728  -32.1883 H   0  0  0  0  0  0  0  0  0  0  0  0
   -5.7516   16.9716  -33.8398 H   0  0  0  0  0  0  0  0  0  0  0  0
   -3.3964   17.8061  -33.8068 H   0  0  0  0  0  0  0  0  0  0  0  0
   -4.4814   18.8035  -34.8453 H   0  0  0  0  0  0  0  0  0  0  0  0
   -2.3344   20.0992  -35.1901 H   0  0  0  0  0  0  0  0  0  0  0  0
    0.0082   20.9415  -35.2026 H   0  0  0  0  0  0  0  0  0  0  0  0
    1.1509   21.4963  -33.0591 H   0  0  0  0  0  0  0  0  0  0  0  0
   -0.0415   21.1992  -30.8920 H   0  0  0  0  0  0  0  0  0  0  0  0
   -2.7481   20.2071  -28.5425 H   0  0  0  0  0  0  0  0  0  0  0  0
   -1.1332   19.7641  -29.1926 H   0  0  0  0  0  0  0  0  0  0  0  0
   -1.6613   21.4810  -29.1926 H   0  0  0  0  0  0  0  0  0  0  0  0
   -4.8196   19.7490  -31.1502 H   0  0  0  0  0  0  0  0  0  0  0  0
   -4.6476   21.3463  -31.9631 H   0  0  0  0  0  0  0  0  0  0  0  0
   -7.0113   20.4459  -31.9213 H   0  0  0  0  0  0  0  0  0  0  0  0
   -6.3384   20.7810  -33.5841 H   0  0  0  0  0  0  0  0  0  0  0  0
   -8.7650   23.7750  -33.0600 H   0  0  0  0  0  0  0  0  0  0  0  0
   -5.9829   24.1639  -28.4889 H   0  0  0  0  0  0  0  0  0  0  0  0
   -3.7682   24.5969  -27.4362 H   0  0  0  0  0  0  0  0  0  0  0  0
  1  2  2  0
  2  3  1  0
  3  4  1  0
  4  5  2  0
  5  6  1  0
  6  7  2  0
  7  8  1  0
  8  9  2  0
  9 10  1  0
 10 11  1  0
 11 12  1  0
 12 13  1  0
 13 14  1  0
 14 15  1  0
 15 16  1  0
 16 17  1  0
 17 18  1  0
 18 19  1  0
 19 20  2  0
 20 21  1  0
 21 22  2  0
 22 23  1  0
 23 24  2  0
 24 25  1  0
 25 26  1  0
 18 27  1  0
 27 28  1  0
 10 29  1  0
 29 30  2  0
  7 31  1  0
 31 32  2  0
 32  4  1  0
 30  8  1  0
 28 15  1  0
 24 19  1  0
  1 33  1  0
  1 34  1  0
  2 35  1  0
  3 36  1  0
  3 37  1  0
  5 38  1  0
  6 39  1  0
  9 40  1  0
 11 41  1  0
 11 42  1  0
 12 43  1  0
 12 44  1  0
 13 45  1  0
 13 46  1  0
 14 47  1  0
 14 48  1  0
 16 49  1  0
 16 50  1  0
 17 51  1  0
 17 52  1  0
 20 53  1  0
 21 54  1  0
 22 55  1  0
 23 56  1  0
 26 57  1  0
 26 58  1  0
 26 59  1  0
 27 60  1  0
 27 61  1  0
 28 62  1  0
 28 63  1  0
 29 64  1  0
 31 65  1  0
 32 66  1  0
M  CHG  1  29   1
M  END
>  <UniqueID>  (16) 
16

>  <SMILES>  (16) 
C=CCc1ccc(-c2cn(CCCCN3CCN(c4ccccc4OC)CC3)[nH+]n2)cc1

>  <Energy>  (16) 
109.63263342864781

>  <Genealogy>  (16) 
C=CCc1ccc(-c2cn(CCCCN3CCN(c4ccccc4OC)CC3)[nH+]n2)cc1 (protonated)
C=CCc1ccc(-c2cn(CCCCN3CCN(c4ccccc4OC)CC3)[nH+]n2)cc1 (3D coordinates assigned)
C=CCc1ccc(-c2cn(CCCCN3CCN(c4ccccc4OC)CC3)[nH+]n2)cc1 (nonaromatic ring conformer: 109.63263342864781 kcal/mol)

>  <smiles>  (16) 
C=CCc1ccc(-c2cn(CCCCN3CCN(c4ccccc4OC)CC3)nn2)cc1

>  <score_type>  (16) 
oracle

>  <origin>  (16) 
adg

>  <m_score__min__energy>  (16) 
-9.5

>  <m_primary>  (16) 
energy

$$$$
16:0
     RDKit          3D

 37 38  0  0  0  0  0  0  0  0999 V2000
   -5.0780   20.0390  -32.1700 C   0  0  0  0  0  0  0  0  0  0  0  0
   -6.2160   20.5300  -33.0580 C   0  0  0  0  0  0  0  0  0  0  0  0
   -7.2740   21.1400  -32.2470 N   0  0  0  0  0  0  0  0  0  0  0  0
   -8.3880   20.5570  -31.7590 C   0  0  0  0  0  0  0  0  0  0  0  0
   -8.7690   19.1160  -31.9210 C   0  0  0  0  0  0  0  0  0  0  0  0
   -9.5520   18.9650  -33.0700 O   0  0  0  0  0  0  0  0  0  0  0  0
   -9.1470   21.5210  -31.1330 C   0  0  0  0  0  0  0  0  0  0  0  0
   -8.5200   22.7120  -31.2200 N   0  0  0  0  0  0  0  0  0  0  0  0
   -7.3870   22.4430  -31.9010 C   0  0  0  0  0  0  0  0  0  0  0  0
   -6.1820   23.7090  -32.3190 S   0  0  0  0  0  0  0  0  0  0  0  0
   -6.1500   24.4470  -30.6470 C   0  0  0  0  0  0  0  0  0  0  0  0
   -5.2350   25.6700  -30.5670 C   0  0  0  0  0  0  0  0  0  0  0  0
   -3.8630   25.2780  -30.4720 O   0  0  0  0  0  0  0  0  0  0  0  0
   -3.3670   24.1050  -29.8770 C   0  0  0  0  0  0  0  0  0  0  0  0
   -3.0450   23.0300  -30.7170 C   0  0  0  0  0  0  0  0  0  0  0  0
   -2.5490   21.8360  -30.1860 C   0  0  0  0  0  0  0  0  0  0  0  0
   -2.3760   21.7020  -28.8080 C   0  0  0  0  0  0  0  0  0  0  0  0
   -2.7010   22.7620  -27.9580 C   0  0  0  0  0  0  0  0  0  0  0  0
   -3.1980   23.9580  -28.4840 C   0  0  0  0  0  0  0  0  0  0  0  0
   -5.3589   20.1602  -31.1134 H   0  0  0  0  0  0  0  0  0  0  0  0
   -4.8828   18.9766  -32.3780 H   0  0  0  0  0  0  0  0  0  0  0  0
   -4.1712   20.6259  -32.3780 H   0  0  0  0  0  0  0  0  0  0  0  0
   -5.8265   21.2766  -33.7657 H   0  0  0  0  0  0  0  0  0  0  0  0
   -6.6362   19.6726  -33.6041 H   0  0  0  0  0  0  0  0  0  0  0  0
   -7.8592   18.5049  -32.0149 H   0  0  0  0  0  0  0  0  0  0  0  0
   -9.3429   18.7884  -31.0417 H   0  0  0  0  0  0  0  0  0  0  0  0
   -9.0480   19.3990  -33.8050 H   0  0  0  0  0  0  0  0  0  0  0  0
  -10.1142   21.3466  -30.6389 H   0  0  0  0  0  0  0  0  0  0  0  0
   -7.1715   24.7517  -30.3757 H   0  0  0  0  0  0  0  0  0  0  0  0
   -5.7579   23.6888  -29.9531 H   0  0  0  0  0  0  0  0  0  0  0  0
   -5.3726   26.2819  -31.4707 H   0  0  0  0  0  0  0  0  0  0  0  0
   -5.4980   26.2463  -29.6677 H   0  0  0  0  0  0  0  0  0  0  0  0
   -3.1839   23.1270  -31.8039 H   0  0  0  0  0  0  0  0  0  0  0  0
   -2.2947   21.0009  -30.8553 H   0  0  0  0  0  0  0  0  0  0  0  0
   -1.9840   20.7625  -28.3912 H   0  0  0  0  0  0  0  0  0  0  0  0
   -2.5654   22.6552  -26.8716 H   0  0  0  0  0  0  0  0  0  0  0  0
   -3.4582   24.7872  -27.8097 H   0  0  0  0  0  0  0  0  0  0  0  0
  1  2  1  0
  2  3  1  0
  3  4  1  0
  4  5  1  0
  5  6  1  0
  4  7  2  0
  7  8  1  0
  8  9  2  0
  9 10  1  0
 10 11  1  0
 11 12  1  0
 12 13  1  0
 13 14  1  0
 14 15  2  0
 15 16  1  0
 16 17  2  0
 17 18  1  0
 18 19  2  0
  9  3  1  0
 19 14  1  0
  1 20  1  0
  1 21  1  0
  1 22  1  0
  2 23  1  0
  2 24  1  0
  5 25  1  0
  5 26  1  0
  6 27  1  0
  7 28  1  0
 11 29  1  0
 11 30  1  0
 12 31  1  0
 12 32  1  0
 15 33  1  0
 16 34  1  0
 17 35  1  0
 18 36  1  0
 19 37  1  0
M  END
>  <UniqueID>  (17) 
17

>  <SMILES>  (17) 
CCn1c(CO)cnc1SCCOc1ccccc1

>  <Energy>  (17) 
58.897357282572834

>  <Genealogy>  (17) 
CCn1c(CO)cnc1SCCOc1ccccc1 (3D coordinates assigned)
CCn1c(CO)cnc1SCCOc1ccccc1 (optimized conformer: 58.897357282572834 kcal/mol)

>  <smiles>  (17) 
CCn1c(CO)cnc1SCCOc1ccccc1

>  <score_type>  (17) 
oracle

>  <origin>  (17) 
adg

>  <m_score__min__energy>  (17) 
-7.0999999999999996

>  <m_primary>  (17) 
energy

$$$$
17:0
     RDKit          3D

 35 37  0  0  0  0  0  0  0  0999 V2000
    1.2180   24.4760  -26.9930 C   0  0  0  0  0  0  0  0  0  0  0  0
    0.4350   24.5600  -28.1790 O   0  0  0  0  0  0  0  0  0  0  0  0
   -0.9310   24.2480  -28.2490 C   0  0  0  0  0  0  0  0  0  0  0  0
   -1.5660   23.4210  -27.3030 C   0  0  0  0  0  0  0  0  0  0  0  0
   -2.9340   23.1570  -27.4060 C   0  0  0  0  0  0  0  0  0  0  0  0
   -3.6770   23.7030  -28.4550 C   0  0  0  0  0  0  0  0  0  0  0  0
   -3.0570   24.5050  -29.4200 C   0  0  0  0  0  0  0  0  0  0  0  0
   -3.8610   25.0640  -30.4700 N   0  0  0  0  0  0  0  0  0  0  0  0
   -5.1420   24.5920  -30.9070 C   0  0  0  0  0  0  0  0  0  0  0  0
   -6.1780   25.2830  -30.7120 O   0  0  0  0  0  0  0  0  0  0  0  0
   -5.2400   23.3160  -31.5690 N   0  0  0  0  0  0  0  0  0  0  0  0
   -3.9800   22.6780  -31.9730 C   0  0  0  0  0  0  0  0  0  0  0  0
   -3.9960   21.1940  -31.6310 C   0  0  0  0  0  0  0  0  0  0  0  0
   -5.1660   20.3690  -32.7350 S   0  0  0  0  0  0  0  0  0  0  0  0
   -6.5990   21.3000  -32.1790 C   0  0  0  0  0  0  0  0  0  0  0  0
   -7.8050   20.6740  -32.2270 N   0  0  0  0  0  0  0  0  0  0  0  0
   -8.9680   21.3160  -31.9490 C   0  0  0  0  0  0  0  0  0  0  0  0
   -8.9550   22.6700  -31.6350 C   0  0  0  0  0  0  0  0  0  0  0  0
   -7.7370   23.3440  -31.5630 C   0  0  0  0  0  0  0  0  0  0  0  0
   -6.5220   22.6620  -31.7880 C   0  0  0  0  0  0  0  0  0  0  0  0
   -1.6840   24.7910  -29.2990 C   0  0  0  0  0  0  0  0  0  0  0  0
    0.5606   24.5465  -26.1139 H   0  0  0  0  0  0  0  0  0  0  0  0
    1.7534   23.5153  -26.9744 H   0  0  0  0  0  0  0  0  0  0  0  0
    1.9450   25.3013  -26.9744 H   0  0  0  0  0  0  0  0  0  0  0  0
   -0.9832   22.9813  -26.4802 H   0  0  0  0  0  0  0  0  0  0  0  0
   -3.4271   22.5175  -26.6591 H   0  0  0  0  0  0  0  0  0  0  0  0
   -4.7562   23.5014  -28.5232 H   0  0  0  0  0  0  0  0  0  0  0  0
   -3.8463   22.7973  -33.0583 H   0  0  0  0  0  0  0  0  0  0  0  0
   -3.1508   23.1573  -31.4321 H   0  0  0  0  0  0  0  0  0  0  0  0
   -2.9908   20.7695  -31.7701 H   0  0  0  0  0  0  0  0  0  0  0  0
   -4.2980   21.0500  -30.5831 H   0  0  0  0  0  0  0  0  0  0  0  0
   -9.9200   20.7653  -31.9722 H   0  0  0  0  0  0  0  0  0  0  0  0
   -9.8973   23.2048  -31.4451 H   0  0  0  0  0  0  0  0  0  0  0  0
   -7.7226   24.4186  -31.3284 H   0  0  0  0  0  0  0  0  0  0  0  0
   -1.1973   25.4471  -30.0357 H   0  0  0  0  0  0  0  0  0  0  0  0
  1  2  1  0
  2  3  1  0
  3  4  2  0
  4  5  1  0
  5  6  2  0
  6  7  1  0
  7  8  1  0
  8  9  1  0
  9 10  2  0
  9 11  1  0
 11 12  1  0
 12 13  1  0
 13 14  1  0
 14 15  1  0
 15 16  2  0
 16 17  1  0
 17 18  2  0
 18 19  1  0
 19 20  2  0
  7 21  2  0
 21  3  1  0
 20 11  1  0
 20 15  1  0
  1 22  1  0
  1 23  1  0
  1 24  1  0
  4 25  1  0
  5 26  1  0
  6 27  1  0
 12 28  1  0
 12 29  1  0
 13 30  1  0
 13 31  1  0
 17 32  1  0
 18 33  1  0
 19 34  1  0
 21 35  1  0
M  CHG  1   8  -1
M  END
>  <UniqueID>  (18) 
18

>  <SMILES>  (18) 
COc1cccc([N-]C(=O)N2CCSc3ncccc32)c1

>  <Energy>  (18) 
53.66515581088443

>  <Genealogy>  (18) 
COc1cccc([N-]C(=O)N2CCSc3ncccc32)c1 (protonated)
COc1cccc([N-]C(=O)N2CCSc3ncccc32)c1 (3D coordinates assigned)
COc1cccc([N-]C(=O)N2CCSc3ncccc32)c1 (nonaromatic ring conformer: 53.66515581088443 kcal/mol)

>  <smiles>  (18) 
COc1cccc(NC(=O)N2CCSc3ncccc32)c1

>  <score_type>  (18) 
oracle

>  <origin>  (18) 
adg

>  <m_score__min__energy>  (18) 
-8.25

>  <m_primary>  (18) 
energy

$$$$
18:0
     RDKit          3D

 56 59  0  0  0  0  0  0  0  0999 V2000
    0.7410   23.9020  -28.1450 C   0  0  0  0  0  0  0  0  0  0  0  0
   -0.3070   24.8190  -28.4390 O   0  0  0  0  0  0  0  0  0  0  0  0
   -1.6720   24.5650  -28.2280 C   0  0  0  0  0  0  0  0  0  0  0  0
   -2.5240   24.1590  -29.2740 C   0  0  0  0  0  0  0  0  0  0  0  0
   -3.8960   23.9470  -29.0480 C   0  0  0  0  0  0  0  0  0  0  0  0
   -4.7730   23.5290  -30.1710 C   0  0  0  0  0  0  0  0  0  0  0  0
   -5.7020   24.4100  -30.7540 C   0  0  0  0  0  0  0  0  0  0  0  0
   -6.5110   23.9640  -31.8010 C   0  0  0  0  0  0  0  0  0  0  0  0
   -6.3980   22.6520  -32.2600 C   0  0  0  0  0  0  0  0  0  0  0  0
   -5.4710   21.7920  -31.6560 C   0  0  0  0  0  0  0  0  0  0  0  0
   -5.3290   20.3650  -32.1040 C   0  0  0  0  0  0  0  0  0  0  0  0
   -6.3050   20.0720  -33.1760 N   0  0  0  0  0  0  0  0  0  0  0  0
   -7.6400   19.7400  -32.6370 C   0  0  0  0  0  0  0  0  0  0  0  0
   -7.6590   18.3790  -31.9140 C   0  0  0  0  0  0  0  0  0  0  0  0
   -6.7690   17.3260  -32.5980 C   0  0  0  0  0  0  0  0  0  0  0  0
   -6.4810   17.6900  -34.0530 C   0  0  0  0  0  0  0  0  0  0  0  0
   -5.8040   19.0710  -34.1580 C   0  0  0  0  0  0  0  0  0  0  0  0
   -4.6940   22.2500  -30.6380 N   0  0  0  0  0  0  0  0  0  0  0  0
   -4.4140   24.1680  -27.7600 C   0  0  0  0  0  0  0  0  0  0  0  0
   -3.5740   24.5640  -26.7180 C   0  0  0  0  0  0  0  0  0  0  0  0
   -2.2030   24.7430  -26.9380 C   0  0  0  0  0  0  0  0  0  0  0  0
   -1.3620   25.1460  -25.8460 N   0  0  0  0  0  0  0  0  0  0  0  0
   -1.2640   26.3840  -25.3990 N   0  0  0  0  0  0  0  0  0  0  0  0
   -0.4120   26.3550  -24.3600 C   0  0  0  0  0  0  0  0  0  0  0  0
   -0.0630   27.5480  -23.5350 C   0  0  0  0  0  0  0  0  0  0  0  0
    0.0270   25.1040  -24.0950 N   0  0  0  0  0  0  0  0  0  0  0  0
   -0.5940   24.3720  -25.0460 C   0  0  0  0  0  0  0  0  0  0  0  0
   -0.4490   22.8870  -25.1550 C   0  0  0  0  0  0  0  0  0  0  0  0
    0.8498   23.8068  -27.0545 H   0  0  0  0  0  0  0  0  0  0  0  0
    0.5002   22.9193  -28.5766 H   0  0  0  0  0  0  0  0  0  0  0  0
    1.6830   24.2711  -28.5766 H   0  0  0  0  0  0  0  0  0  0  0  0
   -2.1104   24.0056  -30.2817 H   0  0  0  0  0  0  0  0  0  0  0  0
   -5.7905   25.4434  -30.3875 H   0  0  0  0  0  0  0  0  0  0  0  0
   -7.2377   24.6478  -32.2640 H   0  0  0  0  0  0  0  0  0  0  0  0
   -7.0297   22.2960  -33.0872 H   0  0  0  0  0  0  0  0  0  0  0  0
   -4.3099   20.2024  -32.4848 H   0  0  0  0  0  0  0  0  0  0  0  0
   -5.5191   19.6978  -31.2503 H   0  0  0  0  0  0  0  0  0  0  0  0
   -7.9381   20.5230  -31.9242 H   0  0  0  0  0  0  0  0  0  0  0  0
   -8.3387   19.6798  -33.4844 H   0  0  0  0  0  0  0  0  0  0  0  0
   -7.3028   18.5239  -30.8834 H   0  0  0  0  0  0  0  0  0  0  0  0
   -8.6932   18.0051  -31.9404 H   0  0  0  0  0  0  0  0  0  0  0  0
   -5.8163   17.2558  -32.0527 H   0  0  0  0  0  0  0  0  0  0  0  0
   -7.3026   16.3642  -32.5840 H   0  0  0  0  0  0  0  0  0  0  0  0
   -5.8154   16.9300  -34.4881 H   0  0  0  0  0  0  0  0  0  0  0  0
   -7.4355   17.7273  -34.5985 H   0  0  0  0  0  0  0  0  0  0  0  0
   -4.7240   18.9391  -33.9958 H   0  0  0  0  0  0  0  0  0  0  0  0
   -6.0397   19.4636  -35.1582 H   0  0  0  0  0  0  0  0  0  0  0  0
   -5.4887   24.0279  -27.5720 H   0  0  0  0  0  0  0  0  0  0  0  0
   -3.9927   24.7369  -25.7156 H   0  0  0  0  0  0  0  0  0  0  0  0
   -1.7610   27.2150  -25.7920 H   0  0  0  0  0  0  0  0  0  0  0  0
   -0.1383   27.2908  -22.4681 H   0  0  0  0  0  0  0  0  0  0  0  0
    0.9653   27.8643  -23.7643 H   0  0  0  0  0  0  0  0  0  0  0  0
   -0.7587   28.3686  -23.7643 H   0  0  0  0  0  0  0  0  0  0  0  0
   -0.4061   22.4478  -24.1474 H   0  0  0  0  0  0  0  0  0  0  0  0
   -1.3110   22.4734  -25.6989 H   0  0  0  0  0  0  0  0  0  0  0  0
    0.4768   22.6479  -25.6989 H   0  0  0  0  0  0  0  0  0  0  0  0
  1  2  1  0
  2  3  1  0
  3  4  2  0
  4  5  1  0
  5  6  1  0
  6  7  2  0
  7  8  1  0
  8  9  2  0
  9 10  1  0
 10 11  1  0
 11 12  1  0
 12 13  1  0
 13 14  1  0
 14 15  1  0
 15 16  1  0
 16 17  1  0
 10 18  2  0
  5 19  2  0
 19 20  1  0
 20 21  2  0
 21 22  1  0
 22 23  1  0
 23 24  2  0
 24 25  1  0
 24 26  1  0
 26 27  2  0
 27 28  1  0
 21  3  1  0
 27 22  1  0
 18  6  1  0
 17 12  1  0
  1 29  1  0
  1 30  1  0
  1 31  1  0
  4 32  1  0
  7 33  1  0
  8 34  1  0
  9 35  1  0
 11 36  1  0
 11 37  1  0
 13 38  1  0
 13 39  1  0
 14 40  1  0
 14 41  1  0
 15 42  1  0
 15 43  1  0
 16 44  1  0
 16 45  1  0
 17 46  1  0
 17 47  1  0
 19 48  1  0
 20 49  1  0
 23 50  1  0
 25 51  1  0
 25 52  1  0
 25 53  1  0
 28 54  1  0
 28 55  1  0
 28 56  1  0
M  CHG  1  23   1
M  END
>  <UniqueID>  (19) 
19

>  <SMILES>  (19) 
COc1cc(-c2cccc(CN3CCCCC3)n2)ccc1-n1[nH+]c(C)nc1C

>  <Energy>  (19) 
107.44657483096447

>  <Genealogy>  (19) 
COc1cc(-c2cccc(CN3CCCCC3)n2)ccc1-n1[nH+]c(C)nc1C (protonated)
COc1cc(-c2cccc(CN3CCCCC3)n2)ccc1-n1[nH+]c(C)nc1C (3D coordinates assigned)
COc1cc(-c2cccc(CN3CCCCC3)n2)ccc1-n1[nH+]c(C)nc1C (nonaromatic ring conformer: 107.44657483096447 kcal/mol)

>  <smiles>  (19) 
COc1cc(-c2cccc(CN3CCCCC3)n2)ccc1-n1nc(C)nc1C

>  <score_type>  (19) 
oracle

>  <origin>  (19) 
adg

>  <m_score__min__energy>  (19) 
-9.1699999999999999

>  <m_primary>  (19) 
energy

$$$$
19:0
     RDKit          3D

 39 40  0  0  0  0  0  0  0  0999 V2000
   -6.3600   17.7320  -31.4590 C   0  0  0  0  0  0  0  0  0  0  0  0
   -7.4720   18.5920  -31.8650 C   0  0  0  0  0  0  0  0  0  0  0  0
   -8.3880   19.3020  -32.1960 C   0  0  0  0  0  0  0  0  0  0  0  0
   -9.4980   20.1690  -32.6030 C   0  0  0  0  0  0  0  0  0  0  0  0
   -9.4820   21.3830  -31.8540 O   0  0  0  0  0  0  0  0  0  0  0  0
   -8.3270   22.0630  -31.4340 C   0  0  0  0  0  0  0  0  0  0  0  0
   -7.6080   22.7970  -32.3850 C   0  0  0  0  0  0  0  0  0  0  0  0
   -6.4500   23.4900  -32.0220 C   0  0  0  0  0  0  0  0  0  0  0  0
   -5.9920   23.4550  -30.6980 C   0  0  0  0  0  0  0  0  0  0  0  0
   -4.5170   24.3130  -30.2430 S   0  0  0  0  0  0  0  0  0  0  0  0
   -4.5460   25.6950  -30.8340 O   0  0  0  0  0  0  0  0  0  0  0  0
   -4.4660   24.4480  -28.7470 O   0  0  0  0  0  0  0  0  0  0  0  0
   -3.0880   23.4750  -30.8030 N   0  0  0  0  0  0  0  0  0  0  0  0
   -2.2360   23.0900  -29.6570 C   0  0  0  0  0  0  0  0  0  0  0  0
   -1.2170   22.0190  -30.0550 C   0  0  0  0  0  0  0  0  0  0  0  0
   -1.9200   20.7270  -30.5100 C   0  0  0  0  0  0  0  0  0  0  0  0
   -3.3350   20.9810  -31.0570 C   0  0  0  0  0  0  0  0  0  0  0  0
   -3.4330   22.3620  -31.7230 C   0  0  0  0  0  0  0  0  0  0  0  0
   -6.7110   22.7270  -29.7410 C   0  0  0  0  0  0  0  0  0  0  0  0
   -7.8690   22.0320  -30.1030 C   0  0  0  0  0  0  0  0  0  0  0  0
   -6.3090   17.6925  -30.3609 H   0  0  0  0  0  0  0  0  0  0  0  0
   -6.5170   16.7180  -31.8554 H   0  0  0  0  0  0  0  0  0  0  0  0
   -5.4181   18.1389  -31.8554 H   0  0  0  0  0  0  0  0  0  0  0  0
   -9.4016   20.4025  -33.6736 H   0  0  0  0  0  0  0  0  0  0  0  0
  -10.4469   19.6458  -32.4138 H   0  0  0  0  0  0  0  0  0  0  0  0
   -7.9578   22.8285  -33.4274 H   0  0  0  0  0  0  0  0  0  0  0  0
   -5.8959   24.0652  -32.7784 H   0  0  0  0  0  0  0  0  0  0  0  0
   -1.6984   23.9791  -29.2958 H   0  0  0  0  0  0  0  0  0  0  0  0
   -2.8819   22.6777  -28.8678 H   0  0  0  0  0  0  0  0  0  0  0  0
   -0.5981   22.4010  -30.8802 H   0  0  0  0  0  0  0  0  0  0  0  0
   -0.5932   21.7875  -29.1790 H   0  0  0  0  0  0  0  0  0  0  0  0
   -1.3162   20.2578  -31.3007 H   0  0  0  0  0  0  0  0  0  0  0  0
   -2.0167   20.0742  -29.6299 H   0  0  0  0  0  0  0  0  0  0  0  0
   -3.5771   20.2064  -31.7996 H   0  0  0  0  0  0  0  0  0  0  0  0
   -4.0445   20.9480  -30.2171 H   0  0  0  0  0  0  0  0  0  0  0  0
   -2.7429   22.3881  -32.5792 H   0  0  0  0  0  0  0  0  0  0  0  0
   -4.4785   22.5040  -32.0341 H   0  0  0  0  0  0  0  0  0  0  0  0
   -6.3623   22.7020  -28.6980 H   0  0  0  0  0  0  0  0  0  0  0  0
   -8.4240   21.4592  -29.3455 H   0  0  0  0  0  0  0  0  0  0  0  0
  1  2  1  0
  2  3  3  0
  3  4  1  0
  4  5  1  0
  5  6  1  0
  6  7  2  0
  7  8  1  0
  8  9  2  0
  9 10  1  0
 10 11  2  0
 10 12  2  0
 10 13  1  0
 13 14  1  0
 14 15  1  0
 15 16  1  0
 16 17  1  0
 17 18  1  0
  9 19  1  0
 19 20  2  0
 20  6  1  0
 18 13  1  0
  1 21  1  0
  1 22  1  0
  1 23  1  0
  4 24  1  0
  4 25  1  0
  7 26  1  0
  8 27  1  0
 14 28  1  0
 14 29  1  0
 15 30  1  0
 15 31  1  0
 16 32  1  0
 16 33  1  0
 17 34  1  0
 17 35  1  0
 18 36  1  0
 18 37  1  0
 19 38  1  0
 20 39  1  0
M  END
>  <UniqueID>  (20) 
20

>  <SMILES>  (20) 
CC#CCOc1ccc(S(=O)(=O)N2CCCCC2)cc1

>  <Energy>  (20) 
36.85759185564649

>  <Genealogy>  (20) 
CC#CCOc1ccc(S(=O)(=O)N2CCCCC2)cc1 (3D coordinates assigned)
CC#CCOc1ccc(S(=O)(=O)N2CCCCC2)cc1 (nonaromatic ring conformer: 36.85759185564649 kcal/mol)

>  <smiles>  (20) 
CC#CCOc1ccc(S(=O)(=O)N2CCCCC2)cc1

>  <score_type>  (20) 
oracle

>  <origin>  (20) 
adg

>  <m_score__min__energy>  (20) 
-8.0500000000000007

>  <m_primary>  (20) 
energy

$$$$
20:0
     RDKit          3D

 43 44  0  0  0  0  0  0  0  0999 V2000
  -10.5077   19.3874  -32.5070 H   0  0  0  0  0  0  0  0  0  0  0  0
   -9.4900   19.7870  -32.3860 C   0  0  0  0  0  0  0  0  0  0  0  0
   -8.3800   18.9400  -32.5540 C   0  0  0  0  0  0  0  0  0  0  0  0
   -8.5360   17.8803  -32.8044 H   0  0  0  0  0  0  0  0  0  0  0  0
   -7.0740   19.4350  -32.4050 C   0  0  0  0  0  0  0  0  0  0  0  0
   -6.2078   18.7694  -32.5347 H   0  0  0  0  0  0  0  0  0  0  0  0
   -6.8880   20.7920  -32.0880 C   0  0  0  0  0  0  0  0  0  0  0  0
   -8.0010   21.6090  -31.9250 C   0  0  0  0  0  0  0  0  0  0  0  0
   -7.5060   23.1690  -31.5660 S   0  0  0  0  0  0  0  0  0  0  0  0
   -5.8640   22.7500  -31.6200 C   0  0  0  0  0  0  0  0  0  0  0  0
   -4.8680   23.5750  -31.4650 N   0  0  0  0  0  0  0  0  0  0  0  0
   -4.7660   24.6560  -30.5280 C   0  0  0  0  0  0  0  0  0  0  0  0
   -4.0580   25.6510  -30.8360 O   0  0  0  0  0  0  0  0  0  0  0  0
   -5.2880   24.5350  -29.1180 C   0  0  0  0  0  0  0  0  0  0  0  0
   -6.1175   23.8126  -29.1145 H   0  0  0  0  0  0  0  0  0  0  0  0
   -5.6085   25.5394  -28.8041 H   0  0  0  0  0  0  0  0  0  0  0  0
   -4.2250   24.0620  -28.1080 C   0  0  0  0  0  0  0  0  0  0  0  0
   -4.7136   23.3998  -27.3781 H   0  0  0  0  0  0  0  0  0  0  0  0
   -3.8026   24.9672  -27.6475 H   0  0  0  0  0  0  0  0  0  0  0  0
   -3.0480   23.2980  -28.7400 C   0  0  0  0  0  0  0  0  0  0  0  0
   -3.3608   22.9283  -29.7277 H   0  0  0  0  0  0  0  0  0  0  0  0
   -2.7856   22.4770  -28.0565 H   0  0  0  0  0  0  0  0  0  0  0  0
   -1.7980   24.1600  -28.9170 C   0  0  0  0  0  0  0  0  0  0  0  0
   -1.3993   24.4349  -27.9293 H   0  0  0  0  0  0  0  0  0  0  0  0
   -1.0377   23.5933  -29.4745 H   0  0  0  0  0  0  0  0  0  0  0  0
   -2.0575   25.0721  -29.4745 H   0  0  0  0  0  0  0  0  0  0  0  0
   -5.6850   21.4320  -31.9250 N   0  0  0  0  0  0  0  0  0  0  0  0
   -4.3560   20.8210  -32.0990 C   0  0  0  0  0  0  0  0  0  0  0  0
   -3.7996   20.9013  -31.1535 H   0  0  0  0  0  0  0  0  0  0  0  0
   -4.4960   19.7678  -32.3840 H   0  0  0  0  0  0  0  0  0  0  0  0
   -3.5540   21.5180  -33.2110 C   0  0  0  0  0  0  0  0  0  0  0  0
   -3.9937   21.2460  -34.1819 H   0  0  0  0  0  0  0  0  0  0  0  0
   -3.6063   22.6003  -33.0217 H   0  0  0  0  0  0  0  0  0  0  0  0
   -2.0740   21.1300  -33.2220 C   0  0  0  0  0  0  0  0  0  0  0  0
   -1.9727   20.0683  -32.9525 H   0  0  0  0  0  0  0  0  0  0  0  0
   -1.6618   21.2977  -34.2280 H   0  0  0  0  0  0  0  0  0  0  0  0
   -1.3660   21.9200  -32.2900 O   0  0  0  0  0  0  0  0  0  0  0  0
   -1.1830   21.1870  -31.0990 C   0  0  0  0  0  0  0  0  0  0  0  0
   -1.3476   21.8461  -30.2339 H   0  0  0  0  0  0  0  0  0  0  0  0
   -1.9008   20.3540  -31.0671 H   0  0  0  0  0  0  0  0  0  0  0  0
   -0.1580   20.7892  -31.0671 H   0  0  0  0  0  0  0  0  0  0  0  0
   -9.3040   21.1380  -32.0650 C   0  0  0  0  0  0  0  0  0  0  0  0
  -10.1646   21.8091  -31.9272 H   0  0  0  0  0  0  0  0  0  0  0  0
  1  2  1  0
  2  3  2  0
  3  4  1  0
  3  5  1  0
  5  6  1  0
  5  7  2  0
  7  8  1  0
  8  9  1  0
  9 10  1  0
 10 11  2  0
 11 12  1  0
 12 13  2  0
 12 14  1  0
 14 15  1  0
 14 16  1  0
 14 17  1  0
 17 18  1  0
 17 19  1  0
 17 20  1  0
 20 21  1  0
 20 22  1  0
 20 23  1  0
 23 24  1  0
 23 25  1  0
 23 26  1  0
 10 27  1  0
 27 28  1  0
 28 29  1  0
 28 30  1  0
 28 31  1  0
 31 32  1  0
 31 33  1  0
 31 34  1  0
 34 35  1  0
 34 36  1  0
 34 37  1  0
 37 38  1  0
 38 39  1  0
 38 40  1  0
 38 41  1  0
  8 42  2  0
 42 43  1  0
 42  2  1  0
 27  7  1  0
M  END
>  <UniqueID>  (21) 
21

>  <SMILES>  (21) 
CCCCC(=O)/N=c1\sc2ccccc2n1CCCOC

>  <Energy>  (21) 
77.72769555942693

>  <Genealogy>  (21) 
CCCCC(=O)/N=c1\sc2ccccc2n1CCCOC (cis-trans isomerization)
CCCCC(=O)/N=c1\sc2ccccc2n1CCCOC (3D coordinates assigned)
CCCCC(=O)/N=c1\sc2ccccc2n1CCCOC (optimized conformer: 77.72769555942693 kcal/mol)

>  <smiles>  (21) 
CCCCC(=O)N=c1sc2ccccc2n1CCCOC

>  <score_type>  (21) 
oracle

>  <origin>  (21) 
adg

>  <m_score__min__energy>  (21) 
-7.7999999999999998

>  <m_primary>  (21) 
energy

$$$$
21:0
     RDKit          3D

 56 58  0  0  0  0  0  0  0  0999 V2000
   -5.5512   23.2912  -32.2481 H   0  0  0  0  0  0  0  0  0  0  0  0
   -4.6470   22.6790  -32.1150 C   0  0  0  0  0  0  0  0  0  0  0  0
   -4.4930   21.5000  -32.8480 C   0  0  0  0  0  0  0  0  0  0  0  0
   -5.2838   21.1836  -33.5441 H   0  0  0  0  0  0  0  0  0  0  0  0
   -3.3360   20.7140  -32.7040 C   0  0  0  0  0  0  0  0  0  0  0  0
   -3.1910   19.4630  -33.4870 C   0  0  0  0  0  0  0  0  0  0  0  0
   -2.4440   19.4580  -34.5040 O   0  0  0  0  0  0  0  0  0  0  0  0
   -3.9010   18.2680  -33.1190 N   0  0  0  0  0  0  0  0  0  0  0  0
   -4.5450   18.2740  -32.2980 H   0  0  0  0  0  0  0  0  0  0  0  0
   -3.7950   17.0250  -33.8830 C   0  0  0  0  0  0  0  0  0  0  0  0
   -3.4446   16.2232  -33.2164 H   0  0  0  0  0  0  0  0  0  0  0  0
   -3.0843   17.1832  -34.7075 H   0  0  0  0  0  0  0  0  0  0  0  0
   -5.1500   16.6220  -34.4810 C   0  0  0  0  0  0  0  0  0  0  0  0
   -5.6174   15.8698  -33.8286 H   0  0  0  0  0  0  0  0  0  0  0  0
   -4.9721   16.2166  -35.4880 H   0  0  0  0  0  0  0  0  0  0  0  0
   -6.1030   17.8320  -34.6120 C   0  0  0  0  0  0  0  0  0  0  0  0
   -7.0267   17.4961  -35.1060 H   0  0  0  0  0  0  0  0  0  0  0  0
   -5.5738   18.5996  -35.1957 H   0  0  0  0  0  0  0  0  0  0  0  0
   -6.4620   18.4430  -33.3120 N   0  0  0  0  0  0  0  0  0  0  0  0
   -7.1830   19.7290  -33.4610 C   0  0  0  0  0  0  0  0  0  0  0  0
   -7.5027   19.8511  -34.5064 H   0  0  0  0  0  0  0  0  0  0  0  0
   -6.5157   20.5579  -33.1824 H   0  0  0  0  0  0  0  0  0  0  0  0
   -8.4060   19.7340  -32.5520 C   0  0  0  0  0  0  0  0  0  0  0  0
   -8.0816   19.7327  -31.5009 H   0  0  0  0  0  0  0  0  0  0  0  0
   -9.0059   20.6346  -32.7495 H   0  0  0  0  0  0  0  0  0  0  0  0
   -9.0133   18.8383  -32.7495 H   0  0  0  0  0  0  0  0  0  0  0  0
   -7.1330   17.4930  -32.3980 C   0  0  0  0  0  0  0  0  0  0  0  0
   -8.1674   17.8263  -32.2279 H   0  0  0  0  0  0  0  0  0  0  0  0
   -7.1223   16.4943  -32.8590 H   0  0  0  0  0  0  0  0  0  0  0  0
   -6.4050   17.4200  -31.0590 C   0  0  0  0  0  0  0  0  0  0  0  0
   -7.1356   17.4933  -30.2400 H   0  0  0  0  0  0  0  0  0  0  0  0
   -5.8669   16.4634  -30.9859 H   0  0  0  0  0  0  0  0  0  0  0  0
   -5.6877   18.2507  -30.9859 H   0  0  0  0  0  0  0  0  0  0  0  0
   -2.3220   21.1520  -31.8330 C   0  0  0  0  0  0  0  0  0  0  0  0
   -1.3997   20.5620  -31.7274 H   0  0  0  0  0  0  0  0  0  0  0  0
   -2.4790   22.3320  -31.1010 C   0  0  0  0  0  0  0  0  0  0  0  0
   -1.6739   22.6724  -30.4332 H   0  0  0  0  0  0  0  0  0  0  0  0
   -3.6590   23.0860  -31.2130 C   0  0  0  0  0  0  0  0  0  0  0  0
   -3.8270   24.3240  -30.5070 N   0  0  0  0  0  0  0  0  0  0  0  0
   -3.3250   24.6210  -29.3430 C   0  0  0  0  0  0  0  0  0  0  0  0
   -4.1810   24.1920  -27.8450 S   0  0  0  0  0  0  0  0  0  0  0  0
   -2.5510   24.1110  -27.0160 C   0  0  1  0  0  0  0  0  0  0  0  0
   -2.6564   24.4073  -25.9619 H   0  0  0  0  0  0  0  0  0  0  0  0
   -1.9940   22.6820  -27.0570 C   0  0  0  0  0  0  0  0  0  0  0  0
   -2.4303   22.1253  -27.8994 H   0  0  0  0  0  0  0  0  0  0  0  0
   -2.2382   22.1268  -26.1393 H   0  0  0  0  0  0  0  0  0  0  0  0
   -0.2490   22.8490  -27.2690 S   0  0  0  0  0  0  0  0  0  0  0  0
    0.4980   22.4620  -26.0230 O   0  0  0  0  0  0  0  0  0  0  0  0
    0.2390   22.0570  -28.4490 O   0  0  0  0  0  0  0  0  0  0  0  0
   -0.1440   24.5850  -27.5700 C   0  0  0  0  0  0  0  0  0  0  0  0
    0.4454   24.7813  -28.4778 H   0  0  0  0  0  0  0  0  0  0  0  0
    0.3529   25.1102  -26.7410 H   0  0  0  0  0  0  0  0  0  0  0  0
   -1.5880   25.0650  -27.7570 C   0  0  1  0  0  0  0  0  0  0  0  0
   -1.6390   26.0902  -27.3615 H   0  0  0  0  0  0  0  0  0  0  0  0
   -1.9840   25.0590  -29.1580 N   0  0  0  0  0  0  0  0  0  0  0  0
   -1.2920   25.1380  -29.9340 H   0  0  0  0  0  0  0  0  0  0  0  0
  1  2  1  0
  2  3  2  0
  3  4  1  0
  3  5  1  0
  5  6  1  0
  6  7  2  0
  6  8  1  0
  8  9  1  0
  8 10  1  0
 10 11  1  0
 10 12  1  0
 10 13  1  0
 13 14  1  0
 13 15  1  0
 13 16  1  0
 16 17  1  0
 16 18  1  0
 16 19  1  0
 19 20  1  0
 20 21  1  0
 20 22  1  0
 20 23  1  0
 23 24  1  0
 23 25  1  0
 23 26  1  0
 19 27  1  0
 27 28  1  0
 27 29  1  0
 27 30  1  0
 30 31  1  0
 30 32  1  0
 30 33  1  0
  5 34  2  0
 34 35  1  0
 34 36  1  0
 36 37  1  0
 36 38  2  0
 38 39  1  0
 39 40  2  0
 40 41  1  0
 41 42  1  0
 42 43  1  1
 42 44  1  0
 44 45  1  0
 44 46  1  0
 44 47  1  0
 47 48  2  0
 47 49  2  0
 47 50  1  0
 50 51  1  0
 50 52  1  0
 50 53  1  0
 53 54  1  1
 53 55  1  0
 55 56  1  0
 38  2  1  0
 55 40  1  0
 53 42  1  0
M  END
>  <UniqueID>  (22) 
22

>  <SMILES>  (22) 
CCN(CC)CCCNC(=O)c1ccc(/N=C2\N[C@@H]3CS(=O)(=O)C[C@@H]3S2)cc1

>  <Energy>  (22) 
66.52372603221302

>  <Genealogy>  (22) 
CCN(CC)CCCNC(=O)c1ccc(N=C2N[C@@H]3CS(=O)(=O)C[C@@H]3S2)cc1 (chirality)
CCN(CC)CCCNC(=O)c1ccc(/N=C2\N[C@@H]3CS(=O)(=O)C[C@@H]3S2)cc1 (cis-trans isomerization)
CCN(CC)CCCNC(=O)c1ccc(/N=C2\N[C@@H]3CS(=O)(=O)C[C@@H]3S2)cc1 (3D coordinates assigned)
CCN(CC)CCCNC(=O)c1ccc(/N=C2\N[C@@H]3CS(=O)(=O)C[C@@H]3S2)cc1 (nonaromatic ring conformer: 66.52372603221302 kcal/mol)

>  <smiles>  (22) 
CCN(CC)CCCNC(=O)c1ccc(N=C2NC3CS(=O)(=O)CC3S2)cc1

>  <score_type>  (22) 
oracle

>  <origin>  (22) 
adg

>  <m_score__min__energy>  (22) 
-8.9000000000000004

>  <m_primary>  (22) 
energy

$$$$
22:0
     RDKit          3D

 40 41  0  0  0  0  0  0  0  0999 V2000
   -5.3500   25.7380  -30.4790 C   0  0  0  0  0  0  0  0  0  0  0  0
   -3.9890   25.3310  -30.4570 O   0  0  0  0  0  0  0  0  0  0  0  0
   -3.5830   24.0680  -30.0150 C   0  0  0  0  0  0  0  0  0  0  0  0
   -3.9530   23.6430  -28.7370 C   0  0  0  0  0  0  0  0  0  0  0  0
   -3.5440   22.3890  -28.2860 C   0  0  0  0  0  0  0  0  0  0  0  0
   -2.7810   21.5680  -29.1160 C   0  0  0  0  0  0  0  0  0  0  0  0
   -2.4340   22.0160  -30.3990 C   0  0  0  0  0  0  0  0  0  0  0  0
   -1.6060   21.1450  -31.3150 C   0  0  0  0  0  0  0  0  0  0  0  0
   -2.3450   20.5810  -32.4740 N   0  0  0  0  0  0  0  0  0  0  0  0
   -1.5890   19.7080  -33.3880 C   0  0  0  0  0  0  0  0  0  0  0  0
   -3.2460   21.5320  -33.1590 C   0  0  0  0  0  0  0  0  0  0  0  0
   -4.7140   21.2620  -32.9110 C   0  0  0  0  0  0  0  0  0  0  0  0
   -5.5120   22.2120  -32.2520 C   0  0  0  0  0  0  0  0  0  0  0  0
   -6.8480   21.9310  -31.9570 C   0  0  0  0  0  0  0  0  0  0  0  0
   -7.4010   20.6960  -32.3160 C   0  0  0  0  0  0  0  0  0  0  0  0
   -9.1200   20.3410  -31.9480 S   0  0  0  0  0  0  0  0  0  0  0  0
   -8.8290   18.5590  -31.7180 C   0  0  0  0  0  0  0  0  0  0  0  0
   -6.6160   19.7490  -32.9820 C   0  0  0  0  0  0  0  0  0  0  0  0
   -5.2780   20.0270  -33.2730 C   0  0  0  0  0  0  0  0  0  0  0  0
   -2.8360   23.2500  -30.8120 N   0  0  0  0  0  0  0  0  0  0  0  0
   -5.7166   25.8476  -29.4477 H   0  0  0  0  0  0  0  0  0  0  0  0
   -5.4362   26.7012  -31.0032 H   0  0  0  0  0  0  0  0  0  0  0  0
   -5.9509   24.9802  -31.0032 H   0  0  0  0  0  0  0  0  0  0  0  0
   -4.5623   24.2927  -28.0915 H   0  0  0  0  0  0  0  0  0  0  0  0
   -3.8224   22.0478  -27.2780 H   0  0  0  0  0  0  0  0  0  0  0  0
   -2.4541   20.5773  -28.7673 H   0  0  0  0  0  0  0  0  0  0  0  0
   -0.7729   21.7501  -31.7019 H   0  0  0  0  0  0  0  0  0  0  0  0
   -1.2752   20.2870  -30.7113 H   0  0  0  0  0  0  0  0  0  0  0  0
   -0.9795   19.0041  -32.8023 H   0  0  0  0  0  0  0  0  0  0  0  0
   -2.2904   19.1460  -34.0222 H   0  0  0  0  0  0  0  0  0  0  0  0
   -0.9325   20.3219  -34.0222 H   0  0  0  0  0  0  0  0  0  0  0  0
   -3.0145   22.5472  -32.8044 H   0  0  0  0  0  0  0  0  0  0  0  0
   -3.0750   21.4169  -34.2395 H   0  0  0  0  0  0  0  0  0  0  0  0
   -5.0819   23.1834  -31.9665 H   0  0  0  0  0  0  0  0  0  0  0  0
   -7.4664   22.6809  -31.4420 H   0  0  0  0  0  0  0  0  0  0  0  0
   -8.7915   18.3294  -30.6429 H   0  0  0  0  0  0  0  0  0  0  0  0
   -9.6462   17.9906  -32.1861 H   0  0  0  0  0  0  0  0  0  0  0  0
   -7.8734   18.2801  -32.1861 H   0  0  0  0  0  0  0  0  0  0  0  0
   -7.0529   18.7836  -33.2772 H   0  0  0  0  0  0  0  0  0  0  0  0
   -4.6627   19.2748  -33.7884 H   0  0  0  0  0  0  0  0  0  0  0  0
  1  2  1  0
  2  3  1  0
  3  4  2  0
  4  5  1  0
  5  6  2  0
  6  7  1  0
  7  8  1  0
  8  9  1  0
  9 10  1  0
  9 11  1  0
 11 12  1  0
 12 13  2  0
 13 14  1  0
 14 15  2  0
 15 16  1  0
 16 17  1  0
 15 18  1  0
 18 19  2  0
  7 20  2  0
 20  3  1  0
 19 12  1  0
  1 21  1  0
  1 22  1  0
  1 23  1  0
  4 24  1  0
  5 25  1  0
  6 26  1  0
  8 27  1  0
  8 28  1  0
 10 29  1  0
 10 30  1  0
 10 31  1  0
 11 32  1  0
 11 33  1  0
 13 34  1  0
 14 35  1  0
 17 36  1  0
 17 37  1  0
 17 38  1  0
 18 39  1  0
 19 40  1  0
M  END
>  <UniqueID>  (23) 
23

>  <SMILES>  (23) 
COc1cccc(CN(C)Cc2ccc(SC)cc2)n1

>  <Energy>  (23) 
41.49100820250433

>  <Genealogy>  (23) 
COc1cccc(CN(C)Cc2ccc(SC)cc2)n1 (3D coordinates assigned)
COc1cccc(CN(C)Cc2ccc(SC)cc2)n1 (optimized conformer: 41.49100820250433 kcal/mol)

>  <smiles>  (23) 
COc1cccc(CN(C)Cc2ccc(SC)cc2)n1

>  <score_type>  (23) 
oracle

>  <origin>  (23) 
adg

>  <m_score__min__energy>  (23) 
-8.1899999999999995

>  <m_primary>  (23) 
energy

$$$$
23:0
     RDKit          3D

 55 58  0  0  0  0  0  0  0  0999 V2000
   -3.3120   14.5560  -32.8060 C   0  0  0  0  0  0  0  0  0  0  0  0
   -4.6450   14.1150  -32.3590 N   0  0  0  0  0  0  0  0  0  0  0  0
   -4.5140   13.3110  -31.1340 C   0  0  0  0  0  0  0  0  0  0  0  0
   -5.3310   13.3470  -33.4190 C   0  0  0  0  0  0  0  0  0  0  0  0
   -6.2970   14.2390  -34.2070 C   0  0  0  0  0  0  0  0  0  0  0  0
   -5.6650   15.4630  -34.5870 O   0  0  0  0  0  0  0  0  0  0  0  0
   -5.9370   16.7350  -34.0560 C   0  0  0  0  0  0  0  0  0  0  0  0
   -7.0900   16.8900  -33.2810 C   0  0  0  0  0  0  0  0  0  0  0  0
   -7.4110   18.1290  -32.7180 C   0  0  0  0  0  0  0  0  0  0  0  0
   -6.5810   19.2440  -32.9290 C   0  0  0  0  0  0  0  0  0  0  0  0
   -6.9190   20.5600  -32.3300 C   0  0  0  0  0  0  0  0  0  0  0  0
   -8.2540   20.9790  -32.2240 C   0  0  0  0  0  0  0  0  0  0  0  0
   -8.5560   22.1860  -31.6730 N   0  0  0  0  0  0  0  0  0  0  0  0
   -7.5890   23.0220  -31.2090 C   0  0  0  0  0  0  0  0  0  0  0  0
   -6.2360   22.6570  -31.2880 C   0  0  0  0  0  0  0  0  0  0  0  0
   -5.1640   23.5530  -30.7920 C   0  0  0  0  0  0  0  0  0  0  0  0
   -4.2060   23.2770  -29.8340 C   0  0  0  0  0  0  0  0  0  0  0  0
   -3.4580   24.3890  -29.7240 N   0  0  0  0  0  0  0  0  0  0  0  0
   -2.2740   24.5630  -28.8910 C   0  0  0  0  0  0  0  0  0  0  0  0
   -1.6940   23.2210  -28.5420 C   0  0  0  0  0  0  0  0  0  0  0  0
   -0.9400   22.5070  -29.4850 C   0  0  0  0  0  0  0  0  0  0  0  0
   -0.4430   21.2430  -29.1540 C   0  0  0  0  0  0  0  0  0  0  0  0
   -0.7020   20.7080  -27.9310 N   0  0  0  0  0  0  0  0  0  0  0  0
   -1.4420   21.3720  -27.0040 C   0  0  0  0  0  0  0  0  0  0  0  0
   -1.9560   22.6380  -27.2940 C   0  0  0  0  0  0  0  0  0  0  0  0
   -3.9150   25.2910  -30.5750 N   0  0  0  0  0  0  0  0  0  0  0  0
   -4.9590   24.8120  -31.2350 N   0  0  0  0  0  0  0  0  0  0  0  0
   -5.9110   21.4150  -31.8550 C   0  0  0  0  0  0  0  0  0  0  0  0
   -5.4280   19.0910  -33.7200 C   0  0  0  0  0  0  0  0  0  0  0  0
   -5.1110   17.8520  -34.2820 C   0  0  0  0  0  0  0  0  0  0  0  0
   -2.6816   14.7646  -31.9290 H   0  0  0  0  0  0  0  0  0  0  0  0
   -2.8475   13.7636  -33.4113 H   0  0  0  0  0  0  0  0  0  0  0  0
   -3.4117   15.4690  -33.4113 H   0  0  0  0  0  0  0  0  0  0  0  0
   -4.6202   13.9630  -30.2544 H   0  0  0  0  0  0  0  0  0  0  0  0
   -5.2984   12.5400  -31.1158 H   0  0  0  0  0  0  0  0  0  0  0  0
   -3.5255   12.8289  -31.1158 H   0  0  0  0  0  0  0  0  0  0  0  0
   -4.5792   12.9345  -34.1080 H   0  0  0  0  0  0  0  0  0  0  0  0
   -5.9075   12.5375  -32.9475 H   0  0  0  0  0  0  0  0  0  0  0  0
   -6.6228   13.7056  -35.1122 H   0  0  0  0  0  0  0  0  0  0  0  0
   -7.1608   14.4730  -33.5674 H   0  0  0  0  0  0  0  0  0  0  0  0
   -7.7520   16.0279  -33.1122 H   0  0  0  0  0  0  0  0  0  0  0  0
   -8.3191   18.2320  -32.1058 H   0  0  0  0  0  0  0  0  0  0  0  0
   -9.0617   20.3274  -32.5887 H   0  0  0  0  0  0  0  0  0  0  0  0
   -9.5560   22.4760  -31.6020 H   0  0  0  0  0  0  0  0  0  0  0  0
   -7.8689   23.9905  -30.7689 H   0  0  0  0  0  0  0  0  0  0  0  0
   -4.0810   22.3379  -29.2750 H   0  0  0  0  0  0  0  0  0  0  0  0
   -1.5250   25.1527  -29.4399 H   0  0  0  0  0  0  0  0  0  0  0  0
   -2.5551   25.0883  -27.9663 H   0  0  0  0  0  0  0  0  0  0  0  0
   -0.7413   22.9383  -30.4772 H   0  0  0  0  0  0  0  0  0  0  0  0
    0.1582   20.6806  -29.8836 H   0  0  0  0  0  0  0  0  0  0  0  0
   -1.6363   20.9116  -26.0240 H   0  0  0  0  0  0  0  0  0  0  0  0
   -2.5620   23.1738  -26.5486 H   0  0  0  0  0  0  0  0  0  0  0  0
   -4.8571   21.1083  -31.9281 H   0  0  0  0  0  0  0  0  0  0  0  0
   -4.7702   19.9545  -33.8976 H   0  0  0  0  0  0  0  0  0  0  0  0
   -4.2103   17.7487  -34.9050 H   0  0  0  0  0  0  0  0  0  0  0  0
  1  2  1  0
  2  3  1  0
  2  4  1  0
  4  5  1  0
  5  6  1  0
  6  7  1  0
  7  8  2  0
  8  9  1  0
  9 10  2  0
 10 11  1  0
 11 12  2  0
 12 13  1  0
 13 14  2  0
 14 15  1  0
 15 16  1  0
 16 17  2  0
 17 18  1  0
 18 19  1  0
 19 20  1  0
 20 21  2  0
 21 22  1  0
 22 23  2  0
 23 24  1  0
 24 25  2  0
 18 26  1  0
 26 27  2  0
 15 28  2  0
 10 29  1  0
 29 30  2  0
 30  7  1  0
 28 11  1  0
 27 16  1  0
 25 20  1  0
  1 31  1  0
  1 32  1  0
  1 33  1  0
  3 34  1  0
  3 35  1  0
  3 36  1  0
  4 37  1  0
  4 38  1  0
  5 39  1  0
  5 40  1  0
  8 41  1  0
  9 42  1  0
 12 43  1  0
 13 44  1  0
 14 45  1  0
 17 46  1  0
 19 47  1  0
 19 48  1  0
 21 49  1  0
 22 50  1  0
 24 51  1  0
 25 52  1  0
 28 53  1  0
 29 54  1  0
 30 55  1  0
M  CHG  1  13   1
M  END
>  <UniqueID>  (24) 
24

>  <SMILES>  (24) 
CN(C)CCOc1ccc(-c2c[nH+]cc(-c3cn(Cc4ccncc4)nn3)c2)cc1

>  <Energy>  (24) 
99.61093095310255

>  <Genealogy>  (24) 
CN(C)CCOc1ccc(-c2c[nH+]cc(-c3cn(Cc4ccncc4)nn3)c2)cc1 (protonated)
CN(C)CCOc1ccc(-c2c[nH+]cc(-c3cn(Cc4ccncc4)nn3)c2)cc1 (3D coordinates assigned)
CN(C)CCOc1ccc(-c2c[nH+]cc(-c3cn(Cc4ccncc4)nn3)c2)cc1 (optimized conformer: 99.61093095310255 kcal/mol)

>  <smiles>  (24) 
CN(C)CCOc1ccc(-c2cncc(-c3cn(Cc4ccncc4)nn3)c2)cc1

>  <score_type>  (24) 
oracle

>  <origin>  (24) 
adg

>  <m_score__min__energy>  (24) 
-8.6099999999999994

>  <m_primary>  (24) 
energy

$$$$
24:0
     RDKit          3D

 38 39  0  0  0  0  0  0  0  0999 V2000
   -5.7250   25.9690  -30.1520 C   0  0  0  0  0  0  0  0  0  0  0  0
   -4.8170   25.1210  -30.8460 O   0  0  0  0  0  0  0  0  0  0  0  0
   -5.1250   23.8270  -31.2930 C   0  0  0  0  0  0  0  0  0  0  0  0
   -4.2210   22.7610  -31.1970 C   0  0  0  0  0  0  0  0  0  0  0  0
   -4.5720   21.4870  -31.6530 C   0  0  0  0  0  0  0  0  0  0  0  0
   -5.8600   21.2150  -32.2020 C   0  0  0  0  0  0  0  0  0  0  0  0
   -6.2420   19.8810  -32.7520 N   0  0  0  0  0  0  0  0  0  0  0  0
   -5.2510   19.4450  -33.8070 C   0  0  0  0  0  0  0  0  0  0  0  0
   -5.7370   18.4000  -34.8470 C   0  0  0  0  0  0  0  0  0  0  0  0
   -5.3830   16.7600  -34.2460 Cl  0  0  0  0  0  0  0  0  0  0  0  0
   -6.2400   18.8550  -31.6420 C   0  0  0  0  0  0  0  0  0  0  0  0
   -7.4540   17.9160  -31.6740 C   0  0  0  0  0  0  0  0  0  0  0  0
   -8.7400   18.7230  -31.5260 C   0  0  0  0  0  0  0  0  0  0  0  0
   -8.8020   19.9300  -32.4800 C   0  0  0  0  0  0  0  0  0  0  0  0
   -7.5840   20.0460  -33.4190 C   0  0  0  0  0  0  0  0  0  0  0  0
   -6.7360   22.3300  -32.3150 C   0  0  0  0  0  0  0  0  0  0  0  0
   -6.3770   23.5990  -31.8570 C   0  0  0  0  0  0  0  0  0  0  0  0
   -5.5893   25.8423  -29.0678 H   0  0  0  0  0  0  0  0  0  0  0  0
   -5.5307   27.0165  -30.4259 H   0  0  0  0  0  0  0  0  0  0  0  0
   -6.7568   25.7037  -30.4259 H   0  0  0  0  0  0  0  0  0  0  0  0
   -3.2260   22.9280  -30.7588 H   0  0  0  0  0  0  0  0  0  0  0  0
   -3.8354   20.6728  -31.5867 H   0  0  0  0  0  0  0  0  0  0  0  0
   -4.9402   20.3433  -34.3606 H   0  0  0  0  0  0  0  0  0  0  0  0
   -4.4480   18.9395  -33.2506 H   0  0  0  0  0  0  0  0  0  0  0  0
   -6.8210   18.5095  -34.9986 H   0  0  0  0  0  0  0  0  0  0  0  0
   -5.2164   18.5621  -35.8024 H   0  0  0  0  0  0  0  0  0  0  0  0
   -5.3274   18.2474  -31.7311 H   0  0  0  0  0  0  0  0  0  0  0  0
   -6.2826   19.4067  -30.6913 H   0  0  0  0  0  0  0  0  0  0  0  0
   -7.4713   17.3750  -32.6316 H   0  0  0  0  0  0  0  0  0  0  0  0
   -7.3790   17.1994  -30.8428 H   0  0  0  0  0  0  0  0  0  0  0  0
   -9.5947   18.0637  -31.7378 H   0  0  0  0  0  0  0  0  0  0  0  0
   -8.7692   19.1126  -30.4977 H   0  0  0  0  0  0  0  0  0  0  0  0
   -9.7079   19.8378  -33.0972 H   0  0  0  0  0  0  0  0  0  0  0  0
   -8.8094   20.8335  -31.8526 H   0  0  0  0  0  0  0  0  0  0  0  0
   -7.6766   19.2709  -34.1940 H   0  0  0  0  0  0  0  0  0  0  0  0
   -7.6027   21.0707  -33.8185 H   0  0  0  0  0  0  0  0  0  0  0  0
   -7.7245   22.1883  -32.7764 H   0  0  0  0  0  0  0  0  0  0  0  0
   -7.0930   24.4297  -31.9430 H   0  0  0  0  0  0  0  0  0  0  0  0
  1  2  1  0
  2  3  1  0
  3  4  2  0
  4  5  1  0
  5  6  2  0
  6  7  1  0
  7  8  1  0
  8  9  1  0
  9 10  1  0
  7 11  1  0
 11 12  1  0
 12 13  1  0
 13 14  1  0
 14 15  1  0
  6 16  1  0
 16 17  2  0
 17  3  1  0
 15  7  1  0
  1 18  1  0
  1 19  1  0
  1 20  1  0
  4 21  1  0
  5 22  1  0
  8 23  1  0
  8 24  1  0
  9 25  1  0
  9 26  1  0
 11 27  1  0
 11 28  1  0
 12 29  1  0
 12 30  1  0
 13 31  1  0
 13 32  1  0
 14 33  1  0
 14 34  1  0
 15 35  1  0
 15 36  1  0
 16 37  1  0
 17 38  1  0
M  CHG  1   7   1
M  END
>  <UniqueID>  (25) 
25

>  <SMILES>  (25) 
COc1ccc([N+]2(CCCl)CCCCC2)cc1

>  <Energy>  (25) 
70.11478141983744

>  <Genealogy>  (25) 
COc1ccc([N+]2(CCCl)CCCCC2)cc1 (3D coordinates assigned)
COc1ccc([N+]2(CCCl)CCCCC2)cc1 (nonaromatic ring conformer: 70.11478141983744 kcal/mol)

>  <smiles>  (25) 
COc1ccc([N+]2(CCCl)CCCCC2)cc1

>  <score_type>  (25) 
oracle

>  <origin>  (25) 
adg

>  <m_score__min__energy>  (25) 
-6.5899999999999999

>  <m_primary>  (25) 
energy

$$$$
25:0
     RDKit          3D

 56 60  0  0  0  0  0  0  0  0999 V2000
   -2.2550   19.2640  -33.5220 C   0  0  0  0  0  0  0  0  0  0  0  0
   -3.5010   19.5060  -34.1670 O   0  0  0  0  0  0  0  0  0  0  0  0
   -4.7570   19.2820  -33.5790 C   0  0  0  0  0  0  0  0  0  0  0  0
   -5.5580   18.1790  -33.9440 C   0  0  0  0  0  0  0  0  0  0  0  0
   -6.8320   18.0180  -33.3950 C   0  0  0  0  0  0  0  0  0  0  0  0
   -7.3250   18.9530  -32.4860 C   0  0  0  0  0  0  0  0  0  0  0  0
   -6.5400   20.0430  -32.1080 C   0  0  0  0  0  0  0  0  0  0  0  0
   -5.2450   20.1980  -32.6230 C   0  0  0  0  0  0  0  0  0  0  0  0
   -4.4770   21.3310  -32.1990 N   0  0  0  0  0  0  0  0  0  0  0  0
   -3.5920   21.3540  -31.0730 C   0  0  0  0  0  0  0  0  0  0  0  0
   -3.0090   20.2990  -30.7020 O   0  0  0  0  0  0  0  0  0  0  0  0
   -3.4440   22.6300  -30.2770 C   0  0  1  0  0  0  0  0  0  0  0  0
   -4.7380   23.0500  -29.5650 C   0  0  0  0  0  0  0  0  0  0  0  0
   -6.0780   22.6900  -30.1380 C   0  0  0  0  0  0  0  0  0  0  0  0
   -4.6970   23.8920  -28.5700 N   0  0  0  0  0  0  0  0  0  0  0  0
   -3.4420   24.3050  -28.0320 C   0  0  0  0  0  0  0  0  0  0  0  0
   -3.2670   25.1990  -27.0490 N   0  0  0  0  0  0  0  0  0  0  0  0
   -1.9260   25.1460  -26.8400 C   0  0  0  0  0  0  0  0  0  0  0  0
   -1.2000   25.9450  -25.8190 C   0  0  0  0  0  0  0  0  0  0  0  0
   -1.1790   25.5330  -24.4730 C   0  0  0  0  0  0  0  0  0  0  0  0
   -0.4990   26.2840  -23.5110 C   0  0  0  0  0  0  0  0  0  0  0  0
    0.1670   27.4540  -23.8750 C   0  0  0  0  0  0  0  0  0  0  0  0
    0.1530   27.8780  -25.2050 C   0  0  0  0  0  0  0  0  0  0  0  0
   -0.5260   27.1330  -26.1770 C   0  0  0  0  0  0  0  0  0  0  0  0
   -0.5060   27.5710  -27.4610 F   0  0  0  0  0  0  0  0  0  0  0  0
   -1.3240   24.2450  -27.6570 N   0  0  0  0  0  0  0  0  0  0  0  0
   -2.2920   23.7460  -28.4040 N   0  0  0  0  0  0  0  0  0  0  0  0
   -2.1970   22.6200  -29.3280 C   0  0  1  0  0  0  0  0  0  0  0  0
   -2.0310   21.3320  -28.5360 C   0  0  0  0  0  0  0  0  0  0  0  0
   -3.0820   20.8680  -27.7240 C   0  0  0  0  0  0  0  0  0  0  0  0
   -2.9460   19.6790  -27.0010 C   0  0  0  0  0  0  0  0  0  0  0  0
   -1.7610   18.9440  -27.0750 C   0  0  0  0  0  0  0  0  0  0  0  0
   -1.6340   17.7930  -26.3690 F   0  0  0  0  0  0  0  0  0  0  0  0
   -0.7090   19.3950  -27.8780 C   0  0  0  0  0  0  0  0  0  0  0  0
    0.4410   18.6800  -27.9530 F   0  0  0  0  0  0  0  0  0  0  0  0
   -0.8430   20.5790  -28.6070 C   0  0  0  0  0  0  0  0  0  0  0  0
   -2.3953   19.2913  -32.4313 H   0  0  0  0  0  0  0  0  0  0  0  0
   -1.8747   18.2752  -33.8182 H   0  0  0  0  0  0  0  0  0  0  0  0
   -1.5323   20.0386  -33.8182 H   0  0  0  0  0  0  0  0  0  0  0  0
   -5.1765   17.4414  -34.6654 H   0  0  0  0  0  0  0  0  0  0  0  0
   -7.4474   17.1521  -33.6803 H   0  0  0  0  0  0  0  0  0  0  0  0
   -8.3344   18.8313  -32.0661 H   0  0  0  0  0  0  0  0  0  0  0  0
   -6.9396   20.7854  -31.4015 H   0  0  0  0  0  0  0  0  0  0  0  0
   -3.2461   23.4184  -31.0181 H   0  0  0  0  0  0  0  0  0  0  0  0
   -6.7876   22.4994  -29.3194 H   0  0  0  0  0  0  0  0  0  0  0  0
   -6.4472   23.5208  -30.7572 H   0  0  0  0  0  0  0  0  0  0  0  0
   -5.9811   21.7860  -30.7572 H   0  0  0  0  0  0  0  0  0  0  0  0
   -3.9990   25.7490  -26.5500 H   0  0  0  0  0  0  0  0  0  0  0  0
   -1.7024   24.6121  -24.1763 H   0  0  0  0  0  0  0  0  0  0  0  0
   -0.4889   25.9512  -22.4626 H   0  0  0  0  0  0  0  0  0  0  0  0
    0.7026   28.0420  -23.1151 H   0  0  0  0  0  0  0  0  0  0  0  0
    0.6778   28.8016  -25.4907 H   0  0  0  0  0  0  0  0  0  0  0  0
   -1.3106   22.7013  -29.9743 H   0  0  0  0  0  0  0  0  0  0  0  0
   -4.0166   21.4442  -27.6575 H   0  0  0  0  0  0  0  0  0  0  0  0
   -3.7748   19.3216  -26.3722 H   0  0  0  0  0  0  0  0  0  0  0  0
   -0.0141   20.9259  -29.2415 H   0  0  0  0  0  0  0  0  0  0  0  0
  1  2  1  0
  2  3  1  0
  3  4  2  0
  4  5  1  0
  5  6  2  0
  6  7  1  0
  7  8  2  0
  8  9  1  0
  9 10  1  0
 10 11  2  0
 10 12  1  0
 12 13  1  0
 13 14  1  0
 13 15  2  0
 15 16  1  0
 16 17  2  0
 17 18  1  0
 18 19  1  0
 19 20  2  0
 20 21  1  0
 21 22  2  0
 22 23  1  0
 23 24  2  0
 24 25  1  0
 18 26  2  0
 26 27  1  0
 27 28  1  0
 28 29  1  0
 29 30  2  0
 30 31  1  0
 31 32  2  0
 32 33  1  0
 32 34  1  0
 34 35  1  0
 34 36  2  0
  8  3  1  0
 28 12  1  0
 36 29  1  0
 27 16  1  0
 24 19  1  0
  1 37  1  0
  1 38  1  0
  1 39  1  0
  4 40  1  0
  5 41  1  0
  6 42  1  0
  7 43  1  0
 12 44  1  6
 14 45  1  0
 14 46  1  0
 14 47  1  0
 17 48  1  0
 20 49  1  0
 21 50  1  0
 22 51  1  0
 23 52  1  0
 28 53  1  6
 30 54  1  0
 31 55  1  0
 36 56  1  0
M  CHG  2   9  -1  17   1
M  END
>  <UniqueID>  (26) 
26

>  <SMILES>  (26) 
COc1ccccc1[N-]C(=O)[C@H]1C(C)=Nc2[nH+]c(-c3ccccc3F)nn2[C@H]1c1ccc(F)c(F)c1

>  <Energy>  (26) 
110.31517317524053

>  <Genealogy>  (26) 
COc1ccccc1[N-]C(=O)C1C(C)=Nc2[nH+]c(-c3ccccc3F)nn2C1c1ccc(F)c(F)c1 (protonated)
COc1ccccc1[N-]C(=O)[C@H]1C(C)=Nc2[nH+]c(-c3ccccc3F)nn2[C@H]1c1ccc(F)c(F)c1 (chirality)
COc1ccccc1[N-]C(=O)[C@H]1C(C)=Nc2[nH+]c(-c3ccccc3F)nn2[C@H]1c1ccc(F)c(F)c1 (3D coordinates assigned)
COc1ccccc1[N-]C(=O)[C@H]1C(C)=Nc2[nH+]c(-c3ccccc3F)nn2[C@H]1c1ccc(F)c(F)c1 (nonaromatic ring conformer: 110.31517317524053 kcal/mol)

>  <smiles>  (26) 
COc1ccccc1NC(=O)C1C(C)=Nc2nc(-c3ccccc3F)nn2C1c1ccc(F)c(F)c1

>  <score_type>  (26) 
oracle

>  <origin>  (26) 
adg

>  <m_score__min__energy>  (26) 
-9.4499999999999993

>  <m_primary>  (26) 
energy

$$$$
26:0
     RDKit          3D

 44 44  0  0  0  0  0  0  0  0999 V2000
   -3.9490   21.6990  -32.9200 C   0  0  0  0  0  0  0  0  0  0  0  0
   -5.3430   21.1510  -32.8000 C   0  0  0  0  0  0  0  0  0  0  0  0
   -5.5630   19.8010  -33.1230 C   0  0  0  0  0  0  0  0  0  0  0  0
   -6.8280   19.2330  -32.9720 C   0  0  0  0  0  0  0  0  0  0  0  0
   -7.8870   20.0020  -32.4920 C   0  0  0  0  0  0  0  0  0  0  0  0
   -7.6930   21.3520  -32.1830 C   0  0  0  0  0  0  0  0  0  0  0  0
   -9.0500   22.3020  -31.6000 Cl  0  0  0  0  0  0  0  0  0  0  0  0
   -6.4310   21.9460  -32.3660 C   0  0  0  0  0  0  0  0  0  0  0  0
   -6.2880   23.3130  -32.0810 O   0  0  0  0  0  0  0  0  0  0  0  0
   -6.0250   23.8320  -30.7740 C   0  0  0  0  0  0  0  0  0  0  0  0
   -5.4050   25.2360  -30.8340 C   0  0  0  0  0  0  0  0  0  0  0  0
   -4.0460   25.2350  -30.4420 O   0  0  0  0  0  0  0  0  0  0  0  0
   -3.5290   23.9200  -30.4240 C   0  0  0  0  0  0  0  0  0  0  0  0
   -2.1950   23.9270  -29.6810 C   0  0  0  0  0  0  0  0  0  0  0  0
   -1.9120   25.2480  -29.1220 N   0  0  0  0  0  0  0  0  0  0  0  0
   -0.8460   25.4410  -28.1840 C   0  0  0  0  0  0  0  0  0  0  0  0
    0.0340   24.5500  -28.0330 O   0  0  0  0  0  0  0  0  0  0  0  0
   -0.7920   26.6890  -27.3410 C   0  0  0  0  0  0  0  0  0  0  0  0
   -1.7060   26.6500  -26.1770 N   0  0  0  0  0  0  0  0  0  0  0  0
   -1.0670   27.1410  -24.9450 C   0  0  0  0  0  0  0  0  0  0  0  0
   -2.2930   25.3160  -25.9660 C   0  0  0  0  0  0  0  0  0  0  0  0
   -3.5318   21.8630  -31.9155 H   0  0  0  0  0  0  0  0  0  0  0  0
   -3.3188   20.9817  -33.4662 H   0  0  0  0  0  0  0  0  0  0  0  0
   -3.9760   22.6534  -33.4662 H   0  0  0  0  0  0  0  0  0  0  0  0
   -4.7307   19.1872  -33.4980 H   0  0  0  0  0  0  0  0  0  0  0  0
   -6.9902   18.1766  -33.2321 H   0  0  0  0  0  0  0  0  0  0  0  0
   -8.8785   19.5454  -32.3559 H   0  0  0  0  0  0  0  0  0  0  0  0
   -6.9704   23.8835  -30.2141 H   0  0  0  0  0  0  0  0  0  0  0  0
   -5.3083   23.1618  -30.2769 H   0  0  0  0  0  0  0  0  0  0  0  0
   -5.4763   25.6114  -31.8655 H   0  0  0  0  0  0  0  0  0  0  0  0
   -5.9584   25.8807  -30.1354 H   0  0  0  0  0  0  0  0  0  0  0  0
   -4.2354   23.2518  -29.9096 H   0  0  0  0  0  0  0  0  0  0  0  0
   -3.3820   23.5616  -31.4535 H   0  0  0  0  0  0  0  0  0  0  0  0
   -2.2349   23.1919  -28.8637 H   0  0  0  0  0  0  0  0  0  0  0  0
   -1.3967   23.6700  -30.3928 H   0  0  0  0  0  0  0  0  0  0  0  0
   -2.5610   26.0450  -29.3120 H   0  0  0  0  0  0  0  0  0  0  0  0
    0.2366   26.8174  -26.9729 H   0  0  0  0  0  0  0  0  0  0  0  0
   -1.1120   27.5265  -27.9783 H   0  0  0  0  0  0  0  0  0  0  0  0
   -1.5961   26.7345  -24.0704 H   0  0  0  0  0  0  0  0  0  0  0  0
   -0.0165   26.8155  -24.9220 H   0  0  0  0  0  0  0  0  0  0  0  0
   -1.1110   28.2399  -24.9220 H   0  0  0  0  0  0  0  0  0  0  0  0
   -2.3793   25.1199  -24.8871 H   0  0  0  0  0  0  0  0  0  0  0  0
   -3.2912   25.2776  -26.4267 H   0  0  0  0  0  0  0  0  0  0  0  0
   -1.6470   24.5541  -26.4267 H   0  0  0  0  0  0  0  0  0  0  0  0
  1  2  1  0
  2  3  2  0
  3  4  1  0
  4  5  2  0
  5  6  1  0
  6  7  1  0
  6  8  2  0
  8  9  1  0
  9 10  1  0
 10 11  1  0
 11 12  1  0
 12 13  1  0
 13 14  1  0
 14 15  1  0
 15 16  1  0
 16 17  2  0
 16 18  1  0
 18 19  1  0
 19 20  1  0
 19 21  1  0
  8  2  1  0
  1 22  1  0
  1 23  1  0
  1 24  1  0
  3 25  1  0
  4 26  1  0
  5 27  1  0
 10 28  1  0
 10 29  1  0
 11 30  1  0
 11 31  1  0
 13 32  1  0
 13 33  1  0
 14 34  1  0
 14 35  1  0
 15 36  1  0
 18 37  1  0
 18 38  1  0
 20 39  1  0
 20 40  1  0
 20 41  1  0
 21 42  1  0
 21 43  1  0
 21 44  1  0
M  END
>  <UniqueID>  (27) 
27

>  <SMILES>  (27) 
Cc1cccc(Cl)c1OCCOCCNC(=O)CN(C)C

>  <Energy>  (27) 
41.059743026588

>  <Genealogy>  (27) 
Cc1cccc(Cl)c1OCCOCCNC(=O)CN(C)C (3D coordinates assigned)
Cc1cccc(Cl)c1OCCOCCNC(=O)CN(C)C (optimized conformer: 41.059743026588 kcal/mol)

>  <smiles>  (27) 
Cc1cccc(Cl)c1OCCOCCNC(=O)CN(C)C

>  <score_type>  (27) 
oracle

>  <origin>  (27) 
adg

>  <m_score__min__energy>  (27) 
-7.7300000000000004

>  <m_primary>  (27) 
energy

$$$$
27:0
     RDKit          3D

 44 46  0  0  0  0  0  0  0  0999 V2000
   -6.8750   24.9060  -30.1400 C   0  0  0  0  0  0  0  0  0  0  0  0
   -6.2970   23.6030  -30.5920 C   0  0  0  0  0  0  0  0  0  0  0  0
   -7.1090   22.5550  -30.9030 N   0  0  0  0  0  0  0  0  0  0  0  0
   -6.4150   21.4640  -31.2910 C   0  0  0  0  0  0  0  0  0  0  0  0
   -7.0240   20.2200  -31.6750 N   0  0  0  0  0  0  0  0  0  0  0  0
   -8.2900   19.8240  -31.3840 C   0  0  0  0  0  0  0  0  0  0  0  0
   -8.5990   18.5980  -31.8750 N   0  0  0  0  0  0  0  0  0  0  0  0
   -7.4670   18.2250  -32.4980 C   0  0  0  0  0  0  0  0  0  0  0  0
   -7.2370   17.0320  -33.1780 C   0  0  0  0  0  0  0  0  0  0  0  0
   -5.9680   16.8370  -33.7700 C   0  0  0  0  0  0  0  0  0  0  0  0
   -5.6690   15.6050  -34.4570 N   0  0  0  0  0  0  0  0  0  0  0  0
   -4.8150   14.7510  -33.6150 C   0  0  0  0  0  0  0  0  0  0  0  0
   -3.3290   14.7660  -34.0500 C   0  0  0  0  0  0  0  0  0  0  0  0
   -2.9980   15.5930  -35.2350 N   0  0  0  0  0  0  0  0  0  0  0  0
   -2.7180   14.8230  -36.4570 C   0  0  0  0  0  0  0  0  0  0  0  0
   -1.9800   16.6270  -34.9870 C   0  0  0  0  0  0  0  0  0  0  0  0
   -4.9730   17.8430  -33.6380 C   0  0  0  0  0  0  0  0  0  0  0  0
   -5.2410   19.0360  -32.9440 C   0  0  0  0  0  0  0  0  0  0  0  0
   -6.5130   19.1940  -32.3830 C   0  0  0  0  0  0  0  0  0  0  0  0
   -4.7580   21.7520  -31.2670 S   0  0  0  0  0  0  0  0  0  0  0  0
   -4.9250   23.3420  -30.7360 C   0  0  0  0  0  0  0  0  0  0  0  0
   -3.7870   24.2480  -30.4810 C   0  0  0  0  0  0  0  0  0  0  0  0
   -3.8650   25.6360  -30.7930 N   0  0  0  0  0  0  0  0  0  0  0  0
   -2.7270   23.7880  -29.9800 O   0  0  0  0  0  0  0  0  0  0  0  0
   -6.8896   24.9389  -29.0406 H   0  0  0  0  0  0  0  0  0  0  0  0
   -6.2593   25.7330  -30.5235 H   0  0  0  0  0  0  0  0  0  0  0  0
   -7.9013   25.0046  -30.5235 H   0  0  0  0  0  0  0  0  0  0  0  0
   -8.9964   20.4380  -30.8061 H   0  0  0  0  0  0  0  0  0  0  0  0
   -8.0202   16.2632  -33.2525 H   0  0  0  0  0  0  0  0  0  0  0  0
   -6.5600   15.1100  -34.6960 H   0  0  0  0  0  0  0  0  0  0  0  0
   -5.1680   15.8360  -35.3440 H   0  0  0  0  0  0  0  0  0  0  0  0
   -4.8798   15.1062  -32.5759 H   0  0  0  0  0  0  0  0  0  0  0  0
   -5.1781   13.7179  -33.7189 H   0  0  0  0  0  0  0  0  0  0  0  0
   -2.7361   15.1419  -33.2032 H   0  0  0  0  0  0  0  0  0  0  0  0
   -3.0994   13.7307  -34.3425 H   0  0  0  0  0  0  0  0  0  0  0  0
   -2.3538   13.8216  -36.1840 H   0  0  0  0  0  0  0  0  0  0  0  0
   -3.6395   14.7289  -37.0503 H   0  0  0  0  0  0  0  0  0  0  0  0
   -1.9513   15.3428  -37.0503 H   0  0  0  0  0  0  0  0  0  0  0  0
   -1.8490   16.7600  -33.9030 H   0  0  0  0  0  0  0  0  0  0  0  0
   -1.0251   16.3167  -35.4364 H   0  0  0  0  0  0  0  0  0  0  0  0
   -2.3052   17.5769  -35.4364 H   0  0  0  0  0  0  0  0  0  0  0  0
   -3.9801   17.6863  -34.0847 H   0  0  0  0  0  0  0  0  0  0  0  0
   -4.4755   19.8197  -32.8453 H   0  0  0  0  0  0  0  0  0  0  0  0
   -3.3170   26.0400  -31.5850 H   0  0  0  0  0  0  0  0  0  0  0  0
  1  2  1  0
  2  3  1  0
  3  4  2  0
  4  5  1  0
  5  6  1  0
  6  7  2  0
  7  8  1  0
  8  9  2  0
  9 10  1  0
 10 11  1  0
 11 12  1  0
 12 13  1  0
 13 14  1  0
 14 15  1  0
 14 16  1  0
 10 17  2  0
 17 18  1  0
 18 19  2  0
  4 20  1  0
 20 21  1  0
 21 22  1  0
 22 23  1  0
 22 24  2  0
 21  2  2  0
 19  5  1  0
 19  8  1  0
  1 25  1  0
  1 26  1  0
  1 27  1  0
  6 28  1  0
  9 29  1  0
 11 30  1  0
 11 31  1  0
 12 32  1  0
 12 33  1  0
 13 34  1  0
 13 35  1  0
 15 36  1  0
 15 37  1  0
 15 38  1  0
 16 39  1  0
 16 40  1  0
 16 41  1  0
 17 42  1  0
 18 43  1  0
 23 44  1  0
M  CHG  2  11   1  23  -1
M  END
>  <UniqueID>  (28) 
28

>  <SMILES>  (28) 
Cc1nc(-n2cnc3cc([NH2+]CCN(C)C)ccc32)sc1C([NH-])=O

>  <Energy>  (28) 
119.98689987101486

>  <Genealogy>  (28) 
Cc1nc(-n2cnc3cc([NH2+]CCN(C)C)ccc32)sc1C([NH-])=O (protonated)
Cc1nc(-n2cnc3cc([NH2+]CCN(C)C)ccc32)sc1C([NH-])=O (3D coordinates assigned)
Cc1nc(-n2cnc3cc([NH2+]CCN(C)C)ccc32)sc1C([NH-])=O (optimized conformer: 119.98689987101486 kcal/mol)

>  <smiles>  (28) 
Cc1nc(-n2cnc3cc(NCCN(C)C)ccc32)sc1C(N)=O

>  <score_type>  (28) 
oracle

>  <origin>  (28) 
adg

>  <m_score__min__energy>  (28) 
-9.0199999999999996

>  <m_primary>  (28) 
energy

$$$$
28:0
     RDKit          3D

 42 43  0  0  0  0  0  0  0  0999 V2000
   -9.1190   18.9210  -31.9690 C   0  0  0  0  0  0  0  0  0  0  0  0
   -8.7030   20.0270  -32.9370 C   0  0  0  0  0  0  0  0  0  0  0  0
   -7.6260   20.8630  -32.3580 N   0  0  0  0  0  0  0  0  0  0  0  0
   -8.1520   22.1760  -31.9180 C   0  0  0  0  0  0  0  0  0  0  0  0
   -7.7150   22.4790  -30.4860 C   0  0  0  0  0  0  0  0  0  0  0  0
   -6.9020   20.1580  -31.2650 C   0  0  0  0  0  0  0  0  0  0  0  0
   -5.6890   19.4000  -31.8260 C   0  0  0  0  0  0  0  0  0  0  0  0
   -5.2330   19.8880  -33.2210 C   0  0  0  0  0  0  0  0  0  0  0  0
   -4.9740   21.3380  -33.2770 N   0  0  0  0  0  0  0  0  0  0  0  0
   -3.9700   21.7530  -32.3220 C   0  0  0  0  0  0  0  0  0  0  0  0
   -2.8540   20.9310  -32.0790 C   0  0  0  0  0  0  0  0  0  0  0  0
   -1.8920   21.2960  -31.1320 C   0  0  0  0  0  0  0  0  0  0  0  0
   -0.3980   20.1530  -30.8070 Br  0  0  0  0  0  0  0  0  0  0  0  0
   -2.0270   22.4880  -30.4170 C   0  0  0  0  0  0  0  0  0  0  0  0
   -3.1260   23.3300  -30.6490 C   0  0  0  0  0  0  0  0  0  0  0  0
   -3.3080   24.5340  -29.9480 C   0  0  0  0  0  0  0  0  0  0  0  0
   -2.4780   24.9100  -29.0780 O   0  0  0  0  0  0  0  0  0  0  0  0
   -4.3930   25.3090  -30.2090 N   0  0  0  0  0  0  0  0  0  0  0  0
   -5.3110   24.9450  -31.1390 C   0  0  0  0  0  0  0  0  0  0  0  0
   -5.1600   23.7870  -31.8290 N   0  0  0  0  0  0  0  0  0  0  0  0
   -4.0970   22.9660  -31.6100 C   0  0  0  0  0  0  0  0  0  0  0  0
   -8.9875   19.2707  -30.9344 H   0  0  0  0  0  0  0  0  0  0  0  0
  -10.1752   18.6641  -32.1378 H   0  0  0  0  0  0  0  0  0  0  0  0
   -8.4939   18.0318  -32.1378 H   0  0  0  0  0  0  0  0  0  0  0  0
   -8.3416   19.5707  -33.8704 H   0  0  0  0  0  0  0  0  0  0  0  0
   -9.5758   20.6671  -33.1332 H   0  0  0  0  0  0  0  0  0  0  0  0
   -7.7689   22.9611  -32.5864 H   0  0  0  0  0  0  0  0  0  0  0  0
   -9.2510   22.1474  -31.9544 H   0  0  0  0  0  0  0  0  0  0  0  0
   -8.4091   21.9978  -29.7812 H   0  0  0  0  0  0  0  0  0  0  0  0
   -6.6989   22.0906  -30.3228 H   0  0  0  0  0  0  0  0  0  0  0  0
   -7.7224   23.5668  -30.3228 H   0  0  0  0  0  0  0  0  0  0  0  0
   -6.5578   20.8949  -30.5244 H   0  0  0  0  0  0  0  0  0  0  0  0
   -7.5852   19.4370  -30.7924 H   0  0  0  0  0  0  0  0  0  0  0  0
   -4.8500   19.5227  -31.1252 H   0  0  0  0  0  0  0  0  0  0  0  0
   -5.9949   18.3496  -31.9404 H   0  0  0  0  0  0  0  0  0  0  0  0
   -4.3079   19.3577  -33.4909 H   0  0  0  0  0  0  0  0  0  0  0  0
   -6.0527   19.6767  -33.9234 H   0  0  0  0  0  0  0  0  0  0  0  0
   -5.8640   21.8470  -33.0720 H   0  0  0  0  0  0  0  0  0  0  0  0
   -4.6970   21.6100  -34.2500 H   0  0  0  0  0  0  0  0  0  0  0  0
   -2.7372   19.9918  -32.6396 H   0  0  0  0  0  0  0  0  0  0  0  0
   -1.2699   22.7680  -29.6698 H   0  0  0  0  0  0  0  0  0  0  0  0
   -6.1800   25.5905  -31.3341 H   0  0  0  0  0  0  0  0  0  0  0  0
  1  2  1  0
  2  3  1  0
  3  4  1  0
  4  5  1  0
  3  6  1  0
  6  7  1  0
  7  8  1  0
  8  9  1  0
  9 10  1  0
 10 11  2  0
 11 12  1  0
 12 13  1  0
 12 14  2  0
 14 15  1  0
 15 16  1  0
 16 17  2  0
 16 18  1  0
 18 19  1  0
 19 20  2  0
 20 21  1  0
 21 10  1  0
 21 15  2  0
  1 22  1  0
  1 23  1  0
  1 24  1  0
  2 25  1  0
  2 26  1  0
  4 27  1  0
  4 28  1  0
  5 29  1  0
  5 30  1  0
  5 31  1  0
  6 32  1  0
  6 33  1  0
  7 34  1  0
  7 35  1  0
  8 36  1  0
  8 37  1  0
  9 38  1  0
  9 39  1  0
 11 40  1  0
 14 41  1  0
 19 42  1  0
M  CHG  2   9   1  18  -1
M  END
>  <UniqueID>  (29) 
29

>  <SMILES>  (29) 
CCN(CC)CCC[NH2+]c1cc(Br)cc2c(=O)[n-]cnc12

>  <Energy>  (29) 
45.93761846715298

>  <Genealogy>  (29) 
CCN(CC)CCC[NH2+]c1cc(Br)cc2c(=O)[n-]cnc12 (protonated)
CCN(CC)CCC[NH2+]c1cc(Br)cc2c(=O)[n-]cnc12 (3D coordinates assigned)
CCN(CC)CCC[NH2+]c1cc(Br)cc2c(=O)[n-]cnc12 (optimized conformer: 45.93761846715298 kcal/mol)

>  <smiles>  (29) 
CCN(CC)CCCNc1cc(Br)cc2c(=O)[nH]cnc12

>  <score_type>  (29) 
oracle

>  <origin>  (29) 
adg

>  <m_score__min__energy>  (29) 
-7.54

>  <m_primary>  (29) 
energy

$$$$
29:0
     RDKit          3D

 46 49  0  0  0  0  0  0  0  0999 V2000
   -4.5383   21.6936  -32.5384 H   0  0  0  0  0  0  0  0  0  0  0  0
   -4.3050   20.7710  -33.0900 C   0  0  0  0  0  0  0  0  0  0  0  0
   -2.8960   20.3690  -33.2380 C   0  0  0  0  0  0  0  0  0  0  0  0
   -2.3910   20.2130  -34.3840 O   0  0  0  0  0  0  0  0  0  0  0  0
   -2.0950   20.2110  -32.0610 N   0  0  0  0  0  0  0  0  0  0  0  0
   -1.8860   21.1880  -31.0320 C   0  0  0  0  0  0  0  0  0  0  0  0
   -0.9030   21.0300  -30.0390 C   0  0  0  0  0  0  0  0  0  0  0  0
   -0.2526   20.1430  -30.0493 H   0  0  0  0  0  0  0  0  0  0  0  0
   -0.7480   21.9940  -29.0390 C   0  0  0  0  0  0  0  0  0  0  0  0
    0.0254   21.8608  -28.2682 H   0  0  0  0  0  0  0  0  0  0  0  0
   -1.5720   23.1320  -29.0100 C   0  0  0  0  0  0  0  0  0  0  0  0
   -1.3970   24.1380  -27.9380 C   0  0  0  0  0  0  0  0  0  0  0  0
   -1.2800   23.7990  -26.6240 N   0  0  0  0  0  0  0  0  0  0  0  0
   -1.1100   24.9880  -26.0130 C   0  0  0  0  0  0  0  0  0  0  0  0
   -0.9160   25.2290  -24.6540 C   0  0  0  0  0  0  0  0  0  0  0  0
   -0.9138   24.4052  -23.9250 H   0  0  0  0  0  0  0  0  0  0  0  0
   -0.7230   26.5620  -24.2460 C   0  0  0  0  0  0  0  0  0  0  0  0
   -0.5711   26.7908  -23.1808 H   0  0  0  0  0  0  0  0  0  0  0  0
   -0.7230   27.6100  -25.1970 C   0  0  0  0  0  0  0  0  0  0  0  0
   -0.5695   28.6479  -24.8665 H   0  0  0  0  0  0  0  0  0  0  0  0
   -0.9180   27.3330  -26.5620 C   0  0  0  0  0  0  0  0  0  0  0  0
   -0.9144   28.1355  -27.3143 H   0  0  0  0  0  0  0  0  0  0  0  0
   -1.1160   26.0020  -26.9240 C   0  0  0  0  0  0  0  0  0  0  0  0
   -1.3040   25.4780  -28.1400 N   0  0  0  0  0  0  0  0  0  0  0  0
   -1.2320   26.1500  -29.3380 O   0  0  0  0  0  0  0  0  0  0  0  0
   -2.5790   23.2670  -29.9800 C   0  0  0  0  0  0  0  0  0  0  0  0
   -3.2490   24.1391  -29.9548 H   0  0  0  0  0  0  0  0  0  0  0  0
   -2.7350   22.2990  -30.9780 C   0  0  0  0  0  0  0  0  0  0  0  0
   -3.5324   22.4123  -31.7272 H   0  0  0  0  0  0  0  0  0  0  0  0
   -5.3140   20.0520  -33.6040 C   0  0  0  0  0  0  0  0  0  0  0  0
   -5.1826   19.6045  -34.6002 H   0  0  0  0  0  0  0  0  0  0  0  0
   -6.6010   19.8300  -32.8940 C   0  0  0  0  0  0  0  0  0  0  0  0
   -7.1030   18.5290  -32.6830 C   0  0  0  0  0  0  0  0  0  0  0  0
   -6.5293   17.6592  -33.0355 H   0  0  0  0  0  0  0  0  0  0  0  0
   -8.3210   18.3360  -32.0310 C   0  0  0  0  0  0  0  0  0  0  0  0
   -8.6985   17.3165  -31.8636 H   0  0  0  0  0  0  0  0  0  0  0  0
   -9.0610   19.4330  -31.5910 C   0  0  0  0  0  0  0  0  0  0  0  0
  -10.0194   19.2770  -31.0742 H   0  0  0  0  0  0  0  0  0  0  0  0
   -8.5880   20.7280  -31.8050 C   0  0  0  0  0  0  0  0  0  0  0  0
   -9.1789   21.5894  -31.4603 H   0  0  0  0  0  0  0  0  0  0  0  0
   -7.3580   20.9400  -32.4600 C   0  0  0  0  0  0  0  0  0  0  0  0
   -6.8590   22.2350  -32.6840 O   0  0  0  0  0  0  0  0  0  0  0  0
   -6.8780   23.2880  -31.7260 C   0  0  0  0  0  0  0  0  0  0  0  0
   -6.8703   22.8615  -30.7121 H   0  0  0  0  0  0  0  0  0  0  0  0
   -5.9912   23.9243  -31.8629 H   0  0  0  0  0  0  0  0  0  0  0  0
   -7.7872   23.8919  -31.8629 H   0  0  0  0  0  0  0  0  0  0  0  0
  1  2  1  0
  2  3  1  0
  3  4  2  0
  3  5  1  0
  5  6  1  0
  6  7  2  0
  7  8  1  0
  7  9  1  0
  9 10  1  0
  9 11  2  0
 11 12  1  0
 12 13  2  0
 13 14  1  0
 14 15  2  0
 15 16  1  0
 15 17  1  0
 17 18  1  0
 17 19  2  0
 19 20  1  0
 19 21  1  0
 21 22  1  0
 21 23  2  0
 23 24  1  0
 24 25  1  0
 11 26  1  0
 26 27  1  0
 26 28  2  0
 28 29  1  0
  2 30  2  0
 30 31  1  0
 30 32  1  0
 32 33  2  0
 33 34  1  0
 33 35  1  0
 35 36  1  0
 35 37  2  0
 37 38  1  0
 37 39  1  0
 39 40  1  0
 39 41  2  0
 41 42  1  0
 42 43  1  0
 43 44  1  0
 43 45  1  0
 43 46  1  0
 28  6  1  0
 41 32  1  0
 24 12  1  0
 23 14  1  0
M  CHG  2   5  -1  25  -1
M  END
>  <UniqueID>  (30) 
30

>  <SMILES>  (30) 
COc1ccccc1/C=C/C(=O)[N-]c1ccc(-c2nc3ccccc3n2[O-])cc1

>  <Energy>  (30) 
98.75971110916632

>  <Genealogy>  (30) 
COc1ccccc1C=CC(=O)[N-]c1ccc(-c2nc3ccccc3n2[O-])cc1 (protonated)
COc1ccccc1/C=C/C(=O)[N-]c1ccc(-c2nc3ccccc3n2[O-])cc1 (cis-trans isomerization)
COc1ccccc1/C=C/C(=O)[N-]c1ccc(-c2nc3ccccc3n2[O-])cc1 (3D coordinates assigned)
COc1ccccc1/C=C/C(=O)[N-]c1ccc(-c2nc3ccccc3n2[O-])cc1 (optimized conformer: 98.75971110916632 kcal/mol)

>  <smiles>  (30) 
COc1ccccc1C=CC(=O)Nc1ccc(-c2nc3ccccc3n2O)cc1

>  <score_type>  (30) 
oracle

>  <origin>  (30) 
adg

>  <m_score__min__energy>  (30) 
-11.6

>  <m_primary>  (30) 
energy

$$$$
30:0
     RDKit          3D

 45 46  0  0  0  0  0  0  0  0999 V2000
   -3.7180   18.6940  -26.3470 C   0  0  0  0  0  0  0  0  0  0  0  0
   -2.3520   19.2770  -25.9650 C   0  0  0  0  0  0  0  0  0  0  0  0
   -1.7120   20.0140  -27.0840 N   0  0  0  0  0  0  0  0  0  0  0  0
   -2.6240   20.0730  -28.2620 C   0  0  0  0  0  0  0  0  0  0  0  0
   -3.3970   21.3970  -28.3340 C   0  0  0  0  0  0  0  0  0  0  0  0
   -2.4680   22.5400  -28.4820 N   0  0  0  0  0  0  0  0  0  0  0  0
   -3.1100   23.8430  -28.2020 C   0  0  0  0  0  0  0  0  0  0  0  0
   -2.7400   24.9130  -29.1930 C   0  0  0  0  0  0  0  0  0  0  0  0
   -1.7420   25.6550  -28.9720 O   0  0  0  0  0  0  0  0  0  0  0  0
   -3.4860   25.0480  -30.4060 N   0  0  0  0  0  0  0  0  0  0  0  0
   -4.5950   24.2140  -30.7580 C   0  0  0  0  0  0  0  0  0  0  0  0
   -4.3430   23.0510  -31.4970 C   0  0  0  0  0  0  0  0  0  0  0  0
   -5.3930   22.2090  -31.8870 C   0  0  0  0  0  0  0  0  0  0  0  0
   -5.1080   20.9960  -32.7230 C   0  0  0  0  0  0  0  0  0  0  0  0
   -6.7090   22.5450  -31.5430 C   0  0  0  0  0  0  0  0  0  0  0  0
   -6.9680   23.6850  -30.7800 C   0  0  0  0  0  0  0  0  0  0  0  0
   -5.9170   24.5160  -30.3560 C   0  0  0  0  0  0  0  0  0  0  0  0
   -6.2350   25.7090  -29.4950 C   0  0  0  0  0  0  0  0  0  0  0  0
   -1.1580   22.3530  -27.8150 C   0  0  0  0  0  0  0  0  0  0  0  0
   -1.2450   21.3600  -26.6450 C   0  0  0  0  0  0  0  0  0  0  0  0
   -4.2822   18.4532  -25.4339 H   0  0  0  0  0  0  0  0  0  0  0  0
   -4.2784   19.4314  -26.9405 H   0  0  0  0  0  0  0  0  0  0  0  0
   -3.5733   17.7793  -26.9405 H   0  0  0  0  0  0  0  0  0  0  0  0
   -2.4879   19.9682  -25.1201 H   0  0  0  0  0  0  0  0  0  0  0  0
   -1.6936   18.4366  -25.7002 H   0  0  0  0  0  0  0  0  0  0  0  0
   -0.8690   19.4650  -27.3790 H   0  0  0  0  0  0  0  0  0  0  0  0
   -2.0258   19.9623  -29.1785 H   0  0  0  0  0  0  0  0  0  0  0  0
   -3.3578   19.2598  -28.1607 H   0  0  0  0  0  0  0  0  0  0  0  0
   -4.0774   21.3710  -29.1979 H   0  0  0  0  0  0  0  0  0  0  0  0
   -3.9670   21.5240  -27.4018 H   0  0  0  0  0  0  0  0  0  0  0  0
   -4.2013   23.7070  -28.2259 H   0  0  0  0  0  0  0  0  0  0  0  0
   -2.7558   24.1758  -27.2152 H   0  0  0  0  0  0  0  0  0  0  0  0
   -3.3095   22.7959  -31.7742 H   0  0  0  0  0  0  0  0  0  0  0  0
   -4.9062   20.1371  -32.0661 H   0  0  0  0  0  0  0  0  0  0  0  0
   -5.9788   20.7754  -33.3579 H   0  0  0  0  0  0  0  0  0  0  0  0
   -4.2301   21.1863  -33.3579 H   0  0  0  0  0  0  0  0  0  0  0  0
   -7.5417   21.9078  -31.8756 H   0  0  0  0  0  0  0  0  0  0  0  0
   -8.0041   23.9351  -30.5082 H   0  0  0  0  0  0  0  0  0  0  0  0
   -6.1597   25.4264  -28.4346 H   0  0  0  0  0  0  0  0  0  0  0  0
   -5.5210   26.5175  -29.7106 H   0  0  0  0  0  0  0  0  0  0  0  0
   -7.2567   26.0549  -29.7106 H   0  0  0  0  0  0  0  0  0  0  0  0
   -0.4355   21.9717  -28.5516 H   0  0  0  0  0  0  0  0  0  0  0  0
   -0.8394   23.3258  -27.4124 H   0  0  0  0  0  0  0  0  0  0  0  0
   -0.2481   21.2587  -26.1911 H   0  0  0  0  0  0  0  0  0  0  0  0
   -1.9754   21.7523  -25.9220 H   0  0  0  0  0  0  0  0  0  0  0  0
  1  2  1  0
  2  3  1  0
  3  4  1  0
  4  5  1  0
  5  6  1  0
  6  7  1  0
  7  8  1  0
  8  9  2  0
  8 10  1  0
 10 11  1  0
 11 12  2  0
 12 13  1  0
 13 14  1  0
 13 15  2  0
 15 16  1  0
 16 17  2  0
 17 18  1  0
  6 19  1  0
 19 20  1  0
 20  3  1  0
 17 11  1  0
  1 21  1  0
  1 22  1  0
  1 23  1  0
  2 24  1  0
  2 25  1  0
  3 26  1  0
  4 27  1  0
  4 28  1  0
  5 29  1  0
  5 30  1  0
  7 31  1  0
  7 32  1  0
 12 33  1  0
 14 34  1  0
 14 35  1  0
 14 36  1  0
 15 37  1  0
 16 38  1  0
 18 39  1  0
 18 40  1  0
 18 41  1  0
 19 42  1  0
 19 43  1  0
 20 44  1  0
 20 45  1  0
M  CHG  2   3   1  10  -1
M  END
>  <UniqueID>  (31) 
31

>  <SMILES>  (31) 
CC[NH+]1CCN(CC(=O)[N-]c2cc(C)ccc2C)CC1

>  <Energy>  (31) 
61.75410243798873

>  <Genealogy>  (31) 
CC[NH+]1CCN(CC(=O)[N-]c2cc(C)ccc2C)CC1 (protonated)
CC[NH+]1CCN(CC(=O)[N-]c2cc(C)ccc2C)CC1 (3D coordinates assigned)
CC[NH+]1CCN(CC(=O)[N-]c2cc(C)ccc2C)CC1 (nonaromatic ring conformer: 61.75410243798873 kcal/mol)

>  <smiles>  (31) 
CCN1CCN(CC(=O)Nc2cc(C)ccc2C)CC1

>  <score_type>  (31) 
oracle

>  <origin>  (31) 
adg

>  <m_score__min__energy>  (31) 
-8.4499999999999993

>  <m_primary>  (31) 
energy

$$$$
31:0
     RDKit          3D

 41 44  0  0  0  0  0  0  0  0999 V2000
   -5.1080   25.6110  -30.5280 C   0  0  0  0  0  0  0  0  0  0  0  0
   -3.7610   25.1510  -30.4760 O   0  0  0  0  0  0  0  0  0  0  0  0
   -3.2270   24.3560  -29.4470 C   0  0  0  0  0  0  0  0  0  0  0  0
   -2.6290   24.9230  -28.3030 C   0  0  0  0  0  0  0  0  0  0  0  0
   -2.1070   24.1070  -27.2840 C   0  0  0  0  0  0  0  0  0  0  0  0
   -1.4820   24.7100  -26.0790 C   0  0  0  0  0  0  0  0  0  0  0  0
   -0.7080   23.9310  -25.2000 C   0  0  0  0  0  0  0  0  0  0  0  0
   -0.1390   24.4930  -24.0990 N   0  0  0  0  0  0  0  0  0  0  0  0
   -0.2970   25.8140  -23.8120 C   0  0  0  0  0  0  0  0  0  0  0  0
   -1.0550   26.6270  -24.6530 C   0  0  0  0  0  0  0  0  0  0  0  0
   -1.2190   27.9430  -24.3670 F   0  0  0  0  0  0  0  0  0  0  0  0
   -1.6480   26.0750  -25.7890 C   0  0  0  0  0  0  0  0  0  0  0  0
   -2.1840   22.7110  -27.4220 C   0  0  0  0  0  0  0  0  0  0  0  0
   -2.7720   22.1430  -28.5510 C   0  0  0  0  0  0  0  0  0  0  0  0
   -3.3000   22.9560  -29.5630 C   0  0  0  0  0  0  0  0  0  0  0  0
   -3.9060   22.3300  -30.7610 C   0  0  0  0  0  0  0  0  0  0  0  0
   -3.0570   21.8310  -31.7600 C   0  0  0  0  0  0  0  0  0  0  0  0
   -3.5670   21.2200  -32.8600 N   0  0  0  0  0  0  0  0  0  0  0  0
   -4.9040   21.0690  -33.0430 C   0  0  0  0  0  0  0  0  0  0  0  0
   -5.8040   21.5540  -32.0870 C   0  0  0  0  0  0  0  0  0  0  0  0
   -7.1870   21.4110  -32.2750 C   0  0  0  0  0  0  0  0  0  0  0  0
   -8.0790   21.9140  -31.3260 C   0  0  0  0  0  0  0  0  0  0  0  0
   -7.6000   22.5650  -30.1890 C   0  0  0  0  0  0  0  0  0  0  0  0
   -6.2250   22.7130  -29.9880 C   0  0  0  0  0  0  0  0  0  0  0  0
   -5.3060   22.2000  -30.9270 C   0  0  0  0  0  0  0  0  0  0  0  0
   -5.4906   25.7417  -29.5050 H   0  0  0  0  0  0  0  0  0  0  0  0
   -5.1466   26.5733  -31.0596 H   0  0  0  0  0  0  0  0  0  0  0  0
   -5.7271   24.8734  -31.0596 H   0  0  0  0  0  0  0  0  0  0  0  0
   -2.5701   26.0172  -28.2065 H   0  0  0  0  0  0  0  0  0  0  0  0
   -0.5616   22.8600  -25.4040 H   0  0  0  0  0  0  0  0  0  0  0  0
    0.4340   23.8980  -23.4610 H   0  0  0  0  0  0  0  0  0  0  0  0
    0.1745   26.2409  -22.9145 H   0  0  0  0  0  0  0  0  0  0  0  0
   -2.2467   26.7096  -26.4590 H   0  0  0  0  0  0  0  0  0  0  0  0
   -1.7772   22.0613  -26.6331 H   0  0  0  0  0  0  0  0  0  0  0  0
   -2.8219   21.0485  -28.6483 H   0  0  0  0  0  0  0  0  0  0  0  0
   -1.9674   21.9357  -31.6511 H   0  0  0  0  0  0  0  0  0  0  0  0
   -5.2807   20.5642  -33.9448 H   0  0  0  0  0  0  0  0  0  0  0  0
   -7.5693   20.9016  -33.1719 H   0  0  0  0  0  0  0  0  0  0  0  0
   -9.1625   21.7966  -31.4753 H   0  0  0  0  0  0  0  0  0  0  0  0
   -8.3078   22.9636  -29.4473 H   0  0  0  0  0  0  0  0  0  0  0  0
   -5.8569   23.2331  -29.0914 H   0  0  0  0  0  0  0  0  0  0  0  0
  1  2  1  0
  2  3  1  0
  3  4  2  0
  4  5  1  0
  5  6  1  0
  6  7  2  0
  7  8  1  0
  8  9  2  0
  9 10  1  0
 10 11  1  0
 10 12  2  0
  5 13  2  0
 13 14  1  0
 14 15  2  0
 15 16  1  0
 16 17  2  0
 17 18  1  0
 18 19  2  0
 19 20  1  0
 20 21  2  0
 21 22  1  0
 22 23  2  0
 23 24  1  0
 24 25  2  0
 15  3  1  0
 25 16  1  0
 12  6  1  0
 25 20  1  0
  1 26  1  0
  1 27  1  0
  1 28  1  0
  4 29  1  0
  7 30  1  0
  8 31  1  0
  9 32  1  0
 12 33  1  0
 13 34  1  0
 14 35  1  0
 17 36  1  0
 19 37  1  0
 21 38  1  0
 22 39  1  0
 23 40  1  0
 24 41  1  0
M  CHG  1   8   1
M  END
>  <UniqueID>  (32) 
32

>  <SMILES>  (32) 
COc1cc(-c2c[nH+]cc(F)c2)ccc1-c1cncc2ccccc12

>  <Energy>  (32) 
63.52270049079493

>  <Genealogy>  (32) 
COc1cc(-c2c[nH+]cc(F)c2)ccc1-c1cncc2ccccc12 (protonated)
COc1cc(-c2c[nH+]cc(F)c2)ccc1-c1cncc2ccccc12 (3D coordinates assigned)
COc1cc(-c2c[nH+]cc(F)c2)ccc1-c1cncc2ccccc12 (optimized conformer: 63.52270049079493 kcal/mol)

>  <smiles>  (32) 
COc1cc(-c2cncc(F)c2)ccc1-c1cncc2ccccc12

>  <score_type>  (32) 
oracle

>  <origin>  (32) 
adg

>  <m_score__min__energy>  (32) 
-9.1799999999999997

>  <m_primary>  (32) 
energy

$$$$
32:0
     RDKit          3D

 48 50  0  0  1  0  0  0  0  0999 V2000
   -0.8450   26.0590  -27.6310 C   0  0  0  0  0  0  0  0  0  0  0  0
   -1.1950   25.1060  -28.7490 C   0  0  0  0  0  0  0  0  0  0  0  0
   -2.5150   24.4980  -28.5510 N   0  0  0  0  0  0  0  0  0  0  0  0
   -2.7600   24.4440  -27.0940 C   0  0  0  0  0  0  0  0  0  0  0  0
   -4.2380   24.6000  -26.8210 C   0  0  0  0  0  0  0  0  0  0  0  0
   -2.4720   23.0700  -28.9270 C   0  0  0  0  0  0  0  0  0  0  0  0
   -1.4960   22.9000  -30.1040 C   0  0  0  0  0  0  0  0  0  0  0  0
   -2.2680   22.0590  -31.0940 C   0  0  0  0  0  0  0  0  0  0  0  0
   -3.2210   22.6640  -31.9080 N   0  0  0  0  0  0  0  0  0  0  0  0
   -4.4720   22.7210  -31.7080 C   0  0  0  0  0  0  0  0  0  0  0  0
   -5.2730   21.6530  -31.9860 C   0  0  0  0  0  0  0  0  0  0  0  0
   -6.6220   21.7730  -31.7300 C   0  0  0  0  0  0  0  0  0  0  0  0
   -7.4580   20.5900  -31.9530 C   0  0  0  0  0  0  0  0  0  0  0  0
   -6.7890   19.3700  -31.7790 C   0  0  0  0  0  0  0  0  0  0  0  0
   -7.4320   18.1550  -31.9450 C   0  0  0  0  0  0  0  0  0  0  0  0
   -8.7660   18.2060  -32.2890 C   0  0  0  0  0  0  0  0  0  0  0  0
   -9.4310   19.4250  -32.4640 C   0  0  0  0  0  0  0  0  0  0  0  0
   -8.7770   20.6200  -32.2980 C   0  0  0  0  0  0  0  0  0  0  0  0
   -7.1330   22.9220  -31.2180 N   0  0  0  0  0  0  0  0  0  0  0  0
   -6.2910   23.9630  -30.9550 C   0  0  0  0  0  0  0  0  0  0  0  0
   -6.5490   25.1740  -30.4650 N   0  0  0  0  0  0  0  0  0  0  0  0
   -5.3630   25.8310  -30.4030 C   0  0  0  0  0  0  0  0  0  0  0  0
   -4.3980   25.0400  -30.8470 N   0  0  0  0  0  0  0  0  0  0  0  0
   -4.9580   23.8720  -31.1960 N   0  0  0  0  0  0  0  0  0  0  0  0
   -1.0247   25.5697  -26.6624 H   0  0  0  0  0  0  0  0  0  0  0  0
    0.2154   26.3411  -27.7082 H   0  0  0  0  0  0  0  0  0  0  0  0
   -1.4708   26.9604  -27.7082 H   0  0  0  0  0  0  0  0  0  0  0  0
   -1.1959   25.6579  -29.7005 H   0  0  0  0  0  0  0  0  0  0  0  0
   -0.4453   24.3012  -28.7605 H   0  0  0  0  0  0  0  0  0  0  0  0
   -2.4155   23.4762  -26.7007 H   0  0  0  0  0  0  0  0  0  0  0  0
   -2.2100   25.2593  -26.6012 H   0  0  0  0  0  0  0  0  0  0  0  0
   -4.4103   24.6182  -25.7347 H   0  0  0  0  0  0  0  0  0  0  0  0
   -4.5955   25.5409  -27.2648 H   0  0  0  0  0  0  0  0  0  0  0  0
   -4.7841   23.7545  -27.2648 H   0  0  0  0  0  0  0  0  0  0  0  0
   -2.1272   22.4718  -28.0707 H   0  0  0  0  0  0  0  0  0  0  0  0
   -3.4759   22.7287  -29.2198 H   0  0  0  0  0  0  0  0  0  0  0  0
   -1.2334   23.8755  -30.5393 H   0  0  0  0  0  0  0  0  0  0  0  0
   -0.5442   22.4373  -29.8039 H   0  0  0  0  0  0  0  0  0  0  0  0
   -1.5293   21.5895  -31.7602 H   0  0  0  0  0  0  0  0  0  0  0  0
   -2.8608   21.3867  -30.4563 H   0  0  0  0  0  0  0  0  0  0  0  0
   -4.8553   20.7242  -32.4018 H   0  0  0  0  0  0  0  0  0  0  0  0
   -5.7242   19.3784  -31.5031 H   0  0  0  0  0  0  0  0  0  0  0  0
   -6.9057   17.1987  -31.8094 H   0  0  0  0  0  0  0  0  0  0  0  0
   -9.3208   17.2666  -32.4292 H   0  0  0  0  0  0  0  0  0  0  0  0
  -10.4960   19.4252  -32.7393 H   0  0  0  0  0  0  0  0  0  0  0  0
   -9.3024   21.5760  -32.4394 H   0  0  0  0  0  0  0  0  0  0  0  0
   -8.1670   23.0190  -31.0180 H   0  0  0  0  0  0  0  0  0  0  0  0
   -5.2248   26.8603  -30.0404 H   0  0  0  0  0  0  0  0  0  0  0  0
  1  2  1  0
  2  3  1  0
  3  4  1  0
  4  5  1  0
  3  6  1  0
  6  7  1  0
  7  8  1  0
  8  9  1  0
  9 10  2  0
 10 11  1  0
 11 12  2  0
 12 13  1  0
 13 14  2  0
 14 15  1  0
 15 16  2  0
 16 17  1  0
 17 18  2  0
 12 19  1  0
 19 20  1  0
 20 21  2  0
 21 22  1  0
 22 23  2  0
 23 24  1  0
 24 10  1  0
 18 13  1  0
 24 20  1  0
  1 25  1  0
  1 26  1  0
  1 27  1  0
  2 28  1  0
  2 29  1  0
  4 30  1  0
  4 31  1  0
  5 32  1  0
  5 33  1  0
  5 34  1  0
  6 35  1  0
  6 36  1  0
  7 37  1  0
  7 38  1  0
  8 39  1  0
  8 40  1  0
 11 41  1  0
 14 42  1  0
 15 43  1  0
 16 44  1  0
 17 45  1  0
 18 46  1  0
 19 47  1  0
 22 48  1  0
M  END
>  <smiles>  (33) 
CCN(CC)CCCN=c1cc(-c2ccccc2)[nH]c2ncnn12

>  <score_type>  (33) 
oracle

>  <origin>  (33) 
adg

>  <m_score__min__energy>  (33) 
-7.6200000000000001

>  <m_primary>  (33) 
energy

$$$$
33:0
     RDKit          3D

 53 56  0  0  0  0  0  0  0  0999 V2000
   -1.9890   24.9300  -28.1890 C   0  0  0  0  0  0  0  0  0  0  0  0
   -2.7490   25.2960  -29.3380 O   0  0  0  0  0  0  0  0  0  0  0  0
   -3.8210   24.5510  -29.8500 C   0  0  0  0  0  0  0  0  0  0  0  0
   -4.7790   25.1070  -30.7200 C   0  0  0  0  0  0  0  0  0  0  0  0
   -5.8320   24.3230  -31.2010 C   0  0  0  0  0  0  0  0  0  0  0  0
   -5.9490   22.9770  -30.8160 C   0  0  0  0  0  0  0  0  0  0  0  0
   -7.0650   22.1470  -31.3300 C   0  0  0  0  0  0  0  0  0  0  0  0
   -8.3790   22.6090  -31.1410 C   0  0  0  0  0  0  0  0  0  0  0  0
   -9.4650   21.8910  -31.6450 C   0  0  0  0  0  0  0  0  0  0  0  0
   -9.2540   20.6960  -32.3310 C   0  0  0  0  0  0  0  0  0  0  0  0
   -7.9560   20.2120  -32.5150 C   0  0  0  0  0  0  0  0  0  0  0  0
   -6.8440   20.9270  -32.0280 C   0  0  0  0  0  0  0  0  0  0  0  0
   -5.4830   20.3490  -32.1890 C   0  0  0  0  0  0  0  0  0  0  0  0
   -5.0710   19.5220  -31.3270 O   0  0  0  0  0  0  0  0  0  0  0  0
   -4.6430   20.6890  -33.3240 N   0  0  0  0  0  0  0  0  0  0  0  0
   -3.8700   19.4990  -33.7900 C   0  0  0  0  0  0  0  0  0  0  0  0
   -2.3550   19.7410  -33.9000 C   0  0  0  0  0  0  0  0  0  0  0  0
   -1.8660   20.4060  -32.6880 N   0  0  0  0  0  0  0  0  0  0  0  0
   -0.6080   20.0250  -32.1000 C   0  0  0  0  0  0  0  0  0  0  0  0
    0.5330   19.8450  -32.9050 C   0  0  0  0  0  0  0  0  0  0  0  0
    1.7590   19.4940  -32.3250 C   0  0  0  0  0  0  0  0  0  0  0  0
    1.8540   19.3090  -30.9430 C   0  0  0  0  0  0  0  0  0  0  0  0
    0.7250   19.4800  -30.1370 C   0  0  0  0  0  0  0  0  0  0  0  0
   -0.4990   19.8420  -30.7090 C   0  0  0  0  0  0  0  0  0  0  0  0
   -2.5850   21.5770  -32.1730 C   0  0  0  0  0  0  0  0  0  0  0  0
   -3.8200   21.8900  -33.0330 C   0  0  0  0  0  0  0  0  0  0  0  0
   -4.9830   22.4200  -29.9630 C   0  0  0  0  0  0  0  0  0  0  0  0
   -3.9340   23.2060  -29.4780 C   0  0  0  0  0  0  0  0  0  0  0  0
   -2.5467   25.1986  -27.2797 H   0  0  0  0  0  0  0  0  0  0  0  0
   -1.8066   23.8453  -28.2003 H   0  0  0  0  0  0  0  0  0  0  0  0
   -1.0272   25.4637  -28.2003 H   0  0  0  0  0  0  0  0  0  0  0  0
   -4.6985   26.1616  -31.0221 H   0  0  0  0  0  0  0  0  0  0  0  0
   -6.5731   24.7626  -31.8848 H   0  0  0  0  0  0  0  0  0  0  0  0
   -8.5533   23.5453  -30.5907 H   0  0  0  0  0  0  0  0  0  0  0  0
  -10.4880   22.2686  -31.5007 H   0  0  0  0  0  0  0  0  0  0  0  0
  -10.1112   20.1327  -32.7284 H   0  0  0  0  0  0  0  0  0  0  0  0
   -7.8007   19.2615  -33.0464 H   0  0  0  0  0  0  0  0  0  0  0  0
   -5.2670   20.9810  -34.1130 H   0  0  0  0  0  0  0  0  0  0  0  0
   -4.0382   18.6770  -33.0786 H   0  0  0  0  0  0  0  0  0  0  0  0
   -4.2289   19.2629  -34.8026 H   0  0  0  0  0  0  0  0  0  0  0  0
   -1.8395   18.7767  -34.0201 H   0  0  0  0  0  0  0  0  0  0  0  0
   -2.1531   20.3818  -34.7710 H   0  0  0  0  0  0  0  0  0  0  0  0
    0.4615   19.9806  -33.9943 H   0  0  0  0  0  0  0  0  0  0  0  0
    2.6487   19.3637  -32.9586 H   0  0  0  0  0  0  0  0  0  0  0  0
    2.8165   19.0290  -30.4900 H   0  0  0  0  0  0  0  0  0  0  0  0
    0.7993   19.3295  -29.0499 H   0  0  0  0  0  0  0  0  0  0  0  0
   -1.3814   19.9844  -30.0679 H   0  0  0  0  0  0  0  0  0  0  0  0
   -2.9076   21.3753  -31.1409 H   0  0  0  0  0  0  0  0  0  0  0  0
   -1.9086   22.4439  -32.2040 H   0  0  0  0  0  0  0  0  0  0  0  0
   -4.4437   22.6212  -32.4979 H   0  0  0  0  0  0  0  0  0  0  0  0
   -3.4602   22.2837  -33.9951 H   0  0  0  0  0  0  0  0  0  0  0  0
   -5.0520   21.3606  -29.6752 H   0  0  0  0  0  0  0  0  0  0  0  0
   -3.1907   22.7640  -28.7981 H   0  0  0  0  0  0  0  0  0  0  0  0
  1  2  1  0
  2  3  1  0
  3  4  2  0
  4  5  1  0
  5  6  2  0
  6  7  1  0
  7  8  2  0
  8  9  1  0
  9 10  2  0
 10 11  1  0
 11 12  2  0
 12 13  1  0
 13 14  2  0
 13 15  1  0
 15 16  1  0
 16 17  1  0
 17 18  1  0
 18 19  1  0
 19 20  2  0
 20 21  1  0
 21 22  2  0
 22 23  1  0
 23 24  2  0
 18 25  1  0
 25 26  1  0
  6 27  1  0
 27 28  2  0
 28  3  1  0
 12  7  1  0
 26 15  1  0
 24 19  1  0
  1 29  1  0
  1 30  1  0
  1 31  1  0
  4 32  1  0
  5 33  1  0
  8 34  1  0
  9 35  1  0
 10 36  1  0
 11 37  1  0
 15 38  1  0
 16 39  1  0
 16 40  1  0
 17 41  1  0
 17 42  1  0
 20 43  1  0
 21 44  1  0
 22 45  1  0
 23 46  1  0
 24 47  1  0
 25 48  1  0
 25 49  1  0
 26 50  1  0
 26 51  1  0
 27 52  1  0
 28 53  1  0
M  CHG  1  15   1
M  END
>  <UniqueID>  (34) 
33

>  <SMILES>  (34) 
COc1ccc(-c2ccccc2C(=O)[NH+]2CCN(c3ccccc3)CC2)cc1

>  <Energy>  (34) 
81.10506315154805

>  <Genealogy>  (34) 
COc1ccc(-c2ccccc2C(=O)[NH+]2CCN(c3ccccc3)CC2)cc1 (protonated)
COc1ccc(-c2ccccc2C(=O)[NH+]2CCN(c3ccccc3)CC2)cc1 (3D coordinates assigned)
COc1ccc(-c2ccccc2C(=O)[NH+]2CCN(c3ccccc3)CC2)cc1 (nonaromatic ring conformer: 81.10506315154805 kcal/mol)

>  <smiles>  (34) 
COc1ccc(-c2ccccc2C(=O)N2CCN(c3ccccc3)CC2)cc1

>  <score_type>  (34) 
oracle

>  <origin>  (34) 
adg

>  <m_score__min__energy>  (34) 
-8.4399999999999995

>  <m_primary>  (34) 
energy

$$$$
34:0
     RDKit          3D

 61 65  0  0  0  0  0  0  0  0999 V2000
    2.3160   25.4090  -26.4520 C   0  0  0  0  0  0  0  0  0  0  0  0
    1.9260   24.5580  -25.2390 C   0  0  0  0  0  0  0  0  0  0  0  0
    0.8970   23.5500  -25.5910 N   0  0  0  0  0  0  0  0  0  0  0  0
    1.0110   23.1350  -27.0130 C   0  0  0  0  0  0  0  0  0  0  0  0
   -0.3040   22.5420  -27.5330 C   0  0  0  0  0  0  0  0  0  0  0  0
   -1.4070   23.5410  -27.5140 N   0  0  0  0  0  0  0  0  0  0  0  0
   -2.7390   22.8840  -27.4690 C   0  0  0  0  0  0  0  0  0  0  0  0
   -3.6670   23.4190  -28.5760 C   0  0  0  0  0  0  0  0  0  0  0  0
   -2.9100   24.1570  -29.6860 C   0  0  0  0  0  0  0  0  0  0  0  0
   -3.6860   25.2530  -30.2530 N   0  0  0  0  0  0  0  0  0  0  0  0
   -4.9980   25.1050  -30.8130 C   0  0  0  0  0  0  0  0  0  0  0  0
   -5.7440   26.1120  -30.9540 O   0  0  0  0  0  0  0  0  0  0  0  0
   -5.4620   23.7800  -31.2690 C   0  0  0  0  0  0  0  0  0  0  0  0
   -6.6730   23.2390  -30.7720 C   0  0  0  0  0  0  0  0  0  0  0  0
   -7.0670   21.9280  -31.0970 C   0  0  0  0  0  0  0  0  0  0  0  0
   -6.2470   21.1650  -31.9330 C   0  0  0  0  0  0  0  0  0  0  0  0
   -5.0770   21.7150  -32.4520 C   0  0  0  0  0  0  0  0  0  0  0  0
   -4.6670   23.0120  -32.1410 C   0  0  0  0  0  0  0  0  0  0  0  0
   -4.2300   20.5630  -33.3590 S   0  0  0  0  0  0  0  0  0  0  0  0
   -5.3680   19.3520  -33.0760 C   0  0  0  0  0  0  0  0  0  0  0  0
   -5.2690   18.0510  -33.4530 N   0  0  0  0  0  0  0  0  0  0  0  0
   -6.2300   17.1500  -33.0820 C   0  0  0  0  0  0  0  0  0  0  0  0
   -6.0680   15.7200  -33.4620 C   0  0  0  0  0  0  0  0  0  0  0  0
   -6.9800   15.0670  -34.3120 C   0  0  0  0  0  0  0  0  0  0  0  0
   -6.8070   13.7170  -34.6250 C   0  0  0  0  0  0  0  0  0  0  0  0
   -5.7240   13.0210  -34.0890 C   0  0  0  0  0  0  0  0  0  0  0  0
   -4.8390   13.6640  -33.2840 N   0  0  0  0  0  0  0  0  0  0  0  0
   -4.9800   14.9790  -32.9670 C   0  0  0  0  0  0  0  0  0  0  0  0
   -7.3210   17.5870  -32.2880 C   0  0  0  0  0  0  0  0  0  0  0  0
   -7.4100   18.9300  -31.8850 C   0  0  0  0  0  0  0  0  0  0  0  0
   -6.4090   19.8160  -32.2860 C   0  0  0  0  0  0  0  0  0  0  0  0
   -1.2550   24.5570  -26.4380 C   0  0  0  0  0  0  0  0  0  0  0  0
   -0.4700   24.0150  -25.2280 C   0  0  0  0  0  0  0  0  0  0  0  0
    2.7514   26.3590  -26.1087 H   0  0  0  0  0  0  0  0  0  0  0  0
    3.0548   24.8653  -27.0591 H   0  0  0  0  0  0  0  0  0  0  0  0
    1.4218   25.6136  -27.0591 H   0  0  0  0  0  0  0  0  0  0  0  0
    2.8206   24.0396  -24.8635 H   0  0  0  0  0  0  0  0  0  0  0  0
    1.5079   25.2241  -24.4699 H   0  0  0  0  0  0  0  0  0  0  0  0
    1.2724   24.0132  -27.6217 H   0  0  0  0  0  0  0  0  0  0  0  0
    1.7903   22.3621  -27.0853 H   0  0  0  0  0  0  0  0  0  0  0  0
   -0.1545   22.1964  -28.5665 H   0  0  0  0  0  0  0  0  0  0  0  0
   -0.5870   21.7080  -26.8740 H   0  0  0  0  0  0  0  0  0  0  0  0
   -2.6083   21.8002  -27.6043 H   0  0  0  0  0  0  0  0  0  0  0  0
   -3.2003   23.1028  -26.4947 H   0  0  0  0  0  0  0  0  0  0  0  0
   -4.2052   22.5702  -29.0231 H   0  0  0  0  0  0  0  0  0  0  0  0
   -4.3540   24.1406  -28.1098 H   0  0  0  0  0  0  0  0  0  0  0  0
   -1.9775   24.5637  -29.2677 H   0  0  0  0  0  0  0  0  0  0  0  0
   -2.7090   23.4359  -30.4920 H   0  0  0  0  0  0  0  0  0  0  0  0
   -7.3147   23.8526  -30.1226 H   0  0  0  0  0  0  0  0  0  0  0  0
   -8.0042   21.5108  -30.7000 H   0  0  0  0  0  0  0  0  0  0  0  0
   -3.7417   23.4259  -32.5683 H   0  0  0  0  0  0  0  0  0  0  0  0
   -7.8322   15.6219  -34.7313 H   0  0  0  0  0  0  0  0  0  0  0  0
   -7.5197   13.2065  -35.2894 H   0  0  0  0  0  0  0  0  0  0  0  0
   -5.5868   11.9538  -34.3176 H   0  0  0  0  0  0  0  0  0  0  0  0
   -4.2374   15.4668  -32.3185 H   0  0  0  0  0  0  0  0  0  0  0  0
   -8.1004   16.8717  -31.9866 H   0  0  0  0  0  0  0  0  0  0  0  0
   -8.2511   19.2760  -31.2663 H   0  0  0  0  0  0  0  0  0  0  0  0
   -0.7195   25.4269  -26.8461 H   0  0  0  0  0  0  0  0  0  0  0  0
   -2.2618   24.8316  -26.0901 H   0  0  0  0  0  0  0  0  0  0  0  0
   -0.3819   24.8154  -24.4786 H   0  0  0  0  0  0  0  0  0  0  0  0
   -1.0221   23.1485  -24.8351 H   0  0  0  0  0  0  0  0  0  0  0  0
  1  2  1  0
  2  3  1  0
  3  4  1  0
  4  5  1  0
  5  6  1  0
  6  7  1  0
  7  8  1  0
  8  9  1  0
  9 10  1  0
 10 11  1  0
 11 12  2  0
 11 13  1  0
 13 14  2  0
 14 15  1  0
 15 16  2  0
 16 17  1  0
 17 18  2  0
 17 19  1  0
 19 20  1  0
 20 21  2  0
 21 22  1  0
 22 23  1  0
 23 24  2  0
 24 25  1  0
 25 26  2  0
 26 27  1  0
 27 28  2  0
 22 29  2  0
 29 30  1  0
 30 31  2  0
  6 32  1  0
 32 33  1  0
 33  3  1  0
 18 13  1  0
 31 20  1  0
 31 16  1  0
 28 23  1  0
  1 34  1  0
  1 35  1  0
  1 36  1  0
  2 37  1  0
  2 38  1  0
  4 39  1  0
  4 40  1  0
  5 41  1  0
  5 42  1  0
  7 43  1  0
  7 44  1  0
  8 45  1  0
  8 46  1  0
  9 47  1  0
  9 48  1  0
 14 49  1  0
 15 50  1  0
 18 51  1  0
 24 52  1  0
 25 53  1  0
 26 54  1  0
 28 55  1  0
 29 56  1  0
 30 57  1  0
 32 58  1  0
 32 59  1  0
 33 60  1  0
 33 61  1  0
M  CHG  1  10  -1
M  END
>  <UniqueID>  (35) 
34

>  <SMILES>  (35) 
CCN1CCN(CCC[N-]C(=O)c2ccc3c(c2)sc2nc(-c4cccnc4)ccc23)CC1

>  <Energy>  (35) 
119.7588797272995

>  <Genealogy>  (35) 
CCN1CCN(CCC[N-]C(=O)c2ccc3c(c2)sc2nc(-c4cccnc4)ccc23)CC1 (protonated)
CCN1CCN(CCC[N-]C(=O)c2ccc3c(c2)sc2nc(-c4cccnc4)ccc23)CC1 (3D coordinates assigned)
CCN1CCN(CCC[N-]C(=O)c2ccc3c(c2)sc2nc(-c4cccnc4)ccc23)CC1 (nonaromatic ring conformer: 119.7588797272995 kcal/mol)

>  <smiles>  (35) 
CCN1CCN(CCCNC(=O)c2ccc3c(c2)sc2nc(-c4cccnc4)ccc23)CC1

>  <score_type>  (35) 
oracle

>  <origin>  (35) 
adg

>  <m_score__min__energy>  (35) 
-11.98

>  <m_primary>  (35) 
energy

$$$$
35:0
     RDKit          3D

 41 42  0  0  0  0  0  0  0  0999 V2000
   -3.1580   25.3000  -25.9440 C   0  0  0  0  0  0  0  0  0  0  0  0
   -4.2300   24.5900  -26.7810 C   0  0  0  0  0  0  0  0  0  0  0  0
   -3.8290   24.4320  -28.2050 N   0  0  0  0  0  0  0  0  0  0  0  0
   -2.4840   23.7990  -28.3130 C   0  0  0  0  0  0  0  0  0  0  0  0
   -2.5090   22.2670  -28.4420 C   0  0  0  0  0  0  0  0  0  0  0  0
   -4.8750   23.7100  -28.9780 C   0  0  0  0  0  0  0  0  0  0  0  0
   -4.8470   24.0630  -30.4460 C   0  0  0  0  0  0  0  0  0  0  0  0
   -4.2820   25.1290  -30.8110 O   0  0  0  0  0  0  0  0  0  0  0  0
   -5.3980   23.1780  -31.4370 N   0  0  0  0  0  0  0  0  0  0  0  0
   -4.5770   22.0400  -31.8930 C   0  0  0  0  0  0  0  0  0  0  0  0
   -5.3050   21.1470  -32.9160 C   0  0  0  0  0  0  0  0  0  0  0  0
   -6.7600   20.9940  -32.5590 C   0  0  0  0  0  0  0  0  0  0  0  0
   -7.4260   19.7680  -32.7080 C   0  0  0  0  0  0  0  0  0  0  0  0
   -8.7880   19.6700  -32.4080 C   0  0  0  0  0  0  0  0  0  0  0  0
   -9.4930   20.7980  -31.9740 C   0  0  0  0  0  0  0  0  0  0  0  0
   -8.8390   22.0260  -31.8380 C   0  0  0  0  0  0  0  0  0  0  0  0
   -7.4700   22.1250  -32.1270 C   0  0  0  0  0  0  0  0  0  0  0  0
   -6.7310   23.4260  -32.0100 C   0  0  0  0  0  0  0  0  0  0  0  0
   -3.3735   25.1573  -24.8748 H   0  0  0  0  0  0  0  0  0  0  0  0
   -2.1700   24.8771  -26.1785 H   0  0  0  0  0  0  0  0  0  0  0  0
   -3.1619   26.3747  -26.1785 H   0  0  0  0  0  0  0  0  0  0  0  0
   -4.4092   23.5930  -26.3523 H   0  0  0  0  0  0  0  0  0  0  0  0
   -5.1382   25.2101  -26.7564 H   0  0  0  0  0  0  0  0  0  0  0  0
   -3.7310   25.3900  -28.6190 H   0  0  0  0  0  0  0  0  0  0  0  0
   -1.9809   24.2104  -29.2005 H   0  0  0  0  0  0  0  0  0  0  0  0
   -1.9554   24.0255  -27.3753 H   0  0  0  0  0  0  0  0  0  0  0  0
   -2.5164   21.8147  -27.4393 H   0  0  0  0  0  0  0  0  0  0  0  0
   -3.4123   21.9598  -28.9895 H   0  0  0  0  0  0  0  0  0  0  0  0
   -1.6162   21.9305  -28.9895 H   0  0  0  0  0  0  0  0  0  0  0  0
   -4.7104   22.6277  -28.8710 H   0  0  0  0  0  0  0  0  0  0  0  0
   -5.8555   24.0080  -28.5783 H   0  0  0  0  0  0  0  0  0  0  0  0
   -3.6611   22.4325  -32.3588 H   0  0  0  0  0  0  0  0  0  0  0  0
   -4.3550   21.4194  -31.0123 H   0  0  0  0  0  0  0  0  0  0  0  0
   -5.2254   21.6039  -33.9134 H   0  0  0  0  0  0  0  0  0  0  0  0
   -4.8358   20.1521  -32.9096 H   0  0  0  0  0  0  0  0  0  0  0  0
   -6.8760   18.8832  -33.0611 H   0  0  0  0  0  0  0  0  0  0  0  0
   -9.3058   18.7052  -32.5133 H   0  0  0  0  0  0  0  0  0  0  0  0
  -10.5647   20.7183  -31.7392 H   0  0  0  0  0  0  0  0  0  0  0  0
   -9.3972   22.9134  -31.5048 H   0  0  0  0  0  0  0  0  0  0  0  0
   -6.6241   23.8789  -33.0067 H   0  0  0  0  0  0  0  0  0  0  0  0
   -7.2915   24.1109  -31.3567 H   0  0  0  0  0  0  0  0  0  0  0  0
  1  2  1  0
  2  3  1  0
  3  4  1  0
  4  5  1  0
  3  6  1  0
  6  7  1  0
  7  8  2  0
  7  9  1  0
  9 10  1  0
 10 11  1  0
 11 12  1  0
 12 13  2  0
 13 14  1  0
 14 15  2  0
 15 16  1  0
 16 17  2  0
 17 18  1  0
 18  9  1  0
 17 12  1  0
  1 19  1  0
  1 20  1  0
  1 21  1  0
  2 22  1  0
  2 23  1  0
  3 24  1  0
  4 25  1  0
  4 26  1  0
  5 27  1  0
  5 28  1  0
  5 29  1  0
  6 30  1  0
  6 31  1  0
 10 32  1  0
 10 33  1  0
 11 34  1  0
 11 35  1  0
 13 36  1  0
 14 37  1  0
 15 38  1  0
 16 39  1  0
 18 40  1  0
 18 41  1  0
M  CHG  1   3   1
M  END
>  <UniqueID>  (36) 
35

>  <SMILES>  (36) 
CC[NH+](CC)CC(=O)N1CCc2ccccc2C1

>  <Energy>  (36) 
47.31540428923119

>  <Genealogy>  (36) 
CC[NH+](CC)CC(=O)N1CCc2ccccc2C1 (protonated)
CC[NH+](CC)CC(=O)N1CCc2ccccc2C1 (3D coordinates assigned)
CC[NH+](CC)CC(=O)N1CCc2ccccc2C1 (nonaromatic ring conformer: 47.31540428923119 kcal/mol)

>  <smiles>  (36) 
CCN(CC)CC(=O)N1CCc2ccccc2C1

>  <score_type>  (36) 
oracle

>  <origin>  (36) 
adg

>  <m_score__min__energy>  (36) 
-6.5899999999999999

>  <m_primary>  (36) 
energy

$$$$
36:0
     RDKit          3D

 63 67  0  0  0  0  0  0  0  0999 V2000
   -2.9210   24.9840  -26.5430 C   0  0  0  0  0  0  0  0  0  0  0  0
   -3.4440   23.8170  -27.1670 O   0  0  0  0  0  0  0  0  0  0  0  0
   -2.7480   23.0260  -28.0960 C   0  0  0  0  0  0  0  0  0  0  0  0
   -2.2170   21.7690  -27.7450 C   0  0  0  0  0  0  0  0  0  0  0  0
   -1.6020   20.9660  -28.7080 C   0  0  0  0  0  0  0  0  0  0  0  0
   -1.5350   21.3880  -30.0400 C   0  0  0  0  0  0  0  0  0  0  0  0
   -0.7760   20.3680  -31.2620 S   0  0  0  0  0  0  0  0  0  0  0  0
   -0.7260   18.9580  -30.7430 O   0  0  0  0  0  0  0  0  0  0  0  0
    0.6420   20.8270  -31.4600 O   0  0  0  0  0  0  0  0  0  0  0  0
   -1.6020   20.3800  -32.8110 N   0  0  0  0  0  0  0  0  0  0  0  0
   -1.1950   21.5170  -33.6690 C   0  0  0  0  0  0  0  0  0  0  0  0
    0.0060   21.1890  -34.5690 C   0  0  0  0  0  0  0  0  0  0  0  0
   -0.2250   20.0110  -35.3050 O   0  0  0  0  0  0  0  0  0  0  0  0
   -0.3170   18.9220  -34.4130 C   0  0  0  0  0  0  0  0  0  0  0  0
   -1.5460   19.0700  -33.5020 C   0  0  0  0  0  0  0  0  0  0  0  0
   -2.0290   22.6500  -30.3870 C   0  0  0  0  0  0  0  0  0  0  0  0
   -2.6050   23.4840  -29.4220 C   0  0  0  0  0  0  0  0  0  0  0  0
   -3.0980   24.7640  -29.8410 N   0  0  0  0  0  0  0  0  0  0  0  0
   -4.4470   25.0490  -30.2240 C   0  0  0  0  0  0  0  0  0  0  0  0
   -4.6910   25.6740  -31.2920 O   0  0  0  0  0  0  0  0  0  0  0  0
   -5.5730   24.6000  -29.3410 C   0  0  0  0  0  0  0  0  0  0  0  0
   -6.3860   23.4440  -29.9470 C   0  0  0  0  0  0  0  0  0  0  0  0
   -6.3910   23.4310  -31.4830 C   0  0  0  0  0  0  0  0  0  0  0  0
   -6.2020   22.0800  -32.0080 N   0  0  0  0  0  0  0  0  0  0  0  0
   -5.0480   21.5550  -32.6840 C   0  0  0  0  0  0  0  0  0  0  0  0
   -3.9750   22.1870  -32.8640 O   0  0  0  0  0  0  0  0  0  0  0  0
   -5.3190   20.1810  -33.1040 C   0  0  0  0  0  0  0  0  0  0  0  0
   -4.5770   19.2030  -33.7630 C   0  0  0  0  0  0  0  0  0  0  0  0
   -5.1880   17.9410  -33.9700 C   0  0  0  0  0  0  0  0  0  0  0  0
   -6.5090   17.6880  -33.5140 C   0  0  0  0  0  0  0  0  0  0  0  0
   -7.2220   18.7030  -32.8450 C   0  0  0  0  0  0  0  0  0  0  0  0
   -8.5210   18.5750  -32.3200 C   0  0  0  0  0  0  0  0  0  0  0  0
   -9.1150   19.6720  -31.6420 C   0  0  0  0  0  0  0  0  0  0  0  0
   -8.4220   20.8980  -31.4930 C   0  0  0  0  0  0  0  0  0  0  0  0
   -7.1360   20.9930  -32.0360 C   0  0  0  0  0  0  0  0  0  0  0  0
   -6.5860   19.9200  -32.6780 C   0  0  0  0  0  0  0  0  0  0  0  0
   -2.9722   24.8697  -25.4502 H   0  0  0  0  0  0  0  0  0  0  0  0
   -1.8736   25.1249  -26.8482 H   0  0  0  0  0  0  0  0  0  0  0  0
   -3.5128   25.8595  -26.8482 H   0  0  0  0  0  0  0  0  0  0  0  0
   -2.2873   21.4176  -26.7050 H   0  0  0  0  0  0  0  0  0  0  0  0
   -1.1684   19.9976  -28.4178 H   0  0  0  0  0  0  0  0  0  0  0  0
   -2.6090   20.5380  -32.5660 H   0  0  0  0  0  0  0  0  0  0  0  0
   -2.0458   21.7965  -34.3077 H   0  0  0  0  0  0  0  0  0  0  0  0
   -0.8934   22.3398  -33.0042 H   0  0  0  0  0  0  0  0  0  0  0  0
    0.1716   22.0231  -35.2668 H   0  0  0  0  0  0  0  0  0  0  0  0
    0.8910   21.0386  -33.9333 H   0  0  0  0  0  0  0  0  0  0  0  0
   -0.4047   17.9892  -34.9894 H   0  0  0  0  0  0  0  0  0  0  0  0
    0.5873   18.8995  -33.7870 H   0  0  0  0  0  0  0  0  0  0  0  0
   -2.4522   18.9586  -34.1155 H   0  0  0  0  0  0  0  0  0  0  0  0
   -1.4758   18.2926  -32.7269 H   0  0  0  0  0  0  0  0  0  0  0  0
   -1.9639   22.9909  -31.4308 H   0  0  0  0  0  0  0  0  0  0  0  0
   -5.1539   24.2679  -28.3797 H   0  0  0  0  0  0  0  0  0  0  0  0
   -6.2556   25.4537  -29.2176 H   0  0  0  0  0  0  0  0  0  0  0  0
   -5.9570   22.4949  -29.5931 H   0  0  0  0  0  0  0  0  0  0  0  0
   -7.4285   23.5801  -29.6234 H   0  0  0  0  0  0  0  0  0  0  0  0
   -7.3551   23.8218  -31.8406 H   0  0  0  0  0  0  0  0  0  0  0  0
   -5.5590   24.0580  -31.8361 H   0  0  0  0  0  0  0  0  0  0  0  0
   -3.5527   19.4033  -34.1105 H   0  0  0  0  0  0  0  0  0  0  0  0
   -4.6319   17.1474  -34.4905 H   0  0  0  0  0  0  0  0  0  0  0  0
   -6.9732   16.7050  -33.6821 H   0  0  0  0  0  0  0  0  0  0  0  0
   -9.0732   17.6305  -32.4341 H   0  0  0  0  0  0  0  0  0  0  0  0
  -10.1282   19.5681  -31.2264 H   0  0  0  0  0  0  0  0  0  0  0  0
   -8.8802   21.7486  -30.9671 H   0  0  0  0  0  0  0  0  0  0  0  0
  1  2  1  0
  2  3  1  0
  3  4  2  0
  4  5  1  0
  5  6  2  0
  6  7  1  0
  7  8  2  0
  7  9  2  0
  7 10  1  0
 10 11  1  0
 11 12  1  0
 12 13  1  0
 13 14  1  0
 14 15  1  0
  6 16  1  0
 16 17  2  0
 17 18  1  0
 18 19  1  0
 19 20  2  0
 19 21  1  0
 21 22  1  0
 22 23  1  0
 23 24  1  0
 24 25  1  0
 25 26  2  0
 25 27  1  0
 27 28  1  0
 28 29  2  0
 29 30  1  0
 30 31  2  0
 31 32  1  0
 32 33  2  0
 33 34  1  0
 34 35  2  0
 35 36  1  0
 17  3  1  0
 35 24  1  0
 15 10  1  0
 36 27  2  0
 36 31  1  0
  1 37  1  0
  1 38  1  0
  1 39  1  0
  4 40  1  0
  5 41  1  0
 10 42  1  0
 11 43  1  0
 11 44  1  0
 12 45  1  0
 12 46  1  0
 14 47  1  0
 14 48  1  0
 15 49  1  0
 15 50  1  0
 16 51  1  0
 21 52  1  0
 21 53  1  0
 22 54  1  0
 22 55  1  0
 23 56  1  0
 23 57  1  0
 28 58  1  0
 29 59  1  0
 30 60  1  0
 32 61  1  0
 33 62  1  0
 34 63  1  0
M  CHG  2  10   1  18  -1
M  END
>  <UniqueID>  (37) 
36

>  <SMILES>  (37) 
COc1ccc(S(=O)(=O)[NH+]2CCOCC2)cc1[N-]C(=O)CCCN1C(=O)c2cccc3cccc1c23

>  <Energy>  (37) 
114.25362987747761

>  <Genealogy>  (37) 
COc1ccc(S(=O)(=O)[NH+]2CCOCC2)cc1[N-]C(=O)CCCN1C(=O)c2cccc3cccc1c23 (protonated)
COc1ccc(S(=O)(=O)[NH+]2CCOCC2)cc1[N-]C(=O)CCCN1C(=O)c2cccc3cccc1c23 (3D coordinates assigned)
COc1ccc(S(=O)(=O)[NH+]2CCOCC2)cc1[N-]C(=O)CCCN1C(=O)c2cccc3cccc1c23 (nonaromatic ring conformer: 114.25362987747761 kcal/mol)

>  <smiles>  (37) 
COc1ccc(S(=O)(=O)N2CCOCC2)cc1NC(=O)CCCN1C(=O)c2cccc3cccc1c23

>  <score_type>  (37) 
oracle

>  <origin>  (37) 
adg

>  <m_score__min__energy>  (37) 
-13.449999999999999

>  <m_primary>  (37) 
energy

$$$$
37:0
     RDKit          3D

 55 59  0  0  0  0  0  0  0  0999 V2000
    0.9450   24.1540  -27.8480 C   0  0  0  0  0  0  0  0  0  0  0  0
   -0.2090   24.2750  -28.6740 O   0  0  0  0  0  0  0  0  0  0  0  0
   -1.5030   23.8830  -28.3010 C   0  0  0  0  0  0  0  0  0  0  0  0
   -2.3240   24.7040  -27.4990 C   0  0  0  0  0  0  0  0  0  0  0  0
   -3.6170   24.2990  -27.1630 C   0  0  0  0  0  0  0  0  0  0  0  0
   -4.1090   23.0750  -27.6190 C   0  0  0  0  0  0  0  0  0  0  0  0
   -3.3060   22.2510  -28.4080 C   0  0  0  0  0  0  0  0  0  0  0  0
   -2.0000   22.6430  -28.7520 C   0  0  0  0  0  0  0  0  0  0  0  0
   -1.1780   21.7660  -29.5480 N   0  0  0  0  0  0  0  0  0  0  0  0
   -1.1580   20.3230  -29.2810 C   0  0  0  0  0  0  0  0  0  0  0  0
   -0.8690   19.5380  -30.5740 C   0  0  0  0  0  0  0  0  0  0  0  0
   -1.5060   20.1750  -31.7460 N   0  0  0  0  0  0  0  0  0  0  0  0
   -2.9870   20.1210  -31.6830 C   0  0  0  0  0  0  0  0  0  0  0  0
   -3.6200   21.0190  -32.7550 C   0  0  0  0  0  0  0  0  0  0  0  0
   -5.0370   21.3280  -32.4530 N   0  0  0  0  0  0  0  0  0  0  0  0
   -5.9980   20.4330  -32.8830 C   0  0  0  0  0  0  0  0  0  0  0  0
   -5.6840   19.3750  -33.4960 O   0  0  0  0  0  0  0  0  0  0  0  0
   -7.3360   20.7060  -32.6280 C   0  0  0  0  0  0  0  0  0  0  0  0
   -8.4040   19.9660  -32.9670 N   0  0  0  0  0  0  0  0  0  0  0  0
   -9.4820   20.6010  -32.5220 N   0  0  0  0  0  0  0  0  0  0  0  0
   -9.0440   21.7270  -31.9130 C   0  0  0  0  0  0  0  0  0  0  0  0
   -7.6980   21.8070  -31.9720 N   0  0  0  0  0  0  0  0  0  0  0  0
   -6.8030   22.7140  -31.5030 C   0  0  0  0  0  0  0  0  0  0  0  0
   -7.2140   23.8550  -30.7930 C   0  0  0  0  0  0  0  0  0  0  0  0
   -6.2680   24.7510  -30.3010 C   0  0  0  0  0  0  0  0  0  0  0  0
   -4.9100   24.5160  -30.5030 C   0  0  0  0  0  0  0  0  0  0  0  0
   -4.4820   23.3900  -31.2100 C   0  0  0  0  0  0  0  0  0  0  0  0
   -5.4170   22.4660  -31.7410 C   0  0  0  0  0  0  0  0  0  0  0  0
   -0.9840   21.5470  -31.9990 C   0  0  0  0  0  0  0  0  0  0  0  0
   -0.4770   22.2650  -30.7330 C   0  0  0  0  0  0  0  0  0  0  0  0
    0.6439   24.1856  -26.7905 H   0  0  0  0  0  0  0  0  0  0  0  0
    1.4475   23.1982  -28.0578 H   0  0  0  0  0  0  0  0  0  0  0  0
    1.6348   24.9847  -28.0578 H   0  0  0  0  0  0  0  0  0  0  0  0
   -1.9425   25.6698  -27.1361 H   0  0  0  0  0  0  0  0  0  0  0  0
   -4.2495   24.9460  -26.5374 H   0  0  0  0  0  0  0  0  0  0  0  0
   -5.1297   22.7601  -27.3563 H   0  0  0  0  0  0  0  0  0  0  0  0
   -3.6977   21.2867  -28.7640 H   0  0  0  0  0  0  0  0  0  0  0  0
   -0.3742   20.1028  -28.5412 H   0  0  0  0  0  0  0  0  0  0  0  0
   -2.1419   20.0197  -28.8937 H   0  0  0  0  0  0  0  0  0  0  0  0
    0.2186   19.5004  -30.7343 H   0  0  0  0  0  0  0  0  0  0  0  0
   -1.2827   18.5248  -30.4634 H   0  0  0  0  0  0  0  0  0  0  0  0
   -3.3156   19.0836  -31.8438 H   0  0  0  0  0  0  0  0  0  0  0  0
   -3.3074   20.4797  -30.6937 H   0  0  0  0  0  0  0  0  0  0  0  0
   -3.0546   21.9610  -32.8085 H   0  0  0  0  0  0  0  0  0  0  0  0
   -3.5862   20.4801  -33.7134 H   0  0  0  0  0  0  0  0  0  0  0  0
   -8.4150   19.0590  -33.4830 H   0  0  0  0  0  0  0  0  0  0  0  0
   -9.6951   22.4742  -31.4357 H   0  0  0  0  0  0  0  0  0  0  0  0
   -8.2852   24.0409  -30.6255 H   0  0  0  0  0  0  0  0  0  0  0  0
   -6.5941   25.6464  -29.7516 H   0  0  0  0  0  0  0  0  0  0  0  0
   -4.1686   25.2230  -30.1024 H   0  0  0  0  0  0  0  0  0  0  0  0
   -3.4055   23.2179  -31.3567 H   0  0  0  0  0  0  0  0  0  0  0  0
   -0.1506   21.4743  -32.7133 H   0  0  0  0  0  0  0  0  0  0  0  0
   -1.8234   22.1414  -32.3889 H   0  0  0  0  0  0  0  0  0  0  0  0
    0.6017   22.0819  -30.6199 H   0  0  0  0  0  0  0  0  0  0  0  0
   -0.6688   23.3435  -30.8334 H   0  0  0  0  0  0  0  0  0  0  0  0
  1  2  1  0
  2  3  1  0
  3  4  2  0
  4  5  1  0
  5  6  2  0
  6  7  1  0
  7  8  2  0
  8  9  1  0
  9 10  1  0
 10 11  1  0
 11 12  1  0
 12 13  1  0
 13 14  1  0
 14 15  1  0
 15 16  1  0
 16 17  2  0
 16 18  1  0
 18 19  2  0
 19 20  1  0
 20 21  2  0
 21 22  1  0
 22 23  1  0
 23 24  2  0
 24 25  1  0
 25 26  2  0
 26 27  1  0
 27 28  2  0
 12 29  1  0
 29 30  1  0
  8  3  1  0
 30  9  1  0
 28 15  1  0
 22 18  1  0
 28 23  1  0
  1 31  1  0
  1 32  1  0
  1 33  1  0
  4 34  1  0
  5 35  1  0
  6 36  1  0
  7 37  1  0
 10 38  1  0
 10 39  1  0
 11 40  1  0
 11 41  1  0
 13 42  1  0
 13 43  1  0
 14 44  1  0
 14 45  1  0
 19 46  1  0
 21 47  1  0
 24 48  1  0
 25 49  1  0
 26 50  1  0
 27 51  1  0
 29 52  1  0
 29 53  1  0
 30 54  1  0
 30 55  1  0
M  CHG  1  19   1
M  END
>  <UniqueID>  (38) 
37

>  <SMILES>  (38) 
COc1ccccc1N1CCN(CCn2c(=O)c3[nH+]ncn3c3ccccc32)CC1

>  <Energy>  (38) 
125.03099490159288

>  <Genealogy>  (38) 
COc1ccccc1N1CCN(CCn2c(=O)c3[nH+]ncn3c3ccccc32)CC1 (protonated)
COc1ccccc1N1CCN(CCn2c(=O)c3[nH+]ncn3c3ccccc32)CC1 (3D coordinates assigned)
COc1ccccc1N1CCN(CCn2c(=O)c3[nH+]ncn3c3ccccc32)CC1 (nonaromatic ring conformer: 125.03099490159288 kcal/mol)

>  <smiles>  (38) 
COc1ccccc1N1CCN(CCn2c(=O)c3nncn3c3ccccc32)CC1

>  <score_type>  (38) 
oracle

>  <origin>  (38) 
adg

>  <m_score__min__energy>  (38) 
-8.8399999999999999

>  <m_primary>  (38) 
energy

$$$$
38:0
     RDKit          3D

 44 46  0  0  0  0  0  0  0  0999 V2000
   -1.9780   25.6770  -26.5370 C   0  0  0  0  0  0  0  0  0  0  0  0
   -1.1650   25.7710  -27.8240 C   0  0  0  0  0  0  0  0  0  0  0  0
   -2.0120   25.6460  -28.9680 O   0  0  0  0  0  0  0  0  0  0  0  0
   -2.7650   24.5110  -29.3080 C   0  0  0  0  0  0  0  0  0  0  0  0
   -2.3880   23.2820  -28.7550 C   0  0  0  0  0  0  0  0  0  0  0  0
   -3.1010   22.1200  -29.0520 C   0  0  0  0  0  0  0  0  0  0  0  0
   -4.2020   22.1730  -29.9090 C   0  0  0  0  0  0  0  0  0  0  0  0
   -4.5920   23.3930  -30.4890 C   0  0  0  0  0  0  0  0  0  0  0  0
   -5.7650   23.4610  -31.3930 C   0  0  0  0  0  0  0  0  0  0  0  0
   -6.0340   24.5540  -31.9630 O   0  0  0  0  0  0  0  0  0  0  0  0
   -6.6330   22.2860  -31.6490 C   0  0  0  0  0  0  0  0  0  0  0  0
   -7.9880   22.3180  -31.2980 C   0  0  0  0  0  0  0  0  0  0  0  0
   -8.7990   21.2120  -31.5420 C   0  0  0  0  0  0  0  0  0  0  0  0
   -8.2560   20.0760  -32.1450 C   0  0  0  0  0  0  0  0  0  0  0  0
   -8.9960   19.0740  -32.3500 O   0  0  0  0  0  0  0  0  0  0  0  0
   -6.9330   20.0520  -32.5040 N   0  0  0  0  0  0  0  0  0  0  0  0
   -6.3690   18.8920  -33.1460 C   0  0  0  0  0  0  0  0  0  0  0  0
   -6.0460   18.9530  -34.5110 C   0  0  0  0  0  0  0  0  0  0  0  0
   -5.4760   17.8510  -35.1530 C   0  0  0  0  0  0  0  0  0  0  0  0
   -5.2190   16.6820  -34.4370 C   0  0  0  0  0  0  0  0  0  0  0  0
   -5.5380   16.6050  -33.0800 C   0  0  0  0  0  0  0  0  0  0  0  0
   -6.1300   17.6980  -32.4240 C   0  0  0  0  0  0  0  0  0  0  0  0
   -6.4530   17.5900  -30.9590 C   0  0  0  0  0  0  0  0  0  0  0  0
   -6.1300   21.1360  -32.2790 C   0  0  0  0  0  0  0  0  0  0  0  0
   -3.8790   24.5620  -30.1710 C   0  0  0  0  0  0  0  0  0  0  0  0
   -1.3041   25.7549  -25.6711 H   0  0  0  0  0  0  0  0  0  0  0  0
   -2.7113   26.4963  -26.5058 H   0  0  0  0  0  0  0  0  0  0  0  0
   -2.5050   24.7119  -26.5058 H   0  0  0  0  0  0  0  0  0  0  0  0
   -0.6542   26.7446  -27.8579 H   0  0  0  0  0  0  0  0  0  0  0  0
   -0.4298   24.9529  -27.8378 H   0  0  0  0  0  0  0  0  0  0  0  0
   -1.5212   23.2316  -28.0797 H   0  0  0  0  0  0  0  0  0  0  0  0
   -2.7951   21.1602  -28.6101 H   0  0  0  0  0  0  0  0  0  0  0  0
   -4.7670   21.2558  -30.1315 H   0  0  0  0  0  0  0  0  0  0  0  0
   -8.4128   23.2177  -30.8289 H   0  0  0  0  0  0  0  0  0  0  0  0
   -9.8622   21.2336  -31.2609 H   0  0  0  0  0  0  0  0  0  0  0  0
   -6.2430   19.8745  -35.0785 H   0  0  0  0  0  0  0  0  0  0  0  0
   -5.2297   17.9052  -36.2237 H   0  0  0  0  0  0  0  0  0  0  0  0
   -4.7636   15.8180  -34.9431 H   0  0  0  0  0  0  0  0  0  0  0  0
   -5.3245   15.6824  -32.5203 H   0  0  0  0  0  0  0  0  0  0  0  0
   -5.5737   17.8840  -30.3670 H   0  0  0  0  0  0  0  0  0  0  0  0
   -7.2956   18.2553  -30.7193 H   0  0  0  0  0  0  0  0  0  0  0  0
   -6.7259   16.5517  -30.7193 H   0  0  0  0  0  0  0  0  0  0  0  0
   -5.0769   21.1068  -32.5955 H   0  0  0  0  0  0  0  0  0  0  0  0
   -4.1929   25.5253  -30.5993 H   0  0  0  0  0  0  0  0  0  0  0  0
  1  2  1  0
  2  3  1  0
  3  4  1  0
  4  5  2  0
  5  6  1  0
  6  7  2  0
  7  8  1  0
  8  9  1  0
  9 10  2  0
  9 11  1  0
 11 12  1  0
 12 13  2  0
 13 14  1  0
 14 15  2  0
 14 16  1  0
 16 17  1  0
 17 18  2  0
 18 19  1  0
 19 20  2  0
 20 21  1  0
 21 22  2  0
 22 23  1  0
 16 24  1  0
  8 25  2  0
 25  4  1  0
 24 11  2  0
 22 17  1  0
  1 26  1  0
  1 27  1  0
  1 28  1  0
  2 29  1  0
  2 30  1  0
  5 31  1  0
  6 32  1  0
  7 33  1  0
 12 34  1  0
 13 35  1  0
 18 36  1  0
 19 37  1  0
 20 38  1  0
 21 39  1  0
 23 40  1  0
 23 41  1  0
 23 42  1  0
 24 43  1  0
 25 44  1  0
M  END
>  <UniqueID>  (39) 
38

>  <SMILES>  (39) 
CCOc1cccc(C(=O)c2ccc(=O)n(-c3ccccc3C)c2)c1

>  <Energy>  (39) 
58.715279614892836

>  <Genealogy>  (39) 
CCOc1cccc(C(=O)c2ccc(=O)n(-c3ccccc3C)c2)c1 (3D coordinates assigned)
CCOc1cccc(C(=O)c2ccc(=O)n(-c3ccccc3C)c2)c1 (optimized conformer: 58.715279614892836 kcal/mol)

>  <smiles>  (39) 
CCOc1cccc(C(=O)c2ccc(=O)n(-c3ccccc3C)c2)c1

>  <score_type>  (39) 
oracle

>  <origin>  (39) 
adg

>  <m_score__min__energy>  (39) 
-9.4499999999999993

>  <m_primary>  (39) 
energy

$$$$
39:0
     RDKit          3D

 53 55  0  0  0  0  0  0  0  0999 V2000
   -5.6830   25.7590  -30.4790 C   0  0  0  0  0  0  0  0  0  0  0  0
   -4.3450   25.4100  -30.8200 O   0  0  0  0  0  0  0  0  0  0  0  0
   -3.7660   24.1520  -30.5910 C   0  0  0  0  0  0  0  0  0  0  0  0
   -4.2330   22.9890  -31.2290 C   0  0  0  0  0  0  0  0  0  0  0  0
   -3.6190   21.7540  -30.9930 C   0  0  0  0  0  0  0  0  0  0  0  0
   -4.1390   20.5080  -31.6640 C   0  0  0  0  0  0  0  0  0  0  0  0
   -4.4690   20.7820  -33.0730 N   0  0  0  0  0  0  0  0  0  0  0  0
   -5.7090   20.1060  -33.4910 C   0  0  0  0  0  0  0  0  0  0  0  0
   -6.9070   20.5880  -32.7050 C   0  0  0  0  0  0  0  0  0  0  0  0
   -7.0270   21.9430  -32.3490 C   0  0  0  0  0  0  0  0  0  0  0  0
   -8.1500   22.3880  -31.6430 C   0  0  0  0  0  0  0  0  0  0  0  0
   -9.1600   21.4860  -31.2920 C   0  0  0  0  0  0  0  0  0  0  0  0
  -10.2480   21.9200  -30.6070 F   0  0  0  0  0  0  0  0  0  0  0  0
   -9.0490   20.1380  -31.6470 C   0  0  0  0  0  0  0  0  0  0  0  0
   -7.9280   19.6900  -32.3530 C   0  0  0  0  0  0  0  0  0  0  0  0
   -2.5660   21.6690  -30.0740 C   0  0  0  0  0  0  0  0  0  0  0  0
   -2.0950   22.8200  -29.4150 C   0  0  0  0  0  0  0  0  0  0  0  0
   -1.0740   22.7470  -28.4530 O   0  0  0  0  0  0  0  0  0  0  0  0
   -1.1460   21.9930  -27.2470 C   0  0  0  0  0  0  0  0  0  0  0  0
   -2.6810   24.0710  -29.7040 C   0  0  0  0  0  0  0  0  0  0  0  0
   -2.2190   25.2640  -29.1250 O   0  0  0  0  0  0  0  0  0  0  0  0
   -0.9090   25.4490  -28.5830 C   0  0  0  0  0  0  0  0  0  0  0  0
   -0.9870   26.1270  -27.2410 C   0  0  0  0  0  0  0  0  0  0  0  0
   -1.4980   25.4440  -26.1240 C   0  0  0  0  0  0  0  0  0  0  0  0
   -1.5120   26.0590  -24.8680 C   0  0  0  0  0  0  0  0  0  0  0  0
   -1.0100   27.3560  -24.7170 C   0  0  0  0  0  0  0  0  0  0  0  0
   -0.4920   28.0380  -25.8240 C   0  0  0  0  0  0  0  0  0  0  0  0
   -0.4750   27.4250  -27.0810 C   0  0  0  0  0  0  0  0  0  0  0  0
   -5.7872   25.7862  -29.3843 H   0  0  0  0  0  0  0  0  0  0  0  0
   -5.9209   26.7493  -30.8947 H   0  0  0  0  0  0  0  0  0  0  0  0
   -6.3743   25.0111  -30.8947 H   0  0  0  0  0  0  0  0  0  0  0  0
   -5.0876   23.0507  -31.9189 H   0  0  0  0  0  0  0  0  0  0  0  0
   -3.3691   19.7237  -31.6182 H   0  0  0  0  0  0  0  0  0  0  0  0
   -5.0491   20.1760  -31.1429 H   0  0  0  0  0  0  0  0  0  0  0  0
   -3.6900   20.4270  -33.6790 H   0  0  0  0  0  0  0  0  0  0  0  0
   -4.5580   21.8140  -33.2250 H   0  0  0  0  0  0  0  0  0  0  0  0
   -5.8805   20.3063  -34.5589 H   0  0  0  0  0  0  0  0  0  0  0  0
   -5.5895   19.0287  -33.3035 H   0  0  0  0  0  0  0  0  0  0  0  0
   -6.2358   22.6551  -32.6263 H   0  0  0  0  0  0  0  0  0  0  0  0
   -8.2388   23.4482  -31.3637 H   0  0  0  0  0  0  0  0  0  0  0  0
   -9.8439   19.4296  -31.3708 H   0  0  0  0  0  0  0  0  0  0  0  0
   -7.8455   18.6297  -32.6339 H   0  0  0  0  0  0  0  0  0  0  0  0
   -2.1025   20.6935  -29.8651 H   0  0  0  0  0  0  0  0  0  0  0  0
   -1.0811   22.6731  -26.3849 H   0  0  0  0  0  0  0  0  0  0  0  0
   -2.1004   21.4471  -27.2123 H   0  0  0  0  0  0  0  0  0  0  0  0
   -0.3122   21.2764  -27.2123 H   0  0  0  0  0  0  0  0  0  0  0  0
   -0.4234   24.4689  -28.4662 H   0  0  0  0  0  0  0  0  0  0  0  0
   -0.3253   26.0809  -29.2685 H   0  0  0  0  0  0  0  0  0  0  0  0
   -1.8884   24.4219  -26.2381 H   0  0  0  0  0  0  0  0  0  0  0  0
   -1.9182   25.5223  -23.9979 H   0  0  0  0  0  0  0  0  0  0  0  0
   -1.0224   27.8395  -23.7290 H   0  0  0  0  0  0  0  0  0  0  0  0
   -0.0976   29.0579  -25.7052 H   0  0  0  0  0  0  0  0  0  0  0  0
   -0.0594   27.9611  -27.9469 H   0  0  0  0  0  0  0  0  0  0  0  0
  1  2  1  0
  2  3  1  0
  3  4  2  0
  4  5  1  0
  5  6  1  0
  6  7  1  0
  7  8  1  0
  8  9  1  0
  9 10  2  0
 10 11  1  0
 11 12  2  0
 12 13  1  0
 12 14  1  0
 14 15  2  0
  5 16  2  0
 16 17  1  0
 17 18  1  0
 18 19  1  0
 17 20  2  0
 20 21  1  0
 21 22  1  0
 22 23  1  0
 23 24  2  0
 24 25  1  0
 25 26  2  0
 26 27  1  0
 27 28  2  0
 20  3  1  0
 28 23  1  0
 15  9  1  0
  1 29  1  0
  1 30  1  0
  1 31  1  0
  4 32  1  0
  6 33  1  0
  6 34  1  0
  7 35  1  0
  7 36  1  0
  8 37  1  0
  8 38  1  0
 10 39  1  0
 11 40  1  0
 14 41  1  0
 15 42  1  0
 16 43  1  0
 19 44  1  0
 19 45  1  0
 19 46  1  0
 22 47  1  0
 22 48  1  0
 24 49  1  0
 25 50  1  0
 26 51  1  0
 27 52  1  0
 28 53  1  0
M  CHG  1   7   1
M  END
>  <UniqueID>  (40) 
39

>  <SMILES>  (40) 
COc1cc(C[NH2+]Cc2ccc(F)cc2)cc(OC)c1OCc1ccccc1

>  <Energy>  (40) 
56.47425247576837

>  <Genealogy>  (40) 
COc1cc(C[NH2+]Cc2ccc(F)cc2)cc(OC)c1OCc1ccccc1 (protonated)
COc1cc(C[NH2+]Cc2ccc(F)cc2)cc(OC)c1OCc1ccccc1 (3D coordinates assigned)
COc1cc(C[NH2+]Cc2ccc(F)cc2)cc(OC)c1OCc1ccccc1 (optimized conformer: 56.47425247576837 kcal/mol)

>  <smiles>  (40) 
COc1cc(CNCc2ccc(F)cc2)cc(OC)c1OCc1ccccc1

>  <score_type>  (40) 
oracle

>  <origin>  (40) 
adg

>  <m_score__min__energy>  (40) 
-8.0899999999999999

>  <m_primary>  (40) 
energy

$$$$
40:0
     RDKit          3D

 61 66  0  0  0  0  0  0  0  0999 V2000
   -5.7480   26.0420  -30.0920 C   0  0  0  0  0  0  0  0  0  0  0  0
   -5.5760   24.6580  -30.6450 C   0  0  0  0  0  0  0  0  0  0  0  0
   -6.4400   24.1990  -31.6510 C   0  0  0  0  0  0  0  0  0  0  0  0
   -6.2980   22.9080  -32.1690 C   0  0  0  0  0  0  0  0  0  0  0  0
   -5.2840   22.0650  -31.6880 C   0  0  0  0  0  0  0  0  0  0  0  0
   -5.1320   20.6960  -32.2330 C   0  0  0  0  0  0  0  0  0  0  0  0
   -3.9690   20.3840  -32.8650 N   0  0  0  0  0  0  0  0  0  0  0  0
   -3.7350   19.1540  -33.3860 C   0  0  0  0  0  0  0  0  0  0  0  0
   -2.5400   18.9080  -33.9830 N   0  0  0  0  0  0  0  0  0  0  0  0
   -2.2110   17.6760  -34.4420 C   0  0  0  0  0  0  0  0  0  0  0  0
   -0.9180   17.4380  -35.0370 N   0  0  0  0  0  0  0  0  0  0  0  0
    0.0620   18.5180  -35.2030 C   0  0  0  0  0  0  0  0  0  0  0  0
    0.6330   18.4590  -36.6260 C   0  0  0  0  0  0  0  0  0  0  0  0
    1.1530   17.1720  -36.9110 O   0  0  0  0  0  0  0  0  0  0  0  0
    0.1100   16.2100  -36.8820 C   0  0  0  0  0  0  0  0  0  0  0  0
   -0.4970   16.1030  -35.4780 C   0  0  0  0  0  0  0  0  0  0  0  0
   -3.0660   16.6450  -34.2370 N   0  0  0  0  0  0  0  0  0  0  0  0
   -4.2830   16.8140  -33.6550 C   0  0  0  0  0  0  0  0  0  0  0  0
   -4.9940   15.6300  -33.2590 N   0  0  0  0  0  0  0  0  0  0  0  0
   -4.9870   15.2060  -31.8530 C   0  0  0  0  0  0  0  0  0  0  0  0
   -4.5430   13.7280  -31.7200 C   0  0  0  0  0  0  0  0  0  0  0  0
   -4.6420   12.9620  -32.9140 O   0  0  0  0  0  0  0  0  0  0  0  0
   -5.7690   13.3420  -33.6750 C   0  0  0  0  0  0  0  0  0  0  0  0
   -5.5150   14.7190  -34.2850 C   0  0  0  0  0  0  0  0  0  0  0  0
   -4.7010   18.1260  -33.2800 C   0  0  0  0  0  0  0  0  0  0  0  0
   -5.9900   18.4710  -32.7780 C   0  0  0  0  0  0  0  0  0  0  0  0
   -7.1180   17.6300  -32.9150 C   0  0  0  0  0  0  0  0  0  0  0  0
   -8.3340   17.9530  -32.3140 C   0  0  0  0  0  0  0  0  0  0  0  0
   -8.4710   19.1440  -31.6120 C   0  0  0  0  0  0  0  0  0  0  0  0
   -7.4120   20.0460  -31.5550 C   0  0  0  0  0  0  0  0  0  0  0  0
   -6.1790   19.7470  -32.1770 C   0  0  0  0  0  0  0  0  0  0  0  0
   -4.4020   22.5300  -30.7040 C   0  0  0  0  0  0  0  0  0  0  0  0
   -4.5490   23.8190  -30.1810 C   0  0  0  0  0  0  0  0  0  0  0  0
   -5.7429   26.0009  -28.9928 H   0  0  0  0  0  0  0  0  0  0  0  0
   -4.9223   26.6807  -30.4389 H   0  0  0  0  0  0  0  0  0  0  0  0
   -6.7049   26.4592  -30.4389 H   0  0  0  0  0  0  0  0  0  0  0  0
   -7.2330   24.8581  -32.0340 H   0  0  0  0  0  0  0  0  0  0  0  0
   -6.9816   22.5527  -32.9542 H   0  0  0  0  0  0  0  0  0  0  0  0
   -3.2220   21.1100  -32.9420 H   0  0  0  0  0  0  0  0  0  0  0  0
   -0.4286   19.4893  -35.0423 H   0  0  0  0  0  0  0  0  0  0  0  0
    0.8744   18.3989  -34.4710 H   0  0  0  0  0  0  0  0  0  0  0  0
   -0.1669   18.6911  -37.3446 H   0  0  0  0  0  0  0  0  0  0  0  0
    1.4486   19.1927  -36.7073 H   0  0  0  0  0  0  0  0  0  0  0  0
   -0.6753   16.5087  -37.5920 H   0  0  0  0  0  0  0  0  0  0  0  0
    0.5272   15.2309  -37.1600 H   0  0  0  0  0  0  0  0  0  0  0  0
   -1.3676   15.4311  -35.5027 H   0  0  0  0  0  0  0  0  0  0  0  0
    0.2506   15.6992  -34.7794 H   0  0  0  0  0  0  0  0  0  0  0  0
   -4.2899   15.8430  -31.2889 H   0  0  0  0  0  0  0  0  0  0  0  0
   -6.0073   15.3023  -31.4533 H   0  0  0  0  0  0  0  0  0  0  0  0
   -3.4931   13.7151  -31.3921 H   0  0  0  0  0  0  0  0  0  0  0  0
   -5.2311   13.2636  -30.9983 H   0  0  0  0  0  0  0  0  0  0  0  0
   -5.9368   12.6084  -34.4773 H   0  0  0  0  0  0  0  0  0  0  0  0
   -6.6585   13.3798  -33.0289 H   0  0  0  0  0  0  0  0  0  0  0  0
   -4.7807   14.6278  -35.0990 H   0  0  0  0  0  0  0  0  0  0  0  0
   -6.4597   15.1204  -34.6805 H   0  0  0  0  0  0  0  0  0  0  0  0
   -7.0351   16.7056  -33.5054 H   0  0  0  0  0  0  0  0  0  0  0  0
   -9.1869   17.2631  -32.3959 H   0  0  0  0  0  0  0  0  0  0  0  0
   -9.4172   19.3746  -31.1006 H   0  0  0  0  0  0  0  0  0  0  0  0
   -7.5362   20.9997  -31.0211 H   0  0  0  0  0  0  0  0  0  0  0  0
   -3.5919   21.8800  -30.3418 H   0  0  0  0  0  0  0  0  0  0  0  0
   -3.8580   24.1771  -29.4036 H   0  0  0  0  0  0  0  0  0  0  0  0
  1  2  1  0
  2  3  2  0
  3  4  1  0
  4  5  2  0
  5  6  1  0
  6  7  2  0
  7  8  1  0
  8  9  2  0
  9 10  1  0
 10 11  1  0
 11 12  1  0
 12 13  1  0
 13 14  1  0
 14 15  1  0
 15 16  1  0
 10 17  2  0
 17 18  1  0
 18 19  1  0
 19 20  1  0
 20 21  1  0
 21 22  1  0
 22 23  1  0
 23 24  1  0
 18 25  2  0
 25 26  1  0
 26 27  2  0
 27 28  1  0
 28 29  2  0
 29 30  1  0
 30 31  2  0
  5 32  1  0
 32 33  2  0
 33  2  1  0
 31  6  1  0
 25  8  1  0
 31 26  1  0
 16 11  1  0
 24 19  1  0
  1 34  1  0
  1 35  1  0
  1 36  1  0
  3 37  1  0
  4 38  1  0
  7 39  1  0
 12 40  1  0
 12 41  1  0
 13 42  1  0
 13 43  1  0
 15 44  1  0
 15 45  1  0
 16 46  1  0
 16 47  1  0
 20 48  1  0
 20 49  1  0
 21 50  1  0
 21 51  1  0
 23 52  1  0
 23 53  1  0
 24 54  1  0
 24 55  1  0
 27 56  1  0
 28 57  1  0
 29 58  1  0
 30 59  1  0
 32 60  1  0
 33 61  1  0
M  CHG  1   7   1
M  END
>  <UniqueID>  (41) 
40

>  <SMILES>  (41) 
Cc1ccc(-c2[nH+]c3nc(N4CCOCC4)nc(N4CCOCC4)c3c3ccccc23)cc1

>  <Energy>  (41) 
108.66088009515171

>  <Genealogy>  (41) 
Cc1ccc(-c2[nH+]c3nc(N4CCOCC4)nc(N4CCOCC4)c3c3ccccc23)cc1 (protonated)
Cc1ccc(-c2[nH+]c3nc(N4CCOCC4)nc(N4CCOCC4)c3c3ccccc23)cc1 (3D coordinates assigned)
Cc1ccc(-c2[nH+]c3nc(N4CCOCC4)nc(N4CCOCC4)c3c3ccccc23)cc1 (nonaromatic ring conformer: 108.66088009515171 kcal/mol)

>  <smiles>  (41) 
Cc1ccc(-c2nc3nc(N4CCOCC4)nc(N4CCOCC4)c3c3ccccc23)cc1

>  <score_type>  (41) 
oracle

>  <origin>  (41) 
adg

>  <m_score__min__energy>  (41) 
-8.2599999999999998

>  <m_primary>  (41) 
energy

$$$$
41:0
     RDKit          3D

 45 47  0  0  0  0  0  0  0  0999 V2000
   -0.4390   18.0150  -27.4640 C   0  0  0  0  0  0  0  0  0  0  0  0
   -1.5780   18.6610  -26.9040 O   0  0  0  0  0  0  0  0  0  0  0  0
   -1.8600   20.0280  -27.0400 C   0  0  0  0  0  0  0  0  0  0  0  0
   -3.1130   20.5020  -27.4730 C   0  0  0  0  0  0  0  0  0  0  0  0
   -3.3460   21.8760  -27.5900 C   0  0  0  0  0  0  0  0  0  0  0  0
   -2.3360   22.7950  -27.2680 C   0  0  0  0  0  0  0  0  0  0  0  0
   -2.5740   24.2690  -27.4220 C   0  0  0  0  0  0  0  0  0  0  0  0
   -1.7320   24.8650  -28.9230 S   0  0  0  0  0  0  0  0  0  0  0  0
   -2.9060   24.0800  -30.0290 C   0  0  0  0  0  0  0  0  0  0  0  0
   -4.0250   24.6830  -30.4720 N   0  0  0  0  0  0  0  0  0  0  0  0
   -4.6240   23.8290  -31.2880 N   0  0  0  0  0  0  0  0  0  0  0  0
   -3.8560   22.7230  -31.3380 C   0  0  0  0  0  0  0  0  0  0  0  0
   -4.2080   21.5080  -32.1470 C   0  0  0  0  0  0  0  0  0  0  0  0
   -5.2880   21.8160  -33.0930 N   0  0  0  0  0  0  0  0  0  0  0  0
   -6.4820   21.0950  -32.7290 C   0  0  0  0  0  0  0  0  0  0  0  0
   -7.5090   21.7350  -32.0110 C   0  0  0  0  0  0  0  0  0  0  0  0
   -8.6510   21.0240  -31.6290 C   0  0  0  0  0  0  0  0  0  0  0  0
   -8.7770   19.6710  -31.9540 C   0  0  0  0  0  0  0  0  0  0  0  0
   -7.7580   19.0240  -32.6570 C   0  0  0  0  0  0  0  0  0  0  0  0
   -6.6120   19.7290  -33.0400 C   0  0  0  0  0  0  0  0  0  0  0  0
   -2.7790   22.8380  -30.5340 N   0  0  0  0  0  0  0  0  0  0  0  0
   -1.6670   21.9050  -30.3690 C   0  0  0  0  0  0  0  0  0  0  0  0
   -1.0830   22.3220  -26.8520 C   0  0  0  0  0  0  0  0  0  0  0  0
   -0.8510   20.9480  -26.7350 C   0  0  0  0  0  0  0  0  0  0  0  0
    0.2090   17.6475  -26.6546 H   0  0  0  0  0  0  0  0  0  0  0  0
   -0.7662   17.1680  -28.0850 H   0  0  0  0  0  0  0  0  0  0  0  0
    0.1200   18.7305  -28.0850 H   0  0  0  0  0  0  0  0  0  0  0  0
   -3.9125   19.7882  -27.7205 H   0  0  0  0  0  0  0  0  0  0  0  0
   -4.3255   22.2378  -27.9360 H   0  0  0  0  0  0  0  0  0  0  0  0
   -3.6541   24.4593  -27.5071 H   0  0  0  0  0  0  0  0  0  0  0  0
   -2.1770   24.7987  -26.5435 H   0  0  0  0  0  0  0  0  0  0  0  0
   -3.3208   21.1757  -32.7060 H   0  0  0  0  0  0  0  0  0  0  0  0
   -4.5468   20.7130  -31.4664 H   0  0  0  0  0  0  0  0  0  0  0  0
   -5.4840   22.8460  -33.0880 H   0  0  0  0  0  0  0  0  0  0  0  0
   -4.9950   21.5500  -34.0620 H   0  0  0  0  0  0  0  0  0  0  0  0
   -7.4132   22.7991  -31.7491 H   0  0  0  0  0  0  0  0  0  0  0  0
   -9.4521   21.5312  -31.0713 H   0  0  0  0  0  0  0  0  0  0  0  0
   -9.6785   19.1154  -31.6563 H   0  0  0  0  0  0  0  0  0  0  0  0
   -7.8569   17.9581  -32.9099 H   0  0  0  0  0  0  0  0  0  0  0  0
   -5.8089   19.2131  -33.5867 H   0  0  0  0  0  0  0  0  0  0  0  0
   -1.4776   21.7461  -29.2971 H   0  0  0  0  0  0  0  0  0  0  0  0
   -1.9203   20.9451  -30.8428 H   0  0  0  0  0  0  0  0  0  0  0  0
   -0.7657   22.3212  -30.8428 H   0  0  0  0  0  0  0  0  0  0  0  0
   -0.2791   23.0350  -26.6167 H   0  0  0  0  0  0  0  0  0  0  0  0
    0.1329   20.5875  -26.4004 H   0  0  0  0  0  0  0  0  0  0  0  0
  1  2  1  0
  2  3  1  0
  3  4  2  0
  4  5  1  0
  5  6  2  0
  6  7  1  0
  7  8  1  0
  8  9  1  0
  9 10  2  0
 10 11  1  0
 11 12  2  0
 12 13  1  0
 13 14  1  0
 14 15  1  0
 15 16  2  0
 16 17  1  0
 17 18  2  0
 18 19  1  0
 19 20  2  0
 12 21  1  0
 21 22  1  0
  6 23  1  0
 23 24  2  0
 24  3  1  0
 21  9  1  0
 20 15  1  0
  1 25  1  0
  1 26  1  0
  1 27  1  0
  4 28  1  0
  5 29  1  0
  7 30  1  0
  7 31  1  0
 13 32  1  0
 13 33  1  0
 14 34  1  0
 14 35  1  0
 16 36  1  0
 17 37  1  0
 18 38  1  0
 19 39  1  0
 20 40  1  0
 22 41  1  0
 22 42  1  0
 22 43  1  0
 23 44  1  0
 24 45  1  0
M  CHG  1  14   1
M  END
>  <UniqueID>  (42) 
41

>  <SMILES>  (42) 
COc1ccc(CSc2nnc(C[NH2+]c3ccccc3)n2C)cc1

>  <Energy>  (42) 
75.58404576404055

>  <Genealogy>  (42) 
COc1ccc(CSc2nnc(C[NH2+]c3ccccc3)n2C)cc1 (protonated)
COc1ccc(CSc2nnc(C[NH2+]c3ccccc3)n2C)cc1 (3D coordinates assigned)
COc1ccc(CSc2nnc(C[NH2+]c3ccccc3)n2C)cc1 (optimized conformer: 75.58404576404055 kcal/mol)

>  <smiles>  (42) 
COc1ccc(CSc2nnc(CNc3ccccc3)n2C)cc1

>  <score_type>  (42) 
oracle

>  <origin>  (42) 
adg

>  <m_score__min__energy>  (42) 
-7.7000000000000002

>  <m_primary>  (42) 
energy

$$$$
42:0
     RDKit          3D

 38 40  0  0  0  0  0  0  0  0999 V2000
   -8.7650   18.4120  -31.6280 C   0  0  0  0  0  0  0  0  0  0  0  0
   -8.8190   19.5930  -32.5900 C   0  0  0  0  0  0  0  0  0  0  0  0
   -7.5410   20.3770  -32.5370 C   0  0  0  0  0  0  0  0  0  0  0  0
   -7.3580   21.4770  -31.7850 N   0  0  0  0  0  0  0  0  0  0  0  0
   -6.1040   21.8880  -32.0770 C   0  0  0  0  0  0  0  0  0  0  0  0
   -5.4340   23.0710  -31.4880 C   0  0  0  0  0  0  0  0  0  0  0  0
   -6.0790   24.3170  -31.3980 C   0  0  0  0  0  0  0  0  0  0  0  0
   -5.4070   25.4040  -30.8340 C   0  0  0  0  0  0  0  0  0  0  0  0
   -4.1370   25.2590  -30.3730 N   0  0  0  0  0  0  0  0  0  0  0  0
   -3.4870   24.0680  -30.4460 C   0  0  0  0  0  0  0  0  0  0  0  0
   -4.1210   22.9550  -31.0030 C   0  0  0  0  0  0  0  0  0  0  0  0
   -5.5300   21.1030  -32.9680 O   0  0  0  0  0  0  0  0  0  0  0  0
   -6.3950   20.1660  -33.2790 C   0  0  0  0  0  0  0  0  0  0  0  0
   -6.1300   19.0650  -34.2520 C   0  0  0  0  0  0  0  0  0  0  0  0
   -4.4820   18.3590  -33.9310 S   0  0  0  0  0  0  0  0  0  0  0  0
   -5.0710   16.6640  -33.9630 C   0  0  0  0  0  0  0  0  0  0  0  0
   -6.4280   16.4050  -34.1910 C   0  0  0  0  0  0  0  0  0  0  0  0
   -6.8950   15.0870  -34.2170 C   0  0  0  0  0  0  0  0  0  0  0  0
   -6.0080   14.0260  -34.0130 C   0  0  0  0  0  0  0  0  0  0  0  0
   -4.6530   14.2820  -33.7810 C   0  0  0  0  0  0  0  0  0  0  0  0
   -4.1820   15.5980  -33.7550 C   0  0  0  0  0  0  0  0  0  0  0  0
   -2.8650   15.8350  -33.5300 F   0  0  0  0  0  0  0  0  0  0  0  0
   -8.7819   18.7818  -30.5922 H   0  0  0  0  0  0  0  0  0  0  0  0
   -9.6343   17.7599  -31.7988 H   0  0  0  0  0  0  0  0  0  0  0  0
   -7.8399   17.8420  -31.7988 H   0  0  0  0  0  0  0  0  0  0  0  0
   -8.9713   19.2190  -33.6132 H   0  0  0  0  0  0  0  0  0  0  0  0
   -9.6506   20.2508  -32.2972 H   0  0  0  0  0  0  0  0  0  0  0  0
   -8.0510   21.9040  -31.1330 H   0  0  0  0  0  0  0  0  0  0  0  0
   -7.1075   24.4353  -31.7698 H   0  0  0  0  0  0  0  0  0  0  0  0
   -5.9077   26.3809  -30.7628 H   0  0  0  0  0  0  0  0  0  0  0  0
   -2.4587   23.9801  -30.0654 H   0  0  0  0  0  0  0  0  0  0  0  0
   -3.5940   21.9913  -31.0616 H   0  0  0  0  0  0  0  0  0  0  0  0
   -6.8937   18.2817  -34.1371 H   0  0  0  0  0  0  0  0  0  0  0  0
   -6.1663   19.4631  -35.2768 H   0  0  0  0  0  0  0  0  0  0  0  0
   -7.1274   17.2390  -34.3498 H   0  0  0  0  0  0  0  0  0  0  0  0
   -7.9610   14.8851  -34.3981 H   0  0  0  0  0  0  0  0  0  0  0  0
   -6.3760   12.9896  -34.0350 H   0  0  0  0  0  0  0  0  0  0  0  0
   -3.9564   13.4463  -33.6186 H   0  0  0  0  0  0  0  0  0  0  0  0
  1  2  1  0
  2  3  1  0
  3  4  1  0
  4  5  2  0
  5  6  1  0
  6  7  2  0
  7  8  1  0
  8  9  2  0
  9 10  1  0
 10 11  2  0
  5 12  1  0
 12 13  1  0
 13 14  1  0
 14 15  1  0
 15 16  1  0
 16 17  2  0
 17 18  1  0
 18 19  2  0
 19 20  1  0
 20 21  2  0
 21 22  1  0
 13  3  2  0
 21 16  1  0
 11  6  1  0
  1 23  1  0
  1 24  1  0
  1 25  1  0
  2 26  1  0
  2 27  1  0
  4 28  1  0
  7 29  1  0
  8 30  1  0
 10 31  1  0
 11 32  1  0
 14 33  1  0
 14 34  1  0
 17 35  1  0
 18 36  1  0
 19 37  1  0
 20 38  1  0
M  CHG  1   4   1
M  END
>  <UniqueID>  (43) 
42

>  <SMILES>  (43) 
CCc1[nH+]c(-c2ccncc2)oc1CSc1ccccc1F

>  <Energy>  (43) 
64.02633831201916

>  <Genealogy>  (43) 
CCc1[nH+]c(-c2ccncc2)oc1CSc1ccccc1F (protonated)
CCc1[nH+]c(-c2ccncc2)oc1CSc1ccccc1F (3D coordinates assigned)
CCc1[nH+]c(-c2ccncc2)oc1CSc1ccccc1F (optimized conformer: 64.02633831201916 kcal/mol)

>  <smiles>  (43) 
CCc1nc(-c2ccncc2)oc1CSc1ccccc1F

>  <score_type>  (43) 
oracle

>  <origin>  (43) 
adg

>  <m_score__min__energy>  (43) 
-6.7699999999999996

>  <m_primary>  (43) 
energy

$$$$
43:0
     RDKit          3D

 37 39  0  0  0  0  0  0  0  0999 V2000
   -5.2740   25.5640  -30.4810 C   0  0  0  0  0  0  0  0  0  0  0  0
   -3.8890   25.2940  -30.4820 O   0  0  0  0  0  0  0  0  0  0  0  0
   -3.6060   24.3390  -29.4760 C   0  0  0  0  0  0  0  0  0  0  0  0
   -4.0450   22.9530  -29.9520 C   0  0  0  0  0  0  0  0  0  0  0  0
   -4.1690   22.9080  -31.4060 N   0  0  0  0  0  0  0  0  0  0  0  0
   -4.1990   21.6800  -32.1550 C   0  0  0  0  0  0  0  0  0  0  0  0
   -5.3410   20.9860  -32.5750 C   0  0  0  0  0  0  0  0  0  0  0  0
   -6.7460   21.2920  -32.2340 C   0  0  0  0  0  0  0  0  0  0  0  0
   -7.6460   20.2570  -31.9180 C   0  0  0  0  0  0  0  0  0  0  0  0
   -8.9800   20.5500  -31.6220 C   0  0  0  0  0  0  0  0  0  0  0  0
   -9.4300   21.8750  -31.6440 C   0  0  0  0  0  0  0  0  0  0  0  0
   -8.5470   22.9060  -31.9670 C   0  0  0  0  0  0  0  0  0  0  0  0
   -7.2110   22.6200  -32.2680 C   0  0  0  0  0  0  0  0  0  0  0  0
   -6.3700   23.6400  -32.5740 F   0  0  0  0  0  0  0  0  0  0  0  0
   -4.9870   19.9470  -33.3810 N   0  0  0  0  0  0  0  0  0  0  0  0
   -3.6460   20.0490  -33.4050 C   0  0  0  0  0  0  0  0  0  0  0  0
   -2.4800   19.1590  -34.2160 S   0  0  0  0  0  0  0  0  0  0  0  0
   -1.2420   20.1550  -33.5800 C   0  0  0  0  0  0  0  0  0  0  0  0
    0.2070   20.0260  -33.9100 C   0  0  0  0  0  0  0  0  0  0  0  0
   -1.7980   21.1610  -32.7770 C   0  0  0  0  0  0  0  0  0  0  0  0
   -3.1460   21.0500  -32.7020 N   0  0  0  0  0  0  0  0  0  0  0  0
   -5.6332   25.6340  -29.4437 H   0  0  0  0  0  0  0  0  0  0  0  0
   -5.4624   26.5158  -30.9993 H   0  0  0  0  0  0  0  0  0  0  0  0
   -5.8061   24.7527  -30.9993 H   0  0  0  0  0  0  0  0  0  0  0  0
   -2.5253   24.3312  -29.2712 H   0  0  0  0  0  0  0  0  0  0  0  0
   -4.1510   24.6012  -28.5572 H   0  0  0  0  0  0  0  0  0  0  0  0
   -3.2984   22.2110  -29.6326 H   0  0  0  0  0  0  0  0  0  0  0  0
   -5.0279   22.7291  -29.5119 H   0  0  0  0  0  0  0  0  0  0  0  0
   -4.2390   23.8070  -31.9330 H   0  0  0  0  0  0  0  0  0  0  0  0
   -7.2980   19.2136  -31.9040 H   0  0  0  0  0  0  0  0  0  0  0  0
   -9.6778   19.7375  -31.3712 H   0  0  0  0  0  0  0  0  0  0  0  0
  -10.4795   22.1036  -31.4067 H   0  0  0  0  0  0  0  0  0  0  0  0
   -8.9024   23.9468  -31.9850 H   0  0  0  0  0  0  0  0  0  0  0  0
    0.7917   19.9739  -32.9797 H   0  0  0  0  0  0  0  0  0  0  0  0
    0.3693   19.1099  -34.4968 H   0  0  0  0  0  0  0  0  0  0  0  0
    0.5286   20.8991  -34.4968 H   0  0  0  0  0  0  0  0  0  0  0  0
   -1.2126   21.9429  -32.2710 H   0  0  0  0  0  0  0  0  0  0  0  0
  1  2  1  0
  2  3  1  0
  3  4  1  0
  4  5  1  0
  5  6  1  0
  6  7  2  0
  7  8  1  0
  8  9  2  0
  9 10  1  0
 10 11  2  0
 11 12  1  0
 12 13  2  0
 13 14  1  0
  7 15  1  0
 15 16  2  0
 16 17  1  0
 17 18  1  0
 18 19  1  0
 18 20  2  0
 20 21  1  0
 21  6  1  0
 13  8  1  0
 21 16  1  0
  1 22  1  0
  1 23  1  0
  1 24  1  0
  3 25  1  0
  3 26  1  0
  4 27  1  0
  4 28  1  0
  5 29  1  0
  9 30  1  0
 10 31  1  0
 11 32  1  0
 12 33  1  0
 19 34  1  0
 19 35  1  0
 19 36  1  0
 20 37  1  0
M  END
>  <UniqueID>  (44) 
43

>  <SMILES>  (44) 
COCCNc1c(-c2ccccc2F)nc2sc(C)cn12

>  <Energy>  (44) 
120.19299617569914

>  <Genealogy>  (44) 
COCCNc1c(-c2ccccc2F)nc2sc(C)cn12 (3D coordinates assigned)
COCCNc1c(-c2ccccc2F)nc2sc(C)cn12 (optimized conformer: 120.19299617569914 kcal/mol)

>  <smiles>  (44) 
COCCNc1c(-c2ccccc2F)nc2sc(C)cn12

>  <score_type>  (44) 
oracle

>  <origin>  (44) 
adg

>  <m_score__min__energy>  (44) 
-7.21

>  <m_primary>  (44) 
energy

$$$$
44:0
     RDKit          3D

 59 62  0  0  0  0  0  0  0  0999 V2000
   -2.7170   19.7810  -33.5150 C   0  0  0  0  0  0  0  0  0  0  0  0
   -2.4790   18.3000  -33.2210 C   0  0  0  0  0  0  0  0  0  0  0  0
   -2.6440   17.4200  -34.4700 C   0  0  0  0  0  0  0  0  0  0  0  0
   -3.3920   16.1070  -34.2080 C   0  0  0  0  0  0  0  0  0  0  0  0
   -4.7960   16.2660  -34.4310 O   0  0  0  0  0  0  0  0  0  0  0  0
   -5.6080   17.3070  -33.9510 C   0  0  0  0  0  0  0  0  0  0  0  0
   -5.7240   18.5540  -34.5950 C   0  0  0  0  0  0  0  0  0  0  0  0
   -6.4960   19.5700  -34.0300 C   0  0  0  0  0  0  0  0  0  0  0  0
   -7.1640   19.3660  -32.8140 C   0  0  0  0  0  0  0  0  0  0  0  0
   -7.9210   20.4340  -32.2220 N   0  0  0  0  0  0  0  0  0  0  0  0
   -9.2220   20.3650  -31.8720 C   0  0  0  0  0  0  0  0  0  0  0  0
   -9.6170   21.6000  -31.4080 C   0  0  0  0  0  0  0  0  0  0  0  0
   -8.5710   22.4410  -31.4810 N   0  0  0  0  0  0  0  0  0  0  0  0
   -7.5490   21.7150  -31.9770 C   0  0  0  0  0  0  0  0  0  0  0  0
   -6.2260   22.3380  -32.3450 C   0  0  0  0  0  0  0  0  0  0  0  0
   -5.0420   21.5830  -31.7270 C   0  0  0  0  0  0  0  0  0  0  0  0
   -4.2850   22.4300  -30.7360 C   0  0  0  0  0  0  0  0  0  0  0  0
   -4.7120   23.7370  -30.4550 C   0  0  0  0  0  0  0  0  0  0  0  0
   -4.0340   24.5160  -29.5140 C   0  0  0  0  0  0  0  0  0  0  0  0
   -2.9080   24.0080  -28.8410 C   0  0  0  0  0  0  0  0  0  0  0  0
   -2.2160   24.8220  -27.8060 C   0  0  0  0  0  0  0  0  0  0  0  0
   -1.0120   25.4890  -28.1050 C   0  0  0  0  0  0  0  0  0  0  0  0
   -0.3450   26.2240  -27.1210 C   0  0  0  0  0  0  0  0  0  0  0  0
   -0.8680   26.3020  -25.8290 C   0  0  0  0  0  0  0  0  0  0  0  0
   -2.0630   25.6500  -25.5200 C   0  0  0  0  0  0  0  0  0  0  0  0
   -2.7360   24.9150  -26.5000 C   0  0  0  0  0  0  0  0  0  0  0  0
   -2.4750   22.7010  -29.1390 C   0  0  0  0  0  0  0  0  0  0  0  0
   -3.1630   21.9180  -30.0700 C   0  0  0  0  0  0  0  0  0  0  0  0
   -7.1090   18.1000  -32.2110 C   0  0  0  0  0  0  0  0  0  0  0  0
   -6.3300   17.0850  -32.7720 C   0  0  0  0  0  0  0  0  0  0  0  0
   -2.8057   20.3332  -32.5678 H   0  0  0  0  0  0  0  0  0  0  0  0
   -1.8715   20.1803  -34.0944 H   0  0  0  0  0  0  0  0  0  0  0  0
   -3.6450   19.8953  -34.0944 H   0  0  0  0  0  0  0  0  0  0  0  0
   -1.4565   18.1766  -32.8347 H   0  0  0  0  0  0  0  0  0  0  0  0
   -3.2302   17.9798  -32.4840 H   0  0  0  0  0  0  0  0  0  0  0  0
   -3.2019   17.9920  -35.2260 H   0  0  0  0  0  0  0  0  0  0  0  0
   -1.6324   17.1504  -34.8077 H   0  0  0  0  0  0  0  0  0  0  0  0
   -3.0054   15.3310  -34.8851 H   0  0  0  0  0  0  0  0  0  0  0  0
   -3.2336   15.8156  -33.1592 H   0  0  0  0  0  0  0  0  0  0  0  0
   -5.2034   18.7281  -35.5483 H   0  0  0  0  0  0  0  0  0  0  0  0
   -6.5813   20.5393  -34.5430 H   0  0  0  0  0  0  0  0  0  0  0  0
   -9.8603   19.4721  -31.9450 H   0  0  0  0  0  0  0  0  0  0  0  0
  -10.6213   21.8556  -31.0391 H   0  0  0  0  0  0  0  0  0  0  0  0
   -8.5670   23.4580  -31.2380 H   0  0  0  0  0  0  0  0  0  0  0  0
   -6.1211   22.3274  -33.4399 H   0  0  0  0  0  0  0  0  0  0  0  0
   -6.2145   23.3659  -31.9534 H   0  0  0  0  0  0  0  0  0  0  0  0
   -5.4217   20.6883  -31.2119 H   0  0  0  0  0  0  0  0  0  0  0  0
   -4.3512   21.3127  -32.5392 H   0  0  0  0  0  0  0  0  0  0  0  0
   -5.5862   24.1508  -30.9790 H   0  0  0  0  0  0  0  0  0  0  0  0
   -4.3840   25.5361  -29.2974 H   0  0  0  0  0  0  0  0  0  0  0  0
   -0.5935   25.4310  -29.1206 H   0  0  0  0  0  0  0  0  0  0  0  0
    0.5941   26.7422  -27.3651 H   0  0  0  0  0  0  0  0  0  0  0  0
   -0.3387   26.8769  -25.0549 H   0  0  0  0  0  0  0  0  0  0  0  0
   -2.4761   25.7148  -24.5026 H   0  0  0  0  0  0  0  0  0  0  0  0
   -3.6783   24.4056  -26.2498 H   0  0  0  0  0  0  0  0  0  0  0  0
   -1.5870   22.2929  -28.6341 H   0  0  0  0  0  0  0  0  0  0  0  0
   -2.8219   20.8938  -30.2814 H   0  0  0  0  0  0  0  0  0  0  0  0
   -7.6820   17.9059  -31.2923 H   0  0  0  0  0  0  0  0  0  0  0  0
   -6.2834   16.1011  -32.2824 H   0  0  0  0  0  0  0  0  0  0  0  0
  1  2  1  0
  2  3  1  0
  3  4  1  0
  4  5  1  0
  5  6  1  0
  6  7  2  0
  7  8  1  0
  8  9  2  0
  9 10  1  0
 10 11  1  0
 11 12  2  0
 12 13  1  0
 13 14  2  0
 14 15  1  0
 15 16  1  0
 16 17  1  0
 17 18  2  0
 18 19  1  0
 19 20  2  0
 20 21  1  0
 21 22  2  0
 22 23  1  0
 23 24  2  0
 24 25  1  0
 25 26  2  0
 20 27  1  0
 27 28  2  0
  9 29  1  0
 29 30  2  0
 30  6  1  0
 14 10  1  0
 28 17  1  0
 26 21  1  0
  1 31  1  0
  1 32  1  0
  1 33  1  0
  2 34  1  0
  2 35  1  0
  3 36  1  0
  3 37  1  0
  4 38  1  0
  4 39  1  0
  7 40  1  0
  8 41  1  0
 11 42  1  0
 12 43  1  0
 13 44  1  0
 15 45  1  0
 15 46  1  0
 16 47  1  0
 16 48  1  0
 18 49  1  0
 19 50  1  0
 22 51  1  0
 23 52  1  0
 24 53  1  0
 25 54  1  0
 26 55  1  0
 27 56  1  0
 28 57  1  0
 29 58  1  0
 30 59  1  0
M  CHG  1  13   1
M  END
>  <UniqueID>  (45) 
44

>  <SMILES>  (45) 
CCCCOc1ccc(-n2cc[nH+]c2CCc2ccc(-c3ccccc3)cc2)cc1

>  <Energy>  (45) 
90.35747422518585

>  <Genealogy>  (45) 
CCCCOc1ccc(-n2cc[nH+]c2CCc2ccc(-c3ccccc3)cc2)cc1 (protonated)
CCCCOc1ccc(-n2cc[nH+]c2CCc2ccc(-c3ccccc3)cc2)cc1 (3D coordinates assigned)
CCCCOc1ccc(-n2cc[nH+]c2CCc2ccc(-c3ccccc3)cc2)cc1 (optimized conformer: 90.35747422518585 kcal/mol)

>  <smiles>  (45) 
CCCCOc1ccc(-n2ccnc2CCc2ccc(-c3ccccc3)cc2)cc1

>  <score_type>  (45) 
oracle

>  <origin>  (45) 
adg

>  <m_score__min__energy>  (45) 
-8.3100000000000005

>  <m_primary>  (45) 
energy

$$$$
45:0
     RDKit          3D

 66 71  0  0  0  0  0  0  0  0999 V2000
   -0.3210   14.4060  -36.1120 C   0  0  0  0  0  0  0  0  0  0  0  0
   -0.2320   15.3900  -35.0200 N   0  0  0  0  0  0  0  0  0  0  0  0
   -1.2460   16.4550  -35.1610 C   0  0  0  0  0  0  0  0  0  0  0  0
   -2.6420   16.0040  -34.6870 C   0  0  0  0  0  0  0  0  0  0  0  0
   -2.6360   15.2810  -33.3850 N   0  0  0  0  0  0  0  0  0  0  0  0
   -3.2190   13.9180  -33.4750 C   0  0  0  0  0  0  0  0  0  0  0  0
   -4.6280   13.8770  -32.8710 C   0  0  0  0  0  0  0  0  0  0  0  0
   -5.3820   15.1560  -33.0850 C   0  0  0  0  0  0  0  0  0  0  0  0
   -6.4280   15.1430  -33.7880 O   0  0  0  0  0  0  0  0  0  0  0  0
   -4.8680   16.3880  -32.5520 N   0  0  0  0  0  0  0  0  0  0  0  0
   -5.6200   17.6070  -32.4160 C   0  0  0  0  0  0  0  0  0  0  0  0
   -7.0140   17.5650  -32.5580 C   0  0  0  0  0  0  0  0  0  0  0  0
   -7.7740   18.7320  -32.4650 C   0  0  0  0  0  0  0  0  0  0  0  0
   -7.1500   19.9700  -32.2510 C   0  0  0  0  0  0  0  0  0  0  0  0
   -5.7390   20.0380  -32.1830 C   0  0  0  0  0  0  0  0  0  0  0  0
   -4.9880   18.8490  -32.2190 C   0  0  0  0  0  0  0  0  0  0  0  0
   -5.1370   21.3760  -31.9550 C   0  0  0  0  0  0  0  0  0  0  0  0
   -5.9000   22.4290  -31.5190 C   0  0  0  0  0  0  0  0  0  0  0  0
   -4.9990   23.4550  -31.2770 C   0  0  0  0  0  0  0  0  0  0  0  0
   -5.2760   24.7940  -30.7320 C   0  0  0  0  0  0  0  0  0  0  0  0
   -4.2200   25.7120  -30.4700 N   0  0  0  0  0  0  0  0  0  0  0  0
   -6.4660   25.1380  -30.5030 O   0  0  0  0  0  0  0  0  0  0  0  0
   -3.7600   23.0360  -31.6130 N   0  0  0  0  0  0  0  0  0  0  0  0
   -3.8450   21.7810  -32.0320 N   0  0  0  0  0  0  0  0  0  0  0  0
   -2.7180   21.0770  -32.5690 C   0  0  0  0  0  0  0  0  0  0  0  0
   -2.8130   20.4640  -33.8430 C   0  0  0  0  0  0  0  0  0  0  0  0
   -1.7070   19.7930  -34.3960 C   0  0  0  0  0  0  0  0  0  0  0  0
   -0.5360   19.7440  -33.6460 C   0  0  0  0  0  0  0  0  0  0  0  0
   -0.4490   20.3030  -32.4110 C   0  0  0  0  0  0  0  0  0  0  0  0
   -1.5200   20.9710  -31.8260 C   0  0  0  0  0  0  0  0  0  0  0  0
    0.8190   20.1010  -31.9030 O   0  0  0  0  0  0  0  0  0  0  0  0
    1.5780   19.3750  -32.8820 C   0  0  0  0  0  0  0  0  0  0  0  0
    0.6730   19.1630  -33.9750 O   0  0  0  0  0  0  0  0  0  0  0  0
   -7.3780   22.3250  -31.2850 C   0  0  0  0  0  0  0  0  0  0  0  0
   -7.9890   21.2370  -32.1960 C   0  0  0  0  0  0  0  0  0  0  0  0
   -1.3090   15.2800  -32.7370 C   0  0  0  0  0  0  0  0  0  0  0  0
   -0.2270   14.7370  -33.6860 C   0  0  0  0  0  0  0  0  0  0  0  0
   -0.4124   13.3951  -35.6881 H   0  0  0  0  0  0  0  0  0  0  0  0
   -1.2030   14.6249  -36.7318 H   0  0  0  0  0  0  0  0  0  0  0  0
    0.5860   14.4630  -36.7318 H   0  0  0  0  0  0  0  0  0  0  0  0
   -0.9327   17.3226  -34.5617 H   0  0  0  0  0  0  0  0  0  0  0  0
   -1.3201   16.7082  -36.2289 H   0  0  0  0  0  0  0  0  0  0  0  0
   -3.2772   16.8962  -34.5842 H   0  0  0  0  0  0  0  0  0  0  0  0
   -3.0211   15.2983  -35.4408 H   0  0  0  0  0  0  0  0  0  0  0  0
   -3.2730   13.6199  -34.5324 H   0  0  0  0  0  0  0  0  0  0  0  0
   -2.5772   13.2264  -32.9096 H   0  0  0  0  0  0  0  0  0  0  0  0
   -5.1887   13.0544  -33.3390 H   0  0  0  0  0  0  0  0  0  0  0  0
   -4.5225   13.7286  -31.7862 H   0  0  0  0  0  0  0  0  0  0  0  0
   -3.8610   16.4040  -32.2720 H   0  0  0  0  0  0  0  0  0  0  0  0
   -7.5137   16.6030  -32.7445 H   0  0  0  0  0  0  0  0  0  0  0  0
   -8.8687   18.6806  -32.5601 H   0  0  0  0  0  0  0  0  0  0  0  0
   -3.8961   18.8904  -32.0919 H   0  0  0  0  0  0  0  0  0  0  0  0
   -3.5870   26.0360  -31.2360 H   0  0  0  0  0  0  0  0  0  0  0  0
   -3.7582   20.5131  -34.4036 H   0  0  0  0  0  0  0  0  0  0  0  0
   -1.7660   19.3226  -35.3886 H   0  0  0  0  0  0  0  0  0  0  0  0
   -1.4373   21.4028  -30.8177 H   0  0  0  0  0  0  0  0  0  0  0  0
    2.4481   19.9628  -33.2096 H   0  0  0  0  0  0  0  0  0  0  0  0
    1.9689   18.4282  -32.4811 H   0  0  0  0  0  0  0  0  0  0  0  0
   -7.5613   22.0623  -30.2327 H   0  0  0  0  0  0  0  0  0  0  0  0
   -7.8466   23.2924  -31.5187 H   0  0  0  0  0  0  0  0  0  0  0  0
   -8.9879   20.9799  -31.8139 H   0  0  0  0  0  0  0  0  0  0  0  0
   -8.0333   21.6475  -33.2156 H   0  0  0  0  0  0  0  0  0  0  0  0
   -1.0497   16.3094  -32.4487 H   0  0  0  0  0  0  0  0  0  0  0  0
   -1.3543   14.6290  -31.8515 H   0  0  0  0  0  0  0  0  0  0  0  0
    0.7571   14.8989  -33.2220 H   0  0  0  0  0  0  0  0  0  0  0  0
   -0.4404   13.6698  -33.8456 H   0  0  0  0  0  0  0  0  0  0  0  0
  1  2  1  0
  2  3  1  0
  3  4  1  0
  4  5  1  0
  5  6  1  0
  6  7  1  0
  7  8  1  0
  8  9  2  0
  8 10  1  0
 10 11  1  0
 11 12  2  0
 12 13  1  0
 13 14  2  0
 14 15  1  0
 15 16  2  0
 15 17  1  0
 17 18  2  0
 18 19  1  0
 19 20  1  0
 20 21  1  0
 20 22  2  0
 19 23  2  0
 23 24  1  0
 24 25  1  0
 25 26  2  0
 26 27  1  0
 27 28  2  0
 28 29  1  0
 29 30  2  0
 29 31  1  0
 31 32  1  0
 32 33  1  0
 18 34  1  0
 34 35  1  0
  5 36  1  0
 36 37  1  0
 37  2  1  0
 16 11  1  0
 24 17  1  0
 30 25  1  0
 35 14  1  0
 33 28  1  0
  1 38  1  0
  1 39  1  0
  1 40  1  0
  3 41  1  0
  3 42  1  0
  4 43  1  0
  4 44  1  0
  6 45  1  0
  6 46  1  0
  7 47  1  0
  7 48  1  0
 10 49  1  0
 12 50  1  0
 13 51  1  0
 16 52  1  0
 21 53  1  0
 26 54  1  0
 27 55  1  0
 30 56  1  0
 32 57  1  0
 32 58  1  0
 34 59  1  0
 34 60  1  0
 35 61  1  0
 35 62  1  0
 36 63  1  0
 36 64  1  0
 37 65  1  0
 37 66  1  0
M  CHG  1  21  -1
M  END
>  <UniqueID>  (46) 
45

>  <SMILES>  (46) 
CN1CCN(CCC(=O)Nc2ccc3c(c2)-c2c(c(C([NH-])=O)nn2-c2ccc4c(c2)OCO4)CC3)CC1

>  <Energy>  (46) 
160.01416805220566

>  <Genealogy>  (46) 
CN1CCN(CCC(=O)Nc2ccc3c(c2)-c2c(c(C([NH-])=O)nn2-c2ccc4c(c2)OCO4)CC3)CC1 (protonated)
CN1CCN(CCC(=O)Nc2ccc3c(c2)-c2c(c(C([NH-])=O)nn2-c2ccc4c(c2)OCO4)CC3)CC1 (3D coordinates assigned)
CN1CCN(CCC(=O)Nc2ccc3c(c2)-c2c(c(C([NH-])=O)nn2-c2ccc4c(c2)OCO4)CC3)CC1 (nonaromatic ring conformer: 160.01416805220566 kcal/mol)

>  <smiles>  (46) 
CN1CCN(CCC(=O)Nc2ccc3c(c2)-c2c(c(C(N)=O)nn2-c2ccc4c(c2)OCO4)CC3)CC1

>  <score_type>  (46) 
oracle

>  <origin>  (46) 
adg

>  <m_score__min__energy>  (46) 
-12.460000000000001

>  <m_primary>  (46) 
energy

$$$$
46:0
     RDKit          3D

 32 34  0  0  0  0  0  0  0  0999 V2000
   -9.5420   19.6810  -32.7180 C   0  0  0  0  0  0  0  0  0  0  0  0
   -8.4010   19.3700  -31.3340 S   0  0  0  0  0  0  0  0  0  0  0  0
   -6.9740   19.0910  -32.3950 C   0  0  0  0  0  0  0  0  0  0  0  0
   -6.7880   17.8220  -32.9610 C   0  0  0  0  0  0  0  0  0  0  0  0
   -5.7120   17.5820  -33.8180 C   0  0  0  0  0  0  0  0  0  0  0  0
   -4.8240   18.6130  -34.1290 C   0  0  0  0  0  0  0  0  0  0  0  0
   -5.0110   19.8860  -33.5870 C   0  0  0  0  0  0  0  0  0  0  0  0
   -6.0830   20.1370  -32.7160 C   0  0  0  0  0  0  0  0  0  0  0  0
   -6.2850   21.4660  -32.2150 N   0  0  0  0  0  0  0  0  0  0  0  0
   -7.4030   22.2250  -32.3180 C   0  0  0  0  0  0  0  0  0  0  0  0
   -7.2980   23.4210  -31.6820 N   0  0  0  0  0  0  0  0  0  0  0  0
   -6.0560   23.3850  -31.1620 C   0  0  0  0  0  0  0  0  0  0  0  0
   -5.4170   24.3700  -30.4000 C   0  0  0  0  0  0  0  0  0  0  0  0
   -6.1140   25.6450  -30.0290 C   0  0  0  0  0  0  0  0  0  0  0  0
   -4.1090   24.0880  -29.9430 C   0  0  0  0  0  0  0  0  0  0  0  0
   -3.4790   22.8680  -30.2750 C   0  0  0  0  0  0  0  0  0  0  0  0
   -4.1480   21.9080  -31.0540 C   0  0  0  0  0  0  0  0  0  0  0  0
   -5.4450   22.2060  -31.4740 C   0  0  0  0  0  0  0  0  0  0  0  0
  -10.5325   19.9510  -32.3230 H   0  0  0  0  0  0  0  0  0  0  0  0
   -9.1553   20.5065  -33.3336 H   0  0  0  0  0  0  0  0  0  0  0  0
   -9.6277   18.7734  -33.3336 H   0  0  0  0  0  0  0  0  0  0  0  0
   -7.4937   17.0108  -32.7287 H   0  0  0  0  0  0  0  0  0  0  0  0
   -5.5642   16.5804  -34.2480 H   0  0  0  0  0  0  0  0  0  0  0  0
   -3.9753   18.4222  -34.8023 H   0  0  0  0  0  0  0  0  0  0  0  0
   -4.3141   20.6973  -33.8440 H   0  0  0  0  0  0  0  0  0  0  0  0
   -8.3043   21.9051  -32.8615 H   0  0  0  0  0  0  0  0  0  0  0  0
   -6.1613   25.7316  -28.9334 H   0  0  0  0  0  0  0  0  0  0  0  0
   -5.5579   26.5001  -30.4407 H   0  0  0  0  0  0  0  0  0  0  0  0
   -7.1340   25.6385  -30.4407 H   0  0  0  0  0  0  0  0  0  0  0  0
   -3.5773   24.8252  -29.3234 H   0  0  0  0  0  0  0  0  0  0  0  0
   -2.4569   22.6677  -29.9212 H   0  0  0  0  0  0  0  0  0  0  0  0
   -3.6665   20.9562  -31.3228 H   0  0  0  0  0  0  0  0  0  0  0  0
  1  2  1  0
  2  3  1  0
  3  4  2  0
  4  5  1  0
  5  6  2  0
  6  7  1  0
  7  8  2  0
  8  9  1  0
  9 10  1  0
 10 11  2  0
 11 12  1  0
 12 13  2  0
 13 14  1  0
 13 15  1  0
 15 16  2  0
 16 17  1  0
 17 18  2  0
  8  3  1  0
 18  9  1  0
 18 12  1  0
  1 19  1  0
  1 20  1  0
  1 21  1  0
  4 22  1  0
  5 23  1  0
  6 24  1  0
  7 25  1  0
 10 26  1  0
 14 27  1  0
 14 28  1  0
 14 29  1  0
 15 30  1  0
 16 31  1  0
 17 32  1  0
M  END
>  <UniqueID>  (47) 
46

>  <SMILES>  (47) 
CSc1ccccc1-n1cnc2c(C)cccc21

>  <Energy>  (47) 
74.50911250576628

>  <Genealogy>  (47) 
CSc1ccccc1-n1cnc2c(C)cccc21 (3D coordinates assigned)
CSc1ccccc1-n1cnc2c(C)cccc21 (optimized conformer: 74.50911250576628 kcal/mol)

>  <smiles>  (47) 
CSc1ccccc1-n1cnc2c(C)cccc21

>  <score_type>  (47) 
oracle

>  <origin>  (47) 
adg

>  <m_score__min__energy>  (47) 
-7.0800000000000001

>  <m_primary>  (47) 
energy

$$$$
47:0
     RDKit          3D

 37 39  0  0  0  0  0  0  0  0999 V2000
    0.8580   23.4560  -27.3680 C   0  0  0  0  0  0  0  0  0  0  0  0
    0.3920   23.9860  -28.6040 O   0  0  0  0  0  0  0  0  0  0  0  0
   -0.8220   23.6330  -29.2120 C   0  0  0  0  0  0  0  0  0  0  0  0
   -0.9380   22.5300  -30.0790 C   0  0  0  0  0  0  0  0  0  0  0  0
   -2.1680   22.2150  -30.6620 C   0  0  0  0  0  0  0  0  0  0  0  0
   -3.2990   22.9970  -30.3870 C   0  0  0  0  0  0  0  0  0  0  0  0
   -4.5380   22.7000  -30.9600 C   0  0  0  0  0  0  0  0  0  0  0  0
   -5.6570   23.5020  -30.6910 C   0  0  0  0  0  0  0  0  0  0  0  0
   -6.9870   23.1450  -31.3210 C   0  0  0  0  0  0  0  0  0  0  0  0
   -6.7980   22.3030  -32.5050 N   0  0  0  0  0  0  0  0  0  0  0  0
   -7.0820   20.8920  -32.5530 C   0  0  0  0  0  0  0  0  0  0  0  0
   -8.1410   20.3200  -31.8210 C   0  0  0  0  0  0  0  0  0  0  0  0
   -8.3920   18.9470  -31.8970 C   0  0  0  0  0  0  0  0  0  0  0  0
   -7.5920   18.1310  -32.6980 C   0  0  0  0  0  0  0  0  0  0  0  0
   -6.5350   18.6850  -33.4260 C   0  0  0  0  0  0  0  0  0  0  0  0
   -5.5290   17.6590  -34.4320 Cl  0  0  0  0  0  0  0  0  0  0  0  0
   -6.2810   20.0590  -33.3520 C   0  0  0  0  0  0  0  0  0  0  0  0
   -5.5110   24.5850  -29.7950 C   0  0  0  0  0  0  0  0  0  0  0  0
   -6.8740   25.6090  -29.3440 Cl  0  0  0  0  0  0  0  0  0  0  0  0
   -4.2940   24.8580  -29.2450 N   0  0  0  0  0  0  0  0  0  0  0  0
   -3.1930   24.1020  -29.5190 C   0  0  0  0  0  0  0  0  0  0  0  0
   -1.9530   24.4110  -28.9370 C   0  0  0  0  0  0  0  0  0  0  0  0
    0.3834   23.9958  -26.5353 H   0  0  0  0  0  0  0  0  0  0  0  0
    0.6009   22.3882  -27.3067 H   0  0  0  0  0  0  0  0  0  0  0  0
    1.9499   23.5743  -27.3067 H   0  0  0  0  0  0  0  0  0  0  0  0
   -0.0548   21.9123  -30.2988 H   0  0  0  0  0  0  0  0  0  0  0  0
   -2.2494   21.3514  -31.3384 H   0  0  0  0  0  0  0  0  0  0  0  0
   -4.6368   21.8309  -31.6270 H   0  0  0  0  0  0  0  0  0  0  0  0
   -7.5984   22.6006  -30.5863 H   0  0  0  0  0  0  0  0  0  0  0  0
   -7.4898   24.0739  -31.6282 H   0  0  0  0  0  0  0  0  0  0  0  0
   -6.4640   22.7760  -33.3760 H   0  0  0  0  0  0  0  0  0  0  0  0
   -8.7739   20.9574  -31.1861 H   0  0  0  0  0  0  0  0  0  0  0  0
   -9.2223   18.5086  -31.3239 H   0  0  0  0  0  0  0  0  0  0  0  0
   -7.7933   17.0512  -32.7566 H   0  0  0  0  0  0  0  0  0  0  0  0
   -5.4468   20.4908  -33.9245 H   0  0  0  0  0  0  0  0  0  0  0  0
   -4.2140   25.6700  -28.5910 H   0  0  0  0  0  0  0  0  0  0  0  0
   -1.8694   25.2727  -28.2584 H   0  0  0  0  0  0  0  0  0  0  0  0
  1  2  1  0
  2  3  1  0
  3  4  2  0
  4  5  1  0
  5  6  2  0
  6  7  1  0
  7  8  2  0
  8  9  1  0
  9 10  1  0
 10 11  1  0
 11 12  2  0
 12 13  1  0
 13 14  2  0
 14 15  1  0
 15 16  1  0
 15 17  2  0
  8 18  1  0
 18 19  1  0
 18 20  2  0
 20 21  1  0
 21 22  2  0
 22  3  1  0
 21  6  1  0
 17 11  1  0
  1 23  1  0
  1 24  1  0
  1 25  1  0
  4 26  1  0
  5 27  1  0
  7 28  1  0
  9 29  1  0
  9 30  1  0
 10 31  1  0
 12 32  1  0
 13 33  1  0
 14 34  1  0
 17 35  1  0
 20 36  1  0
 22 37  1  0
M  CHG  1  20   1
M  END
>  <UniqueID>  (48) 
47

>  <SMILES>  (48) 
COc1ccc2cc(CNc3cccc(Cl)c3)c(Cl)[nH+]c2c1

>  <Energy>  (48) 
43.01538614987963

>  <Genealogy>  (48) 
COc1ccc2cc(CNc3cccc(Cl)c3)c(Cl)[nH+]c2c1 (protonated)
COc1ccc2cc(CNc3cccc(Cl)c3)c(Cl)[nH+]c2c1 (3D coordinates assigned)
COc1ccc2cc(CNc3cccc(Cl)c3)c(Cl)[nH+]c2c1 (optimized conformer: 43.01538614987963 kcal/mol)

>  <smiles>  (48) 
COc1ccc2cc(CNc3cccc(Cl)c3)c(Cl)nc2c1

>  <score_type>  (48) 
oracle

>  <origin>  (48) 
adg

>  <m_score__min__energy>  (48) 
-7.6500000000000004

>  <m_primary>  (48) 
energy

$$$$
48:0
     RDKit          3D

 46 49  0  0  0  0  0  0  0  0999 V2000
   -6.4420   18.1690  -33.9140 C   0  0  0  0  0  0  0  0  0  0  0  0
   -6.5990   19.4330  -33.1300 C   0  0  0  0  0  0  0  0  0  0  0  0
   -7.8830   19.8760  -32.7500 C   0  0  0  0  0  0  0  0  0  0  0  0
   -8.0060   21.0760  -32.0290 C   0  0  0  0  0  0  0  0  0  0  0  0
   -9.3530   21.6100  -31.6350 C   0  0  0  0  0  0  0  0  0  0  0  0
   -6.8640   21.7610  -31.7520 N   0  0  0  0  0  0  0  0  0  0  0  0
   -6.6620   22.9360  -31.1350 C   0  0  0  0  0  0  0  0  0  0  0  0
   -5.2970   23.1740  -31.1640 C   0  0  0  0  0  0  0  0  0  0  0  0
   -4.6230   24.4170  -30.6780 C   0  0  0  0  0  0  0  0  0  0  0  0
   -4.3560   24.3520  -28.8710 S   0  0  0  0  0  0  0  0  0  0  0  0
   -3.1270   23.0400  -28.9320 C   0  0  0  0  0  0  0  0  0  0  0  0
   -1.8060   23.2100  -28.9990 C   0  0  0  0  0  0  0  0  0  0  0  0
   -1.0360   24.4650  -28.9700 C   0  0  0  0  0  0  0  0  0  0  0  0
    0.1670   24.4470  -28.6040 O   0  0  0  0  0  0  0  0  0  0  0  0
   -1.6160   25.6730  -29.3320 O   0  0  0  0  0  0  0  0  0  0  0  0
   -1.2170   21.9370  -29.0020 N   0  0  0  0  0  0  0  0  0  0  0  0
   -0.3930   21.1910  -28.0240 C   0  0  0  0  0  0  0  0  0  0  0  0
    0.6980   21.4020  -27.4340 O   0  0  0  0  0  0  0  0  0  0  0  0
   -1.4440   20.1190  -27.9800 C   0  0  1  0  0  0  0  0  0  0  0  0
   -2.1540   19.9910  -26.6050 C   0  0  1  0  0  0  0  0  0  0  0  0
   -2.6340   18.5530  -26.3670 C   0  0  0  0  0  0  0  0  0  0  0  0
   -1.3460   20.4280  -25.5360 O   0  0  0  0  0  0  0  0  0  0  0  0
   -2.1290   20.8330  -29.0500 C   0  0  1  0  0  0  0  0  0  0  0  0
   -3.4910   21.5650  -28.8760 C   0  0  0  0  0  0  0  0  0  0  0  0
   -4.6480   22.1660  -31.7960 N   0  0  0  0  0  0  0  0  0  0  0  0
   -5.6510   21.3310  -32.1290 C   0  0  0  0  0  0  0  0  0  0  0  0
   -5.4960   20.1760  -32.8200 N   0  0  0  0  0  0  0  0  0  0  0  0
   -6.3365   17.3196  -33.2230 H   0  0  0  0  0  0  0  0  0  0  0  0
   -7.3283   18.0182  -34.5478 H   0  0  0  0  0  0  0  0  0  0  0  0
   -5.5457   18.2396  -34.5478 H   0  0  0  0  0  0  0  0  0  0  0  0
   -8.7758   19.2903  -33.0143 H   0  0  0  0  0  0  0  0  0  0  0  0
   -9.4289   21.6401  -30.5380 H   0  0  0  0  0  0  0  0  0  0  0  0
   -9.4774   22.6255  -32.0392 H   0  0  0  0  0  0  0  0  0  0  0  0
  -10.1394   20.9556  -32.0392 H   0  0  0  0  0  0  0  0  0  0  0  0
   -7.4317   23.5849  -30.6918 H   0  0  0  0  0  0  0  0  0  0  0  0
   -3.6507   24.5198  -31.1820 H   0  0  0  0  0  0  0  0  0  0  0  0
   -5.2679   25.2782  -30.9067 H   0  0  0  0  0  0  0  0  0  0  0  0
   -1.2265   19.0470  -28.0967 H   0  0  0  0  0  0  0  0  0  0  0  0
   -3.0299   20.6556  -26.6392 H   0  0  0  0  0  0  0  0  0  0  0  0
   -2.6978   18.3620  -25.2856 H   0  0  0  0  0  0  0  0  0  0  0  0
   -3.6261   18.4175  -26.8224 H   0  0  0  0  0  0  0  0  0  0  0  0
   -1.9222   17.8487  -26.8224 H   0  0  0  0  0  0  0  0  0  0  0  0
   -0.4880   20.7620  -25.9090 H   0  0  0  0  0  0  0  0  0  0  0  0
   -2.3447   20.1325  -29.8703 H   0  0  0  0  0  0  0  0  0  0  0  0
   -4.1828   21.3020  -29.6898 H   0  0  0  0  0  0  0  0  0  0  0  0
   -4.0021   21.2908  -27.9414 H   0  0  0  0  0  0  0  0  0  0  0  0
  1  2  1  0
  2  3  1  0
  3  4  2  0
  4  5  1  0
  4  6  1  0
  6  7  1  0
  7  8  2  0
  8  9  1  0
  9 10  1  0
 10 11  1  0
 11 12  2  0
 12 13  1  0
 13 14  2  0
 13 15  1  0
 12 16  1  0
 16 17  1  0
 17 18  2  0
 17 19  1  0
 19 20  1  0
 20 21  1  0
 20 22  1  0
 19 23  1  0
 23 24  1  0
  8 25  1  0
 25 26  2  0
 26 27  1  0
 27  2  2  0
 26  6  1  0
 24 11  1  0
 23 16  1  0
  1 28  1  0
  1 29  1  0
  1 30  1  0
  3 31  1  0
  5 32  1  0
  5 33  1  0
  5 34  1  0
  7 35  1  0
  9 36  1  0
  9 37  1  0
 19 38  1  6
 20 39  1  6
 21 40  1  0
 21 41  1  0
 21 42  1  0
 22 43  1  0
 23 44  1  6
 24 45  1  0
 24 46  1  0
M  CHG  1  15  -1
M  END
>  <UniqueID>  (49) 
48

>  <SMILES>  (49) 
Cc1cc(C)n2cc(CSC3=C(C(=O)[O-])N4C(=O)[C@@H]([C@@H](C)O)C4C3)nc2n1

>  <Energy>  (49) 
152.9424145537272

>  <Genealogy>  (49) 
Cc1cc(C)n2cc(CSC3=C(C(=O)[O-])N4C(=O)C(C(C)O)C4C3)nc2n1 (protonated)
Cc1cc(C)n2cc(CSC3=C(C(=O)[O-])N4C(=O)[C@@H]([C@@H](C)O)C4C3)nc2n1 (chirality)
Cc1cc(C)n2cc(CSC3=C(C(=O)[O-])N4C(=O)[C@@H]([C@@H](C)O)C4C3)nc2n1 (3D coordinates assigned)
Cc1cc(C)n2cc(CSC3=C(C(=O)[O-])N4C(=O)[C@@H]([C@@H](C)O)C4C3)nc2n1 (nonaromatic ring conformer: 152.9424145537272 kcal/mol)

>  <smiles>  (49) 
Cc1cc(C)n2cc(CSC3=C(C(=O)O)N4C(=O)C(C(C)O)C4C3)nc2n1

>  <score_type>  (49) 
oracle

>  <origin>  (49) 
adg

>  <m_score__min__energy>  (49) 
-10.57

>  <m_primary>  (49) 
energy

$$$$
