0:0
     RDKit          3D

 48 49  0  0  0  0  0  0  0  0999 V2000
   -5.9800   18.8400  -34.2140 C   0  0  0  0  0  0  0  0  0  0  0  0
   -6.7980   19.1060  -32.9470 C   0  0  0  0  0  0  0  0  0  0  0  0
   -7.7360   20.2310  -33.1060 N   0  0  0  0  0  0  0  0  0  0  0  0
   -8.4380   20.5540  -31.8530 C   0  0  0  0  0  0  0  0  0  0  0  0
   -8.3770   22.0640  -31.5680 C   0  0  0  0  0  0  0  0  0  0  0  0
   -6.9680   22.5100  -31.1640 C   0  0  0  0  0  0  0  0  0  0  0  0
   -6.0650   22.4530  -32.3220 N   0  0  0  0  0  0  0  0  0  0  0  0
   -4.7330   23.0530  -32.1010 C   0  0  2  0  0  0  0  0  0  0  0  0
   -3.6060   22.0540  -32.2810 C   0  0  0  0  0  0  0  0  0  0  0  0
   -3.6110   21.1770  -33.3810 C   0  0  0  0  0  0  0  0  0  0  0  0
   -2.5140   20.3460  -33.6290 C   0  0  0  0  0  0  0  0  0  0  0  0
   -1.3890   20.4030  -32.8010 C   0  0  0  0  0  0  0  0  0  0  0  0
   -0.2550   19.5570  -33.0640 C   0  0  0  0  0  0  0  0  0  0  0  0
    0.6580   18.8780  -33.2750 N   0  0  0  0  0  0  0  0  0  0  0  0
   -1.3670   21.2890  -31.7170 C   0  0  0  0  0  0  0  0  0  0  0  0
   -2.4740   22.1010  -31.4510 C   0  0  0  0  0  0  0  0  0  0  0  0
   -2.4460   22.9550  -30.3490 O   0  0  0  0  0  0  0  0  0  0  0  0
   -3.6410   23.4220  -29.7240 C   0  0  0  0  0  0  0  0  0  0  0  0
   -4.2410   22.2680  -28.8940 C   0  0  0  0  0  0  0  0  0  0  0  0
   -3.2550   24.5480  -28.7440 C   0  0  0  0  0  0  0  0  0  0  0  0
   -4.6530   23.9400  -30.8060 C   0  0  1  0  0  0  0  0  0  0  0  0
   -4.2930   25.2440  -31.2030 O   0  0  0  0  0  0  0  0  0  0  0  0
   -4.9682   18.5110  -33.9348 H   0  0  0  0  0  0  0  0  0  0  0  0
   -6.4699   18.0549  -34.8086 H   0  0  0  0  0  0  0  0  0  0  0  0
   -5.9144   19.7631  -34.8086 H   0  0  0  0  0  0  0  0  0  0  0  0
   -7.3720   18.2004  -32.7012 H   0  0  0  0  0  0  0  0  0  0  0  0
   -6.0938   19.3693  -32.1440 H   0  0  0  0  0  0  0  0  0  0  0  0
   -8.4310   20.0120  -33.8580 H   0  0  0  0  0  0  0  0  0  0  0  0
   -7.1820   21.0680  -33.4080 H   0  0  0  0  0  0  0  0  0  0  0  0
   -9.4903   20.2452  -31.9390 H   0  0  0  0  0  0  0  0  0  0  0  0
   -7.9488   20.0185  -31.0260 H   0  0  0  0  0  0  0  0  0  0  0  0
   -8.6771   22.6099  -32.4746 H   0  0  0  0  0  0  0  0  0  0  0  0
   -9.0577   22.2820  -30.7319 H   0  0  0  0  0  0  0  0  0  0  0  0
   -7.0083   23.5420  -30.7854 H   0  0  0  0  0  0  0  0  0  0  0  0
   -6.5896   21.8366  -30.3808 H   0  0  0  0  0  0  0  0  0  0  0  0
   -6.5250   22.9290  -33.1350 H   0  0  0  0  0  0  0  0  0  0  0  0
   -4.5764   23.7815  -32.9101 H   0  0  0  0  0  0  0  0  0  0  0  0
   -4.4834   21.1447  -34.0503 H   0  0  0  0  0  0  0  0  0  0  0  0
   -2.5363   19.6461  -34.4773 H   0  0  0  0  0  0  0  0  0  0  0  0
   -0.4769   21.3465  -31.0732 H   0  0  0  0  0  0  0  0  0  0  0  0
   -4.1262   22.4887  -27.8225 H   0  0  0  0  0  0  0  0  0  0  0  0
   -5.3091   22.1606  -29.1339 H   0  0  0  0  0  0  0  0  0  0  0  0
   -3.7154   21.3319  -29.1339 H   0  0  0  0  0  0  0  0  0  0  0  0
   -3.3770   24.1922  -27.7103 H   0  0  0  0  0  0  0  0  0  0  0  0
   -2.2067   24.8363  -28.9113 H   0  0  0  0  0  0  0  0  0  0  0  0
   -3.9059   25.4188  -28.9113 H   0  0  0  0  0  0  0  0  0  0  0  0
   -5.6403   23.9045  -30.3222 H   0  0  0  0  0  0  0  0  0  0  0  0
   -3.3780   25.2030  -31.5860 H   0  0  0  0  0  0  0  0  0  0  0  0
  1  2  1  0
  2  3  1  0
  3  4  1  0
  4  5  1  0
  5  6  1  0
  6  7  1  0
  7  8  1  0
  8  9  1  0
  9 10  2  0
 10 11  1  0
 11 12  2  0
 12 13  1  0
 13 14  3  0
 12 15  1  0
 15 16  2  0
 16 17  1  0
 17 18  1  0
 18 19  1  0
 18 20  1  0
 18 21  1  0
 21 22  1  0
 21  8  1  0
 16  9  1  0
  1 23  1  0
  1 24  1  0
  1 25  1  0
  2 26  1  0
  2 27  1  0
  3 28  1  0
  3 29  1  0
  4 30  1  0
  4 31  1  0
  5 32  1  0
  5 33  1  0
  6 34  1  0
  6 35  1  0
  7 36  1  0
  8 37  1  6
 10 38  1  0
 11 39  1  0
 15 40  1  0
 19 41  1  0
 19 42  1  0
 19 43  1  0
 20 44  1  0
 20 45  1  0
 20 46  1  0
 21 47  1  1
 22 48  1  0
M  CHG  1   3   1
M  END
>  <UniqueID>  (1) 
1

>  <SMILES>  (1) 
CC[NH2+]CCCN[C@@H]1c2ccc(C#N)cc2OC(C)(C)[C@H]1O

>  <Energy>  (1) 
50.56631500028203

>  <Genealogy>  (1) 
CC[NH2+]CCCNC1c2ccc(C#N)cc2OC(C)(C)C1O (protonated)
CC[NH2+]CCCN[C@@H]1c2ccc(C#N)cc2OC(C)(C)[C@H]1O (chirality)
CC[NH2+]CCCN[C@@H]1c2ccc(C#N)cc2OC(C)(C)[C@H]1O (3D coordinates assigned)
CC[NH2+]CCCN[C@@H]1c2ccc(C#N)cc2OC(C)(C)[C@H]1O (nonaromatic ring conformer: 50.56631500028203 kcal/mol)

>  <smiles>  (1) 
CCNCCCNC1c2ccc(C#N)cc2OC(C)(C)C1O

>  <score_type>  (1) 
oracle

>  <origin>  (1) 
adg

>  <m_score__min__energy>  (1) 
-7.3300000000000001

>  <m_primary>  (1) 
energy

$$$$
1:0
     RDKit          3D

 50 52  0  0  0  0  0  0  0  0999 V2000
   -1.8660   24.9050  -28.5850 C   0  0  0  0  0  0  0  0  0  0  0  0
   -2.4080   24.8520  -27.1560 C   0  0  0  0  0  0  0  0  0  0  0  0
   -3.9040   24.4900  -27.0990 C   0  0  0  0  0  0  0  0  0  0  0  0
   -4.4740   23.9490  -28.4250 C   0  0  0  0  0  0  0  0  0  0  0  0
   -5.4770   24.8600  -29.0050 N   0  0  0  0  0  0  0  0  0  0  0  0
   -5.9380   24.4080  -30.3330 C   0  0  0  0  0  0  0  0  0  0  0  0
   -4.9020   23.5390  -31.0700 C   0  0  0  0  0  0  0  0  0  0  0  0
   -5.4060   23.1060  -32.3750 N   0  0  0  0  0  0  0  0  0  0  0  0
   -5.5590   21.7120  -32.6900 C   0  0  0  0  0  0  0  0  0  0  0  0
   -6.8060   21.0820  -32.5350 C   0  0  0  0  0  0  0  0  0  0  0  0
   -7.8970   21.7740  -31.9660 C   0  0  0  0  0  0  0  0  0  0  0  0
   -9.1170   21.1370  -31.7670 C   0  0  0  0  0  0  0  0  0  0  0  0
   -9.2670   19.7980  -32.1110 C   0  0  0  0  0  0  0  0  0  0  0  0
   -8.2040   19.0940  -32.6730 C   0  0  0  0  0  0  0  0  0  0  0  0
   -6.9570   19.7230  -32.9180 C   0  0  0  0  0  0  0  0  0  0  0  0
   -5.8980   19.0380  -33.4840 N   0  0  0  0  0  0  0  0  0  0  0  0
   -6.1280   17.7290  -34.1350 C   0  0  0  0  0  0  0  0  0  0  0  0
   -4.6290   19.5850  -33.4520 C   0  0  0  0  0  0  0  0  0  0  0  0
   -3.4780   18.8170  -33.7670 C   0  0  0  0  0  0  0  0  0  0  0  0
   -2.2100   19.3970  -33.7890 C   0  0  0  0  0  0  0  0  0  0  0  0
   -1.1250   18.6410  -34.0940 F   0  0  0  0  0  0  0  0  0  0  0  0
   -2.0520   20.7460  -33.4930 C   0  0  0  0  0  0  0  0  0  0  0  0
   -3.1560   21.5160  -33.1420 C   0  0  0  0  0  0  0  0  0  0  0  0
   -4.4470   20.9470  -33.0900 C   0  0  0  0  0  0  0  0  0  0  0  0
   -0.7715   25.0120  -28.5583 H   0  0  0  0  0  0  0  0  0  0  0  0
   -2.1309   23.9767  -29.1123 H   0  0  0  0  0  0  0  0  0  0  0  0
   -2.3057   25.7644  -29.1123 H   0  0  0  0  0  0  0  0  0  0  0  0
   -1.8415   24.0957  -26.5929 H   0  0  0  0  0  0  0  0  0  0  0  0
   -2.2929   25.8554  -26.7203 H   0  0  0  0  0  0  0  0  0  0  0  0
   -4.0437   23.7216  -26.3244 H   0  0  0  0  0  0  0  0  0  0  0  0
   -4.4464   25.4212  -26.8783 H   0  0  0  0  0  0  0  0  0  0  0  0
   -3.6493   23.8252  -29.1423 H   0  0  0  0  0  0  0  0  0  0  0  0
   -4.9667   22.9878  -28.2170 H   0  0  0  0  0  0  0  0  0  0  0  0
   -6.3110   24.8870  -28.3740 H   0  0  0  0  0  0  0  0  0  0  0  0
   -5.0860   25.8270  -29.0630 H   0  0  0  0  0  0  0  0  0  0  0  0
   -6.8584   23.8199  -30.2023 H   0  0  0  0  0  0  0  0  0  0  0  0
   -6.1060   25.3067  -30.9446 H   0  0  0  0  0  0  0  0  0  0  0  0
   -3.9822   24.1242  -31.2168 H   0  0  0  0  0  0  0  0  0  0  0  0
   -4.7003   22.6456  -30.4607 H   0  0  0  0  0  0  0  0  0  0  0  0
   -5.8140   23.8160  -33.0230 H   0  0  0  0  0  0  0  0  0  0  0  0
   -7.7808   22.8289  -31.6768 H   0  0  0  0  0  0  0  0  0  0  0  0
   -9.9637   21.6925  -31.3373 H   0  0  0  0  0  0  0  0  0  0  0  0
  -10.2287   19.2926  -31.9387 H   0  0  0  0  0  0  0  0  0  0  0  0
   -8.3343   18.0326  -32.9309 H   0  0  0  0  0  0  0  0  0  0  0  0
   -6.2639   16.9554  -33.3649 H   0  0  0  0  0  0  0  0  0  0  0  0
   -7.0301   17.7848  -34.7620 H   0  0  0  0  0  0  0  0  0  0  0  0
   -5.2609   17.4739  -34.7620 H   0  0  0  0  0  0  0  0  0  0  0  0
   -3.5878   17.7470  -33.9975 H   0  0  0  0  0  0  0  0  0  0  0  0
   -1.0532   21.2049  -33.5364 H   0  0  0  0  0  0  0  0  0  0  0  0
   -3.0215   22.5811  -32.9021 H   0  0  0  0  0  0  0  0  0  0  0  0
  1  2  1  0
  2  3  1  0
  3  4  1  0
  4  5  1  0
  5  6  1  0
  6  7  1  0
  7  8  1  0
  8  9  1  0
  9 10  2  0
 10 11  1  0
 11 12  2  0
 12 13  1  0
 13 14  2  0
 14 15  1  0
 15 16  2  0
 16 17  1  0
 16 18  1  0
 18 19  2  0
 19 20  1  0
 20 21  1  0
 20 22  2  0
 22 23  1  0
 23 24  2  0
 24  9  1  0
 15 10  1  0
 24 18  1  0
  1 25  1  0
  1 26  1  0
  1 27  1  0
  2 28  1  0
  2 29  1  0
  3 30  1  0
  3 31  1  0
  4 32  1  0
  4 33  1  0
  5 34  1  0
  5 35  1  0
  6 36  1  0
  6 37  1  0
  7 38  1  0
  7 39  1  0
  8 40  1  0
 11 41  1  0
 12 42  1  0
 13 43  1  0
 14 44  1  0
 17 45  1  0
 17 46  1  0
 17 47  1  0
 19 48  1  0
 22 49  1  0
 23 50  1  0
M  CHG  2   5   1  16   1
M  END
>  <UniqueID>  (2) 
2

>  <SMILES>  (2) 
CCCC[NH2+]CCNc1c2ccccc2[n+](C)c2cc(F)ccc12

>  <Energy>  (2) 
72.57902868671756

>  <Genealogy>  (2) 
CCCC[NH2+]CCNc1c2ccccc2[n+](C)c2cc(F)ccc12 (protonated)
CCCC[NH2+]CCNc1c2ccccc2[n+](C)c2cc(F)ccc12 (3D coordinates assigned)
CCCC[NH2+]CCNc1c2ccccc2[n+](C)c2cc(F)ccc12 (optimized conformer: 72.57902868671756 kcal/mol)

>  <smiles>  (2) 
CCCCNCCNc1c2ccccc2[n+](C)c2cc(F)ccc12

>  <score_type>  (2) 
oracle

>  <origin>  (2) 
adg

>  <m_score__min__energy>  (2) 
-7.4000000000000004

>  <m_primary>  (2) 
energy

$$$$
2:0
     RDKit          3D

 46 48  0  0  0  0  0  0  0  0999 V2000
   -1.7440   22.0450  -28.2070 C   0  0  0  0  0  0  0  0  0  0  0  0
   -1.2350   23.2760  -28.9480 C   0  0  0  0  0  0  0  0  0  0  0  0
   -2.3110   23.8470  -29.7710 N   0  0  0  0  0  0  0  0  0  0  0  0
   -3.5710   23.9810  -29.0180 C   0  0  0  0  0  0  0  0  0  0  0  0
   -4.5620   24.9300  -29.7230 C   0  0  1  0  0  0  0  0  0  0  0  0
   -3.9030   25.6080  -30.7640 O   0  0  0  0  0  0  0  0  0  0  0  0
   -5.7750   24.1690  -30.3060 C   0  0  0  0  0  0  0  0  0  0  0  0
   -5.5310   23.7740  -31.6590 O   0  0  0  0  0  0  0  0  0  0  0  0
   -5.6640   22.4430  -32.0810 C   0  0  0  0  0  0  0  0  0  0  0  0
   -6.9230   21.8240  -32.1430 C   0  0  0  0  0  0  0  0  0  0  0  0
   -8.0580   22.4430  -31.5830 C   0  0  0  0  0  0  0  0  0  0  0  0
   -9.3020   21.8190  -31.6280 C   0  0  0  0  0  0  0  0  0  0  0  0
   -9.4290   20.5600  -32.2040 C   0  0  0  0  0  0  0  0  0  0  0  0
   -8.3150   19.9190  -32.7450 C   0  0  0  0  0  0  0  0  0  0  0  0
   -7.0420   20.5430  -32.7440 C   0  0  0  0  0  0  0  0  0  0  0  0
   -5.9290   19.9310  -33.2940 N   0  0  0  0  0  0  0  0  0  0  0  0
   -6.0910   18.7580  -34.1810 C   0  0  0  0  0  0  0  0  0  0  0  0
   -4.6680   20.4300  -33.0280 C   0  0  0  0  0  0  0  0  0  0  0  0
   -3.4920   19.6950  -33.3240 C   0  0  0  0  0  0  0  0  0  0  0  0
   -2.2280   20.2400  -33.0930 C   0  0  0  0  0  0  0  0  0  0  0  0
   -2.1010   21.5160  -32.5550 C   0  0  0  0  0  0  0  0  0  0  0  0
   -3.2380   22.2480  -32.2210 C   0  0  0  0  0  0  0  0  0  0  0  0
   -4.5240   21.7120  -32.4360 C   0  0  0  0  0  0  0  0  0  0  0  0
   -1.6738   22.2148  -27.1225 H   0  0  0  0  0  0  0  0  0  0  0  0
   -2.7928   21.8591  -28.4819 H   0  0  0  0  0  0  0  0  0  0  0  0
   -1.1328   21.1727  -28.4819 H   0  0  0  0  0  0  0  0  0  0  0  0
   -0.8968   24.0266  -28.2185 H   0  0  0  0  0  0  0  0  0  0  0  0
   -0.3974   22.9853  -29.5991 H   0  0  0  0  0  0  0  0  0  0  0  0
   -2.0150   24.8110  -30.0540 H   0  0  0  0  0  0  0  0  0  0  0  0
   -4.0356   22.9886  -28.9219 H   0  0  0  0  0  0  0  0  0  0  0  0
   -3.3356   24.4048  -28.0306 H   0  0  0  0  0  0  0  0  0  0  0  0
   -4.9337   25.6419  -28.9712 H   0  0  0  0  0  0  0  0  0  0  0  0
   -3.4840   24.9180  -31.3410 H   0  0  0  0  0  0  0  0  0  0  0  0
   -5.9629   23.2719  -29.6978 H   0  0  0  0  0  0  0  0  0  0  0  0
   -6.6489   24.8369  -30.2883 H   0  0  0  0  0  0  0  0  0  0  0  0
   -7.9605   23.4291  -31.1054 H   0  0  0  0  0  0  0  0  0  0  0  0
  -10.1849   22.3226  -31.2075 H   0  0  0  0  0  0  0  0  0  0  0  0
  -10.4122   20.0676  -32.2331 H   0  0  0  0  0  0  0  0  0  0  0  0
   -8.4256   18.9143  -33.1790 H   0  0  0  0  0  0  0  0  0  0  0  0
   -6.2162   17.8514  -33.5708 H   0  0  0  0  0  0  0  0  0  0  0  0
   -6.9783   18.8981  -34.8158 H   0  0  0  0  0  0  0  0  0  0  0  0
   -5.1989   18.6524  -34.8158 H   0  0  0  0  0  0  0  0  0  0  0  0
   -3.5771   18.6809  -33.7416 H   0  0  0  0  0  0  0  0  0  0  0  0
   -1.3277   19.6572  -33.3378 H   0  0  0  0  0  0  0  0  0  0  0  0
   -1.1022   21.9475  -32.3931 H   0  0  0  0  0  0  0  0  0  0  0  0
   -3.1316   23.2527  -31.7859 H   0  0  0  0  0  0  0  0  0  0  0  0
  1  2  1  0
  2  3  1  0
  3  4  1  0
  4  5  1  0
  5  6  1  0
  5  7  1  0
  7  8  1  0
  8  9  1  0
  9 10  2  0
 10 11  1  0
 11 12  2  0
 12 13  1  0
 13 14  2  0
 14 15  1  0
 15 16  2  0
 16 17  1  0
 16 18  1  0
 18 19  2  0
 19 20  1  0
 20 21  2  0
 21 22  1  0
 22 23  2  0
 23  9  1  0
 15 10  1  0
 23 18  1  0
  1 24  1  0
  1 25  1  0
  1 26  1  0
  2 27  1  0
  2 28  1  0
  3 29  1  0
  4 30  1  0
  4 31  1  0
  5 32  1  1
  6 33  1  0
  7 34  1  0
  7 35  1  0
 11 36  1  0
 12 37  1  0
 13 38  1  0
 14 39  1  0
 17 40  1  0
 17 41  1  0
 17 42  1  0
 19 43  1  0
 20 44  1  0
 21 45  1  0
 22 46  1  0
M  CHG  1  16   1
M  END
>  <UniqueID>  (3) 
3

>  <SMILES>  (3) 
CCNC[C@@H](O)COc1c2ccccc2[n+](C)c2ccccc12

>  <Energy>  (3) 
67.91780775376614

>  <Genealogy>  (3) 
CCNC[C@@H](O)COc1c2ccccc2[n+](C)c2ccccc12 (chirality)
CCNC[C@@H](O)COc1c2ccccc2[n+](C)c2ccccc12 (3D coordinates assigned)
CCNC[C@@H](O)COc1c2ccccc2[n+](C)c2ccccc12 (optimized conformer: 67.91780775376614 kcal/mol)

>  <smiles>  (3) 
CCNCC(O)COc1c2ccccc2[n+](C)c2ccccc12

>  <score_type>  (3) 
oracle

>  <origin>  (3) 
adg

>  <m_score__min__energy>  (3) 
-9.1600000000000001

>  <m_primary>  (3) 
energy

$$$$
3:0
     RDKit          3D

 94 98  0  0  0  0  0  0  0  0999 V2000
   -1.0094   17.3325  -27.1073 H   0  0  0  0  0  0  0  0  0  0  0  0
   -0.8270   18.2200  -27.7310 C   0  0  0  0  0  0  0  0  0  0  0  0
    0.3530   18.3040  -28.3920 C   0  0  0  0  0  0  0  0  0  0  0  0
    1.2100   17.0670  -28.5340 C   0  0  0  0  0  0  0  0  0  0  0  0
    2.2216   17.2816  -28.1591 H   0  0  0  0  0  0  0  0  0  0  0  0
    0.7576   16.2501  -27.9526 H   0  0  0  0  0  0  0  0  0  0  0  0
    1.2960   16.6400  -30.0180 C   0  0  1  0  0  0  0  0  0  0  0  0
    2.2675   16.1472  -30.1711 H   0  0  0  0  0  0  0  0  0  0  0  0
    0.2140   15.7630  -30.2930 O   0  0  0  0  0  0  0  0  0  0  0  0
    0.1850   15.3730  -31.6550 C   0  0  0  0  0  0  0  0  0  0  0  0
    0.9913   15.8932  -32.1928 H   0  0  0  0  0  0  0  0  0  0  0  0
    0.3207   14.2825  -31.7042 H   0  0  0  0  0  0  0  0  0  0  0  0
   -1.1590   15.7210  -32.3130 C   0  0  0  0  0  0  0  0  0  0  0  0
   -1.5038   14.8544  -32.8962 H   0  0  0  0  0  0  0  0  0  0  0  0
   -1.8728   15.9730  -31.5149 H   0  0  0  0  0  0  0  0  0  0  0  0
   -1.0450   16.9330  -33.2470 C   0  0  0  0  0  0  0  0  0  0  0  0
    0.0109   17.2314  -33.3241 H   0  0  0  0  0  0  0  0  0  0  0  0
   -1.4361   16.6549  -34.2368 H   0  0  0  0  0  0  0  0  0  0  0  0
   -1.8660   18.1160  -32.7050 C   0  0  0  0  0  0  0  0  0  0  0  0
   -2.3783   17.8030  -31.7833 H   0  0  0  0  0  0  0  0  0  0  0  0
   -1.1783   18.9512  -32.5065 H   0  0  0  0  0  0  0  0  0  0  0  0
   -2.8770   18.5700  -33.6870 N   0  0  0  0  0  0  0  0  0  0  0  0
   -3.9290   19.3990  -33.0410 C   0  0  0  0  0  0  0  0  0  0  0  0
   -4.0959   19.0265  -32.0195 H   0  0  0  0  0  0  0  0  0  0  0  0
   -3.5803   20.4422  -33.0350 H   0  0  0  0  0  0  0  0  0  0  0  0
   -5.2600   19.3510  -33.8090 C   0  0  0  0  0  0  0  0  0  0  0  0
   -5.9928   19.9848  -33.2881 H   0  0  0  0  0  0  0  0  0  0  0  0
   -5.0739   19.7124  -34.8311 H   0  0  0  0  0  0  0  0  0  0  0  0
   -5.8020   17.9720  -33.9040 N   0  0  0  0  0  0  0  0  0  0  0  0
   -6.8250   17.7260  -32.8750 C   0  0  0  0  0  0  0  0  0  0  0  0
   -6.3748   17.8342  -31.8772 H   0  0  0  0  0  0  0  0  0  0  0  0
   -7.6424   18.4532  -32.9894 H   0  0  0  0  0  0  0  0  0  0  0  0
   -7.2224   16.7067  -32.9894 H   0  0  0  0  0  0  0  0  0  0  0  0
   -4.7570   16.9230  -33.8620 C   0  0  0  0  0  0  0  0  0  0  0  0
   -4.5900   16.6261  -32.8161 H   0  0  0  0  0  0  0  0  0  0  0  0
   -5.1018   16.0671  -34.4608 H   0  0  0  0  0  0  0  0  0  0  0  0
   -3.4330   17.4260  -34.4560 C   0  0  0  0  0  0  0  0  0  0  0  0
   -2.7035   16.6028  -34.4453 H   0  0  0  0  0  0  0  0  0  0  0  0
   -3.6298   17.7699  -35.4822 H   0  0  0  0  0  0  0  0  0  0  0  0
    1.2400   17.8440  -30.9990 C   0  0  0  0  0  0  0  0  0  0  0  0
    1.8773   17.6274  -31.8690 H   0  0  0  0  0  0  0  0  0  0  0  0
    0.1950   17.9909  -31.3093 H   0  0  0  0  0  0  0  0  0  0  0  0
    1.7330   19.1360  -30.3260 C   0  0  0  0  0  0  0  0  0  0  0  0
    2.7467   18.9681  -29.9333 H   0  0  0  0  0  0  0  0  0  0  0  0
    1.7279   19.9369  -31.0800 H   0  0  0  0  0  0  0  0  0  0  0  0
    0.7980   19.5730  -29.1460 C   0  0  2  0  0  0  0  0  0  0  0  0
    1.6760   20.4120  -28.1700 C   0  0  0  0  0  0  0  0  0  0  0  0
    1.4129   20.1606  -27.1319 H   0  0  0  0  0  0  0  0  0  0  0  0
    2.7380   20.1845  -28.3445 H   0  0  0  0  0  0  0  0  0  0  0  0
    1.4970   21.4832  -28.3445 H   0  0  0  0  0  0  0  0  0  0  0  0
   -0.5090   20.3560  -29.6210 C   0  0  2  0  0  0  0  0  0  0  0  0
   -1.0631   19.7195  -30.3265 H   0  0  0  0  0  0  0  0  0  0  0  0
   -0.2850   21.6170  -30.5790 C   0  0  1  0  0  0  0  0  0  0  0  0
    0.6623   22.0288  -30.2008 H   0  0  0  0  0  0  0  0  0  0  0  0
   -0.2010   21.1930  -32.0830 C   0  0  0  0  0  0  0  0  0  0  0  0
    0.6336   21.7306  -32.5568 H   0  0  0  0  0  0  0  0  0  0  0  0
   -0.0472   20.1044  -32.1196 H   0  0  0  0  0  0  0  0  0  0  0  0
   -1.4880   21.5120  -32.8440 C   0  0  0  0  0  0  0  0  0  0  0  0
   -2.2977   21.7127  -32.1270 H   0  0  0  0  0  0  0  0  0  0  0  0
   -1.3301   22.3982  -33.4763 H   0  0  0  0  0  0  0  0  0  0  0  0
   -1.7622   20.6546  -33.4763 H   0  0  0  0  0  0  0  0  0  0  0  0
   -1.3710   22.7530  -30.4970 C   0  0  0  0  0  0  0  0  0  0  0  0
   -0.9131   23.6979  -30.8247 H   0  0  0  0  0  0  0  0  0  0  0  0
   -2.2075   22.4510  -31.1444 H   0  0  0  0  0  0  0  0  0  0  0  0
   -1.9360   22.9500  -29.0900 C   0  0  1  0  0  0  0  0  0  0  0  0
   -0.8710   23.5780  -28.1510 C   0  0  0  0  0  0  0  0  0  0  0  0
   -1.1598   23.4077  -27.1033 H   0  0  0  0  0  0  0  0  0  0  0  0
    0.1069   23.1120  -28.3422 H   0  0  0  0  0  0  0  0  0  0  0  0
   -0.8055   24.6593  -28.3422 H   0  0  0  0  0  0  0  0  0  0  0  0
   -3.1610   23.7990  -29.0000 C   0  0  0  0  0  0  0  0  0  0  0  0
   -3.3030   24.9210  -29.6360 N   0  0  0  0  0  0  0  0  0  0  0  0
   -3.9980   24.9910  -30.8240 O   0  0  0  0  0  0  0  0  0  0  0  0
   -5.4060   25.1530  -30.8170 C   0  0  0  0  0  0  0  0  0  0  0  0
   -5.6856   25.9587  -31.5118 H   0  0  0  0  0  0  0  0  0  0  0  0
   -5.7396   25.4116  -29.8012 H   0  0  0  0  0  0  0  0  0  0  0  0
   -6.0440   23.9050  -31.2360 C   0  0  0  0  0  0  0  0  0  0  0  0
   -6.5700   22.8810  -31.5940 C   0  0  0  0  0  0  0  0  0  0  0  0
   -7.2040   21.6340  -32.0280 C   0  0  0  0  0  0  0  0  0  0  0  0
   -7.5020   21.0479  -31.1461 H   0  0  0  0  0  0  0  0  0  0  0  0
   -8.0937   21.8658  -32.6319 H   0  0  0  0  0  0  0  0  0  0  0  0
   -6.4925   21.0517  -32.6319 H   0  0  0  0  0  0  0  0  0  0  0  0
   -4.1630   23.2440  -28.0350 C   0  0  0  0  0  0  0  0  0  0  0  0
   -4.3226   23.9363  -27.1952 H   0  0  0  0  0  0  0  0  0  0  0  0
   -5.1515   23.0890  -28.4921 H   0  0  0  0  0  0  0  0  0  0  0  0
   -3.5230   21.9350  -27.5500 C   0  0  0  0  0  0  0  0  0  0  0  0
   -3.0203   22.0789  -26.5822 H   0  0  0  0  0  0  0  0  0  0  0  0
   -4.2593   21.1336  -27.3897 H   0  0  0  0  0  0  0  0  0  0  0  0
   -2.5100   21.6000  -28.6470 C   0  0  2  0  0  0  0  0  0  0  0  0
   -3.0620   21.0417  -29.4175 H   0  0  0  0  0  0  0  0  0  0  0  0
   -1.3830   20.6160  -28.3400 C   0  0  1  0  0  0  0  0  0  0  0  0
   -0.7673   21.0803  -27.5556 H   0  0  0  0  0  0  0  0  0  0  0  0
   -1.9060   19.2740  -27.8010 C   0  0  0  0  0  0  0  0  0  0  0  0
   -2.3102   19.4330  -26.7904 H   0  0  0  0  0  0  0  0  0  0  0  0
   -2.6808   18.9142  -28.4940 H   0  0  0  0  0  0  0  0  0  0  0  0
  1  2  1  0
  2  3  2  0
  3  4  1  0
  4  5  1  0
  4  6  1  0
  4  7  1  0
  7  8  1  1
  7  9  1  0
  9 10  1  0
 10 11  1  0
 10 12  1  0
 10 13  1  0
 13 14  1  0
 13 15  1  0
 13 16  1  0
 16 17  1  0
 16 18  1  0
 16 19  1  0
 19 20  1  0
 19 21  1  0
 19 22  1  0
 22 23  1  0
 23 24  1  0
 23 25  1  0
 23 26  1  0
 26 27  1  0
 26 28  1  0
 26 29  1  0
 29 30  1  0
 30 31  1  0
 30 32  1  0
 30 33  1  0
 29 34  1  0
 34 35  1  0
 34 36  1  0
 34 37  1  0
 37 38  1  0
 37 39  1  0
  7 40  1  0
 40 41  1  0
 40 42  1  0
 40 43  1  0
 43 44  1  0
 43 45  1  0
 43 46  1  0
 46 47  1  1
 47 48  1  0
 47 49  1  0
 47 50  1  0
 46 51  1  0
 51 52  1  6
 51 53  1  0
 53 54  1  1
 53 55  1  0
 55 56  1  0
 55 57  1  0
 55 58  1  0
 58 59  1  0
 58 60  1  0
 58 61  1  0
 53 62  1  0
 62 63  1  0
 62 64  1  0
 62 65  1  0
 65 66  1  1
 66 67  1  0
 66 68  1  0
 66 69  1  0
 65 70  1  0
 70 71  2  0
 71 72  1  0
 72 73  1  0
 73 74  1  0
 73 75  1  0
 73 76  1  0
 76 77  3  0
 77 78  1  0
 78 79  1  0
 78 80  1  0
 78 81  1  0
 70 82  1  0
 82 83  1  0
 82 84  1  0
 82 85  1  0
 85 86  1  0
 85 87  1  0
 85 88  1  0
 88 89  1  6
 88 90  1  0
 90 91  1  1
 90 92  1  0
 92 93  1  0
 92 94  1  0
 92  2  1  0
 46  3  1  0
 90 51  1  0
 37 22  1  0
 88 65  1  0
M  END
>  <UniqueID>  (4) 
4

>  <SMILES>  (4) 
CC#CCO/N=C1\CC[C@@H]2[C@H]3CC=C4CC(OCCCCN5CCN(C)CC5)CCC4(C)C3C(CC)CC12C

>  <Energy>  (4) 
128.444729028748

>  <Genealogy>  (4) 
CC#CCON=C1CC[C@@H]2[C@H]3CC=C4CC(OCCCCN5CCN(C)CC5)CCC4(C)C3C(CC)CC12C (chirality)
CC#CCO/N=C1\CC[C@@H]2[C@H]3CC=C4CC(OCCCCN5CCN(C)CC5)CCC4(C)C3C(CC)CC12C (cis-trans isomerization)
CC#CCO/N=C1\CC[C@@H]2[C@H]3CC=C4CC(OCCCCN5CCN(C)CC5)CCC4(C)C3C(CC)CC12C (3D coordinates assigned)
CC#CCO/N=C1\CC[C@@H]2[C@H]3CC=C4CC(OCCCCN5CCN(C)CC5)CCC4(C)C3C(CC)CC12C (nonaromatic ring conformer: 128.444729028748 kcal/mol)

>  <smiles>  (4) 
CC#CCON=C1CCC2C3CC=C4CC(OCCCCN5CCN(C)CC5)CCC4(C)C3C(CC)CC12C

>  <score_type>  (4) 
oracle

>  <origin>  (4) 
adg

>  <m_score__min__energy>  (4) 
-10.26

>  <m_primary>  (4) 
energy

$$$$
4:0
     RDKit          3D

 47 49  0  0  0  0  0  0  0  0999 V2000
   -2.6720   23.5100  -29.7280 C   0  0  0  0  0  0  0  0  0  0  0  0
   -4.0180   24.2050  -29.5890 C   0  0  0  0  0  0  0  0  0  0  0  0
   -4.0690   25.3000  -30.4800 O   0  0  0  0  0  0  0  0  0  0  0  0
   -5.3640   25.8710  -30.4910 C   0  0  0  0  0  0  0  0  0  0  0  0
   -6.3990   24.8370  -30.0580 C   0  0  0  0  0  0  0  0  0  0  0  0
   -6.6080   23.9050  -31.1140 O   0  0  0  0  0  0  0  0  0  0  0  0
   -7.1290   22.6240  -30.9020 C   0  0  0  0  0  0  0  0  0  0  0  0
   -7.9980   22.4400  -30.0060 O   0  0  0  0  0  0  0  0  0  0  0  0
   -6.6540   21.4890  -31.7360 C   0  0  0  0  0  0  0  0  0  0  0  0
   -7.3780   20.2880  -31.7510 C   0  0  0  0  0  0  0  0  0  0  0  0
   -6.9370   19.2160  -32.5310 C   0  0  0  0  0  0  0  0  0  0  0  0
   -7.6390   18.0030  -32.5660 C   0  0  0  0  0  0  0  0  0  0  0  0
   -7.1700   16.9510  -33.3550 C   0  0  0  0  0  0  0  0  0  0  0  0
   -6.0040   17.1010  -34.1120 C   0  0  0  0  0  0  0  0  0  0  0  0
   -5.2910   18.3170  -34.0890 C   0  0  0  0  0  0  0  0  0  0  0  0
   -4.1170   18.5160  -34.8360 O   0  0  0  0  0  0  0  0  0  0  0  0
   -2.7930   18.2210  -34.3900 C   0  0  0  0  0  0  0  0  0  0  0  0
   -2.2310   19.3670  -33.5900 C   0  0  0  0  0  0  0  0  0  0  0  0
   -1.4300   20.3370  -34.2160 C   0  0  0  0  0  0  0  0  0  0  0  0
   -0.9150   21.4070  -33.4790 C   0  0  0  0  0  0  0  0  0  0  0  0
   -1.2010   21.5220  -32.1160 C   0  0  0  0  0  0  0  0  0  0  0  0
   -2.0080   20.5680  -31.4890 C   0  0  0  0  0  0  0  0  0  0  0  0
   -2.5260   19.4960  -32.2220 C   0  0  0  0  0  0  0  0  0  0  0  0
   -5.7620   19.3720  -33.2930 C   0  0  0  0  0  0  0  0  0  0  0  0
   -5.0970   20.5230  -33.2590 O   0  0  0  0  0  0  0  0  0  0  0  0
   -5.4860   21.5650  -32.5290 C   0  0  0  0  0  0  0  0  0  0  0  0
   -4.7930   22.6160  -32.5610 O   0  0  0  0  0  0  0  0  0  0  0  0
   -2.2634   23.2990  -28.7288 H   0  0  0  0  0  0  0  0  0  0  0  0
   -2.8017   22.5662  -30.2779 H   0  0  0  0  0  0  0  0  0  0  0  0
   -1.9776   24.1623  -30.2779 H   0  0  0  0  0  0  0  0  0  0  0  0
   -4.8245   23.4968  -29.8298 H   0  0  0  0  0  0  0  0  0  0  0  0
   -4.1448   24.5623  -28.5564 H   0  0  0  0  0  0  0  0  0  0  0  0
   -5.3908   26.7245  -29.7975 H   0  0  0  0  0  0  0  0  0  0  0  0
   -5.5989   26.2088  -31.5112 H   0  0  0  0  0  0  0  0  0  0  0  0
   -6.0356   24.3054  -29.1661 H   0  0  0  0  0  0  0  0  0  0  0  0
   -7.3468   25.3429  -29.8220 H   0  0  0  0  0  0  0  0  0  0  0  0
   -8.2932   20.1900  -31.1486 H   0  0  0  0  0  0  0  0  0  0  0  0
   -8.5574   17.8804  -31.9731 H   0  0  0  0  0  0  0  0  0  0  0  0
   -7.7207   15.9991  -33.3813 H   0  0  0  0  0  0  0  0  0  0  0  0
   -5.6411   16.2657  -34.7288 H   0  0  0  0  0  0  0  0  0  0  0  0
   -2.8169   17.3192  -33.7606 H   0  0  0  0  0  0  0  0  0  0  0  0
   -2.1528   18.0570  -35.2693 H   0  0  0  0  0  0  0  0  0  0  0  0
   -1.2075   20.2539  -35.2900 H   0  0  0  0  0  0  0  0  0  0  0  0
   -0.2833   22.1601  -33.9728 H   0  0  0  0  0  0  0  0  0  0  0  0
   -0.7914   22.3627  -31.5368 H   0  0  0  0  0  0  0  0  0  0  0  0
   -2.2359   20.6610  -30.4169 H   0  0  0  0  0  0  0  0  0  0  0  0
   -3.1663   18.7514  -31.7265 H   0  0  0  0  0  0  0  0  0  0  0  0
  1  2  1  0
  2  3  1  0
  3  4  1  0
  4  5  1  0
  5  6  1  0
  6  7  1  0
  7  8  2  0
  7  9  1  0
  9 10  2  0
 10 11  1  0
 11 12  2  0
 12 13  1  0
 13 14  2  0
 14 15  1  0
 15 16  1  0
 16 17  1  0
 17 18  1  0
 18 19  2  0
 19 20  1  0
 20 21  2  0
 21 22  1  0
 22 23  2  0
 15 24  2  0
 24 25  1  0
 25 26  1  0
 26 27  2  0
 26  9  1  0
 24 11  1  0
 23 18  1  0
  1 28  1  0
  1 29  1  0
  1 30  1  0
  2 31  1  0
  2 32  1  0
  4 33  1  0
  4 34  1  0
  5 35  1  0
  5 36  1  0
 10 37  1  0
 12 38  1  0
 13 39  1  0
 14 40  1  0
 17 41  1  0
 17 42  1  0
 19 43  1  0
 20 44  1  0
 21 45  1  0
 22 46  1  0
 23 47  1  0
M  END
>  <UniqueID>  (5) 
5

>  <SMILES>  (5) 
CCOCCOC(=O)c1cc2cccc(OCc3ccccc3)c2oc1=O

>  <Energy>  (5) 
50.2675983671782

>  <Genealogy>  (5) 
CCOCCOC(=O)c1cc2cccc(OCc3ccccc3)c2oc1=O (3D coordinates assigned)
CCOCCOC(=O)c1cc2cccc(OCc3ccccc3)c2oc1=O (optimized conformer: 50.2675983671782 kcal/mol)

>  <smiles>  (5) 
CCOCCOC(=O)c1cc2cccc(OCc3ccccc3)c2oc1=O

>  <score_type>  (5) 
oracle

>  <origin>  (5) 
adg

>  <m_score__min__energy>  (5) 
-9.1500000000000004

>  <m_primary>  (5) 
energy

$$$$
5:0
     RDKit          3D

 32 33  0  0  0  0  0  0  0  0999 V2000
   -9.1050   18.5130  -31.6510 C   0  0  0  0  0  0  0  0  0  0  0  0
   -7.8820   18.6470  -32.2100 C   0  0  0  0  0  0  0  0  0  0  0  0
   -7.1730   17.4110  -32.7140 C   0  0  0  0  0  0  0  0  0  0  0  0
   -5.8640   17.8290  -33.2730 N   0  0  2  0  0  0  0  0  0  0  0  0
   -5.1300   16.6520  -33.7820 C   0  0  0  0  0  0  0  0  0  0  0  0
   -5.0790   18.5020  -32.2030 C   0  0  0  0  0  0  0  0  0  0  0  0
   -5.8460   19.7480  -31.6720 C   0  0  0  0  0  0  0  0  0  0  0  0
   -7.1480   19.9130  -32.3820 N   0  0  2  0  0  0  0  0  0  0  0  0
   -7.9080   21.0960  -31.8610 C   0  0  0  0  0  0  0  0  0  0  0  0
   -7.2270   22.4660  -32.0340 C   0  0  0  0  0  0  0  0  0  0  0  0
   -6.8690   20.0460  -33.8410 C   0  0  0  0  0  0  0  0  0  0  0  0
   -6.1030   18.8010  -34.3750 C   0  0  0  0  0  0  0  0  0  0  0  0
   -9.6391   19.3991  -31.2775 H   0  0  0  0  0  0  0  0  0  0  0  0
   -9.5664   17.5178  -31.5695 H   0  0  0  0  0  0  0  0  0  0  0  0
   -7.0165   16.7060  -31.8843 H   0  0  0  0  0  0  0  0  0  0  0  0
   -7.7768   16.9126  -33.4867 H   0  0  0  0  0  0  0  0  0  0  0  0
   -4.7588   16.0568  -32.9347 H   0  0  0  0  0  0  0  0  0  0  0  0
   -5.8045   16.0362  -34.3951 H   0  0  0  0  0  0  0  0  0  0  0  0
   -4.2803   16.9868  -34.3951 H   0  0  0  0  0  0  0  0  0  0  0  0
   -4.9154   17.7967  -31.3749 H   0  0  0  0  0  0  0  0  0  0  0  0
   -4.1135   18.8266  -32.6182 H   0  0  0  0  0  0  0  0  0  0  0  0
   -6.0358   19.6226  -30.5958 H   0  0  0  0  0  0  0  0  0  0  0  0
   -5.2314   20.6424  -31.8516 H   0  0  0  0  0  0  0  0  0  0  0  0
   -8.8746   21.1322  -32.3849 H   0  0  0  0  0  0  0  0  0  0  0  0
   -7.9897   20.9408  -30.7751 H   0  0  0  0  0  0  0  0  0  0  0  0
   -7.0130   22.8966  -31.0447 H   0  0  0  0  0  0  0  0  0  0  0  0
   -6.2865   22.3403  -32.5905 H   0  0  0  0  0  0  0  0  0  0  0  0
   -7.8950   23.1399  -32.5905 H   0  0  0  0  0  0  0  0  0  0  0  0
   -7.8215   20.1426  -34.3826 H   0  0  0  0  0  0  0  0  0  0  0  0
   -6.2449   20.9378  -33.9999 H   0  0  0  0  0  0  0  0  0  0  0  0
   -6.7004   18.3175  -35.1620 H   0  0  0  0  0  0  0  0  0  0  0  0
   -5.1340   19.1250  -34.7825 H   0  0  0  0  0  0  0  0  0  0  0  0
  1  2  2  0
  2  3  1  0
  3  4  1  0
  4  5  1  6
  4  6  1  0
  6  7  1  0
  7  8  1  0
  8  9  1  1
  9 10  1  0
  8 11  1  0
 11 12  1  0
  8  2  1  0
 12  4  1  0
  1 13  1  0
  1 14  1  0
  3 15  1  0
  3 16  1  0
  5 17  1  0
  5 18  1  0
  5 19  1  0
  6 20  1  0
  6 21  1  0
  7 22  1  0
  7 23  1  0
  9 24  1  0
  9 25  1  0
 10 26  1  0
 10 27  1  0
 10 28  1  0
 11 29  1  0
 11 30  1  0
 12 31  1  0
 12 32  1  0
M  CHG  2   4   1   8   1
M  END
>  <UniqueID>  (6) 
6

>  <SMILES>  (6) 
C=C1C[N+]2(C)CC[N+]1(CC)CC2

>  <Energy>  (6) 
59.44669433871353

>  <Genealogy>  (6) 
C=C1C[N+]2(C)CC[N+]1(CC)CC2 (3D coordinates assigned)
C=C1C[N+]2(C)CC[N+]1(CC)CC2 (nonaromatic ring conformer: 59.44669433871353 kcal/mol)

>  <smiles>  (6) 
C=C1C[N+]2(C)CC[N+]1(CC)CC2

>  <score_type>  (6) 
oracle

>  <origin>  (6) 
adg

>  <m_score__min__energy>  (6) 
-3.7799999999999998

>  <m_primary>  (6) 
energy

$$$$
6:0
     RDKit          3D

 67 70  0  0  0  0  0  0  0  0999 V2000
   -0.4710   20.7400  -35.0750 C   0  0  0  0  0  0  0  0  0  0  0  0
   -0.6160   21.1950  -33.6230 C   0  0  0  0  0  0  0  0  0  0  0  0
   -1.8800   20.6890  -33.0370 N   0  0  0  0  0  0  0  0  0  0  0  0
   -1.7980   19.2560  -32.7120 C   0  0  0  0  0  0  0  0  0  0  0  0
   -2.3640   21.5000  -31.8940 C   0  0  0  0  0  0  0  0  0  0  0  0
   -3.9050   21.6740  -31.8400 C   0  0  0  0  0  0  0  0  0  0  0  0
   -4.5300   21.5230  -33.1680 N   0  0  0  0  0  0  0  0  0  0  0  0
   -5.7900   20.7840  -33.0920 C   0  0  0  0  0  0  0  0  0  0  0  0
   -5.7830   19.3990  -33.4540 C   0  0  0  0  0  0  0  0  0  0  0  0
   -4.6850   18.7980  -34.1360 C   0  0  0  0  0  0  0  0  0  0  0  0
   -4.7020   17.4530  -34.4970 C   0  0  0  0  0  0  0  0  0  0  0  0
   -5.8040   16.6680  -34.2040 C   0  0  0  0  0  0  0  0  0  0  0  0
   -6.8830   17.2150  -33.5180 C   0  0  0  0  0  0  0  0  0  0  0  0
   -6.8770   18.5720  -33.0980 C   0  0  0  0  0  0  0  0  0  0  0  0
   -7.9060   19.0810  -32.3450 N   0  0  0  0  0  0  0  0  0  0  0  0
   -8.8140   18.1580  -31.6230 C   0  0  0  0  0  0  0  0  0  0  0  0
   -8.0810   20.4440  -32.2420 C   0  0  0  0  0  0  0  0  0  0  0  0
   -9.3300   20.9560  -31.8140 C   0  0  0  0  0  0  0  0  0  0  0  0
   -9.5330   22.3080  -31.6250 C   0  0  0  0  0  0  0  0  0  0  0  0
   -8.5120   23.1960  -31.8760 C   0  0  0  0  0  0  0  0  0  0  0  0
   -7.2720   22.7610  -32.3600 C   0  0  0  0  0  0  0  0  0  0  0  0
   -6.3250   23.8010  -32.6250 N   0  0  0  0  0  0  0  0  0  0  0  0
   -5.7230   24.5910  -31.5510 C   0  0  0  0  0  0  0  0  0  0  0  0
   -5.9310   23.9180  -30.1880 C   0  0  0  0  0  0  0  0  0  0  0  0
   -4.8020   24.2190  -29.2820 N   0  0  0  0  0  0  0  0  0  0  0  0
   -4.4720   23.0700  -28.4300 C   0  0  0  0  0  0  0  0  0  0  0  0
   -3.0050   23.2070  -28.0500 C   0  0  0  0  0  0  0  0  0  0  0  0
   -2.4100   24.1610  -29.0730 C   0  0  0  0  0  0  0  0  0  0  0  0
   -3.5590   24.5220  -30.0040 C   0  0  0  0  0  0  0  0  0  0  0  0
   -7.0160   21.3520  -32.5710 C   0  0  0  0  0  0  0  0  0  0  0  0
   -0.1371   19.6922  -35.0993 H   0  0  0  0  0  0  0  0  0  0  0  0
   -1.4415   20.8275  -35.5853 H   0  0  0  0  0  0  0  0  0  0  0  0
    0.2700   21.3729  -35.5853 H   0  0  0  0  0  0  0  0  0  0  0  0
    0.2323   20.8101  -33.0380 H   0  0  0  0  0  0  0  0  0  0  0  0
   -0.6308   22.2946  -33.5977 H   0  0  0  0  0  0  0  0  0  0  0  0
   -1.7907   19.1276  -31.6195 H   0  0  0  0  0  0  0  0  0  0  0  0
   -2.6677   18.7333  -33.1368 H   0  0  0  0  0  0  0  0  0  0  0  0
   -0.8743   18.8360  -33.1368 H   0  0  0  0  0  0  0  0  0  0  0  0
   -2.0399   21.0112  -30.9634 H   0  0  0  0  0  0  0  0  0  0  0  0
   -1.9381   22.5064  -32.0198 H   0  0  0  0  0  0  0  0  0  0  0  0
   -4.3237   20.9147  -31.1631 H   0  0  0  0  0  0  0  0  0  0  0  0
   -4.1175   22.6917  -31.4806 H   0  0  0  0  0  0  0  0  0  0  0  0
   -3.8700   21.0340  -33.8110 H   0  0  0  0  0  0  0  0  0  0  0  0
   -4.5640   22.4460  -33.6180 H   0  0  0  0  0  0  0  0  0  0  0  0
   -3.8049   19.4100  -34.3826 H   0  0  0  0  0  0  0  0  0  0  0  0
   -3.8377   17.0133  -35.0162 H   0  0  0  0  0  0  0  0  0  0  0  0
   -5.8262   15.6127  -34.5135 H   0  0  0  0  0  0  0  0  0  0  0  0
   -7.7573   16.5852  -33.2965 H   0  0  0  0  0  0  0  0  0  0  0  0
   -8.6844   18.2898  -30.5386 H   0  0  0  0  0  0  0  0  0  0  0  0
   -9.8560   18.3795  -31.8973 H   0  0  0  0  0  0  0  0  0  0  0  0
   -8.5754   17.1198  -31.8973 H   0  0  0  0  0  0  0  0  0  0  0  0
  -10.1597   20.2583  -31.6274 H   0  0  0  0  0  0  0  0  0  0  0  0
  -10.5089   22.6751  -31.2745 H   0  0  0  0  0  0  0  0  0  0  0  0
   -8.6731   24.2686  -31.6928 H   0  0  0  0  0  0  0  0  0  0  0  0
   -5.8750   23.8250  -33.5710 H   0  0  0  0  0  0  0  0  0  0  0  0
   -4.6443   24.6925  -31.7408 H   0  0  0  0  0  0  0  0  0  0  0  0
   -6.2062   25.5790  -31.5305 H   0  0  0  0  0  0  0  0  0  0  0  0
   -6.8638   24.2903  -29.7394 H   0  0  0  0  0  0  0  0  0  0  0  0
   -5.9878   22.8293  -30.3347 H   0  0  0  0  0  0  0  0  0  0  0  0
   -5.0989   23.0771  -27.5262 H   0  0  0  0  0  0  0  0  0  0  0  0
   -4.6545   22.1229  -28.9589 H   0  0  0  0  0  0  0  0  0  0  0  0
   -2.9073   23.6208  -27.0355 H   0  0  0  0  0  0  0  0  0  0  0  0
   -2.4902   22.2349  -28.0495 H   0  0  0  0  0  0  0  0  0  0  0  0
   -2.0185   25.0616  -28.5775 H   0  0  0  0  0  0  0  0  0  0  0  0
   -1.5696   23.7055  -29.6173 H   0  0  0  0  0  0  0  0  0  0  0  0
   -3.5194   25.5917  -30.2572 H   0  0  0  0  0  0  0  0  0  0  0  0
   -3.4995   23.9527  -30.9433 H   0  0  0  0  0  0  0  0  0  0  0  0
  1  2  1  0
  2  3  1  0
  3  4  1  0
  3  5  1  0
  5  6  1  0
  6  7  1  0
  7  8  1  0
  8  9  2  0
  9 10  1  0
 10 11  2  0
 11 12  1  0
 12 13  2  0
 13 14  1  0
 14 15  2  0
 15 16  1  0
 15 17  1  0
 17 18  2  0
 18 19  1  0
 19 20  2  0
 20 21  1  0
 21 22  1  0
 22 23  1  0
 23 24  1  0
 24 25  1  0
 25 26  1  0
 26 27  1  0
 27 28  1  0
 28 29  1  0
 21 30  2  0
 30  8  1  0
 14  9  1  0
 30 17  1  0
 29 25  1  0
  1 31  1  0
  1 32  1  0
  1 33  1  0
  2 34  1  0
  2 35  1  0
  4 36  1  0
  4 37  1  0
  4 38  1  0
  5 39  1  0
  5 40  1  0
  6 41  1  0
  6 42  1  0
  7 43  1  0
  7 44  1  0
 10 45  1  0
 11 46  1  0
 12 47  1  0
 13 48  1  0
 16 49  1  0
 16 50  1  0
 16 51  1  0
 18 52  1  0
 19 53  1  0
 20 54  1  0
 22 55  1  0
 23 56  1  0
 23 57  1  0
 24 58  1  0
 24 59  1  0
 26 60  1  0
 26 61  1  0
 27 62  1  0
 27 63  1  0
 28 64  1  0
 28 65  1  0
 29 66  1  0
 29 67  1  0
M  CHG  2   7   1  15   1
M  END
>  <UniqueID>  (7) 
7

>  <SMILES>  (7) 
CCN(C)CC[NH2+]c1c2ccccc2[n+](C)c2cccc(NCCN3CCCC3)c12

>  <Energy>  (7) 
117.85656317206933

>  <Genealogy>  (7) 
CCN(C)CC[NH2+]c1c2ccccc2[n+](C)c2cccc(NCCN3CCCC3)c12 (protonated)
CCN(C)CC[NH2+]c1c2ccccc2[n+](C)c2cccc(NCCN3CCCC3)c12 (3D coordinates assigned)
CCN(C)CC[NH2+]c1c2ccccc2[n+](C)c2cccc(NCCN3CCCC3)c12 (nonaromatic ring conformer: 117.85656317206933 kcal/mol)

>  <smiles>  (7) 
CCN(C)CCNc1c2ccccc2[n+](C)c2cccc(NCCN3CCCC3)c12

>  <score_type>  (7) 
oracle

>  <origin>  (7) 
adg

>  <m_score__min__energy>  (7) 
-9.0099999999999998

>  <m_primary>  (7) 
energy

$$$$
7:0
     RDKit          3D

 61 63  0  0  0  0  0  0  0  0999 V2000
   -4.9510   24.5710  -29.0430 C   0  0  0  0  0  0  0  0  0  0  0  0
   -3.8340   24.4600  -30.0750 C   0  0  0  0  0  0  0  0  0  0  0  0
   -3.3660   23.0700  -30.1810 N   0  0  0  0  0  0  0  0  0  0  0  0
   -3.5500   22.3440  -28.9150 C   0  0  0  0  0  0  0  0  0  0  0  0
   -2.6050   21.1380  -28.8330 C   0  0  0  0  0  0  0  0  0  0  0  0
   -1.1340   21.5250  -29.0670 C   0  0  0  0  0  0  0  0  0  0  0  0
   -0.6270   21.0400  -30.4350 C   0  0  0  0  0  0  0  0  0  0  0  0
   -1.5460   21.4320  -31.5140 N   0  0  0  0  0  0  0  0  0  0  0  0
   -0.9780   21.1840  -32.8530 C   0  0  0  0  0  0  0  0  0  0  0  0
   -2.0910   20.8090  -33.8450 C   0  0  0  0  0  0  0  0  0  0  0  0
   -3.4810   21.3440  -33.4540 C   0  0  0  0  0  0  0  0  0  0  0  0
   -3.9140   20.8650  -32.1320 N   0  0  0  0  0  0  0  0  0  0  0  0
   -5.2810   20.3670  -32.1930 C   0  0  0  0  0  0  0  0  0  0  0  0
   -6.3760   21.2340  -31.9380 C   0  0  0  0  0  0  0  0  0  0  0  0
   -6.1790   22.5620  -31.4820 C   0  0  0  0  0  0  0  0  0  0  0  0
   -7.2520   23.4360  -31.3270 C   0  0  0  0  0  0  0  0  0  0  0  0
   -8.5400   23.0160  -31.6270 C   0  0  0  0  0  0  0  0  0  0  0  0
   -8.7700   21.7040  -32.0320 C   0  0  0  0  0  0  0  0  0  0  0  0
   -7.7060   20.7680  -32.1380 C   0  0  0  0  0  0  0  0  0  0  0  0
   -7.9440   19.4400  -32.4350 N   0  0  0  0  0  0  0  0  0  0  0  0
   -9.3210   18.8980  -32.3520 C   0  0  0  0  0  0  0  0  0  0  0  0
   -6.8960   18.6000  -32.7570 C   0  0  0  0  0  0  0  0  0  0  0  0
   -7.1260   17.3050  -33.2920 C   0  0  0  0  0  0  0  0  0  0  0  0
   -6.0780   16.4210  -33.5230 C   0  0  0  0  0  0  0  0  0  0  0  0
   -4.7760   16.7980  -33.2310 C   0  0  0  0  0  0  0  0  0  0  0  0
   -4.5070   18.0800  -32.7600 C   0  0  0  0  0  0  0  0  0  0  0  0
   -5.5490   19.0220  -32.5680 C   0  0  0  0  0  0  0  0  0  0  0  0
   -4.5211   24.5283  -28.0314 H   0  0  0  0  0  0  0  0  0  0  0  0
   -5.4800   25.5261  -29.1766 H   0  0  0  0  0  0  0  0  0  0  0  0
   -5.6577   23.7387  -29.1766 H   0  0  0  0  0  0  0  0  0  0  0  0
   -4.2116   24.7903  -31.0539 H   0  0  0  0  0  0  0  0  0  0  0  0
   -2.9933   25.0949  -29.7585 H   0  0  0  0  0  0  0  0  0  0  0  0
   -2.3380   23.1040  -30.3780 H   0  0  0  0  0  0  0  0  0  0  0  0
   -3.3399   23.0239  -28.0762 H   0  0  0  0  0  0  0  0  0  0  0  0
   -4.5874   21.9816  -28.8653 H   0  0  0  0  0  0  0  0  0  0  0  0
   -2.6962   20.6856  -27.8345 H   0  0  0  0  0  0  0  0  0  0  0  0
   -2.8949   20.4318  -29.6250 H   0  0  0  0  0  0  0  0  0  0  0  0
   -1.0423   22.6202  -29.0211 H   0  0  0  0  0  0  0  0  0  0  0  0
   -0.5256   21.0444  -28.2867 H   0  0  0  0  0  0  0  0  0  0  0  0
    0.3617   21.4817  -30.6281 H   0  0  0  0  0  0  0  0  0  0  0  0
   -0.5646   19.9420  -30.4133 H   0  0  0  0  0  0  0  0  0  0  0  0
   -1.7140   22.4620  -31.4150 H   0  0  0  0  0  0  0  0  0  0  0  0
   -0.4695   22.0935  -33.2054 H   0  0  0  0  0  0  0  0  0  0  0  0
   -0.2615   20.3519  -32.7886 H   0  0  0  0  0  0  0  0  0  0  0  0
   -1.8276   21.2175  -34.8318 H   0  0  0  0  0  0  0  0  0  0  0  0
   -2.1603   19.7112  -33.8474 H   0  0  0  0  0  0  0  0  0  0  0  0
   -3.4446   22.4433  -33.4371 H   0  0  0  0  0  0  0  0  0  0  0  0
   -4.2036   20.9764  -34.1975 H   0  0  0  0  0  0  0  0  0  0  0  0
   -3.8320   21.6230  -31.4230 H   0  0  0  0  0  0  0  0  0  0  0  0
   -3.2640   20.1330  -31.7690 H   0  0  0  0  0  0  0  0  0  0  0  0
   -5.1616   22.9077  -31.2467 H   0  0  0  0  0  0  0  0  0  0  0  0
   -7.0783   24.4606  -30.9663 H   0  0  0  0  0  0  0  0  0  0  0  0
   -9.3806   23.7207  -31.5447 H   0  0  0  0  0  0  0  0  0  0  0  0
   -9.7947   21.3859  -32.2745 H   0  0  0  0  0  0  0  0  0  0  0  0
   -9.6076   18.7852  -31.2960 H   0  0  0  0  0  0  0  0  0  0  0  0
  -10.0176   19.5890  -32.8492 H   0  0  0  0  0  0  0  0  0  0  0  0
   -9.3597   17.9175  -32.8492 H   0  0  0  0  0  0  0  0  0  0  0  0
   -8.1545   16.9948  -33.5286 H   0  0  0  0  0  0  0  0  0  0  0  0
   -6.2818   15.4226  -33.9374 H   0  0  0  0  0  0  0  0  0  0  0  0
   -3.9531   16.0818  -33.3720 H   0  0  0  0  0  0  0  0  0  0  0  0
   -3.4695   18.3667  -32.5332 H   0  0  0  0  0  0  0  0  0  0  0  0
  1  2  1  0
  2  3  1  0
  3  4  1  0
  4  5  1  0
  5  6  1  0
  6  7  1  0
  7  8  1  0
  8  9  1  0
  9 10  1  0
 10 11  1  0
 11 12  1  0
 12 13  1  0
 13 14  2  0
 14 15  1  0
 15 16  2  0
 16 17  1  0
 17 18  2  0
 18 19  1  0
 19 20  2  0
 20 21  1  0
 20 22  1  0
 22 23  2  0
 23 24  1  0
 24 25  2  0
 25 26  1  0
 26 27  2  0
 27 13  1  0
 19 14  1  0
 27 22  1  0
  1 28  1  0
  1 29  1  0
  1 30  1  0
  2 31  1  0
  2 32  1  0
  3 33  1  0
  4 34  1  0
  4 35  1  0
  5 36  1  0
  5 37  1  0
  6 38  1  0
  6 39  1  0
  7 40  1  0
  7 41  1  0
  8 42  1  0
  9 43  1  0
  9 44  1  0
 10 45  1  0
 10 46  1  0
 11 47  1  0
 11 48  1  0
 12 49  1  0
 12 50  1  0
 15 51  1  0
 16 52  1  0
 17 53  1  0
 18 54  1  0
 21 55  1  0
 21 56  1  0
 21 57  1  0
 23 58  1  0
 24 59  1  0
 25 60  1  0
 26 61  1  0
M  CHG  2  12   1  20   1
M  END
>  <UniqueID>  (8) 
8

>  <SMILES>  (8) 
CCNCCCCNCCC[NH2+]c1c2ccccc2[n+](C)c2ccccc12

>  <Energy>  (8) 
81.89095895345777

>  <Genealogy>  (8) 
CCNCCCCNCCC[NH2+]c1c2ccccc2[n+](C)c2ccccc12 (protonated)
CCNCCCCNCCC[NH2+]c1c2ccccc2[n+](C)c2ccccc12 (3D coordinates assigned)
CCNCCCCNCCC[NH2+]c1c2ccccc2[n+](C)c2ccccc12 (optimized conformer: 81.89095895345777 kcal/mol)

>  <smiles>  (8) 
CCNCCCCNCCCNc1c2ccccc2[n+](C)c2ccccc12

>  <score_type>  (8) 
oracle

>  <origin>  (8) 
adg

>  <m_score__min__energy>  (8) 
-8.3599999999999994

>  <m_primary>  (8) 
energy

$$$$
8:0
     RDKit          3D

 36 37  0  0  0  0  0  0  0  0999 V2000
   -4.0980   22.7550  -27.8920 C   0  0  0  0  0  0  0  0  0  0  0  0
   -4.1400   24.1850  -28.4300 C   0  0  0  0  0  0  0  0  0  0  0  0
   -3.2410   24.3670  -29.6570 C   0  0  0  0  0  0  0  0  0  0  0  0
   -3.9590   25.0990  -30.7190 N   0  0  0  0  0  0  0  0  0  0  0  0
   -5.3710   25.3460  -30.3930 C   0  0  0  0  0  0  0  0  0  0  0  0
   -6.2330   24.0990  -30.6380 C   0  0  0  0  0  0  0  0  0  0  0  0
   -6.0440   23.5920  -31.9600 O   0  0  0  0  0  0  0  0  0  0  0  0
   -5.8320   22.2470  -32.3050 C   0  0  0  0  0  0  0  0  0  0  0  0
   -4.5620   21.7680  -32.6830 C   0  0  0  0  0  0  0  0  0  0  0  0
   -4.3800   20.4250  -33.0180 C   0  0  0  0  0  0  0  0  0  0  0  0
   -5.4550   19.5370  -32.9870 C   0  0  0  0  0  0  0  0  0  0  0  0
   -6.7290   19.9900  -32.6210 C   0  0  0  0  0  0  0  0  0  0  0  0
   -7.8140   19.0990  -32.5870 C   0  0  0  0  0  0  0  0  0  0  0  0
   -9.0830   19.5510  -32.2190 C   0  0  0  0  0  0  0  0  0  0  0  0
   -9.2810   20.8920  -31.8830 C   0  0  0  0  0  0  0  0  0  0  0  0
   -8.2120   21.7900  -31.9140 C   0  0  0  0  0  0  0  0  0  0  0  0
   -6.9240   21.3530  -32.2810 C   0  0  0  0  0  0  0  0  0  0  0  0
   -4.0986   22.7768  -26.7922 H   0  0  0  0  0  0  0  0  0  0  0  0
   -4.9803   22.2031  -28.2483 H   0  0  0  0  0  0  0  0  0  0  0  0
   -3.1848   22.2559  -28.2483 H   0  0  0  0  0  0  0  0  0  0  0  0
   -5.1756   24.4281  -28.7101 H   0  0  0  0  0  0  0  0  0  0  0  0
   -3.7722   24.8549  -27.6389 H   0  0  0  0  0  0  0  0  0  0  0  0
   -2.3445   24.9352  -29.3680 H   0  0  0  0  0  0  0  0  0  0  0  0
   -2.9546   23.3759  -30.0388 H   0  0  0  0  0  0  0  0  0  0  0  0
   -3.4980   26.0310  -30.8410 H   0  0  0  0  0  0  0  0  0  0  0  0
   -5.4484   25.6312  -29.3334 H   0  0  0  0  0  0  0  0  0  0  0  0
   -5.7390   26.1526  -31.0442 H   0  0  0  0  0  0  0  0  0  0  0  0
   -5.9534   23.3213  -29.9121 H   0  0  0  0  0  0  0  0  0  0  0  0
   -7.2905   24.3778  -30.5197 H   0  0  0  0  0  0  0  0  0  0  0  0
   -3.7062   22.4584  -32.7144 H   0  0  0  0  0  0  0  0  0  0  0  0
   -3.3820   20.0648  -33.3084 H   0  0  0  0  0  0  0  0  0  0  0  0
   -5.3023   18.4799  -33.2502 H   0  0  0  0  0  0  0  0  0  0  0  0
   -7.6638   18.0418  -32.8511 H   0  0  0  0  0  0  0  0  0  0  0  0
   -9.9292   18.8487  -32.1937 H   0  0  0  0  0  0  0  0  0  0  0  0
  -10.2826   21.2421  -31.5929 H   0  0  0  0  0  0  0  0  0  0  0  0
   -8.3767   22.8451  -31.6502 H   0  0  0  0  0  0  0  0  0  0  0  0
  1  2  1  0
  2  3  1  0
  3  4  1  0
  4  5  1  0
  5  6  1  0
  6  7  1  0
  7  8  1  0
  8  9  2  0
  9 10  1  0
 10 11  2  0
 11 12  1  0
 12 13  2  0
 13 14  1  0
 14 15  2  0
 15 16  1  0
 16 17  2  0
 17  8  1  0
 17 12  1  0
  1 18  1  0
  1 19  1  0
  1 20  1  0
  2 21  1  0
  2 22  1  0
  3 23  1  0
  3 24  1  0
  4 25  1  0
  5 26  1  0
  5 27  1  0
  6 28  1  0
  6 29  1  0
  9 30  1  0
 10 31  1  0
 11 32  1  0
 13 33  1  0
 14 34  1  0
 15 35  1  0
 16 36  1  0
M  END
>  <UniqueID>  (9) 
9

>  <SMILES>  (9) 
CCCNCCOc1cccc2ccccc12

>  <Energy>  (9) 
34.27803686226078

>  <Genealogy>  (9) 
CCCNCCOc1cccc2ccccc12 (3D coordinates assigned)
CCCNCCOc1cccc2ccccc12 (optimized conformer: 34.27803686226078 kcal/mol)

>  <smiles>  (9) 
CCCNCCOc1cccc2ccccc12

>  <score_type>  (9) 
oracle

>  <origin>  (9) 
adg

>  <m_score__min__energy>  (9) 
-7.4000000000000004

>  <m_primary>  (9) 
energy

$$$$
9:0
     RDKit          3D

 75 78  0  0  0  0  0  0  0  0999 V2000
    0.0080   21.2170  -35.2050 C   0  0  0  0  0  0  0  0  0  0  0  0
    0.3580   21.1360  -33.7190 C   0  0  0  0  0  0  0  0  0  0  0  0
   -0.8220   20.7890  -32.8960 N   0  0  0  0  0  0  0  0  0  0  0  0
   -0.7300   21.1930  -31.4700 C   0  0  0  0  0  0  0  0  0  0  0  0
   -0.3560   20.0550  -30.5090 C   0  0  0  0  0  0  0  0  0  0  0  0
   -2.0940   21.2100  -33.5270 C   0  0  0  0  0  0  0  0  0  0  0  0
   -3.1840   21.3790  -32.4650 C   0  0  0  0  0  0  0  0  0  0  0  0
   -4.4880   21.6260  -33.0850 N   0  0  0  0  0  0  0  0  0  0  0  0
   -5.6360   20.8370  -32.7430 C   0  0  0  0  0  0  0  0  0  0  0  0
   -5.5890   19.4460  -32.9460 C   0  0  0  0  0  0  0  0  0  0  0  0
   -4.3960   18.8200  -33.3670 C   0  0  0  0  0  0  0  0  0  0  0  0
   -4.3620   17.4540  -33.6350 C   0  0  0  0  0  0  0  0  0  0  0  0
   -5.5150   16.6910  -33.5030 C   0  0  0  0  0  0  0  0  0  0  0  0
   -5.4750   14.8270  -33.9240 Br  0  0  0  0  0  0  0  0  0  0  0  0
   -6.7020   17.2850  -33.0740 C   0  0  0  0  0  0  0  0  0  0  0  0
   -6.7570   18.6650  -32.7490 C   0  0  0  0  0  0  0  0  0  0  0  0
   -7.9140   19.2570  -32.2840 N   0  0  0  0  0  0  0  0  0  0  0  0
   -9.0410   18.4110  -31.8260 C   0  0  0  0  0  0  0  0  0  0  0  0
   -8.0100   20.6350  -32.2070 C   0  0  0  0  0  0  0  0  0  0  0  0
   -9.2590   21.2710  -32.0170 C   0  0  0  0  0  0  0  0  0  0  0  0
   -9.3480   22.6460  -31.8550 C   0  0  0  0  0  0  0  0  0  0  0  0
   -8.2020   23.4260  -31.8530 C   0  0  0  0  0  0  0  0  0  0  0  0
   -6.9380   22.8480  -32.0670 C   0  0  0  0  0  0  0  0  0  0  0  0
   -5.7740   23.6350  -31.9790 O   0  0  0  0  0  0  0  0  0  0  0  0
   -5.3620   24.3550  -30.8140 C   0  0  0  0  0  0  0  0  0  0  0  0
   -5.3600   23.4540  -29.5550 C   0  0  0  0  0  0  0  0  0  0  0  0
   -4.0830   23.4060  -28.7620 N   0  0  0  0  0  0  0  0  0  0  0  0
   -4.1490   24.4140  -27.6650 C   0  0  0  0  0  0  0  0  0  0  0  0
   -2.9840   23.7860  -29.7050 C   0  0  0  0  0  0  0  0  0  0  0  0
   -1.5700   23.7410  -29.0800 C   0  0  0  0  0  0  0  0  0  0  0  0
   -1.4000   22.6240  -28.0410 C   0  0  0  0  0  0  0  0  0  0  0  0
   -2.4100   21.5080  -28.2660 C   0  0  0  0  0  0  0  0  0  0  0  0
   -3.8640   22.0230  -28.2110 C   0  0  0  0  0  0  0  0  0  0  0  0
   -6.8470   21.4490  -32.3410 C   0  0  0  0  0  0  0  0  0  0  0  0
   -1.0580   21.4637  -35.3177 H   0  0  0  0  0  0  0  0  0  0  0  0
    0.6176   21.9978  -35.6833 H   0  0  0  0  0  0  0  0  0  0  0  0
    0.2126   20.2478  -35.6833 H   0  0  0  0  0  0  0  0  0  0  0  0
    1.1307   20.3662  -33.5764 H   0  0  0  0  0  0  0  0  0  0  0  0
    0.7209   22.1236  -33.3982 H   0  0  0  0  0  0  0  0  0  0  0  0
    0.0337   21.9800  -31.3844 H   0  0  0  0  0  0  0  0  0  0  0  0
   -1.7336   21.5340  -31.1759 H   0  0  0  0  0  0  0  0  0  0  0  0
   -0.4693   20.3998  -29.4706 H   0  0  0  0  0  0  0  0  0  0  0  0
   -1.0186   19.1946  -30.6840 H   0  0  0  0  0  0  0  0  0  0  0  0
    0.6879   19.7554  -30.6840 H   0  0  0  0  0  0  0  0  0  0  0  0
   -1.9418   22.1677  -34.0463 H   0  0  0  0  0  0  0  0  0  0  0  0
   -2.4101   20.4382  -34.2443 H   0  0  0  0  0  0  0  0  0  0  0  0
   -3.2415   20.4624  -31.8596 H   0  0  0  0  0  0  0  0  0  0  0  0
   -2.9271   22.2425  -31.8338 H   0  0  0  0  0  0  0  0  0  0  0  0
   -4.6330   22.4790  -33.6700 H   0  0  0  0  0  0  0  0  0  0  0  0
   -3.4811   19.4192  -33.4849 H   0  0  0  0  0  0  0  0  0  0  0  0
   -3.4216   16.9790  -33.9514 H   0  0  0  0  0  0  0  0  0  0  0  0
   -7.6115   16.6726  -32.9861 H   0  0  0  0  0  0  0  0  0  0  0  0
   -9.0635   18.3941  -30.7264 H   0  0  0  0  0  0  0  0  0  0  0  0
   -9.9873   18.8237  -32.2058 H   0  0  0  0  0  0  0  0  0  0  0  0
   -8.9089   17.3871  -32.2058 H   0  0  0  0  0  0  0  0  0  0  0  0
  -10.1764   20.6644  -31.9973 H   0  0  0  0  0  0  0  0  0  0  0  0
  -10.3326   23.1195  -31.7275 H   0  0  0  0  0  0  0  0  0  0  0  0
   -8.2823   24.5097  -31.6820 H   0  0  0  0  0  0  0  0  0  0  0  0
   -4.3457   24.7436  -30.9759 H   0  0  0  0  0  0  0  0  0  0  0  0
   -6.0758   25.1753  -30.6475 H   0  0  0  0  0  0  0  0  0  0  0  0
   -6.1549   23.8146  -28.8856 H   0  0  0  0  0  0  0  0  0  0  0  0
   -5.5059   22.4306  -29.9311 H   0  0  0  0  0  0  0  0  0  0  0  0
   -4.1154   23.9006  -26.6928 H   0  0  0  0  0  0  0  0  0  0  0  0
   -3.2939   25.1012  -27.7465 H   0  0  0  0  0  0  0  0  0  0  0  0
   -5.0864   24.9838  -27.7465 H   0  0  0  0  0  0  0  0  0  0  0  0
   -3.0064   23.0925  -30.5585 H   0  0  0  0  0  0  0  0  0  0  0  0
   -3.1667   24.8299  -29.9999 H   0  0  0  0  0  0  0  0  0  0  0  0
   -0.8374   23.5832  -29.8852 H   0  0  0  0  0  0  0  0  0  0  0  0
   -1.4139   24.6970  -28.5587 H   0  0  0  0  0  0  0  0  0  0  0  0
   -0.3839   22.2104  -28.1211 H   0  0  0  0  0  0  0  0  0  0  0  0
   -1.5665   23.0494  -27.0403 H   0  0  0  0  0  0  0  0  0  0  0  0
   -2.2294   21.0597  -29.2541 H   0  0  0  0  0  0  0  0  0  0  0  0
   -2.2818   20.7672  -27.4630 H   0  0  0  0  0  0  0  0  0  0  0  0
   -4.4922   21.3261  -28.7852 H   0  0  0  0  0  0  0  0  0  0  0  0
   -4.1244   22.0786  -27.1437 H   0  0  0  0  0  0  0  0  0  0  0  0
  1  2  1  0
  2  3  1  0
  3  4  1  0
  4  5  1  0
  3  6  1  0
  6  7  1  0
  7  8  1  0
  8  9  1  0
  9 10  2  0
 10 11  1  0
 11 12  2  0
 12 13  1  0
 13 14  1  0
 13 15  2  0
 15 16  1  0
 16 17  2  0
 17 18  1  0
 17 19  1  0
 19 20  2  0
 20 21  1  0
 21 22  2  0
 22 23  1  0
 23 24  1  0
 24 25  1  0
 25 26  1  0
 26 27  1  0
 27 28  1  0
 27 29  1  0
 29 30  1  0
 30 31  1  0
 31 32  1  0
 32 33  1  0
 23 34  2  0
 34  9  1  0
 16 10  1  0
 34 19  1  0
 33 27  1  0
  1 35  1  0
  1 36  1  0
  1 37  1  0
  2 38  1  0
  2 39  1  0
  4 40  1  0
  4 41  1  0
  5 42  1  0
  5 43  1  0
  5 44  1  0
  6 45  1  0
  6 46  1  0
  7 47  1  0
  7 48  1  0
  8 49  1  0
 11 50  1  0
 12 51  1  0
 15 52  1  0
 18 53  1  0
 18 54  1  0
 18 55  1  0
 20 56  1  0
 21 57  1  0
 22 58  1  0
 25 59  1  0
 25 60  1  0
 26 61  1  0
 26 62  1  0
 28 63  1  0
 28 64  1  0
 28 65  1  0
 29 66  1  0
 29 67  1  0
 30 68  1  0
 30 69  1  0
 31 70  1  0
 31 71  1  0
 32 72  1  0
 32 73  1  0
 33 74  1  0
 33 75  1  0
M  CHG  2  17   1  27   1
M  END
>  <UniqueID>  (10) 
10

>  <SMILES>  (10) 
CCN(CC)CCNc1c2ccc(Br)cc2[n+](C)c2cccc(OCC[N+]3(C)CCCCC3)c12

>  <Energy>  (10) 
123.2358544274384

>  <Genealogy>  (10) 
CCN(CC)CCNc1c2ccc(Br)cc2[n+](C)c2cccc(OCC[N+]3(C)CCCCC3)c12 (3D coordinates assigned)
CCN(CC)CCNc1c2ccc(Br)cc2[n+](C)c2cccc(OCC[N+]3(C)CCCCC3)c12 (nonaromatic ring conformer: 123.2358544274384 kcal/mol)

>  <smiles>  (10) 
CCN(CC)CCNc1c2ccc(Br)cc2[n+](C)c2cccc(OCC[N+]3(C)CCCCC3)c12

>  <score_type>  (10) 
oracle

>  <origin>  (10) 
adg

>  <m_score__min__energy>  (10) 
-8.6600000000000001

>  <m_primary>  (10) 
energy

$$$$
10:0
     RDKit          3D

 37 39  0  0  0  0  0  0  0  0999 V2000
   -3.0260   23.3320  -27.6020 C   0  0  0  0  0  0  0  0  0  0  0  0
   -4.3060   23.0710  -28.3850 C   0  0  0  0  0  0  0  0  0  0  0  0
   -5.0030   24.3330  -28.6400 N   0  0  0  0  0  0  0  0  0  0  0  0
   -5.1110   24.6080  -30.3530 S   0  0  0  0  0  0  0  0  0  0  0  0
   -6.2880   25.4990  -30.6420 O   0  0  0  0  0  0  0  0  0  0  0  0
   -3.8610   25.2960  -30.8280 O   0  0  0  0  0  0  0  0  0  0  0  0
   -5.2800   23.0700  -31.2080 C   0  0  0  0  0  0  0  0  0  0  0  0
   -4.1660   22.5350  -31.9170 C   0  0  0  0  0  0  0  0  0  0  0  0
   -4.2620   21.3140  -32.6230 C   0  0  0  0  0  0  0  0  0  0  0  0
   -5.4880   20.6490  -32.6170 C   0  0  0  0  0  0  0  0  0  0  0  0
   -6.5470   21.1720  -31.9310 C   0  0  0  0  0  0  0  0  0  0  0  0
   -7.6390   20.3590  -32.0100 C   0  0  0  0  0  0  0  0  0  0  0  0
   -8.8220   20.6920  -31.3550 C   0  0  0  0  0  0  0  0  0  0  0  0
   -8.8470   21.8980  -30.6180 C   0  0  0  0  0  0  0  0  0  0  0  0
   -7.6980   22.7300  -30.5430 C   0  0  0  0  0  0  0  0  0  0  0  0
   -6.5080   22.3560  -31.2120 C   0  0  0  0  0  0  0  0  0  0  0  0
   -7.2130   19.2180  -32.8170 C   0  0  0  0  0  0  0  0  0  0  0  0
   -7.9070   18.2030  -33.0840 O   0  0  0  0  0  0  0  0  0  0  0  0
   -5.8510   19.4060  -33.2340 N   0  0  0  0  0  0  0  0  0  0  0  0
   -4.9420   18.3700  -33.7140 C   0  0  0  0  0  0  0  0  0  0  0  0
   -5.4420   17.7920  -35.0340 C   0  0  0  0  0  0  0  0  0  0  0  0
   -3.2403   23.2883  -26.5240 H   0  0  0  0  0  0  0  0  0  0  0  0
   -2.2772   22.5681  -27.8583 H   0  0  0  0  0  0  0  0  0  0  0  0
   -2.6361   24.3281  -27.8583 H   0  0  0  0  0  0  0  0  0  0  0  0
   -4.0556   22.5930  -29.3435 H   0  0  0  0  0  0  0  0  0  0  0  0
   -4.9600   22.4095  -27.7979 H   0  0  0  0  0  0  0  0  0  0  0  0
   -5.9840   24.2430  -28.2880 H   0  0  0  0  0  0  0  0  0  0  0  0
   -3.2122   23.0829  -31.9150 H   0  0  0  0  0  0  0  0  0  0  0  0
   -3.3959   20.9009  -33.1608 H   0  0  0  0  0  0  0  0  0  0  0  0
   -9.7059   20.0395  -31.4092 H   0  0  0  0  0  0  0  0  0  0  0  0
   -9.7681   22.1961  -30.0958 H   0  0  0  0  0  0  0  0  0  0  0  0
   -7.7331   23.6652  -29.9649 H   0  0  0  0  0  0  0  0  0  0  0  0
   -3.9433   18.8058  -33.8646 H   0  0  0  0  0  0  0  0  0  0  0  0
   -4.8946   17.5637  -32.9672 H   0  0  0  0  0  0  0  0  0  0  0  0
   -6.1494   16.9743  -34.8317 H   0  0  0  0  0  0  0  0  0  0  0  0
   -5.9479   18.5800  -35.6111 H   0  0  0  0  0  0  0  0  0  0  0  0
   -4.5893   17.4048  -35.6111 H   0  0  0  0  0  0  0  0  0  0  0  0
  1  2  1  0
  2  3  1  0
  3  4  1  0
  4  5  2  0
  4  6  2  0
  4  7  1  0
  7  8  2  0
  8  9  1  0
  9 10  2  0
 10 11  1  0
 11 12  2  0
 12 13  1  0
 13 14  2  0
 14 15  1  0
 15 16  2  0
 12 17  1  0
 17 18  2  0
 17 19  1  0
 19 20  1  0
 20 21  1  0
 16  7  1  0
 19 10  1  0
 16 11  1  0
  1 22  1  0
  1 23  1  0
  1 24  1  0
  2 25  1  0
  2 26  1  0
  3 27  1  0
  8 28  1  0
  9 29  1  0
 13 30  1  0
 14 31  1  0
 15 32  1  0
 20 33  1  0
 20 34  1  0
 21 35  1  0
 21 36  1  0
 21 37  1  0
M  END
>  <UniqueID>  (11) 
11

>  <SMILES>  (11) 
CCNS(=O)(=O)c1ccc2c3c(cccc13)C(=O)N2CC

>  <Energy>  (11) 
73.63162758930969

>  <Genealogy>  (11) 
CCNS(=O)(=O)c1ccc2c3c(cccc13)C(=O)N2CC (3D coordinates assigned)
CCNS(=O)(=O)c1ccc2c3c(cccc13)C(=O)N2CC (nonaromatic ring conformer: 73.63162758930969 kcal/mol)

>  <smiles>  (11) 
CCNS(=O)(=O)c1ccc2c3c(cccc13)C(=O)N2CC

>  <score_type>  (11) 
oracle

>  <origin>  (11) 
adg

>  <m_score__min__energy>  (11) 
-9.1699999999999999

>  <m_primary>  (11) 
energy

$$$$
11:0
     RDKit          3D

 37 38  0  0  0  0  0  0  0  0999 V2000
   -9.5240   20.9100  -32.0070 C   0  0  0  0  0  0  0  0  0  0  0  0
   -8.7350   19.6350  -31.7120 C   0  0  0  0  0  0  0  0  0  0  0  0
   -8.3280   18.9650  -32.9590 N   0  0  0  0  0  0  0  0  0  0  0  0
   -7.5840   17.7120  -32.6940 C   0  0  0  0  0  0  0  0  0  0  0  0
   -6.0550   17.8780  -32.8120 C   0  0  0  0  0  0  0  0  0  0  0  0
   -5.6260   18.7640  -33.9840 C   0  0  0  0  0  0  0  0  0  0  0  0
   -6.1940   20.0650  -33.8470 O   0  0  0  0  0  0  0  0  0  0  0  0
   -5.7150   21.0560  -32.9780 C   0  0  0  0  0  0  0  0  0  0  0  0
   -4.3410   21.1000  -32.7200 C   0  0  0  0  0  0  0  0  0  0  0  0
   -3.8050   22.0690  -31.8690 C   0  0  0  0  0  0  0  0  0  0  0  0
   -4.6430   23.0120  -31.2580 C   0  0  0  0  0  0  0  0  0  0  0  0
   -4.1150   23.9900  -30.4010 C   0  0  0  0  0  0  0  0  0  0  0  0
   -4.9630   24.9250  -29.7980 C   0  0  0  0  0  0  0  0  0  0  0  0
   -6.3380   24.8900  -30.0450 C   0  0  0  0  0  0  0  0  0  0  0  0
   -6.8760   23.9220  -30.8970 C   0  0  0  0  0  0  0  0  0  0  0  0
   -6.0360   22.9760  -31.5100 C   0  0  0  0  0  0  0  0  0  0  0  0
   -6.5640   22.0000  -32.3670 C   0  0  0  0  0  0  0  0  0  0  0  0
   -9.8187   21.3862  -31.0602 H   0  0  0  0  0  0  0  0  0  0  0  0
   -8.8969   21.6034  -32.5866 H   0  0  0  0  0  0  0  0  0  0  0  0
  -10.4244   20.6582  -32.5866 H   0  0  0  0  0  0  0  0  0  0  0  0
   -7.8362   19.8941  -31.1331 H   0  0  0  0  0  0  0  0  0  0  0  0
   -9.3779   18.9498  -31.1400 H   0  0  0  0  0  0  0  0  0  0  0  0
   -9.1970   18.7290  -33.4960 H   0  0  0  0  0  0  0  0  0  0  0  0
   -7.7670   19.6180  -33.5530 H   0  0  0  0  0  0  0  0  0  0  0  0
   -7.8215   17.3730  -31.6748 H   0  0  0  0  0  0  0  0  0  0  0  0
   -7.8935   16.9803  -33.4548 H   0  0  0  0  0  0  0  0  0  0  0  0
   -5.6806   18.3274  -31.8804 H   0  0  0  0  0  0  0  0  0  0  0  0
   -5.6337   16.8778  -32.9912 H   0  0  0  0  0  0  0  0  0  0  0  0
   -4.5291   18.8452  -33.9965 H   0  0  0  0  0  0  0  0  0  0  0  0
   -5.9782   18.3140  -34.9239 H   0  0  0  0  0  0  0  0  0  0  0  0
   -3.6751   20.3631  -33.1927 H   0  0  0  0  0  0  0  0  0  0  0  0
   -2.7220   22.0923  -31.6776 H   0  0  0  0  0  0  0  0  0  0  0  0
   -3.0334   24.0213  -30.2033 H   0  0  0  0  0  0  0  0  0  0  0  0
   -4.5460   25.6905  -29.1271 H   0  0  0  0  0  0  0  0  0  0  0  0
   -6.9994   25.6274  -29.5668 H   0  0  0  0  0  0  0  0  0  0  0  0
   -7.9590   23.9001  -31.0885 H   0  0  0  0  0  0  0  0  0  0  0  0
   -7.6460   21.9711  -32.5632 H   0  0  0  0  0  0  0  0  0  0  0  0
  1  2  1  0
  2  3  1  0
  3  4  1  0
  4  5  1  0
  5  6  1  0
  6  7  1  0
  7  8  1  0
  8  9  2  0
  9 10  1  0
 10 11  2  0
 11 12  1  0
 12 13  2  0
 13 14  1  0
 14 15  2  0
 15 16  1  0
 16 17  2  0
 17  8  1  0
 16 11  1  0
  1 18  1  0
  1 19  1  0
  1 20  1  0
  2 21  1  0
  2 22  1  0
  3 23  1  0
  3 24  1  0
  4 25  1  0
  4 26  1  0
  5 27  1  0
  5 28  1  0
  6 29  1  0
  6 30  1  0
  9 31  1  0
 10 32  1  0
 12 33  1  0
 13 34  1  0
 14 35  1  0
 15 36  1  0
 17 37  1  0
M  CHG  1   3   1
M  END
>  <UniqueID>  (12) 
12

>  <SMILES>  (12) 
CC[NH2+]CCCOc1ccc2ccccc2c1

>  <Energy>  (12) 
34.954068452499506

>  <Genealogy>  (12) 
CC[NH2+]CCCOc1ccc2ccccc2c1 (protonated)
CC[NH2+]CCCOc1ccc2ccccc2c1 (3D coordinates assigned)
CC[NH2+]CCCOc1ccc2ccccc2c1 (optimized conformer: 34.954068452499506 kcal/mol)

>  <smiles>  (12) 
CCNCCCOc1ccc2ccccc2c1

>  <score_type>  (12) 
oracle

>  <origin>  (12) 
adg

>  <m_score__min__energy>  (12) 
-5.6900000000000004

>  <m_primary>  (12) 
energy

$$$$
12:0
     RDKit          3D

 43 45  0  0  0  0  0  0  0  0999 V2000
   -7.7350   18.1250  -32.3330 C   0  0  0  0  0  0  0  0  0  0  0  0
   -8.8830   19.0640  -32.7020 C   0  0  0  0  0  0  0  0  0  0  0  0
   -8.5680   20.4630  -32.3430 N   0  0  0  0  0  0  0  0  0  0  0  0
   -9.8070   21.2270  -32.1210 C   0  0  0  0  0  0  0  0  0  0  0  0
   -9.4900   22.7290  -31.9650 C   0  0  0  0  0  0  0  0  0  0  0  0
   -8.1320   22.9930  -31.4290 N   0  0  0  0  0  0  0  0  0  0  0  0
   -7.1410   23.2530  -32.4990 C   0  0  0  0  0  0  0  0  0  0  0  0
   -5.7320   23.2630  -31.9450 C   0  0  0  0  0  0  0  0  0  0  0  0
   -5.3410   24.3180  -31.1090 C   0  0  0  0  0  0  0  0  0  0  0  0
   -4.0390   24.3500  -30.6040 C   0  0  0  0  0  0  0  0  0  0  0  0
   -3.6820   25.2930  -29.8510 O   0  0  0  0  0  0  0  0  0  0  0  0
   -3.1740   23.3930  -30.9150 O   0  0  0  0  0  0  0  0  0  0  0  0
   -3.4850   22.3720  -31.7060 C   0  0  0  0  0  0  0  0  0  0  0  0
   -2.5150   21.4050  -31.9890 C   0  0  0  0  0  0  0  0  0  0  0  0
   -2.8120   20.3260  -32.8320 C   0  0  0  0  0  0  0  0  0  0  0  0
   -1.7790   19.2710  -33.1010 C   0  0  0  0  0  0  0  0  0  0  0  0
   -4.1010   20.2030  -33.3680 C   0  0  0  0  0  0  0  0  0  0  0  0
   -5.0780   21.1620  -33.0920 C   0  0  0  0  0  0  0  0  0  0  0  0
   -4.7840   22.2610  -32.2600 C   0  0  0  0  0  0  0  0  0  0  0  0
   -7.7090   21.9320  -30.4910 C   0  0  0  0  0  0  0  0  0  0  0  0
   -7.6940   20.5350  -31.1480 C   0  0  0  0  0  0  0  0  0  0  0  0
   -7.6534   18.0583  -31.2381 H   0  0  0  0  0  0  0  0  0  0  0  0
   -7.9313   17.1252  -32.7477 H   0  0  0  0  0  0  0  0  0  0  0  0
   -6.7940   18.5157  -32.7477 H   0  0  0  0  0  0  0  0  0  0  0  0
   -9.0614   19.0035  -33.7857 H   0  0  0  0  0  0  0  0  0  0  0  0
   -9.7784   18.7548  -32.1428 H   0  0  0  0  0  0  0  0  0  0  0  0
  -10.4793   21.0854  -32.9800 H   0  0  0  0  0  0  0  0  0  0  0  0
  -10.2897   20.8660  -31.2008 H   0  0  0  0  0  0  0  0  0  0  0  0
   -9.5741   23.2073  -32.9520 H   0  0  0  0  0  0  0  0  0  0  0  0
  -10.2097   23.1389  -31.2411 H   0  0  0  0  0  0  0  0  0  0  0  0
   -7.2214   22.4652  -33.2625 H   0  0  0  0  0  0  0  0  0  0  0  0
   -7.3511   24.2394  -32.9382 H   0  0  0  0  0  0  0  0  0  0  0  0
   -6.0544   25.1150  -30.8524 H   0  0  0  0  0  0  0  0  0  0  0  0
   -1.5117   21.4922  -31.5466 H   0  0  0  0  0  0  0  0  0  0  0  0
   -1.3966   18.8804  -32.1464 H   0  0  0  0  0  0  0  0  0  0  0  0
   -2.2334   18.4513  -33.6769 H   0  0  0  0  0  0  0  0  0  0  0  0
   -0.9499   19.7080  -33.6769 H   0  0  0  0  0  0  0  0  0  0  0  0
   -4.3451   19.3445  -34.0110 H   0  0  0  0  0  0  0  0  0  0  0  0
   -6.0832   21.0590  -33.5266 H   0  0  0  0  0  0  0  0  0  0  0  0
   -6.6959   22.1632  -30.1302 H   0  0  0  0  0  0  0  0  0  0  0  0
   -8.4356   21.9059  -29.6656 H   0  0  0  0  0  0  0  0  0  0  0  0
   -6.6631   20.2975  -31.4495 H   0  0  0  0  0  0  0  0  0  0  0  0
   -8.0746   19.8134  -30.4102 H   0  0  0  0  0  0  0  0  0  0  0  0
  1  2  1  0
  2  3  1  0
  3  4  1  0
  4  5  1  0
  5  6  1  0
  6  7  1  0
  7  8  1  0
  8  9  2  0
  9 10  1  0
 10 11  2  0
 10 12  1  0
 12 13  1  0
 13 14  2  0
 14 15  1  0
 15 16  1  0
 15 17  2  0
 17 18  1  0
 18 19  2  0
  6 20  1  0
 20 21  1  0
 21  3  1  0
 19  8  1  0
 19 13  1  0
  1 22  1  0
  1 23  1  0
  1 24  1  0
  2 25  1  0
  2 26  1  0
  4 27  1  0
  4 28  1  0
  5 29  1  0
  5 30  1  0
  7 31  1  0
  7 32  1  0
  9 33  1  0
 14 34  1  0
 16 35  1  0
 16 36  1  0
 16 37  1  0
 17 38  1  0
 18 39  1  0
 20 40  1  0
 20 41  1  0
 21 42  1  0
 21 43  1  0
M  END
>  <UniqueID>  (13) 
13

>  <SMILES>  (13) 
CCN1CCN(Cc2cc(=O)oc3cc(C)ccc23)CC1

>  <Energy>  (13) 
58.73079183792237

>  <Genealogy>  (13) 
CCN1CCN(Cc2cc(=O)oc3cc(C)ccc23)CC1 (3D coordinates assigned)
CCN1CCN(Cc2cc(=O)oc3cc(C)ccc23)CC1 (nonaromatic ring conformer: 58.73079183792237 kcal/mol)

>  <smiles>  (13) 
CCN1CCN(Cc2cc(=O)oc3cc(C)ccc23)CC1

>  <score_type>  (13) 
oracle

>  <origin>  (13) 
adg

>  <m_score__min__energy>  (13) 
-7.9400000000000004

>  <m_primary>  (13) 
energy

$$$$
13:0
     RDKit          3D

 50 52  0  0  0  0  0  0  0  0999 V2000
   -5.7380   26.0370  -30.5280 C   0  0  0  0  0  0  0  0  0  0  0  0
   -5.7500   24.8770  -29.5360 C   0  0  0  0  0  0  0  0  0  0  0  0
   -4.3870   24.1790  -29.4810 C   0  0  0  0  0  0  0  0  0  0  0  0
   -3.8730   23.9550  -30.8400 N   0  0  0  0  0  0  0  0  0  0  0  0
   -2.7650   22.9870  -30.8460 C   0  0  0  0  0  0  0  0  0  0  0  0
   -3.2670   21.5900  -31.2450 C   0  0  0  0  0  0  0  0  0  0  0  0
   -3.1670   21.2860  -32.7530 C   0  0  0  0  0  0  0  0  0  0  0  0
   -4.3790   21.6540  -33.5200 N   0  0  0  0  0  0  0  0  0  0  0  0
   -5.5310   20.8220  -33.1880 C   0  0  0  0  0  0  0  0  0  0  0  0
   -5.5100   19.4270  -33.4770 C   0  0  0  0  0  0  0  0  0  0  0  0
   -4.4210   18.8220  -34.1550 C   0  0  0  0  0  0  0  0  0  0  0  0
   -4.4360   17.4690  -34.4830 C   0  0  0  0  0  0  0  0  0  0  0  0
   -5.5320   16.6870  -34.1580 C   0  0  0  0  0  0  0  0  0  0  0  0
   -6.6080   17.2440  -33.4740 C   0  0  0  0  0  0  0  0  0  0  0  0
   -6.6060   18.6090  -33.0840 C   0  0  0  0  0  0  0  0  0  0  0  0
   -7.6430   19.1420  -32.3490 N   0  0  0  0  0  0  0  0  0  0  0  0
   -8.5980   18.2420  -31.6610 C   0  0  0  0  0  0  0  0  0  0  0  0
   -7.7750   20.5090  -32.2260 C   0  0  0  0  0  0  0  0  0  0  0  0
   -8.9770   21.0860  -31.7400 C   0  0  0  0  0  0  0  0  0  0  0  0
   -9.0960   22.4570  -31.5480 C   0  0  0  0  0  0  0  0  0  0  0  0
   -8.0310   23.2920  -31.8440 C   0  0  0  0  0  0  0  0  0  0  0  0
   -6.8530   22.7670  -32.3660 C   0  0  0  0  0  0  0  0  0  0  0  0
   -6.7040   21.3740  -32.5990 C   0  0  0  0  0  0  0  0  0  0  0  0
   -5.7281   26.9896  -29.9781 H   0  0  0  0  0  0  0  0  0  0  0  0
   -4.8405   25.9694  -31.1604 H   0  0  0  0  0  0  0  0  0  0  0  0
   -6.6367   25.9880  -31.1604 H   0  0  0  0  0  0  0  0  0  0  0  0
   -5.9957   25.2631  -28.5357 H   0  0  0  0  0  0  0  0  0  0  0  0
   -6.5023   24.1453  -29.8656 H   0  0  0  0  0  0  0  0  0  0  0  0
   -3.6784   24.8100  -28.9245 H   0  0  0  0  0  0  0  0  0  0  0  0
   -4.5025   23.2078  -28.9777 H   0  0  0  0  0  0  0  0  0  0  0  0
   -3.4970   24.8690  -31.1850 H   0  0  0  0  0  0  0  0  0  0  0  0
   -2.0018   23.3160  -31.5666 H   0  0  0  0  0  0  0  0  0  0  0  0
   -2.3363   22.9335  -29.8344 H   0  0  0  0  0  0  0  0  0  0  0  0
   -2.6704   20.8418  -30.7026 H   0  0  0  0  0  0  0  0  0  0  0  0
   -4.3357   21.5540  -30.9869 H   0  0  0  0  0  0  0  0  0  0  0  0
   -2.3138   21.8459  -33.1635 H   0  0  0  0  0  0  0  0  0  0  0  0
   -3.0442   20.1974  -32.8522 H   0  0  0  0  0  0  0  0  0  0  0  0
   -4.1880   21.6940  -34.5410 H   0  0  0  0  0  0  0  0  0  0  0  0
   -4.6170   22.6520  -33.3160 H   0  0  0  0  0  0  0  0  0  0  0  0
   -3.5479   19.4334  -34.4269 H   0  0  0  0  0  0  0  0  0  0  0  0
   -3.5758   17.0202  -35.0013 H   0  0  0  0  0  0  0  0  0  0  0  0
   -5.5518   15.6242  -34.4410 H   0  0  0  0  0  0  0  0  0  0  0  0
   -7.4768   16.6147  -33.2308 H   0  0  0  0  0  0  0  0  0  0  0  0
   -8.4839   18.3496  -30.5722 H   0  0  0  0  0  0  0  0  0  0  0  0
   -9.6255   18.5078  -31.9500 H   0  0  0  0  0  0  0  0  0  0  0  0
   -8.3936   17.2005  -31.9500 H   0  0  0  0  0  0  0  0  0  0  0  0
   -9.8327   20.4340  -31.5104 H   0  0  0  0  0  0  0  0  0  0  0  0
  -10.0353   22.8791  -31.1612 H   0  0  0  0  0  0  0  0  0  0  0  0
   -8.1170   24.3740  -31.6657 H   0  0  0  0  0  0  0  0  0  0  0  0
   -6.0198   23.4449  -32.6031 H   0  0  0  0  0  0  0  0  0  0  0  0
  1  2  1  0
  2  3  1  0
  3  4  1  0
  4  5  1  0
  5  6  1  0
  6  7  1  0
  7  8  1  0
  8  9  1  0
  9 10  2  0
 10 11  1  0
 11 12  2  0
 12 13  1  0
 13 14  2  0
 14 15  1  0
 15 16  2  0
 16 17  1  0
 16 18  1  0
 18 19  2  0
 19 20  1  0
 20 21  2  0
 21 22  1  0
 22 23  2  0
 23  9  1  0
 15 10  1  0
 23 18  1  0
  1 24  1  0
  1 25  1  0
  1 26  1  0
  2 27  1  0
  2 28  1  0
  3 29  1  0
  3 30  1  0
  4 31  1  0
  5 32  1  0
  5 33  1  0
  6 34  1  0
  6 35  1  0
  7 36  1  0
  7 37  1  0
  8 38  1  0
  8 39  1  0
 11 40  1  0
 12 41  1  0
 13 42  1  0
 14 43  1  0
 17 44  1  0
 17 45  1  0
 17 46  1  0
 19 47  1  0
 20 48  1  0
 21 49  1  0
 22 50  1  0
M  CHG  2   8   1  16   1
M  END
>  <UniqueID>  (14) 
14

>  <SMILES>  (14) 
CCCNCCC[NH2+]c1c2ccccc2[n+](C)c2ccccc12

>  <Energy>  (14) 
75.64133977131519

>  <Genealogy>  (14) 
CCCNCCC[NH2+]c1c2ccccc2[n+](C)c2ccccc12 (protonated)
CCCNCCC[NH2+]c1c2ccccc2[n+](C)c2ccccc12 (3D coordinates assigned)
CCCNCCC[NH2+]c1c2ccccc2[n+](C)c2ccccc12 (optimized conformer: 75.64133977131519 kcal/mol)

>  <smiles>  (14) 
CCCNCCCNc1c2ccccc2[n+](C)c2ccccc12

>  <score_type>  (14) 
oracle

>  <origin>  (14) 
adg

>  <m_score__min__energy>  (14) 
-8.4199999999999999

>  <m_primary>  (14) 
energy

$$$$
