0:0
     RDKit          3D

 59 61  0  0  0  0  0  0  0  0999 V2000
   -1.1110   26.4010  -28.1460 C   0  0  0  0  0  0  0  0  0  0  0  0
   -1.9410   25.5900  -28.9690 O   0  0  0  0  0  0  0  0  0  0  0  0
   -2.0680   24.1930  -28.8630 C   0  0  0  0  0  0  0  0  0  0  0  0
   -0.9520   23.3360  -28.9480 C   0  0  0  0  0  0  0  0  0  0  0  0
   -1.1100   21.9530  -28.8370 C   0  0  0  0  0  0  0  0  0  0  0  0
   -2.3770   21.4070  -28.6330 C   0  0  0  0  0  0  0  0  0  0  0  0
   -3.4920   22.2400  -28.5490 C   0  0  0  0  0  0  0  0  0  0  0  0
   -3.3550   23.6350  -28.6770 C   0  0  0  0  0  0  0  0  0  0  0  0
   -4.5950   24.5030  -28.6780 C   0  0  0  0  0  0  0  0  0  0  0  0
   -5.0910   24.7860  -30.1000 C   0  0  0  0  0  0  0  0  0  0  0  0
   -5.5860   23.5650  -30.7460 N   0  0  0  0  0  0  0  0  0  0  0  0
   -6.8580   23.1010  -30.6870 C   0  0  0  0  0  0  0  0  0  0  0  0
   -6.9630   21.9030  -31.3840 C   0  0  0  0  0  0  0  0  0  0  0  0
   -8.1630   21.0040  -31.4490 C   0  0  0  0  0  0  0  0  0  0  0  0
   -8.2770   20.3720  -32.8490 C   0  0  0  0  0  0  0  0  0  0  0  0
   -8.4970   18.9050  -32.7950 N   0  0  0  0  0  0  0  0  0  0  0  0
   -7.2360   18.1630  -32.9980 C   0  0  0  0  0  0  0  0  0  0  0  0
   -9.0850   18.5360  -31.4950 C   0  0  0  0  0  0  0  0  0  0  0  0
   -5.6960   21.6340  -31.8700 C   0  0  0  0  0  0  0  0  0  0  0  0
   -5.2050   20.5410  -32.5800 C   0  0  0  0  0  0  0  0  0  0  0  0
   -3.8290   20.5170  -32.9090 C   0  0  0  0  0  0  0  0  0  0  0  0
   -3.2500   19.4380  -33.6000 O   0  0  0  0  0  0  0  0  0  0  0  0
   -3.8080   18.1300  -33.6620 C   0  0  0  0  0  0  0  0  0  0  0  0
   -2.9910   21.6000  -32.5310 C   0  0  0  0  0  0  0  0  0  0  0  0
   -1.6340   21.5450  -32.8900 O   0  0  0  0  0  0  0  0  0  0  0  0
   -0.6640   20.6950  -32.2780 C   0  0  0  0  0  0  0  0  0  0  0  0
   -3.5290   22.6880  -31.8020 C   0  0  0  0  0  0  0  0  0  0  0  0
   -4.8890   22.6700  -31.4810 C   0  0  0  0  0  0  0  0  0  0  0  0
   -1.3262   26.1907  -27.0879 H   0  0  0  0  0  0  0  0  0  0  0  0
   -0.0548   26.1773  -28.3569 H   0  0  0  0  0  0  0  0  0  0  0  0
   -1.3102   27.4621  -28.3569 H   0  0  0  0  0  0  0  0  0  0  0  0
    0.0511   23.7600  -29.1030 H   0  0  0  0  0  0  0  0  0  0  0  0
   -0.2332   21.2928  -28.9106 H   0  0  0  0  0  0  0  0  0  0  0  0
   -2.4969   20.3177  -28.5382 H   0  0  0  0  0  0  0  0  0  0  0  0
   -4.4875   21.8031  -28.3812 H   0  0  0  0  0  0  0  0  0  0  0  0
   -5.3905   23.9880  -28.1194 H   0  0  0  0  0  0  0  0  0  0  0  0
   -4.3398   25.4640  -28.2075 H   0  0  0  0  0  0  0  0  0  0  0  0
   -5.9063   25.5230  -30.0549 H   0  0  0  0  0  0  0  0  0  0  0  0
   -4.2478   25.1733  -30.6907 H   0  0  0  0  0  0  0  0  0  0  0  0
   -7.6869   23.6000  -30.1636 H   0  0  0  0  0  0  0  0  0  0  0  0
   -8.0615   20.2072  -30.6975 H   0  0  0  0  0  0  0  0  0  0  0  0
   -9.0675   21.5965  -31.2472 H   0  0  0  0  0  0  0  0  0  0  0  0
   -9.1226   20.8362  -33.3776 H   0  0  0  0  0  0  0  0  0  0  0  0
   -7.3261   20.5480  -33.3732 H   0  0  0  0  0  0  0  0  0  0  0  0
   -9.1770   18.6240  -33.5450 H   0  0  0  0  0  0  0  0  0  0  0  0
   -6.8001   17.9065  -32.0211 H   0  0  0  0  0  0  0  0  0  0  0  0
   -7.4399   17.2409  -33.5620 H   0  0  0  0  0  0  0  0  0  0  0  0
   -6.5289   18.7890  -33.5620 H   0  0  0  0  0  0  0  0  0  0  0  0
   -8.4564   18.9305  -30.6830 H   0  0  0  0  0  0  0  0  0  0  0  0
  -10.0961   18.9618  -31.4158 H   0  0  0  0  0  0  0  0  0  0  0  0
   -9.1413   17.4403  -31.4158 H   0  0  0  0  0  0  0  0  0  0  0  0
   -5.8703   19.7170  -32.8775 H   0  0  0  0  0  0  0  0  0  0  0  0
   -3.9695   17.7515  -32.6419 H   0  0  0  0  0  0  0  0  0  0  0  0
   -4.7690   18.1663  -34.1960 H   0  0  0  0  0  0  0  0  0  0  0  0
   -3.1168   17.4614  -34.1960 H   0  0  0  0  0  0  0  0  0  0  0  0
   -0.7492   20.7697  -31.1839 H   0  0  0  0  0  0  0  0  0  0  0  0
   -0.8396   19.6547  -32.5893 H   0  0  0  0  0  0  0  0  0  0  0  0
    0.3443   21.0057  -32.5893 H   0  0  0  0  0  0  0  0  0  0  0  0
   -2.8903   23.5293  -31.4949 H   0  0  0  0  0  0  0  0  0  0  0  0
  1  2  1  0
  2  3  1  0
  3  4  2  0
  4  5  1  0
  5  6  2  0
  6  7  1  0
  7  8  2  0
  8  9  1  0
  9 10  1  0
 10 11  1  0
 11 12  1  0
 12 13  2  0
 13 14  1  0
 14 15  1  0
 15 16  1  0
 16 17  1  0
 16 18  1  0
 13 19  1  0
 19 20  2  0
 20 21  1  0
 21 22  1  0
 22 23  1  0
 21 24  2  0
 24 25  1  0
 25 26  1  0
 24 27  1  0
 27 28  2  0
  8  3  1  0
 28 11  1  0
 28 19  1  0
  1 29  1  0
  1 30  1  0
  1 31  1  0
  4 32  1  0
  5 33  1  0
  6 34  1  0
  7 35  1  0
  9 36  1  0
  9 37  1  0
 10 38  1  0
 10 39  1  0
 12 40  1  0
 14 41  1  0
 14 42  1  0
 15 43  1  0
 15 44  1  0
 16 45  1  0
 17 46  1  0
 17 47  1  0
 17 48  1  0
 18 49  1  0
 18 50  1  0
 18 51  1  0
 20 52  1  0
 23 53  1  0
 23 54  1  0
 23 55  1  0
 26 56  1  0
 26 57  1  0
 26 58  1  0
 27 59  1  0
M  CHG  1  16   1
M  END
>  <UniqueID>  (1) 
1

>  <SMILES>  (1) 
COc1ccccc1CCn1cc(CC[NH+](C)C)c2cc(OC)c(OC)cc21

>  <Energy>  (1) 
85.33704225387343

>  <Genealogy>  (1) 
COc1ccccc1CCn1cc(CC[NH+](C)C)c2cc(OC)c(OC)cc21 (protonated)
COc1ccccc1CCn1cc(CC[NH+](C)C)c2cc(OC)c(OC)cc21 (3D coordinates assigned)
COc1ccccc1CCn1cc(CC[NH+](C)C)c2cc(OC)c(OC)cc21 (optimized conformer: 85.33704225387343 kcal/mol)

>  <smiles>  (1) 
COc1ccccc1CCn1cc(CCN(C)C)c2cc(OC)c(OC)cc21

>  <score_type>  (1) 
oracle

>  <origin>  (1) 
adg

>  <m_score__min__energy>  (1) 
-7.8499999999999996

>  <m_primary>  (1) 
energy

$$$$
1:0
     RDKit          3D

 60 62  0  0  0  0  0  0  0  0999 V2000
   -0.4660   22.4290  -24.1270 C   0  0  0  0  0  0  0  0  0  0  0  0
   -0.7840   23.3090  -25.2030 O   0  0  0  0  0  0  0  0  0  0  0  0
   -0.8320   24.7100  -25.1090 C   0  0  0  0  0  0  0  0  0  0  0  0
   -0.1490   25.4110  -24.0940 C   0  0  0  0  0  0  0  0  0  0  0  0
   -0.1750   26.8120  -24.0470 C   0  0  0  0  0  0  0  0  0  0  0  0
    0.5320   27.5520  -22.9490 C   0  0  0  0  0  0  0  0  0  0  0  0
   -0.9160   27.5200  -25.0000 C   0  0  0  0  0  0  0  0  0  0  0  0
   -1.6030   26.8410  -26.0070 C   0  0  0  0  0  0  0  0  0  0  0  0
   -1.5720   25.4370  -26.0750 C   0  0  0  0  0  0  0  0  0  0  0  0
   -2.3110   24.7430  -27.1590 C   0  0  0  0  0  0  0  0  0  0  0  0
   -3.7010   24.5690  -27.0750 C   0  0  0  0  0  0  0  0  0  0  0  0
   -4.3760   23.9330  -28.0670 N   0  0  0  0  0  0  0  0  0  0  0  0
   -3.7460   23.4480  -29.1760 C   0  0  0  0  0  0  0  0  0  0  0  0
   -4.5470   22.7480  -30.2140 C   0  0  0  0  0  0  0  0  0  0  0  0
   -4.3170   21.3770  -30.4920 C   0  0  0  0  0  0  0  0  0  0  0  0
   -3.2420   20.5940  -29.7770 C   0  0  0  0  0  0  0  0  0  0  0  0
   -5.1290   20.7200  -31.4280 C   0  0  0  0  0  0  0  0  0  0  0  0
   -6.1090   21.4090  -32.1450 C   0  0  0  0  0  0  0  0  0  0  0  0
   -6.8700   20.6950  -33.0780 O   0  0  0  0  0  0  0  0  0  0  0  0
   -8.0200   19.9170  -32.7530 C   0  0  0  0  0  0  0  0  0  0  0  0
   -7.6140   18.4600  -32.4620 C   0  0  2  0  0  0  0  0  0  0  0  0
   -6.8480   18.3870  -31.2840 O   0  0  0  0  0  0  0  0  0  0  0  0
   -6.8620   17.8070  -33.6320 C   0  0  0  0  0  0  0  0  0  0  0  0
   -5.5420   18.2780  -33.6740 O   0  0  0  0  0  0  0  0  0  0  0  0
   -6.3040   22.7780  -31.9010 C   0  0  0  0  0  0  0  0  0  0  0  0
   -5.5400   23.4530  -30.9360 C   0  0  0  0  0  0  0  0  0  0  0  0
   -5.8030   24.9130  -30.6670 C   0  0  0  0  0  0  0  0  0  0  0  0
   -2.3450   23.5910  -29.3050 C   0  0  0  0  0  0  0  0  0  0  0  0
   -1.5860   22.9910  -30.4610 C   0  0  0  0  0  0  0  0  0  0  0  0
   -1.6370   24.2250  -28.2750 C   0  0  0  0  0  0  0  0  0  0  0  0
   -0.6502   22.9387  -23.1698 H   0  0  0  0  0  0  0  0  0  0  0  0
   -1.0959   21.5295  -24.1906 H   0  0  0  0  0  0  0  0  0  0  0  0
    0.5934   22.1400  -24.1906 H   0  0  0  0  0  0  0  0  0  0  0  0
    0.4110   24.8520  -23.3299 H   0  0  0  0  0  0  0  0  0  0  0  0
    0.1806   27.1842  -21.9737 H   0  0  0  0  0  0  0  0  0  0  0  0
    1.6161   27.3866  -23.0343 H   0  0  0  0  0  0  0  0  0  0  0  0
    0.3173   28.6275  -23.0343 H   0  0  0  0  0  0  0  0  0  0  0  0
   -0.9571   28.6183  -24.9550 H   0  0  0  0  0  0  0  0  0  0  0  0
   -2.1746   27.4099  -26.7551 H   0  0  0  0  0  0  0  0  0  0  0  0
   -4.2474   24.9503  -26.1998 H   0  0  0  0  0  0  0  0  0  0  0  0
   -5.4120   23.8150  -27.9650 H   0  0  0  0  0  0  0  0  0  0  0  0
   -3.3779   20.6930  -28.6899 H   0  0  0  0  0  0  0  0  0  0  0  0
   -3.3113   19.5333  -30.0601 H   0  0  0  0  0  0  0  0  0  0  0  0
   -2.2537   20.9853  -30.0601 H   0  0  0  0  0  0  0  0  0  0  0  0
   -4.9912   19.6423  -31.6003 H   0  0  0  0  0  0  0  0  0  0  0  0
   -8.5067   20.3428  -31.8632 H   0  0  0  0  0  0  0  0  0  0  0  0
   -8.7149   19.9317  -33.6056 H   0  0  0  0  0  0  0  0  0  0  0  0
   -8.5462   17.8923  -32.3250 H   0  0  0  0  0  0  0  0  0  0  0  0
   -5.8880   18.4030  -31.5440 H   0  0  0  0  0  0  0  0  0  0  0  0
   -6.8555   16.7153  -33.4973 H   0  0  0  0  0  0  0  0  0  0  0  0
   -7.3676   18.0627  -34.5749 H   0  0  0  0  0  0  0  0  0  0  0  0
   -5.4900   19.0070  -32.9990 H   0  0  0  0  0  0  0  0  0  0  0  0
   -7.0651   23.3285  -32.4733 H   0  0  0  0  0  0  0  0  0  0  0  0
   -5.8342   25.0860  -29.5811 H   0  0  0  0  0  0  0  0  0  0  0  0
   -4.9994   25.5183  -31.1118 H   0  0  0  0  0  0  0  0  0  0  0  0
   -6.7673   25.1999  -31.1118 H   0  0  0  0  0  0  0  0  0  0  0  0
   -0.7775   22.3519  -30.0766 H   0  0  0  0  0  0  0  0  0  0  0  0
   -2.2703   22.3871  -31.0750 H   0  0  0  0  0  0  0  0  0  0  0  0
   -1.1564   23.7962  -31.0750 H   0  0  0  0  0  0  0  0  0  0  0  0
   -0.5429   24.3173  -28.3422 H   0  0  0  0  0  0  0  0  0  0  0  0
  1  2  1  0
  2  3  1  0
  3  4  2  0
  4  5  1  0
  5  6  1  0
  5  7  2  0
  7  8  1  0
  8  9  2  0
  9 10  1  0
 10 11  2  0
 11 12  1  0
 12 13  2  0
 13 14  1  0
 14 15  2  0
 15 16  1  0
 15 17  1  0
 17 18  2  0
 18 19  1  0
 19 20  1  0
 20 21  1  0
 21 22  1  0
 21 23  1  0
 23 24  1  0
 18 25  1  0
 25 26  2  0
 26 27  1  0
 13 28  1  0
 28 29  1  0
 28 30  2  0
  9  3  1  0
 30 10  1  0
 26 14  1  0
  1 31  1  0
  1 32  1  0
  1 33  1  0
  4 34  1  0
  6 35  1  0
  6 36  1  0
  6 37  1  0
  7 38  1  0
  8 39  1  0
 11 40  1  0
 12 41  1  0
 16 42  1  0
 16 43  1  0
 16 44  1  0
 17 45  1  0
 20 46  1  0
 20 47  1  0
 21 48  1  1
 22 49  1  0
 23 50  1  0
 23 51  1  0
 24 52  1  0
 25 53  1  0
 27 54  1  0
 27 55  1  0
 27 56  1  0
 29 57  1  0
 29 58  1  0
 29 59  1  0
 30 60  1  0
M  CHG  1  12   1
M  END
>  <UniqueID>  (2) 
2

>  <SMILES>  (2) 
COc1cc(C)ccc1-c1c[nH+]c(-c2c(C)cc(OC[C@H](O)CO)cc2C)c(C)c1

>  <Energy>  (2) 
73.0633993986911

>  <Genealogy>  (2) 
COc1cc(C)ccc1-c1c[nH+]c(-c2c(C)cc(OCC(O)CO)cc2C)c(C)c1 (protonated)
COc1cc(C)ccc1-c1c[nH+]c(-c2c(C)cc(OC[C@H](O)CO)cc2C)c(C)c1 (chirality)
COc1cc(C)ccc1-c1c[nH+]c(-c2c(C)cc(OC[C@H](O)CO)cc2C)c(C)c1 (3D coordinates assigned)
COc1cc(C)ccc1-c1c[nH+]c(-c2c(C)cc(OC[C@H](O)CO)cc2C)c(C)c1 (optimized conformer: 73.0633993986911 kcal/mol)

>  <smiles>  (2) 
COc1cc(C)ccc1-c1cnc(-c2c(C)cc(OCC(O)CO)cc2C)c(C)c1

>  <score_type>  (2) 
oracle

>  <origin>  (2) 
adg

>  <m_score__min__energy>  (2) 
-6.9500000000000002

>  <m_primary>  (2) 
energy

$$$$
2:0
     RDKit          3D

 36 38  0  0  0  0  0  0  0  0999 V2000
   -6.8630   18.8610  -34.6200 H   0  0  0  0  0  0  0  0  0  0  0  0
   -6.6630   19.6340  -33.9470 N   0  0  0  0  0  0  0  0  0  0  0  0
   -7.5600   20.4210  -33.4330 O   0  0  0  0  0  0  0  0  0  0  0  0
   -7.0020   21.2920  -32.6230 C   0  0  0  0  0  0  0  0  0  0  0  0
   -7.7640   22.3500  -31.8810 C   0  0  0  0  0  0  0  0  0  0  0  0
   -7.2247   23.2080  -32.3088 H   0  0  0  0  0  0  0  0  0  0  0  0
   -9.2260   22.0220  -31.6170 C   0  0  0  0  0  0  0  0  0  0  0  0
   -9.9789   22.8240  -31.6216 H   0  0  0  0  0  0  0  0  0  0  0  0
   -9.9594   21.3305  -32.0575 H   0  0  0  0  0  0  0  0  0  0  0  0
   -8.2150   21.9370  -30.4880 C   0  0  0  0  0  0  0  0  0  0  0  0
   -8.2355   22.6774  -29.6747 H   0  0  0  0  0  0  0  0  0  0  0  0
   -7.9129   21.1585  -29.7720 H   0  0  0  0  0  0  0  0  0  0  0  0
   -5.6290   21.0730  -32.6060 C   0  0  0  0  0  0  0  0  0  0  0  0
   -4.5950   21.8210  -31.8580 C   0  0  0  0  0  0  0  0  0  0  0  0
   -4.7990   23.1210  -31.5220 N   0  0  0  0  0  0  0  0  0  0  0  0
   -3.8580   23.8120  -30.8310 C   0  0  0  0  0  0  0  0  0  0  0  0
   -4.0830   25.0530  -30.5140 N   0  0  0  0  0  0  0  0  0  0  0  0
   -5.3900   25.7060  -30.5560 C   0  0  0  0  0  0  0  0  0  0  0  0
   -5.7444   25.7372  -31.5969 H   0  0  0  0  0  0  0  0  0  0  0  0
   -5.2881   26.7255  -30.1558 H   0  0  0  0  0  0  0  0  0  0  0  0
   -6.4030   24.9450  -29.7050 C   0  0  0  0  0  0  0  0  0  0  0  0
   -6.1840   25.1095  -28.6396 H   0  0  0  0  0  0  0  0  0  0  0  0
   -7.4170   25.3066  -29.9310 H   0  0  0  0  0  0  0  0  0  0  0  0
   -6.3381   23.8704  -29.9310 H   0  0  0  0  0  0  0  0  0  0  0  0
   -2.6990   23.1960  -30.4750 N   0  0  0  0  0  0  0  0  0  0  0  0
   -2.4800   21.9020  -30.8200 C   0  0  0  0  0  0  0  0  0  0  0  0
   -1.2230   21.2170  -30.3980 C   0  0  0  0  0  0  0  0  0  0  0  0
   -1.1717   21.1890  -29.2996 H   0  0  0  0  0  0  0  0  0  0  0  0
   -1.2152   20.1899  -30.7917 H   0  0  0  0  0  0  0  0  0  0  0  0
   -0.3557   21.7672  -30.7917 H   0  0  0  0  0  0  0  0  0  0  0  0
   -3.4330   21.2150  -31.5010 N   0  0  0  0  0  0  0  0  0  0  0  0
   -5.4580   19.9960  -33.4680 C   0  0  0  0  0  0  0  0  0  0  0  0
   -4.1760   19.3230  -33.8440 C   0  0  0  0  0  0  0  0  0  0  0  0
   -3.6310   19.0369  -32.9324 H   0  0  0  0  0  0  0  0  0  0  0  0
   -4.3946   18.4234  -34.4381 H   0  0  0  0  0  0  0  0  0  0  0  0
   -3.5597   20.0139  -34.4381 H   0  0  0  0  0  0  0  0  0  0  0  0
  1  2  1  0
  2  3  1  0
  3  4  1  0
  4  5  1  0
  5  6  1  0
  5  7  1  0
  7  8  1  0
  7  9  1  0
  7 10  1  0
 10 11  1  0
 10 12  1  0
  4 13  2  0
 13 14  1  0
 14 15  2  0
 15 16  1  0
 16 17  2  0
 17 18  1  0
 18 19  1  0
 18 20  1  0
 18 21  1  0
 21 22  1  0
 21 23  1  0
 21 24  1  0
 16 25  1  0
 25 26  2  0
 26 27  1  0
 27 28  1  0
 27 29  1  0
 27 30  1  0
 26 31  1  0
 13 32  1  0
 32 33  1  0
 33 34  1  0
 33 35  1  0
 33 36  1  0
 32  2  2  0
 10  5  1  0
 31 14  1  0
M  CHG  2   2   1  31  -1
M  END
>  <UniqueID>  (3) 
3

>  <SMILES>  (3) 
CC/N=c1\nc(C)[n-]c(-c2c(C)[nH+]oc2C2CC2)n1

>  <Energy>  (3) 
326.71366048158205

>  <Genealogy>  (3) 
CCN=c1nc(C)[n-]c(-c2c(C)[nH+]oc2C2CC2)n1 (protonated)
CC/N=c1\nc(C)[n-]c(-c2c(C)[nH+]oc2C2CC2)n1 (cis-trans isomerization)
CC/N=c1\nc(C)[n-]c(-c2c(C)[nH+]oc2C2CC2)n1 (3D coordinates assigned)
CC/N=c1\nc(C)[n-]c(-c2c(C)[nH+]oc2C2CC2)n1 (nonaromatic ring conformer: 326.71366048158205 kcal/mol)

>  <smiles>  (3) 
CCN=c1nc(C)[nH]c(-c2c(C)noc2C2CC2)n1

>  <score_type>  (3) 
oracle

>  <origin>  (3) 
adg

>  <m_score__min__energy>  (3) 
-7.5

>  <m_primary>  (3) 
energy

$$$$
3:0
     RDKit          3D

 50 52  0  0  0  0  0  0  0  0999 V2000
   -2.6230   24.5270  -29.3350 C   0  0  0  0  0  0  0  0  0  0  0  0
   -3.4640   24.7930  -30.4520 O   0  0  0  0  0  0  0  0  0  0  0  0
   -4.7870   24.3420  -30.5810 C   0  0  0  0  0  0  0  0  0  0  0  0
   -5.8820   25.1090  -30.1380 C   0  0  0  0  0  0  0  0  0  0  0  0
   -7.1880   24.6450  -30.3190 C   0  0  0  0  0  0  0  0  0  0  0  0
   -7.4170   23.4160  -30.9410 C   0  0  0  0  0  0  0  0  0  0  0  0
   -6.3400   22.6420  -31.3720 C   0  0  0  0  0  0  0  0  0  0  0  0
   -5.0240   23.0900  -31.1860 C   0  0  0  0  0  0  0  0  0  0  0  0
   -3.9350   22.2660  -31.6310 N   0  0  0  0  0  0  0  0  0  0  0  0
   -3.8530   21.8760  -33.0420 C   0  0  0  0  0  0  0  0  0  0  0  0
   -2.4110   21.5310  -33.4670 C   0  0  0  0  0  0  0  0  0  0  0  0
   -1.6270   20.7840  -32.4520 N   0  0  0  0  0  0  0  0  0  0  0  0
   -1.8720   19.3470  -32.3840 C   0  0  0  0  0  0  0  0  0  0  0  0
   -1.2280   18.6830  -31.5830 O   0  0  0  0  0  0  0  0  0  0  0  0
   -2.8910   18.6330  -33.2510 C   0  0  0  0  0  0  0  0  0  0  0  0
   -4.1860   18.6840  -32.6770 O   0  0  0  0  0  0  0  0  0  0  0  0
   -5.1860   18.7180  -33.6790 C   0  0  0  0  0  0  0  0  0  0  0  0
   -6.5450   18.9520  -33.0700 C   0  0  0  0  0  0  0  0  0  0  0  0
   -7.2270   20.1560  -33.3140 C   0  0  0  0  0  0  0  0  0  0  0  0
   -8.4820   20.3800  -32.7430 C   0  0  0  0  0  0  0  0  0  0  0  0
   -9.0620   19.4110  -31.9190 C   0  0  0  0  0  0  0  0  0  0  0  0
   -8.3870   18.2140  -31.6670 C   0  0  0  0  0  0  0  0  0  0  0  0
   -7.1310   17.9820  -32.2380 C   0  0  0  0  0  0  0  0  0  0  0  0
   -1.6970   21.4120  -31.1190 C   0  0  0  0  0  0  0  0  0  0  0  0
   -3.1360   21.5610  -30.6290 C   0  0  0  0  0  0  0  0  0  0  0  0
   -3.1824   24.7039  -28.4045 H   0  0  0  0  0  0  0  0  0  0  0  0
   -2.2892   23.4794  -29.3686 H   0  0  0  0  0  0  0  0  0  0  0  0
   -1.7475   25.1921  -29.3686 H   0  0  0  0  0  0  0  0  0  0  0  0
   -5.7086   26.0780  -29.6471 H   0  0  0  0  0  0  0  0  0  0  0  0
   -8.0380   25.2499  -29.9704 H   0  0  0  0  0  0  0  0  0  0  0  0
   -8.4464   23.0585  -31.0910 H   0  0  0  0  0  0  0  0  0  0  0  0
   -6.5238   21.6739  -31.8610 H   0  0  0  0  0  0  0  0  0  0  0  0
   -4.4907   20.9944  -33.2037 H   0  0  0  0  0  0  0  0  0  0  0  0
   -4.1894   22.7295  -33.6489 H   0  0  0  0  0  0  0  0  0  0  0  0
   -2.4599   20.9196  -34.3801 H   0  0  0  0  0  0  0  0  0  0  0  0
   -1.8931   22.4900  -33.6154 H   0  0  0  0  0  0  0  0  0  0  0  0
   -0.6290   20.8780  -32.7610 H   0  0  0  0  0  0  0  0  0  0  0  0
   -2.9189   19.1138  -34.2400 H   0  0  0  0  0  0  0  0  0  0  0  0
   -2.5925   17.5778  -33.3378 H   0  0  0  0  0  0  0  0  0  0  0  0
   -4.9620   19.5314  -34.3848 H   0  0  0  0  0  0  0  0  0  0  0  0
   -5.1952   17.7500  -34.2014 H   0  0  0  0  0  0  0  0  0  0  0  0
   -6.7715   20.9241  -33.9563 H   0  0  0  0  0  0  0  0  0  0  0  0
   -9.0153   21.3212  -32.9422 H   0  0  0  0  0  0  0  0  0  0  0  0
  -10.0496   19.5909  -31.4692 H   0  0  0  0  0  0  0  0  0  0  0  0
   -8.8441   17.4523  -31.0182 H   0  0  0  0  0  0  0  0  0  0  0  0
   -6.6013   17.0394  -32.0357 H   0  0  0  0  0  0  0  0  0  0  0  0
   -1.1414   20.7881  -30.4034 H   0  0  0  0  0  0  0  0  0  0  0  0
   -1.2592   22.4182  -31.1952 H   0  0  0  0  0  0  0  0  0  0  0  0
   -3.5668   20.5639  -30.4553 H   0  0  0  0  0  0  0  0  0  0  0  0
   -3.1407   22.1377  -29.6923 H   0  0  0  0  0  0  0  0  0  0  0  0
  1  2  1  0
  2  3  1  0
  3  4  2  0
  4  5  1  0
  5  6  2  0
  6  7  1  0
  7  8  2  0
  8  9  1  0
  9 10  1  0
 10 11  1  0
 11 12  1  0
 12 13  1  0
 13 14  2  0
 13 15  1  0
 15 16  1  0
 16 17  1  0
 17 18  1  0
 18 19  2  0
 19 20  1  0
 20 21  2  0
 21 22  1  0
 22 23  2  0
 12 24  1  0
 24 25  1  0
  8  3  1  0
 25  9  1  0
 23 18  1  0
  1 26  1  0
  1 27  1  0
  1 28  1  0
  4 29  1  0
  5 30  1  0
  6 31  1  0
  7 32  1  0
 10 33  1  0
 10 34  1  0
 11 35  1  0
 11 36  1  0
 12 37  1  0
 15 38  1  0
 15 39  1  0
 17 40  1  0
 17 41  1  0
 19 42  1  0
 20 43  1  0
 21 44  1  0
 22 45  1  0
 23 46  1  0
 24 47  1  0
 24 48  1  0
 25 49  1  0
 25 50  1  0
M  CHG  1  12   1
M  END
>  <UniqueID>  (4) 
4

>  <SMILES>  (4) 
COc1ccccc1N1CC[NH+](C(=O)COCc2ccccc2)CC1

>  <Energy>  (4) 
65.10506631255248

>  <Genealogy>  (4) 
COc1ccccc1N1CC[NH+](C(=O)COCc2ccccc2)CC1 (protonated)
COc1ccccc1N1CC[NH+](C(=O)COCc2ccccc2)CC1 (3D coordinates assigned)
COc1ccccc1N1CC[NH+](C(=O)COCc2ccccc2)CC1 (nonaromatic ring conformer: 65.10506631255248 kcal/mol)

>  <smiles>  (4) 
COc1ccccc1N1CCN(C(=O)COCc2ccccc2)CC1

>  <score_type>  (4) 
oracle

>  <origin>  (4) 
adg

>  <m_score__min__energy>  (4) 
-7.6699999999999999

>  <m_primary>  (4) 
energy

$$$$
4:0
     RDKit          3D

 51 54  0  0  0  0  0  0  0  0999 V2000
   -4.9320   25.0200  -30.3720 C   0  0  0  0  0  0  0  0  0  0  0  0
   -3.5390   25.2690  -30.2060 O   0  0  0  0  0  0  0  0  0  0  0  0
   -2.6220   24.3350  -29.7010 C   0  0  0  0  0  0  0  0  0  0  0  0
   -1.8520   24.6950  -28.5910 C   0  0  0  0  0  0  0  0  0  0  0  0
   -0.9220   23.8030  -28.0530 C   0  0  0  0  0  0  0  0  0  0  0  0
   -0.7540   22.5380  -28.6190 C   0  0  0  0  0  0  0  0  0  0  0  0
   -1.5230   22.1490  -29.7290 C   0  0  0  0  0  0  0  0  0  0  0  0
   -1.3270   20.7820  -30.3490 C   0  0  2  0  0  0  0  0  0  0  0  0
   -0.6090   19.8240  -29.3930 C   0  0  0  0  0  0  0  0  0  0  0  0
    0.3420   19.0510  -30.2780 C   0  0  0  0  0  0  0  0  0  0  0  0
    0.6620   20.0160  -31.4000 C   0  0  0  0  0  0  0  0  0  0  0  0
   -0.5070   20.8890  -31.5720 N   0  0  0  0  0  0  0  0  0  0  0  0
   -1.2490   20.6870  -32.8430 C   0  0  0  0  0  0  0  0  0  0  0  0
   -2.7630   20.7060  -32.7100 C   0  0  0  0  0  0  0  0  0  0  0  0
   -3.4730   21.9130  -32.8280 C   0  0  0  0  0  0  0  0  0  0  0  0
   -4.8650   21.9350  -32.7090 C   0  0  0  0  0  0  0  0  0  0  0  0
   -5.5830   20.7460  -32.4950 C   0  0  0  0  0  0  0  0  0  0  0  0
   -7.0620   20.7670  -32.3630 C   0  0  0  0  0  0  0  0  0  0  0  0
   -7.7240   21.9200  -31.9010 C   0  0  0  0  0  0  0  0  0  0  0  0
   -9.1170   21.9360  -31.7790 C   0  0  0  0  0  0  0  0  0  0  0  0
   -9.8630   20.8040  -32.1140 C   0  0  0  0  0  0  0  0  0  0  0  0
   -9.2180   19.6530  -32.5720 C   0  0  0  0  0  0  0  0  0  0  0  0
   -7.8250   19.6330  -32.6980 C   0  0  0  0  0  0  0  0  0  0  0  0
   -4.8770   19.5330  -32.4220 C   0  0  0  0  0  0  0  0  0  0  0  0
   -3.4840   19.5120  -32.5420 C   0  0  0  0  0  0  0  0  0  0  0  0
   -2.4530   23.0580  -30.2710 C   0  0  0  0  0  0  0  0  0  0  0  0
   -5.4094   24.9347  -29.3847 H   0  0  0  0  0  0  0  0  0  0  0  0
   -5.3891   25.8507  -30.9297 H   0  0  0  0  0  0  0  0  0  0  0  0
   -5.0730   24.0824  -30.9297 H   0  0  0  0  0  0  0  0  0  0  0  0
   -1.9798   25.6891  -28.1377 H   0  0  0  0  0  0  0  0  0  0  0  0
   -0.3201   24.0979  -27.1808 H   0  0  0  0  0  0  0  0  0  0  0  0
   -0.0158   21.8421  -28.1939 H   0  0  0  0  0  0  0  0  0  0  0  0
   -2.3287   20.3898  -30.5787 H   0  0  0  0  0  0  0  0  0  0  0  0
   -0.0567   20.3835  -28.6236 H   0  0  0  0  0  0  0  0  0  0  0  0
   -1.3081   19.1670  -28.8548 H   0  0  0  0  0  0  0  0  0  0  0  0
    1.2533   18.7758  -29.7268 H   0  0  0  0  0  0  0  0  0  0  0  0
   -0.0896   18.1066  -30.6412 H   0  0  0  0  0  0  0  0  0  0  0  0
    1.5455   20.6170  -31.1391 H   0  0  0  0  0  0  0  0  0  0  0  0
    0.8822   19.4722  -32.3305 H   0  0  0  0  0  0  0  0  0  0  0  0
   -0.9571   21.4865  -33.5399 H   0  0  0  0  0  0  0  0  0  0  0  0
   -0.9831   19.6807  -33.1989 H   0  0  0  0  0  0  0  0  0  0  0  0
   -2.9276   22.8496  -33.0159 H   0  0  0  0  0  0  0  0  0  0  0  0
   -5.4035   22.8913  -32.7835 H   0  0  0  0  0  0  0  0  0  0  0  0
   -7.1418   22.8144  -31.6342 H   0  0  0  0  0  0  0  0  0  0  0  0
   -9.6261   22.8420  -31.4185 H   0  0  0  0  0  0  0  0  0  0  0  0
  -10.9586   20.8189  -32.0172 H   0  0  0  0  0  0  0  0  0  0  0  0
   -9.8061   18.7611  -32.8340 H   0  0  0  0  0  0  0  0  0  0  0  0
   -7.3225   18.7245  -33.0615 H   0  0  0  0  0  0  0  0  0  0  0  0
   -5.4252   18.5916  -32.2691 H   0  0  0  0  0  0  0  0  0  0  0  0
   -2.9480   18.5522  -32.5045 H   0  0  0  0  0  0  0  0  0  0  0  0
   -3.0522   22.7680  -31.1467 H   0  0  0  0  0  0  0  0  0  0  0  0
  1  2  1  0
  2  3  1  0
  3  4  2  0
  4  5  1  0
  5  6  2  0
  6  7  1  0
  7  8  1  0
  8  9  1  0
  9 10  1  0
 10 11  1  0
 11 12  1  0
 12 13  1  0
 13 14  1  0
 14 15  2  0
 15 16  1  0
 16 17  2  0
 17 18  1  0
 18 19  2  0
 19 20  1  0
 20 21  2  0
 21 22  1  0
 22 23  2  0
 17 24  1  0
 24 25  2  0
  7 26  2  0
 26  3  1  0
 12  8  1  0
 25 14  1  0
 23 18  1  0
  1 27  1  0
  1 28  1  0
  1 29  1  0
  4 30  1  0
  5 31  1  0
  6 32  1  0
  8 33  1  6
  9 34  1  0
  9 35  1  0
 10 36  1  0
 10 37  1  0
 11 38  1  0
 11 39  1  0
 13 40  1  0
 13 41  1  0
 15 42  1  0
 16 43  1  0
 19 44  1  0
 20 45  1  0
 21 46  1  0
 22 47  1  0
 23 48  1  0
 24 49  1  0
 25 50  1  0
 26 51  1  0
M  END
>  <UniqueID>  (5) 
5

>  <SMILES>  (5) 
COc1cccc([C@@H]2CCCN2Cc2ccc(-c3ccccc3)cc2)c1

>  <Energy>  (5) 
66.23719497323239

>  <Genealogy>  (5) 
COc1cccc([C@@H]2CCCN2Cc2ccc(-c3ccccc3)cc2)c1 (chirality)
COc1cccc([C@@H]2CCCN2Cc2ccc(-c3ccccc3)cc2)c1 (3D coordinates assigned)
COc1cccc([C@@H]2CCCN2Cc2ccc(-c3ccccc3)cc2)c1 (nonaromatic ring conformer: 66.23719497323239 kcal/mol)

>  <smiles>  (5) 
COc1cccc(C2CCCN2Cc2ccc(-c3ccccc3)cc2)c1

>  <score_type>  (5) 
oracle

>  <origin>  (5) 
adg

>  <m_score__min__energy>  (5) 
-9.0500000000000007

>  <m_primary>  (5) 
energy

$$$$
5:0
     RDKit          3D

 28 29  0  0  0  0  0  0  0  0999 V2000
   -9.5100   20.6980  -32.2670 C   0  0  0  0  0  0  0  0  0  0  0  0
   -9.3610   21.6260  -31.3160 C   0  0  0  0  0  0  0  0  0  0  0  0
   -8.1150   21.7230  -30.4800 C   0  0  0  0  0  0  0  0  0  0  0  0
   -7.0120   22.3610  -31.2200 N   0  0  0  0  0  0  0  0  0  0  0  0
   -7.0590   23.7960  -31.4840 C   0  0  0  0  0  0  0  0  0  0  0  0
   -6.1740   24.5240  -30.4890 C   0  0  0  0  0  0  0  0  0  0  0  0
   -4.7160   24.3720  -30.7910 C   0  0  0  0  0  0  0  0  0  0  0  0
   -3.9360   25.2850  -30.4120 O   0  0  0  0  0  0  0  0  0  0  0  0
   -4.1530   23.2700  -31.5190 N   0  0  0  0  0  0  0  0  0  0  0  0
   -4.6500   21.9960  -31.9680 C   0  0  0  0  0  0  0  0  0  0  0  0
   -3.7140   21.1610  -32.5960 C   0  0  0  0  0  0  0  0  0  0  0  0
   -4.0820   19.9110  -33.0970 C   0  0  0  0  0  0  0  0  0  0  0  0
   -2.8880   18.8880  -33.8730 Cl  0  0  0  0  0  0  0  0  0  0  0  0
   -5.3990   19.4780  -32.9760 C   0  0  0  0  0  0  0  0  0  0  0  0
   -6.3480   20.2910  -32.3590 C   0  0  0  0  0  0  0  0  0  0  0  0
   -5.9990   21.5600  -31.8530 C   0  0  0  0  0  0  0  0  0  0  0  0
  -10.4372   20.6597  -32.8576 H   0  0  0  0  0  0  0  0  0  0  0  0
   -8.7054   19.9729  -32.4587 H   0  0  0  0  0  0  0  0  0  0  0  0
  -10.1770   22.3422  -31.1394 H   0  0  0  0  0  0  0  0  0  0  0  0
   -8.3336   22.3190  -29.5817 H   0  0  0  0  0  0  0  0  0  0  0  0
   -7.8027   20.7036  -30.2095 H   0  0  0  0  0  0  0  0  0  0  0  0
   -6.7009   23.9926  -32.5053 H   0  0  0  0  0  0  0  0  0  0  0  0
   -8.0945   24.1532  -31.3828 H   0  0  0  0  0  0  0  0  0  0  0  0
   -6.4277   25.5941  -30.5101 H   0  0  0  0  0  0  0  0  0  0  0  0
   -6.3552   24.0814  -29.4984 H   0  0  0  0  0  0  0  0  0  0  0  0
   -2.6714   21.4972  -32.6955 H   0  0  0  0  0  0  0  0  0  0  0  0
   -5.6914   18.4926  -33.3679 H   0  0  0  0  0  0  0  0  0  0  0  0
   -7.3853   19.9373  -32.2653 H   0  0  0  0  0  0  0  0  0  0  0  0
  1  2  2  0
  2  3  1  0
  3  4  1  0
  4  5  1  0
  5  6  1  0
  6  7  1  0
  7  8  2  0
  7  9  1  0
  9 10  1  0
 10 11  2  0
 11 12  1  0
 12 13  1  0
 12 14  2  0
 14 15  1  0
 15 16  2  0
 16  4  1  0
 16 10  1  0
  1 17  1  0
  1 18  1  0
  2 19  1  0
  3 20  1  0
  3 21  1  0
  5 22  1  0
  5 23  1  0
  6 24  1  0
  6 25  1  0
 11 26  1  0
 14 27  1  0
 15 28  1  0
M  CHG  1   9  -1
M  END
>  <UniqueID>  (6) 
6

>  <SMILES>  (6) 
C=CCN1CCC(=O)[N-]c2cc(Cl)ccc21

>  <Energy>  (6) 
37.123193596093145

>  <Genealogy>  (6) 
C=CCN1CCC(=O)[N-]c2cc(Cl)ccc21 (protonated)
C=CCN1CCC(=O)[N-]c2cc(Cl)ccc21 (3D coordinates assigned)
C=CCN1CCC(=O)[N-]c2cc(Cl)ccc21 (nonaromatic ring conformer: 37.123193596093145 kcal/mol)

>  <smiles>  (6) 
C=CCN1CCC(=O)Nc2cc(Cl)ccc21

>  <score_type>  (6) 
oracle

>  <origin>  (6) 
adg

>  <m_score__min__energy>  (6) 
-6.25

>  <m_primary>  (6) 
energy

$$$$
6:0
     RDKit          3D

 47 49  0  0  0  0  0  0  0  0999 V2000
   -2.2420   24.6750  -28.7150 C   0  0  0  0  0  0  0  0  0  0  0  0
   -3.1250   25.1790  -29.7110 O   0  0  0  0  0  0  0  0  0  0  0  0
   -4.3110   24.5460  -30.1120 C   0  0  0  0  0  0  0  0  0  0  0  0
   -5.3290   25.2220  -30.8130 C   0  0  0  0  0  0  0  0  0  0  0  0
   -6.4930   24.5450  -31.1890 C   0  0  0  0  0  0  0  0  0  0  0  0
   -6.6580   23.1930  -30.8710 C   0  0  0  0  0  0  0  0  0  0  0  0
   -8.1210   22.3500  -31.3750 S   0  0  0  0  0  0  0  0  0  0  0  0
   -9.1410   23.3700  -31.8000 O   0  0  0  0  0  0  0  0  0  0  0  0
   -8.6830   21.5580  -30.2260 O   0  0  0  0  0  0  0  0  0  0  0  0
   -7.7630   21.2840  -32.7120 N   0  0  0  0  0  0  0  0  0  0  0  0
   -6.3470   20.8630  -32.6530 C   0  0  0  0  0  0  0  0  0  0  0  0
   -6.1120   19.6000  -33.4910 C   0  0  0  0  0  0  0  0  0  0  0  0
   -6.9240   18.4470  -33.0130 N   0  0  0  0  0  0  0  0  0  0  0  0
   -6.1120   17.5290  -32.2360 C   0  0  0  0  0  0  0  0  0  0  0  0
   -6.1350   17.5760  -31.0110 O   0  0  0  0  0  0  0  0  0  0  0  0
   -5.2270   16.5060  -32.9100 C   0  0  1  0  0  0  0  0  0  0  0  0
   -4.9960   15.2980  -32.0190 C   0  0  0  0  0  0  0  0  0  0  0  0
   -4.8310   14.1920  -33.0140 C   0  0  0  0  0  0  0  0  0  0  0  0
   -5.6180   14.6830  -34.2150 C   0  0  0  0  0  0  0  0  0  0  0  0
   -5.8180   16.0760  -34.1140 O   0  0  0  0  0  0  0  0  0  0  0  0
   -8.1200   18.8470  -32.2300 C   0  0  0  0  0  0  0  0  0  0  0  0
   -8.7240   20.1550  -32.7640 C   0  0  0  0  0  0  0  0  0  0  0  0
   -5.6440   22.5160  -30.1780 C   0  0  0  0  0  0  0  0  0  0  0  0
   -4.4800   23.1920  -29.8000 C   0  0  0  0  0  0  0  0  0  0  0  0
   -2.6448   24.9049  -27.7176 H   0  0  0  0  0  0  0  0  0  0  0  0
   -2.1446   23.5852  -28.8288 H   0  0  0  0  0  0  0  0  0  0  0  0
   -1.2541   25.1453  -28.8288 H   0  0  0  0  0  0  0  0  0  0  0  0
   -5.2077   26.2858  -31.0653 H   0  0  0  0  0  0  0  0  0  0  0  0
   -7.2832   25.0784  -31.7378 H   0  0  0  0  0  0  0  0  0  0  0  0
   -5.7142   21.6748  -33.0411 H   0  0  0  0  0  0  0  0  0  0  0  0
   -6.0915   20.6409  -31.6064 H   0  0  0  0  0  0  0  0  0  0  0  0
   -6.3811   19.8134  -34.5360 H   0  0  0  0  0  0  0  0  0  0  0  0
   -5.0506   19.3264  -33.3980 H   0  0  0  0  0  0  0  0  0  0  0  0
   -7.2710   17.9470  -33.8660 H   0  0  0  0  0  0  0  0  0  0  0  0
   -4.2586   16.9871  -33.1119 H   0  0  0  0  0  0  0  0  0  0  0  0
   -4.0900   15.4218  -31.4076 H   0  0  0  0  0  0  0  0  0  0  0  0
   -5.8073   15.1226  -31.2972 H   0  0  0  0  0  0  0  0  0  0  0  0
   -3.7711   14.0470  -33.2699 H   0  0  0  0  0  0  0  0  0  0  0  0
   -5.1809   13.2191  -32.6384 H   0  0  0  0  0  0  0  0  0  0  0  0
   -5.0584   14.4595  -35.1353 H   0  0  0  0  0  0  0  0  0  0  0  0
   -6.5936   14.1756  -34.2441 H   0  0  0  0  0  0  0  0  0  0  0  0
   -8.8752   18.0500  -32.2967 H   0  0  0  0  0  0  0  0  0  0  0  0
   -7.8142   19.0064  -31.1854 H   0  0  0  0  0  0  0  0  0  0  0  0
   -9.0322   20.0012  -33.8087 H   0  0  0  0  0  0  0  0  0  0  0  0
   -9.5811   20.4142  -32.1250 H   0  0  0  0  0  0  0  0  0  0  0  0
   -5.7647   21.4508  -29.9313 H   0  0  0  0  0  0  0  0  0  0  0  0
   -3.6907   22.6555  -29.2530 H   0  0  0  0  0  0  0  0  0  0  0  0
  1  2  1  0
  2  3  1  0
  3  4  2  0
  4  5  1  0
  5  6  2  0
  6  7  1  0
  7  8  2  0
  7  9  2  0
  7 10  1  0
 10 11  1  0
 11 12  1  0
 12 13  1  0
 13 14  1  0
 14 15  2  0
 14 16  1  0
 16 17  1  0
 17 18  1  0
 18 19  1  0
 19 20  1  0
 13 21  1  0
 21 22  1  0
  6 23  1  0
 23 24  2  0
 24  3  1  0
 22 10  1  0
 20 16  1  0
  1 25  1  0
  1 26  1  0
  1 27  1  0
  4 28  1  0
  5 29  1  0
 11 30  1  0
 11 31  1  0
 12 32  1  0
 12 33  1  0
 13 34  1  0
 16 35  1  6
 17 36  1  0
 17 37  1  0
 18 38  1  0
 18 39  1  0
 19 40  1  0
 19 41  1  0
 21 42  1  0
 21 43  1  0
 22 44  1  0
 22 45  1  0
 23 46  1  0
 24 47  1  0
M  CHG  1  13   1
M  END
>  <UniqueID>  (7) 
7

>  <SMILES>  (7) 
COc1ccc(S(=O)(=O)N2CC[NH+](C(=O)[C@H]3CCCO3)CC2)cc1

>  <Energy>  (7) 
56.5392839351473

>  <Genealogy>  (7) 
COc1ccc(S(=O)(=O)N2CC[NH+](C(=O)C3CCCO3)CC2)cc1 (protonated)
COc1ccc(S(=O)(=O)N2CC[NH+](C(=O)[C@H]3CCCO3)CC2)cc1 (chirality)
COc1ccc(S(=O)(=O)N2CC[NH+](C(=O)[C@H]3CCCO3)CC2)cc1 (3D coordinates assigned)
COc1ccc(S(=O)(=O)N2CC[NH+](C(=O)[C@H]3CCCO3)CC2)cc1 (nonaromatic ring conformer: 56.5392839351473 kcal/mol)

>  <smiles>  (7) 
COc1ccc(S(=O)(=O)N2CCN(C(=O)C3CCCO3)CC2)cc1

>  <score_type>  (7) 
oracle

>  <origin>  (7) 
adg

>  <m_score__min__energy>  (7) 
-7.9800000000000004

>  <m_primary>  (7) 
energy

$$$$
7:0
     RDKit          3D

 40 43  0  0  0  0  0  0  0  0999 V2000
   -0.8770   25.3300  -29.9020 H   0  0  0  0  0  0  0  0  0  0  0  0
   -1.6760   25.2520  -29.2320 N   0  0  0  0  0  0  0  0  0  0  0  0
   -2.7220   24.5440  -29.5090 C   0  0  0  0  0  0  0  0  0  0  0  0
   -2.6990   23.6650  -30.5470 N   0  0  0  0  0  0  0  0  0  0  0  0
   -3.7850   22.9030  -30.8600 C   0  0  0  0  0  0  0  0  0  0  0  0
   -4.9530   23.0360  -30.0870 C   0  0  0  0  0  0  0  0  0  0  0  0
   -4.9570   23.9490  -29.0260 C   0  0  0  0  0  0  0  0  0  0  0  0
   -5.8596   24.0735  -28.4097 H   0  0  0  0  0  0  0  0  0  0  0  0
   -3.8460   24.6800  -28.7590 N   0  0  0  0  0  0  0  0  0  0  0  0
   -6.0720   22.2630  -30.3880 C   0  0  0  0  0  0  0  0  0  0  0  0
   -6.9908   22.3680  -29.7924 H   0  0  0  0  0  0  0  0  0  0  0  0
   -6.0250   21.3540  -31.4480 C   0  0  0  0  0  0  0  0  0  0  0  0
   -7.2210   20.5410  -31.7660 C   0  0  0  0  0  0  0  0  0  0  0  0
   -7.1100   19.1410  -31.7980 C   0  0  0  0  0  0  0  0  0  0  0  0
   -6.1439   18.6641  -31.5762 H   0  0  0  0  0  0  0  0  0  0  0  0
   -8.2200   18.3500  -32.1100 C   0  0  0  0  0  0  0  0  0  0  0  0
   -8.1246   17.2544  -32.1346 H   0  0  0  0  0  0  0  0  0  0  0  0
   -9.4480   18.9490  -32.3900 C   0  0  0  0  0  0  0  0  0  0  0  0
  -10.3194   18.3252  -32.6380 H   0  0  0  0  0  0  0  0  0  0  0  0
   -9.5730   20.3390  -32.3560 C   0  0  0  0  0  0  0  0  0  0  0  0
  -10.5447   20.8062  -32.5739 H   0  0  0  0  0  0  0  0  0  0  0  0
   -8.4680   21.1420  -32.0460 C   0  0  0  0  0  0  0  0  0  0  0  0
   -8.6930   22.8860  -31.9670 Cl  0  0  0  0  0  0  0  0  0  0  0  0
   -4.8430   21.2440  -32.2070 C   0  0  0  0  0  0  0  0  0  0  0  0
   -4.8030   20.4150  -33.1590 O   0  0  0  0  0  0  0  0  0  0  0  0
   -3.7430   22.0170  -31.9110 N   0  0  0  0  0  0  0  0  0  0  0  0
   -2.4960   21.8670  -32.6920 C   0  0  0  0  0  0  0  0  0  0  0  0
   -2.7125   21.3126  -33.6171 H   0  0  0  0  0  0  0  0  0  0  0  0
   -2.1038   22.8662  -32.9324 H   0  0  0  0  0  0  0  0  0  0  0  0
   -1.4620   21.1160  -31.8940 C   0  0  0  0  0  0  0  0  0  0  0  0
   -0.9100   19.9290  -32.3990 C   0  0  0  0  0  0  0  0  0  0  0  0
   -1.2124   19.5542  -33.3880 H   0  0  0  0  0  0  0  0  0  0  0  0
    0.0260   19.2270  -31.6370 C   0  0  0  0  0  0  0  0  0  0  0  0
    0.4660   18.2961  -32.0239 H   0  0  0  0  0  0  0  0  0  0  0  0
    0.4010   19.7100  -30.3840 C   0  0  0  0  0  0  0  0  0  0  0  0
    1.1365   19.1634  -29.7756 H   0  0  0  0  0  0  0  0  0  0  0  0
   -0.1660   20.8940  -29.9090 C   0  0  0  0  0  0  0  0  0  0  0  0
    0.1249   21.2838  -28.9224 H   0  0  0  0  0  0  0  0  0  0  0  0
   -1.0780   21.5680  -30.6630 N   0  0  0  0  0  0  0  0  0  0  0  0
   -1.4840   22.4510  -30.2790 H   0  0  0  0  0  0  0  0  0  0  0  0
  1  2  1  0
  2  3  2  0
  3  4  1  0
  4  5  2  0
  5  6  1  0
  6  7  2  0
  7  8  1  0
  7  9  1  0
  6 10  1  0
 10 11  1  0
 10 12  2  0
 12 13  1  0
 13 14  2  0
 14 15  1  0
 14 16  1  0
 16 17  1  0
 16 18  2  0
 18 19  1  0
 18 20  1  0
 20 21  1  0
 20 22  2  0
 22 23  1  0
 12 24  1  0
 24 25  2  0
 24 26  1  0
 26 27  1  0
 27 28  1  0
 27 29  1  0
 27 30  1  0
 30 31  2  0
 31 32  1  0
 31 33  1  0
 33 34  1  0
 33 35  2  0
 35 36  1  0
 35 37  1  0
 37 38  1  0
 37 39  2  0
 39 40  1  0
  9  3  1  0
 22 13  1  0
 39 30  1  0
 26  5  1  0
M  CHG  2   9  -1  39   1
M  END
>  <UniqueID>  (8) 
8

>  <SMILES>  (8) 
[H]/N=c1\nc2c(c[n-]1)cc(-c1ccccc1Cl)c(=O)n2Cc1cccc[nH+]1

>  <Energy>  (8) 
59.90538804088858

>  <Genealogy>  (8) 
N=c1nc2c(c[n-]1)cc(-c1ccccc1Cl)c(=O)n2Cc1cccc[nH+]1 (protonated)
[H]/N=c1\nc2c(c[n-]1)cc(-c1ccccc1Cl)c(=O)n2Cc1cccc[nH+]1 (cis-trans isomerization)
[H]/N=c1\nc2c(c[n-]1)cc(-c1ccccc1Cl)c(=O)n2Cc1cccc[nH+]1 (3D coordinates assigned)
[H]/N=c1\nc2c(c[n-]1)cc(-c1ccccc1Cl)c(=O)n2Cc1cccc[nH+]1 (optimized conformer: 59.90538804088858 kcal/mol)

>  <smiles>  (8) 
N=c1nc2c(c[nH]1)cc(-c1ccccc1Cl)c(=O)n2Cc1ccccn1

>  <score_type>  (8) 
oracle

>  <origin>  (8) 
adg

>  <m_score__min__energy>  (8) 
-8.8599999999999994

>  <m_primary>  (8) 
energy

$$$$
8:0
     RDKit          3D

 53 54  0  0  0  0  0  0  0  0999 V2000
   -0.2810   19.7990  -30.9830 C   0  0  0  0  0  0  0  0  0  0  0  0
   -0.1290   21.0300  -31.8790 C   0  0  0  0  0  0  0  0  0  0  0  0
   -0.5740   20.7690  -33.2690 N   0  0  0  0  0  0  0  0  0  0  0  0
    0.4870   20.9710  -34.2930 C   0  0  0  0  0  0  0  0  0  0  0  0
   -0.0230   21.1660  -35.7280 C   0  0  0  0  0  0  0  0  0  0  0  0
   -1.2450   19.4510  -33.3700 C   0  0  0  0  0  0  0  0  0  0  0  0
   -2.7550   19.5920  -33.6740 C   0  0  0  0  0  0  0  0  0  0  0  0
   -3.1830   20.9990  -33.6260 N   0  0  0  0  0  0  0  0  0  0  0  0
   -4.5400   21.0910  -33.1400 C   0  0  0  0  0  0  0  0  0  0  0  0
   -5.5010   20.1450  -33.5420 C   0  0  0  0  0  0  0  0  0  0  0  0
   -6.8090   20.2150  -33.0570 C   0  0  0  0  0  0  0  0  0  0  0  0
   -7.1720   21.2230  -32.1640 C   0  0  0  0  0  0  0  0  0  0  0  0
   -6.2260   22.1600  -31.7430 C   0  0  0  0  0  0  0  0  0  0  0  0
   -4.9020   22.0890  -32.2080 C   0  0  0  0  0  0  0  0  0  0  0  0
   -3.9380   23.0210  -31.7980 O   0  0  0  0  0  0  0  0  0  0  0  0
   -3.3290   23.0740  -30.5360 C   0  0  0  0  0  0  0  0  0  0  0  0
   -2.7080   21.9520  -29.9570 C   0  0  0  0  0  0  0  0  0  0  0  0
   -2.0920   22.0500  -28.7100 C   0  0  0  0  0  0  0  0  0  0  0  0
   -2.0850   23.2680  -28.0180 C   0  0  0  0  0  0  0  0  0  0  0  0
   -1.3870   23.3820  -26.6950 C   0  0  0  0  0  0  0  0  0  0  0  0
   -2.6650   24.4000  -28.6100 C   0  0  0  0  0  0  0  0  0  0  0  0
   -3.2880   24.3080  -29.8700 C   0  0  0  0  0  0  0  0  0  0  0  0
   -3.8710   25.4210  -30.4970 O   0  0  0  0  0  0  0  0  0  0  0  0
   -5.2730   25.6470  -30.5980 C   0  0  0  0  0  0  0  0  0  0  0  0
   -0.2430   20.1067  -29.9276 H   0  0  0  0  0  0  0  0  0  0  0  0
   -1.2460   19.3127  -31.1886 H   0  0  0  0  0  0  0  0  0  0  0  0
    0.5367   19.0926  -31.1886 H   0  0  0  0  0  0  0  0  0  0  0  0
   -0.7332   21.8489  -31.4614 H   0  0  0  0  0  0  0  0  0  0  0  0
    0.9380   21.2955  -31.9101 H   0  0  0  0  0  0  0  0  0  0  0  0
    1.0660   21.8633  -34.0127 H   0  0  0  0  0  0  0  0  0  0  0  0
    1.0841   20.0472  -34.3025 H   0  0  0  0  0  0  0  0  0  0  0  0
   -1.0502   21.5587  -35.7019 H   0  0  0  0  0  0  0  0  0  0  0  0
    0.6287   21.8784  -36.2551 H   0  0  0  0  0  0  0  0  0  0  0  0
   -0.0129   20.2006  -36.2551 H   0  0  0  0  0  0  0  0  0  0  0  0
   -0.7725   18.8728  -34.1777 H   0  0  0  0  0  0  0  0  0  0  0  0
   -1.1394   18.9406  -32.4013 H   0  0  0  0  0  0  0  0  0  0  0  0
   -2.9570   19.1905  -34.6780 H   0  0  0  0  0  0  0  0  0  0  0  0
   -3.3157   19.0332  -32.9102 H   0  0  0  0  0  0  0  0  0  0  0  0
   -3.1220   21.4100  -34.5870 H   0  0  0  0  0  0  0  0  0  0  0  0
   -2.5490   21.5550  -33.0090 H   0  0  0  0  0  0  0  0  0  0  0  0
   -5.2203   19.3450  -34.2429 H   0  0  0  0  0  0  0  0  0  0  0  0
   -7.5545   19.4735  -33.3801 H   0  0  0  0  0  0  0  0  0  0  0  0
   -8.2052   21.2800  -31.7907 H   0  0  0  0  0  0  0  0  0  0  0  0
   -6.5187   22.9574  -31.0441 H   0  0  0  0  0  0  0  0  0  0  0  0
   -2.7085   20.9908  -30.4919 H   0  0  0  0  0  0  0  0  0  0  0  0
   -1.6090   21.1664  -28.2673 H   0  0  0  0  0  0  0  0  0  0  0  0
   -2.1190   23.2624  -25.8827 H   0  0  0  0  0  0  0  0  0  0  0  0
   -0.6203   22.5972  -26.6161 H   0  0  0  0  0  0  0  0  0  0  0  0
   -0.9098   24.3700  -26.6161 H   0  0  0  0  0  0  0  0  0  0  0  0
   -2.6330   25.3668  -28.0862 H   0  0  0  0  0  0  0  0  0  0  0  0
   -5.7067   25.7169  -29.5895 H   0  0  0  0  0  0  0  0  0  0  0  0
   -5.4548   26.5860  -31.1413 H   0  0  0  0  0  0  0  0  0  0  0  0
   -5.7407   24.8127  -31.1413 H   0  0  0  0  0  0  0  0  0  0  0  0
  1  2  1  0
  2  3  1  0
  3  4  1  0
  4  5  1  0
  3  6  1  0
  6  7  1  0
  7  8  1  0
  8  9  1  0
  9 10  2  0
 10 11  1  0
 11 12  2  0
 12 13  1  0
 13 14  2  0
 14 15  1  0
 15 16  1  0
 16 17  2  0
 17 18  1  0
 18 19  2  0
 19 20  1  0
 19 21  1  0
 21 22  2  0
 22 23  1  0
 23 24  1  0
 14  9  1  0
 22 16  1  0
  1 25  1  0
  1 26  1  0
  1 27  1  0
  2 28  1  0
  2 29  1  0
  4 30  1  0
  4 31  1  0
  5 32  1  0
  5 33  1  0
  5 34  1  0
  6 35  1  0
  6 36  1  0
  7 37  1  0
  7 38  1  0
  8 39  1  0
  8 40  1  0
 10 41  1  0
 11 42  1  0
 12 43  1  0
 13 44  1  0
 17 45  1  0
 18 46  1  0
 20 47  1  0
 20 48  1  0
 20 49  1  0
 21 50  1  0
 24 51  1  0
 24 52  1  0
 24 53  1  0
M  CHG  1   8   1
M  END
>  <UniqueID>  (9) 
9

>  <SMILES>  (9) 
CCN(CC)CC[NH2+]c1ccccc1Oc1ccc(C)cc1OC

>  <Energy>  (9) 
60.337742544188636

>  <Genealogy>  (9) 
CCN(CC)CC[NH2+]c1ccccc1Oc1ccc(C)cc1OC (protonated)
CCN(CC)CC[NH2+]c1ccccc1Oc1ccc(C)cc1OC (3D coordinates assigned)
CCN(CC)CC[NH2+]c1ccccc1Oc1ccc(C)cc1OC (optimized conformer: 60.337742544188636 kcal/mol)

>  <smiles>  (9) 
CCN(CC)CCNc1ccccc1Oc1ccc(C)cc1OC

>  <score_type>  (9) 
oracle

>  <origin>  (9) 
adg

>  <m_score__min__energy>  (9) 
-7.1900000000000004

>  <m_primary>  (9) 
energy

$$$$
9:0
     RDKit          3D

 29 30  0  0  0  0  0  0  0  0999 V2000
   -1.9270   25.6960  -25.6250 C   0  0  0  0  0  0  0  0  0  0  0  0
   -2.1620   25.2250  -26.8520 C   0  0  0  0  0  0  0  0  0  0  0  0
   -1.0580   25.1210  -27.8650 C   0  0  0  0  0  0  0  0  0  0  0  0
   -1.6130   25.1290  -29.2170 N   0  0  0  0  0  0  0  0  0  0  0  0
   -2.4630   24.0690  -29.6850 C   0  0  0  0  0  0  0  0  0  0  0  0
   -2.1500   22.7290  -29.3950 C   0  0  0  0  0  0  0  0  0  0  0  0
   -0.9590   22.4150  -28.6370 C   0  0  0  0  0  0  0  0  0  0  0  0
   -0.0060   22.1630  -28.0310 N   0  0  0  0  0  0  0  0  0  0  0  0
   -2.9630   21.7210  -29.8350 N   0  0  0  0  0  0  0  0  0  0  0  0
   -2.6210   20.4280  -29.4700 O   0  0  0  0  0  0  0  0  0  0  0  0
   -4.0770   22.0060  -30.5920 C   0  0  0  0  0  0  0  0  0  0  0  0
   -4.9040   20.9940  -31.1350 C   0  0  0  0  0  0  0  0  0  0  0  0
   -6.0390   21.3220  -31.8810 C   0  0  0  0  0  0  0  0  0  0  0  0
   -7.0520   20.0520  -32.5430 Cl  0  0  0  0  0  0  0  0  0  0  0  0
   -6.3680   22.6580  -32.1080 C   0  0  0  0  0  0  0  0  0  0  0  0
   -5.5570   23.6720  -31.6040 C   0  0  0  0  0  0  0  0  0  0  0  0
   -4.4060   23.3640  -30.8550 C   0  0  0  0  0  0  0  0  0  0  0  0
   -3.5960   24.3580  -30.3840 N   0  0  0  0  0  0  0  0  0  0  0  0
   -3.9430   25.6780  -30.5800 O   0  0  0  0  0  0  0  0  0  0  0  0
   -2.7477   25.7651  -24.8959 H   0  0  0  0  0  0  0  0  0  0  0  0
   -0.9127   26.0149  -25.3432 H   0  0  0  0  0  0  0  0  0  0  0  0
   -3.1794   24.9084  -27.1251 H   0  0  0  0  0  0  0  0  0  0  0  0
   -0.3749   25.9751  -27.7473 H   0  0  0  0  0  0  0  0  0  0  0  0
   -0.5118   24.1795  -27.7061 H   0  0  0  0  0  0  0  0  0  0  0  0
   -1.6350   26.0470  -29.7190 H   0  0  0  0  0  0  0  0  0  0  0  0
   -1.8320   20.1930  -28.8860 H   0  0  0  0  0  0  0  0  0  0  0  0
   -4.6503   19.9368  -30.9678 H   0  0  0  0  0  0  0  0  0  0  0  0
   -7.2691   22.9113  -32.6858 H   0  0  0  0  0  0  0  0  0  0  0  0
   -5.8186   24.7236  -31.7932 H   0  0  0  0  0  0  0  0  0  0  0  0
  1  2  2  0
  2  3  1  0
  3  4  1  0
  4  5  1  0
  5  6  2  0
  6  7  1  0
  7  8  3  0
  6  9  1  0
  9 10  1  0
  9 11  2  0
 11 12  1  0
 12 13  2  0
 13 14  1  0
 13 15  1  0
 15 16  2  0
 16 17  1  0
 17 18  2  0
 18 19  1  0
 18  5  1  0
 17 11  1  0
  1 20  1  0
  1 21  1  0
  2 22  1  0
  3 23  1  0
  3 24  1  0
  4 25  1  0
 10 26  1  0
 12 27  1  0
 15 28  1  0
 16 29  1  0
M  CHG  3   9   1  18   1  19  -1
M  END
>  <UniqueID>  (10) 
10

>  <SMILES>  (10) 
C=CCNc1c(C#N)[n+](O)c2cc(Cl)ccc2[n+]1[O-]

>  <Energy>  (10) 
41.53154613372887

>  <Genealogy>  (10) 
C=CCNc1c(C#N)[n+](O)c2cc(Cl)ccc2[n+]1[O-] (protonated)
C=CCNc1c(C#N)[n+](O)c2cc(Cl)ccc2[n+]1[O-] (3D coordinates assigned)
C=CCNc1c(C#N)[n+](O)c2cc(Cl)ccc2[n+]1[O-] (optimized conformer: 41.53154613372887 kcal/mol)

>  <smiles>  (10) 
C=CCNc1c(C#N)[n+]([O-])c2cc(Cl)ccc2[n+]1[O-]

>  <score_type>  (10) 
oracle

>  <origin>  (10) 
adg

>  <m_score__min__energy>  (10) 
-6.7699999999999996

>  <m_primary>  (10) 
energy

$$$$
10:0
     RDKit          3D

 49 51  0  0  0  0  0  0  0  0999 V2000
   -5.3760   17.8180  -35.1170 C   0  0  0  0  0  0  0  0  0  0  0  0
   -4.8820   17.8310  -33.7290 N   0  0  0  0  0  0  0  0  0  0  0  0
   -4.2720   19.1210  -33.3540 C   0  0  0  0  0  0  0  0  0  0  0  0
   -5.2880   20.2720  -33.3480 C   0  0  0  0  0  0  0  0  0  0  0  0
   -6.6010   19.8900  -32.7070 C   0  0  0  0  0  0  0  0  0  0  0  0
   -6.9280   18.5320  -32.4920 C   0  0  0  0  0  0  0  0  0  0  0  0
   -8.1660   18.1970  -31.9270 C   0  0  0  0  0  0  0  0  0  0  0  0
   -9.0900   19.1910  -31.6120 C   0  0  0  0  0  0  0  0  0  0  0  0
   -8.7870   20.5310  -31.8490 C   0  0  0  0  0  0  0  0  0  0  0  0
   -7.5420   20.8950  -32.3990 C   0  0  0  0  0  0  0  0  0  0  0  0
   -7.2060   22.2350  -32.6660 O   0  0  0  0  0  0  0  0  0  0  0  0
   -7.7830   23.3810  -32.0390 C   0  0  0  0  0  0  0  0  0  0  0  0
   -6.9580   23.8020  -30.8190 C   0  0  0  0  0  0  0  0  0  0  0  0
   -5.7250   24.6250  -31.2490 C   0  0  0  0  0  0  0  0  0  0  0  0
   -4.4280   24.0530  -30.8210 N   0  0  0  0  0  0  0  0  0  0  0  0
   -4.1820   22.6970  -31.3650 C   0  0  0  0  0  0  0  0  0  0  0  0
   -2.9310   22.0370  -30.7440 C   0  0  0  0  0  0  0  0  0  0  0  0
   -1.9860   23.0790  -30.1400 C   0  0  0  0  0  0  0  0  0  0  0  0
   -2.6970   23.9200  -29.0630 C   0  0  0  0  0  0  0  0  0  0  0  0
   -4.1930   24.1240  -29.3670 C   0  0  0  0  0  0  0  0  0  0  0  0
   -5.9270   17.4320  -32.7660 C   0  0  0  0  0  0  0  0  0  0  0  0
   -6.4756   17.7891  -35.1146 H   0  0  0  0  0  0  0  0  0  0  0  0
   -5.0342   18.7254  -35.6364 H   0  0  0  0  0  0  0  0  0  0  0  0
   -4.9870   16.9298  -35.6364 H   0  0  0  0  0  0  0  0  0  0  0  0
   -3.8393   19.0271  -32.3470 H   0  0  0  0  0  0  0  0  0  0  0  0
   -3.5031   19.3578  -34.1041 H   0  0  0  0  0  0  0  0  0  0  0  0
   -4.8579   21.1176  -32.7912 H   0  0  0  0  0  0  0  0  0  0  0  0
   -5.4952   20.5364  -34.3954 H   0  0  0  0  0  0  0  0  0  0  0  0
   -8.4097   17.1424  -31.7310 H   0  0  0  0  0  0  0  0  0  0  0  0
  -10.0617   18.9176  -31.1749 H   0  0  0  0  0  0  0  0  0  0  0  0
   -9.5250   21.3094  -31.6049 H   0  0  0  0  0  0  0  0  0  0  0  0
   -7.8115   24.2113  -32.7599 H   0  0  0  0  0  0  0  0  0  0  0  0
   -8.8012   23.1286  -31.7081 H   0  0  0  0  0  0  0  0  0  0  0  0
   -7.5850   24.4129  -30.1530 H   0  0  0  0  0  0  0  0  0  0  0  0
   -6.6135   22.8972  -30.2969 H   0  0  0  0  0  0  0  0  0  0  0  0
   -5.7243   24.6956  -32.3467 H   0  0  0  0  0  0  0  0  0  0  0  0
   -5.8140   25.6044  -30.7562 H   0  0  0  0  0  0  0  0  0  0  0  0
   -5.0576   22.0660  -31.1528 H   0  0  0  0  0  0  0  0  0  0  0  0
   -4.0107   22.7934  -32.4473 H   0  0  0  0  0  0  0  0  0  0  0  0
   -3.2493   21.3424  -29.9527 H   0  0  0  0  0  0  0  0  0  0  0  0
   -2.3916   21.5038  -31.5407 H   0  0  0  0  0  0  0  0  0  0  0  0
   -1.1281   22.5633  -29.6838 H   0  0  0  0  0  0  0  0  0  0  0  0
   -1.6523   23.7526  -30.9430 H   0  0  0  0  0  0  0  0  0  0  0  0
   -2.6004   23.4076  -28.0945 H   0  0  0  0  0  0  0  0  0  0  0  0
   -2.2212   24.9116  -29.0449 H   0  0  0  0  0  0  0  0  0  0  0  0
   -4.7768   23.3383  -28.8651 H   0  0  0  0  0  0  0  0  0  0  0  0
   -4.5038   25.1131  -28.9996 H   0  0  0  0  0  0  0  0  0  0  0  0
   -5.4428   17.1544  -31.8181 H   0  0  0  0  0  0  0  0  0  0  0  0
   -6.4774   16.5884  -33.2080 H   0  0  0  0  0  0  0  0  0  0  0  0
  1  2  1  0
  2  3  1  0
  3  4  1  0
  4  5  1  0
  5  6  2  0
  6  7  1  0
  7  8  2  0
  8  9  1  0
  9 10  2  0
 10 11  1  0
 11 12  1  0
 12 13  1  0
 13 14  1  0
 14 15  1  0
 15 16  1  0
 16 17  1  0
 17 18  1  0
 18 19  1  0
 19 20  1  0
  6 21  1  0
 21  2  1  0
 10  5  1  0
 20 15  1  0
  1 22  1  0
  1 23  1  0
  1 24  1  0
  3 25  1  0
  3 26  1  0
  4 27  1  0
  4 28  1  0
  7 29  1  0
  8 30  1  0
  9 31  1  0
 12 32  1  0
 12 33  1  0
 13 34  1  0
 13 35  1  0
 14 36  1  0
 14 37  1  0
 16 38  1  0
 16 39  1  0
 17 40  1  0
 17 41  1  0
 18 42  1  0
 18 43  1  0
 19 44  1  0
 19 45  1  0
 20 46  1  0
 20 47  1  0
 21 48  1  0
 21 49  1  0
M  END
>  <UniqueID>  (11) 
11

>  <SMILES>  (11) 
CN1CCc2c(cccc2OCCCN2CCCCC2)C1

>  <Energy>  (11) 
59.36790869311969

>  <Genealogy>  (11) 
CN1CCc2c(cccc2OCCCN2CCCCC2)C1 (3D coordinates assigned)
CN1CCc2c(cccc2OCCCN2CCCCC2)C1 (nonaromatic ring conformer: 59.36790869311969 kcal/mol)

>  <smiles>  (11) 
CN1CCc2c(cccc2OCCCN2CCCCC2)C1

>  <score_type>  (11) 
oracle

>  <origin>  (11) 
adg

>  <m_score__min__energy>  (11) 
-7.9800000000000004

>  <m_primary>  (11) 
energy

$$$$
11:0
     RDKit          3D

 41 44  0  0  0  0  0  0  0  0999 V2000
    0.6920   22.6700  -24.9080 N   0  0  0  0  0  0  0  0  0  0  0  0
   -0.1710   22.9510  -25.6260 C   0  0  0  0  0  0  0  0  0  0  0  0
   -1.2500   23.3030  -26.5230 C   0  0  0  0  0  0  0  0  0  0  0  0
   -1.9560   22.3080  -27.2420 C   0  0  0  0  0  0  0  0  0  0  0  0
   -1.7050   20.8570  -27.0270 C   0  0  0  0  0  0  0  0  0  0  0  0
   -0.6150   20.1330  -27.4860 C   0  0  0  0  0  0  0  0  0  0  0  0
   -0.8110   18.8400  -27.0540 C   0  0  0  0  0  0  0  0  0  0  0  0
   -2.0030   18.8460  -26.3600 C   0  0  0  0  0  0  0  0  0  0  0  0
   -2.5080   20.0570  -26.3630 O   0  0  0  0  0  0  0  0  0  0  0  0
   -2.9270   22.7060  -28.1770 C   0  0  0  0  0  0  0  0  0  0  0  0
   -3.1810   24.0680  -28.3930 C   0  0  0  0  0  0  0  0  0  0  0  0
   -4.1860   24.5340  -29.3690 C   0  0  0  0  0  0  0  0  0  0  0  0
   -5.5510   24.3050  -29.3440 C   0  0  0  0  0  0  0  0  0  0  0  0
   -6.0550   24.9370  -30.4610 C   0  0  0  0  0  0  0  0  0  0  0  0
   -4.9750   25.5110  -31.0970 C   0  0  0  0  0  0  0  0  0  0  0  0
   -3.8780   25.2530  -30.4240 O   0  0  0  0  0  0  0  0  0  0  0  0
   -2.4920   24.9930  -27.6800 N   0  0  0  0  0  0  0  0  0  0  0  0
   -1.5510   24.6630  -26.7560 C   0  0  0  0  0  0  0  0  0  0  0  0
   -0.8840   25.7190  -26.0380 N   0  0  0  0  0  0  0  0  0  0  0  0
    0.5620   25.9260  -26.2050 C   0  0  0  0  0  0  0  0  0  0  0  0
    1.2010   26.3630  -24.8780 C   0  0  0  0  0  0  0  0  0  0  0  0
    0.5740   25.6540  -23.7520 N   0  0  0  0  0  0  0  0  0  0  0  0
   -0.8530   26.0030  -23.5830 C   0  0  0  0  0  0  0  0  0  0  0  0
   -1.5550   26.3660  -24.9080 C   0  0  0  0  0  0  0  0  0  0  0  0
    0.2327   20.5135  -28.0747 H   0  0  0  0  0  0  0  0  0  0  0  0
   -0.1508   17.9774  -27.2273 H   0  0  0  0  0  0  0  0  0  0  0  0
   -2.4603   17.9695  -25.8777 H   0  0  0  0  0  0  0  0  0  0  0  0
   -3.4892   21.9470  -28.7408 H   0  0  0  0  0  0  0  0  0  0  0  0
   -6.1159   23.7371  -28.5901 H   0  0  0  0  0  0  0  0  0  0  0  0
   -7.1069   24.9754  -30.7803 H   0  0  0  0  0  0  0  0  0  0  0  0
   -5.0249   26.0962  -32.0271 H   0  0  0  0  0  0  0  0  0  0  0  0
    1.0260   24.9858  -26.5376 H   0  0  0  0  0  0  0  0  0  0  0  0
    0.7237   26.7152  -26.9540 H   0  0  0  0  0  0  0  0  0  0  0  0
    2.2761   26.1314  -24.8993 H   0  0  0  0  0  0  0  0  0  0  0  0
    1.0513   27.4450  -24.7478 H   0  0  0  0  0  0  0  0  0  0  0  0
    1.0890   25.8930  -22.8730 H   0  0  0  0  0  0  0  0  0  0  0  0
    0.6650   24.6220  -23.9040 H   0  0  0  0  0  0  0  0  0  0  0  0
   -1.3724   25.1417  -23.1376 H   0  0  0  0  0  0  0  0  0  0  0  0
   -0.8959   26.8929  -22.9378 H   0  0  0  0  0  0  0  0  0  0  0  0
   -2.6014   26.0293  -24.8673 H   0  0  0  0  0  0  0  0  0  0  0  0
   -1.5126   27.4565  -25.0460 H   0  0  0  0  0  0  0  0  0  0  0  0
  1  2  3  0
  2  3  1  0
  3  4  2  0
  4  5  1  0
  5  6  2  0
  6  7  1  0
  7  8  2  0
  8  9  1  0
  4 10  1  0
 10 11  2  0
 11 12  1  0
 12 13  2  0
 13 14  1  0
 14 15  2  0
 15 16  1  0
 11 17  1  0
 17 18  2  0
 18 19  1  0
 19 20  1  0
 20 21  1  0
 21 22  1  0
 22 23  1  0
 23 24  1  0
 18  3  1  0
 24 19  1  0
  9  5  1  0
 16 12  1  0
  6 25  1  0
  7 26  1  0
  8 27  1  0
 10 28  1  0
 13 29  1  0
 14 30  1  0
 15 31  1  0
 20 32  1  0
 20 33  1  0
 21 34  1  0
 21 35  1  0
 22 36  1  0
 22 37  1  0
 23 38  1  0
 23 39  1  0
 24 40  1  0
 24 41  1  0
M  CHG  1  22   1
M  END
>  <UniqueID>  (12) 
12

>  <SMILES>  (12) 
N#Cc1c(-c2ccco2)cc(-c2ccco2)nc1N1CC[NH2+]CC1

>  <Energy>  (12) 
110.71182832614592

>  <Genealogy>  (12) 
N#Cc1c(-c2ccco2)cc(-c2ccco2)nc1N1CC[NH2+]CC1 (protonated)
N#Cc1c(-c2ccco2)cc(-c2ccco2)nc1N1CC[NH2+]CC1 (3D coordinates assigned)
N#Cc1c(-c2ccco2)cc(-c2ccco2)nc1N1CC[NH2+]CC1 (nonaromatic ring conformer: 110.71182832614592 kcal/mol)

>  <smiles>  (12) 
N#Cc1c(-c2ccco2)cc(-c2ccco2)nc1N1CCNCC1

>  <score_type>  (12) 
oracle

>  <origin>  (12) 
adg

>  <m_score__min__energy>  (12) 
-7.7999999999999998

>  <m_primary>  (12) 
energy

$$$$
12:0
     RDKit          3D

 37 38  0  0  0  0  0  0  0  0999 V2000
   -4.4990   22.2940  -32.5850 C   0  0  0  0  0  0  0  0  0  0  0  0
   -4.9770   23.3290  -31.6090 C   0  0  0  0  0  0  0  0  0  0  0  0
   -4.0530   23.9780  -30.8480 N   0  0  0  0  0  0  0  0  0  0  0  0
   -4.3990   24.9160  -29.9290 C   0  0  0  0  0  0  0  0  0  0  0  0
   -5.7400   25.2420  -29.7360 C   0  0  0  0  0  0  0  0  0  0  0  0
   -6.7150   24.5970  -30.4960 C   0  0  0  0  0  0  0  0  0  0  0  0
   -6.3520   23.6250  -31.4430 C   0  0  0  0  0  0  0  0  0  0  0  0
   -7.4330   22.8950  -32.2100 C   0  0  0  0  0  0  0  0  0  0  0  0
   -8.2120   22.0340  -31.3100 N   0  0  0  0  0  0  0  0  0  0  0  0
   -9.5260   21.6930  -31.8750 C   0  0  0  0  0  0  0  0  0  0  0  0
   -9.5350   20.2200  -32.2910 C   0  0  0  0  0  0  0  0  0  0  0  0
   -8.4080   19.5330  -31.7460 O   0  0  0  0  0  0  0  0  0  0  0  0
   -7.3980   18.9110  -32.5010 C   0  0  0  0  0  0  0  0  0  0  0  0
   -7.0660   17.5480  -32.3550 C   0  0  0  0  0  0  0  0  0  0  0  0
   -6.0620   16.9780  -33.1430 C   0  0  0  0  0  0  0  0  0  0  0  0
   -5.3750   17.7600  -34.0790 C   0  0  0  0  0  0  0  0  0  0  0  0
   -4.3420   17.1700  -34.8910 C   0  0  0  0  0  0  0  0  0  0  0  0
   -3.5120   16.6970  -35.5430 N   0  0  0  0  0  0  0  0  0  0  0  0
   -5.6930   19.1140  -34.2220 C   0  0  0  0  0  0  0  0  0  0  0  0
   -6.6990   19.6860  -33.4350 C   0  0  0  0  0  0  0  0  0  0  0  0
   -4.0994   21.4288  -32.0356 H   0  0  0  0  0  0  0  0  0  0  0  0
   -5.3390   21.9707  -33.2174 H   0  0  0  0  0  0  0  0  0  0  0  0
   -3.7082   22.7239  -33.2174 H   0  0  0  0  0  0  0  0  0  0  0  0
   -3.6203   25.4187  -29.3366 H   0  0  0  0  0  0  0  0  0  0  0  0
   -6.0263   26.0000  -28.9921 H   0  0  0  0  0  0  0  0  0  0  0  0
   -7.7757   24.8510  -30.3530 H   0  0  0  0  0  0  0  0  0  0  0  0
   -8.1041   23.6304  -32.6778 H   0  0  0  0  0  0  0  0  0  0  0  0
   -6.9603   22.2681  -32.9804 H   0  0  0  0  0  0  0  0  0  0  0  0
   -7.6780   21.1450  -31.1650 H   0  0  0  0  0  0  0  0  0  0  0  0
  -10.3063   21.8654  -31.1190 H   0  0  0  0  0  0  0  0  0  0  0  0
   -9.7222   22.3239  -32.7545 H   0  0  0  0  0  0  0  0  0  0  0  0
  -10.4579   19.7471  -31.9240 H   0  0  0  0  0  0  0  0  0  0  0  0
   -9.4862   20.1629  -33.3884 H   0  0  0  0  0  0  0  0  0  0  0  0
   -7.5997   16.9306  -31.6175 H   0  0  0  0  0  0  0  0  0  0  0  0
   -5.8113   15.9132  -33.0274 H   0  0  0  0  0  0  0  0  0  0  0  0
   -5.1515   19.7308  -34.9544 H   0  0  0  0  0  0  0  0  0  0  0  0
   -6.9426   20.7524  -33.5509 H   0  0  0  0  0  0  0  0  0  0  0  0
  1  2  1  0
  2  3  2  0
  3  4  1  0
  4  5  2  0
  5  6  1  0
  6  7  2  0
  7  8  1  0
  8  9  1  0
  9 10  1  0
 10 11  1  0
 11 12  1  0
 12 13  1  0
 13 14  2  0
 14 15  1  0
 15 16  2  0
 16 17  1  0
 17 18  3  0
 16 19  1  0
 19 20  2  0
  7  2  1  0
 20 13  1  0
  1 21  1  0
  1 22  1  0
  1 23  1  0
  4 24  1  0
  5 25  1  0
  6 26  1  0
  8 27  1  0
  8 28  1  0
  9 29  1  0
 10 30  1  0
 10 31  1  0
 11 32  1  0
 11 33  1  0
 14 34  1  0
 15 35  1  0
 19 36  1  0
 20 37  1  0
M  END
>  <UniqueID>  (13) 
13

>  <SMILES>  (13) 
Cc1ncccc1CNCCOc1ccc(C#N)cc1

>  <Energy>  (13) 
33.881849500890425

>  <Genealogy>  (13) 
Cc1ncccc1CNCCOc1ccc(C#N)cc1 (3D coordinates assigned)
Cc1ncccc1CNCCOc1ccc(C#N)cc1 (optimized conformer: 33.881849500890425 kcal/mol)

>  <smiles>  (13) 
Cc1ncccc1CNCCOc1ccc(C#N)cc1

>  <score_type>  (13) 
oracle

>  <origin>  (13) 
adg

>  <m_score__min__energy>  (13) 
-7.25

>  <m_primary>  (13) 
energy

$$$$
13:0
     RDKit          3D

 32 34  0  0  0  0  0  0  0  0999 V2000
   -5.4580   25.7060  -30.4820 C   0  0  0  0  0  0  0  0  0  0  0  0
   -4.2580   25.0290  -30.8420 O   0  0  0  0  0  0  0  0  0  0  0  0
   -3.8420   23.8000  -30.3040 C   0  0  0  0  0  0  0  0  0  0  0  0
   -3.1520   23.7240  -29.0760 C   0  0  0  0  0  0  0  0  0  0  0  0
   -2.7500   22.4870  -28.5680 C   0  0  0  0  0  0  0  0  0  0  0  0
   -3.0290   21.3160  -29.2710 C   0  0  0  0  0  0  0  0  0  0  0  0
   -3.7110   21.3760  -30.4880 C   0  0  0  0  0  0  0  0  0  0  0  0
   -4.1260   22.6120  -31.0110 C   0  0  0  0  0  0  0  0  0  0  0  0
   -4.8310   22.6620  -32.3430 C   0  0  0  0  0  0  0  0  0  0  0  0
   -6.2770   22.5720  -32.1520 N   0  0  0  0  0  0  0  0  0  0  0  0
   -7.0870   23.6210  -32.0390 N   0  0  0  0  0  0  0  0  0  0  0  0
   -8.3510   23.2190  -31.9450 N   0  0  0  0  0  0  0  0  0  0  0  0
   -8.3410   21.8770  -32.0100 C   0  0  0  0  0  0  0  0  0  0  0  0
   -9.4050   20.9830  -31.9730 C   0  0  0  0  0  0  0  0  0  0  0  0
   -9.0980   19.6110  -32.0770 C   0  0  0  0  0  0  0  0  0  0  0  0
   -7.7540   19.1840  -32.2130 C   0  0  0  0  0  0  0  0  0  0  0  0
   -6.7040   20.1220  -32.2480 C   0  0  0  0  0  0  0  0  0  0  0  0
   -7.0490   21.4690  -32.1420 C   0  0  0  0  0  0  0  0  0  0  0  0
   -5.5386   25.7515  -29.3859 H   0  0  0  0  0  0  0  0  0  0  0  0
   -5.4398   26.7270  -30.8910 H   0  0  0  0  0  0  0  0  0  0  0  0
   -6.3225   25.1625  -30.8910 H   0  0  0  0  0  0  0  0  0  0  0  0
   -2.9294   24.6440  -28.5156 H   0  0  0  0  0  0  0  0  0  0  0  0
   -2.2115   22.4364  -27.6102 H   0  0  0  0  0  0  0  0  0  0  0  0
   -2.7115   20.3436  -28.8665 H   0  0  0  0  0  0  0  0  0  0  0  0
   -3.9247   20.4493  -31.0408 H   0  0  0  0  0  0  0  0  0  0  0  0
   -4.5893   23.6095  -32.8468 H   0  0  0  0  0  0  0  0  0  0  0  0
   -4.4966   21.8137  -32.9583 H   0  0  0  0  0  0  0  0  0  0  0  0
   -9.1790   23.8480  -31.8500 H   0  0  0  0  0  0  0  0  0  0  0  0
  -10.4429   21.3315  -31.8670 H   0  0  0  0  0  0  0  0  0  0  0  0
   -9.9077   18.8668  -32.0524 H   0  0  0  0  0  0  0  0  0  0  0  0
   -7.5285   18.1103  -32.2920 H   0  0  0  0  0  0  0  0  0  0  0  0
   -5.6559   19.8054  -32.3545 H   0  0  0  0  0  0  0  0  0  0  0  0
  1  2  1  0
  2  3  1  0
  3  4  2  0
  4  5  1  0
  5  6  2  0
  6  7  1  0
  7  8  2  0
  8  9  1  0
  9 10  1  0
 10 11  1  0
 11 12  2  0
 12 13  1  0
 13 14  2  0
 14 15  1  0
 15 16  2  0
 16 17  1  0
 17 18  2  0
  8  3  1  0
 18 10  1  0
 18 13  1  0
  1 19  1  0
  1 20  1  0
  1 21  1  0
  4 22  1  0
  5 23  1  0
  6 24  1  0
  7 25  1  0
  9 26  1  0
  9 27  1  0
 12 28  1  0
 14 29  1  0
 15 30  1  0
 16 31  1  0
 17 32  1  0
M  CHG  1  12   1
M  END
>  <UniqueID>  (14) 
14

>  <SMILES>  (14) 
COc1ccccc1Cn1n[nH+]c2ccccc21

>  <Energy>  (14) 
78.18106530649797

>  <Genealogy>  (14) 
COc1ccccc1Cn1n[nH+]c2ccccc21 (protonated)
COc1ccccc1Cn1n[nH+]c2ccccc21 (3D coordinates assigned)
COc1ccccc1Cn1n[nH+]c2ccccc21 (optimized conformer: 78.18106530649797 kcal/mol)

>  <smiles>  (14) 
COc1ccccc1Cn1nnc2ccccc21

>  <score_type>  (14) 
oracle

>  <origin>  (14) 
adg

>  <m_score__min__energy>  (14) 
-6.9100000000000001

>  <m_primary>  (14) 
energy

$$$$
14:0
     RDKit          3D

 41 43  0  0  0  0  0  0  0  0999 V2000
   -4.4190   25.7340  -29.5590 H   0  0  0  0  0  0  0  0  0  0  0  0
   -4.2510   25.2390  -30.4640 N   0  0  0  0  0  0  0  0  0  0  0  0
   -4.9980   24.2610  -30.8740 C   0  0  0  0  0  0  0  0  0  0  0  0
   -6.3920   24.3700  -30.8420 C   0  0  0  0  0  0  0  0  0  0  0  0
   -6.8651   25.2900  -30.4681 H   0  0  0  0  0  0  0  0  0  0  0  0
   -7.1790   23.3100  -31.2850 C   0  0  0  0  0  0  0  0  0  0  0  0
   -8.2754   23.3953  -31.2592 H   0  0  0  0  0  0  0  0  0  0  0  0
   -6.5800   22.1290  -31.7660 C   0  0  0  0  0  0  0  0  0  0  0  0
   -7.3380   21.0180  -32.2250 C   0  0  0  0  0  0  0  0  0  0  0  0
   -8.8550   21.0130  -32.2580 C   0  0  0  0  0  0  0  0  0  0  0  0
   -9.2318   21.2897  -31.2623 H   0  0  0  0  0  0  0  0  0  0  0  0
   -9.1783   21.7340  -33.0232 H   0  0  0  0  0  0  0  0  0  0  0  0
   -9.4230   19.6370  -32.6370 C   0  0  0  0  0  0  0  0  0  0  0  0
  -10.5145   19.7224  -32.7433 H   0  0  0  0  0  0  0  0  0  0  0  0
   -8.9494   19.3267  -33.5801 H   0  0  0  0  0  0  0  0  0  0  0  0
   -9.1140   18.5700  -31.5870 C   0  0  0  0  0  0  0  0  0  0  0  0
   -9.2380   18.9983  -30.5814 H   0  0  0  0  0  0  0  0  0  0  0  0
   -9.8035   17.7221  -31.7120 H   0  0  0  0  0  0  0  0  0  0  0  0
   -8.0781   18.2217  -31.7120 H   0  0  0  0  0  0  0  0  0  0  0  0
   -6.6640   19.8810  -32.7040 C   0  0  0  0  0  0  0  0  0  0  0  0
   -7.2459   19.0184  -33.0608 H   0  0  0  0  0  0  0  0  0  0  0  0
   -5.2660   19.8270  -32.7350 C   0  0  0  0  0  0  0  0  0  0  0  0
   -4.5840   18.6170  -33.2450 C   0  0  0  0  0  0  0  0  0  0  0  0
   -3.5330   18.7720  -34.1640 C   0  0  0  0  0  0  0  0  0  0  0  0
   -3.2229   19.7813  -34.4724 H   0  0  0  0  0  0  0  0  0  0  0  0
   -2.8790   17.6570  -34.6890 C   0  0  0  0  0  0  0  0  0  0  0  0
   -2.0573   17.7907  -35.4080 H   0  0  0  0  0  0  0  0  0  0  0  0
   -3.2650   16.3730  -34.3040 C   0  0  0  0  0  0  0  0  0  0  0  0
   -2.7547   15.4954  -34.7276 H   0  0  0  0  0  0  0  0  0  0  0  0
   -4.2990   16.2010  -33.3810 C   0  0  0  0  0  0  0  0  0  0  0  0
   -4.6012   15.1858  -33.0841 H   0  0  0  0  0  0  0  0  0  0  0  0
   -4.9570   17.3130  -32.8280 C   0  0  0  0  0  0  0  0  0  0  0  0
   -6.0520   17.0850  -31.8190 C   0  0  0  0  0  0  0  0  0  0  0  0
   -5.6384   17.1711  -30.8033 H   0  0  0  0  0  0  0  0  0  0  0  0
   -6.8417   17.8380  -31.9584 H   0  0  0  0  0  0  0  0  0  0  0  0
   -6.4755   16.0794  -31.9584 H   0  0  0  0  0  0  0  0  0  0  0  0
   -4.5230   20.9130  -32.2640 C   0  0  0  0  0  0  0  0  0  0  0  0
   -3.4241   20.8635  -32.2686 H   0  0  0  0  0  0  0  0  0  0  0  0
   -5.1630   22.0640  -31.7860 C   0  0  0  0  0  0  0  0  0  0  0  0
   -4.4190   23.1200  -31.3410 N   0  0  0  0  0  0  0  0  0  0  0  0
   -3.3740   23.0580  -31.3600 H   0  0  0  0  0  0  0  0  0  0  0  0
  1  2  1  0
  2  3  2  0
  3  4  1  0
  4  5  1  0
  4  6  2  0
  6  7  1  0
  6  8  1  0
  8  9  2  0
  9 10  1  0
 10 11  1  0
 10 12  1  0
 10 13  1  0
 13 14  1  0
 13 15  1  0
 13 16  1  0
 16 17  1  0
 16 18  1  0
 16 19  1  0
  9 20  1  0
 20 21  1  0
 20 22  2  0
 22 23  1  0
 23 24  2  0
 24 25  1  0
 24 26  1  0
 26 27  1  0
 26 28  2  0
 28 29  1  0
 28 30  1  0
 30 31  1  0
 30 32  2  0
 32 33  1  0
 33 34  1  0
 33 35  1  0
 33 36  1  0
 22 37  1  0
 37 38  1  0
 37 39  2  0
 39 40  1  0
 40 41  1  0
 40  3  1  0
 39  8  1  0
 32 23  1  0
M  END
>  <UniqueID>  (15) 
15

>  <SMILES>  (15) 
[H]/N=c1\ccc2c(CCC)cc(-c3ccccc3C)cc2[nH]1

>  <Energy>  (15) 
51.72534836466193

>  <Genealogy>  (15) 
[H]/N=c1\ccc2c(CCC)cc(-c3ccccc3C)cc2[nH]1 (cis-trans isomerization)
[H]/N=c1\ccc2c(CCC)cc(-c3ccccc3C)cc2[nH]1 (3D coordinates assigned)
[H]/N=c1\ccc2c(CCC)cc(-c3ccccc3C)cc2[nH]1 (optimized conformer: 51.72534836466193 kcal/mol)

>  <smiles>  (15) 
CCCc1cc(-c2ccccc2C)cc2[nH]c(=N)ccc12

>  <score_type>  (15) 
oracle

>  <origin>  (15) 
adg

>  <m_score__min__energy>  (15) 
-8.7799999999999994

>  <m_primary>  (15) 
energy

$$$$
15:0
     RDKit          3D

 53 56  0  0  0  0  0  0  0  0999 V2000
   -2.9570   18.9110  -26.3510 C   0  0  0  0  0  0  0  0  0  0  0  0
   -1.9080   19.1110  -27.4590 C   0  0  0  0  0  0  0  0  0  0  0  0
   -1.9780   20.4210  -28.1490 N   0  0  0  0  0  0  0  0  0  0  0  0
   -2.0950   21.5690  -27.2390 C   0  0  0  0  0  0  0  0  0  0  0  0
   -0.7770   22.3180  -27.2730 C   0  0  0  0  0  0  0  0  0  0  0  0
   -0.1780   21.9900  -28.6240 C   0  0  0  0  0  0  0  0  0  0  0  0
   -0.8450   20.6800  -29.0590 C   0  0  2  0  0  0  0  0  0  0  0  0
   -1.3290   20.7200  -30.5200 C   0  0  0  0  0  0  0  0  0  0  0  0
   -2.7760   20.5050  -30.6200 N   0  0  0  0  0  0  0  0  0  0  0  0
   -3.3880   19.9190  -31.7770 C   0  0  0  0  0  0  0  0  0  0  0  0
   -2.6740   19.4370  -32.6980 O   0  0  0  0  0  0  0  0  0  0  0  0
   -4.8540   19.7920  -31.8760 C   0  0  0  0  0  0  0  0  0  0  0  0
   -5.4740   18.5990  -31.6880 N   0  0  0  0  0  0  0  0  0  0  0  0
   -6.7730   18.8950  -31.8690 C   0  0  0  0  0  0  0  0  0  0  0  0
   -7.8560   18.0230  -31.8120 C   0  0  0  0  0  0  0  0  0  0  0  0
   -9.1350   18.5480  -32.0720 C   0  0  0  0  0  0  0  0  0  0  0  0
   -9.2950   19.9160  -32.3850 C   0  0  0  0  0  0  0  0  0  0  0  0
   -8.1780   20.7710  -32.4390 C   0  0  0  0  0  0  0  0  0  0  0  0
   -6.9240   20.2180  -32.1670 C   0  0  0  0  0  0  0  0  0  0  0  0
   -5.7150   20.8090  -32.1760 N   0  0  0  0  0  0  0  0  0  0  0  0
   -5.4120   22.1640  -32.6550 C   0  0  0  0  0  0  0  0  0  0  0  0
   -5.3900   23.1360  -31.5050 C   0  0  0  0  0  0  0  0  0  0  0  0
   -6.5640   23.8130  -31.1320 C   0  0  0  0  0  0  0  0  0  0  0  0
   -6.5520   24.7050  -30.0570 C   0  0  0  0  0  0  0  0  0  0  0  0
   -5.3720   24.9280  -29.3440 C   0  0  0  0  0  0  0  0  0  0  0  0
   -4.1990   24.2590  -29.7070 C   0  0  0  0  0  0  0  0  0  0  0  0
   -2.7170   24.5380  -28.8100 Cl  0  0  0  0  0  0  0  0  0  0  0  0
   -4.2070   23.3660  -30.7840 C   0  0  0  0  0  0  0  0  0  0  0  0
   -2.4734   19.0032  -25.3673 H   0  0  0  0  0  0  0  0  0  0  0  0
   -3.7419   19.6757  -26.4468 H   0  0  0  0  0  0  0  0  0  0  0  0
   -3.4055   17.9112  -26.4468 H   0  0  0  0  0  0  0  0  0  0  0  0
   -0.9097   19.0146  -27.0072 H   0  0  0  0  0  0  0  0  0  0  0  0
   -2.1130   18.3463  -28.2226 H   0  0  0  0  0  0  0  0  0  0  0  0
   -2.9100   22.2290  -27.5708 H   0  0  0  0  0  0  0  0  0  0  0  0
   -2.3202   21.2301  -26.2170 H   0  0  0  0  0  0  0  0  0  0  0  0
   -0.9445   23.4009  -27.1764 H   0  0  0  0  0  0  0  0  0  0  0  0
   -0.1141   22.0280  -26.4444 H   0  0  0  0  0  0  0  0  0  0  0  0
   -0.3958   22.7908  -29.3460 H   0  0  0  0  0  0  0  0  0  0  0  0
    0.9166   21.8941  -28.5733 H   0  0  0  0  0  0  0  0  0  0  0  0
   -0.1023   19.8705  -29.0031 H   0  0  0  0  0  0  0  0  0  0  0  0
   -1.0845   21.7028  -30.9494 H   0  0  0  0  0  0  0  0  0  0  0  0
   -0.8243   19.9119  -31.0698 H   0  0  0  0  0  0  0  0  0  0  0  0
   -3.3530   20.5990  -29.7550 H   0  0  0  0  0  0  0  0  0  0  0  0
   -7.7166   16.9587  -31.5717 H   0  0  0  0  0  0  0  0  0  0  0  0
  -10.0152   17.8896  -32.0313 H   0  0  0  0  0  0  0  0  0  0  0  0
  -10.2994   20.3160  -32.5880 H   0  0  0  0  0  0  0  0  0  0  0  0
   -8.2885   21.8370  -32.6866 H   0  0  0  0  0  0  0  0  0  0  0  0
   -4.4282   22.1627  -33.1470 H   0  0  0  0  0  0  0  0  0  0  0  0
   -6.1912   22.4726  -33.3674 H   0  0  0  0  0  0  0  0  0  0  0  0
   -7.4965   23.6396  -31.6892 H   0  0  0  0  0  0  0  0  0  0  0  0
   -7.4739   25.2329  -29.7715 H   0  0  0  0  0  0  0  0  0  0  0  0
   -5.3654   25.6298  -28.4970 H   0  0  0  0  0  0  0  0  0  0  0  0
   -3.2825   22.8417  -31.0673 H   0  0  0  0  0  0  0  0  0  0  0  0
  1  2  1  0
  2  3  1  0
  3  4  1  0
  4  5  1  0
  5  6  1  0
  6  7  1  0
  7  8  1  0
  8  9  1  0
  9 10  1  0
 10 11  2  0
 10 12  1  0
 12 13  2  0
 13 14  1  0
 14 15  2  0
 15 16  1  0
 16 17  2  0
 17 18  1  0
 18 19  2  0
 19 20  1  0
 20 21  1  0
 21 22  1  0
 22 23  2  0
 23 24  1  0
 24 25  2  0
 25 26  1  0
 26 27  1  0
 26 28  2  0
  7  3  1  0
 20 12  1  0
 28 22  1  0
 19 14  1  0
  1 29  1  0
  1 30  1  0
  1 31  1  0
  2 32  1  0
  2 33  1  0
  4 34  1  0
  4 35  1  0
  5 36  1  0
  5 37  1  0
  6 38  1  0
  6 39  1  0
  7 40  1  6
  8 41  1  0
  8 42  1  0
  9 43  1  0
 15 44  1  0
 16 45  1  0
 17 46  1  0
 18 47  1  0
 21 48  1  0
 21 49  1  0
 23 50  1  0
 24 51  1  0
 25 52  1  0
 28 53  1  0
M  END
>  <UniqueID>  (16) 
16

>  <SMILES>  (16) 
CCN1CCC[C@@H]1CNC(=O)c1nc2ccccc2n1Cc1cccc(Cl)c1

>  <Energy>  (16) 
96.12168668951756

>  <Genealogy>  (16) 
CCN1CCC[C@@H]1CNC(=O)c1nc2ccccc2n1Cc1cccc(Cl)c1 (chirality)
CCN1CCC[C@@H]1CNC(=O)c1nc2ccccc2n1Cc1cccc(Cl)c1 (3D coordinates assigned)
CCN1CCC[C@@H]1CNC(=O)c1nc2ccccc2n1Cc1cccc(Cl)c1 (nonaromatic ring conformer: 96.12168668951756 kcal/mol)

>  <smiles>  (16) 
CCN1CCCC1CNC(=O)c1nc2ccccc2n1Cc1cccc(Cl)c1

>  <score_type>  (16) 
oracle

>  <origin>  (16) 
adg

>  <m_score__min__energy>  (16) 
-9.2699999999999996

>  <m_primary>  (16) 
energy

$$$$
16:0
     RDKit          3D

 32 33  0  0  0  0  0  0  0  0999 V2000
   -7.4389   16.7972  -31.5883 H   0  0  0  0  0  0  0  0  0  0  0  0
   -7.6920   17.8150  -31.9200 C   0  0  0  0  0  0  0  0  0  0  0  0
   -7.9690   18.9290  -32.2830 C   0  0  0  0  0  0  0  0  0  0  0  0
   -8.3110   20.2860  -32.7240 C   0  0  0  0  0  0  0  0  0  0  0  0
   -8.4702   20.2865  -33.8124 H   0  0  0  0  0  0  0  0  0  0  0  0
   -9.2293   20.6119  -32.2136 H   0  0  0  0  0  0  0  0  0  0  0  0
   -7.2250   21.2050  -32.3930 N   0  0  0  0  0  0  0  0  0  0  0  0
   -7.3120   22.3320  -31.5220 C   0  0  0  0  0  0  0  0  0  0  0  0
   -8.4010   22.8090  -31.1040 O   0  0  0  0  0  0  0  0  0  0  0  0
   -5.9790   22.8120  -31.1490 C   0  0  0  0  0  0  0  0  0  0  0  0
   -5.7350   23.8050  -30.2800 C   0  0  0  0  0  0  0  0  0  0  0  0
   -6.1752   23.7247  -29.2751 H   0  0  0  0  0  0  0  0  0  0  0  0
   -4.9220   24.9910  -30.5760 C   0  0  0  0  0  0  0  0  0  0  0  0
   -5.4990   26.0800  -30.8400 O   0  0  0  0  0  0  0  0  0  0  0  0
   -3.5280   24.9300  -30.4670 O   0  0  0  0  0  0  0  0  0  0  0  0
   -2.8450   23.9900  -29.6410 C   0  0  0  0  0  0  0  0  0  0  0  0
   -3.1068   22.9707  -29.9611 H   0  0  0  0  0  0  0  0  0  0  0  0
   -1.7618   24.1542  -29.7391 H   0  0  0  0  0  0  0  0  0  0  0  0
   -3.2380   24.1720  -28.1800 C   0  0  0  0  0  0  0  0  0  0  0  0
   -2.4303   23.7979  -27.5337 H   0  0  0  0  0  0  0  0  0  0  0  0
   -3.4063   25.2397  -27.9758 H   0  0  0  0  0  0  0  0  0  0  0  0
   -4.1611   23.6097  -27.9758 H   0  0  0  0  0  0  0  0  0  0  0  0
   -5.0610   21.9220  -31.8850 C   0  0  0  0  0  0  0  0  0  0  0  0
   -3.6750   21.9900  -32.0850 C   0  0  0  0  0  0  0  0  0  0  0  0
   -3.0789   22.7861  -31.6150 H   0  0  0  0  0  0  0  0  0  0  0  0
   -3.0630   21.0220  -32.8970 C   0  0  0  0  0  0  0  0  0  0  0  0
   -1.7220   21.0560  -33.0910 F   0  0  0  0  0  0  0  0  0  0  0  0
   -3.8360   20.0310  -33.5310 C   0  0  0  0  0  0  0  0  0  0  0  0
   -3.3437   19.2629  -34.1456 H   0  0  0  0  0  0  0  0  0  0  0  0
   -5.2310   20.0180  -33.3830 C   0  0  0  0  0  0  0  0  0  0  0  0
   -5.8439   19.2640  -33.8987 H   0  0  0  0  0  0  0  0  0  0  0  0
   -5.8250   20.9840  -32.5660 C   0  0  0  0  0  0  0  0  0  0  0  0
  1  2  1  0
  2  3  3  0
  3  4  1  0
  4  5  1  0
  4  6  1  0
  4  7  1  0
  7  8  1  0
  8  9  2  0
  8 10  1  0
 10 11  2  0
 11 12  1  0
 11 13  1  0
 13 14  2  0
 13 15  1  0
 15 16  1  0
 16 17  1  0
 16 18  1  0
 16 19  1  0
 19 20  1  0
 19 21  1  0
 19 22  1  0
 10 23  1  0
 23 24  2  0
 24 25  1  0
 24 26  1  0
 26 27  1  0
 26 28  2  0
 28 29  1  0
 28 30  1  0
 30 31  1  0
 30 32  2  0
 32  7  1  0
 32 23  1  0
M  END
>  <UniqueID>  (17) 
17

>  <SMILES>  (17) 
C#CCN1C(=O)/C(=C/C(=O)OCC)c2cc(F)ccc21

>  <Energy>  (17) 
61.86196989158477

>  <Genealogy>  (17) 
C#CCN1C(=O)/C(=C/C(=O)OCC)c2cc(F)ccc21 (cis-trans isomerization)
C#CCN1C(=O)/C(=C/C(=O)OCC)c2cc(F)ccc21 (3D coordinates assigned)
C#CCN1C(=O)/C(=C/C(=O)OCC)c2cc(F)ccc21 (nonaromatic ring conformer: 61.86196989158477 kcal/mol)

>  <smiles>  (17) 
C#CCN1C(=O)C(=CC(=O)OCC)c2cc(F)ccc21

>  <score_type>  (17) 
oracle

>  <origin>  (17) 
adg

>  <m_score__min__energy>  (17) 
-7.3099999999999996

>  <m_primary>  (17) 
energy

$$$$
17:0
     RDKit          3D

 44 45  0  0  0  0  0  0  0  0999 V2000
   -6.9460   23.0330  -29.9300 C   0  0  0  0  0  0  0  0  0  0  0  0
   -6.3650   23.4830  -31.2050 N   0  0  0  0  0  0  0  0  0  0  0  0
   -7.2630   23.1050  -32.3110 C   0  0  0  0  0  0  0  0  0  0  0  0
   -6.1450   24.9460  -31.1740 C   0  0  0  0  0  0  0  0  0  0  0  0
   -5.1570   25.3260  -30.0700 C   0  0  0  0  0  0  0  0  0  0  0  0
   -3.8390   24.9890  -30.4870 O   0  0  0  0  0  0  0  0  0  0  0  0
   -3.2210   23.7230  -30.4640 C   0  0  0  0  0  0  0  0  0  0  0  0
   -3.8140   22.7440  -31.2080 N   0  0  0  0  0  0  0  0  0  0  0  0
   -3.3310   21.4700  -31.2730 C   0  0  0  0  0  0  0  0  0  0  0  0
   -3.9980   20.4840  -32.0790 N   0  0  0  0  0  0  0  0  0  0  0  0
   -3.4430   20.1110  -33.3800 C   0  0  0  0  0  0  0  0  0  0  0  0
   -3.7610   18.6400  -33.6850 C   0  0  0  0  0  0  0  0  0  0  0  0
   -5.1900   18.3150  -33.4980 N   0  0  0  0  0  0  0  0  0  0  0  0
   -6.0380   18.8570  -34.5730 C   0  0  0  0  0  0  0  0  0  0  0  0
   -5.6730   18.6860  -32.1520 C   0  0  0  0  0  0  0  0  0  0  0  0
   -5.4020   20.1580  -31.8120 C   0  0  0  0  0  0  0  0  0  0  0  0
   -2.1730   21.1360  -30.5660 C   0  0  0  0  0  0  0  0  0  0  0  0
   -1.6450   19.8880  -30.6460 F   0  0  0  0  0  0  0  0  0  0  0  0
   -1.5370   22.1050  -29.7980 C   0  0  0  0  0  0  0  0  0  0  0  0
   -2.0440   23.4060  -29.7310 C   0  0  0  0  0  0  0  0  0  0  0  0
   -1.1430   24.5350  -28.7240 Cl  0  0  0  0  0  0  0  0  0  0  0  0
   -6.3804   23.4711  -29.0944 H   0  0  0  0  0  0  0  0  0  0  0  0
   -7.9959   23.3559  -29.8713 H   0  0  0  0  0  0  0  0  0  0  0  0
   -6.8960   21.9357  -29.8713 H   0  0  0  0  0  0  0  0  0  0  0  0
   -8.2036   22.7091  -31.9006 H   0  0  0  0  0  0  0  0  0  0  0  0
   -7.4762   23.9897  -32.9289 H   0  0  0  0  0  0  0  0  0  0  0  0
   -6.7793   22.3341  -32.9289 H   0  0  0  0  0  0  0  0  0  0  0  0
   -5.7424   25.2703  -32.1449 H   0  0  0  0  0  0  0  0  0  0  0  0
   -7.1059   25.4417  -30.9716 H   0  0  0  0  0  0  0  0  0  0  0  0
   -5.2173   26.4075  -29.8783 H   0  0  0  0  0  0  0  0  0  0  0  0
   -5.4044   24.7798  -29.1478 H   0  0  0  0  0  0  0  0  0  0  0  0
   -4.6830   22.9830  -31.7350 H   0  0  0  0  0  0  0  0  0  0  0  0
   -3.8842   20.7484  -34.1604 H   0  0  0  0  0  0  0  0  0  0  0  0
   -2.3517   20.2475  -33.3593 H   0  0  0  0  0  0  0  0  0  0  0  0
   -3.4860   18.4297  -34.7291 H   0  0  0  0  0  0  0  0  0  0  0  0
   -3.1848   18.0225  -32.9803 H   0  0  0  0  0  0  0  0  0  0  0  0
   -6.8871   19.3997  -34.1319 H   0  0  0  0  0  0  0  0  0  0  0  0
   -5.4465   19.5449  -35.1951 H   0  0  0  0  0  0  0  0  0  0  0  0
   -6.4139   18.0313  -35.1951 H   0  0  0  0  0  0  0  0  0  0  0  0
   -6.7574   18.5077  -32.1054 H   0  0  0  0  0  0  0  0  0  0  0  0
   -5.1285   18.0699  -31.4214 H   0  0  0  0  0  0  0  0  0  0  0  0
   -6.0486   20.7994  -32.4289 H   0  0  0  0  0  0  0  0  0  0  0  0
   -5.6157   20.3277  -30.7464 H   0  0  0  0  0  0  0  0  0  0  0  0
   -0.6265   21.8455  -29.2380 H   0  0  0  0  0  0  0  0  0  0  0  0
  1  2  1  0
  2  3  1  0
  2  4  1  0
  4  5  1  0
  5  6  1  0
  6  7  1  0
  7  8  2  0
  8  9  1  0
  9 10  1  0
 10 11  1  0
 11 12  1  0
 12 13  1  0
 13 14  1  0
 13 15  1  0
 15 16  1  0
  9 17  2  0
 17 18  1  0
 17 19  1  0
 19 20  2  0
 20 21  1  0
 20  7  1  0
 16 10  1  0
  1 22  1  0
  1 23  1  0
  1 24  1  0
  3 25  1  0
  3 26  1  0
  3 27  1  0
  4 28  1  0
  4 29  1  0
  5 30  1  0
  5 31  1  0
  8 32  1  0
 11 33  1  0
 11 34  1  0
 12 35  1  0
 12 36  1  0
 14 37  1  0
 14 38  1  0
 14 39  1  0
 15 40  1  0
 15 41  1  0
 16 42  1  0
 16 43  1  0
 19 44  1  0
M  CHG  1   8   1
M  END
>  <UniqueID>  (18) 
18

>  <SMILES>  (18) 
CN(C)CCOc1[nH+]c(N2CCN(C)CC2)c(F)cc1Cl

>  <Energy>  (18) 
53.893364480306246

>  <Genealogy>  (18) 
CN(C)CCOc1[nH+]c(N2CCN(C)CC2)c(F)cc1Cl (protonated)
CN(C)CCOc1[nH+]c(N2CCN(C)CC2)c(F)cc1Cl (3D coordinates assigned)
CN(C)CCOc1[nH+]c(N2CCN(C)CC2)c(F)cc1Cl (nonaromatic ring conformer: 53.893364480306246 kcal/mol)

>  <smiles>  (18) 
CN(C)CCOc1nc(N2CCN(C)CC2)c(F)cc1Cl

>  <score_type>  (18) 
oracle

>  <origin>  (18) 
adg

>  <m_score__min__energy>  (18) 
-5.9199999999999999

>  <m_primary>  (18) 
energy

$$$$
18:0
     RDKit          3D

 38 39  0  0  0  0  0  0  0  0999 V2000
   -2.7900   19.4310  -33.8440 C   0  0  0  0  0  0  0  0  0  0  0  0
   -4.0940   19.6560  -33.2150 N   0  0  0  0  0  0  0  0  0  0  0  0
   -5.1410   18.8420  -33.8490 C   0  0  0  0  0  0  0  0  0  0  0  0
   -6.4580   18.9640  -33.1140 C   0  0  0  0  0  0  0  0  0  0  0  0
   -7.1360   17.7940  -32.7300 C   0  0  0  0  0  0  0  0  0  0  0  0
   -8.3040   17.8650  -31.9690 C   0  0  0  0  0  0  0  0  0  0  0  0
   -8.7980   19.1050  -31.5590 C   0  0  0  0  0  0  0  0  0  0  0  0
   -8.1280   20.2760  -31.9180 C   0  0  0  0  0  0  0  0  0  0  0  0
   -6.9720   20.2190  -32.7060 C   0  0  0  0  0  0  0  0  0  0  0  0
   -6.3410   21.4180  -33.0540 O   0  0  0  0  0  0  0  0  0  0  0  0
   -6.2100   22.5280  -32.2020 C   0  0  0  0  0  0  0  0  0  0  0  0
   -7.3750   23.1490  -31.7650 C   0  0  0  0  0  0  0  0  0  0  0  0
   -7.3110   24.2050  -30.9170 N   0  0  0  0  0  0  0  0  0  0  0  0
   -6.1410   24.6840  -30.4770 N   0  0  0  0  0  0  0  0  0  0  0  0
   -6.1330   25.8270  -29.5540 C   0  0  0  0  0  0  0  0  0  0  0  0
   -4.9570   24.1380  -30.8980 C   0  0  0  0  0  0  0  0  0  0  0  0
   -3.8670   24.6210  -30.4870 O   0  0  0  0  0  0  0  0  0  0  0  0
   -4.9660   23.0410  -31.7900 C   0  0  0  0  0  0  0  0  0  0  0  0
   -3.7950   22.4490  -32.3030 O   0  0  0  0  0  0  0  0  0  0  0  0
   -2.7100   21.9200  -31.5490 C   0  0  0  0  0  0  0  0  0  0  0  0
   -2.0249   19.2990  -33.0648 H   0  0  0  0  0  0  0  0  0  0  0  0
   -2.8358   18.5275  -34.4697 H   0  0  0  0  0  0  0  0  0  0  0  0
   -2.5303   20.2976  -34.4697 H   0  0  0  0  0  0  0  0  0  0  0  0
   -4.3410   20.6620  -33.3660 H   0  0  0  0  0  0  0  0  0  0  0  0
   -5.2779   19.1804  -34.8867 H   0  0  0  0  0  0  0  0  0  0  0  0
   -4.8251   17.7887  -33.8196 H   0  0  0  0  0  0  0  0  0  0  0  0
   -6.7421   16.8125  -33.0323 H   0  0  0  0  0  0  0  0  0  0  0  0
   -8.8360   16.9429  -31.6919 H   0  0  0  0  0  0  0  0  0  0  0  0
   -9.7147   19.1592  -30.9534 H   0  0  0  0  0  0  0  0  0  0  0  0
   -8.5109   21.2501  -31.5795 H   0  0  0  0  0  0  0  0  0  0  0  0
   -8.3532   22.7817  -32.1090 H   0  0  0  0  0  0  0  0  0  0  0  0
   -8.2110   24.6360  -30.6070 H   0  0  0  0  0  0  0  0  0  0  0  0
   -6.1356   25.4607  -28.5168 H   0  0  0  0  0  0  0  0  0  0  0  0
   -5.2306   26.4317  -29.7271 H   0  0  0  0  0  0  0  0  0  0  0  0
   -7.0268   26.4443  -29.7271 H   0  0  0  0  0  0  0  0  0  0  0  0
   -2.9243   22.0245  -30.4752 H   0  0  0  0  0  0  0  0  0  0  0  0
   -2.5771   20.8560  -31.7945 H   0  0  0  0  0  0  0  0  0  0  0  0
   -1.7899   22.4706  -31.7945 H   0  0  0  0  0  0  0  0  0  0  0  0
  1  2  1  0
  2  3  1  0
  3  4  1  0
  4  5  2  0
  5  6  1  0
  6  7  2  0
  7  8  1  0
  8  9  2  0
  9 10  1  0
 10 11  1  0
 11 12  1  0
 12 13  2  0
 13 14  1  0
 14 15  1  0
 14 16  1  0
 16 17  2  0
 16 18  1  0
 18 19  1  0
 19 20  1  0
  9  4  1  0
 18 11  2  0
  1 21  1  0
  1 22  1  0
  1 23  1  0
  2 24  1  0
  3 25  1  0
  3 26  1  0
  5 27  1  0
  6 28  1  0
  7 29  1  0
  8 30  1  0
 12 31  1  0
 13 32  1  0
 15 33  1  0
 15 34  1  0
 15 35  1  0
 20 36  1  0
 20 37  1  0
 20 38  1  0
M  CHG  1  13   1
M  END
>  <UniqueID>  (19) 
19

>  <SMILES>  (19) 
CNCc1ccccc1Oc1c[nH+]n(C)c(=O)c1OC

>  <Energy>  (19) 
50.43043953870051

>  <Genealogy>  (19) 
CNCc1ccccc1Oc1c[nH+]n(C)c(=O)c1OC (protonated)
CNCc1ccccc1Oc1c[nH+]n(C)c(=O)c1OC (3D coordinates assigned)
CNCc1ccccc1Oc1c[nH+]n(C)c(=O)c1OC (optimized conformer: 50.43043953870051 kcal/mol)

>  <smiles>  (19) 
CNCc1ccccc1Oc1cnn(C)c(=O)c1OC

>  <score_type>  (19) 
oracle

>  <origin>  (19) 
adg

>  <m_score__min__energy>  (19) 
-6.6200000000000001

>  <m_primary>  (19) 
energy

$$$$
19:0
     RDKit          3D

 38 40  0  0  1  0  0  0  0  0999 V2000
   -4.3190   18.1220  -34.2900 C   0  0  0  0  0  0  0  0  0  0  0  0
   -3.1420   18.6980  -33.5090 C   0  0  0  0  0  0  0  0  0  0  0  0
   -2.6080   19.7720  -34.2100 O   0  0  0  0  0  0  0  0  0  0  0  0
   -2.1420   20.6990  -33.2910 C   0  0  0  0  0  0  0  0  0  0  0  0
   -3.2210   21.5470  -32.7220 C   0  0  0  0  0  0  0  0  0  0  0  0
   -3.0060   22.5830  -31.9020 N   0  0  0  0  0  0  0  0  0  0  0  0
   -4.2120   23.0940  -31.6020 C   0  0  0  0  0  0  0  0  0  0  0  0
   -4.4940   24.1390  -30.8130 N   0  0  0  0  0  0  0  0  0  0  0  0
   -5.7660   24.5160  -30.6230 C   0  0  0  0  0  0  0  0  0  0  0  0
   -6.1030   25.6740  -29.7510 C   0  0  0  0  0  0  0  0  0  0  0  0
   -6.7340   23.7800  -31.2710 C   0  0  0  0  0  0  0  0  0  0  0  0
   -6.4090   22.6890  -32.0920 C   0  0  0  0  0  0  0  0  0  0  0  0
   -7.3620   22.0870  -32.6350 N   0  0  0  0  0  0  0  0  0  0  0  0
   -7.7370   20.8020  -32.4290 C   0  0  0  0  0  0  0  0  0  0  0  0
   -8.7500   20.5100  -31.5030 C   0  0  0  0  0  0  0  0  0  0  0  0
   -9.0690   19.1790  -31.2750 C   0  0  0  0  0  0  0  0  0  0  0  0
   -8.4130   18.1500  -31.9380 C   0  0  0  0  0  0  0  0  0  0  0  0
   -7.4050   18.4440  -32.8580 C   0  0  0  0  0  0  0  0  0  0  0  0
   -7.0720   19.7630  -33.1000 C   0  0  0  0  0  0  0  0  0  0  0  0
   -5.1270   22.3540  -32.2490 N   0  0  0  0  0  0  0  0  0  0  0  0
   -4.5670   21.3970  -32.9470 N   0  0  0  0  0  0  0  0  0  0  0  0
   -5.0788   17.7502  -33.5869 H   0  0  0  0  0  0  0  0  0  0  0  0
   -4.7582   18.9070  -34.9232 H   0  0  0  0  0  0  0  0  0  0  0  0
   -3.9687   17.2935  -34.9232 H   0  0  0  0  0  0  0  0  0  0  0  0
   -3.4874   19.0387  -32.5218 H   0  0  0  0  0  0  0  0  0  0  0  0
   -2.3719   17.9235  -33.3782 H   0  0  0  0  0  0  0  0  0  0  0  0
   -1.6497   20.1597  -32.4683 H   0  0  0  0  0  0  0  0  0  0  0  0
   -1.4455   21.3653  -33.8209 H   0  0  0  0  0  0  0  0  0  0  0  0
   -6.0162   25.3758  -28.6957 H   0  0  0  0  0  0  0  0  0  0  0  0
   -5.4086   26.5020  -29.9564 H   0  0  0  0  0  0  0  0  0  0  0  0
   -7.1333   26.0001  -29.9564 H   0  0  0  0  0  0  0  0  0  0  0  0
   -7.7911   24.0552  -31.1412 H   0  0  0  0  0  0  0  0  0  0  0  0
   -9.2777   21.3156  -30.9715 H   0  0  0  0  0  0  0  0  0  0  0  0
   -9.8605   18.9330  -30.5518 H   0  0  0  0  0  0  0  0  0  0  0  0
   -8.6876   17.1037  -31.7383 H   0  0  0  0  0  0  0  0  0  0  0  0
   -6.8808   17.6333  -33.3853 H   0  0  0  0  0  0  0  0  0  0  0  0
   -6.2792   20.0012  -33.8244 H   0  0  0  0  0  0  0  0  0  0  0  0
   -4.8920   20.6530  -33.5510 H   0  0  0  0  0  0  0  0  0  0  0  0
  1  2  1  0
  2  3  1  0
  3  4  1  0
  4  5  1  0
  5  6  2  0
  6  7  1  0
  7  8  2  0
  8  9  1  0
  9 10  1  0
  9 11  2  0
 11 12  1  0
 12 13  2  0
 13 14  1  0
 14 15  2  0
 15 16  1  0
 16 17  2  0
 17 18  1  0
 18 19  2  0
 12 20  1  0
 20 21  1  0
 21  5  1  0
 20  7  1  0
 19 14  1  0
  1 22  1  0
  1 23  1  0
  1 24  1  0
  2 25  1  0
  2 26  1  0
  4 27  1  0
  4 28  1  0
 10 29  1  0
 10 30  1  0
 10 31  1  0
 11 32  1  0
 15 33  1  0
 16 34  1  0
 17 35  1  0
 18 36  1  0
 19 37  1  0
 21 38  1  0
M  END
>  <smiles>  (20) 
CCOCc1nc2nc(C)cc(=Nc3ccccc3)n2[nH]1

>  <score_type>  (20) 
oracle

>  <origin>  (20) 
adg

>  <m_score__min__energy>  (20) 
-7.3799999999999999

>  <m_primary>  (20) 
energy

$$$$
20:0
     RDKit          3D

 33 36  0  0  0  0  0  0  0  0999 V2000
   -8.8690   20.0550  -33.0370 C   0  0  0  0  0  0  0  0  0  0  0  0
   -9.3610   21.0540  -32.1990 C   0  0  0  0  0  0  0  0  0  0  0  0
   -8.4800   21.8110  -31.4230 C   0  0  0  0  0  0  0  0  0  0  0  0
   -7.0970   21.5590  -31.4980 C   0  0  0  0  0  0  0  0  0  0  0  0
   -6.1160   22.3310  -30.6910 C   0  0  0  0  0  0  0  0  0  0  0  0
   -6.4450   23.5830  -30.1390 C   0  0  0  0  0  0  0  0  0  0  0  0
   -5.5050   24.2980  -29.3900 C   0  0  0  0  0  0  0  0  0  0  0  0
   -4.2170   23.7800  -29.1800 C   0  0  0  0  0  0  0  0  0  0  0  0
   -3.2240   24.5360  -28.3850 C   0  0  0  0  0  0  0  0  0  0  0  0
   -3.2040   24.5290  -27.0240 N   0  0  0  0  0  0  0  0  0  0  0  0
   -2.1670   25.3280  -26.7390 C   0  0  0  0  0  0  0  0  0  0  0  0
   -1.6830   25.6820  -25.4810 C   0  0  0  0  0  0  0  0  0  0  0  0
   -0.5710   26.5440  -25.4290 C   0  0  0  0  0  0  0  0  0  0  0  0
    0.0200   27.0210  -26.6220 C   0  0  0  0  0  0  0  0  0  0  0  0
   -0.4980   26.6400  -27.8740 C   0  0  0  0  0  0  0  0  0  0  0  0
   -1.5990   25.7870  -27.8860 C   0  0  0  0  0  0  0  0  0  0  0  0
   -2.2500   25.3000  -28.9520 N   0  0  0  0  0  0  0  0  0  0  0  0
   -3.8840   22.5360  -29.7390 C   0  0  0  0  0  0  0  0  0  0  0  0
   -4.8220   21.8220  -30.4900 C   0  0  0  0  0  0  0  0  0  0  0  0
   -6.6500   20.5660  -32.3210 N   0  0  0  0  0  0  0  0  0  0  0  0
   -7.4940   19.8200  -33.0830 C   0  0  0  0  0  0  0  0  0  0  0  0
   -9.5564   19.4587  -33.6550 H   0  0  0  0  0  0  0  0  0  0  0  0
  -10.4429   21.2464  -32.1487 H   0  0  0  0  0  0  0  0  0  0  0  0
   -8.8642   22.5985  -30.7580 H   0  0  0  0  0  0  0  0  0  0  0  0
   -7.4494   24.0025  -30.2979 H   0  0  0  0  0  0  0  0  0  0  0  0
   -5.7769   25.2741  -28.9619 H   0  0  0  0  0  0  0  0  0  0  0  0
   -2.1528   25.3017  -24.5619 H   0  0  0  0  0  0  0  0  0  0  0  0
   -0.1597   26.8481  -24.4552 H   0  0  0  0  0  0  0  0  0  0  0  0
    0.8891   27.6933  -26.5712 H   0  0  0  0  0  0  0  0  0  0  0  0
   -0.0490   27.0032  -28.8102 H   0  0  0  0  0  0  0  0  0  0  0  0
   -2.8774   22.1201  -29.5848 H   0  0  0  0  0  0  0  0  0  0  0  0
   -4.5443   20.8519  -30.9280 H   0  0  0  0  0  0  0  0  0  0  0  0
   -7.0927   19.0309  -33.7360 H   0  0  0  0  0  0  0  0  0  0  0  0
  1  2  2  0
  2  3  1  0
  3  4  2  0
  4  5  1  0
  5  6  2  0
  6  7  1  0
  7  8  2  0
  8  9  1  0
  9 10  2  0
 10 11  1  0
 11 12  2  0
 12 13  1  0
 13 14  2  0
 14 15  1  0
 15 16  2  0
 16 17  1  0
  8 18  1  0
 18 19  2  0
  4 20  1  0
 20 21  2  0
 21  1  1  0
 19  5  1  0
 17  9  1  0
 16 11  1  0
  1 22  1  0
  2 23  1  0
  3 24  1  0
  6 25  1  0
  7 26  1  0
 12 27  1  0
 13 28  1  0
 14 29  1  0
 15 30  1  0
 18 31  1  0
 19 32  1  0
 21 33  1  0
M  CHG  1  17  -1
M  END
>  <UniqueID>  (21) 
20

>  <SMILES>  (21) 
c1ccc(-c2ccc(-c3nc4ccccc4[n-]3)cc2)nc1

>  <Energy>  (21) 
78.25301842003842

>  <Genealogy>  (21) 
c1ccc(-c2ccc(-c3nc4ccccc4[n-]3)cc2)nc1 (protonated)
c1ccc(-c2ccc(-c3nc4ccccc4[n-]3)cc2)nc1 (3D coordinates assigned)
c1ccc(-c2ccc(-c3nc4ccccc4[n-]3)cc2)nc1 (optimized conformer: 78.25301842003842 kcal/mol)

>  <smiles>  (21) 
c1ccc(-c2ccc(-c3nc4ccccc4[nH]3)cc2)nc1

>  <score_type>  (21) 
oracle

>  <origin>  (21) 
adg

>  <m_score__min__energy>  (21) 
-8.0899999999999999

>  <m_primary>  (21) 
energy

$$$$
21:0
     RDKit          3D

 32 33  0  0  0  0  0  0  0  0999 V2000
   -6.0950   18.9160  -34.1920 C   0  0  0  0  0  0  0  0  0  0  0  0
   -6.0670   20.0210  -33.2840 N   0  0  0  0  0  0  0  0  0  0  0  0
   -4.8810   20.5490  -32.9350 C   0  0  0  0  0  0  0  0  0  0  0  0
   -4.7830   21.6030  -32.0750 N   0  0  0  0  0  0  0  0  0  0  0  0
   -5.9270   22.0990  -31.5850 C   0  0  0  0  0  0  0  0  0  0  0  0
   -7.1540   21.5700  -31.9310 C   0  0  0  0  0  0  0  0  0  0  0  0
   -7.2300   20.5000  -32.8060 C   0  0  0  0  0  0  0  0  0  0  0  0
   -8.3820   20.0480  -33.0940 N   0  0  0  0  0  0  0  0  0  0  0  0
   -8.1900   22.3350  -31.2260 C   0  0  0  0  0  0  0  0  0  0  0  0
   -9.2030   21.4510  -30.5620 C   0  0  0  0  0  0  0  0  0  0  0  0
   -8.9530   23.2400  -32.1820 C   0  0  0  0  0  0  0  0  0  0  0  0
   -7.5240   23.0880  -30.2820 O   0  0  0  0  0  0  0  0  0  0  0  0
   -6.2110   23.2100  -30.6500 C   0  0  0  0  0  0  0  0  0  0  0  0
   -5.3650   23.1130  -29.3810 C   0  0  0  0  0  0  0  0  0  0  0  0
   -5.9210   24.5470  -31.3180 C   0  0  0  0  0  0  0  0  0  0  0  0
   -6.1189   17.9747  -33.6234 H   0  0  0  0  0  0  0  0  0  0  0  0
   -6.9917   18.9846  -34.8254 H   0  0  0  0  0  0  0  0  0  0  0  0
   -5.1960   18.9391  -34.8254 H   0  0  0  0  0  0  0  0  0  0  0  0
   -3.9610   20.1175  -33.3561 H   0  0  0  0  0  0  0  0  0  0  0  0
   -8.7500   19.7380  -33.9970 H   0  0  0  0  0  0  0  0  0  0  0  0
   -9.1047   21.5368  -29.4698 H   0  0  0  0  0  0  0  0  0  0  0  0
  -10.2142   21.7606  -30.8646 H   0  0  0  0  0  0  0  0  0  0  0  0
   -9.0332   20.4072  -30.8646 H   0  0  0  0  0  0  0  0  0  0  0  0
   -9.5569   23.9563  -31.6056 H   0  0  0  0  0  0  0  0  0  0  0  0
   -8.2402   23.7879  -32.8158 H   0  0  0  0  0  0  0  0  0  0  0  0
   -9.6135   22.6301  -32.8158 H   0  0  0  0  0  0  0  0  0  0  0  0
   -6.0176   23.1878  -28.4987 H   0  0  0  0  0  0  0  0  0  0  0  0
   -4.8365   22.1484  -29.3655 H   0  0  0  0  0  0  0  0  0  0  0  0
   -4.6319   23.9330  -29.3655 H   0  0  0  0  0  0  0  0  0  0  0  0
   -5.7547   25.3137  -30.5469 H   0  0  0  0  0  0  0  0  0  0  0  0
   -5.0216   24.4563  -31.9448 H   0  0  0  0  0  0  0  0  0  0  0  0
   -6.7771   24.8370  -31.9448 H   0  0  0  0  0  0  0  0  0  0  0  0
  1  2  1  0
  2  3  1  0
  3  4  2  0
  4  5  1  0
  5  6  2  0
  6  7  1  0
  7  8  2  3
  6  9  1  0
  9 10  1  0
  9 11  1  0
  9 12  1  0
 12 13  1  0
 13 14  1  0
 13 15  1  0
  7  2  1  0
 13  5  1  0
  1 16  1  0
  1 17  1  0
  1 18  1  0
  3 19  1  0
  8 20  1  0
 10 21  1  0
 10 22  1  0
 10 23  1  0
 11 24  1  0
 11 25  1  0
 11 26  1  0
 14 27  1  0
 14 28  1  0
 14 29  1  0
 15 30  1  0
 15 31  1  0
 15 32  1  0
M  END
>  <smiles>  (22) 
Cn1cnc2c(c1=N)C(C)(C)OC2(C)C

>  <score_type>  (22) 
oracle

>  <origin>  (22) 
adg

>  <m_score__min__energy>  (22) 
-6.0199999999999996

>  <m_primary>  (22) 
energy

$$$$
22:0
     RDKit          3D

 45 47  0  0  0  0  0  0  0  0999 V2000
   -4.2180   25.6740  -31.5830 H   0  0  0  0  0  0  0  0  0  0  0  0
   -3.9860   25.0380  -30.7880 N   0  0  0  0  0  0  0  0  0  0  0  0
   -4.9030   24.5490  -30.0120 C   0  0  0  0  0  0  0  0  0  0  0  0
   -6.0180   23.7630  -30.5990 C   0  0  0  0  0  0  0  0  0  0  0  0
   -6.2820   23.8040  -31.9810 C   0  0  0  0  0  0  0  0  0  0  0  0
   -5.6684   24.4418  -32.6343 H   0  0  0  0  0  0  0  0  0  0  0  0
   -7.3150   23.0430  -32.5300 C   0  0  0  0  0  0  0  0  0  0  0  0
   -7.5047   23.0803  -33.6129 H   0  0  0  0  0  0  0  0  0  0  0  0
   -8.1130   22.2310  -31.7110 C   0  0  0  0  0  0  0  0  0  0  0  0
   -9.1830   21.3710  -32.3250 C   0  0  0  0  0  0  0  0  0  0  0  0
   -9.9245   21.1050  -31.5573 H   0  0  0  0  0  0  0  0  0  0  0  0
   -9.6767   21.9254  -33.1368 H   0  0  0  0  0  0  0  0  0  0  0  0
   -8.5790   20.1460  -32.8670 N   0  0  0  0  0  0  0  0  0  0  0  0
   -8.9030   20.0250  -33.8550 H   0  0  0  0  0  0  0  0  0  0  0  0
   -8.9640   18.9470  -32.1060 C   0  0  0  0  0  0  0  0  0  0  0  0
   -9.5694   19.2447  -31.2372 H   0  0  0  0  0  0  0  0  0  0  0  0
   -9.5494   18.2781  -32.7540 H   0  0  0  0  0  0  0  0  0  0  0  0
   -7.7120   18.2150  -31.6250 C   0  0  0  0  0  0  0  0  0  0  0  0
   -7.4114   18.6163  -30.6459 H   0  0  0  0  0  0  0  0  0  0  0  0
   -7.9370   17.1415  -31.5413 H   0  0  0  0  0  0  0  0  0  0  0  0
   -6.6140   18.3970  -32.5790 N   0  0  0  0  0  0  0  0  0  0  0  0
   -6.2920   17.5860  -33.6190 C   0  0  0  0  0  0  0  0  0  0  0  0
   -6.9610   16.5670  -33.9380 O   0  0  0  0  0  0  0  0  0  0  0  0
   -5.1630   17.9700  -34.2650 N   0  0  0  0  0  0  0  0  0  0  0  0
   -4.4890   17.2780  -35.3610 C   0  0  0  0  0  0  0  0  0  0  0  0
   -3.7770   16.5470  -34.9503 H   0  0  0  0  0  0  0  0  0  0  0  0
   -5.2347   16.7563  -35.9789 H   0  0  0  0  0  0  0  0  0  0  0  0
   -3.9479   18.0097  -35.9789 H   0  0  0  0  0  0  0  0  0  0  0  0
   -4.7360   19.0440  -33.5710 C   0  0  0  0  0  0  0  0  0  0  0  0
   -3.5780   19.8030  -33.7570 C   0  0  0  0  0  0  0  0  0  0  0  0
   -2.8751   19.5780  -34.5727 H   0  0  0  0  0  0  0  0  0  0  0  0
   -3.3420   20.8640  -32.8660 C   0  0  0  0  0  0  0  0  0  0  0  0
   -2.4445   21.4885  -32.9866 H   0  0  0  0  0  0  0  0  0  0  0  0
   -4.2490   21.1350  -31.8160 C   0  0  0  0  0  0  0  0  0  0  0  0
   -4.0505   21.9674  -31.1248 H   0  0  0  0  0  0  0  0  0  0  0  0
   -5.4030   20.3490  -31.6480 C   0  0  0  0  0  0  0  0  0  0  0  0
   -6.1136   20.5489  -30.8325 H   0  0  0  0  0  0  0  0  0  0  0  0
   -5.6160   19.3060  -32.5520 C   0  0  0  0  0  0  0  0  0  0  0  0
   -7.8490   22.1760  -30.3350 C   0  0  0  0  0  0  0  0  0  0  0  0
   -8.4613   21.5329  -29.6857 H   0  0  0  0  0  0  0  0  0  0  0  0
   -6.8120   22.9340  -29.7840 C   0  0  0  0  0  0  0  0  0  0  0  0
   -6.6144   22.8823  -28.7031 H   0  0  0  0  0  0  0  0  0  0  0  0
   -4.8200   24.7680  -28.5990 N   0  0  0  0  0  0  0  0  0  0  0  0
   -4.0750   25.3830  -28.2000 H   0  0  0  0  0  0  0  0  0  0  0  0
   -5.4390   24.2620  -27.9300 H   0  0  0  0  0  0  0  0  0  0  0  0
  1  2  1  0
  2  3  2  0
  3  4  1  0
  4  5  2  0
  5  6  1  0
  5  7  1  0
  7  8  1  0
  7  9  2  0
  9 10  1  0
 10 11  1  0
 10 12  1  0
 10 13  1  0
 13 14  1  0
 13 15  1  0
 15 16  1  0
 15 17  1  0
 15 18  1  0
 18 19  1  0
 18 20  1  0
 18 21  1  0
 21 22  1  0
 22 23  2  0
 22 24  1  0
 24 25  1  0
 25 26  1  0
 25 27  1  0
 25 28  1  0
 24 29  1  0
 29 30  2  0
 30 31  1  0
 30 32  1  0
 32 33  1  0
 32 34  2  0
 34 35  1  0
 34 36  1  0
 36 37  1  0
 36 38  2  0
  9 39  1  0
 39 40  1  0
 39 41  2  0
 41 42  1  0
  3 43  1  0
 43 44  1  0
 43 45  1  0
 41  4  1  0
 38 21  1  0
 38 29  1  0
M  END
>  <UniqueID>  (23) 
21

>  <SMILES>  (23) 
[H]/N=C(\N)c1ccc(CNCCn2c(=O)n(C)c3ccccc32)cc1

>  <Energy>  (23) 
79.53890020075222

>  <Genealogy>  (23) 
[H]/N=C(\N)c1ccc(CNCCn2c(=O)n(C)c3ccccc32)cc1 (cis-trans isomerization)
[H]/N=C(\N)c1ccc(CNCCn2c(=O)n(C)c3ccccc32)cc1 (3D coordinates assigned)
[H]/N=C(\N)c1ccc(CNCCn2c(=O)n(C)c3ccccc32)cc1 (optimized conformer: 79.53890020075222 kcal/mol)

>  <smiles>  (23) 
Cn1c(=O)n(CCNCc2ccc(C(=N)N)cc2)c2ccccc21

>  <score_type>  (23) 
oracle

>  <origin>  (23) 
adg

>  <m_score__min__energy>  (23) 
-9.7799999999999994

>  <m_primary>  (23) 
energy

$$$$
23:0
     RDKit          3D

 48 51  0  0  0  0  0  0  0  0999 V2000
   -1.6540   25.9000  -28.9680 O   0  0  0  0  0  0  0  0  0  0  0  0
   -1.9130   25.2270  -27.9310 C   0  0  0  0  0  0  0  0  0  0  0  0
   -3.1190   24.4490  -27.8500 N   0  0  0  0  0  0  0  0  0  0  0  0
   -4.0490   24.1700  -28.9090 C   0  0  0  0  0  0  0  0  0  0  0  0
   -4.0950   24.9340  -30.0920 C   0  0  0  0  0  0  0  0  0  0  0  0
   -5.0280   24.6320  -31.0920 C   0  0  0  0  0  0  0  0  0  0  0  0
   -5.9350   23.5800  -30.9100 C   0  0  0  0  0  0  0  0  0  0  0  0
   -7.2070   23.1580  -32.2790 Br  0  0  0  0  0  0  0  0  0  0  0  0
   -5.9110   22.8320  -29.7270 C   0  0  0  0  0  0  0  0  0  0  0  0
   -4.9790   23.1370  -28.7260 C   0  0  0  0  0  0  0  0  0  0  0  0
   -0.9640   25.2310  -26.7440 C   0  0  2  0  0  0  0  0  0  0  0  0
    0.2520   26.2100  -26.8750 C   0  0  0  0  0  0  0  0  0  0  0  0
    1.4690   25.6250  -26.4220 O   0  0  0  0  0  0  0  0  0  0  0  0
    1.2940   25.0780  -25.1280 C   0  0  0  0  0  0  0  0  0  0  0  0
    0.2960   23.8980  -25.1410 C   0  0  0  0  0  0  0  0  0  0  0  0
   -0.5140   23.8590  -26.3820 N   0  0  2  0  0  0  0  0  0  0  0  0
    0.3240   23.0270  -27.6960 S   0  0  0  0  0  0  0  0  0  0  0  0
    1.3100   22.0190  -27.1680 O   0  0  0  0  0  0  0  0  0  0  0  0
    1.0750   23.9990  -28.5710 O   0  0  0  0  0  0  0  0  0  0  0  0
   -0.8740   22.1740  -28.6720 C   0  0  0  0  0  0  0  0  0  0  0  0
   -1.8380   21.3800  -28.0350 C   0  0  0  0  0  0  0  0  0  0  0  0
   -2.8440   20.7510  -28.7770 C   0  0  0  0  0  0  0  0  0  0  0  0
   -2.9000   20.9180  -30.1690 C   0  0  0  0  0  0  0  0  0  0  0  0
   -3.9280   20.3200  -30.9190 C   0  0  0  0  0  0  0  0  0  0  0  0
   -3.9830   20.5100  -32.3110 C   0  0  0  0  0  0  0  0  0  0  0  0
   -3.0140   21.2960  -32.9580 C   0  0  0  0  0  0  0  0  0  0  0  0
   -1.9820   21.8940  -32.2200 C   0  0  0  0  0  0  0  0  0  0  0  0
   -1.9180   21.7130  -30.8240 C   0  0  0  0  0  0  0  0  0  0  0  0
   -0.9100   22.3360  -30.0680 C   0  0  0  0  0  0  0  0  0  0  0  0
   -3.3952   25.7712  -30.2308 H   0  0  0  0  0  0  0  0  0  0  0  0
   -5.0486   25.2211  -32.0207 H   0  0  0  0  0  0  0  0  0  0  0  0
   -6.6229   22.0058  -29.5833 H   0  0  0  0  0  0  0  0  0  0  0  0
   -4.9771   22.5611  -27.7888 H   0  0  0  0  0  0  0  0  0  0  0  0
   -1.5688   25.6298  -25.9162 H   0  0  0  0  0  0  0  0  0  0  0  0
    0.3670   26.4916  -27.9321 H   0  0  0  0  0  0  0  0  0  0  0  0
    0.0461   27.0880  -26.2451 H   0  0  0  0  0  0  0  0  0  0  0  0
    2.2657   24.7200  -24.7571 H   0  0  0  0  0  0  0  0  0  0  0  0
    0.8898   25.8641  -24.4732 H   0  0  0  0  0  0  0  0  0  0  0  0
    0.8597   22.9572  -25.0569 H   0  0  0  0  0  0  0  0  0  0  0  0
   -0.3930   24.0310  -24.2939 H   0  0  0  0  0  0  0  0  0  0  0  0
   -1.3670   23.2870  -26.1620 H   0  0  0  0  0  0  0  0  0  0  0  0
   -1.8033   21.2504  -26.9432 H   0  0  0  0  0  0  0  0  0  0  0  0
   -3.5918   20.1249  -28.2683 H   0  0  0  0  0  0  0  0  0  0  0  0
   -4.6886   19.7040  -30.4171 H   0  0  0  0  0  0  0  0  0  0  0  0
   -4.7879   20.0414  -32.8962 H   0  0  0  0  0  0  0  0  0  0  0  0
   -3.0651   21.4427  -34.0470 H   0  0  0  0  0  0  0  0  0  0  0  0
   -1.2227   22.5042  -32.7309 H   0  0  0  0  0  0  0  0  0  0  0  0
   -0.1483   22.9512  -30.5694 H   0  0  0  0  0  0  0  0  0  0  0  0
  1  2  2  0
  2  3  1  0
  3  4  1  0
  4  5  2  0
  5  6  1  0
  6  7  2  0
  7  8  1  0
  7  9  1  0
  9 10  2  0
  2 11  1  0
 11 12  1  0
 12 13  1  0
 13 14  1  0
 14 15  1  0
 15 16  1  0
 16 17  1  0
 17 18  2  0
 17 19  2  0
 17 20  1  0
 20 21  2  0
 21 22  1  0
 22 23  2  0
 23 24  1  0
 24 25  2  0
 25 26  1  0
 26 27  2  0
 27 28  1  0
 28 29  2  0
 10  4  1  0
 16 11  1  0
 29 20  1  0
 28 23  1  0
  5 30  1  0
  6 31  1  0
  9 32  1  0
 10 33  1  0
 11 34  1  1
 12 35  1  0
 12 36  1  0
 14 37  1  0
 14 38  1  0
 15 39  1  0
 15 40  1  0
 16 41  1  1
 21 42  1  0
 22 43  1  0
 24 44  1  0
 25 45  1  0
 26 46  1  0
 27 47  1  0
 29 48  1  0
M  CHG  2   3  -1  16   1
M  END
>  <UniqueID>  (24) 
22

>  <SMILES>  (24) 
O=C([N-]c1ccc(Br)cc1)[C@@H]1COCC[N@@H+]1S(=O)(=O)c1ccc2ccccc2c1

>  <Energy>  (24) 
71.35489350737693

>  <Genealogy>  (24) 
O=C([N-]c1ccc(Br)cc1)C1COCC[NH+]1S(=O)(=O)c1ccc2ccccc2c1 (protonated)
O=C([N-]c1ccc(Br)cc1)[C@@H]1COCC[N@@H+]1S(=O)(=O)c1ccc2ccccc2c1 (chirality)
O=C([N-]c1ccc(Br)cc1)[C@@H]1COCC[N@@H+]1S(=O)(=O)c1ccc2ccccc2c1 (3D coordinates assigned)
O=C([N-]c1ccc(Br)cc1)[C@@H]1COCC[N@@H+]1S(=O)(=O)c1ccc2ccccc2c1 (nonaromatic ring conformer: 71.35489350737693 kcal/mol)

>  <smiles>  (24) 
O=C(Nc1ccc(Br)cc1)C1COCCN1S(=O)(=O)c1ccc2ccccc2c1

>  <score_type>  (24) 
oracle

>  <origin>  (24) 
adg

>  <m_score__min__energy>  (24) 
-10.48

>  <m_primary>  (24) 
energy

$$$$
24:0
     RDKit          3D

 30 31  0  0  0  0  0  0  0  0999 V2000
   -5.4340   24.5140  -30.6480 C   0  0  0  0  0  0  0  0  0  0  0  0
   -4.2680   23.2410  -31.2240 S   0  0  0  0  0  0  0  0  0  0  0  0
   -5.5630   22.0470  -31.5480 C   0  0  0  0  0  0  0  0  0  0  0  0
   -6.8560   22.3810  -31.3150 N   0  0  0  0  0  0  0  0  0  0  0  0
   -7.8650   21.5030  -31.5450 C   0  0  0  0  0  0  0  0  0  0  0  0
   -9.5500   22.0220  -31.1910 S   0  0  0  0  0  0  0  0  0  0  0  0
   -9.4830   23.4300  -32.3430 C   0  0  0  0  0  0  0  0  0  0  0  0
   -7.5740   20.2190  -32.0350 C   0  0  0  0  0  0  0  0  0  0  0  0
   -8.6350   19.2520  -32.2210 C   0  0  0  0  0  0  0  0  0  0  0  0
   -9.4820   18.4790  -32.3690 N   0  0  0  0  0  0  0  0  0  0  0  0
   -6.2240   19.8910  -32.2890 C   0  0  0  0  0  0  0  0  0  0  0  0
   -5.8280   18.5620  -32.8170 C   0  0  0  0  0  0  0  0  0  0  0  0
   -5.4700   18.4010  -34.1660 C   0  0  0  0  0  0  0  0  0  0  0  0
   -5.0800   17.1480  -34.6470 C   0  0  0  0  0  0  0  0  0  0  0  0
   -5.0360   16.0480  -33.7850 C   0  0  0  0  0  0  0  0  0  0  0  0
   -4.5020   14.3370  -34.4450 Br  0  0  0  0  0  0  0  0  0  0  0  0
   -5.3770   16.2040  -32.4380 C   0  0  0  0  0  0  0  0  0  0  0  0
   -5.7670   17.4560  -31.9540 C   0  0  0  0  0  0  0  0  0  0  0  0
   -5.2530   20.8140  -32.0300 N   0  0  0  0  0  0  0  0  0  0  0  0
   -5.4472   24.5284  -29.5482 H   0  0  0  0  0  0  0  0  0  0  0  0
   -5.1175   25.4982  -31.0238 H   0  0  0  0  0  0  0  0  0  0  0  0
   -6.4421   24.2849  -31.0238 H   0  0  0  0  0  0  0  0  0  0  0  0
   -9.4383   24.3691  -31.7720 H   0  0  0  0  0  0  0  0  0  0  0  0
   -8.5880   23.3431  -32.9765 H   0  0  0  0  0  0  0  0  0  0  0  0
  -10.3822   23.4285  -32.9765 H   0  0  0  0  0  0  0  0  0  0  0  0
   -5.4968   19.2648  -34.8466 H   0  0  0  0  0  0  0  0  0  0  0  0
   -4.8072   17.0270  -35.7057 H   0  0  0  0  0  0  0  0  0  0  0  0
   -5.3383   15.3401  -31.7581 H   0  0  0  0  0  0  0  0  0  0  0  0
   -6.0274   17.5754  -30.8920 H   0  0  0  0  0  0  0  0  0  0  0  0
   -4.2510   20.5820  -32.2150 H   0  0  0  0  0  0  0  0  0  0  0  0
  1  2  1  0
  2  3  1  0
  3  4  2  0
  4  5  1  0
  5  6  1  0
  6  7  1  0
  5  8  2  0
  8  9  1  0
  9 10  3  0
  8 11  1  0
 11 12  1  0
 12 13  2  0
 13 14  1  0
 14 15  2  0
 15 16  1  0
 15 17  1  0
 17 18  2  0
 11 19  2  0
 19  3  1  0
 18 12  1  0
  1 20  1  0
  1 21  1  0
  1 22  1  0
  7 23  1  0
  7 24  1  0
  7 25  1  0
 13 26  1  0
 14 27  1  0
 17 28  1  0
 18 29  1  0
 19 30  1  0
M  CHG  1  19   1
M  END
>  <UniqueID>  (25) 
23

>  <SMILES>  (25) 
CSc1nc(SC)c(C#N)c(-c2ccc(Br)cc2)[nH+]1

>  <Energy>  (25) 
29.674119645968233

>  <Genealogy>  (25) 
CSc1nc(SC)c(C#N)c(-c2ccc(Br)cc2)[nH+]1 (protonated)
CSc1nc(SC)c(C#N)c(-c2ccc(Br)cc2)[nH+]1 (3D coordinates assigned)
CSc1nc(SC)c(C#N)c(-c2ccc(Br)cc2)[nH+]1 (optimized conformer: 29.674119645968233 kcal/mol)

>  <smiles>  (25) 
CSc1nc(SC)c(C#N)c(-c2ccc(Br)cc2)n1

>  <score_type>  (25) 
oracle

>  <origin>  (25) 
adg

>  <m_score__min__energy>  (25) 
-6.3399999999999999

>  <m_primary>  (25) 
energy

$$$$
25:0
     RDKit          3D

 46 48  0  0  0  0  0  0  0  0999 V2000
   -3.6260   25.2760  -30.4800 O   0  0  0  0  0  0  0  0  0  0  0  0
   -3.6760   24.2930  -29.6900 C   0  0  0  0  0  0  0  0  0  0  0  0
   -4.8330   23.3140  -29.8020 C   0  0  2  0  0  0  0  0  0  0  0  0
   -4.9440   22.7800  -31.2490 C   0  0  0  0  0  0  0  0  0  0  0  0
   -6.3350   22.3650  -31.5110 N   0  0  0  0  0  0  0  0  0  0  0  0
   -6.4460   21.6320  -32.7880 C   0  0  0  0  0  0  0  0  0  0  0  0
   -7.1030   20.2930  -32.5710 C   0  0  0  0  0  0  0  0  0  0  0  0
   -8.4540   20.2280  -32.1910 C   0  0  0  0  0  0  0  0  0  0  0  0
   -9.0630   18.9900  -31.9670 C   0  0  0  0  0  0  0  0  0  0  0  0
   -8.3280   17.8100  -32.1160 C   0  0  0  0  0  0  0  0  0  0  0  0
   -6.9830   17.8670  -32.4910 C   0  0  0  0  0  0  0  0  0  0  0  0
   -6.3690   19.1040  -32.7170 C   0  0  0  0  0  0  0  0  0  0  0  0
   -7.2290   23.5440  -31.5120 C   0  0  0  0  0  0  0  0  0  0  0  0
   -6.8670   24.5490  -30.4000 C   0  0  0  0  0  0  0  0  0  0  0  0
   -6.1150   23.8870  -29.3280 N   0  0  0  0  0  0  0  0  0  0  0  0
   -2.5910   24.0720  -28.7600 N   0  0  0  0  0  0  0  0  0  0  0  0
   -1.3020   24.7530  -28.9650 C   0  0  0  0  0  0  0  0  0  0  0  0
   -0.1410   23.7930  -28.6760 C   0  0  0  0  0  0  0  0  0  0  0  0
   -0.2910   23.0240  -27.3420 C   0  0  0  0  0  0  0  0  0  0  0  0
    0.7810   23.3100  -26.5130 F   0  0  0  0  0  0  0  0  0  0  0  0
   -1.5960   23.3430  -26.5990 C   0  0  0  0  0  0  0  0  0  0  0  0
   -2.7980   23.2650  -27.5460 C   0  0  0  0  0  0  0  0  0  0  0  0
   -4.6165   22.4681  -29.1329 H   0  0  0  0  0  0  0  0  0  0  0  0
   -4.6578   23.5726  -31.9560 H   0  0  0  0  0  0  0  0  0  0  0  0
   -4.2726   21.9180  -31.3758 H   0  0  0  0  0  0  0  0  0  0  0  0
   -7.0501   22.2219  -33.4930 H   0  0  0  0  0  0  0  0  0  0  0  0
   -5.4370   21.4720  -33.1959 H   0  0  0  0  0  0  0  0  0  0  0  0
   -9.0344   21.1545  -32.0694 H   0  0  0  0  0  0  0  0  0  0  0  0
  -10.1220   18.9440  -31.6731 H   0  0  0  0  0  0  0  0  0  0  0  0
   -8.8085   16.8366  -31.9380 H   0  0  0  0  0  0  0  0  0  0  0  0
   -6.4060   16.9379  -32.6087 H   0  0  0  0  0  0  0  0  0  0  0  0
   -5.3094   19.1455  -33.0096 H   0  0  0  0  0  0  0  0  0  0  0  0
   -7.1487   24.0489  -32.4860 H   0  0  0  0  0  0  0  0  0  0  0  0
   -8.2545   23.1910  -31.3281 H   0  0  0  0  0  0  0  0  0  0  0  0
   -6.2526   25.3550  -30.8276 H   0  0  0  0  0  0  0  0  0  0  0  0
   -7.7961   24.9603  -29.9786 H   0  0  0  0  0  0  0  0  0  0  0  0
   -5.9530   24.5620  -28.5440 H   0  0  0  0  0  0  0  0  0  0  0  0
   -1.2360   25.0989  -30.0071 H   0  0  0  0  0  0  0  0  0  0  0  0
   -1.2369   25.6101  -28.2786 H   0  0  0  0  0  0  0  0  0  0  0  0
   -0.0830   23.0608  -29.4949 H   0  0  0  0  0  0  0  0  0  0  0  0
    0.7704   24.4037  -28.5957 H   0  0  0  0  0  0  0  0  0  0  0  0
   -0.3155   21.9550  -27.6003 H   0  0  0  0  0  0  0  0  0  0  0  0
   -1.7325   22.6176  -25.7834 H   0  0  0  0  0  0  0  0  0  0  0  0
   -1.5308   24.3651  -26.1976 H   0  0  0  0  0  0  0  0  0  0  0  0
   -2.9537   22.2160  -27.8381 H   0  0  0  0  0  0  0  0  0  0  0  0
   -3.6765   23.6627  -27.0168 H   0  0  0  0  0  0  0  0  0  0  0  0
  1  2  2  0
  2  3  1  0
  3  4  1  0
  4  5  1  0
  5  6  1  0
  6  7  1  0
  7  8  2  0
  8  9  1  0
  9 10  2  0
 10 11  1  0
 11 12  2  0
  5 13  1  0
 13 14  1  0
 14 15  1  0
  2 16  1  0
 16 17  1  0
 17 18  1  0
 18 19  1  0
 19 20  1  0
 19 21  1  0
 21 22  1  0
 15  3  1  0
 22 16  1  0
 12  7  1  0
  3 23  1  1
  4 24  1  0
  4 25  1  0
  6 26  1  0
  6 27  1  0
  8 28  1  0
  9 29  1  0
 10 30  1  0
 11 31  1  0
 12 32  1  0
 13 33  1  0
 13 34  1  0
 14 35  1  0
 14 36  1  0
 15 37  1  0
 17 38  1  0
 17 39  1  0
 18 40  1  0
 18 41  1  0
 19 42  1  0
 21 43  1  0
 21 44  1  0
 22 45  1  0
 22 46  1  0
M  END
>  <UniqueID>  (26) 
24

>  <SMILES>  (26) 
O=C([C@@H]1CN(Cc2ccccc2)CCN1)N1CCC(F)CC1

>  <Energy>  (26) 
56.702186347039365

>  <Genealogy>  (26) 
O=C([C@@H]1CN(Cc2ccccc2)CCN1)N1CCC(F)CC1 (chirality)
O=C([C@@H]1CN(Cc2ccccc2)CCN1)N1CCC(F)CC1 (3D coordinates assigned)
O=C([C@@H]1CN(Cc2ccccc2)CCN1)N1CCC(F)CC1 (nonaromatic ring conformer: 56.702186347039365 kcal/mol)

>  <smiles>  (26) 
O=C(C1CN(Cc2ccccc2)CCN1)N1CCC(F)CC1

>  <score_type>  (26) 
oracle

>  <origin>  (26) 
adg

>  <m_score__min__energy>  (26) 
-8.4499999999999993

>  <m_primary>  (26) 
energy

$$$$
26:0
     RDKit          3D

 44 47  0  0  0  0  0  0  0  0999 V2000
   -9.8730   21.6160  -31.7960 C   0  0  0  0  0  0  0  0  0  0  0  0
   -8.6060   21.5770  -30.9500 C   0  0  0  0  0  0  0  0  0  0  0  0
   -7.4660   21.0740  -31.7460 N   0  0  0  0  0  0  0  0  0  0  0  0
   -6.5590   21.9430  -32.3120 C   0  0  0  0  0  0  0  0  0  0  0  0
   -6.7560   23.7380  -32.2060 S   0  0  0  0  0  0  0  0  0  0  0  0
   -5.8420   23.9070  -30.6310 C   0  0  0  0  0  0  0  0  0  0  0  0
   -4.3560   23.9310  -30.8570 C   0  0  0  0  0  0  0  0  0  0  0  0
   -3.8480   23.1050  -31.6600 O   0  0  0  0  0  0  0  0  0  0  0  0
   -3.5060   24.9180  -30.2540 N   0  0  0  0  0  0  0  0  0  0  0  0
   -2.6730   24.7190  -29.1090 C   0  0  0  0  0  0  0  0  0  0  0  0
   -3.2760   24.5180  -27.8450 C   0  0  0  0  0  0  0  0  0  0  0  0
   -2.4850   24.3400  -26.6950 C   0  0  0  0  0  0  0  0  0  0  0  0
   -1.1030   24.3910  -26.8440 C   0  0  0  0  0  0  0  0  0  0  0  0
   -0.5190   24.6100  -28.0500 C   0  0  0  0  0  0  0  0  0  0  0  0
   -1.2650   24.7890  -29.2100 C   0  0  0  0  0  0  0  0  0  0  0  0
    0.8550   24.6280  -27.8990 O   0  0  0  0  0  0  0  0  0  0  0  0
    1.1520   24.3990  -26.5140 C   0  0  0  0  0  0  0  0  0  0  0  0
   -0.1260   24.2560  -25.8770 O   0  0  0  0  0  0  0  0  0  0  0  0
   -5.4610   21.4660  -32.9590 N   0  0  0  0  0  0  0  0  0  0  0  0
   -5.2390   20.1330  -33.0940 C   0  0  0  0  0  0  0  0  0  0  0  0
   -4.1070   19.6650  -33.7820 C   0  0  0  0  0  0  0  0  0  0  0  0
   -3.8830   18.2930  -33.9150 C   0  0  0  0  0  0  0  0  0  0  0  0
   -4.7840   17.3790  -33.3640 C   0  0  0  0  0  0  0  0  0  0  0  0
   -5.9130   17.8330  -32.6750 C   0  0  0  0  0  0  0  0  0  0  0  0
   -6.1490   19.2150  -32.5370 C   0  0  0  0  0  0  0  0  0  0  0  0
   -7.2640   19.7180  -31.8470 C   0  0  0  0  0  0  0  0  0  0  0  0
   -8.0770   18.9110  -31.3130 O   0  0  0  0  0  0  0  0  0  0  0  0
  -10.7533   21.6431  -31.1369 H   0  0  0  0  0  0  0  0  0  0  0  0
   -9.8625   22.5142  -32.4309 H   0  0  0  0  0  0  0  0  0  0  0  0
   -9.9178   20.7188  -32.4309 H   0  0  0  0  0  0  0  0  0  0  0  0
   -8.3780   22.5921  -30.5929 H   0  0  0  0  0  0  0  0  0  0  0  0
   -8.7690   20.9020  -30.0969 H   0  0  0  0  0  0  0  0  0  0  0  0
   -6.1443   24.8443  -30.1409 H   0  0  0  0  0  0  0  0  0  0  0  0
   -6.0812   23.0397  -29.9981 H   0  0  0  0  0  0  0  0  0  0  0  0
   -4.3726   24.5007  -27.7606 H   0  0  0  0  0  0  0  0  0  0  0  0
   -2.9443   24.1663  -25.7107 H   0  0  0  0  0  0  0  0  0  0  0  0
   -0.7745   24.9791  -30.1760 H   0  0  0  0  0  0  0  0  0  0  0  0
    1.7485   23.4827  -26.3932 H   0  0  0  0  0  0  0  0  0  0  0  0
    1.7410   25.2190  -26.0774 H   0  0  0  0  0  0  0  0  0  0  0  0
   -4.7810   22.1470  -33.3670 H   0  0  0  0  0  0  0  0  0  0  0  0
   -3.3949   20.3815  -34.2173 H   0  0  0  0  0  0  0  0  0  0  0  0
   -2.9953   17.9315  -34.4547 H   0  0  0  0  0  0  0  0  0  0  0  0
   -4.6050   16.2991  -33.4723 H   0  0  0  0  0  0  0  0  0  0  0  0
   -6.6182   17.1096  -32.2399 H   0  0  0  0  0  0  0  0  0  0  0  0
  1  2  1  0
  2  3  1  0
  3  4  1  0
  4  5  1  0
  5  6  1  0
  6  7  1  0
  7  8  2  0
  7  9  1  0
  9 10  1  0
 10 11  2  0
 11 12  1  0
 12 13  2  0
 13 14  1  0
 14 15  2  0
 14 16  1  0
 16 17  1  0
 17 18  1  0
  4 19  2  0
 19 20  1  0
 20 21  2  0
 21 22  1  0
 22 23  2  0
 23 24  1  0
 24 25  2  0
 25 26  1  0
 26 27  2  0
 26  3  1  0
 15 10  1  0
 25 20  1  0
 18 13  1  0
  1 28  1  0
  1 29  1  0
  1 30  1  0
  2 31  1  0
  2 32  1  0
  6 33  1  0
  6 34  1  0
 11 35  1  0
 12 36  1  0
 15 37  1  0
 17 38  1  0
 17 39  1  0
 19 40  1  0
 21 41  1  0
 22 42  1  0
 23 43  1  0
 24 44  1  0
M  CHG  2   9  -1  19   1
M  END
>  <UniqueID>  (27) 
25

>  <SMILES>  (27) 
CCn1c(SCC(=O)[N-]c2ccc3c(c2)OCO3)[nH+]c2ccccc2c1=O

>  <Energy>  (27) 
82.43533441042044

>  <Genealogy>  (27) 
CCn1c(SCC(=O)[N-]c2ccc3c(c2)OCO3)[nH+]c2ccccc2c1=O (protonated)
CCn1c(SCC(=O)[N-]c2ccc3c(c2)OCO3)[nH+]c2ccccc2c1=O (3D coordinates assigned)
CCn1c(SCC(=O)[N-]c2ccc3c(c2)OCO3)[nH+]c2ccccc2c1=O (nonaromatic ring conformer: 82.43533441042044 kcal/mol)

>  <smiles>  (27) 
CCn1c(SCC(=O)Nc2ccc3c(c2)OCO3)nc2ccccc2c1=O

>  <score_type>  (27) 
oracle

>  <origin>  (27) 
adg

>  <m_score__min__energy>  (27) 
-9.5399999999999991

>  <m_primary>  (27) 
energy

$$$$
27:0
     RDKit          3D

 47 49  0  0  0  0  0  0  0  0999 V2000
   -2.4900   17.0960  -34.6060 C   0  0  0  0  0  0  0  0  0  0  0  0
   -3.6730   17.8620  -34.8140 O   0  0  0  0  0  0  0  0  0  0  0  0
   -4.8290   17.7740  -34.0220 C   0  0  0  0  0  0  0  0  0  0  0  0
   -5.7670   16.7350  -34.1870 C   0  0  0  0  0  0  0  0  0  0  0  0
   -6.8940   16.6620  -33.3640 C   0  0  0  0  0  0  0  0  0  0  0  0
   -7.0970   17.6180  -32.3690 C   0  0  0  0  0  0  0  0  0  0  0  0
   -6.1780   18.6550  -32.1980 C   0  0  0  0  0  0  0  0  0  0  0  0
   -5.0470   18.7440  -33.0230 C   0  0  0  0  0  0  0  0  0  0  0  0
   -4.1220   19.8310  -32.8400 N   0  0  0  0  0  0  0  0  0  0  0  0
   -4.3650   21.1170  -33.5030 C   0  0  0  0  0  0  0  0  0  0  0  0
   -3.5120   22.2210  -32.8740 C   0  0  0  0  0  0  0  0  0  0  0  0
   -3.5750   22.1030  -31.4060 N   0  0  0  0  0  0  0  0  0  0  0  0
   -3.0940   23.3020  -30.6840 C   0  0  0  0  0  0  0  0  0  0  0  0
   -4.2200   24.2870  -30.2560 C   0  0  1  0  0  0  0  0  0  0  0  0
   -4.0070   25.5770  -30.7770 O   0  0  0  0  0  0  0  0  0  0  0  0
   -5.5870   23.7780  -30.6740 C   0  0  0  0  0  0  0  0  0  0  0  0
   -6.0630   24.0160  -31.9770 C   0  0  0  0  0  0  0  0  0  0  0  0
   -7.3190   23.5470  -32.3680 C   0  0  0  0  0  0  0  0  0  0  0  0
   -8.1150   22.8350  -31.4660 C   0  0  0  0  0  0  0  0  0  0  0  0
   -9.3340   22.3800  -31.8470 F   0  0  0  0  0  0  0  0  0  0  0  0
   -7.6510   22.5900  -30.1710 C   0  0  0  0  0  0  0  0  0  0  0  0
   -6.3940   23.0570  -29.7750 C   0  0  0  0  0  0  0  0  0  0  0  0
   -3.0180   20.8350  -30.8710 C   0  0  0  0  0  0  0  0  0  0  0  0
   -2.9990   19.6960  -31.9060 C   0  0  0  0  0  0  0  0  0  0  0  0
   -2.3126   16.9811  -33.5265 H   0  0  0  0  0  0  0  0  0  0  0  0
   -2.6101   16.1038  -35.0655 H   0  0  0  0  0  0  0  0  0  0  0  0
   -1.6338   17.6116  -35.0655 H   0  0  0  0  0  0  0  0  0  0  0  0
   -5.6109   15.9768  -34.9685 H   0  0  0  0  0  0  0  0  0  0  0  0
   -7.6223   15.8491  -33.5012 H   0  0  0  0  0  0  0  0  0  0  0  0
   -7.9818   17.5549  -31.7185 H   0  0  0  0  0  0  0  0  0  0  0  0
   -6.3418   19.4066  -31.4117 H   0  0  0  0  0  0  0  0  0  0  0  0
   -4.1099   21.0272  -34.5692 H   0  0  0  0  0  0  0  0  0  0  0  0
   -5.4265   21.3803  -33.3847 H   0  0  0  0  0  0  0  0  0  0  0  0
   -2.4691   22.1156  -33.2074 H   0  0  0  0  0  0  0  0  0  0  0  0
   -3.8937   23.2053  -33.1830 H   0  0  0  0  0  0  0  0  0  0  0  0
   -2.5647   22.9697  -29.7788 H   0  0  0  0  0  0  0  0  0  0  0  0
   -2.4446   23.8505  -31.3822 H   0  0  0  0  0  0  0  0  0  0  0  0
   -4.1891   24.3489  -29.1582 H   0  0  0  0  0  0  0  0  0  0  0  0
   -3.4490   25.4950  -31.5930 H   0  0  0  0  0  0  0  0  0  0  0  0
   -5.4416   24.5751  -32.6921 H   0  0  0  0  0  0  0  0  0  0  0  0
   -7.6828   23.7383  -33.3883 H   0  0  0  0  0  0  0  0  0  0  0  0
   -8.2762   22.0283  -29.4613 H   0  0  0  0  0  0  0  0  0  0  0  0
   -6.0339   22.8595  -28.7545 H   0  0  0  0  0  0  0  0  0  0  0  0
   -1.9867   21.0201  -30.5361 H   0  0  0  0  0  0  0  0  0  0  0  0
   -3.6699   20.5148  -30.0449 H   0  0  0  0  0  0  0  0  0  0  0  0
   -2.0542   19.7336  -32.4682 H   0  0  0  0  0  0  0  0  0  0  0  0
   -3.0888   18.7349  -31.3786 H   0  0  0  0  0  0  0  0  0  0  0  0
  1  2  1  0
  2  3  1  0
  3  4  2  0
  4  5  1  0
  5  6  2  0
  6  7  1  0
  7  8  2  0
  8  9  1  0
  9 10  1  0
 10 11  1  0
 11 12  1  0
 12 13  1  0
 13 14  1  0
 14 15  1  0
 14 16  1  0
 16 17  2  0
 17 18  1  0
 18 19  2  0
 19 20  1  0
 19 21  1  0
 21 22  2  0
 12 23  1  0
 23 24  1  0
  8  3  1  0
 24  9  1  0
 22 16  1  0
  1 25  1  0
  1 26  1  0
  1 27  1  0
  4 28  1  0
  5 29  1  0
  6 30  1  0
  7 31  1  0
 10 32  1  0
 10 33  1  0
 11 34  1  0
 11 35  1  0
 13 36  1  0
 13 37  1  0
 14 38  1  1
 15 39  1  0
 17 40  1  0
 18 41  1  0
 21 42  1  0
 22 43  1  0
 23 44  1  0
 23 45  1  0
 24 46  1  0
 24 47  1  0
M  END
>  <UniqueID>  (28) 
26

>  <SMILES>  (28) 
COc1ccccc1N1CCN(C[C@@H](O)c2ccc(F)cc2)CC1

>  <Energy>  (28) 
63.60933641045389

>  <Genealogy>  (28) 
COc1ccccc1N1CCN(C[C@@H](O)c2ccc(F)cc2)CC1 (chirality)
COc1ccccc1N1CCN(C[C@@H](O)c2ccc(F)cc2)CC1 (3D coordinates assigned)
COc1ccccc1N1CCN(C[C@@H](O)c2ccc(F)cc2)CC1 (nonaromatic ring conformer: 63.60933641045389 kcal/mol)

>  <smiles>  (28) 
COc1ccccc1N1CCN(CC(O)c2ccc(F)cc2)CC1

>  <score_type>  (28) 
oracle

>  <origin>  (28) 
adg

>  <m_score__min__energy>  (28) 
-8.3000000000000007

>  <m_primary>  (28) 
energy

$$$$
28:0
     RDKit          3D

 46 47  0  0  0  0  0  0  0  0999 V2000
   -0.1030   21.0870  -34.7730 C   0  0  0  0  0  0  0  0  0  0  0  0
   -0.6800   21.5410  -33.5530 O   0  0  0  0  0  0  0  0  0  0  0  0
   -1.9450   21.1570  -33.0820 C   0  0  0  0  0  0  0  0  0  0  0  0
   -2.4810   21.6460  -31.8770 C   0  0  0  0  0  0  0  0  0  0  0  0
   -3.7570   21.2380  -31.4440 C   0  0  0  0  0  0  0  0  0  0  0  0
   -4.3120   21.6930  -30.2360 O   0  0  0  0  0  0  0  0  0  0  0  0
   -3.5570   22.0690  -29.0890 C   0  0  0  0  0  0  0  0  0  0  0  0
   -4.5040   20.3470  -32.2380 C   0  0  0  0  0  0  0  0  0  0  0  0
   -5.8380   19.9040  -31.7920 C   0  0  0  0  0  0  0  0  0  0  0  0
   -6.9310   19.9420  -32.5620 C   0  0  0  0  0  0  0  0  0  0  0  0
   -8.5790   19.7470  -31.9610 S   0  0  0  0  0  0  0  0  0  0  0  0
   -8.6260   18.7070  -30.8770 O   0  0  0  0  0  0  0  0  0  0  0  0
   -9.4500   19.2850  -33.0960 O   0  0  0  0  0  0  0  0  0  0  0  0
   -9.2090   21.2960  -31.3350 C   0  0  0  0  0  0  0  0  0  0  0  0
   -8.0920   22.2900  -31.1670 C   0  0  0  0  0  0  0  0  0  0  0  0
   -7.6060   22.5990  -29.8870 C   0  0  0  0  0  0  0  0  0  0  0  0
   -6.5900   23.5450  -29.7260 C   0  0  0  0  0  0  0  0  0  0  0  0
   -6.0460   24.2060  -30.8410 C   0  0  0  0  0  0  0  0  0  0  0  0
   -5.0000   25.1800  -30.6720 N   0  0  0  0  0  0  0  0  0  0  0  0
   -5.2750   26.3810  -30.4690 O   0  0  0  0  0  0  0  0  0  0  0  0
   -3.6780   24.8030  -30.7320 O   0  0  0  0  0  0  0  0  0  0  0  0
   -6.5440   23.9020  -32.1210 C   0  0  0  0  0  0  0  0  0  0  0  0
   -7.5600   22.9560  -32.2810 C   0  0  0  0  0  0  0  0  0  0  0  0
   -3.9610   19.8290  -33.4270 C   0  0  0  0  0  0  0  0  0  0  0  0
   -4.7150   18.9050  -34.1690 O   0  0  0  0  0  0  0  0  0  0  0  0
   -4.6900   17.4950  -33.9740 C   0  0  0  0  0  0  0  0  0  0  0  0
   -2.6850   20.2500  -33.8440 C   0  0  0  0  0  0  0  0  0  0  0  0
    0.7439   20.4206  -34.5524 H   0  0  0  0  0  0  0  0  0  0  0  0
   -0.8590   20.5390  -35.3545 H   0  0  0  0  0  0  0  0  0  0  0  0
    0.2518   21.9507  -35.3545 H   0  0  0  0  0  0  0  0  0  0  0  0
   -1.8985   22.3529  -31.2680 H   0  0  0  0  0  0  0  0  0  0  0  0
   -4.1105   21.7934  -28.1792 H   0  0  0  0  0  0  0  0  0  0  0  0
   -2.5882   21.5481  -29.1008 H   0  0  0  0  0  0  0  0  0  0  0  0
   -3.3890   23.1560  -29.1008 H   0  0  0  0  0  0  0  0  0  0  0  0
   -5.9401   19.5199  -30.7663 H   0  0  0  0  0  0  0  0  0  0  0  0
   -6.7937   20.1056  -33.6411 H   0  0  0  0  0  0  0  0  0  0  0  0
   -9.9484   21.6986  -32.0429 H   0  0  0  0  0  0  0  0  0  0  0  0
   -9.6783   21.1195  -30.3559 H   0  0  0  0  0  0  0  0  0  0  0  0
   -8.0273   22.0936  -29.0055 H   0  0  0  0  0  0  0  0  0  0  0  0
   -6.2129   23.7743  -28.7184 H   0  0  0  0  0  0  0  0  0  0  0  0
   -6.1304   24.4130  -33.0029 H   0  0  0  0  0  0  0  0  0  0  0  0
   -7.9450   22.7322  -33.2868 H   0  0  0  0  0  0  0  0  0  0  0  0
   -4.6861   17.2739  -32.8965 H   0  0  0  0  0  0  0  0  0  0  0  0
   -5.5803   17.0449  -34.4374 H   0  0  0  0  0  0  0  0  0  0  0  0
   -3.7843   17.0768  -34.4374 H   0  0  0  0  0  0  0  0  0  0  0  0
   -2.2646   19.8597  -34.7826 H   0  0  0  0  0  0  0  0  0  0  0  0
  1  2  1  0
  2  3  1  0
  3  4  2  0
  4  5  1  0
  5  6  1  0
  6  7  1  0
  5  8  2  0
  8  9  1  0
  9 10  2  3
 10 11  1  0
 11 12  2  0
 11 13  2  0
 11 14  1  0
 14 15  1  0
 15 16  2  0
 16 17  1  0
 17 18  2  0
 18 19  1  0
 19 20  2  0
 19 21  1  0
 18 22  1  0
 22 23  2  0
  8 24  1  0
 24 25  1  0
 25 26  1  0
 24 27  2  0
 27  3  1  0
 23 15  1  0
  1 28  1  0
  1 29  1  0
  1 30  1  0
  4 31  1  0
  7 32  1  0
  7 33  1  0
  7 34  1  0
  9 35  1  0
 10 36  1  0
 14 37  1  0
 14 38  1  0
 16 39  1  0
 17 40  1  0
 22 41  1  0
 23 42  1  0
 26 43  1  0
 26 44  1  0
 26 45  1  0
 27 46  1  0
M  CHG  2  19   1  21  -1
M  END
>  <UniqueID>  (29) 
27

>  <SMILES>  (29) 
COc1cc(OC)c(C=CS(=O)(=O)Cc2ccc([N+](=O)[O-])cc2)c(OC)c1

>  <Energy>  (29) 
48.71109340660383

>  <Genealogy>  (29) 
COc1cc(OC)c(C=CS(=O)(=O)Cc2ccc([N+](=O)[O-])cc2)c(OC)c1 (3D coordinates assigned)
COc1cc(OC)c(C=CS(=O)(=O)Cc2ccc([N+](=O)[O-])cc2)c(OC)c1 (optimized conformer: 48.71109340660383 kcal/mol)

>  <smiles>  (29) 
COc1cc(OC)c(C=CS(=O)(=O)Cc2ccc([N+](=O)[O-])cc2)c(OC)c1

>  <score_type>  (29) 
oracle

>  <origin>  (29) 
adg

>  <m_score__min__energy>  (29) 
-8.3599999999999994

>  <m_primary>  (29) 
energy

$$$$
29:0
     RDKit          3D

 42 44  0  0  0  0  0  0  0  0999 V2000
   -6.5648   16.1057  -32.1454 H   0  0  0  0  0  0  0  0  0  0  0  0
   -5.7380   15.9500  -32.8540 C   0  0  0  0  0  0  0  0  0  0  0  0
   -5.3490   14.6900  -33.1740 N   0  0  0  0  0  0  0  0  0  0  0  0
   -4.3230   14.4700  -34.0400 C   0  0  0  0  0  0  0  0  0  0  0  0
   -3.9280   13.1700  -34.3690 O   0  0  0  0  0  0  0  0  0  0  0  0
   -4.1690   12.5920  -35.6460 C   0  0  0  0  0  0  0  0  0  0  0  0
   -4.5895   11.5836  -35.5186 H   0  0  0  0  0  0  0  0  0  0  0  0
   -4.8809   13.2184  -36.2035 H   0  0  0  0  0  0  0  0  0  0  0  0
   -3.2230   12.5271  -36.2035 H   0  0  0  0  0  0  0  0  0  0  0  0
   -3.6710   15.5240  -34.5930 N   0  0  0  0  0  0  0  0  0  0  0  0
   -4.0210   16.8070  -34.3040 C   0  0  0  0  0  0  0  0  0  0  0  0
   -3.3150   17.8760  -34.8650 O   0  0  0  0  0  0  0  0  0  0  0  0
   -1.9730   18.1870  -34.5100 C   0  0  0  0  0  0  0  0  0  0  0  0
   -1.8792   18.2087  -33.4142 H   0  0  0  0  0  0  0  0  0  0  0  0
   -1.2983   17.4214  -34.9206 H   0  0  0  0  0  0  0  0  0  0  0  0
   -1.7038   19.1713  -34.9206 H   0  0  0  0  0  0  0  0  0  0  0  0
   -5.0890   17.0530  -33.4240 C   0  0  0  0  0  0  0  0  0  0  0  0
   -5.5130   18.4320  -33.0780 C   0  0  0  0  0  0  0  0  0  0  0  0
   -4.5430   19.4100  -32.8640 C   0  0  0  0  0  0  0  0  0  0  0  0
   -3.4768   19.1539  -32.9512 H   0  0  0  0  0  0  0  0  0  0  0  0
   -4.9210   20.7110  -32.5400 C   0  0  0  0  0  0  0  0  0  0  0  0
   -3.9490   21.6920  -32.3180 C   0  0  0  0  0  0  0  0  0  0  0  0
   -2.8825   21.4356  -32.4008 H   0  0  0  0  0  0  0  0  0  0  0  0
   -4.3170   22.9580  -32.0010 N   0  0  0  0  0  0  0  0  0  0  0  0
   -5.6170   23.3350  -31.8910 C   0  0  0  0  0  0  0  0  0  0  0  0
   -5.8680   24.5760  -31.5770 N   0  0  0  0  0  0  0  0  0  0  0  0
   -5.3270   25.3670  -30.5050 C   0  0  0  0  0  0  0  0  0  0  0  0
   -4.1050   25.6700  -30.4710 O   0  0  0  0  0  0  0  0  0  0  0  0
   -6.1940   25.6940  -29.3360 C   0  0  0  0  0  0  0  0  0  0  0  0
   -5.6467   25.4876  -28.4044 H   0  0  0  0  0  0  0  0  0  0  0  0
   -6.4704   26.7581  -29.3708 H   0  0  0  0  0  0  0  0  0  0  0  0
   -7.1043   25.0774  -29.3708 H   0  0  0  0  0  0  0  0  0  0  0  0
   -6.6290   22.3700  -32.0840 C   0  0  0  0  0  0  0  0  0  0  0  0
   -7.6855   22.6540  -31.9692 H   0  0  0  0  0  0  0  0  0  0  0  0
   -6.2900   21.0370  -32.4250 C   0  0  0  0  0  0  0  0  0  0  0  0
   -7.2500   20.0620  -32.6370 N   0  0  0  0  0  0  0  0  0  0  0  0
   -8.6860   20.3910  -32.5290 C   0  0  0  0  0  0  0  0  0  0  0  0
   -8.9685   20.4557  -31.4679 H   0  0  0  0  0  0  0  0  0  0  0  0
   -8.8788   21.3566  -33.0193 H   0  0  0  0  0  0  0  0  0  0  0  0
   -9.2800   19.6057  -33.0193 H   0  0  0  0  0  0  0  0  0  0  0  0
   -6.8710   18.7720  -32.9400 C   0  0  0  0  0  0  0  0  0  0  0  0
   -7.7420   17.8670  -33.0830 O   0  0  0  0  0  0  0  0  0  0  0  0
  1  2  1  0
  2  3  2  0
  3  4  1  0
  4  5  1  0
  5  6  1  0
  6  7  1  0
  6  8  1  0
  6  9  1  0
  4 10  2  0
 10 11  1  0
 11 12  1  0
 12 13  1  0
 13 14  1  0
 13 15  1  0
 13 16  1  0
 11 17  2  0
 17 18  1  0
 18 19  2  0
 19 20  1  0
 19 21  1  0
 21 22  2  0
 22 23  1  0
 22 24  1  0
 24 25  1  0
 25 26  2  0
 26 27  1  0
 27 28  2  0
 27 29  1  0
 29 30  1  0
 29 31  1  0
 29 32  1  0
 25 33  1  0
 33 34  1  0
 33 35  2  0
 35 36  1  0
 36 37  1  0
 37 38  1  0
 37 39  1  0
 37 40  1  0
 36 41  1  0
 41 42  2  0
 17  2  1  0
 41 18  1  0
 35 21  1  0
M  CHG  1  24  -1
M  END
>  <UniqueID>  (30) 
28

>  <SMILES>  (30) 
COc1ncc(-c2cc3c[n-]/c(=N/C(C)=O)cc3n(C)c2=O)c(OC)n1

>  <Energy>  (30) 
65.21633627821663

>  <Genealogy>  (30) 
COc1ncc(-c2cc3c[n-]c(=NC(C)=O)cc3n(C)c2=O)c(OC)n1 (protonated)
COc1ncc(-c2cc3c[n-]/c(=N/C(C)=O)cc3n(C)c2=O)c(OC)n1 (cis-trans isomerization)
COc1ncc(-c2cc3c[n-]/c(=N/C(C)=O)cc3n(C)c2=O)c(OC)n1 (3D coordinates assigned)
COc1ncc(-c2cc3c[n-]/c(=N/C(C)=O)cc3n(C)c2=O)c(OC)n1 (optimized conformer: 65.21633627821663 kcal/mol)

>  <smiles>  (30) 
COc1ncc(-c2cc3c[nH]c(=NC(C)=O)cc3n(C)c2=O)c(OC)n1

>  <score_type>  (30) 
oracle

>  <origin>  (30) 
adg

>  <m_score__min__energy>  (30) 
-8.3300000000000001

>  <m_primary>  (30) 
energy

$$$$
30:0
     RDKit          3D

 54 56  0  0  0  0  0  0  0  0999 V2000
    0.2090   21.1090  -35.4050 C   0  0  0  0  0  0  0  0  0  0  0  0
   -0.2680   21.9000  -34.3210 O   0  0  0  0  0  0  0  0  0  0  0  0
   -1.0650   21.4100  -33.2760 C   0  0  0  0  0  0  0  0  0  0  0  0
   -0.5820   21.2630  -31.9620 C   0  0  0  0  0  0  0  0  0  0  0  0
   -1.4170   20.7740  -30.9560 C   0  0  0  0  0  0  0  0  0  0  0  0
   -2.7380   20.4260  -31.2470 C   0  0  0  0  0  0  0  0  0  0  0  0
   -3.2340   20.5640  -32.5520 C   0  0  0  0  0  0  0  0  0  0  0  0
   -4.6620   20.2090  -32.8730 C   0  0  0  0  0  0  0  0  0  0  0  0
   -5.5600   21.3410  -32.5640 N   0  0  0  0  0  0  0  0  0  0  0  0
   -4.8290   22.6210  -32.6300 C   0  0  0  0  0  0  0  0  0  0  0  0
   -5.7970   23.7900  -32.4210 C   0  0  0  0  0  0  0  0  0  0  0  0
   -6.5920   23.6500  -31.1860 N   0  0  0  0  0  0  0  0  0  0  0  0
   -6.1380   24.4310  -30.0140 C   0  0  0  0  0  0  0  0  0  0  0  0
   -5.2420   25.6250  -30.3730 C   0  0  0  0  0  0  0  0  0  0  0  0
   -3.8750   25.2160  -30.4400 O   0  0  0  0  0  0  0  0  0  0  0  0
   -3.2250   24.3890  -29.5090 C   0  0  0  0  0  0  0  0  0  0  0  0
   -3.6630   23.0650  -29.3830 C   0  0  0  0  0  0  0  0  0  0  0  0
   -3.0540   22.1990  -28.4700 C   0  0  0  0  0  0  0  0  0  0  0  0
   -2.0010   22.6500  -27.6690 C   0  0  0  0  0  0  0  0  0  0  0  0
   -1.2160   21.5380  -26.5020 S   0  0  0  0  0  0  0  0  0  0  0  0
   -2.1140   20.0750  -27.1060 C   0  0  0  0  0  0  0  0  0  0  0  0
   -1.5540   23.9720  -27.7880 C   0  0  0  0  0  0  0  0  0  0  0  0
   -2.1620   24.8400  -28.6990 C   0  0  0  0  0  0  0  0  0  0  0  0
   -7.1310   22.3020  -30.9130 C   0  0  0  0  0  0  0  0  0  0  0  0
   -6.1310   21.1790  -31.2160 C   0  0  0  0  0  0  0  0  0  0  0  0
   -2.3900   21.0600  -33.5600 C   0  0  0  0  0  0  0  0  0  0  0  0
    0.7394   20.2294  -35.0114 H   0  0  0  0  0  0  0  0  0  0  0  0
   -0.6411   20.7795  -36.0204 H   0  0  0  0  0  0  0  0  0  0  0  0
    0.8971   21.7071  -36.0204 H   0  0  0  0  0  0  0  0  0  0  0  0
    0.4577   21.5346  -31.7270 H   0  0  0  0  0  0  0  0  0  0  0  0
   -1.0335   20.6624  -29.9311 H   0  0  0  0  0  0  0  0  0  0  0  0
   -3.3919   20.0423  -30.4500 H   0  0  0  0  0  0  0  0  0  0  0  0
   -4.7424   19.9650  -33.9426 H   0  0  0  0  0  0  0  0  0  0  0  0
   -4.9587   19.3434  -32.2625 H   0  0  0  0  0  0  0  0  0  0  0  0
   -4.0588   22.6413  -31.8449 H   0  0  0  0  0  0  0  0  0  0  0  0
   -4.3570   22.7161  -33.6190 H   0  0  0  0  0  0  0  0  0  0  0  0
   -5.2168   24.7228  -32.3634 H   0  0  0  0  0  0  0  0  0  0  0  0
   -6.4965   23.8012  -33.2699 H   0  0  0  0  0  0  0  0  0  0  0  0
   -7.0251   24.8099  -29.4853 H   0  0  0  0  0  0  0  0  0  0  0  0
   -5.5342   23.7534  -29.3925 H   0  0  0  0  0  0  0  0  0  0  0  0
   -5.5485   26.0281  -31.3495 H   0  0  0  0  0  0  0  0  0  0  0  0
   -5.3469   26.3974  -29.5969 H   0  0  0  0  0  0  0  0  0  0  0  0
   -4.4931   22.7033  -30.0076 H   0  0  0  0  0  0  0  0  0  0  0  0
   -3.4044   21.1600  -28.3817 H   0  0  0  0  0  0  0  0  0  0  0  0
   -2.4750   19.4869  -26.2494 H   0  0  0  0  0  0  0  0  0  0  0  0
   -2.9704   20.3967  -27.7169 H   0  0  0  0  0  0  0  0  0  0  0  0
   -1.4395   19.4571  -27.7169 H   0  0  0  0  0  0  0  0  0  0  0  0
   -0.7220   24.3281  -27.1626 H   0  0  0  0  0  0  0  0  0  0  0  0
   -1.8103   25.8787  -28.7847 H   0  0  0  0  0  0  0  0  0  0  0  0
   -7.4091   22.2452  -29.8503 H   0  0  0  0  0  0  0  0  0  0  0  0
   -7.9973   22.1559  -31.5750 H   0  0  0  0  0  0  0  0  0  0  0  0
   -5.3194   21.2081  -30.4740 H   0  0  0  0  0  0  0  0  0  0  0  0
   -6.6571   20.2141  -31.1680 H   0  0  0  0  0  0  0  0  0  0  0  0
   -2.7751   21.1745  -34.5840 H   0  0  0  0  0  0  0  0  0  0  0  0
  1  2  1  0
  2  3  1  0
  3  4  2  0
  4  5  1  0
  5  6  2  0
  6  7  1  0
  7  8  1  0
  8  9  1  0
  9 10  1  0
 10 11  1  0
 11 12  1  0
 12 13  1  0
 13 14  1  0
 14 15  1  0
 15 16  1  0
 16 17  2  0
 17 18  1  0
 18 19  2  0
 19 20  1  0
 20 21  1  0
 19 22  1  0
 22 23  2  0
 12 24  1  0
 24 25  1  0
  7 26  2  0
 26  3  1  0
 25  9  1  0
 23 16  1  0
  1 27  1  0
  1 28  1  0
  1 29  1  0
  4 30  1  0
  5 31  1  0
  6 32  1  0
  8 33  1  0
  8 34  1  0
 10 35  1  0
 10 36  1  0
 11 37  1  0
 11 38  1  0
 13 39  1  0
 13 40  1  0
 14 41  1  0
 14 42  1  0
 17 43  1  0
 18 44  1  0
 21 45  1  0
 21 46  1  0
 21 47  1  0
 22 48  1  0
 23 49  1  0
 24 50  1  0
 24 51  1  0
 25 52  1  0
 25 53  1  0
 26 54  1  0
M  END
>  <UniqueID>  (31) 
29

>  <SMILES>  (31) 
COc1cccc(CN2CCN(CCOc3ccc(SC)cc3)CC2)c1

>  <Energy>  (31) 
59.00404075586885

>  <Genealogy>  (31) 
COc1cccc(CN2CCN(CCOc3ccc(SC)cc3)CC2)c1 (3D coordinates assigned)
COc1cccc(CN2CCN(CCOc3ccc(SC)cc3)CC2)c1 (nonaromatic ring conformer: 59.00404075586885 kcal/mol)

>  <smiles>  (31) 
COc1cccc(CN2CCN(CCOc3ccc(SC)cc3)CC2)c1

>  <score_type>  (31) 
oracle

>  <origin>  (31) 
adg

>  <m_score__min__energy>  (31) 
-9.1899999999999995

>  <m_primary>  (31) 
energy

$$$$
31:0
     RDKit          3D

 28 29  0  0  0  0  0  0  0  0999 V2000
   -8.5560   18.7560  -31.5860 C   0  0  0  0  0  0  0  0  0  0  0  0
   -7.9730   19.4000  -32.4220 C   0  0  0  0  0  0  0  0  0  0  0  0
   -7.2640   20.1820  -33.4430 C   0  0  0  0  0  0  0  0  0  0  0  0
   -5.8160   20.4550  -33.0250 C   0  0  0  0  0  0  0  0  0  0  0  0
   -5.7290   21.6350  -32.1590 N   0  0  0  0  0  0  0  0  0  0  0  0
   -6.7330   22.4980  -31.9110 C   0  0  0  0  0  0  0  0  0  0  0  0
   -6.3530   23.5260  -31.1280 N   0  0  0  0  0  0  0  0  0  0  0  0
   -5.0490   23.2960  -30.8700 C   0  0  0  0  0  0  0  0  0  0  0  0
   -4.6500   22.1310  -31.5150 C   0  0  0  0  0  0  0  0  0  0  0  0
   -3.3390   21.5240  -31.5800 N   0  0  0  0  0  0  0  0  0  0  0  0
   -2.2220   21.9180  -31.0290 C   0  0  0  0  0  0  0  0  0  0  0  0
   -2.0980   23.0350  -30.1440 N   0  0  0  0  0  0  0  0  0  0  0  0
   -3.1540   23.4950  -29.2560 C   0  0  0  0  0  0  0  0  0  0  0  0
   -4.2270   24.2370  -30.0430 C   0  0  1  0  0  0  0  0  0  0  0  0
   -3.6790   25.2660  -30.8310 O   0  0  0  0  0  0  0  0  0  0  0  0
   -9.0879   18.1684  -30.8232 H   0  0  0  0  0  0  0  0  0  0  0  0
   -7.2646   19.6210  -34.3892 H   0  0  0  0  0  0  0  0  0  0  0  0
   -7.7795   21.1462  -33.5635 H   0  0  0  0  0  0  0  0  0  0  0  0
   -5.4285   19.5810  -32.4810 H   0  0  0  0  0  0  0  0  0  0  0  0
   -5.2208   20.6424  -33.9309 H   0  0  0  0  0  0  0  0  0  0  0  0
   -7.7527   22.3764  -32.3052 H   0  0  0  0  0  0  0  0  0  0  0  0
   -3.2530   20.6790  -32.1850 H   0  0  0  0  0  0  0  0  0  0  0  0
   -1.3100   21.3492  -31.2627 H   0  0  0  0  0  0  0  0  0  0  0  0
   -1.1350   23.4060  -29.9790 H   0  0  0  0  0  0  0  0  0  0  0  0
   -3.6079   22.6280  -28.7537 H   0  0  0  0  0  0  0  0  0  0  0  0
   -2.7205   24.1799  -28.5123 H   0  0  0  0  0  0  0  0  0  0  0  0
   -4.8979   24.7093  -29.3103 H   0  0  0  0  0  0  0  0  0  0  0  0
   -4.3270   25.4820  -31.5520 H   0  0  0  0  0  0  0  0  0  0  0  0
  1  2  3  0
  2  3  1  0
  3  4  1  0
  4  5  1  0
  5  6  1  0
  6  7  2  0
  7  8  1  0
  8  9  2  0
  9 10  1  0
 10 11  2  0
 11 12  1  0
 12 13  1  0
 13 14  1  0
 14 15  1  0
  9  5  1  0
 14  8  1  0
  1 16  1  0
  3 17  1  0
  3 18  1  0
  4 19  1  0
  4 20  1  0
  6 21  1  0
 10 22  1  0
 11 23  1  0
 12 24  1  0
 13 25  1  0
 13 26  1  0
 14 27  1  1
 15 28  1  0
M  CHG  1  10   1
M  END
>  <UniqueID>  (32) 
30

>  <SMILES>  (32) 
C#CCCn1cnc2c1[NH+]=CNC[C@H]2O

>  <Energy>  (32) 
60.10787182637239

>  <Genealogy>  (32) 
C#CCCn1cnc2c1[NH+]=CNCC2O (protonated)
C#CCCn1cnc2c1[NH+]=CNC[C@H]2O (chirality)
C#CCCn1cnc2c1[NH+]=CNC[C@H]2O (3D coordinates assigned)
C#CCCn1cnc2c1[NH+]=CNC[C@H]2O (nonaromatic ring conformer: 60.10787182637239 kcal/mol)

>  <smiles>  (32) 
C#CCCn1cnc2c1N=CNCC2O

>  <score_type>  (32) 
oracle

>  <origin>  (32) 
adg

>  <m_score__min__energy>  (32) 
-3.6099999999999999

>  <m_primary>  (32) 
energy

$$$$
32:0
     RDKit          3D

 30 30  0  0  0  0  0  0  0  0999 V2000
   -3.8110   23.3340  -28.0520 C   0  0  0  0  0  0  0  0  0  0  0  0
   -4.3040   24.0560  -29.1630 O   0  0  0  0  0  0  0  0  0  0  0  0
   -5.3180   24.8920  -28.7650 N   0  0  0  0  0  0  0  0  0  0  0  0
   -5.9910   25.4520  -29.9460 C   0  0  0  0  0  0  0  0  0  0  0  0
   -7.0100   24.4680  -30.5410 C   0  0  0  0  0  0  0  0  0  0  0  0
   -6.3550   23.2250  -30.9530 N   0  0  0  0  0  0  0  0  0  0  0  0
   -7.0660   22.1140  -31.5330 C   0  0  0  0  0  0  0  0  0  0  0  0
   -8.4440   21.9270  -31.3330 C   0  0  0  0  0  0  0  0  0  0  0  0
   -9.0920   20.8440  -31.9240 C   0  0  0  0  0  0  0  0  0  0  0  0
   -8.3630   19.9480  -32.7050 C   0  0  0  0  0  0  0  0  0  0  0  0
   -7.0190   20.1170  -32.8830 N   0  0  0  0  0  0  0  0  0  0  0  0
   -6.2790   19.1870  -33.7380 C   0  0  0  0  0  0  0  0  0  0  0  0
   -6.3730   21.1870  -32.3270 C   0  0  0  0  0  0  0  0  0  0  0  0
   -4.1427   23.8198  -27.1225 H   0  0  0  0  0  0  0  0  0  0  0  0
   -4.1951   22.3037  -28.0845 H   0  0  0  0  0  0  0  0  0  0  0  0
   -2.7116   23.3167  -28.0845 H   0  0  0  0  0  0  0  0  0  0  0  0
   -5.0090   25.6690  -28.1280 H   0  0  0  0  0  0  0  0  0  0  0  0
   -6.0020   24.3150  -28.2230 H   0  0  0  0  0  0  0  0  0  0  0  0
   -6.5149   26.3740  -29.6537 H   0  0  0  0  0  0  0  0  0  0  0  0
   -5.2269   25.6573  -30.7102 H   0  0  0  0  0  0  0  0  0  0  0  0
   -7.7742   24.2388  -29.7838 H   0  0  0  0  0  0  0  0  0  0  0  0
   -7.4726   24.9318  -31.4247 H   0  0  0  0  0  0  0  0  0  0  0  0
   -5.3210   23.1300  -30.8190 H   0  0  0  0  0  0  0  0  0  0  0  0
   -9.0109   22.6348  -30.7104 H   0  0  0  0  0  0  0  0  0  0  0  0
  -10.1719   20.6969  -31.7753 H   0  0  0  0  0  0  0  0  0  0  0  0
   -8.8740   19.0984  -33.1816 H   0  0  0  0  0  0  0  0  0  0  0  0
   -5.7166   18.4802  -33.1103 H   0  0  0  0  0  0  0  0  0  0  0  0
   -6.9850   18.6318  -34.3731 H   0  0  0  0  0  0  0  0  0  0  0  0
   -5.5794   19.7503  -34.3731 H   0  0  0  0  0  0  0  0  0  0  0  0
   -5.2959   21.3227  -32.5046 H   0  0  0  0  0  0  0  0  0  0  0  0
  1  2  1  0
  2  3  1  0
  3  4  1  0
  4  5  1  0
  5  6  1  0
  6  7  1  0
  7  8  2  0
  8  9  1  0
  9 10  2  0
 10 11  1  0
 11 12  1  0
 11 13  2  0
 13  7  1  0
  1 14  1  0
  1 15  1  0
  1 16  1  0
  3 17  1  0
  3 18  1  0
  4 19  1  0
  4 20  1  0
  5 21  1  0
  5 22  1  0
  6 23  1  0
  8 24  1  0
  9 25  1  0
 10 26  1  0
 12 27  1  0
 12 28  1  0
 12 29  1  0
 13 30  1  0
M  CHG  2   3   1  11   1
M  END
>  <UniqueID>  (33) 
31

>  <SMILES>  (33) 
CO[NH2+]CCNc1ccc[n+](C)c1

>  <Energy>  (33) 
29.78759257233382

>  <Genealogy>  (33) 
CO[NH2+]CCNc1ccc[n+](C)c1 (protonated)
CO[NH2+]CCNc1ccc[n+](C)c1 (3D coordinates assigned)
CO[NH2+]CCNc1ccc[n+](C)c1 (optimized conformer: 29.78759257233382 kcal/mol)

>  <smiles>  (33) 
CONCCNc1ccc[n+](C)c1

>  <score_type>  (33) 
oracle

>  <origin>  (33) 
adg

>  <m_score__min__energy>  (33) 
-4.3200000000000003

>  <m_primary>  (33) 
energy

$$$$
33:0
     RDKit          3D

 43 43  0  0  0  0  0  0  0  0999 V2000
    0.4050   27.1390  -23.3760 C   0  0  0  0  0  0  0  0  0  0  0  0
    0.9260   26.1050  -24.3810 C   0  0  0  0  0  0  0  0  0  0  0  0
   -0.1540   25.2980  -25.0080 N   0  0  0  0  0  0  0  0  0  0  0  0
   -0.6130   24.1600  -24.1610 C   0  0  0  0  0  0  0  0  0  0  0  0
   -0.0750   22.7840  -24.5800 C   0  0  0  0  0  0  0  0  0  0  0  0
   -1.2560   26.2020  -25.4320 C   0  0  0  0  0  0  0  0  0  0  0  0
   -1.8290   25.8550  -26.8140 C   0  0  0  0  0  0  0  0  0  0  0  0
   -1.4610   24.5230  -27.1490 O   0  0  0  0  0  0  0  0  0  0  0  0
   -0.4960   24.2220  -28.1160 C   0  0  0  0  0  0  0  0  0  0  0  0
    0.6990   24.5960  -27.9710 O   0  0  0  0  0  0  0  0  0  0  0  0
   -0.8790   23.4180  -29.3210 C   0  0  0  0  0  0  0  0  0  0  0  0
   -2.3320   23.4030  -29.4980 N   0  0  0  0  0  0  0  0  0  0  0  0
   -3.0070   22.6010  -30.4890 C   0  0  0  0  0  0  0  0  0  0  0  0
   -2.5570   21.2960  -30.7700 C   0  0  0  0  0  0  0  0  0  0  0  0
   -3.2420   20.4880  -31.6780 C   0  0  0  0  0  0  0  0  0  0  0  0
   -4.3880   20.9640  -32.3140 C   0  0  0  0  0  0  0  0  0  0  0  0
   -5.2480   19.9420  -33.4510 Cl  0  0  0  0  0  0  0  0  0  0  0  0
   -4.8420   22.2590  -32.0550 C   0  0  0  0  0  0  0  0  0  0  0  0
   -4.1540   23.0950  -31.1600 C   0  0  0  0  0  0  0  0  0  0  0  0
   -4.6060   24.4480  -30.9810 N   0  0  0  0  0  0  0  0  0  0  0  0
   -3.8590   25.3010  -30.4580 O   0  0  0  0  0  0  0  0  0  0  0  0
   -5.7830   24.8640  -31.5610 O   0  0  0  0  0  0  0  0  0  0  0  0
    0.5863   26.7792  -22.3524 H   0  0  0  0  0  0  0  0  0  0  0  0
    0.9295   28.0940  -23.5272 H   0  0  0  0  0  0  0  0  0  0  0  0
   -0.6746   27.2857  -23.5272 H   0  0  0  0  0  0  0  0  0  0  0  0
    1.4721   26.6347  -25.1755 H   0  0  0  0  0  0  0  0  0  0  0  0
    1.5727   25.4090  -23.8266 H   0  0  0  0  0  0  0  0  0  0  0  0
    0.2490   24.8820  -25.8820 H   0  0  0  0  0  0  0  0  0  0  0  0
   -0.2912   24.3522  -23.1268 H   0  0  0  0  0  0  0  0  0  0  0  0
   -1.7060   24.1117  -24.2751 H   0  0  0  0  0  0  0  0  0  0  0  0
    0.1565   22.1919  -23.6823 H   0  0  0  0  0  0  0  0  0  0  0  0
   -0.8345   22.2602  -25.1789 H   0  0  0  0  0  0  0  0  0  0  0  0
    0.8384   22.9143  -25.1789 H   0  0  0  0  0  0  0  0  0  0  0  0
   -2.0665   26.1356  -24.6913 H   0  0  0  0  0  0  0  0  0  0  0  0
   -0.8373   27.2170  -25.4985 H   0  0  0  0  0  0  0  0  0  0  0  0
   -2.9255   25.9392  -26.7899 H   0  0  0  0  0  0  0  0  0  0  0  0
   -1.4288   26.5505  -27.5664 H   0  0  0  0  0  0  0  0  0  0  0  0
   -0.4120   23.8610  -30.2130 H   0  0  0  0  0  0  0  0  0  0  0  0
   -0.5313   22.3841  -29.1790 H   0  0  0  0  0  0  0  0  0  0  0  0
   -2.8950   24.0470  -28.8990 H   0  0  0  0  0  0  0  0  0  0  0  0
   -1.6570   20.9104  -30.2688 H   0  0  0  0  0  0  0  0  0  0  0  0
   -2.8771   19.4728  -31.8927 H   0  0  0  0  0  0  0  0  0  0  0  0
   -5.7482   22.6284  -32.5573 H   0  0  0  0  0  0  0  0  0  0  0  0
  1  2  1  0
  2  3  1  0
  3  4  1  0
  4  5  1  0
  3  6  1  0
  6  7  1  0
  7  8  1  0
  8  9  1  0
  9 10  2  0
  9 11  1  0
 11 12  1  0
 12 13  1  0
 13 14  2  0
 14 15  1  0
 15 16  2  0
 16 17  1  0
 16 18  1  0
 18 19  2  0
 19 20  1  0
 20 21  2  0
 20 22  1  0
 19 13  1  0
  1 23  1  0
  1 24  1  0
  1 25  1  0
  2 26  1  0
  2 27  1  0
  3 28  1  0
  4 29  1  0
  4 30  1  0
  5 31  1  0
  5 32  1  0
  5 33  1  0
  6 34  1  0
  6 35  1  0
  7 36  1  0
  7 37  1  0
 11 38  1  0
 11 39  1  0
 12 40  1  0
 14 41  1  0
 15 42  1  0
 18 43  1  0
M  CHG  3   3   1  20   1  22  -1
M  END
>  <UniqueID>  (34) 
32

>  <SMILES>  (34) 
CC[NH+](CC)CCOC(=O)CNc1ccc(Cl)cc1[N+](=O)[O-]

>  <Energy>  (34) 
44.80614562331653

>  <Genealogy>  (34) 
CC[NH+](CC)CCOC(=O)CNc1ccc(Cl)cc1[N+](=O)[O-] (protonated)
CC[NH+](CC)CCOC(=O)CNc1ccc(Cl)cc1[N+](=O)[O-] (3D coordinates assigned)
CC[NH+](CC)CCOC(=O)CNc1ccc(Cl)cc1[N+](=O)[O-] (optimized conformer: 44.80614562331653 kcal/mol)

>  <smiles>  (34) 
CCN(CC)CCOC(=O)CNc1ccc(Cl)cc1[N+](=O)[O-]

>  <score_type>  (34) 
oracle

>  <origin>  (34) 
adg

>  <m_score__min__energy>  (34) 
-5.54

>  <m_primary>  (34) 
energy

$$$$
34:0
     RDKit          3D

 34 35  0  0  0  0  0  0  0  0999 V2000
   -3.2580   20.9850  -31.7180 C   0  0  0  0  0  0  0  0  0  0  0  0
   -4.1250   21.8220  -33.0820 S   0  0  0  0  0  0  0  0  0  0  0  0
   -5.5790   20.7600  -32.9710 C   0  0  0  0  0  0  0  0  0  0  0  0
   -5.4690   19.4880  -33.4480 N   0  0  0  0  0  0  0  0  0  0  0  0
   -6.4880   18.5930  -33.3580 C   0  0  0  0  0  0  0  0  0  0  0  0
   -6.3070   17.1910  -33.8650 C   0  0  0  0  0  0  0  0  0  0  0  0
   -7.6710   18.9530  -32.7120 C   0  0  0  0  0  0  0  0  0  0  0  0
   -7.8300   20.2500  -32.2040 C   0  0  0  0  0  0  0  0  0  0  0  0
   -9.1160   20.5740  -31.4890 C   0  0  0  0  0  0  0  0  0  0  0  0
   -6.7910   21.2010  -32.3830 C   0  0  0  0  0  0  0  0  0  0  0  0
   -6.9700   22.9020  -31.8710 S   0  0  0  0  0  0  0  0  0  0  0  0
   -8.3000   23.1650  -31.2220 O   0  0  0  0  0  0  0  0  0  0  0  0
   -6.8830   23.7980  -33.0760 O   0  0  0  0  0  0  0  0  0  0  0  0
   -5.6950   23.2920  -30.7270 C   0  0  0  0  0  0  0  0  0  0  0  0
   -5.6560   22.6980  -29.4590 C   0  0  0  0  0  0  0  0  0  0  0  0
   -4.6430   23.0560  -28.5680 C   0  0  0  0  0  0  0  0  0  0  0  0
   -3.6830   23.9970  -28.9480 C   0  0  0  0  0  0  0  0  0  0  0  0
   -2.2930   24.5010  -27.7390 Br  0  0  0  0  0  0  0  0  0  0  0  0
   -3.7530   24.5670  -30.2220 C   0  0  0  0  0  0  0  0  0  0  0  0
   -4.7490   24.2060  -31.0740 N   0  0  0  0  0  0  0  0  0  0  0  0
   -3.6425   21.3562  -30.7566 H   0  0  0  0  0  0  0  0  0  0  0  0
   -3.4276   19.9003  -31.7865 H   0  0  0  0  0  0  0  0  0  0  0  0
   -2.1800   21.1926  -31.7865 H   0  0  0  0  0  0  0  0  0  0  0  0
   -4.5680   19.1910  -33.8840 H   0  0  0  0  0  0  0  0  0  0  0  0
   -6.2180   16.5015  -33.0126 H   0  0  0  0  0  0  0  0  0  0  0  0
   -7.1760   16.9073  -34.4769 H   0  0  0  0  0  0  0  0  0  0  0  0
   -5.3945   17.1373  -34.4769 H   0  0  0  0  0  0  0  0  0  0  0  0
   -8.4811   18.2173  -32.6009 H   0  0  0  0  0  0  0  0  0  0  0  0
   -8.9517   20.5326  -30.4021 H   0  0  0  0  0  0  0  0  0  0  0  0
   -9.4482   21.5839  -31.7714 H   0  0  0  0  0  0  0  0  0  0  0  0
   -9.8870   19.8420  -31.7714 H   0  0  0  0  0  0  0  0  0  0  0  0
   -6.4156   21.9573  -29.1685 H   0  0  0  0  0  0  0  0  0  0  0  0
   -4.6007   22.5981  -27.5687 H   0  0  0  0  0  0  0  0  0  0  0  0
   -3.0024   25.3076  -30.5354 H   0  0  0  0  0  0  0  0  0  0  0  0
  1  2  1  0
  2  3  1  0
  3  4  2  0
  4  5  1  0
  5  6  1  0
  5  7  2  0
  7  8  1  0
  8  9  1  0
  8 10  2  0
 10 11  1  0
 11 12  2  0
 11 13  2  0
 11 14  1  0
 14 15  2  0
 15 16  1  0
 16 17  2  0
 17 18  1  0
 17 19  1  0
 19 20  2  0
 10  3  1  0
 20 14  1  0
  1 21  1  0
  1 22  1  0
  1 23  1  0
  4 24  1  0
  6 25  1  0
  6 26  1  0
  6 27  1  0
  7 28  1  0
  9 29  1  0
  9 30  1  0
  9 31  1  0
 15 32  1  0
 16 33  1  0
 19 34  1  0
M  CHG  1   4   1
M  END
>  <UniqueID>  (35) 
33

>  <SMILES>  (35) 
CSc1[nH+]c(C)cc(C)c1S(=O)(=O)c1ccc(Br)cn1

>  <Energy>  (35) 
36.39768137996844

>  <Genealogy>  (35) 
CSc1[nH+]c(C)cc(C)c1S(=O)(=O)c1ccc(Br)cn1 (protonated)
CSc1[nH+]c(C)cc(C)c1S(=O)(=O)c1ccc(Br)cn1 (3D coordinates assigned)
CSc1[nH+]c(C)cc(C)c1S(=O)(=O)c1ccc(Br)cn1 (optimized conformer: 36.39768137996844 kcal/mol)

>  <smiles>  (35) 
CSc1nc(C)cc(C)c1S(=O)(=O)c1ccc(Br)cn1

>  <score_type>  (35) 
oracle

>  <origin>  (35) 
adg

>  <m_score__min__energy>  (35) 
-7.5199999999999996

>  <m_primary>  (35) 
energy

$$$$
35:0
     RDKit          3D

 50 51  0  0  0  0  0  0  0  0999 V2000
   -9.4930   21.5250  -30.7150 C   0  0  0  0  0  0  0  0  0  0  0  0
   -8.7840   22.0300  -31.9610 C   0  0  0  0  0  0  0  0  0  0  0  0
   -8.0440   20.9720  -32.5300 O   0  0  0  0  0  0  0  0  0  0  0  0
   -8.8830   19.8520  -32.7190 C   0  0  0  0  0  0  0  0  0  0  0  0
   -8.3510   18.6630  -31.9060 C   0  0  0  0  0  0  0  0  0  0  0  0
   -6.9210   18.3820  -32.1780 N   0  0  0  0  0  0  0  0  0  0  0  0
   -6.0330   19.3080  -31.4360 C   0  0  0  0  0  0  0  0  0  0  0  0
   -4.5970   19.2420  -31.9620 C   0  0  0  0  0  0  0  0  0  0  0  0
   -4.5070   19.6240  -33.3890 N   0  0  0  0  0  0  0  0  0  0  0  0
   -3.8210   20.9180  -33.6140 C   0  0  0  0  0  0  0  0  0  0  0  0
   -4.1820   21.9690  -32.5970 C   0  0  0  0  0  0  0  0  0  0  0  0
   -3.2750   22.6320  -31.8490 N   0  0  0  0  0  0  0  0  0  0  0  0
   -3.9630   23.5050  -31.1720 O   0  0  0  0  0  0  0  0  0  0  0  0
   -5.2340   23.4020  -31.4760 C   0  0  0  0  0  0  0  0  0  0  0  0
   -6.3120   24.2890  -30.9220 C   0  0  0  0  0  0  0  0  0  0  0  0
   -5.7290   25.6290  -30.4660 C   0  0  0  0  0  0  0  0  0  0  0  0
   -7.0380   23.5840  -29.7720 C   0  0  0  0  0  0  0  0  0  0  0  0
   -5.4300   22.4240  -32.3770 N   0  0  0  0  0  0  0  0  0  0  0  0
   -5.7820   19.5170  -34.1350 C   0  0  0  0  0  0  0  0  0  0  0  0
   -6.6520   18.3380  -33.6470 C   0  0  1  0  0  0  0  0  0  0  0  0
   -6.0270   16.9880  -34.0140 C   0  0  0  0  0  0  0  0  0  0  0  0
   -8.9716   21.8964  -29.8205 H   0  0  0  0  0  0  0  0  0  0  0  0
  -10.5313   21.8881  -30.7114 H   0  0  0  0  0  0  0  0  0  0  0  0
   -9.4892   20.4250  -30.7114 H   0  0  0  0  0  0  0  0  0  0  0  0
   -9.5271   22.3922  -32.6867 H   0  0  0  0  0  0  0  0  0  0  0  0
   -8.1072   22.8551  -31.6944 H   0  0  0  0  0  0  0  0  0  0  0  0
   -9.9015   20.0975  -32.3838 H   0  0  0  0  0  0  0  0  0  0  0  0
   -8.8992   19.5852  -33.7860 H   0  0  0  0  0  0  0  0  0  0  0  0
   -8.4688   18.8870  -30.8355 H   0  0  0  0  0  0  0  0  0  0  0  0
   -8.9276   17.7734  -32.1996 H   0  0  0  0  0  0  0  0  0  0  0  0
   -6.4099   20.3350  -31.5508 H   0  0  0  0  0  0  0  0  0  0  0  0
   -6.0289   19.0113  -30.3768 H   0  0  0  0  0  0  0  0  0  0  0  0
   -3.9714   19.9275  -31.3715 H   0  0  0  0  0  0  0  0  0  0  0  0
   -4.2500   18.2024  -31.8678 H   0  0  0  0  0  0  0  0  0  0  0  0
   -2.7348   20.7493  -33.5712 H   0  0  0  0  0  0  0  0  0  0  0  0
   -4.1443   21.2914  -34.5969 H   0  0  0  0  0  0  0  0  0  0  0  0
   -7.0432   24.4944  -31.7177 H   0  0  0  0  0  0  0  0  0  0  0  0
   -5.7126   25.6667  -29.3668 H   0  0  0  0  0  0  0  0  0  0  0  0
   -4.7042   25.7333  -30.8518 H   0  0  0  0  0  0  0  0  0  0  0  0
   -6.3513   26.4499  -30.8518 H   0  0  0  0  0  0  0  0  0  0  0  0
   -6.6532   23.9576  -28.8116 H   0  0  0  0  0  0  0  0  0  0  0  0
   -8.1167   23.7884  -29.8393 H   0  0  0  0  0  0  0  0  0  0  0  0
   -6.8654   22.4997  -29.8393 H   0  0  0  0  0  0  0  0  0  0  0  0
   -6.3280   22.1120  -32.8080 H   0  0  0  0  0  0  0  0  0  0  0  0
   -6.3475   20.4514  -34.0040 H   0  0  0  0  0  0  0  0  0  0  0  0
   -5.5380   19.3387  -35.1927 H   0  0  0  0  0  0  0  0  0  0  0  0
   -7.6150   18.4453  -34.1676 H   0  0  0  0  0  0  0  0  0  0  0  0
   -5.7731   16.4395  -33.0949 H   0  0  0  0  0  0  0  0  0  0  0  0
   -6.7447   16.4003  -34.6053 H   0  0  0  0  0  0  0  0  0  0  0  0
   -5.1146   17.1550  -34.6053 H   0  0  0  0  0  0  0  0  0  0  0  0
  1  2  1  0
  2  3  1  0
  3  4  1  0
  4  5  1  0
  5  6  1  0
  6  7  1  0
  7  8  1  0
  8  9  1  0
  9 10  1  0
 10 11  1  0
 11 12  2  0
 12 13  1  0
 13 14  1  0
 14 15  1  0
 15 16  1  0
 15 17  1  0
 14 18  2  0
  9 19  1  0
 19 20  1  0
 20 21  1  0
 20  6  1  0
 18 11  1  0
  1 22  1  0
  1 23  1  0
  1 24  1  0
  2 25  1  0
  2 26  1  0
  4 27  1  0
  4 28  1  0
  5 29  1  0
  5 30  1  0
  7 31  1  0
  7 32  1  0
  8 33  1  0
  8 34  1  0
 10 35  1  0
 10 36  1  0
 15 37  1  0
 16 38  1  0
 16 39  1  0
 16 40  1  0
 17 41  1  0
 17 42  1  0
 17 43  1  0
 18 44  1  0
 19 45  1  0
 19 46  1  0
 20 47  1  6
 21 48  1  0
 21 49  1  0
 21 50  1  0
M  CHG  1  18   1
M  END
>  <UniqueID>  (36) 
34

>  <SMILES>  (36) 
CCOCCN1CCN(Cc2noc(C(C)C)[nH+]2)C[C@H]1C

>  <Energy>  (36) 
86.2015358530706

>  <Genealogy>  (36) 
CCOCCN1CCN(Cc2noc(C(C)C)[nH+]2)CC1C (protonated)
CCOCCN1CCN(Cc2noc(C(C)C)[nH+]2)C[C@H]1C (chirality)
CCOCCN1CCN(Cc2noc(C(C)C)[nH+]2)C[C@H]1C (3D coordinates assigned)
CCOCCN1CCN(Cc2noc(C(C)C)[nH+]2)C[C@H]1C (nonaromatic ring conformer: 86.2015358530706 kcal/mol)

>  <smiles>  (36) 
CCOCCN1CCN(Cc2noc(C(C)C)n2)CC1C

>  <score_type>  (36) 
oracle

>  <origin>  (36) 
adg

>  <m_score__min__energy>  (36) 
-7.2599999999999998

>  <m_primary>  (36) 
energy

$$$$
36:0
     RDKit          3D

 38 39  0  0  0  0  0  0  0  0999 V2000
   -1.3700   20.0760  -27.9650 C   0  0  0  0  0  0  0  0  0  0  0  0
   -1.9200   20.3790  -29.2430 O   0  0  0  0  0  0  0  0  0  0  0  0
   -2.4450   21.6290  -29.6050 C   0  0  0  0  0  0  0  0  0  0  0  0
   -3.5130   21.6610  -30.5070 C   0  0  0  0  0  0  0  0  0  0  0  0
   -4.0620   22.8780  -30.9140 C   0  0  0  0  0  0  0  0  0  0  0  0
   -3.5560   24.0920  -30.4110 C   0  0  0  0  0  0  0  0  0  0  0  0
   -4.0770   25.3350  -30.8030 O   0  0  0  0  0  0  0  0  0  0  0  0
   -5.4020   25.7780  -30.5260 C   0  0  0  0  0  0  0  0  0  0  0  0
   -2.5000   24.0690  -29.4850 C   0  0  0  0  0  0  0  0  0  0  0  0
   -1.9830   25.3170  -28.9970 N   0  0  0  0  0  0  0  0  0  0  0  0
   -1.0830   25.4960  -27.8960 C   0  0  0  0  0  0  0  0  0  0  0  0
    0.1620   25.5500  -28.0880 O   0  0  0  0  0  0  0  0  0  0  0  0
   -1.6230   25.5970  -26.5300 C   0  0  0  0  0  0  0  0  0  0  0  0
   -2.8700   25.5130  -26.3570 O   0  0  0  0  0  0  0  0  0  0  0  0
   -0.7650   25.8340  -25.4010 N   0  0  0  0  0  0  0  0  0  0  0  0
    0.3810   24.9520  -25.1410 C   0  0  0  0  0  0  0  0  0  0  0  0
    1.5100   25.7030  -24.3960 C   0  0  0  0  0  0  0  0  0  0  0  0
    1.1400   26.9950  -23.9440 O   0  0  0  0  0  0  0  0  0  0  0  0
   -0.1160   26.9460  -23.3040 C   0  0  0  0  0  0  0  0  0  0  0  0
   -1.2120   26.7580  -24.3540 C   0  0  0  0  0  0  0  0  0  0  0  0
   -1.9350   22.8390  -29.1010 C   0  0  0  0  0  0  0  0  0  0  0  0
   -2.0436   20.4471  -27.1786 H   0  0  0  0  0  0  0  0  0  0  0  0
   -1.2541   18.9867  -27.8646 H   0  0  0  0  0  0  0  0  0  0  0  0
   -0.3874   20.5601  -27.8646 H   0  0  0  0  0  0  0  0  0  0  0  0
   -3.9240   20.7190  -30.8992 H   0  0  0  0  0  0  0  0  0  0  0  0
   -4.8951   22.8888  -31.6322 H   0  0  0  0  0  0  0  0  0  0  0  0
   -5.5518   25.8281  -29.4374 H   0  0  0  0  0  0  0  0  0  0  0  0
   -5.5540   26.7758  -30.9633 H   0  0  0  0  0  0  0  0  0  0  0  0
   -6.1235   25.0722  -30.9633 H   0  0  0  0  0  0  0  0  0  0  0  0
    0.0479   24.1036  -24.5252 H   0  0  0  0  0  0  0  0  0  0  0  0
    0.7752   24.6010  -26.1061 H   0  0  0  0  0  0  0  0  0  0  0  0
    1.8079   25.1030  -23.5235 H   0  0  0  0  0  0  0  0  0  0  0  0
    2.3311   25.8395  -25.1151 H   0  0  0  0  0  0  0  0  0  0  0  0
   -0.1357   26.1031  -22.5975 H   0  0  0  0  0  0  0  0  0  0  0  0
   -0.2874   27.8848  -22.7569 H   0  0  0  0  0  0  0  0  0  0  0  0
   -2.1112   26.3493  -23.8699 H   0  0  0  0  0  0  0  0  0  0  0  0
   -1.4382   27.7325  -24.8115 H   0  0  0  0  0  0  0  0  0  0  0  0
   -1.0870   22.8236  -28.4005 H   0  0  0  0  0  0  0  0  0  0  0  0
  1  2  1  0
  2  3  1  0
  3  4  2  0
  4  5  1  0
  5  6  2  0
  6  7  1  0
  7  8  1  0
  6  9  1  0
  9 10  1  0
 10 11  1  0
 11 12  2  0
 11 13  1  0
 13 14  2  0
 13 15  1  0
 15 16  1  0
 16 17  1  0
 17 18  1  0
 18 19  1  0
 19 20  1  0
  9 21  2  0
 21  3  1  0
 20 15  1  0
  1 22  1  0
  1 23  1  0
  1 24  1  0
  4 25  1  0
  5 26  1  0
  8 27  1  0
  8 28  1  0
  8 29  1  0
 16 30  1  0
 16 31  1  0
 17 32  1  0
 17 33  1  0
 19 34  1  0
 19 35  1  0
 20 36  1  0
 20 37  1  0
 21 38  1  0
M  CHG  1  10  -1
M  END
>  <UniqueID>  (37) 
35

>  <SMILES>  (37) 
COc1ccc(OC)c([N-]C(=O)C(=O)N2CCOCC2)c1

>  <Energy>  (37) 
48.71732679618314

>  <Genealogy>  (37) 
COc1ccc(OC)c([N-]C(=O)C(=O)N2CCOCC2)c1 (protonated)
COc1ccc(OC)c([N-]C(=O)C(=O)N2CCOCC2)c1 (3D coordinates assigned)
COc1ccc(OC)c([N-]C(=O)C(=O)N2CCOCC2)c1 (nonaromatic ring conformer: 48.71732679618314 kcal/mol)

>  <smiles>  (37) 
COc1ccc(OC)c(NC(=O)C(=O)N2CCOCC2)c1

>  <score_type>  (37) 
oracle

>  <origin>  (37) 
adg

>  <m_score__min__energy>  (37) 
-7.6600000000000001

>  <m_primary>  (37) 
energy

$$$$
37:0
     RDKit          3D

 28 29  0  0  1  0  0  0  0  0999 V2000
   -6.4870   26.0150  -29.3430 C   0  0  0  0  0  0  0  0  0  0  0  0
   -5.6960   24.9550  -30.0180 C   0  0  0  0  0  0  0  0  0  0  0  0
   -6.2710   24.2290  -31.0420 C   0  0  0  0  0  0  0  0  0  0  0  0
   -5.4900   23.2590  -31.6320 C   0  0  0  0  0  0  0  0  0  0  0  0
   -5.9580   22.5400  -32.5950 N   0  0  0  0  0  0  0  0  0  0  0  0
   -6.9650   21.5510  -32.4030 C   0  0  0  0  0  0  0  0  0  0  0  0
   -8.2270   21.8420  -31.9270 C   0  0  0  0  0  0  0  0  0  0  0  0
   -9.1010   20.7860  -31.7920 C   0  0  0  0  0  0  0  0  0  0  0  0
   -8.7870   19.4850  -32.1000 C   0  0  0  0  0  0  0  0  0  0  0  0
   -7.5260   19.1970  -32.5750 C   0  0  0  0  0  0  0  0  0  0  0  0
   -6.6490   20.2430  -32.7120 C   0  0  0  0  0  0  0  0  0  0  0  0
   -4.2340   23.0690  -31.1930 N   0  0  0  0  0  0  0  0  0  0  0  0
   -3.6880   23.7830  -30.1940 C   0  0  0  0  0  0  0  0  0  0  0  0
   -2.2870   23.4900  -29.7860 C   0  0  0  0  0  0  0  0  0  0  0  0
   -4.4240   24.7390  -29.5970 N   0  0  0  0  0  0  0  0  0  0  0  0
   -6.4004   25.8989  -28.2526 H   0  0  0  0  0  0  0  0  0  0  0  0
   -6.1035   27.0028  -29.6382 H   0  0  0  0  0  0  0  0  0  0  0  0
   -7.5431   25.9285  -29.6382 H   0  0  0  0  0  0  0  0  0  0  0  0
   -7.3037   24.4160  -31.3713 H   0  0  0  0  0  0  0  0  0  0  0  0
   -8.5214   22.8696  -31.6674 H   0  0  0  0  0  0  0  0  0  0  0  0
  -10.1123   20.9977  -31.4144 H   0  0  0  0  0  0  0  0  0  0  0  0
   -9.5307   18.6851  -31.9695 H   0  0  0  0  0  0  0  0  0  0  0  0
   -7.2340   18.1686  -32.8342 H   0  0  0  0  0  0  0  0  0  0  0  0
   -5.6382   20.0277  -33.0888 H   0  0  0  0  0  0  0  0  0  0  0  0
   -2.2201   23.4760  -28.6881 H   0  0  0  0  0  0  0  0  0  0  0  0
   -1.9866   22.5096  -30.1842 H   0  0  0  0  0  0  0  0  0  0  0  0
   -1.6188   24.2678  -30.1842 H   0  0  0  0  0  0  0  0  0  0  0  0
   -4.0210   25.3050  -28.8210 H   0  0  0  0  0  0  0  0  0  0  0  0
  1  2  1  0
  2  3  2  0
  3  4  1  0
  4  5  2  0
  5  6  1  0
  6  7  2  0
  7  8  1  0
  8  9  2  0
  9 10  1  0
 10 11  2  0
  4 12  1  0
 12 13  2  0
 13 14  1  0
 13 15  1  0
 15  2  1  0
 11  6  1  0
  1 16  1  0
  1 17  1  0
  1 18  1  0
  3 19  1  0
  7 20  1  0
  8 21  1  0
  9 22  1  0
 10 23  1  0
 11 24  1  0
 14 25  1  0
 14 26  1  0
 14 27  1  0
 15 28  1  0
M  END
>  <smiles>  (38) 
Cc1cc(=Nc2ccccc2)nc(C)[nH]1

>  <score_type>  (38) 
oracle

>  <origin>  (38) 
adg

>  <m_score__min__energy>  (38) 
-6.5499999999999998

>  <m_primary>  (38) 
energy

$$$$
38:0
     RDKit          3D

 49 52  0  0  0  0  0  0  0  0999 V2000
   -5.3810   24.9170  -30.2180 C   0  0  0  0  0  0  0  0  0  0  0  0
   -4.2590   24.3090  -30.8500 O   0  0  0  0  0  0  0  0  0  0  0  0
   -4.2550   23.0100  -31.3770 C   0  0  0  0  0  0  0  0  0  0  0  0
   -3.6170   21.9980  -30.6490 C   0  0  0  0  0  0  0  0  0  0  0  0
   -3.5890   20.6860  -31.1300 C   0  0  0  0  0  0  0  0  0  0  0  0
   -4.2090   20.3690  -32.3460 C   0  0  0  0  0  0  0  0  0  0  0  0
   -4.1930   19.0190  -32.8370 N   0  0  0  0  0  0  0  0  0  0  0  0
   -3.3120   18.5180  -33.7370 C   0  0  0  0  0  0  0  0  0  0  0  0
   -2.3450   19.1590  -34.2300 O   0  0  0  0  0  0  0  0  0  0  0  0
   -3.6610   17.2220  -34.0300 C   0  0  0  0  0  0  0  0  0  0  0  0
   -3.1480   16.2670  -34.9000 C   0  0  0  0  0  0  0  0  0  0  0  0
   -3.8330   15.0410  -34.9770 C   0  0  0  0  0  0  0  0  0  0  0  0
   -4.9940   14.8310  -34.1980 C   0  0  0  0  0  0  0  0  0  0  0  0
   -5.4620   15.8090  -33.3620 N   0  0  0  0  0  0  0  0  0  0  0  0
   -4.7790   16.9830  -33.2800 C   0  0  0  0  0  0  0  0  0  0  0  0
   -5.0940   18.0760  -32.5460 N   0  0  0  0  0  0  0  0  0  0  0  0
   -6.3110   18.2780  -31.7530 C   0  0  0  0  0  0  0  0  0  0  0  0
   -7.4890   18.6110  -32.6760 C   0  0  0  0  0  0  0  0  0  0  0  0
   -7.9210   20.0160  -32.5070 N   0  0  0  0  0  0  0  0  0  0  0  0
   -7.3700   20.5700  -31.2570 C   0  0  0  0  0  0  0  0  0  0  0  0
   -7.7770   22.0510  -31.1050 C   0  0  0  0  0  0  0  0  0  0  0  0
   -8.8060   22.4320  -32.0010 O   0  0  0  0  0  0  0  0  0  0  0  0
   -9.8570   21.4910  -31.9450 C   0  0  0  0  0  0  0  0  0  0  0  0
   -9.3990   20.1330  -32.5080 C   0  0  0  0  0  0  0  0  0  0  0  0
   -4.8370   21.3790  -33.0860 C   0  0  0  0  0  0  0  0  0  0  0  0
   -4.8650   22.6910  -32.6060 C   0  0  0  0  0  0  0  0  0  0  0  0
   -5.2652   24.8543  -29.1259 H   0  0  0  0  0  0  0  0  0  0  0  0
   -5.4443   25.9728  -30.5200 H   0  0  0  0  0  0  0  0  0  0  0  0
   -6.3001   24.3935  -30.5200 H   0  0  0  0  0  0  0  0  0  0  0  0
   -3.1337   22.2377  -29.6904 H   0  0  0  0  0  0  0  0  0  0  0  0
   -3.0792   19.9006  -30.5528 H   0  0  0  0  0  0  0  0  0  0  0  0
   -2.2473   16.4612  -35.5009 H   0  0  0  0  0  0  0  0  0  0  0  0
   -3.4657   14.2461  -35.6428 H   0  0  0  0  0  0  0  0  0  0  0  0
   -5.5272   13.8712  -34.2643 H   0  0  0  0  0  0  0  0  0  0  0  0
   -6.3280   15.6410  -32.8060 H   0  0  0  0  0  0  0  0  0  0  0  0
   -6.5365   17.3594  -31.1915 H   0  0  0  0  0  0  0  0  0  0  0  0
   -6.1524   19.1128  -31.0545 H   0  0  0  0  0  0  0  0  0  0  0  0
   -7.1821   18.4532  -33.7205 H   0  0  0  0  0  0  0  0  0  0  0  0
   -8.3319   17.9539  -32.4157 H   0  0  0  0  0  0  0  0  0  0  0  0
   -7.7595   19.9967  -30.4028 H   0  0  0  0  0  0  0  0  0  0  0  0
   -6.2726   20.5008  -31.2869 H   0  0  0  0  0  0  0  0  0  0  0  0
   -8.1286   22.2151  -30.0757 H   0  0  0  0  0  0  0  0  0  0  0  0
   -6.8928   22.6630  -31.3364 H   0  0  0  0  0  0  0  0  0  0  0  0
  -10.1708   21.3613  -30.8987 H   0  0  0  0  0  0  0  0  0  0  0  0
  -10.6971   21.8611  -32.5511 H   0  0  0  0  0  0  0  0  0  0  0  0
   -9.8219   19.3282  -31.8888 H   0  0  0  0  0  0  0  0  0  0  0  0
   -9.7512   20.0532  -33.5470 H   0  0  0  0  0  0  0  0  0  0  0  0
   -5.3103   21.1382  -34.0493 H   0  0  0  0  0  0  0  0  0  0  0  0
   -5.3652   23.4776  -33.1900 H   0  0  0  0  0  0  0  0  0  0  0  0
  1  2  1  0
  2  3  1  0
  3  4  2  0
  4  5  1  0
  5  6  2  0
  6  7  1  0
  7  8  1  0
  8  9  2  0
  8 10  1  0
 10 11  2  0
 11 12  1  0
 12 13  2  0
 13 14  1  0
 14 15  2  0
 15 16  1  0
 16 17  1  0
 17 18  1  0
 18 19  1  0
 19 20  1  0
 20 21  1  0
 21 22  1  0
 22 23  1  0
 23 24  1  0
  6 25  1  0
 25 26  2  0
 26  3  1  0
 16  7  1  0
 24 19  1  0
 15 10  1  0
  1 27  1  0
  1 28  1  0
  1 29  1  0
  4 30  1  0
  5 31  1  0
 11 32  1  0
 12 33  1  0
 13 34  1  0
 14 35  1  0
 17 36  1  0
 17 37  1  0
 18 38  1  0
 18 39  1  0
 20 40  1  0
 20 41  1  0
 21 42  1  0
 21 43  1  0
 23 44  1  0
 23 45  1  0
 24 46  1  0
 24 47  1  0
 25 48  1  0
 26 49  1  0
M  CHG  1  14   1
M  END
>  <UniqueID>  (39) 
36

>  <SMILES>  (39) 
COc1ccc(-n2c(=O)c3ccc[nH+]c3n2CCN2CCOCC2)cc1

>  <Energy>  (39) 
109.29791757255451

>  <Genealogy>  (39) 
COc1ccc(-n2c(=O)c3ccc[nH+]c3n2CCN2CCOCC2)cc1 (protonated)
COc1ccc(-n2c(=O)c3ccc[nH+]c3n2CCN2CCOCC2)cc1 (3D coordinates assigned)
COc1ccc(-n2c(=O)c3ccc[nH+]c3n2CCN2CCOCC2)cc1 (nonaromatic ring conformer: 109.29791757255451 kcal/mol)

>  <smiles>  (39) 
COc1ccc(-n2c(=O)c3cccnc3n2CCN2CCOCC2)cc1

>  <score_type>  (39) 
oracle

>  <origin>  (39) 
adg

>  <m_score__min__energy>  (39) 
-7.96

>  <m_primary>  (39) 
energy

$$$$
39:0
     RDKit          3D

 61 62  0  0  0  0  0  0  0  0999 V2000
   -3.3690   20.3737  -27.3865 H   0  0  0  0  0  0  0  0  0  0  0  0
   -2.7280   20.8320  -28.1540 C   0  0  0  0  0  0  0  0  0  0  0  0
   -1.4860   21.3120  -27.9420 N   0  0  0  0  0  0  0  0  0  0  0  0
   -1.0950   21.7690  -29.1510 C   0  0  0  0  0  0  0  0  0  0  0  0
   -0.1151   22.2304  -29.3432 H   0  0  0  0  0  0  0  0  0  0  0  0
   -2.0410   21.5960  -30.0960 N   0  0  0  0  0  0  0  0  0  0  0  0
   -1.9410   21.9260  -31.5160 C   0  0  0  0  0  0  0  0  0  0  0  0
   -1.0467   22.5457  -31.6779 H   0  0  0  0  0  0  0  0  0  0  0  0
   -2.8501   22.4706  -31.8110 H   0  0  0  0  0  0  0  0  0  0  0  0
   -1.8340   20.6580  -32.3770 C   0  0  0  0  0  0  0  0  0  0  0  0
   -1.9382   19.7814  -31.7207 H   0  0  0  0  0  0  0  0  0  0  0  0
   -0.8557   20.6887  -32.8789 H   0  0  0  0  0  0  0  0  0  0  0  0
   -2.9020   20.5730  -33.4740 C   0  0  0  0  0  0  0  0  0  0  0  0
   -3.5345   19.6918  -33.2910 H   0  0  0  0  0  0  0  0  0  0  0  0
   -2.3952   20.4925  -34.4470 H   0  0  0  0  0  0  0  0  0  0  0  0
   -3.7430   21.7680  -33.4890 N   0  0  0  0  0  0  0  0  0  0  0  0
   -3.2950   22.6780  -33.7340 H   0  0  0  0  0  0  0  0  0  0  0  0
   -4.9640   21.8160  -32.7410 C   0  0  0  0  0  0  0  0  0  0  0  0
   -5.9920   21.0860  -33.0760 N   0  0  0  0  0  0  0  0  0  0  0  0
   -5.9880   19.6740  -33.3360 C   0  0  0  0  0  0  0  0  0  0  0  0
   -5.4950   18.8490  -32.4550 N   0  0  0  0  0  0  0  0  0  0  0  0
   -6.2700   18.0680  -31.4960 C   0  0  0  0  0  0  0  0  0  0  0  0
   -6.2886   18.5964  -30.5314 H   0  0  0  0  0  0  0  0  0  0  0  0
   -5.7989   17.0806  -31.3817 H   0  0  0  0  0  0  0  0  0  0  0  0
   -7.7090   17.8730  -31.9910 C   0  0  0  0  0  0  0  0  0  0  0  0
   -8.0259   16.8511  -31.7352 H   0  0  0  0  0  0  0  0  0  0  0  0
   -7.6971   18.0580  -33.0753 H   0  0  0  0  0  0  0  0  0  0  0  0
   -8.7250   18.8580  -31.3870 C   0  0  0  0  0  0  0  0  0  0  0  0
   -8.2831   19.3111  -30.4873 H   0  0  0  0  0  0  0  0  0  0  0  0
   -9.6373   18.2901  -31.1520 H   0  0  0  0  0  0  0  0  0  0  0  0
   -9.1150   19.9750  -32.3550 C   0  0  0  0  0  0  0  0  0  0  0  0
   -9.4250   20.8629  -31.7845 H   0  0  0  0  0  0  0  0  0  0  0  0
   -8.2524   20.2290  -32.9885 H   0  0  0  0  0  0  0  0  0  0  0  0
   -9.9483   19.6369  -32.9885 H   0  0  0  0  0  0  0  0  0  0  0  0
   -6.4670   19.2130  -34.6030 N   0  0  0  0  0  0  0  0  0  0  0  0
   -6.7850   19.9060  -35.3170 H   0  0  0  0  0  0  0  0  0  0  0  0
   -6.5390   18.1990  -34.8430 H   0  0  0  0  0  0  0  0  0  0  0  0
   -5.0430   22.6900  -31.6050 N   0  0  0  0  0  0  0  0  0  0  0  0
   -4.1950   23.2430  -31.3490 H   0  0  0  0  0  0  0  0  0  0  0  0
   -6.2900   22.9850  -30.9000 C   0  0  0  0  0  0  0  0  0  0  0  0
   -7.1198   22.9821  -31.6221 H   0  0  0  0  0  0  0  0  0  0  0  0
   -6.4446   22.2161  -30.1287 H   0  0  0  0  0  0  0  0  0  0  0  0
   -6.2280   24.3580  -30.2130 C   0  0  0  0  0  0  0  0  0  0  0  0
   -7.2217   24.8256  -30.2750 H   0  0  0  0  0  0  0  0  0  0  0  0
   -5.9160   24.1898  -29.1717 H   0  0  0  0  0  0  0  0  0  0  0  0
   -5.2030   25.3040  -30.8500 C   0  0  0  0  0  0  0  0  0  0  0  0
   -5.3763   25.3507  -31.9353 H   0  0  0  0  0  0  0  0  0  0  0  0
   -5.3153   26.3057  -30.4096 H   0  0  0  0  0  0  0  0  0  0  0  0
   -3.8460   24.8190  -30.5970 N   0  0  0  0  0  0  0  0  0  0  0  0
   -3.2450   24.7700  -29.4420 C   0  0  0  0  0  0  0  0  0  0  0  0
   -1.9930   25.2950  -29.3390 N   0  0  0  0  0  0  0  0  0  0  0  0
   -1.2980   25.2830  -28.1700 C   0  0  0  0  0  0  0  0  0  0  0  0
   -0.2900   25.7212  -28.1262 H   0  0  0  0  0  0  0  0  0  0  0  0
   -1.8610   24.7160  -27.0260 C   0  0  0  0  0  0  0  0  0  0  0  0
   -1.2991   24.6955  -26.0805 H   0  0  0  0  0  0  0  0  0  0  0  0
   -3.1440   24.1760  -27.0960 C   0  0  0  0  0  0  0  0  0  0  0  0
   -3.6031   23.7321  -26.2003 H   0  0  0  0  0  0  0  0  0  0  0  0
   -3.8470   24.1980  -28.3020 C   0  0  0  0  0  0  0  0  0  0  0  0
   -4.8600   23.7736  -28.3625 H   0  0  0  0  0  0  0  0  0  0  0  0
   -3.0730   21.0020  -29.4760 C   0  0  0  0  0  0  0  0  0  0  0  0
   -4.0243   20.7043  -29.9411 H   0  0  0  0  0  0  0  0  0  0  0  0
  1  2  1  0
  2  3  1  0
  3  4  2  0
  4  5  1  0
  4  6  1  0
  6  7  1  0
  7  8  1  0
  7  9  1  0
  7 10  1  0
 10 11  1  0
 10 12  1  0
 10 13  1  0
 13 14  1  0
 13 15  1  0
 13 16  1  0
 16 17  1  0
 16 18  1  0
 18 19  2  0
 19 20  1  0
 20 21  2  0
 21 22  1  0
 22 23  1  0
 22 24  1  0
 22 25  1  0
 25 26  1  0
 25 27  1  0
 25 28  1  0
 28 29  1  0
 28 30  1  0
 28 31  1  0
 31 32  1  0
 31 33  1  0
 31 34  1  0
 20 35  1  0
 35 36  1  0
 35 37  1  0
 18 38  1  0
 38 39  1  0
 38 40  1  0
 40 41  1  0
 40 42  1  0
 40 43  1  0
 43 44  1  0
 43 45  1  0
 43 46  1  0
 46 47  1  0
 46 48  1  0
 46 49  1  0
 49 50  2  0
 50 51  1  0
 51 52  1  0
 52 53  1  0
 52 54  2  0
 54 55  1  0
 54 56  1  0
 56 57  1  0
 56 58  2  0
 58 59  1  0
  6 60  1  0
 60 61  1  0
 60  2  2  0
 58 50  1  0
M  CHG  1  51  -1
M  END
>  <UniqueID>  (40) 
37

>  <SMILES>  (40) 
CCCC/N=C(\N)N=C(NCCC/N=c1\cccc[n-]1)NCCCn1ccnc1

>  <Energy>  (40) 
74.62177564984324

>  <Genealogy>  (40) 
CCCCN=C(N)N=C(NCCCN=c1cccc[n-]1)NCCCn1ccnc1 (protonated)
CCCC/N=C(\N)N=C(NCCC/N=c1\cccc[n-]1)NCCCn1ccnc1 (cis-trans isomerization)
CCCC/N=C(\N)N=C(NCCC/N=c1\cccc[n-]1)NCCCn1ccnc1 (3D coordinates assigned)
CCCC/N=C(\N)N=C(NCCC/N=c1\cccc[n-]1)NCCCn1ccnc1 (optimized conformer: 74.62177564984324 kcal/mol)

>  <smiles>  (40) 
CCCCN=C(N)N=C(NCCCN=c1cccc[nH]1)NCCCn1ccnc1

>  <score_type>  (40) 
oracle

>  <origin>  (40) 
adg

>  <m_score__min__energy>  (40) 
-9.3800000000000008

>  <m_primary>  (40) 
energy

$$$$
40:0
     RDKit          3D

 39 41  0  0  0  0  0  0  0  0999 V2000
   -2.0550   24.1770  -28.8130 C   0  0  0  0  0  0  0  0  0  0  0  0
   -2.8330   24.9320  -29.7340 O   0  0  0  0  0  0  0  0  0  0  0  0
   -4.1260   24.5580  -30.1100 C   0  0  0  0  0  0  0  0  0  0  0  0
   -4.6180   24.9490  -31.2050 O   0  0  0  0  0  0  0  0  0  0  0  0
   -4.9510   23.7280  -29.1810 C   0  0  0  0  0  0  0  0  0  0  0  0
   -5.8990   22.8660  -29.9680 C   0  0  0  0  0  0  0  0  0  0  0  0
   -7.2970   22.9560  -29.7430 C   0  0  0  0  0  0  0  0  0  0  0  0
   -8.1930   22.1820  -30.5000 C   0  0  0  0  0  0  0  0  0  0  0  0
   -7.6660   21.3330  -31.4710 C   0  0  0  0  0  0  0  0  0  0  0  0
   -6.3240   21.2510  -31.7010 C   0  0  0  0  0  0  0  0  0  0  0  0
   -5.4060   22.0070  -30.9740 C   0  0  0  0  0  0  0  0  0  0  0  0
   -6.1330   20.3060  -32.7910 C   0  0  0  0  0  0  0  0  0  0  0  0
   -5.0130   20.0350  -33.3020 O   0  0  0  0  0  0  0  0  0  0  0  0
   -7.3750   19.7390  -33.2560 N   0  0  1  0  0  0  0  0  0  0  0  0
   -7.3980   18.2830  -33.0050 C   0  0  0  0  0  0  0  0  0  0  0  0
   -6.1530   17.6100  -33.5330 C   0  0  0  0  0  0  0  0  0  0  0  0
   -5.7520   17.7960  -34.8670 C   0  0  0  0  0  0  0  0  0  0  0  0
   -4.5900   17.1830  -35.3440 C   0  0  0  0  0  0  0  0  0  0  0  0
   -3.8200   16.3810  -34.4950 C   0  0  0  0  0  0  0  0  0  0  0  0
   -4.2130   16.1930  -33.1670 C   0  0  0  0  0  0  0  0  0  0  0  0
   -5.3740   16.8050  -32.6860 C   0  0  0  0  0  0  0  0  0  0  0  0
   -8.3190   20.4420  -32.4170 C   0  0  0  0  0  0  0  0  0  0  0  0
   -9.5700   20.3400  -32.5420 O   0  0  0  0  0  0  0  0  0  0  0  0
   -2.3363   24.4500  -27.7852 H   0  0  0  0  0  0  0  0  0  0  0  0
   -2.2390   23.1040  -28.9708 H   0  0  0  0  0  0  0  0  0  0  0  0
   -0.9880   24.3931  -28.9708 H   0  0  0  0  0  0  0  0  0  0  0  0
   -4.2894   23.0872  -28.5797 H   0  0  0  0  0  0  0  0  0  0  0  0
   -5.5288   24.3909  -28.5201 H   0  0  0  0  0  0  0  0  0  0  0  0
   -7.6825   23.6370  -28.9699 H   0  0  0  0  0  0  0  0  0  0  0  0
   -9.2781   22.2446  -30.3310 H   0  0  0  0  0  0  0  0  0  0  0  0
   -4.3275   21.9363  -31.1784 H   0  0  0  0  0  0  0  0  0  0  0  0
   -7.5230   19.9780  -34.2640 H   0  0  0  0  0  0  0  0  0  0  0  0
   -7.4663   18.1083  -31.9211 H   0  0  0  0  0  0  0  0  0  0  0  0
   -8.2679   17.8568  -33.5262 H   0  0  0  0  0  0  0  0  0  0  0  0
   -6.3545   18.4260  -35.5379 H   0  0  0  0  0  0  0  0  0  0  0  0
   -4.2804   17.3315  -36.3890 H   0  0  0  0  0  0  0  0  0  0  0  0
   -2.9061   15.8988  -34.8722 H   0  0  0  0  0  0  0  0  0  0  0  0
   -3.6077   15.5624  -32.4992 H   0  0  0  0  0  0  0  0  0  0  0  0
   -5.6788   16.6555  -31.6397 H   0  0  0  0  0  0  0  0  0  0  0  0
  1  2  1  0
  2  3  1  0
  3  4  2  0
  3  5  1  0
  5  6  1  0
  6  7  2  0
  7  8  1  0
  8  9  2  0
  9 10  1  0
 10 11  2  0
 10 12  1  0
 12 13  2  0
 12 14  1  0
 14 15  1  0
 15 16  1  0
 16 17  2  0
 17 18  1  0
 18 19  2  0
 19 20  1  0
 20 21  2  0
 14 22  1  0
 22 23  2  0
 11  6  1  0
 21 16  1  0
 22  9  1  0
  1 24  1  0
  1 25  1  0
  1 26  1  0
  5 27  1  0
  5 28  1  0
  7 29  1  0
  8 30  1  0
 11 31  1  0
 14 32  1  6
 15 33  1  0
 15 34  1  0
 17 35  1  0
 18 36  1  0
 19 37  1  0
 20 38  1  0
 21 39  1  0
M  CHG  1  14   1
M  END
>  <UniqueID>  (41) 
38

>  <SMILES>  (41) 
COC(=O)Cc1ccc2c(c1)C(=O)[N@@H+](Cc1ccccc1)C2=O

>  <Energy>  (41) 
62.46059497794679

>  <Genealogy>  (41) 
COC(=O)Cc1ccc2c(c1)C(=O)[NH+](Cc1ccccc1)C2=O (protonated)
COC(=O)Cc1ccc2c(c1)C(=O)[N@@H+](Cc1ccccc1)C2=O (chirality)
COC(=O)Cc1ccc2c(c1)C(=O)[N@@H+](Cc1ccccc1)C2=O (3D coordinates assigned)
COC(=O)Cc1ccc2c(c1)C(=O)[N@@H+](Cc1ccccc1)C2=O (nonaromatic ring conformer: 62.46059497794679 kcal/mol)

>  <smiles>  (41) 
COC(=O)Cc1ccc2c(c1)C(=O)N(Cc1ccccc1)C2=O

>  <score_type>  (41) 
oracle

>  <origin>  (41) 
adg

>  <m_score__min__energy>  (41) 
-8.7699999999999996

>  <m_primary>  (41) 
energy

$$$$
41:0
     RDKit          3D

 51 53  0  0  0  0  0  0  0  0999 V2000
   -5.5540   25.6410  -30.4480 C   0  0  0  0  0  0  0  0  0  0  0  0
   -4.3110   25.0700  -30.8440 O   0  0  0  0  0  0  0  0  0  0  0  0
   -3.8980   23.7690  -30.5200 C   0  0  0  0  0  0  0  0  0  0  0  0
   -2.8900   23.5150  -29.5710 C   0  0  0  0  0  0  0  0  0  0  0  0
   -2.5060   22.2010  -29.2920 C   0  0  0  0  0  0  0  0  0  0  0  0
   -3.1220   21.1340  -29.9470 C   0  0  0  0  0  0  0  0  0  0  0  0
   -4.1410   21.3670  -30.8870 C   0  0  0  0  0  0  0  0  0  0  0  0
   -4.7850   20.2230  -31.5780 C   0  0  0  0  0  0  0  0  0  0  0  0
   -6.1220   20.0290  -31.4380 N   0  0  0  0  0  0  0  0  0  0  0  0
   -6.7650   19.0080  -32.0540 C   0  0  0  0  0  0  0  0  0  0  0  0
   -8.5410   18.8420  -31.8170 S   0  0  0  0  0  0  0  0  0  0  0  0
   -8.9700   20.4780  -32.5240 C   0  0  0  0  0  0  0  0  0  0  0  0
   -9.0590   21.5710  -31.4510 C   0  0  0  0  0  0  0  0  0  0  0  0
   -7.7580   22.2370  -31.2240 N   0  0  0  0  0  0  0  0  0  0  0  0
   -7.6120   22.6700  -29.8230 C   0  0  0  0  0  0  0  0  0  0  0  0
   -7.6320   23.4060  -32.1090 C   0  0  0  0  0  0  0  0  0  0  0  0
   -6.0370   18.1010  -32.8400 C   0  0  0  0  0  0  0  0  0  0  0  0
   -6.6850   16.9360  -33.4010 C   0  0  0  0  0  0  0  0  0  0  0  0
   -7.2040   16.0030  -33.8490 N   0  0  0  0  0  0  0  0  0  0  0  0
   -4.6550   18.3270  -33.0100 C   0  0  0  0  0  0  0  0  0  0  0  0
   -3.8200   17.4470  -33.8650 C   0  0  0  0  0  0  0  0  0  0  0  0
   -2.5790   16.9850  -33.3970 C   0  0  0  0  0  0  0  0  0  0  0  0
   -1.7790   16.1710  -34.2050 C   0  0  0  0  0  0  0  0  0  0  0  0
   -2.2060   15.8210  -35.4880 C   0  0  0  0  0  0  0  0  0  0  0  0
   -3.4330   16.2890  -35.9680 C   0  0  0  0  0  0  0  0  0  0  0  0
   -4.2360   17.1030  -35.1630 C   0  0  0  0  0  0  0  0  0  0  0  0
   -4.0650   19.3790  -32.3730 N   0  0  0  0  0  0  0  0  0  0  0  0
   -4.5140   22.6930  -31.1720 C   0  0  0  0  0  0  0  0  0  0  0  0
   -5.6120   25.6676  -29.3499 H   0  0  0  0  0  0  0  0  0  0  0  0
   -5.6302   26.6644  -30.8441 H   0  0  0  0  0  0  0  0  0  0  0  0
   -6.3800   25.0321  -30.8441 H   0  0  0  0  0  0  0  0  0  0  0  0
   -2.4040   24.3521  -29.0484 H   0  0  0  0  0  0  0  0  0  0  0  0
   -1.7148   22.0068  -28.5529 H   0  0  0  0  0  0  0  0  0  0  0  0
   -2.8080   20.1031  -29.7263 H   0  0  0  0  0  0  0  0  0  0  0  0
   -8.1977   20.7613  -33.2542 H   0  0  0  0  0  0  0  0  0  0  0  0
   -9.9587   20.3908  -32.9982 H   0  0  0  0  0  0  0  0  0  0  0  0
   -9.7918   22.3253  -31.7734 H   0  0  0  0  0  0  0  0  0  0  0  0
   -9.3642   21.0947  -30.5076 H   0  0  0  0  0  0  0  0  0  0  0  0
   -7.8907   21.8434  -29.1528 H   0  0  0  0  0  0  0  0  0  0  0  0
   -6.5671   22.9579  -29.6352 H   0  0  0  0  0  0  0  0  0  0  0  0
   -8.2692   23.5318  -29.6352 H   0  0  0  0  0  0  0  0  0  0  0  0
   -7.5338   24.3174  -31.5009 H   0  0  0  0  0  0  0  0  0  0  0  0
   -6.7411   23.2910  -32.7438 H   0  0  0  0  0  0  0  0  0  0  0  0
   -8.5270   23.4835  -32.7438 H   0  0  0  0  0  0  0  0  0  0  0  0
   -2.2348   17.2647  -32.3904 H   0  0  0  0  0  0  0  0  0  0  0  0
   -0.8117   15.8057  -33.8295 H   0  0  0  0  0  0  0  0  0  0  0  0
   -1.5771   15.1773  -36.1206 H   0  0  0  0  0  0  0  0  0  0  0  0
   -3.7670   16.0166  -36.9800 H   0  0  0  0  0  0  0  0  0  0  0  0
   -5.1971   17.4757  -35.5470 H   0  0  0  0  0  0  0  0  0  0  0  0
   -3.0480   19.5580  -32.5340 H   0  0  0  0  0  0  0  0  0  0  0  0
   -5.2998   22.8876  -31.9167 H   0  0  0  0  0  0  0  0  0  0  0  0
  1  2  1  0
  2  3  1  0
  3  4  2  0
  4  5  1  0
  5  6  2  0
  6  7  1  0
  7  8  1  0
  8  9  2  0
  9 10  1  0
 10 11  1  0
 11 12  1  0
 12 13  1  0
 13 14  1  0
 14 15  1  0
 14 16  1  0
 10 17  2  0
 17 18  1  0
 18 19  3  0
 17 20  1  0
 20 21  1  0
 21 22  2  0
 22 23  1  0
 23 24  2  0
 24 25  1  0
 25 26  2  0
 20 27  2  0
  7 28  2  0
 28  3  1  0
 27  8  1  0
 26 21  1  0
  1 29  1  0
  1 30  1  0
  1 31  1  0
  4 32  1  0
  5 33  1  0
  6 34  1  0
 12 35  1  0
 12 36  1  0
 13 37  1  0
 13 38  1  0
 15 39  1  0
 15 40  1  0
 15 41  1  0
 16 42  1  0
 16 43  1  0
 16 44  1  0
 22 45  1  0
 23 46  1  0
 24 47  1  0
 25 48  1  0
 26 49  1  0
 27 50  1  0
 28 51  1  0
M  CHG  1  27   1
M  END
>  <UniqueID>  (42) 
39

>  <SMILES>  (42) 
COc1cccc(-c2nc(SCCN(C)C)c(C#N)c(-c3ccccc3)[nH+]2)c1

>  <Energy>  (42) 
57.83217665804536

>  <Genealogy>  (42) 
COc1cccc(-c2nc(SCCN(C)C)c(C#N)c(-c3ccccc3)[nH+]2)c1 (protonated)
COc1cccc(-c2nc(SCCN(C)C)c(C#N)c(-c3ccccc3)[nH+]2)c1 (3D coordinates assigned)
COc1cccc(-c2nc(SCCN(C)C)c(C#N)c(-c3ccccc3)[nH+]2)c1 (optimized conformer: 57.83217665804536 kcal/mol)

>  <smiles>  (42) 
COc1cccc(-c2nc(SCCN(C)C)c(C#N)c(-c3ccccc3)n2)c1

>  <score_type>  (42) 
oracle

>  <origin>  (42) 
adg

>  <m_score__min__energy>  (42) 
-8.0700000000000003

>  <m_primary>  (42) 
energy

$$$$
42:0
     RDKit          3D

 67 70  0  0  0  0  0  0  0  0999 V2000
   -9.5350   21.5850  -31.3210 C   0  0  0  0  0  0  0  0  0  0  0  0
   -8.8380   20.3800  -31.0150 O   0  0  0  0  0  0  0  0  0  0  0  0
   -8.0260   19.6840  -31.9210 C   0  0  0  0  0  0  0  0  0  0  0  0
   -7.9610   18.2880  -31.8170 C   0  0  0  0  0  0  0  0  0  0  0  0
   -7.1580   17.5490  -32.6890 C   0  0  0  0  0  0  0  0  0  0  0  0
   -6.3960   18.1980  -33.6730 C   0  0  0  0  0  0  0  0  0  0  0  0
   -5.4780   17.4000  -34.5740 C   0  0  0  0  0  0  0  0  0  0  0  0
   -4.3390   16.8090  -33.8280 N   0  0  0  0  0  0  0  0  0  0  0  0
   -3.4640   17.8650  -33.2540 C   0  0  0  0  0  0  0  0  0  0  0  0
   -2.0340   17.3530  -33.0190 C   0  0  0  0  0  0  0  0  0  0  0  0
   -1.3760   16.9350  -34.2860 N   0  0  0  0  0  0  0  0  0  0  0  0
   -0.4860   18.0000  -34.8000 C   0  0  0  0  0  0  0  0  0  0  0  0
   -0.2940   19.1340  -33.7820 C   0  0  0  0  0  0  0  0  0  0  0  0
   -1.1860   20.2180  -34.0410 O   0  0  0  0  0  0  0  0  0  0  0  0
   -2.0010   20.8540  -33.0890 C   0  0  0  0  0  0  0  0  0  0  0  0
   -1.5400   21.2240  -31.8120 C   0  0  0  0  0  0  0  0  0  0  0  0
   -2.4030   21.8420  -30.9010 C   0  0  0  0  0  0  0  0  0  0  0  0
   -3.7420   22.0970  -31.2410 C   0  0  0  0  0  0  0  0  0  0  0  0
   -4.6730   22.7530  -30.2360 C   0  0  0  0  0  0  0  0  0  0  0  0
   -4.3600   24.2600  -30.0870 C   0  0  0  0  0  0  0  0  0  0  0  0
   -5.4960   24.9780  -29.3540 C   0  0  0  0  0  0  0  0  0  0  0  0
   -6.8270   24.8980  -30.1320 C   0  0  0  0  0  0  0  0  0  0  0  0
   -6.9100   23.6970  -31.0950 C   0  0  0  0  0  0  0  0  0  0  0  0
   -6.1690   22.4660  -30.5540 C   0  0  0  0  0  0  0  0  0  0  0  0
   -4.1990   21.7190  -32.5160 C   0  0  0  0  0  0  0  0  0  0  0  0
   -3.3330   21.1120  -33.4300 C   0  0  0  0  0  0  0  0  0  0  0  0
   -2.3440   16.4840  -35.3190 C   0  0  0  0  0  0  0  0  0  0  0  0
   -3.5920   15.8470  -34.6860 C   0  0  0  0  0  0  0  0  0  0  0  0
   -6.4680   19.5940  -33.7860 C   0  0  0  0  0  0  0  0  0  0  0  0
   -7.2800   20.3330  -32.9210 C   0  0  0  0  0  0  0  0  0  0  0  0
   -9.8258   22.0877  -30.3868 H   0  0  0  0  0  0  0  0  0  0  0  0
   -8.8811   22.2483  -31.9062 H   0  0  0  0  0  0  0  0  0  0  0  0
  -10.4360   21.3489  -31.9062 H   0  0  0  0  0  0  0  0  0  0  0  0
   -8.5466   17.7703  -31.0430 H   0  0  0  0  0  0  0  0  0  0  0  0
   -7.1227   16.4529  -32.6041 H   0  0  0  0  0  0  0  0  0  0  0  0
   -6.0560   16.5885  -35.0401 H   0  0  0  0  0  0  0  0  0  0  0  0
   -5.0682   18.0842  -35.3316 H   0  0  0  0  0  0  0  0  0  0  0  0
   -4.7380   16.2570  -33.0290 H   0  0  0  0  0  0  0  0  0  0  0  0
   -3.4281   18.7156  -33.9505 H   0  0  0  0  0  0  0  0  0  0  0  0
   -3.8836   18.1677  -32.2833 H   0  0  0  0  0  0  0  0  0  0  0  0
   -1.4403   18.1566  -32.5589 H   0  0  0  0  0  0  0  0  0  0  0  0
   -2.0920   16.4739  -32.3604 H   0  0  0  0  0  0  0  0  0  0  0  0
    0.4957   17.5609  -35.0312 H   0  0  0  0  0  0  0  0  0  0  0  0
   -0.9537   18.4276  -35.6991 H   0  0  0  0  0  0  0  0  0  0  0  0
   -0.4864   18.7449  -32.7712 H   0  0  0  0  0  0  0  0  0  0  0  0
    0.7381   19.5053  -33.8653 H   0  0  0  0  0  0  0  0  0  0  0  0
   -0.4957   21.0262  -31.5287 H   0  0  0  0  0  0  0  0  0  0  0  0
   -2.0292   22.1314  -29.9078 H   0  0  0  0  0  0  0  0  0  0  0  0
   -4.4865   22.2955  -29.2532 H   0  0  0  0  0  0  0  0  0  0  0  0
   -3.4281   24.3805  -29.5152 H   0  0  0  0  0  0  0  0  0  0  0  0
   -4.2519   24.6998  -31.0894 H   0  0  0  0  0  0  0  0  0  0  0  0
   -5.6327   24.5116  -28.3672 H   0  0  0  0  0  0  0  0  0  0  0  0
   -5.2216   26.0389  -29.2578 H   0  0  0  0  0  0  0  0  0  0  0  0
   -7.6495   24.8186  -29.4060 H   0  0  0  0  0  0  0  0  0  0  0  0
   -6.8960   25.8081  -30.7460 H   0  0  0  0  0  0  0  0  0  0  0  0
   -7.9680   23.4358  -31.2448 H   0  0  0  0  0  0  0  0  0  0  0  0
   -6.4314   23.9898  -32.0412 H   0  0  0  0  0  0  0  0  0  0  0  0
   -6.6669   22.1338  -29.6311 H   0  0  0  0  0  0  0  0  0  0  0  0
   -6.1985   21.6923  -31.3353 H   0  0  0  0  0  0  0  0  0  0  0  0
   -5.2467   21.9025  -32.7964 H   0  0  0  0  0  0  0  0  0  0  0  0
   -3.7028   20.8342  -34.4280 H   0  0  0  0  0  0  0  0  0  0  0  0
   -2.6525   17.3509  -35.9217 H   0  0  0  0  0  0  0  0  0  0  0  0
   -1.8507   15.7257  -35.9448 H   0  0  0  0  0  0  0  0  0  0  0  0
   -4.2575   15.4972  -35.4889 H   0  0  0  0  0  0  0  0  0  0  0  0
   -3.2607   15.0129  -34.0500 H   0  0  0  0  0  0  0  0  0  0  0  0
   -5.8818   20.1106  -34.5602 H   0  0  0  0  0  0  0  0  0  0  0  0
   -7.3358   21.4269  -33.0229 H   0  0  0  0  0  0  0  0  0  0  0  0
  1  2  1  0
  2  3  1  0
  3  4  2  0
  4  5  1  0
  5  6  2  0
  6  7  1  0
  7  8  1  0
  8  9  1  0
  9 10  1  0
 10 11  1  0
 11 12  1  0
 12 13  1  0
 13 14  1  0
 14 15  1  0
 15 16  2  0
 16 17  1  0
 17 18  2  0
 18 19  1  0
 19 20  1  0
 20 21  1  0
 21 22  1  0
 22 23  1  0
 23 24  1  0
 18 25  1  0
 25 26  2  0
 11 27  1  0
 27 28  1  0
  6 29  1  0
 29 30  2  0
 30  3  1  0
 28  8  1  0
 26 15  1  0
 24 19  1  0
  1 31  1  0
  1 32  1  0
  1 33  1  0
  4 34  1  0
  5 35  1  0
  7 36  1  0
  7 37  1  0
  8 38  1  0
  9 39  1  0
  9 40  1  0
 10 41  1  0
 10 42  1  0
 12 43  1  0
 12 44  1  0
 13 45  1  0
 13 46  1  0
 16 47  1  0
 17 48  1  0
 19 49  1  0
 20 50  1  0
 20 51  1  0
 21 52  1  0
 21 53  1  0
 22 54  1  0
 22 55  1  0
 23 56  1  0
 23 57  1  0
 24 58  1  0
 24 59  1  0
 25 60  1  0
 26 61  1  0
 27 62  1  0
 27 63  1  0
 28 64  1  0
 28 65  1  0
 29 66  1  0
 30 67  1  0
M  CHG  1   8   1
M  END
>  <UniqueID>  (43) 
40

>  <SMILES>  (43) 
COc1ccc(C[NH+]2CCN(CCOc3ccc(C4CCCCC4)cc3)CC2)cc1

>  <Energy>  (43) 
84.96876042675646

>  <Genealogy>  (43) 
COc1ccc(C[NH+]2CCN(CCOc3ccc(C4CCCCC4)cc3)CC2)cc1 (protonated)
COc1ccc(C[NH+]2CCN(CCOc3ccc(C4CCCCC4)cc3)CC2)cc1 (3D coordinates assigned)
COc1ccc(C[NH+]2CCN(CCOc3ccc(C4CCCCC4)cc3)CC2)cc1 (nonaromatic ring conformer: 84.96876042675646 kcal/mol)

>  <smiles>  (43) 
COc1ccc(CN2CCN(CCOc3ccc(C4CCCCC4)cc3)CC2)cc1

>  <score_type>  (43) 
oracle

>  <origin>  (43) 
adg

>  <m_score__min__energy>  (43) 
-9.5399999999999991

>  <m_primary>  (43) 
energy

$$$$
43:0
     RDKit          3D

 36 37  0  0  0  0  0  0  0  0999 V2000
   -5.6940   15.9480  -32.7210 C   0  0  0  0  0  0  0  0  0  0  0  0
   -6.8740   16.5140  -33.5140 C   0  0  0  0  0  0  0  0  0  0  0  0
   -7.1820   17.9180  -33.1300 N   0  0  0  0  0  0  0  0  0  0  0  0
   -7.2780   18.0700  -31.6580 C   0  0  0  0  0  0  0  0  0  0  0  0
   -8.6710   18.5260  -31.2150 C   0  0  0  0  0  0  0  0  0  0  0  0
   -5.9410   18.9950  -33.7370 S   0  0  0  0  0  0  0  0  0  0  0  0
   -6.1630   19.2920  -35.1930 O   0  0  0  0  0  0  0  0  0  0  0  0
   -4.5890   18.3520  -33.5820 O   0  0  0  0  0  0  0  0  0  0  0  0
   -5.9880   20.5140  -32.8470 C   0  0  0  0  0  0  0  0  0  0  0  0
   -7.2350   21.0180  -32.3960 C   0  0  0  0  0  0  0  0  0  0  0  0
   -7.3020   22.2220  -31.6690 C   0  0  0  0  0  0  0  0  0  0  0  0
   -6.1040   22.8860  -31.4110 C   0  0  0  0  0  0  0  0  0  0  0  0
   -4.9010   22.4050  -31.8480 C   0  0  0  0  0  0  0  0  0  0  0  0
   -4.7970   21.2190  -32.5680 C   0  0  0  0  0  0  0  0  0  0  0  0
   -3.9470   23.2290  -31.4860 O   0  0  0  0  0  0  0  0  0  0  0  0
   -4.5520   24.2080  -30.8330 C   0  0  0  0  0  0  0  0  0  0  0  0
   -3.9400   25.1980  -30.3500 O   0  0  0  0  0  0  0  0  0  0  0  0
   -5.8950   24.0370  -30.7460 N   0  0  0  0  0  0  0  0  0  0  0  0
   -6.8860   24.9400  -30.1710 C   0  0  0  0  0  0  0  0  0  0  0  0
   -5.8958   16.0448  -31.6440 H   0  0  0  0  0  0  0  0  0  0  0  0
   -5.5574   14.8864  -32.9745 H   0  0  0  0  0  0  0  0  0  0  0  0
   -4.7805   16.5060  -32.9745 H   0  0  0  0  0  0  0  0  0  0  0  0
   -6.6281   16.4848  -34.5858 H   0  0  0  0  0  0  0  0  0  0  0  0
   -7.7587   15.8993  -33.2916 H   0  0  0  0  0  0  0  0  0  0  0  0
   -8.0860   18.2250  -33.5590 H   0  0  0  0  0  0  0  0  0  0  0  0
   -7.0552   17.1016  -31.1863 H   0  0  0  0  0  0  0  0  0  0  0  0
   -6.5557   18.8402  -31.3495 H   0  0  0  0  0  0  0  0  0  0  0  0
   -8.7194   18.5418  -30.1162 H   0  0  0  0  0  0  0  0  0  0  0  0
   -8.8677   19.5354  -31.6053 H   0  0  0  0  0  0  0  0  0  0  0  0
   -9.4266   17.8283  -31.6053 H   0  0  0  0  0  0  0  0  0  0  0  0
   -8.1587   20.4628  -32.6164 H   0  0  0  0  0  0  0  0  0  0  0  0
   -8.2640   22.6236  -31.3178 H   0  0  0  0  0  0  0  0  0  0  0  0
   -3.8206   20.8436  -32.9081 H   0  0  0  0  0  0  0  0  0  0  0  0
   -6.8329   24.8916  -29.0733 H   0  0  0  0  0  0  0  0  0  0  0  0
   -6.6812   25.9685  -30.5030 H   0  0  0  0  0  0  0  0  0  0  0  0
   -7.8911   24.6408  -30.5030 H   0  0  0  0  0  0  0  0  0  0  0  0
  1  2  1  0
  2  3  1  0
  3  4  1  0
  4  5  1  0
  3  6  1  0
  6  7  2  0
  6  8  2  0
  6  9  1  0
  9 10  2  0
 10 11  1  0
 11 12  2  0
 12 13  1  0
 13 14  2  0
 13 15  1  0
 15 16  1  0
 16 17  2  0
 16 18  1  0
 18 19  1  0
 14  9  1  0
 18 12  1  0
  1 20  1  0
  1 21  1  0
  1 22  1  0
  2 23  1  0
  2 24  1  0
  3 25  1  0
  4 26  1  0
  4 27  1  0
  5 28  1  0
  5 29  1  0
  5 30  1  0
 10 31  1  0
 11 32  1  0
 14 33  1  0
 19 34  1  0
 19 35  1  0
 19 36  1  0
M  CHG  1   3   1
M  END
>  <UniqueID>  (44) 
41

>  <SMILES>  (44) 
CC[NH+](CC)S(=O)(=O)c1ccc2c(c1)oc(=O)n2C

>  <Energy>  (44) 
75.3244080825675

>  <Genealogy>  (44) 
CC[NH+](CC)S(=O)(=O)c1ccc2c(c1)oc(=O)n2C (protonated)
CC[NH+](CC)S(=O)(=O)c1ccc2c(c1)oc(=O)n2C (3D coordinates assigned)
CC[NH+](CC)S(=O)(=O)c1ccc2c(c1)oc(=O)n2C (optimized conformer: 75.3244080825675 kcal/mol)

>  <smiles>  (44) 
CCN(CC)S(=O)(=O)c1ccc2c(c1)oc(=O)n2C

>  <score_type>  (44) 
oracle

>  <origin>  (44) 
adg

>  <m_score__min__energy>  (44) 
-6.8399999999999999

>  <m_primary>  (44) 
energy

$$$$
44:0
     RDKit          3D

 55 56  0  0  0  0  0  0  0  0999 V2000
    0.1530   23.9840  -27.9010 C   0  0  0  0  0  0  0  0  0  0  0  0
   -0.9100   24.9350  -28.4700 C   0  0  0  0  0  0  0  0  0  0  0  0
   -2.1280   25.0870  -27.6240 N   0  0  0  0  0  0  0  0  0  0  0  0
   -1.9520   26.0370  -26.4940 C   0  0  0  0  0  0  0  0  0  0  0  0
   -1.4230   25.3690  -25.2180 C   0  0  0  0  0  0  0  0  0  0  0  0
   -2.6050   23.7610  -27.1510 C   0  0  0  0  0  0  0  0  0  0  0  0
   -4.0420   23.4430  -27.6030 C   0  0  0  0  0  0  0  0  0  0  0  0
   -4.5580   24.5300  -28.4340 N   0  0  0  0  0  0  0  0  0  0  0  0
   -4.4470   24.5910  -29.8650 C   0  0  0  0  0  0  0  0  0  0  0  0
   -3.5320   25.2910  -30.3810 O   0  0  0  0  0  0  0  0  0  0  0  0
   -5.3590   23.8360  -30.7460 C   0  0  0  0  0  0  0  0  0  0  0  0
   -6.7280   24.1590  -30.7720 C   0  0  0  0  0  0  0  0  0  0  0  0
   -7.2220   25.1590  -29.9950 F   0  0  0  0  0  0  0  0  0  0  0  0
   -7.6100   23.4230  -31.5690 C   0  0  0  0  0  0  0  0  0  0  0  0
   -7.1380   22.3620  -32.3390 C   0  0  0  0  0  0  0  0  0  0  0  0
   -5.7790   22.0340  -32.3220 C   0  0  0  0  0  0  0  0  0  0  0  0
   -4.8750   22.7670  -31.5290 C   0  0  0  0  0  0  0  0  0  0  0  0
   -3.5010   22.4670  -31.4930 O   0  0  0  0  0  0  0  0  0  0  0  0
   -2.9270   21.2520  -31.0060 C   0  0  0  0  0  0  0  0  0  0  0  0
   -1.8670   21.5570  -29.9870 C   0  0  0  0  0  0  0  0  0  0  0  0
   -1.0970   22.5380  -30.1780 O   0  0  0  0  0  0  0  0  0  0  0  0
   -1.6460   20.6920  -28.8620 N   0  0  0  0  0  0  0  0  0  0  0  0
   -0.2990   20.1240  -28.6890 C   0  0  0  0  0  0  0  0  0  0  0  0
   -0.2440   18.9820  -27.6440 C   0  0  0  0  0  0  0  0  0  0  0  0
   -1.5260   18.5020  -27.2860 O   0  0  0  0  0  0  0  0  0  0  0  0
   -2.2820   19.5710  -26.7580 C   0  0  0  0  0  0  0  0  0  0  0  0
   -2.7370   20.4660  -27.9020 C   0  0  0  0  0  0  0  0  0  0  0  0
    0.1204   24.0131  -26.8019 H   0  0  0  0  0  0  0  0  0  0  0  0
   -0.0488   22.9594  -28.2468 H   0  0  0  0  0  0  0  0  0  0  0  0
    1.1489   24.2982  -28.2468 H   0  0  0  0  0  0  0  0  0  0  0  0
   -0.4516   25.9275  -28.5918 H   0  0  0  0  0  0  0  0  0  0  0  0
   -1.2452   24.4930  -29.4199 H   0  0  0  0  0  0  0  0  0  0  0  0
   -2.8700   25.4770  -28.2530 H   0  0  0  0  0  0  0  0  0  0  0  0
   -1.2398   26.8170  -26.8010 H   0  0  0  0  0  0  0  0  0  0  0  0
   -2.9434   26.4513  -26.2585 H   0  0  0  0  0  0  0  0  0  0  0  0
   -1.8320   25.8855  -24.3371 H   0  0  0  0  0  0  0  0  0  0  0  0
   -1.7330   24.3137  -25.2010 H   0  0  0  0  0  0  0  0  0  0  0  0
   -0.3248   25.4289  -25.2010 H   0  0  0  0  0  0  0  0  0  0  0  0
   -1.9332   22.9851  -27.5467 H   0  0  0  0  0  0  0  0  0  0  0  0
   -2.6031   23.7835  -26.0512 H   0  0  0  0  0  0  0  0  0  0  0  0
   -4.0427   22.5088  -28.1838 H   0  0  0  0  0  0  0  0  0  0  0  0
   -4.6828   23.3318  -26.7159 H   0  0  0  0  0  0  0  0  0  0  0  0
   -8.6789   23.6821  -31.5882 H   0  0  0  0  0  0  0  0  0  0  0  0
   -7.8354   21.7817  -32.9610 H   0  0  0  0  0  0  0  0  0  0  0  0
   -5.4127   21.1961  -32.9333 H   0  0  0  0  0  0  0  0  0  0  0  0
   -3.7130   20.6383  -30.5416 H   0  0  0  0  0  0  0  0  0  0  0  0
   -2.4738   20.7048  -31.8457 H   0  0  0  0  0  0  0  0  0  0  0  0
    0.0394   19.7273  -29.6575 H   0  0  0  0  0  0  0  0  0  0  0  0
    0.3503   20.9325  -28.3219 H   0  0  0  0  0  0  0  0  0  0  0  0
    0.3380   18.1488  -28.0647 H   0  0  0  0  0  0  0  0  0  0  0  0
    0.2225   19.3885  -26.7345 H   0  0  0  0  0  0  0  0  0  0  0  0
   -3.1604   19.1752  -26.2272 H   0  0  0  0  0  0  0  0  0  0  0  0
   -1.6667   20.1503  -26.0539 H   0  0  0  0  0  0  0  0  0  0  0  0
   -3.5791   19.9853  -28.4214 H   0  0  0  0  0  0  0  0  0  0  0  0
   -3.0437   21.4370  -27.4859 H   0  0  0  0  0  0  0  0  0  0  0  0
  1  2  1  0
  2  3  1  0
  3  4  1  0
  4  5  1  0
  3  6  1  0
  6  7  1  0
  7  8  1  0
  8  9  1  0
  9 10  2  0
  9 11  1  0
 11 12  2  0
 12 13  1  0
 12 14  1  0
 14 15  2  0
 15 16  1  0
 16 17  2  0
 17 18  1  0
 18 19  1  0
 19 20  1  0
 20 21  2  0
 20 22  1  0
 22 23  1  0
 23 24  1  0
 24 25  1  0
 25 26  1  0
 26 27  1  0
 17 11  1  0
 27 22  1  0
  1 28  1  0
  1 29  1  0
  1 30  1  0
  2 31  1  0
  2 32  1  0
  3 33  1  0
  4 34  1  0
  4 35  1  0
  5 36  1  0
  5 37  1  0
  5 38  1  0
  6 39  1  0
  6 40  1  0
  7 41  1  0
  7 42  1  0
 14 43  1  0
 15 44  1  0
 16 45  1  0
 19 46  1  0
 19 47  1  0
 23 48  1  0
 23 49  1  0
 24 50  1  0
 24 51  1  0
 26 52  1  0
 26 53  1  0
 27 54  1  0
 27 55  1  0
M  CHG  2   3   1   8  -1
M  END
>  <UniqueID>  (45) 
42

>  <SMILES>  (45) 
CC[NH+](CC)CC[N-]C(=O)c1c(F)cccc1OCC(=O)N1CCOCC1

>  <Energy>  (45) 
65.96041231794293

>  <Genealogy>  (45) 
CC[NH+](CC)CC[N-]C(=O)c1c(F)cccc1OCC(=O)N1CCOCC1 (protonated)
CC[NH+](CC)CC[N-]C(=O)c1c(F)cccc1OCC(=O)N1CCOCC1 (3D coordinates assigned)
CC[NH+](CC)CC[N-]C(=O)c1c(F)cccc1OCC(=O)N1CCOCC1 (nonaromatic ring conformer: 65.96041231794293 kcal/mol)

>  <smiles>  (45) 
CCN(CC)CCNC(=O)c1c(F)cccc1OCC(=O)N1CCOCC1

>  <score_type>  (45) 
oracle

>  <origin>  (45) 
adg

>  <m_score__min__energy>  (45) 
-8.25

>  <m_primary>  (45) 
energy

$$$$
