0:0
     RDKit          3D

 54 56  0  0  0  0  0  0  0  0999 V2000
   -1.8490   15.9750  -34.6310 C   0  0  0  0  0  0  0  0  0  0  0  0
   -3.0850   16.8240  -34.5000 C   0  0  0  0  0  0  0  0  0  0  0  0
   -4.2870   16.2170  -34.5600 N   0  0  0  0  0  0  0  0  0  0  0  0
   -5.4300   16.9520  -34.4420 C   0  0  0  0  0  0  0  0  0  0  0  0
   -5.3750   18.3140  -34.2610 C   0  0  0  0  0  0  0  0  0  0  0  0
   -4.1540   18.9460  -34.1980 C   0  0  0  0  0  0  0  0  0  0  0  0
   -2.9810   18.1930  -34.3180 C   0  0  0  0  0  0  0  0  0  0  0  0
   -1.6540   18.8760  -34.2510 C   0  0  0  0  0  0  0  0  0  0  0  0
   -1.5850   19.8720  -33.2420 N   0  0  0  0  0  0  0  0  0  0  0  0
   -1.9600   21.1940  -33.5980 C   0  0  0  0  0  0  0  0  0  0  0  0
   -3.0790   21.7530  -32.7450 C   0  0  0  0  0  0  0  0  0  0  0  0
   -2.7340   21.7490  -31.3700 N   0  0  0  0  0  0  0  0  0  0  0  0
   -3.7780   22.0910  -30.4490 C   0  0  0  0  0  0  0  0  0  0  0  0
   -4.7130   23.0290  -31.1000 C   0  0  0  0  0  0  0  0  0  0  0  0
   -4.5740   24.2700  -31.1520 O   0  0  0  0  0  0  0  0  0  0  0  0
   -5.8870   22.4760  -31.7310 N   0  0  0  0  0  0  0  0  0  0  0  0
   -6.0880   21.0590  -31.6930 C   0  0  0  0  0  0  0  0  0  0  0  0
   -7.3110   20.6180  -32.4600 C   0  0  0  0  0  0  0  0  0  0  0  0
   -8.6040   20.9830  -31.8020 C   0  0  0  0  0  0  0  0  0  0  0  0
   -9.0470   22.4010  -32.0340 C   0  0  0  0  0  0  0  0  0  0  0  0
   -8.0610   23.4470  -31.5860 C   0  0  0  0  0  0  0  0  0  0  0  0
   -6.7930   23.4370  -32.3750 C   0  0  0  0  0  0  0  0  0  0  0  0
   -1.9630   20.6080  -30.9460 C   0  0  0  0  0  0  0  0  0  0  0  0
   -1.9640   19.4610  -31.9320 C   0  0  0  0  0  0  0  0  0  0  0  0
   -1.4735   15.7171  -33.6298 H   0  0  0  0  0  0  0  0  0  0  0  0
   -2.0936   15.0534  -35.1795 H   0  0  0  0  0  0  0  0  0  0  0  0
   -1.0766   16.5341  -35.1795 H   0  0  0  0  0  0  0  0  0  0  0  0
   -6.4071   16.4493  -34.4922 H   0  0  0  0  0  0  0  0  0  0  0  0
   -6.3035   18.8963  -34.1669 H   0  0  0  0  0  0  0  0  0  0  0  0
   -4.1008   20.0353  -34.0543 H   0  0  0  0  0  0  0  0  0  0  0  0
   -0.8818   18.1193  -34.0479 H   0  0  0  0  0  0  0  0  0  0  0  0
   -1.4977   19.3793  -35.2165 H   0  0  0  0  0  0  0  0  0  0  0  0
   -1.0809   21.8464  -33.4908 H   0  0  0  0  0  0  0  0  0  0  0  0
   -2.3285   21.1587  -34.6338 H   0  0  0  0  0  0  0  0  0  0  0  0
   -3.2858   22.7868  -33.0589 H   0  0  0  0  0  0  0  0  0  0  0  0
   -3.9671   21.1183  -32.8805 H   0  0  0  0  0  0  0  0  0  0  0  0
   -4.3185   21.1804  -30.1512 H   0  0  0  0  0  0  0  0  0  0  0  0
   -3.3424   22.5640  -29.5565 H   0  0  0  0  0  0  0  0  0  0  0  0
   -5.2051   20.5676  -32.1277 H   0  0  0  0  0  0  0  0  0  0  0  0
   -6.2383   20.7752  -30.6409 H   0  0  0  0  0  0  0  0  0  0  0  0
   -7.2839   21.0874  -33.4545 H   0  0  0  0  0  0  0  0  0  0  0  0
   -7.2774   19.5197  -32.5101 H   0  0  0  0  0  0  0  0  0  0  0  0
   -9.3861   20.3121  -32.1870 H   0  0  0  0  0  0  0  0  0  0  0  0
   -8.4419   20.8807  -30.7188 H   0  0  0  0  0  0  0  0  0  0  0  0
   -9.2220   22.5338  -33.1118 H   0  0  0  0  0  0  0  0  0  0  0  0
   -9.9535   22.5474  -31.4284 H   0  0  0  0  0  0  0  0  0  0  0  0
   -8.5297   24.4367  -31.6902 H   0  0  0  0  0  0  0  0  0  0  0  0
   -7.7979   23.2221  -30.5419 H   0  0  0  0  0  0  0  0  0  0  0  0
   -6.9962   23.1273  -33.4107 H   0  0  0  0  0  0  0  0  0  0  0  0
   -6.3424   24.4401  -32.4020 H   0  0  0  0  0  0  0  0  0  0  0  0
   -0.9228   20.9314  -30.7934 H   0  0  0  0  0  0  0  0  0  0  0  0
   -2.4313   20.2338  -30.0237 H   0  0  0  0  0  0  0  0  0  0  0  0
   -1.2561   18.6946  -31.5834 H   0  0  0  0  0  0  0  0  0  0  0  0
   -2.9894   19.0666  -31.9873 H   0  0  0  0  0  0  0  0  0  0  0  0
  1  2  1  0
  2  3  2  0
  3  4  1  0
  4  5  2  0
  5  6  1  0
  6  7  2  0
  7  8  1  0
  8  9  1  0
  9 10  1  0
 10 11  1  0
 11 12  1  0
 12 13  1  0
 13 14  1  0
 14 15  2  0
 14 16  1  0
 16 17  1  0
 17 18  1  0
 18 19  1  0
 19 20  1  0
 20 21  1  0
 21 22  1  0
 12 23  1  0
 23 24  1  0
  7  2  1  0
 24  9  1  0
 22 16  1  0
  1 25  1  0
  1 26  1  0
  1 27  1  0
  4 28  1  0
  5 29  1  0
  6 30  1  0
  8 31  1  0
  8 32  1  0
 10 33  1  0
 10 34  1  0
 11 35  1  0
 11 36  1  0
 13 37  1  0
 13 38  1  0
 17 39  1  0
 17 40  1  0
 18 41  1  0
 18 42  1  0
 19 43  1  0
 19 44  1  0
 20 45  1  0
 20 46  1  0
 21 47  1  0
 21 48  1  0
 22 49  1  0
 22 50  1  0
 23 51  1  0
 23 52  1  0
 24 53  1  0
 24 54  1  0
M  END
>  <smiles>  (1) 
Cc1ncccc1CN1CCN(CC(=O)N2CCCCCC2)CC1

>  <score_type>  (1) 
oracle

>  <origin>  (1) 
adg

>  <m_score__min__energy>  (1) 
-6.9000000000000004

>  <m_primary>  (1) 
energy

$$$$
1:0
     RDKit          3D

 85 88  0  0  0  0  0  0  0  0999 V2000
    0.5490   19.6590  -27.9730 C   0  0  0  0  0  0  0  0  0  0  0  0
   -0.4870   18.6910  -27.5220 C   0  0  0  0  0  0  0  0  0  0  0  0
   -1.8640   19.1990  -27.6890 N   0  0  0  0  0  0  0  0  0  0  0  0
   -2.3130   19.4170  -26.3160 C   0  0  0  0  0  0  0  0  0  0  0  0
   -3.5210   18.5490  -26.0080 C   0  0  0  0  0  0  0  0  0  0  0  0
   -1.8210   20.4690  -28.3630 C   0  0  0  0  0  0  0  0  0  0  0  0
   -3.1550   21.1560  -28.3630 C   0  0  0  0  0  0  0  0  0  0  0  0
   -3.1390   22.4920  -28.6020 O   0  0  0  0  0  0  0  0  0  0  0  0
   -3.8300   22.9370  -29.7020 C   0  0  0  0  0  0  0  0  0  0  0  0
   -3.8700   21.9700  -30.8530 C   0  0  0  0  0  0  0  0  0  0  0  0
   -4.2230   22.6600  -32.1540 C   0  0  0  0  0  0  0  0  0  0  0  0
   -4.7590   21.7270  -33.1230 N   0  0  0  0  0  0  0  0  0  0  0  0
   -5.7770   20.7810  -32.8320 C   0  0  0  0  0  0  0  0  0  0  0  0
   -6.9960   21.3270  -32.4160 C   0  0  0  0  0  0  0  0  0  0  0  0
   -7.1340   22.7120  -32.2960 C   0  0  0  0  0  0  0  0  0  0  0  0
   -8.3280   23.2790  -31.8780 C   0  0  0  0  0  0  0  0  0  0  0  0
   -9.3530   22.4050  -31.5920 C   0  0  0  0  0  0  0  0  0  0  0  0
   -9.2250   21.0260  -31.7070 C   0  0  0  0  0  0  0  0  0  0  0  0
   -8.0350   20.4730  -32.1230 C   0  0  0  0  0  0  0  0  0  0  0  0
   -7.9030   19.1430  -32.2310 N   0  0  0  0  0  0  0  0  0  0  0  0
   -8.9510   18.1940  -31.9570 C   0  0  0  0  0  0  0  0  0  0  0  0
   -6.7060   18.6180  -32.6380 C   0  0  0  0  0  0  0  0  0  0  0  0
   -6.5760   17.2270  -32.7290 C   0  0  0  0  0  0  0  0  0  0  0  0
   -5.3830   16.6700  -33.1220 C   0  0  0  0  0  0  0  0  0  0  0  0
   -4.3130   17.5090  -33.4240 C   0  0  0  0  0  0  0  0  0  0  0  0
   -4.3950   18.8780  -33.3460 C   0  0  0  0  0  0  0  0  0  0  0  0
   -3.3950   19.7600  -33.6240 O   0  0  0  0  0  0  0  0  0  0  0  0
   -2.0850   19.5360  -34.0280 C   0  0  0  0  0  0  0  0  0  0  0  0
   -1.0960   20.5660  -33.6230 C   0  0  0  0  0  0  0  0  0  0  0  0
   -0.5890   20.3870  -32.2730 N   0  0  0  0  0  0  0  0  0  0  0  0
   -0.7170   21.5550  -31.4580 C   0  0  0  0  0  0  0  0  0  0  0  0
    0.8290   20.1060  -32.4470 C   0  0  0  0  0  0  0  0  0  0  0  0
    1.4320   19.2840  -31.3580 C   0  0  0  0  0  0  0  0  0  0  0  0
    0.7020   18.0160  -31.0420 C   0  0  0  0  0  0  0  0  0  0  0  0
   -0.5750   17.9760  -31.8550 C   0  0  0  0  0  0  0  0  0  0  0  0
   -1.2860   19.2970  -31.6160 C   0  0  0  0  0  0  0  0  0  0  0  0
   -5.6240   19.4180  -32.9460 C   0  0  0  0  0  0  0  0  0  0  0  0
    1.0340   20.1122  -27.0958 H   0  0  0  0  0  0  0  0  0  0  0  0
    1.3026   19.1340  -28.5783 H   0  0  0  0  0  0  0  0  0  0  0  0
    0.0763   20.4465  -28.5783 H   0  0  0  0  0  0  0  0  0  0  0  0
   -0.3812   17.7661  -28.1080 H   0  0  0  0  0  0  0  0  0  0  0  0
   -0.3288   18.5170  -26.4474 H   0  0  0  0  0  0  0  0  0  0  0  0
   -1.4975   19.1616  -25.6234 H   0  0  0  0  0  0  0  0  0  0  0  0
   -2.5941   20.4738  -26.1968 H   0  0  0  0  0  0  0  0  0  0  0  0
   -3.6418   18.4622  -24.9181 H   0  0  0  0  0  0  0  0  0  0  0  0
   -4.4221   19.0075  -26.4414 H   0  0  0  0  0  0  0  0  0  0  0  0
   -3.3739   17.5488  -26.4414 H   0  0  0  0  0  0  0  0  0  0  0  0
   -1.0898   21.1150  -27.8551 H   0  0  0  0  0  0  0  0  0  0  0  0
   -1.5351   20.2865  -29.4094 H   0  0  0  0  0  0  0  0  0  0  0  0
   -3.7763   20.6834  -29.1380 H   0  0  0  0  0  0  0  0  0  0  0  0
   -3.5451   21.0436  -27.3406 H   0  0  0  0  0  0  0  0  0  0  0  0
   -4.8652   23.1466  -29.3946 H   0  0  0  0  0  0  0  0  0  0  0  0
   -3.2968   23.8285  -30.0639 H   0  0  0  0  0  0  0  0  0  0  0  0
   -2.8816   21.4985  -30.9566 H   0  0  0  0  0  0  0  0  0  0  0  0
   -4.6457   21.2190  -30.6424 H   0  0  0  0  0  0  0  0  0  0  0  0
   -4.9747   23.4376  -31.9533 H   0  0  0  0  0  0  0  0  0  0  0  0
   -3.3049   23.0998  -32.5707 H   0  0  0  0  0  0  0  0  0  0  0  0
   -4.3830   21.7370  -34.1050 H   0  0  0  0  0  0  0  0  0  0  0  0
   -6.2811   23.3634  -32.5372 H   0  0  0  0  0  0  0  0  0  0  0  0
   -8.4500   24.3678  -31.7801 H   0  0  0  0  0  0  0  0  0  0  0  0
  -10.3165   22.8169  -31.2574 H   0  0  0  0  0  0  0  0  0  0  0  0
  -10.0774   20.3742  -31.4648 H   0  0  0  0  0  0  0  0  0  0  0  0
   -9.0716   18.0848  -30.8691 H   0  0  0  0  0  0  0  0  0  0  0  0
   -9.8938   18.5519  -32.3963 H   0  0  0  0  0  0  0  0  0  0  0  0
   -8.6881   17.2204  -32.3963 H   0  0  0  0  0  0  0  0  0  0  0  0
   -7.4306   16.5787  -32.4854 H   0  0  0  0  0  0  0  0  0  0  0  0
   -5.2746   15.5779  -33.1970 H   0  0  0  0  0  0  0  0  0  0  0  0
   -3.3613   17.0558  -33.7385 H   0  0  0  0  0  0  0  0  0  0  0  0
   -1.7617   18.5736  -33.6046 H   0  0  0  0  0  0  0  0  0  0  0  0
   -2.1048   19.5588  -35.1276 H   0  0  0  0  0  0  0  0  0  0  0  0
   -0.2470   20.5265  -34.3213 H   0  0  0  0  0  0  0  0  0  0  0  0
   -1.6130   21.5366  -33.6472 H   0  0  0  0  0  0  0  0  0  0  0  0
   -0.6854   21.2669  -30.3969 H   0  0  0  0  0  0  0  0  0  0  0  0
    0.1108   22.2461  -31.6751 H   0  0  0  0  0  0  0  0  0  0  0  0
   -1.6748   22.0504  -31.6751 H   0  0  0  0  0  0  0  0  0  0  0  0
    0.9590   19.5671  -33.3971 H   0  0  0  0  0  0  0  0  0  0  0  0
    1.3459   21.0768  -32.4307 H   0  0  0  0  0  0  0  0  0  0  0  0
    2.4575   19.0215  -31.6570 H   0  0  0  0  0  0  0  0  0  0  0  0
    1.3855   19.8996  -30.4476 H   0  0  0  0  0  0  0  0  0  0  0  0
    1.3321   17.1520  -31.2996 H   0  0  0  0  0  0  0  0  0  0  0  0
    0.4645   17.9775  -29.9686 H   0  0  0  0  0  0  0  0  0  0  0  0
   -0.3407   17.8594  -32.9234 H   0  0  0  0  0  0  0  0  0  0  0  0
   -1.2074   17.1267  -31.5571 H   0  0  0  0  0  0  0  0  0  0  0  0
   -2.3094   19.2322  -32.0140 H   0  0  0  0  0  0  0  0  0  0  0  0
   -1.3060   19.4944  -30.5340 H   0  0  0  0  0  0  0  0  0  0  0  0
  1  2  1  0
  2  3  1  0
  3  4  1  0
  4  5  1  0
  3  6  1  0
  6  7  1  0
  7  8  1  0
  8  9  1  0
  9 10  1  0
 10 11  1  0
 11 12  1  0
 12 13  1  0
 13 14  2  0
 14 15  1  0
 15 16  2  0
 16 17  1  0
 17 18  2  0
 18 19  1  0
 19 20  2  0
 20 21  1  0
 20 22  1  0
 22 23  2  0
 23 24  1  0
 24 25  2  0
 25 26  1  0
 26 27  1  0
 27 28  1  0
 28 29  1  0
 29 30  1  0
 30 31  1  0
 30 32  1  0
 32 33  1  0
 33 34  1  0
 34 35  1  0
 35 36  1  0
 26 37  2  0
 37 13  1  0
 19 14  1  0
 37 22  1  0
 36 30  1  0
  1 38  1  0
  1 39  1  0
  1 40  1  0
  2 41  1  0
  2 42  1  0
  4 43  1  0
  4 44  1  0
  5 45  1  0
  5 46  1  0
  5 47  1  0
  6 48  1  0
  6 49  1  0
  7 50  1  0
  7 51  1  0
  9 52  1  0
  9 53  1  0
 10 54  1  0
 10 55  1  0
 11 56  1  0
 11 57  1  0
 12 58  1  0
 15 59  1  0
 16 60  1  0
 17 61  1  0
 18 62  1  0
 21 63  1  0
 21 64  1  0
 21 65  1  0
 23 66  1  0
 24 67  1  0
 25 68  1  0
 28 69  1  0
 28 70  1  0
 29 71  1  0
 29 72  1  0
 31 73  1  0
 31 74  1  0
 31 75  1  0
 32 76  1  0
 32 77  1  0
 33 78  1  0
 33 79  1  0
 34 80  1  0
 34 81  1  0
 35 82  1  0
 35 83  1  0
 36 84  1  0
 36 85  1  0
M  CHG  2  20   1  30   1
M  END
>  <smiles>  (2) 
CCN(CC)CCOCCCNc1c2ccccc2[n+](C)c2cccc(OCC[N+]3(C)CCCCC3)c12

>  <score_type>  (2) 
oracle

>  <origin>  (2) 
adg

>  <m_score__min__energy>  (2) 
-8.4900000000000002

>  <m_primary>  (2) 
energy

$$$$
2:0
     RDKit          3D

 51 53  0  0  0  0  0  0  0  0999 V2000
    0.1240   21.5470  -34.2210 C   0  0  0  0  0  0  0  0  0  0  0  0
   -0.2190   20.4700  -35.0660 N   0  0  0  0  0  0  0  0  0  0  0  0
    0.2820   20.4920  -36.3860 C   0  0  0  0  0  0  0  0  0  0  0  0
   -0.6140   19.2590  -34.5080 C   0  0  0  0  0  0  0  0  0  0  0  0
   -1.9730   19.2110  -33.8670 C   0  0  0  0  0  0  0  0  0  0  0  0
   -2.7290   20.4380  -34.0760 N   0  0  0  0  0  0  0  0  0  0  0  0
   -3.8530   20.7450  -33.2790 C   0  0  0  0  0  0  0  0  0  0  0  0
   -3.8430   21.9020  -32.5270 C   0  0  0  0  0  0  0  0  0  0  0  0
   -4.9450   22.2240  -31.7270 C   0  0  0  0  0  0  0  0  0  0  0  0
   -4.9450   23.4340  -30.9360 N   0  0  0  0  0  0  0  0  0  0  0  0
   -5.8820   24.4910  -31.2940 C   0  0  0  0  0  0  0  0  0  0  0  0
   -6.3310   25.3210  -30.1440 C   0  0  0  0  0  0  0  0  0  0  0  0
   -5.7130   25.1420  -28.9150 N   0  0  0  0  0  0  0  0  0  0  0  0
   -4.6960   24.2200  -28.6900 C   0  0  0  0  0  0  0  0  0  0  0  0
   -4.0190   23.5590  -29.8210 C   0  0  0  0  0  0  0  0  0  0  0  0
   -6.0310   21.4320  -31.6640 N   0  0  0  0  0  0  0  0  0  0  0  0
   -7.1900   21.7350  -30.8460 C   0  0  0  0  0  0  0  0  0  0  0  0
   -6.0540   20.3020  -32.3920 C   0  0  0  0  0  0  0  0  0  0  0  0
   -7.1600   19.4650  -32.3520 C   0  0  0  0  0  0  0  0  0  0  0  0
   -7.2340   18.3110  -33.0720 C   0  0  0  0  0  0  0  0  0  0  0  0
   -6.1680   17.9680  -33.8660 C   0  0  0  0  0  0  0  0  0  0  0  0
   -5.0530   18.7910  -33.9210 C   0  0  0  0  0  0  0  0  0  0  0  0
   -4.9780   19.9580  -33.1930 C   0  0  0  0  0  0  0  0  0  0  0  0
    0.0247   21.2351  -33.1708 H   0  0  0  0  0  0  0  0  0  0  0  0
    1.1631   21.8501  -34.4168 H   0  0  0  0  0  0  0  0  0  0  0  0
   -0.5485   22.3952  -34.4168 H   0  0  0  0  0  0  0  0  0  0  0  0
    1.3806   20.5402  -36.3604 H   0  0  0  0  0  0  0  0  0  0  0  0
   -0.0328   19.5792  -36.9129 H   0  0  0  0  0  0  0  0  0  0  0  0
   -0.1116   21.3737  -36.9129 H   0  0  0  0  0  0  0  0  0  0  0  0
   -0.5984   18.5046  -35.3084 H   0  0  0  0  0  0  0  0  0  0  0  0
    0.0947   19.0799  -33.6860 H   0  0  0  0  0  0  0  0  0  0  0  0
   -2.5373   18.3707  -34.2977 H   0  0  0  0  0  0  0  0  0  0  0  0
   -1.8286   19.0864  -32.7837 H   0  0  0  0  0  0  0  0  0  0  0  0
   -2.3690   21.0530  -34.8500 H   0  0  0  0  0  0  0  0  0  0  0  0
   -2.9698   22.5703  -32.5564 H   0  0  0  0  0  0  0  0  0  0  0  0
   -5.3945   25.1510  -32.0266 H   0  0  0  0  0  0  0  0  0  0  0  0
   -6.7783   23.9967  -31.6970 H   0  0  0  0  0  0  0  0  0  0  0  0
   -6.1881   26.3739  -30.4286 H   0  0  0  0  0  0  0  0  0  0  0  0
   -7.3692   25.0012  -29.9714 H   0  0  0  0  0  0  0  0  0  0  0  0
   -5.6660   26.0220  -28.3470 H   0  0  0  0  0  0  0  0  0  0  0  0
   -3.9158   24.7450  -28.1194 H   0  0  0  0  0  0  0  0  0  0  0  0
   -5.2215   23.3887  -28.1973 H   0  0  0  0  0  0  0  0  0  0  0  0
   -3.1514   24.1601  -30.1308 H   0  0  0  0  0  0  0  0  0  0  0  0
   -3.6812   22.5589  -29.5117 H   0  0  0  0  0  0  0  0  0  0  0  0
   -6.9172   21.6637  -29.7828 H   0  0  0  0  0  0  0  0  0  0  0  0
   -7.5387   22.7545  -31.0675 H   0  0  0  0  0  0  0  0  0  0  0  0
   -7.9930   21.0166  -31.0675 H   0  0  0  0  0  0  0  0  0  0  0  0
   -8.0109   19.7445  -31.7134 H   0  0  0  0  0  0  0  0  0  0  0  0
   -8.1261   17.6697  -33.0185 H   0  0  0  0  0  0  0  0  0  0  0  0
   -6.1981   17.0414  -34.4580 H   0  0  0  0  0  0  0  0  0  0  0  0
   -4.2067   18.5044  -34.5626 H   0  0  0  0  0  0  0  0  0  0  0  0
  1  2  1  0
  2  3  1  0
  2  4  1  0
  4  5  1  0
  5  6  1  0
  6  7  1  0
  7  8  2  0
  8  9  1  0
  9 10  1  0
 10 11  1  0
 11 12  1  0
 12 13  1  0
 13 14  1  0
 14 15  1  0
  9 16  2  0
 16 17  1  0
 16 18  1  0
 18 19  2  0
 19 20  1  0
 20 21  2  0
 21 22  1  0
 22 23  2  0
 23  7  1  0
 15 10  1  0
 23 18  1  0
  1 24  1  0
  1 25  1  0
  1 26  1  0
  3 27  1  0
  3 28  1  0
  3 29  1  0
  4 30  1  0
  4 31  1  0
  5 32  1  0
  5 33  1  0
  6 34  1  0
  8 35  1  0
 11 36  1  0
 11 37  1  0
 12 38  1  0
 12 39  1  0
 13 40  1  0
 14 41  1  0
 14 42  1  0
 15 43  1  0
 15 44  1  0
 17 45  1  0
 17 46  1  0
 17 47  1  0
 19 48  1  0
 20 49  1  0
 21 50  1  0
 22 51  1  0
M  CHG  1  16   1
M  END
>  <smiles>  (3) 
CN(C)CCNc1cc(N2CCNCC2)[n+](C)c2ccccc12

>  <score_type>  (3) 
oracle

>  <origin>  (3) 
adg

>  <m_score__min__energy>  (3) 
-7.3399999999999999

>  <m_primary>  (3) 
energy

$$$$
3:0
     RDKit          3D

 41 43  0  0  1  0  0  0  0  0999 V2000
   -6.0830   15.5500  -33.8620 C   0  0  0  0  0  0  0  0  0  0  0  0
   -5.0720   16.5350  -33.3680 C   0  0  0  0  0  0  0  0  0  0  0  0
   -5.7400   17.7610  -33.0470 N   0  0  2  0  0  0  0  0  0  0  0  0
   -4.9270   18.6870  -32.2810 C   0  0  0  0  0  0  0  0  0  0  0  0
   -5.8720   19.6980  -31.6140 C   0  0  0  0  0  0  0  0  0  0  0  0
   -7.0310   19.7990  -32.4600 N   0  0  2  0  0  0  0  0  0  0  0  0
   -7.9090   20.8870  -32.1850 C   0  0  0  0  0  0  0  0  0  0  0  0
   -7.2450   22.0890  -31.6090 C   0  0  0  0  0  0  0  0  0  0  0  0
   -7.5380   22.4580  -30.2940 C   0  0  0  0  0  0  0  0  0  0  0  0
   -6.9380   23.5700  -29.7290 C   0  0  0  0  0  0  0  0  0  0  0  0
   -6.0290   24.3420  -30.4620 C   0  0  0  0  0  0  0  0  0  0  0  0
   -5.7490   23.9620  -31.7660 C   0  0  0  0  0  0  0  0  0  0  0  0
   -6.3400   22.8510  -32.3540 C   0  0  0  0  0  0  0  0  0  0  0  0
   -7.8430   18.5760  -32.3620 C   0  0  0  0  0  0  0  0  0  0  0  0
   -6.8660   17.4470  -32.1870 C   0  0  0  0  0  0  0  0  0  0  0  0
   -6.4810   19.8830  -33.8230 C   0  0  0  0  0  0  0  0  0  0  0  0
   -6.1330   18.4800  -34.2470 C   0  0  0  0  0  0  0  0  0  0  0  0
   -6.5763   15.0694  -33.0042 H   0  0  0  0  0  0  0  0  0  0  0  0
   -6.8350   16.0713  -34.4726 H   0  0  0  0  0  0  0  0  0  0  0  0
   -5.5814   14.7847  -34.4726 H   0  0  0  0  0  0  0  0  0  0  0  0
   -4.5770   16.1376  -32.4697 H   0  0  0  0  0  0  0  0  0  0  0  0
   -4.3146   16.7146  -34.1452 H   0  0  0  0  0  0  0  0  0  0  0  0
   -4.3603   18.1407  -31.5126 H   0  0  0  0  0  0  0  0  0  0  0  0
   -4.2110   19.2040  -32.9368 H   0  0  0  0  0  0  0  0  0  0  0  0
   -6.1621   19.3435  -30.6139 H   0  0  0  0  0  0  0  0  0  0  0  0
   -5.3838   20.6762  -31.4924 H   0  0  0  0  0  0  0  0  0  0  0  0
   -8.3954   21.1818  -33.1265 H   0  0  0  0  0  0  0  0  0  0  0  0
   -8.6200   20.5296  -31.4256 H   0  0  0  0  0  0  0  0  0  0  0  0
   -8.2496   21.8615  -29.7042 H   0  0  0  0  0  0  0  0  0  0  0  0
   -7.1781   23.8501  -28.6927 H   0  0  0  0  0  0  0  0  0  0  0  0
   -5.5499   25.2259  -30.0158 H   0  0  0  0  0  0  0  0  0  0  0  0
   -5.0362   24.5594  -32.3534 H   0  0  0  0  0  0  0  0  0  0  0  0
   -6.0994   22.5746  -33.3912 H   0  0  0  0  0  0  0  0  0  0  0  0
   -8.5198   18.6342  -31.4968 H   0  0  0  0  0  0  0  0  0  0  0  0
   -8.4693   18.4339  -33.2550 H   0  0  0  0  0  0  0  0  0  0  0  0
   -6.5404   17.3814  -31.1384 H   0  0  0  0  0  0  0  0  0  0  0  0
   -7.3165   16.4780  -32.4478 H   0  0  0  0  0  0  0  0  0  0  0  0
   -7.2301   20.3090  -34.5066 H   0  0  0  0  0  0  0  0  0  0  0  0
   -5.5927   20.5313  -33.8477 H   0  0  0  0  0  0  0  0  0  0  0  0
   -7.0068   17.9966  -34.7084 H   0  0  0  0  0  0  0  0  0  0  0  0
   -5.3199   18.4831  -34.9879 H   0  0  0  0  0  0  0  0  0  0  0  0
  1  2  1  0
  3  2  1  6
  3  4  1  0
  4  5  1  0
  5  6  1  0
  6  7  1  1
  7  8  1  0
  8  9  2  0
  9 10  1  0
 10 11  2  0
 11 12  1  0
 12 13  2  0
  6 14  1  0
 14 15  1  0
  6 16  1  0
 16 17  1  0
 15  3  1  0
 17  3  1  0
 13  8  1  0
  1 18  1  0
  1 19  1  0
  1 20  1  0
  2 21  1  0
  2 22  1  0
  4 23  1  0
  4 24  1  0
  5 25  1  0
  5 26  1  0
  7 27  1  0
  7 28  1  0
  9 29  1  0
 10 30  1  0
 11 31  1  0
 12 32  1  0
 13 33  1  0
 14 34  1  0
 14 35  1  0
 15 36  1  0
 15 37  1  0
 16 38  1  0
 16 39  1  0
 17 40  1  0
 17 41  1  0
M  CHG  2   3   1   6   1
M  END
>  <smiles>  (4) 
CC[N+]12CC[N+](Cc3ccccc3)(CC1)CC2

>  <score_type>  (4) 
oracle

>  <origin>  (4) 
adg

>  <m_score__min__energy>  (4) 
-5.1200000000000001

>  <m_primary>  (4) 
energy

$$$$
5:0
     RDKit          3D

 72 75  0  0  0  0  0  0  0  0999 V2000
   -0.4190   18.6590  -31.5210 C   0  0  0  0  0  0  0  0  0  0  0  0
   -0.4330   19.4540  -30.2530 C   0  0  0  0  0  0  0  0  0  0  0  0
   -1.3780   20.5500  -30.2420 N   0  0  0  0  0  0  0  0  0  0  0  0
   -1.5110   21.1520  -28.9450 C   0  0  0  0  0  0  0  0  0  0  0  0
   -2.1350   20.1630  -27.9760 C   0  0  0  0  0  0  0  0  0  0  0  0
   -1.1120   21.5370  -31.2490 C   0  0  0  0  0  0  0  0  0  0  0  0
   -2.0860   21.5020  -32.3900 C   0  0  0  0  0  0  0  0  0  0  0  0
   -3.4430   22.0400  -32.0150 C   0  0  0  0  0  0  0  0  0  0  0  0
   -4.4090   21.9000  -33.1410 N   0  0  0  0  0  0  0  0  0  0  0  0
   -5.4800   21.0250  -32.8930 C   0  0  0  0  0  0  0  0  0  0  0  0
   -5.2120   19.6860  -33.2490 C   0  0  0  0  0  0  0  0  0  0  0  0
   -3.9900   19.3490  -33.8300 C   0  0  0  0  0  0  0  0  0  0  0  0
   -3.6610   18.0680  -34.2020 C   0  0  0  0  0  0  0  0  0  0  0  0
   -4.5910   17.0760  -33.9850 C   0  0  0  0  0  0  0  0  0  0  0  0
   -5.8010   17.3920  -33.4130 C   0  0  0  0  0  0  0  0  0  0  0  0
   -6.1170   18.6820  -33.0440 C   0  0  0  0  0  0  0  0  0  0  0  0
   -7.3320   18.9820  -32.4720 N   0  0  0  0  0  0  0  0  0  0  0  0
   -8.2000   17.8500  -32.3020 C   0  0  0  0  0  0  0  0  0  0  0  0
   -7.6040   20.2490  -32.1300 C   0  0  0  0  0  0  0  0  0  0  0  0
   -8.8370   20.4780  -31.5510 C   0  0  0  0  0  0  0  0  0  0  0  0
   -9.1250   21.7750  -31.1860 C   0  0  0  0  0  0  0  0  0  0  0  0
   -8.2120   22.8080  -31.3940 C   0  0  0  0  0  0  0  0  0  0  0  0
   -6.9710   22.5900  -31.9760 C   0  0  0  0  0  0  0  0  0  0  0  0
   -6.1540   23.7150  -32.1910 N   0  0  0  0  0  0  0  0  0  0  0  0
   -6.1200   24.8490  -31.2300 C   0  0  0  0  0  0  0  0  0  0  0  0
   -4.7550   25.1140  -30.7070 C   0  0  0  0  0  0  0  0  0  0  0  0
   -4.0720   24.0910  -30.0030 N   0  0  0  0  0  0  0  0  0  0  0  0
   -2.9450   24.4490  -29.2240 C   0  0  0  0  0  0  0  0  0  0  0  0
   -3.2970   24.1210  -27.7680 C   0  0  0  0  0  0  0  0  0  0  0  0
   -4.2310   22.9600  -27.9280 C   0  0  0  0  0  0  0  0  0  0  0  0
   -4.9090   23.2230  -29.2380 C   0  0  0  0  0  0  0  0  0  0  0  0
   -6.6860   21.2950  -32.3340 C   0  0  0  0  0  0  0  0  0  0  0  0
   -0.4001   17.5857  -31.2807 H   0  0  0  0  0  0  0  0  0  0  0  0
   -1.3213   18.8877  -32.1071 H   0  0  0  0  0  0  0  0  0  0  0  0
    0.4747   18.9193  -32.1071 H   0  0  0  0  0  0  0  0  0  0  0  0
   -0.6845   18.7752  -29.4247 H   0  0  0  0  0  0  0  0  0  0  0  0
    0.5667   19.9020  -30.1537 H   0  0  0  0  0  0  0  0  0  0  0  0
   -0.5173   21.4462  -28.5761 H   0  0  0  0  0  0  0  0  0  0  0  0
   -2.1572   22.0388  -29.0226 H   0  0  0  0  0  0  0  0  0  0  0  0
   -1.9326   20.4839  -26.9435 H   0  0  0  0  0  0  0  0  0  0  0  0
   -3.2218   20.1237  -28.1413 H   0  0  0  0  0  0  0  0  0  0  0  0
   -1.7026   19.1651  -28.1413 H   0  0  0  0  0  0  0  0  0  0  0  0
   -1.1572   22.5321  -30.7824 H   0  0  0  0  0  0  0  0  0  0  0  0
   -0.1174   21.3172  -31.6643 H   0  0  0  0  0  0  0  0  0  0  0  0
   -1.6832   22.1080  -33.2149 H   0  0  0  0  0  0  0  0  0  0  0  0
   -2.2159   20.4497  -32.6830 H   0  0  0  0  0  0  0  0  0  0  0  0
   -3.8221   21.4826  -31.1458 H   0  0  0  0  0  0  0  0  0  0  0  0
   -3.3397   23.1087  -31.7759 H   0  0  0  0  0  0  0  0  0  0  0  0
   -4.2430   22.4060  -34.0450 H   0  0  0  0  0  0  0  0  0  0  0  0
   -3.2532   20.1481  -33.9988 H   0  0  0  0  0  0  0  0  0  0  0  0
   -2.6860   17.8421  -34.6585 H   0  0  0  0  0  0  0  0  0  0  0  0
   -4.3673   16.0367  -34.2676 H   0  0  0  0  0  0  0  0  0  0  0  0
   -6.5377   16.5926  -33.2451 H   0  0  0  0  0  0  0  0  0  0  0  0
   -8.3469   17.6585  -31.2288 H   0  0  0  0  0  0  0  0  0  0  0  0
   -9.1716   18.0589  -32.7735 H   0  0  0  0  0  0  0  0  0  0  0  0
   -7.7462   16.9659  -32.7735 H   0  0  0  0  0  0  0  0  0  0  0  0
   -9.5564   19.6618  -31.3887 H   0  0  0  0  0  0  0  0  0  0  0  0
  -10.0959   22.0003  -30.7206 H   0  0  0  0  0  0  0  0  0  0  0  0
   -8.4840   23.8287  -31.0869 H   0  0  0  0  0  0  0  0  0  0  0  0
   -5.5430   23.9250  -32.9950 H   0  0  0  0  0  0  0  0  0  0  0  0
   -6.4838   25.7535  -31.7394 H   0  0  0  0  0  0  0  0  0  0  0  0
   -6.7580   24.5804  -30.3751 H   0  0  0  0  0  0  0  0  0  0  0  0
   -4.1277   25.3842  -31.5692 H   0  0  0  0  0  0  0  0  0  0  0  0
   -4.9137   25.8928  -29.9465 H   0  0  0  0  0  0  0  0  0  0  0  0
   -2.0649   23.8704  -29.5413 H   0  0  0  0  0  0  0  0  0  0  0  0
   -2.7029   25.5154  -29.3431 H   0  0  0  0  0  0  0  0  0  0  0  0
   -2.4021   23.8381  -27.1943 H   0  0  0  0  0  0  0  0  0  0  0  0
   -3.7312   24.9670  -27.2150 H   0  0  0  0  0  0  0  0  0  0  0  0
   -3.6750   22.0113  -27.9583 H   0  0  0  0  0  0  0  0  0  0  0  0
   -4.9411   22.8678  -27.0930 H   0  0  0  0  0  0  0  0  0  0  0  0
   -5.0573   22.2762  -29.7780 H   0  0  0  0  0  0  0  0  0  0  0  0
   -5.8917   23.6887  -29.0724 H   0  0  0  0  0  0  0  0  0  0  0  0
  1  2  1  0
  2  3  1  0
  3  4  1  0
  4  5  1  0
  3  6  1  0
  6  7  1  0
  7  8  1  0
  8  9  1  0
  9 10  1  0
 10 11  2  0
 11 12  1  0
 12 13  2  0
 13 14  1  0
 14 15  2  0
 15 16  1  0
 16 17  2  0
 17 18  1  0
 17 19  1  0
 19 20  2  0
 20 21  1  0
 21 22  2  0
 22 23  1  0
 23 24  1  0
 24 25  1  0
 25 26  1  0
 26 27  1  0
 27 28  1  0
 28 29  1  0
 29 30  1  0
 30 31  1  0
 23 32  2  0
 32 10  1  0
 16 11  1  0
 32 19  1  0
 31 27  1  0
  1 33  1  0
  1 34  1  0
  1 35  1  0
  2 36  1  0
  2 37  1  0
  4 38  1  0
  4 39  1  0
  5 40  1  0
  5 41  1  0
  5 42  1  0
  6 43  1  0
  6 44  1  0
  7 45  1  0
  7 46  1  0
  8 47  1  0
  8 48  1  0
  9 49  1  0
 12 50  1  0
 13 51  1  0
 14 52  1  0
 15 53  1  0
 18 54  1  0
 18 55  1  0
 18 56  1  0
 20 57  1  0
 21 58  1  0
 22 59  1  0
 24 60  1  0
 25 61  1  0
 25 62  1  0
 26 63  1  0
 26 64  1  0
 28 65  1  0
 28 66  1  0
 29 67  1  0
 29 68  1  0
 30 69  1  0
 30 70  1  0
 31 71  1  0
 31 72  1  0
M  CHG  1  17   1
M  END
>  <smiles>  (5) 
CCN(CC)CCCNc1c2ccccc2[n+](C)c2cccc(NCCN3CCCC3)c12

>  <score_type>  (5) 
oracle

>  <origin>  (5) 
adg

>  <m_score__min__energy>  (5) 
-9.3000000000000007

>  <m_primary>  (5) 
energy

$$$$
6:0
     RDKit          3D

 73 76  0  0  0  0  0  0  0  0999 V2000
   -6.2940   24.9840  -29.8730 C   0  0  0  0  0  0  0  0  0  0  0  0
   -5.0800   25.5830  -30.4880 C   0  0  0  0  0  0  0  0  0  0  0  0
   -3.9020   24.6720  -30.4380 N   0  0  0  0  0  0  0  0  0  0  0  0
   -3.4660   24.5320  -29.0820 C   0  0  0  0  0  0  0  0  0  0  0  0
   -1.9640   24.4360  -29.0200 C   0  0  0  0  0  0  0  0  0  0  0  0
   -4.4840   23.4220  -30.8910 C   0  0  0  0  0  0  0  0  0  0  0  0
   -3.6960   22.6230  -31.8680 C   0  0  0  0  0  0  0  0  0  0  0  0
   -4.5850   22.2980  -33.0110 N   0  0  0  0  0  0  0  0  0  0  0  0
   -5.3470   21.1100  -32.9190 C   0  0  0  0  0  0  0  0  0  0  0  0
   -6.6850   21.3210  -32.5250 C   0  0  0  0  0  0  0  0  0  0  0  0
   -7.1470   22.6280  -32.3200 C   0  0  0  0  0  0  0  0  0  0  0  0
   -8.4390   22.9080  -31.9450 C   0  0  0  0  0  0  0  0  0  0  0  0
   -9.3010   21.8690  -31.7660 C   0  0  0  0  0  0  0  0  0  0  0  0
   -8.8520   20.5730  -31.9660 C   0  0  0  0  0  0  0  0  0  0  0  0
   -7.5600   20.2810  -32.3430 C   0  0  0  0  0  0  0  0  0  0  0  0
   -7.1220   19.0300  -32.5490 N   0  0  0  0  0  0  0  0  0  0  0  0
   -7.9700   17.8840  -32.3650 C   0  0  0  0  0  0  0  0  0  0  0  0
   -5.8430   18.8140  -32.9300 C   0  0  0  0  0  0  0  0  0  0  0  0
   -5.4690   17.4890  -33.1280 C   0  0  0  0  0  0  0  0  0  0  0  0
   -4.1740   17.2460  -33.5200 C   0  0  0  0  0  0  0  0  0  0  0  0
   -3.2870   18.2740  -33.7090 C   0  0  0  0  0  0  0  0  0  0  0  0
   -3.6250   19.6230  -33.5210 C   0  0  0  0  0  0  0  0  0  0  0  0
   -2.6760   20.6070  -33.8280 N   0  0  0  0  0  0  0  0  0  0  0  0
   -1.2720   20.3490  -33.4320 C   0  0  0  0  0  0  0  0  0  0  0  0
   -0.8870   21.0320  -32.1670 C   0  0  0  0  0  0  0  0  0  0  0  0
   -1.3520   20.3270  -30.9320 C   0  0  0  0  0  0  0  0  0  0  0  0
   -1.6110   21.1390  -29.8000 N   0  0  0  0  0  0  0  0  0  0  0  0
   -2.8300   20.8500  -29.1090 C   0  0  0  0  0  0  0  0  0  0  0  0
   -2.5310   20.0610  -27.8360 C   0  0  0  0  0  0  0  0  0  0  0  0
   -1.3710   19.3110  -27.9550 O   0  0  0  0  0  0  0  0  0  0  0  0
   -0.2680   20.1690  -27.9750 C   0  0  0  0  0  0  0  0  0  0  0  0
   -0.4870   21.3210  -28.9230 C   0  0  0  0  0  0  0  0  0  0  0  0
   -4.9240   19.8380  -33.1270 C   0  0  0  0  0  0  0  0  0  0  0  0
   -6.2087   25.0261  -28.7771 H   0  0  0  0  0  0  0  0  0  0  0  0
   -7.1831   25.5468  -30.1934 H   0  0  0  0  0  0  0  0  0  0  0  0
   -6.3883   23.9359  -30.1934 H   0  0  0  0  0  0  0  0  0  0  0  0
   -5.2982   25.8190  -31.5400 H   0  0  0  0  0  0  0  0  0  0  0  0
   -4.8269   26.4860  -29.9131 H   0  0  0  0  0  0  0  0  0  0  0  0
   -3.7974   25.4064  -28.5027 H   0  0  0  0  0  0  0  0  0  0  0  0
   -3.8997   23.6129  -28.6611 H   0  0  0  0  0  0  0  0  0  0  0  0
   -1.6410   24.4154  -27.9687 H   0  0  0  0  0  0  0  0  0  0  0  0
   -1.6344   23.5150  -29.5230 H   0  0  0  0  0  0  0  0  0  0  0  0
   -1.5198   25.3076  -29.5230 H   0  0  0  0  0  0  0  0  0  0  0  0
   -4.6488   22.7924  -30.0042 H   0  0  0  0  0  0  0  0  0  0  0  0
   -5.3973   23.7122  -31.4311 H   0  0  0  0  0  0  0  0  0  0  0  0
   -2.8330   23.2075  -32.2197 H   0  0  0  0  0  0  0  0  0  0  0  0
   -3.3226   21.7013  -31.3978 H   0  0  0  0  0  0  0  0  0  0  0  0
   -4.6580   22.9710  -33.8340 H   0  0  0  0  0  0  0  0  0  0  0  0
   -6.4469   23.4639  -32.4652 H   0  0  0  0  0  0  0  0  0  0  0  0
   -8.7690   23.9463  -31.7931 H   0  0  0  0  0  0  0  0  0  0  0  0
  -10.3426   22.0563  -31.4659 H   0  0  0  0  0  0  0  0  0  0  0  0
   -9.5577   19.7424  -31.8173 H   0  0  0  0  0  0  0  0  0  0  0  0
   -8.1073   17.6984  -31.2895 H   0  0  0  0  0  0  0  0  0  0  0  0
   -8.9478   18.0726  -32.8323 H   0  0  0  0  0  0  0  0  0  0  0  0
   -7.5038   17.0041  -32.8323 H   0  0  0  0  0  0  0  0  0  0  0  0
   -6.1830   16.6661  -32.9765 H   0  0  0  0  0  0  0  0  0  0  0  0
   -3.8441   16.2097  -33.6847 H   0  0  0  0  0  0  0  0  0  0  0  0
   -2.2614   18.0298  -34.0230 H   0  0  0  0  0  0  0  0  0  0  0  0
   -2.7710   21.4960  -34.3150 H   0  0  0  0  0  0  0  0  0  0  0  0
   -1.1393   19.2652  -33.2990 H   0  0  0  0  0  0  0  0  0  0  0  0
   -0.6278   20.7482  -34.2293 H   0  0  0  0  0  0  0  0  0  0  0  0
    0.2101   21.1042  -32.1324 H   0  0  0  0  0  0  0  0  0  0  0  0
   -1.3749   22.0178  -32.1749 H   0  0  0  0  0  0  0  0  0  0  0  0
   -2.2818   19.7946  -31.1811 H   0  0  0  0  0  0  0  0  0  0  0  0
   -0.5168   19.6746  -30.6373 H   0  0  0  0  0  0  0  0  0  0  0  0
   -3.3317   21.7925  -28.8446 H   0  0  0  0  0  0  0  0  0  0  0  0
   -3.4830   20.2515  -29.7612 H   0  0  0  0  0  0  0  0  0  0  0  0
   -2.4150   20.7657  -26.9994 H   0  0  0  0  0  0  0  0  0  0  0  0
   -3.3680   19.3698  -27.6579 H   0  0  0  0  0  0  0  0  0  0  0  0
   -0.1036   20.5649  -26.9620 H   0  0  0  0  0  0  0  0  0  0  0  0
    0.6086   19.5995  -28.3173 H   0  0  0  0  0  0  0  0  0  0  0  0
   -0.6526   22.2326  -28.3301 H   0  0  0  0  0  0  0  0  0  0  0  0
    0.4089   21.3914  -29.5573 H   0  0  0  0  0  0  0  0  0  0  0  0
  1  2  1  0
  2  3  1  0
  3  4  1  0
  4  5  1  0
  3  6  1  0
  6  7  1  0
  7  8  1  0
  8  9  1  0
  9 10  2  0
 10 11  1  0
 11 12  2  0
 12 13  1  0
 13 14  2  0
 14 15  1  0
 15 16  2  0
 16 17  1  0
 16 18  1  0
 18 19  2  0
 19 20  1  0
 20 21  2  0
 21 22  1  0
 22 23  1  0
 23 24  1  0
 24 25  1  0
 25 26  1  0
 26 27  1  0
 27 28  1  0
 28 29  1  0
 29 30  1  0
 30 31  1  0
 31 32  1  0
 22 33  2  0
 33  9  1  0
 15 10  1  0
 33 18  1  0
 32 27  1  0
  1 34  1  0
  1 35  1  0
  1 36  1  0
  2 37  1  0
  2 38  1  0
  4 39  1  0
  4 40  1  0
  5 41  1  0
  5 42  1  0
  5 43  1  0
  6 44  1  0
  6 45  1  0
  7 46  1  0
  7 47  1  0
  8 48  1  0
 11 49  1  0
 12 50  1  0
 13 51  1  0
 14 52  1  0
 17 53  1  0
 17 54  1  0
 17 55  1  0
 19 56  1  0
 20 57  1  0
 21 58  1  0
 23 59  1  0
 24 60  1  0
 24 61  1  0
 25 62  1  0
 25 63  1  0
 26 64  1  0
 26 65  1  0
 28 66  1  0
 28 67  1  0
 29 68  1  0
 29 69  1  0
 31 70  1  0
 31 71  1  0
 32 72  1  0
 32 73  1  0
M  CHG  1  16   1
M  END
>  <smiles>  (6) 
CCN(CC)CCNc1c2ccccc2[n+](C)c2cccc(NCCCN3CCOCC3)c12

>  <score_type>  (6) 
oracle

>  <origin>  (6) 
adg

>  <m_score__min__energy>  (6) 
-10.48

>  <m_primary>  (6) 
energy

$$$$
7:0
     RDKit          3D

 53 55  0  0  0  0  0  0  0  0999 V2000
    0.3130   25.4270  -36.0970 C   0  0  0  0  0  0  0  0  0  0  0  0
    0.8540   24.0610  -36.4200 C   0  0  0  0  0  0  0  0  0  0  0  0
    0.4970   23.0500  -35.4400 N   0  0  0  0  0  0  0  0  0  0  0  0
    1.3110   21.8650  -35.6290 C   0  0  0  0  0  0  0  0  0  0  0  0
    1.0050   20.8430  -34.5490 C   0  0  0  0  0  0  0  0  0  0  0  0
   -0.5000   20.6110  -34.4480 C   0  0  0  0  0  0  0  0  0  0  0  0
   -1.1450   21.6310  -33.8110 O   0  0  0  0  0  0  0  0  0  0  0  0
   -1.4540   21.4970  -32.5080 C   0  0  0  0  0  0  0  0  0  0  0  0
   -2.8300   21.1130  -32.0970 C   0  0  0  0  0  0  0  0  0  0  0  0
   -3.7220   21.0030  -33.2750 N   0  0  0  0  0  0  0  0  0  0  0  0
   -5.0220   20.5350  -32.9950 C   0  0  0  0  0  0  0  0  0  0  0  0
   -5.9110   21.4990  -32.4780 C   0  0  0  0  0  0  0  0  0  0  0  0
   -5.4960   22.8080  -32.3210 C   0  0  0  0  0  0  0  0  0  0  0  0
   -6.3240   23.8030  -31.8250 C   0  0  0  0  0  0  0  0  0  0  0  0
   -7.6040   23.4180  -31.4890 C   0  0  0  0  0  0  0  0  0  0  0  0
   -8.0470   22.1020  -31.6390 C   0  0  0  0  0  0  0  0  0  0  0  0
   -7.2120   21.1350  -32.1310 C   0  0  0  0  0  0  0  0  0  0  0  0
   -7.6740   19.8820  -32.2700 N   0  0  0  0  0  0  0  0  0  0  0  0
   -8.9850   19.4330  -31.9280 C   0  0  0  0  0  0  0  0  0  0  0  0
   -6.8210   18.9360  -32.7760 C   0  0  0  0  0  0  0  0  0  0  0  0
   -7.2770   17.6370  -32.9600 C   0  0  0  0  0  0  0  0  0  0  0  0
   -6.4760   16.6410  -33.4960 C   0  0  0  0  0  0  0  0  0  0  0  0
   -5.1950   17.0050  -33.8400 C   0  0  0  0  0  0  0  0  0  0  0  0
   -4.7340   18.2900  -33.6610 C   0  0  0  0  0  0  0  0  0  0  0  0
   -3.1360   18.6630  -34.2160 Cl  0  0  0  0  0  0  0  0  0  0  0  0
   -5.5130   19.2810  -33.1290 C   0  0  0  0  0  0  0  0  0  0  0  0
    0.2631   25.5529  -35.0054 H   0  0  0  0  0  0  0  0  0  0  0  0
    0.9752   26.1942  -36.5247 H   0  0  0  0  0  0  0  0  0  0  0  0
   -0.6949   25.5328  -36.5247 H   0  0  0  0  0  0  0  0  0  0  0  0
    0.4583   23.7522  -37.3988 H   0  0  0  0  0  0  0  0  0  0  0  0
    1.9512   24.1390  -36.4195 H   0  0  0  0  0  0  0  0  0  0  0  0
   -0.5000   22.8070  -35.5340 H   0  0  0  0  0  0  0  0  0  0  0  0
    1.0940   21.4282  -36.6150 H   0  0  0  0  0  0  0  0  0  0  0  0
    2.3731   22.1449  -35.5687 H   0  0  0  0  0  0  0  0  0  0  0  0
    1.5024   19.8937  -34.7968 H   0  0  0  0  0  0  0  0  0  0  0  0
    1.3734   21.2218  -33.5842 H   0  0  0  0  0  0  0  0  0  0  0  0
   -0.9108   20.5138  -35.4638 H   0  0  0  0  0  0  0  0  0  0  0  0
   -0.6580   19.6960  -33.8582 H   0  0  0  0  0  0  0  0  0  0  0  0
   -0.7776   20.7314  -32.1003 H   0  0  0  0  0  0  0  0  0  0  0  0
   -1.3567   22.5227  -32.1227 H   0  0  0  0  0  0  0  0  0  0  0  0
   -2.7940   20.1424  -31.5805 H   0  0  0  0  0  0  0  0  0  0  0  0
   -3.2266   21.8901  -31.4270 H   0  0  0  0  0  0  0  0  0  0  0  0
   -3.3680   21.2640  -34.2190 H   0  0  0  0  0  0  0  0  0  0  0  0
   -4.4654   23.0713  -32.6014 H   0  0  0  0  0  0  0  0  0  0  0  0
   -5.9791   24.8408  -31.7063 H   0  0  0  0  0  0  0  0  0  0  0  0
   -8.2990   24.1714  -31.0899 H   0  0  0  0  0  0  0  0  0  0  0  0
   -9.0779   21.8396  -31.3588 H   0  0  0  0  0  0  0  0  0  0  0  0
   -9.0867   19.3982  -30.8333 H   0  0  0  0  0  0  0  0  0  0  0  0
   -9.7303   20.1271  -32.3436 H   0  0  0  0  0  0  0  0  0  0  0  0
   -9.1483   18.4277  -32.3436 H   0  0  0  0  0  0  0  0  0  0  0  0
   -8.3091   17.3903  -32.6704 H   0  0  0  0  0  0  0  0  0  0  0  0
   -6.8449   15.6146  -33.6386 H   0  0  0  0  0  0  0  0  0  0  0  0
   -4.5208   16.2494  -34.2696 H   0  0  0  0  0  0  0  0  0  0  0  0
  1  2  1  0
  2  3  1  0
  3  4  1  0
  4  5  1  0
  5  6  1  0
  6  7  1  0
  7  8  1  0
  8  9  1  0
  9 10  1  0
 10 11  1  0
 11 12  2  0
 12 13  1  0
 13 14  2  0
 14 15  1  0
 15 16  2  0
 16 17  1  0
 17 18  2  0
 18 19  1  0
 18 20  1  0
 20 21  2  0
 21 22  1  0
 22 23  2  0
 23 24  1  0
 24 25  1  0
 24 26  2  0
 26 11  1  0
 17 12  1  0
 26 20  1  0
  1 27  1  0
  1 28  1  0
  1 29  1  0
  2 30  1  0
  2 31  1  0
  3 32  1  0
  4 33  1  0
  4 34  1  0
  5 35  1  0
  5 36  1  0
  6 37  1  0
  6 38  1  0
  8 39  1  0
  8 40  1  0
  9 41  1  0
  9 42  1  0
 10 43  1  0
 13 44  1  0
 14 45  1  0
 15 46  1  0
 16 47  1  0
 19 48  1  0
 19 49  1  0
 19 50  1  0
 21 51  1  0
 22 52  1  0
 23 53  1  0
M  CHG  1  18   1
M  END
>  <smiles>  (7) 
CCNCCCOCCNc1c2ccccc2[n+](C)c2cccc(Cl)c12

>  <score_type>  (7) 
oracle

>  <origin>  (7) 
adg

>  <m_score__min__energy>  (7) 
-9.4000000000000004

>  <m_primary>  (7) 
energy

$$$$
8:0
     RDKit          3D

 46 47  0  0  0  0  0  0  0  0999 V2000
   -4.9150   17.4220  -35.3110 C   0  0  0  0  0  0  0  0  0  0  0  0
   -5.7840   18.5310  -34.7850 C   0  0  0  0  0  0  0  0  0  0  0  0
   -5.8770   18.5530  -33.4010 N   0  0  0  0  0  0  0  0  0  0  0  0
   -4.9910   19.2380  -32.5710 C   0  0  0  0  0  0  0  0  0  0  0  0
   -3.8470   19.8560  -33.3170 C   0  0  0  0  0  0  0  0  0  0  0  0
   -6.6220   17.4900  -32.7780 C   0  0  0  0  0  0  0  0  0  0  0  0
   -7.7760   18.1080  -32.0290 C   0  0  0  0  0  0  0  0  0  0  0  0
   -8.0060   19.4140  -32.6590 N   0  0  0  0  0  0  0  0  0  0  0  0
   -8.3940   20.5600  -31.9370 C   0  0  0  0  0  0  0  0  0  0  0  0
   -9.4390   20.6770  -31.1050 N   0  0  0  0  0  0  0  0  0  0  0  0
   -9.4390   21.9140  -30.6460 N   0  0  0  0  0  0  0  0  0  0  0  0
   -8.4180   22.5630  -31.1790 N   0  0  0  0  0  0  0  0  0  0  0  0
   -7.7590   21.7370  -31.9820 N   0  0  0  0  0  0  0  0  0  0  0  0
   -6.5850   22.1490  -32.7200 C   0  0  0  0  0  0  0  0  0  0  0  0
   -5.7200   23.0030  -31.8690 C   0  0  0  0  0  0  0  0  0  0  0  0
   -6.0550   24.2460  -31.4280 C   0  0  0  0  0  0  0  0  0  0  0  0
   -5.1860   24.9660  -30.6420 C   0  0  0  0  0  0  0  0  0  0  0  0
   -3.9470   24.4880  -30.2600 C   0  0  0  0  0  0  0  0  0  0  0  0
   -3.0910   25.2380  -29.4680 O   0  0  0  0  0  0  0  0  0  0  0  0
   -2.4120   24.6530  -28.4010 C   0  0  0  0  0  0  0  0  0  0  0  0
   -3.6000   23.2110  -30.7110 C   0  0  0  0  0  0  0  0  0  0  0  0
   -4.4840   22.5010  -31.4990 C   0  0  0  0  0  0  0  0  0  0  0  0
   -4.4794   16.8661  -34.4677 H   0  0  0  0  0  0  0  0  0  0  0  0
   -5.5219   16.7404  -35.9250 H   0  0  0  0  0  0  0  0  0  0  0  0
   -4.1080   17.8483  -35.9250 H   0  0  0  0  0  0  0  0  0  0  0  0
   -5.3647   19.4909  -35.1209 H   0  0  0  0  0  0  0  0  0  0  0  0
   -6.7983   18.3592  -35.1744 H   0  0  0  0  0  0  0  0  0  0  0  0
   -5.5427   20.0357  -32.0521 H   0  0  0  0  0  0  0  0  0  0  0  0
   -4.5675   18.5063  -31.8673 H   0  0  0  0  0  0  0  0  0  0  0  0
   -3.1131   20.2525  -32.5999 H   0  0  0  0  0  0  0  0  0  0  0  0
   -3.3673   19.0943  -33.9492 H   0  0  0  0  0  0  0  0  0  0  0  0
   -4.2211   20.6747  -33.9492 H   0  0  0  0  0  0  0  0  0  0  0  0
   -7.0018   16.8001  -33.5460 H   0  0  0  0  0  0  0  0  0  0  0  0
   -5.9778   16.9241  -32.0890 H   0  0  0  0  0  0  0  0  0  0  0  0
   -8.6724   17.4766  -32.1172 H   0  0  0  0  0  0  0  0  0  0  0  0
   -7.5558   18.2085  -30.9560 H   0  0  0  0  0  0  0  0  0  0  0  0
   -7.8660   19.4460  -33.6940 H   0  0  0  0  0  0  0  0  0  0  0  0
   -6.0210   21.2580  -33.0330 H   0  0  0  0  0  0  0  0  0  0  0  0
   -6.8992   22.7234  -33.6039 H   0  0  0  0  0  0  0  0  0  0  0  0
   -7.0286   24.6783  -31.7024 H   0  0  0  0  0  0  0  0  0  0  0  0
   -5.4908   25.9669  -30.3023 H   0  0  0  0  0  0  0  0  0  0  0  0
   -2.8350   25.0174  -27.4532 H   0  0  0  0  0  0  0  0  0  0  0  0
   -2.5188   23.5595  -28.4538 H   0  0  0  0  0  0  0  0  0  0  0  0
   -1.3463   24.9203  -28.4538 H   0  0  0  0  0  0  0  0  0  0  0  0
   -2.6277   22.7741  -30.4395 H   0  0  0  0  0  0  0  0  0  0  0  0
   -4.1951   21.4980  -31.8461 H   0  0  0  0  0  0  0  0  0  0  0  0
  1  2  1  0
  2  3  1  0
  3  4  1  0
  4  5  1  0
  3  6  1  0
  6  7  1  0
  7  8  1  0
  8  9  1  0
  9 10  2  0
 10 11  1  0
 11 12  2  0
 12 13  1  0
 13 14  1  0
 14 15  1  0
 15 16  2  0
 16 17  1  0
 17 18  2  0
 18 19  1  0
 19 20  1  0
 18 21  1  0
 21 22  2  0
 13  9  1  0
 22 15  1  0
  1 23  1  0
  1 24  1  0
  1 25  1  0
  2 26  1  0
  2 27  1  0
  4 28  1  0
  4 29  1  0
  5 30  1  0
  5 31  1  0
  5 32  1  0
  6 33  1  0
  6 34  1  0
  7 35  1  0
  7 36  1  0
  8 37  1  0
 14 38  1  0
 14 39  1  0
 16 40  1  0
 17 41  1  0
 20 42  1  0
 20 43  1  0
 20 44  1  0
 21 45  1  0
 22 46  1  0
M  END
>  <smiles>  (8) 
CCN(CC)CCNc1nnnn1Cc1ccc(OC)cc1

>  <score_type>  (8) 
oracle

>  <origin>  (8) 
adg

>  <m_score__min__energy>  (8) 
-7.4900000000000002

>  <m_primary>  (8) 
energy

$$$$
9:0
     RDKit          3D

 53 55  0  0  0  0  0  0  0  0999 V2000
   -6.3030   15.1260  -34.1910 C   0  0  0  0  0  0  0  0  0  0  0  0
   -6.0520   16.5510  -33.8920 C   0  0  0  0  0  0  0  0  0  0  0  0
   -4.8250   17.1180  -34.1350 C   0  0  0  0  0  0  0  0  0  0  0  0
   -4.5200   18.4440  -33.8790 C   0  0  0  0  0  0  0  0  0  0  0  0
   -3.1480   18.9070  -34.1700 C   0  0  0  0  0  0  0  0  0  0  0  0
   -5.5230   19.2250  -33.3490 C   0  0  0  0  0  0  0  0  0  0  0  0
   -5.2510   20.5430  -33.0760 C   0  0  0  0  0  0  0  0  0  0  0  0
   -4.0640   21.2310  -33.3100 N   0  0  0  0  0  0  0  0  0  0  0  0
   -3.0910   21.3000  -32.2140 C   0  0  0  0  0  0  0  0  0  0  0  0
   -3.1030   22.6670  -31.5780 C   0  0  0  0  0  0  0  0  0  0  0  0
   -3.9120   22.6810  -30.3060 C   0  0  0  0  0  0  0  0  0  0  0  0
   -3.9980   24.0080  -29.7880 N   0  0  0  0  0  0  0  0  0  0  0  0
   -4.9130   24.8810  -30.4450 C   0  0  0  0  0  0  0  0  0  0  0  0
   -4.1290   24.0870  -28.3660 C   0  0  0  0  0  0  0  0  0  0  0  0
   -6.3070   21.2880  -32.5270 C   0  0  0  0  0  0  0  0  0  0  0  0
   -7.5330   20.7100  -32.2850 C   0  0  0  0  0  0  0  0  0  0  0  0
   -7.7920   19.4020  -32.5620 N   0  0  0  0  0  0  0  0  0  0  0  0
   -9.1150   18.9380  -32.2800 C   0  0  0  0  0  0  0  0  0  0  0  0
   -6.7930   18.6750  -33.0870 C   0  0  0  0  0  0  0  0  0  0  0  0
   -7.0500   17.3530  -33.3570 C   0  0  0  0  0  0  0  0  0  0  0  0
   -8.5510   21.5840  -31.6810 C   0  0  0  0  0  0  0  0  0  0  0  0
   -9.3930   21.0630  -30.8940 O   0  0  0  0  0  0  0  0  0  0  0  0
   -8.5780   23.0580  -31.9990 C   0  0  0  0  0  0  0  0  0  0  0  0
   -7.2160   23.5830  -32.2720 C   0  0  0  0  0  0  0  0  0  0  0  0
   -6.1710   22.6290  -32.2030 O   0  0  0  0  0  0  0  0  0  0  0  0
   -6.4017   14.5657  -33.2496 H   0  0  0  0  0  0  0  0  0  0  0  0
   -7.2316   15.0315  -34.7730 H   0  0  0  0  0  0  0  0  0  0  0  0
   -5.4626   14.7199  -34.7730 H   0  0  0  0  0  0  0  0  0  0  0  0
   -4.0361   16.4794  -34.5591 H   0  0  0  0  0  0  0  0  0  0  0  0
   -2.6138   19.0873  -33.2255 H   0  0  0  0  0  0  0  0  0  0  0  0
   -2.6170   18.1383  -34.7506 H   0  0  0  0  0  0  0  0  0  0  0  0
   -3.1914   19.8403  -34.7506 H   0  0  0  0  0  0  0  0  0  0  0  0
   -3.7690   21.6780  -34.2160 H   0  0  0  0  0  0  0  0  0  0  0  0
   -3.3474   20.5461  -31.4551 H   0  0  0  0  0  0  0  0  0  0  0  0
   -2.0868   21.1065  -32.6190 H   0  0  0  0  0  0  0  0  0  0  0  0
   -2.0689   22.9619  -31.3464 H   0  0  0  0  0  0  0  0  0  0  0  0
   -3.5637   23.3715  -32.2861 H   0  0  0  0  0  0  0  0  0  0  0  0
   -4.9250   22.3072  -30.5161 H   0  0  0  0  0  0  0  0  0  0  0  0
   -3.4196   22.0377  -29.5618 H   0  0  0  0  0  0  0  0  0  0  0  0
   -5.4943   25.4357  -29.6937 H   0  0  0  0  0  0  0  0  0  0  0  0
   -4.3555   25.5904  -31.0742 H   0  0  0  0  0  0  0  0  0  0  0  0
   -5.5955   24.2908  -31.0742 H   0  0  0  0  0  0  0  0  0  0  0  0
   -3.2796   23.5748  -27.8905 H   0  0  0  0  0  0  0  0  0  0  0  0
   -4.1403   25.1426  -28.0569 H   0  0  0  0  0  0  0  0  0  0  0  0
   -5.0679   23.6044  -28.0569 H   0  0  0  0  0  0  0  0  0  0  0  0
   -9.2612   18.8867  -31.1910 H   0  0  0  0  0  0  0  0  0  0  0  0
   -9.8479   19.6327  -32.7161 H   0  0  0  0  0  0  0  0  0  0  0  0
   -9.2535   17.9377  -32.7161 H   0  0  0  0  0  0  0  0  0  0  0  0
   -8.0445   16.9311  -33.1496 H   0  0  0  0  0  0  0  0  0  0  0  0
   -9.2077   23.2204  -32.8862 H   0  0  0  0  0  0  0  0  0  0  0  0
   -8.9839   23.5910  -31.1265 H   0  0  0  0  0  0  0  0  0  0  0  0
   -7.2153   24.0143  -33.2839 H   0  0  0  0  0  0  0  0  0  0  0  0
   -7.0095   24.3161  -31.4783 H   0  0  0  0  0  0  0  0  0  0  0  0
  1  2  1  0
  2  3  2  0
  3  4  1  0
  4  5  1  0
  4  6  2  0
  6  7  1  0
  7  8  1  0
  8  9  1  0
  9 10  1  0
 10 11  1  0
 11 12  1  0
 12 13  1  0
 12 14  1  0
  7 15  2  0
 15 16  1  0
 16 17  2  0
 17 18  1  0
 17 19  1  0
 19 20  2  0
 16 21  1  0
 21 22  2  0
 21 23  1  0
 23 24  1  0
 24 25  1  0
 20  2  1  0
 19  6  1  0
 25 15  1  0
  1 26  1  0
  1 27  1  0
  1 28  1  0
  3 29  1  0
  5 30  1  0
  5 31  1  0
  5 32  1  0
  8 33  1  0
  9 34  1  0
  9 35  1  0
 10 36  1  0
 10 37  1  0
 11 38  1  0
 11 39  1  0
 13 40  1  0
 13 41  1  0
 13 42  1  0
 14 43  1  0
 14 44  1  0
 14 45  1  0
 18 46  1  0
 18 47  1  0
 18 48  1  0
 20 49  1  0
 23 50  1  0
 23 51  1  0
 24 52  1  0
 24 53  1  0
M  CHG  1  17   1
M  END
>  <smiles>  (9) 
Cc1cc(C)c2c(NCCCN(C)C)c3c([n+](C)c2c1)C(=O)CCO3

>  <score_type>  (9) 
oracle

>  <origin>  (9) 
adg

>  <m_score__min__energy>  (9) 
-7.9500000000000002

>  <m_primary>  (9) 
energy

$$$$
10:0
     RDKit          3D

 43 45  0  0  0  0  0  0  0  0999 V2000
   -1.2790   19.5540  -34.2290 C   0  0  0  0  0  0  0  0  0  0  0  0
   -1.2130   20.9610  -33.8870 N   0  0  0  0  0  0  0  0  0  0  0  0
   -0.1270   21.5480  -34.6250 C   0  0  0  0  0  0  0  0  0  0  0  0
   -1.1150   21.1850  -32.4490 C   0  0  0  0  0  0  0  0  0  0  0  0
   -2.4440   21.6700  -31.9810 C   0  0  0  0  0  0  0  0  0  0  0  0
   -3.4660   21.7540  -32.9990 N   0  0  0  0  0  0  0  0  0  0  0  0
   -4.7920   21.4810  -32.6270 C   0  0  0  0  0  0  0  0  0  0  0  0
   -5.6050   22.3310  -31.9130 C   0  0  0  0  0  0  0  0  0  0  0  0
   -6.9050   21.9900  -31.6110 C   0  0  0  0  0  0  0  0  0  0  0  0
   -7.3970   20.8070  -32.0150 N   0  0  0  0  0  0  0  0  0  0  0  0
   -8.7790   20.4470  -31.6920 C   0  0  0  0  0  0  0  0  0  0  0  0
   -6.6590   19.9330  -32.7130 C   0  0  0  0  0  0  0  0  0  0  0  0
   -7.2180   18.7370  -33.0980 C   0  0  0  0  0  0  0  0  0  0  0  0
   -6.4800   17.8340  -33.8100 C   0  0  0  0  0  0  0  0  0  0  0  0
   -5.1670   18.1300  -34.1390 C   0  0  0  0  0  0  0  0  0  0  0  0
   -4.6110   19.3520  -33.7400 C   0  0  0  0  0  0  0  0  0  0  0  0
   -5.3560   20.2730  -33.0180 C   0  0  0  0  0  0  0  0  0  0  0  0
   -7.5700   23.0760  -30.8440 C   0  0  0  0  0  0  0  0  0  0  0  0
   -6.6430   24.2740  -30.9080 C   0  0  0  0  0  0  0  0  0  0  0  0
   -5.3640   23.6430  -31.3290 C   0  0  0  0  0  0  0  0  0  0  0  0
   -4.2380   24.1570  -31.2030 O   0  0  0  0  0  0  0  0  0  0  0  0
   -1.3072   18.9537  -33.3077 H   0  0  0  0  0  0  0  0  0  0  0  0
   -2.1871   19.3624  -34.8194 H   0  0  0  0  0  0  0  0  0  0  0  0
   -0.3928   19.2782  -34.8194 H   0  0  0  0  0  0  0  0  0  0  0  0
    0.6180   21.9507  -33.9230 H   0  0  0  0  0  0  0  0  0  0  0  0
    0.3429   20.7810  -35.2582 H   0  0  0  0  0  0  0  0  0  0  0  0
   -0.5113   22.3612  -35.2582 H   0  0  0  0  0  0  0  0  0  0  0  0
   -0.8570   20.2451  -31.9390 H   0  0  0  0  0  0  0  0  0  0  0  0
   -0.3313   21.9233  -32.2239 H   0  0  0  0  0  0  0  0  0  0  0  0
   -2.7997   20.9834  -31.1987 H   0  0  0  0  0  0  0  0  0  0  0  0
   -2.2838   22.6988  -31.6263 H   0  0  0  0  0  0  0  0  0  0  0  0
   -3.2580   22.0060  -33.9800 H   0  0  0  0  0  0  0  0  0  0  0  0
   -8.9037   20.4145  -30.5996 H   0  0  0  0  0  0  0  0  0  0  0  0
   -9.4622   21.1972  -32.1169 H   0  0  0  0  0  0  0  0  0  0  0  0
   -9.0094   19.4589  -32.1169 H   0  0  0  0  0  0  0  0  0  0  0  0
   -8.2604   18.5070  -32.8325 H   0  0  0  0  0  0  0  0  0  0  0  0
   -6.9258   16.8774  -34.1203 H   0  0  0  0  0  0  0  0  0  0  0  0
   -4.5643   17.4089  -34.7107 H   0  0  0  0  0  0  0  0  0  0  0  0
   -3.5686   19.5848  -34.0029 H   0  0  0  0  0  0  0  0  0  0  0  0
   -8.5416   23.3220  -31.2972 H   0  0  0  0  0  0  0  0  0  0  0  0
   -7.7582   22.7722  -29.8037 H   0  0  0  0  0  0  0  0  0  0  0  0
   -6.9897   25.0102  -31.6481 H   0  0  0  0  0  0  0  0  0  0  0  0
   -6.5744   24.8365  -29.9652 H   0  0  0  0  0  0  0  0  0  0  0  0
  1  2  1  0
  2  3  1  0
  2  4  1  0
  4  5  1  0
  5  6  1  0
  6  7  1  0
  7  8  2  0
  8  9  1  0
  9 10  2  0
 10 11  1  0
 10 12  1  0
 12 13  2  0
 13 14  1  0
 14 15  2  0
 15 16  1  0
 16 17  2  0
  9 18  1  0
 18 19  1  0
 19 20  1  0
 20 21  2  0
 17  7  1  0
 20  8  1  0
 17 12  1  0
  1 22  1  0
  1 23  1  0
  1 24  1  0
  3 25  1  0
  3 26  1  0
  3 27  1  0
  4 28  1  0
  4 29  1  0
  5 30  1  0
  5 31  1  0
  6 32  1  0
 11 33  1  0
 11 34  1  0
 11 35  1  0
 13 36  1  0
 14 37  1  0
 15 38  1  0
 16 39  1  0
 18 40  1  0
 18 41  1  0
 19 42  1  0
 19 43  1  0
M  CHG  1  10   1
M  END
>  <smiles>  (10) 
CN(C)CCNc1c2c([n+](C)c3ccccc13)CCC2=O

>  <score_type>  (10) 
oracle

>  <origin>  (10) 
adg

>  <m_score__min__energy>  (10) 
-7.4400000000000004

>  <m_primary>  (10) 
energy

$$$$
11:0
     RDKit          3D

 59 61  0  0  0  0  0  0  0  0999 V2000
   -6.9880   23.9460  -30.1980 C   0  0  0  0  0  0  0  0  0  0  0  0
   -6.0430   24.9600  -29.6580 C   0  0  0  0  0  0  0  0  0  0  0  0
   -5.2350   25.6620  -30.7570 C   0  0  0  0  0  0  0  0  0  0  0  0
   -3.8800   25.2730  -30.5360 N   0  0  0  0  0  0  0  0  0  0  0  0
   -3.6620   24.2480  -29.5690 C   0  0  0  0  0  0  0  0  0  0  0  0
   -2.7580   23.1480  -30.0340 C   0  0  0  0  0  0  0  0  0  0  0  0
   -3.4900   22.1260  -30.8660 C   0  0  0  0  0  0  0  0  0  0  0  0
   -4.5070   22.6870  -31.8030 C   0  0  0  0  0  0  0  0  0  0  0  0
   -4.6180   21.9110  -33.0320 N   0  0  0  0  0  0  0  0  0  0  0  0
   -5.2000   20.6120  -33.0750 C   0  0  0  0  0  0  0  0  0  0  0  0
   -6.5130   20.3590  -32.7350 C   0  0  0  0  0  0  0  0  0  0  0  0
   -7.2930   21.4270  -32.3480 C   0  0  0  0  0  0  0  0  0  0  0  0
   -8.6180   21.3130  -31.9870 C   0  0  0  0  0  0  0  0  0  0  0  0
   -9.1680   20.0560  -32.0240 C   0  0  0  0  0  0  0  0  0  0  0  0
   -8.3890   18.9590  -32.4160 C   0  0  0  0  0  0  0  0  0  0  0  0
   -7.0840   19.1110  -32.7650 C   0  0  0  0  0  0  0  0  0  0  0  0
   -6.3630   18.0480  -33.1380 N   0  0  0  0  0  0  0  0  0  0  0  0
   -6.8400   16.7010  -33.2070 C   0  0  0  0  0  0  0  0  0  0  0  0
   -5.0530   18.2400  -33.4880 C   0  0  0  0  0  0  0  0  0  0  0  0
   -4.2950   17.1510  -33.8900 C   0  0  0  0  0  0  0  0  0  0  0  0
   -2.9760   17.2480  -34.2710 C   0  0  0  0  0  0  0  0  0  0  0  0
   -2.3950   18.5200  -34.2420 C   0  0  0  0  0  0  0  0  0  0  0  0
   -3.1180   19.6240  -33.8480 C   0  0  0  0  0  0  0  0  0  0  0  0
   -2.5630   20.8830  -33.8170 O   0  0  0  0  0  0  0  0  0  0  0  0
   -1.2290   21.0600  -33.4180 C   0  0  0  0  0  0  0  0  0  0  0  0
   -0.2570   21.2430  -34.5430 C   0  0  0  0  0  0  0  0  0  0  0  0
   -4.4620   19.4860  -33.4660 C   0  0  0  0  0  0  0  0  0  0  0  0
   -7.4776   23.4206  -29.3648 H   0  0  0  0  0  0  0  0  0  0  0  0
   -7.7496   24.4461  -30.8143 H   0  0  0  0  0  0  0  0  0  0  0  0
   -6.4356   23.2214  -30.8143 H   0  0  0  0  0  0  0  0  0  0  0  0
   -6.6180   25.7178  -29.1057 H   0  0  0  0  0  0  0  0  0  0  0  0
   -5.3297   24.4348  -29.0058 H   0  0  0  0  0  0  0  0  0  0  0  0
   -5.5723   25.3349  -31.7516 H   0  0  0  0  0  0  0  0  0  0  0  0
   -5.3586   26.7545  -30.7220 H   0  0  0  0  0  0  0  0  0  0  0  0
   -3.4300   25.0750  -31.4500 H   0  0  0  0  0  0  0  0  0  0  0  0
   -3.2153   24.7068  -28.6746 H   0  0  0  0  0  0  0  0  0  0  0  0
   -4.6413   23.7890  -29.3684 H   0  0  0  0  0  0  0  0  0  0  0  0
   -1.9499   23.5849  -30.6390 H   0  0  0  0  0  0  0  0  0  0  0  0
   -2.3596   22.6381  -29.1444 H   0  0  0  0  0  0  0  0  0  0  0  0
   -2.7468   21.5738  -31.4598 H   0  0  0  0  0  0  0  0  0  0  0  0
   -4.0420   21.4910  -30.1574 H   0  0  0  0  0  0  0  0  0  0  0  0
   -5.4852   22.6938  -31.2999 H   0  0  0  0  0  0  0  0  0  0  0  0
   -4.1871   23.7035  -32.0758 H   0  0  0  0  0  0  0  0  0  0  0  0
   -4.2600   22.3120  -33.9250 H   0  0  0  0  0  0  0  0  0  0  0  0
   -6.8325   22.4257  -32.3260 H   0  0  0  0  0  0  0  0  0  0  0  0
   -9.2083   22.1899  -31.6829 H   0  0  0  0  0  0  0  0  0  0  0  0
  -10.2220   19.9094  -31.7455 H   0  0  0  0  0  0  0  0  0  0  0  0
   -8.8417   17.9568  -32.4418 H   0  0  0  0  0  0  0  0  0  0  0  0
   -6.9789   16.3086  -32.1888 H   0  0  0  0  0  0  0  0  0  0  0  0
   -7.8005   16.6791  -33.7426 H   0  0  0  0  0  0  0  0  0  0  0  0
   -6.1073   16.0795  -33.7426 H   0  0  0  0  0  0  0  0  0  0  0  0
   -4.7716   16.1597  -33.9052 H   0  0  0  0  0  0  0  0  0  0  0  0
   -2.4032   16.3629  -34.5849 H   0  0  0  0  0  0  0  0  0  0  0  0
   -1.3427   18.6406  -34.5389 H   0  0  0  0  0  0  0  0  0  0  0  0
   -1.1794   21.9506  -32.7743 H   0  0  0  0  0  0  0  0  0  0  0  0
   -0.9345   20.1348  -32.9011 H   0  0  0  0  0  0  0  0  0  0  0  0
    0.7463   21.4319  -34.1336 H   0  0  0  0  0  0  0  0  0  0  0  0
   -0.2356   20.3331  -35.1608 H   0  0  0  0  0  0  0  0  0  0  0  0
   -0.5680   22.0984  -35.1608 H   0  0  0  0  0  0  0  0  0  0  0  0
  1  2  1  0
  2  3  1  0
  3  4  1  0
  4  5  1  0
  5  6  1  0
  6  7  1  0
  7  8  1  0
  8  9  1  0
  9 10  1  0
 10 11  2  0
 11 12  1  0
 12 13  2  0
 13 14  1  0
 14 15  2  0
 15 16  1  0
 16 17  2  0
 17 18  1  0
 17 19  1  0
 19 20  2  0
 20 21  1  0
 21 22  2  0
 22 23  1  0
 23 24  1  0
 24 25  1  0
 25 26  1  0
 23 27  2  0
 27 10  1  0
 16 11  1  0
 27 19  1  0
  1 28  1  0
  1 29  1  0
  1 30  1  0
  2 31  1  0
  2 32  1  0
  3 33  1  0
  3 34  1  0
  4 35  1  0
  5 36  1  0
  5 37  1  0
  6 38  1  0
  6 39  1  0
  7 40  1  0
  7 41  1  0
  8 42  1  0
  8 43  1  0
  9 44  1  0
 12 45  1  0
 13 46  1  0
 14 47  1  0
 15 48  1  0
 18 49  1  0
 18 50  1  0
 18 51  1  0
 20 52  1  0
 21 53  1  0
 22 54  1  0
 25 55  1  0
 25 56  1  0
 26 57  1  0
 26 58  1  0
 26 59  1  0
M  CHG  1  17   1
M  END
>  <smiles>  (11) 
CCCNCCCCNc1c2ccccc2[n+](C)c2cccc(OCC)c12

>  <score_type>  (11) 
oracle

>  <origin>  (11) 
adg

>  <m_score__min__energy>  (11) 
-8.8300000000000001

>  <m_primary>  (11) 
energy

$$$$
12:0
     RDKit          3D

 42 42  0  0  0  0  0  0  0  0999 V2000
   -1.6620   26.0210  -26.4270 C   0  0  0  0  0  0  0  0  0  0  0  0
   -1.1450   26.0150  -27.8410 C   0  0  0  0  0  0  0  0  0  0  0  0
   -1.8660   25.0540  -28.6270 N   0  0  0  0  0  0  0  0  0  0  0  0
   -0.8970   24.1520  -29.3080 C   0  0  0  0  0  0  0  0  0  0  0  0
   -0.4190   23.0500  -28.4310 C   0  0  0  0  0  0  0  0  0  0  0  0
   -2.8110   24.2330  -27.9340 C   0  0  0  0  0  0  0  0  0  0  0  0
   -3.8480   23.4980  -28.6640 C   0  0  0  0  0  0  0  0  0  0  0  0
   -5.0270   24.3090  -28.5710 O   0  0  0  0  0  0  0  0  0  0  0  0
   -5.4900   24.7250  -30.1000 S   0  0  0  0  0  0  0  0  0  0  0  0
   -4.2740   25.2450  -30.8530 O   0  0  0  0  0  0  0  0  0  0  0  0
   -6.4900   25.8520  -30.1140 O   0  0  0  0  0  0  0  0  0  0  0  0
   -6.0860   23.3740  -31.0130 C   0  0  0  0  0  0  0  0  0  0  0  0
   -7.4290   23.0320  -31.0720 C   0  0  0  0  0  0  0  0  0  0  0  0
   -7.7610   21.9310  -31.8280 C   0  0  0  0  0  0  0  0  0  0  0  0
   -9.4260   21.4030  -31.9680 Cl  0  0  0  0  0  0  0  0  0  0  0  0
   -6.8110   21.1760  -32.5170 C   0  0  0  0  0  0  0  0  0  0  0  0
   -7.2110   20.0270  -33.2940 N   0  0  0  0  0  0  0  0  0  0  0  0
   -5.4700   21.5250  -32.4540 C   0  0  0  0  0  0  0  0  0  0  0  0
   -5.1400   22.6150  -31.7050 C   0  0  0  0  0  0  0  0  0  0  0  0
   -3.8090   22.9840  -31.6300 O   0  0  0  0  0  0  0  0  0  0  0  0
   -2.7060   22.1360  -31.6070 C   0  0  0  0  0  0  0  0  0  0  0  0
   -0.8140   26.0112  -25.7265 H   0  0  0  0  0  0  0  0  0  0  0  0
   -2.2645   26.9262  -26.2607 H   0  0  0  0  0  0  0  0  0  0  0  0
   -2.2853   25.1300  -26.2607 H   0  0  0  0  0  0  0  0  0  0  0  0
   -1.2753   27.0151  -28.2801 H   0  0  0  0  0  0  0  0  0  0  0  0
   -0.0786   25.7453  -27.8328 H   0  0  0  0  0  0  0  0  0  0  0  0
   -1.3864   23.7122  -30.1895 H   0  0  0  0  0  0  0  0  0  0  0  0
   -0.0213   24.7569  -29.5859 H   0  0  0  0  0  0  0  0  0  0  0  0
   -0.5445   23.3394  -27.3772 H   0  0  0  0  0  0  0  0  0  0  0  0
   -1.0035   22.1404  -28.6336 H   0  0  0  0  0  0  0  0  0  0  0  0
    0.6445   22.8552  -28.6336 H   0  0  0  0  0  0  0  0  0  0  0  0
   -2.2273   23.4834  -27.3796 H   0  0  0  0  0  0  0  0  0  0  0  0
   -3.3936   24.9668  -27.3577 H   0  0  0  0  0  0  0  0  0  0  0  0
   -3.5558   23.3630  -29.7159 H   0  0  0  0  0  0  0  0  0  0  0  0
   -4.0086   22.4935  -28.2456 H   0  0  0  0  0  0  0  0  0  0  0  0
   -8.1944   23.6147  -30.5384 H   0  0  0  0  0  0  0  0  0  0  0  0
   -7.0340   19.0640  -32.9630 H   0  0  0  0  0  0  0  0  0  0  0  0
   -7.6910   20.1450  -34.2190 H   0  0  0  0  0  0  0  0  0  0  0  0
   -4.7028   20.9448  -32.9876 H   0  0  0  0  0  0  0  0  0  0  0  0
   -2.4289   21.9230  -30.5640 H   0  0  0  0  0  0  0  0  0  0  0  0
   -2.9560   21.1953  -32.1194 H   0  0  0  0  0  0  0  0  0  0  0  0
   -1.8611   22.6194  -32.1194 H   0  0  0  0  0  0  0  0  0  0  0  0
  1  2  1  0
  2  3  1  0
  3  4  1  0
  4  5  1  0
  3  6  1  0
  6  7  1  0
  7  8  1  0
  8  9  1  0
  9 10  2  0
  9 11  2  0
  9 12  1  0
 12 13  2  0
 13 14  1  0
 14 15  1  0
 14 16  2  0
 16 17  1  0
 16 18  1  0
 18 19  2  0
 19 20  1  0
 20 21  1  0
 19 12  1  0
  1 22  1  0
  1 23  1  0
  1 24  1  0
  2 25  1  0
  2 26  1  0
  4 27  1  0
  4 28  1  0
  5 29  1  0
  5 30  1  0
  5 31  1  0
  6 32  1  0
  6 33  1  0
  7 34  1  0
  7 35  1  0
 13 36  1  0
 17 37  1  0
 17 38  1  0
 18 39  1  0
 21 40  1  0
 21 41  1  0
 21 42  1  0
M  END
>  <smiles>  (12) 
CCN(CC)CCOS(=O)(=O)c1cc(Cl)c(N)cc1OC

>  <score_type>  (12) 
oracle

>  <origin>  (12) 
adg

>  <m_score__min__energy>  (12) 
-7.0899999999999999

>  <m_primary>  (12) 
energy

$$$$
13:0
     RDKit          3D

 52 55  0  0  0  0  0  0  0  0999 V2000
   -3.0990   20.7200  -28.1650 C   0  0  0  0  0  0  0  0  0  0  0  0
   -3.4030   21.9280  -28.8840 N   0  0  0  0  0  0  0  0  0  0  0  0
   -4.4740   22.6910  -28.2780 C   0  0  0  0  0  0  0  0  0  0  0  0
   -4.1600   24.1680  -28.2750 C   0  0  0  0  0  0  0  0  0  0  0  0
   -3.6180   24.6480  -29.5300 N   0  0  0  0  0  0  0  0  0  0  0  0
   -4.6260   25.1160  -30.4230 C   0  0  0  0  0  0  0  0  0  0  0  0
   -6.0380   24.8510  -30.0980 C   0  0  0  0  0  0  0  0  0  0  0  0
   -6.6520   23.7300  -30.9220 C   0  0  0  0  0  0  0  0  0  0  0  0
   -5.7250   22.6510  -31.0260 N   0  0  0  0  0  0  0  0  0  0  0  0
   -5.7430   21.4440  -31.7230 C   0  0  0  0  0  0  0  0  0  0  0  0
   -4.5770   21.0540  -32.4000 C   0  0  0  0  0  0  0  0  0  0  0  0
   -3.4170   21.8160  -32.3150 C   0  0  0  0  0  0  0  0  0  0  0  0
   -2.2480   21.4250  -32.9820 C   0  0  0  0  0  0  0  0  0  0  0  0
   -2.1910   20.2830  -33.7410 C   0  0  0  0  0  0  0  0  0  0  0  0
   -3.3340   19.5270  -33.8260 C   0  0  0  0  0  0  0  0  0  0  0  0
   -4.4670   19.9250  -33.1680 C   0  0  0  0  0  0  0  0  0  0  0  0
   -5.5480   19.1420  -33.2800 N   0  0  0  0  0  0  0  0  0  0  0  0
   -5.4590   17.9230  -34.0970 C   0  0  0  0  0  0  0  0  0  0  0  0
   -6.6440   19.4970  -32.6500 C   0  0  0  0  0  0  0  0  0  0  0  0
   -8.1630   18.5580  -32.7220 S   0  0  0  0  0  0  0  0  0  0  0  0
   -9.0450   19.7860  -31.6170 C   0  0  0  0  0  0  0  0  0  0  0  0
   -8.0960   20.7290  -31.3410 C   0  0  0  0  0  0  0  0  0  0  0  0
   -6.8630   20.5950  -31.8610 C   0  0  0  0  0  0  0  0  0  0  0  0
   -2.6140   23.8180  -30.1070 C   0  0  0  0  0  0  0  0  0  0  0  0
   -2.2180   22.7740  -29.0820 C   0  0  0  0  0  0  0  0  0  0  0  0
   -3.1480   20.9148  -27.0835 H   0  0  0  0  0  0  0  0  0  0  0  0
   -3.8292   19.9415  -28.4308 H   0  0  0  0  0  0  0  0  0  0  0  0
   -2.0872   20.3798  -28.4308 H   0  0  0  0  0  0  0  0  0  0  0  0
   -5.4005   22.5225  -28.8466 H   0  0  0  0  0  0  0  0  0  0  0  0
   -4.5916   22.3583  -27.2361 H   0  0  0  0  0  0  0  0  0  0  0  0
   -5.0873   24.7203  -28.0627 H   0  0  0  0  0  0  0  0  0  0  0  0
   -3.3900   24.3327  -27.5069 H   0  0  0  0  0  0  0  0  0  0  0  0
   -4.5105   26.2073  -30.4982 H   0  0  0  0  0  0  0  0  0  0  0  0
   -4.4524   24.5426  -31.3455 H   0  0  0  0  0  0  0  0  0  0  0  0
   -6.1048   24.5777  -29.0346 H   0  0  0  0  0  0  0  0  0  0  0  0
   -6.6002   25.7675  -30.3304 H   0  0  0  0  0  0  0  0  0  0  0  0
   -7.5716   23.3769  -30.4324 H   0  0  0  0  0  0  0  0  0  0  0  0
   -6.8916   24.1046  -31.9281 H   0  0  0  0  0  0  0  0  0  0  0  0
   -4.8200   22.8390  -30.4560 H   0  0  0  0  0  0  0  0  0  0  0  0
   -3.4168   22.7385  -31.7159 H   0  0  0  0  0  0  0  0  0  0  0  0
   -1.3488   22.0526  -32.8945 H   0  0  0  0  0  0  0  0  0  0  0  0
   -1.2677   19.9856  -34.2598 H   0  0  0  0  0  0  0  0  0  0  0  0
   -3.3396   18.6025  -34.4221 H   0  0  0  0  0  0  0  0  0  0  0  0
   -5.3948   17.0442  -33.4386 H   0  0  0  0  0  0  0  0  0  0  0  0
   -6.3535   17.8410  -34.7319 H   0  0  0  0  0  0  0  0  0  0  0  0
   -4.5620   17.9718  -34.7319 H   0  0  0  0  0  0  0  0  0  0  0  0
  -10.0883   19.7551  -31.2697 H   0  0  0  0  0  0  0  0  0  0  0  0
   -8.3379   21.5894  -30.6998 H   0  0  0  0  0  0  0  0  0  0  0  0
   -3.0100   23.3251  -31.0071 H   0  0  0  0  0  0  0  0  0  0  0  0
   -1.7398   24.4212  -30.3931 H   0  0  0  0  0  0  0  0  0  0  0  0
   -1.3769   22.1716  -29.4558 H   0  0  0  0  0  0  0  0  0  0  0  0
   -1.8938   23.2388  -28.1392 H   0  0  0  0  0  0  0  0  0  0  0  0
  1  2  1  0
  2  3  1  0
  3  4  1  0
  4  5  1  0
  5  6  1  0
  6  7  1  0
  7  8  1  0
  8  9  1  0
  9 10  1  0
 10 11  1  0
 11 12  2  0
 12 13  1  0
 13 14  2  0
 14 15  1  0
 15 16  2  0
 16 17  1  0
 17 18  1  0
 17 19  2  0
 19 20  1  0
 20 21  1  0
 21 22  2  0
 22 23  1  0
  5 24  1  0
 24 25  1  0
 25  2  1  0
 23 10  2  0
 16 11  1  0
 23 19  1  0
  1 26  1  0
  1 27  1  0
  1 28  1  0
  3 29  1  0
  3 30  1  0
  4 31  1  0
  4 32  1  0
  6 33  1  0
  6 34  1  0
  7 35  1  0
  7 36  1  0
  8 37  1  0
  8 38  1  0
  9 39  1  0
 12 40  1  0
 13 41  1  0
 14 42  1  0
 15 43  1  0
 18 44  1  0
 18 45  1  0
 18 46  1  0
 21 47  1  0
 22 48  1  0
 24 49  1  0
 24 50  1  0
 25 51  1  0
 25 52  1  0
M  CHG  1  17   1
M  END
>  <smiles>  (13) 
CN1CCN(CCCNc2c3ccccc3[n+](C)c3sccc23)CC1

>  <score_type>  (13) 
oracle

>  <origin>  (13) 
adg

>  <m_score__min__energy>  (13) 
-8.9299999999999997

>  <m_primary>  (13) 
energy

$$$$
14:0
     RDKit          3D

 49 51  0  0  0  0  0  0  0  0999 V2000
   -5.4580   18.1490  -35.0540 C   0  0  0  0  0  0  0  0  0  0  0  0
   -6.3700   17.3550  -34.2020 C   0  0  0  0  0  0  0  0  0  0  0  0
   -6.1460   17.7000  -32.7170 N   0  0  0  0  0  0  0  0  0  0  0  0
   -6.9020   18.8070  -32.3880 C   0  0  0  0  0  0  0  0  0  0  0  0
   -5.4900   19.5820  -31.8790 C   0  0  0  0  0  0  0  0  0  0  0  0
   -5.4820   20.7870  -31.4030 C   0  0  0  0  0  0  0  0  0  0  0  0
   -6.5290   21.6370  -31.2190 C   0  0  0  0  0  0  0  0  0  0  0  0
   -7.7400   21.0480  -31.6260 C   0  0  0  0  0  0  0  0  0  0  0  0
   -7.5910   19.8170  -32.0890 C   0  0  0  0  0  0  0  0  0  0  0  0
   -9.4880   19.1430  -32.6400 Br  0  0  0  0  0  0  0  0  0  0  0  0
   -6.7610   22.9940  -30.7330 C   0  0  0  0  0  0  0  0  0  0  0  0
   -5.6910   23.9440  -31.2890 C   0  0  0  0  0  0  0  0  0  0  0  0
   -4.4000   23.5600  -30.8340 N   0  0  0  0  0  0  0  0  0  0  0  0
   -3.5340   24.5440  -30.3300 C   0  0  0  0  0  0  0  0  0  0  0  0
   -3.2870   24.5450  -28.8440 C   0  0  0  0  0  0  0  0  0  0  0  0
   -2.4860   23.3700  -28.5430 N   0  0  0  0  0  0  0  0  0  0  0  0
   -1.0800   23.3550  -28.7750 C   0  0  0  0  0  0  0  0  0  0  0  0
   -0.4300   24.4280  -28.8420 O   0  0  0  0  0  0  0  0  0  0  0  0
   -0.4530   22.0070  -28.9250 C   0  0  0  0  0  0  0  0  0  0  0  0
   -0.9920   21.0550  -28.0910 O   0  0  0  0  0  0  0  0  0  0  0  0
   -2.3460   20.9310  -28.1340 C   0  0  0  0  0  0  0  0  0  0  0  0
   -3.0870   22.1990  -28.0040 C   0  0  0  0  0  0  0  0  0  0  0  0
   -4.1960   22.2010  -27.4360 O   0  0  0  0  0  0  0  0  0  0  0  0
   -3.8010   22.5480  -31.6450 C   0  0  0  0  0  0  0  0  0  0  0  0
   -4.0520   21.1930  -31.0190 C   0  0  0  0  0  0  0  0  0  0  0  0
   -4.7814   18.7380  -34.4174 H   0  0  0  0  0  0  0  0  0  0  0  0
   -4.8674   17.4723  -35.6891 H   0  0  0  0  0  0  0  0  0  0  0  0
   -6.0469   18.8271  -35.6891 H   0  0  0  0  0  0  0  0  0  0  0  0
   -7.4113   17.5816  -34.4746 H   0  0  0  0  0  0  0  0  0  0  0  0
   -6.1656   16.2853  -34.3568 H   0  0  0  0  0  0  0  0  0  0  0  0
   -5.5030   17.0530  -32.3440 H   0  0  0  0  0  0  0  0  0  0  0  0
   -4.5358   19.0400  -31.9550 H   0  0  0  0  0  0  0  0  0  0  0  0
   -8.7123   21.5588  -31.5656 H   0  0  0  0  0  0  0  0  0  0  0  0
   -7.7546   23.3331  -31.0614 H   0  0  0  0  0  0  0  0  0  0  0  0
   -6.7087   22.9966  -29.6342 H   0  0  0  0  0  0  0  0  0  0  0  0
   -5.7125   23.9099  -32.3883 H   0  0  0  0  0  0  0  0  0  0  0  0
   -5.9035   24.9644  -30.9373 H   0  0  0  0  0  0  0  0  0  0  0  0
   -2.5613   24.4157  -30.8275 H   0  0  0  0  0  0  0  0  0  0  0  0
   -4.0389   25.4995  -30.5351 H   0  0  0  0  0  0  0  0  0  0  0  0
   -2.7444   25.4563  -28.5523 H   0  0  0  0  0  0  0  0  0  0  0  0
   -4.2367   24.5240  -28.2893 H   0  0  0  0  0  0  0  0  0  0  0  0
   -0.5867   21.6746  -29.9650 H   0  0  0  0  0  0  0  0  0  0  0  0
    0.6078   22.1117  -28.6535 H   0  0  0  0  0  0  0  0  0  0  0  0
   -2.6174   20.4731  -29.0966 H   0  0  0  0  0  0  0  0  0  0  0  0
   -2.6286   20.3166  -27.2664 H   0  0  0  0  0  0  0  0  0  0  0  0
   -4.2423   22.5751  -32.6522 H   0  0  0  0  0  0  0  0  0  0  0  0
   -2.7179   22.7261  -31.7171 H   0  0  0  0  0  0  0  0  0  0  0  0
   -3.3321   20.4572  -31.4067 H   0  0  0  0  0  0  0  0  0  0  0  0
   -3.9325   21.2340  -29.9263 H   0  0  0  0  0  0  0  0  0  0  0  0
  1  2  1  0
  2  3  1  0
  3  4  1  0
  4  5  2  0
  5  6  1  0
  6  7  2  0
  7  8  1  0
  8  9  2  0
  9 10  1  0
  7 11  1  0
 11 12  1  0
 12 13  1  0
 13 14  1  0
 14 15  1  0
 15 16  1  0
 16 17  1  0
 17 18  2  0
 17 19  1  0
 19 20  1  0
 20 21  1  0
 21 22  1  0
 22 23  2  0
 13 24  1  0
 24 25  1  0
  9  4  1  0
 22 16  1  0
 25  6  1  0
  1 26  1  0
  1 27  1  0
  1 28  1  0
  2 29  1  0
  2 30  1  0
  3 31  1  0
  5 32  1  0
  8 33  1  0
 11 34  1  0
 11 35  1  0
 12 36  1  0
 12 37  1  0
 14 38  1  0
 14 39  1  0
 15 40  1  0
 15 41  1  0
 19 42  1  0
 19 43  1  0
 21 44  1  0
 21 45  1  0
 24 46  1  0
 24 47  1  0
 25 48  1  0
 25 49  1  0
M  END
>  <smiles>  (14) 
CCNc1cc2c(cc1Br)CCN(CCN1C(=O)COCC1=O)CC2

>  <score_type>  (14) 
oracle

>  <origin>  (14) 
adg

>  <m_score__min__energy>  (14) 
-6.54

>  <m_primary>  (14) 
energy

$$$$
15:0
     RDKit          3D

 44 45  0  0  0  0  0  0  0  0999 V2000
   -3.7140   24.9100  -26.6780 C   0  0  0  0  0  0  0  0  0  0  0  0
   -2.3470   25.5140  -26.4880 C   0  0  0  0  0  0  0  0  0  0  0  0
   -1.9740   25.8960  -25.2280 C   0  0  0  0  0  0  0  0  0  0  0  0
   -0.7480   26.4440  -25.0160 C   0  0  0  0  0  0  0  0  0  0  0  0
   -0.2980   26.9220  -23.3960 Cl  0  0  0  0  0  0  0  0  0  0  0  0
    0.1210   26.6180  -26.0570 C   0  0  0  0  0  0  0  0  0  0  0  0
   -0.2770   26.2240  -27.3320 C   0  0  0  0  0  0  0  0  0  0  0  0
   -1.4990   25.6670  -27.6000 C   0  0  0  0  0  0  0  0  0  0  0  0
   -1.9810   25.2500  -28.7920 O   0  0  0  0  0  0  0  0  0  0  0  0
   -2.2760   24.0310  -29.3260 C   0  0  0  0  0  0  0  0  0  0  0  0
   -3.3100   24.0100  -30.4180 C   0  0  0  0  0  0  0  0  0  0  0  0
   -3.8650   25.3110  -30.6700 N   0  0  0  0  0  0  0  0  0  0  0  0
   -5.2970   25.3330  -30.8130 C   0  0  0  0  0  0  0  0  0  0  0  0
   -5.9510   24.6510  -29.6660 C   0  0  0  0  0  0  0  0  0  0  0  0
   -6.9830   23.6280  -30.0960 C   0  0  0  0  0  0  0  0  0  0  0  0
   -6.8740   23.2950  -31.4470 O   0  0  0  0  0  0  0  0  0  0  0  0
   -7.3880   22.0940  -31.8910 C   0  0  0  0  0  0  0  0  0  0  0  0
   -6.6790   21.1470  -32.5830 C   0  0  0  0  0  0  0  0  0  0  0  0
   -7.3060   19.9710  -32.9790 C   0  0  0  0  0  0  0  0  0  0  0  0
   -8.6400   19.7570  -32.6770 C   0  0  0  0  0  0  0  0  0  0  0  0
   -9.3730   20.6950  -31.9820 C   0  0  0  0  0  0  0  0  0  0  0  0
   -8.7340   21.8570  -31.5960 C   0  0  0  0  0  0  0  0  0  0  0  0
   -4.1663   24.7101  -25.6954 H   0  0  0  0  0  0  0  0  0  0  0  0
   -4.3499   25.6110  -27.2386 H   0  0  0  0  0  0  0  0  0  0  0  0
   -3.6239   23.9679  -27.2386 H   0  0  0  0  0  0  0  0  0  0  0  0
   -2.6674   25.7594  -24.3851 H   0  0  0  0  0  0  0  0  0  0  0  0
    1.1144   27.0602  -25.8908 H   0  0  0  0  0  0  0  0  0  0  0  0
    0.4257   26.3674  -28.1660 H   0  0  0  0  0  0  0  0  0  0  0  0
   -1.3459   23.6126  -29.7382 H   0  0  0  0  0  0  0  0  0  0  0  0
   -2.7119   23.4490  -28.5006 H   0  0  0  0  0  0  0  0  0  0  0  0
   -2.8410   23.6407  -31.3419 H   0  0  0  0  0  0  0  0  0  0  0  0
   -4.1295   23.3525  -30.0922 H   0  0  0  0  0  0  0  0  0  0  0  0
   -3.5180   26.0350  -30.0020 H   0  0  0  0  0  0  0  0  0  0  0  0
   -5.6395   26.3775  -30.8548 H   0  0  0  0  0  0  0  0  0  0  0  0
   -5.5676   24.8047  -31.7391 H   0  0  0  0  0  0  0  0  0  0  0  0
   -5.1771   24.1407  -29.0739 H   0  0  0  0  0  0  0  0  0  0  0  0
   -6.4748   25.4209  -29.0804 H   0  0  0  0  0  0  0  0  0  0  0  0
   -6.8474   22.7162  -29.4958 H   0  0  0  0  0  0  0  0  0  0  0  0
   -7.9779   24.0705  -29.9398 H   0  0  0  0  0  0  0  0  0  0  0  0
   -5.6192   21.3165  -32.8239 H   0  0  0  0  0  0  0  0  0  0  0  0
   -6.7403   19.2082  -33.5340 H   0  0  0  0  0  0  0  0  0  0  0  0
   -9.1234   18.8222  -32.9972 H   0  0  0  0  0  0  0  0  0  0  0  0
  -10.4328   20.5236  -31.7425 H   0  0  0  0  0  0  0  0  0  0  0  0
   -9.3007   22.6184  -31.0401 H   0  0  0  0  0  0  0  0  0  0  0  0
  1  2  1  0
  2  3  2  0
  3  4  1  0
  4  5  1  0
  4  6  2  0
  6  7  1  0
  7  8  2  0
  8  9  1  0
  9 10  1  0
 10 11  1  0
 11 12  1  0
 12 13  1  0
 13 14  1  0
 14 15  1  0
 15 16  1  0
 16 17  1  0
 17 18  2  0
 18 19  1  0
 19 20  2  0
 20 21  1  0
 21 22  2  0
  8  2  1  0
 22 17  1  0
  1 23  1  0
  1 24  1  0
  1 25  1  0
  3 26  1  0
  6 27  1  0
  7 28  1  0
 10 29  1  0
 10 30  1  0
 11 31  1  0
 11 32  1  0
 12 33  1  0
 13 34  1  0
 13 35  1  0
 14 36  1  0
 14 37  1  0
 15 38  1  0
 15 39  1  0
 18 40  1  0
 19 41  1  0
 20 42  1  0
 21 43  1  0
 22 44  1  0
M  END
>  <smiles>  (15) 
Cc1cc(Cl)ccc1OCCNCCCOc1ccccc1

>  <score_type>  (15) 
oracle

>  <origin>  (15) 
adg

>  <m_score__min__energy>  (15) 
-8.7699999999999996

>  <m_primary>  (15) 
energy

$$$$
16:0
     RDKit          3D

 42 43  0  0  0  0  0  0  0  0999 V2000
   -2.1720   22.4040  -30.4500 C   0  0  0  0  0  0  0  0  0  0  0  0
   -2.3640   23.7110  -29.7200 C   0  0  0  0  0  0  0  0  0  0  0  0
   -3.1450   24.6470  -30.3930 O   0  0  0  0  0  0  0  0  0  0  0  0
   -4.5050   24.5520  -30.4980 C   0  0  0  0  0  0  0  0  0  0  0  0
   -5.3880   25.2120  -29.6710 C   0  0  0  0  0  0  0  0  0  0  0  0
   -6.7520   25.0850  -29.8160 C   0  0  0  0  0  0  0  0  0  0  0  0
   -7.6230   25.7420  -28.9940 F   0  0  0  0  0  0  0  0  0  0  0  0
   -7.2160   24.2670  -30.8250 C   0  0  0  0  0  0  0  0  0  0  0  0
   -6.3910   23.5760  -31.6870 C   0  0  0  0  0  0  0  0  0  0  0  0
   -6.8180   22.7230  -32.7090 N   0  0  0  0  0  0  0  0  0  0  0  0
   -6.8420   21.3110  -32.6850 C   0  0  0  0  0  0  0  0  0  0  0  0
   -5.7100   20.5750  -33.0590 C   0  0  0  0  0  0  0  0  0  0  0  0
   -5.6840   19.2050  -33.0320 C   0  0  0  0  0  0  0  0  0  0  0  0
   -6.7860   18.4740  -32.6300 C   0  0  0  0  0  0  0  0  0  0  0  0
   -6.6710   17.0010  -32.6310 C   0  0  0  0  0  0  0  0  0  0  0  0
   -6.1130   16.4790  -33.8420 N   0  0  0  0  0  0  0  0  0  0  0  0
   -6.8710   15.3090  -34.2450 C   0  0  0  0  0  0  0  0  0  0  0  0
   -4.7210   16.1630  -33.6100 C   0  0  0  0  0  0  0  0  0  0  0  0
   -7.9030   19.1680  -32.2600 C   0  0  0  0  0  0  0  0  0  0  0  0
   -7.9260   20.5590  -32.2890 C   0  0  0  0  0  0  0  0  0  0  0  0
   -5.0240   23.7470  -31.4880 C   0  0  0  0  0  0  0  0  0  0  0  0
   -2.0525   21.5902  -29.7196 H   0  0  0  0  0  0  0  0  0  0  0  0
   -3.0504   22.2041  -31.0812 H   0  0  0  0  0  0  0  0  0  0  0  0
   -1.2732   22.4652  -31.0812 H   0  0  0  0  0  0  0  0  0  0  0  0
   -2.8442   23.4960  -28.7540 H   0  0  0  0  0  0  0  0  0  0  0  0
   -1.3642   24.1582  -29.6180 H   0  0  0  0  0  0  0  0  0  0  0  0
   -4.9928   25.8580  -28.8732 H   0  0  0  0  0  0  0  0  0  0  0  0
   -8.3038   24.1601  -30.9488 H   0  0  0  0  0  0  0  0  0  0  0  0
   -7.1660   23.1720  -33.6050 H   0  0  0  0  0  0  0  0  0  0  0  0
   -4.8099   21.1161  -33.3860 H   0  0  0  0  0  0  0  0  0  0  0  0
   -4.7683   18.6769  -33.3362 H   0  0  0  0  0  0  0  0  0  0  0  0
   -6.0271   16.7001  -31.7914 H   0  0  0  0  0  0  0  0  0  0  0  0
   -7.6887   16.5939  -32.5382 H   0  0  0  0  0  0  0  0  0  0  0  0
   -7.2191   14.7717  -33.3505 H   0  0  0  0  0  0  0  0  0  0  0  0
   -7.7380   15.6226  -34.8450 H   0  0  0  0  0  0  0  0  0  0  0  0
   -6.2304   14.6459  -34.8450 H   0  0  0  0  0  0  0  0  0  0  0  0
   -4.5303   16.1197  -32.5275 H   0  0  0  0  0  0  0  0  0  0  0  0
   -4.4858   15.1886  -34.0630 H   0  0  0  0  0  0  0  0  0  0  0  0
   -4.0881   16.9403  -34.0630 H   0  0  0  0  0  0  0  0  0  0  0  0
   -8.7984   18.6185  -31.9340 H   0  0  0  0  0  0  0  0  0  0  0  0
   -8.8462   21.0786  -31.9836 H   0  0  0  0  0  0  0  0  0  0  0  0
   -4.3264   23.2150  -32.1516 H   0  0  0  0  0  0  0  0  0  0  0  0
  1  2  1  0
  2  3  1  0
  3  4  1  0
  4  5  2  0
  5  6  1  0
  6  7  1  0
  6  8  2  0
  8  9  1  0
  9 10  1  0
 10 11  1  0
 11 12  2  0
 12 13  1  0
 13 14  2  0
 14 15  1  0
 15 16  1  0
 16 17  1  0
 16 18  1  0
 14 19  1  0
 19 20  2  0
  9 21  2  0
 21  4  1  0
 20 11  1  0
  1 22  1  0
  1 23  1  0
  1 24  1  0
  2 25  1  0
  2 26  1  0
  5 27  1  0
  8 28  1  0
 10 29  1  0
 12 30  1  0
 13 31  1  0
 15 32  1  0
 15 33  1  0
 17 34  1  0
 17 35  1  0
 17 36  1  0
 18 37  1  0
 18 38  1  0
 18 39  1  0
 19 40  1  0
 20 41  1  0
 21 42  1  0
M  END
>  <smiles>  (16) 
CCOc1cc(F)cc(Nc2ccc(CN(C)C)cc2)c1

>  <score_type>  (16) 
oracle

>  <origin>  (16) 
adg

>  <m_score__min__energy>  (16) 
-6.96

>  <m_primary>  (16) 
energy

$$$$
17:0
     RDKit          3D

 44 46  0  0  0  0  0  0  0  0999 V2000
   -6.2970   25.3590  -29.6760 C   0  0  0  0  0  0  0  0  0  0  0  0
   -5.3450   25.4570  -30.8460 C   0  0  0  0  0  0  0  0  0  0  0  0
   -4.2370   24.5900  -30.8120 N   0  0  0  0  0  0  0  0  0  0  0  0
   -4.3590   23.2140  -30.6250 C   0  0  0  0  0  0  0  0  0  0  0  0
   -3.8270   22.4020  -31.7620 C   0  0  0  0  0  0  0  0  0  0  0  0
   -4.8180   22.3280  -32.8490 N   0  0  0  0  0  0  0  0  0  0  0  0
   -5.9240   21.4480  -32.6690 C   0  0  0  0  0  0  0  0  0  0  0  0
   -7.1590   21.8550  -32.2270 C   0  0  0  0  0  0  0  0  0  0  0  0
   -8.1990   20.9350  -32.0690 C   0  0  0  0  0  0  0  0  0  0  0  0
   -7.9840   19.6120  -32.3560 N   0  0  0  0  0  0  0  0  0  0  0  0
   -9.0420   18.6610  -32.1950 C   0  0  0  0  0  0  0  0  0  0  0  0
   -6.7630   19.2400  -32.7860 C   0  0  0  0  0  0  0  0  0  0  0  0
   -6.5100   17.9170  -33.0870 C   0  0  0  0  0  0  0  0  0  0  0  0
   -5.2680   17.4770  -33.5380 C   0  0  0  0  0  0  0  0  0  0  0  0
   -4.2140   18.3860  -33.7020 C   0  0  0  0  0  0  0  0  0  0  0  0
   -4.4930   19.6900  -33.3970 C   0  0  0  0  0  0  0  0  0  0  0  0
   -5.7230   20.1250  -32.9520 C   0  0  0  0  0  0  0  0  0  0  0  0
   -9.4180   21.6440  -31.5820 C   0  0  0  0  0  0  0  0  0  0  0  0
   -9.1660   23.0770  -31.9870 C   0  0  0  0  0  0  0  0  0  0  0  0
   -7.6490   23.2120  -31.8530 C   0  0  0  0  0  0  0  0  0  0  0  0
   -5.7294   25.4174  -28.7356 H   0  0  0  0  0  0  0  0  0  0  0  0
   -7.0192   26.1875  -29.7205 H   0  0  0  0  0  0  0  0  0  0  0  0
   -6.8352   24.4007  -29.7205 H   0  0  0  0  0  0  0  0  0  0  0  0
   -5.9139   25.2408  -31.7623 H   0  0  0  0  0  0  0  0  0  0  0  0
   -4.9280   26.4741  -30.8057 H   0  0  0  0  0  0  0  0  0  0  0  0
   -3.4800   24.9220  -31.4160 H   0  0  0  0  0  0  0  0  0  0  0  0
   -3.8085   22.9375  -29.7137 H   0  0  0  0  0  0  0  0  0  0  0  0
   -5.4343   22.9946  -30.5496 H   0  0  0  0  0  0  0  0  0  0  0  0
   -2.9068   22.8698  -32.1419 H   0  0  0  0  0  0  0  0  0  0  0  0
   -3.6139   21.3840  -31.4040 H   0  0  0  0  0  0  0  0  0  0  0  0
   -4.7190   22.8960  -33.7230 H   0  0  0  0  0  0  0  0  0  0  0  0
   -9.2262   18.4954  -31.1233 H   0  0  0  0  0  0  0  0  0  0  0  0
   -9.9567   19.0464  -32.6690 H   0  0  0  0  0  0  0  0  0  0  0  0
   -8.7559   17.7105  -32.6690 H   0  0  0  0  0  0  0  0  0  0  0  0
   -7.3198   17.1825  -32.9661 H   0  0  0  0  0  0  0  0  0  0  0  0
   -5.1137   16.4121  -33.7663 H   0  0  0  0  0  0  0  0  0  0  0  0
   -3.2214   18.0697  -34.0550 H   0  0  0  0  0  0  0  0  0  0  0  0
   -3.6906   20.4334  -33.5134 H   0  0  0  0  0  0  0  0  0  0  0  0
  -10.3237   21.2503  -32.0664 H   0  0  0  0  0  0  0  0  0  0  0  0
   -9.5856   21.5233  -30.5016 H   0  0  0  0  0  0  0  0  0  0  0  0
   -9.4888   23.2574  -33.0230 H   0  0  0  0  0  0  0  0  0  0  0  0
   -9.7210   23.8037  -31.3756 H   0  0  0  0  0  0  0  0  0  0  0  0
   -7.2577   23.9771  -32.5397 H   0  0  0  0  0  0  0  0  0  0  0  0
   -7.3282   23.5281  -30.8494 H   0  0  0  0  0  0  0  0  0  0  0  0
  1  2  1  0
  2  3  1  0
  3  4  1  0
  4  5  1  0
  5  6  1  0
  6  7  1  0
  7  8  2  0
  8  9  1  0
  9 10  2  0
 10 11  1  0
 10 12  1  0
 12 13  2  0
 13 14  1  0
 14 15  2  0
 15 16  1  0
 16 17  2  0
  9 18  1  0
 18 19  1  0
 19 20  1  0
 17  7  1  0
 20  8  1  0
 17 12  1  0
  1 21  1  0
  1 22  1  0
  1 23  1  0
  2 24  1  0
  2 25  1  0
  3 26  1  0
  4 27  1  0
  4 28  1  0
  5 29  1  0
  5 30  1  0
  6 31  1  0
 11 32  1  0
 11 33  1  0
 11 34  1  0
 13 35  1  0
 14 36  1  0
 15 37  1  0
 16 38  1  0
 18 39  1  0
 18 40  1  0
 19 41  1  0
 19 42  1  0
 20 43  1  0
 20 44  1  0
M  CHG  1  10   1
M  END
>  <smiles>  (17) 
CCNCCNc1c2c([n+](C)c3ccccc13)CCC2

>  <score_type>  (17) 
oracle

>  <origin>  (17) 
adg

>  <m_score__min__energy>  (17) 
-8.5700000000000003

>  <m_primary>  (17) 
energy

$$$$
