0:0
     RDKit          3D

 53 55  0  0  0  0  0  0  0  0999 V2000
   -6.3990   15.1190  -34.2210 C   0  0  0  0  0  0  0  0  0  0  0  0
   -7.2280   16.1300  -33.6580 O   0  0  0  0  0  0  0  0  0  0  0  0
   -6.8170   17.4510  -33.4230 C   0  0  0  0  0  0  0  0  0  0  0  0
   -7.3830   18.1420  -32.3460 C   0  0  0  0  0  0  0  0  0  0  0  0
   -7.0090   19.4600  -32.0720 C   0  0  0  0  0  0  0  0  0  0  0  0
   -6.0570   20.1110  -32.8720 C   0  0  0  0  0  0  0  0  0  0  0  0
   -5.6730   21.4720  -32.5910 N   0  0  0  0  0  0  0  0  0  0  0  0
   -6.7160   22.4810  -32.3640 C   0  0  0  0  0  0  0  0  0  0  0  0
   -6.1000   23.8730  -32.1740 C   0  0  0  0  0  0  0  0  0  0  0  0
   -4.9550   23.8240  -31.2420 N   0  0  0  0  0  0  0  0  0  0  0  0
   -5.3760   23.5450  -29.8470 C   0  0  0  0  0  0  0  0  0  0  0  0
   -4.6050   24.4290  -28.8600 C   0  0  0  0  0  0  0  0  0  0  0  0
   -3.2990   23.8580  -28.5340 N   0  0  0  0  0  0  0  0  0  0  0  0
   -2.0940   24.4330  -28.7270 C   0  0  0  0  0  0  0  0  0  0  0  0
   -1.9120   25.6690  -29.3370 O   0  0  0  0  0  0  0  0  0  0  0  0
   -1.0790   23.6430  -28.2260 C   0  0  0  0  0  0  0  0  0  0  0  0
   -1.6980   22.5240  -27.6920 C   0  0  0  0  0  0  0  0  0  0  0  0
   -1.0060   21.3950  -26.9700 C   0  0  0  0  0  0  0  0  0  0  0  0
   -0.8790   21.7060  -25.4750 C   0  0  0  0  0  0  0  0  0  0  0  0
   -1.7330   20.0670  -27.2000 C   0  0  0  0  0  0  0  0  0  0  0  0
   -3.0580   22.6950  -27.8990 C   0  0  0  0  0  0  0  0  0  0  0  0
   -4.0550   21.8150  -27.4910 O   0  0  0  0  0  0  0  0  0  0  0  0
   -3.8610   22.9280  -31.7130 C   0  0  0  0  0  0  0  0  0  0  0  0
   -4.2850   21.9060  -32.7880 C   0  0  0  0  0  0  0  0  0  0  0  0
   -5.4880   19.4170  -33.9540 C   0  0  0  0  0  0  0  0  0  0  0  0
   -5.8640   18.0990  -34.2290 C   0  0  0  0  0  0  0  0  0  0  0  0
   -5.9254   14.5414  -33.4135 H   0  0  0  0  0  0  0  0  0  0  0  0
   -7.0100   14.4477  -34.8423 H   0  0  0  0  0  0  0  0  0  0  0  0
   -5.6210   15.5867  -34.8423 H   0  0  0  0  0  0  0  0  0  0  0  0
   -8.1288   17.6433  -31.7096 H   0  0  0  0  0  0  0  0  0  0  0  0
   -7.4640   19.9914  -31.2231 H   0  0  0  0  0  0  0  0  0  0  0  0
   -7.3918   22.5017  -33.2317 H   0  0  0  0  0  0  0  0  0  0  0  0
   -7.2697   22.2145  -31.4516 H   0  0  0  0  0  0  0  0  0  0  0  0
   -5.7546   24.2493  -33.1482 H   0  0  0  0  0  0  0  0  0  0  0  0
   -6.8662   24.5400  -31.7521 H   0  0  0  0  0  0  0  0  0  0  0  0
   -6.4527   23.7473  -29.7477 H   0  0  0  0  0  0  0  0  0  0  0  0
   -5.1625   22.4905  -29.6179 H   0  0  0  0  0  0  0  0  0  0  0  0
   -4.4584   25.4222  -29.3094 H   0  0  0  0  0  0  0  0  0  0  0  0
   -5.1909   24.5009  -27.9318 H   0  0  0  0  0  0  0  0  0  0  0  0
   -0.0003   23.8576  -28.2464 H   0  0  0  0  0  0  0  0  0  0  0  0
    0.0084   21.2945  -27.3835 H   0  0  0  0  0  0  0  0  0  0  0  0
   -1.2311   20.8437  -24.8899 H   0  0  0  0  0  0  0  0  0  0  0  0
    0.1741   21.9093  -25.2309 H   0  0  0  0  0  0  0  0  0  0  0  0
   -1.4888   22.5884  -25.2309 H   0  0  0  0  0  0  0  0  0  0  0  0
   -1.9819   19.6124  -26.2297 H   0  0  0  0  0  0  0  0  0  0  0  0
   -2.6575   20.2486  -27.7677 H   0  0  0  0  0  0  0  0  0  0  0  0
   -1.0819   19.3861  -27.7677 H   0  0  0  0  0  0  0  0  0  0  0  0
   -3.0607   23.5552  -32.1328 H   0  0  0  0  0  0  0  0  0  0  0  0
   -3.5382   22.3442  -30.8383 H   0  0  0  0  0  0  0  0  0  0  0  0
   -4.1920   22.3704  -33.7808 H   0  0  0  0  0  0  0  0  0  0  0  0
   -3.6306   21.0255  -32.7082 H   0  0  0  0  0  0  0  0  0  0  0  0
   -4.7409   19.9151  -34.5894 H   0  0  0  0  0  0  0  0  0  0  0  0
   -5.4127   17.5666  -35.0792 H   0  0  0  0  0  0  0  0  0  0  0  0
  1  2  1  0
  2  3  1  0
  3  4  2  0
  4  5  1  0
  5  6  2  0
  6  7  1  0
  7  8  1  0
  8  9  1  0
  9 10  1  0
 10 11  1  0
 11 12  1  0
 12 13  1  0
 13 14  1  0
 14 15  1  0
 14 16  2  0
 16 17  1  0
 17 18  1  0
 18 19  1  0
 18 20  1  0
 17 21  2  0
 21 22  1  0
 10 23  1  0
 23 24  1  0
  6 25  1  0
 25 26  2  0
 26  3  1  0
 24  7  1  0
 21 13  1  0
  1 27  1  0
  1 28  1  0
  1 29  1  0
  4 30  1  0
  5 31  1  0
  8 32  1  0
  8 33  1  0
  9 34  1  0
  9 35  1  0
 11 36  1  0
 11 37  1  0
 12 38  1  0
 12 39  1  0
 16 40  1  0
 18 41  1  0
 19 42  1  0
 19 43  1  0
 19 44  1  0
 20 45  1  0
 20 46  1  0
 20 47  1  0
 23 48  1  0
 23 49  1  0
 24 50  1  0
 24 51  1  0
 25 52  1  0
 26 53  1  0
M  CHG  2  15  -1  22  -1
M  END
>  <UniqueID>  (1) 
1

>  <SMILES>  (1) 
COc1ccc(N2CCN(CCn3c([O-])cc(C(C)C)c3[O-])CC2)cc1

>  <Energy>  (1) 
86.44804974936224

>  <Genealogy>  (1) 
COc1ccc(N2CCN(CCn3c([O-])cc(C(C)C)c3[O-])CC2)cc1 (protonated)
COc1ccc(N2CCN(CCn3c([O-])cc(C(C)C)c3[O-])CC2)cc1 (3D coordinates assigned)
COc1ccc(N2CCN(CCn3c([O-])cc(C(C)C)c3[O-])CC2)cc1 (nonaromatic ring conformer: 86.44804974936224 kcal/mol)

>  <smiles>  (1) 
COc1ccc(N2CCN(CCn3c(O)cc(C(C)C)c3O)CC2)cc1

>  <score_type>  (1) 
oracle

>  <origin>  (1) 
adg

>  <m_score__min__energy>  (1) 
-10.58

>  <m_primary>  (1) 
energy

$$$$
1:0
     RDKit          3D

 17 17  0  0  0  0  0  0  0  0999 V2000
   -9.2750   21.5480  -31.0370 C   0  0  0  0  0  0  0  0  0  0  0  0
   -8.1100   21.0450  -31.8360 C   0  0  0  0  0  0  0  0  0  0  0  0
   -7.9990   19.7090  -32.0680 N   0  0  0  0  0  0  0  0  0  0  0  0
   -6.9690   19.1940  -32.7840 C   0  0  0  0  0  0  0  0  0  0  0  0
   -6.8630   17.3120  -33.0790 Br  0  0  0  0  0  0  0  0  0  0  0  0
   -5.9960   20.0490  -33.2980 C   0  0  0  0  0  0  0  0  0  0  0  0
   -6.0920   21.3860  -33.0750 N   0  0  0  0  0  0  0  0  0  0  0  0
   -7.1250   21.9150  -32.3560 C   0  0  0  0  0  0  0  0  0  0  0  0
   -7.1970   23.4010  -32.1310 C   0  0  0  0  0  0  0  0  0  0  0  0
   -9.0525   21.4519  -29.9640 H   0  0  0  0  0  0  0  0  0  0  0  0
   -9.4575   22.6051  -31.2804 H   0  0  0  0  0  0  0  0  0  0  0  0
  -10.1695   20.9559  -31.2804 H   0  0  0  0  0  0  0  0  0  0  0  0
   -5.1554   19.6441  -33.8807 H   0  0  0  0  0  0  0  0  0  0  0  0
   -5.3520   22.0090  -33.4700 H   0  0  0  0  0  0  0  0  0  0  0  0
   -7.2070   23.6082  -31.0507 H   0  0  0  0  0  0  0  0  0  0  0  0
   -6.3212   23.8840  -32.5889 H   0  0  0  0  0  0  0  0  0  0  0  0
   -8.1154   23.7971  -32.5889 H   0  0  0  0  0  0  0  0  0  0  0  0
  1  2  1  0
  2  3  2  0
  3  4  1  0
  4  5  1  0
  4  6  2  0
  6  7  1  0
  7  8  2  0
  8  9  1  0
  8  2  1  0
  1 10  1  0
  1 11  1  0
  1 12  1  0
  6 13  1  0
  7 14  1  0
  9 15  1  0
  9 16  1  0
  9 17  1  0
M  CHG  1   7   1
M  END
>  <UniqueID>  (2) 
2

>  <SMILES>  (2) 
Cc1nc(Br)c[nH+]c1C

>  <Energy>  (2) 
15.308949521906651

>  <Genealogy>  (2) 
Cc1nc(Br)c[nH+]c1C (protonated)
Cc1nc(Br)c[nH+]c1C (3D coordinates assigned)
Cc1nc(Br)c[nH+]c1C (optimized conformer: 15.308949521906651 kcal/mol)

>  <smiles>  (2) 
Cc1ncc(Br)nc1C

>  <score_type>  (2) 
oracle

>  <origin>  (2) 
adg

>  <m_score__min__energy>  (2) 
-4.46

>  <m_primary>  (2) 
energy

$$$$
2:0
     RDKit          3D

 38 40  0  0  0  0  0  0  0  0999 V2000
   -6.9020   15.0650  -34.0740 N   0  0  0  0  0  0  0  0  0  0  0  0
   -6.8500   16.1910  -33.8100 C   0  0  0  0  0  0  0  0  0  0  0  0
   -6.7840   17.5910  -33.4810 C   0  0  0  0  0  0  0  0  0  0  0  0
   -5.8130   18.4060  -34.0740 C   0  0  0  0  0  0  0  0  0  0  0  0
   -5.7480   19.7660  -33.7550 C   0  0  0  0  0  0  0  0  0  0  0  0
   -6.6590   20.3270  -32.8440 C   0  0  0  0  0  0  0  0  0  0  0  0
   -6.5850   21.7260  -32.5040 N   0  0  0  0  0  0  0  0  0  0  0  0
   -5.2870   22.4180  -32.5600 C   0  0  0  0  0  0  0  0  0  0  0  0
   -5.3620   23.8120  -31.9210 C   0  0  0  0  0  0  0  0  0  0  0  0
   -6.1640   23.7690  -30.6900 N   0  0  0  0  0  0  0  0  0  0  0  0
   -5.7830   24.5570  -29.5500 C   0  0  0  0  0  0  0  0  0  0  0  0
   -6.6220   25.3420  -29.0300 O   0  0  0  0  0  0  0  0  0  0  0  0
   -4.4300   24.4680  -28.9630 C   0  0  0  0  0  0  0  0  0  0  0  0
   -4.2430   24.2760  -27.5850 C   0  0  0  0  0  0  0  0  0  0  0  0
   -2.9460   24.2120  -27.0700 C   0  0  0  0  0  0  0  0  0  0  0  0
   -1.8510   24.3490  -27.9260 C   0  0  0  0  0  0  0  0  0  0  0  0
   -2.0730   24.5560  -29.2880 C   0  0  0  0  0  0  0  0  0  0  0  0
   -3.3430   24.6140  -29.7710 N   0  0  0  0  0  0  0  0  0  0  0  0
   -7.4810   23.1120  -30.6900 C   0  0  0  0  0  0  0  0  0  0  0  0
   -7.7750   22.4480  -32.0380 C   0  0  0  0  0  0  0  0  0  0  0  0
   -7.6270   19.5000  -32.2480 C   0  0  0  0  0  0  0  0  0  0  0  0
   -7.6910   18.1400  -32.5670 C   0  0  0  0  0  0  0  0  0  0  0  0
   -5.0996   17.9760  -34.7924 H   0  0  0  0  0  0  0  0  0  0  0  0
   -4.9791   20.4005  -34.2200 H   0  0  0  0  0  0  0  0  0  0  0  0
   -4.5390   21.8180  -32.0211 H   0  0  0  0  0  0  0  0  0  0  0  0
   -5.0065   22.5385  -33.6168 H   0  0  0  0  0  0  0  0  0  0  0  0
   -4.3452   24.1551  -31.6793 H   0  0  0  0  0  0  0  0  0  0  0  0
   -5.8360   24.5052  -32.6316 H   0  0  0  0  0  0  0  0  0  0  0  0
   -5.1107   24.1768  -26.9162 H   0  0  0  0  0  0  0  0  0  0  0  0
   -2.7876   24.0541  -25.9930 H   0  0  0  0  0  0  0  0  0  0  0  0
   -0.8257   24.2944  -27.5312 H   0  0  0  0  0  0  0  0  0  0  0  0
   -1.2195   24.6724  -29.9720 H   0  0  0  0  0  0  0  0  0  0  0  0
   -7.4980   22.3447  -29.9020 H   0  0  0  0  0  0  0  0  0  0  0  0
   -8.2494   23.8775  -30.5067 H   0  0  0  0  0  0  0  0  0  0  0  0
   -8.6099   21.7411  -31.9230 H   0  0  0  0  0  0  0  0  0  0  0  0
   -8.0437   23.2205  -32.7736 H   0  0  0  0  0  0  0  0  0  0  0  0
   -8.3391   19.9257  -31.5257 H   0  0  0  0  0  0  0  0  0  0  0  0
   -8.4546   17.5011  -32.0993 H   0  0  0  0  0  0  0  0  0  0  0  0
  1  2  3  0
  2  3  1  0
  3  4  2  0
  4  5  1  0
  5  6  2  0
  6  7  1  0
  7  8  1  0
  8  9  1  0
  9 10  1  0
 10 11  1  0
 11 12  2  0
 11 13  1  0
 13 14  2  0
 14 15  1  0
 15 16  2  0
 16 17  1  0
 17 18  2  0
 10 19  1  0
 19 20  1  0
  6 21  1  0
 21 22  2  0
 22  3  1  0
 20  7  1  0
 18 13  1  0
  4 23  1  0
  5 24  1  0
  8 25  1  0
  8 26  1  0
  9 27  1  0
  9 28  1  0
 14 29  1  0
 15 30  1  0
 16 31  1  0
 17 32  1  0
 19 33  1  0
 19 34  1  0
 20 35  1  0
 20 36  1  0
 21 37  1  0
 22 38  1  0
M  END
>  <UniqueID>  (3) 
3

>  <SMILES>  (3) 
N#Cc1ccc(N2CCN(C(=O)c3ccccn3)CC2)cc1

>  <Energy>  (3) 
48.36223775605874

>  <Genealogy>  (3) 
N#Cc1ccc(N2CCN(C(=O)c3ccccn3)CC2)cc1 (3D coordinates assigned)
N#Cc1ccc(N2CCN(C(=O)c3ccccn3)CC2)cc1 (nonaromatic ring conformer: 48.36223775605874 kcal/mol)

>  <smiles>  (3) 
N#Cc1ccc(N2CCN(C(=O)c3ccccn3)CC2)cc1

>  <score_type>  (3) 
oracle

>  <origin>  (3) 
adg

>  <m_score__min__energy>  (3) 
-7.4900000000000002

>  <m_primary>  (3) 
energy

$$$$
3:0
     RDKit          3D

 28 30  0  0  0  0  0  0  0  0999 V2000
   -2.2150   24.9070  -28.6740 C   0  0  0  0  0  0  0  0  0  0  0  0
   -3.1110   25.2940  -29.7110 O   0  0  0  0  0  0  0  0  0  0  0  0
   -4.2260   24.5440  -30.1160 C   0  0  0  0  0  0  0  0  0  0  0  0
   -5.5420   24.8990  -29.7660 C   0  0  0  0  0  0  0  0  0  0  0  0
   -6.6210   24.1200  -30.1950 C   0  0  0  0  0  0  0  0  0  0  0  0
   -6.4070   22.9760  -30.9830 C   0  0  0  0  0  0  0  0  0  0  0  0
   -7.5130   22.1670  -31.4240 N   0  0  0  0  0  0  0  0  0  0  0  0
   -8.7970   22.5650  -31.6350 C   0  0  0  0  0  0  0  0  0  0  0  0
   -9.6190   21.5570  -32.0390 N   0  0  0  0  0  0  0  0  0  0  0  0
   -8.7970   20.4930  -32.0710 C   0  0  0  0  0  0  0  0  0  0  0  0
   -9.1030   19.1730  -32.3850 C   0  0  0  0  0  0  0  0  0  0  0  0
   -8.0610   18.2320  -32.3010 C   0  0  0  0  0  0  0  0  0  0  0  0
   -6.7690   18.6490  -31.9000 C   0  0  0  0  0  0  0  0  0  0  0  0
   -6.5250   19.9610  -31.6000 N   0  0  0  0  0  0  0  0  0  0  0  0
   -7.5400   20.8550  -31.7060 C   0  0  0  0  0  0  0  0  0  0  0  0
   -5.0900   22.6210  -31.3220 C   0  0  0  0  0  0  0  0  0  0  0  0
   -4.0130   23.4020  -30.8930 C   0  0  0  0  0  0  0  0  0  0  0  0
   -2.6776   25.1068  -27.6962 H   0  0  0  0  0  0  0  0  0  0  0  0
   -1.9938   23.8331  -28.7624 H   0  0  0  0  0  0  0  0  0  0  0  0
   -1.2815   25.4822  -28.7624 H   0  0  0  0  0  0  0  0  0  0  0  0
   -5.7227   25.7936  -29.1520 H   0  0  0  0  0  0  0  0  0  0  0  0
   -7.6455   24.4048  -29.9135 H   0  0  0  0  0  0  0  0  0  0  0  0
   -9.1382   23.6011  -31.4930 H   0  0  0  0  0  0  0  0  0  0  0  0
  -10.1186   18.8771  -32.6867 H   0  0  0  0  0  0  0  0  0  0  0  0
   -8.2493   17.1763  -32.5459 H   0  0  0  0  0  0  0  0  0  0  0  0
   -5.9552   17.9124  -31.8291 H   0  0  0  0  0  0  0  0  0  0  0  0
   -4.9055   21.7224  -31.9291 H   0  0  0  0  0  0  0  0  0  0  0  0
   -2.9878   23.1150  -31.1697 H   0  0  0  0  0  0  0  0  0  0  0  0
  1  2  1  0
  2  3  1  0
  3  4  2  0
  4  5  1  0
  5  6  2  0
  6  7  1  0
  7  8  1  0
  8  9  2  0
  9 10  1  0
 10 11  2  0
 11 12  1  0
 12 13  2  0
 13 14  1  0
 14 15  2  0
  6 16  1  0
 16 17  2  0
 17  3  1  0
 15  7  1  0
 15 10  1  0
  1 18  1  0
  1 19  1  0
  1 20  1  0
  4 21  1  0
  5 22  1  0
  8 23  1  0
 11 24  1  0
 12 25  1  0
 13 26  1  0
 16 27  1  0
 17 28  1  0
M  END
>  <UniqueID>  (4) 
4

>  <SMILES>  (4) 
COc1ccc(-n2cnc3cccnc32)cc1

>  <Energy>  (4) 
74.25426655084033

>  <Genealogy>  (4) 
COc1ccc(-n2cnc3cccnc32)cc1 (3D coordinates assigned)
COc1ccc(-n2cnc3cccnc32)cc1 (optimized conformer: 74.25426655084033 kcal/mol)

>  <smiles>  (4) 
COc1ccc(-n2cnc3cccnc32)cc1

>  <score_type>  (4) 
oracle

>  <origin>  (4) 
adg

>  <m_score__min__energy>  (4) 
-7.3200000000000003

>  <m_primary>  (4) 
energy

$$$$
4:0
     RDKit          3D

 39 41  0  0  0  0  0  0  0  0999 V2000
   -2.3900   23.0570  -30.2640 C   0  0  0  0  0  0  0  0  0  0  0  0
   -3.2300   24.1020  -30.7420 O   0  0  0  0  0  0  0  0  0  0  0  0
   -4.6300   24.0370  -30.7600 C   0  0  0  0  0  0  0  0  0  0  0  0
   -5.4580   24.9740  -30.0930 C   0  0  0  0  0  0  0  0  0  0  0  0
   -6.8650   24.8530  -30.1500 C   0  0  0  0  0  0  0  0  0  0  0  0
   -7.4630   23.8020  -30.8670 C   0  0  0  0  0  0  0  0  0  0  0  0
   -6.6240   22.8980  -31.5120 C   0  0  0  0  0  0  0  0  0  0  0  0
   -6.9120   21.7900  -32.2740 C   0  0  0  0  0  0  0  0  0  0  0  0
   -5.6620   21.2900  -32.6440 C   0  0  0  0  0  0  0  0  0  0  0  0
   -5.4020   20.0940  -33.4690 C   0  0  0  0  0  0  0  0  0  0  0  0
   -4.2000   19.7740  -33.6870 O   0  0  0  0  0  0  0  0  0  0  0  0
   -6.4900   19.2750  -33.9780 N   0  0  0  0  0  0  0  0  0  0  0  0
   -7.3060   18.7360  -32.8700 C   0  0  0  0  0  0  0  0  0  0  0  0
   -6.5520   17.6710  -32.0400 C   0  0  0  0  0  0  0  0  0  0  0  0
   -5.4180   17.0810  -32.7790 N   0  0  0  0  0  0  0  0  0  0  0  0
   -4.9860   15.8260  -32.1460 C   0  0  0  0  0  0  0  0  0  0  0  0
   -5.7700   16.8560  -34.1890 C   0  0  0  0  0  0  0  0  0  0  0  0
   -6.0280   18.2020  -34.8990 C   0  0  0  0  0  0  0  0  0  0  0  0
   -4.6980   22.0420  -32.1410 O   0  0  0  0  0  0  0  0  0  0  0  0
   -5.2600   23.0100  -31.4610 C   0  0  0  0  0  0  0  0  0  0  0  0
   -2.3918   23.0593  -29.1640 H   0  0  0  0  0  0  0  0  0  0  0  0
   -2.7645   22.0894  -30.6293 H   0  0  0  0  0  0  0  0  0  0  0  0
   -1.3645   23.2148  -30.6293 H   0  0  0  0  0  0  0  0  0  0  0  0
   -5.0029   25.8005  -29.5275 H   0  0  0  0  0  0  0  0  0  0  0  0
   -7.4973   25.5871  -29.6291 H   0  0  0  0  0  0  0  0  0  0  0  0
   -8.5569   23.6976  -30.9166 H   0  0  0  0  0  0  0  0  0  0  0  0
   -7.9028   21.3886  -32.5333 H   0  0  0  0  0  0  0  0  0  0  0  0
   -7.1100   19.8980  -34.5480 H   0  0  0  0  0  0  0  0  0  0  0  0
   -7.5892   19.5653  -32.2051 H   0  0  0  0  0  0  0  0  0  0  0  0
   -8.1888   18.2507  -33.3117 H   0  0  0  0  0  0  0  0  0  0  0  0
   -6.1689   18.1435  -31.1235 H   0  0  0  0  0  0  0  0  0  0  0  0
   -7.2603   16.8614  -31.8102 H   0  0  0  0  0  0  0  0  0  0  0  0
   -5.0236   15.9352  -31.0521 H   0  0  0  0  0  0  0  0  0  0  0  0
   -5.6549   15.0097  -32.4562 H   0  0  0  0  0  0  0  0  0  0  0  0
   -3.9564   15.5943  -32.4562 H   0  0  0  0  0  0  0  0  0  0  0  0
   -4.9418   16.3341  -34.6908 H   0  0  0  0  0  0  0  0  0  0  0  0
   -6.6841   16.2460  -34.2362 H   0  0  0  0  0  0  0  0  0  0  0  0
   -5.0925   18.5301  -35.3756 H   0  0  0  0  0  0  0  0  0  0  0  0
   -6.8307   18.0345  -35.6322 H   0  0  0  0  0  0  0  0  0  0  0  0
  1  2  1  0
  2  3  1  0
  3  4  2  0
  4  5  1  0
  5  6  2  0
  6  7  1  0
  7  8  1  0
  8  9  2  0
  9 10  1  0
 10 11  2  0
 10 12  1  0
 12 13  1  0
 13 14  1  0
 14 15  1  0
 15 16  1  0
 15 17  1  0
 17 18  1  0
  9 19  1  0
 19 20  1  0
 20  3  1  0
 20  7  2  0
 18 12  1  0
  1 21  1  0
  1 22  1  0
  1 23  1  0
  4 24  1  0
  5 25  1  0
  6 26  1  0
  8 27  1  0
 12 28  1  0
 13 29  1  0
 13 30  1  0
 14 31  1  0
 14 32  1  0
 16 33  1  0
 16 34  1  0
 16 35  1  0
 17 36  1  0
 17 37  1  0
 18 38  1  0
 18 39  1  0
M  CHG  1  12   1
M  END
>  <UniqueID>  (5) 
5

>  <SMILES>  (5) 
COc1cccc2cc(C(=O)[NH+]3CCN(C)CC3)oc12

>  <Energy>  (5) 
84.71928639342697

>  <Genealogy>  (5) 
COc1cccc2cc(C(=O)[NH+]3CCN(C)CC3)oc12 (protonated)
COc1cccc2cc(C(=O)[NH+]3CCN(C)CC3)oc12 (3D coordinates assigned)
COc1cccc2cc(C(=O)[NH+]3CCN(C)CC3)oc12 (nonaromatic ring conformer: 84.71928639342697 kcal/mol)

>  <smiles>  (5) 
COc1cccc2cc(C(=O)N3CCN(C)CC3)oc12

>  <score_type>  (5) 
oracle

>  <origin>  (5) 
adg

>  <m_score__min__energy>  (5) 
-6.6600000000000001

>  <m_primary>  (5) 
energy

$$$$
5:0
     RDKit          3D

 34 35  0  0  0  0  0  0  0  0999 V2000
   -3.9230   24.5590  -26.7580 C   0  0  0  0  0  0  0  0  0  0  0  0
   -2.7350   25.4200  -26.3380 C   0  0  0  0  0  0  0  0  0  0  0  0
   -1.4460   24.9610  -27.0320 C   0  0  0  0  0  0  0  0  0  0  0  0
   -1.2440   25.6580  -28.3820 C   0  0  0  0  0  0  0  0  0  0  0  0
   -2.2970   25.2950  -29.3270 N   0  0  0  0  0  0  0  0  0  0  0  0
   -2.5890   23.9470  -29.7110 C   0  0  0  0  0  0  0  0  0  0  0  0
   -1.7080   23.0520  -29.6090 O   0  0  0  0  0  0  0  0  0  0  0  0
   -3.9200   23.6110  -30.2310 C   0  0  0  0  0  0  0  0  0  0  0  0
   -4.2990   22.3760  -30.7620 C   0  0  0  0  0  0  0  0  0  0  0  0
   -5.6360   22.3590  -31.1710 C   0  0  0  0  0  0  0  0  0  0  0  0
   -6.3100   21.2750  -31.7390 C   0  0  0  0  0  0  0  0  0  0  0  0
   -7.6710   21.4240  -32.0990 C   0  0  0  0  0  0  0  0  0  0  0  0
   -8.4120   20.3810  -32.6730 O   0  0  0  0  0  0  0  0  0  0  0  0
   -8.7360   19.1650  -32.0080 C   0  0  0  0  0  0  0  0  0  0  0  0
   -8.3180   22.6580  -31.8780 C   0  0  0  0  0  0  0  0  0  0  0  0
   -7.6300   23.7390  -31.3070 C   0  0  0  0  0  0  0  0  0  0  0  0
   -6.2940   23.5610  -30.9640 C   0  0  0  0  0  0  0  0  0  0  0  0
   -5.2410   24.6690  -30.2720 S   0  0  0  0  0  0  0  0  0  0  0  0
   -4.4395   24.1846  -25.8619 H   0  0  0  0  0  0  0  0  0  0  0  0
   -4.6199   25.1631  -27.3574 H   0  0  0  0  0  0  0  0  0  0  0  0
   -3.5658   23.7086  -27.3574 H   0  0  0  0  0  0  0  0  0  0  0  0
   -2.9361   26.4667  -26.6101 H   0  0  0  0  0  0  0  0  0  0  0  0
   -2.5999   25.3217  -25.2508 H   0  0  0  0  0  0  0  0  0  0  0  0
   -0.5900   25.1921  -26.3809 H   0  0  0  0  0  0  0  0  0  0  0  0
   -1.5243   23.8792  -27.2154 H   0  0  0  0  0  0  0  0  0  0  0  0
   -1.2590   26.7472  -28.2292 H   0  0  0  0  0  0  0  0  0  0  0  0
   -0.2773   25.3378  -28.7980 H   0  0  0  0  0  0  0  0  0  0  0  0
   -3.6217   21.5136  -30.8487 H   0  0  0  0  0  0  0  0  0  0  0  0
   -5.7906   20.3195  -31.9041 H   0  0  0  0  0  0  0  0  0  0  0  0
   -8.6947   19.3200  -30.9198 H   0  0  0  0  0  0  0  0  0  0  0  0
   -9.7497   18.8489  -32.2952 H   0  0  0  0  0  0  0  0  0  0  0  0
   -8.0140   18.3864  -32.2952 H   0  0  0  0  0  0  0  0  0  0  0  0
   -9.3757   22.7741  -32.1570 H   0  0  0  0  0  0  0  0  0  0  0  0
   -8.1337   24.7017  -31.1351 H   0  0  0  0  0  0  0  0  0  0  0  0
  1  2  1  0
  2  3  1  0
  3  4  1  0
  4  5  1  0
  5  6  1  0
  6  7  2  0
  6  8  1  0
  8  9  2  0
  9 10  1  0
 10 11  2  0
 11 12  1  0
 12 13  1  0
 13 14  1  0
 12 15  2  0
 15 16  1  0
 16 17  2  0
 17 18  1  0
 18  8  1  0
 17 10  1  0
  1 19  1  0
  1 20  1  0
  1 21  1  0
  2 22  1  0
  2 23  1  0
  3 24  1  0
  3 25  1  0
  4 26  1  0
  4 27  1  0
  9 28  1  0
 11 29  1  0
 14 30  1  0
 14 31  1  0
 14 32  1  0
 15 33  1  0
 16 34  1  0
M  CHG  1   5  -1
M  END
>  <UniqueID>  (6) 
6

>  <SMILES>  (6) 
CCCC[N-]C(=O)c1cc2cc(OC)ccc2s1

>  <Energy>  (6) 
54.44740798216661

>  <Genealogy>  (6) 
CCCC[N-]C(=O)c1cc2cc(OC)ccc2s1 (protonated)
CCCC[N-]C(=O)c1cc2cc(OC)ccc2s1 (3D coordinates assigned)
CCCC[N-]C(=O)c1cc2cc(OC)ccc2s1 (optimized conformer: 54.44740798216661 kcal/mol)

>  <smiles>  (6) 
CCCCNC(=O)c1cc2cc(OC)ccc2s1

>  <score_type>  (6) 
oracle

>  <origin>  (6) 
adg

>  <m_score__min__energy>  (6) 
-8.7100000000000009

>  <m_primary>  (6) 
energy

$$$$
6:0
     RDKit          3D

 49 52  0  0  0  0  0  0  0  0999 V2000
   -8.4170   18.3660  -31.3620 C   0  0  0  0  0  0  0  0  0  0  0  0
   -9.4390   18.8910  -32.3660 C   0  0  0  0  0  0  0  0  0  0  0  0
   -9.2330   20.3830  -32.6370 C   0  0  0  0  0  0  0  0  0  0  0  0
   -7.7690   20.7000  -32.7130 C   0  0  0  0  0  0  0  0  0  0  0  0
   -6.9490   19.8930  -33.4530 N   0  0  0  0  0  0  0  0  0  0  0  0
   -5.6280   20.1830  -33.4710 C   0  0  0  0  0  0  0  0  0  0  0  0
   -5.0890   21.1990  -32.7710 C   0  0  0  0  0  0  0  0  0  0  0  0
   -3.7480   21.1410  -32.8910 N   0  0  0  0  0  0  0  0  0  0  0  0
   -3.5020   20.0880  -33.6730 N   0  0  0  0  0  0  0  0  0  0  0  0
   -4.6350   19.4950  -34.0420 N   0  0  0  0  0  0  0  0  0  0  0  0
   -4.7220   18.2440  -34.7880 C   0  0  0  0  0  0  0  0  0  0  0  0
   -4.7230   17.0790  -33.8360 C   0  0  0  0  0  0  0  0  0  0  0  0
   -5.4190   17.1570  -32.6180 C   0  0  0  0  0  0  0  0  0  0  0  0
   -5.3760   16.0920  -31.7140 C   0  0  0  0  0  0  0  0  0  0  0  0
   -4.6330   14.9470  -32.0150 C   0  0  0  0  0  0  0  0  0  0  0  0
   -3.9280   14.8680  -33.2190 C   0  0  0  0  0  0  0  0  0  0  0  0
   -3.9670   15.9320  -34.1250 C   0  0  0  0  0  0  0  0  0  0  0  0
   -5.8970   22.0220  -31.9920 C   0  0  0  0  0  0  0  0  0  0  0  0
   -5.3540   23.0970  -31.2020 N   0  0  0  0  0  0  0  0  0  0  0  0
   -4.3260   22.8060  -30.1930 C   0  0  0  0  0  0  0  0  0  0  0  0
   -3.3610   23.9970  -29.9920 C   0  0  0  0  0  0  0  0  0  0  0  0
   -3.9240   25.2990  -30.3930 N   0  0  0  0  0  0  0  0  0  0  0  0
   -5.3750   25.3550  -30.2030 C   0  0  0  0  0  0  0  0  0  0  0  0
   -6.0370   24.3990  -31.1920 C   0  0  0  0  0  0  0  0  0  0  0  0
   -7.2430   21.7460  -31.9830 N   0  0  0  0  0  0  0  0  0  0  0  0
   -8.7784   18.5517  -30.3398 H   0  0  0  0  0  0  0  0  0  0  0  0
   -8.2783   17.2850  -31.5112 H   0  0  0  0  0  0  0  0  0  0  0  0
   -7.4575   18.8828  -31.5112 H   0  0  0  0  0  0  0  0  0  0  0  0
   -9.3318   18.3368  -33.3101 H   0  0  0  0  0  0  0  0  0  0  0  0
  -10.4453   18.7493  -31.9449 H   0  0  0  0  0  0  0  0  0  0  0  0
   -9.7119   20.6482  -33.5911 H   0  0  0  0  0  0  0  0  0  0  0  0
   -9.6827   20.9615  -31.8166 H   0  0  0  0  0  0  0  0  0  0  0  0
   -5.6510   18.2345  -35.3770 H   0  0  0  0  0  0  0  0  0  0  0  0
   -3.8548   18.1619  -35.4598 H   0  0  0  0  0  0  0  0  0  0  0  0
   -5.9996   18.0592  -32.3751 H   0  0  0  0  0  0  0  0  0  0  0  0
   -5.9276   16.1550  -30.7644 H   0  0  0  0  0  0  0  0  0  0  0  0
   -4.6032   14.1081  -31.3041 H   0  0  0  0  0  0  0  0  0  0  0  0
   -3.3416   13.9675  -33.4542 H   0  0  0  0  0  0  0  0  0  0  0  0
   -3.4033   15.8702  -35.0676 H   0  0  0  0  0  0  0  0  0  0  0  0
   -4.8203   22.5835  -29.2358 H   0  0  0  0  0  0  0  0  0  0  0  0
   -3.7371   21.9461  -30.5449 H   0  0  0  0  0  0  0  0  0  0  0  0
   -3.0933   24.0493  -28.9263 H   0  0  0  0  0  0  0  0  0  0  0  0
   -2.4903   23.8139  -30.6389 H   0  0  0  0  0  0  0  0  0  0  0  0
   -3.4880   26.0440  -29.8000 H   0  0  0  0  0  0  0  0  0  0  0  0
   -5.6252   25.0550  -29.1747 H   0  0  0  0  0  0  0  0  0  0  0  0
   -5.7355   26.3799  -30.3749 H   0  0  0  0  0  0  0  0  0  0  0  0
   -7.0879   24.2520  -30.9021 H   0  0  0  0  0  0  0  0  0  0  0  0
   -5.9734   24.8365  -32.1993 H   0  0  0  0  0  0  0  0  0  0  0  0
   -7.8860   22.3410  -31.4150 H   0  0  0  0  0  0  0  0  0  0  0  0
  1  2  1  0
  2  3  1  0
  3  4  1  0
  4  5  2  0
  5  6  1  0
  6  7  2  0
  7  8  1  0
  8  9  2  0
  9 10  1  0
 10 11  1  0
 11 12  1  0
 12 13  2  0
 13 14  1  0
 14 15  2  0
 15 16  1  0
 16 17  2  0
  7 18  1  0
 18 19  1  0
 19 20  1  0
 20 21  1  0
 21 22  1  0
 22 23  1  0
 23 24  1  0
 18 25  2  0
 25  4  1  0
 10  6  1  0
 17 12  1  0
 24 19  1  0
  1 26  1  0
  1 27  1  0
  1 28  1  0
  2 29  1  0
  2 30  1  0
  3 31  1  0
  3 32  1  0
 11 33  1  0
 11 34  1  0
 13 35  1  0
 14 36  1  0
 15 37  1  0
 16 38  1  0
 17 39  1  0
 20 40  1  0
 20 41  1  0
 21 42  1  0
 21 43  1  0
 22 44  1  0
 23 45  1  0
 23 46  1  0
 24 47  1  0
 24 48  1  0
 25 49  1  0
M  CHG  1  25   1
M  END
>  <UniqueID>  (7) 
7

>  <SMILES>  (7) 
CCCc1nc2c(nnn2Cc2ccccc2)c(N2CCNCC2)[nH+]1

>  <Energy>  (7) 
98.44066155687891

>  <Genealogy>  (7) 
CCCc1nc2c(nnn2Cc2ccccc2)c(N2CCNCC2)[nH+]1 (protonated)
CCCc1nc2c(nnn2Cc2ccccc2)c(N2CCNCC2)[nH+]1 (3D coordinates assigned)
CCCc1nc2c(nnn2Cc2ccccc2)c(N2CCNCC2)[nH+]1 (nonaromatic ring conformer: 98.44066155687891 kcal/mol)

>  <smiles>  (7) 
CCCc1nc(N2CCNCC2)c2nnn(Cc3ccccc3)c2n1

>  <score_type>  (7) 
oracle

>  <origin>  (7) 
adg

>  <m_score__min__energy>  (7) 
-8.2300000000000004

>  <m_primary>  (7) 
energy

$$$$
7:0
     RDKit          3D

 40 41  0  0  0  0  0  0  0  0999 V2000
   -3.7240   21.5470  -33.3970 C   0  0  0  0  0  0  0  0  0  0  0  0
   -4.7100   20.4480  -33.4130 N   0  0  0  0  0  0  0  0  0  0  0  0
   -6.0250   20.6820  -33.0750 C   0  0  0  0  0  0  0  0  0  0  0  0
   -6.4900   21.9890  -32.6600 N   0  0  0  0  0  0  0  0  0  0  0  0
   -7.5730   21.8540  -31.6700 C   0  0  0  0  0  0  0  0  0  0  0  0
   -7.2370   22.5970  -30.3670 C   0  0  0  0  0  0  0  0  0  0  0  0
   -6.1030   23.5250  -30.5610 N   0  0  0  0  0  0  0  0  0  0  0  0
   -5.0460   23.3150  -29.5550 C   0  0  0  0  0  0  0  0  0  0  0  0
   -3.8520   24.2490  -29.8470 C   0  0  0  0  0  0  0  0  0  0  0  0
   -4.1630   25.2440  -30.8070 O   0  0  0  0  0  0  0  0  0  0  0  0
   -5.3630   25.8990  -30.4480 C   0  0  0  0  0  0  0  0  0  0  0  0
   -6.5590   24.9290  -30.5200 C   0  0  0  0  0  0  0  0  0  0  0  0
   -6.9360   19.6220  -33.0810 C   0  0  0  0  0  0  0  0  0  0  0  0
   -6.5170   18.3600  -33.4760 C   0  0  0  0  0  0  0  0  0  0  0  0
   -7.3460   17.4090  -33.4590 O   0  0  0  0  0  0  0  0  0  0  0  0
   -5.2260   18.1590  -33.8770 N   0  0  0  0  0  0  0  0  0  0  0  0
   -4.7820   16.8140  -34.2870 C   0  0  0  0  0  0  0  0  0  0  0  0
   -4.3230   19.1920  -33.8290 C   0  0  0  0  0  0  0  0  0  0  0  0
   -3.1240   18.9850  -34.1710 O   0  0  0  0  0  0  0  0  0  0  0  0
   -3.4867   21.8115  -32.3560 H   0  0  0  0  0  0  0  0  0  0  0  0
   -2.8069   21.2243  -33.9115 H   0  0  0  0  0  0  0  0  0  0  0  0
   -4.1439   22.4239  -33.9115 H   0  0  0  0  0  0  0  0  0  0  0  0
   -6.8570   22.5080  -33.4930 H   0  0  0  0  0  0  0  0  0  0  0  0
   -5.7030   22.5640  -32.2850 H   0  0  0  0  0  0  0  0  0  0  0  0
   -8.4984   22.2727  -32.0924 H   0  0  0  0  0  0  0  0  0  0  0  0
   -7.6985   20.7862  -31.4374 H   0  0  0  0  0  0  0  0  0  0  0  0
   -8.1183   23.1696  -30.0424 H   0  0  0  0  0  0  0  0  0  0  0  0
   -6.9554   21.8557  -29.6047 H   0  0  0  0  0  0  0  0  0  0  0  0
   -5.4456   23.5354  -28.5542 H   0  0  0  0  0  0  0  0  0  0  0  0
   -4.7074   22.2693  -29.5973 H   0  0  0  0  0  0  0  0  0  0  0  0
   -3.5537   24.7433  -28.9107 H   0  0  0  0  0  0  0  0  0  0  0  0
   -3.0380   23.6327  -30.2563 H   0  0  0  0  0  0  0  0  0  0  0  0
   -5.2712   26.2826  -29.4212 H   0  0  0  0  0  0  0  0  0  0  0  0
   -5.5372   26.7263  -31.1518 H   0  0  0  0  0  0  0  0  0  0  0  0
   -7.1937   25.0749  -29.6335 H   0  0  0  0  0  0  0  0  0  0  0  0
   -7.1248   25.1396  -31.4395 H   0  0  0  0  0  0  0  0  0  0  0  0
   -7.9793   19.7876  -32.7742 H   0  0  0  0  0  0  0  0  0  0  0  0
   -4.5812   16.2057  -33.3928 H   0  0  0  0  0  0  0  0  0  0  0  0
   -5.5697   16.3349  -34.8870 H   0  0  0  0  0  0  0  0  0  0  0  0
   -3.8639   16.8980  -34.8870 H   0  0  0  0  0  0  0  0  0  0  0  0
  1  2  1  0
  2  3  1  0
  3  4  1  0
  4  5  1  0
  5  6  1  0
  6  7  1  0
  7  8  1  0
  8  9  1  0
  9 10  1  0
 10 11  1  0
 11 12  1  0
  3 13  2  0
 13 14  1  0
 14 15  2  0
 14 16  1  0
 16 17  1  0
 16 18  1  0
 18 19  2  0
 18  2  1  0
 12  7  1  0
  1 20  1  0
  1 21  1  0
  1 22  1  0
  4 23  1  0
  4 24  1  0
  5 25  1  0
  5 26  1  0
  6 27  1  0
  6 28  1  0
  8 29  1  0
  8 30  1  0
  9 31  1  0
  9 32  1  0
 11 33  1  0
 11 34  1  0
 12 35  1  0
 12 36  1  0
 13 37  1  0
 17 38  1  0
 17 39  1  0
 17 40  1  0
M  CHG  1   4   1
M  END
>  <UniqueID>  (8) 
8

>  <SMILES>  (8) 
Cn1c([NH2+]CCN2CCOCC2)cc(=O)n(C)c1=O

>  <Energy>  (8) 
56.274380440457136

>  <Genealogy>  (8) 
Cn1c([NH2+]CCN2CCOCC2)cc(=O)n(C)c1=O (protonated)
Cn1c([NH2+]CCN2CCOCC2)cc(=O)n(C)c1=O (3D coordinates assigned)
Cn1c([NH2+]CCN2CCOCC2)cc(=O)n(C)c1=O (nonaromatic ring conformer: 56.274380440457136 kcal/mol)

>  <smiles>  (8) 
Cn1c(NCCN2CCOCC2)cc(=O)n(C)c1=O

>  <score_type>  (8) 
oracle

>  <origin>  (8) 
adg

>  <m_score__min__energy>  (8) 
-6

>  <m_primary>  (8) 
energy

$$$$
8:0
     RDKit          3D

 27 29  0  0  0  0  0  0  0  0999 V2000
   -6.7700   23.8580  -31.1350 C   0  0  0  0  0  0  0  0  0  0  0  0
   -6.6180   24.7980  -30.1130 C   0  0  0  0  0  0  0  0  0  0  0  0
   -5.3910   24.9220  -29.4510 C   0  0  0  0  0  0  0  0  0  0  0  0
   -4.3020   24.1040  -29.8070 C   0  0  0  0  0  0  0  0  0  0  0  0
   -3.0020   24.2340  -29.1090 C   0  0  0  0  0  0  0  0  0  0  0  0
   -1.8410   23.7970  -29.6740 N   0  0  0  0  0  0  0  0  0  0  0  0
   -0.6620   24.1410  -28.5580 S   0  0  0  0  0  0  0  0  0  0  0  0
   -1.6430   24.8270  -27.4000 C   0  0  0  0  0  0  0  0  0  0  0  0
   -1.2360   25.3780  -26.0900 C   0  0  0  0  0  0  0  0  0  0  0  0
   -1.5950   26.6790  -25.7060 C   0  0  0  0  0  0  0  0  0  0  0  0
   -1.1980   27.1770  -24.4640 C   0  0  0  0  0  0  0  0  0  0  0  0
   -0.4440   26.3690  -23.6120 C   0  0  0  0  0  0  0  0  0  0  0  0
   -0.1000   25.1100  -23.9920 N   0  0  0  0  0  0  0  0  0  0  0  0
   -0.4760   24.6020  -25.1990 C   0  0  0  0  0  0  0  0  0  0  0  0
   -2.9110   24.8020  -27.8630 N   0  0  0  0  0  0  0  0  0  0  0  0
   -4.4690   23.1610  -30.8400 C   0  0  0  0  0  0  0  0  0  0  0  0
   -5.6970   23.0410  -31.4980 C   0  0  0  0  0  0  0  0  0  0  0  0
   -7.7350   23.7612  -31.6540 H   0  0  0  0  0  0  0  0  0  0  0  0
   -7.4635   25.4415  -29.8281 H   0  0  0  0  0  0  0  0  0  0  0  0
   -5.2768   25.6639  -28.6469 H   0  0  0  0  0  0  0  0  0  0  0  0
   -2.1902   27.3074  -26.3848 H   0  0  0  0  0  0  0  0  0  0  0  0
   -1.4768   28.1966  -24.1597 H   0  0  0  0  0  0  0  0  0  0  0  0
   -0.1273   26.7518  -22.6306 H   0  0  0  0  0  0  0  0  0  0  0  0
    0.4650   24.5170  -23.3430 H   0  0  0  0  0  0  0  0  0  0  0  0
   -0.1830   23.5789  -25.4773 H   0  0  0  0  0  0  0  0  0  0  0  0
   -3.6278   22.5147  -31.1310 H   0  0  0  0  0  0  0  0  0  0  0  0
   -5.8182   22.3015  -32.3033 H   0  0  0  0  0  0  0  0  0  0  0  0
  1  2  2  0
  2  3  1  0
  3  4  2  0
  4  5  1  0
  5  6  2  0
  6  7  1  0
  7  8  1  0
  8  9  1  0
  9 10  2  0
 10 11  1  0
 11 12  2  0
 12 13  1  0
 13 14  2  0
  8 15  2  0
  4 16  1  0
 16 17  2  0
 17  1  1  0
 15  5  1  0
 14  9  1  0
  1 18  1  0
  2 19  1  0
  3 20  1  0
 10 21  1  0
 11 22  1  0
 12 23  1  0
 13 24  1  0
 14 25  1  0
 16 26  1  0
 17 27  1  0
M  CHG  1  13   1
M  END
>  <UniqueID>  (9) 
9

>  <SMILES>  (9) 
c1ccc(-c2nsc(-c3ccc[nH+]c3)n2)cc1

>  <Energy>  (9) 
68.13111945610626

>  <Genealogy>  (9) 
c1ccc(-c2nsc(-c3ccc[nH+]c3)n2)cc1 (protonated)
c1ccc(-c2nsc(-c3ccc[nH+]c3)n2)cc1 (3D coordinates assigned)
c1ccc(-c2nsc(-c3ccc[nH+]c3)n2)cc1 (optimized conformer: 68.13111945610626 kcal/mol)

>  <smiles>  (9) 
c1ccc(-c2nsc(-c3cccnc3)n2)cc1

>  <score_type>  (9) 
oracle

>  <origin>  (9) 
adg

>  <m_score__min__energy>  (9) 
-6.7699999999999996

>  <m_primary>  (9) 
energy

$$$$
9:0
     RDKit          3D

 44 46  0  0  0  0  0  0  0  0999 V2000
   -5.5640   25.5320  -30.2520 C   0  0  0  0  0  0  0  0  0  0  0  0
   -4.2360   25.1190  -30.5510 O   0  0  0  0  0  0  0  0  0  0  0  0
   -3.8520   23.7970  -30.8410 C   0  0  0  0  0  0  0  0  0  0  0  0
   -4.5700   23.0060  -31.7500 C   0  0  0  0  0  0  0  0  0  0  0  0
   -4.1750   21.6930  -32.0410 C   0  0  0  0  0  0  0  0  0  0  0  0
   -4.9740   20.8820  -33.0460 C   0  0  0  0  0  0  0  0  0  0  0  0
   -5.0190   19.4380  -32.6960 N   0  0  0  0  0  0  0  0  0  0  0  0
   -4.7880   18.5690  -33.8890 C   0  0  0  0  0  0  0  0  0  0  0  0
   -6.0900   18.0290  -34.4950 C   0  0  0  0  0  0  0  0  0  0  0  0
   -6.8640   17.1790  -33.4720 C   0  0  0  0  0  0  0  0  0  0  0  0
   -6.6350   17.6460  -32.0250 C   0  0  0  0  0  0  0  0  0  0  0  0
   -6.2880   19.1390  -31.9790 C   0  0  0  0  0  0  0  0  0  0  0  0
   -3.0490   21.1330  -31.4020 C   0  0  0  0  0  0  0  0  0  0  0  0
   -2.7220   19.7980  -31.7260 O   0  0  0  0  0  0  0  0  0  0  0  0
   -1.5290   19.3300  -32.3430 C   0  0  0  0  0  0  0  0  0  0  0  0
   -2.3150   21.9230  -30.4800 C   0  0  0  0  0  0  0  0  0  0  0  0
   -1.2180   21.4250  -29.8460 N   0  0  0  0  0  0  0  0  0  0  0  0
   -0.4900   22.1510  -28.9580 C   0  0  0  0  0  0  0  0  0  0  0  0
   -0.8570   23.4610  -28.6630 C   0  0  0  0  0  0  0  0  0  0  0  0
   -1.9740   24.0150  -29.2870 C   0  0  0  0  0  0  0  0  0  0  0  0
   -2.7220   23.2550  -30.2060 C   0  0  0  0  0  0  0  0  0  0  0  0
   -5.6981   25.5737  -29.1610 H   0  0  0  0  0  0  0  0  0  0  0  0
   -5.7437   26.5285  -30.6819 H   0  0  0  0  0  0  0  0  0  0  0  0
   -6.2771   24.8132  -30.6819 H   0  0  0  0  0  0  0  0  0  0  0  0
   -5.4597   23.4239  -32.2437 H   0  0  0  0  0  0  0  0  0  0  0  0
   -6.0025   21.2709  -33.0769 H   0  0  0  0  0  0  0  0  0  0  0  0
   -4.4798   20.9764  -34.0242 H   0  0  0  0  0  0  0  0  0  0  0  0
   -4.2430   19.2430  -32.0170 H   0  0  0  0  0  0  0  0  0  0  0  0
   -4.2617   19.1572  -34.6552 H   0  0  0  0  0  0  0  0  0  0  0  0
   -4.1944   17.7042  -33.5577 H   0  0  0  0  0  0  0  0  0  0  0  0
   -6.7188   18.8753  -34.8086 H   0  0  0  0  0  0  0  0  0  0  0  0
   -5.8382   17.3951  -35.3580 H   0  0  0  0  0  0  0  0  0  0  0  0
   -7.9383   17.2461  -33.6985 H   0  0  0  0  0  0  0  0  0  0  0  0
   -6.4977   16.1448  -33.5514 H   0  0  0  0  0  0  0  0  0  0  0  0
   -7.5507   17.4712  -31.4412 H   0  0  0  0  0  0  0  0  0  0  0  0
   -5.7942   17.0771  -31.6015 H   0  0  0  0  0  0  0  0  0  0  0  0
   -7.1039   19.7080  -32.4486 H   0  0  0  0  0  0  0  0  0  0  0  0
   -6.1587   19.4257  -30.9249 H   0  0  0  0  0  0  0  0  0  0  0  0
   -0.8026   19.0451  -31.5676 H   0  0  0  0  0  0  0  0  0  0  0  0
   -1.7589   18.4554  -32.9693 H   0  0  0  0  0  0  0  0  0  0  0  0
   -1.1029   20.1276  -32.9693 H   0  0  0  0  0  0  0  0  0  0  0  0
    0.3896   21.7036  -28.4720 H   0  0  0  0  0  0  0  0  0  0  0  0
   -0.2714   24.0534  -27.9445 H   0  0  0  0  0  0  0  0  0  0  0  0
   -2.2718   25.0494  -29.0604 H   0  0  0  0  0  0  0  0  0  0  0  0
  1  2  1  0
  2  3  1  0
  3  4  2  0
  4  5  1  0
  5  6  1  0
  6  7  1  0
  7  8  1  0
  8  9  1  0
  9 10  1  0
 10 11  1  0
 11 12  1  0
  5 13  2  0
 13 14  1  0
 14 15  1  0
 13 16  1  0
 16 17  2  0
 17 18  1  0
 18 19  2  0
 19 20  1  0
 20 21  2  0
 21  3  1  0
 12  7  1  0
 21 16  1  0
  1 22  1  0
  1 23  1  0
  1 24  1  0
  4 25  1  0
  6 26  1  0
  6 27  1  0
  7 28  1  0
  8 29  1  0
  8 30  1  0
  9 31  1  0
  9 32  1  0
 10 33  1  0
 10 34  1  0
 11 35  1  0
 11 36  1  0
 12 37  1  0
 12 38  1  0
 15 39  1  0
 15 40  1  0
 15 41  1  0
 18 42  1  0
 19 43  1  0
 20 44  1  0
M  CHG  1   7   1
M  END
>  <UniqueID>  (10) 
10

>  <SMILES>  (10) 
COc1cc(C[NH+]2CCCCC2)c(OC)c2ncccc12

>  <Energy>  (10) 
60.41036934827933

>  <Genealogy>  (10) 
COc1cc(C[NH+]2CCCCC2)c(OC)c2ncccc12 (protonated)
COc1cc(C[NH+]2CCCCC2)c(OC)c2ncccc12 (3D coordinates assigned)
COc1cc(C[NH+]2CCCCC2)c(OC)c2ncccc12 (nonaromatic ring conformer: 60.41036934827933 kcal/mol)

>  <smiles>  (10) 
COc1cc(CN2CCCCC2)c(OC)c2ncccc12

>  <score_type>  (10) 
oracle

>  <origin>  (10) 
adg

>  <m_score__min__energy>  (10) 
-6.8600000000000003

>  <m_primary>  (10) 
energy

$$$$
10:0
     RDKit          3D

 32 33  0  0  0  0  0  0  0  0999 V2000
   -8.4550   22.2550  -31.6350 C   0  0  0  0  0  0  0  0  0  0  0  0
   -7.1590   22.9580  -31.3590 C   0  0  0  0  0  0  0  0  0  0  0  0
   -5.9510   22.4140  -31.8180 C   0  0  0  0  0  0  0  0  0  0  0  0
   -4.7380   23.0470  -31.5310 C   0  0  0  0  0  0  0  0  0  0  0  0
   -4.7170   24.2310  -30.7720 C   0  0  0  0  0  0  0  0  0  0  0  0
   -3.4990   24.9210  -30.4630 N   0  0  0  0  0  0  0  0  0  0  0  0
   -2.4630   24.5640  -29.1160 S   0  0  0  0  0  0  0  0  0  0  0  0
   -3.1940   24.8750  -27.8410 O   0  0  0  0  0  0  0  0  0  0  0  0
   -1.2350   25.4250  -29.2000 O   0  0  0  0  0  0  0  0  0  0  0  0
   -1.9770   22.8720  -29.1580 C   0  0  0  0  0  0  0  0  0  0  0  0
   -1.2060   22.3850  -30.2210 C   0  0  0  0  0  0  0  0  0  0  0  0
   -0.8090   21.0460  -30.2440 C   0  0  0  0  0  0  0  0  0  0  0  0
   -1.1850   20.1830  -29.2100 C   0  0  0  0  0  0  0  0  0  0  0  0
   -0.7820   18.8880  -29.2460 F   0  0  0  0  0  0  0  0  0  0  0  0
   -1.9760   20.6560  -28.1480 C   0  0  0  0  0  0  0  0  0  0  0  0
   -2.3590   19.7380  -27.0240 C   0  0  0  0  0  0  0  0  0  0  0  0
   -2.3610   22.0070  -28.1240 C   0  0  0  0  0  0  0  0  0  0  0  0
   -5.9240   24.7610  -30.3000 C   0  0  0  0  0  0  0  0  0  0  0  0
   -7.1370   24.1280  -30.5850 C   0  0  0  0  0  0  0  0  0  0  0  0
   -8.9395   21.9922  -30.6831 H   0  0  0  0  0  0  0  0  0  0  0  0
   -9.1162   22.9181  -32.2122 H   0  0  0  0  0  0  0  0  0  0  0  0
   -8.2597   21.3392  -32.2122 H   0  0  0  0  0  0  0  0  0  0  0  0
   -5.9577   21.4848  -32.4067 H   0  0  0  0  0  0  0  0  0  0  0  0
   -3.7954   22.6170  -31.9006 H   0  0  0  0  0  0  0  0  0  0  0  0
   -0.9124   23.0585  -31.0396 H   0  0  0  0  0  0  0  0  0  0  0  0
   -0.1987   20.6693  -31.0780 H   0  0  0  0  0  0  0  0  0  0  0  0
   -2.1535   20.2305  -26.0621 H   0  0  0  0  0  0  0  0  0  0  0  0
   -3.4310   19.5012  -27.0931 H   0  0  0  0  0  0  0  0  0  0  0  0
   -1.7732   18.8095  -27.0931 H   0  0  0  0  0  0  0  0  0  0  0  0
   -2.9672   22.3881  -27.2890 H   0  0  0  0  0  0  0  0  0  0  0  0
   -5.9175   25.6830  -29.7001 H   0  0  0  0  0  0  0  0  0  0  0  0
   -8.0780   24.5487  -30.2010 H   0  0  0  0  0  0  0  0  0  0  0  0
  1  2  1  0
  2  3  2  0
  3  4  1  0
  4  5  2  0
  5  6  1  0
  6  7  1  0
  7  8  2  0
  7  9  2  0
  7 10  1  0
 10 11  2  0
 11 12  1  0
 12 13  2  0
 13 14  1  0
 13 15  1  0
 15 16  1  0
 15 17  2  0
  5 18  1  0
 18 19  2  0
 19  2  1  0
 17 10  1  0
  1 20  1  0
  1 21  1  0
  1 22  1  0
  3 23  1  0
  4 24  1  0
 11 25  1  0
 12 26  1  0
 16 27  1  0
 16 28  1  0
 16 29  1  0
 17 30  1  0
 18 31  1  0
 19 32  1  0
M  CHG  1   6  -1
M  END
>  <UniqueID>  (11) 
11

>  <SMILES>  (11) 
Cc1ccc([N-]S(=O)(=O)c2ccc(F)c(C)c2)cc1

>  <Energy>  (11) 
34.073670441183275

>  <Genealogy>  (11) 
Cc1ccc([N-]S(=O)(=O)c2ccc(F)c(C)c2)cc1 (protonated)
Cc1ccc([N-]S(=O)(=O)c2ccc(F)c(C)c2)cc1 (3D coordinates assigned)
Cc1ccc([N-]S(=O)(=O)c2ccc(F)c(C)c2)cc1 (optimized conformer: 34.073670441183275 kcal/mol)

>  <smiles>  (11) 
Cc1ccc(NS(=O)(=O)c2ccc(F)c(C)c2)cc1

>  <score_type>  (11) 
oracle

>  <origin>  (11) 
adg

>  <m_score__min__energy>  (11) 
-8.5299999999999994

>  <m_primary>  (11) 
energy

$$$$
11:0
     RDKit          3D

 31 33  0  0  0  0  0  0  0  0999 V2000
   -5.6860   14.7030  -33.9520 C   0  0  0  0  0  0  0  0  0  0  0  0
   -6.4220   15.8030  -34.4760 O   0  0  0  0  0  0  0  0  0  0  0  0
   -6.4850   17.0700  -33.8790 C   0  0  0  0  0  0  0  0  0  0  0  0
   -5.7610   18.1160  -34.4600 C   0  0  0  0  0  0  0  0  0  0  0  0
   -5.7900   19.3980  -33.9050 C   0  0  0  0  0  0  0  0  0  0  0  0
   -6.5550   19.6600  -32.7520 C   0  0  0  0  0  0  0  0  0  0  0  0
   -6.5940   21.0130  -32.1400 C   0  0  0  0  0  0  0  0  0  0  0  0
   -5.4180   21.6830  -31.7530 C   0  0  0  0  0  0  0  0  0  0  0  0
   -5.5040   22.9590  -31.1810 C   0  0  0  0  0  0  0  0  0  0  0  0
   -4.3470   23.6490  -30.7850 C   0  0  0  0  0  0  0  0  0  0  0  0
   -4.4500   24.9230  -30.2170 C   0  0  0  0  0  0  0  0  0  0  0  0
   -5.7040   25.5160  -30.0430 C   0  0  0  0  0  0  0  0  0  0  0  0
   -6.8630   24.8400  -30.4360 C   0  0  0  0  0  0  0  0  0  0  0  0
   -6.7690   23.5610  -31.0060 C   0  0  0  0  0  0  0  0  0  0  0  0
   -7.9130   22.8660  -31.4150 C   0  0  0  0  0  0  0  0  0  0  0  0
   -7.7980   21.6290  -31.9650 N   0  0  0  0  0  0  0  0  0  0  0  0
   -7.2720   18.6040  -32.1630 C   0  0  0  0  0  0  0  0  0  0  0  0
   -7.2420   17.3240  -32.7200 C   0  0  0  0  0  0  0  0  0  0  0  0
   -5.7087   14.7370  -32.8528 H   0  0  0  0  0  0  0  0  0  0  0  0
   -6.1367   13.7616  -34.2992 H   0  0  0  0  0  0  0  0  0  0  0  0
   -4.6438   14.7605  -34.2992 H   0  0  0  0  0  0  0  0  0  0  0  0
   -5.1624   17.9275  -35.3634 H   0  0  0  0  0  0  0  0  0  0  0  0
   -5.2111   20.2084  -34.3720 H   0  0  0  0  0  0  0  0  0  0  0  0
   -4.4370   21.2073  -31.8989 H   0  0  0  0  0  0  0  0  0  0  0  0
   -3.3582   23.1869  -30.9217 H   0  0  0  0  0  0  0  0  0  0  0  0
   -3.5416   25.4599  -29.9063 H   0  0  0  0  0  0  0  0  0  0  0  0
   -5.7791   26.5180  -29.5953 H   0  0  0  0  0  0  0  0  0  0  0  0
   -7.8479   25.3103  -30.2985 H   0  0  0  0  0  0  0  0  0  0  0  0
   -8.9064   23.3219  -31.2910 H   0  0  0  0  0  0  0  0  0  0  0  0
   -7.8629   18.7880  -31.2537 H   0  0  0  0  0  0  0  0  0  0  0  0
   -7.8132   16.5096  -32.2504 H   0  0  0  0  0  0  0  0  0  0  0  0
  1  2  1  0
  2  3  1  0
  3  4  2  0
  4  5  1  0
  5  6  2  0
  6  7  1  0
  7  8  2  0
  8  9  1  0
  9 10  2  0
 10 11  1  0
 11 12  2  0
 12 13  1  0
 13 14  2  0
 14 15  1  0
 15 16  2  0
  6 17  1  0
 17 18  2  0
 18  3  1  0
 16  7  1  0
 14  9  1  0
  1 19  1  0
  1 20  1  0
  1 21  1  0
  4 22  1  0
  5 23  1  0
  8 24  1  0
 10 25  1  0
 11 26  1  0
 12 27  1  0
 13 28  1  0
 15 29  1  0
 17 30  1  0
 18 31  1  0
M  END
>  <UniqueID>  (12) 
12

>  <SMILES>  (12) 
COc1ccc(-c2cc3ccccc3cn2)cc1

>  <Energy>  (12) 
40.884031687155975

>  <Genealogy>  (12) 
COc1ccc(-c2cc3ccccc3cn2)cc1 (3D coordinates assigned)
COc1ccc(-c2cc3ccccc3cn2)cc1 (optimized conformer: 40.884031687155975 kcal/mol)

>  <smiles>  (12) 
COc1ccc(-c2cc3ccccc3cn2)cc1

>  <score_type>  (12) 
oracle

>  <origin>  (12) 
adg

>  <m_score__min__energy>  (12) 
-7.0099999999999998

>  <m_primary>  (12) 
energy

$$$$
12:0
     RDKit          3D

 41 43  0  0  0  0  0  0  0  0999 V2000
   -6.3980   25.3120  -29.7660 O   0  0  0  0  0  0  0  0  0  0  0  0
   -5.3050   24.8120  -30.1480 C   0  0  0  0  0  0  0  0  0  0  0  0
   -4.2350   24.5180  -29.1410 C   0  0  0  0  0  0  0  0  0  0  0  0
   -2.9170   24.8930  -29.6490 N   0  0  0  0  0  0  0  0  0  0  0  0
   -1.7250   25.1700  -28.8980 C   0  0  0  0  0  0  0  0  0  0  0  0
   -1.2400   26.3310  -28.9680 O   0  0  0  0  0  0  0  0  0  0  0  0
   -1.0420   24.1750  -28.0440 C   0  0  0  0  0  0  0  0  0  0  0  0
    0.2140   23.6360  -28.3050 C   0  0  0  0  0  0  0  0  0  0  0  0
    0.6090   22.6600  -27.3820 C   0  0  0  0  0  0  0  0  0  0  0  0
   -0.3350   22.4080  -26.3980 C   0  0  0  0  0  0  0  0  0  0  0  0
   -1.6590   23.4030  -26.6790 S   0  0  0  0  0  0  0  0  0  0  0  0
   -5.0710   24.5700  -31.5060 O   0  0  0  0  0  0  0  0  0  0  0  0
   -5.5150   23.3980  -32.1830 C   0  0  0  0  0  0  0  0  0  0  0  0
   -4.5070   22.3020  -32.0190 C   0  0  0  0  0  0  0  0  0  0  0  0
   -4.5470   21.1120  -32.7440 C   0  0  0  0  0  0  0  0  0  0  0  0
   -3.1830   20.2140  -32.3350 S   0  0  0  0  0  0  0  0  0  0  0  0
   -2.6090   21.3610  -31.2460 C   0  0  0  0  0  0  0  0  0  0  0  0
   -1.3090   21.2710  -30.5130 C   0  0  0  0  0  0  0  0  0  0  0  0
   -1.5100   20.5730  -29.1970 C   0  0  0  0  0  0  0  0  0  0  0  0
   -0.5450   19.6720  -28.7160 C   0  0  0  0  0  0  0  0  0  0  0  0
   -0.7590   18.9830  -27.5180 C   0  0  0  0  0  0  0  0  0  0  0  0
   -1.9380   19.1830  -26.7960 C   0  0  0  0  0  0  0  0  0  0  0  0
   -2.9070   20.0730  -27.2700 C   0  0  0  0  0  0  0  0  0  0  0  0
   -2.6970   20.7620  -28.4690 C   0  0  0  0  0  0  0  0  0  0  0  0
   -3.4320   22.4310  -31.1940 N   0  0  0  0  0  0  0  0  0  0  0  0
   -4.4408   25.0862  -28.2219 H   0  0  0  0  0  0  0  0  0  0  0  0
   -4.2358   23.4373  -28.9358 H   0  0  0  0  0  0  0  0  0  0  0  0
    0.8376   23.9472  -29.1560 H   0  0  0  0  0  0  0  0  0  0  0  0
    1.5778   22.1415  -27.4327 H   0  0  0  0  0  0  0  0  0  0  0  0
   -0.2344   21.6831  -25.5768 H   0  0  0  0  0  0  0  0  0  0  0  0
   -6.4775   23.0748  -31.7597 H   0  0  0  0  0  0  0  0  0  0  0  0
   -5.6360   23.6217  -33.2532 H   0  0  0  0  0  0  0  0  0  0  0  0
   -5.3301   20.8131  -33.4563 H   0  0  0  0  0  0  0  0  0  0  0  0
   -0.5869   20.7047  -31.1195 H   0  0  0  0  0  0  0  0  0  0  0  0
   -0.9261   22.2858  -30.3295 H   0  0  0  0  0  0  0  0  0  0  0  0
    0.3826   19.5079  -29.2841 H   0  0  0  0  0  0  0  0  0  0  0  0
    0.0021   18.2826  -27.1437 H   0  0  0  0  0  0  0  0  0  0  0  0
   -2.1044   18.6400  -25.8539 H   0  0  0  0  0  0  0  0  0  0  0  0
   -3.8343   20.2312  -26.6999 H   0  0  0  0  0  0  0  0  0  0  0  0
   -3.4646   21.4550  -28.8438 H   0  0  0  0  0  0  0  0  0  0  0  0
   -3.2480   23.2760  -30.6090 H   0  0  0  0  0  0  0  0  0  0  0  0
  1  2  2  0
  2  3  1  0
  3  4  1  0
  4  5  1  0
  5  6  2  0
  5  7  1  0
  7  8  2  0
  8  9  1  0
  9 10  2  0
 10 11  1  0
  2 12  1  0
 12 13  1  0
 13 14  1  0
 14 15  2  0
 15 16  1  0
 16 17  1  0
 17 18  1  0
 18 19  1  0
 19 20  2  0
 20 21  1  0
 21 22  2  0
 22 23  1  0
 23 24  2  0
 17 25  2  0
 11  7  1  0
 25 14  1  0
 24 19  1  0
  3 26  1  0
  3 27  1  0
  8 28  1  0
  9 29  1  0
 10 30  1  0
 13 31  1  0
 13 32  1  0
 15 33  1  0
 18 34  1  0
 18 35  1  0
 20 36  1  0
 21 37  1  0
 22 38  1  0
 23 39  1  0
 24 40  1  0
 25 41  1  0
M  CHG  2   4  -1  25   1
M  END
>  <UniqueID>  (13) 
13

>  <SMILES>  (13) 
O=C(C[N-]C(=O)c1cccs1)OCc1csc(Cc2ccccc2)[nH+]1

>  <Energy>  (13) 
91.86756980399913

>  <Genealogy>  (13) 
O=C(C[N-]C(=O)c1cccs1)OCc1csc(Cc2ccccc2)[nH+]1 (protonated)
O=C(C[N-]C(=O)c1cccs1)OCc1csc(Cc2ccccc2)[nH+]1 (3D coordinates assigned)
O=C(C[N-]C(=O)c1cccs1)OCc1csc(Cc2ccccc2)[nH+]1 (optimized conformer: 91.86756980399913 kcal/mol)

>  <smiles>  (13) 
O=C(CNC(=O)c1cccs1)OCc1csc(Cc2ccccc2)n1

>  <score_type>  (13) 
oracle

>  <origin>  (13) 
adg

>  <m_score__min__energy>  (13) 
-9.1400000000000006

>  <m_primary>  (13) 
energy

$$$$
13:0
     RDKit          3D

 57 61  0  0  0  0  0  0  0  0999 V2000
   -3.7460   23.0880  -31.5600 C   0  0  0  0  0  0  0  0  0  0  0  0
   -4.8090   23.9830  -31.0990 N   0  0  0  0  0  0  0  0  0  0  0  0
   -4.5690   25.1900  -30.6040 N   0  0  0  0  0  0  0  0  0  0  0  0
   -5.7440   25.7160  -30.2180 C   0  0  0  0  0  0  0  0  0  0  0  0
   -6.7620   24.8150  -30.4710 C   0  0  0  0  0  0  0  0  0  0  0  0
   -6.1370   23.7270  -31.0440 C   0  0  0  0  0  0  0  0  0  0  0  0
   -6.8200   22.4910  -31.4940 C   0  0  0  0  0  0  0  0  0  0  0  0
   -7.9970   22.0370  -30.8670 C   0  0  0  0  0  0  0  0  0  0  0  0
   -8.6050   20.8450  -31.2740 C   0  0  0  0  0  0  0  0  0  0  0  0
   -8.0350   20.0800  -32.2940 C   0  0  0  0  0  0  0  0  0  0  0  0
   -6.8470   20.5000  -32.9130 C   0  0  0  0  0  0  0  0  0  0  0  0
   -6.1860   19.6480  -33.9720 C   0  0  0  0  0  0  0  0  0  0  0  0
   -5.3820   18.4730  -33.3410 C   0  0  1  0  0  0  0  0  0  0  0  0
   -5.7100   17.1340  -34.0960 C   0  0  0  0  0  0  0  0  0  0  0  0
   -4.6260   16.2430  -34.2910 O   0  0  0  0  0  0  0  0  0  0  0  0
   -3.7470   16.2710  -33.2010 C   0  0  0  0  0  0  0  0  0  0  0  0
   -2.9880   17.5850  -33.2350 C   0  0  0  0  0  0  0  0  0  0  0  0
   -3.9180   18.7230  -33.2730 N   0  0  0  0  0  0  0  0  0  0  0  0
   -3.3170   20.0280  -33.0840 C   0  0  0  0  0  0  0  0  0  0  0  0
   -3.6270   20.9570  -33.8790 O   0  0  0  0  0  0  0  0  0  0  0  0
   -2.3530   20.3370  -31.9960 C   0  0  0  0  0  0  0  0  0  0  0  0
   -2.8480   20.3950  -30.6790 C   0  0  0  0  0  0  0  0  0  0  0  0
   -1.9800   20.5490  -29.5940 C   0  0  0  0  0  0  0  0  0  0  0  0
   -0.6040   20.6510  -29.8090 C   0  0  0  0  0  0  0  0  0  0  0  0
   -0.0960   20.6270  -31.1090 C   0  0  0  0  0  0  0  0  0  0  0  0
   -0.9570   20.4960  -32.2130 C   0  0  0  0  0  0  0  0  0  0  0  0
   -0.3990   20.5730  -33.5330 N   0  0  0  0  0  0  0  0  0  0  0  0
    0.7410   19.9980  -33.8840 N   0  0  0  0  0  0  0  0  0  0  0  0
    0.9430   20.3270  -35.1790 C   0  0  0  0  0  0  0  0  0  0  0  0
   -0.0970   21.1360  -35.5840 C   0  0  0  0  0  0  0  0  0  0  0  0
   -0.9130   21.2790  -34.5280 N   0  0  0  0  0  0  0  0  0  0  0  0
   -6.2490   21.7120  -32.5150 C   0  0  0  0  0  0  0  0  0  0  0  0
   -3.2300   22.6535  -30.6911 H   0  0  0  0  0  0  0  0  0  0  0  0
   -4.1831   22.2820  -32.1676 H   0  0  0  0  0  0  0  0  0  0  0  0
   -3.0262   23.6561  -32.1676 H   0  0  0  0  0  0  0  0  0  0  0  0
   -5.8758   26.7116  -29.7692 H   0  0  0  0  0  0  0  0  0  0  0  0
   -7.8347   24.9387  -30.2613 H   0  0  0  0  0  0  0  0  0  0  0  0
   -8.4416   22.6249  -30.0505 H   0  0  0  0  0  0  0  0  0  0  0  0
   -9.5339   20.5094  -30.7898 H   0  0  0  0  0  0  0  0  0  0  0  0
   -8.5186   19.1451  -32.6135 H   0  0  0  0  0  0  0  0  0  0  0  0
   -6.9616   19.2353  -34.6339 H   0  0  0  0  0  0  0  0  0  0  0  0
   -5.4854   20.2813  -34.5361 H   0  0  0  0  0  0  0  0  0  0  0  0
   -5.7060   18.3847  -32.2935 H   0  0  0  0  0  0  0  0  0  0  0  0
   -6.4807   16.6031  -33.5179 H   0  0  0  0  0  0  0  0  0  0  0  0
   -6.0275   17.4358  -35.1050 H   0  0  0  0  0  0  0  0  0  0  0  0
   -4.3156   16.1940  -32.2625 H   0  0  0  0  0  0  0  0  0  0  0  0
   -3.0450   15.4261  -33.2582 H   0  0  0  0  0  0  0  0  0  0  0  0
   -2.3598   17.6622  -32.3353 H   0  0  0  0  0  0  0  0  0  0  0  0
   -2.3637   17.6088  -34.1404 H   0  0  0  0  0  0  0  0  0  0  0  0
   -3.9309   20.3182  -30.5018 H   0  0  0  0  0  0  0  0  0  0  0  0
   -2.3811   20.5898  -28.5705 H   0  0  0  0  0  0  0  0  0  0  0  0
    0.0801   20.7503  -28.9533 H   0  0  0  0  0  0  0  0  0  0  0  0
    0.9887   20.7114  -31.2714 H   0  0  0  0  0  0  0  0  0  0  0  0
    1.7905   20.0050  -35.8020 H   0  0  0  0  0  0  0  0  0  0  0  0
   -0.2322   21.5794  -36.5815 H   0  0  0  0  0  0  0  0  0  0  0  0
   -1.7750   21.8680  -34.4730 H   0  0  0  0  0  0  0  0  0  0  0  0
   -5.3263   22.0519  -33.0081 H   0  0  0  0  0  0  0  0  0  0  0  0
  1  2  1  0
  2  3  1  0
  3  4  2  0
  4  5  1  0
  5  6  2  0
  6  7  1  0
  7  8  2  0
  8  9  1  0
  9 10  2  0
 10 11  1  0
 11 12  1  0
 12 13  1  0
 13 14  1  0
 14 15  1  0
 15 16  1  0
 16 17  1  0
 17 18  1  0
 18 19  1  0
 19 20  2  0
 19 21  1  0
 21 22  2  0
 22 23  1  0
 23 24  2  0
 24 25  1  0
 25 26  2  0
 26 27  1  0
 27 28  1  0
 28 29  2  0
 29 30  1  0
 30 31  2  0
 11 32  2  0
  6  2  1  0
 32  7  1  0
 18 13  1  0
 26 21  1  0
 31 27  1  0
  1 33  1  0
  1 34  1  0
  1 35  1  0
  4 36  1  0
  5 37  1  0
  8 38  1  0
  9 39  1  0
 10 40  1  0
 12 41  1  0
 12 42  1  0
 13 43  1  1
 14 44  1  0
 14 45  1  0
 16 46  1  0
 16 47  1  0
 17 48  1  0
 17 49  1  0
 22 50  1  0
 23 51  1  0
 24 52  1  0
 25 53  1  0
 29 54  1  0
 30 55  1  0
 31 56  1  0
 32 57  1  0
M  CHG  1  31   1
M  END
>  <UniqueID>  (14) 
14

>  <SMILES>  (14) 
Cn1nccc1-c1cccc(C[C@H]2COCCN2C(=O)c2ccccc2-n2ncc[nH+]2)c1

>  <Energy>  (14) 
151.4005681347458

>  <Genealogy>  (14) 
Cn1nccc1-c1cccc(CC2COCCN2C(=O)c2ccccc2-n2ncc[nH+]2)c1 (protonated)
Cn1nccc1-c1cccc(C[C@H]2COCCN2C(=O)c2ccccc2-n2ncc[nH+]2)c1 (chirality)
Cn1nccc1-c1cccc(C[C@H]2COCCN2C(=O)c2ccccc2-n2ncc[nH+]2)c1 (3D coordinates assigned)
Cn1nccc1-c1cccc(C[C@H]2COCCN2C(=O)c2ccccc2-n2ncc[nH+]2)c1 (nonaromatic ring conformer: 151.4005681347458 kcal/mol)

>  <smiles>  (14) 
Cn1nccc1-c1cccc(CC2COCCN2C(=O)c2ccccc2-n2nccn2)c1

>  <score_type>  (14) 
oracle

>  <origin>  (14) 
adg

>  <m_score__min__energy>  (14) 
-10.67

>  <m_primary>  (14) 
energy

$$$$
14:0
     RDKit          3D

 47 48  0  0  0  0  0  0  0  0999 V2000
   -5.9620   18.6980  -34.0280 C   0  0  0  0  0  0  0  0  0  0  0  0
   -6.7440   19.9860  -33.7780 C   0  0  0  0  0  0  0  0  0  0  0  0
   -7.3780   19.9620  -32.4430 N   0  0  0  0  0  0  0  0  0  0  0  0
   -7.6080   18.5880  -31.9340 C   0  0  0  0  0  0  0  0  0  0  0  0
   -9.0740   18.2760  -31.5930 C   0  0  0  0  0  0  0  0  0  0  0  0
   -8.5800   20.8250  -32.3510 C   0  0  0  0  0  0  0  0  0  0  0  0
   -8.2340   22.1590  -31.6770 C   0  0  0  0  0  0  0  0  0  0  0  0
   -7.0950   22.7990  -32.3350 N   0  0  0  0  0  0  0  0  0  0  0  0
   -5.8880   23.1500  -31.6420 C   0  0  0  0  0  0  0  0  0  0  0  0
   -5.4500   24.4280  -31.3410 C   0  0  0  0  0  0  0  0  0  0  0  0
   -4.2350   24.2580  -30.7050 C   0  0  0  0  0  0  0  0  0  0  0  0
   -3.4550   25.2980  -30.2120 O   0  0  0  0  0  0  0  0  0  0  0  0
   -3.9130   22.9510  -30.6010 N   0  0  0  0  0  0  0  0  0  0  0  0
   -2.7200   22.3970  -30.0180 C   0  0  0  0  0  0  0  0  0  0  0  0
   -2.5050   22.4710  -28.6330 C   0  0  0  0  0  0  0  0  0  0  0  0
   -1.3470   21.9290  -28.0670 C   0  0  0  0  0  0  0  0  0  0  0  0
   -0.3890   21.3020  -28.8710 C   0  0  0  0  0  0  0  0  0  0  0  0
    0.7550   20.7730  -28.2540 O   0  0  0  0  0  0  0  0  0  0  0  0
    1.0560   19.3840  -28.1740 C   0  0  0  0  0  0  0  0  0  0  0  0
   -0.6030   21.2230  -30.2590 C   0  0  0  0  0  0  0  0  0  0  0  0
   -1.7590   21.7680  -30.8260 C   0  0  0  0  0  0  0  0  0  0  0  0
   -4.9260   22.2690  -31.1770 C   0  0  0  0  0  0  0  0  0  0  0  0
   -4.9480   20.8820  -31.3090 O   0  0  0  0  0  0  0  0  0  0  0  0
   -5.6862   18.2437  -33.0649 H   0  0  0  0  0  0  0  0  0  0  0  0
   -6.5860   17.9952  -34.5996 H   0  0  0  0  0  0  0  0  0  0  0  0
   -5.0506   18.9275  -34.5996 H   0  0  0  0  0  0  0  0  0  0  0  0
   -6.0565   20.8427  -33.8358 H   0  0  0  0  0  0  0  0  0  0  0  0
   -7.5309   20.0756  -34.5414 H   0  0  0  0  0  0  0  0  0  0  0  0
   -7.2742   17.8756  -32.7028 H   0  0  0  0  0  0  0  0  0  0  0  0
   -7.0413   18.5013  -30.9952 H   0  0  0  0  0  0  0  0  0  0  0  0
   -9.1987   18.2495  -30.5004 H   0  0  0  0  0  0  0  0  0  0  0  0
   -9.7232   19.0561  -32.0173 H   0  0  0  0  0  0  0  0  0  0  0  0
   -9.3493   17.2992  -32.0173 H   0  0  0  0  0  0  0  0  0  0  0  0
   -8.9640   21.0198  -33.3632 H   0  0  0  0  0  0  0  0  0  0  0  0
   -9.3425   20.3095  -31.7486 H   0  0  0  0  0  0  0  0  0  0  0  0
   -9.1053   22.8279  -31.7349 H   0  0  0  0  0  0  0  0  0  0  0  0
   -7.9678   21.9629  -30.6279 H   0  0  0  0  0  0  0  0  0  0  0  0
   -7.1770   23.0080  -33.3540 H   0  0  0  0  0  0  0  0  0  0  0  0
   -5.9605   25.3772  -31.5612 H   0  0  0  0  0  0  0  0  0  0  0  0
   -3.2519   22.9583  -27.9890 H   0  0  0  0  0  0  0  0  0  0  0  0
   -1.1879   21.9961  -26.9806 H   0  0  0  0  0  0  0  0  0  0  0  0
    1.1212   19.0832  -27.1179 H   0  0  0  0  0  0  0  0  0  0  0  0
    0.2619   18.8075  -28.6711 H   0  0  0  0  0  0  0  0  0  0  0  0
    2.0175   19.1880  -28.6711 H   0  0  0  0  0  0  0  0  0  0  0  0
    0.1422   20.7304  -30.9010 H   0  0  0  0  0  0  0  0  0  0  0  0
   -1.9168   21.7036  -31.9127 H   0  0  0  0  0  0  0  0  0  0  0  0
   -5.7540   20.3920  -31.6790 H   0  0  0  0  0  0  0  0  0  0  0  0
  1  2  1  0
  2  3  1  0
  3  4  1  0
  4  5  1  0
  3  6  1  0
  6  7  1  0
  7  8  1  0
  8  9  1  0
  9 10  1  0
 10 11  2  0
 11 12  1  0
 11 13  1  0
 13 14  1  0
 14 15  2  0
 15 16  1  0
 16 17  2  0
 17 18  1  0
 18 19  1  0
 17 20  1  0
 20 21  2  0
 13 22  1  0
 22 23  1  0
 22  9  2  0
 21 14  1  0
  1 24  1  0
  1 25  1  0
  1 26  1  0
  2 27  1  0
  2 28  1  0
  4 29  1  0
  4 30  1  0
  5 31  1  0
  5 32  1  0
  5 33  1  0
  6 34  1  0
  6 35  1  0
  7 36  1  0
  7 37  1  0
  8 38  1  0
 10 39  1  0
 15 40  1  0
 16 41  1  0
 19 42  1  0
 19 43  1  0
 19 44  1  0
 20 45  1  0
 21 46  1  0
 23 47  1  0
M  CHG  1  12  -1
M  END
>  <UniqueID>  (15) 
15

>  <SMILES>  (15) 
CCN(CC)CCNc1cc([O-])n(-c2ccc(OC)cc2)c1O

>  <Energy>  (15) 
76.90763178327603

>  <Genealogy>  (15) 
CCN(CC)CCNc1cc([O-])n(-c2ccc(OC)cc2)c1O (protonated)
CCN(CC)CCNc1cc([O-])n(-c2ccc(OC)cc2)c1O (3D coordinates assigned)
CCN(CC)CCNc1cc([O-])n(-c2ccc(OC)cc2)c1O (optimized conformer: 76.90763178327603 kcal/mol)

>  <smiles>  (15) 
CCN(CC)CCNc1cc(O)n(-c2ccc(OC)cc2)c1O

>  <score_type>  (15) 
oracle

>  <origin>  (15) 
adg

>  <m_score__min__energy>  (15) 
-8.5600000000000005

>  <m_primary>  (15) 
energy

$$$$
15:0
     RDKit          3D

 55 56  0  0  0  0  0  0  0  0999 V2000
   -9.1660   19.6880  -32.4050 C   0  0  0  0  0  0  0  0  0  0  0  0
   -7.9100   19.3820  -31.5880 C   0  0  0  0  0  0  0  0  0  0  0  0
   -6.7530   20.2080  -32.0050 N   0  0  0  0  0  0  0  0  0  0  0  0
   -6.6460   21.5030  -31.2830 C   0  0  0  0  0  0  0  0  0  0  0  0
   -6.8340   22.7510  -32.1610 C   0  0  0  0  0  0  0  0  0  0  0  0
   -6.7160   20.3390  -33.4810 C   0  0  0  0  0  0  0  0  0  0  0  0
   -6.1440   19.0860  -34.1700 C   0  0  0  0  0  0  0  0  0  0  0  0
   -5.5980   18.1510  -33.1720 N   0  0  0  0  0  0  0  0  0  0  0  0
   -4.1890   17.8240  -33.4460 C   0  0  0  0  0  0  0  0  0  0  0  0
   -3.2530   18.8360  -32.8480 C   0  0  0  0  0  0  0  0  0  0  0  0
   -3.6440   19.9440  -32.1930 N   0  0  0  0  0  0  0  0  0  0  0  0
   -2.4700   20.5050  -31.8300 C   0  0  0  0  0  0  0  0  0  0  0  0
   -2.3270   21.7590  -31.0460 C   0  0  0  0  0  0  0  0  0  0  0  0
   -1.2540   21.9470  -30.1650 C   0  0  0  0  0  0  0  0  0  0  0  0
   -1.1080   23.1470  -29.4400 C   0  0  0  0  0  0  0  0  0  0  0  0
   -0.0260   23.3330  -28.5680 O   0  0  0  0  0  0  0  0  0  0  0  0
    0.2120   22.5710  -27.3870 C   0  0  0  0  0  0  0  0  0  0  0  0
   -2.0690   24.1750  -29.6000 C   0  0  0  0  0  0  0  0  0  0  0  0
   -2.0050   25.4150  -28.9380 O   0  0  0  0  0  0  0  0  0  0  0  0
   -1.5980   25.6390  -27.5930 C   0  0  0  0  0  0  0  0  0  0  0  0
   -3.1600   23.9770  -30.4600 C   0  0  0  0  0  0  0  0  0  0  0  0
   -4.1020   25.0100  -30.5830 O   0  0  0  0  0  0  0  0  0  0  0  0
   -5.3730   25.0280  -29.9390 C   0  0  0  0  0  0  0  0  0  0  0  0
   -3.2860   22.7720  -31.1750 C   0  0  0  0  0  0  0  0  0  0  0  0
   -1.4240   19.7610  -32.2490 N   0  0  0  0  0  0  0  0  0  0  0  0
   -1.9480   18.7440  -32.8700 O   0  0  0  0  0  0  0  0  0  0  0  0
  -10.0055   19.8925  -31.7242 H   0  0  0  0  0  0  0  0  0  0  0  0
   -8.9854   20.5684  -33.0392 H   0  0  0  0  0  0  0  0  0  0  0  0
   -9.4106   18.8232  -33.0392 H   0  0  0  0  0  0  0  0  0  0  0  0
   -8.1215   19.5795  -30.5267 H   0  0  0  0  0  0  0  0  0  0  0  0
   -7.6481   18.3269  -31.7558 H   0  0  0  0  0  0  0  0  0  0  0  0
   -7.4143   21.5200  -30.4960 H   0  0  0  0  0  0  0  0  0  0  0  0
   -5.6196   21.5536  -30.8906 H   0  0  0  0  0  0  0  0  0  0  0  0
   -6.9671   23.6343  -31.5190 H   0  0  0  0  0  0  0  0  0  0  0  0
   -5.9466   22.8896  -32.7961 H   0  0  0  0  0  0  0  0  0  0  0  0
   -7.7228   22.6220  -32.7961 H   0  0  0  0  0  0  0  0  0  0  0  0
   -7.7401   20.5059  -33.8461 H   0  0  0  0  0  0  0  0  0  0  0  0
   -6.0568   21.1851  -33.7251 H   0  0  0  0  0  0  0  0  0  0  0  0
   -6.9450   18.5859  -34.7341 H   0  0  0  0  0  0  0  0  0  0  0  0
   -5.3351   19.3924  -34.8496 H   0  0  0  0  0  0  0  0  0  0  0  0
   -5.6690   18.5900  -32.2230 H   0  0  0  0  0  0  0  0  0  0  0  0
   -3.9638   16.8354  -33.0194 H   0  0  0  0  0  0  0  0  0  0  0  0
   -4.0438   17.8275  -34.5364 H   0  0  0  0  0  0  0  0  0  0  0  0
   -4.6210   20.2620  -32.0130 H   0  0  0  0  0  0  0  0  0  0  0  0
   -0.5128   21.1444  -30.0369 H   0  0  0  0  0  0  0  0  0  0  0  0
    0.0171   23.1951  -26.5024 H   0  0  0  0  0  0  0  0  0  0  0  0
   -0.4560   21.6972  -27.3736 H   0  0  0  0  0  0  0  0  0  0  0  0
    1.2586   22.2327  -27.3736 H   0  0  0  0  0  0  0  0  0  0  0  0
   -2.3519   25.2241  -26.9078 H   0  0  0  0  0  0  0  0  0  0  0  0
   -0.6307   25.1462  -27.4157 H   0  0  0  0  0  0  0  0  0  0  0  0
   -1.4968   26.7199  -27.4157 H   0  0  0  0  0  0  0  0  0  0  0  0
   -5.2314   25.0260  -28.8482 H   0  0  0  0  0  0  0  0  0  0  0  0
   -5.9217   25.9340  -30.2359 H   0  0  0  0  0  0  0  0  0  0  0  0
   -5.9471   24.1379  -30.2359 H   0  0  0  0  0  0  0  0  0  0  0  0
   -4.1473   22.6235  -31.8429 H   0  0  0  0  0  0  0  0  0  0  0  0
  1  2  1  0
  2  3  1  0
  3  4  1  0
  4  5  1  0
  3  6  1  0
  6  7  1  0
  7  8  1  0
  8  9  1  0
  9 10  1  0
 10 11  2  0
 11 12  1  0
 12 13  1  0
 13 14  2  0
 14 15  1  0
 15 16  1  0
 16 17  1  0
 15 18  2  0
 18 19  1  0
 19 20  1  0
 18 21  1  0
 21 22  1  0
 22 23  1  0
 21 24  2  0
 12 25  2  0
 25 26  1  0
 26 10  1  0
 24 13  1  0
  1 27  1  0
  1 28  1  0
  1 29  1  0
  2 30  1  0
  2 31  1  0
  4 32  1  0
  4 33  1  0
  5 34  1  0
  5 35  1  0
  5 36  1  0
  6 37  1  0
  6 38  1  0
  7 39  1  0
  7 40  1  0
  8 41  1  0
  9 42  1  0
  9 43  1  0
 11 44  1  0
 14 45  1  0
 17 46  1  0
 17 47  1  0
 17 48  1  0
 20 49  1  0
 20 50  1  0
 20 51  1  0
 23 52  1  0
 23 53  1  0
 23 54  1  0
 24 55  1  0
M  CHG  1  11   1
M  END
>  <UniqueID>  (16) 
16

>  <SMILES>  (16) 
CCN(CC)CCNCc1[nH+]c(-c2cc(OC)c(OC)c(OC)c2)no1

>  <Energy>  (16) 
93.79806501536251

>  <Genealogy>  (16) 
CCN(CC)CCNCc1[nH+]c(-c2cc(OC)c(OC)c(OC)c2)no1 (protonated)
CCN(CC)CCNCc1[nH+]c(-c2cc(OC)c(OC)c(OC)c2)no1 (3D coordinates assigned)
CCN(CC)CCNCc1[nH+]c(-c2cc(OC)c(OC)c(OC)c2)no1 (optimized conformer: 93.79806501536251 kcal/mol)

>  <smiles>  (16) 
CCN(CC)CCNCc1nc(-c2cc(OC)c(OC)c(OC)c2)no1

>  <score_type>  (16) 
oracle

>  <origin>  (16) 
adg

>  <m_score__min__energy>  (16) 
-6.4400000000000004

>  <m_primary>  (16) 
energy

$$$$
16:0
     RDKit          3D

 30 32  0  0  0  0  0  0  0  0999 V2000
   -5.3810   16.9380  -33.9030 C   0  0  0  0  0  0  0  0  0  0  0  0
   -5.8740   18.2580  -33.5330 N   0  0  0  0  0  0  0  0  0  0  0  0
   -5.3350   19.4040  -33.9380 N   0  0  0  0  0  0  0  0  0  0  0  0
   -6.0940   20.4240  -33.4610 C   0  0  0  0  0  0  0  0  0  0  0  0
   -7.1450   19.8820  -32.7490 C   0  0  0  0  0  0  0  0  0  0  0  0
   -8.2400   20.4090  -32.0780 C   0  0  0  0  0  0  0  0  0  0  0  0
   -8.5270   22.1770  -31.9710 S   0  0  0  0  0  0  0  0  0  0  0  0
   -7.9580   22.3240  -30.2400 C   0  0  0  0  0  0  0  0  0  0  0  0
   -6.6830   23.1180  -30.1570 C   0  0  0  0  0  0  0  0  0  0  0  0
   -5.4410   22.4620  -30.1800 C   0  0  0  0  0  0  0  0  0  0  0  0
   -4.2560   23.1960  -30.0700 C   0  0  0  0  0  0  0  0  0  0  0  0
   -4.3010   24.5860  -29.9340 C   0  0  0  0  0  0  0  0  0  0  0  0
   -3.1500   25.2950  -29.8250 F   0  0  0  0  0  0  0  0  0  0  0  0
   -5.5330   25.2450  -29.9060 C   0  0  0  0  0  0  0  0  0  0  0  0
   -6.7210   24.5160  -30.0160 C   0  0  0  0  0  0  0  0  0  0  0  0
   -9.1110   19.5290  -31.5000 N   0  0  0  0  0  0  0  0  0  0  0  0
   -8.9220   18.1730  -31.5870 C   0  0  0  0  0  0  0  0  0  0  0  0
   -7.8440   17.6630  -32.2590 N   0  0  0  0  0  0  0  0  0  0  0  0
   -6.9770   18.5390  -32.8230 C   0  0  0  0  0  0  0  0  0  0  0  0
   -5.1648   16.3590  -32.9930 H   0  0  0  0  0  0  0  0  0  0  0  0
   -6.1444   16.4149  -34.4977 H   0  0  0  0  0  0  0  0  0  0  0  0
   -4.4616   17.0434  -34.4977 H   0  0  0  0  0  0  0  0  0  0  0  0
   -5.9041   21.4965  -33.6153 H   0  0  0  0  0  0  0  0  0  0  0  0
   -8.7353   22.8288  -29.6475 H   0  0  0  0  0  0  0  0  0  0  0  0
   -7.7683   21.3144  -29.8466 H   0  0  0  0  0  0  0  0  0  0  0  0
   -5.4006   21.3678  -30.2848 H   0  0  0  0  0  0  0  0  0  0  0  0
   -3.2859   22.6779  -30.0906 H   0  0  0  0  0  0  0  0  0  0  0  0
   -5.5682   26.3390  -29.7972 H   0  0  0  0  0  0  0  0  0  0  0  0
   -7.6888   25.0383  -29.9921 H   0  0  0  0  0  0  0  0  0  0  0  0
   -9.6424   17.4901  -31.1130 H   0  0  0  0  0  0  0  0  0  0  0  0
  1  2  1  0
  2  3  1  0
  3  4  2  0
  4  5  1  0
  5  6  2  0
  6  7  1  0
  7  8  1  0
  8  9  1  0
  9 10  2  0
 10 11  1  0
 11 12  2  0
 12 13  1  0
 12 14  1  0
 14 15  2  0
  6 16  1  0
 16 17  2  0
 17 18  1  0
 18 19  2  0
 19  2  1  0
 19  5  1  0
 15  9  1  0
  1 20  1  0
  1 21  1  0
  1 22  1  0
  4 23  1  0
  8 24  1  0
  8 25  1  0
 10 26  1  0
 11 27  1  0
 14 28  1  0
 15 29  1  0
 17 30  1  0
M  END
>  <UniqueID>  (17) 
17

>  <SMILES>  (17) 
Cn1ncc2c(SCc3ccc(F)cc3)ncnc21

>  <Energy>  (17) 
69.19659910297288

>  <Genealogy>  (17) 
Cn1ncc2c(SCc3ccc(F)cc3)ncnc21 (3D coordinates assigned)
Cn1ncc2c(SCc3ccc(F)cc3)ncnc21 (optimized conformer: 69.19659910297288 kcal/mol)

>  <smiles>  (17) 
Cn1ncc2c(SCc3ccc(F)cc3)ncnc21

>  <score_type>  (17) 
oracle

>  <origin>  (17) 
adg

>  <m_score__min__energy>  (17) 
-7.2400000000000002

>  <m_primary>  (17) 
energy

$$$$
17:0
     RDKit          3D

 66 69  0  0  0  0  0  0  0  0999 V2000
    1.9480   22.3010  -35.5580 C   0  0  0  0  0  0  0  0  0  0  0  0
    0.8160   22.2910  -34.6950 O   0  0  0  0  0  0  0  0  0  0  0  0
   -0.0330   21.1890  -34.5150 C   0  0  0  0  0  0  0  0  0  0  0  0
   -1.2280   21.2670  -33.7740 C   0  0  0  0  0  0  0  0  0  0  0  0
   -2.0400   20.1400  -33.6260 C   0  0  0  0  0  0  0  0  0  0  0  0
   -1.6760   18.9170  -34.2130 C   0  0  0  0  0  0  0  0  0  0  0  0
   -2.5220   17.7620  -34.0620 N   0  0  0  0  0  0  0  0  0  0  0  0
   -2.3390   16.8840  -32.9040 C   0  0  0  0  0  0  0  0  0  0  0  0
   -2.6960   15.4440  -33.2830 C   0  0  0  0  0  0  0  0  0  0  0  0
   -4.0460   15.3510  -33.8750 N   0  0  0  0  0  0  0  0  0  0  0  0
   -5.1290   15.5580  -32.8880 C   0  0  0  0  0  0  0  0  0  0  0  0
   -6.3230   16.2450  -33.5570 C   0  0  0  0  0  0  0  0  0  0  0  0
   -6.9890   17.2480  -32.6020 C   0  0  0  0  0  0  0  0  0  0  0  0
   -6.8170   18.7110  -33.0670 C   0  0  0  0  0  0  0  0  0  0  0  0
   -7.5660   19.7410  -32.1820 C   0  0  2  0  0  0  0  0  0  0  0  0
   -8.9770   20.0620  -32.7340 C   0  0  0  0  0  0  0  0  0  0  0  0
   -9.7280   21.1750  -31.9560 C   0  0  0  0  0  0  0  0  0  0  0  0
   -8.9080   21.8360  -30.8360 C   0  0  0  0  0  0  0  0  0  0  0  0
   -7.4940   22.0810  -31.2890 C   0  0  0  0  0  0  0  0  0  0  0  0
   -6.8530   23.3000  -31.0150 C   0  0  0  0  0  0  0  0  0  0  0  0
   -5.5280   23.5140  -31.4360 C   0  0  0  0  0  0  0  0  0  0  0  0
   -4.8470   24.7160  -31.1900 O   0  0  0  0  0  0  0  0  0  0  0  0
   -5.3890   25.8160  -30.4680 C   0  0  0  0  0  0  0  0  0  0  0  0
   -4.8580   22.4990  -32.1240 C   0  0  0  0  0  0  0  0  0  0  0  0
   -5.4870   21.2800  -32.3890 C   0  0  0  0  0  0  0  0  0  0  0  0
   -6.8120   21.0530  -31.9680 C   0  0  0  0  0  0  0  0  0  0  0  0
   -4.1690   16.2140  -35.0710 C   0  0  0  0  0  0  0  0  0  0  0  0
   -3.7880   17.6800  -34.7970 C   0  0  0  0  0  0  0  0  0  0  0  0
   -0.4810   18.8410  -34.9480 C   0  0  0  0  0  0  0  0  0  0  0  0
    0.3300   19.9690  -35.0970 C   0  0  0  0  0  0  0  0  0  0  0  0
    2.8683   22.3091  -34.9555 H   0  0  0  0  0  0  0  0  0  0  0  0
    1.9332   21.4027  -36.1927 H   0  0  0  0  0  0  0  0  0  0  0  0
    1.9173   23.1989  -36.1927 H   0  0  0  0  0  0  0  0  0  0  0  0
   -1.5233   22.2195  -33.3097 H   0  0  0  0  0  0  0  0  0  0  0  0
   -2.9716   20.2109  -33.0453 H   0  0  0  0  0  0  0  0  0  0  0  0
   -1.2898   16.9259  -32.5762 H   0  0  0  0  0  0  0  0  0  0  0  0
   -2.9961   17.2181  -32.0876 H   0  0  0  0  0  0  0  0  0  0  0  0
   -1.9608   15.0754  -34.0135 H   0  0  0  0  0  0  0  0  0  0  0  0
   -2.6820   14.8358  -32.3665 H   0  0  0  0  0  0  0  0  0  0  0  0
   -5.4469   14.5845  -32.4865 H   0  0  0  0  0  0  0  0  0  0  0  0
   -4.7569   16.1947  -32.0718 H   0  0  0  0  0  0  0  0  0  0  0  0
   -5.9746   16.7790  -34.4533 H   0  0  0  0  0  0  0  0  0  0  0  0
   -7.0619   15.4766  -33.8283 H   0  0  0  0  0  0  0  0  0  0  0  0
   -8.0636   17.0201  -32.5444 H   0  0  0  0  0  0  0  0  0  0  0  0
   -6.5016   17.1496  -31.6208 H   0  0  0  0  0  0  0  0  0  0  0  0
   -5.7447   18.9558  -33.0522 H   0  0  0  0  0  0  0  0  0  0  0  0
   -7.2506   18.7798  -34.0756 H   0  0  0  0  0  0  0  0  0  0  0  0
   -7.6470   19.2424  -31.2048 H   0  0  0  0  0  0  0  0  0  0  0  0
   -8.8727   20.3835  -33.7808 H   0  0  0  0  0  0  0  0  0  0  0  0
   -9.5740   19.1444  -32.6267 H   0  0  0  0  0  0  0  0  0  0  0  0
  -10.0225   21.9559  -32.6726 H   0  0  0  0  0  0  0  0  0  0  0  0
  -10.5874   20.6905  -31.4695 H   0  0  0  0  0  0  0  0  0  0  0  0
   -9.3726   22.7958  -30.5660 H   0  0  0  0  0  0  0  0  0  0  0  0
   -8.8901   21.1638  -29.9655 H   0  0  0  0  0  0  0  0  0  0  0  0
   -7.3890   24.0904  -30.4692 H   0  0  0  0  0  0  0  0  0  0  0  0
   -5.2961   25.6274  -29.3883 H   0  0  0  0  0  0  0  0  0  0  0  0
   -4.8393   26.7324  -30.7288 H   0  0  0  0  0  0  0  0  0  0  0  0
   -6.4506   25.9385  -30.7288 H   0  0  0  0  0  0  0  0  0  0  0  0
   -3.8235   22.6616  -32.4608 H   0  0  0  0  0  0  0  0  0  0  0  0
   -4.9436   20.4916  -32.9304 H   0  0  0  0  0  0  0  0  0  0  0  0
   -3.5069   15.8208  -35.8565 H   0  0  0  0  0  0  0  0  0  0  0  0
   -5.2249   16.2007  -35.3790 H   0  0  0  0  0  0  0  0  0  0  0  0
   -3.6834   18.2102  -35.7551 H   0  0  0  0  0  0  0  0  0  0  0  0
   -4.5792   18.1412  -34.1876 H   0  0  0  0  0  0  0  0  0  0  0  0
   -0.1821   17.8879  -35.4088 H   0  0  0  0  0  0  0  0  0  0  0  0
    1.2620   19.8976  -35.6769 H   0  0  0  0  0  0  0  0  0  0  0  0
  1  2  1  0
  2  3  1  0
  3  4  2  0
  4  5  1  0
  5  6  2  0
  6  7  1  0
  7  8  1  0
  8  9  1  0
  9 10  1  0
 10 11  1  0
 11 12  1  0
 12 13  1  0
 13 14  1  0
 14 15  1  0
 15 16  1  0
 16 17  1  0
 17 18  1  0
 18 19  1  0
 19 20  2  0
 20 21  1  0
 21 22  1  0
 22 23  1  0
 21 24  2  0
 24 25  1  0
 25 26  2  0
 10 27  1  0
 27 28  1  0
  6 29  1  0
 29 30  2  0
 30  3  1  0
 28  7  1  0
 26 15  1  0
 26 19  1  0
  1 31  1  0
  1 32  1  0
  1 33  1  0
  4 34  1  0
  5 35  1  0
  8 36  1  0
  8 37  1  0
  9 38  1  0
  9 39  1  0
 11 40  1  0
 11 41  1  0
 12 42  1  0
 12 43  1  0
 13 44  1  0
 13 45  1  0
 14 46  1  0
 14 47  1  0
 15 48  1  1
 16 49  1  0
 16 50  1  0
 17 51  1  0
 17 52  1  0
 18 53  1  0
 18 54  1  0
 20 55  1  0
 23 56  1  0
 23 57  1  0
 23 58  1  0
 24 59  1  0
 25 60  1  0
 27 61  1  0
 27 62  1  0
 28 63  1  0
 28 64  1  0
 29 65  1  0
 30 66  1  0
M  END
>  <UniqueID>  (18) 
18

>  <SMILES>  (18) 
COc1ccc(N2CCN(CCCC[C@@H]3CCCc4cc(OC)ccc43)CC2)cc1

>  <Energy>  (18) 
79.89636086623973

>  <Genealogy>  (18) 
COc1ccc(N2CCN(CCCC[C@@H]3CCCc4cc(OC)ccc43)CC2)cc1 (chirality)
COc1ccc(N2CCN(CCCC[C@@H]3CCCc4cc(OC)ccc43)CC2)cc1 (3D coordinates assigned)
COc1ccc(N2CCN(CCCC[C@@H]3CCCc4cc(OC)ccc43)CC2)cc1 (nonaromatic ring conformer: 79.89636086623973 kcal/mol)

>  <smiles>  (18) 
COc1ccc(N2CCN(CCCCC3CCCc4cc(OC)ccc43)CC2)cc1

>  <score_type>  (18) 
oracle

>  <origin>  (18) 
adg

>  <m_score__min__energy>  (18) 
-9.5500000000000007

>  <m_primary>  (18) 
energy

$$$$
18:0
     RDKit          3D

 36 38  0  0  0  0  0  0  0  0999 V2000
   -6.8610   16.1110  -33.8640 C   0  0  0  0  0  0  0  0  0  0  0  0
   -7.2370   17.3290  -33.2280 O   0  0  0  0  0  0  0  0  0  0  0  0
   -6.4520   18.4950  -33.2090 C   0  0  0  0  0  0  0  0  0  0  0  0
   -5.1060   18.4850  -33.6160 C   0  0  0  0  0  0  0  0  0  0  0  0
   -4.3640   19.6650  -33.5860 C   0  0  0  0  0  0  0  0  0  0  0  0
   -4.9360   20.8220  -33.1630 N   0  0  0  0  0  0  0  0  0  0  0  0
   -6.2330   20.8820  -32.7570 C   0  0  0  0  0  0  0  0  0  0  0  0
   -6.7870   22.1080  -32.3330 C   0  0  0  0  0  0  0  0  0  0  0  0
   -5.9770   23.3010  -32.3190 N   0  0  0  0  0  0  0  0  0  0  0  0
   -5.4500   24.0840  -30.8620 S   0  0  0  0  0  0  0  0  0  0  0  0
   -4.6410   25.2990  -31.2200 O   0  0  0  0  0  0  0  0  0  0  0  0
   -6.6500   24.5120  -30.0660 O   0  0  0  0  0  0  0  0  0  0  0  0
   -4.4990   22.9640  -29.8900 C   0  0  0  0  0  0  0  0  0  0  0  0
   -3.8680   21.8730  -30.5040 C   0  0  0  0  0  0  0  0  0  0  0  0
   -3.0980   20.9870  -29.7430 C   0  0  0  0  0  0  0  0  0  0  0  0
   -2.9570   21.1880  -28.3650 C   0  0  0  0  0  0  0  0  0  0  0  0
   -1.9900   20.0780  -27.4110 Cl  0  0  0  0  0  0  0  0  0  0  0  0
   -3.5910   22.2730  -27.7490 C   0  0  0  0  0  0  0  0  0  0  0  0
   -4.3600   23.1580  -28.5090 C   0  0  0  0  0  0  0  0  0  0  0  0
   -8.1310   22.1420  -31.9170 C   0  0  0  0  0  0  0  0  0  0  0  0
   -8.9110   20.9850  -31.9370 C   0  0  0  0  0  0  0  0  0  0  0  0
   -8.3660   19.7740  -32.3630 C   0  0  0  0  0  0  0  0  0  0  0  0
   -7.0250   19.7070  -32.7750 C   0  0  0  0  0  0  0  0  0  0  0  0
   -6.6277   15.3551  -33.0997 H   0  0  0  0  0  0  0  0  0  0  0  0
   -7.6907   15.7538  -34.4917 H   0  0  0  0  0  0  0  0  0  0  0  0
   -5.9743   16.2836  -34.4917 H   0  0  0  0  0  0  0  0  0  0  0  0
   -4.6398   17.5489  -33.9571 H   0  0  0  0  0  0  0  0  0  0  0  0
   -3.3116   19.6589  -33.9060 H   0  0  0  0  0  0  0  0  0  0  0  0
   -5.7730   23.7990  -33.2140 H   0  0  0  0  0  0  0  0  0  0  0  0
   -3.9786   21.7133  -31.5867 H   0  0  0  0  0  0  0  0  0  0  0  0
   -2.6033   20.1323  -30.2276 H   0  0  0  0  0  0  0  0  0  0  0  0
   -3.4838   22.4292  -26.6654 H   0  0  0  0  0  0  0  0  0  0  0  0
   -4.8578   24.0095  -28.0220 H   0  0  0  0  0  0  0  0  0  0  0  0
   -8.5709   23.0896  -31.5728 H   0  0  0  0  0  0  0  0  0  0  0  0
   -9.9619   21.0284  -31.6149 H   0  0  0  0  0  0  0  0  0  0  0  0
   -8.9890   18.8675  -32.3764 H   0  0  0  0  0  0  0  0  0  0  0  0
  1  2  1  0
  2  3  1  0
  3  4  2  0
  4  5  1  0
  5  6  2  0
  6  7  1  0
  7  8  2  0
  8  9  1  0
  9 10  1  0
 10 11  2  0
 10 12  2  0
 10 13  1  0
 13 14  2  0
 14 15  1  0
 15 16  2  0
 16 17  1  0
 16 18  1  0
 18 19  2  0
  8 20  1  0
 20 21  2  0
 21 22  1  0
 22 23  2  0
 23  3  1  0
 23  7  1  0
 19 13  1  0
  1 24  1  0
  1 25  1  0
  1 26  1  0
  4 27  1  0
  5 28  1  0
  9 29  1  0
 14 30  1  0
 15 31  1  0
 18 32  1  0
 19 33  1  0
 20 34  1  0
 21 35  1  0
 22 36  1  0
M  END
>  <UniqueID>  (19) 
19

>  <SMILES>  (19) 
COc1ccnc2c(NS(=O)(=O)c3ccc(Cl)cc3)cccc12

>  <Energy>  (19) 
45.77345479053782

>  <Genealogy>  (19) 
COc1ccnc2c(NS(=O)(=O)c3ccc(Cl)cc3)cccc12 (3D coordinates assigned)
COc1ccnc2c(NS(=O)(=O)c3ccc(Cl)cc3)cccc12 (optimized conformer: 45.77345479053782 kcal/mol)

>  <smiles>  (19) 
COc1ccnc2c(NS(=O)(=O)c3ccc(Cl)cc3)cccc12

>  <score_type>  (19) 
oracle

>  <origin>  (19) 
adg

>  <m_score__min__energy>  (19) 
-8.8000000000000007

>  <m_primary>  (19) 
energy

$$$$
19:0
     RDKit          3D

 43 45  0  0  1  0  0  0  0  0999 V2000
   -6.8500   15.7750  -33.9950 C   0  0  0  0  0  0  0  0  0  0  0  0
   -6.1620   17.0300  -33.7880 C   0  0  0  0  0  0  0  0  0  0  0  0
   -4.5320   17.3560  -34.4920 S   0  0  0  0  0  0  0  0  0  0  0  0
   -4.5080   18.9990  -33.8300 C   0  0  0  0  0  0  0  0  0  0  0  0
   -3.4880   19.8660  -33.9620 N   0  0  0  0  0  0  0  0  0  0  0  0
   -3.5480   21.0800  -33.4080 C   0  0  0  0  0  0  0  0  0  0  0  0
   -4.6690   21.3750  -32.7380 N   0  0  0  0  0  0  0  0  0  0  0  0
   -5.7070   20.5030  -32.6050 C   0  0  0  0  0  0  0  0  0  0  0  0
   -6.7500   20.9800  -32.2000 N   0  0  0  0  0  0  0  0  0  0  0  0
   -7.4700   22.1190  -32.3380 C   0  0  0  0  0  0  0  0  0  0  0  0
   -7.9650   22.3260  -30.8000 C   0  0  0  0  0  0  0  0  0  0  0  0
   -6.7360   22.6590  -30.0400 C   0  0  0  0  0  0  0  0  0  0  0  0
   -5.7050   23.2740  -30.7300 N   0  0  0  0  0  0  0  0  0  0  0  0
   -4.3720   23.0420  -30.2710 C   0  0  0  0  0  0  0  0  0  0  0  0
   -3.8210   24.2250  -29.5490 C   0  0  0  0  0  0  0  0  0  0  0  0
   -3.8690   25.3120  -30.4440 O   0  0  0  0  0  0  0  0  0  0  0  0
   -5.2380   25.6550  -30.5230 C   0  0  0  0  0  0  0  0  0  0  0  0
   -5.9250   24.5580  -31.2970 C   0  0  0  0  0  0  0  0  0  0  0  0
   -5.6940   19.2180  -33.1370 C   0  0  0  0  0  0  0  0  0  0  0  0
   -6.5650   18.2180  -33.0860 C   0  0  0  0  0  0  0  0  0  0  0  0
   -7.7740   17.9080  -32.2180 C   0  0  0  0  0  0  0  0  0  0  0  0
   -7.0958   15.3266  -33.0211 H   0  0  0  0  0  0  0  0  0  0  0  0
   -7.7763   15.9536  -34.5607 H   0  0  0  0  0  0  0  0  0  0  0  0
   -6.2012   15.0901  -34.5607 H   0  0  0  0  0  0  0  0  0  0  0  0
   -2.7204   21.7991  -33.4975 H   0  0  0  0  0  0  0  0  0  0  0  0
   -4.6960   22.3370  -32.3110 H   0  0  0  0  0  0  0  0  0  0  0  0
   -6.8467   22.9571  -32.6829 H   0  0  0  0  0  0  0  0  0  0  0  0
   -8.2778   22.0700  -33.0830 H   0  0  0  0  0  0  0  0  0  0  0  0
   -8.6932   23.1480  -30.7360 H   0  0  0  0  0  0  0  0  0  0  0  0
   -8.4644   21.4296  -30.4037 H   0  0  0  0  0  0  0  0  0  0  0  0
   -7.0282   23.3291  -29.2180 H   0  0  0  0  0  0  0  0  0  0  0  0
   -6.3255   21.6865  -29.7307 H   0  0  0  0  0  0  0  0  0  0  0  0
   -4.3753   22.1787  -29.5894 H   0  0  0  0  0  0  0  0  0  0  0  0
   -3.7367   22.8506  -31.1484 H   0  0  0  0  0  0  0  0  0  0  0  0
   -4.4296   24.4415  -28.6586 H   0  0  0  0  0  0  0  0  0  0  0  0
   -2.7900   24.0363  -29.2151 H   0  0  0  0  0  0  0  0  0  0  0  0
   -5.6672   25.7302  -29.5130 H   0  0  0  0  0  0  0  0  0  0  0  0
   -5.3704   26.6274  -31.0200 H   0  0  0  0  0  0  0  0  0  0  0  0
   -7.0066   24.7582  -31.3086 H   0  0  0  0  0  0  0  0  0  0  0  0
   -5.5047   24.5516  -32.3135 H   0  0  0  0  0  0  0  0  0  0  0  0
   -7.4920   17.9803  -31.1572 H   0  0  0  0  0  0  0  0  0  0  0  0
   -8.5755   18.6297  -32.4344 H   0  0  0  0  0  0  0  0  0  0  0  0
   -8.1293   16.8897  -32.4344 H   0  0  0  0  0  0  0  0  0  0  0  0
  1  2  1  0
  2  3  1  0
  3  4  1  0
  4  5  1  0
  5  6  2  0
  6  7  1  0
  7  8  1  0
  8  9  2  0
  9 10  1  0
 10 11  1  0
 11 12  1  0
 12 13  1  0
 13 14  1  0
 14 15  1  0
 15 16  1  0
 16 17  1  0
 17 18  1  0
  8 19  1  0
 19 20  1  0
 20 21  1  0
 20  2  2  0
 19  4  2  0
 18 13  1  0
  1 22  1  0
  1 23  1  0
  1 24  1  0
  6 25  1  0
  7 26  1  0
 10 27  1  0
 10 28  1  0
 11 29  1  0
 11 30  1  0
 12 31  1  0
 12 32  1  0
 14 33  1  0
 14 34  1  0
 15 35  1  0
 15 36  1  0
 17 37  1  0
 17 38  1  0
 18 39  1  0
 18 40  1  0
 21 41  1  0
 21 42  1  0
 21 43  1  0
M  END
>  <smiles>  (20) 
Cc1sc2nc[nH]c(=NCCCN3CCOCC3)c2c1C

>  <score_type>  (20) 
oracle

>  <origin>  (20) 
adg

>  <m_score__min__energy>  (20) 
-7.8399999999999999

>  <m_primary>  (20) 
energy

$$$$
20:0
     RDKit          3D

 45 46  0  0  0  0  0  0  0  0999 V2000
   -3.0760   21.9320  -31.7120 C   0  0  0  0  0  0  0  0  0  0  0  0
   -3.4910   21.5920  -33.1530 C   0  0  0  0  0  0  0  0  0  0  0  0
   -4.6100   20.6120  -33.2770 N   0  0  0  0  0  0  0  0  0  0  0  0
   -4.1840   19.3000  -33.8270 C   0  0  0  0  0  0  0  0  0  0  0  0
   -5.2980   18.5660  -34.5820 C   0  0  0  0  0  0  0  0  0  0  0  0
   -5.2990   20.4330  -31.9720 C   0  0  0  0  0  0  0  0  0  0  0  0
   -6.7600   19.9810  -32.0440 C   0  0  0  0  0  0  0  0  0  0  0  0
   -7.1360   18.6230  -31.9190 C   0  0  0  0  0  0  0  0  0  0  0  0
   -8.4770   18.2430  -31.9840 C   0  0  0  0  0  0  0  0  0  0  0  0
   -9.4670   19.1970  -32.2020 C   0  0  0  0  0  0  0  0  0  0  0  0
   -9.1200   20.5350  -32.3800 C   0  0  0  0  0  0  0  0  0  0  0  0
   -7.7740   20.9400  -32.3220 C   0  0  0  0  0  0  0  0  0  0  0  0
   -7.4320   22.3150  -32.5880 N   0  0  0  0  0  0  0  0  0  0  0  0
   -7.7380   23.4060  -31.6680 C   0  0  0  0  0  0  0  0  0  0  0  0
   -6.5270   23.7820  -30.8590 C   0  0  0  0  0  0  0  0  0  0  0  0
   -6.1130   22.9760  -29.7880 C   0  0  0  0  0  0  0  0  0  0  0  0
   -4.9630   23.3050  -29.0640 C   0  0  0  0  0  0  0  0  0  0  0  0
   -4.2230   24.4400  -29.4030 C   0  0  0  0  0  0  0  0  0  0  0  0
   -4.6360   25.2530  -30.4640 C   0  0  0  0  0  0  0  0  0  0  0  0
   -5.7820   24.9280  -31.1890 C   0  0  0  0  0  0  0  0  0  0  0  0
   -3.7289   21.3971  -31.0065 H   0  0  0  0  0  0  0  0  0  0  0  0
   -2.0319   21.6263  -31.5493 H   0  0  0  0  0  0  0  0  0  0  0  0
   -3.1703   23.0158  -31.5493 H   0  0  0  0  0  0  0  0  0  0  0  0
   -3.7992   22.5249  -33.6476 H   0  0  0  0  0  0  0  0  0  0  0  0
   -2.6154   21.1165  -33.6190 H   0  0  0  0  0  0  0  0  0  0  0  0
   -5.2710   21.0560  -33.9510 H   0  0  0  0  0  0  0  0  0  0  0  0
   -3.3456   19.4676  -34.5190 H   0  0  0  0  0  0  0  0  0  0  0  0
   -3.8985   18.6673  -32.9737 H   0  0  0  0  0  0  0  0  0  0  0  0
   -5.9910   18.1094  -33.8600 H   0  0  0  0  0  0  0  0  0  0  0  0
   -5.8454   19.2809  -35.2139 H   0  0  0  0  0  0  0  0  0  0  0  0
   -4.8570   17.7810  -35.2139 H   0  0  0  0  0  0  0  0  0  0  0  0
   -4.7410   19.6795  -31.3968 H   0  0  0  0  0  0  0  0  0  0  0  0
   -5.3181   21.4293  -31.5062 H   0  0  0  0  0  0  0  0  0  0  0  0
   -6.3612   17.8568  -31.7686 H   0  0  0  0  0  0  0  0  0  0  0  0
   -8.7530   17.1852  -31.8625 H   0  0  0  0  0  0  0  0  0  0  0  0
  -10.5241   18.8945  -32.2338 H   0  0  0  0  0  0  0  0  0  0  0  0
   -9.9059   21.2814  -32.5676 H   0  0  0  0  0  0  0  0  0  0  0  0
   -6.9330   22.5600  -33.4730 H   0  0  0  0  0  0  0  0  0  0  0  0
   -8.0713   24.2810  -32.2453 H   0  0  0  0  0  0  0  0  0  0  0  0
   -8.5304   23.0743  -30.9809 H   0  0  0  0  0  0  0  0  0  0  0  0
   -6.6948   22.0826  -29.5171 H   0  0  0  0  0  0  0  0  0  0  0  0
   -4.6406   22.6691  -28.2263 H   0  0  0  0  0  0  0  0  0  0  0  0
   -3.3156   24.6946  -28.8358 H   0  0  0  0  0  0  0  0  0  0  0  0
   -4.0559   26.1499  -30.7267 H   0  0  0  0  0  0  0  0  0  0  0  0
   -6.1043   25.5703  -32.0218 H   0  0  0  0  0  0  0  0  0  0  0  0
  1  2  1  0
  2  3  1  0
  3  4  1  0
  4  5  1  0
  3  6  1  0
  6  7  1  0
  7  8  2  0
  8  9  1  0
  9 10  2  0
 10 11  1  0
 11 12  2  0
 12 13  1  0
 13 14  1  0
 14 15  1  0
 15 16  2  0
 16 17  1  0
 17 18  2  0
 18 19  1  0
 19 20  2  0
 12  7  1  0
 20 15  1  0
  1 21  1  0
  1 22  1  0
  1 23  1  0
  2 24  1  0
  2 25  1  0
  3 26  1  0
  4 27  1  0
  4 28  1  0
  5 29  1  0
  5 30  1  0
  5 31  1  0
  6 32  1  0
  6 33  1  0
  8 34  1  0
  9 35  1  0
 10 36  1  0
 11 37  1  0
 13 38  1  0
 14 39  1  0
 14 40  1  0
 16 41  1  0
 17 42  1  0
 18 43  1  0
 19 44  1  0
 20 45  1  0
M  CHG  1   3   1
M  END
>  <UniqueID>  (21) 
20

>  <SMILES>  (21) 
CC[NH+](CC)Cc1ccccc1NCc1ccccc1

>  <Energy>  (21) 
53.657985260744994

>  <Genealogy>  (21) 
CC[NH+](CC)Cc1ccccc1NCc1ccccc1 (protonated)
CC[NH+](CC)Cc1ccccc1NCc1ccccc1 (3D coordinates assigned)
CC[NH+](CC)Cc1ccccc1NCc1ccccc1 (optimized conformer: 53.657985260744994 kcal/mol)

>  <smiles>  (21) 
CCN(CC)Cc1ccccc1NCc1ccccc1

>  <score_type>  (21) 
oracle

>  <origin>  (21) 
adg

>  <m_score__min__energy>  (21) 
-6.7000000000000002

>  <m_primary>  (21) 
energy

$$$$
21:0
     RDKit          3D

 36 37  0  0  0  0  0  0  0  0999 V2000
   -6.3180   25.6610  -29.4490 C   0  0  0  0  0  0  0  0  0  0  0  0
   -5.7050   25.4300  -30.8250 C   0  0  0  0  0  0  0  0  0  0  0  0
   -4.2490   25.3680  -30.7380 N   0  0  0  0  0  0  0  0  0  0  0  0
   -3.5000   24.1760  -30.4750 C   0  0  0  0  0  0  0  0  0  0  0  0
   -2.4980   24.2370  -29.7140 O   0  0  0  0  0  0  0  0  0  0  0  0
   -3.8620   22.9250  -31.0740 N   0  0  0  0  0  0  0  0  0  0  0  0
   -2.8290   22.1250  -31.7390 C   0  0  0  0  0  0  0  0  0  0  0  0
   -3.4440   21.3300  -32.8930 C   0  0  0  0  0  0  0  0  0  0  0  0
   -4.6760   20.6710  -32.4520 N   0  0  0  0  0  0  0  0  0  0  0  0
   -4.9870   19.3560  -32.9230 C   0  0  0  0  0  0  0  0  0  0  0  0
   -4.0900   18.3530  -32.7180 N   0  0  0  0  0  0  0  0  0  0  0  0
   -4.3200   17.0810  -33.1370 C   0  0  0  0  0  0  0  0  0  0  0  0
   -5.5070   16.7690  -33.8010 C   0  0  0  0  0  0  0  0  0  0  0  0
   -6.4480   17.7740  -34.0260 C   0  0  0  0  0  0  0  0  0  0  0  0
   -6.2000   19.0820  -33.5900 C   0  0  0  0  0  0  0  0  0  0  0  0
   -7.1720   20.1070  -33.8290 N   0  0  0  0  0  0  0  0  0  0  0  0
   -5.7020   21.4620  -31.7670 C   0  0  0  0  0  0  0  0  0  0  0  0
   -5.0700   22.2350  -30.6100 C   0  0  0  0  0  0  0  0  0  0  0  0
   -5.5892   25.3864  -28.6721 H   0  0  0  0  0  0  0  0  0  0  0  0
   -6.5869   26.7221  -29.3408 H   0  0  0  0  0  0  0  0  0  0  0  0
   -7.2203   25.0412  -29.3408 H   0  0  0  0  0  0  0  0  0  0  0  0
   -6.0829   24.4813  -31.2339 H   0  0  0  0  0  0  0  0  0  0  0  0
   -5.9845   26.2672  -31.4815 H   0  0  0  0  0  0  0  0  0  0  0  0
   -2.0482   22.7927  -32.1321 H   0  0  0  0  0  0  0  0  0  0  0  0
   -2.3907   21.4254  -31.0121 H   0  0  0  0  0  0  0  0  0  0  0  0
   -3.6746   22.0137  -33.7233 H   0  0  0  0  0  0  0  0  0  0  0  0
   -2.7265   20.5653  -33.2252 H   0  0  0  0  0  0  0  0  0  0  0  0
   -3.5705   16.2972  -32.9528 H   0  0  0  0  0  0  0  0  0  0  0  0
   -5.6987   15.7414  -34.1434 H   0  0  0  0  0  0  0  0  0  0  0  0
   -7.3876   17.5387  -34.5474 H   0  0  0  0  0  0  0  0  0  0  0  0
   -6.9500   21.1180  -33.6950 H   0  0  0  0  0  0  0  0  0  0  0  0
   -8.1350   19.8600  -34.1480 H   0  0  0  0  0  0  0  0  0  0  0  0
   -6.1521   22.1709  -32.4776 H   0  0  0  0  0  0  0  0  0  0  0  0
   -6.4785   20.7891  -31.3742 H   0  0  0  0  0  0  0  0  0  0  0  0
   -5.7894   22.9748  -30.2290 H   0  0  0  0  0  0  0  0  0  0  0  0
   -4.8010   21.5320  -29.8078 H   0  0  0  0  0  0  0  0  0  0  0  0
  1  2  1  0
  2  3  1  0
  3  4  1  0
  4  5  2  0
  4  6  1  0
  6  7  1  0
  7  8  1  0
  8  9  1  0
  9 10  1  0
 10 11  2  0
 11 12  1  0
 12 13  2  0
 13 14  1  0
 14 15  2  0
 15 16  1  0
  9 17  1  0
 17 18  1  0
 18  6  1  0
 15 10  1  0
  1 19  1  0
  1 20  1  0
  1 21  1  0
  2 22  1  0
  2 23  1  0
  7 24  1  0
  7 25  1  0
  8 26  1  0
  8 27  1  0
 12 28  1  0
 13 29  1  0
 14 30  1  0
 16 31  1  0
 16 32  1  0
 17 33  1  0
 17 34  1  0
 18 35  1  0
 18 36  1  0
M  CHG  1   3  -1
M  END
>  <UniqueID>  (22) 
21

>  <SMILES>  (22) 
CC[N-]C(=O)N1CCN(c2ncccc2N)CC1

>  <Energy>  (22) 
39.370751911090636

>  <Genealogy>  (22) 
CC[N-]C(=O)N1CCN(c2ncccc2N)CC1 (protonated)
CC[N-]C(=O)N1CCN(c2ncccc2N)CC1 (3D coordinates assigned)
CC[N-]C(=O)N1CCN(c2ncccc2N)CC1 (nonaromatic ring conformer: 39.370751911090636 kcal/mol)

>  <smiles>  (22) 
CCNC(=O)N1CCN(c2ncccc2N)CC1

>  <score_type>  (22) 
oracle

>  <origin>  (22) 
adg

>  <m_score__min__energy>  (22) 
-7.1900000000000004

>  <m_primary>  (22) 
energy

$$$$
22:0
     RDKit          3D

 45 47  0  0  0  0  0  0  0  0999 V2000
    0.2980   20.4460  -31.9710 C   0  0  0  0  0  0  0  0  0  0  0  0
    0.4750   20.0260  -33.3660 N   0  0  0  0  0  0  0  0  0  0  0  0
    1.8000   19.6310  -33.8520 C   0  0  0  0  0  0  0  0  0  0  0  0
   -0.6090   20.1480  -34.3080 C   0  0  0  0  0  0  0  0  0  0  0  0
   -0.3540   20.3860  -35.5210 O   0  0  0  0  0  0  0  0  0  0  0  0
   -2.0220   20.0120  -33.8930 C   0  0  0  0  0  0  0  0  0  0  0  0
   -2.6630   18.7660  -33.9430 C   0  0  0  0  0  0  0  0  0  0  0  0
   -3.9980   18.6460  -33.5530 C   0  0  0  0  0  0  0  0  0  0  0  0
   -4.7200   19.7690  -33.1270 C   0  0  0  0  0  0  0  0  0  0  0  0
   -6.0990   19.6250  -32.7620 N   0  0  0  0  0  0  0  0  0  0  0  0
   -6.5810   18.5900  -31.8670 C   0  0  0  0  0  0  0  0  0  0  0  0
   -8.1010   18.6380  -31.9720 C   0  0  0  0  0  0  0  0  0  0  0  0
   -8.4350   19.9680  -32.6470 C   0  0  0  0  0  0  0  0  0  0  0  0
   -7.1660   20.4050  -33.3640 C   0  0  0  0  0  0  0  0  0  0  0  0
   -4.0930   21.0330  -33.0980 C   0  0  0  0  0  0  0  0  0  0  0  0
   -4.8010   22.1800  -32.5970 N   0  0  0  0  0  0  0  0  0  0  0  0
   -4.2810   23.0420  -31.5720 C   0  0  0  0  0  0  0  0  0  0  0  0
   -3.0750   22.9490  -31.2180 O   0  0  0  0  0  0  0  0  0  0  0  0
   -5.1260   24.0690  -30.9420 C   0  0  0  0  0  0  0  0  0  0  0  0
   -6.3810   23.8870  -30.3890 C   0  0  0  0  0  0  0  0  0  0  0  0
   -6.7670   25.1260  -29.9240 C   0  0  0  0  0  0  0  0  0  0  0  0
   -5.7300   25.9860  -30.2190 C   0  0  0  0  0  0  0  0  0  0  0  0
   -4.7670   25.3270  -30.8240 O   0  0  0  0  0  0  0  0  0  0  0  0
   -2.7440   21.1410  -33.4800 C   0  0  0  0  0  0  0  0  0  0  0  0
    0.6366   19.6425  -31.3004 H   0  0  0  0  0  0  0  0  0  0  0  0
    0.8900   21.3539  -31.7835 H   0  0  0  0  0  0  0  0  0  0  0  0
   -0.7653   20.6564  -31.7835 H   0  0  0  0  0  0  0  0  0  0  0  0
    2.4611   19.4339  -32.9952 H   0  0  0  0  0  0  0  0  0  0  0  0
    1.7101   18.7206  -34.4628 H   0  0  0  0  0  0  0  0  0  0  0  0
    2.2233   20.4420  -34.4628 H   0  0  0  0  0  0  0  0  0  0  0  0
   -2.1119   17.8798  -34.2908 H   0  0  0  0  0  0  0  0  0  0  0  0
   -4.4875   17.6613  -33.5803 H   0  0  0  0  0  0  0  0  0  0  0  0
   -6.2047   17.6049  -32.1801 H   0  0  0  0  0  0  0  0  0  0  0  0
   -6.2375   18.7503  -30.8344 H   0  0  0  0  0  0  0  0  0  0  0  0
   -8.4688   17.7981  -32.5796 H   0  0  0  0  0  0  0  0  0  0  0  0
   -8.5759   18.5577  -30.9830 H   0  0  0  0  0  0  0  0  0  0  0  0
   -9.2550   19.8353  -33.3681 H   0  0  0  0  0  0  0  0  0  0  0  0
   -8.7632   20.7202  -31.9146 H   0  0  0  0  0  0  0  0  0  0  0  0
   -7.2388   20.1921  -34.4407 H   0  0  0  0  0  0  0  0  0  0  0  0
   -6.9902   21.4863  -33.2650 H   0  0  0  0  0  0  0  0  0  0  0  0
   -5.6920   22.4480  -33.0730 H   0  0  0  0  0  0  0  0  0  0  0  0
   -6.9522   22.9486  -30.3322 H   0  0  0  0  0  0  0  0  0  0  0  0
   -7.7115   25.3779  -29.4195 H   0  0  0  0  0  0  0  0  0  0  0  0
   -5.7116   27.0604  -29.9837 H   0  0  0  0  0  0  0  0  0  0  0  0
   -2.2491   22.1230  -33.4545 H   0  0  0  0  0  0  0  0  0  0  0  0
  1  2  1  0
  2  3  1  0
  2  4  1  0
  4  5  2  0
  4  6  1  0
  6  7  2  0
  7  8  1  0
  8  9  2  0
  9 10  1  0
 10 11  1  0
 11 12  1  0
 12 13  1  0
 13 14  1  0
  9 15  1  0
 15 16  1  0
 16 17  1  0
 17 18  2  0
 17 19  1  0
 19 20  2  0
 20 21  1  0
 21 22  2  0
 22 23  1  0
 15 24  2  0
 24  6  1  0
 14 10  1  0
 23 19  1  0
  1 25  1  0
  1 26  1  0
  1 27  1  0
  3 28  1  0
  3 29  1  0
  3 30  1  0
  7 31  1  0
  8 32  1  0
 11 33  1  0
 11 34  1  0
 12 35  1  0
 12 36  1  0
 13 37  1  0
 13 38  1  0
 14 39  1  0
 14 40  1  0
 16 41  1  0
 20 42  1  0
 21 43  1  0
 22 44  1  0
 24 45  1  0
M  END
>  <UniqueID>  (23) 
22

>  <SMILES>  (23) 
CN(C)C(=O)c1ccc(N2CCCC2)c(NC(=O)c2ccco2)c1

>  <Energy>  (23) 
82.89358574506157

>  <Genealogy>  (23) 
CN(C)C(=O)c1ccc(N2CCCC2)c(NC(=O)c2ccco2)c1 (3D coordinates assigned)
CN(C)C(=O)c1ccc(N2CCCC2)c(NC(=O)c2ccco2)c1 (nonaromatic ring conformer: 82.89358574506157 kcal/mol)

>  <smiles>  (23) 
CN(C)C(=O)c1ccc(N2CCCC2)c(NC(=O)c2ccco2)c1

>  <score_type>  (23) 
oracle

>  <origin>  (23) 
adg

>  <m_score__min__energy>  (23) 
-8.1500000000000004

>  <m_primary>  (23) 
energy

$$$$
23:0
     RDKit          3D

 49 51  0  0  0  0  0  0  0  0999 V2000
   -6.7730   24.9220  -30.0940 C   0  0  0  0  0  0  0  0  0  0  0  0
   -5.4280   25.5890  -30.3730 C   0  0  0  0  0  0  0  0  0  0  0  0
   -4.4400   24.5920  -30.8500 N   0  0  0  0  0  0  0  0  0  0  0  0
   -3.4700   24.2050  -29.7920 C   0  0  0  0  0  0  0  0  0  0  0  0
   -4.1060   23.6390  -28.5120 C   0  0  0  0  0  0  0  0  0  0  0  0
   -5.1000   23.4510  -31.5290 C   0  0  0  0  0  0  0  0  0  0  0  0
   -4.1170   22.3350  -31.9150 C   0  0  0  0  0  0  0  0  0  0  0  0
   -4.5170   21.6930  -33.1660 N   0  0  0  0  0  0  0  0  0  0  0  0
   -5.0620   20.3610  -33.1740 C   0  0  0  0  0  0  0  0  0  0  0  0
   -6.4040   20.1420  -32.8170 C   0  0  0  0  0  0  0  0  0  0  0  0
   -7.2060   21.2020  -32.3410 C   0  0  0  0  0  0  0  0  0  0  0  0
   -8.5220   20.9760  -31.9430 C   0  0  0  0  0  0  0  0  0  0  0  0
   -9.0530   19.6930  -31.9920 C   0  0  0  0  0  0  0  0  0  0  0  0
   -8.2780   18.6290  -32.4530 C   0  0  0  0  0  0  0  0  0  0  0  0
   -6.9470   18.8320  -32.9010 C   0  0  0  0  0  0  0  0  0  0  0  0
   -6.1770   17.7920  -33.3880 N   0  0  0  0  0  0  0  0  0  0  0  0
   -6.8130   16.5040  -33.7450 C   0  0  0  0  0  0  0  0  0  0  0  0
   -4.8150   17.9610  -33.5570 C   0  0  0  0  0  0  0  0  0  0  0  0
   -3.9490   16.8620  -33.7940 C   0  0  0  0  0  0  0  0  0  0  0  0
   -2.5870   17.0540  -34.0220 C   0  0  0  0  0  0  0  0  0  0  0  0
   -2.0490   18.3360  -34.0060 C   0  0  0  0  0  0  0  0  0  0  0  0
   -2.8650   19.4300  -33.7320 C   0  0  0  0  0  0  0  0  0  0  0  0
   -4.2440   19.2610  -33.4850 C   0  0  0  0  0  0  0  0  0  0  0  0
   -6.9262   24.8460  -29.0074 H   0  0  0  0  0  0  0  0  0  0  0  0
   -7.5799   25.5244  -30.5368 H   0  0  0  0  0  0  0  0  0  0  0  0
   -6.7818   23.9151  -30.5368 H   0  0  0  0  0  0  0  0  0  0  0  0
   -5.5612   26.3630  -31.1432 H   0  0  0  0  0  0  0  0  0  0  0  0
   -5.0555   26.0395  -29.4411 H   0  0  0  0  0  0  0  0  0  0  0  0
   -2.7974   23.4401  -30.2073 H   0  0  0  0  0  0  0  0  0  0  0  0
   -2.9479   25.1273  -29.4974 H   0  0  0  0  0  0  0  0  0  0  0  0
   -3.6126   24.0781  -27.6323 H   0  0  0  0  0  0  0  0  0  0  0  0
   -5.1773   23.8879  -28.4939 H   0  0  0  0  0  0  0  0  0  0  0  0
   -3.9831   22.5460  -28.4939 H   0  0  0  0  0  0  0  0  0  0  0  0
   -5.8592   23.0315  -30.8525 H   0  0  0  0  0  0  0  0  0  0  0  0
   -5.5466   23.8336  -32.4586 H   0  0  0  0  0  0  0  0  0  0  0  0
   -3.1128   22.7669  -32.0375 H   0  0  0  0  0  0  0  0  0  0  0  0
   -4.1165   21.5776  -31.1173 H   0  0  0  0  0  0  0  0  0  0  0  0
   -4.6160   22.2850  -34.0210 H   0  0  0  0  0  0  0  0  0  0  0  0
   -6.7872   22.2176  -32.2837 H   0  0  0  0  0  0  0  0  0  0  0  0
   -9.1410   21.8139  -31.5898 H   0  0  0  0  0  0  0  0  0  0  0  0
  -10.0885   19.5157  -31.6660 H   0  0  0  0  0  0  0  0  0  0  0  0
   -8.7057   17.6157  -32.4696 H   0  0  0  0  0  0  0  0  0  0  0  0
   -7.0813   15.9607  -32.8270 H   0  0  0  0  0  0  0  0  0  0  0  0
   -7.7205   16.6947  -34.3367 H   0  0  0  0  0  0  0  0  0  0  0  0
   -6.1099   15.8994  -34.3367 H   0  0  0  0  0  0  0  0  0  0  0  0
   -4.3593   15.8414  -33.7979 H   0  0  0  0  0  0  0  0  0  0  0  0
   -1.9361   16.1886  -34.2151 H   0  0  0  0  0  0  0  0  0  0  0  0
   -0.9785   18.4858  -34.2099 H   0  0  0  0  0  0  0  0  0  0  0  0
   -2.4290   20.4396  -33.7077 H   0  0  0  0  0  0  0  0  0  0  0  0
  1  2  1  0
  2  3  1  0
  3  4  1  0
  4  5  1  0
  3  6  1  0
  6  7  1  0
  7  8  1  0
  8  9  1  0
  9 10  2  0
 10 11  1  0
 11 12  2  0
 12 13  1  0
 13 14  2  0
 14 15  1  0
 15 16  2  0
 16 17  1  0
 16 18  1  0
 18 19  2  0
 19 20  1  0
 20 21  2  0
 21 22  1  0
 22 23  2  0
 23  9  1  0
 15 10  1  0
 23 18  1  0
  1 24  1  0
  1 25  1  0
  1 26  1  0
  2 27  1  0
  2 28  1  0
  4 29  1  0
  4 30  1  0
  5 31  1  0
  5 32  1  0
  5 33  1  0
  6 34  1  0
  6 35  1  0
  7 36  1  0
  7 37  1  0
  8 38  1  0
 11 39  1  0
 12 40  1  0
 13 41  1  0
 14 42  1  0
 17 43  1  0
 17 44  1  0
 17 45  1  0
 19 46  1  0
 20 47  1  0
 21 48  1  0
 22 49  1  0
M  CHG  1  16   1
M  END
>  <UniqueID>  (24) 
23

>  <SMILES>  (24) 
CCN(CC)CCNc1c2ccccc2[n+](C)c2ccccc12

>  <Energy>  (24) 
76.73635512041464

>  <Genealogy>  (24) 
CCN(CC)CCNc1c2ccccc2[n+](C)c2ccccc12 (3D coordinates assigned)
CCN(CC)CCNc1c2ccccc2[n+](C)c2ccccc12 (optimized conformer: 76.73635512041464 kcal/mol)

>  <smiles>  (24) 
CCN(CC)CCNc1c2ccccc2[n+](C)c2ccccc12

>  <score_type>  (24) 
oracle

>  <origin>  (24) 
adg

>  <m_score__min__energy>  (24) 
-8.6699999999999999

>  <m_primary>  (24) 
energy

$$$$
24:0
     RDKit          3D

 33 35  0  0  0  0  0  0  0  0999 V2000
   -8.1320   17.1108  -32.7430 H   0  0  0  0  0  0  0  0  0  0  0  0
   -8.0020   18.1940  -32.6020 C   0  0  0  0  0  0  0  0  0  0  0  0
   -6.8570   18.8290  -33.0890 C   0  0  0  0  0  0  0  0  0  0  0  0
   -6.0815   18.2439  -33.6050 H   0  0  0  0  0  0  0  0  0  0  0  0
   -6.6960   20.2080  -32.9210 C   0  0  0  0  0  0  0  0  0  0  0  0
   -5.7859   20.7026  -33.2913 H   0  0  0  0  0  0  0  0  0  0  0  0
   -7.6940   20.9650  -32.2800 C   0  0  0  0  0  0  0  0  0  0  0  0
   -7.5430   22.3750  -32.0530 N   0  0  0  0  0  0  0  0  0  0  0  0
   -6.5420   22.9600  -31.4620 C   0  0  0  0  0  0  0  0  0  0  0  0
   -6.1800   22.9150  -29.8130 S   0  0  0  0  0  0  0  0  0  0  0  0
   -4.7770   23.8300  -30.0590 C   0  0  0  0  0  0  0  0  0  0  0  0
   -3.8260   24.2560  -29.0070 C   0  0  0  0  0  0  0  0  0  0  0  0
   -4.2360   24.3840  -27.6690 C   0  0  0  0  0  0  0  0  0  0  0  0
   -5.2784   24.1646  -27.3947 H   0  0  0  0  0  0  0  0  0  0  0  0
   -3.3300   24.7880  -26.6830 C   0  0  0  0  0  0  0  0  0  0  0  0
   -3.6637   24.8843  -25.6393 H   0  0  0  0  0  0  0  0  0  0  0  0
   -1.9930   25.0720  -27.0200 C   0  0  0  0  0  0  0  0  0  0  0  0
   -1.0470   25.4800  -26.0680 O   0  0  0  0  0  0  0  0  0  0  0  0
   -1.3120   26.4000  -25.0140 C   0  0  0  0  0  0  0  0  0  0  0  0
   -1.1678   25.8992  -24.0453 H   0  0  0  0  0  0  0  0  0  0  0  0
   -0.6234   27.2543  -25.0912 H   0  0  0  0  0  0  0  0  0  0  0  0
   -2.3495   26.7571  -25.0912 H   0  0  0  0  0  0  0  0  0  0  0  0
   -1.5850   24.9450  -28.3510 C   0  0  0  0  0  0  0  0  0  0  0  0
   -0.5423   25.1641  -28.6245 H   0  0  0  0  0  0  0  0  0  0  0  0
   -2.4900   24.5420  -29.3380 C   0  0  0  0  0  0  0  0  0  0  0  0
   -2.1540   24.4481  -30.3812 H   0  0  0  0  0  0  0  0  0  0  0  0
   -4.6250   24.1270  -31.3720 N   0  0  0  0  0  0  0  0  0  0  0  0
   -5.5960   23.6410  -32.1420 N   0  0  0  0  0  0  0  0  0  0  0  0
   -5.6090   23.7820  -33.1770 H   0  0  0  0  0  0  0  0  0  0  0  0
   -8.8230   20.3140  -31.7660 C   0  0  0  0  0  0  0  0  0  0  0  0
   -9.5885   20.8905  -31.2260 H   0  0  0  0  0  0  0  0  0  0  0  0
   -8.9820   18.9340  -31.9360 C   0  0  0  0  0  0  0  0  0  0  0  0
   -9.8791   18.4317  -31.5450 H   0  0  0  0  0  0  0  0  0  0  0  0
  1  2  1  0
  2  3  2  0
  3  4  1  0
  3  5  1  0
  5  6  1  0
  5  7  2  0
  7  8  1  0
  8  9  2  0
  9 10  1  0
 10 11  1  0
 11 12  1  0
 12 13  2  0
 13 14  1  0
 13 15  1  0
 15 16  1  0
 15 17  2  0
 17 18  1  0
 18 19  1  0
 19 20  1  0
 19 21  1  0
 19 22  1  0
 17 23  1  0
 23 24  1  0
 23 25  2  0
 25 26  1  0
 11 27  2  0
 27 28  1  0
 28 29  1  0
  7 30  1  0
 30 31  1  0
 30 32  2  0
 32 33  1  0
 32  2  1  0
 28  9  1  0
 25 12  1  0
M  END
>  <UniqueID>  (25) 
24

>  <SMILES>  (25) 
COc1ccc(-c2n[nH]/c(=N/c3ccccc3)s2)cc1

>  <Energy>  (25) 
77.09911876457463

>  <Genealogy>  (25) 
COc1ccc(-c2n[nH]/c(=N/c3ccccc3)s2)cc1 (cis-trans isomerization)
COc1ccc(-c2n[nH]/c(=N/c3ccccc3)s2)cc1 (3D coordinates assigned)
COc1ccc(-c2n[nH]/c(=N/c3ccccc3)s2)cc1 (optimized conformer: 77.09911876457463 kcal/mol)

>  <smiles>  (25) 
COc1ccc(-c2n[nH]c(=Nc3ccccc3)s2)cc1

>  <score_type>  (25) 
oracle

>  <origin>  (25) 
adg

>  <m_score__min__energy>  (25) 
-7.5700000000000003

>  <m_primary>  (25) 
energy

$$$$
25:0
     RDKit          3D

 55 58  0  0  0  0  0  0  0  0999 V2000
    1.0140   16.0930  -27.2390 C   0  0  0  0  0  0  0  0  0  0  0  0
    0.7250   17.5160  -27.5930 C   0  0  0  0  0  0  0  0  0  0  0  0
   -0.4550   18.0010  -27.9540 C   0  0  0  0  0  0  0  0  0  0  0  0
   -0.3360   19.4560  -28.3450 C   0  0  2  0  0  0  0  0  0  0  0  0
   -1.1580   20.3170  -27.4140 C   0  0  0  0  0  0  0  0  0  0  0  0
   -1.7120   21.4650  -27.8400 C   0  0  0  0  0  0  0  0  0  0  0  0
   -1.4250   22.0150  -29.2410 C   0  0  1  0  0  0  0  0  0  0  0  0
   -0.0610   22.7390  -29.2240 C   0  0  0  0  0  0  0  0  0  0  0  0
   -1.3550   20.7980  -30.1910 C   0  0  0  0  0  0  0  0  0  0  0  0
   -0.7630   19.6510  -29.7810 C   0  0  0  0  0  0  0  0  0  0  0  0
   -2.0410   20.8230  -31.5590 C   0  0  2  0  0  0  0  0  0  0  0  0
   -1.1000   21.5110  -32.5760 C   0  0  0  0  0  0  0  0  0  0  0  0
   -3.5460   21.3680  -31.4780 C   0  0  0  0  0  0  0  0  0  0  0  0
   -3.9320   22.0870  -32.7990 C   0  0  0  0  0  0  0  0  0  0  0  0
   -4.4930   20.1500  -31.3440 C   0  0  0  0  0  0  0  0  0  0  0  0
   -3.7740   22.2780  -30.1920 C   0  0  2  0  0  0  0  0  0  0  0  0
   -4.8930   23.3470  -30.2200 C   0  0  0  0  0  0  0  0  0  0  0  0
   -4.2720   24.6760  -29.7570 C   0  0  2  0  0  0  0  0  0  0  0  0
   -4.1050   25.5610  -30.8400 O   0  0  0  0  0  0  0  0  0  0  0  0
   -2.9150   24.3360  -29.1070 C   0  0  1  0  0  0  0  0  0  0  0  0
   -3.0530   24.3280  -27.5800 C   0  0  0  0  0  0  0  0  0  0  0  0
   -2.5030   23.0130  -29.8000 C   0  0  1  0  0  0  0  0  0  0  0  0
    1.0560   19.7250  -28.1890 O   0  0  0  0  0  0  0  0  0  0  0  0
    1.6890   18.5780  -27.7520 C   0  0  0  0  0  0  0  0  0  0  0  0
    2.9260   18.4910  -27.5380 O   0  0  0  0  0  0  0  0  0  0  0  0
    1.0360   15.9846  -26.1446 H   0  0  0  0  0  0  0  0  0  0  0  0
    0.2292   15.4448  -27.6559 H   0  0  0  0  0  0  0  0  0  0  0  0
    1.9895   15.8023  -27.6559 H   0  0  0  0  0  0  0  0  0  0  0  0
   -1.3914   17.4240  -27.9671 H   0  0  0  0  0  0  0  0  0  0  0  0
   -1.3052   19.9991  -26.3713 H   0  0  0  0  0  0  0  0  0  0  0  0
   -2.3845   22.0205  -27.1699 H   0  0  0  0  0  0  0  0  0  0  0  0
    0.2528   22.9055  -28.1829 H   0  0  0  0  0  0  0  0  0  0  0  0
    0.6890   22.1203  -29.7385 H   0  0  0  0  0  0  0  0  0  0  0  0
   -0.1532   23.7069  -29.7385 H   0  0  0  0  0  0  0  0  0  0  0  0
   -0.5895   18.8446  -30.5087 H   0  0  0  0  0  0  0  0  0  0  0  0
   -2.1969   19.8029  -31.9399 H   0  0  0  0  0  0  0  0  0  0  0  0
   -0.3266   22.0765  -32.0356 H   0  0  0  0  0  0  0  0  0  0  0  0
   -0.6221   20.7478  -33.2078 H   0  0  0  0  0  0  0  0  0  0  0  0
   -1.6822   22.1979  -33.2078 H   0  0  0  0  0  0  0  0  0  0  0  0
   -4.4405   23.0342  -32.5659 H   0  0  0  0  0  0  0  0  0  0  0  0
   -3.0232   22.2929  -33.3835 H   0  0  0  0  0  0  0  0  0  0  0  0
   -4.6058   21.4433  -33.3835 H   0  0  0  0  0  0  0  0  0  0  0  0
   -4.6621   19.9325  -30.2791 H   0  0  0  0  0  0  0  0  0  0  0  0
   -5.4538   20.3775  -31.8289 H   0  0  0  0  0  0  0  0  0  0  0  0
   -4.0357   19.2749  -31.8289 H   0  0  0  0  0  0  0  0  0  0  0  0
   -4.0996   21.5134  -29.4713 H   0  0  0  0  0  0  0  0  0  0  0  0
   -5.2871   23.4520  -31.2416 H   0  0  0  0  0  0  0  0  0  0  0  0
   -5.7241   23.0563  -29.5606 H   0  0  0  0  0  0  0  0  0  0  0  0
   -4.9320   25.1822  -29.0372 H   0  0  0  0  0  0  0  0  0  0  0  0
   -3.8620   26.4520  -30.4770 H   0  0  0  0  0  0  0  0  0  0  0  0
   -2.1077   25.0687  -29.2530 H   0  0  0  0  0  0  0  0  0  0  0  0
   -2.0549   24.3859  -27.1213 H   0  0  0  0  0  0  0  0  0  0  0  0
   -3.6536   25.1928  -27.2616 H   0  0  0  0  0  0  0  0  0  0  0  0
   -3.5496   23.3996  -27.2616 H   0  0  0  0  0  0  0  0  0  0  0  0
   -1.8799   23.4090  -30.6154 H   0  0  0  0  0  0  0  0  0  0  0  0
  1  2  1  0
  2  3  2  0
  3  4  1  0
  4  5  1  0
  5  6  2  0
  6  7  1  0
  7  8  1  1
  7  9  1  0
  9 10  2  0
  9 11  1  0
 11 12  1  0
 11 13  1  0
 13 14  1  0
 13 15  1  0
 13 16  1  0
 16 17  1  0
 17 18  1  0
 18 19  1  0
 18 20  1  0
 20 21  1  0
 20 22  1  0
  4 23  1  6
 23 24  1  0
 24 25  2  0
 24  2  1  0
 10  4  1  0
 22 16  1  0
 22  7  1  0
  1 26  1  0
  1 27  1  0
  1 28  1  0
  3 29  1  0
  5 30  1  0
  6 31  1  0
  8 32  1  0
  8 33  1  0
  8 34  1  0
 10 35  1  0
 11 36  1  6
 12 37  1  0
 12 38  1  0
 12 39  1  0
 14 40  1  0
 14 41  1  0
 14 42  1  0
 15 43  1  0
 15 44  1  0
 15 45  1  0
 16 46  1  1
 17 47  1  0
 17 48  1  0
 18 49  1  1
 19 50  1  0
 20 51  1  1
 21 52  1  0
 21 53  1  0
 21 54  1  0
 22 55  1  6
M  END
>  <UniqueID>  (26) 
25

>  <SMILES>  (26) 
CC1=C[C@@]2(C=C[C@@]3(C)C(=C2)C(C)C(C)(C)C2CC(O)C(C)C23)OC1=O

>  <Energy>  (26) 
111.08094895855453

>  <Genealogy>  (26) 
CC1=C[C@@]2(C=C[C@@]3(C)C(=C2)C(C)C(C)(C)C2CC(O)C(C)C23)OC1=O (chirality)
CC1=C[C@@]2(C=C[C@@]3(C)C(=C2)C(C)C(C)(C)C2CC(O)C(C)C23)OC1=O (3D coordinates assigned)
CC1=C[C@@]2(C=C[C@@]3(C)C(=C2)C(C)C(C)(C)C2CC(O)C(C)C23)OC1=O (nonaromatic ring conformer: 111.08094895855453 kcal/mol)

>  <smiles>  (26) 
CC1=CC2(C=CC3(C)C(=C2)C(C)C(C)(C)C2CC(O)C(C)C23)OC1=O

>  <score_type>  (26) 
oracle

>  <origin>  (26) 
adg

>  <m_score__min__energy>  (26) 
-9.3499999999999996

>  <m_primary>  (26) 
energy

$$$$
26:0
     RDKit          3D

 59 62  0  0  0  0  0  0  0  0999 V2000
   -5.4760   19.3840  -34.1060 O   0  0  0  0  0  0  0  0  0  0  0  0
   -6.2310   19.8370  -33.2570 C   0  0  0  0  0  0  0  0  0  0  0  0
   -5.7230   20.9090  -32.3370 C   0  0  0  0  0  0  0  0  0  0  0  0
   -6.7850   21.9990  -32.2180 C   0  0  2  0  0  0  0  0  0  0  0  0
   -6.3000   23.1570  -31.3640 C   0  0  0  0  0  0  0  0  0  0  0  0
   -7.2280   23.9700  -30.6870 C   0  0  0  0  0  0  0  0  0  0  0  0
   -6.7910   25.0350  -29.8930 C   0  0  0  0  0  0  0  0  0  0  0  0
   -5.4260   25.3010  -29.7660 C   0  0  0  0  0  0  0  0  0  0  0  0
   -4.4940   24.5000  -30.4300 C   0  0  0  0  0  0  0  0  0  0  0  0
   -3.1680   24.7580  -30.3030 F   0  0  0  0  0  0  0  0  0  0  0  0
   -4.9240   23.4340  -31.2250 C   0  0  0  0  0  0  0  0  0  0  0  0
   -8.0950   21.4180  -31.6710 C   0  0  0  0  0  0  0  0  0  0  0  0
   -8.4930   20.1200  -32.3430 C   0  0  0  0  0  0  0  0  0  0  0  0
   -9.6600   19.7680  -32.2340 O   0  0  0  0  0  0  0  0  0  0  0  0
   -7.5800   19.3120  -33.1440 N   0  0  2  0  0  0  0  0  0  0  0  0
   -7.5780   17.8810  -32.7360 C   0  0  0  0  0  0  0  0  0  0  0  0
   -6.6240   16.9540  -33.5330 C   0  0  0  0  0  0  0  0  0  0  0  0
   -5.3620   16.5060  -32.7780 C   0  0  0  0  0  0  0  0  0  0  0  0
   -4.4330   15.7180  -33.6250 N   0  0  0  0  0  0  0  0  0  0  0  0
   -3.1820   15.3600  -32.9050 C   0  0  0  0  0  0  0  0  0  0  0  0
   -1.9900   16.2860  -33.2210 C   0  0  0  0  0  0  0  0  0  0  0  0
   -2.4630   17.6030  -33.6600 N   0  0  0  0  0  0  0  0  0  0  0  0
   -2.0370   18.8100  -32.9980 C   0  0  0  0  0  0  0  0  0  0  0  0
   -1.0040   18.7740  -32.0450 C   0  0  0  0  0  0  0  0  0  0  0  0
   -0.6030   19.9440  -31.3930 C   0  0  0  0  0  0  0  0  0  0  0  0
   -1.2330   21.1570  -31.6800 C   0  0  0  0  0  0  0  0  0  0  0  0
   -0.8440   22.2910  -31.0460 F   0  0  0  0  0  0  0  0  0  0  0  0
   -2.2680   21.2020  -32.6200 C   0  0  0  0  0  0  0  0  0  0  0  0
   -2.6720   20.0340  -33.2730 C   0  0  0  0  0  0  0  0  0  0  0  0
   -3.3850   17.6660  -34.7980 C   0  0  0  0  0  0  0  0  0  0  0  0
   -4.1560   16.3430  -34.9410 C   0  0  0  0  0  0  0  0  0  0  0  0
   -5.5213   20.4795  -31.3446 H   0  0  0  0  0  0  0  0  0  0  0  0
   -4.7924   21.3362  -32.7388 H   0  0  0  0  0  0  0  0  0  0  0  0
   -6.9781   22.3947  -33.2260 H   0  0  0  0  0  0  0  0  0  0  0  0
   -8.3047   23.7663  -30.7831 H   0  0  0  0  0  0  0  0  0  0  0  0
   -7.5241   25.6645  -29.3674 H   0  0  0  0  0  0  0  0  0  0  0  0
   -5.0848   26.1411  -29.1432 H   0  0  0  0  0  0  0  0  0  0  0  0
   -4.1849   22.8072  -31.7454 H   0  0  0  0  0  0  0  0  0  0  0  0
   -7.9731   21.2320  -30.5937 H   0  0  0  0  0  0  0  0  0  0  0  0
   -8.8899   22.1508  -31.8738 H   0  0  0  0  0  0  0  0  0  0  0  0
   -7.9780   19.3410  -34.1130 H   0  0  0  0  0  0  0  0  0  0  0  0
   -7.2882   17.8326  -31.6760 H   0  0  0  0  0  0  0  0  0  0  0  0
   -8.5937   17.5107  -32.9392 H   0  0  0  0  0  0  0  0  0  0  0  0
   -7.1863   16.0532  -33.8199 H   0  0  0  0  0  0  0  0  0  0  0  0
   -6.2717   17.5450  -34.3912 H   0  0  0  0  0  0  0  0  0  0  0  0
   -4.8338   17.4001  -32.4153 H   0  0  0  0  0  0  0  0  0  0  0  0
   -5.6848   15.8578  -31.9499 H   0  0  0  0  0  0  0  0  0  0  0  0
   -3.3795   15.4070  -31.8239 H   0  0  0  0  0  0  0  0  0  0  0  0
   -2.8992   14.3512  -33.2403 H   0  0  0  0  0  0  0  0  0  0  0  0
   -1.3751   16.4055  -32.3168 H   0  0  0  0  0  0  0  0  0  0  0  0
   -1.3945   15.8352  -34.0286 H   0  0  0  0  0  0  0  0  0  0  0  0
   -0.5086   17.8202  -31.8111 H   0  0  0  0  0  0  0  0  0  0  0  0
    0.2100   19.9091  -30.6528 H   0  0  0  0  0  0  0  0  0  0  0  0
   -2.7644   22.1574  -32.8455 H   0  0  0  0  0  0  0  0  0  0  0  0
   -3.4912   20.0726  -34.0061 H   0  0  0  0  0  0  0  0  0  0  0  0
   -4.1003   18.4864  -34.6392 H   0  0  0  0  0  0  0  0  0  0  0  0
   -2.8051   17.8406  -35.7162 H   0  0  0  0  0  0  0  0  0  0  0  0
   -5.1116   16.5416  -35.4483 H   0  0  0  0  0  0  0  0  0  0  0  0
   -3.5339   15.6478  -35.5238 H   0  0  0  0  0  0  0  0  0  0  0  0
  1  2  2  0
  2  3  1  0
  3  4  1  0
  4  5  1  0
  5  6  2  0
  6  7  1  0
  7  8  2  0
  8  9  1  0
  9 10  1  0
  9 11  2  0
  4 12  1  0
 12 13  1  0
 13 14  2  0
 13 15  1  0
 15 16  1  0
 16 17  1  0
 17 18  1  0
 18 19  1  0
 19 20  1  0
 20 21  1  0
 21 22  1  0
 22 23  1  0
 23 24  2  0
 24 25  1  0
 25 26  2  0
 26 27  1  0
 26 28  1  0
 28 29  2  0
 22 30  1  0
 30 31  1  0
 15  2  1  0
 31 19  1  0
 11  5  1  0
 29 23  1  0
  3 32  1  0
  3 33  1  0
  4 34  1  6
  6 35  1  0
  7 36  1  0
  8 37  1  0
 11 38  1  0
 12 39  1  0
 12 40  1  0
 15 41  1  6
 16 42  1  0
 16 43  1  0
 17 44  1  0
 17 45  1  0
 18 46  1  0
 18 47  1  0
 20 48  1  0
 20 49  1  0
 21 50  1  0
 21 51  1  0
 24 52  1  0
 25 53  1  0
 28 54  1  0
 29 55  1  0
 30 56  1  0
 30 57  1  0
 31 58  1  0
 31 59  1  0
M  CHG  1  15   1
M  END
>  <UniqueID>  (27) 
26

>  <SMILES>  (27) 
O=C1CC(c2cccc(F)c2)CC(=O)[NH+]1CCCN1CCN(c2ccc(F)cc2)CC1

>  <Energy>  (27) 
80.5480219478552

>  <Genealogy>  (27) 
O=C1CC(c2cccc(F)c2)CC(=O)[NH+]1CCCN1CCN(c2ccc(F)cc2)CC1 (protonated)
O=C1CC(c2cccc(F)c2)CC(=O)[NH+]1CCCN1CCN(c2ccc(F)cc2)CC1 (3D coordinates assigned)
O=C1CC(c2cccc(F)c2)CC(=O)[NH+]1CCCN1CCN(c2ccc(F)cc2)CC1 (nonaromatic ring conformer: 80.5480219478552 kcal/mol)

>  <smiles>  (27) 
O=C1CC(c2cccc(F)c2)CC(=O)N1CCCN1CCN(c2ccc(F)cc2)CC1

>  <score_type>  (27) 
oracle

>  <origin>  (27) 
adg

>  <m_score__min__energy>  (27) 
-9.2400000000000002

>  <m_primary>  (27) 
energy

$$$$
27:0
     RDKit          3D

 30 32  0  0  0  0  0  0  0  0999 V2000
   -9.2070   19.9670  -32.6030 C   0  0  0  0  0  0  0  0  0  0  0  0
   -8.0140   20.8150  -32.2250 C   0  0  0  0  0  0  0  0  0  0  0  0
   -6.6840   20.3510  -32.3870 C   0  0  0  0  0  0  0  0  0  0  0  0
   -6.3650   19.0380  -32.9860 C   0  0  0  0  0  0  0  0  0  0  0  0
   -5.8850   18.9410  -34.3050 C   0  0  0  0  0  0  0  0  0  0  0  0
   -5.5570   17.6930  -34.8440 C   0  0  0  0  0  0  0  0  0  0  0  0
   -5.6900   16.5370  -34.0680 C   0  0  0  0  0  0  0  0  0  0  0  0
   -5.3690   15.3290  -34.5930 F   0  0  0  0  0  0  0  0  0  0  0  0
   -6.1420   16.6300  -32.7490 C   0  0  0  0  0  0  0  0  0  0  0  0
   -6.4700   17.8750  -32.2060 C   0  0  0  0  0  0  0  0  0  0  0  0
   -5.6630   21.1030  -31.9850 O   0  0  0  0  0  0  0  0  0  0  0  0
   -5.8120   22.3130  -31.4610 C   0  0  0  0  0  0  0  0  0  0  0  0
   -4.6820   23.0380  -31.0660 C   0  0  0  0  0  0  0  0  0  0  0  0
   -4.8230   24.3180  -30.5220 C   0  0  0  0  0  0  0  0  0  0  0  0
   -6.0950   24.8790  -30.3710 C   0  0  0  0  0  0  0  0  0  0  0  0
   -7.2310   24.1620  -30.7600 C   0  0  0  0  0  0  0  0  0  0  0  0
   -7.0980   22.8710  -31.3070 C   0  0  0  0  0  0  0  0  0  0  0  0
   -8.2080   22.1080  -31.7020 C   0  0  0  0  0  0  0  0  0  0  0  0
   -9.3750   22.5770  -31.5840 O   0  0  0  0  0  0  0  0  0  0  0  0
   -9.7077   19.6111  -31.6905 H   0  0  0  0  0  0  0  0  0  0  0  0
   -9.9110   20.5685  -33.1968 H   0  0  0  0  0  0  0  0  0  0  0  0
   -8.8703   19.1044  -33.1968 H   0  0  0  0  0  0  0  0  0  0  0  0
   -5.7674   19.8495  -34.9140 H   0  0  0  0  0  0  0  0  0  0  0  0
   -5.1939   17.6204  -35.8798 H   0  0  0  0  0  0  0  0  0  0  0  0
   -6.2398   15.7213  -32.1369 H   0  0  0  0  0  0  0  0  0  0  0  0
   -6.8120   17.9444  -31.1628 H   0  0  0  0  0  0  0  0  0  0  0  0
   -3.6801   22.5994  -31.1839 H   0  0  0  0  0  0  0  0  0  0  0  0
   -3.9324   24.8845  -30.2124 H   0  0  0  0  0  0  0  0  0  0  0  0
   -6.2024   25.8874  -29.9449 H   0  0  0  0  0  0  0  0  0  0  0  0
   -8.2296   24.6069  -30.6386 H   0  0  0  0  0  0  0  0  0  0  0  0
  1  2  1  0
  2  3  2  0
  3  4  1  0
  4  5  2  0
  5  6  1  0
  6  7  2  0
  7  8  1  0
  7  9  1  0
  9 10  2  0
  3 11  1  0
 11 12  1  0
 12 13  2  0
 13 14  1  0
 14 15  2  0
 15 16  1  0
 16 17  2  0
 17 18  1  0
 18 19  2  0
 18  2  1  0
 10  4  1  0
 17 12  1  0
  1 20  1  0
  1 21  1  0
  1 22  1  0
  5 23  1  0
  6 24  1  0
  9 25  1  0
 10 26  1  0
 13 27  1  0
 14 28  1  0
 15 29  1  0
 16 30  1  0
M  END
>  <UniqueID>  (28) 
27

>  <SMILES>  (28) 
Cc1c(-c2ccc(F)cc2)oc2ccccc2c1=O

>  <Energy>  (28) 
45.792760188122884

>  <Genealogy>  (28) 
Cc1c(-c2ccc(F)cc2)oc2ccccc2c1=O (3D coordinates assigned)
Cc1c(-c2ccc(F)cc2)oc2ccccc2c1=O (optimized conformer: 45.792760188122884 kcal/mol)

>  <smiles>  (28) 
Cc1c(-c2ccc(F)cc2)oc2ccccc2c1=O

>  <score_type>  (28) 
oracle

>  <origin>  (28) 
adg

>  <m_score__min__energy>  (28) 
-7.4699999999999998

>  <m_primary>  (28) 
energy

$$$$
28:0
     RDKit          3D

 38 39  0  0  0  0  0  0  0  0999 V2000
   -4.2510   24.9100  -26.3250 C   0  0  0  0  0  0  0  0  0  0  0  0
   -4.5200   24.5580  -27.7210 N   0  0  0  0  0  0  0  0  0  0  0  0
   -3.9530   23.2420  -28.0450 C   0  0  0  0  0  0  0  0  0  0  0  0
   -3.5720   23.1640  -29.5290 C   0  0  0  0  0  0  0  0  0  0  0  0
   -4.7990   22.9540  -30.3830 C   0  0  0  0  0  0  0  0  0  0  0  0
   -5.0360   21.6920  -30.9520 C   0  0  0  0  0  0  0  0  0  0  0  0
   -6.1820   21.4550  -31.7290 C   0  0  0  0  0  0  0  0  0  0  0  0
   -6.4220   20.1190  -32.3320 C   0  0  0  0  0  0  0  0  0  0  0  0
   -5.6730   19.6890  -33.4430 C   0  0  0  0  0  0  0  0  0  0  0  0
   -5.9020   18.4300  -34.0070 C   0  0  0  0  0  0  0  0  0  0  0  0
   -6.8790   17.5890  -33.4710 C   0  0  0  0  0  0  0  0  0  0  0  0
   -7.6300   18.0030  -32.3700 C   0  0  0  0  0  0  0  0  0  0  0  0
   -7.4040   19.2610  -31.8000 C   0  0  0  0  0  0  0  0  0  0  0  0
   -7.0970   22.5000  -31.9260 C   0  0  0  0  0  0  0  0  0  0  0  0
   -6.8800   23.7530  -31.3510 C   0  0  0  0  0  0  0  0  0  0  0  0
   -5.7340   23.9930  -30.5700 C   0  0  0  0  0  0  0  0  0  0  0  0
   -5.4980   25.2390  -29.9660 O   0  0  0  0  0  0  0  0  0  0  0  0
   -6.5020   26.0450  -29.3560 C   0  0  0  0  0  0  0  0  0  0  0  0
   -4.7839   24.2127  -25.6618 H   0  0  0  0  0  0  0  0  0  0  0  0
   -3.1699   24.8455  -26.1324 H   0  0  0  0  0  0  0  0  0  0  0  0
   -4.5972   25.9362  -26.1324 H   0  0  0  0  0  0  0  0  0  0  0  0
   -5.5570   24.5430  -27.8680 H   0  0  0  0  0  0  0  0  0  0  0  0
   -4.0940   25.2880  -28.3380 H   0  0  0  0  0  0  0  0  0  0  0  0
   -3.0545   23.0757  -27.4327 H   0  0  0  0  0  0  0  0  0  0  0  0
   -4.7082   22.4707  -27.8336 H   0  0  0  0  0  0  0  0  0  0  0  0
   -3.0814   24.1027  -29.8259 H   0  0  0  0  0  0  0  0  0  0  0  0
   -2.8889   22.3143  -29.6752 H   0  0  0  0  0  0  0  0  0  0  0  0
   -4.3145   20.8782  -30.7870 H   0  0  0  0  0  0  0  0  0  0  0  0
   -4.9025   20.3474  -33.8705 H   0  0  0  0  0  0  0  0  0  0  0  0
   -5.3111   18.1016  -34.8748 H   0  0  0  0  0  0  0  0  0  0  0  0
   -7.0570   16.5993  -33.9169 H   0  0  0  0  0  0  0  0  0  0  0  0
   -8.4004   17.3398  -31.9497 H   0  0  0  0  0  0  0  0  0  0  0  0
   -7.9971   19.5817  -30.9309 H   0  0  0  0  0  0  0  0  0  0  0  0
   -7.9941   22.3302  -32.5395 H   0  0  0  0  0  0  0  0  0  0  0  0
   -7.6107   24.5598  -31.5095 H   0  0  0  0  0  0  0  0  0  0  0  0
   -6.4141   25.9745  -28.2618 H   0  0  0  0  0  0  0  0  0  0  0  0
   -6.3713   27.0918  -29.6676 H   0  0  0  0  0  0  0  0  0  0  0  0
   -7.4958   25.6910  -29.6676 H   0  0  0  0  0  0  0  0  0  0  0  0
  1  2  1  0
  2  3  1  0
  3  4  1  0
  4  5  1  0
  5  6  2  0
  6  7  1  0
  7  8  1  0
  8  9  2  0
  9 10  1  0
 10 11  2  0
 11 12  1  0
 12 13  2  0
  7 14  2  0
 14 15  1  0
 15 16  2  0
 16 17  1  0
 17 18  1  0
 16  5  1  0
 13  8  1  0
  1 19  1  0
  1 20  1  0
  1 21  1  0
  2 22  1  0
  2 23  1  0
  3 24  1  0
  3 25  1  0
  4 26  1  0
  4 27  1  0
  6 28  1  0
  9 29  1  0
 10 30  1  0
 11 31  1  0
 12 32  1  0
 13 33  1  0
 14 34  1  0
 15 35  1  0
 18 36  1  0
 18 37  1  0
 18 38  1  0
M  CHG  1   2   1
M  END
>  <UniqueID>  (29) 
28

>  <SMILES>  (29) 
C[NH2+]CCc1cc(-c2ccccc2)ccc1OC

>  <Energy>  (29) 
38.62275521646306

>  <Genealogy>  (29) 
C[NH2+]CCc1cc(-c2ccccc2)ccc1OC (protonated)
C[NH2+]CCc1cc(-c2ccccc2)ccc1OC (3D coordinates assigned)
C[NH2+]CCc1cc(-c2ccccc2)ccc1OC (optimized conformer: 38.62275521646306 kcal/mol)

>  <smiles>  (29) 
CNCCc1cc(-c2ccccc2)ccc1OC

>  <score_type>  (29) 
oracle

>  <origin>  (29) 
adg

>  <m_score__min__energy>  (29) 
-6.5199999999999996

>  <m_primary>  (29) 
energy

$$$$
29:0
     RDKit          3D

 53 56  0  0  0  0  0  0  0  0999 V2000
   -6.4940   17.6600  -31.2090 C   0  0  0  0  0  0  0  0  0  0  0  0
   -7.2710   17.2890  -32.3420 O   0  0  0  0  0  0  0  0  0  0  0  0
   -6.7010   16.7660  -33.5060 C   0  0  0  0  0  0  0  0  0  0  0  0
   -7.2310   15.7870  -34.0980 O   0  0  0  0  0  0  0  0  0  0  0  0
   -5.4760   17.4050  -34.0770 C   0  0  0  0  0  0  0  0  0  0  0  0
   -5.8040   18.7880  -34.6430 C   0  0  0  0  0  0  0  0  0  0  0  0
   -5.6200   19.8220  -33.6040 N   0  0  0  0  0  0  0  0  0  0  0  0
   -6.7170   20.4260  -33.0350 C   0  0  0  0  0  0  0  0  0  0  0  0
   -7.8770   20.0820  -33.3920 O   0  0  0  0  0  0  0  0  0  0  0  0
   -6.5490   21.4370  -32.0560 C   0  0  0  0  0  0  0  0  0  0  0  0
   -7.7270   22.1490  -31.3710 C   0  0  0  0  0  0  0  0  0  0  0  0
   -8.3450   23.2000  -32.3180 C   0  0  0  0  0  0  0  0  0  0  0  0
   -8.8400   21.1340  -31.0050 C   0  0  0  0  0  0  0  0  0  0  0  0
   -7.2590   22.8240  -30.0650 C   0  0  0  0  0  0  0  0  0  0  0  0
   -5.2810   21.7940  -31.7190 N   0  0  0  0  0  0  0  0  0  0  0  0
   -4.1870   21.2220  -32.2730 C   0  0  0  0  0  0  0  0  0  0  0  0
   -2.8890   21.6360  -31.9090 C   0  0  0  0  0  0  0  0  0  0  0  0
   -2.6660   22.6800  -30.8760 C   0  0  0  0  0  0  0  0  0  0  0  0
   -3.7330   23.5260  -30.4770 C   0  0  0  0  0  0  0  0  0  0  0  0
   -3.5360   24.5130  -29.4940 C   0  0  0  0  0  0  0  0  0  0  0  0
   -2.2670   24.6290  -28.9370 C   0  0  0  0  0  0  0  0  0  0  0  0
   -1.2390   23.8310  -29.3180 C   0  0  0  0  0  0  0  0  0  0  0  0
   -1.3900   22.8450  -30.2880 C   0  0  0  0  0  0  0  0  0  0  0  0
   -0.1050   24.1690  -28.6050 O   0  0  0  0  0  0  0  0  0  0  0  0
   -0.4420   25.2470  -27.7200 C   0  0  0  0  0  0  0  0  0  0  0  0
   -1.8310   25.5090  -27.9650 O   0  0  0  0  0  0  0  0  0  0  0  0
   -1.7880   21.0460  -32.5490 C   0  0  0  0  0  0  0  0  0  0  0  0
   -1.9940   20.0610  -33.5140 C   0  0  0  0  0  0  0  0  0  0  0  0
   -3.2550   19.6750  -33.8390 N   0  0  0  0  0  0  0  0  0  0  0  0
   -4.3550   20.2230  -33.2490 C   0  0  0  0  0  0  0  0  0  0  0  0
   -7.0389   17.3998  -30.2896 H   0  0  0  0  0  0  0  0  0  0  0  0
   -5.5342   17.1230  -31.2308 H   0  0  0  0  0  0  0  0  0  0  0  0
   -6.3082   18.7440  -31.2308 H   0  0  0  0  0  0  0  0  0  0  0  0
   -4.7197   17.5086  -33.2850 H   0  0  0  0  0  0  0  0  0  0  0  0
   -5.0915   16.7713  -34.8898 H   0  0  0  0  0  0  0  0  0  0  0  0
   -5.1358   19.0015  -35.4903 H   0  0  0  0  0  0  0  0  0  0  0  0
   -6.8516   18.7990  -34.9784 H   0  0  0  0  0  0  0  0  0  0  0  0
   -8.8142   23.9980  -31.7239 H   0  0  0  0  0  0  0  0  0  0  0  0
   -7.5563   23.6307  -32.9524 H   0  0  0  0  0  0  0  0  0  0  0  0
   -9.1048   22.7202  -32.9524 H   0  0  0  0  0  0  0  0  0  0  0  0
   -8.9223   21.0589  -29.9107 H   0  0  0  0  0  0  0  0  0  0  0  0
   -9.7989   21.4750  -31.4223 H   0  0  0  0  0  0  0  0  0  0  0  0
   -8.5885   20.1478  -31.4223 H   0  0  0  0  0  0  0  0  0  0  0  0
   -7.6480   22.2630  -29.2025 H   0  0  0  0  0  0  0  0  0  0  0  0
   -6.1596   22.8334  -30.0307 H   0  0  0  0  0  0  0  0  0  0  0  0
   -7.6358   23.8569  -30.0307 H   0  0  0  0  0  0  0  0  0  0  0  0
   -4.7236   23.4090  -30.9407 H   0  0  0  0  0  0  0  0  0  0  0  0
   -4.3583   25.1710  -29.1766 H   0  0  0  0  0  0  0  0  0  0  0  0
   -0.5420   22.2123  -30.5888 H   0  0  0  0  0  0  0  0  0  0  0  0
   -0.2834   24.9511  -26.6725 H   0  0  0  0  0  0  0  0  0  0  0  0
    0.1828   26.1353  -27.8947 H   0  0  0  0  0  0  0  0  0  0  0  0
   -0.7660   21.3597  -32.2901 H   0  0  0  0  0  0  0  0  0  0  0  0
   -1.1322   19.5948  -34.0139 H   0  0  0  0  0  0  0  0  0  0  0  0
  1  2  1  0
  2  3  1  0
  3  4  2  0
  3  5  1  0
  5  6  1  0
  6  7  1  0
  7  8  1  0
  8  9  2  0
  8 10  1  0
 10 11  1  0
 11 12  1  0
 11 13  1  0
 11 14  1  0
 10 15  2  0
 15 16  1  0
 16 17  2  0
 17 18  1  0
 18 19  2  0
 19 20  1  0
 20 21  2  0
 21 22  1  0
 22 23  2  0
 22 24  1  0
 24 25  1  0
 25 26  1  0
 17 27  1  0
 27 28  2  0
 28 29  1  0
 29 30  2  0
 30  7  1  0
 30 16  1  0
 23 18  1  0
 26 21  1  0
  1 31  1  0
  1 32  1  0
  1 33  1  0
  5 34  1  0
  5 35  1  0
  6 36  1  0
  6 37  1  0
 12 38  1  0
 12 39  1  0
 12 40  1  0
 13 41  1  0
 13 42  1  0
 13 43  1  0
 14 44  1  0
 14 45  1  0
 14 46  1  0
 19 47  1  0
 20 48  1  0
 23 49  1  0
 25 50  1  0
 25 51  1  0
 27 52  1  0
 28 53  1  0
M  END
>  <UniqueID>  (30) 
29

>  <SMILES>  (30) 
COC(=O)CCn1c(=O)c(C(C)(C)C)nc2c(-c3ccc4c(c3)OCO4)ccnc21

>  <Energy>  (30) 
92.09447851152369

>  <Genealogy>  (30) 
COC(=O)CCn1c(=O)c(C(C)(C)C)nc2c(-c3ccc4c(c3)OCO4)ccnc21 (3D coordinates assigned)
COC(=O)CCn1c(=O)c(C(C)(C)C)nc2c(-c3ccc4c(c3)OCO4)ccnc21 (nonaromatic ring conformer: 92.09447851152369 kcal/mol)

>  <smiles>  (30) 
COC(=O)CCn1c(=O)c(C(C)(C)C)nc2c(-c3ccc4c(c3)OCO4)ccnc21

>  <score_type>  (30) 
oracle

>  <origin>  (30) 
adg

>  <m_score__min__energy>  (30) 
-9.0700000000000003

>  <m_primary>  (30) 
energy

$$$$
30:0
     RDKit          3D

 42 44  0  0  0  0  0  0  0  0999 V2000
   -2.2370   24.7480  -28.5540 C   0  0  0  0  0  0  0  0  0  0  0  0
   -3.0340   25.2890  -29.6020 O   0  0  0  0  0  0  0  0  0  0  0  0
   -4.1600   24.6550  -30.1480 C   0  0  0  0  0  0  0  0  0  0  0  0
   -5.4660   25.2110  -30.0520 C   0  0  0  0  0  0  0  0  0  0  0  0
   -6.5710   24.5460  -30.6150 C   0  0  0  0  0  0  0  0  0  0  0  0
   -6.3440   23.3350  -31.2610 C   0  0  0  0  0  0  0  0  0  0  0  0
   -7.2270   22.5680  -31.8530 O   0  0  0  0  0  0  0  0  0  0  0  0
   -6.5870   21.5140  -32.3280 C   0  0  0  0  0  0  0  0  0  0  0  0
   -7.2660   20.4270  -33.0490 C   0  0  0  0  0  0  0  0  0  0  0  0
   -6.8650   20.1360  -34.2080 O   0  0  0  0  0  0  0  0  0  0  0  0
   -8.3980   19.7320  -32.4850 N   0  0  0  0  0  0  0  0  0  0  0  0
   -9.6690   20.4490  -32.3520 C   0  0  0  0  0  0  0  0  0  0  0  0
   -8.2570   18.3700  -31.9430 C   0  0  0  0  0  0  0  0  0  0  0  0
   -7.0460   17.6930  -32.5270 C   0  0  0  0  0  0  0  0  0  0  0  0
   -6.1180   17.0500  -31.6920 C   0  0  0  0  0  0  0  0  0  0  0  0
   -5.0210   16.4010  -32.2590 C   0  0  0  0  0  0  0  0  0  0  0  0
   -4.8550   16.3970  -33.6430 C   0  0  0  0  0  0  0  0  0  0  0  0
   -5.7960   17.0470  -34.4460 C   0  0  0  0  0  0  0  0  0  0  0  0
   -6.8640   17.6740  -33.8800 N   0  0  0  0  0  0  0  0  0  0  0  0
   -5.2220   21.6110  -32.0480 C   0  0  0  0  0  0  0  0  0  0  0  0
   -4.1130   20.7030  -32.4840 C   0  0  0  0  0  0  0  0  0  0  0  0
   -5.0910   22.7920  -31.3520 C   0  0  0  0  0  0  0  0  0  0  0  0
   -3.9730   23.4270  -30.8120 C   0  0  0  0  0  0  0  0  0  0  0  0
   -2.6635   25.0375  -27.5822 H   0  0  0  0  0  0  0  0  0  0  0  0
   -2.2202   23.6511  -28.6350 H   0  0  0  0  0  0  0  0  0  0  0  0
   -1.2114   25.1373  -28.6350 H   0  0  0  0  0  0  0  0  0  0  0  0
   -5.6134   26.1695  -29.5329 H   0  0  0  0  0  0  0  0  0  0  0  0
   -7.5834   24.9707  -30.5464 H   0  0  0  0  0  0  0  0  0  0  0  0
   -9.9050   20.5822  -31.2859 H   0  0  0  0  0  0  0  0  0  0  0  0
   -9.5867   21.4338  -32.8351 H   0  0  0  0  0  0  0  0  0  0  0  0
  -10.4693   19.8693  -32.8351 H   0  0  0  0  0  0  0  0  0  0  0  0
   -8.1491   18.4248  -30.8497 H   0  0  0  0  0  0  0  0  0  0  0  0
   -9.1521   17.7876  -32.2069 H   0  0  0  0  0  0  0  0  0  0  0  0
   -6.2548   17.0580  -30.6006 H   0  0  0  0  0  0  0  0  0  0  0  0
   -4.2881   15.8932  -31.6149 H   0  0  0  0  0  0  0  0  0  0  0  0
   -3.9927   15.8878  -34.0981 H   0  0  0  0  0  0  0  0  0  0  0  0
   -5.6735   17.0522  -35.5391 H   0  0  0  0  0  0  0  0  0  0  0  0
   -7.5560   18.1470  -34.5030 H   0  0  0  0  0  0  0  0  0  0  0  0
   -3.6080   20.2896  -31.5985 H   0  0  0  0  0  0  0  0  0  0  0  0
   -4.5273   19.8814  -33.0868 H   0  0  0  0  0  0  0  0  0  0  0  0
   -3.3894   21.2713  -33.0868 H   0  0  0  0  0  0  0  0  0  0  0  0
   -2.9717   22.9807  -30.9022 H   0  0  0  0  0  0  0  0  0  0  0  0
  1  2  1  0
  2  3  1  0
  3  4  2  0
  4  5  1  0
  5  6  2  0
  6  7  1  0
  7  8  1  0
  8  9  1  0
  9 10  2  0
  9 11  1  0
 11 12  1  0
 11 13  1  0
 13 14  1  0
 14 15  2  0
 15 16  1  0
 16 17  2  0
 17 18  1  0
 18 19  2  0
  8 20  2  0
 20 21  1  0
 20 22  1  0
 22 23  2  0
 23  3  1  0
 22  6  1  0
 19 14  1  0
  1 24  1  0
  1 25  1  0
  1 26  1  0
  4 27  1  0
  5 28  1  0
 12 29  1  0
 12 30  1  0
 12 31  1  0
 13 32  1  0
 13 33  1  0
 15 34  1  0
 16 35  1  0
 17 36  1  0
 18 37  1  0
 19 38  1  0
 21 39  1  0
 21 40  1  0
 21 41  1  0
 23 42  1  0
M  CHG  1  19   1
M  END
>  <UniqueID>  (31) 
30

>  <SMILES>  (31) 
COc1ccc2oc(C(=O)N(C)Cc3cccc[nH+]3)c(C)c2c1

>  <Energy>  (31) 
78.339159001013

>  <Genealogy>  (31) 
COc1ccc2oc(C(=O)N(C)Cc3cccc[nH+]3)c(C)c2c1 (protonated)
COc1ccc2oc(C(=O)N(C)Cc3cccc[nH+]3)c(C)c2c1 (3D coordinates assigned)
COc1ccc2oc(C(=O)N(C)Cc3cccc[nH+]3)c(C)c2c1 (optimized conformer: 78.339159001013 kcal/mol)

>  <smiles>  (31) 
COc1ccc2oc(C(=O)N(C)Cc3ccccn3)c(C)c2c1

>  <score_type>  (31) 
oracle

>  <origin>  (31) 
adg

>  <m_score__min__energy>  (31) 
-7.6200000000000001

>  <m_primary>  (31) 
energy

$$$$
31:0
     RDKit          3D

 45 48  0  0  0  0  0  0  0  0999 V2000
    0.4100   26.9860  -26.8490 C   0  0  0  0  0  0  0  0  0  0  0  0
   -0.2890   26.2880  -27.8740 O   0  0  0  0  0  0  0  0  0  0  0  0
   -0.2500   24.8980  -28.0550 C   0  0  0  0  0  0  0  0  0  0  0  0
    0.7220   24.1650  -27.3650 C   0  0  0  0  0  0  0  0  0  0  0  0
    0.8050   22.7790  -27.5180 C   0  0  0  0  0  0  0  0  0  0  0  0
   -0.0870   22.1110  -28.3590 C   0  0  0  0  0  0  0  0  0  0  0  0
   -1.0790   22.8250  -29.0500 C   0  0  0  0  0  0  0  0  0  0  0  0
   -1.9900   22.1300  -29.9190 N   0  0  0  0  0  0  0  0  0  0  0  0
   -1.6580   21.0950  -30.6750 N   0  0  0  0  0  0  0  0  0  0  0  0
   -2.7360   20.6970  -31.3830 C   0  0  0  0  0  0  0  0  0  0  0  0
   -2.6970   19.5520  -32.3460 C   0  0  0  0  0  0  0  0  0  0  0  0
   -3.8240   21.5110  -31.0500 C   0  0  0  0  0  0  0  0  0  0  0  0
   -3.2910   22.4070  -30.1380 C   0  0  0  0  0  0  0  0  0  0  0  0
   -4.0210   23.4590  -29.5010 N   0  0  0  0  0  0  0  0  0  0  0  0
   -4.7110   24.4530  -30.2650 C   0  0  0  0  0  0  0  0  0  0  0  0
   -4.1930   25.5890  -30.4200 O   0  0  0  0  0  0  0  0  0  0  0  0
   -6.0310   24.1330  -30.9230 C   0  0  0  0  0  0  0  0  0  0  0  0
   -5.9130   22.9180  -32.2930 S   0  0  0  0  0  0  0  0  0  0  0  0
   -5.3010   21.4300  -31.3920 C   0  0  1  0  0  0  0  0  0  0  0  0
   -5.6970   20.1420  -32.0880 C   0  0  0  0  0  0  0  0  0  0  0  0
   -5.8960   18.9800  -31.3180 C   0  0  0  0  0  0  0  0  0  0  0  0
   -6.2350   17.7710  -31.9310 C   0  0  0  0  0  0  0  0  0  0  0  0
   -6.3720   17.7030  -33.3190 C   0  0  0  0  0  0  0  0  0  0  0  0
   -6.8280   16.0480  -34.1550 Br  0  0  0  0  0  0  0  0  0  0  0  0
   -6.1660   18.8460  -34.0970 C   0  0  0  0  0  0  0  0  0  0  0  0
   -5.8270   20.0580  -33.4880 C   0  0  0  0  0  0  0  0  0  0  0  0
   -1.1490   24.2220  -28.9030 C   0  0  0  0  0  0  0  0  0  0  0  0
    0.0616   26.6381  -25.8653 H   0  0  0  0  0  0  0  0  0  0  0  0
    1.4889   26.7941  -26.9448 H   0  0  0  0  0  0  0  0  0  0  0  0
    0.2196   28.0652  -26.9448 H   0  0  0  0  0  0  0  0  0  0  0  0
    1.4257   24.6839  -26.6974 H   0  0  0  0  0  0  0  0  0  0  0  0
    1.5753   22.2123  -26.9744 H   0  0  0  0  0  0  0  0  0  0  0  0
   -0.0123   21.0203  -28.4808 H   0  0  0  0  0  0  0  0  0  0  0  0
   -0.7010   20.6750  -30.7250 H   0  0  0  0  0  0  0  0  0  0  0  0
   -2.6647   18.6046  -31.7880 H   0  0  0  0  0  0  0  0  0  0  0  0
   -3.5964   19.5744  -32.9789 H   0  0  0  0  0  0  0  0  0  0  0  0
   -1.8012   19.6355  -32.9789 H   0  0  0  0  0  0  0  0  0  0  0  0
   -6.7081   23.7256  -30.1578 H   0  0  0  0  0  0  0  0  0  0  0  0
   -6.4006   25.0709  -31.3631 H   0  0  0  0  0  0  0  0  0  0  0  0
   -5.8130   21.4151  -30.4185 H   0  0  0  0  0  0  0  0  0  0  0  0
   -5.7836   19.0244  -30.2247 H   0  0  0  0  0  0  0  0  0  0  0  0
   -6.3943   16.8710  -31.3190 H   0  0  0  0  0  0  0  0  0  0  0  0
   -6.2708   18.7917  -35.1906 H   0  0  0  0  0  0  0  0  0  0  0  0
   -5.6606   20.9523  -34.1066 H   0  0  0  0  0  0  0  0  0  0  0  0
   -1.9118   24.7912  -29.4546 H   0  0  0  0  0  0  0  0  0  0  0  0
  1  2  1  0
  2  3  1  0
  3  4  2  0
  4  5  1  0
  5  6  2  0
  6  7  1  0
  7  8  1  0
  8  9  1  0
  9 10  2  0
 10 11  1  0
 10 12  1  0
 12 13  2  0
 13 14  1  0
 14 15  1  0
 15 16  2  0
 15 17  1  0
 17 18  1  0
 18 19  1  0
 19 20  1  0
 20 21  2  0
 21 22  1  0
 22 23  2  0
 23 24  1  0
 23 25  1  0
 25 26  2  0
  7 27  2  0
 27  3  1  0
 13  8  1  0
 26 20  1  0
 19 12  1  0
  1 28  1  0
  1 29  1  0
  1 30  1  0
  4 31  1  0
  5 32  1  0
  6 33  1  0
  9 34  1  0
 11 35  1  0
 11 36  1  0
 11 37  1  0
 17 38  1  0
 17 39  1  0
 19 40  1  1
 21 41  1  0
 22 42  1  0
 25 43  1  0
 26 44  1  0
 27 45  1  0
M  CHG  2   9   1  14  -1
M  END
>  <UniqueID>  (32) 
31

>  <SMILES>  (32) 
COc1cccc(-n2[nH+]c(C)c3c2[N-]C(=O)CS[C@H]3c2ccc(Br)cc2)c1

>  <Energy>  (32) 
95.40896040501333

>  <Genealogy>  (32) 
COc1cccc(-n2[nH+]c(C)c3c2[N-]C(=O)CSC3c2ccc(Br)cc2)c1 (protonated)
COc1cccc(-n2[nH+]c(C)c3c2[N-]C(=O)CS[C@H]3c2ccc(Br)cc2)c1 (chirality)
COc1cccc(-n2[nH+]c(C)c3c2[N-]C(=O)CS[C@H]3c2ccc(Br)cc2)c1 (3D coordinates assigned)
COc1cccc(-n2[nH+]c(C)c3c2[N-]C(=O)CS[C@H]3c2ccc(Br)cc2)c1 (nonaromatic ring conformer: 95.40896040501333 kcal/mol)

>  <smiles>  (32) 
COc1cccc(-n2nc(C)c3c2NC(=O)CSC3c2ccc(Br)cc2)c1

>  <score_type>  (32) 
oracle

>  <origin>  (32) 
adg

>  <m_score__min__energy>  (32) 
-6.9299999999999997

>  <m_primary>  (32) 
energy

$$$$
32:0
     RDKit          3D

 31 32  0  0  0  0  0  0  0  0999 V2000
   -1.5600   25.4040  -29.2960 O   0  0  0  0  0  0  0  0  0  0  0  0
   -2.6420   24.7610  -29.3390 C   0  0  0  0  0  0  0  0  0  0  0  0
   -2.9990   23.8410  -28.2030 C   0  0  0  0  0  0  0  0  0  0  0  0
   -2.2610   24.2150  -26.9960 N   0  0  0  0  0  0  0  0  0  0  0  0
   -2.6650   25.3090  -26.1290 C   0  0  0  0  0  0  0  0  0  0  0  0
   -1.4870   25.6200  -25.1950 C   0  0  0  0  0  0  0  0  0  0  0  0
   -0.4820   24.1080  -24.9660 S   0  0  0  0  0  0  0  0  0  0  0  0
   -1.1060   23.5380  -26.5240 C   0  0  0  0  0  0  0  0  0  0  0  0
   -0.5300   22.6400  -27.1930 O   0  0  0  0  0  0  0  0  0  0  0  0
   -3.5190   24.9590  -30.4560 N   0  0  0  0  0  0  0  0  0  0  0  0
   -4.6530   24.1550  -30.8040 C   0  0  0  0  0  0  0  0  0  0  0  0
   -5.9340   24.6060  -30.4610 C   0  0  0  0  0  0  0  0  0  0  0  0
   -7.0640   23.8620  -30.8090 C   0  0  0  0  0  0  0  0  0  0  0  0
   -6.9280   22.6570  -31.5260 C   0  0  0  0  0  0  0  0  0  0  0  0
   -8.0280   21.8700  -31.8980 O   0  0  0  0  0  0  0  0  0  0  0  0
   -7.9470   20.5240  -32.3570 C   0  0  0  0  0  0  0  0  0  0  0  0
   -9.0770   20.2050  -33.0880 F   0  0  0  0  0  0  0  0  0  0  0  0
   -7.8640   19.6790  -31.2680 F   0  0  0  0  0  0  0  0  0  0  0  0
   -5.6480   22.2230  -31.8920 C   0  0  0  0  0  0  0  0  0  0  0  0
   -4.5180   22.9690  -31.5430 C   0  0  0  0  0  0  0  0  0  0  0  0
   -4.0787   23.9112  -28.0046 H   0  0  0  0  0  0  0  0  0  0  0  0
   -2.7333   22.8102  -28.4801 H   0  0  0  0  0  0  0  0  0  0  0  0
   -2.9093   26.1955  -26.7327 H   0  0  0  0  0  0  0  0  0  0  0  0
   -3.5566   25.0321  -25.5474 H   0  0  0  0  0  0  0  0  0  0  0  0
   -0.8649   26.4111  -25.6390 H   0  0  0  0  0  0  0  0  0  0  0  0
   -1.8686   25.9601  -24.2210 H   0  0  0  0  0  0  0  0  0  0  0  0
   -6.0511   25.5529  -29.9136 H   0  0  0  0  0  0  0  0  0  0  0  0
   -8.0642   24.2186  -30.5219 H   0  0  0  0  0  0  0  0  0  0  0  0
   -7.0571   20.4120  -32.9938 H   0  0  0  0  0  0  0  0  0  0  0  0
   -5.5305   21.2876  -32.4587 H   0  0  0  0  0  0  0  0  0  0  0  0
   -3.5189   22.6251  -31.8488 H   0  0  0  0  0  0  0  0  0  0  0  0
  1  2  2  0
  2  3  1  0
  3  4  1  0
  4  5  1  0
  5  6  1  0
  6  7  1  0
  7  8  1  0
  8  9  2  0
  2 10  1  0
 10 11  1  0
 11 12  2  0
 12 13  1  0
 13 14  2  0
 14 15  1  0
 15 16  1  0
 16 17  1  0
 16 18  1  0
 14 19  1  0
 19 20  2  0
  8  4  1  0
 20 11  1  0
  3 21  1  0
  3 22  1  0
  5 23  1  0
  5 24  1  0
  6 25  1  0
  6 26  1  0
 12 27  1  0
 13 28  1  0
 16 29  1  0
 19 30  1  0
 20 31  1  0
M  CHG  1  10  -1
M  END
>  <UniqueID>  (33) 
32

>  <SMILES>  (33) 
O=C(CN1CCSC1=O)[N-]c1ccc(OC(F)F)cc1

>  <Energy>  (33) 
39.64407954294247

>  <Genealogy>  (33) 
O=C(CN1CCSC1=O)[N-]c1ccc(OC(F)F)cc1 (protonated)
O=C(CN1CCSC1=O)[N-]c1ccc(OC(F)F)cc1 (3D coordinates assigned)
O=C(CN1CCSC1=O)[N-]c1ccc(OC(F)F)cc1 (nonaromatic ring conformer: 39.64407954294247 kcal/mol)

>  <smiles>  (33) 
O=C(CN1CCSC1=O)Nc1ccc(OC(F)F)cc1

>  <score_type>  (33) 
oracle

>  <origin>  (33) 
adg

>  <m_score__min__energy>  (33) 
-7.54

>  <m_primary>  (33) 
energy

$$$$
33:0
     RDKit          3D

 53 56  0  0  0  0  0  0  0  0999 V2000
   -4.1150   21.5610  -27.4780 F   0  0  0  0  0  0  0  0  0  0  0  0
   -3.0760   20.6980  -27.3610 C   0  0  0  0  0  0  0  0  0  0  0  0
   -3.2960   19.4390  -26.7890 C   0  0  0  0  0  0  0  0  0  0  0  0
   -2.2360   18.5420  -26.6330 C   0  0  0  0  0  0  0  0  0  0  0  0
   -0.9510   18.9010  -27.0440 C   0  0  0  0  0  0  0  0  0  0  0  0
   -0.7230   20.1590  -27.6140 C   0  0  0  0  0  0  0  0  0  0  0  0
   -1.7830   21.0680  -27.7770 C   0  0  0  0  0  0  0  0  0  0  0  0
   -1.5430   22.3540  -28.3780 N   0  0  0  0  0  0  0  0  0  0  0  0
   -1.6390   23.5770  -27.5730 C   0  0  0  0  0  0  0  0  0  0  0  0
   -1.9360   24.7920  -28.4670 C   0  0  0  0  0  0  0  0  0  0  0  0
   -2.8890   24.4530  -29.5470 N   0  0  0  0  0  0  0  0  0  0  0  0
   -4.2350   24.1440  -29.0180 C   0  0  0  0  0  0  0  0  0  0  0  0
   -5.1620   23.7670  -30.1300 C   0  0  0  0  0  0  0  0  0  0  0  0
   -6.2810   23.0280  -29.9650 N   0  0  0  0  0  0  0  0  0  0  0  0
   -6.7520   22.9660  -31.2280 C   0  0  0  0  0  0  0  0  0  0  0  0
   -8.0440   22.2950  -31.6070 C   0  0  0  0  0  0  0  0  0  0  0  0
   -7.9150   20.8330  -31.7900 N   0  0  0  0  0  0  0  0  0  0  0  0
   -6.8200   20.4690  -32.7190 C   0  0  0  0  0  0  0  0  0  0  0  0
   -6.8310   18.9670  -33.0800 C   0  0  0  0  0  0  0  0  0  0  0  0
   -7.6270   18.1480  -32.0580 C   0  0  0  0  0  0  0  0  0  0  0  0
   -9.0760   18.6560  -31.9450 C   0  0  0  0  0  0  0  0  0  0  0  0
   -9.1850   20.1770  -32.1540 C   0  0  0  0  0  0  0  0  0  0  0  0
   -5.9540   23.6210  -32.0910 N   0  0  0  0  0  0  0  0  0  0  0  0
   -4.9810   24.1030  -31.3860 O   0  0  0  0  0  0  0  0  0  0  0  0
   -2.3760   23.3920  -30.4580 C   0  0  0  0  0  0  0  0  0  0  0  0
   -1.3120   22.4780  -29.8200 C   0  0  0  0  0  0  0  0  0  0  0  0
   -4.3069   19.1551  -26.4613 H   0  0  0  0  0  0  0  0  0  0  0  0
   -2.4141   17.5527  -26.1862 H   0  0  0  0  0  0  0  0  0  0  0  0
   -0.1169   18.1947  -26.9198 H   0  0  0  0  0  0  0  0  0  0  0  0
    0.2911   20.4379  -27.9362 H   0  0  0  0  0  0  0  0  0  0  0  0
   -2.4489   23.4629  -26.8375 H   0  0  0  0  0  0  0  0  0  0  0  0
   -0.6794   23.7402  -27.0605 H   0  0  0  0  0  0  0  0  0  0  0  0
   -2.3671   25.5933  -27.8489 H   0  0  0  0  0  0  0  0  0  0  0  0
   -0.9927   25.1176  -28.9299 H   0  0  0  0  0  0  0  0  0  0  0  0
   -4.1615   23.3066  -28.3086 H   0  0  0  0  0  0  0  0  0  0  0  0
   -4.6315   25.0366  -28.5119 H   0  0  0  0  0  0  0  0  0  0  0  0
   -8.7809   22.4832  -30.8123 H   0  0  0  0  0  0  0  0  0  0  0  0
   -8.3577   22.7168  -32.5733 H   0  0  0  0  0  0  0  0  0  0  0  0
   -6.9306   21.0555  -33.6430 H   0  0  0  0  0  0  0  0  0  0  0  0
   -5.8663   20.6868  -32.2161 H   0  0  0  0  0  0  0  0  0  0  0  0
   -7.2885   18.8415  -34.0725 H   0  0  0  0  0  0  0  0  0  0  0  0
   -5.7924   18.6046  -33.0781 H   0  0  0  0  0  0  0  0  0  0  0  0
   -7.6397   17.0945  -32.3740 H   0  0  0  0  0  0  0  0  0  0  0  0
   -7.1436   18.2522  -31.0754 H   0  0  0  0  0  0  0  0  0  0  0  0
   -9.6875   18.1505  -32.7069 H   0  0  0  0  0  0  0  0  0  0  0  0
   -9.4305   18.4320  -30.9281 H   0  0  0  0  0  0  0  0  0  0  0  0
   -9.4109   20.3834  -33.2106 H   0  0  0  0  0  0  0  0  0  0  0  0
   -9.9888   20.5707  -31.5145 H   0  0  0  0  0  0  0  0  0  0  0  0
   -6.0780   23.7370  -33.1220 H   0  0  0  0  0  0  0  0  0  0  0  0
   -3.2245   22.7671  -30.7734 H   0  0  0  0  0  0  0  0  0  0  0  0
   -1.8905   23.9046  -31.3015 H   0  0  0  0  0  0  0  0  0  0  0  0
   -1.3657   21.4815  -30.2827 H   0  0  0  0  0  0  0  0  0  0  0  0
   -0.3177   22.9185  -29.9854 H   0  0  0  0  0  0  0  0  0  0  0  0
  1  2  1  0
  2  3  2  0
  3  4  1  0
  4  5  2  0
  5  6  1  0
  6  7  2  0
  7  8  1  0
  8  9  1  0
  9 10  1  0
 10 11  1  0
 11 12  1  0
 12 13  1  0
 13 14  2  0
 14 15  1  0
 15 16  1  0
 16 17  1  0
 17 18  1  0
 18 19  1  0
 19 20  1  0
 20 21  1  0
 21 22  1  0
 15 23  2  0
 23 24  1  0
 11 25  1  0
 25 26  1  0
  7  2  1  0
 26  8  1  0
 24 13  1  0
 22 17  1  0
  3 27  1  0
  4 28  1  0
  5 29  1  0
  6 30  1  0
  9 31  1  0
  9 32  1  0
 10 33  1  0
 10 34  1  0
 12 35  1  0
 12 36  1  0
 16 37  1  0
 16 38  1  0
 18 39  1  0
 18 40  1  0
 19 41  1  0
 19 42  1  0
 20 43  1  0
 20 44  1  0
 21 45  1  0
 21 46  1  0
 22 47  1  0
 22 48  1  0
 23 49  1  0
 25 50  1  0
 25 51  1  0
 26 52  1  0
 26 53  1  0
M  CHG  1  23   1
M  END
>  <UniqueID>  (34) 
33

>  <SMILES>  (34) 
Fc1ccccc1N1CCN(Cc2nc(CN3CCCCC3)[nH+]o2)CC1

>  <Energy>  (34) 
106.47828403480005

>  <Genealogy>  (34) 
Fc1ccccc1N1CCN(Cc2nc(CN3CCCCC3)[nH+]o2)CC1 (protonated)
Fc1ccccc1N1CCN(Cc2nc(CN3CCCCC3)[nH+]o2)CC1 (3D coordinates assigned)
Fc1ccccc1N1CCN(Cc2nc(CN3CCCCC3)[nH+]o2)CC1 (nonaromatic ring conformer: 106.47828403480005 kcal/mol)

>  <smiles>  (34) 
Fc1ccccc1N1CCN(Cc2nc(CN3CCCCC3)no2)CC1

>  <score_type>  (34) 
oracle

>  <origin>  (34) 
adg

>  <m_score__min__energy>  (34) 
-8.6699999999999999

>  <m_primary>  (34) 
energy

$$$$
34:0
     RDKit          3D

 36 38  0  0  0  0  0  0  0  0999 V2000
   -0.9150   25.6860  -28.9300 O   0  0  0  0  0  0  0  0  0  0  0  0
   -1.7270   24.7240  -28.9650 C   0  0  0  0  0  0  0  0  0  0  0  0
   -2.9780   24.9180  -29.6420 N   0  0  0  0  0  0  0  0  0  0  0  0
   -4.0790   23.9660  -29.7470 C   0  0  0  0  0  0  0  0  0  0  0  0
   -5.0550   24.4070  -30.8000 C   0  0  0  0  0  0  0  0  0  0  0  0
   -4.9980   25.5890  -31.2360 O   0  0  0  0  0  0  0  0  0  0  0  0
   -5.9940   23.4760  -31.3750 N   0  0  0  0  0  0  0  0  0  0  0  0
   -7.4130   23.6380  -31.0120 C   0  0  0  0  0  0  0  0  0  0  0  0
   -8.3260   22.8100  -31.9170 C   0  0  0  0  0  0  0  0  0  0  0  0
   -7.8910   21.3470  -31.9070 C   0  0  0  0  0  0  0  0  0  0  0  0
   -6.4490   21.2240  -32.3180 C   0  0  0  0  0  0  0  0  0  0  0  0
   -6.0050   20.0480  -32.9440 C   0  0  0  0  0  0  0  0  0  0  0  0
   -4.6740   19.9200  -33.3390 C   0  0  0  0  0  0  0  0  0  0  0  0
   -3.7750   20.9620  -33.1150 C   0  0  0  0  0  0  0  0  0  0  0  0
   -4.1990   22.1290  -32.4740 C   0  0  0  0  0  0  0  0  0  0  0  0
   -5.5350   22.2670  -32.0370 C   0  0  0  0  0  0  0  0  0  0  0  0
   -1.3270   23.4470  -28.3440 C   0  0  0  0  0  0  0  0  0  0  0  0
   -1.1600   22.2150  -28.9690 C   0  0  0  0  0  0  0  0  0  0  0  0
   -0.8450   21.1770  -28.0830 C   0  0  0  0  0  0  0  0  0  0  0  0
   -0.7780   21.5780  -26.7550 C   0  0  0  0  0  0  0  0  0  0  0  0
   -1.1180   23.2220  -26.6890 S   0  0  0  0  0  0  0  0  0  0  0  0
   -3.6786   22.9772  -30.0154 H   0  0  0  0  0  0  0  0  0  0  0  0
   -4.5986   23.9138  -28.7789 H   0  0  0  0  0  0  0  0  0  0  0  0
   -7.5539   23.3134  -29.9705 H   0  0  0  0  0  0  0  0  0  0  0  0
   -7.6794   24.6983  -31.1337 H   0  0  0  0  0  0  0  0  0  0  0  0
   -9.3617   22.8837  -31.5537 H   0  0  0  0  0  0  0  0  0  0  0  0
   -8.2602   23.1972  -32.9445 H   0  0  0  0  0  0  0  0  0  0  0  0
   -8.0145   20.9394  -30.8928 H   0  0  0  0  0  0  0  0  0  0  0  0
   -8.5134   20.7856  -32.6193 H   0  0  0  0  0  0  0  0  0  0  0  0
   -6.7108   19.2237  -33.1236 H   0  0  0  0  0  0  0  0  0  0  0  0
   -4.3327   18.9957  -33.8280 H   0  0  0  0  0  0  0  0  0  0  0  0
   -2.7297   20.8652  -33.4436 H   0  0  0  0  0  0  0  0  0  0  0  0
   -3.4847   22.9489  -32.3080 H   0  0  0  0  0  0  0  0  0  0  0  0
   -1.2652   22.0703  -30.0543 H   0  0  0  0  0  0  0  0  0  0  0  0
   -0.6673   20.1414  -28.4084 H   0  0  0  0  0  0  0  0  0  0  0  0
   -0.5433   20.9319  -25.8962 H   0  0  0  0  0  0  0  0  0  0  0  0
  1  2  2  0
  2  3  1  0
  3  4  1  0
  4  5  1  0
  5  6  2  0
  5  7  1  0
  7  8  1  0
  8  9  1  0
  9 10  1  0
 10 11  1  0
 11 12  2  0
 12 13  1  0
 13 14  2  0
 14 15  1  0
 15 16  2  0
  2 17  1  0
 17 18  2  0
 18 19  1  0
 19 20  2  0
 20 21  1  0
 16  7  1  0
 21 17  1  0
 16 11  1  0
  4 22  1  0
  4 23  1  0
  8 24  1  0
  8 25  1  0
  9 26  1  0
  9 27  1  0
 10 28  1  0
 10 29  1  0
 12 30  1  0
 13 31  1  0
 14 32  1  0
 15 33  1  0
 18 34  1  0
 19 35  1  0
 20 36  1  0
M  CHG  1   3  -1
M  END
>  <UniqueID>  (35) 
34

>  <SMILES>  (35) 
O=C([N-]CC(=O)N1CCCc2ccccc21)c1cccs1

>  <Energy>  (35) 
72.00736517293754

>  <Genealogy>  (35) 
O=C([N-]CC(=O)N1CCCc2ccccc21)c1cccs1 (protonated)
O=C([N-]CC(=O)N1CCCc2ccccc21)c1cccs1 (3D coordinates assigned)
O=C([N-]CC(=O)N1CCCc2ccccc21)c1cccs1 (nonaromatic ring conformer: 72.00736517293754 kcal/mol)

>  <smiles>  (35) 
O=C(NCC(=O)N1CCCc2ccccc21)c1cccs1

>  <score_type>  (35) 
oracle

>  <origin>  (35) 
adg

>  <m_score__min__energy>  (35) 
-10.199999999999999

>  <m_primary>  (35) 
energy

$$$$
35:0
     RDKit          3D

 38 40  0  0  0  0  0  0  0  0999 V2000
   -1.6780   25.0660  -28.1220 C   0  0  0  0  0  0  0  0  0  0  0  0
   -2.3800   25.2960  -29.3390 O   0  0  0  0  0  0  0  0  0  0  0  0
   -3.3690   24.4450  -29.8550 C   0  0  0  0  0  0  0  0  0  0  0  0
   -3.1300   23.0850  -30.1250 C   0  0  0  0  0  0  0  0  0  0  0  0
   -4.1490   22.2770  -30.6380 C   0  0  0  0  0  0  0  0  0  0  0  0
   -5.4290   22.8070  -30.8840 C   0  0  0  0  0  0  0  0  0  0  0  0
   -6.5240   21.9690  -31.4360 C   0  0  0  0  0  0  0  0  0  0  0  0
   -7.8580   22.3960  -31.4380 C   0  0  0  0  0  0  0  0  0  0  0  0
   -8.8360   21.5720  -31.9850 C   0  0  0  0  0  0  0  0  0  0  0  0
   -8.4730   20.3390  -32.5230 C   0  0  0  0  0  0  0  0  0  0  0  0
   -9.3580   19.6120  -33.0520 O   0  0  0  0  0  0  0  0  0  0  0  0
   -7.1600   19.9470  -32.4930 N   0  0  0  0  0  0  0  0  0  0  0  0
   -6.7330   18.6820  -33.0340 C   0  0  0  0  0  0  0  0  0  0  0  0
   -7.5840   17.5670  -32.9570 C   0  0  0  0  0  0  0  0  0  0  0  0
   -7.1840   16.3370  -33.4840 C   0  0  0  0  0  0  0  0  0  0  0  0
   -5.9420   16.2110  -34.1100 C   0  0  0  0  0  0  0  0  0  0  0  0
   -5.0940   17.3250  -34.2390 C   0  0  0  0  0  0  0  0  0  0  0  0
   -3.7380   17.1850  -34.8840 C   0  0  0  0  0  0  0  0  0  0  0  0
   -3.8640   16.7780  -36.2010 F   0  0  0  0  0  0  0  0  0  0  0  0
   -2.9710   16.2470  -34.2140 F   0  0  0  0  0  0  0  0  0  0  0  0
   -3.0900   18.4040  -34.8480 F   0  0  0  0  0  0  0  0  0  0  0  0
   -5.4920   18.5540  -33.6830 C   0  0  0  0  0  0  0  0  0  0  0  0
   -6.2290   20.7540  -31.9760 N   0  0  0  0  0  0  0  0  0  0  0  0
   -5.6560   24.1700  -30.6220 C   0  0  0  0  0  0  0  0  0  0  0  0
   -4.6370   24.9760  -30.1100 C   0  0  0  0  0  0  0  0  0  0  0  0
   -2.3397   25.2828  -27.2704 H   0  0  0  0  0  0  0  0  0  0  0  0
   -1.3556   24.0152  -28.0776 H   0  0  0  0  0  0  0  0  0  0  0  0
   -0.7963   25.7223  -28.0776 H   0  0  0  0  0  0  0  0  0  0  0  0
   -2.1361   22.6552  -29.9314 H   0  0  0  0  0  0  0  0  0  0  0  0
   -3.9482   21.2167  -30.8514 H   0  0  0  0  0  0  0  0  0  0  0  0
   -8.1294   23.3729  -31.0114 H   0  0  0  0  0  0  0  0  0  0  0  0
   -9.8886   21.8915  -31.9928 H   0  0  0  0  0  0  0  0  0  0  0  0
   -8.5702   17.6631  -32.4793 H   0  0  0  0  0  0  0  0  0  0  0  0
   -7.8494   15.4646  -33.4057 H   0  0  0  0  0  0  0  0  0  0  0  0
   -5.6253   15.2343  -34.5045 H   0  0  0  0  0  0  0  0  0  0  0  0
   -4.8247   19.4254  -33.7566 H   0  0  0  0  0  0  0  0  0  0  0  0
   -6.6460   24.6055  -30.8224 H   0  0  0  0  0  0  0  0  0  0  0  0
   -4.8338   26.0387  -29.9054 H   0  0  0  0  0  0  0  0  0  0  0  0
  1  2  1  0
  2  3  1  0
  3  4  2  0
  4  5  1  0
  5  6  2  0
  6  7  1  0
  7  8  1  0
  8  9  2  0
  9 10  1  0
 10 11  2  0
 10 12  1  0
 12 13  1  0
 13 14  2  0
 14 15  1  0
 15 16  2  0
 16 17  1  0
 17 18  1  0
 18 19  1  0
 18 20  1  0
 18 21  1  0
 17 22  2  0
 12 23  1  0
  6 24  1  0
 24 25  2  0
 25  3  1  0
 23  7  2  0
 22 13  1  0
  1 26  1  0
  1 27  1  0
  1 28  1  0
  4 29  1  0
  5 30  1  0
  8 31  1  0
  9 32  1  0
 14 33  1  0
 15 34  1  0
 16 35  1  0
 22 36  1  0
 24 37  1  0
 25 38  1  0
M  END
>  <UniqueID>  (36) 
35

>  <SMILES>  (36) 
COc1ccc(-c2ccc(=O)n(-c3cccc(C(F)(F)F)c3)n2)cc1

>  <Energy>  (36) 
52.27394578190775

>  <Genealogy>  (36) 
COc1ccc(-c2ccc(=O)n(-c3cccc(C(F)(F)F)c3)n2)cc1 (3D coordinates assigned)
COc1ccc(-c2ccc(=O)n(-c3cccc(C(F)(F)F)c3)n2)cc1 (optimized conformer: 52.27394578190775 kcal/mol)

>  <smiles>  (36) 
COc1ccc(-c2ccc(=O)n(-c3cccc(C(F)(F)F)c3)n2)cc1

>  <score_type>  (36) 
oracle

>  <origin>  (36) 
adg

>  <m_score__min__energy>  (36) 
-8.4900000000000002

>  <m_primary>  (36) 
energy

$$$$
36:0
     RDKit          3D

 42 44  0  0  0  0  0  0  0  0999 V2000
   -4.6770   23.8270  -29.3840 C   0  0  0  0  0  0  0  0  0  0  0  0
   -4.7680   23.0760  -30.6370 N   0  0  0  0  0  0  0  0  0  0  0  0
   -5.8490   22.9520  -31.4570 C   0  0  0  0  0  0  0  0  0  0  0  0
   -7.1970   23.5690  -31.1960 C   0  0  0  0  0  0  0  0  0  0  0  0
   -8.1690   23.1460  -32.2130 N   0  0  0  0  0  0  0  0  0  0  0  0
   -9.2280   22.2880  -31.6540 C   0  0  0  0  0  0  0  0  0  0  0  0
   -9.1470   20.8990  -32.2960 C   0  0  0  0  0  0  0  0  0  0  0  0
   -8.3720   19.8960  -31.4300 C   0  0  0  0  0  0  0  0  0  0  0  0
   -7.3630   19.1240  -32.2420 C   0  0  0  0  0  0  0  0  0  0  0  0
   -6.8780   19.6390  -33.4560 C   0  0  0  0  0  0  0  0  0  0  0  0
   -5.9190   18.9320  -34.1890 C   0  0  0  0  0  0  0  0  0  0  0  0
   -5.4430   17.7060  -33.7180 C   0  0  0  0  0  0  0  0  0  0  0  0
   -5.9180   17.1870  -32.5110 C   0  0  0  0  0  0  0  0  0  0  0  0
   -6.8690   17.8950  -31.7710 C   0  0  0  0  0  0  0  0  0  0  0  0
   -5.5910   22.2350  -32.5820 N   0  0  0  0  0  0  0  0  0  0  0  0
   -4.2900   21.9190  -32.4510 C   0  0  0  0  0  0  0  0  0  0  0  0
   -3.5000   21.2040  -33.3480 C   0  0  0  0  0  0  0  0  0  0  0  0
   -2.1470   21.0070  -33.0170 C   0  0  0  0  0  0  0  0  0  0  0  0
   -1.6240   21.5250  -31.8110 C   0  0  0  0  0  0  0  0  0  0  0  0
   -2.4480   22.2460  -30.9270 C   0  0  0  0  0  0  0  0  0  0  0  0
   -3.7880   22.4240  -31.2860 C   0  0  0  0  0  0  0  0  0  0  0  0
   -4.7610   23.1338  -28.5341 H   0  0  0  0  0  0  0  0  0  0  0  0
   -3.7092   24.3478  -29.3381 H   0  0  0  0  0  0  0  0  0  0  0  0
   -5.4924   24.5639  -29.3381 H   0  0  0  0  0  0  0  0  0  0  0  0
   -7.5523   23.2534  -30.2040 H   0  0  0  0  0  0  0  0  0  0  0  0
   -7.0979   24.6638  -31.2362 H   0  0  0  0  0  0  0  0  0  0  0  0
   -7.6470   22.5990  -32.9390 H   0  0  0  0  0  0  0  0  0  0  0  0
   -9.0921   22.1983  -30.5661 H   0  0  0  0  0  0  0  0  0  0  0  0
  -10.2117   22.7336  -31.8634 H   0  0  0  0  0  0  0  0  0  0  0  0
  -10.1685   20.5198  -32.4466 H   0  0  0  0  0  0  0  0  0  0  0  0
   -8.6095   21.0024  -33.2502 H   0  0  0  0  0  0  0  0  0  0  0  0
   -7.8459   20.4435  -30.6341 H   0  0  0  0  0  0  0  0  0  0  0  0
   -9.0915   19.1804  -31.0055 H   0  0  0  0  0  0  0  0  0  0  0  0
   -7.2540   20.6021  -33.8316 H   0  0  0  0  0  0  0  0  0  0  0  0
   -5.5395   19.3416  -35.1367 H   0  0  0  0  0  0  0  0  0  0  0  0
   -4.6931   17.1484  -34.2983 H   0  0  0  0  0  0  0  0  0  0  0  0
   -5.5433   16.2205  -32.1429 H   0  0  0  0  0  0  0  0  0  0  0  0
   -7.2326   17.4887  -30.8156 H   0  0  0  0  0  0  0  0  0  0  0  0
   -3.9200   20.8067  -34.2838 H   0  0  0  0  0  0  0  0  0  0  0  0
   -1.4926   20.4466  -33.7009 H   0  0  0  0  0  0  0  0  0  0  0  0
   -0.5650   21.3635  -31.5613 H   0  0  0  0  0  0  0  0  0  0  0  0
   -2.0519   22.6555  -29.9861 H   0  0  0  0  0  0  0  0  0  0  0  0
  1  2  1  0
  2  3  1  0
  3  4  1  0
  4  5  1  0
  5  6  1  0
  6  7  1  0
  7  8  1  0
  8  9  1  0
  9 10  2  0
 10 11  1  0
 11 12  2  0
 12 13  1  0
 13 14  2  0
  3 15  2  0
 15 16  1  0
 16 17  2  0
 17 18  1  0
 18 19  2  0
 19 20  1  0
 20 21  2  0
 21  2  1  0
 14  9  1  0
 21 16  1  0
  1 22  1  0
  1 23  1  0
  1 24  1  0
  4 25  1  0
  4 26  1  0
  5 27  1  0
  6 28  1  0
  6 29  1  0
  7 30  1  0
  7 31  1  0
  8 32  1  0
  8 33  1  0
 10 34  1  0
 11 35  1  0
 12 36  1  0
 13 37  1  0
 14 38  1  0
 17 39  1  0
 18 40  1  0
 19 41  1  0
 20 42  1  0
M  END
>  <UniqueID>  (37) 
36

>  <SMILES>  (37) 
Cn1c(CNCCCc2ccccc2)nc2ccccc21

>  <Energy>  (37) 
72.90048763296285

>  <Genealogy>  (37) 
Cn1c(CNCCCc2ccccc2)nc2ccccc21 (3D coordinates assigned)
Cn1c(CNCCCc2ccccc2)nc2ccccc21 (optimized conformer: 72.90048763296285 kcal/mol)

>  <smiles>  (37) 
Cn1c(CNCCCc2ccccc2)nc2ccccc21

>  <score_type>  (37) 
oracle

>  <origin>  (37) 
adg

>  <m_score__min__energy>  (37) 
-8.3699999999999992

>  <m_primary>  (37) 
energy

$$$$
37:0
     RDKit          3D

 52 53  0  0  1  0  0  0  0  0999 V2000
   -9.3030   21.5660  -30.6300 C   0  0  0  0  0  0  0  0  0  0  0  0
   -9.0040   22.3130  -31.9700 C   0  0  0  0  0  0  0  0  0  0  0  0
   -8.1200   23.4540  -31.6560 C   0  0  0  0  0  0  0  0  0  0  0  0
   -6.6600   23.3080  -31.6700 C   0  0  0  0  0  0  0  0  0  0  0  0
   -5.7250   24.3500  -31.2620 C   0  0  0  0  0  0  0  0  0  0  0  0
   -4.9850   24.2170  -29.9450 C   0  0  0  0  0  0  0  0  0  0  0  0
   -3.6150   23.8830  -30.4310 N   0  0  0  0  0  0  0  0  0  0  0  0
   -2.5740   24.0550  -29.7200 C   0  0  0  0  0  0  0  0  0  0  0  0
   -2.3520   25.2600  -29.1930 N   0  0  0  0  0  0  0  0  0  0  0  0
   -1.2590   25.5160  -28.4580 C   0  0  0  0  0  0  0  0  0  0  0  0
   -0.3670   24.5150  -28.2540 N   0  0  0  0  0  0  0  0  0  0  0  0
   -0.5740   23.2960  -28.7750 C   0  0  0  0  0  0  0  0  0  0  0  0
   -1.7110   23.0050  -29.5460 C   0  0  0  0  0  0  0  0  0  0  0  0
   -1.8720   21.3840  -30.1720 S   0  0  0  0  0  0  0  0  0  0  0  0
   -1.4400   21.1730  -31.9120 C   0  0  0  0  0  0  0  0  0  0  0  0
   -2.5160   21.5170  -32.8790 C   0  0  0  0  0  0  0  0  0  0  0  0
   -3.8480   21.4450  -32.3160 N   0  0  0  0  0  0  0  0  0  0  0  0
   -4.8610   21.1120  -33.2670 C   0  0  0  0  0  0  0  0  0  0  0  0
   -5.8190   20.0870  -32.7680 C   0  0  0  0  0  0  0  0  0  0  0  0
   -7.1560   20.0820  -33.1650 C   0  0  0  0  0  0  0  0  0  0  0  0
   -8.0070   19.0940  -32.6660 C   0  0  0  0  0  0  0  0  0  0  0  0
   -7.5350   18.1300  -31.7860 C   0  0  0  0  0  0  0  0  0  0  0  0
   -6.2060   18.1360  -31.3920 C   0  0  0  0  0  0  0  0  0  0  0  0
   -5.3420   19.1120  -31.8790 C   0  0  0  0  0  0  0  0  0  0  0  0
   -9.0427   22.2162  -29.7818 H   0  0  0  0  0  0  0  0  0  0  0  0
  -10.3722   21.3118  -30.5826 H   0  0  0  0  0  0  0  0  0  0  0  0
   -8.7045   20.6443  -30.5826 H   0  0  0  0  0  0  0  0  0  0  0  0
   -8.5033   21.6332  -32.6751 H   0  0  0  0  0  0  0  0  0  0  0  0
   -9.9376   22.6632  -32.4344 H   0  0  0  0  0  0  0  0  0  0  0  0
   -8.3617   24.2450  -32.3812 H   0  0  0  0  0  0  0  0  0  0  0  0
   -8.3333   23.6384  -30.5928 H   0  0  0  0  0  0  0  0  0  0  0  0
   -6.4422   22.4447  -31.0240 H   0  0  0  0  0  0  0  0  0  0  0  0
   -6.4676   23.2719  -32.7524 H   0  0  0  0  0  0  0  0  0  0  0  0
   -4.9623   24.4221  -32.0514 H   0  0  0  0  0  0  0  0  0  0  0  0
   -6.3690   25.2284  -31.1082 H   0  0  0  0  0  0  0  0  0  0  0  0
   -4.9953   25.1591  -29.3772 H   0  0  0  0  0  0  0  0  0  0  0  0
   -5.4159   23.4801  -29.2512 H   0  0  0  0  0  0  0  0  0  0  0  0
   -3.0310   26.0460  -29.3400 H   0  0  0  0  0  0  0  0  0  0  0  0
   -1.0902   26.5154  -28.0305 H   0  0  0  0  0  0  0  0  0  0  0  0
    0.1668   22.5034  -28.5933 H   0  0  0  0  0  0  0  0  0  0  0  0
   -0.5720   21.8136  -32.1270 H   0  0  0  0  0  0  0  0  0  0  0  0
   -1.2396   20.1000  -32.0482 H   0  0  0  0  0  0  0  0  0  0  0  0
   -2.3455   22.5427  -33.2381 H   0  0  0  0  0  0  0  0  0  0  0  0
   -2.4689   20.7756  -33.6902 H   0  0  0  0  0  0  0  0  0  0  0  0
   -4.1280   22.2860  -31.8050 H   0  0  0  0  0  0  0  0  0  0  0  0
   -5.4228   22.0250  -33.5137 H   0  0  0  0  0  0  0  0  0  0  0  0
   -4.3564   20.6871  -34.1473 H   0  0  0  0  0  0  0  0  0  0  0  0
   -7.5344   20.8452  -33.8610 H   0  0  0  0  0  0  0  0  0  0  0  0
   -9.0630   19.0794  -32.9736 H   0  0  0  0  0  0  0  0  0  0  0  0
   -8.2178   17.3587  -31.4000 H   0  0  0  0  0  0  0  0  0  0  0  0
   -5.8348   17.3701  -30.6952 H   0  0  0  0  0  0  0  0  0  0  0  0
   -4.2870   19.1191  -31.5676 H   0  0  0  0  0  0  0  0  0  0  0  0
  1  2  1  0
  2  3  1  0
  3  4  1  0
  4  5  1  0
  5  6  1  0
  6  7  1  0
  7  8  2  0
  8  9  1  0
  9 10  1  0
 10 11  2  0
 11 12  1  0
 12 13  2  0
 13 14  1  0
 14 15  1  0
 15 16  1  0
 16 17  1  0
 17 18  1  0
 18 19  1  0
 19 20  2  0
 20 21  1  0
 21 22  2  0
 22 23  1  0
 23 24  2  0
 13  8  1  0
 24 19  1  0
  1 25  1  0
  1 26  1  0
  1 27  1  0
  2 28  1  0
  2 29  1  0
  3 30  1  0
  3 31  1  0
  4 32  1  0
  4 33  1  0
  5 34  1  0
  5 35  1  0
  6 36  1  0
  6 37  1  0
  9 38  1  0
 10 39  1  0
 12 40  1  0
 15 41  1  0
 15 42  1  0
 16 43  1  0
 16 44  1  0
 17 45  1  0
 18 46  1  0
 18 47  1  0
 20 48  1  0
 21 49  1  0
 22 50  1  0
 23 51  1  0
 24 52  1  0
M  END
>  <smiles>  (38) 
CCCCCCN=c1[nH]cncc1SCCNCc1ccccc1

>  <score_type>  (38) 
oracle

>  <origin>  (38) 
adg

>  <m_score__min__energy>  (38) 
-8.0199999999999996

>  <m_primary>  (38) 
energy

$$$$
38:0
     RDKit          3D

 42 43  0  0  0  0  0  0  0  0999 V2000
   -8.7000   19.6340  -32.3200 C   0  0  0  0  0  0  0  0  0  0  0  0
   -7.8030   20.8190  -32.1050 C   0  0  0  0  0  0  0  0  0  0  0  0
   -6.4440   20.7560  -32.4520 C   0  0  0  0  0  0  0  0  0  0  0  0
   -5.6150   21.8660  -32.2670 C   0  0  0  0  0  0  0  0  0  0  0  0
   -6.1400   23.0640  -31.7510 C   0  0  0  0  0  0  0  0  0  0  0  0
   -5.3210   24.2180  -31.5180 N   0  0  0  0  0  0  0  0  0  0  0  0
   -4.4000   24.4160  -30.4390 C   0  0  0  0  0  0  0  0  0  0  0  0
   -3.5000   25.2940  -30.5060 O   0  0  0  0  0  0  0  0  0  0  0  0
   -4.5220   23.5690  -29.2110 C   0  0  0  0  0  0  0  0  0  0  0  0
   -3.5220   24.0360  -28.1310 C   0  0  0  0  0  0  0  0  0  0  0  0
   -2.1370   23.5440  -28.3110 N   0  0  0  0  0  0  0  0  0  0  0  0
   -1.9040   22.8030  -29.5590 C   0  0  0  0  0  0  0  0  0  0  0  0
   -0.9420   24.8010  -28.0780 S   0  0  0  0  0  0  0  0  0  0  0  0
    0.4130   24.2520  -28.4260 O   0  0  0  0  0  0  0  0  0  0  0  0
   -1.2260   25.9520  -29.0030 O   0  0  0  0  0  0  0  0  0  0  0  0
   -0.9100   25.3960  -26.4170 C   0  0  0  0  0  0  0  0  0  0  0  0
   -0.5590   24.5370  -25.3670 C   0  0  0  0  0  0  0  0  0  0  0  0
   -0.5040   25.0190  -24.0550 C   0  0  0  0  0  0  0  0  0  0  0  0
   -0.8010   26.3580  -23.7880 C   0  0  0  0  0  0  0  0  0  0  0  0
   -1.1550   27.2180  -24.8300 C   0  0  0  0  0  0  0  0  0  0  0  0
   -1.2110   26.7400  -26.1430 C   0  0  0  0  0  0  0  0  0  0  0  0
   -7.4930   23.1210  -31.3920 C   0  0  0  0  0  0  0  0  0  0  0  0
   -8.3240   22.0120  -31.5770 C   0  0  0  0  0  0  0  0  0  0  0  0
   -9.6360   22.1000  -31.2390 F   0  0  0  0  0  0  0  0  0  0  0  0
   -9.0086   19.2263  -31.3461 H   0  0  0  0  0  0  0  0  0  0  0  0
   -9.5903   19.9459  -32.8857 H   0  0  0  0  0  0  0  0  0  0  0  0
   -8.1581   18.8618  -32.8857 H   0  0  0  0  0  0  0  0  0  0  0  0
   -6.0293   19.8277  -32.8719 H   0  0  0  0  0  0  0  0  0  0  0  0
   -4.5478   21.8021  -32.5260 H   0  0  0  0  0  0  0  0  0  0  0  0
   -5.5454   23.6494  -28.8159 H   0  0  0  0  0  0  0  0  0  0  0  0
   -4.2987   22.5248  -29.4752 H   0  0  0  0  0  0  0  0  0  0  0  0
   -3.4981   25.1357  -28.1398 H   0  0  0  0  0  0  0  0  0  0  0  0
   -3.8777   23.6165  -27.1784 H   0  0  0  0  0  0  0  0  0  0  0  0
   -1.5818   21.7782  -29.3223 H   0  0  0  0  0  0  0  0  0  0  0  0
   -2.8347   22.7687  -30.1443 H   0  0  0  0  0  0  0  0  0  0  0  0
   -1.1211   23.3075  -30.1443 H   0  0  0  0  0  0  0  0  0  0  0  0
   -0.3264   23.4821  -25.5748 H   0  0  0  0  0  0  0  0  0  0  0  0
   -0.2266   24.3432  -23.2326 H   0  0  0  0  0  0  0  0  0  0  0  0
   -0.7559   26.7353  -22.7557 H   0  0  0  0  0  0  0  0  0  0  0  0
   -1.3898   28.2715  -24.6178 H   0  0  0  0  0  0  0  0  0  0  0  0
   -1.4913   27.4180  -26.9626 H   0  0  0  0  0  0  0  0  0  0  0  0
   -7.9048   24.0456  -30.9612 H   0  0  0  0  0  0  0  0  0  0  0  0
  1  2  1  0
  2  3  2  0
  3  4  1  0
  4  5  2  0
  5  6  1  0
  6  7  1  0
  7  8  2  0
  7  9  1  0
  9 10  1  0
 10 11  1  0
 11 12  1  0
 11 13  1  0
 13 14  2  0
 13 15  2  0
 13 16  1  0
 16 17  2  0
 17 18  1  0
 18 19  2  0
 19 20  1  0
 20 21  2  0
  5 22  1  0
 22 23  2  0
 23 24  1  0
 23  2  1  0
 21 16  1  0
  1 25  1  0
  1 26  1  0
  1 27  1  0
  3 28  1  0
  4 29  1  0
  9 30  1  0
  9 31  1  0
 10 32  1  0
 10 33  1  0
 12 34  1  0
 12 35  1  0
 12 36  1  0
 17 37  1  0
 18 38  1  0
 19 39  1  0
 20 40  1  0
 21 41  1  0
 22 42  1  0
M  CHG  1   6  -1
M  END
>  <UniqueID>  (39) 
37

>  <SMILES>  (39) 
Cc1ccc([N-]C(=O)CCN(C)S(=O)(=O)c2ccccc2)cc1F

>  <Energy>  (39) 
44.69479413159641

>  <Genealogy>  (39) 
Cc1ccc([N-]C(=O)CCN(C)S(=O)(=O)c2ccccc2)cc1F (protonated)
Cc1ccc([N-]C(=O)CCN(C)S(=O)(=O)c2ccccc2)cc1F (3D coordinates assigned)
Cc1ccc([N-]C(=O)CCN(C)S(=O)(=O)c2ccccc2)cc1F (optimized conformer: 44.69479413159641 kcal/mol)

>  <smiles>  (39) 
Cc1ccc(NC(=O)CCN(C)S(=O)(=O)c2ccccc2)cc1F

>  <score_type>  (39) 
oracle

>  <origin>  (39) 
adg

>  <m_score__min__energy>  (39) 
-10.73

>  <m_primary>  (39) 
energy

$$$$
39:0
     RDKit          3D

 48 50  0  0  0  0  0  0  0  0999 V2000
   -3.6130   19.6060  -33.5000 C   0  0  0  0  0  0  0  0  0  0  0  0
   -4.7960   20.1050  -32.8870 O   0  0  0  0  0  0  0  0  0  0  0  0
   -5.9690   19.3560  -32.6940 C   0  0  0  0  0  0  0  0  0  0  0  0
   -6.0530   17.9950  -33.0510 C   0  0  0  0  0  0  0  0  0  0  0  0
   -7.2450   17.2910  -32.8690 C   0  0  0  0  0  0  0  0  0  0  0  0
   -8.3630   17.9330  -32.3350 C   0  0  0  0  0  0  0  0  0  0  0  0
   -8.2920   19.2790  -31.9740 C   0  0  0  0  0  0  0  0  0  0  0  0
   -7.0960   19.9940  -32.1410 C   0  0  0  0  0  0  0  0  0  0  0  0
   -7.0290   21.3790  -31.7640 N   0  0  0  0  0  0  0  0  0  0  0  0
   -7.6760   21.8420  -30.5310 C   0  0  0  0  0  0  0  0  0  0  0  0
   -6.7850   22.8500  -29.7730 C   0  0  0  0  0  0  0  0  0  0  0  0
   -5.6240   23.3080  -30.5690 N   0  0  0  0  0  0  0  0  0  0  0  0
   -4.8450   24.6820  -29.8030 S   0  0  0  0  0  0  0  0  0  0  0  0
   -4.3400   25.6610  -30.8270 O   0  0  0  0  0  0  0  0  0  0  0  0
   -5.8090   25.4080  -28.9030 O   0  0  0  0  0  0  0  0  0  0  0  0
   -3.4860   24.1050  -28.8300 C   0  0  0  0  0  0  0  0  0  0  0  0
   -3.3300   24.5770  -27.5150 C   0  0  0  0  0  0  0  0  0  0  0  0
   -2.2780   24.1180  -26.7210 C   0  0  0  0  0  0  0  0  0  0  0  0
   -1.3760   23.1800  -27.2290 C   0  0  0  0  0  0  0  0  0  0  0  0
   -1.5250   22.6950  -28.5300 C   0  0  0  0  0  0  0  0  0  0  0  0
   -2.5820   23.1500  -29.3440 C   0  0  0  0  0  0  0  0  0  0  0  0
   -2.7600   22.6770  -30.6540 O   0  0  0  0  0  0  0  0  0  0  0  0
   -2.0170   21.6110  -31.2400 C   0  0  0  0  0  0  0  0  0  0  0  0
   -6.0340   23.6350  -31.9510 C   0  0  0  0  0  0  0  0  0  0  0  0
   -6.4570   22.3600  -32.6950 C   0  0  0  0  0  0  0  0  0  0  0  0
   -2.8964   19.3037  -32.7221 H   0  0  0  0  0  0  0  0  0  0  0  0
   -3.8630   18.7367  -34.1259 H   0  0  0  0  0  0  0  0  0  0  0  0
   -3.1649   20.3918  -34.1259 H   0  0  0  0  0  0  0  0  0  0  0  0
   -5.1754   17.4851  -33.4750 H   0  0  0  0  0  0  0  0  0  0  0  0
   -7.3029   16.2283  -33.1471 H   0  0  0  0  0  0  0  0  0  0  0  0
   -9.3022   17.3769  -32.1984 H   0  0  0  0  0  0  0  0  0  0  0  0
   -9.1770   19.7817  -31.5568 H   0  0  0  0  0  0  0  0  0  0  0  0
   -8.6288   22.3283  -30.7874 H   0  0  0  0  0  0  0  0  0  0  0  0
   -7.8455   20.9714  -29.8804 H   0  0  0  0  0  0  0  0  0  0  0  0
   -7.3949   23.7258  -29.5066 H   0  0  0  0  0  0  0  0  0  0  0  0
   -6.3920   22.3373  -28.8827 H   0  0  0  0  0  0  0  0  0  0  0  0
   -4.9160   22.5350  -30.6000 H   0  0  0  0  0  0  0  0  0  0  0  0
   -4.0409   25.3121  -27.1097 H   0  0  0  0  0  0  0  0  0  0  0  0
   -2.1590   24.4951  -25.6945 H   0  0  0  0  0  0  0  0  0  0  0  0
   -0.5458   22.8223  -26.6022 H   0  0  0  0  0  0  0  0  0  0  0  0
   -0.8133   21.9535  -28.9219 H   0  0  0  0  0  0  0  0  0  0  0  0
   -1.5821   20.9870  -30.4453 H   0  0  0  0  0  0  0  0  0  0  0  0
   -2.6846   20.9981  -31.8634 H   0  0  0  0  0  0  0  0  0  0  0  0
   -1.2109   22.0252  -31.8634 H   0  0  0  0  0  0  0  0  0  0  0  0
   -6.8807   24.3367  -31.9223 H   0  0  0  0  0  0  0  0  0  0  0  0
   -5.1842   24.0928  -32.4784 H   0  0  0  0  0  0  0  0  0  0  0  0
   -7.2099   22.6184  -33.4542 H   0  0  0  0  0  0  0  0  0  0  0  0
   -5.5692   21.9184  -33.1712 H   0  0  0  0  0  0  0  0  0  0  0  0
  1  2  1  0
  2  3  1  0
  3  4  2  0
  4  5  1  0
  5  6  2  0
  6  7  1  0
  7  8  2  0
  8  9  1  0
  9 10  1  0
 10 11  1  0
 11 12  1  0
 12 13  1  0
 13 14  2  0
 13 15  2  0
 13 16  1  0
 16 17  2  0
 17 18  1  0
 18 19  2  0
 19 20  1  0
 20 21  2  0
 21 22  1  0
 22 23  1  0
 12 24  1  0
 24 25  1  0
  8  3  1  0
 25  9  1  0
 21 16  1  0
  1 26  1  0
  1 27  1  0
  1 28  1  0
  4 29  1  0
  5 30  1  0
  6 31  1  0
  7 32  1  0
 10 33  1  0
 10 34  1  0
 11 35  1  0
 11 36  1  0
 12 37  1  0
 17 38  1  0
 18 39  1  0
 19 40  1  0
 20 41  1  0
 23 42  1  0
 23 43  1  0
 23 44  1  0
 24 45  1  0
 24 46  1  0
 25 47  1  0
 25 48  1  0
M  CHG  1  12   1
M  END
>  <UniqueID>  (40) 
38

>  <SMILES>  (40) 
COc1ccccc1N1CC[NH+](S(=O)(=O)c2ccccc2OC)CC1

>  <Energy>  (40) 
59.934352147930156

>  <Genealogy>  (40) 
COc1ccccc1N1CC[NH+](S(=O)(=O)c2ccccc2OC)CC1 (protonated)
COc1ccccc1N1CC[NH+](S(=O)(=O)c2ccccc2OC)CC1 (3D coordinates assigned)
COc1ccccc1N1CC[NH+](S(=O)(=O)c2ccccc2OC)CC1 (nonaromatic ring conformer: 59.934352147930156 kcal/mol)

>  <smiles>  (40) 
COc1ccccc1N1CCN(S(=O)(=O)c2ccccc2OC)CC1

>  <score_type>  (40) 
oracle

>  <origin>  (40) 
adg

>  <m_score__min__energy>  (40) 
-7.0099999999999998

>  <m_primary>  (40) 
energy

$$$$
40:0
     RDKit          3D

 37 39  0  0  0  0  0  0  0  0999 V2000
   -5.3680   25.4090  -30.6690 C   0  0  0  0  0  0  0  0  0  0  0  0
   -3.9440   25.1410  -30.4540 N   0  0  0  0  0  0  0  0  0  0  0  0
   -3.7240   24.0020  -29.5480 C   0  0  0  0  0  0  0  0  0  0  0  0
   -2.6260   23.0550  -30.0480 C   0  0  0  0  0  0  0  0  0  0  0  0
   -2.7260   22.9240  -31.4630 O   0  0  0  0  0  0  0  0  0  0  0  0
   -3.4500   21.9000  -32.0790 C   0  0  0  0  0  0  0  0  0  0  0  0
   -4.8390   21.8570  -31.9340 C   0  0  0  0  0  0  0  0  0  0  0  0
   -5.5790   20.8320  -32.5540 C   0  0  0  0  0  0  0  0  0  0  0  0
   -4.8860   19.8400  -33.2790 C   0  0  0  0  0  0  0  0  0  0  0  0
   -3.4940   19.9340  -33.4140 C   0  0  0  0  0  0  0  0  0  0  0  0
   -2.8160   20.9470  -32.8160 N   0  0  0  0  0  0  0  0  0  0  0  0
   -5.6440   18.7340  -33.9680 C   0  0  0  0  0  0  0  0  0  0  0  0
   -6.8640   18.3110  -33.1430 C   0  0  0  0  0  0  0  0  0  0  0  0
   -7.6960   19.5070  -32.7510 C   0  0  0  0  0  0  0  0  0  0  0  0
   -9.0880   19.3810  -32.6290 C   0  0  0  0  0  0  0  0  0  0  0  0
   -9.8620   20.4740  -32.2380 C   0  0  0  0  0  0  0  0  0  0  0  0
   -9.2520   21.6980  -31.9600 C   0  0  0  0  0  0  0  0  0  0  0  0
   -7.8650   21.8330  -32.0600 C   0  0  0  0  0  0  0  0  0  0  0  0
   -7.0650   20.7330  -32.4340 C   0  0  0  0  0  0  0  0  0  0  0  0
   -5.8740   25.5042  -29.6970 H   0  0  0  0  0  0  0  0  0  0  0  0
   -5.4835   26.3447  -31.2357 H   0  0  0  0  0  0  0  0  0  0  0  0
   -5.8158   24.5794  -31.2357 H   0  0  0  0  0  0  0  0  0  0  0  0
   -3.4930   24.9510  -31.3800 H   0  0  0  0  0  0  0  0  0  0  0  0
   -3.4330   24.3886  -28.5601 H   0  0  0  0  0  0  0  0  0  0  0  0
   -4.6617   23.4290  -29.4990 H   0  0  0  0  0  0  0  0  0  0  0  0
   -1.6396   23.4650  -29.7857 H   0  0  0  0  0  0  0  0  0  0  0  0
   -2.7476   22.0684  -29.5770 H   0  0  0  0  0  0  0  0  0  0  0  0
   -5.3540   22.6233  -31.3360 H   0  0  0  0  0  0  0  0  0  0  0  0
   -2.9490   19.1844  -34.0065 H   0  0  0  0  0  0  0  0  0  0  0  0
   -5.9808   19.0879  -34.9536 H   0  0  0  0  0  0  0  0  0  0  0  0
   -4.9767   17.8666  -34.0787 H   0  0  0  0  0  0  0  0  0  0  0  0
   -7.4813   17.6243  -33.7408 H   0  0  0  0  0  0  0  0  0  0  0  0
   -6.5112   17.8154  -32.2265 H   0  0  0  0  0  0  0  0  0  0  0  0
   -9.5713   18.4162  -32.8426 H   0  0  0  0  0  0  0  0  0  0  0  0
  -10.9535   20.3709  -32.1488 H   0  0  0  0  0  0  0  0  0  0  0  0
   -9.8659   22.5603  -31.6608 H   0  0  0  0  0  0  0  0  0  0  0  0
   -7.3937   22.8035  -31.8457 H   0  0  0  0  0  0  0  0  0  0  0  0
  1  2  1  0
  2  3  1  0
  3  4  1  0
  4  5  1  0
  5  6  1  0
  6  7  2  0
  7  8  1  0
  8  9  2  0
  9 10  1  0
 10 11  2  0
  9 12  1  0
 12 13  1  0
 13 14  1  0
 14 15  2  0
 15 16  1  0
 16 17  2  0
 17 18  1  0
 18 19  2  0
 11  6  1  0
 19 14  1  0
 19  8  1  0
  1 20  1  0
  1 21  1  0
  1 22  1  0
  2 23  1  0
  3 24  1  0
  3 25  1  0
  4 26  1  0
  4 27  1  0
  7 28  1  0
 10 29  1  0
 12 30  1  0
 12 31  1  0
 13 32  1  0
 13 33  1  0
 15 34  1  0
 16 35  1  0
 17 36  1  0
 18 37  1  0
M  END
>  <UniqueID>  (41) 
39

>  <SMILES>  (41) 
CNCCOc1cc2c(cn1)CCc1ccccc1-2

>  <Energy>  (41) 
41.16810393940415

>  <Genealogy>  (41) 
CNCCOc1cc2c(cn1)CCc1ccccc1-2 (3D coordinates assigned)
CNCCOc1cc2c(cn1)CCc1ccccc1-2 (nonaromatic ring conformer: 41.16810393940415 kcal/mol)

>  <smiles>  (41) 
CNCCOc1cc2c(cn1)CCc1ccccc1-2

>  <score_type>  (41) 
oracle

>  <origin>  (41) 
adg

>  <m_score__min__energy>  (41) 
-8.1400000000000006

>  <m_primary>  (41) 
energy

$$$$
41:0
     RDKit          3D

 52 55  0  0  0  0  0  0  0  0999 V2000
   -1.6900   18.0890  -33.9930 C   0  0  0  0  0  0  0  0  0  0  0  0
   -2.8980   17.3670  -34.2080 O   0  0  0  0  0  0  0  0  0  0  0  0
   -4.1650   17.8010  -33.7930 C   0  0  0  0  0  0  0  0  0  0  0  0
   -5.2570   16.9220  -33.6570 C   0  0  0  0  0  0  0  0  0  0  0  0
   -6.5040   17.4020  -33.2470 C   0  0  0  0  0  0  0  0  0  0  0  0
   -6.6810   18.7690  -32.9660 C   0  0  0  0  0  0  0  0  0  0  0  0
   -7.9160   19.2950  -32.5540 C   0  0  0  0  0  0  0  0  0  0  0  0
   -8.9200   18.5400  -32.4210 O   0  0  0  0  0  0  0  0  0  0  0  0
   -8.0230   20.6730  -32.2910 C   0  0  0  0  0  0  0  0  0  0  0  0
   -9.2300   21.2580  -31.8700 C   0  0  0  0  0  0  0  0  0  0  0  0
   -9.2920   22.6280  -31.6080 C   0  0  0  0  0  0  0  0  0  0  0  0
   -8.1590   23.4280  -31.7650 C   0  0  0  0  0  0  0  0  0  0  0  0
   -6.9460   22.8690  -32.1960 C   0  0  0  0  0  0  0  0  0  0  0  0
   -5.7230   23.7420  -32.3320 C   0  0  0  0  0  0  0  0  0  0  0  0
   -5.3690   24.3700  -31.0190 C   0  0  0  0  0  0  0  0  0  0  0  0
   -6.2230   24.4170  -30.0930 O   0  0  0  0  0  0  0  0  0  0  0  0
   -4.0750   24.9510  -30.8370 N   0  0  0  0  0  0  0  0  0  0  0  0
   -3.1730   24.5380  -29.7710 C   0  0  0  0  0  0  0  0  0  0  0  0
   -3.0830   23.0030  -29.6790 C   0  0  0  0  0  0  0  0  0  0  0  0
   -2.2900   22.3370  -30.7360 N   0  0  0  0  0  0  0  0  0  0  0  0
   -3.0590   21.9350  -31.9240 C   0  0  0  0  0  0  0  0  0  0  0  0
   -2.0990   21.4110  -33.0140 C   0  0  0  0  0  0  0  0  0  0  0  0
   -0.7430   21.5250  -32.6190 O   0  0  0  0  0  0  0  0  0  0  0  0
   -0.5170   20.7760  -31.4370 C   0  0  0  0  0  0  0  0  0  0  0  0
   -1.4200   21.2420  -30.2760 C   0  0  0  0  0  0  0  0  0  0  0  0
   -6.8740   21.4850  -32.4520 C   0  0  0  0  0  0  0  0  0  0  0  0
   -5.7230   20.9440  -32.8420 O   0  0  0  0  0  0  0  0  0  0  0  0
   -5.5850   19.6490  -33.1000 C   0  0  0  0  0  0  0  0  0  0  0  0
   -4.3410   19.1600  -33.5090 C   0  0  0  0  0  0  0  0  0  0  0  0
   -1.5133   18.1946  -32.9124 H   0  0  0  0  0  0  0  0  0  0  0  0
   -0.8509   17.5442  -34.4502 H   0  0  0  0  0  0  0  0  0  0  0  0
   -1.7724   19.0861  -34.4502 H   0  0  0  0  0  0  0  0  0  0  0  0
   -5.1277   15.8515  -33.8747 H   0  0  0  0  0  0  0  0  0  0  0  0
   -7.3509   16.7077  -33.1436 H   0  0  0  0  0  0  0  0  0  0  0  0
  -10.1280   20.6347  -31.7467 H   0  0  0  0  0  0  0  0  0  0  0  0
  -10.2387   23.0793  -31.2761 H   0  0  0  0  0  0  0  0  0  0  0  0
   -8.2173   24.5050  -31.5492 H   0  0  0  0  0  0  0  0  0  0  0  0
   -4.8782   23.1280  -32.6775 H   0  0  0  0  0  0  0  0  0  0  0  0
   -5.9384   24.5400  -33.0578 H   0  0  0  0  0  0  0  0  0  0  0  0
   -2.1708   24.9445  -29.9717 H   0  0  0  0  0  0  0  0  0  0  0  0
   -3.5638   24.9212  -28.8168 H   0  0  0  0  0  0  0  0  0  0  0  0
   -2.6311   22.7496  -28.7086 H   0  0  0  0  0  0  0  0  0  0  0  0
   -4.1126   22.6367  -29.8043 H   0  0  0  0  0  0  0  0  0  0  0  0
   -3.7680   21.1403  -31.6487 H   0  0  0  0  0  0  0  0  0  0  0  0
   -3.6101   22.8043  -32.3119 H   0  0  0  0  0  0  0  0  0  0  0  0
   -2.3254   20.3524  -33.2090 H   0  0  0  0  0  0  0  0  0  0  0  0
   -2.2441   22.0192  -33.9190 H   0  0  0  0  0  0  0  0  0  0  0  0
   -0.7233   19.7155  -31.6437 H   0  0  0  0  0  0  0  0  0  0  0  0
    0.5299   20.9261  -31.1346 H   0  0  0  0  0  0  0  0  0  0  0  0
   -2.0404   20.4004  -29.9342 H   0  0  0  0  0  0  0  0  0  0  0  0
   -0.7927   21.5981  -29.4455 H   0  0  0  0  0  0  0  0  0  0  0  0
   -3.4910   19.8510  -33.6087 H   0  0  0  0  0  0  0  0  0  0  0  0
  1  2  1  0
  2  3  1  0
  3  4  2  0
  4  5  1  0
  5  6  2  0
  6  7  1  0
  7  8  2  0
  7  9  1  0
  9 10  2  0
 10 11  1  0
 11 12  2  0
 12 13  1  0
 13 14  1  0
 14 15  1  0
 15 16  2  0
 15 17  1  0
 17 18  1  0
 18 19  1  0
 19 20  1  0
 20 21  1  0
 21 22  1  0
 22 23  1  0
 23 24  1  0
 24 25  1  0
 13 26  2  0
 26 27  1  0
 27 28  1  0
 28 29  2  0
 29  3  1  0
 28  6  1  0
 26  9  1  0
 25 20  1  0
  1 30  1  0
  1 31  1  0
  1 32  1  0
  4 33  1  0
  5 34  1  0
 10 35  1  0
 11 36  1  0
 12 37  1  0
 14 38  1  0
 14 39  1  0
 18 40  1  0
 18 41  1  0
 19 42  1  0
 19 43  1  0
 21 44  1  0
 21 45  1  0
 22 46  1  0
 22 47  1  0
 24 48  1  0
 24 49  1  0
 25 50  1  0
 25 51  1  0
 29 52  1  0
M  CHG  1  17  -1
M  END
>  <UniqueID>  (42) 
40

>  <SMILES>  (42) 
COc1ccc2c(=O)c3cccc(CC(=O)[N-]CCN4CCOCC4)c3oc2c1

>  <Energy>  (42) 
70.13015503575667

>  <Genealogy>  (42) 
COc1ccc2c(=O)c3cccc(CC(=O)[N-]CCN4CCOCC4)c3oc2c1 (protonated)
COc1ccc2c(=O)c3cccc(CC(=O)[N-]CCN4CCOCC4)c3oc2c1 (3D coordinates assigned)
COc1ccc2c(=O)c3cccc(CC(=O)[N-]CCN4CCOCC4)c3oc2c1 (nonaromatic ring conformer: 70.13015503575667 kcal/mol)

>  <smiles>  (42) 
COc1ccc2c(=O)c3cccc(CC(=O)NCCN4CCOCC4)c3oc2c1

>  <score_type>  (42) 
oracle

>  <origin>  (42) 
adg

>  <m_score__min__energy>  (42) 
-10.27

>  <m_primary>  (42) 
energy

$$$$
42:0
     RDKit          3D

 25 26  0  0  0  0  0  0  0  0999 V2000
   -8.3320   19.1620  -32.1290 C   0  0  0  0  0  0  0  0  0  0  0  0
   -7.8720   20.3070  -32.8390 O   0  0  0  0  0  0  0  0  0  0  0  0
   -6.5860   20.8580  -32.7180 C   0  0  0  0  0  0  0  0  0  0  0  0
   -5.4600   20.2370  -33.2890 C   0  0  0  0  0  0  0  0  0  0  0  0
   -4.1960   20.8080  -33.1530 C   0  0  0  0  0  0  0  0  0  0  0  0
   -4.0360   22.0050  -32.4570 C   0  0  0  0  0  0  0  0  0  0  0  0
   -5.1430   22.6530  -31.8830 C   0  0  0  0  0  0  0  0  0  0  0  0
   -6.4240   22.0630  -32.0060 C   0  0  0  0  0  0  0  0  0  0  0  0
   -7.8230   22.8210  -31.2470 S   0  0  0  0  0  0  0  0  0  0  0  0
   -8.7220   23.4030  -32.3020 O   0  0  0  0  0  0  0  0  0  0  0  0
   -8.5820   21.8150  -30.4280 O   0  0  0  0  0  0  0  0  0  0  0  0
   -7.2380   24.1140  -30.1770 C   0  0  0  0  0  0  0  0  0  0  0  0
   -6.0980   24.8610  -30.8580 C   0  0  0  0  0  0  0  0  0  0  0  0
   -4.9460   23.9430  -31.1650 C   0  0  0  0  0  0  0  0  0  0  0  0
   -3.7820   24.3100  -30.8440 O   0  0  0  0  0  0  0  0  0  0  0  0
   -8.2577   19.3470  -31.0472 H   0  0  0  0  0  0  0  0  0  0  0  0
   -9.3803   18.9619  -32.3956 H   0  0  0  0  0  0  0  0  0  0  0  0
   -7.7135   18.2923  -32.3956 H   0  0  0  0  0  0  0  0  0  0  0  0
   -5.5780   19.2957  -33.8458 H   0  0  0  0  0  0  0  0  0  0  0  0
   -3.3205   20.3117  -33.5970 H   0  0  0  0  0  0  0  0  0  0  0  0
   -3.0336   22.4466  -32.3561 H   0  0  0  0  0  0  0  0  0  0  0  0
   -8.0596   24.8139  -29.9647 H   0  0  0  0  0  0  0  0  0  0  0  0
   -6.8773   23.6749  -29.2352 H   0  0  0  0  0  0  0  0  0  0  0  0
   -6.4674   25.2982  -31.7974 H   0  0  0  0  0  0  0  0  0  0  0  0
   -5.7422   25.6465  -30.1751 H   0  0  0  0  0  0  0  0  0  0  0  0
  1  2  1  0
  2  3  1  0
  3  4  2  0
  4  5  1  0
  5  6  2  0
  6  7  1  0
  7  8  2  0
  8  9  1  0
  9 10  2  0
  9 11  2  0
  9 12  1  0
 12 13  1  0
 13 14  1  0
 14 15  2  0
  8  3  1  0
 14  7  1  0
  1 16  1  0
  1 17  1  0
  1 18  1  0
  4 19  1  0
  5 20  1  0
  6 21  1  0
 12 22  1  0
 12 23  1  0
 13 24  1  0
 13 25  1  0
M  END
>  <UniqueID>  (43) 
41

>  <SMILES>  (43) 
COc1cccc2c1S(=O)(=O)CCC2=O

>  <Energy>  (43) 
25.09825224298339

>  <Genealogy>  (43) 
COc1cccc2c1S(=O)(=O)CCC2=O (3D coordinates assigned)
COc1cccc2c1S(=O)(=O)CCC2=O (nonaromatic ring conformer: 25.09825224298339 kcal/mol)

>  <smiles>  (43) 
COc1cccc2c1S(=O)(=O)CCC2=O

>  <score_type>  (43) 
oracle

>  <origin>  (43) 
adg

>  <m_score__min__energy>  (43) 
-6.4900000000000002

>  <m_primary>  (43) 
energy

$$$$
43:0
     RDKit          3D

 54 57  0  0  0  0  0  0  0  0999 V2000
   -1.2100   27.7060  -25.3400 C   0  0  0  0  0  0  0  0  0  0  0  0
   -1.2960   26.2400  -25.3070 N   0  0  0  0  0  0  0  0  0  0  0  0
   -0.8340   25.5300  -24.1070 C   0  0  0  0  0  0  0  0  0  0  0  0
   -1.8290   25.5070  -26.4400 C   0  0  0  0  0  0  0  0  0  0  0  0
   -1.0800   25.3650  -27.6280 C   0  0  0  0  0  0  0  0  0  0  0  0
   -1.5920   24.6600  -28.7190 C   0  0  0  0  0  0  0  0  0  0  0  0
   -2.8670   24.0750  -28.6570 C   0  0  0  0  0  0  0  0  0  0  0  0
   -3.4120   23.3250  -29.8180 C   0  0  0  0  0  0  0  0  0  0  0  0
   -4.7050   23.5950  -30.3000 C   0  0  0  0  0  0  0  0  0  0  0  0
   -5.2180   22.8870  -31.3910 C   0  0  0  0  0  0  0  0  0  0  0  0
   -4.4560   21.8870  -32.0140 C   0  0  0  0  0  0  0  0  0  0  0  0
   -5.0100   21.1260  -33.2040 C   0  0  0  0  0  0  0  0  0  0  0  0
   -5.8870   19.9670  -32.8550 N   0  0  1  0  0  0  0  0  0  0  0  0
   -5.9400   18.9710  -33.9690 C   0  0  0  0  0  0  0  0  0  0  0  0
   -6.8690   17.7800  -33.6200 C   0  0  0  0  0  0  0  0  0  0  0  0
   -7.5020   18.0080  -32.2350 C   0  0  1  0  0  0  0  0  0  0  0  0
   -6.3570   18.1150  -31.2120 C   0  0  0  0  0  0  0  0  0  0  0  0
   -5.4170   19.2860  -31.6090 C   0  0  0  0  0  0  0  0  0  0  0  0
   -8.2550   19.3550  -32.2250 C   0  0  2  0  0  0  0  0  0  0  0  0
   -9.3990   19.3200  -33.0440 O   0  0  0  0  0  0  0  0  0  0  0  0
   -7.2700   20.4930  -32.6250 C   0  0  0  0  0  0  0  0  0  0  0  0
   -3.1570   21.6290  -31.5460 C   0  0  0  0  0  0  0  0  0  0  0  0
   -2.6430   22.3350  -30.4550 C   0  0  0  0  0  0  0  0  0  0  0  0
   -3.6180   24.2110  -27.4800 C   0  0  0  0  0  0  0  0  0  0  0  0
   -3.1070   24.9160  -26.3870 C   0  0  0  0  0  0  0  0  0  0  0  0
   -1.1872   28.0952  -24.3114 H   0  0  0  0  0  0  0  0  0  0  0  0
   -0.2926   28.0077  -25.8667 H   0  0  0  0  0  0  0  0  0  0  0  0
   -2.0858   28.1129  -25.8667 H   0  0  0  0  0  0  0  0  0  0  0  0
   -1.1808   26.0629  -23.2094 H   0  0  0  0  0  0  0  0  0  0  0  0
   -1.2404   24.5078  -24.1065 H   0  0  0  0  0  0  0  0  0  0  0  0
    0.2652   25.4875  -24.1065 H   0  0  0  0  0  0  0  0  0  0  0  0
   -0.0790   25.8161  -27.6952 H   0  0  0  0  0  0  0  0  0  0  0  0
   -0.9912   24.5620  -29.6352 H   0  0  0  0  0  0  0  0  0  0  0  0
   -5.3176   24.3692  -29.8150 H   0  0  0  0  0  0  0  0  0  0  0  0
   -6.2272   23.1158  -31.7640 H   0  0  0  0  0  0  0  0  0  0  0  0
   -5.5971   21.8273  -33.8152 H   0  0  0  0  0  0  0  0  0  0  0  0
   -4.1421   20.7081  -33.7351 H   0  0  0  0  0  0  0  0  0  0  0  0
   -4.9253   18.5901  -34.1570 H   0  0  0  0  0  0  0  0  0  0  0  0
   -6.3409   19.4722  -34.8624 H   0  0  0  0  0  0  0  0  0  0  0  0
   -6.2821   16.8498  -33.6057 H   0  0  0  0  0  0  0  0  0  0  0  0
   -7.6636   17.7022  -34.3767 H   0  0  0  0  0  0  0  0  0  0  0  0
   -8.1929   17.1854  -31.9985 H   0  0  0  0  0  0  0  0  0  0  0  0
   -5.7866   17.1745  -31.2002 H   0  0  0  0  0  0  0  0  0  0  0  0
   -6.7747   18.3026  -30.2118 H   0  0  0  0  0  0  0  0  0  0  0  0
   -4.4046   18.8903  -31.7779 H   0  0  0  0  0  0  0  0  0  0  0  0
   -5.4180   20.0221  -30.7916 H   0  0  0  0  0  0  0  0  0  0  0  0
   -8.6248   19.5558  -31.2087 H   0  0  0  0  0  0  0  0  0  0  0  0
   -9.1550   19.6660  -33.9410 H   0  0  0  0  0  0  0  0  0  0  0  0
   -7.6298   20.9685  -33.5494 H   0  0  0  0  0  0  0  0  0  0  0  0
   -7.2298   21.2199  -31.8004 H   0  0  0  0  0  0  0  0  0  0  0  0
   -2.5397   20.8655  -32.0420 H   0  0  0  0  0  0  0  0  0  0  0  0
   -1.6285   22.1144  -30.0916 H   0  0  0  0  0  0  0  0  0  0  0  0
   -4.6186   23.7584  -27.4168 H   0  0  0  0  0  0  0  0  0  0  0  0
   -3.7109   25.0109  -25.4725 H   0  0  0  0  0  0  0  0  0  0  0  0
  1  2  1  0
  2  3  1  0
  2  4  1  0
  4  5  2  0
  5  6  1  0
  6  7  2  0
  7  8  1  0
  8  9  2  0
  9 10  1  0
 10 11  2  0
 11 12  1  0
 13 12  1  6
 13 14  1  0
 14 15  1  0
 15 16  1  0
 16 17  1  0
 17 18  1  0
 16 19  1  0
 19 20  1  0
 19 21  1  0
 11 22  1  0
 22 23  2  0
  7 24  1  0
 24 25  2  0
 25  4  1  0
 23  8  1  0
 18 13  1  0
 21 13  1  0
  1 26  1  0
  1 27  1  0
  1 28  1  0
  3 29  1  0
  3 30  1  0
  3 31  1  0
  5 32  1  0
  6 33  1  0
  9 34  1  0
 10 35  1  0
 12 36  1  0
 12 37  1  0
 14 38  1  0
 14 39  1  0
 15 40  1  0
 15 41  1  0
 16 42  1  1
 17 43  1  0
 17 44  1  0
 18 45  1  0
 18 46  1  0
 19 47  1  1
 20 48  1  0
 21 49  1  0
 21 50  1  0
 22 51  1  0
 23 52  1  0
 24 53  1  0
 25 54  1  0
M  CHG  1  13   1
M  END
>  <UniqueID>  (44) 
42

>  <SMILES>  (44) 
CN(C)c1ccc(-c2ccc(C[N+]34CCC(CC3)[C@H](O)C4)cc2)cc1

>  <Energy>  (44) 
84.73637936844243

>  <Genealogy>  (44) 
CN(C)c1ccc(-c2ccc(C[N+]34CCC(CC3)[C@H](O)C4)cc2)cc1 (chirality)
CN(C)c1ccc(-c2ccc(C[N+]34CCC(CC3)[C@H](O)C4)cc2)cc1 (3D coordinates assigned)
CN(C)c1ccc(-c2ccc(C[N+]34CCC(CC3)[C@H](O)C4)cc2)cc1 (nonaromatic ring conformer: 84.73637936844243 kcal/mol)

>  <smiles>  (44) 
CN(C)c1ccc(-c2ccc(C[N+]34CCC(CC3)C(O)C4)cc2)cc1

>  <score_type>  (44) 
oracle

>  <origin>  (44) 
adg

>  <m_score__min__energy>  (44) 
-7.9900000000000002

>  <m_primary>  (44) 
energy

$$$$
44:0
     RDKit          3D

 28 30  0  0  1  0  0  0  0  0999 V2000
   -7.9650   21.9330  -30.4720 C   0  0  0  0  0  0  0  0  0  0  0  0
   -8.1600   21.9660  -31.8440 C   0  0  0  0  0  0  0  0  0  0  0  0
   -7.3000   23.4250  -32.3970 S   0  0  0  0  0  0  0  0  0  0  0  0
   -6.7380   23.8930  -30.7630 C   0  0  0  0  0  0  0  0  0  0  0  0
   -5.9210   25.0670  -30.4210 C   0  0  0  0  0  0  0  0  0  0  0  0
   -4.5960   24.9290  -30.9520 N   0  0  0  0  0  0  0  0  0  0  0  0
   -3.6050   24.3400  -30.4220 C   0  0  0  0  0  0  0  0  0  0  0  0
   -2.8590   25.0490  -29.5390 N   0  0  0  0  0  0  0  0  0  0  0  0
   -1.8130   24.4190  -28.9830 C   0  0  0  0  0  0  0  0  0  0  0  0
   -1.4840   23.1440  -29.2610 N   0  0  0  0  0  0  0  0  0  0  0  0
   -2.2230   22.4330  -30.1380 C   0  0  0  0  0  0  0  0  0  0  0  0
   -1.9440   21.1230  -30.4680 C   0  0  0  0  0  0  0  0  0  0  0  0
   -2.7230   20.4070  -31.3800 C   0  0  0  0  0  0  0  0  0  0  0  0
   -3.8090   21.0720  -31.9520 C   0  0  0  0  0  0  0  0  0  0  0  0
   -4.1210   22.3750  -31.6510 C   0  0  0  0  0  0  0  0  0  0  0  0
   -3.3110   23.0260  -30.7430 C   0  0  0  0  0  0  0  0  0  0  0  0
   -7.2470   22.9050  -29.9250 C   0  0  0  0  0  0  0  0  0  0  0  0
   -8.3918   21.1270  -29.8569 H   0  0  0  0  0  0  0  0  0  0  0  0
   -8.7232   21.2476  -32.4578 H   0  0  0  0  0  0  0  0  0  0  0  0
   -6.3882   25.9687  -30.8437 H   0  0  0  0  0  0  0  0  0  0  0  0
   -5.8585   25.1500  -29.3259 H   0  0  0  0  0  0  0  0  0  0  0  0
   -3.1080   26.0330  -29.3220 H   0  0  0  0  0  0  0  0  0  0  0  0
   -1.1926   24.9730  -28.2631 H   0  0  0  0  0  0  0  0  0  0  0  0
   -1.0817   20.6270  -29.9986 H   0  0  0  0  0  0  0  0  0  0  0  0
   -2.4905   19.3630  -31.6367 H   0  0  0  0  0  0  0  0  0  0  0  0
   -4.4399   20.5308  -32.6725 H   0  0  0  0  0  0  0  0  0  0  0  0
   -4.9816   22.8793  -32.1148 H   0  0  0  0  0  0  0  0  0  0  0  0
   -7.0594   22.9295  -28.8414 H   0  0  0  0  0  0  0  0  0  0  0  0
  1  2  2  0
  2  3  1  0
  3  4  1  0
  4  5  1  0
  5  6  1  0
  6  7  2  0
  7  8  1  0
  8  9  1  0
  9 10  2  0
 10 11  1  0
 11 12  2  0
 12 13  1  0
 13 14  2  0
 14 15  1  0
 15 16  2  0
  4 17  2  0
 17  1  1  0
 16  7  1  0
 16 11  1  0
  1 18  1  0
  2 19  1  0
  5 20  1  0
  5 21  1  0
  8 22  1  0
  9 23  1  0
 12 24  1  0
 13 25  1  0
 14 26  1  0
 15 27  1  0
 17 28  1  0
M  END
>  <smiles>  (45) 
c1csc(CN=c2[nH]cnc3ccccc23)c1

>  <score_type>  (45) 
oracle

>  <origin>  (45) 
adg

>  <m_score__min__energy>  (45) 
-6.7300000000000004

>  <m_primary>  (45) 
energy

$$$$
45:0
     RDKit          3D

 40 43  0  0  0  0  0  0  0  0999 V2000
   -1.9890   23.9760  -28.7910 C   0  0  0  0  0  0  0  0  0  0  0  0
   -2.9640   23.3130  -29.6640 N   0  0  0  0  0  0  0  0  0  0  0  0
   -2.8780   21.8560  -29.8510 C   0  0  0  0  0  0  0  0  0  0  0  0
   -2.2710   21.5380  -31.1900 C   0  0  0  0  0  0  0  0  0  0  0  0
   -3.1010   21.2420  -32.2850 C   0  0  0  0  0  0  0  0  0  0  0  0
   -2.5430   20.9230  -33.5270 C   0  0  0  0  0  0  0  0  0  0  0  0
   -1.1540   20.8950  -33.6840 C   0  0  0  0  0  0  0  0  0  0  0  0
   -0.6140   20.5840  -34.8890 F   0  0  0  0  0  0  0  0  0  0  0  0
   -0.3210   21.1850  -32.5990 C   0  0  0  0  0  0  0  0  0  0  0  0
   -0.8760   21.5040  -31.3560 C   0  0  0  0  0  0  0  0  0  0  0  0
   -3.9940   24.0600  -30.3580 C   0  0  0  0  0  0  0  0  0  0  0  0
   -3.8160   25.2890  -30.5870 O   0  0  0  0  0  0  0  0  0  0  0  0
   -5.2610   23.4500  -30.8220 C   0  0  0  0  0  0  0  0  0  0  0  0
   -6.4150   24.1650  -31.1490 C   0  0  0  0  0  0  0  0  0  0  0  0
   -7.3220   23.2000  -31.5180 C   0  0  0  0  0  0  0  0  0  0  0  0
   -8.6430   23.2910  -31.9450 C   0  0  0  0  0  0  0  0  0  0  0  0
   -9.3050   22.1350  -32.2470 N   0  0  0  0  0  0  0  0  0  0  0  0
   -8.7060   20.9060  -32.1400 C   0  0  0  0  0  0  0  0  0  0  0  0
   -9.4170   19.7430  -32.4580 C   0  0  0  0  0  0  0  0  0  0  0  0
   -8.8000   18.4930  -32.3460 C   0  0  0  0  0  0  0  0  0  0  0  0
   -7.4710   18.3950  -31.9160 C   0  0  0  0  0  0  0  0  0  0  0  0
   -6.7470   19.5460  -31.5940 C   0  0  0  0  0  0  0  0  0  0  0  0
   -7.3580   20.8030  -31.7040 C   0  0  0  0  0  0  0  0  0  0  0  0
   -6.6970   21.9920  -31.4010 C   0  0  0  0  0  0  0  0  0  0  0  0
   -5.4660   22.1540  -30.9840 O   0  0  0  0  0  0  0  0  0  0  0  0
   -2.2556   23.7947  -27.7393 H   0  0  0  0  0  0  0  0  0  0  0  0
   -0.9851   23.5725  -28.9896 H   0  0  0  0  0  0  0  0  0  0  0  0
   -1.9952   25.0579  -28.9896 H   0  0  0  0  0  0  0  0  0  0  0  0
   -2.2516   21.4243  -29.0565 H   0  0  0  0  0  0  0  0  0  0  0  0
   -3.8905   21.4284  -29.8057 H   0  0  0  0  0  0  0  0  0  0  0  0
   -4.1942   21.2613  -32.1645 H   0  0  0  0  0  0  0  0  0  0  0  0
   -3.1974   20.6939  -34.3810 H   0  0  0  0  0  0  0  0  0  0  0  0
    0.7717   21.1621  -32.7235 H   0  0  0  0  0  0  0  0  0  0  0  0
   -0.2176   21.7294  -30.5041 H   0  0  0  0  0  0  0  0  0  0  0  0
   -6.5646   25.2544  -31.1183 H   0  0  0  0  0  0  0  0  0  0  0  0
   -9.1409   24.2676  -32.0369 H   0  0  0  0  0  0  0  0  0  0  0  0
  -10.4614   19.8123  -32.7961 H   0  0  0  0  0  0  0  0  0  0  0  0
   -9.3620   17.5814  -32.5972 H   0  0  0  0  0  0  0  0  0  0  0  0
   -6.9946   17.4071  -31.8313 H   0  0  0  0  0  0  0  0  0  0  0  0
   -5.7033   19.4662  -31.2560 H   0  0  0  0  0  0  0  0  0  0  0  0
  1  2  1  0
  2  3  1  0
  3  4  1  0
  4  5  2  0
  5  6  1  0
  6  7  2  0
  7  8  1  0
  7  9  1  0
  9 10  2  0
  2 11  1  0
 11 12  2  0
 11 13  1  0
 13 14  2  0
 14 15  1  0
 15 16  2  0
 16 17  1  0
 17 18  2  0
 18 19  1  0
 19 20  2  0
 20 21  1  0
 21 22  2  0
 22 23  1  0
 23 24  2  0
 24 25  1  0
 10  4  1  0
 25 13  1  0
 24 15  1  0
 23 18  1  0
  1 26  1  0
  1 27  1  0
  1 28  1  0
  3 29  1  0
  3 30  1  0
  5 31  1  0
  6 32  1  0
  9 33  1  0
 10 34  1  0
 14 35  1  0
 16 36  1  0
 19 37  1  0
 20 38  1  0
 21 39  1  0
 22 40  1  0
M  END
>  <UniqueID>  (46) 
43

>  <SMILES>  (46) 
CN(Cc1ccc(F)cc1)C(=O)c1cc2cnc3ccccc3c2o1

>  <Energy>  (46) 
80.91402958496121

>  <Genealogy>  (46) 
CN(Cc1ccc(F)cc1)C(=O)c1cc2cnc3ccccc3c2o1 (3D coordinates assigned)
CN(Cc1ccc(F)cc1)C(=O)c1cc2cnc3ccccc3c2o1 (optimized conformer: 80.91402958496121 kcal/mol)

>  <smiles>  (46) 
CN(Cc1ccc(F)cc1)C(=O)c1cc2cnc3ccccc3c2o1

>  <score_type>  (46) 
oracle

>  <origin>  (46) 
adg

>  <m_score__min__energy>  (46) 
-8.9399999999999995

>  <m_primary>  (46) 
energy

$$$$
46:0
     RDKit          3D

 40 42  0  0  0  0  0  0  0  0999 V2000
   -7.9110   23.6180  -32.7100 O   0  0  0  0  0  0  0  0  0  0  0  0
   -7.2090   22.7880  -32.0700 C   0  0  0  0  0  0  0  0  0  0  0  0
   -7.5190   21.3450  -32.1800 C   0  0  0  0  0  0  0  0  0  0  0  0
   -8.5950   20.7990  -31.4640 C   0  0  0  0  0  0  0  0  0  0  0  0
   -8.8810   19.4350  -31.5530 C   0  0  0  0  0  0  0  0  0  0  0  0
   -8.0960   18.6030  -32.3540 C   0  0  0  0  0  0  0  0  0  0  0  0
   -7.0180   19.1310  -33.0850 C   0  0  0  0  0  0  0  0  0  0  0  0
   -6.1310   18.2310  -33.9060 C   0  0  0  0  0  0  0  0  0  0  0  0
   -6.6020   16.9290  -33.8790 F   0  0  0  0  0  0  0  0  0  0  0  0
   -4.8360   18.2310  -33.4160 F   0  0  0  0  0  0  0  0  0  0  0  0
   -6.1160   18.6770  -35.2150 F   0  0  0  0  0  0  0  0  0  0  0  0
   -6.7170   20.4990  -32.9660 C   0  0  0  0  0  0  0  0  0  0  0  0
   -6.1250   23.2610  -31.2490 N   0  0  0  0  0  0  0  0  0  0  0  0
   -6.2200   24.5750  -30.6080 C   0  0  0  0  0  0  0  0  0  0  0  0
   -5.3620   24.5820  -29.3410 C   0  0  0  0  0  0  0  0  0  0  0  0
   -3.9420   24.2650  -29.6260 N   0  0  0  0  0  0  0  0  0  0  0  0
   -3.1970   23.8100  -28.4320 C   0  0  0  0  0  0  0  0  0  0  0  0
   -2.3510   24.8920  -27.8090 C   0  0  0  0  0  0  0  0  0  0  0  0
   -2.3520   25.1730  -26.4450 C   0  0  0  0  0  0  0  0  0  0  0  0
   -1.2630   26.4230  -26.1830 S   0  0  0  0  0  0  0  0  0  0  0  0
   -0.8440   26.5650  -27.8030 C   0  0  0  0  0  0  0  0  0  0  0  0
   -1.5200   25.6700  -28.5540 N   0  0  0  0  0  0  0  0  0  0  0  0
   -3.6900   23.4570  -30.8450 C   0  0  0  0  0  0  0  0  0  0  0  0
   -4.8570   22.5200  -31.1930 C   0  0  0  0  0  0  0  0  0  0  0  0
   -9.2162   21.4483  -30.8296 H   0  0  0  0  0  0  0  0  0  0  0  0
   -9.7275   19.0146  -30.9902 H   0  0  0  0  0  0  0  0  0  0  0  0
   -8.3227   17.5282  -32.4132 H   0  0  0  0  0  0  0  0  0  0  0  0
   -5.8446   20.9120  -33.4935 H   0  0  0  0  0  0  0  0  0  0  0  0
   -5.8586   25.3490  -31.3010 H   0  0  0  0  0  0  0  0  0  0  0  0
   -7.2678   24.7821  -30.3450 H   0  0  0  0  0  0  0  0  0  0  0  0
   -5.4171   25.5797  -28.8811 H   0  0  0  0  0  0  0  0  0  0  0  0
   -5.7521   23.8077  -28.6640 H   0  0  0  0  0  0  0  0  0  0  0  0
   -3.9206   23.4574  -27.6823 H   0  0  0  0  0  0  0  0  0  0  0  0
   -2.5155   23.0105  -28.7581 H   0  0  0  0  0  0  0  0  0  0  0  0
   -2.9570   24.6672  -25.6781 H   0  0  0  0  0  0  0  0  0  0  0  0
   -0.1169   27.2895  -28.1987 H   0  0  0  0  0  0  0  0  0  0  0  0
   -3.5242   24.1403  -31.6909 H   0  0  0  0  0  0  0  0  0  0  0  0
   -2.8092   22.8282  -30.6480 H   0  0  0  0  0  0  0  0  0  0  0  0
   -4.6671   22.0564  -32.1723 H   0  0  0  0  0  0  0  0  0  0  0  0
   -4.9342   21.7493  -30.4119 H   0  0  0  0  0  0  0  0  0  0  0  0
  1  2  2  0
  2  3  1  0
  3  4  2  0
  4  5  1  0
  5  6  2  0
  6  7  1  0
  7  8  1  0
  8  9  1  0
  8 10  1  0
  8 11  1  0
  7 12  2  0
  2 13  1  0
 13 14  1  0
 14 15  1  0
 15 16  1  0
 16 17  1  0
 17 18  1  0
 18 19  2  0
 19 20  1  0
 20 21  1  0
 21 22  2  0
 16 23  1  0
 23 24  1  0
 12  3  1  0
 24 13  1  0
 22 18  1  0
  4 25  1  0
  5 26  1  0
  6 27  1  0
 12 28  1  0
 14 29  1  0
 14 30  1  0
 15 31  1  0
 15 32  1  0
 17 33  1  0
 17 34  1  0
 19 35  1  0
 21 36  1  0
 23 37  1  0
 23 38  1  0
 24 39  1  0
 24 40  1  0
M  END
>  <UniqueID>  (47) 
44

>  <SMILES>  (47) 
O=C(c1cccc(C(F)(F)F)c1)N1CCN(Cc2cscn2)CC1

>  <Energy>  (47) 
82.91749881633419

>  <Genealogy>  (47) 
O=C(c1cccc(C(F)(F)F)c1)N1CCN(Cc2cscn2)CC1 (3D coordinates assigned)
O=C(c1cccc(C(F)(F)F)c1)N1CCN(Cc2cscn2)CC1 (nonaromatic ring conformer: 82.91749881633419 kcal/mol)

>  <smiles>  (47) 
O=C(c1cccc(C(F)(F)F)c1)N1CCN(Cc2cscn2)CC1

>  <score_type>  (47) 
oracle

>  <origin>  (47) 
adg

>  <m_score__min__energy>  (47) 
-8.1999999999999993

>  <m_primary>  (47) 
energy

$$$$
47:0
     RDKit          3D

 35 37  0  0  0  0  0  0  0  0999 V2000
   -2.7116   20.8760  -30.8353 H   0  0  0  0  0  0  0  0  0  0  0  0
   -3.3200   21.7920  -30.8630 C   0  0  0  0  0  0  0  0  0  0  0  0
   -4.1000   21.9980  -31.9330 C   0  0  0  0  0  0  0  0  0  0  0  0
   -3.6441   22.0081  -32.9340 H   0  0  0  0  0  0  0  0  0  0  0  0
   -5.5640   22.2130  -31.8030 C   0  0  0  0  0  0  0  0  0  0  0  0
   -6.0540   23.4990  -31.4750 C   0  0  0  0  0  0  0  0  0  0  0  0
   -5.1400   24.5500  -31.2820 O   0  0  0  0  0  0  0  0  0  0  0  0
   -5.3590   25.6720  -30.4340 C   0  0  0  0  0  0  0  0  0  0  0  0
   -5.2970   25.3546  -29.3826 H   0  0  0  0  0  0  0  0  0  0  0  0
   -4.5931   26.4363  -30.6320 H   0  0  0  0  0  0  0  0  0  0  0  0
   -6.3561   26.0922  -30.6320 H   0  0  0  0  0  0  0  0  0  0  0  0
   -7.4400   23.7070  -31.3690 C   0  0  0  0  0  0  0  0  0  0  0  0
   -7.8207   24.7021  -31.0954 H   0  0  0  0  0  0  0  0  0  0  0  0
   -8.3370   22.6690  -31.6060 C   0  0  0  0  0  0  0  0  0  0  0  0
   -9.4185   22.8510  -31.5215 H   0  0  0  0  0  0  0  0  0  0  0  0
   -7.8710   21.3960  -31.9510 C   0  0  0  0  0  0  0  0  0  0  0  0
   -8.7860   20.3580  -32.1910 C   0  0  0  0  0  0  0  0  0  0  0  0
   -9.8662   20.5521  -32.1168 H   0  0  0  0  0  0  0  0  0  0  0  0
   -8.3310   19.0820  -32.5230 C   0  0  0  0  0  0  0  0  0  0  0  0
   -9.0529   18.2738  -32.7118 H   0  0  0  0  0  0  0  0  0  0  0  0
   -6.9640   18.8290  -32.6160 C   0  0  0  0  0  0  0  0  0  0  0  0
   -6.6106   17.8202  -32.8758 H   0  0  0  0  0  0  0  0  0  0  0  0
   -6.0400   19.8500  -32.3810 C   0  0  0  0  0  0  0  0  0  0  0  0
   -4.9631   19.6372  -32.4519 H   0  0  0  0  0  0  0  0  0  0  0  0
   -6.4760   21.1540  -32.0530 C   0  0  0  0  0  0  0  0  0  0  0  0
   -3.2280   22.7250  -29.7140 C   0  0  0  0  0  0  0  0  0  0  0  0
   -2.2160   23.6980  -29.7130 C   0  0  0  0  0  0  0  0  0  0  0  0
   -1.5082   23.7511  -30.5533 H   0  0  0  0  0  0  0  0  0  0  0  0
   -2.1050   24.5760  -28.6790 N   0  0  0  0  0  0  0  0  0  0  0  0
   -2.9620   24.5530  -27.6260 C   0  0  0  0  0  0  0  0  0  0  0  0
   -2.8426   25.2739  -26.8038 H   0  0  0  0  0  0  0  0  0  0  0  0
   -3.9940   23.6150  -27.5870 C   0  0  0  0  0  0  0  0  0  0  0  0
   -4.6939   23.5955  -26.7387 H   0  0  0  0  0  0  0  0  0  0  0  0
   -4.1310   22.7010  -28.6340 C   0  0  0  0  0  0  0  0  0  0  0  0
   -4.9452   21.9616  -28.6149 H   0  0  0  0  0  0  0  0  0  0  0  0
  1  2  1  0
  2  3  2  0
  3  4  1  0
  3  5  1  0
  5  6  2  0
  6  7  1  0
  7  8  1  0
  8  9  1  0
  8 10  1  0
  8 11  1  0
  6 12  1  0
 12 13  1  0
 12 14  2  0
 14 15  1  0
 14 16  1  0
 16 17  2  0
 17 18  1  0
 17 19  1  0
 19 20  1  0
 19 21  2  0
 21 22  1  0
 21 23  1  0
 23 24  1  0
 23 25  2  0
  2 26  1  0
 26 27  2  0
 27 28  1  0
 27 29  1  0
 29 30  2  0
 30 31  1  0
 30 32  1  0
 32 33  1  0
 32 34  2  0
 34 35  1  0
 25  5  1  0
 34 26  1  0
 25 16  1  0
M  END
>  <UniqueID>  (48) 
45

>  <SMILES>  (48) 
COc1ccc2ccccc2c1/C=C/c1cccnc1

>  <Energy>  (48) 
51.12605800613645

>  <Genealogy>  (48) 
COc1ccc2ccccc2c1/C=C/c1cccnc1 (cis-trans isomerization)
COc1ccc2ccccc2c1/C=C/c1cccnc1 (3D coordinates assigned)
COc1ccc2ccccc2c1/C=C/c1cccnc1 (optimized conformer: 51.12605800613645 kcal/mol)

>  <smiles>  (48) 
COc1ccc2ccccc2c1C=Cc1cccnc1

>  <score_type>  (48) 
oracle

>  <origin>  (48) 
adg

>  <m_score__min__energy>  (48) 
-7.71

>  <m_primary>  (48) 
energy

$$$$
