0:0
     RDKit          3D

 48 50  0  0  0  0  0  0  0  0999 V2000
   -4.9890   16.7140  -32.9710 C   0  0  0  0  0  0  0  0  0  0  0  0
   -5.5200   18.0090  -32.5280 N   0  0  0  0  0  0  0  0  0  0  0  0
   -6.1910   18.1000  -31.2270 C   0  0  0  0  0  0  0  0  0  0  0  0
   -5.3610   19.1520  -33.4070 C   0  0  0  0  0  0  0  0  0  0  0  0
   -4.8880   18.9700  -34.5630 O   0  0  0  0  0  0  0  0  0  0  0  0
   -5.6810   20.5880  -33.0050 C   0  0  1  0  0  0  0  0  0  0  0  0
   -7.1450   20.7810  -32.6330 C   0  0  0  0  0  0  0  0  0  0  0  0
   -7.6050   21.9000  -31.9020 C   0  0  0  0  0  0  0  0  0  0  0  0
   -8.9590   22.0290  -31.5810 C   0  0  0  0  0  0  0  0  0  0  0  0
   -9.8710   21.0510  -31.9810 C   0  0  0  0  0  0  0  0  0  0  0  0
   -9.4320   19.9400  -32.7040 C   0  0  0  0  0  0  0  0  0  0  0  0
   -8.0790   19.8050  -33.0290 C   0  0  0  0  0  0  0  0  0  0  0  0
   -4.6890   21.1960  -32.0180 C   0  0  0  0  0  0  0  0  0  0  0  0
   -4.6100   22.5940  -31.9100 C   0  0  0  0  0  0  0  0  0  0  0  0
   -3.7250   23.1900  -31.0120 C   0  0  0  0  0  0  0  0  0  0  0  0
   -2.9090   22.3820  -30.2070 C   0  0  0  0  0  0  0  0  0  0  0  0
   -1.9700   22.9610  -29.2800 N   0  0  0  0  0  0  0  0  0  0  0  0
   -0.6860   22.2840  -29.0510 C   0  0  0  0  0  0  0  0  0  0  0  0
    0.2350   23.1440  -28.1830 C   0  0  0  0  0  0  0  0  0  0  0  0
    0.1200   24.5450  -28.5980 N   0  0  0  0  0  0  0  0  0  0  0  0
   -1.2090   25.1050  -28.2870 C   0  0  0  0  0  0  0  0  0  0  0  0
   -2.3520   24.0740  -28.4010 C   0  0  0  0  0  0  0  0  0  0  0  0
   -2.9760   21.0290  -30.3420 N   0  0  0  0  0  0  0  0  0  0  0  0
   -3.8310   20.4250  -31.2090 C   0  0  0  0  0  0  0  0  0  0  0  0
   -4.7377   16.1010  -32.0929 H   0  0  0  0  0  0  0  0  0  0  0  0
   -5.7467   16.1946  -33.5760 H   0  0  0  0  0  0  0  0  0  0  0  0
   -4.0847   16.8761  -33.5760 H   0  0  0  0  0  0  0  0  0  0  0  0
   -5.4471   17.9991  -30.4229 H   0  0  0  0  0  0  0  0  0  0  0  0
   -6.6939   19.0746  -31.1412 H   0  0  0  0  0  0  0  0  0  0  0  0
   -6.9352   17.2946  -31.1412 H   0  0  0  0  0  0  0  0  0  0  0  0
   -5.5342   21.1906  -33.9135 H   0  0  0  0  0  0  0  0  0  0  0  0
   -6.8921   22.6748  -31.5835 H   0  0  0  0  0  0  0  0  0  0  0  0
   -9.3069   22.9035  -31.0116 H   0  0  0  0  0  0  0  0  0  0  0  0
  -10.9361   21.1555  -31.7266 H   0  0  0  0  0  0  0  0  0  0  0  0
  -10.1518   19.1699  -33.0183 H   0  0  0  0  0  0  0  0  0  0  0  0
   -7.7409   18.9275  -33.5997 H   0  0  0  0  0  0  0  0  0  0  0  0
   -5.2531   23.2256  -32.5405 H   0  0  0  0  0  0  0  0  0  0  0  0
   -3.6674   24.2858  -30.9357 H   0  0  0  0  0  0  0  0  0  0  0  0
   -0.8692   21.3258  -28.5428 H   0  0  0  0  0  0  0  0  0  0  0  0
   -0.1984   22.1153  -30.0225 H   0  0  0  0  0  0  0  0  0  0  0  0
   -0.0591   23.0478  -27.1274 H   0  0  0  0  0  0  0  0  0  0  0  0
    1.2754   22.8076  -28.3029 H   0  0  0  0  0  0  0  0  0  0  0  0
    0.8400   25.1000  -28.0800 H   0  0  0  0  0  0  0  0  0  0  0  0
   -1.1914   25.4933  -27.2580 H   0  0  0  0  0  0  0  0  0  0  0  0
   -1.4094   25.8942  -29.0266 H   0  0  0  0  0  0  0  0  0  0  0  0
   -2.5821   23.6796  -27.4002 H   0  0  0  0  0  0  0  0  0  0  0  0
   -3.2333   24.5733  -28.8299 H   0  0  0  0  0  0  0  0  0  0  0  0
   -3.8532   19.3275  -31.2795 H   0  0  0  0  0  0  0  0  0  0  0  0
  1  2  1  0
  2  3  1  0
  2  4  1  0
  4  5  2  0
  4  6  1  0
  6  7  1  0
  7  8  2  0
  8  9  1  0
  9 10  2  0
 10 11  1  0
 11 12  2  0
  6 13  1  0
 13 14  2  0
 14 15  1  0
 15 16  2  0
 16 17  1  0
 17 18  1  0
 18 19  1  0
 19 20  1  0
 20 21  1  0
 21 22  1  0
 16 23  1  0
 23 24  2  0
 12  7  1  0
 24 13  1  0
 22 17  1  0
  1 25  1  0
  1 26  1  0
  1 27  1  0
  3 28  1  0
  3 29  1  0
  3 30  1  0
  6 31  1  6
  8 32  1  0
  9 33  1  0
 10 34  1  0
 11 35  1  0
 12 36  1  0
 14 37  1  0
 15 38  1  0
 18 39  1  0
 18 40  1  0
 19 41  1  0
 19 42  1  0
 20 43  1  0
 21 44  1  0
 21 45  1  0
 22 46  1  0
 22 47  1  0
 24 48  1  0
M  END
>  <UniqueID>  (1) 
1

>  <SMILES>  (1) 
CN(C)C(=O)[C@@H](c1ccccc1)c1ccc(N2CCNCC2)nc1

>  <Energy>  (1) 
62.30869271971916

>  <Genealogy>  (1) 
CN(C)C(=O)[C@@H](c1ccccc1)c1ccc(N2CCNCC2)nc1 (chirality)
CN(C)C(=O)[C@@H](c1ccccc1)c1ccc(N2CCNCC2)nc1 (3D coordinates assigned)
CN(C)C(=O)[C@@H](c1ccccc1)c1ccc(N2CCNCC2)nc1 (nonaromatic ring conformer: 62.30869271971916 kcal/mol)

>  <smiles>  (1) 
CN(C)C(=O)C(c1ccccc1)c1ccc(N2CCNCC2)nc1

>  <score_type>  (1) 
oracle

>  <origin>  (1) 
adg

>  <m_score__min__energy>  (1) 
-7.7300000000000004

>  <m_primary>  (1) 
energy

$$$$
1:0
     RDKit          3D

 25 26  0  0  0  0  0  0  0  0999 V2000
   -3.7030   24.1610  -28.2430 C   0  0  0  0  0  0  0  0  0  0  0  0
   -2.8070   24.5670  -29.4090 C   0  0  0  0  0  0  0  0  0  0  0  0
   -3.5690   25.2680  -30.4380 N   0  0  0  0  0  0  0  0  0  0  0  0
   -4.9370   25.0520  -30.8180 C   0  0  0  0  0  0  0  0  0  0  0  0
   -5.7370   26.0200  -30.7280 O   0  0  0  0  0  0  0  0  0  0  0  0
   -5.4550   23.7550  -31.3040 C   0  0  0  0  0  0  0  0  0  0  0  0
   -6.8120   23.4270  -31.3810 C   0  0  0  0  0  0  0  0  0  0  0  0
   -7.0330   22.1660  -31.9430 C   0  0  0  0  0  0  0  0  0  0  0  0
   -8.2750   21.5580  -32.1440 C   0  0  0  0  0  0  0  0  0  0  0  0
   -8.3210   20.2810  -32.7310 C   0  0  0  0  0  0  0  0  0  0  0  0
   -9.5540   19.6650  -32.9350 O   0  0  0  0  0  0  0  0  0  0  0  0
   -7.1250   19.6300  -33.1090 C   0  0  0  0  0  0  0  0  0  0  0  0
   -5.8840   20.2520  -32.9040 C   0  0  0  0  0  0  0  0  0  0  0  0
   -5.8700   21.5150  -32.3200 C   0  0  0  0  0  0  0  0  0  0  0  0
   -4.5480   22.4860  -31.9690 S   0  0  0  0  0  0  0  0  0  0  0  0
   -3.1963   24.3906  -27.2940 H   0  0  0  0  0  0  0  0  0  0  0  0
   -4.6501   24.7179  -28.2971 H   0  0  0  0  0  0  0  0  0  0  0  0
   -3.9087   23.0818  -28.2971 H   0  0  0  0  0  0  0  0  0  0  0  0
   -2.0115   25.2295  -29.0371 H   0  0  0  0  0  0  0  0  0  0  0  0
   -2.3765   23.6569  -29.8522 H   0  0  0  0  0  0  0  0  0  0  0  0
   -7.6192   24.0900  -31.0363 H   0  0  0  0  0  0  0  0  0  0  0  0
   -9.2022   22.0703  -31.8477 H   0  0  0  0  0  0  0  0  0  0  0  0
   -9.8200   19.3010  -33.8420 H   0  0  0  0  0  0  0  0  0  0  0  0
   -7.1671   18.6305  -33.5663 H   0  0  0  0  0  0  0  0  0  0  0  0
   -4.9476   19.7547  -33.1970 H   0  0  0  0  0  0  0  0  0  0  0  0
  1  2  1  0
  2  3  1  0
  3  4  1  0
  4  5  2  0
  4  6  1  0
  6  7  2  0
  7  8  1  0
  8  9  2  0
  9 10  1  0
 10 11  1  0
 10 12  2  0
 12 13  1  0
 13 14  2  0
 14 15  1  0
 15  6  1  0
 14  8  1  0
  1 16  1  0
  1 17  1  0
  1 18  1  0
  2 19  1  0
  2 20  1  0
  7 21  1  0
  9 22  1  0
 11 23  1  0
 12 24  1  0
 13 25  1  0
M  CHG  1   3  -1
M  END
>  <UniqueID>  (2) 
2

>  <SMILES>  (2) 
CC[N-]C(=O)c1cc2cc(O)ccc2s1

>  <Energy>  (2) 
55.42391045743337

>  <Genealogy>  (2) 
CC[N-]C(=O)c1cc2cc(O)ccc2s1 (protonated)
CC[N-]C(=O)c1cc2cc(O)ccc2s1 (3D coordinates assigned)
CC[N-]C(=O)c1cc2cc(O)ccc2s1 (optimized conformer: 55.42391045743337 kcal/mol)

>  <smiles>  (2) 
CCNC(=O)c1cc2cc(O)ccc2s1

>  <score_type>  (2) 
oracle

>  <origin>  (2) 
adg

>  <m_score__min__energy>  (2) 
-8.3000000000000007

>  <m_primary>  (2) 
energy

$$$$
2:0
     RDKit          3D

 25 27  0  0  0  0  0  0  0  0999 V2000
   -5.5870   16.6290  -33.5870 C   0  0  0  0  0  0  0  0  0  0  0  0
   -5.2730   15.9610  -32.4070 C   0  0  0  0  0  0  0  0  0  0  0  0
   -5.7360   16.4390  -31.2220 N   0  0  0  0  0  0  0  0  0  0  0  0
   -6.4890   17.5400  -31.1670 N   0  0  0  0  0  0  0  0  0  0  0  0
   -6.8250   18.2390  -32.2860 C   0  0  0  0  0  0  0  0  0  0  0  0
   -7.6550   19.4120  -32.1860 N   0  0  0  0  0  0  0  0  0  0  0  0
   -9.0100   19.4230  -32.1060 C   0  0  0  0  0  0  0  0  0  0  0  0
   -9.4870   20.7200  -31.9740 C   0  0  0  0  0  0  0  0  0  0  0  0
   -8.3680   21.5210  -31.9770 C   0  0  0  0  0  0  0  0  0  0  0  0
   -8.2560   22.9070  -31.8880 C   0  0  0  0  0  0  0  0  0  0  0  0
   -6.9690   23.4680  -31.9420 C   0  0  0  0  0  0  0  0  0  0  0  0
   -5.8350   22.6400  -32.0930 C   0  0  0  0  0  0  0  0  0  0  0  0
   -5.9780   21.2430  -32.1820 C   0  0  0  0  0  0  0  0  0  0  0  0
   -7.2700   20.7070  -32.1070 C   0  0  0  0  0  0  0  0  0  0  0  0
   -6.3710   17.7780  -33.5290 C   0  0  0  0  0  0  0  0  0  0  0  0
   -5.2201   16.2536  -34.5537 H   0  0  0  0  0  0  0  0  0  0  0  0
   -4.6541   15.0520  -32.4334 H   0  0  0  0  0  0  0  0  0  0  0  0
   -5.5020   15.9360  -30.3380 H   0  0  0  0  0  0  0  0  0  0  0  0
   -9.6446   18.5252  -32.1410 H   0  0  0  0  0  0  0  0  0  0  0  0
  -10.5359   21.0394  -31.8858 H   0  0  0  0  0  0  0  0  0  0  0  0
   -9.1474   23.5422  -31.7789 H   0  0  0  0  0  0  0  0  0  0  0  0
   -6.8440   24.5582  -31.8662 H   0  0  0  0  0  0  0  0  0  0  0  0
   -4.8326   23.0904  -32.1414 H   0  0  0  0  0  0  0  0  0  0  0  0
   -5.1009   20.5909  -32.3068 H   0  0  0  0  0  0  0  0  0  0  0  0
   -6.6317   18.3191  -34.4506 H   0  0  0  0  0  0  0  0  0  0  0  0
  1  2  2  0
  2  3  1  0
  3  4  2  0
  4  5  1  0
  5  6  1  0
  6  7  1  0
  7  8  2  0
  8  9  1  0
  9 10  2  0
 10 11  1  0
 11 12  2  0
 12 13  1  0
 13 14  2  0
  5 15  2  0
 15  1  1  0
 14  6  1  0
 14  9  1  0
  1 16  1  0
  2 17  1  0
  3 18  1  0
  7 19  1  0
  8 20  1  0
 10 21  1  0
 11 22  1  0
 12 23  1  0
 13 24  1  0
 15 25  1  0
M  CHG  1   3   1
M  END
>  <UniqueID>  (3) 
3

>  <SMILES>  (3) 
c1c[nH+]nc(-n2ccc3ccccc32)c1

>  <Energy>  (3) 
65.81445949392821

>  <Genealogy>  (3) 
c1c[nH+]nc(-n2ccc3ccccc32)c1 (protonated)
c1c[nH+]nc(-n2ccc3ccccc32)c1 (3D coordinates assigned)
c1c[nH+]nc(-n2ccc3ccccc32)c1 (optimized conformer: 65.81445949392821 kcal/mol)

>  <smiles>  (3) 
c1cnnc(-n2ccc3ccccc32)c1

>  <score_type>  (3) 
oracle

>  <origin>  (3) 
adg

>  <m_score__min__energy>  (3) 
-6.6699999999999999

>  <m_primary>  (3) 
energy

$$$$
3:0
     RDKit          3D

 44 48  0  0  0  0  0  0  0  0999 V2000
  -10.9072   21.1609  -32.3399 H   0  0  0  0  0  0  0  0  0  0  0  0
   -9.8140   21.1930  -32.2220 C   0  0  0  0  0  0  0  0  0  0  0  0
   -9.0570   20.1520  -32.6510 N   0  0  0  0  0  0  0  0  0  0  0  0
   -7.7020   20.1310  -32.5260 C   0  0  0  0  0  0  0  0  0  0  0  0
   -6.9870   18.9680  -33.0870 C   0  0  0  0  0  0  0  0  0  0  0  0
   -7.2410   17.3740  -32.6210 S   0  0  0  0  0  0  0  0  0  0  0  0
   -6.2260   16.6670  -33.7690 C   0  0  0  0  0  0  0  0  0  0  0  0
   -5.9730   15.2090  -33.9160 C   0  0  0  0  0  0  0  0  0  0  0  0
   -4.7690   14.6460  -33.4500 C   0  0  0  0  0  0  0  0  0  0  0  0
   -4.0143   15.2895  -32.9743 H   0  0  0  0  0  0  0  0  0  0  0  0
   -4.5250   13.2760  -33.5870 C   0  0  0  0  0  0  0  0  0  0  0  0
   -3.3630   12.7470  -33.1320 F   0  0  0  0  0  0  0  0  0  0  0  0
   -5.4760   12.4520  -34.1900 C   0  0  0  0  0  0  0  0  0  0  0  0
   -5.2830   11.3741  -34.2948 H   0  0  0  0  0  0  0  0  0  0  0  0
   -6.6720   12.9960  -34.6600 C   0  0  0  0  0  0  0  0  0  0  0  0
   -7.5930   12.1950  -35.2510 F   0  0  0  0  0  0  0  0  0  0  0  0
   -6.9220   14.3650  -34.5260 C   0  0  0  0  0  0  0  0  0  0  0  0
   -7.8669   14.7864  -34.8997 H   0  0  0  0  0  0  0  0  0  0  0  0
   -5.6970   17.6920  -34.5570 C   0  0  0  0  0  0  0  0  0  0  0  0
   -5.0031   17.5123  -35.3914 H   0  0  0  0  0  0  0  0  0  0  0  0
   -6.1330   18.9700  -34.1850 C   0  0  0  0  0  0  0  0  0  0  0  0
   -5.8292   19.8873  -34.7107 H   0  0  0  0  0  0  0  0  0  0  0  0
   -7.0450   21.2170  -31.8900 C   0  0  0  0  0  0  0  0  0  0  0  0
   -5.6580   21.2260  -31.6340 C   0  0  0  0  0  0  0  0  0  0  0  0
   -5.0442   20.3612  -31.9261 H   0  0  0  0  0  0  0  0  0  0  0  0
   -5.0570   22.3230  -31.0130 C   0  0  0  0  0  0  0  0  0  0  0  0
   -3.9714   22.3234  -30.8355 H   0  0  0  0  0  0  0  0  0  0  0  0
   -5.8270   23.4220  -30.6150 C   0  0  0  0  0  0  0  0  0  0  0  0
   -5.0600   24.8090  -29.8480 S   0  0  0  0  0  0  0  0  0  0  0  0
   -6.1160   25.7310  -29.3060 O   0  0  0  0  0  0  0  0  0  0  0  0
   -4.2300   25.5460  -30.8620 O   0  0  0  0  0  0  0  0  0  0  0  0
   -4.0490   24.2450  -28.5550 N   0  0  0  0  0  0  0  0  0  0  0  0
   -2.8090   24.5900  -28.3920 C   0  0  0  0  0  0  0  0  0  0  0  0
   -2.1060   25.2490  -29.3290 N   0  0  0  0  0  0  0  0  0  0  0  0
   -0.9160   25.4300  -28.8340 O   0  0  0  0  0  0  0  0  0  0  0  0
   -0.8140   24.9230  -27.6250 C   0  0  0  0  0  0  0  0  0  0  0  0
    0.0866   24.9460  -26.9938 H   0  0  0  0  0  0  0  0  0  0  0  0
   -2.0230   24.3580  -27.2800 C   0  0  0  0  0  0  0  0  0  0  0  0
   -2.2959   23.8462  -26.3453 H   0  0  0  0  0  0  0  0  0  0  0  0
   -7.2080   23.4170  -30.8380 C   0  0  0  0  0  0  0  0  0  0  0  0
   -7.8150   24.2797  -30.5259 H   0  0  0  0  0  0  0  0  0  0  0  0
   -7.8240   22.3190  -31.4570 C   0  0  0  0  0  0  0  0  0  0  0  0
   -9.2120   22.3020  -31.6330 C   0  0  0  0  0  0  0  0  0  0  0  0
   -9.8226   23.1576  -31.3088 H   0  0  0  0  0  0  0  0  0  0  0  0
  1  2  1  0
  2  3  2  0
  3  4  1  0
  4  5  1  0
  5  6  1  0
  6  7  1  0
  7  8  1  0
  8  9  2  0
  9 10  1  0
  9 11  1  0
 11 12  1  0
 11 13  2  0
 13 14  1  0
 13 15  1  0
 15 16  1  0
 15 17  2  0
 17 18  1  0
  7 19  2  0
 19 20  1  0
 19 21  1  0
 21 22  1  0
  4 23  2  0
 23 24  1  0
 24 25  1  0
 24 26  2  0
 26 27  1  0
 26 28  1  0
 28 29  1  0
 29 30  2  0
 29 31  2  0
 29 32  1  0
 32 33  2  0
 33 34  1  0
 34 35  1  0
 35 36  1  0
 36 37  1  0
 36 38  2  0
 38 39  1  0
 28 40  2  0
 40 41  1  0
 40 42  1  0
 42 43  2  0
 43 44  1  0
 43  2  1  0
 21  5  2  0
 42 23  1  0
 17  8  1  0
 38 33  1  0
M  CHG  1  34  -1
M  END
>  <UniqueID>  (4) 
4

>  <SMILES>  (4) 
O=S(=O)(/N=c1\cco[n-]1)c1ccc2c(-c3ccc(-c4cc(F)cc(F)c4)s3)nccc2c1

>  <Energy>  (4) 
125.76613957766989

>  <Genealogy>  (4) 
O=S(=O)(N=c1cco[n-]1)c1ccc2c(-c3ccc(-c4cc(F)cc(F)c4)s3)nccc2c1 (protonated)
O=S(=O)(/N=c1\cco[n-]1)c1ccc2c(-c3ccc(-c4cc(F)cc(F)c4)s3)nccc2c1 (cis-trans isomerization)
O=S(=O)(/N=c1\cco[n-]1)c1ccc2c(-c3ccc(-c4cc(F)cc(F)c4)s3)nccc2c1 (3D coordinates assigned)
O=S(=O)(/N=c1\cco[n-]1)c1ccc2c(-c3ccc(-c4cc(F)cc(F)c4)s3)nccc2c1 (optimized conformer: 125.76613957766989 kcal/mol)

>  <smiles>  (4) 
O=S(=O)(N=c1cco[nH]1)c1ccc2c(-c3ccc(-c4cc(F)cc(F)c4)s3)nccc2c1

>  <score_type>  (4) 
oracle

>  <origin>  (4) 
adg

>  <m_score__min__energy>  (4) 
-12.73

>  <m_primary>  (4) 
energy

$$$$
4:0
     RDKit          3D

 47 49  0  0  0  0  0  0  0  0999 V2000
   -6.3205   24.7249  -32.6152 H   0  0  0  0  0  0  0  0  0  0  0  0
   -6.2280   24.2130  -31.6460 C   0  0  0  0  0  0  0  0  0  0  0  0
   -5.0220   24.4960  -30.8380 C   0  0  0  0  0  0  0  0  0  0  0  0
   -4.5520   25.6660  -30.8020 O   0  0  0  0  0  0  0  0  0  0  0  0
   -4.2940   23.4030  -30.1480 C   0  0  0  0  0  0  0  0  0  0  0  0
   -4.3890   23.2980  -28.7510 C   0  0  0  0  0  0  0  0  0  0  0  0
   -5.0111   24.0129  -28.1926 H   0  0  0  0  0  0  0  0  0  0  0  0
   -3.7030   22.2970  -28.0640 C   0  0  0  0  0  0  0  0  0  0  0  0
   -3.7849   22.2314  -26.9690 H   0  0  0  0  0  0  0  0  0  0  0  0
   -2.9100   21.3740  -28.7590 C   0  0  0  0  0  0  0  0  0  0  0  0
   -2.1970   20.3400  -28.0540 N   0  0  0  0  0  0  0  0  0  0  0  0
   -0.8230   20.0030  -28.4420 C   0  0  0  0  0  0  0  0  0  0  0  0
   -0.6996   20.1579  -29.5240 H   0  0  0  0  0  0  0  0  0  0  0  0
   -0.1201   20.6487  -27.8953 H   0  0  0  0  0  0  0  0  0  0  0  0
   -0.5380   18.5370  -28.1010 C   0  0  0  0  0  0  0  0  0  0  0  0
   -1.1518   17.8907  -28.7457 H   0  0  0  0  0  0  0  0  0  0  0  0
    0.5311   18.3376  -28.2663 H   0  0  0  0  0  0  0  0  0  0  0  0
   -0.8460   18.2680  -26.7460 O   0  0  0  0  0  0  0  0  0  0  0  0
   -2.2380   18.4210  -26.5310 C   0  0  0  0  0  0  0  0  0  0  0  0
   -2.7846   17.7779  -27.2365 H   0  0  0  0  0  0  0  0  0  0  0  0
   -2.4680   18.1345  -25.4942 H   0  0  0  0  0  0  0  0  0  0  0  0
   -2.6650   19.8760  -26.7440 C   0  0  0  0  0  0  0  0  0  0  0  0
   -3.7620   19.9454  -26.7017 H   0  0  0  0  0  0  0  0  0  0  0  0
   -2.2252   20.5046  -25.9557 H   0  0  0  0  0  0  0  0  0  0  0  0
   -2.8310   21.4550  -30.1570 C   0  0  0  0  0  0  0  0  0  0  0  0
   -2.2225   20.7238  -30.7093 H   0  0  0  0  0  0  0  0  0  0  0  0
   -3.5210   22.4610  -30.8640 C   0  0  0  0  0  0  0  0  0  0  0  0
   -3.4900   22.5300  -32.2700 O   0  0  0  0  0  0  0  0  0  0  0  0
   -3.2150   21.4470  -33.1590 C   0  0  0  0  0  0  0  0  0  0  0  0
   -3.5674   21.7097  -34.1674 H   0  0  0  0  0  0  0  0  0  0  0  0
   -3.7355   20.5496  -32.7933 H   0  0  0  0  0  0  0  0  0  0  0  0
   -1.7190   21.1570  -33.2120 C   0  0  0  0  0  0  0  0  0  0  0  0
   -1.3239   21.0804  -32.1883 H   0  0  0  0  0  0  0  0  0  0  0  0
   -1.5479   20.2090  -33.7430 H   0  0  0  0  0  0  0  0  0  0  0  0
   -1.2060   21.9724  -33.7430 H   0  0  0  0  0  0  0  0  0  0  0  0
   -7.2190   23.3800  -31.2890 C   0  0  0  0  0  0  0  0  0  0  0  0
   -8.0265   23.7916  -30.6657 H   0  0  0  0  0  0  0  0  0  0  0  0
   -7.3110   21.9540  -31.6670 C   0  0  0  0  0  0  0  0  0  0  0  0
   -6.2740   21.3660  -32.4040 C   0  0  0  0  0  0  0  0  0  0  0  0
   -5.4180   21.9761  -32.7281 H   0  0  0  0  0  0  0  0  0  0  0  0
   -6.3220   20.0440  -32.7200 N   0  0  0  0  0  0  0  0  0  0  0  0
   -7.3540   19.2510  -32.3250 C   0  0  0  0  0  0  0  0  0  0  0  0
   -7.3620   17.5540  -32.7620 Cl  0  0  0  0  0  0  0  0  0  0  0  0
   -8.3940   19.7860  -31.5620 C   0  0  0  0  0  0  0  0  0  0  0  0
   -9.2259   19.1470  -31.2309 H   0  0  0  0  0  0  0  0  0  0  0  0
   -8.3670   21.1390  -31.2240 C   0  0  0  0  0  0  0  0  0  0  0  0
   -9.1726   21.5684  -30.6104 H   0  0  0  0  0  0  0  0  0  0  0  0
  1  2  1  0
  2  3  1  0
  3  4  2  0
  3  5  1  0
  5  6  2  0
  6  7  1  0
  6  8  1  0
  8  9  1  0
  8 10  2  0
 10 11  1  0
 11 12  1  0
 12 13  1  0
 12 14  1  0
 12 15  1  0
 15 16  1  0
 15 17  1  0
 15 18  1  0
 18 19  1  0
 19 20  1  0
 19 21  1  0
 19 22  1  0
 22 23  1  0
 22 24  1  0
 10 25  1  0
 25 26  1  0
 25 27  2  0
 27 28  1  0
 28 29  1  0
 29 30  1  0
 29 31  1  0
 29 32  1  0
 32 33  1  0
 32 34  1  0
 32 35  1  0
  2 36  2  0
 36 37  1  0
 36 38  1  0
 38 39  2  0
 39 40  1  0
 39 41  1  0
 41 42  2  0
 42 43  1  0
 42 44  1  0
 44 45  1  0
 44 46  2  0
 46 47  1  0
 27  5  1  0
 46 38  1  0
 22 11  1  0
M  END
>  <UniqueID>  (5) 
5

>  <SMILES>  (5) 
CCOc1cc(N2CCOCC2)ccc1C(=O)/C=C\c1ccc(Cl)nc1

>  <Energy>  (5) 
63.7128305234666

>  <Genealogy>  (5) 
CCOc1cc(N2CCOCC2)ccc1C(=O)/C=C\c1ccc(Cl)nc1 (cis-trans isomerization)
CCOc1cc(N2CCOCC2)ccc1C(=O)/C=C\c1ccc(Cl)nc1 (3D coordinates assigned)
CCOc1cc(N2CCOCC2)ccc1C(=O)/C=C\c1ccc(Cl)nc1 (nonaromatic ring conformer: 63.7128305234666 kcal/mol)

>  <smiles>  (5) 
CCOc1cc(N2CCOCC2)ccc1C(=O)C=Cc1ccc(Cl)nc1

>  <score_type>  (5) 
oracle

>  <origin>  (5) 
adg

>  <m_score__min__energy>  (5) 
-9.5

>  <m_primary>  (5) 
energy

$$$$
5:0
     RDKit          3D

 49 52  0  0  0  0  0  0  0  0999 V2000
   -6.7990   15.5620  -33.8360 C   0  0  0  0  0  0  0  0  0  0  0  0
   -6.2470   16.8690  -33.4390 N   0  0  0  0  0  0  0  0  0  0  0  0
   -6.1280   17.7530  -34.6160 C   0  0  0  0  0  0  0  0  0  0  0  0
   -5.3450   19.0150  -34.2400 C   0  0  0  0  0  0  0  0  0  0  0  0
   -5.7790   19.5250  -32.9350 N   0  0  0  0  0  0  0  0  0  0  0  0
   -4.9860   20.5150  -32.2590 C   0  0  0  0  0  0  0  0  0  0  0  0
   -3.7190   20.2690  -32.0820 N   0  0  0  0  0  0  0  0  0  0  0  0
   -2.7120   21.3320  -31.1820 S   0  0  0  0  0  0  0  0  0  0  0  0
   -2.0210   22.3030  -32.0950 O   0  0  0  0  0  0  0  0  0  0  0  0
   -1.6970   20.5400  -30.4080 O   0  0  0  0  0  0  0  0  0  0  0  0
   -3.7870   22.1670  -30.1240 N   0  0  0  0  0  0  0  0  0  0  0  0
   -3.6420   22.0300  -28.6710 C   0  0  0  0  0  0  0  0  0  0  0  0
   -2.9770   23.2550  -28.0970 C   0  0  0  0  0  0  0  0  0  0  0  0
   -1.6990   23.6450  -28.5300 C   0  0  0  0  0  0  0  0  0  0  0  0
   -1.0630   24.7480  -27.9500 C   0  0  0  0  0  0  0  0  0  0  0  0
   -1.6950   25.4660  -26.9330 C   0  0  0  0  0  0  0  0  0  0  0  0
   -2.9680   25.0900  -26.4990 C   0  0  0  0  0  0  0  0  0  0  0  0
   -3.6080   23.9890  -27.0770 C   0  0  0  0  0  0  0  0  0  0  0  0
   -5.0400   22.5540  -30.7100 C   0  0  0  0  0  0  0  0  0  0  0  0
   -5.6810   23.7280  -30.2760 C   0  0  0  0  0  0  0  0  0  0  0  0
   -6.8790   24.1380  -30.8570 C   0  0  0  0  0  0  0  0  0  0  0  0
   -7.4440   23.3950  -31.8920 C   0  0  0  0  0  0  0  0  0  0  0  0
   -6.8170   22.2330  -32.3420 C   0  0  0  0  0  0  0  0  0  0  0  0
   -5.6220   21.7810  -31.7530 C   0  0  0  0  0  0  0  0  0  0  0  0
   -7.0150   19.0190  -32.3250 C   0  0  0  0  0  0  0  0  0  0  0  0
   -7.0750   17.4760  -32.3620 C   0  0  0  0  0  0  0  0  0  0  0  0
   -7.0451   14.9793  -32.9361 H   0  0  0  0  0  0  0  0  0  0  0  0
   -7.7094   15.7149  -34.4342 H   0  0  0  0  0  0  0  0  0  0  0  0
   -6.0546   15.0160  -34.4342 H   0  0  0  0  0  0  0  0  0  0  0  0
   -5.2850   16.6940  -33.0580 H   0  0  0  0  0  0  0  0  0  0  0  0
   -5.5988   17.2210  -35.4203 H   0  0  0  0  0  0  0  0  0  0  0  0
   -7.1334   18.0381  -34.9593 H   0  0  0  0  0  0  0  0  0  0  0  0
   -4.2725   18.7746  -34.1952 H   0  0  0  0  0  0  0  0  0  0  0  0
   -5.5317   19.7869  -35.0012 H   0  0  0  0  0  0  0  0  0  0  0  0
   -4.6363   21.9095  -28.2163 H   0  0  0  0  0  0  0  0  0  0  0  0
   -3.0206   21.1488  -28.4536 H   0  0  0  0  0  0  0  0  0  0  0  0
   -1.1958   23.0806  -29.3289 H   0  0  0  0  0  0  0  0  0  0  0  0
   -0.0634   25.0500  -28.2958 H   0  0  0  0  0  0  0  0  0  0  0  0
   -1.1900   26.3283  -26.4733 H   0  0  0  0  0  0  0  0  0  0  0  0
   -3.4677   25.6602  -25.7020 H   0  0  0  0  0  0  0  0  0  0  0  0
   -4.6104   23.6956  -26.7318 H   0  0  0  0  0  0  0  0  0  0  0  0
   -5.2325   24.3280  -29.4705 H   0  0  0  0  0  0  0  0  0  0  0  0
   -7.3797   25.0494  -30.4984 H   0  0  0  0  0  0  0  0  0  0  0  0
   -8.3857   23.7254  -32.3547 H   0  0  0  0  0  0  0  0  0  0  0  0
   -7.2634   21.6618  -33.1694 H   0  0  0  0  0  0  0  0  0  0  0  0
   -7.0595   19.3533  -31.2780 H   0  0  0  0  0  0  0  0  0  0  0  0
   -7.8680   19.4111  -32.8983 H   0  0  0  0  0  0  0  0  0  0  0  0
   -6.7210   17.0918  -31.3940 H   0  0  0  0  0  0  0  0  0  0  0  0
   -8.1200   17.2006  -32.5672 H   0  0  0  0  0  0  0  0  0  0  0  0
  1  2  1  0
  2  3  1  0
  3  4  1  0
  4  5  1  0
  5  6  1  0
  6  7  2  0
  7  8  1  0
  8  9  2  0
  8 10  2  0
  8 11  1  0
 11 12  1  0
 12 13  1  0
 13 14  2  0
 14 15  1  0
 15 16  2  0
 16 17  1  0
 17 18  2  0
 11 19  1  0
 19 20  2  0
 20 21  1  0
 21 22  2  0
 22 23  1  0
 23 24  2  0
  5 25  1  0
 25 26  1  0
 26  2  1  0
 24  6  1  0
 18 13  1  0
 24 19  1  0
  1 27  1  0
  1 28  1  0
  1 29  1  0
  2 30  1  0
  3 31  1  0
  3 32  1  0
  4 33  1  0
  4 34  1  0
 12 35  1  0
 12 36  1  0
 14 37  1  0
 15 38  1  0
 16 39  1  0
 17 40  1  0
 18 41  1  0
 20 42  1  0
 21 43  1  0
 22 44  1  0
 23 45  1  0
 25 46  1  0
 25 47  1  0
 26 48  1  0
 26 49  1  0
M  CHG  1   2   1
M  END
>  <UniqueID>  (6) 
6

>  <SMILES>  (6) 
C[NH+]1CCN(C2=NS(=O)(=O)N(Cc3ccccc3)c3ccccc32)CC1

>  <Energy>  (6) 
71.64610517128166

>  <Genealogy>  (6) 
C[NH+]1CCN(C2=NS(=O)(=O)N(Cc3ccccc3)c3ccccc32)CC1 (protonated)
C[NH+]1CCN(C2=NS(=O)(=O)N(Cc3ccccc3)c3ccccc32)CC1 (3D coordinates assigned)
C[NH+]1CCN(C2=NS(=O)(=O)N(Cc3ccccc3)c3ccccc32)CC1 (nonaromatic ring conformer: 71.64610517128166 kcal/mol)

>  <smiles>  (6) 
CN1CCN(C2=NS(=O)(=O)N(Cc3ccccc3)c3ccccc32)CC1

>  <score_type>  (6) 
oracle

>  <origin>  (6) 
adg

>  <m_score__min__energy>  (6) 
-7.5700000000000003

>  <m_primary>  (6) 
energy

$$$$
6:0
     RDKit          3D

 31 33  0  0  0  0  0  0  0  0999 V2000
   -1.4496   23.1873  -29.0914 H   0  0  0  0  0  0  0  0  0  0  0  0
   -1.8990   24.1610  -29.3360 C   0  0  0  0  0  0  0  0  0  0  0  0
   -1.2270   25.2610  -28.9650 C   0  0  0  0  0  0  0  0  0  0  0  0
   -0.6558   25.7919  -29.7408 H   0  0  0  0  0  0  0  0  0  0  0  0
   -1.1940   25.8150  -27.5970 C   0  0  0  0  0  0  0  0  0  0  0  0
   -0.4680   26.9350  -27.3210 N   0  0  0  0  0  0  0  0  0  0  0  0
   -0.4590   27.5000  -26.0840 C   0  0  0  0  0  0  0  0  0  0  0  0
    0.1438   28.4006  -25.8954 H   0  0  0  0  0  0  0  0  0  0  0  0
   -1.2140   26.9380  -25.0540 C   0  0  0  0  0  0  0  0  0  0  0  0
   -1.2026   27.3842  -24.0486 H   0  0  0  0  0  0  0  0  0  0  0  0
   -1.9840   25.8030  -25.3140 C   0  0  0  0  0  0  0  0  0  0  0  0
   -2.5879   25.3514  -24.5132 H   0  0  0  0  0  0  0  0  0  0  0  0
   -1.9860   25.2420  -26.5930 C   0  0  0  0  0  0  0  0  0  0  0  0
   -2.6038   24.3582  -26.8103 H   0  0  0  0  0  0  0  0  0  0  0  0
   -3.1910   24.1520  -30.0450 C   0  0  0  0  0  0  0  0  0  0  0  0
   -3.8680   23.0270  -30.3640 N   0  0  0  0  0  0  0  0  0  0  0  0
   -5.0050   23.4800  -30.9190 C   0  0  0  0  0  0  0  0  0  0  0  0
   -6.0830   22.6170  -31.4400 C   0  0  0  0  0  0  0  0  0  0  0  0
   -7.7020   22.7450  -30.9970 S   0  0  0  0  0  0  0  0  0  0  0  0
   -8.2740   21.4950  -31.9610 C   0  0  0  0  0  0  0  0  0  0  0  0
   -9.3204   21.1639  -32.0343 H   0  0  0  0  0  0  0  0  0  0  0  0
   -7.1990   20.9520  -32.6490 C   0  0  0  0  0  0  0  0  0  0  0  0
   -7.2993   20.1132  -33.3535 H   0  0  0  0  0  0  0  0  0  0  0  0
   -5.9700   21.5710  -32.3640 C   0  0  0  0  0  0  0  0  0  0  0  0
   -4.6850   21.1340  -33.0010 C   0  0  0  0  0  0  0  0  0  0  0  0
   -3.9536   20.8853  -32.2179 H   0  0  0  0  0  0  0  0  0  0  0  0
   -4.8685   20.2477  -33.6262 H   0  0  0  0  0  0  0  0  0  0  0  0
   -4.2901   21.9484  -33.6262 H   0  0  0  0  0  0  0  0  0  0  0  0
   -5.0000   24.8560  -30.9080 C   0  0  0  0  0  0  0  0  0  0  0  0
   -5.8018   25.5002  -31.2981 H   0  0  0  0  0  0  0  0  0  0  0  0
   -3.8580   25.2870  -30.3440 N   0  0  0  0  0  0  0  0  0  0  0  0
  1  2  1  0
  2  3  2  0
  3  4  1  0
  3  5  1  0
  5  6  2  0
  6  7  1  0
  7  8  1  0
  7  9  2  0
  9 10  1  0
  9 11  1  0
 11 12  1  0
 11 13  2  0
 13 14  1  0
  2 15  1  0
 15 16  2  0
 16 17  1  0
 17 18  1  0
 18 19  1  0
 19 20  1  0
 20 21  1  0
 20 22  2  0
 22 23  1  0
 22 24  1  0
 24 25  1  0
 25 26  1  0
 25 27  1  0
 25 28  1  0
 17 29  2  0
 29 30  1  0
 29 31  1  0
 13  5  1  0
 31 15  1  0
 24 18  2  0
M  CHG  1  31  -1
M  END
>  <UniqueID>  (7) 
7

>  <SMILES>  (7) 
Cc1ccsc1-c1c[n-]c(/C=C\c2ccccn2)n1

>  <Energy>  (7) 
91.59720142219363

>  <Genealogy>  (7) 
Cc1ccsc1-c1c[n-]c(C=Cc2ccccn2)n1 (protonated)
Cc1ccsc1-c1c[n-]c(/C=C\c2ccccn2)n1 (cis-trans isomerization)
Cc1ccsc1-c1c[n-]c(/C=C\c2ccccn2)n1 (3D coordinates assigned)
Cc1ccsc1-c1c[n-]c(/C=C\c2ccccn2)n1 (optimized conformer: 91.59720142219363 kcal/mol)

>  <smiles>  (7) 
Cc1ccsc1-c1c[nH]c(C=Cc2ccccn2)n1

>  <score_type>  (7) 
oracle

>  <origin>  (7) 
adg

>  <m_score__min__energy>  (7) 
-8.2300000000000004

>  <m_primary>  (7) 
energy

$$$$
7:0
     RDKit          3D

 61 65  0  0  0  0  0  0  0  0999 V2000
   -8.4150   19.0330  -33.0760 N   0  0  0  0  0  0  0  0  0  0  0  0
   -7.2000   18.4680  -32.4690 C   0  0  1  0  0  0  0  0  0  0  0  0
   -6.9190   17.0480  -33.0030 C   0  0  0  0  0  0  0  0  0  0  0  0
   -6.3150   17.0860  -34.4070 C   0  0  0  0  0  0  0  0  0  0  0  0
   -4.9710   17.8180  -34.3960 C   0  0  0  0  0  0  0  0  0  0  0  0
   -5.0210   19.1310  -33.6510 C   0  0  0  0  0  0  0  0  0  0  0  0
   -3.9780   20.0500  -33.8420 C   0  0  0  0  0  0  0  0  0  0  0  0
   -3.9290   21.2340  -33.1040 C   0  0  0  0  0  0  0  0  0  0  0  0
   -4.9120   21.5080  -32.1460 C   0  0  0  0  0  0  0  0  0  0  0  0
   -4.8700   22.7690  -31.3760 C   0  0  0  0  0  0  0  0  0  0  0  0
   -5.9570   23.6460  -31.5140 C   0  0  0  0  0  0  0  0  0  0  0  0
   -6.0360   24.8060  -30.7470 C   0  0  0  0  0  0  0  0  0  0  0  0
   -5.0370   25.1030  -29.8250 C   0  0  0  0  0  0  0  0  0  0  0  0
   -3.9210   24.2640  -29.6880 C   0  0  0  0  0  0  0  0  0  0  0  0
   -3.8150   23.0920  -30.4750 C   0  0  0  0  0  0  0  0  0  0  0  0
   -2.5690   22.2790  -30.3510 C   0  0  0  0  0  0  0  0  0  0  0  0
   -2.3840   21.2640  -31.0750 O   0  0  0  0  0  0  0  0  0  0  0  0
   -1.5410   22.6850  -29.4270 N   0  0  0  0  0  0  0  0  0  0  0  0
   -0.3870   21.8110  -29.1690 C   0  0  0  0  0  0  0  0  0  0  0  0
   -0.5060   21.0840  -27.8190 C   0  0  0  0  0  0  0  0  0  0  0  0
   -1.5300   20.0200  -27.8660 N   0  0  0  0  0  0  0  0  0  0  0  0
   -1.1470   18.8090  -27.1210 C   0  0  0  0  0  0  0  0  0  0  0  0
   -2.3480   18.3570  -26.2970 C   0  0  0  0  0  0  0  0  0  0  0  0
   -3.4870   19.2490  -26.7320 C   0  0  0  0  0  0  0  0  0  0  0  0
   -2.7970   20.4780  -27.2830 C   0  0  0  0  0  0  0  0  0  0  0  0
   -1.5110   24.0840  -28.9860 C   0  0  0  0  0  0  0  0  0  0  0  0
   -2.9110   24.5690  -28.6110 C   0  0  0  0  0  0  0  0  0  0  0  0
   -5.9640   20.6010  -31.9540 C   0  0  0  0  0  0  0  0  0  0  0  0
   -6.0220   19.4030  -32.6860 C   0  0  0  0  0  0  0  0  0  0  0  0
   -8.9550   19.5780  -32.3660 H   0  0  0  0  0  0  0  0  0  0  0  0
   -8.1530   19.6860  -33.8490 H   0  0  0  0  0  0  0  0  0  0  0  0
   -9.0230   18.2780  -33.4690 H   0  0  0  0  0  0  0  0  0  0  0  0
   -7.3581   18.3729  -31.3846 H   0  0  0  0  0  0  0  0  0  0  0  0
   -6.2149   16.5440  -32.3246 H   0  0  0  0  0  0  0  0  0  0  0  0
   -7.8733   16.5032  -33.0528 H   0  0  0  0  0  0  0  0  0  0  0  0
   -6.1629   16.0564  -34.7630 H   0  0  0  0  0  0  0  0  0  0  0  0
   -7.0050   17.6219  -35.0753 H   0  0  0  0  0  0  0  0  0  0  0  0
   -4.2229   17.1704  -33.9154 H   0  0  0  0  0  0  0  0  0  0  0  0
   -4.7093   18.0418  -35.4407 H   0  0  0  0  0  0  0  0  0  0  0  0
   -3.1914   19.8354  -34.5804 H   0  0  0  0  0  0  0  0  0  0  0  0
   -3.1153   21.9539  -33.2759 H   0  0  0  0  0  0  0  0  0  0  0  0
   -6.7547   23.4149  -32.2353 H   0  0  0  0  0  0  0  0  0  0  0  0
   -6.8897   25.4886  -30.8704 H   0  0  0  0  0  0  0  0  0  0  0  0
   -5.1230   26.0030  -29.1984 H   0  0  0  0  0  0  0  0  0  0  0  0
   -0.3225   21.0615  -29.9716 H   0  0  0  0  0  0  0  0  0  0  0  0
    0.5153   22.4394  -29.1384 H   0  0  0  0  0  0  0  0  0  0  0  0
    0.4659   20.6340  -27.5684 H   0  0  0  0  0  0  0  0  0  0  0  0
   -0.8056   21.8182  -27.0566 H   0  0  0  0  0  0  0  0  0  0  0  0
   -0.8580   18.0146  -27.8248 H   0  0  0  0  0  0  0  0  0  0  0  0
   -0.2926   19.0225  -26.4619 H   0  0  0  0  0  0  0  0  0  0  0  0
   -2.5831   17.3027  -26.5046 H   0  0  0  0  0  0  0  0  0  0  0  0
   -2.1566   18.4331  -25.2165 H   0  0  0  0  0  0  0  0  0  0  0  0
   -4.0930   18.7593  -27.5085 H   0  0  0  0  0  0  0  0  0  0  0  0
   -4.1795   19.4839  -25.9102 H   0  0  0  0  0  0  0  0  0  0  0  0
   -3.4218   20.9501  -28.0555 H   0  0  0  0  0  0  0  0  0  0  0  0
   -2.6243   21.2242  -26.4935 H   0  0  0  0  0  0  0  0  0  0  0  0
   -0.8530   24.1708  -28.1088 H   0  0  0  0  0  0  0  0  0  0  0  0
   -1.1343   24.7045  -29.8125 H   0  0  0  0  0  0  0  0  0  0  0  0
   -3.2222   24.0710  -27.6808 H   0  0  0  0  0  0  0  0  0  0  0  0
   -2.8697   25.6607  -28.4829 H   0  0  0  0  0  0  0  0  0  0  0  0
   -6.7527   20.8299  -31.2222 H   0  0  0  0  0  0  0  0  0  0  0  0
  1  2  1  0
  2  3  1  0
  3  4  1  0
  4  5  1  0
  5  6  1  0
  6  7  2  0
  7  8  1  0
  8  9  2  0
  9 10  1  0
 10 11  2  0
 11 12  1  0
 12 13  2  0
 13 14  1  0
 14 15  2  0
 15 16  1  0
 16 17  2  0
 16 18  1  0
 18 19  1  0
 19 20  1  0
 20 21  1  0
 21 22  1  0
 22 23  1  0
 23 24  1  0
 24 25  1  0
 18 26  1  0
 26 27  1  0
  9 28  1  0
 28 29  2  0
 29  2  1  0
 29  6  1  0
 15 10  1  0
 25 21  1  0
 27 14  1  0
  1 30  1  0
  1 31  1  0
  1 32  1  0
  2 33  1  1
  3 34  1  0
  3 35  1  0
  4 36  1  0
  4 37  1  0
  5 38  1  0
  5 39  1  0
  7 40  1  0
  8 41  1  0
 11 42  1  0
 12 43  1  0
 13 44  1  0
 19 45  1  0
 19 46  1  0
 20 47  1  0
 20 48  1  0
 22 49  1  0
 22 50  1  0
 23 51  1  0
 23 52  1  0
 24 53  1  0
 24 54  1  0
 25 55  1  0
 25 56  1  0
 26 57  1  0
 26 58  1  0
 27 59  1  0
 27 60  1  0
 28 61  1  0
M  CHG  1   1   1
M  END
>  <UniqueID>  (8) 
8

>  <SMILES>  (8) 
[NH3+][C@H]1CCCc2ccc(-c3cccc4c3C(=O)N(CCN3CCCC3)CC4)cc21

>  <Energy>  (8) 
75.46854927159195

>  <Genealogy>  (8) 
[NH3+]C1CCCc2ccc(-c3cccc4c3C(=O)N(CCN3CCCC3)CC4)cc21 (protonated)
[NH3+][C@H]1CCCc2ccc(-c3cccc4c3C(=O)N(CCN3CCCC3)CC4)cc21 (chirality)
[NH3+][C@H]1CCCc2ccc(-c3cccc4c3C(=O)N(CCN3CCCC3)CC4)cc21 (3D coordinates assigned)
[NH3+][C@H]1CCCc2ccc(-c3cccc4c3C(=O)N(CCN3CCCC3)CC4)cc21 (nonaromatic ring conformer: 75.46854927159195 kcal/mol)

>  <smiles>  (8) 
NC1CCCc2ccc(-c3cccc4c3C(=O)N(CCN3CCCC3)CC4)cc21

>  <score_type>  (8) 
oracle

>  <origin>  (8) 
adg

>  <m_score__min__energy>  (8) 
-10.1

>  <m_primary>  (8) 
energy

$$$$
8:0
     RDKit          3D

 50 52  0  0  0  0  0  0  0  0999 V2000
   -2.3848   21.7239  -30.5536 H   0  0  0  0  0  0  0  0  0  0  0  0
   -3.3750   21.7970  -31.0270 C   0  0  0  0  0  0  0  0  0  0  0  0
   -4.1240   22.8880  -30.7650 C   0  0  0  0  0  0  0  0  0  0  0  0
   -3.5090   24.0640  -30.0990 C   0  0  0  0  0  0  0  0  0  0  0  0
   -3.8490   25.2230  -30.4600 O   0  0  0  0  0  0  0  0  0  0  0  0
   -2.5180   23.8990  -29.0690 N   0  0  0  0  0  0  0  0  0  0  0  0
   -2.0630   22.9650  -28.9550 H   0  0  0  0  0  0  0  0  0  0  0  0
   -2.0750   25.0160  -28.2260 C   0  0  2  0  0  0  0  0  0  0  0  0
   -2.4027   25.9575  -28.6909 H   0  0  0  0  0  0  0  0  0  0  0  0
   -0.5440   25.0530  -28.1400 C   0  0  0  0  0  0  0  0  0  0  0  0
   -0.2362   25.0604  -27.0840 H   0  0  0  0  0  0  0  0  0  0  0  0
   -0.1273   24.1647  -28.6372 H   0  0  0  0  0  0  0  0  0  0  0  0
   -0.1706   25.9604  -28.6372 H   0  0  0  0  0  0  0  0  0  0  0  0
   -2.7300   24.9460  -26.8290 C   0  0  0  0  0  0  0  0  0  0  0  0
   -2.6625   25.9406  -26.3641 H   0  0  0  0  0  0  0  0  0  0  0  0
   -2.1877   24.1772  -26.2590 H   0  0  0  0  0  0  0  0  0  0  0  0
   -4.2020   24.5250  -26.8570 C   0  0  0  0  0  0  0  0  0  0  0  0
   -4.5727   24.4190  -25.8268 H   0  0  0  0  0  0  0  0  0  0  0  0
   -4.7923   25.2903  -27.3822 H   0  0  0  0  0  0  0  0  0  0  0  0
   -4.2984   23.5633  -27.3822 H   0  0  0  0  0  0  0  0  0  0  0  0
   -5.5790   22.9350  -31.0670 C   0  0  0  0  0  0  0  0  0  0  0  0
   -6.0210   23.4070  -32.3150 C   0  0  0  0  0  0  0  0  0  0  0  0
   -5.2886   23.7401  -33.0651 H   0  0  0  0  0  0  0  0  0  0  0  0
   -7.3870   23.4550  -32.6070 C   0  0  0  0  0  0  0  0  0  0  0  0
   -7.7257   23.8166  -33.5891 H   0  0  0  0  0  0  0  0  0  0  0  0
   -8.3230   23.0450  -31.6550 C   0  0  0  0  0  0  0  0  0  0  0  0
   -9.3973   23.0801  -31.8888 H   0  0  0  0  0  0  0  0  0  0  0  0
   -7.8940   22.5900  -30.4050 C   0  0  0  0  0  0  0  0  0  0  0  0
   -8.6314   22.2701  -29.6541 H   0  0  0  0  0  0  0  0  0  0  0  0
   -6.5290   22.5410  -30.1080 C   0  0  0  0  0  0  0  0  0  0  0  0
   -6.1963   22.1925  -29.1191 H   0  0  0  0  0  0  0  0  0  0  0  0
   -3.8050   20.6940  -31.9120 C   0  0  0  0  0  0  0  0  0  0  0  0
   -3.0450   20.2870  -33.0260 C   0  0  0  0  0  0  0  0  0  0  0  0
   -1.4840   21.0050  -33.3980 Cl  0  0  0  0  0  0  0  0  0  0  0  0
   -3.4920   19.2760  -33.8190 N   0  0  0  0  0  0  0  0  0  0  0  0
   -4.6590   18.6210  -33.5740 C   0  0  0  0  0  0  0  0  0  0  0  0
   -5.0910   17.5850  -34.4260 C   0  0  0  0  0  0  0  0  0  0  0  0
   -4.2760   17.1890  -35.6260 C   0  0  0  0  0  0  0  0  0  0  0  0
   -3.3328   16.7307  -35.2937 H   0  0  0  0  0  0  0  0  0  0  0  0
   -4.8420   16.4655  -36.2311 H   0  0  0  0  0  0  0  0  0  0  0  0
   -4.0570   18.0811  -36.2311 H   0  0  0  0  0  0  0  0  0  0  0  0
   -6.2960   16.9190  -34.1440 C   0  0  0  0  0  0  0  0  0  0  0  0
   -6.6411   16.1109  -34.8057 H   0  0  0  0  0  0  0  0  0  0  0  0
   -7.0590   17.2760  -33.0290 C   0  0  0  0  0  0  0  0  0  0  0  0
   -7.9992   16.7459  -32.8168 H   0  0  0  0  0  0  0  0  0  0  0  0
   -6.6340   18.3020  -32.1830 C   0  0  0  0  0  0  0  0  0  0  0  0
   -7.2402   18.5800  -31.3082 H   0  0  0  0  0  0  0  0  0  0  0  0
   -5.4350   18.9780  -32.4480 C   0  0  0  0  0  0  0  0  0  0  0  0
   -4.9910   20.0120  -31.6170 C   0  0  0  0  0  0  0  0  0  0  0  0
   -5.5763   20.2902  -30.7282 H   0  0  0  0  0  0  0  0  0  0  0  0
  1  2  1  0
  2  3  2  0
  3  4  1  0
  4  5  2  0
  4  6  1  0
  6  7  1  0
  6  8  1  0
  8  9  1  6
  8 10  1  0
 10 11  1  0
 10 12  1  0
 10 13  1  0
  8 14  1  0
 14 15  1  0
 14 16  1  0
 14 17  1  0
 17 18  1  0
 17 19  1  0
 17 20  1  0
  3 21  1  0
 21 22  2  0
 22 23  1  0
 22 24  1  0
 24 25  1  0
 24 26  2  0
 26 27  1  0
 26 28  1  0
 28 29  1  0
 28 30  2  0
 30 31  1  0
  2 32  1  0
 32 33  2  0
 33 34  1  0
 33 35  1  0
 35 36  2  0
 36 37  1  0
 37 38  1  0
 38 39  1  0
 38 40  1  0
 38 41  1  0
 37 42  2  0
 42 43  1  0
 42 44  1  0
 44 45  1  0
 44 46  2  0
 46 47  1  0
 46 48  1  0
 48 49  2  0
 49 50  1  0
 30 21  1  0
 49 32  1  0
 48 36  1  0
M  END
>  <UniqueID>  (9) 
9

>  <SMILES>  (9) 
CC[C@@H](C)NC(=O)/C(=C/c1cc2cccc(C)c2nc1Cl)c1ccccc1

>  <Energy>  (9) 
63.02937386753686

>  <Genealogy>  (9) 
CC[C@@H](C)NC(=O)C(=Cc1cc2cccc(C)c2nc1Cl)c1ccccc1 (chirality)
CC[C@@H](C)NC(=O)/C(=C/c1cc2cccc(C)c2nc1Cl)c1ccccc1 (cis-trans isomerization)
CC[C@@H](C)NC(=O)/C(=C/c1cc2cccc(C)c2nc1Cl)c1ccccc1 (3D coordinates assigned)
CC[C@@H](C)NC(=O)/C(=C/c1cc2cccc(C)c2nc1Cl)c1ccccc1 (optimized conformer: 63.02937386753686 kcal/mol)

>  <smiles>  (9) 
CCC(C)NC(=O)C(=Cc1cc2cccc(C)c2nc1Cl)c1ccccc1

>  <score_type>  (9) 
oracle

>  <origin>  (9) 
adg

>  <m_score__min__energy>  (9) 
-9.6099999999999994

>  <m_primary>  (9) 
energy

$$$$
9:0
     RDKit          3D

 53 55  0  0  0  0  0  0  0  0999 V2000
   -0.2200   23.3210  -28.5440 C   0  0  0  0  0  0  0  0  0  0  0  0
    0.4690   24.5820  -28.2190 N   0  0  0  0  0  0  0  0  0  0  0  0
    1.4190   24.3550  -27.1190 C   0  0  0  0  0  0  0  0  0  0  0  0
   -0.5000   25.6400  -27.8630 C   0  0  0  0  0  0  0  0  0  0  0  0
   -1.9340   25.0960  -27.8660 C   0  0  0  0  0  0  0  0  0  0  0  0
   -2.5560   25.3080  -29.1360 O   0  0  0  0  0  0  0  0  0  0  0  0
   -3.5330   24.4890  -29.7250 C   0  0  0  0  0  0  0  0  0  0  0  0
   -4.9120   24.7540  -29.6340 C   0  0  0  0  0  0  0  0  0  0  0  0
   -5.8370   23.8950  -30.2350 C   0  0  0  0  0  0  0  0  0  0  0  0
   -5.4070   22.7660  -30.9530 C   0  0  0  0  0  0  0  0  0  0  0  0
   -6.4090   21.8610  -31.5740 C   0  0  0  0  0  0  0  0  0  0  0  0
   -7.7700   22.1950  -31.6550 C   0  0  0  0  0  0  0  0  0  0  0  0
   -8.6420   21.3220  -32.2210 N   0  0  0  0  0  0  0  0  0  0  0  0
   -8.2290   20.1280  -32.7190 C   0  0  0  0  0  0  0  0  0  0  0  0
   -6.8710   19.7780  -32.6460 C   0  0  0  0  0  0  0  0  0  0  0  0
   -6.3590   18.4810  -33.1590 C   0  0  0  0  0  0  0  0  0  0  0  0
   -6.2110   17.3940  -32.2820 C   0  0  0  0  0  0  0  0  0  0  0  0
   -5.7240   16.1670  -32.7410 C   0  0  0  0  0  0  0  0  0  0  0  0
   -5.3650   15.9920  -34.0920 C   0  0  0  0  0  0  0  0  0  0  0  0
   -4.8590   14.7180  -34.5710 N   0  0  0  0  0  0  0  0  0  0  0  0
   -3.4830   14.6010  -35.0700 C   0  0  0  0  0  0  0  0  0  0  0  0
   -5.7150   13.5250  -34.5660 C   0  0  0  0  0  0  0  0  0  0  0  0
   -5.5030   17.0900  -34.9650 C   0  0  0  0  0  0  0  0  0  0  0  0
   -5.9910   18.3160  -34.5050 C   0  0  0  0  0  0  0  0  0  0  0  0
   -6.0080   20.6570  -32.0660 N   0  0  0  0  0  0  0  0  0  0  0  0
   -4.0270   22.5080  -31.0460 C   0  0  0  0  0  0  0  0  0  0  0  0
   -3.1030   23.3670  -30.4420 C   0  0  0  0  0  0  0  0  0  0  0  0
   -0.5012   22.8064  -27.6133 H   0  0  0  0  0  0  0  0  0  0  0  0
   -1.1248   23.5382  -29.1307 H   0  0  0  0  0  0  0  0  0  0  0  0
    0.4515   22.6769  -29.1307 H   0  0  0  0  0  0  0  0  0  0  0  0
    0.9015   24.4786  -26.1562 H   0  0  0  0  0  0  0  0  0  0  0  0
    1.8242   23.3348  -27.1891 H   0  0  0  0  0  0  0  0  0  0  0  0
    2.2417   25.0819  -27.1891 H   0  0  0  0  0  0  0  0  0  0  0  0
   -0.2625   26.0223  -26.8593 H   0  0  0  0  0  0  0  0  0  0  0  0
   -0.4292   26.4453  -28.6090 H   0  0  0  0  0  0  0  0  0  0  0  0
   -1.9107   24.0173  -27.6516 H   0  0  0  0  0  0  0  0  0  0  0  0
   -2.5138   25.6274  -27.0969 H   0  0  0  0  0  0  0  0  0  0  0  0
   -5.2639   25.6413  -29.0874 H   0  0  0  0  0  0  0  0  0  0  0  0
   -6.9130   24.1051  -30.1449 H   0  0  0  0  0  0  0  0  0  0  0  0
   -8.1277   23.1582  -31.2623 H   0  0  0  0  0  0  0  0  0  0  0  0
   -8.9540   19.4390  -33.1769 H   0  0  0  0  0  0  0  0  0  0  0  0
   -6.4814   17.5097  -31.2220 H   0  0  0  0  0  0  0  0  0  0  0  0
   -5.6197   15.3271  -32.0383 H   0  0  0  0  0  0  0  0  0  0  0  0
   -2.7882   14.5419  -34.2192 H   0  0  0  0  0  0  0  0  0  0  0  0
   -3.3911   13.6918  -35.6823 H   0  0  0  0  0  0  0  0  0  0  0  0
   -3.2389   15.4816  -35.6823 H   0  0  0  0  0  0  0  0  0  0  0  0
   -5.9267   13.2300  -33.5277 H   0  0  0  0  0  0  0  0  0  0  0  0
   -6.6595   13.7493  -35.0833 H   0  0  0  0  0  0  0  0  0  0  0  0
   -5.2001   12.7021  -35.0833 H   0  0  0  0  0  0  0  0  0  0  0  0
   -5.2227   16.9803  -36.0230 H   0  0  0  0  0  0  0  0  0  0  0  0
   -6.0880   19.1602  -35.2035 H   0  0  0  0  0  0  0  0  0  0  0  0
   -3.6723   21.6248  -31.5975 H   0  0  0  0  0  0  0  0  0  0  0  0
   -2.0267   23.1582  -30.5316 H   0  0  0  0  0  0  0  0  0  0  0  0
  1  2  1  0
  2  3  1  0
  2  4  1  0
  4  5  1  0
  5  6  1  0
  6  7  1  0
  7  8  2  0
  8  9  1  0
  9 10  2  0
 10 11  1  0
 11 12  2  0
 12 13  1  0
 13 14  2  0
 14 15  1  0
 15 16  1  0
 16 17  2  0
 17 18  1  0
 18 19  2  0
 19 20  1  0
 20 21  1  0
 20 22  1  0
 19 23  1  0
 23 24  2  0
 15 25  2  0
 10 26  1  0
 26 27  2  0
 27  7  1  0
 25 11  1  0
 24 16  1  0
  1 28  1  0
  1 29  1  0
  1 30  1  0
  3 31  1  0
  3 32  1  0
  3 33  1  0
  4 34  1  0
  4 35  1  0
  5 36  1  0
  5 37  1  0
  8 38  1  0
  9 39  1  0
 12 40  1  0
 14 41  1  0
 17 42  1  0
 18 43  1  0
 21 44  1  0
 21 45  1  0
 21 46  1  0
 22 47  1  0
 22 48  1  0
 22 49  1  0
 23 50  1  0
 24 51  1  0
 26 52  1  0
 27 53  1  0
M  END
>  <UniqueID>  (10) 
10

>  <SMILES>  (10) 
CN(C)CCOc1ccc(-c2cncc(-c3ccc(N(C)C)cc3)n2)cc1

>  <Energy>  (10) 
65.69780984140417

>  <Genealogy>  (10) 
CN(C)CCOc1ccc(-c2cncc(-c3ccc(N(C)C)cc3)n2)cc1 (3D coordinates assigned)
CN(C)CCOc1ccc(-c2cncc(-c3ccc(N(C)C)cc3)n2)cc1 (optimized conformer: 65.69780984140417 kcal/mol)

>  <smiles>  (10) 
CN(C)CCOc1ccc(-c2cncc(-c3ccc(N(C)C)cc3)n2)cc1

>  <score_type>  (10) 
oracle

>  <origin>  (10) 
adg

>  <m_score__min__energy>  (10) 
-8.5299999999999994

>  <m_primary>  (10) 
energy

$$$$
10:0
     RDKit          3D

 42 44  0  0  0  0  0  0  0  0999 V2000
   -4.3920   24.9110  -26.3470 C   0  0  0  0  0  0  0  0  0  0  0  0
   -2.8950   25.1790  -26.2260 C   0  0  0  0  0  0  0  0  0  0  0  0
   -2.0840   24.1040  -26.9510 C   0  0  0  0  0  0  0  0  0  0  0  0
   -1.6550   24.5880  -28.6190 S   0  0  0  0  0  0  0  0  0  0  0  0
   -1.2400   23.3460  -29.3570 O   0  0  0  0  0  0  0  0  0  0  0  0
   -0.4940   25.5420  -28.6130 O   0  0  0  0  0  0  0  0  0  0  0  0
   -3.0020   25.2620  -29.4420 O   0  0  0  0  0  0  0  0  0  0  0  0
   -4.1070   24.5640  -29.9530 C   0  0  0  0  0  0  0  0  0  0  0  0
   -4.2240   23.2060  -29.6320 C   0  0  0  0  0  0  0  0  0  0  0  0
   -5.2970   22.4490  -30.1090 C   0  0  0  0  0  0  0  0  0  0  0  0
   -6.2670   23.0370  -30.9370 C   0  0  0  0  0  0  0  0  0  0  0  0
   -7.3820   22.2730  -31.4290 N   0  0  0  0  0  0  0  0  0  0  0  0
   -8.6390   22.6650  -31.2830 N   0  0  0  0  0  0  0  0  0  0  0  0
   -9.4330   21.7180  -31.8200 C   0  0  0  0  0  0  0  0  0  0  0  0
   -8.6580   20.6950  -32.3270 C   0  0  0  0  0  0  0  0  0  0  0  0
   -7.3580   21.0770  -32.0620 C   0  0  0  0  0  0  0  0  0  0  0  0
   -6.1500   20.3770  -32.5500 C   0  0  0  0  0  0  0  0  0  0  0  0
   -5.0610   21.1320  -33.0190 C   0  0  0  0  0  0  0  0  0  0  0  0
   -3.9110   20.4970  -33.4950 C   0  0  0  0  0  0  0  0  0  0  0  0
   -3.8380   19.1030  -33.5110 C   0  0  0  0  0  0  0  0  0  0  0  0
   -4.9130   18.3410  -33.0500 C   0  0  0  0  0  0  0  0  0  0  0  0
   -6.0710   18.9680  -32.5700 C   0  0  0  0  0  0  0  0  0  0  0  0
   -7.3700   17.9550  -31.9480 Cl  0  0  0  0  0  0  0  0  0  0  0  0
   -6.1580   24.3990  -31.2520 C   0  0  0  0  0  0  0  0  0  0  0  0
   -5.0840   25.1560  -30.7750 C   0  0  0  0  0  0  0  0  0  0  0  0
   -4.8328   24.8321  -25.3423 H   0  0  0  0  0  0  0  0  0  0  0  0
   -4.8696   25.7379  -26.8930 H   0  0  0  0  0  0  0  0  0  0  0  0
   -4.5530   23.9697  -26.8930 H   0  0  0  0  0  0  0  0  0  0  0  0
   -2.6685   26.1600  -26.6690 H   0  0  0  0  0  0  0  0  0  0  0  0
   -2.6219   25.1642  -25.1605 H   0  0  0  0  0  0  0  0  0  0  0  0
   -1.1579   23.9188  -26.3870 H   0  0  0  0  0  0  0  0  0  0  0  0
   -2.7046   23.1979  -27.0122 H   0  0  0  0  0  0  0  0  0  0  0  0
   -3.4624   22.7298  -28.9970 H   0  0  0  0  0  0  0  0  0  0  0  0
   -5.3825   21.3872  -29.8347 H   0  0  0  0  0  0  0  0  0  0  0  0
  -10.5320   21.7548  -31.8497 H   0  0  0  0  0  0  0  0  0  0  0  0
   -9.0000   19.7787  -32.8304 H   0  0  0  0  0  0  0  0  0  0  0  0
   -5.1145   22.2307  -33.0112 H   0  0  0  0  0  0  0  0  0  0  0  0
   -3.0625   21.0960  -33.8574 H   0  0  0  0  0  0  0  0  0  0  0  0
   -2.9325   18.6045  -33.8872 H   0  0  0  0  0  0  0  0  0  0  0  0
   -4.8509   17.2428  -33.0635 H   0  0  0  0  0  0  0  0  0  0  0  0
   -6.9246   24.8761  -31.8802 H   0  0  0  0  0  0  0  0  0  0  0  0
   -5.0021   26.2196  -31.0434 H   0  0  0  0  0  0  0  0  0  0  0  0
  1  2  1  0
  2  3  1  0
  3  4  1  0
  4  5  2  0
  4  6  2  0
  4  7  1  0
  7  8  1  0
  8  9  2  0
  9 10  1  0
 10 11  2  0
 11 12  1  0
 12 13  1  0
 13 14  2  0
 14 15  1  0
 15 16  2  0
 16 17  1  0
 17 18  2  0
 18 19  1  0
 19 20  2  0
 20 21  1  0
 21 22  2  0
 22 23  1  0
 11 24  1  0
 24 25  2  0
 25  8  1  0
 16 12  1  0
 22 17  1  0
  1 26  1  0
  1 27  1  0
  1 28  1  0
  2 29  1  0
  2 30  1  0
  3 31  1  0
  3 32  1  0
  9 33  1  0
 10 34  1  0
 14 35  1  0
 15 36  1  0
 18 37  1  0
 19 38  1  0
 20 39  1  0
 21 40  1  0
 24 41  1  0
 25 42  1  0
M  END
>  <UniqueID>  (11) 
11

>  <SMILES>  (11) 
CCCS(=O)(=O)Oc1ccc(-n2nccc2-c2ccccc2Cl)cc1

>  <Energy>  (11) 
77.70980866091374

>  <Genealogy>  (11) 
CCCS(=O)(=O)Oc1ccc(-n2nccc2-c2ccccc2Cl)cc1 (3D coordinates assigned)
CCCS(=O)(=O)Oc1ccc(-n2nccc2-c2ccccc2Cl)cc1 (optimized conformer: 77.70980866091374 kcal/mol)

>  <smiles>  (11) 
CCCS(=O)(=O)Oc1ccc(-n2nccc2-c2ccccc2Cl)cc1

>  <score_type>  (11) 
oracle

>  <origin>  (11) 
adg

>  <m_score__min__energy>  (11) 
-9.4900000000000002

>  <m_primary>  (11) 
energy

$$$$
11:0
     RDKit          3D

101106  0  0  0  0  0  0  0  0999 V2000
    2.3820   26.7040  -25.6340 C   0  0  0  0  0  0  0  0  0  0  0  0
    1.6870   25.5970  -25.3040 C   0  0  0  0  0  0  0  0  0  0  0  0
    2.4090   24.6010  -24.4030 C   0  0  0  0  0  0  0  0  0  0  0  0
    0.3150   25.3090  -25.9540 C   0  0  1  0  0  0  0  0  0  0  0  0
   -0.3370   26.5480  -26.5510 C   0  0  0  0  0  0  0  0  0  0  0  0
   -1.4390   26.0130  -27.4240 C   0  0  0  0  0  0  0  0  0  0  0  0
   -0.8540   24.7730  -28.1050 C   0  0  2  0  0  0  0  0  0  0  0  0
   -2.0270   23.8230  -28.6090 C   0  0  1  0  0  0  0  0  0  0  0  0
   -1.9560   23.5770  -30.0960 C   0  0  0  0  0  0  0  0  0  0  0  0
   -0.8570   22.5920  -30.4620 C   0  0  0  0  0  0  0  0  0  0  0  0
   -0.8250   21.2300  -29.6890 C   0  0  2  0  0  0  0  0  0  0  0  0
   -0.6010   19.9970  -30.7080 C   0  0  2  0  0  0  0  0  0  0  0  0
   -0.2860   18.6980  -29.8800 C   0  0  0  0  0  0  0  0  0  0  0  0
    0.6660   20.2300  -31.5940 C   0  0  0  0  0  0  0  0  0  0  0  0
    0.7830   19.2110  -32.7390 C   0  0  0  0  0  0  0  0  0  0  0  0
   -0.3580   19.3060  -33.7730 C   0  0  2  0  0  0  0  0  0  0  0  0
    0.1490   20.0770  -34.8590 O   0  0  0  0  0  0  0  0  0  0  0  0
    1.5580   20.2000  -34.8720 C   0  0  1  0  0  0  0  0  0  0  0  0
    2.1070   19.0320  -35.4490 O   0  0  0  0  0  0  0  0  0  0  0  0
    3.5310   18.9950  -35.3800 C   0  0  2  0  0  0  0  0  0  0  0  0
    3.9840   18.2310  -34.1280 C   0  0  0  0  0  0  0  0  0  0  0  0
    4.2210   20.3860  -35.5470 C   0  0  2  0  0  0  0  0  0  0  0  0
    4.4920   20.9680  -34.2930 O   0  0  0  0  0  0  0  0  0  0  0  0
    3.3190   21.3200  -36.3800 C   0  0  1  0  0  0  0  0  0  0  0  0
    3.2270   20.8150  -37.6920 O   0  0  0  0  0  0  0  0  0  0  0  0
    1.9000   21.4220  -35.7550 C   0  0  2  0  0  0  0  0  0  0  0  0
    1.7420   22.6120  -35.0170 O   0  0  0  0  0  0  0  0  0  0  0  0
   -1.7100   19.9380  -33.2200 C   0  0  0  0  0  0  0  0  0  0  0  0
   -2.8890   19.1930  -33.9100 C   0  0  0  0  0  0  0  0  0  0  0  0
   -1.8080   21.4170  -33.7170 C   0  0  0  0  0  0  0  0  0  0  0  0
   -1.8750   19.7490  -31.6280 C   0  0  2  0  0  0  0  0  0  0  0  0
   -3.1590   20.4160  -31.0480 C   0  0  0  0  0  0  0  0  0  0  0  0
   -3.2700   20.4740  -29.5060 C   0  0  0  0  0  0  0  0  0  0  0  0
   -2.0490   21.0810  -28.6640 C   0  0  1  0  0  0  0  0  0  0  0  0
   -1.7480   19.9960  -27.5660 C   0  0  0  0  0  0  0  0  0  0  0  0
   -2.3570   22.4870  -27.8230 C   0  0  2  0  0  0  0  0  0  0  0  0
   -3.8700   22.5410  -27.4260 C   0  0  0  0  0  0  0  0  0  0  0  0
   -1.6130   22.6180  -26.4410 C   0  0  0  0  0  0  0  0  0  0  0  0
   -0.1120   22.8370  -26.5580 C   0  0  0  0  0  0  0  0  0  0  0  0
    0.2500   24.2370  -27.1120 C   0  0  2  0  0  0  0  0  0  0  0  0
    1.6210   24.1590  -27.8370 C   0  0  0  0  0  0  0  0  0  0  0  0
    1.9255   27.4674  -26.2812 H   0  0  0  0  0  0  0  0  0  0  0  0
    3.4055   26.8438  -25.2561 H   0  0  0  0  0  0  0  0  0  0  0  0
    2.2230   24.8577  -23.3497 H   0  0  0  0  0  0  0  0  0  0  0  0
    2.0353   23.5863  -24.6047 H   0  0  0  0  0  0  0  0  0  0  0  0
    3.4896   24.6406  -24.6047 H   0  0  0  0  0  0  0  0  0  0  0  0
   -0.2077   24.9071  -25.0735 H   0  0  0  0  0  0  0  0  0  0  0  0
   -0.7470   27.1913  -25.7585 H   0  0  0  0  0  0  0  0  0  0  0  0
    0.3783   27.1660  -27.1135 H   0  0  0  0  0  0  0  0  0  0  0  0
   -2.3140   25.7409  -26.8155 H   0  0  0  0  0  0  0  0  0  0  0  0
   -1.7787   26.7597  -28.1568 H   0  0  0  0  0  0  0  0  0  0  0  0
   -0.3261   24.9320  -29.0569 H   0  0  0  0  0  0  0  0  0  0  0  0
   -2.8981   24.4417  -28.3476 H   0  0  0  0  0  0  0  0  0  0  0  0
   -2.9214   23.1731  -30.4350 H   0  0  0  0  0  0  0  0  0  0  0  0
   -1.7290   24.5349  -30.5869 H   0  0  0  0  0  0  0  0  0  0  0  0
   -0.9629   22.3618  -31.5324 H   0  0  0  0  0  0  0  0  0  0  0  0
    0.0791   23.0972  -30.1820 H   0  0  0  0  0  0  0  0  0  0  0  0
    0.0540   21.2120  -29.0280 H   0  0  0  0  0  0  0  0  0  0  0  0
   -0.3412   18.9258  -28.8053 H   0  0  0  0  0  0  0  0  0  0  0  0
   -1.0210   17.9180  -30.1277 H   0  0  0  0  0  0  0  0  0  0  0  0
    0.7247   18.3414  -30.1277 H   0  0  0  0  0  0  0  0  0  0  0  0
    0.6129   21.2403  -32.0258 H   0  0  0  0  0  0  0  0  0  0  0  0
    1.5494   20.1097  -30.9497 H   0  0  0  0  0  0  0  0  0  0  0  0
    1.7376   19.3807  -33.2587 H   0  0  0  0  0  0  0  0  0  0  0  0
    0.7237   18.2104  -32.2860 H   0  0  0  0  0  0  0  0  0  0  0  0
   -0.6440   18.2863  -34.0704 H   0  0  0  0  0  0  0  0  0  0  0  0
    1.9624   20.3284  -33.8571 H   0  0  0  0  0  0  0  0  0  0  0  0
    3.8799   18.4361  -36.2608 H   0  0  0  0  0  0  0  0  0  0  0  0
    3.6608   18.7761  -33.2289 H   0  0  0  0  0  0  0  0  0  0  0  0
    3.5354   17.2267  -34.1290 H   0  0  0  0  0  0  0  0  0  0  0  0
    5.0805   18.1428  -34.1290 H   0  0  0  0  0  0  0  0  0  0  0  0
    5.1771   20.2395  -36.0709 H   0  0  0  0  0  0  0  0  0  0  0  0
    3.7640   21.6180  -34.1180 H   0  0  0  0  0  0  0  0  0  0  0  0
    3.7606   22.3274  -36.3923 H   0  0  0  0  0  0  0  0  0  0  0  0
    2.7960   19.9250  -37.6230 H   0  0  0  0  0  0  0  0  0  0  0  0
    1.1940   21.4361  -36.5984 H   0  0  0  0  0  0  0  0  0  0  0  0
    2.5160   22.6870  -34.4060 H   0  0  0  0  0  0  0  0  0  0  0  0
   -3.5556   18.7718  -33.1430 H   0  0  0  0  0  0  0  0  0  0  0  0
   -3.4522   19.8995  -34.5374 H   0  0  0  0  0  0  0  0  0  0  0  0
   -2.4927   18.3810  -34.5374 H   0  0  0  0  0  0  0  0  0  0  0  0
   -1.8528   22.0929  -32.8503 H   0  0  0  0  0  0  0  0  0  0  0  0
   -0.9239   21.6588  -34.3252 H   0  0  0  0  0  0  0  0  0  0  0  0
   -2.7163   21.5400  -34.3252 H   0  0  0  0  0  0  0  0  0  0  0  0
   -1.9988   18.6575  -31.5697 H   0  0  0  0  0  0  0  0  0  0  0  0
   -3.1987   21.4486  -31.4251 H   0  0  0  0  0  0  0  0  0  0  0  0
   -3.9925   19.7776  -31.3762 H   0  0  0  0  0  0  0  0  0  0  0  0
   -4.1578   21.0785  -29.2688 H   0  0  0  0  0  0  0  0  0  0  0  0
   -3.3015   19.4171  -29.2027 H   0  0  0  0  0  0  0  0  0  0  0  0
   -1.8714   20.4407  -26.5675 H   0  0  0  0  0  0  0  0  0  0  0  0
   -2.4465   19.1541  -27.6813 H   0  0  0  0  0  0  0  0  0  0  0  0
   -0.7156   19.6343  -27.6813 H   0  0  0  0  0  0  0  0  0  0  0  0
   -3.9616   22.5443  -26.3298 H   0  0  0  0  0  0  0  0  0  0  0  0
   -4.3239   23.4559  -27.8346 H   0  0  0  0  0  0  0  0  0  0  0  0
   -4.3879   21.6608  -27.8346 H   0  0  0  0  0  0  0  0  0  0  0  0
   -2.0445   23.4709  -25.8966 H   0  0  0  0  0  0  0  0  0  0  0  0
   -1.7525   21.6617  -25.9155 H   0  0  0  0  0  0  0  0  0  0  0  0
    0.3378   22.7270  -25.5602 H   0  0  0  0  0  0  0  0  0  0  0  0
    0.2769   22.0905  -27.2661 H   0  0  0  0  0  0  0  0  0  0  0  0
    2.4281   24.1131  -27.0911 H   0  0  0  0  0  0  0  0  0  0  0  0
    1.6520   23.2576  -28.4668 H   0  0  0  0  0  0  0  0  0  0  0  0
    1.7540   25.0510  -28.4668 H   0  0  0  0  0  0  0  0  0  0  0  0
  1  2  2  0
  2  3  1  0
  2  4  1  0
  4  5  1  0
  5  6  1  0
  6  7  1  0
  7  8  1  0
  8  9  1  0
  9 10  1  0
 10 11  1  0
 11 12  1  0
 12 13  1  1
 12 14  1  0
 14 15  1  0
 15 16  1  0
 16 17  1  0
 17 18  1  0
 18 19  1  0
 19 20  1  0
 20 21  1  0
 20 22  1  0
 22 23  1  0
 22 24  1  0
 24 25  1  0
 24 26  1  0
 26 27  1  0
 16 28  1  0
 28 29  1  0
 28 30  1  0
 28 31  1  0
 31 32  1  0
 32 33  1  0
 33 34  1  0
 34 35  1  1
 34 36  1  0
 36 37  1  1
 36 38  1  0
 38 39  1  0
 39 40  1  0
 40 41  1  6
 40  4  1  0
 40  7  1  0
 36  8  1  0
 34 11  1  0
 31 12  1  0
 26 18  1  0
  1 42  1  0
  1 43  1  0
  3 44  1  0
  3 45  1  0
  3 46  1  0
  4 47  1  1
  5 48  1  0
  5 49  1  0
  6 50  1  0
  6 51  1  0
  7 52  1  6
  8 53  1  6
  9 54  1  0
  9 55  1  0
 10 56  1  0
 10 57  1  0
 11 58  1  1
 13 59  1  0
 13 60  1  0
 13 61  1  0
 14 62  1  0
 14 63  1  0
 15 64  1  0
 15 65  1  0
 16 66  1  6
 18 67  1  1
 20 68  1  6
 21 69  1  0
 21 70  1  0
 21 71  1  0
 22 72  1  6
 23 73  1  0
 24 74  1  6
 25 75  1  0
 26 76  1  6
 27 77  1  0
 29 78  1  0
 29 79  1  0
 29 80  1  0
 30 81  1  0
 30 82  1  0
 30 83  1  0
 31 84  1  6
 32 85  1  0
 32 86  1  0
 33 87  1  0
 33 88  1  0
 35 89  1  0
 35 90  1  0
 35 91  1  0
 37 92  1  0
 37 93  1  0
 37 94  1  0
 38 95  1  0
 38 96  1  0
 39 97  1  0
 39 98  1  0
 41 99  1  0
 41100  1  0
 41101  1  0
M  END
>  <UniqueID>  (12) 
12

>  <SMILES>  (12) 
C=C(C)[C@H]1CC[C@@H]2C3CCC4C5(C)CCC(OC6OC(C)C(O)C(O)C6O)C(C)(C)C5CCC4(C)C3(C)CCC12C

>  <Energy>  (12) 
236.49071710832797

>  <Genealogy>  (12) 
C=C(C)[C@H]1CC[C@@H]2C3CCC4C5(C)CCC(OC6OC(C)C(O)C(O)C6O)C(C)(C)C5CCC4(C)C3(C)CCC12C (chirality)
C=C(C)[C@H]1CC[C@@H]2C3CCC4C5(C)CCC(OC6OC(C)C(O)C(O)C6O)C(C)(C)C5CCC4(C)C3(C)CCC12C (3D coordinates assigned)
C=C(C)[C@H]1CC[C@@H]2C3CCC4C5(C)CCC(OC6OC(C)C(O)C(O)C6O)C(C)(C)C5CCC4(C)C3(C)CCC12C (nonaromatic ring conformer: 236.49071710832797 kcal/mol)

>  <smiles>  (12) 
C=C(C)C1CCC2C3CCC4C5(C)CCC(OC6OC(C)C(O)C(O)C6O)C(C)(C)C5CCC4(C)C3(C)CCC12C

>  <score_type>  (12) 
oracle

>  <origin>  (12) 
adg

>  <m_score__min__energy>  (12) 
-8.1600000000000001

>  <m_primary>  (12) 
energy

$$$$
12:0
     RDKit          3D

 51 55  0  0  0  0  0  0  0  0999 V2000
   -3.7650   18.5950  -25.9870 C   0  0  0  0  0  0  0  0  0  0  0  0
   -3.1710   19.3650  -27.0110 O   0  0  0  0  0  0  0  0  0  0  0  0
   -1.9710   19.9560  -26.5480 C   0  0  0  0  0  0  0  0  0  0  0  0
   -0.7910   19.5210  -27.3930 C   0  0  0  0  0  0  0  0  0  0  0  0
   -0.4610   18.1570  -27.4650 C   0  0  0  0  0  0  0  0  0  0  0  0
    0.6010   17.7250  -28.2650 C   0  0  0  0  0  0  0  0  0  0  0  0
    1.3410   18.6500  -29.0060 C   0  0  0  0  0  0  0  0  0  0  0  0
    2.3690   18.2270  -29.7850 F   0  0  0  0  0  0  0  0  0  0  0  0
    1.0240   20.0090  -28.9480 C   0  0  0  0  0  0  0  0  0  0  0  0
   -0.0380   20.4540  -28.1440 C   0  0  0  0  0  0  0  0  0  0  0  0
   -0.3520   21.8950  -28.1190 C   0  0  0  0  0  0  0  0  0  0  0  0
    0.0300   22.6290  -27.0410 N   0  0  0  0  0  0  0  0  0  0  0  0
   -0.2080   23.9640  -26.9690 C   0  0  0  0  0  0  0  0  0  0  0  0
   -0.8520   24.6020  -28.0260 C   0  0  0  0  0  0  0  0  0  0  0  0
   -1.2410   23.8770  -29.1060 N   0  0  0  0  0  0  0  0  0  0  0  0
   -1.0270   22.5320  -29.1840 C   0  0  0  0  0  0  0  0  0  0  0  0
   -1.4740   21.7640  -30.4150 C   0  0  0  0  0  0  0  0  0  0  0  0
   -2.5410   22.4620  -31.2010 C   0  0  0  0  0  0  0  0  0  0  0  0
   -3.5940   21.4580  -30.9620 N   0  0  0  0  0  0  0  0  0  0  0  0
   -4.9620   21.2680  -31.3190 C   0  0  0  0  0  0  0  0  0  0  0  0
   -5.7680   22.3670  -31.6420 C   0  0  0  0  0  0  0  0  0  0  0  0
   -7.1040   22.1630  -31.9920 C   0  0  0  0  0  0  0  0  0  0  0  0
   -7.6260   20.8640  -32.0150 C   0  0  0  0  0  0  0  0  0  0  0  0
   -8.9650   20.6220  -32.3590 C   0  0  0  0  0  0  0  0  0  0  0  0
   -9.4570   19.3120  -32.3690 C   0  0  0  0  0  0  0  0  0  0  0  0
   -8.6190   18.2430  -32.0370 C   0  0  0  0  0  0  0  0  0  0  0  0
   -7.2830   18.4750  -31.6940 C   0  0  0  0  0  0  0  0  0  0  0  0
   -6.7810   19.7820  -31.6810 C   0  0  0  0  0  0  0  0  0  0  0  0
   -5.4830   20.0120  -31.3470 N   0  0  0  0  0  0  0  0  0  0  0  0
   -2.5580   20.7510  -30.1860 C   0  0  0  0  0  0  0  0  0  0  0  0
   -3.4599   18.9905  -25.0070 H   0  0  0  0  0  0  0  0  0  0  0  0
   -4.8600   18.6460  -26.0782 H   0  0  0  0  0  0  0  0  0  0  0  0
   -3.4378   17.5488  -26.0782 H   0  0  0  0  0  0  0  0  0  0  0  0
   -2.0660   21.0507  -26.5990 H   0  0  0  0  0  0  0  0  0  0  0  0
   -1.7980   19.6324  -25.5110 H   0  0  0  0  0  0  0  0  0  0  0  0
   -1.0428   17.4235  -26.8875 H   0  0  0  0  0  0  0  0  0  0  0  0
    0.8543   16.6556  -28.3112 H   0  0  0  0  0  0  0  0  0  0  0  0
    1.6083   20.7335  -29.5343 H   0  0  0  0  0  0  0  0  0  0  0  0
    0.1052   24.5364  -26.0834 H   0  0  0  0  0  0  0  0  0  0  0  0
   -1.0440   25.6844  -27.9863 H   0  0  0  0  0  0  0  0  0  0  0  0
   -0.4764   21.5040  -30.7988 H   0  0  0  0  0  0  0  0  0  0  0  0
   -2.7947   23.4497  -30.7885 H   0  0  0  0  0  0  0  0  0  0  0  0
   -2.3117   22.7077  -32.2484 H   0  0  0  0  0  0  0  0  0  0  0  0
   -5.3509   23.3846  -31.6200 H   0  0  0  0  0  0  0  0  0  0  0  0
   -7.7443   23.0198  -32.2488 H   0  0  0  0  0  0  0  0  0  0  0  0
   -9.6268   21.4609  -32.6204 H   0  0  0  0  0  0  0  0  0  0  0  0
  -10.5064   19.1226  -32.6389 H   0  0  0  0  0  0  0  0  0  0  0  0
   -9.0120   17.2156  -32.0456 H   0  0  0  0  0  0  0  0  0  0  0  0
   -6.6270   17.6310  -31.4346 H   0  0  0  0  0  0  0  0  0  0  0  0
   -2.8219   20.6434  -29.1236 H   0  0  0  0  0  0  0  0  0  0  0  0
   -2.3410   19.7104  -30.4689 H   0  0  0  0  0  0  0  0  0  0  0  0
  1  2  1  0
  2  3  1  0
  3  4  1  0
  4  5  2  0
  5  6  1  0
  6  7  2  0
  7  8  1  0
  7  9  1  0
  9 10  2  0
 10 11  1  0
 11 12  2  0
 12 13  1  0
 13 14  2  0
 14 15  1  0
 15 16  2  0
 16 17  1  0
 17 18  1  0
 18 19  1  0
 19 20  1  0
 20 21  2  0
 21 22  1  0
 22 23  2  0
 23 24  1  0
 24 25  2  0
 25 26  1  0
 26 27  2  0
 27 28  1  0
 28 29  2  0
 19 30  1  0
 10  4  1  0
 16 11  1  0
 30 17  1  0
 29 20  1  0
 28 23  1  0
  1 31  1  0
  1 32  1  0
  1 33  1  0
  3 34  1  0
  3 35  1  0
  5 36  1  0
  6 37  1  0
  9 38  1  0
 13 39  1  0
 14 40  1  0
 17 41  1  0
 18 42  1  0
 18 43  1  0
 21 44  1  0
 22 45  1  0
 24 46  1  0
 25 47  1  0
 26 48  1  0
 27 49  1  0
 30 50  1  0
 30 51  1  0
M  END
>  <UniqueID>  (13) 
13

>  <SMILES>  (13) 
COCc1ccc(F)cc1-c1nccnc1C1CN(c2ccc3ccccc3n2)C1

>  <Energy>  (13) 
116.28033791412699

>  <Genealogy>  (13) 
COCc1ccc(F)cc1-c1nccnc1C1CN(c2ccc3ccccc3n2)C1 (3D coordinates assigned)
COCc1ccc(F)cc1-c1nccnc1C1CN(c2ccc3ccccc3n2)C1 (nonaromatic ring conformer: 116.28033791412699 kcal/mol)

>  <smiles>  (13) 
COCc1ccc(F)cc1-c1nccnc1C1CN(c2ccc3ccccc3n2)C1

>  <score_type>  (13) 
oracle

>  <origin>  (13) 
adg

>  <m_score__min__energy>  (13) 
-8.7599999999999998

>  <m_primary>  (13) 
energy

$$$$
13:0
     RDKit          3D

 69 70  0  0  0  0  0  0  0  0999 V2000
   -4.4870   16.5330  -33.4710 C   0  0  0  0  0  0  0  0  0  0  0  0
   -3.2610   16.9130  -34.2950 C   0  0  0  0  0  0  0  0  0  0  0  0
   -2.0500   17.1810  -33.3970 C   0  0  0  0  0  0  0  0  0  0  0  0
   -2.0240   18.6150  -32.9700 C   0  0  0  0  0  0  0  0  0  0  0  0
   -3.0440   19.5370  -33.1620 C   0  0  0  0  0  0  0  0  0  0  0  0
   -2.7780   20.7900  -32.5780 C   0  0  0  0  0  0  0  0  0  0  0  0
   -3.6910   21.9540  -32.6270 C   0  0  0  0  0  0  0  0  0  0  0  0
   -4.1790   22.2970  -33.7400 O   0  0  0  0  0  0  0  0  0  0  0  0
   -4.0140   22.7040  -31.4430 N   0  0  0  0  0  0  0  0  0  0  0  0
   -5.0050   23.7850  -31.4320 C   0  0  1  0  0  0  0  0  0  0  0  0
   -6.3830   23.1960  -31.0490 C   0  0  0  0  0  0  0  0  0  0  0  0
   -7.2320   22.7700  -32.2770 C   0  0  0  0  0  0  0  0  0  0  0  0
   -8.7400   22.9220  -31.9800 C   0  0  0  0  0  0  0  0  0  0  0  0
   -9.2470   21.8940  -30.9510 C   0  0  0  0  0  0  0  0  0  0  0  0
   -8.6130   20.4960  -31.1110 C   0  0  0  0  0  0  0  0  0  0  0  0
   -7.9910   20.2950  -32.4950 C   0  0  0  0  0  0  0  0  0  0  0  0
   -6.8840   21.3290  -32.7600 C   0  0  0  0  0  0  0  0  0  0  0  0
   -4.5370   24.8720  -30.4950 C   0  0  0  0  0  0  0  0  0  0  0  0
   -5.3680   25.7320  -30.0950 O   0  0  0  0  0  0  0  0  0  0  0  0
   -3.1870   24.8970  -30.0070 N   0  0  0  0  0  0  0  0  0  0  0  0
   -2.7200   24.3030  -28.7510 C   0  0  1  0  0  0  0  0  0  0  0  0
   -1.9320   23.0510  -29.0240 C   0  0  0  0  0  0  0  0  0  0  0  0
   -2.5060   21.9870  -29.1950 O   0  0  0  0  0  0  0  0  0  0  0  0
   -1.8930   25.3110  -27.9250 C   0  0  0  0  0  0  0  0  0  0  0  0
   -0.4240   24.8720  -27.7750 C   0  0  0  0  0  0  0  0  0  0  0  0
    0.4150   25.9110  -27.0190 C   0  0  0  0  0  0  0  0  0  0  0  0
   -0.3770   26.5950  -25.9930 N   0  0  0  0  0  0  0  0  0  0  0  0
   -0.1960   26.4330  -24.5740 C   0  0  0  0  0  0  0  0  0  0  0  0
   -1.2650   26.7890  -23.6930 N   0  0  0  0  0  0  0  0  0  0  0  0
    0.9220   25.9870  -24.0790 N   0  0  0  0  0  0  0  0  0  0  0  0
   -1.5430   20.8370  -31.9290 C   0  0  0  0  0  0  0  0  0  0  0  0
   -0.8030   19.3340  -32.0660 S   0  0  0  0  0  0  0  0  0  0  0  0
   -4.2466   16.6075  -32.4002 H   0  0  0  0  0  0  0  0  0  0  0  0
   -5.3152   17.2166  -33.7093 H   0  0  0  0  0  0  0  0  0  0  0  0
   -4.7834   15.5008  -33.7093 H   0  0  0  0  0  0  0  0  0  0  0  0
   -3.0218   16.0887  -34.9830 H   0  0  0  0  0  0  0  0  0  0  0  0
   -3.4893   17.8322  -34.8545 H   0  0  0  0  0  0  0  0  0  0  0  0
   -2.1103   16.5386  -32.5061 H   0  0  0  0  0  0  0  0  0  0  0  0
   -1.1318   16.9601  -33.9611 H   0  0  0  0  0  0  0  0  0  0  0  0
   -3.9676   19.3111  -33.7151 H   0  0  0  0  0  0  0  0  0  0  0  0
   -3.5830   22.4450  -30.5280 H   0  0  0  0  0  0  0  0  0  0  0  0
   -5.1145   24.2441  -32.4256 H   0  0  0  0  0  0  0  0  0  0  0  0
   -6.2207   22.3129  -30.4135 H   0  0  0  0  0  0  0  0  0  0  0  0
   -6.9410   23.9865  -30.5258 H   0  0  0  0  0  0  0  0  0  0  0  0
   -6.9783   23.4481  -33.1052 H   0  0  0  0  0  0  0  0  0  0  0  0
   -8.9216   23.9332  -31.5868 H   0  0  0  0  0  0  0  0  0  0  0  0
   -9.2841   22.7489  -32.9202 H   0  0  0  0  0  0  0  0  0  0  0  0
   -9.0152   22.2677  -29.9427 H   0  0  0  0  0  0  0  0  0  0  0  0
  -10.3285   21.7787  -31.1158 H   0  0  0  0  0  0  0  0  0  0  0  0
   -7.8285   20.3741  -30.3496 H   0  0  0  0  0  0  0  0  0  0  0  0
   -9.4110   19.7487  -30.9890 H   0  0  0  0  0  0  0  0  0  0  0  0
   -7.5599   19.2846  -32.5518 H   0  0  0  0  0  0  0  0  0  0  0  0
   -8.7774   20.4230  -33.2534 H   0  0  0  0  0  0  0  0  0  0  0  0
   -5.9724   21.0006  -32.2393 H   0  0  0  0  0  0  0  0  0  0  0  0
   -6.7535   21.3823  -33.8509 H   0  0  0  0  0  0  0  0  0  0  0  0
   -3.6023   24.0338  -28.1518 H   0  0  0  0  0  0  0  0  0  0  0  0
   -0.8338   23.0943  -29.0698 H   0  0  0  0  0  0  0  0  0  0  0  0
   -1.9211   26.2889  -28.4279 H   0  0  0  0  0  0  0  0  0  0  0  0
   -2.3340   25.3661  -26.9188 H   0  0  0  0  0  0  0  0  0  0  0  0
   -0.3926   23.9211  -27.2229 H   0  0  0  0  0  0  0  0  0  0  0  0
    0.0013   24.7623  -28.7835 H   0  0  0  0  0  0  0  0  0  0  0  0
    1.2634   25.4034  -26.5367 H   0  0  0  0  0  0  0  0  0  0  0  0
    0.7681   26.6620  -27.7410 H   0  0  0  0  0  0  0  0  0  0  0  0
   -1.1870   27.1700  -26.3170 H   0  0  0  0  0  0  0  0  0  0  0  0
   -1.1690   26.6800  -22.6590 H   0  0  0  0  0  0  0  0  0  0  0  0
   -2.1580   27.1720  -24.0760 H   0  0  0  0  0  0  0  0  0  0  0  0
    1.8310   26.1920  -24.5500 H   0  0  0  0  0  0  0  0  0  0  0  0
    0.9520   25.4030  -23.2170 H   0  0  0  0  0  0  0  0  0  0  0  0
   -1.1233   21.7131  -31.4130 H   0  0  0  0  0  0  0  0  0  0  0  0
  1  2  1  0
  2  3  1  0
  3  4  1  0
  4  5  2  0
  5  6  1  0
  6  7  1  0
  7  8  2  0
  7  9  1  0
  9 10  1  0
 10 11  1  0
 11 12  1  0
 12 13  1  0
 13 14  1  0
 14 15  1  0
 15 16  1  0
 16 17  1  0
 10 18  1  0
 18 19  2  0
 18 20  1  0
 20 21  1  0
 21 22  1  0
 22 23  2  0
 21 24  1  0
 24 25  1  0
 25 26  1  0
 26 27  1  0
 27 28  1  0
 28 29  1  0
 28 30  2  0
  6 31  2  0
 31 32  1  0
 32  4  1  0
 17 12  1  0
  1 33  1  0
  1 34  1  0
  1 35  1  0
  2 36  1  0
  2 37  1  0
  3 38  1  0
  3 39  1  0
  5 40  1  0
  9 41  1  0
 10 42  1  6
 11 43  1  0
 11 44  1  0
 12 45  1  0
 13 46  1  0
 13 47  1  0
 14 48  1  0
 14 49  1  0
 15 50  1  0
 15 51  1  0
 16 52  1  0
 16 53  1  0
 17 54  1  0
 17 55  1  0
 21 56  1  1
 22 57  1  0
 24 58  1  0
 24 59  1  0
 25 60  1  0
 25 61  1  0
 26 62  1  0
 26 63  1  0
 27 64  1  0
 29 65  1  0
 29 66  1  0
 30 67  1  0
 30 68  1  0
 31 69  1  0
M  CHG  2  20  -1  30   1
M  END
>  <UniqueID>  (14) 
14

>  <SMILES>  (14) 
CCCc1cc(C(=O)N[C@@H](CC2CCCCC2)C(=O)[N-][C@@H](C=O)CCCNC(N)=[NH2+])cs1

>  <Energy>  (14) 
76.61002931198175

>  <Genealogy>  (14) 
CCCc1cc(C(=O)NC(CC2CCCCC2)C(=O)[N-]C(C=O)CCCNC(N)=[NH2+])cs1 (protonated)
CCCc1cc(C(=O)N[C@@H](CC2CCCCC2)C(=O)[N-][C@@H](C=O)CCCNC(N)=[NH2+])cs1 (chirality)
CCCc1cc(C(=O)N[C@@H](CC2CCCCC2)C(=O)[N-][C@@H](C=O)CCCNC(N)=[NH2+])cs1 (3D coordinates assigned)
CCCc1cc(C(=O)N[C@@H](CC2CCCCC2)C(=O)[N-][C@@H](C=O)CCCNC(N)=[NH2+])cs1 (nonaromatic ring conformer: 76.61002931198175 kcal/mol)

>  <smiles>  (14) 
CCCc1cc(C(=O)NC(CC2CCCCC2)C(=O)NC(C=O)CCCNC(=N)N)cs1

>  <score_type>  (14) 
oracle

>  <origin>  (14) 
adg

>  <m_score__min__energy>  (14) 
-12.76

>  <m_primary>  (14) 
energy

$$$$
14:0
     RDKit          3D

 36 39  0  0  0  0  0  0  0  0999 V2000
   -4.0390   25.2600  -30.8280 O   0  0  0  0  0  0  0  0  0  0  0  0
   -3.5100   24.7650  -29.7960 C   0  0  0  0  0  0  0  0  0  0  0  0
   -2.3440   25.2920  -29.3440 N   0  0  0  0  0  0  0  0  0  0  0  0
   -1.7180   24.7950  -28.2510 C   0  0  0  0  0  0  0  0  0  0  0  0
   -0.5160   25.3630  -27.8120 C   0  0  0  0  0  0  0  0  0  0  0  0
    0.1340   24.8450  -26.6890 C   0  0  0  0  0  0  0  0  0  0  0  0
   -0.4120   23.7580  -26.0000 C   0  0  0  0  0  0  0  0  0  0  0  0
    0.4820   23.0540  -24.4670 Br  0  0  0  0  0  0  0  0  0  0  0  0
   -1.6140   23.1840  -26.4330 C   0  0  0  0  0  0  0  0  0  0  0  0
   -2.2760   23.7020  -27.5630 C   0  0  0  0  0  0  0  0  0  0  0  0
   -3.4840   23.1630  -28.0400 C   0  0  0  0  0  0  0  0  0  0  0  0
   -4.0000   22.1700  -27.4530 O   0  0  0  0  0  0  0  0  0  0  0  0
   -4.0990   23.7110  -29.1420 N   0  0  0  0  0  0  0  0  0  0  0  0
   -5.3520   23.1290  -29.6580 C   0  0  0  0  0  0  0  0  0  0  0  0
   -5.1150   22.5200  -31.0020 C   0  0  0  0  0  0  0  0  0  0  0  0
   -5.2360   21.2010  -31.2640 N   0  0  0  0  0  0  0  0  0  0  0  0
   -4.8940   21.1460  -32.5710 C   0  0  0  0  0  0  0  0  0  0  0  0
   -4.8610   19.8860  -33.3540 C   0  0  0  0  0  0  0  0  0  0  0  0
   -3.6450   19.2460  -33.6650 C   0  0  0  0  0  0  0  0  0  0  0  0
   -3.6380   18.0590  -34.4040 C   0  0  0  0  0  0  0  0  0  0  0  0
   -4.8390   17.4970  -34.8410 C   0  0  0  0  0  0  0  0  0  0  0  0
   -6.0510   18.1210  -34.5400 C   0  0  0  0  0  0  0  0  0  0  0  0
   -6.0640   19.3080  -33.8020 C   0  0  0  0  0  0  0  0  0  0  0  0
   -4.5850   22.3680  -33.0480 N   0  0  0  0  0  0  0  0  0  0  0  0
   -4.7270   23.1920  -32.0580 O   0  0  0  0  0  0  0  0  0  0  0  0
   -0.0829   26.2180  -28.3518 H   0  0  0  0  0  0  0  0  0  0  0  0
    1.0780   25.2937  -26.3460 H   0  0  0  0  0  0  0  0  0  0  0  0
   -2.0412   22.3280  -25.8901 H   0  0  0  0  0  0  0  0  0  0  0  0
   -5.7068   22.3532  -28.9636 H   0  0  0  0  0  0  0  0  0  0  0  0
   -6.1090   23.9219  -29.7484 H   0  0  0  0  0  0  0  0  0  0  0  0
   -2.6948   19.6830  -33.3242 H   0  0  0  0  0  0  0  0  0  0  0  0
   -2.6835   17.5666  -34.6417 H   0  0  0  0  0  0  0  0  0  0  0  0
   -4.8303   16.5631  -35.4221 H   0  0  0  0  0  0  0  0  0  0  0  0
   -6.9972   17.6779  -34.8841 H   0  0  0  0  0  0  0  0  0  0  0  0
   -7.0226   19.7948  -33.5692 H   0  0  0  0  0  0  0  0  0  0  0  0
   -4.2790   22.6410  -34.0080 H   0  0  0  0  0  0  0  0  0  0  0  0
  1  2  2  0
  2  3  1  0
  3  4  1  0
  4  5  2  0
  5  6  1  0
  6  7  2  0
  7  8  1  0
  7  9  1  0
  9 10  2  0
 10 11  1  0
 11 12  2  0
 11 13  1  0
 13 14  1  0
 14 15  1  0
 15 16  2  0
 16 17  1  0
 17 18  1  0
 18 19  2  0
 19 20  1  0
 20 21  2  0
 21 22  1  0
 22 23  2  0
 17 24  2  0
 24 25  1  0
 13  2  1  0
 25 15  1  0
 10  4  1  0
 23 18  1  0
  5 26  1  0
  6 27  1  0
  9 28  1  0
 14 29  1  0
 14 30  1  0
 19 31  1  0
 20 32  1  0
 21 33  1  0
 22 34  1  0
 23 35  1  0
 24 36  1  0
M  CHG  2   3  -1  24   1
M  END
>  <UniqueID>  (15) 
15

>  <SMILES>  (15) 
O=c1[n-]c2ccc(Br)cc2c(=O)n1Cc1nc(-c2ccccc2)[nH+]o1

>  <Energy>  (15) 
83.06257825199187

>  <Genealogy>  (15) 
O=c1[n-]c2ccc(Br)cc2c(=O)n1Cc1nc(-c2ccccc2)[nH+]o1 (protonated)
O=c1[n-]c2ccc(Br)cc2c(=O)n1Cc1nc(-c2ccccc2)[nH+]o1 (3D coordinates assigned)
O=c1[n-]c2ccc(Br)cc2c(=O)n1Cc1nc(-c2ccccc2)[nH+]o1 (optimized conformer: 83.06257825199187 kcal/mol)

>  <smiles>  (15) 
O=c1[nH]c2ccc(Br)cc2c(=O)n1Cc1nc(-c2ccccc2)no1

>  <score_type>  (15) 
oracle

>  <origin>  (15) 
adg

>  <m_score__min__energy>  (15) 
-9.6199999999999992

>  <m_primary>  (15) 
energy

$$$$
15:0
     RDKit          3D

 35 35  0  0  0  0  0  0  0  0999 V2000
   -3.3710   24.8840  -31.5820 H   0  0  0  0  0  0  0  0  0  0  0  0
   -3.8550   25.2850  -30.8130 O   0  0  0  0  0  0  0  0  0  0  0  0
   -4.7910   24.3330  -30.3760 C   0  0  2  0  0  0  0  0  0  0  0  0
   -4.9999   24.4557  -29.3030 H   0  0  0  0  0  0  0  0  0  0  0  0
   -4.2150   22.9170  -30.5470 C   0  0  0  0  0  0  0  0  0  0  0  0
   -3.4337   22.7501  -29.7909 H   0  0  0  0  0  0  0  0  0  0  0  0
   -5.0263   22.1849  -30.4213 H   0  0  0  0  0  0  0  0  0  0  0  0
   -3.6360   22.7580  -31.8810 N   0  0  0  0  0  0  0  0  0  0  0  0
   -3.8530   21.7620  -32.6920 C   0  0  0  0  0  0  0  0  0  0  0  0
   -4.9710   20.8130  -32.4940 C   0  0  0  0  0  0  0  0  0  0  0  0
   -6.2180   21.0630  -33.0850 C   0  0  0  0  0  0  0  0  0  0  0  0
   -6.3685   21.9719  -33.6861 H   0  0  0  0  0  0  0  0  0  0  0  0
   -7.2420   20.1830  -32.9160 N   0  0  0  0  0  0  0  0  0  0  0  0
   -7.0920   19.0430  -32.1900 C   0  0  0  0  0  0  0  0  0  0  0  0
   -7.9409   18.3545  -32.0662 H   0  0  0  0  0  0  0  0  0  0  0  0
   -5.8620   18.7460  -31.6020 C   0  0  0  0  0  0  0  0  0  0  0  0
   -5.7346   17.8224  -31.0183 H   0  0  0  0  0  0  0  0  0  0  0  0
   -4.7950   19.6310  -31.7610 C   0  0  0  0  0  0  0  0  0  0  0  0
   -3.8174   19.4016  -31.3120 H   0  0  0  0  0  0  0  0  0  0  0  0
   -3.0170   21.6130  -33.8400 N   0  0  0  0  0  0  0  0  0  0  0  0
   -2.2490   22.2960  -34.0270 H   0  0  0  0  0  0  0  0  0  0  0  0
   -3.1600   20.8210  -34.5060 H   0  0  0  0  0  0  0  0  0  0  0  0
   -6.1250   24.5480  -31.1210 C   0  0  0  0  0  0  0  0  0  0  0  0
   -5.9194   24.5764  -32.2012 H   0  0  0  0  0  0  0  0  0  0  0  0
   -6.5523   25.4919  -30.7516 H   0  0  0  0  0  0  0  0  0  0  0  0
   -7.1670   23.4440  -30.8520 C   0  0  0  0  0  0  0  0  0  0  0  0
   -7.6756   23.6623  -29.9014 H   0  0  0  0  0  0  0  0  0  0  0  0
   -6.6343   22.4824  -30.8126 H   0  0  0  0  0  0  0  0  0  0  0  0
   -8.2220   23.3500  -31.9660 C   0  0  0  0  0  0  0  0  0  0  0  0
   -7.7094   23.1625  -32.9210 H   0  0  0  0  0  0  0  0  0  0  0  0
   -8.7750   24.3008  -31.9804 H   0  0  0  0  0  0  0  0  0  0  0  0
   -9.2360   22.2300  -31.7270 C   0  0  0  0  0  0  0  0  0  0  0  0
   -9.3703   22.0817  -30.6454 H   0  0  0  0  0  0  0  0  0  0  0  0
  -10.1993   22.5043  -32.1819 H   0  0  0  0  0  0  0  0  0  0  0  0
   -8.8676   21.2987  -32.1819 H   0  0  0  0  0  0  0  0  0  0  0  0
  1  2  1  0
  2  3  1  0
  3  4  1  1
  3  5  1  0
  5  6  1  0
  5  7  1  0
  5  8  1  0
  8  9  2  0
  9 10  1  0
 10 11  2  0
 11 12  1  0
 11 13  1  0
 13 14  2  0
 14 15  1  0
 14 16  1  0
 16 17  1  0
 16 18  2  0
 18 19  1  0
  9 20  1  0
 20 21  1  0
 20 22  1  0
  3 23  1  0
 23 24  1  0
 23 25  1  0
 23 26  1  0
 26 27  1  0
 26 28  1  0
 26 29  1  0
 29 30  1  0
 29 31  1  0
 29 32  1  0
 32 33  1  0
 32 34  1  0
 32 35  1  0
 18 10  1  0
M  END
>  <UniqueID>  (16) 
16

>  <SMILES>  (16) 
CCCC[C@H](O)C/N=C(/N)c1cccnc1

>  <Energy>  (16) 
30.522378865503658

>  <Genealogy>  (16) 
CCCC[C@H](O)CN=C(N)c1cccnc1 (chirality)
CCCC[C@H](O)C/N=C(/N)c1cccnc1 (cis-trans isomerization)
CCCC[C@H](O)C/N=C(/N)c1cccnc1 (3D coordinates assigned)
CCCC[C@H](O)C/N=C(/N)c1cccnc1 (optimized conformer: 30.522378865503658 kcal/mol)

>  <smiles>  (16) 
CCCCC(O)CN=C(N)c1cccnc1

>  <score_type>  (16) 
oracle

>  <origin>  (16) 
adg

>  <m_score__min__energy>  (16) 
-6.3099999999999996

>  <m_primary>  (16) 
energy

$$$$
16:0
     RDKit          3D

 39 41  0  0  0  0  0  0  0  0999 V2000
   -7.5263   16.8597  -32.6408 H   0  0  0  0  0  0  0  0  0  0  0  0
   -7.3600   17.9470  -32.6550 C   0  0  0  0  0  0  0  0  0  0  0  0
   -8.3980   18.8160  -32.3070 C   0  0  0  0  0  0  0  0  0  0  0  0
   -9.3799   18.4125  -32.0190 H   0  0  0  0  0  0  0  0  0  0  0  0
   -8.1880   20.1990  -32.3250 C   0  0  0  0  0  0  0  0  0  0  0  0
   -9.4930   21.2880  -31.8930 Cl  0  0  0  0  0  0  0  0  0  0  0  0
   -6.9390   20.7130  -32.6890 C   0  0  0  0  0  0  0  0  0  0  0  0
   -6.7783   21.8011  -32.7054 H   0  0  0  0  0  0  0  0  0  0  0  0
   -5.8880   19.8450  -33.0340 C   0  0  0  0  0  0  0  0  0  0  0  0
   -4.5550   20.3940  -33.4670 C   0  0  0  0  0  0  0  0  0  0  0  0
   -4.6765   20.9368  -34.4160 H   0  0  0  0  0  0  0  0  0  0  0  0
   -3.8493   19.5606  -33.5987 H   0  0  0  0  0  0  0  0  0  0  0  0
   -4.0150   21.3350  -32.4210 C   0  0  0  0  0  0  0  0  0  0  0  0
   -2.9230   20.9990  -31.6110 C   0  0  0  0  0  0  0  0  0  0  0  0
   -2.4910   21.8530  -30.6380 C   0  0  0  0  0  0  0  0  0  0  0  0
   -1.4140   21.2640  -30.0140 C   0  0  0  0  0  0  0  0  0  0  0  0
   -0.8179   21.6701  -29.1835 H   0  0  0  0  0  0  0  0  0  0  0  0
   -1.2430   20.0460  -30.6600 C   0  0  0  0  0  0  0  0  0  0  0  0
   -0.4624   19.3116  -30.4124 H   0  0  0  0  0  0  0  0  0  0  0  0
   -2.1670   19.8860  -31.6350 N   0  0  0  0  0  0  0  0  0  0  0  0
   -2.2500   19.0650  -32.2720 H   0  0  0  0  0  0  0  0  0  0  0  0
   -3.1060   23.0760  -30.4060 C   0  0  0  0  0  0  0  0  0  0  0  0
   -2.7448   23.7568  -29.6211 H   0  0  0  0  0  0  0  0  0  0  0  0
   -4.2170   23.4140  -31.2190 C   0  0  0  0  0  0  0  0  0  0  0  0
   -4.8640   24.5390  -31.0770 N   0  0  0  0  0  0  0  0  0  0  0  0
   -6.2420   24.7310  -30.6140 C   0  0  0  0  0  0  0  0  0  0  0  0
   -6.8386   25.1966  -31.4123 H   0  0  0  0  0  0  0  0  0  0  0  0
   -6.8340   23.3680  -30.2540 C   0  0  0  0  0  0  0  0  0  0  0  0
   -6.8787   23.2651  -29.1597 H   0  0  0  0  0  0  0  0  0  0  0  0
   -7.8484   23.2870  -30.6716 H   0  0  0  0  0  0  0  0  0  0  0  0
   -6.2008   22.5714  -30.6716 H   0  0  0  0  0  0  0  0  0  0  0  0
   -6.2690   25.6580  -29.3940 C   0  0  0  0  0  0  0  0  0  0  0  0
   -6.2514   25.0545  -28.4745 H   0  0  0  0  0  0  0  0  0  0  0  0
   -5.3897   26.3186  -29.4159 H   0  0  0  0  0  0  0  0  0  0  0  0
   -7.1852   26.2663  -29.4159 H   0  0  0  0  0  0  0  0  0  0  0  0
   -4.6330   22.5370  -32.1930 N   0  0  0  0  0  0  0  0  0  0  0  0
   -5.4570   22.7990  -32.7820 H   0  0  0  0  0  0  0  0  0  0  0  0
   -6.1110   18.4570  -33.0210 C   0  0  0  0  0  0  0  0  0  0  0  0
   -5.2991   17.7693  -33.3001 H   0  0  0  0  0  0  0  0  0  0  0  0
  1  2  1  0
  2  3  2  0
  3  4  1  0
  3  5  1  0
  5  6  1  0
  5  7  2  0
  7  8  1  0
  7  9  1  0
  9 10  1  0
 10 11  1  0
 10 12  1  0
 10 13  1  0
 13 14  2  0
 14 15  1  0
 15 16  1  0
 16 17  1  0
 16 18  2  0
 18 19  1  0
 18 20  1  0
 20 21  1  0
 15 22  2  0
 22 23  1  0
 22 24  1  0
 24 25  2  0
 25 26  1  0
 26 27  1  0
 26 28  1  0
 28 29  1  0
 28 30  1  0
 28 31  1  0
 26 32  1  0
 32 33  1  0
 32 34  1  0
 32 35  1  0
 24 36  1  0
 36 37  1  0
  9 38  2  0
 38 39  1  0
 38  2  1  0
 36 13  1  0
 20 14  1  0
M  END
>  <UniqueID>  (17) 
17

>  <SMILES>  (17) 
CC(C)/N=c1\cc2cc[nH]c2c(Cc2cccc(Cl)c2)[nH]1

>  <Energy>  (17) 
70.73428883742173

>  <Genealogy>  (17) 
CC(C)/N=c1\cc2cc[nH]c2c(Cc2cccc(Cl)c2)[nH]1 (cis-trans isomerization)
CC(C)/N=c1\cc2cc[nH]c2c(Cc2cccc(Cl)c2)[nH]1 (3D coordinates assigned)
CC(C)/N=c1\cc2cc[nH]c2c(Cc2cccc(Cl)c2)[nH]1 (optimized conformer: 70.73428883742173 kcal/mol)

>  <smiles>  (17) 
CC(C)N=c1cc2cc[nH]c2c(Cc2cccc(Cl)c2)[nH]1

>  <score_type>  (17) 
oracle

>  <origin>  (17) 
adg

>  <m_score__min__energy>  (17) 
-7.9699999999999998

>  <m_primary>  (17) 
energy

$$$$
17:0
     RDKit          3D

 39 41  0  0  1  0  0  0  0  0999 V2000
   -4.9780   24.4980  -28.9070 N   0  0  0  0  0  0  0  0  0  0  0  0
   -5.1770   24.2340  -30.6060 S   0  0  0  0  0  0  0  0  0  0  0  0
   -5.6150   25.5290  -31.2080 O   0  0  0  0  0  0  0  0  0  0  0  0
   -3.8230   23.7950  -31.1180 O   0  0  0  0  0  0  0  0  0  0  0  0
   -6.4060   23.0410  -30.9510 C   0  0  0  0  0  0  0  0  0  0  0  0
   -7.5020   22.8970  -30.1050 C   0  0  0  0  0  0  0  0  0  0  0  0
   -8.4880   21.9550  -30.3600 C   0  0  0  0  0  0  0  0  0  0  0  0
   -0.6850   20.4960  -33.2280 C   0  0  0  0  0  0  0  0  0  0  0  0
   -2.0380   20.2320  -33.1100 C   0  0  0  0  0  0  0  0  0  0  0  0
   -7.2350   20.4120  -33.4650 N   0  0  0  0  0  0  0  0  0  0  0  0
   -6.2100   19.6340  -33.5760 C   0  0  0  0  0  0  0  0  0  0  0  0
   -6.4700   18.2700  -33.4250 C   0  0  0  0  0  0  0  0  0  0  0  0
   -5.4420   17.3550  -33.5270 C   0  0  0  0  0  0  0  0  0  0  0  0
   -4.2110   17.8380  -33.7740 N   0  0  0  0  0  0  0  0  0  0  0  0
   -3.9760   19.1720  -33.9190 C   0  0  0  0  0  0  0  0  0  0  0  0
   -2.7500   19.5400  -34.1560 N   0  0  0  0  0  0  0  0  0  0  0  0
   -7.2710   21.2820  -32.3410 C   0  0  0  0  0  0  0  0  0  0  0  0
   -2.7440   20.6080  -32.0150 C   0  0  0  0  0  0  0  0  0  0  0  0
   -0.0770   21.1680  -32.1720 C   0  0  0  0  0  0  0  0  0  0  0  0
   -0.7980   21.5500  -31.0580 C   0  0  0  0  0  0  0  0  0  0  0  0
   -2.1510   21.2820  -30.9470 C   0  0  0  0  0  0  0  0  0  0  0  0
   -8.3530   21.1550  -31.4870 C   0  0  0  0  0  0  0  0  0  0  0  0
   -4.9640   20.0800  -33.8230 N   0  0  0  0  0  0  0  0  0  0  0  0
   -6.2930   22.2220  -32.0800 C   0  0  0  0  0  0  0  0  0  0  0  0
   -5.8520   24.2630  -28.3660 H   0  0  0  0  0  0  0  0  0  0  0  0
   -4.6660   25.4710  -28.6910 H   0  0  0  0  0  0  0  0  0  0  0  0
   -7.5879   23.5419  -29.2180 H   0  0  0  0  0  0  0  0  0  0  0  0
   -9.3523   21.8449  -29.6885 H   0  0  0  0  0  0  0  0  0  0  0  0
   -0.1152   20.1883  -34.1172 H   0  0  0  0  0  0  0  0  0  0  0  0
   -7.4950   17.9248  -33.2246 H   0  0  0  0  0  0  0  0  0  0  0  0
   -5.6216   16.2760  -33.4112 H   0  0  0  0  0  0  0  0  0  0  0  0
   -3.4460   17.1280  -33.8470 H   0  0  0  0  0  0  0  0  0  0  0  0
   -3.8178   20.3743  -31.9673 H   0  0  0  0  0  0  0  0  0  0  0  0
    0.9971   21.3990  -32.2256 H   0  0  0  0  0  0  0  0  0  0  0  0
   -0.2856   22.0789  -30.2409 H   0  0  0  0  0  0  0  0  0  0  0  0
   -2.7295   21.5849  -30.0618 H   0  0  0  0  0  0  0  0  0  0  0  0
   -9.1245   20.4022  -31.7064 H   0  0  0  0  0  0  0  0  0  0  0  0
   -4.7930   21.1040  -33.9330 H   0  0  0  0  0  0  0  0  0  0  0  0
   -5.4309   22.3261  -32.7553 H   0  0  0  0  0  0  0  0  0  0  0  0
  1  2  1  0
  2  3  2  0
  2  4  2  0
  2  5  1  0
  5  6  2  0
  6  7  1  0
  7  8  2  0
  8  9  1  0
  9 10  1  0
 10 11  2  0
 11 12  1  0
 12 13  2  0
 13 14  1  0
 14 15  1  0
 15 16  2  0
 16 17  1  0
 17 18  2  0
 18 19  1  0
 19 20  2  0
 20 21  1  0
 21 22  2  0
 15 23  1  0
  9 24  2  0
 24  5  1  0
 23 11  1  0
 22 17  1  0
  1 25  1  0
  1 26  1  0
  6 27  1  0
  7 28  1  0
  8 29  1  0
 12 30  1  0
 13 31  1  0
 14 32  1  0
 18 33  1  0
 19 34  1  0
 20 35  1  0
 21 36  1  0
 22 37  1  0
 23 38  1  0
 24 39  1  0
M  END
>  <smiles>  (18) 
NS(=O)(=O)c1cccc(N=c2cc[nH]c(=Nc3ccccc3)[nH]2)c1

>  <score_type>  (18) 
oracle

>  <origin>  (18) 
adg

>  <m_score__min__energy>  (18) 
-8.9499999999999993

>  <m_primary>  (18) 
energy

$$$$
18:0
     RDKit          3D

 29 30  0  0  0  0  0  0  0  0999 V2000
   -8.5090   23.3960  -31.9670 O   0  0  0  0  0  0  0  0  0  0  0  0
   -7.3990   22.7970  -31.9530 C   0  0  0  0  0  0  0  0  0  0  0  0
   -7.3840   21.3290  -32.2110 C   0  0  0  0  0  0  0  0  0  0  0  0
   -6.4230   20.7180  -33.0430 C   0  0  0  0  0  0  0  0  0  0  0  0
   -6.4380   19.3360  -33.2480 C   0  0  0  0  0  0  0  0  0  0  0  0
   -7.4030   18.5430  -32.6260 C   0  0  0  0  0  0  0  0  0  0  0  0
   -8.3540   19.1310  -31.7910 C   0  0  0  0  0  0  0  0  0  0  0  0
   -8.3440   20.5140  -31.5810 C   0  0  0  0  0  0  0  0  0  0  0  0
   -6.1610   23.6300  -31.6750 C   0  0  0  0  0  0  0  0  0  0  0  0
   -5.0190   22.8200  -31.0320 C   0  0  0  0  0  0  0  0  0  0  0  0
   -3.7510   23.6850  -30.8530 C   0  0  0  0  0  0  0  0  0  0  0  0
   -4.0280   25.1220  -30.6570 N   0  0  0  0  0  0  0  0  0  0  0  0
   -5.3170   25.3630  -29.9940 C   0  0  0  0  0  0  0  0  0  0  0  0
   -6.4900   24.9180  -30.8860 C   0  0  0  0  0  0  0  0  0  0  0  0
   -5.6557   21.3343  -33.5343 H   0  0  0  0  0  0  0  0  0  0  0  0
   -5.6859   18.8712  -33.9025 H   0  0  0  0  0  0  0  0  0  0  0  0
   -7.4141   17.4559  -32.7936 H   0  0  0  0  0  0  0  0  0  0  0  0
   -9.1127   18.5060  -31.2972 H   0  0  0  0  0  0  0  0  0  0  0  0
   -9.0936   20.9694  -30.9171 H   0  0  0  0  0  0  0  0  0  0  0  0
   -5.7820   23.9484  -32.6573 H   0  0  0  0  0  0  0  0  0  0  0  0
   -5.3474   22.4568  -30.0470 H   0  0  0  0  0  0  0  0  0  0  0  0
   -4.7743   21.9770  -31.6949 H   0  0  0  0  0  0  0  0  0  0  0  0
   -3.2013   23.3156  -29.9747 H   0  0  0  0  0  0  0  0  0  0  0  0
   -3.1709   23.5964  -31.7834 H   0  0  0  0  0  0  0  0  0  0  0  0
   -4.0380   25.6000  -31.5900 H   0  0  0  0  0  0  0  0  0  0  0  0
   -5.3476   24.7971  -29.0513 H   0  0  0  0  0  0  0  0  0  0  0  0
   -5.4144   26.4415  -29.8005 H   0  0  0  0  0  0  0  0  0  0  0  0
   -7.3682   24.7308  -30.2507 H   0  0  0  0  0  0  0  0  0  0  0  0
   -6.6881   25.7201  -31.6122 H   0  0  0  0  0  0  0  0  0  0  0  0
  1  2  2  0
  2  3  1  0
  3  4  2  0
  4  5  1  0
  5  6  2  0
  6  7  1  0
  7  8  2  0
  2  9  1  0
  9 10  1  0
 10 11  1  0
 11 12  1  0
 12 13  1  0
 13 14  1  0
  8  3  1  0
 14  9  1  0
  4 15  1  0
  5 16  1  0
  6 17  1  0
  7 18  1  0
  8 19  1  0
  9 20  1  0
 10 21  1  0
 10 22  1  0
 11 23  1  0
 11 24  1  0
 12 25  1  0
 13 26  1  0
 13 27  1  0
 14 28  1  0
 14 29  1  0
M  END
>  <UniqueID>  (19) 
18

>  <SMILES>  (19) 
O=C(c1ccccc1)C1CCNCC1

>  <Energy>  (19) 
38.179396542624474

>  <Genealogy>  (19) 
O=C(c1ccccc1)C1CCNCC1 (3D coordinates assigned)
O=C(c1ccccc1)C1CCNCC1 (nonaromatic ring conformer: 38.179396542624474 kcal/mol)

>  <smiles>  (19) 
O=C(c1ccccc1)C1CCNCC1

>  <score_type>  (19) 
oracle

>  <origin>  (19) 
adg

>  <m_score__min__energy>  (19) 
-7.5899999999999999

>  <m_primary>  (19) 
energy

$$$$
19:0
     RDKit          3D

 46 48  0  0  0  0  0  0  0  0999 V2000
   -0.5120   26.2070  -27.4220 C   0  0  0  0  0  0  0  0  0  0  0  0
   -1.3190   25.0790  -27.9790 C   0  0  0  0  0  0  0  0  0  0  0  0
   -1.2370   23.8000  -27.4190 C   0  0  0  0  0  0  0  0  0  0  0  0
   -2.0080   22.7750  -27.9770 C   0  0  0  0  0  0  0  0  0  0  0  0
   -1.9450   21.3910  -27.4160 C   0  0  0  0  0  0  0  0  0  0  0  0
   -2.8050   23.0380  -29.0460 N   0  0  0  0  0  0  0  0  0  0  0  0
   -2.8730   24.2850  -29.5850 C   0  0  0  0  0  0  0  0  0  0  0  0
   -3.6510   24.4990  -30.6010 N   0  0  0  0  0  0  0  0  0  0  0  0
   -5.3630   24.7480  -30.4670 S   0  0  0  0  0  0  0  0  0  0  0  0
   -5.7370   26.0150  -31.1830 O   0  0  0  0  0  0  0  0  0  0  0  0
   -5.7360   24.8900  -29.0170 O   0  0  0  0  0  0  0  0  0  0  0  0
   -6.2240   23.3990  -31.2020 C   0  0  0  0  0  0  0  0  0  0  0  0
   -7.5510   23.1200  -30.8480 C   0  0  0  0  0  0  0  0  0  0  0  0
   -8.2160   22.0300  -31.4140 C   0  0  0  0  0  0  0  0  0  0  0  0
   -7.5610   21.2000  -32.3420 C   0  0  0  0  0  0  0  0  0  0  0  0
   -8.2590   20.0990  -32.9610 N   0  0  0  0  0  0  0  0  0  0  0  0
   -7.9780   18.8290  -32.2700 C   0  0  0  0  0  0  0  0  0  0  0  0
   -6.7740   18.1270  -32.8530 C   0  0  0  0  0  0  0  0  0  0  0  0
   -6.1660   17.0660  -32.1620 C   0  0  0  0  0  0  0  0  0  0  0  0
   -5.0240   16.4490  -32.6820 C   0  0  0  0  0  0  0  0  0  0  0  0
   -4.4790   16.8900  -33.8910 C   0  0  0  0  0  0  0  0  0  0  0  0
   -5.0750   17.9490  -34.5810 C   0  0  0  0  0  0  0  0  0  0  0  0
   -6.2170   18.5700  -34.0640 C   0  0  0  0  0  0  0  0  0  0  0  0
   -6.2300   21.4860  -32.6940 C   0  0  0  0  0  0  0  0  0  0  0  0
   -5.5650   22.5750  -32.1230 C   0  0  0  0  0  0  0  0  0  0  0  0
   -2.1280   25.2900  -29.0500 N   0  0  0  0  0  0  0  0  0  0  0  0
   -0.5389   26.1694  -26.3230 H   0  0  0  0  0  0  0  0  0  0  0  0
    0.5289   26.1183  -27.7665 H   0  0  0  0  0  0  0  0  0  0  0  0
   -0.9320   27.1635  -27.7665 H   0  0  0  0  0  0  0  0  0  0  0  0
   -0.5804   23.6044  -26.5584 H   0  0  0  0  0  0  0  0  0  0  0  0
   -1.9472   21.4403  -26.3171 H   0  0  0  0  0  0  0  0  0  0  0  0
   -2.8179   20.8162  -27.7590 H   0  0  0  0  0  0  0  0  0  0  0  0
   -1.0235   20.8979  -27.7590 H   0  0  0  0  0  0  0  0  0  0  0  0
   -8.0708   23.7620  -30.1216 H   0  0  0  0  0  0  0  0  0  0  0  0
   -9.2583   21.8192  -31.1324 H   0  0  0  0  0  0  0  0  0  0  0  0
   -7.9990   20.0200  -33.9720 H   0  0  0  0  0  0  0  0  0  0  0  0
   -9.2890   20.2800  -32.9200 H   0  0  0  0  0  0  0  0  0  0  0  0
   -7.7886   19.0367  -31.2065 H   0  0  0  0  0  0  0  0  0  0  0  0
   -8.8509   18.1714  -32.3953 H   0  0  0  0  0  0  0  0  0  0  0  0
   -6.5899   16.7191  -31.2081 H   0  0  0  0  0  0  0  0  0  0  0  0
   -4.5541   15.6157  -32.1390 H   0  0  0  0  0  0  0  0  0  0  0  0
   -3.5809   16.4035  -34.2994 H   0  0  0  0  0  0  0  0  0  0  0  0
   -4.6453   18.2950  -35.5326 H   0  0  0  0  0  0  0  0  0  0  0  0
   -6.6798   19.4072  -34.6071 H   0  0  0  0  0  0  0  0  0  0  0  0
   -5.7087   20.8487  -33.4234 H   0  0  0  0  0  0  0  0  0  0  0  0
   -4.5209   22.7854  -32.3979 H   0  0  0  0  0  0  0  0  0  0  0  0
  1  2  1  0
  2  3  1  0
  3  4  2  0
  4  5  1  0
  4  6  1  0
  6  7  1  0
  7  8  2  3
  8  9  1  0
  9 10  2  0
  9 11  2  0
  9 12  1  0
 12 13  2  0
 13 14  1  0
 14 15  2  0
 15 16  1  0
 16 17  1  0
 17 18  1  0
 18 19  2  0
 19 20  1  0
 20 21  2  0
 21 22  1  0
 22 23  2  0
 15 24  1  0
 24 25  2  0
  7 26  1  0
 26  2  2  0
 25 12  1  0
 23 18  1  0
  1 27  1  0
  1 28  1  0
  1 29  1  0
  3 30  1  0
  5 31  1  0
  5 32  1  0
  5 33  1  0
 13 34  1  0
 14 35  1  0
 16 36  1  0
 16 37  1  0
 17 38  1  0
 17 39  1  0
 19 40  1  0
 20 41  1  0
 21 42  1  0
 22 43  1  0
 23 44  1  0
 24 45  1  0
 25 46  1  0
M  CHG  2   6  -1  16   1
M  END
>  <UniqueID>  (20) 
19

>  <SMILES>  (20) 
Cc1cc(C)[n-]c(=NS(=O)(=O)c2ccc([NH2+]Cc3ccccc3)cc2)n1

>  <Energy>  (20) 
48.708581543717855

>  <Genealogy>  (20) 
Cc1cc(C)[n-]c(=NS(=O)(=O)c2ccc([NH2+]Cc3ccccc3)cc2)n1 (protonated)
Cc1cc(C)[n-]c(=NS(=O)(=O)c2ccc([NH2+]Cc3ccccc3)cc2)n1 (3D coordinates assigned)
Cc1cc(C)[n-]c(=NS(=O)(=O)c2ccc([NH2+]Cc3ccccc3)cc2)n1 (optimized conformer: 48.708581543717855 kcal/mol)

>  <smiles>  (20) 
Cc1cc(C)[nH]c(=NS(=O)(=O)c2ccc(NCc3ccccc3)cc2)n1

>  <score_type>  (20) 
oracle

>  <origin>  (20) 
adg

>  <m_score__min__energy>  (20) 
-10.34

>  <m_primary>  (20) 
energy

$$$$
20:0
     RDKit          3D

 29 30  0  0  0  0  0  0  0  0999 V2000
   -2.1720   20.7590  -27.4570 C   0  0  0  0  0  0  0  0  0  0  0  0
   -2.5810   21.9600  -28.2580 C   0  0  0  0  0  0  0  0  0  0  0  0
   -2.4260   21.9660  -29.6520 C   0  0  0  0  0  0  0  0  0  0  0  0
   -2.8400   23.0690  -30.4040 C   0  0  0  0  0  0  0  0  0  0  0  0
   -3.4330   24.1790  -29.7710 C   0  0  0  0  0  0  0  0  0  0  0  0
   -3.8720   25.3100  -30.4760 O   0  0  0  0  0  0  0  0  0  0  0  0
   -5.2330   25.6240  -30.7700 C   0  0  0  0  0  0  0  0  0  0  0  0
   -6.0470   24.3680  -30.9450 C   0  0  0  0  0  0  0  0  0  0  0  0
   -6.7930   23.8580  -29.8700 C   0  0  0  0  0  0  0  0  0  0  0  0
   -7.5590   22.6980  -30.0310 C   0  0  0  0  0  0  0  0  0  0  0  0
   -7.5910   22.0460  -31.2670 C   0  0  0  0  0  0  0  0  0  0  0  0
   -6.8600   22.5550  -32.3440 C   0  0  0  0  0  0  0  0  0  0  0  0
   -6.0940   23.7140  -32.1880 C   0  0  0  0  0  0  0  0  0  0  0  0
   -3.5980   24.1610  -28.3810 C   0  0  0  0  0  0  0  0  0  0  0  0
   -3.1830   23.0590  -27.6280 C   0  0  0  0  0  0  0  0  0  0  0  0
   -2.2505   20.9896  -26.3843 H   0  0  0  0  0  0  0  0  0  0  0  0
   -2.8330   19.9139  -27.6997 H   0  0  0  0  0  0  0  0  0  0  0  0
   -1.1326   20.4930  -27.6997 H   0  0  0  0  0  0  0  0  0  0  0  0
   -1.9762   21.0979  -30.1561 H   0  0  0  0  0  0  0  0  0  0  0  0
   -2.7021   23.0703  -31.4953 H   0  0  0  0  0  0  0  0  0  0  0  0
   -5.6538   26.2139  -29.9423 H   0  0  0  0  0  0  0  0  0  0  0  0
   -5.2673   26.1994  -31.7069 H   0  0  0  0  0  0  0  0  0  0  0  0
   -6.7751   24.3723  -28.8978 H   0  0  0  0  0  0  0  0  0  0  0  0
   -8.1365   22.2989  -29.1841 H   0  0  0  0  0  0  0  0  0  0  0  0
   -8.1912   21.1327  -31.3920 H   0  0  0  0  0  0  0  0  0  0  0  0
   -6.8875   22.0424  -33.3169 H   0  0  0  0  0  0  0  0  0  0  0  0
   -5.5265   24.1152  -33.0406 H   0  0  0  0  0  0  0  0  0  0  0  0
   -4.0589   25.0228  -27.8763 H   0  0  0  0  0  0  0  0  0  0  0  0
   -3.3290   23.0537  -26.5377 H   0  0  0  0  0  0  0  0  0  0  0  0
  1  2  1  0
  2  3  2  0
  3  4  1  0
  4  5  2  0
  5  6  1  0
  6  7  1  0
  7  8  1  0
  8  9  2  0
  9 10  1  0
 10 11  2  0
 11 12  1  0
 12 13  2  0
  5 14  1  0
 14 15  2  0
 15  2  1  0
 13  8  1  0
  1 16  1  0
  1 17  1  0
  1 18  1  0
  3 19  1  0
  4 20  1  0
  7 21  1  0
  7 22  1  0
  9 23  1  0
 10 24  1  0
 11 25  1  0
 12 26  1  0
 13 27  1  0
 14 28  1  0
 15 29  1  0
M  END
>  <UniqueID>  (21) 
20

>  <SMILES>  (21) 
Cc1ccc(OCc2ccccc2)cc1

>  <Energy>  (21) 
28.410113657176375

>  <Genealogy>  (21) 
Cc1ccc(OCc2ccccc2)cc1 (3D coordinates assigned)
Cc1ccc(OCc2ccccc2)cc1 (optimized conformer: 28.410113657176375 kcal/mol)

>  <smiles>  (21) 
Cc1ccc(OCc2ccccc2)cc1

>  <score_type>  (21) 
oracle

>  <origin>  (21) 
adg

>  <m_score__min__energy>  (21) 
-6.4100000000000001

>  <m_primary>  (21) 
energy

$$$$
21:0
     RDKit          3D

 39 41  0  0  0  0  0  0  0  0999 V2000
   -1.9102   18.4113  -34.1128 H   0  0  0  0  0  0  0  0  0  0  0  0
   -2.5060   19.1450  -33.5500 C   0  0  0  0  0  0  0  0  0  0  0  0
   -3.7270   18.8140  -33.1210 C   0  0  0  0  0  0  0  0  0  0  0  0
   -4.1416   17.8189  -33.3398 H   0  0  0  0  0  0  0  0  0  0  0  0
   -4.5150   19.7970  -32.3500 C   0  0  0  0  0  0  0  0  0  0  0  0
   -5.5380   19.3600  -31.5900 C   0  0  0  0  0  0  0  0  0  0  0  0
   -5.2959   18.7445  -30.7110 H   0  0  0  0  0  0  0  0  0  0  0  0
   -6.9630   19.6500  -31.8550 C   0  0  0  0  0  0  0  0  0  0  0  0
   -7.4940   20.8390  -31.4590 N   0  0  0  0  0  0  0  0  0  0  0  0
   -8.8050   21.1280  -31.6540 C   0  0  0  0  0  0  0  0  0  0  0  0
   -9.2073   22.1003  -31.3334 H   0  0  0  0  0  0  0  0  0  0  0  0
   -9.6210   20.2170  -32.2450 N   0  0  0  0  0  0  0  0  0  0  0  0
   -9.1440   19.0110  -32.6460 C   0  0  0  0  0  0  0  0  0  0  0  0
   -9.8186   18.2842  -33.1221 H   0  0  0  0  0  0  0  0  0  0  0  0
   -7.7990   18.6920  -32.4550 C   0  0  0  0  0  0  0  0  0  0  0  0
   -7.1970   17.1300  -33.0030 Cl  0  0  0  0  0  0  0  0  0  0  0  0
   -4.0800   21.1790  -32.3860 N   0  0  0  0  0  0  0  0  0  0  0  0
   -5.0340   22.2720  -32.6320 C   0  0  0  0  0  0  0  0  0  0  0  0
   -6.0285   21.8483  -32.8354 H   0  0  0  0  0  0  0  0  0  0  0  0
   -4.6940   22.8594  -33.4977 H   0  0  0  0  0  0  0  0  0  0  0  0
   -5.1120   23.1700  -31.4260 C   0  0  0  0  0  0  0  0  0  0  0  0
   -6.3560   23.4630  -30.8460 C   0  0  0  0  0  0  0  0  0  0  0  0
   -7.2713   23.0072  -31.2517 H   0  0  0  0  0  0  0  0  0  0  0  0
   -6.4350   24.3310  -29.7560 C   0  0  0  0  0  0  0  0  0  0  0  0
   -7.4120   24.5511  -29.3009 H   0  0  0  0  0  0  0  0  0  0  0  0
   -5.2780   24.9220  -29.2400 C   0  0  0  0  0  0  0  0  0  0  0  0
   -5.3464   25.6029  -28.3788 H   0  0  0  0  0  0  0  0  0  0  0  0
   -4.0250   24.6470  -29.8210 C   0  0  0  0  0  0  0  0  0  0  0  0
   -2.8350   25.2200  -29.3460 O   0  0  0  0  0  0  0  0  0  0  0  0
   -1.9080   24.5570  -28.4930 C   0  0  0  0  0  0  0  0  0  0  0  0
   -2.1747   24.7477  -27.4430 H   0  0  0  0  0  0  0  0  0  0  0  0
   -1.9390   23.4749  -28.6884 H   0  0  0  0  0  0  0  0  0  0  0  0
   -0.8940   24.9360  -28.6884 H   0  0  0  0  0  0  0  0  0  0  0  0
   -3.9530   23.7750  -30.9130 C   0  0  0  0  0  0  0  0  0  0  0  0
   -2.9778   23.5610  -31.3748 H   0  0  0  0  0  0  0  0  0  0  0  0
   -2.7000   21.4340  -32.7150 C   0  0  0  0  0  0  0  0  0  0  0  0
   -2.2621   22.4201  -32.5010 H   0  0  0  0  0  0  0  0  0  0  0  0
   -1.9470   20.4830  -33.2780 C   0  0  0  0  0  0  0  0  0  0  0  0
   -0.9012   20.7003  -33.5407 H   0  0  0  0  0  0  0  0  0  0  0  0
  1  2  1  0
  2  3  2  0
  3  4  1  0
  3  5  1  0
  5  6  2  0
  6  7  1  0
  6  8  1  0
  8  9  2  0
  9 10  1  0
 10 11  1  0
 10 12  2  0
 12 13  1  0
 13 14  1  0
 13 15  2  0
 15 16  1  0
  5 17  1  0
 17 18  1  0
 18 19  1  0
 18 20  1  0
 18 21  1  0
 21 22  2  0
 22 23  1  0
 22 24  1  0
 24 25  1  0
 24 26  2  0
 26 27  1  0
 26 28  1  0
 28 29  1  0
 29 30  1  0
 30 31  1  0
 30 32  1  0
 30 33  1  0
 28 34  2  0
 34 35  1  0
 17 36  1  0
 36 37  1  0
 36 38  2  0
 38 39  1  0
 38  2  1  0
 15  8  1  0
 34 21  1  0
M  END
>  <UniqueID>  (22) 
21

>  <SMILES>  (22) 
COc1cccc(CN2C=CC=C/C2=C/c2ncncc2Cl)c1

>  <Energy>  (22) 
51.88095063839766

>  <Genealogy>  (22) 
COc1cccc(CN2C=CC=C/C2=C/c2ncncc2Cl)c1 (cis-trans isomerization)
COc1cccc(CN2C=CC=C/C2=C/c2ncncc2Cl)c1 (3D coordinates assigned)
COc1cccc(CN2C=CC=C/C2=C/c2ncncc2Cl)c1 (nonaromatic ring conformer: 51.88095063839766 kcal/mol)

>  <smiles>  (22) 
COc1cccc(CN2C=CC=CC2=Cc2ncncc2Cl)c1

>  <score_type>  (22) 
oracle

>  <origin>  (22) 
adg

>  <m_score__min__energy>  (22) 
-8.2899999999999991

>  <m_primary>  (22) 
energy

$$$$
22:0
     RDKit          3D

 34 35  0  0  0  0  0  0  0  0999 V2000
   -0.2220   25.3580  -29.5240 H   0  0  0  0  0  0  0  0  0  0  0  0
   -1.1400   25.4420  -29.0330 N   0  0  0  0  0  0  0  0  0  0  0  0
   -2.0850   24.5620  -29.1740 C   0  0  0  0  0  0  0  0  0  0  0  0
   -2.0480   23.3630  -28.4360 C   0  0  0  0  0  0  0  0  0  0  0  0
   -0.9640   23.1070  -27.5110 C   0  0  0  0  0  0  0  0  0  0  0  0
   -0.0970   22.9020  -26.7720 N   0  0  0  0  0  0  0  0  0  0  0  0
   -3.0740   22.4120  -28.6180 C   0  0  0  0  0  0  0  0  0  0  0  0
   -3.0730   21.1070  -27.8650 C   0  0  0  0  0  0  0  0  0  0  0  0
   -3.0732   21.3077  -26.7835 H   0  0  0  0  0  0  0  0  0  0  0  0
   -3.9707   20.5296  -28.1309 H   0  0  0  0  0  0  0  0  0  0  0  0
   -2.1744   20.5309  -28.1309 H   0  0  0  0  0  0  0  0  0  0  0  0
   -4.1130   22.6930  -29.5150 C   0  0  0  0  0  0  0  0  0  0  0  0
   -4.9129   21.9557  -29.6777 H   0  0  0  0  0  0  0  0  0  0  0  0
   -4.1340   23.9070  -30.2020 C   0  0  0  0  0  0  0  0  0  0  0  0
   -5.2040   24.1660  -31.1250 N   0  0  0  0  0  0  0  0  0  0  0  0
   -6.4540   23.8230  -30.9970 C   0  0  0  0  0  0  0  0  0  0  0  0
   -7.1178   24.5011  -30.4406 H   0  0  0  0  0  0  0  0  0  0  0  0
   -7.0410   22.5820  -31.5500 C   0  0  0  0  0  0  0  0  0  0  0  0
   -8.3520   22.1860  -31.2340 C   0  0  0  0  0  0  0  0  0  0  0  0
   -8.9698   22.8131  -30.5744 H   0  0  0  0  0  0  0  0  0  0  0  0
   -8.8730   21.0000  -31.7540 C   0  0  0  0  0  0  0  0  0  0  0  0
   -9.9053   20.7037  -31.5160 H   0  0  0  0  0  0  0  0  0  0  0  0
   -8.0870   20.1880  -32.5760 C   0  0  0  0  0  0  0  0  0  0  0  0
   -8.5055   19.2590  -32.9906 H   0  0  0  0  0  0  0  0  0  0  0  0
   -6.7620   20.5550  -32.8750 C   0  0  0  0  0  0  0  0  0  0  0  0
   -5.9280   19.7690  -33.6850 O   0  0  0  0  0  0  0  0  0  0  0  0
   -6.0670   18.3630  -33.8550 C   0  0  0  0  0  0  0  0  0  0  0  0
   -6.1150   17.8774  -32.8691 H   0  0  0  0  0  0  0  0  0  0  0  0
   -6.9905   18.1507  -34.4136 H   0  0  0  0  0  0  0  0  0  0  0  0
   -5.2029   17.9740  -34.4136 H   0  0  0  0  0  0  0  0  0  0  0  0
   -6.2470   21.7480  -32.3500 C   0  0  0  0  0  0  0  0  0  0  0  0
   -5.2073   22.0335  -32.5682 H   0  0  0  0  0  0  0  0  0  0  0  0
   -3.1120   24.7960  -30.0410 N   0  0  0  0  0  0  0  0  0  0  0  0
   -3.1050   25.6720  -30.6130 H   0  0  0  0  0  0  0  0  0  0  0  0
  1  2  1  0
  2  3  2  0
  3  4  1  0
  4  5  1  0
  5  6  3  0
  4  7  2  0
  7  8  1  0
  8  9  1  0
  8 10  1  0
  8 11  1  0
  7 12  1  0
 12 13  1  0
 12 14  2  0
 14 15  1  0
 15 16  2  0
 16 17  1  0
 16 18  1  0
 18 19  2  0
 19 20  1  0
 19 21  1  0
 21 22  1  0
 21 23  2  0
 23 24  1  0
 23 25  1  0
 25 26  1  0
 26 27  1  0
 27 28  1  0
 27 29  1  0
 27 30  1  0
 25 31  2  0
 31 32  1  0
 14 33  1  0
 33 34  1  0
 33  3  1  0
 31 18  1  0
M  END
>  <UniqueID>  (23) 
22

>  <SMILES>  (23) 
[H]/N=c1\[nH]c(/N=C\c2cccc(OC)c2)cc(C)c1C#N

>  <Energy>  (23) 
45.71924920677016

>  <Genealogy>  (23) 
[H]/N=c1\[nH]c(/N=C\c2cccc(OC)c2)cc(C)c1C#N (cis-trans isomerization)
[H]/N=c1\[nH]c(/N=C\c2cccc(OC)c2)cc(C)c1C#N (3D coordinates assigned)
[H]/N=c1\[nH]c(/N=C\c2cccc(OC)c2)cc(C)c1C#N (optimized conformer: 45.71924920677016 kcal/mol)

>  <smiles>  (23) 
COc1cccc(C=Nc2cc(C)c(C#N)c(=N)[nH]2)c1

>  <score_type>  (23) 
oracle

>  <origin>  (23) 
adg

>  <m_score__min__energy>  (23) 
-7.2000000000000002

>  <m_primary>  (23) 
energy

$$$$
23:0
     RDKit          3D

 38 40  0  0  0  0  0  0  0  0999 V2000
   -8.8760   21.6830  -31.9980 C   0  0  0  0  0  0  0  0  0  0  0  0
   -7.5920   22.3680  -31.6280 C   0  0  0  0  0  0  0  0  0  0  0  0
   -7.6560   23.6380  -31.1420 N   0  0  0  0  0  0  0  0  0  0  0  0
   -6.5500   24.3280  -30.7630 C   0  0  0  0  0  0  0  0  0  0  0  0
   -5.2810   23.7400  -30.8570 C   0  0  0  0  0  0  0  0  0  0  0  0
   -4.0730   24.4850  -30.4360 C   0  0  0  0  0  0  0  0  0  0  0  0
   -3.8720   25.6600  -30.8430 O   0  0  0  0  0  0  0  0  0  0  0  0
   -3.1430   23.8960  -29.5860 O   0  0  0  0  0  0  0  0  0  0  0  0
   -5.1850   22.4350  -31.3620 C   0  0  0  0  0  0  0  0  0  0  0  0
   -6.3340   21.7390  -31.7680 C   0  0  0  0  0  0  0  0  0  0  0  0
   -6.1900   20.3710  -32.3150 C   0  0  0  0  0  0  0  0  0  0  0  0
   -6.7900   19.2820  -31.6690 C   0  0  0  0  0  0  0  0  0  0  0  0
   -6.6430   17.9930  -32.1820 C   0  0  0  0  0  0  0  0  0  0  0  0
   -5.8770   17.7910  -33.3460 C   0  0  0  0  0  0  0  0  0  0  0  0
   -5.6980   16.4740  -33.9120 N   0  0  0  0  0  0  0  0  0  0  0  0
   -4.3810   16.0930  -34.4390 C   0  0  0  0  0  0  0  0  0  0  0  0
   -4.2050   14.5730  -34.3810 C   0  0  0  0  0  0  0  0  0  0  0  0
   -5.3020   13.9180  -34.9890 O   0  0  0  0  0  0  0  0  0  0  0  0
   -6.4720   14.1580  -34.2340 C   0  0  0  0  0  0  0  0  0  0  0  0
   -6.8530   15.6410  -34.2720 C   0  0  0  0  0  0  0  0  0  0  0  0
   -5.2970   18.8680  -33.9480 N   0  0  0  0  0  0  0  0  0  0  0  0
   -5.4300   20.1320  -33.4670 C   0  0  0  0  0  0  0  0  0  0  0  0
   -9.4150   21.3955  -31.0832 H   0  0  0  0  0  0  0  0  0  0  0  0
   -9.4996   22.3683  -32.5909 H   0  0  0  0  0  0  0  0  0  0  0  0
   -8.6541   20.7834  -32.5909 H   0  0  0  0  0  0  0  0  0  0  0  0
   -6.6502   25.3543  -30.3800 H   0  0  0  0  0  0  0  0  0  0  0  0
   -4.1996   21.9524  -31.4406 H   0  0  0  0  0  0  0  0  0  0  0  0
   -7.3790   19.4440  -30.7542 H   0  0  0  0  0  0  0  0  0  0  0  0
   -7.1226   17.1397  -31.6802 H   0  0  0  0  0  0  0  0  0  0  0  0
   -4.2971   16.4285  -35.4832 H   0  0  0  0  0  0  0  0  0  0  0  0
   -3.5997   16.5673  -33.8269 H   0  0  0  0  0  0  0  0  0  0  0  0
   -3.2811   14.2962  -34.9099 H   0  0  0  0  0  0  0  0  0  0  0  0
   -4.1491   14.2639  -33.3268 H   0  0  0  0  0  0  0  0  0  0  0  0
   -7.2980   13.5632  -34.6511 H   0  0  0  0  0  0  0  0  0  0  0  0
   -6.2809   13.8711  -33.1894 H   0  0  0  0  0  0  0  0  0  0  0  0
   -7.1876   15.9037  -35.2864 H   0  0  0  0  0  0  0  0  0  0  0  0
   -7.6626   15.8208  -33.5494 H   0  0  0  0  0  0  0  0  0  0  0  0
   -4.9394   20.9699  -33.9839 H   0  0  0  0  0  0  0  0  0  0  0  0
  1  2  1  0
  2  3  2  0
  3  4  1  0
  4  5  2  0
  5  6  1  0
  6  7  2  0
  6  8  1  0
  5  9  1  0
  9 10  2  0
 10 11  1  0
 11 12  2  0
 12 13  1  0
 13 14  2  0
 14 15  1  0
 15 16  1  0
 16 17  1  0
 17 18  1  0
 18 19  1  0
 19 20  1  0
 14 21  1  0
 21 22  2  0
 10  2  1  0
 22 11  1  0
 20 15  1  0
  1 23  1  0
  1 24  1  0
  1 25  1  0
  4 26  1  0
  9 27  1  0
 12 28  1  0
 13 29  1  0
 16 30  1  0
 16 31  1  0
 17 32  1  0
 17 33  1  0
 19 34  1  0
 19 35  1  0
 20 36  1  0
 20 37  1  0
 22 38  1  0
M  CHG  1   8  -1
M  END
>  <UniqueID>  (24) 
23

>  <SMILES>  (24) 
Cc1ncc(C(=O)[O-])cc1-c1ccc(N2CCOCC2)nc1

>  <Energy>  (24) 
52.27006109237067

>  <Genealogy>  (24) 
Cc1ncc(C(=O)[O-])cc1-c1ccc(N2CCOCC2)nc1 (protonated)
Cc1ncc(C(=O)[O-])cc1-c1ccc(N2CCOCC2)nc1 (3D coordinates assigned)
Cc1ncc(C(=O)[O-])cc1-c1ccc(N2CCOCC2)nc1 (nonaromatic ring conformer: 52.27006109237067 kcal/mol)

>  <smiles>  (24) 
Cc1ncc(C(=O)O)cc1-c1ccc(N2CCOCC2)nc1

>  <score_type>  (24) 
oracle

>  <origin>  (24) 
adg

>  <m_score__min__energy>  (24) 
-9.5199999999999996

>  <m_primary>  (24) 
energy

$$$$
24:0
     RDKit          3D

 34 36  0  0  0  0  0  0  0  0999 V2000
   -3.9820   22.9530  -28.7790 O   0  0  0  0  0  0  0  0  0  0  0  0
   -3.8320   23.5770  -30.1370 S   0  0  0  0  0  0  0  0  0  0  0  0
   -3.1630   24.9170  -30.0290 O   0  0  0  0  0  0  0  0  0  0  0  0
   -5.3850   23.7650  -30.8620 N   0  0  0  0  0  0  0  0  0  0  0  0
   -5.7230   23.2050  -31.9850 C   0  0  0  0  0  0  0  0  0  0  0  0
   -7.1160   23.4170  -32.5010 C   0  0  0  0  0  0  0  0  0  0  0  0
   -8.1380   22.7690  -31.5630 C   0  0  0  0  0  0  0  0  0  0  0  0
   -8.2310   21.2900  -31.8220 C   0  0  0  0  0  0  0  0  0  0  0  0
   -7.1210   20.4590  -31.5930 C   0  0  0  0  0  0  0  0  0  0  0  0
   -7.1990   19.0890  -31.8660 C   0  0  0  0  0  0  0  0  0  0  0  0
   -8.3800   18.5420  -32.3750 C   0  0  0  0  0  0  0  0  0  0  0  0
   -9.4830   19.3650  -32.6190 C   0  0  0  0  0  0  0  0  0  0  0  0
   -9.4100   20.7350  -32.3480 C   0  0  0  0  0  0  0  0  0  0  0  0
   -4.8270   22.3430  -32.7180 N   0  0  0  0  0  0  0  0  0  0  0  0
   -3.4750   22.0210  -32.3400 C   0  0  0  0  0  0  0  0  0  0  0  0
   -2.7100   21.1760  -33.1570 C   0  0  0  0  0  0  0  0  0  0  0  0
   -1.3990   20.8620  -32.7930 C   0  0  0  0  0  0  0  0  0  0  0  0
   -0.8630   21.3710  -31.6510 N   0  0  0  0  0  0  0  0  0  0  0  0
   -1.5820   22.1920  -30.8390 C   0  0  0  0  0  0  0  0  0  0  0  0
   -2.8990   22.5290  -31.1700 C   0  0  0  0  0  0  0  0  0  0  0  0
   -7.3177   24.4964  -32.5665 H   0  0  0  0  0  0  0  0  0  0  0  0
   -7.2019   22.9549  -33.4956 H   0  0  0  0  0  0  0  0  0  0  0  0
   -7.8280   22.9347  -30.5207 H   0  0  0  0  0  0  0  0  0  0  0  0
   -9.1233   23.2234  -31.7437 H   0  0  0  0  0  0  0  0  0  0  0  0
   -6.1879   20.8870  -31.1979 H   0  0  0  0  0  0  0  0  0  0  0  0
   -6.3295   18.4415  -31.6797 H   0  0  0  0  0  0  0  0  0  0  0  0
   -8.4415   17.4637  -32.5836 H   0  0  0  0  0  0  0  0  0  0  0  0
  -10.4102   18.9343  -33.0249 H   0  0  0  0  0  0  0  0  0  0  0  0
  -10.2783   21.3803  -32.5472 H   0  0  0  0  0  0  0  0  0  0  0  0
   -5.1960   21.9160  -33.5970 H   0  0  0  0  0  0  0  0  0  0  0  0
   -3.1409   20.7623  -34.0807 H   0  0  0  0  0  0  0  0  0  0  0  0
   -0.7969   20.2000  -33.4327 H   0  0  0  0  0  0  0  0  0  0  0  0
    0.1180   21.1280  -31.3920 H   0  0  0  0  0  0  0  0  0  0  0  0
   -1.1272   22.5916  -29.9206 H   0  0  0  0  0  0  0  0  0  0  0  0
  1  2  2  0
  2  3  2  0
  2  4  1  0
  4  5  2  0
  5  6  1  0
  6  7  1  0
  7  8  1  0
  8  9  2  0
  9 10  1  0
 10 11  2  0
 11 12  1  0
 12 13  2  0
  5 14  1  0
 14 15  1  0
 15 16  2  0
 16 17  1  0
 17 18  2  0
 18 19  1  0
 19 20  2  0
 20  2  1  0
 13  8  1  0
 20 15  1  0
  6 21  1  0
  6 22  1  0
  7 23  1  0
  7 24  1  0
  9 25  1  0
 10 26  1  0
 11 27  1  0
 12 28  1  0
 13 29  1  0
 14 30  1  0
 16 31  1  0
 17 32  1  0
 18 33  1  0
 19 34  1  0
M  CHG  1  18   1
M  END
>  <UniqueID>  (25) 
24

>  <SMILES>  (25) 
O=S1(=O)N=C(CCc2ccccc2)Nc2cc[nH+]cc21

>  <Energy>  (25) 
37.3756855859117

>  <Genealogy>  (25) 
O=S1(=O)N=C(CCc2ccccc2)Nc2cc[nH+]cc21 (protonated)
O=S1(=O)N=C(CCc2ccccc2)Nc2cc[nH+]cc21 (3D coordinates assigned)
O=S1(=O)N=C(CCc2ccccc2)Nc2cc[nH+]cc21 (nonaromatic ring conformer: 37.3756855859117 kcal/mol)

>  <smiles>  (25) 
O=S1(=O)N=C(CCc2ccccc2)Nc2ccncc21

>  <score_type>  (25) 
oracle

>  <origin>  (25) 
adg

>  <m_score__min__energy>  (25) 
-7.4199999999999999

>  <m_primary>  (25) 
energy

$$$$
25:0
     RDKit          3D

 26 28  0  0  0  0  0  0  0  0999 V2000
   -3.4880   25.2840  -30.4700 O   0  0  0  0  0  0  0  0  0  0  0  0
   -4.7240   25.3220  -30.6440 N   0  0  0  0  0  0  0  0  0  0  0  0
   -5.3790   26.5230  -30.4990 O   0  0  0  0  0  0  0  0  0  0  0  0
   -5.4340   24.1220  -30.9890 C   0  0  0  0  0  0  0  0  0  0  0  0
   -4.7540   23.0910  -31.5790 N   0  0  0  0  0  0  0  0  0  0  0  0
   -5.4230   21.9600  -31.9050 C   0  0  0  0  0  0  0  0  0  0  0  0
   -4.9060   20.8680  -32.4830 N   0  0  0  0  0  0  0  0  0  0  0  0
   -5.9920   20.0510  -32.5810 C   0  0  0  0  0  0  0  0  0  0  0  0
   -5.9750   18.6860  -33.1620 C   0  0  0  0  0  0  0  0  0  0  0  0
   -5.0600   18.3290  -34.1720 C   0  0  0  0  0  0  0  0  0  0  0  0
   -5.0620   17.0360  -34.7040 C   0  0  0  0  0  0  0  0  0  0  0  0
   -5.9730   16.0850  -34.2380 C   0  0  0  0  0  0  0  0  0  0  0  0
   -5.9710   14.8320  -34.7580 F   0  0  0  0  0  0  0  0  0  0  0  0
   -6.8850   16.4260  -33.2380 C   0  0  0  0  0  0  0  0  0  0  0  0
   -6.8880   17.7170  -32.7020 C   0  0  0  0  0  0  0  0  0  0  0  0
   -7.1150   20.6340  -32.0820 N   0  0  0  0  0  0  0  0  0  0  0  0
   -6.7250   21.8250  -31.6680 N   0  0  0  0  0  0  0  0  0  0  0  0
   -7.4720   22.7930  -31.0900 C   0  0  0  0  0  0  0  0  0  0  0  0
   -6.8270   23.9860  -30.7320 C   0  0  0  0  0  0  0  0  0  0  0  0
   -7.5450   24.9800  -30.1510 F   0  0  0  0  0  0  0  0  0  0  0  0
   -3.9170   20.7100  -32.7730 H   0  0  0  0  0  0  0  0  0  0  0  0
   -4.3395   19.0721  -34.5444 H   0  0  0  0  0  0  0  0  0  0  0  0
   -4.3437   16.7666  -35.4923 H   0  0  0  0  0  0  0  0  0  0  0  0
   -7.6027   15.6775  -32.8710 H   0  0  0  0  0  0  0  0  0  0  0  0
   -7.6097   17.9785  -31.9141 H   0  0  0  0  0  0  0  0  0  0  0  0
   -8.5472   22.6498  -30.9071 H   0  0  0  0  0  0  0  0  0  0  0  0
  1  2  2  0
  2  3  1  0
  2  4  1  0
  4  5  2  0
  5  6  1  0
  6  7  2  0
  7  8  1  0
  8  9  1  0
  9 10  2  0
 10 11  1  0
 11 12  2  0
 12 13  1  0
 12 14  1  0
 14 15  2  0
  8 16  2  0
 16 17  1  0
 17 18  1  0
 18 19  2  0
 19 20  1  0
 19  4  1  0
 17  6  1  0
 15  9  1  0
  7 21  1  0
 10 22  1  0
 11 23  1  0
 14 24  1  0
 15 25  1  0
 18 26  1  0
M  CHG  3   2   1   3  -1   7   1
M  END
>  <UniqueID>  (26) 
25

>  <SMILES>  (26) 
O=[N+]([O-])c1nc2[nH+]c(-c3ccc(F)cc3)nn2cc1F

>  <Energy>  (26) 
73.50530176772706

>  <Genealogy>  (26) 
O=[N+]([O-])c1nc2[nH+]c(-c3ccc(F)cc3)nn2cc1F (protonated)
O=[N+]([O-])c1nc2[nH+]c(-c3ccc(F)cc3)nn2cc1F (3D coordinates assigned)
O=[N+]([O-])c1nc2[nH+]c(-c3ccc(F)cc3)nn2cc1F (optimized conformer: 73.50530176772706 kcal/mol)

>  <smiles>  (26) 
O=[N+]([O-])c1nc2nc(-c3ccc(F)cc3)nn2cc1F

>  <score_type>  (26) 
oracle

>  <origin>  (26) 
adg

>  <m_score__min__energy>  (26) 
-7.75

>  <m_primary>  (26) 
energy

$$$$
26:0
     RDKit          3D

 34 35  0  0  1  0  0  0  0  0999 V2000
   -2.6850   20.4830  -27.7810 C   0  0  0  0  0  0  0  0  0  0  0  0
   -1.9850   21.5480  -29.0520 S   0  0  0  0  0  0  0  0  0  0  0  0
   -3.1450   21.6680  -30.4040 C   0  0  0  0  0  0  0  0  0  0  0  0
   -3.8650   22.8120  -30.6200 N   0  0  0  0  0  0  0  0  0  0  0  0
   -4.7350   22.8710  -31.6550 C   0  0  0  0  0  0  0  0  0  0  0  0
   -5.3810   23.9710  -31.8070 N   0  0  0  0  0  0  0  0  0  0  0  0
   -5.2810   24.9720  -30.8160 C   0  0  0  0  0  0  0  0  0  0  0  0
   -6.2920   25.2630  -29.7900 C   0  0  0  0  0  0  0  0  0  0  0  0
   -4.2100   25.6700  -30.8330 O   0  0  0  0  0  0  0  0  0  0  0  0
   -4.8680   21.7950  -32.4460 N   0  0  0  0  0  0  0  0  0  0  0  0
   -4.1670   20.6580  -32.2500 C   0  0  0  0  0  0  0  0  0  0  0  0
   -4.3370   19.2230  -33.2960 S   0  0  0  0  0  0  0  0  0  0  0  0
   -5.9460   19.3940  -34.1490 C   0  0  0  0  0  0  0  0  0  0  0  0
   -7.0280   19.4630  -33.1270 C   0  0  0  0  0  0  0  0  0  0  0  0
   -7.6020   20.6260  -32.7230 C   0  0  0  0  0  0  0  0  0  0  0  0
   -8.6090   20.5770  -31.7580 C   0  0  0  0  0  0  0  0  0  0  0  0
   -9.0210   19.3550  -31.2140 C   0  0  0  0  0  0  0  0  0  0  0  0
   -8.4420   18.1840  -31.6210 C   0  0  0  0  0  0  0  0  0  0  0  0
   -7.4320   18.2440  -32.5900 C   0  0  0  0  0  0  0  0  0  0  0  0
   -6.8640   17.0780  -32.9860 F   0  0  0  0  0  0  0  0  0  0  0  0
   -3.2880   20.5920  -31.2090 N   0  0  0  0  0  0  0  0  0  0  0  0
   -2.4254   20.8780  -26.7878 H   0  0  0  0  0  0  0  0  0  0  0  0
   -3.7793   20.4534  -27.8892 H   0  0  0  0  0  0  0  0  0  0  0  0
   -2.2782   19.4667  -27.8892 H   0  0  0  0  0  0  0  0  0  0  0  0
   -5.8484   25.1353  -28.7915 H   0  0  0  0  0  0  0  0  0  0  0  0
   -6.6437   26.2989  -29.9052 H   0  0  0  0  0  0  0  0  0  0  0  0
   -7.1406   24.5726  -29.9052 H   0  0  0  0  0  0  0  0  0  0  0  0
   -5.9484   20.3138  -34.7522 H   0  0  0  0  0  0  0  0  0  0  0  0
   -6.1116   18.5304  -34.8099 H   0  0  0  0  0  0  0  0  0  0  0  0
   -7.2793   21.5878  -33.1482 H   0  0  0  0  0  0  0  0  0  0  0  0
   -9.0846   21.5099  -31.4209 H   0  0  0  0  0  0  0  0  0  0  0  0
   -9.8159   19.3359  -30.4539 H   0  0  0  0  0  0  0  0  0  0  0  0
   -8.7614   17.2201  -31.1981 H   0  0  0  0  0  0  0  0  0  0  0  0
   -2.7500   19.7070  -31.0650 H   0  0  0  0  0  0  0  0  0  0  0  0
  1  2  1  0
  2  3  1  0
  3  4  2  0
  4  5  1  0
  5  6  2  0
  6  7  1  0
  7  8  1  0
  7  9  2  0
  5 10  1  0
 10 11  2  0
 11 12  1  0
 12 13  1  0
 13 14  1  0
 14 15  2  0
 15 16  1  0
 16 17  2  0
 17 18  1  0
 18 19  2  0
 19 20  1  0
 11 21  1  0
 21  3  1  0
 19 14  1  0
  1 22  1  0
  1 23  1  0
  1 24  1  0
  8 25  1  0
  8 26  1  0
  8 27  1  0
 13 28  1  0
 13 29  1  0
 15 30  1  0
 16 31  1  0
 17 32  1  0
 18 33  1  0
 21 34  1  0
M  END
>  <smiles>  (27) 
CSc1nc(=NC(C)=O)nc(SCc2ccccc2F)[nH]1

>  <score_type>  (27) 
oracle

>  <origin>  (27) 
adg

>  <m_score__min__energy>  (27) 
-7.7400000000000002

>  <m_primary>  (27) 
energy

$$$$
27:0
     RDKit          3D

 33 34  0  0  0  0  0  0  0  0999 V2000
   -9.2421   21.2089  -30.2701 H   0  0  0  0  0  0  0  0  0  0  0  0
   -8.9840   21.4450  -31.3130 C   0  0  0  0  0  0  0  0  0  0  0  0
   -8.6120   22.8440  -31.6190 C   0  0  0  0  0  0  0  0  0  0  0  0
   -9.4490   23.5550  -32.2360 O   0  0  0  0  0  0  0  0  0  0  0  0
   -7.2830   23.4170  -31.2850 C   0  0  0  0  0  0  0  0  0  0  0  0
   -7.1960   24.5480  -30.4590 C   0  0  0  0  0  0  0  0  0  0  0  0
   -8.1155   25.0194  -30.0817 H   0  0  0  0  0  0  0  0  0  0  0  0
   -5.9540   25.0800  -30.1120 C   0  0  0  0  0  0  0  0  0  0  0  0
   -5.9015   25.9652  -29.4611 H   0  0  0  0  0  0  0  0  0  0  0  0
   -4.7680   24.4920  -30.5890 C   0  0  0  0  0  0  0  0  0  0  0  0
   -3.5000   24.9920  -30.2530 O   0  0  0  0  0  0  0  0  0  0  0  0
   -2.6410   24.4190  -29.2720 C   0  0  0  0  0  0  0  0  0  0  0  0
   -3.0141   24.6679  -28.2676 H   0  0  0  0  0  0  0  0  0  0  0  0
   -2.6211   23.3261  -29.3954 H   0  0  0  0  0  0  0  0  0  0  0  0
   -1.6243   24.8205  -29.3954 H   0  0  0  0  0  0  0  0  0  0  0  0
   -4.8400   23.3700  -31.4280 C   0  0  0  0  0  0  0  0  0  0  0  0
   -3.6420   22.8010  -31.8840 O   0  0  0  0  0  0  0  0  0  0  0  0
   -3.5580   21.6080  -32.6580 C   0  0  0  0  0  0  0  0  0  0  0  0
   -3.4968   20.7389  -31.9866 H   0  0  0  0  0  0  0  0  0  0  0  0
   -4.4521   21.5189  -33.2926 H   0  0  0  0  0  0  0  0  0  0  0  0
   -2.6602   21.6451  -33.2926 H   0  0  0  0  0  0  0  0  0  0  0  0
   -6.0980   22.8470  -31.7850 C   0  0  0  0  0  0  0  0  0  0  0  0
   -6.1547   21.9825  -32.4629 H   0  0  0  0  0  0  0  0  0  0  0  0
   -9.0330   20.4400  -32.2010 C   0  0  0  0  0  0  0  0  0  0  0  0
   -9.9541   20.3331  -32.7928 H   0  0  0  0  0  0  0  0  0  0  0  0
   -7.9520   19.4670  -32.4480 C   0  0  0  0  0  0  0  0  0  0  0  0
   -6.6490   19.7450  -33.4700 S   0  0  0  0  0  0  0  0  0  0  0  0
   -5.9380   18.2330  -33.2850 C   0  0  0  0  0  0  0  0  0  0  0  0
   -5.0041   17.8972  -33.7594 H   0  0  0  0  0  0  0  0  0  0  0  0
   -6.7330   17.4810  -32.4300 C   0  0  0  0  0  0  0  0  0  0  0  0
   -6.4948   16.4466  -32.1415 H   0  0  0  0  0  0  0  0  0  0  0  0
   -7.8650   18.1620  -31.9700 C   0  0  0  0  0  0  0  0  0  0  0  0
   -8.6111   17.7121  -31.2985 H   0  0  0  0  0  0  0  0  0  0  0  0
  1  2  1  0
  2  3  1  0
  3  4  2  0
  3  5  1  0
  5  6  2  0
  6  7  1  0
  6  8  1  0
  8  9  1  0
  8 10  2  0
 10 11  1  0
 11 12  1  0
 12 13  1  0
 12 14  1  0
 12 15  1  0
 10 16  1  0
 16 17  1  0
 17 18  1  0
 18 19  1  0
 18 20  1  0
 18 21  1  0
 16 22  2  0
 22 23  1  0
  2 24  2  0
 24 25  1  0
 24 26  1  0
 26 27  1  0
 27 28  1  0
 28 29  1  0
 28 30  2  0
 30 31  1  0
 30 32  1  0
 32 33  1  0
 22  5  1  0
 32 26  2  0
M  END
>  <UniqueID>  (28) 
26

>  <SMILES>  (28) 
COc1ccc(C(=O)/C=C\c2cccs2)cc1OC

>  <Energy>  (28) 
66.48834516785256

>  <Genealogy>  (28) 
COc1ccc(C(=O)/C=C\c2cccs2)cc1OC (cis-trans isomerization)
COc1ccc(C(=O)/C=C\c2cccs2)cc1OC (3D coordinates assigned)
COc1ccc(C(=O)/C=C\c2cccs2)cc1OC (optimized conformer: 66.48834516785256 kcal/mol)

>  <smiles>  (28) 
COc1ccc(C(=O)C=Cc2cccs2)cc1OC

>  <score_type>  (28) 
oracle

>  <origin>  (28) 
adg

>  <m_score__min__energy>  (28) 
-7.9299999999999997

>  <m_primary>  (28) 
energy

$$$$
28:0
     RDKit          3D

 43 47  0  0  0  0  0  0  0  0999 V2000
   -9.1790   20.4360  -31.8470 C   0  0  0  0  0  0  0  0  0  0  0  0
   -8.1760   19.5390  -31.4690 C   0  0  0  0  0  0  0  0  0  0  0  0
   -6.8370   19.9400  -31.4770 C   0  0  0  0  0  0  0  0  0  0  0  0
   -6.4960   21.2460  -31.8630 C   0  0  0  0  0  0  0  0  0  0  0  0
   -5.0890   21.6740  -31.8620 C   0  0  0  0  0  0  0  0  0  0  0  0
   -4.5640   22.8940  -31.4130 C   0  0  0  0  0  0  0  0  0  0  0  0
   -5.2890   24.0300  -30.8170 C   0  0  0  0  0  0  0  0  0  0  0  0
   -6.4530   23.9870  -30.0700 C   0  0  0  0  0  0  0  0  0  0  0  0
   -6.7210   25.2920  -29.7210 C   0  0  0  0  0  0  0  0  0  0  0  0
   -5.7090   26.0510  -30.2690 C   0  0  0  0  0  0  0  0  0  0  0  0
   -4.8700   25.2710  -30.9110 O   0  0  0  0  0  0  0  0  0  0  0  0
   -3.2520   22.9080  -31.5720 O   0  0  0  0  0  0  0  0  0  0  0  0
   -2.9060   21.7580  -32.0890 C   0  0  0  0  0  0  0  0  0  0  0  0
   -1.6440   21.3640  -32.3820 N   0  0  0  0  0  0  0  0  0  0  0  0
   -1.4570   20.1220  -32.9150 C   0  0  0  0  0  0  0  0  0  0  0  0
   -2.5270   19.3050  -33.1640 N   0  0  0  0  0  0  0  0  0  0  0  0
   -3.8060   19.6920  -32.8800 C   0  0  0  0  0  0  0  0  0  0  0  0
   -4.9020   18.8350  -33.2330 N   0  0  0  0  0  0  0  0  0  0  0  0
   -5.6730   19.0880  -34.4550 C   0  0  0  0  0  0  0  0  0  0  0  0
   -5.7480   17.8180  -35.3370 C   0  0  0  0  0  0  0  0  0  0  0  0
   -5.4220   16.6090  -34.6630 O   0  0  0  0  0  0  0  0  0  0  0  0
   -5.9250   16.6110  -33.3440 C   0  0  0  0  0  0  0  0  0  0  0  0
   -5.1010   17.5820  -32.5000 C   0  0  0  0  0  0  0  0  0  0  0  0
   -3.9900   20.9550  -32.3040 C   0  0  0  0  0  0  0  0  0  0  0  0
   -7.5060   22.1410  -32.2490 C   0  0  0  0  0  0  0  0  0  0  0  0
   -8.8430   21.7360  -32.2370 C   0  0  0  0  0  0  0  0  0  0  0  0
  -10.2324   20.1193  -31.8377 H   0  0  0  0  0  0  0  0  0  0  0  0
   -8.4408   18.5156  -31.1647 H   0  0  0  0  0  0  0  0  0  0  0  0
   -6.0495   19.2315  -31.1805 H   0  0  0  0  0  0  0  0  0  0  0  0
   -7.0421   23.0954  -29.8091 H   0  0  0  0  0  0  0  0  0  0  0  0
   -7.5712   25.6555  -29.1251 H   0  0  0  0  0  0  0  0  0  0  0  0
   -5.6181   27.1438  -30.1818 H   0  0  0  0  0  0  0  0  0  0  0  0
   -0.4392   19.7746  -33.1463 H   0  0  0  0  0  0  0  0  0  0  0  0
   -6.6927   19.3954  -34.1797 H   0  0  0  0  0  0  0  0  0  0  0  0
   -5.1719   19.8827  -35.0271 H   0  0  0  0  0  0  0  0  0  0  0  0
   -6.7738   17.7292  -35.7240 H   0  0  0  0  0  0  0  0  0  0  0  0
   -4.9969   17.9448  -36.1306 H   0  0  0  0  0  0  0  0  0  0  0  0
   -6.9777   16.9299  -33.3510 H   0  0  0  0  0  0  0  0  0  0  0  0
   -5.8578   15.5988  -32.9186 H   0  0  0  0  0  0  0  0  0  0  0  0
   -5.6328   17.7900  -31.5598 H   0  0  0  0  0  0  0  0  0  0  0  0
   -4.1219   17.1309  -32.2814 H   0  0  0  0  0  0  0  0  0  0  0  0
   -7.2444   23.1628  -32.5614 H   0  0  0  0  0  0  0  0  0  0  0  0
   -9.6329   22.4412  -32.5349 H   0  0  0  0  0  0  0  0  0  0  0  0
  1  2  2  0
  2  3  1  0
  3  4  2  0
  4  5  1  0
  5  6  2  0
  6  7  1  0
  7  8  2  0
  8  9  1  0
  9 10  2  0
 10 11  1  0
  6 12  1  0
 12 13  1  0
 13 14  2  0
 14 15  1  0
 15 16  2  0
 16 17  1  0
 17 18  1  0
 18 19  1  0
 19 20  1  0
 20 21  1  0
 21 22  1  0
 22 23  1  0
 17 24  2  0
  4 25  1  0
 25 26  2  0
 26  1  1  0
 24  5  1  0
 11  7  1  0
 24 13  1  0
 23 18  1  0
  1 27  1  0
  2 28  1  0
  3 29  1  0
  8 30  1  0
  9 31  1  0
 10 32  1  0
 15 33  1  0
 19 34  1  0
 19 35  1  0
 20 36  1  0
 20 37  1  0
 22 38  1  0
 22 39  1  0
 23 40  1  0
 23 41  1  0
 25 42  1  0
 26 43  1  0
M  END
>  <UniqueID>  (29) 
27

>  <SMILES>  (29) 
c1ccc(-c2c(-c3ccco3)oc3ncnc(N4CCOCC4)c23)cc1

>  <Energy>  (29) 
130.15767336910665

>  <Genealogy>  (29) 
c1ccc(-c2c(-c3ccco3)oc3ncnc(N4CCOCC4)c23)cc1 (3D coordinates assigned)
c1ccc(-c2c(-c3ccco3)oc3ncnc(N4CCOCC4)c23)cc1 (nonaromatic ring conformer: 130.15767336910665 kcal/mol)

>  <smiles>  (29) 
c1ccc(-c2c(-c3ccco3)oc3ncnc(N4CCOCC4)c23)cc1

>  <score_type>  (29) 
oracle

>  <origin>  (29) 
adg

>  <m_score__min__energy>  (29) 
-8.7200000000000006

>  <m_primary>  (29) 
energy

$$$$
29:0
     RDKit          3D

 44 45  0  0  0  0  0  0  0  0999 V2000
   -2.6270   18.2520  -33.8340 C   0  0  0  0  0  0  0  0  0  0  0  0
   -3.4210   16.9490  -33.7700 C   0  0  0  0  0  0  0  0  0  0  0  0
   -4.7590   17.1740  -33.2110 N   0  0  0  0  0  0  0  0  0  0  0  0
   -5.3010   16.2120  -32.2400 C   0  0  0  0  0  0  0  0  0  0  0  0
   -4.5490   14.8860  -32.2950 C   0  0  0  0  0  0  0  0  0  0  0  0
   -5.5980   18.2090  -33.7630 C   0  0  0  0  0  0  0  0  0  0  0  0
   -5.4660   18.5480  -34.9700 O   0  0  0  0  0  0  0  0  0  0  0  0
   -6.6330   18.8730  -32.9530 C   0  0  0  0  0  0  0  0  0  0  0  0
   -7.8800   18.2510  -32.8020 C   0  0  0  0  0  0  0  0  0  0  0  0
   -8.8730   18.8400  -32.0170 C   0  0  0  0  0  0  0  0  0  0  0  0
   -8.6300   20.0570  -31.3780 C   0  0  0  0  0  0  0  0  0  0  0  0
   -7.3980   20.6960  -31.5370 C   0  0  0  0  0  0  0  0  0  0  0  0
   -6.4010   20.1240  -32.3390 C   0  0  0  0  0  0  0  0  0  0  0  0
   -4.8480   21.0130  -32.5550 S   0  0  0  0  0  0  0  0  0  0  0  0
   -4.7690   21.6530  -30.8450 C   0  0  0  0  0  0  0  0  0  0  0  0
   -4.5900   23.1430  -30.8350 C   0  0  0  0  0  0  0  0  0  0  0  0
   -5.4770   24.1170  -31.2560 C   0  0  0  0  0  0  0  0  0  0  0  0
   -6.8570   23.9040  -31.7880 C   0  0  0  0  0  0  0  0  0  0  0  0
   -4.9370   25.3330  -31.0450 N   0  0  0  0  0  0  0  0  0  0  0  0
   -3.7570   25.1430  -30.5250 O   0  0  0  0  0  0  0  0  0  0  0  0
   -3.5020   23.8620  -30.3810 C   0  0  0  0  0  0  0  0  0  0  0  0
   -2.2490   23.3170  -29.7790 C   0  0  0  0  0  0  0  0  0  0  0  0
   -2.4138   18.6019  -32.8132 H   0  0  0  0  0  0  0  0  0  0  0  0
   -1.6807   18.0789  -34.3675 H   0  0  0  0  0  0  0  0  0  0  0  0
   -3.2146   19.0136  -34.3675 H   0  0  0  0  0  0  0  0  0  0  0  0
   -3.5201   16.5382  -34.7856 H   0  0  0  0  0  0  0  0  0  0  0  0
   -2.8839   16.2436  -33.1190 H   0  0  0  0  0  0  0  0  0  0  0  0
   -5.2098   16.6340  -31.2283 H   0  0  0  0  0  0  0  0  0  0  0  0
   -6.3557   16.0237  -32.4894 H   0  0  0  0  0  0  0  0  0  0  0  0
   -4.3498   14.5347  -31.2718 H   0  0  0  0  0  0  0  0  0  0  0  0
   -5.1587   14.1405  -32.8264 H   0  0  0  0  0  0  0  0  0  0  0  0
   -3.5962   15.0266  -32.8264 H   0  0  0  0  0  0  0  0  0  0  0  0
   -8.0775   17.2929  -33.3051 H   0  0  0  0  0  0  0  0  0  0  0  0
   -9.8482   18.3443  -31.9019 H   0  0  0  0  0  0  0  0  0  0  0  0
   -9.4088   20.5130  -30.7491 H   0  0  0  0  0  0  0  0  0  0  0  0
   -7.2093   21.6537  -31.0298 H   0  0  0  0  0  0  0  0  0  0  0  0
   -5.7034   21.3996  -30.3228 H   0  0  0  0  0  0  0  0  0  0  0  0
   -3.9072   21.1936  -30.3388 H   0  0  0  0  0  0  0  0  0  0  0  0
   -7.5605   23.7954  -30.9494 H   0  0  0  0  0  0  0  0  0  0  0  0
   -7.1502   24.7675  -32.4031 H   0  0  0  0  0  0  0  0  0  0  0  0
   -6.8762   22.9923  -32.4031 H   0  0  0  0  0  0  0  0  0  0  0  0
   -2.3247   23.3499  -28.6821 H   0  0  0  0  0  0  0  0  0  0  0  0
   -2.1078   22.2762  -30.1057 H   0  0  0  0  0  0  0  0  0  0  0  0
   -1.3913   23.9234  -30.1057 H   0  0  0  0  0  0  0  0  0  0  0  0
  1  2  1  0
  2  3  1  0
  3  4  1  0
  4  5  1  0
  3  6  1  0
  6  7  2  0
  6  8  1  0
  8  9  2  0
  9 10  1  0
 10 11  2  0
 11 12  1  0
 12 13  2  0
 13 14  1  0
 14 15  1  0
 15 16  1  0
 16 17  1  0
 17 18  1  0
 17 19  2  0
 19 20  1  0
 20 21  1  0
 21 22  1  0
 13  8  1  0
 21 16  2  0
  1 23  1  0
  1 24  1  0
  1 25  1  0
  2 26  1  0
  2 27  1  0
  4 28  1  0
  4 29  1  0
  5 30  1  0
  5 31  1  0
  5 32  1  0
  9 33  1  0
 10 34  1  0
 11 35  1  0
 12 36  1  0
 15 37  1  0
 15 38  1  0
 18 39  1  0
 18 40  1  0
 18 41  1  0
 22 42  1  0
 22 43  1  0
 22 44  1  0
M  END
>  <UniqueID>  (30) 
28

>  <SMILES>  (30) 
CCN(CC)C(=O)c1ccccc1SCc1c(C)noc1C

>  <Energy>  (30) 
66.1531670433904

>  <Genealogy>  (30) 
CCN(CC)C(=O)c1ccccc1SCc1c(C)noc1C (3D coordinates assigned)
CCN(CC)C(=O)c1ccccc1SCc1c(C)noc1C (optimized conformer: 66.1531670433904 kcal/mol)

>  <smiles>  (30) 
CCN(CC)C(=O)c1ccccc1SCc1c(C)noc1C

>  <score_type>  (30) 
oracle

>  <origin>  (30) 
adg

>  <m_score__min__energy>  (30) 
-9.0099999999999998

>  <m_primary>  (30) 
energy

$$$$
30:0
     RDKit          3D

 42 44  0  0  0  0  0  0  0  0999 V2000
   -4.8580   16.9240  -32.7960 C   0  0  0  0  0  0  0  0  0  0  0  0
   -4.8770   18.1900  -33.5360 N   0  0  0  0  0  0  0  0  0  0  0  0
   -6.1140   18.6210  -34.1970 C   0  0  0  0  0  0  0  0  0  0  0  0
   -7.0450   19.2390  -33.1900 C   0  0  0  0  0  0  0  0  0  0  0  0
   -7.9040   18.4380  -32.4230 C   0  0  0  0  0  0  0  0  0  0  0  0
   -8.7570   19.0220  -31.4850 C   0  0  0  0  0  0  0  0  0  0  0  0
   -8.7500   20.4070  -31.2930 C   0  0  0  0  0  0  0  0  0  0  0  0
   -7.8750   21.2200  -32.0320 C   0  0  0  0  0  0  0  0  0  0  0  0
   -7.8660   22.6860  -31.8200 C   0  0  0  0  0  0  0  0  0  0  0  0
   -8.8850   23.3560  -32.1420 O   0  0  0  0  0  0  0  0  0  0  0  0
   -6.6970   23.3900  -31.2400 C   0  0  0  0  0  0  0  0  0  0  0  0
   -5.3930   22.8860  -31.4090 C   0  0  0  0  0  0  0  0  0  0  0  0
   -4.3010   23.5450  -30.8390 C   0  0  0  0  0  0  0  0  0  0  0  0
   -4.4970   24.7120  -30.0950 C   0  0  0  0  0  0  0  0  0  0  0  0
   -5.7870   25.2140  -29.9110 C   0  0  0  0  0  0  0  0  0  0  0  0
   -6.8840   24.5540  -30.4730 C   0  0  0  0  0  0  0  0  0  0  0  0
   -7.0350   20.6280  -32.9910 C   0  0  0  0  0  0  0  0  0  0  0  0
   -3.7220   19.0510  -33.5120 C   0  0  0  0  0  0  0  0  0  0  0  0
   -3.8420   20.3880  -33.0940 C   0  0  0  0  0  0  0  0  0  0  0  0
   -2.7220   21.2240  -33.0620 C   0  0  0  0  0  0  0  0  0  0  0  0
   -1.4720   20.7360  -33.4520 C   0  0  0  0  0  0  0  0  0  0  0  0
   -0.3870   21.5470  -33.4200 F   0  0  0  0  0  0  0  0  0  0  0  0
   -1.3430   19.4120  -33.8770 C   0  0  0  0  0  0  0  0  0  0  0  0
   -2.4600   18.5710  -33.9070 C   0  0  0  0  0  0  0  0  0  0  0  0
   -4.8611   17.1307  -31.7156 H   0  0  0  0  0  0  0  0  0  0  0  0
   -5.7474   16.3324  -33.0587 H   0  0  0  0  0  0  0  0  0  0  0  0
   -3.9513   16.3593  -33.0587 H   0  0  0  0  0  0  0  0  0  0  0  0
   -5.8733   19.3618  -34.9737 H   0  0  0  0  0  0  0  0  0  0  0  0
   -6.6031   17.7481  -34.6540 H   0  0  0  0  0  0  0  0  0  0  0  0
   -7.9054   17.3467  -32.5611 H   0  0  0  0  0  0  0  0  0  0  0  0
   -9.4372   18.3904  -30.8947 H   0  0  0  0  0  0  0  0  0  0  0  0
   -9.4327   20.8618  -30.5601 H   0  0  0  0  0  0  0  0  0  0  0  0
   -5.2333   21.9679  -31.9934 H   0  0  0  0  0  0  0  0  0  0  0  0
   -3.2855   23.1450  -30.9759 H   0  0  0  0  0  0  0  0  0  0  0  0
   -3.6352   25.2348  -29.6545 H   0  0  0  0  0  0  0  0  0  0  0  0
   -5.9404   26.1307  -29.3226 H   0  0  0  0  0  0  0  0  0  0  0  0
   -7.8990   24.9473  -30.3144 H   0  0  0  0  0  0  0  0  0  0  0  0
   -6.3635   21.2595  -33.5912 H   0  0  0  0  0  0  0  0  0  0  0  0
   -4.8242   20.7790  -32.7900 H   0  0  0  0  0  0  0  0  0  0  0  0
   -2.8248   22.2674  -32.7293 H   0  0  0  0  0  0  0  0  0  0  0  0
   -0.3600   19.0295  -34.1891 H   0  0  0  0  0  0  0  0  0  0  0  0
   -2.3512   17.5287  -34.2412 H   0  0  0  0  0  0  0  0  0  0  0  0
  1  2  1  0
  2  3  1  0
  3  4  1  0
  4  5  2  0
  5  6  1  0
  6  7  2  0
  7  8  1  0
  8  9  1  0
  9 10  2  0
  9 11  1  0
 11 12  2  0
 12 13  1  0
 13 14  2  0
 14 15  1  0
 15 16  2  0
  8 17  2  0
  2 18  1  0
 18 19  2  0
 19 20  1  0
 20 21  2  0
 21 22  1  0
 21 23  1  0
 23 24  2  0
 17  4  1  0
 24 18  1  0
 16 11  1  0
  1 25  1  0
  1 26  1  0
  1 27  1  0
  3 28  1  0
  3 29  1  0
  5 30  1  0
  6 31  1  0
  7 32  1  0
 12 33  1  0
 13 34  1  0
 14 35  1  0
 15 36  1  0
 16 37  1  0
 17 38  1  0
 19 39  1  0
 20 40  1  0
 23 41  1  0
 24 42  1  0
M  END
>  <UniqueID>  (31) 
29

>  <SMILES>  (31) 
CN(Cc1cccc(C(=O)c2ccccc2)c1)c1ccc(F)cc1

>  <Energy>  (31) 
50.40137211311991

>  <Genealogy>  (31) 
CN(Cc1cccc(C(=O)c2ccccc2)c1)c1ccc(F)cc1 (3D coordinates assigned)
CN(Cc1cccc(C(=O)c2ccccc2)c1)c1ccc(F)cc1 (optimized conformer: 50.40137211311991 kcal/mol)

>  <smiles>  (31) 
CN(Cc1cccc(C(=O)c2ccccc2)c1)c1ccc(F)cc1

>  <score_type>  (31) 
oracle

>  <origin>  (31) 
adg

>  <m_score__min__energy>  (31) 
-8.5

>  <m_primary>  (31) 
energy

$$$$
31:0
     RDKit          3D

 35 37  0  0  0  0  0  0  0  0999 V2000
   -5.1770   21.1470  -31.2620 C   0  0  0  0  0  0  0  0  0  0  0  0
   -6.6070   21.2240  -31.5640 N   0  0  0  0  0  0  0  0  0  0  0  0
   -7.4900   22.1480  -31.1360 C   0  0  0  0  0  0  0  0  0  0  0  0
   -7.0930   23.5710  -30.1120 S   0  0  0  0  0  0  0  0  0  0  0  0
   -6.0000   24.3420  -31.3530 C   0  0  0  0  0  0  0  0  0  0  0  0
   -5.1670   25.4230  -30.7220 C   0  0  0  0  0  0  0  0  0  0  0  0
   -5.7470   26.4470  -30.2730 O   0  0  0  0  0  0  0  0  0  0  0  0
   -3.7570   25.2790  -30.4970 N   0  0  0  0  0  0  0  0  0  0  0  0
   -3.1220   24.5340  -29.4500 C   0  0  0  0  0  0  0  0  0  0  0  0
   -3.8070   23.4570  -28.8740 C   0  0  0  0  0  0  0  0  0  0  0  0
   -3.2170   22.7120  -27.8480 C   0  0  0  0  0  0  0  0  0  0  0  0
   -1.9510   23.0620  -27.3690 C   0  0  0  0  0  0  0  0  0  0  0  0
   -1.2820   24.1660  -27.9060 C   0  0  0  0  0  0  0  0  0  0  0  0
   -1.8690   24.9090  -28.9360 C   0  0  0  0  0  0  0  0  0  0  0  0
   -8.7300   21.8980  -31.5920 N   0  0  0  0  0  0  0  0  0  0  0  0
   -8.6540   20.8040  -32.3330 N   0  0  0  0  0  0  0  0  0  0  0  0
   -7.3690   20.3950  -32.3150 C   0  0  0  0  0  0  0  0  0  0  0  0
   -6.9070   19.2140  -33.0760 C   0  0  0  0  0  0  0  0  0  0  0  0
   -6.0790   19.2670  -34.1940 C   0  0  0  0  0  0  0  0  0  0  0  0
   -5.7660   18.0080  -34.7200 C   0  0  0  0  0  0  0  0  0  0  0  0
   -6.3420   16.9540  -34.0250 C   0  0  0  0  0  0  0  0  0  0  0  0
   -7.2370   17.5940  -32.7570 S   0  0  0  0  0  0  0  0  0  0  0  0
   -5.0324   21.1392  -30.1716 H   0  0  0  0  0  0  0  0  0  0  0  0
   -4.7602   20.2251  -31.6937 H   0  0  0  0  0  0  0  0  0  0  0  0
   -4.6636   22.0188  -31.6937 H   0  0  0  0  0  0  0  0  0  0  0  0
   -5.3360   23.5745  -31.7772 H   0  0  0  0  0  0  0  0  0  0  0  0
   -6.6197   24.7872  -32.1453 H   0  0  0  0  0  0  0  0  0  0  0  0
   -4.8143   23.1956  -29.2304 H   0  0  0  0  0  0  0  0  0  0  0  0
   -3.7490   21.8506  -27.4179 H   0  0  0  0  0  0  0  0  0  0  0  0
   -1.4816   22.4692  -26.5701 H   0  0  0  0  0  0  0  0  0  0  0  0
   -0.2928   24.4508  -27.5182 H   0  0  0  0  0  0  0  0  0  0  0  0
   -1.3489   25.7881  -29.3441 H   0  0  0  0  0  0  0  0  0  0  0  0
   -5.7062   20.2087  -34.6232 H   0  0  0  0  0  0  0  0  0  0  0  0
   -5.1236   17.8674  -35.6018 H   0  0  0  0  0  0  0  0  0  0  0  0
   -6.2315   15.8858  -34.2633 H   0  0  0  0  0  0  0  0  0  0  0  0
  1  2  1  0
  2  3  1  0
  3  4  1  0
  4  5  1  0
  5  6  1  0
  6  7  2  0
  6  8  1  0
  8  9  1  0
  9 10  2  0
 10 11  1  0
 11 12  2  0
 12 13  1  0
 13 14  2  0
  3 15  2  0
 15 16  1  0
 16 17  2  0
 17 18  1  0
 18 19  2  0
 19 20  1  0
 20 21  2  0
 21 22  1  0
 17  2  1  0
 22 18  1  0
 14  9  1  0
  1 23  1  0
  1 24  1  0
  1 25  1  0
  5 26  1  0
  5 27  1  0
 10 28  1  0
 11 29  1  0
 12 30  1  0
 13 31  1  0
 14 32  1  0
 19 33  1  0
 20 34  1  0
 21 35  1  0
M  CHG  1   8  -1
M  END
>  <UniqueID>  (32) 
30

>  <SMILES>  (32) 
Cn1c(SCC(=O)[N-]c2ccccc2)nnc1-c1cccs1

>  <Energy>  (32) 
96.65298496477746

>  <Genealogy>  (32) 
Cn1c(SCC(=O)[N-]c2ccccc2)nnc1-c1cccs1 (protonated)
Cn1c(SCC(=O)[N-]c2ccccc2)nnc1-c1cccs1 (3D coordinates assigned)
Cn1c(SCC(=O)[N-]c2ccccc2)nnc1-c1cccs1 (optimized conformer: 96.65298496477746 kcal/mol)

>  <smiles>  (32) 
Cn1c(SCC(=O)Nc2ccccc2)nnc1-c1cccs1

>  <score_type>  (32) 
oracle

>  <origin>  (32) 
adg

>  <m_score__min__energy>  (32) 
-9.9600000000000009

>  <m_primary>  (32) 
energy

$$$$
32:0
     RDKit          3D

 46 48  0  0  0  0  0  0  0  0999 V2000
   -3.4930   18.6870  -33.6330 C   0  0  0  0  0  0  0  0  0  0  0  0
   -3.5380   19.8230  -32.7130 N   0  0  0  0  0  0  0  0  0  0  0  0
   -4.5980   20.3430  -32.0450 C   0  0  0  0  0  0  0  0  0  0  0  0
   -5.9900   19.8510  -32.1110 C   0  0  0  0  0  0  0  0  0  0  0  0
   -6.2970   18.4970  -31.8930 C   0  0  0  0  0  0  0  0  0  0  0  0
   -7.6190   18.0500  -31.9780 C   0  0  0  0  0  0  0  0  0  0  0  0
   -8.6440   18.9480  -32.2940 C   0  0  0  0  0  0  0  0  0  0  0  0
   -9.9250   18.5120  -32.3770 F   0  0  0  0  0  0  0  0  0  0  0  0
   -8.3460   20.2920  -32.5320 C   0  0  0  0  0  0  0  0  0  0  0  0
   -7.0240   20.7420  -32.4480 C   0  0  0  0  0  0  0  0  0  0  0  0
   -4.2260   21.3780  -31.2630 N   0  0  0  0  0  0  0  0  0  0  0  0
   -2.9250   21.5360  -31.4480 N   0  0  0  0  0  0  0  0  0  0  0  0
   -2.5120   20.6020  -32.3180 C   0  0  0  0  0  0  0  0  0  0  0  0
   -0.8010   20.4120  -32.8380 S   0  0  0  0  0  0  0  0  0  0  0  0
   -0.2050   19.9170  -31.1840 C   0  0  0  0  0  0  0  0  0  0  0  0
   -0.2770   21.0670  -30.2200 C   0  0  0  0  0  0  0  0  0  0  0  0
   -0.3190   22.2440  -30.6700 O   0  0  0  0  0  0  0  0  0  0  0  0
   -0.3170   20.8450  -28.7970 N   0  0  0  0  0  0  0  0  0  0  0  0
   -1.1590   21.7080  -27.9620 C   0  0  0  0  0  0  0  0  0  0  0  0
   -2.3100   20.9170  -27.3240 C   0  0  0  0  0  0  0  0  0  0  0  0
   -1.8090   19.6710  -26.5750 C   0  0  0  0  0  0  0  0  0  0  0  0
   -1.3230   18.5280  -27.4900 C   0  0  0  0  0  0  0  0  0  0  0  0
    0.1470   18.5840  -27.9500 C   0  0  0  0  0  0  0  0  0  0  0  0
    0.6990   20.0010  -28.1550 C   0  0  0  0  0  0  0  0  0  0  0  0
   -3.4559   17.7503  -33.0575 H   0  0  0  0  0  0  0  0  0  0  0  0
   -4.3921   18.6926  -34.2668 H   0  0  0  0  0  0  0  0  0  0  0  0
   -2.5972   18.7637  -34.2668 H   0  0  0  0  0  0  0  0  0  0  0  0
   -5.4930   17.7852  -31.6543 H   0  0  0  0  0  0  0  0  0  0  0  0
   -7.8534   16.9908  -31.7962 H   0  0  0  0  0  0  0  0  0  0  0  0
   -9.1514   20.9969  -32.7856 H   0  0  0  0  0  0  0  0  0  0  0  0
   -6.7923   21.7988  -32.6467 H   0  0  0  0  0  0  0  0  0  0  0  0
   -2.3400   22.2630  -30.9800 H   0  0  0  0  0  0  0  0  0  0  0  0
   -0.8293   19.0929  -30.8083 H   0  0  0  0  0  0  0  0  0  0  0  0
    0.8439   19.5970  -31.2705 H   0  0  0  0  0  0  0  0  0  0  0  0
   -0.5416   22.1478  -27.1649 H   0  0  0  0  0  0  0  0  0  0  0  0
   -1.5899   22.4940  -28.5996 H   0  0  0  0  0  0  0  0  0  0  0  0
   -2.8381   21.5698  -26.6134 H   0  0  0  0  0  0  0  0  0  0  0  0
   -2.9790   20.5818  -28.1303 H   0  0  0  0  0  0  0  0  0  0  0  0
   -0.9723   19.9724  -25.9276 H   0  0  0  0  0  0  0  0  0  0  0  0
   -2.6681   19.2776  -26.0117 H   0  0  0  0  0  0  0  0  0  0  0  0
   -1.4658   17.5826  -26.9461 H   0  0  0  0  0  0  0  0  0  0  0  0
   -1.9169   18.6239  -28.4109 H   0  0  0  0  0  0  0  0  0  0  0  0
    0.7637   18.0823  -27.1898 H   0  0  0  0  0  0  0  0  0  0  0  0
    0.1853   18.0896  -28.9319 H   0  0  0  0  0  0  0  0  0  0  0  0
    0.9681   20.4323  -27.1795 H   0  0  0  0  0  0  0  0  0  0  0  0
    1.5896   19.9532  -28.7988 H   0  0  0  0  0  0  0  0  0  0  0  0
  1  2  1  0
  2  3  1  0
  3  4  1  0
  4  5  2  0
  5  6  1  0
  6  7  2  0
  7  8  1  0
  7  9  1  0
  9 10  2  0
  3 11  2  0
 11 12  1  0
 12 13  2  0
 13 14  1  0
 14 15  1  0
 15 16  1  0
 16 17  2  0
 16 18  1  0
 18 19  1  0
 19 20  1  0
 20 21  1  0
 21 22  1  0
 22 23  1  0
 23 24  1  0
 13  2  1  0
 24 18  1  0
 10  4  1  0
  1 25  1  0
  1 26  1  0
  1 27  1  0
  5 28  1  0
  6 29  1  0
  9 30  1  0
 10 31  1  0
 12 32  1  0
 15 33  1  0
 15 34  1  0
 19 35  1  0
 19 36  1  0
 20 37  1  0
 20 38  1  0
 21 39  1  0
 21 40  1  0
 22 41  1  0
 22 42  1  0
 23 43  1  0
 23 44  1  0
 24 45  1  0
 24 46  1  0
M  CHG  1  12   1
M  END
>  <UniqueID>  (33) 
31

>  <SMILES>  (33) 
Cn1c(-c2ccc(F)cc2)n[nH+]c1SCC(=O)N1CCCCCC1

>  <Energy>  (33) 
85.51464404895421

>  <Genealogy>  (33) 
Cn1c(-c2ccc(F)cc2)n[nH+]c1SCC(=O)N1CCCCCC1 (protonated)
Cn1c(-c2ccc(F)cc2)n[nH+]c1SCC(=O)N1CCCCCC1 (3D coordinates assigned)
Cn1c(-c2ccc(F)cc2)n[nH+]c1SCC(=O)N1CCCCCC1 (nonaromatic ring conformer: 85.51464404895421 kcal/mol)

>  <smiles>  (33) 
Cn1c(SCC(=O)N2CCCCCC2)nnc1-c1ccc(F)cc1

>  <score_type>  (33) 
oracle

>  <origin>  (33) 
adg

>  <m_score__min__energy>  (33) 
-6.1500000000000004

>  <m_primary>  (33) 
energy

$$$$
33:0
     RDKit          3D

 40 41  0  0  0  0  0  0  0  0999 V2000
    0.0630   25.1870  -27.4450 C   0  0  0  0  0  0  0  0  0  0  0  0
   -1.1230   26.0830  -27.7900 C   0  0  0  0  0  0  0  0  0  0  0  0
   -1.7680   25.6350  -28.9820 O   0  0  0  0  0  0  0  0  0  0  0  0
   -2.5730   24.4880  -29.0990 C   0  0  0  0  0  0  0  0  0  0  0  0
   -2.3300   23.3150  -28.3610 C   0  0  0  0  0  0  0  0  0  0  0  0
   -3.1530   22.1940  -28.5190 C   0  0  0  0  0  0  0  0  0  0  0  0
   -2.9070   20.9540  -27.7100 C   0  0  0  0  0  0  0  0  0  0  0  0
   -4.2440   22.2520  -29.3950 C   0  0  0  0  0  0  0  0  0  0  0  0
   -4.4900   23.4040  -30.1630 C   0  0  0  0  0  0  0  0  0  0  0  0
   -5.5910   23.4280  -31.1620 C   0  0  0  0  0  0  0  0  0  0  0  0
   -5.3120   23.4660  -32.3920 O   0  0  0  0  0  0  0  0  0  0  0  0
   -7.0450   23.3420  -30.7620 C   0  0  0  0  0  0  0  0  0  0  0  0
   -7.9360   22.8530  -31.9140 C   0  0  0  0  0  0  0  0  0  0  0  0
   -7.8540   21.3590  -32.1040 C   0  0  0  0  0  0  0  0  0  0  0  0
   -8.8340   20.5200  -31.5470 C   0  0  0  0  0  0  0  0  0  0  0  0
   -8.7170   19.1310  -31.6550 C   0  0  0  0  0  0  0  0  0  0  0  0
   -7.6250   18.5700  -32.3220 C   0  0  0  0  0  0  0  0  0  0  0  0
   -6.6520   19.3970  -32.8890 C   0  0  0  0  0  0  0  0  0  0  0  0
   -6.7640   20.7860  -32.7840 C   0  0  0  0  0  0  0  0  0  0  0  0
   -3.6460   24.5240  -30.0010 C   0  0  0  0  0  0  0  0  0  0  0  0
   -3.8510   25.6770  -30.7550 O   0  0  0  0  0  0  0  0  0  0  0  0
    0.1609   25.1130  -26.3519 H   0  0  0  0  0  0  0  0  0  0  0  0
   -0.0999   24.1844  -27.8672 H   0  0  0  0  0  0  0  0  0  0  0  0
    0.9829   25.6177  -27.8672 H   0  0  0  0  0  0  0  0  0  0  0  0
   -1.8444   26.0616  -26.9599 H   0  0  0  0  0  0  0  0  0  0  0  0
   -0.7554   27.1070  -27.9520 H   0  0  0  0  0  0  0  0  0  0  0  0
   -1.4873   23.2787  -27.6549 H   0  0  0  0  0  0  0  0  0  0  0  0
   -2.9557   21.1994  -26.6388 H   0  0  0  0  0  0  0  0  0  0  0  0
   -3.6735   20.2021  -27.9491 H   0  0  0  0  0  0  0  0  0  0  0  0
   -1.9115   20.5517  -27.9491 H   0  0  0  0  0  0  0  0  0  0  0  0
   -4.9166   21.3861  -29.4834 H   0  0  0  0  0  0  0  0  0  0  0  0
   -7.1397   22.6416  -29.9191 H   0  0  0  0  0  0  0  0  0  0  0  0
   -7.3786   24.3523  -30.4826 H   0  0  0  0  0  0  0  0  0  0  0  0
   -8.9790   23.1254  -31.6951 H   0  0  0  0  0  0  0  0  0  0  0  0
   -7.5829   23.3307  -32.8398 H   0  0  0  0  0  0  0  0  0  0  0  0
   -9.6968   20.9579  -31.0238 H   0  0  0  0  0  0  0  0  0  0  0  0
   -9.4856   18.4791  -31.2143 H   0  0  0  0  0  0  0  0  0  0  0  0
   -7.5313   17.4768  -32.4008 H   0  0  0  0  0  0  0  0  0  0  0  0
   -5.7961   18.9539  -33.4191 H   0  0  0  0  0  0  0  0  0  0  0  0
   -5.9973   21.4334  -33.2346 H   0  0  0  0  0  0  0  0  0  0  0  0
  1  2  1  0
  2  3  1  0
  3  4  1  0
  4  5  2  0
  5  6  1  0
  6  7  1  0
  6  8  2  0
  8  9  1  0
  9 10  1  0
 10 11  2  0
 10 12  1  0
 12 13  1  0
 13 14  1  0
 14 15  2  0
 15 16  1  0
 16 17  2  0
 17 18  1  0
 18 19  2  0
  9 20  2  0
 20 21  1  0
 20  4  1  0
 19 14  1  0
  1 22  1  0
  1 23  1  0
  1 24  1  0
  2 25  1  0
  2 26  1  0
  5 27  1  0
  7 28  1  0
  7 29  1  0
  7 30  1  0
  8 31  1  0
 12 32  1  0
 12 33  1  0
 13 34  1  0
 13 35  1  0
 15 36  1  0
 16 37  1  0
 17 38  1  0
 18 39  1  0
 19 40  1  0
M  CHG  1  21  -1
M  END
>  <UniqueID>  (34) 
32

>  <SMILES>  (34) 
CCOc1cc(C)cc(C(=O)CCc2ccccc2)c1[O-]

>  <Energy>  (34) 
35.91063951510924

>  <Genealogy>  (34) 
CCOc1cc(C)cc(C(=O)CCc2ccccc2)c1[O-] (protonated)
CCOc1cc(C)cc(C(=O)CCc2ccccc2)c1[O-] (3D coordinates assigned)
CCOc1cc(C)cc(C(=O)CCc2ccccc2)c1[O-] (optimized conformer: 35.91063951510924 kcal/mol)

>  <smiles>  (34) 
CCOc1cc(C)cc(C(=O)CCc2ccccc2)c1O

>  <score_type>  (34) 
oracle

>  <origin>  (34) 
adg

>  <m_score__min__energy>  (34) 
-12.25

>  <m_primary>  (34) 
energy

$$$$
34:0
     RDKit          3D

 33 35  0  0  0  0  0  0  0  0999 V2000
   -7.6660   18.3700  -32.7120 C   0  0  0  0  0  0  0  0  0  0  0  0
   -8.1320   19.7280  -32.4530 N   0  0  0  0  0  0  0  0  0  0  0  0
   -9.4180   20.1290  -32.3130 C   0  0  0  0  0  0  0  0  0  0  0  0
   -9.4750   21.4780  -31.9700 C   0  0  0  0  0  0  0  0  0  0  0  0
   -8.1610   21.8890  -31.8920 C   0  0  0  0  0  0  0  0  0  0  0  0
   -7.5970   23.1140  -31.5590 C   0  0  0  0  0  0  0  0  0  0  0  0
   -6.1860   23.2020  -31.5470 C   0  0  0  0  0  0  0  0  0  0  0  0
   -5.5090   24.4150  -31.1900 N   0  0  0  0  0  0  0  0  0  0  0  0
   -4.4650   24.5390  -30.2180 C   0  0  0  0  0  0  0  0  0  0  0  0
   -3.4920   25.2990  -30.4650 O   0  0  0  0  0  0  0  0  0  0  0  0
   -4.5700   23.8920  -28.9390 N   0  0  0  0  0  0  0  0  0  0  0  0
   -3.4560   23.6610  -28.0610 C   0  0  0  0  0  0  0  0  0  0  0  0
   -2.7610   24.7270  -27.4600 C   0  0  0  0  0  0  0  0  0  0  0  0
   -1.6640   24.4760  -26.6310 C   0  0  0  0  0  0  0  0  0  0  0  0
   -1.2420   23.1630  -26.4030 C   0  0  0  0  0  0  0  0  0  0  0  0
   -1.9140   22.0980  -27.0130 C   0  0  0  0  0  0  0  0  0  0  0  0
   -1.3760   20.4510  -26.7380 Cl  0  0  0  0  0  0  0  0  0  0  0  0
   -3.0110   22.3470  -27.8440 C   0  0  0  0  0  0  0  0  0  0  0  0
   -5.4180   22.0460  -31.8290 C   0  0  0  0  0  0  0  0  0  0  0  0
   -6.0260   20.8630  -32.1450 N   0  0  0  0  0  0  0  0  0  0  0  0
   -7.3810   20.8070  -32.1800 C   0  0  0  0  0  0  0  0  0  0  0  0
   -7.4891   17.8545  -31.7565 H   0  0  0  0  0  0  0  0  0  0  0  0
   -8.4283   17.8243  -33.2874 H   0  0  0  0  0  0  0  0  0  0  0  0
   -6.7292   18.4073  -33.2874 H   0  0  0  0  0  0  0  0  0  0  0  0
  -10.2953   19.4799  -32.4509 H   0  0  0  0  0  0  0  0  0  0  0  0
  -10.3757   22.0855  -31.7981 H   0  0  0  0  0  0  0  0  0  0  0  0
   -8.2249   23.9833  -31.3138 H   0  0  0  0  0  0  0  0  0  0  0  0
   -5.5280   23.6550  -28.5950 H   0  0  0  0  0  0  0  0  0  0  0  0
   -3.0827   25.7628  -27.6436 H   0  0  0  0  0  0  0  0  0  0  0  0
   -1.1315   25.3137  -26.1569 H   0  0  0  0  0  0  0  0  0  0  0  0
   -0.3827   22.9672  -25.7448 H   0  0  0  0  0  0  0  0  0  0  0  0
   -3.5289   21.5076  -28.3310 H   0  0  0  0  0  0  0  0  0  0  0  0
   -4.3199   22.1006  -31.7934 H   0  0  0  0  0  0  0  0  0  0  0  0
  1  2  1  0
  2  3  1  0
  3  4  2  0
  4  5  1  0
  5  6  2  0
  6  7  1  0
  7  8  1  0
  8  9  1  0
  9 10  2  0
  9 11  1  0
 11 12  1  0
 12 13  2  0
 13 14  1  0
 14 15  2  0
 15 16  1  0
 16 17  1  0
 16 18  2  0
  7 19  2  0
 19 20  1  0
 20 21  2  0
 21  2  1  0
 21  5  1  0
 18 12  1  0
  1 22  1  0
  1 23  1  0
  1 24  1  0
  3 25  1  0
  4 26  1  0
  6 27  1  0
 11 28  1  0
 13 29  1  0
 14 30  1  0
 15 31  1  0
 18 32  1  0
 19 33  1  0
M  CHG  1   8  -1
M  END
>  <UniqueID>  (35) 
33

>  <SMILES>  (35) 
Cn1ccc2cc([N-]C(=O)Nc3cccc(Cl)c3)cnc21

>  <Energy>  (35) 
76.6073016756813

>  <Genealogy>  (35) 
Cn1ccc2cc([N-]C(=O)Nc3cccc(Cl)c3)cnc21 (protonated)
Cn1ccc2cc([N-]C(=O)Nc3cccc(Cl)c3)cnc21 (3D coordinates assigned)
Cn1ccc2cc([N-]C(=O)Nc3cccc(Cl)c3)cnc21 (optimized conformer: 76.6073016756813 kcal/mol)

>  <smiles>  (35) 
Cn1ccc2cc(NC(=O)Nc3cccc(Cl)c3)cnc21

>  <score_type>  (35) 
oracle

>  <origin>  (35) 
adg

>  <m_score__min__energy>  (35) 
-9.2599999999999998

>  <m_primary>  (35) 
energy

$$$$
35:0
     RDKit          3D

 42 43  0  0  1  0  0  0  0  0999 V2000
   -1.3730   21.4170  -32.2160 O   0  0  0  0  0  0  0  0  0  0  0  0
   -2.8460   21.5330  -31.6480 S   0  0  0  0  0  0  0  0  0  0  0  0
   -3.4580   22.6820  -32.3360 O   0  0  0  0  0  0  0  0  0  0  0  0
   -3.6310   20.0990  -31.9930 N   0  0  0  0  0  0  0  0  0  0  0  0
   -4.4690   20.1390  -33.1020 C   0  0  0  0  0  0  0  0  0  0  0  0
   -5.9300   20.4040  -32.5950 C   0  0  0  0  0  0  0  0  0  0  0  0
   -6.9260   19.5930  -32.9710 C   0  0  0  0  0  0  0  0  0  0  0  0
   -8.1950   19.7860  -32.4820 C   0  0  0  0  0  0  0  0  0  0  0  0
   -8.3910   20.8620  -31.5830 C   0  0  0  0  0  0  0  0  0  0  0  0
   -7.4180   21.7040  -31.1760 C   0  0  0  0  0  0  0  0  0  0  0  0
   -6.8900   23.8650  -30.0810 C   0  0  0  0  0  0  0  0  0  0  0  0
   -5.7510   24.3330  -30.7920 C   0  0  0  0  0  0  0  0  0  0  0  0
   -7.4510   22.6960  -30.1350 C   0  0  0  0  0  0  0  0  0  0  0  0
   -5.4900   24.1870  -32.1750 O   0  0  0  0  0  0  0  0  0  0  0  0
   -4.8400   24.9690  -30.1510 N   0  0  0  0  0  0  0  0  0  0  0  0
   -3.6330   25.2680  -30.7260 O   0  0  0  0  0  0  0  0  0  0  0  0
   -6.1240   21.4450  -31.7260 C   0  0  0  0  0  0  0  0  0  0  0  0
   -2.6190   21.8470  -29.9320 C   0  0  0  0  0  0  0  0  0  0  0  0
   -2.9490   21.0460  -28.8840 C   0  0  0  0  0  0  0  0  0  0  0  0
   -2.7060   21.4410  -27.5790 C   0  0  0  0  0  0  0  0  0  0  0  0
   -2.1140   22.6620  -27.3150 C   0  0  0  0  0  0  0  0  0  0  0  0
   -1.7450   23.5410  -28.3970 C   0  0  0  0  0  0  0  0  0  0  0  0
   -1.1170   24.8150  -28.2580 C   0  0  0  0  0  0  0  0  0  0  0  0
    0.2420   24.7090  -28.2170 F   0  0  0  0  0  0  0  0  0  0  0  0
   -1.5190   25.6150  -29.2900 F   0  0  0  0  0  0  0  0  0  0  0  0
   -1.4500   25.5000  -27.0810 F   0  0  0  0  0  0  0  0  0  0  0  0
   -2.0310   23.0610  -29.6520 C   0  0  0  0  0  0  0  0  0  0  0  0
   -2.8090   19.4180  -32.3940 H   0  0  0  0  0  0  0  0  0  0  0  0
   -4.1557   20.9483  -33.7779 H   0  0  0  0  0  0  0  0  0  0  0  0
   -4.4215   19.1875  -33.6519 H   0  0  0  0  0  0  0  0  0  0  0  0
   -6.7279   18.7699  -33.6733 H   0  0  0  0  0  0  0  0  0  0  0  0
   -9.0269   19.1298  -32.7775 H   0  0  0  0  0  0  0  0  0  0  0  0
   -9.4055   21.0227  -31.1894 H   0  0  0  0  0  0  0  0  0  0  0  0
   -8.0423   22.4218  -29.2489 H   0  0  0  0  0  0  0  0  0  0  0  0
   -7.3565   24.5881  -29.3958 H   0  0  0  0  0  0  0  0  0  0  0  0
   -4.6020   23.8510  -32.4390 H   0  0  0  0  0  0  0  0  0  0  0  0
   -3.4280   24.7670  -31.5740 H   0  0  0  0  0  0  0  0  0  0  0  0
   -5.2757   22.0881  -31.4486 H   0  0  0  0  0  0  0  0  0  0  0  0
   -3.4163   20.0688  -29.0757 H   0  0  0  0  0  0  0  0  0  0  0  0
   -2.9860   20.7785  -26.7467 H   0  0  0  0  0  0  0  0  0  0  0  0
   -1.9235   22.9645  -26.2747 H   0  0  0  0  0  0  0  0  0  0  0  0
   -1.7678   23.7011  -30.5070 H   0  0  0  0  0  0  0  0  0  0  0  0
  1  2  2  0
  2  3  2  0
  2  4  1  0
  4  5  1  0
  5  6  1  0
  6  7  2  0
  7  8  1  0
  8  9  2  0
  9 10  1  0
 10 11  1  0
 11 12  2  0
 12 13  1  0
 13 14  1  0
 13 15  2  0
 15 16  1  0
 10 17  2  0
  2 18  1  0
 18 19  2  0
 19 20  1  0
 20 21  2  0
 21 22  1  0
 22 23  1  0
 23 24  1  0
 23 25  1  0
 23 26  1  0
 22 27  2  0
 17  6  1  0
 27 18  1  0
  4 28  1  0
  5 29  1  0
  5 30  1  0
  7 31  1  0
  8 32  1  0
  9 33  1  0
 11 34  1  0
 12 35  1  0
 14 36  1  0
 16 37  1  0
 17 38  1  0
 19 39  1  0
 20 40  1  0
 21 41  1  0
 27 42  1  0
M  END
>  <smiles>  (36) 
O=S(=O)(NCc1cccc(C=CC(O)=NO)c1)c1cccc(C(F)(F)F)c1

>  <score_type>  (36) 
oracle

>  <origin>  (36) 
adg

>  <m_score__min__energy>  (36) 
-10.039999999999999

>  <m_primary>  (36) 
energy

$$$$
36:0
     RDKit          3D

 32 34  0  0  0  0  0  0  0  0999 V2000
   -1.1530   23.3040  -28.0980 C   0  0  0  0  0  0  0  0  0  0  0  0
   -2.4300   23.5550  -28.7670 N   0  0  0  0  0  0  0  0  0  0  0  0
   -2.7410   23.2300  -30.0480 C   0  0  0  0  0  0  0  0  0  0  0  0
   -1.9660   22.6580  -30.8600 O   0  0  0  0  0  0  0  0  0  0  0  0
   -4.0340   23.6150  -30.2910 C   0  0  0  0  0  0  0  0  0  0  0  0
   -4.8250   23.4810  -31.3800 N   0  0  0  0  0  0  0  0  0  0  0  0
   -6.1130   23.9350  -31.2910 C   0  0  0  0  0  0  0  0  0  0  0  0
   -7.2070   23.7770  -32.6980 S   0  0  0  0  0  0  0  0  0  0  0  0
   -7.6100   22.0750  -32.3030 C   0  0  0  0  0  0  0  0  0  0  0  0
   -8.7750   21.7800  -31.5830 C   0  0  0  0  0  0  0  0  0  0  0  0
   -9.0850   20.4520  -31.2690 C   0  0  0  0  0  0  0  0  0  0  0  0
   -8.2330   19.4190  -31.6750 C   0  0  0  0  0  0  0  0  0  0  0  0
   -7.0710   19.7120  -32.3960 C   0  0  0  0  0  0  0  0  0  0  0  0
   -6.0020   18.4180  -32.9020 Cl  0  0  0  0  0  0  0  0  0  0  0  0
   -6.7600   21.0410  -32.7120 C   0  0  0  0  0  0  0  0  0  0  0  0
   -6.5820   24.5160  -30.0830 C   0  0  0  0  0  0  0  0  0  0  0  0
   -5.7480   24.6220  -29.0020 N   0  0  0  0  0  0  0  0  0  0  0  0
   -4.4740   24.1710  -29.1320 C   0  0  0  0  0  0  0  0  0  0  0  0
   -3.4900   24.1500  -28.2080 N   0  0  0  0  0  0  0  0  0  0  0  0
   -3.5910   24.5820  -26.8130 C   0  0  0  0  0  0  0  0  0  0  0  0
   -1.2983   23.3326  -27.0080 H   0  0  0  0  0  0  0  0  0  0  0  0
   -0.7736   22.3141  -28.3915 H   0  0  0  0  0  0  0  0  0  0  0  0
   -0.4272   24.0767  -28.3915 H   0  0  0  0  0  0  0  0  0  0  0  0
   -9.4456   22.5917  -31.2647 H   0  0  0  0  0  0  0  0  0  0  0  0
   -9.9990   20.2201  -30.7027 H   0  0  0  0  0  0  0  0  0  0  0  0
   -8.4774   18.3756  -31.4269 H   0  0  0  0  0  0  0  0  0  0  0  0
   -5.8477   21.2718  -33.2816 H   0  0  0  0  0  0  0  0  0  0  0  0
   -7.6173   24.8816  -30.0155 H   0  0  0  0  0  0  0  0  0  0  0  0
   -6.0940   25.0340  -28.1080 H   0  0  0  0  0  0  0  0  0  0  0  0
   -3.3913   23.7278  -26.1493 H   0  0  0  0  0  0  0  0  0  0  0  0
   -2.8542   25.3759  -26.6207 H   0  0  0  0  0  0  0  0  0  0  0  0
   -4.6034   24.9669  -26.6207 H   0  0  0  0  0  0  0  0  0  0  0  0
  1  2  1  0
  2  3  1  0
  3  4  2  0
  3  5  1  0
  5  6  2  0
  6  7  1  0
  7  8  1  0
  8  9  1  0
  9 10  2  0
 10 11  1  0
 11 12  2  0
 12 13  1  0
 13 14  1  0
 13 15  2  0
  7 16  2  0
 16 17  1  0
 17 18  2  0
 18 19  1  0
 19 20  1  0
 19  2  1  0
 18  5  1  0
 15  9  1  0
  1 21  1  0
  1 22  1  0
  1 23  1  0
 10 24  1  0
 11 25  1  0
 12 26  1  0
 15 27  1  0
 16 28  1  0
 17 29  1  0
 20 30  1  0
 20 31  1  0
 20 32  1  0
M  CHG  1  17   1
M  END
>  <UniqueID>  (37) 
34

>  <SMILES>  (37) 
Cn1c(=O)c2nc(Sc3cccc(Cl)c3)c[nH+]c2n1C

>  <Energy>  (37) 
77.20391020228504

>  <Genealogy>  (37) 
Cn1c(=O)c2nc(Sc3cccc(Cl)c3)c[nH+]c2n1C (protonated)
Cn1c(=O)c2nc(Sc3cccc(Cl)c3)c[nH+]c2n1C (3D coordinates assigned)
Cn1c(=O)c2nc(Sc3cccc(Cl)c3)c[nH+]c2n1C (optimized conformer: 77.20391020228504 kcal/mol)

>  <smiles>  (37) 
Cn1c(=O)c2nc(Sc3cccc(Cl)c3)cnc2n1C

>  <score_type>  (37) 
oracle

>  <origin>  (37) 
adg

>  <m_score__min__energy>  (37) 
-7.0499999999999998

>  <m_primary>  (37) 
energy

$$$$
37:0
     RDKit          3D

 56 59  0  0  0  0  0  0  0  0999 V2000
   -9.1120   18.5050  -31.6400 C   0  0  0  0  0  0  0  0  0  0  0  0
   -8.9040   20.0180  -31.6690 C   0  0  0  0  0  0  0  0  0  0  0  0
   -7.9330   20.4510  -32.7800 C   0  0  0  0  0  0  0  0  0  0  0  0
   -6.6010   20.7660  -32.2410 N   0  0  0  0  0  0  0  0  0  0  0  0
   -5.5270   19.8270  -32.4380 C   0  0  0  0  0  0  0  0  0  0  0  0
   -4.3530   20.1330  -32.0820 O   0  0  0  0  0  0  0  0  0  0  0  0
   -5.7910   18.4890  -33.0010 C   0  0  0  0  0  0  0  0  0  0  0  0
   -5.7910   18.1680  -34.3540 C   0  0  0  0  0  0  0  0  0  0  0  0
   -5.9860   16.8010  -34.5940 C   0  0  0  0  0  0  0  0  0  0  0  0
   -6.1420   16.0450  -33.4370 C   0  0  0  0  0  0  0  0  0  0  0  0
   -6.0130   17.0750  -32.1160 S   0  0  0  0  0  0  0  0  0  0  0  0
   -6.3500   22.0040  -31.5410 C   0  0  0  0  0  0  0  0  0  0  0  0
   -5.3490   22.1840  -30.6460 N   0  0  0  0  0  0  0  0  0  0  0  0
   -5.2990   23.4610  -30.1630 C   0  0  0  0  0  0  0  0  0  0  0  0
   -4.2520   23.9190  -29.2170 C   0  0  0  0  0  0  0  0  0  0  0  0
   -4.5560   24.1080  -27.8630 C   0  0  0  0  0  0  0  0  0  0  0  0
   -3.5840   24.5690  -26.9730 C   0  0  0  0  0  0  0  0  0  0  0  0
   -2.2710   24.8650  -27.4130 C   0  0  0  0  0  0  0  0  0  0  0  0
   -1.2660   25.3570  -26.4770 N   0  0  0  0  0  0  0  0  0  0  0  0
   -0.8450   24.4730  -25.3700 C   0  0  0  0  0  0  0  0  0  0  0  0
    0.4300   24.9500  -24.6630 C   0  0  0  0  0  0  0  0  0  0  0  0
    0.4140   26.3910  -24.3680 N   0  0  0  0  0  0  0  0  0  0  0  0
   -0.6030   26.7680  -23.3660 C   0  0  0  0  0  0  0  0  0  0  0  0
    0.2930   27.1500  -25.6190 C   0  0  0  0  0  0  0  0  0  0  0  0
   -0.9860   26.8070  -26.4190 C   0  0  0  0  0  0  0  0  0  0  0  0
   -1.9710   24.6630  -28.7800 C   0  0  0  0  0  0  0  0  0  0  0  0
   -2.9530   24.2120  -29.6680 C   0  0  0  0  0  0  0  0  0  0  0  0
   -6.2780   24.3110  -30.6840 C   0  0  0  0  0  0  0  0  0  0  0  0
   -7.2110   23.4340  -31.7690 S   0  0  0  0  0  0  0  0  0  0  0  0
   -9.1592   18.1613  -30.5961 H   0  0  0  0  0  0  0  0  0  0  0  0
  -10.0530   18.2544  -32.1515 H   0  0  0  0  0  0  0  0  0  0  0  0
   -8.2735   18.0097  -32.1515 H   0  0  0  0  0  0  0  0  0  0  0  0
   -9.8754   20.5057  -31.8379 H   0  0  0  0  0  0  0  0  0  0  0  0
   -8.4676   20.3168  -30.7045 H   0  0  0  0  0  0  0  0  0  0  0  0
   -7.8387   19.6339  -33.5104 H   0  0  0  0  0  0  0  0  0  0  0  0
   -8.3356   21.3576  -33.2554 H   0  0  0  0  0  0  0  0  0  0  0  0
   -5.6522   18.9105  -35.1536 H   0  0  0  0  0  0  0  0  0  0  0  0
   -6.0132   16.3662  -35.6041 H   0  0  0  0  0  0  0  0  0  0  0  0
   -6.3192   14.9602  -33.3943 H   0  0  0  0  0  0  0  0  0  0  0  0
   -4.6590   21.4430  -30.3930 H   0  0  0  0  0  0  0  0  0  0  0  0
   -5.5705   23.8911  -27.4972 H   0  0  0  0  0  0  0  0  0  0  0  0
   -3.8425   24.7045  -25.9124 H   0  0  0  0  0  0  0  0  0  0  0  0
   -1.6582   24.4282  -24.6306 H   0  0  0  0  0  0  0  0  0  0  0  0
   -0.6260   23.4871  -25.8060 H   0  0  0  0  0  0  0  0  0  0  0  0
    0.5342   24.3988  -23.7168 H   0  0  0  0  0  0  0  0  0  0  0  0
    1.2750   24.7605  -25.3412 H   0  0  0  0  0  0  0  0  0  0  0  0
   -0.1957   26.6170  -22.3554 H   0  0  0  0  0  0  0  0  0  0  0  0
   -0.8733   27.8261  -23.4981 H   0  0  0  0  0  0  0  0  0  0  0  0
   -1.4976   26.1418  -23.4981 H   0  0  0  0  0  0  0  0  0  0  0  0
    0.2766   28.2229  -25.3767 H   0  0  0  0  0  0  0  0  0  0  0  0
    1.1541   26.8816  -26.2487 H   0  0  0  0  0  0  0  0  0  0  0  0
   -1.8411   27.3093  -25.9431 H   0  0  0  0  0  0  0  0  0  0  0  0
   -0.8271   27.1505  -27.4518 H   0  0  0  0  0  0  0  0  0  0  0  0
   -0.9542   24.8627  -29.1491 H   0  0  0  0  0  0  0  0  0  0  0  0
   -2.7059   24.0850  -30.7323 H   0  0  0  0  0  0  0  0  0  0  0  0
   -6.4138   25.3720  -30.4273 H   0  0  0  0  0  0  0  0  0  0  0  0
  1  2  1  0
  2  3  1  0
  3  4  1  0
  4  5  1  0
  5  6  2  0
  5  7  1  0
  7  8  2  0
  8  9  1  0
  9 10  2  0
 10 11  1  0
  4 12  1  0
 12 13  2  0
 13 14  1  0
 14 15  1  0
 15 16  2  0
 16 17  1  0
 17 18  2  0
 18 19  1  0
 19 20  1  0
 20 21  1  0
 21 22  1  0
 22 23  1  0
 22 24  1  0
 24 25  1  0
 18 26  1  0
 26 27  2  0
 14 28  2  0
 28 29  1  0
 11  7  1  0
 29 12  1  0
 27 15  1  0
 25 19  1  0
  1 30  1  0
  1 31  1  0
  1 32  1  0
  2 33  1  0
  2 34  1  0
  3 35  1  0
  3 36  1  0
  8 37  1  0
  9 38  1  0
 10 39  1  0
 13 40  1  0
 16 41  1  0
 17 42  1  0
 20 43  1  0
 20 44  1  0
 21 45  1  0
 21 46  1  0
 23 47  1  0
 23 48  1  0
 23 49  1  0
 24 50  1  0
 24 51  1  0
 25 52  1  0
 25 53  1  0
 26 54  1  0
 27 55  1  0
 28 56  1  0
M  CHG  1  13   1
M  END
>  <UniqueID>  (38) 
35

>  <SMILES>  (38) 
CCCN(C(=O)c1cccs1)c1[nH+]c(-c2ccc(N3CCN(C)CC3)cc2)cs1

>  <Energy>  (38) 
129.6988688584237

>  <Genealogy>  (38) 
CCCN(C(=O)c1cccs1)c1[nH+]c(-c2ccc(N3CCN(C)CC3)cc2)cs1 (protonated)
CCCN(C(=O)c1cccs1)c1[nH+]c(-c2ccc(N3CCN(C)CC3)cc2)cs1 (3D coordinates assigned)
CCCN(C(=O)c1cccs1)c1[nH+]c(-c2ccc(N3CCN(C)CC3)cc2)cs1 (nonaromatic ring conformer: 129.6988688584237 kcal/mol)

>  <smiles>  (38) 
CCCN(C(=O)c1cccs1)c1nc(-c2ccc(N3CCN(C)CC3)cc2)cs1

>  <score_type>  (38) 
oracle

>  <origin>  (38) 
adg

>  <m_score__min__energy>  (38) 
-8.3200000000000003

>  <m_primary>  (38) 
energy

$$$$
38:0
     RDKit          3D

 45 46  0  0  0  0  0  0  0  0999 V2000
   -2.3580   22.0290  -31.2700 C   0  0  0  0  0  0  0  0  0  0  0  0
   -3.3890   22.9420  -31.6290 O   0  0  0  0  0  0  0  0  0  0  0  0
   -4.7600   22.6360  -31.6300 C   0  0  0  0  0  0  0  0  0  0  0  0
   -5.2630   21.5000  -32.2960 C   0  0  0  0  0  0  0  0  0  0  0  0
   -6.6310   21.2210  -32.2860 C   0  0  0  0  0  0  0  0  0  0  0  0
   -7.5140   22.0710  -31.6180 C   0  0  0  0  0  0  0  0  0  0  0  0
   -9.3860   21.6900  -31.6130 Br  0  0  0  0  0  0  0  0  0  0  0  0
   -7.0280   23.2000  -30.9550 C   0  0  0  0  0  0  0  0  0  0  0  0
   -5.6540   23.4880  -30.9500 C   0  0  0  0  0  0  0  0  0  0  0  0
   -5.0700   24.9380  -30.1270 S   0  0  0  0  0  0  0  0  0  0  0  0
   -3.8620   25.4720  -30.8450 O   0  0  0  0  0  0  0  0  0  0  0  0
   -6.1250   26.0070  -30.1470 O   0  0  0  0  0  0  0  0  0  0  0  0
   -4.6020   24.5300  -28.5060 N   0  0  0  0  0  0  0  0  0  0  0  0
   -3.5740   23.6010  -28.1420 C   0  0  0  0  0  0  0  0  0  0  0  0
   -3.8600   22.2340  -28.1930 C   0  0  0  0  0  0  0  0  0  0  0  0
   -2.8890   21.2930  -27.8450 C   0  0  0  0  0  0  0  0  0  0  0  0
   -1.6000   21.7060  -27.4600 C   0  0  0  0  0  0  0  0  0  0  0  0
   -0.6040   20.7800  -27.1060 O   0  0  0  0  0  0  0  0  0  0  0  0
   -0.6230   19.4000  -27.4520 C   0  0  0  0  0  0  0  0  0  0  0  0
   -1.2970   23.0820  -27.4390 C   0  0  0  0  0  0  0  0  0  0  0  0
    0.3230   23.6600  -27.0130 S   0  0  0  0  0  0  0  0  0  0  0  0
    1.3230   22.5710  -27.2910 O   0  0  0  0  0  0  0  0  0  0  0  0
    0.6830   24.8410  -27.8710 O   0  0  0  0  0  0  0  0  0  0  0  0
    0.4260   24.1090  -25.3270 N   0  0  0  0  0  0  0  0  0  0  0  0
   -0.3210   25.3500  -25.0910 C   0  0  0  0  0  0  0  0  0  0  0  0
   -0.1120   23.0270  -24.4920 C   0  0  0  0  0  0  0  0  0  0  0  0
   -2.2840   24.0180  -27.7850 C   0  0  0  0  0  0  0  0  0  0  0  0
   -2.2882   21.9672  -30.1740 H   0  0  0  0  0  0  0  0  0  0  0  0
   -2.5899   21.0347  -31.6793 H   0  0  0  0  0  0  0  0  0  0  0  0
   -1.3990   22.3794  -31.6793 H   0  0  0  0  0  0  0  0  0  0  0  0
   -4.5727   20.8284  -32.8275 H   0  0  0  0  0  0  0  0  0  0  0  0
   -7.0135   20.3300  -32.8053 H   0  0  0  0  0  0  0  0  0  0  0  0
   -7.7275   23.8690  -30.4324 H   0  0  0  0  0  0  0  0  0  0  0  0
   -4.8579   21.8967  -28.5098 H   0  0  0  0  0  0  0  0  0  0  0  0
   -3.1334   20.2208  -27.8720 H   0  0  0  0  0  0  0  0  0  0  0  0
   -0.6314   18.7922  -26.5352 H   0  0  0  0  0  0  0  0  0  0  0  0
   -1.5242   19.1828  -28.0441 H   0  0  0  0  0  0  0  0  0  0  0  0
    0.2719   19.1581  -28.0441 H   0  0  0  0  0  0  0  0  0  0  0  0
   -0.4216   25.5172  -24.0084 H   0  0  0  0  0  0  0  0  0  0  0  0
    0.2189   26.1947  -25.5438 H   0  0  0  0  0  0  0  0  0  0  0  0
   -1.3201   25.2683  -25.5438 H   0  0  0  0  0  0  0  0  0  0  0  0
    0.0162   23.2848  -23.4304 H   0  0  0  0  0  0  0  0  0  0  0  0
   -1.1818   22.8928  -24.7102 H   0  0  0  0  0  0  0  0  0  0  0  0
    0.4267   22.0931  -24.7102 H   0  0  0  0  0  0  0  0  0  0  0  0
   -2.0426   25.0911  -27.7760 H   0  0  0  0  0  0  0  0  0  0  0  0
  1  2  1  0
  2  3  1  0
  3  4  2  0
  4  5  1  0
  5  6  2  0
  6  7  1  0
  6  8  1  0
  8  9  2  0
  9 10  1  0
 10 11  2  0
 10 12  2  0
 10 13  1  0
 13 14  1  0
 14 15  2  0
 15 16  1  0
 16 17  2  0
 17 18  1  0
 18 19  1  0
 17 20  1  0
 20 21  1  0
 21 22  2  0
 21 23  2  0
 21 24  1  0
 24 25  1  0
 24 26  1  0
 20 27  2  0
  9  3  1  0
 27 14  1  0
  1 28  1  0
  1 29  1  0
  1 30  1  0
  4 31  1  0
  5 32  1  0
  8 33  1  0
 15 34  1  0
 16 35  1  0
 19 36  1  0
 19 37  1  0
 19 38  1  0
 25 39  1  0
 25 40  1  0
 25 41  1  0
 26 42  1  0
 26 43  1  0
 26 44  1  0
 27 45  1  0
M  CHG  1  13  -1
M  END
>  <UniqueID>  (39) 
36

>  <SMILES>  (39) 
COc1ccc(Br)cc1S(=O)(=O)[N-]c1ccc(OC)c(S(=O)(=O)N(C)C)c1

>  <Energy>  (39) 
48.05721129523459

>  <Genealogy>  (39) 
COc1ccc(Br)cc1S(=O)(=O)[N-]c1ccc(OC)c(S(=O)(=O)N(C)C)c1 (protonated)
COc1ccc(Br)cc1S(=O)(=O)[N-]c1ccc(OC)c(S(=O)(=O)N(C)C)c1 (3D coordinates assigned)
COc1ccc(Br)cc1S(=O)(=O)[N-]c1ccc(OC)c(S(=O)(=O)N(C)C)c1 (optimized conformer: 48.05721129523459 kcal/mol)

>  <smiles>  (39) 
COc1ccc(Br)cc1S(=O)(=O)Nc1ccc(OC)c(S(=O)(=O)N(C)C)c1

>  <score_type>  (39) 
oracle

>  <origin>  (39) 
adg

>  <m_score__min__energy>  (39) 
-9.9199999999999999

>  <m_primary>  (39) 
energy

$$$$
39:0
     RDKit          3D

 41 44  0  0  0  0  0  0  0  0999 V2000
   -8.7310   18.5180  -32.3710 C   0  0  0  0  0  0  0  0  0  0  0  0
   -8.4140   19.9570  -32.0980 C   0  0  0  0  0  0  0  0  0  0  0  0
   -9.4570   20.8670  -31.7780 C   0  0  0  0  0  0  0  0  0  0  0  0
   -9.1770   22.2270  -31.5470 C   0  0  0  0  0  0  0  0  0  0  0  0
   -7.8550   22.6420  -31.6600 C   0  0  0  0  0  0  0  0  0  0  0  0
   -7.3550   23.8420  -31.4790 O   0  0  0  0  0  0  0  0  0  0  0  0
   -6.0550   23.7210  -31.6910 C   0  0  0  0  0  0  0  0  0  0  0  0
   -5.2470   24.6810  -31.5900 O   0  0  0  0  0  0  0  0  0  0  0  0
   -5.6870   22.4560  -32.0210 N   0  0  0  0  0  0  0  0  0  0  0  0
   -4.3400   21.9380  -32.2610 C   0  0  0  0  0  0  0  0  0  0  0  0
   -3.4750   22.1850  -31.0630 C   0  0  0  0  0  0  0  0  0  0  0  0
   -3.0700   21.2080  -30.3780 O   0  0  0  0  0  0  0  0  0  0  0  0
   -3.0860   23.5240  -30.7250 N   0  0  0  0  0  0  0  0  0  0  0  0
   -2.5840   23.9130  -29.4360 C   0  0  0  0  0  0  0  0  0  0  0  0
   -3.4490   24.1090  -28.3420 C   0  0  0  0  0  0  0  0  0  0  0  0
   -2.9410   24.5080  -27.1010 C   0  0  0  0  0  0  0  0  0  0  0  0
   -1.5700   24.7250  -26.9470 C   0  0  0  0  0  0  0  0  0  0  0  0
   -0.7090   24.5800  -28.0430 C   0  0  0  0  0  0  0  0  0  0  0  0
   -1.2130   24.1690  -29.2800 C   0  0  0  0  0  0  0  0  0  0  0  0
    0.6520   24.8540  -27.8780 O   0  0  0  0  0  0  0  0  0  0  0  0
    1.1340   25.5320  -26.7140 C   0  0  0  0  0  0  0  0  0  0  0  0
    0.3720   25.0560  -25.4700 C   0  0  0  0  0  0  0  0  0  0  0  0
   -1.0370   25.0940  -25.7070 O   0  0  0  0  0  0  0  0  0  0  0  0
   -6.8480   21.7780  -31.9890 C   0  0  0  0  0  0  0  0  0  0  0  0
   -7.0860   20.4230  -32.2190 C   0  0  0  0  0  0  0  0  0  0  0  0
   -8.8492   17.9814  -31.4181 H   0  0  0  0  0  0  0  0  0  0  0  0
   -9.6654   18.4514  -32.9477 H   0  0  0  0  0  0  0  0  0  0  0  0
   -7.9111   18.0649  -32.9477 H   0  0  0  0  0  0  0  0  0  0  0  0
  -10.4936   20.5052  -31.7101 H   0  0  0  0  0  0  0  0  0  0  0  0
   -9.9761   22.9365  -31.2862 H   0  0  0  0  0  0  0  0  0  0  0  0
   -4.3947   20.8565  -32.4541 H   0  0  0  0  0  0  0  0  0  0  0  0
   -3.9058   22.4509  -33.1318 H   0  0  0  0  0  0  0  0  0  0  0  0
   -3.1340   24.2500  -31.4780 H   0  0  0  0  0  0  0  0  0  0  0  0
   -4.5302   23.9474  -28.4640 H   0  0  0  0  0  0  0  0  0  0  0  0
   -3.6205   24.6506  -26.2478 H   0  0  0  0  0  0  0  0  0  0  0  0
   -0.5321   24.0456  -30.1351 H   0  0  0  0  0  0  0  0  0  0  0  0
    2.2057   25.3192  -26.5872 H   0  0  0  0  0  0  0  0  0  0  0  0
    0.9782   26.6138  -26.8383 H   0  0  0  0  0  0  0  0  0  0  0  0
    0.6725   24.0247  -25.2329 H   0  0  0  0  0  0  0  0  0  0  0  0
    0.6113   25.7213  -24.6273 H   0  0  0  0  0  0  0  0  0  0  0  0
   -6.2664   19.7396  -32.4859 H   0  0  0  0  0  0  0  0  0  0  0  0
  1  2  1  0
  2  3  2  0
  3  4  1  0
  4  5  2  0
  5  6  1  0
  6  7  1  0
  7  8  2  0
  7  9  1  0
  9 10  1  0
 10 11  1  0
 11 12  2  0
 11 13  1  0
 13 14  1  0
 14 15  2  0
 15 16  1  0
 16 17  2  0
 17 18  1  0
 18 19  2  0
 18 20  1  0
 20 21  1  0
 21 22  1  0
 22 23  1  0
  9 24  1  0
 24 25  2  0
 25  2  1  0
 24  5  1  0
 19 14  1  0
 23 17  1  0
  1 26  1  0
  1 27  1  0
  1 28  1  0
  3 29  1  0
  4 30  1  0
 10 31  1  0
 10 32  1  0
 13 33  1  0
 15 34  1  0
 16 35  1  0
 19 36  1  0
 21 37  1  0
 21 38  1  0
 22 39  1  0
 22 40  1  0
 25 41  1  0
M  END
>  <UniqueID>  (40) 
37

>  <SMILES>  (40) 
Cc1ccc2oc(=O)n(CC(=O)Nc3ccc4c(c3)OCCO4)c2c1

>  <Energy>  (40) 
87.1797223475728

>  <Genealogy>  (40) 
Cc1ccc2oc(=O)n(CC(=O)Nc3ccc4c(c3)OCCO4)c2c1 (3D coordinates assigned)
Cc1ccc2oc(=O)n(CC(=O)Nc3ccc4c(c3)OCCO4)c2c1 (nonaromatic ring conformer: 87.1797223475728 kcal/mol)

>  <smiles>  (40) 
Cc1ccc2oc(=O)n(CC(=O)Nc3ccc4c(c3)OCCO4)c2c1

>  <score_type>  (40) 
oracle

>  <origin>  (40) 
adg

>  <m_score__min__energy>  (40) 
-8.6899999999999995

>  <m_primary>  (40) 
energy

$$$$
41:0
     RDKit          3D

 58 61  0  0  0  0  0  0  0  0999 V2000
   -4.2170   22.8730  -27.6810 O   0  0  0  0  0  0  0  0  0  0  0  0
   -3.8980   24.0130  -28.1120 C   0  0  0  0  0  0  0  0  0  0  0  0
   -2.8510   24.8040  -27.3800 C   0  0  0  0  0  0  0  0  0  0  0  0
   -1.7410   25.2570  -28.2470 N   0  0  0  0  0  0  0  0  0  0  0  0
   -1.1780   24.2310  -29.1510 C   0  0  0  0  0  0  0  0  0  0  0  0
    0.0970   23.5840  -28.5860 C   0  0  0  0  0  0  0  0  0  0  0  0
    1.0330   24.5670  -28.2010 O   0  0  0  0  0  0  0  0  0  0  0  0
    0.4990   25.3200  -27.1330 C   0  0  0  0  0  0  0  0  0  0  0  0
   -0.7320   26.1140  -27.5920 C   0  0  0  0  0  0  0  0  0  0  0  0
   -4.5470   24.5710  -29.2670 N   0  0  0  0  0  0  0  0  0  0  0  0
   -5.6580   23.9470  -29.9340 C   0  0  0  0  0  0  0  0  0  0  0  0
   -6.3450   22.8660  -29.3570 C   0  0  0  0  0  0  0  0  0  0  0  0
   -7.4390   22.2940  -30.0130 C   0  0  0  0  0  0  0  0  0  0  0  0
   -7.8340   22.7730  -31.2670 C   0  0  0  0  0  0  0  0  0  0  0  0
   -9.2240   22.0270  -32.1170 S   0  0  0  0  0  0  0  0  0  0  0  0
   -8.3710   20.4720  -32.3680 C   0  0  0  0  0  0  0  0  0  0  0  0
   -7.2120   20.4150  -33.1490 C   0  0  0  0  0  0  0  0  0  0  0  0
   -6.5760   19.1820  -33.3540 C   0  0  0  0  0  0  0  0  0  0  0  0
   -5.3800   19.1200  -34.2180 C   0  0  0  0  0  0  0  0  0  0  0  0
   -5.4410   18.4860  -35.3060 O   0  0  0  0  0  0  0  0  0  0  0  0
   -4.1440   19.7460  -33.8510 N   0  0  0  0  0  0  0  0  0  0  0  0
   -4.0260   21.0850  -33.2810 C   0  0  0  0  0  0  0  0  0  0  0  0
   -3.2240   21.0280  -32.0120 C   0  0  0  0  0  0  0  0  0  0  0  0
   -3.8650   20.9070  -30.7680 C   0  0  0  0  0  0  0  0  0  0  0  0
   -3.1120   20.9000  -29.5910 C   0  0  0  0  0  0  0  0  0  0  0  0
   -1.7210   21.0110  -29.6450 C   0  0  0  0  0  0  0  0  0  0  0  0
   -1.0770   21.1390  -30.8790 C   0  0  0  0  0  0  0  0  0  0  0  0
    0.2740   21.2540  -30.9290 F   0  0  0  0  0  0  0  0  0  0  0  0
   -1.8250   21.1540  -32.0590 C   0  0  0  0  0  0  0  0  0  0  0  0
   -7.1330   18.0190  -32.7860 C   0  0  0  0  0  0  0  0  0  0  0  0
   -6.4720   16.4160  -33.0940 Cl  0  0  0  0  0  0  0  0  0  0  0  0
   -8.2860   18.1280  -32.0030 C   0  0  0  0  0  0  0  0  0  0  0  0
   -8.8760   19.3380  -31.8180 N   0  0  0  0  0  0  0  0  0  0  0  0
   -7.1240   23.8180  -31.8690 C   0  0  0  0  0  0  0  0  0  0  0  0
   -6.0420   24.4020  -31.2050 C   0  0  0  0  0  0  0  0  0  0  0  0
   -3.3301   25.6893  -26.9365 H   0  0  0  0  0  0  0  0  0  0  0  0
   -2.4167   24.1396  -26.6185 H   0  0  0  0  0  0  0  0  0  0  0  0
   -1.9326   23.4460  -29.3069 H   0  0  0  0  0  0  0  0  0  0  0  0
   -0.9103   24.7281  -30.0951 H   0  0  0  0  0  0  0  0  0  0  0  0
   -0.1667   22.9748  -27.7089 H   0  0  0  0  0  0  0  0  0  0  0  0
    0.5486   22.9564  -29.3684 H   0  0  0  0  0  0  0  0  0  0  0  0
    0.2068   24.6381  -26.3209 H   0  0  0  0  0  0  0  0  0  0  0  0
    1.2648   26.0267  -26.7805 H   0  0  0  0  0  0  0  0  0  0  0  0
   -1.1910   26.5931  -26.7146 H   0  0  0  0  0  0  0  0  0  0  0  0
   -0.3958   26.8595  -28.3276 H   0  0  0  0  0  0  0  0  0  0  0  0
   -4.3260   25.5610  -29.5190 H   0  0  0  0  0  0  0  0  0  0  0  0
   -6.0206   22.4677  -28.3843 H   0  0  0  0  0  0  0  0  0  0  0  0
   -7.9901   21.4662  -29.5427 H   0  0  0  0  0  0  0  0  0  0  0  0
   -6.8022   21.3311  -33.5994 H   0  0  0  0  0  0  0  0  0  0  0  0
   -3.5226   21.7459  -34.0020 H   0  0  0  0  0  0  0  0  0  0  0  0
   -5.0301   21.4756  -33.0593 H   0  0  0  0  0  0  0  0  0  0  0  0
   -4.9603   20.8177  -30.7204 H   0  0  0  0  0  0  0  0  0  0  0  0
   -3.6168   20.8067  -28.6181 H   0  0  0  0  0  0  0  0  0  0  0  0
   -1.1319   20.9977  -28.7161 H   0  0  0  0  0  0  0  0  0  0  0  0
   -1.3171   21.2648  -33.0284 H   0  0  0  0  0  0  0  0  0  0  0  0
   -8.7173   17.2308  -31.5349 H   0  0  0  0  0  0  0  0  0  0  0  0
   -7.4178   24.1798  -32.8654 H   0  0  0  0  0  0  0  0  0  0  0  0
   -5.4875   25.2238  -31.6816 H   0  0  0  0  0  0  0  0  0  0  0  0
  1  2  2  0
  2  3  1  0
  3  4  1  0
  4  5  1  0
  5  6  1  0
  6  7  1  0
  7  8  1  0
  8  9  1  0
  2 10  1  0
 10 11  1  0
 11 12  2  0
 12 13  1  0
 13 14  2  0
 14 15  1  0
 15 16  1  0
 16 17  2  0
 17 18  1  0
 18 19  1  0
 19 20  2  0
 19 21  1  0
 21 22  1  0
 22 23  1  0
 23 24  2  0
 24 25  1  0
 25 26  2  0
 26 27  1  0
 27 28  1  0
 27 29  2  0
 18 30  2  0
 30 31  1  0
 30 32  1  0
 32 33  2  0
 14 34  1  0
 34 35  2  0
  9  4  1  0
 35 11  1  0
 33 16  1  0
 29 23  1  0
  3 36  1  0
  3 37  1  0
  5 38  1  0
  5 39  1  0
  6 40  1  0
  6 41  1  0
  8 42  1  0
  8 43  1  0
  9 44  1  0
  9 45  1  0
 10 46  1  0
 12 47  1  0
 13 48  1  0
 17 49  1  0
 22 50  1  0
 22 51  1  0
 24 52  1  0
 25 53  1  0
 26 54  1  0
 29 55  1  0
 32 56  1  0
 34 57  1  0
 35 58  1  0
M  CHG  1  21  -1
M  END
>  <UniqueID>  (41) 
38

>  <SMILES>  (41) 
O=C(CN1CCOCC1)Nc1ccc(Sc2cc(C(=O)[N-]Cc3cccc(F)c3)c(Cl)cn2)cc1

>  <Energy>  (41) 
71.93969925450159

>  <Genealogy>  (41) 
O=C(CN1CCOCC1)Nc1ccc(Sc2cc(C(=O)[N-]Cc3cccc(F)c3)c(Cl)cn2)cc1 (protonated)
O=C(CN1CCOCC1)Nc1ccc(Sc2cc(C(=O)[N-]Cc3cccc(F)c3)c(Cl)cn2)cc1 (3D coordinates assigned)
O=C(CN1CCOCC1)Nc1ccc(Sc2cc(C(=O)[N-]Cc3cccc(F)c3)c(Cl)cn2)cc1 (nonaromatic ring conformer: 71.93969925450159 kcal/mol)

>  <smiles>  (41) 
O=C(CN1CCOCC1)Nc1ccc(Sc2cc(C(=O)NCc3cccc(F)c3)c(Cl)cn2)cc1

>  <score_type>  (41) 
oracle

>  <origin>  (41) 
adg

>  <m_score__min__energy>  (41) 
-11.01

>  <m_primary>  (41) 
energy

$$$$
42:0
     RDKit          3D

 47 51  0  0  0  0  0  0  0  0999 V2000
   -5.3420   21.5570  -32.7620 C   0  0  0  0  0  0  0  0  0  0  0  0
   -4.4220   22.6790  -32.2500 C   0  0  1  0  0  0  0  0  0  0  0  0
   -5.2830   23.7680  -31.5500 C   0  0  0  0  0  0  0  0  0  0  0  0
   -4.4580   24.7490  -30.8380 N   0  0  0  0  0  0  0  0  0  0  0  0
   -3.3350   24.3270  -30.0620 C   0  0  0  0  0  0  0  0  0  0  0  0
   -2.7560   25.1380  -29.2910 O   0  0  0  0  0  0  0  0  0  0  0  0
   -2.8410   22.9570  -30.2640 C   0  0  0  0  0  0  0  0  0  0  0  0
   -3.3430   22.1780  -31.2980 C   0  0  0  0  0  0  0  0  0  0  0  0
   -2.5040   21.0690  -31.3530 C   0  0  0  0  0  0  0  0  0  0  0  0
   -2.4390   19.9850  -32.2370 C   0  0  0  0  0  0  0  0  0  0  0  0
   -1.4460   19.0120  -32.0250 C   0  0  0  0  0  0  0  0  0  0  0  0
   -0.5410   19.1320  -30.9530 C   0  0  0  0  0  0  0  0  0  0  0  0
   -0.6020   20.2390  -30.0940 C   0  0  0  0  0  0  0  0  0  0  0  0
   -1.5890   21.2040  -30.3270 C   0  0  0  0  0  0  0  0  0  0  0  0
   -1.7870   22.3600  -29.6530 N   0  0  0  0  0  0  0  0  0  0  0  0
   -1.0030   22.8740  -28.5620 C   0  0  0  0  0  0  0  0  0  0  0  0
   -1.2570   22.4500  -27.2480 C   0  0  0  0  0  0  0  0  0  0  0  0
   -0.4800   22.9370  -26.1920 C   0  0  0  0  0  0  0  0  0  0  0  0
    0.5760   23.8210  -26.4360 C   0  0  0  0  0  0  0  0  0  0  0  0
    1.3530   24.2700  -25.3600 O   0  0  0  0  0  0  0  0  0  0  0  0
    1.0360   25.3750  -24.5500 C   0  0  0  0  0  0  0  0  0  0  0  0
    2.0630   26.2320  -24.1420 C   0  0  0  0  0  0  0  0  0  0  0  0
    1.7630   27.3590  -23.3690 C   0  0  0  0  0  0  0  0  0  0  0  0
    0.4750   27.6250  -23.0160 N   0  0  0  0  0  0  0  0  0  0  0  0
   -0.5460   26.8120  -23.4040 C   0  0  0  0  0  0  0  0  0  0  0  0
   -0.2860   25.6720  -24.1750 C   0  0  0  0  0  0  0  0  0  0  0  0
    0.8170   24.2620  -27.7480 C   0  0  0  0  0  0  0  0  0  0  0  0
    0.0280   23.7930  -28.8030 C   0  0  0  0  0  0  0  0  0  0  0  0
   -5.7801   21.0228  -31.9060 H   0  0  0  0  0  0  0  0  0  0  0  0
   -6.1464   21.9925  -33.3730 H   0  0  0  0  0  0  0  0  0  0  0  0
   -4.7573   20.8536  -33.3730 H   0  0  0  0  0  0  0  0  0  0  0  0
   -3.9006   23.0994  -33.1226 H   0  0  0  0  0  0  0  0  0  0  0  0
   -5.8798   24.2920  -32.3111 H   0  0  0  0  0  0  0  0  0  0  0  0
   -5.9278   23.2681  -30.8123 H   0  0  0  0  0  0  0  0  0  0  0  0
   -3.1460   19.8968  -33.0751 H   0  0  0  0  0  0  0  0  0  0  0  0
   -1.3756   18.1488  -32.7032 H   0  0  0  0  0  0  0  0  0  0  0  0
    0.2181   18.3531  -30.7883 H   0  0  0  0  0  0  0  0  0  0  0  0
    0.1067   20.3461  -29.2596 H   0  0  0  0  0  0  0  0  0  0  0  0
   -2.0680   21.7340  -27.0488 H   0  0  0  0  0  0  0  0  0  0  0  0
   -0.7012   22.6223  -25.1614 H   0  0  0  0  0  0  0  0  0  0  0  0
    3.1039   26.0206  -24.4280 H   0  0  0  0  0  0  0  0  0  0  0  0
    2.5703   28.0324  -23.0453 H   0  0  0  0  0  0  0  0  0  0  0  0
    0.2650   28.4750  -22.4430 H   0  0  0  0  0  0  0  0  0  0  0  0
   -1.5788   27.0514  -23.1108 H   0  0  0  0  0  0  0  0  0  0  0  0
   -1.1107   25.0134  -24.4851 H   0  0  0  0  0  0  0  0  0  0  0  0
    1.6283   24.9780  -27.9458 H   0  0  0  0  0  0  0  0  0  0  0  0
    0.2172   24.1469  -29.8272 H   0  0  0  0  0  0  0  0  0  0  0  0
  1  2  1  0
  2  3  1  0
  3  4  1  0
  4  5  1  0
  5  6  2  0
  5  7  1  0
  7  8  2  0
  8  9  1  0
  9 10  2  0
 10 11  1  0
 11 12  2  0
 12 13  1  0
 13 14  2  0
 14 15  1  0
 15 16  1  0
 16 17  2  0
 17 18  1  0
 18 19  2  0
 19 20  1  0
 20 21  1  0
 21 22  2  0
 22 23  1  0
 23 24  2  0
 24 25  1  0
 25 26  2  0
 19 27  1  0
 27 28  2  0
  8  2  1  0
 14  9  1  0
 28 16  1  0
 15  7  1  0
 26 21  1  0
  1 29  1  0
  1 30  1  0
  1 31  1  0
  2 32  1  6
  3 33  1  0
  3 34  1  0
 10 35  1  0
 11 36  1  0
 12 37  1  0
 13 38  1  0
 17 39  1  0
 18 40  1  0
 22 41  1  0
 23 42  1  0
 24 43  1  0
 25 44  1  0
 26 45  1  0
 27 46  1  0
 28 47  1  0
M  CHG  2   4  -1  24   1
M  END
>  <UniqueID>  (42) 
39

>  <SMILES>  (42) 
C[C@H]1C[N-]C(=O)c2c1c1ccccc1n2-c1ccc(Oc2cc[nH+]cc2)cc1

>  <Energy>  (42) 
106.18773837610341

>  <Genealogy>  (42) 
CC1C[N-]C(=O)c2c1c1ccccc1n2-c1ccc(Oc2cc[nH+]cc2)cc1 (protonated)
C[C@H]1C[N-]C(=O)c2c1c1ccccc1n2-c1ccc(Oc2cc[nH+]cc2)cc1 (chirality)
C[C@H]1C[N-]C(=O)c2c1c1ccccc1n2-c1ccc(Oc2cc[nH+]cc2)cc1 (3D coordinates assigned)
C[C@H]1C[N-]C(=O)c2c1c1ccccc1n2-c1ccc(Oc2cc[nH+]cc2)cc1 (nonaromatic ring conformer: 106.18773837610341 kcal/mol)

>  <smiles>  (42) 
CC1CNC(=O)c2c1c1ccccc1n2-c1ccc(Oc2ccncc2)cc1

>  <score_type>  (42) 
oracle

>  <origin>  (42) 
adg

>  <m_score__min__energy>  (42) 
-9.5700000000000003

>  <m_primary>  (42) 
energy

$$$$
43:0
     RDKit          3D

 43 45  0  0  0  0  0  0  0  0999 V2000
    0.5690   21.4910  -35.7550 C   0  0  0  0  0  0  0  0  0  0  0  0
   -0.0120   21.9010  -34.5360 O   0  0  0  0  0  0  0  0  0  0  0  0
   -0.6490   20.8060  -33.9060 C   0  0  0  0  0  0  0  0  0  0  0  0
   -1.1730   21.1990  -32.5580 C   0  0  0  0  0  0  0  0  0  0  0  0
   -2.3350   21.9360  -32.3280 C   0  0  0  0  0  0  0  0  0  0  0  0
   -2.2870   22.1540  -30.9680 C   0  0  0  0  0  0  0  0  0  0  0  0
   -1.1980   21.6180  -30.4650 N   0  0  0  0  0  0  0  0  0  0  0  0
   -0.4540   21.0800  -31.4160 N   0  0  0  0  0  0  0  0  0  0  0  0
   -0.7760   22.3040  -29.2600 C   0  0  0  0  0  0  0  0  0  0  0  0
   -1.8890   23.3750  -29.0520 C   0  0  0  0  0  0  0  0  0  0  0  0
   -2.7890   23.2320  -30.2060 N   0  0  0  0  0  0  0  0  0  0  0  0
   -3.9550   24.0210  -30.4870 C   0  0  0  0  0  0  0  0  0  0  0  0
   -3.8750   25.2790  -30.4750 O   0  0  0  0  0  0  0  0  0  0  0  0
   -5.2080   23.3870  -30.7850 N   0  0  0  0  0  0  0  0  0  0  0  0
   -6.4120   24.1450  -31.1200 C   0  0  0  0  0  0  0  0  0  0  0  0
   -7.3390   23.3130  -32.0110 C   0  0  0  0  0  0  0  0  0  0  0  0
   -6.6930   22.1070  -32.4210 O   0  0  0  0  0  0  0  0  0  0  0  0
   -7.2390   20.8160  -32.3290 C   0  0  0  0  0  0  0  0  0  0  0  0
   -8.5900   20.5780  -32.0010 C   0  0  0  0  0  0  0  0  0  0  0  0
   -9.0740   19.2690  -31.9230 C   0  0  0  0  0  0  0  0  0  0  0  0
   -8.2230   18.1890  -32.1670 C   0  0  0  0  0  0  0  0  0  0  0  0
   -6.8830   18.4160  -32.4880 C   0  0  0  0  0  0  0  0  0  0  0  0
   -6.3940   19.7240  -32.5680 C   0  0  0  0  0  0  0  0  0  0  0  0
    1.4519   20.8680  -35.5491 H   0  0  0  0  0  0  0  0  0  0  0  0
   -0.1639   20.9089  -36.3330 H   0  0  0  0  0  0  0  0  0  0  0  0
    0.8718   22.3766  -36.3330 H   0  0  0  0  0  0  0  0  0  0  0  0
   -1.4862   20.4661  -34.5333 H   0  0  0  0  0  0  0  0  0  0  0  0
    0.0855   19.9974  -33.7768 H   0  0  0  0  0  0  0  0  0  0  0  0
   -3.0979   22.2614  -33.0506 H   0  0  0  0  0  0  0  0  0  0  0  0
   -0.7309   21.6111  -28.4068 H   0  0  0  0  0  0  0  0  0  0  0  0
    0.2313   22.7386  -29.3411 H   0  0  0  0  0  0  0  0  0  0  0  0
   -2.4328   23.1878  -28.1143 H   0  0  0  0  0  0  0  0  0  0  0  0
   -1.4717   24.3904  -28.9820 H   0  0  0  0  0  0  0  0  0  0  0  0
   -5.2890   22.3490  -30.7160 H   0  0  0  0  0  0  0  0  0  0  0  0
   -6.9424   24.4101  -30.1935 H   0  0  0  0  0  0  0  0  0  0  0  0
   -6.1194   25.0557  -31.6632 H   0  0  0  0  0  0  0  0  0  0  0  0
   -8.2507   23.0618  -31.4492 H   0  0  0  0  0  0  0  0  0  0  0  0
   -7.5930   23.9010  -32.9053 H   0  0  0  0  0  0  0  0  0  0  0  0
   -9.2645   21.4248  -31.8061 H   0  0  0  0  0  0  0  0  0  0  0  0
  -10.1289   19.0890  -31.6685 H   0  0  0  0  0  0  0  0  0  0  0  0
   -8.6079   17.1603  -32.1064 H   0  0  0  0  0  0  0  0  0  0  0  0
   -6.2116   17.5656  -32.6780 H   0  0  0  0  0  0  0  0  0  0  0  0
   -5.3374   19.8969  -32.8206 H   0  0  0  0  0  0  0  0  0  0  0  0
  1  2  1  0
  2  3  1  0
  3  4  1  0
  4  5  1  0
  5  6  2  0
  6  7  1  0
  7  8  1  0
  7  9  1  0
  9 10  1  0
 10 11  1  0
 11 12  1  0
 12 13  2  0
 12 14  1  0
 14 15  1  0
 15 16  1  0
 16 17  1  0
 17 18  1  0
 18 19  2  0
 19 20  1  0
 20 21  2  0
 21 22  1  0
 22 23  2  0
  8  4  2  0
 23 18  1  0
 11  6  1  0
  1 24  1  0
  1 25  1  0
  1 26  1  0
  3 27  1  0
  3 28  1  0
  5 29  1  0
  9 30  1  0
  9 31  1  0
 10 32  1  0
 10 33  1  0
 14 34  1  0
 15 35  1  0
 15 36  1  0
 16 37  1  0
 16 38  1  0
 19 39  1  0
 20 40  1  0
 21 41  1  0
 22 42  1  0
 23 43  1  0
M  END
>  <UniqueID>  (43) 
40

>  <SMILES>  (43) 
COCc1cc2n(n1)CCN2C(=O)NCCOc1ccccc1

>  <Energy>  (43) 
102.60739788194196

>  <Genealogy>  (43) 
COCc1cc2n(n1)CCN2C(=O)NCCOc1ccccc1 (3D coordinates assigned)
COCc1cc2n(n1)CCN2C(=O)NCCOc1ccccc1 (nonaromatic ring conformer: 102.60739788194196 kcal/mol)

>  <smiles>  (43) 
COCc1cc2n(n1)CCN2C(=O)NCCOc1ccccc1

>  <score_type>  (43) 
oracle

>  <origin>  (43) 
adg

>  <m_score__min__energy>  (43) 
-7.2699999999999996

>  <m_primary>  (43) 
energy

$$$$
44:0
     RDKit          3D

 60 63  0  0  0  0  0  0  0  0999 V2000
   -3.9643   21.7835  -28.3679 H   0  0  0  0  0  0  0  0  0  0  0  0
   -3.2670   22.0990  -29.1580 C   0  0  0  0  0  0  0  0  0  0  0  0
   -3.4250   23.3290  -29.6840 C   0  0  0  0  0  0  0  0  0  0  0  0
   -2.5680   24.4270  -29.2940 C   0  0  0  0  0  0  0  0  0  0  0  0
   -1.8810   25.3050  -28.9830 N   0  0  0  0  0  0  0  0  0  0  0  0
   -4.4670   23.5920  -30.7010 C   0  0  0  0  0  0  0  0  0  0  0  0
   -4.6740   24.7800  -31.0730 O   0  0  0  0  0  0  0  0  0  0  0  0
   -5.2160   22.5190  -31.2940 N   0  0  0  0  0  0  0  0  0  0  0  0
   -4.8980   21.5360  -31.1330 H   0  0  0  0  0  0  0  0  0  0  0  0
   -6.3590   22.7630  -32.1820 C   0  0  0  0  0  0  0  0  0  0  0  0
   -6.0518   23.4136  -33.0141 H   0  0  0  0  0  0  0  0  0  0  0  0
   -7.4760   23.4980  -31.3960 C   0  0  0  0  0  0  0  0  0  0  0  0
   -7.4423   23.1751  -30.3450 H   0  0  0  0  0  0  0  0  0  0  0  0
   -7.2992   24.5800  -31.4851 H   0  0  0  0  0  0  0  0  0  0  0  0
   -8.8680   23.1970  -31.9620 C   0  0  0  0  0  0  0  0  0  0  0  0
   -9.6172   23.7546  -31.3808 H   0  0  0  0  0  0  0  0  0  0  0  0
   -8.8815   23.5020  -33.0188 H   0  0  0  0  0  0  0  0  0  0  0  0
   -9.2000   21.6920  -31.8920 C   0  0  0  0  0  0  0  0  0  0  0  0
   -9.7042   21.4908  -30.9353 H   0  0  0  0  0  0  0  0  0  0  0  0
   -9.8391   21.4610  -32.7570 H   0  0  0  0  0  0  0  0  0  0  0  0
   -7.9580   20.7830  -31.9900 C   0  0  0  0  0  0  0  0  0  0  0  0
   -7.5764   20.5880  -30.9769 H   0  0  0  0  0  0  0  0  0  0  0  0
   -8.2534   19.8451  -32.4830 H   0  0  0  0  0  0  0  0  0  0  0  0
   -6.8500   21.4380  -32.8230 C   0  0  0  0  0  0  0  0  0  0  0  0
   -6.0014   20.7421  -32.8980 H   0  0  0  0  0  0  0  0  0  0  0  0
   -7.2590   21.6686  -33.8178 H   0  0  0  0  0  0  0  0  0  0  0  0
   -2.2130   21.1430  -29.5760 C   0  0  0  0  0  0  0  0  0  0  0  0
   -2.2830   20.4650  -30.8020 C   0  0  0  0  0  0  0  0  0  0  0  0
   -3.3770   20.6680  -31.6550 O   0  0  0  0  0  0  0  0  0  0  0  0
   -4.0140   19.6700  -32.4060 C   0  0  0  0  0  0  0  0  0  0  0  0
   -3.6000   19.3340  -33.7070 C   0  0  0  0  0  0  0  0  0  0  0  0
   -2.7512   19.8629  -34.1651 H   0  0  0  0  0  0  0  0  0  0  0  0
   -4.2620   18.3310  -34.4210 C   0  0  0  0  0  0  0  0  0  0  0  0
   -3.9264   18.0682  -35.4351 H   0  0  0  0  0  0  0  0  0  0  0  0
   -5.3560   17.6560  -33.8480 C   0  0  0  0  0  0  0  0  0  0  0  0
   -6.0450   16.6330  -34.5160 O   0  0  0  0  0  0  0  0  0  0  0  0
   -6.1330   15.2880  -34.0540 C   0  0  0  0  0  0  0  0  0  0  0  0
   -6.1337   15.2774  -32.9541 H   0  0  0  0  0  0  0  0  0  0  0  0
   -7.0629   14.8327  -34.4256 H   0  0  0  0  0  0  0  0  0  0  0  0
   -5.2704   14.7155  -34.4256 H   0  0  0  0  0  0  0  0  0  0  0  0
   -5.7810   18.0140  -32.5640 C   0  0  0  0  0  0  0  0  0  0  0  0
   -6.6417   17.5002  -32.1110 H   0  0  0  0  0  0  0  0  0  0  0  0
   -5.1200   19.0200  -31.8520 C   0  0  0  0  0  0  0  0  0  0  0  0
   -5.4732   19.3015  -30.8490 H   0  0  0  0  0  0  0  0  0  0  0  0
   -1.2960   19.5980  -31.1400 N   0  0  0  0  0  0  0  0  0  0  0  0
   -0.2190   19.3920  -30.3420 C   0  0  0  0  0  0  0  0  0  0  0  0
    0.7680   18.4920  -30.7540 C   0  0  0  0  0  0  0  0  0  0  0  0
    0.6637   17.9558  -31.7088 H   0  0  0  0  0  0  0  0  0  0  0  0
    1.8830   18.2780  -29.9500 C   0  0  0  0  0  0  0  0  0  0  0  0
    2.6684   17.5787  -30.2726 H   0  0  0  0  0  0  0  0  0  0  0  0
    2.0040   18.9520  -28.7330 C   0  0  0  0  0  0  0  0  0  0  0  0
    3.2200   18.7600  -27.8760 C   0  0  0  0  0  0  0  0  0  0  0  0
    2.9320   18.8055  -26.8154 H   0  0  0  0  0  0  0  0  0  0  0  0
    3.6698   17.7797  -28.0921 H   0  0  0  0  0  0  0  0  0  0  0  0
    3.9500   19.5540  -28.0921 H   0  0  0  0  0  0  0  0  0  0  0  0
    1.0070   19.8630  -28.3580 C   0  0  0  0  0  0  0  0  0  0  0  0
    1.1086   20.4196  -27.4147 H   0  0  0  0  0  0  0  0  0  0  0  0
   -0.0950   20.0710  -29.1510 N   0  0  0  0  0  0  0  0  0  0  0  0
   -1.0810   20.9480  -28.7670 C   0  0  0  0  0  0  0  0  0  0  0  0
   -0.9880   21.5800  -27.6760 O   0  0  0  0  0  0  0  0  0  0  0  0
  1  2  1  0
  2  3  2  0
  3  4  1  0
  4  5  3  0
  3  6  1  0
  6  7  2  0
  6  8  1  0
  8  9  1  0
  8 10  1  0
 10 11  1  0
 10 12  1  0
 12 13  1  0
 12 14  1  0
 12 15  1  0
 15 16  1  0
 15 17  1  0
 15 18  1  0
 18 19  1  0
 18 20  1  0
 18 21  1  0
 21 22  1  0
 21 23  1  0
 21 24  1  0
 24 25  1  0
 24 26  1  0
  2 27  1  0
 27 28  2  0
 28 29  1  0
 29 30  1  0
 30 31  2  0
 31 32  1  0
 31 33  1  0
 33 34  1  0
 33 35  2  0
 35 36  1  0
 36 37  1  0
 37 38  1  0
 37 39  1  0
 37 40  1  0
 35 41  1  0
 41 42  1  0
 41 43  2  0
 43 44  1  0
 28 45  1  0
 45 46  2  0
 46 47  1  0
 47 48  1  0
 47 49  2  0
 49 50  1  0
 49 51  1  0
 51 52  1  0
 52 53  1  0
 52 54  1  0
 52 55  1  0
 51 56  2  0
 56 57  1  0
 56 58  1  0
 58 59  1  0
 59 60  2  0
 24 10  1  0
 59 27  1  0
 43 30  1  0
 58 46  1  0
M  END
>  <UniqueID>  (44) 
41

>  <SMILES>  (44) 
COc1ccc(Oc2nc3ccc(C)cn3c(=O)c2/C=C(\C#N)C(=O)NC2CCCCC2)cc1

>  <Energy>  (44) 
81.34998017047718

>  <Genealogy>  (44) 
COc1ccc(Oc2nc3ccc(C)cn3c(=O)c2/C=C(\C#N)C(=O)NC2CCCCC2)cc1 (cis-trans isomerization)
COc1ccc(Oc2nc3ccc(C)cn3c(=O)c2/C=C(\C#N)C(=O)NC2CCCCC2)cc1 (3D coordinates assigned)
COc1ccc(Oc2nc3ccc(C)cn3c(=O)c2/C=C(\C#N)C(=O)NC2CCCCC2)cc1 (nonaromatic ring conformer: 81.34998017047718 kcal/mol)

>  <smiles>  (44) 
COc1ccc(Oc2nc3ccc(C)cn3c(=O)c2C=C(C#N)C(=O)NC2CCCCC2)cc1

>  <score_type>  (44) 
oracle

>  <origin>  (44) 
adg

>  <m_score__min__energy>  (44) 
-9.5099999999999998

>  <m_primary>  (44) 
energy

$$$$
45:0
     RDKit          3D

 48 50  0  0  0  0  0  0  0  0999 V2000
   -3.9700   19.7030  -26.0770 H   0  0  0  0  0  0  0  0  0  0  0  0
   -3.4870   19.7930  -26.9990 N   0  0  0  0  0  0  0  0  0  0  0  0
   -2.2170   20.0370  -27.0860 C   0  0  0  0  0  0  0  0  0  0  0  0
   -1.7570   21.3870  -27.5010 C   0  0  0  0  0  0  0  0  0  0  0  0
   -0.3960   21.7270  -27.4190 C   0  0  0  0  0  0  0  0  0  0  0  0
    0.3306   20.9847  -27.0571 H   0  0  0  0  0  0  0  0  0  0  0  0
    0.0420   22.9990  -27.7930 C   0  0  0  0  0  0  0  0  0  0  0  0
    1.1102   23.2510  -27.7194 H   0  0  0  0  0  0  0  0  0  0  0  0
   -0.8700   23.9610  -28.2630 C   0  0  0  0  0  0  0  0  0  0  0  0
   -0.4600   25.2620  -28.5950 O   0  0  0  0  0  0  0  0  0  0  0  0
   -0.5500   26.3860  -27.7260 C   0  0  0  0  0  0  0  0  0  0  0  0
   -0.5227   26.0445  -26.6807 H   0  0  0  0  0  0  0  0  0  0  0  0
    0.2968   27.0627  -27.9129 H   0  0  0  0  0  0  0  0  0  0  0  0
   -1.4937   26.9193  -27.9129 H   0  0  0  0  0  0  0  0  0  0  0  0
   -2.2330   23.6150  -28.3780 C   0  0  0  0  0  0  0  0  0  0  0  0
   -3.2130   24.5440  -28.8700 N   0  0  0  0  0  0  0  0  0  0  0  0
   -3.8370   24.5170  -30.1620 C   0  0  0  0  0  0  0  0  0  0  0  0
   -3.8640   25.5800  -30.8390 O   0  0  0  0  0  0  0  0  0  0  0  0
   -4.4760   23.2950  -30.7030 C   0  0  0  0  0  0  0  0  0  0  0  0
   -5.8720   23.1420  -30.6870 C   0  0  0  0  0  0  0  0  0  0  0  0
   -6.5047   23.9486  -30.2880 H   0  0  0  0  0  0  0  0  0  0  0  0
   -6.4640   21.9730  -31.1740 C   0  0  0  0  0  0  0  0  0  0  0  0
   -7.5584   21.8652  -31.1501 H   0  0  0  0  0  0  0  0  0  0  0  0
   -5.6710   20.9320  -31.6950 C   0  0  0  0  0  0  0  0  0  0  0  0
   -6.2760   19.6740  -32.2090 C   0  0  0  0  0  0  0  0  0  0  0  0
   -7.6540   19.7110  -33.1100 S   0  0  0  0  0  0  0  0  0  0  0  0
   -5.7340   18.4080  -31.7930 N   0  0  0  0  0  0  0  0  0  0  0  0
   -5.3470   18.3390  -30.8250 H   0  0  0  0  0  0  0  0  0  0  0  0
   -5.7320   17.2220  -32.6060 C   0  0  0  0  0  0  0  0  0  0  0  0
   -6.8790   16.8160  -33.3120 C   0  0  0  0  0  0  0  0  0  0  0  0
   -7.8076   17.3997  -33.2290 H   0  0  0  0  0  0  0  0  0  0  0  0
   -6.8450   15.6740  -34.1190 C   0  0  0  0  0  0  0  0  0  0  0  0
   -7.7481   15.3567  -34.6609 H   0  0  0  0  0  0  0  0  0  0  0  0
   -5.6640   14.9360  -34.2370 C   0  0  0  0  0  0  0  0  0  0  0  0
   -5.6394   14.0342  -34.8664 H   0  0  0  0  0  0  0  0  0  0  0  0
   -4.5140   15.3440  -33.5550 C   0  0  0  0  0  0  0  0  0  0  0  0
   -3.5834   14.7657  -33.6526 H   0  0  0  0  0  0  0  0  0  0  0  0
   -4.5450   16.4860  -32.7490 C   0  0  0  0  0  0  0  0  0  0  0  0
   -3.6342   16.8097  -32.2239 H   0  0  0  0  0  0  0  0  0  0  0  0
   -4.2760   21.1000  -31.7310 C   0  0  0  0  0  0  0  0  0  0  0  0
   -3.6422   20.3021  -32.1453 H   0  0  0  0  0  0  0  0  0  0  0  0
   -3.6860   22.2700  -31.2460 C   0  0  0  0  0  0  0  0  0  0  0  0
   -2.5933   22.3887  -31.2901 H   0  0  0  0  0  0  0  0  0  0  0  0
   -2.6680   22.3480  -27.9680 C   0  0  0  0  0  0  0  0  0  0  0  0
   -3.7393   22.1023  -28.0126 H   0  0  0  0  0  0  0  0  0  0  0  0
   -1.2770   19.0050  -26.7630 N   0  0  0  0  0  0  0  0  0  0  0  0
   -0.2570   19.2070  -26.6670 H   0  0  0  0  0  0  0  0  0  0  0  0
   -1.6050   18.0410  -26.5350 H   0  0  0  0  0  0  0  0  0  0  0  0
  1  2  1  0
  2  3  2  0
  3  4  1  0
  4  5  2  0
  5  6  1  0
  5  7  1  0
  7  8  1  0
  7  9  2  0
  9 10  1  0
 10 11  1  0
 11 12  1  0
 11 13  1  0
 11 14  1  0
  9 15  1  0
 15 16  1  0
 16 17  1  0
 17 18  2  0
 17 19  1  0
 19 20  2  0
 20 21  1  0
 20 22  1  0
 22 23  1  0
 22 24  2  0
 24 25  1  0
 25 26  2  0
 25 27  1  0
 27 28  1  0
 27 29  1  0
 29 30  2  0
 30 31  1  0
 30 32  1  0
 32 33  1  0
 32 34  2  0
 34 35  1  0
 34 36  1  0
 36 37  1  0
 36 38  2  0
 38 39  1  0
 24 40  1  0
 40 41  1  0
 40 42  2  0
 42 43  1  0
 15 44  2  0
 44 45  1  0
  3 46  1  0
 46 47  1  0
 46 48  1  0
 44  4  1  0
 42 19  1  0
 38 29  1  0
M  CHG  1  16  -1
M  END
>  <UniqueID>  (45) 
42

>  <SMILES>  (45) 
[H]/N=C(\N)c1ccc(OC)c([N-]C(=O)c2ccc(C(=S)Nc3ccccc3)cc2)c1

>  <Energy>  (45) 
67.83247570356606

>  <Genealogy>  (45) 
COc1ccc(C(=N)N)cc1[N-]C(=O)c1ccc(C(=S)Nc2ccccc2)cc1 (protonated)
[H]/N=C(\N)c1ccc(OC)c([N-]C(=O)c2ccc(C(=S)Nc3ccccc3)cc2)c1 (cis-trans isomerization)
[H]/N=C(\N)c1ccc(OC)c([N-]C(=O)c2ccc(C(=S)Nc3ccccc3)cc2)c1 (3D coordinates assigned)
[H]/N=C(\N)c1ccc(OC)c([N-]C(=O)c2ccc(C(=S)Nc3ccccc3)cc2)c1 (optimized conformer: 67.83247570356606 kcal/mol)

>  <smiles>  (45) 
COc1ccc(C(=N)N)cc1NC(=O)c1ccc(C(=S)Nc2ccccc2)cc1

>  <score_type>  (45) 
oracle

>  <origin>  (45) 
adg

>  <m_score__min__energy>  (45) 
-10.44

>  <m_primary>  (45) 
energy

$$$$
46:0
     RDKit          3D

 36 37  0  0  0  0  0  0  0  0999 V2000
   -3.0480   19.2220  -26.6350 C   0  0  0  0  0  0  0  0  0  0  0  0
   -2.6930   19.7410  -27.9120 O   0  0  0  0  0  0  0  0  0  0  0  0
   -2.5610   21.1060  -28.2060 C   0  0  0  0  0  0  0  0  0  0  0  0
   -1.4920   21.8060  -27.6390 C   0  0  0  0  0  0  0  0  0  0  0  0
   -1.3180   23.1670  -27.8950 C   0  0  0  0  0  0  0  0  0  0  0  0
   -2.2170   23.8570  -28.7310 C   0  0  0  0  0  0  0  0  0  0  0  0
   -2.0730   25.2280  -29.0000 O   0  0  0  0  0  0  0  0  0  0  0  0
   -1.2250   26.1110  -28.2740 C   0  0  0  0  0  0  0  0  0  0  0  0
   -3.2910   23.1560  -29.3120 C   0  0  0  0  0  0  0  0  0  0  0  0
   -4.4410   23.9950  -30.3560 S   0  0  0  0  0  0  0  0  0  0  0  0
   -3.8670   25.3080  -30.8110 O   0  0  0  0  0  0  0  0  0  0  0  0
   -5.7080   24.2640  -29.5930 O   0  0  0  0  0  0  0  0  0  0  0  0
   -4.7870   22.9770  -31.7810 C   0  0  0  0  0  0  0  0  0  0  0  0
   -6.2200   22.5250  -31.7660 C   0  0  0  0  0  0  0  0  0  0  0  0
   -7.2560   23.4410  -32.0150 C   0  0  0  0  0  0  0  0  0  0  0  0
   -8.5900   23.0240  -31.9690 C   0  0  0  0  0  0  0  0  0  0  0  0
   -8.8990   21.6950  -31.6680 C   0  0  0  0  0  0  0  0  0  0  0  0
   -7.8750   20.7810  -31.4080 C   0  0  0  0  0  0  0  0  0  0  0  0
   -6.5390   21.1920  -31.4520 C   0  0  0  0  0  0  0  0  0  0  0  0
   -3.4620   21.7890  -29.0430 C   0  0  0  0  0  0  0  0  0  0  0  0
   -2.6142   19.8563  -25.8479 H   0  0  0  0  0  0  0  0  0  0  0  0
   -4.1434   19.2114  -26.5351 H   0  0  0  0  0  0  0  0  0  0  0  0
   -2.6608   18.1973  -26.5351 H   0  0  0  0  0  0  0  0  0  0  0  0
   -0.7814   21.2793  -26.9850 H   0  0  0  0  0  0  0  0  0  0  0  0
   -0.4727   23.7045  -27.4405 H   0  0  0  0  0  0  0  0  0  0  0  0
   -1.3730   25.9569  -27.1949 H   0  0  0  0  0  0  0  0  0  0  0  0
   -0.1755   25.9071  -28.5330 H   0  0  0  0  0  0  0  0  0  0  0  0
   -1.4711   27.1514  -28.5330 H   0  0  0  0  0  0  0  0  0  0  0  0
   -4.5998   23.5584  -32.6959 H   0  0  0  0  0  0  0  0  0  0  0  0
   -4.1335   22.0926  -31.7550 H   0  0  0  0  0  0  0  0  0  0  0  0
   -7.0170   24.4894  -32.2468 H   0  0  0  0  0  0  0  0  0  0  0  0
   -9.3974   23.7435  -32.1701 H   0  0  0  0  0  0  0  0  0  0  0  0
   -9.9489   21.3683  -31.6357 H   0  0  0  0  0  0  0  0  0  0  0  0
   -8.1201   19.7358  -31.1682 H   0  0  0  0  0  0  0  0  0  0  0  0
   -5.7358   20.4708  -31.2405 H   0  0  0  0  0  0  0  0  0  0  0  0
   -4.3081   21.2470  -29.4907 H   0  0  0  0  0  0  0  0  0  0  0  0
  1  2  1  0
  2  3  1  0
  3  4  2  0
  4  5  1  0
  5  6  2  0
  6  7  1  0
  7  8  1  0
  6  9  1  0
  9 10  1  0
 10 11  2  0
 10 12  2  0
 10 13  1  0
 13 14  1  0
 14 15  2  0
 15 16  1  0
 16 17  2  0
 17 18  1  0
 18 19  2  0
  9 20  2  0
 20  3  1  0
 19 14  1  0
  1 21  1  0
  1 22  1  0
  1 23  1  0
  4 24  1  0
  5 25  1  0
  8 26  1  0
  8 27  1  0
  8 28  1  0
 13 29  1  0
 13 30  1  0
 15 31  1  0
 16 32  1  0
 17 33  1  0
 18 34  1  0
 19 35  1  0
 20 36  1  0
M  END
>  <UniqueID>  (46) 
43

>  <SMILES>  (46) 
COc1ccc(OC)c(S(=O)(=O)Cc2ccccc2)c1

>  <Energy>  (46) 
32.24382285789095

>  <Genealogy>  (46) 
COc1ccc(OC)c(S(=O)(=O)Cc2ccccc2)c1 (3D coordinates assigned)
COc1ccc(OC)c(S(=O)(=O)Cc2ccccc2)c1 (optimized conformer: 32.24382285789095 kcal/mol)

>  <smiles>  (46) 
COc1ccc(OC)c(S(=O)(=O)Cc2ccccc2)c1

>  <score_type>  (46) 
oracle

>  <origin>  (46) 
adg

>  <m_score__min__energy>  (46) 
-7.4800000000000004

>  <m_primary>  (46) 
energy

$$$$
47:0
     RDKit          3D

 41 44  0  0  0  0  0  0  0  0999 V2000
   -9.0510   20.8630  -30.8740 C   0  0  0  0  0  0  0  0  0  0  0  0
   -8.1170   20.3570  -31.9180 C   0  0  0  0  0  0  0  0  0  0  0  0
   -6.9640   19.7080  -31.6470 N   0  0  0  0  0  0  0  0  0  0  0  0
   -6.4920   19.4540  -32.8870 C   0  0  0  0  0  0  0  0  0  0  0  0
   -5.2560   18.6210  -33.1480 C   0  0  1  0  0  0  0  0  0  0  0  0
   -5.2050   17.9750  -34.5630 C   0  0  0  0  0  0  0  0  0  0  0  0
   -3.8880   17.7850  -35.0550 O   0  0  0  0  0  0  0  0  0  0  0  0
   -3.0280   17.3510  -34.0250 C   0  0  0  0  0  0  0  0  0  0  0  0
   -2.7960   18.4850  -33.0100 C   0  0  0  0  0  0  0  0  0  0  0  0
   -3.9950   19.3400  -32.8300 N   0  0  0  0  0  0  0  0  0  0  0  0
   -3.8380   20.7190  -33.3640 C   0  0  0  0  0  0  0  0  0  0  0  0
   -4.4210   21.7890  -32.4840 C   0  0  0  0  0  0  0  0  0  0  0  0
   -3.6860   22.5970  -31.6180 C   0  0  0  0  0  0  0  0  0  0  0  0
   -4.6180   23.4200  -31.0260 C   0  0  0  0  0  0  0  0  0  0  0  0
   -4.4660   24.4190  -30.0660 C   0  0  0  0  0  0  0  0  0  0  0  0
   -5.6210   25.1000  -29.6410 C   0  0  0  0  0  0  0  0  0  0  0  0
   -6.8850   24.7710  -30.1790 C   0  0  0  0  0  0  0  0  0  0  0  0
   -7.0060   23.7560  -31.1470 C   0  0  0  0  0  0  0  0  0  0  0  0
   -5.8440   23.0980  -31.5480 C   0  0  0  0  0  0  0  0  0  0  0  0
   -5.7380   22.1060  -32.4460 N   0  0  0  0  0  0  0  0  0  0  0  0
   -7.3490   19.8860  -33.8350 N   0  0  0  0  0  0  0  0  0  0  0  0
   -8.3350   20.4440  -33.2070 O   0  0  0  0  0  0  0  0  0  0  0  0
   -8.6418   20.6413  -29.8773 H   0  0  0  0  0  0  0  0  0  0  0  0
   -9.1727   21.9504  -30.9868 H   0  0  0  0  0  0  0  0  0  0  0  0
  -10.0284   20.3710  -30.9868 H   0  0  0  0  0  0  0  0  0  0  0  0
   -5.3433   17.7831  -32.4407 H   0  0  0  0  0  0  0  0  0  0  0  0
   -5.7030   16.9953  -34.5159 H   0  0  0  0  0  0  0  0  0  0  0  0
   -5.7091   18.6687  -35.2519 H   0  0  0  0  0  0  0  0  0  0  0  0
   -3.4823   16.4911  -33.5110 H   0  0  0  0  0  0  0  0  0  0  0  0
   -2.0622   17.0601  -34.4638 H   0  0  0  0  0  0  0  0  0  0  0  0
   -2.5304   18.0408  -32.0393 H   0  0  0  0  0  0  0  0  0  0  0  0
   -1.9870   19.1211  -33.3984 H   0  0  0  0  0  0  0  0  0  0  0  0
   -2.7638   20.9211  -33.4878 H   0  0  0  0  0  0  0  0  0  0  0  0
   -4.3900   20.7552  -34.3148 H   0  0  0  0  0  0  0  0  0  0  0  0
   -2.5998   22.5808  -31.4454 H   0  0  0  0  0  0  0  0  0  0  0  0
   -3.4763   24.6665  -29.6547 H   0  0  0  0  0  0  0  0  0  0  0  0
   -5.5394   25.8943  -28.8844 H   0  0  0  0  0  0  0  0  0  0  0  0
   -7.7808   25.3115  -29.8393 H   0  0  0  0  0  0  0  0  0  0  0  0
   -7.9849   23.4908  -31.5729 H   0  0  0  0  0  0  0  0  0  0  0  0
   -6.5110   21.6730  -32.9980 H   0  0  0  0  0  0  0  0  0  0  0  0
   -7.2840   19.7790  -34.8720 H   0  0  0  0  0  0  0  0  0  0  0  0
  1  2  1  0
  2  3  2  0
  3  4  1  0
  4  5  1  0
  5  6  1  0
  6  7  1  0
  7  8  1  0
  8  9  1  0
  9 10  1  0
 10 11  1  0
 11 12  1  0
 12 13  2  0
 13 14  1  0
 14 15  2  0
 15 16  1  0
 16 17  2  0
 17 18  1  0
 18 19  2  0
 19 20  1  0
  4 21  2  0
 21 22  1  0
 22  2  1  0
 10  5  1  0
 20 12  1  0
 19 14  1  0
  1 23  1  0
  1 24  1  0
  1 25  1  0
  5 26  1  1
  6 27  1  0
  6 28  1  0
  8 29  1  0
  8 30  1  0
  9 31  1  0
  9 32  1  0
 11 33  1  0
 11 34  1  0
 13 35  1  0
 15 36  1  0
 16 37  1  0
 17 38  1  0
 18 39  1  0
 20 40  1  0
 21 41  1  0
M  CHG  1  21   1
M  END
>  <UniqueID>  (47) 
44

>  <SMILES>  (47) 
Cc1nc([C@H]2COCCN2Cc2cc3ccccc3[nH]2)[nH+]o1

>  <Energy>  (47) 
127.40245576677603

>  <Genealogy>  (47) 
Cc1nc(C2COCCN2Cc2cc3ccccc3[nH]2)[nH+]o1 (protonated)
Cc1nc([C@H]2COCCN2Cc2cc3ccccc3[nH]2)[nH+]o1 (chirality)
Cc1nc([C@H]2COCCN2Cc2cc3ccccc3[nH]2)[nH+]o1 (3D coordinates assigned)
Cc1nc([C@H]2COCCN2Cc2cc3ccccc3[nH]2)[nH+]o1 (nonaromatic ring conformer: 127.40245576677603 kcal/mol)

>  <smiles>  (47) 
Cc1nc(C2COCCN2Cc2cc3ccccc3[nH]2)no1

>  <score_type>  (47) 
oracle

>  <origin>  (47) 
adg

>  <m_score__min__energy>  (47) 
-7.2300000000000004

>  <m_primary>  (47) 
energy

$$$$
48:0
     RDKit          3D

 53 55  0  0  0  0  0  0  0  0999 V2000
    0.4036   21.6262  -30.4073 H   0  0  0  0  0  0  0  0  0  0  0  0
   -0.6250   21.4090  -30.7310 C   0  0  0  0  0  0  0  0  0  0  0  0
   -1.6410   21.8900  -29.9990 C   0  0  0  0  0  0  0  0  0  0  0  0
   -1.5890   21.9450  -28.5960 O   0  0  0  0  0  0  0  0  0  0  0  0
   -2.4940   21.2850  -27.7160 C   0  0  0  0  0  0  0  0  0  0  0  0
   -2.2093   21.4926  -26.6740 H   0  0  0  0  0  0  0  0  0  0  0  0
   -3.5150   21.6520  -27.8972 H   0  0  0  0  0  0  0  0  0  0  0  0
   -2.4566   20.2007  -27.8972 H   0  0  0  0  0  0  0  0  0  0  0  0
   -2.8570   22.3980  -30.6450 C   0  0  0  0  0  0  0  0  0  0  0  0
   -3.3990   23.4690  -30.1450 N   0  0  0  0  0  0  0  0  0  0  0  0
   -3.8960   24.4940  -30.9200 O   0  0  0  0  0  0  0  0  0  0  0  0
   -5.1720   25.0540  -30.6470 C   0  0  0  0  0  0  0  0  0  0  0  0
   -5.1967   25.4171  -29.6089 H   0  0  0  0  0  0  0  0  0  0  0  0
   -5.3563   25.8904  -31.3372 H   0  0  0  0  0  0  0  0  0  0  0  0
   -6.2370   24.0120  -30.8360 C   0  0  0  0  0  0  0  0  0  0  0  0
   -6.7510   23.3120  -29.7320 C   0  0  0  0  0  0  0  0  0  0  0  0
   -6.4005   23.5535  -28.7177 H   0  0  0  0  0  0  0  0  0  0  0  0
   -7.7070   22.3090  -29.9190 C   0  0  0  0  0  0  0  0  0  0  0  0
   -8.1134   21.7693  -29.0509 H   0  0  0  0  0  0  0  0  0  0  0  0
   -8.1470   21.9910  -31.2060 C   0  0  0  0  0  0  0  0  0  0  0  0
   -8.9022   21.2043  -31.3501 H   0  0  0  0  0  0  0  0  0  0  0  0
   -7.6280   22.6720  -32.3110 C   0  0  0  0  0  0  0  0  0  0  0  0
   -7.9727   22.4186  -33.3244 H   0  0  0  0  0  0  0  0  0  0  0  0
   -6.6710   23.6750  -32.1290 C   0  0  0  0  0  0  0  0  0  0  0  0
   -6.2565   24.2020  -33.0011 H   0  0  0  0  0  0  0  0  0  0  0  0
   -3.5590   21.5680  -31.7080 C   0  0  2  0  0  0  0  0  0  0  0  0
   -4.5065   22.0631  -31.9669 H   0  0  0  0  0  0  0  0  0  0  0  0
   -3.9600   20.1860  -31.1380 C   0  0  0  0  0  0  0  0  0  0  0  0
   -3.0534   19.5694  -31.0496 H   0  0  0  0  0  0  0  0  0  0  0  0
   -4.4397   20.3643  -30.1643 H   0  0  0  0  0  0  0  0  0  0  0  0
   -4.9590   19.4470  -31.9970 C   0  0  0  0  0  0  0  0  0  0  0  0
   -4.5470   18.8080  -33.1780 C   0  0  0  0  0  0  0  0  0  0  0  0
   -3.4900   18.8454  -33.4802 H   0  0  0  0  0  0  0  0  0  0  0  0
   -5.4730   18.1250  -33.9710 C   0  0  0  0  0  0  0  0  0  0  0  0
   -5.1450   17.6367  -34.9005 H   0  0  0  0  0  0  0  0  0  0  0  0
   -6.8140   18.0610  -33.5860 C   0  0  0  0  0  0  0  0  0  0  0  0
   -7.5417   17.5269  -34.2147 H   0  0  0  0  0  0  0  0  0  0  0  0
   -7.2320   18.6760  -32.4010 C   0  0  0  0  0  0  0  0  0  0  0  0
   -8.9130   18.5850  -31.9110 Cl  0  0  0  0  0  0  0  0  0  0  0  0
   -6.3070   19.3610  -31.6060 C   0  0  0  0  0  0  0  0  0  0  0  0
   -6.6360   19.8351  -30.6695 H   0  0  0  0  0  0  0  0  0  0  0  0
   -2.8320   21.5640  -33.0870 C   0  0  0  0  0  0  0  0  0  0  0  0
   -3.0307   22.5367  -33.5607 H   0  0  0  0  0  0  0  0  0  0  0  0
   -3.2381   20.6802  -33.6008 H   0  0  0  0  0  0  0  0  0  0  0  0
   -1.3610   21.3550  -33.1170 N   0  0  2  0  0  0  0  0  0  0  0  0
   -0.9650   22.3190  -32.9960 H   0  0  0  0  0  0  0  0  0  0  0  0
   -0.8320   20.9100  -34.4200 C   0  0  0  0  0  0  0  0  0  0  0  0
    0.0006   20.2096  -34.2579 H   0  0  0  0  0  0  0  0  0  0  0  0
   -1.6292   20.4070  -34.9869 H   0  0  0  0  0  0  0  0  0  0  0  0
   -0.4729   21.7816  -34.9869 H   0  0  0  0  0  0  0  0  0  0  0  0
   -0.8270   20.5870  -31.9730 C   0  0  0  0  0  0  0  0  0  0  0  0
    0.1424   20.1576  -32.2660 H   0  0  0  0  0  0  0  0  0  0  0  0
   -1.5728   19.8162  -31.7289 H   0  0  0  0  0  0  0  0  0  0  0  0
  1  2  1  0
  2  3  2  0
  3  4  1  0
  4  5  1  0
  5  6  1  0
  5  7  1  0
  5  8  1  0
  3  9  1  0
  9 10  2  0
 10 11  1  0
 11 12  1  0
 12 13  1  0
 12 14  1  0
 12 15  1  0
 15 16  2  0
 16 17  1  0
 16 18  1  0
 18 19  1  0
 18 20  2  0
 20 21  1  0
 20 22  1  0
 22 23  1  0
 22 24  2  0
 24 25  1  0
  9 26  1  0
 26 27  1  6
 26 28  1  0
 28 29  1  0
 28 30  1  0
 28 31  1  0
 31 32  2  0
 32 33  1  0
 32 34  1  0
 34 35  1  0
 34 36  2  0
 36 37  1  0
 36 38  1  0
 38 39  1  0
 38 40  2  0
 40 41  1  0
 26 42  1  0
 42 43  1  0
 42 44  1  0
 42 45  1  0
 45 46  1  1
 45 47  1  0
 47 48  1  0
 47 49  1  0
 47 50  1  0
 45 51  1  0
 51 52  1  0
 51 53  1  0
 51  2  1  0
 24 15  1  0
 40 31  1  0
M  CHG  1  45   1
M  END
>  <UniqueID>  (48) 
45

>  <SMILES>  (48) 
COC1=CC[N@@H+](C)C[C@@H](Cc2cccc(Cl)c2)/C1=N\OCc1ccccc1

>  <Energy>  (48) 
67.89121696932801

>  <Genealogy>  (48) 
COC1=CC[NH+](C)CC(Cc2cccc(Cl)c2)C1=NOCc1ccccc1 (protonated)
COC1=CC[N@@H+](C)C[C@@H](Cc2cccc(Cl)c2)C1=NOCc1ccccc1 (chirality)
COC1=CC[N@@H+](C)C[C@@H](Cc2cccc(Cl)c2)/C1=N\OCc1ccccc1 (cis-trans isomerization)
COC1=CC[N@@H+](C)C[C@@H](Cc2cccc(Cl)c2)/C1=N\OCc1ccccc1 (3D coordinates assigned)
COC1=CC[N@@H+](C)C[C@@H](Cc2cccc(Cl)c2)/C1=N\OCc1ccccc1 (nonaromatic ring conformer: 67.89121696932801 kcal/mol)

>  <smiles>  (48) 
COC1=CCN(C)CC(Cc2cccc(Cl)c2)C1=NOCc1ccccc1

>  <score_type>  (48) 
oracle

>  <origin>  (48) 
adg

>  <m_score__min__energy>  (48) 
-7.3799999999999999

>  <m_primary>  (48) 
energy

$$$$
49:0
     RDKit          3D

 32 34  0  0  0  0  0  0  0  0999 V2000
   -8.3900   23.0420  -31.5950 C   0  0  0  0  0  0  0  0  0  0  0  0
   -7.0270   22.9600  -31.8890 C   0  0  0  0  0  0  0  0  0  0  0  0
   -6.4790   21.7590  -32.3480 C   0  0  0  0  0  0  0  0  0  0  0  0
   -7.2910   20.6190  -32.5190 C   0  0  0  0  0  0  0  0  0  0  0  0
   -6.7210   19.3360  -33.0070 C   0  0  0  0  0  0  0  0  0  0  0  0
   -5.5000   19.1570  -33.6590 C   0  0  0  0  0  0  0  0  0  0  0  0
   -5.2240   17.8210  -33.9970 C   0  0  0  0  0  0  0  0  0  0  0  0
   -6.2420   16.9450  -33.6180 C   0  0  0  0  0  0  0  0  0  0  0  0
   -7.4560   17.8250  -32.8640 S   0  0  0  0  0  0  0  0  0  0  0  0
   -6.2930   15.4710  -33.8720 C   0  0  0  0  0  0  0  0  0  0  0  0
   -5.0070   14.7490  -33.4210 C   0  0  0  0  0  0  0  0  0  0  0  0
   -3.8420   14.9530  -34.3090 N   0  0  0  0  0  0  0  0  0  0  0  0
   -3.1690   16.2520  -34.1080 C   0  0  0  0  0  0  0  0  0  0  0  0
   -3.9520   17.4350  -34.7170 C   0  0  0  0  0  0  0  0  0  0  0  0
   -8.6650   20.7190  -32.2210 C   0  0  0  0  0  0  0  0  0  0  0  0
   -9.2060   21.9230  -31.7620 C   0  0  0  0  0  0  0  0  0  0  0  0
   -8.8193   23.9876  -31.2323 H   0  0  0  0  0  0  0  0  0  0  0  0
   -6.3835   23.8426  -31.7590 H   0  0  0  0  0  0  0  0  0  0  0  0
   -5.4048   21.7026  -32.5779 H   0  0  0  0  0  0  0  0  0  0  0  0
   -4.8153   19.9869  -33.8878 H   0  0  0  0  0  0  0  0  0  0  0  0
   -7.1465   15.0476  -33.3222 H   0  0  0  0  0  0  0  0  0  0  0  0
   -6.3968   15.3223  -34.9569 H   0  0  0  0  0  0  0  0  0  0  0  0
   -4.7420   15.1149  -32.4180 H   0  0  0  0  0  0  0  0  0  0  0  0
   -5.2304   13.6721  -33.4427 H   0  0  0  0  0  0  0  0  0  0  0  0
   -4.1890   14.9120  -35.2960 H   0  0  0  0  0  0  0  0  0  0  0  0
   -3.1670   14.1610  -34.1990 H   0  0  0  0  0  0  0  0  0  0  0  0
   -3.0557   16.4251  -33.0276 H   0  0  0  0  0  0  0  0  0  0  0  0
   -2.1961   16.2022  -34.6189 H   0  0  0  0  0  0  0  0  0  0  0  0
   -3.2880   18.3120  -34.7232 H   0  0  0  0  0  0  0  0  0  0  0  0
   -4.2638   17.1036  -35.7185 H   0  0  0  0  0  0  0  0  0  0  0  0
   -9.3167   19.8424  -32.3508 H   0  0  0  0  0  0  0  0  0  0  0  0
  -10.2796   21.9886  -31.5315 H   0  0  0  0  0  0  0  0  0  0  0  0
  1  2  2  0
  2  3  1  0
  3  4  2  0
  4  5  1  0
  5  6  2  0
  6  7  1  0
  7  8  2  0
  8  9  1  0
  8 10  1  0
 10 11  1  0
 11 12  1  0
 12 13  1  0
 13 14  1  0
  4 15  1  0
 15 16  2  0
 16  1  1  0
  9  5  1  0
 14  7  1  0
  1 17  1  0
  2 18  1  0
  3 19  1  0
  6 20  1  0
 10 21  1  0
 10 22  1  0
 11 23  1  0
 11 24  1  0
 12 25  1  0
 12 26  1  0
 13 27  1  0
 13 28  1  0
 14 29  1  0
 14 30  1  0
 15 31  1  0
 16 32  1  0
M  CHG  1  12   1
M  END
>  <UniqueID>  (49) 
46

>  <SMILES>  (49) 
c1ccc(-c2cc3c(s2)CC[NH2+]CC3)cc1

>  <Energy>  (49) 
69.5969608056374

>  <Genealogy>  (49) 
c1ccc(-c2cc3c(s2)CC[NH2+]CC3)cc1 (protonated)
c1ccc(-c2cc3c(s2)CC[NH2+]CC3)cc1 (3D coordinates assigned)
c1ccc(-c2cc3c(s2)CC[NH2+]CC3)cc1 (nonaromatic ring conformer: 69.5969608056374 kcal/mol)

>  <smiles>  (49) 
c1ccc(-c2cc3c(s2)CCNCC3)cc1

>  <score_type>  (49) 
oracle

>  <origin>  (49) 
adg

>  <m_score__min__energy>  (49) 
-4.9900000000000002

>  <m_primary>  (49) 
energy

$$$$
