0:0
     RDKit          3D

 99103  0  0  0  0  0  0  0  0999 V2000
   -6.4620   25.5970  -29.3820 C   0  0  0  0  0  0  0  0  0  0  0  0
   -5.5350   25.0510  -30.4800 C   0  0  0  0  0  0  0  0  0  0  0  0
   -4.7510   23.8410  -30.1050 N   0  0  0  0  0  0  0  0  0  0  0  0
   -4.2030   23.8980  -28.7240 C   0  0  0  0  0  0  0  0  0  0  0  0
   -3.9180   22.5150  -28.1280 C   0  0  0  0  0  0  0  0  0  0  0  0
   -3.7890   23.4060  -31.1580 C   0  0  0  0  0  0  0  0  0  0  0  0
   -3.8040   21.9050  -31.5270 C   0  0  0  0  0  0  0  0  0  0  0  0
   -4.5770   21.6530  -32.7470 N   0  0  0  0  0  0  0  0  0  0  0  0
   -5.7440   20.8160  -32.7050 C   0  0  0  0  0  0  0  0  0  0  0  0
   -6.9910   21.3680  -32.3590 C   0  0  0  0  0  0  0  0  0  0  0  0
   -7.1300   22.7540  -32.1220 C   0  0  0  0  0  0  0  0  0  0  0  0
   -8.3750   23.3040  -31.8270 C   0  0  0  0  0  0  0  0  0  0  0  0
   -9.5020   22.4900  -31.7780 C   0  0  0  0  0  0  0  0  0  0  0  0
   -9.3860   21.1170  -31.9940 C   0  0  0  0  0  0  0  0  0  0  0  0
   -8.1230   20.5190  -32.2460 C   0  0  0  0  0  0  0  0  0  0  0  0
   -7.9790   19.1500  -32.3850 N   0  0  0  0  0  0  0  0  0  0  0  0
   -9.0750   18.2460  -31.9680 C   0  0  0  0  0  0  0  0  0  0  0  0
   -6.8060   18.6280  -32.8960 C   0  0  0  0  0  0  0  0  0  0  0  0
   -6.7130   17.2760  -33.3090 C   0  0  0  0  0  0  0  0  0  0  0  0
   -5.5260   16.7610  -33.8270 C   0  0  0  0  0  0  0  0  0  0  0  0
   -4.4020   17.5680  -33.9790 C   0  0  0  0  0  0  0  0  0  0  0  0
   -3.2640   16.9910  -34.5650 O   0  0  0  0  0  0  0  0  0  0  0  0
   -3.0160   15.5950  -34.7280 C   0  0  0  0  0  0  0  0  0  0  0  0
   -1.5060   15.2810  -34.5790 C   0  0  0  0  0  0  0  0  0  0  0  0
   -0.6310   16.4430  -34.2020 N   0  0  1  0  0  0  0  0  0  0  0  0
   -0.6390   17.4570  -35.2930 C   0  0  0  0  0  0  0  0  0  0  0  0
   -1.0960   17.0870  -32.9270 C   0  0  0  0  0  0  0  0  0  0  0  0
   -0.4260   16.4660  -31.6920 C   0  0  0  0  0  0  0  0  0  0  0  0
    1.0490   16.7290  -31.6630 N   0  0  2  0  0  0  0  0  0  0  0  0
    1.7120   15.6330  -30.9100 C   0  0  0  0  0  0  0  0  0  0  0  0
    1.3620   18.0470  -31.0160 C   0  0  0  0  0  0  0  0  0  0  0  0
    0.4590   18.4430  -29.8580 C   0  0  0  0  0  0  0  0  0  0  0  0
    0.5300   17.7630  -28.6300 C   0  0  0  0  0  0  0  0  0  0  0  0
   -0.2720   18.1570  -27.5550 C   0  0  0  0  0  0  0  0  0  0  0  0
   -1.1380   19.2540  -27.6800 C   0  0  0  0  0  0  0  0  0  0  0  0
   -2.0110   19.6720  -26.5280 C   0  0  0  0  0  0  0  0  0  0  0  0
   -3.4040   19.0620  -26.6560 C   0  0  0  0  0  0  0  0  0  0  0  0
   -3.7200   18.3680  -25.4820 O   0  0  0  0  0  0  0  0  0  0  0  0
   -1.2100   19.9340  -28.9040 C   0  0  0  0  0  0  0  0  0  0  0  0
   -0.4090   19.5410  -29.9790 C   0  0  0  0  0  0  0  0  0  0  0  0
    1.6130   16.7530  -33.0590 C   0  0  0  0  0  0  0  0  0  0  0  0
    0.7750   15.9260  -34.0610 C   0  0  0  0  0  0  0  0  0  0  0  0
   -4.4650   18.9120  -33.5760 C   0  0  0  0  0  0  0  0  0  0  0  0
   -5.6590   19.4540  -33.0450 C   0  0  0  0  0  0  0  0  0  0  0  0
   -6.0448   25.3513  -28.3943 H   0  0  0  0  0  0  0  0  0  0  0  0
   -6.5464   26.6891  -29.4830 H   0  0  0  0  0  0  0  0  0  0  0  0
   -7.4581   25.1413  -29.4830 H   0  0  0  0  0  0  0  0  0  0  0  0
   -6.1542   24.7980  -31.3533 H   0  0  0  0  0  0  0  0  0  0  0  0
   -4.7977   25.8428  -30.6784 H   0  0  0  0  0  0  0  0  0  0  0  0
   -5.4650   23.0730  -30.0840 H   0  0  0  0  0  0  0  0  0  0  0  0
   -3.2636   24.4699  -28.7444 H   0  0  0  0  0  0  0  0  0  0  0  0
   -4.9649   24.3755  -28.0903 H   0  0  0  0  0  0  0  0  0  0  0  0
   -3.9312   22.5791  -27.0300 H   0  0  0  0  0  0  0  0  0  0  0  0
   -4.6888   21.8054  -28.4632 H   0  0  0  0  0  0  0  0  0  0  0  0
   -2.9295   22.1679  -28.4632 H   0  0  0  0  0  0  0  0  0  0  0  0
   -4.0121   23.9771  -32.0713 H   0  0  0  0  0  0  0  0  0  0  0  0
   -2.7906   23.5924  -30.7357 H   0  0  0  0  0  0  0  0  0  0  0  0
   -2.7693   21.5665  -31.6846 H   0  0  0  0  0  0  0  0  0  0  0  0
   -4.2782   21.3542  -30.7013 H   0  0  0  0  0  0  0  0  0  0  0  0
   -4.4380   22.2520  -33.5900 H   0  0  0  0  0  0  0  0  0  0  0  0
   -6.2452   23.4057  -32.1710 H   0  0  0  0  0  0  0  0  0  0  0  0
   -8.4672   24.3828  -31.6326 H   0  0  0  0  0  0  0  0  0  0  0  0
  -10.4878   22.9306  -31.5682 H   0  0  0  0  0  0  0  0  0  0  0  0
  -10.2875   20.4872  -31.9687 H   0  0  0  0  0  0  0  0  0  0  0  0
   -9.1211   18.2080  -30.8696 H   0  0  0  0  0  0  0  0  0  0  0  0
  -10.0306   18.6221  -32.3623 H   0  0  0  0  0  0  0  0  0  0  0  0
   -8.8876   17.2363  -32.3623 H   0  0  0  0  0  0  0  0  0  0  0  0
   -7.5926   16.6216  -33.2193 H   0  0  0  0  0  0  0  0  0  0  0  0
   -5.4767   15.7018  -34.1199 H   0  0  0  0  0  0  0  0  0  0  0  0
   -3.5770   15.0378  -33.9633 H   0  0  0  0  0  0  0  0  0  0  0  0
   -3.3396   15.2957  -35.7358 H   0  0  0  0  0  0  0  0  0  0  0  0
   -1.3966   14.5100  -33.8021 H   0  0  0  0  0  0  0  0  0  0  0  0
   -1.1671   14.9626  -35.5759 H   0  0  0  0  0  0  0  0  0  0  0  0
   -0.6470   18.4662  -34.8555 H   0  0  0  0  0  0  0  0  0  0  0  0
    0.2601   17.3339  -35.9146 H   0  0  0  0  0  0  0  0  0  0  0  0
   -1.5361   17.3197  -35.9146 H   0  0  0  0  0  0  0  0  0  0  0  0
   -2.1853   16.9603  -32.8417 H   0  0  0  0  0  0  0  0  0  0  0  0
   -0.8214   18.1515  -32.9638 H   0  0  0  0  0  0  0  0  0  0  0  0
   -0.5929   15.3788  -31.7062 H   0  0  0  0  0  0  0  0  0  0  0  0
   -0.8710   16.9247  -30.7967 H   0  0  0  0  0  0  0  0  0  0  0  0
    1.6036   15.8122  -29.8301 H   0  0  0  0  0  0  0  0  0  0  0  0
    1.2431   14.6728  -31.1712 H   0  0  0  0  0  0  0  0  0  0  0  0
    2.7801   15.6026  -31.1712 H   0  0  0  0  0  0  0  0  0  0  0  0
    2.3946   18.0022  -30.6396 H   0  0  0  0  0  0  0  0  0  0  0  0
    1.2041   18.8085  -31.7940 H   0  0  0  0  0  0  0  0  0  0  0  0
    1.2212   16.9152  -28.5141 H   0  0  0  0  0  0  0  0  0  0  0  0
   -0.2239   17.6038  -26.6054 H   0  0  0  0  0  0  0  0  0  0  0  0
   -1.5536   19.3327  -25.5869 H   0  0  0  0  0  0  0  0  0  0  0  0
   -2.1036   20.7681  -26.5347 H   0  0  0  0  0  0  0  0  0  0  0  0
   -4.1410   19.8622  -26.8184 H   0  0  0  0  0  0  0  0  0  0  0  0
   -3.4227   18.3672  -27.5086 H   0  0  0  0  0  0  0  0  0  0  0  0
   -4.5100   18.8270  -25.0940 H   0  0  0  0  0  0  0  0  0  0  0  0
   -1.9013   20.7820  -29.0185 H   0  0  0  0  0  0  0  0  0  0  0  0
   -0.4583   20.0956  -30.9277 H   0  0  0  0  0  0  0  0  0  0  0  0
    2.6333   16.3429  -33.0324 H   0  0  0  0  0  0  0  0  0  0  0  0
    1.6006   17.7981  -33.4020 H   0  0  0  0  0  0  0  0  0  0  0  0
    0.7341   14.8840  -33.7109 H   0  0  0  0  0  0  0  0  0  0  0  0
    1.2596   16.0035  -35.0455 H   0  0  0  0  0  0  0  0  0  0  0  0
   -3.5751   19.5510  -33.6745 H   0  0  0  0  0  0  0  0  0  0  0  0
  1  2  1  0
  2  3  1  0
  3  4  1  0
  4  5  1  0
  3  6  1  0
  6  7  1  0
  7  8  1  0
  8  9  1  0
  9 10  2  0
 10 11  1  0
 11 12  2  0
 12 13  1  0
 13 14  2  0
 14 15  1  0
 15 16  2  0
 16 17  1  0
 16 18  1  0
 18 19  2  0
 19 20  1  0
 20 21  2  0
 21 22  1  0
 22 23  1  0
 23 24  1  0
 25 24  1  6
 25 26  1  0
 25 27  1  0
 27 28  1  0
 28 29  1  0
 29 30  1  1
 29 31  1  0
 31 32  1  0
 32 33  2  0
 33 34  1  0
 34 35  2  0
 35 36  1  0
 36 37  1  0
 37 38  1  0
 35 39  1  0
 39 40  2  0
 29 41  1  0
 41 42  1  0
 21 43  1  0
 43 44  2  0
 44  9  1  0
 15 10  1  0
 44 18  1  0
 42 25  1  0
 40 32  1  0
  1 45  1  0
  1 46  1  0
  1 47  1  0
  2 48  1  0
  2 49  1  0
  3 50  1  0
  4 51  1  0
  4 52  1  0
  5 53  1  0
  5 54  1  0
  5 55  1  0
  6 56  1  0
  6 57  1  0
  7 58  1  0
  7 59  1  0
  8 60  1  0
 11 61  1  0
 12 62  1  0
 13 63  1  0
 14 64  1  0
 17 65  1  0
 17 66  1  0
 17 67  1  0
 19 68  1  0
 20 69  1  0
 23 70  1  0
 23 71  1  0
 24 72  1  0
 24 73  1  0
 26 74  1  0
 26 75  1  0
 26 76  1  0
 27 77  1  0
 27 78  1  0
 28 79  1  0
 28 80  1  0
 30 81  1  0
 30 82  1  0
 30 83  1  0
 31 84  1  0
 31 85  1  0
 33 86  1  0
 34 87  1  0
 36 88  1  0
 36 89  1  0
 37 90  1  0
 37 91  1  0
 38 92  1  0
 39 93  1  0
 40 94  1  0
 41 95  1  0
 41 96  1  0
 42 97  1  0
 42 98  1  0
 43 99  1  0
M  CHG  4   3   1  16   1  25   1  29   1
M  END
>  <UniqueID>  (1) 
1

>  <SMILES>  (1) 
CC[NH+](CC)CCNc1c2ccccc2[n+](C)c2ccc(OCC[N+]3(C)CC[N+](C)(Cc4ccc(CCO)cc4)CC3)cc12

>  <Energy>  (1) 
165.72854442737682

>  <Genealogy>  (1) 
CC[NH+](CC)CCNc1c2ccccc2[n+](C)c2ccc(OCC[N+]3(C)CC[N+](C)(Cc4ccc(CCO)cc4)CC3)cc12 (protonated)
CC[NH+](CC)CCNc1c2ccccc2[n+](C)c2ccc(OCC[N+]3(C)CC[N+](C)(Cc4ccc(CCO)cc4)CC3)cc12 (3D coordinates assigned)
CC[NH+](CC)CCNc1c2ccccc2[n+](C)c2ccc(OCC[N+]3(C)CC[N+](C)(Cc4ccc(CCO)cc4)CC3)cc12 (nonaromatic ring conformer: 165.72854442737682 kcal/mol)

>  <smiles>  (1) 
CCN(CC)CCNc1c2ccccc2[n+](C)c2ccc(OCC[N+]3(C)CC[N+](C)(Cc4ccc(CCO)cc4)CC3)cc12

>  <score_type>  (1) 
oracle

>  <origin>  (1) 
adg

>  <m_score__min__energy>  (1) 
-8.2699999999999996

>  <m_primary>  (1) 
energy

$$$$
1:0
     RDKit          3D

 46 47  0  0  0  0  0  0  0  0999 V2000
   -9.0830   20.1280  -32.3580 C   0  0  0  0  0  0  0  0  0  0  0  0
   -8.2080   20.7920  -31.2970 C   0  0  0  0  0  0  0  0  0  0  0  0
   -8.4750   22.3010  -31.1610 C   0  0  0  0  0  0  0  0  0  0  0  0
   -7.4520   23.1860  -31.8920 C   0  0  0  0  0  0  0  0  0  0  0  0
   -6.0750   22.7500  -31.6260 N   0  0  0  0  0  0  0  0  0  0  0  0
   -5.4630   22.0140  -32.5560 N   0  0  0  0  0  0  0  0  0  0  0  0
   -4.1950   21.5680  -32.4040 C   0  0  0  0  0  0  0  0  0  0  0  0
   -3.5780   20.7010  -33.4560 C   0  0  0  0  0  0  0  0  0  0  0  0
   -3.4940   21.8860  -31.2450 C   0  0  0  0  0  0  0  0  0  0  0  0
   -4.0750   22.7160  -30.2670 C   0  0  0  0  0  0  0  0  0  0  0  0
   -3.2880   23.0330  -28.9720 C   0  0  1  0  0  0  0  0  0  0  0  0
   -2.7860   21.7500  -28.2620 C   0  0  0  0  0  0  0  0  0  0  0  0
   -2.0940   23.9370  -29.3670 C   0  0  0  0  0  0  0  0  0  0  0  0
   -1.4750   24.5580  -28.1570 C   0  0  0  0  0  0  0  0  0  0  0  0
   -0.2490   24.8550  -28.1690 O   0  0  0  0  0  0  0  0  0  0  0  0
   -2.3010   24.8710  -27.0240 N   0  0  0  0  0  0  0  0  0  0  0  0
   -1.7360   25.5450  -25.8510 C   0  0  0  0  0  0  0  0  0  0  0  0
   -3.7100   24.5570  -27.0910 C   0  0  0  0  0  0  0  0  0  0  0  0
   -4.6330   25.1410  -26.1610 N   0  0  0  0  0  0  0  0  0  0  0  0
   -4.1600   23.7350  -28.0040 N   0  0  0  0  0  0  0  0  0  0  0  0
   -5.4290   23.0930  -30.4660 C   0  0  0  0  0  0  0  0  0  0  0  0
   -6.0540   23.7270  -29.5740 O   0  0  0  0  0  0  0  0  0  0  0  0
   -9.8670   19.5330  -31.8668 H   0  0  0  0  0  0  0  0  0  0  0  0
   -9.5490   20.9018  -32.9857 H   0  0  0  0  0  0  0  0  0  0  0  0
   -8.4632   19.4709  -32.9857 H   0  0  0  0  0  0  0  0  0  0  0  0
   -8.4061   20.3115  -30.3275 H   0  0  0  0  0  0  0  0  0  0  0  0
   -7.1601   20.6684  -31.6080 H   0  0  0  0  0  0  0  0  0  0  0  0
   -9.4728   22.5141  -31.5721 H   0  0  0  0  0  0  0  0  0  0  0  0
   -8.3971   22.5425  -30.0907 H   0  0  0  0  0  0  0  0  0  0  0  0
   -7.6413   23.1317  -32.9742 H   0  0  0  0  0  0  0  0  0  0  0  0
   -7.5641   24.2172  -31.5259 H   0  0  0  0  0  0  0  0  0  0  0  0
   -3.0041   19.8945  -32.9763 H   0  0  0  0  0  0  0  0  0  0  0  0
   -4.3699   20.2648  -34.0825 H   0  0  0  0  0  0  0  0  0  0  0  0
   -2.9064   21.3063  -34.0825 H   0  0  0  0  0  0  0  0  0  0  0  0
   -2.4805   21.4869  -31.0918 H   0  0  0  0  0  0  0  0  0  0  0  0
   -2.8403   21.8889  -27.1722 H   0  0  0  0  0  0  0  0  0  0  0  0
   -3.4171   20.8980  -28.5550 H   0  0  0  0  0  0  0  0  0  0  0  0
   -1.7443   21.5525  -28.5550 H   0  0  0  0  0  0  0  0  0  0  0  0
   -1.3385   23.3297  -29.8870 H   0  0  0  0  0  0  0  0  0  0  0  0
   -2.4612   24.7380  -30.0255 H   0  0  0  0  0  0  0  0  0  0  0  0
   -2.1278   25.0777  -24.9355 H   0  0  0  0  0  0  0  0  0  0  0  0
   -0.6399   25.4545  -25.8687 H   0  0  0  0  0  0  0  0  0  0  0  0
   -2.0165   26.6085  -25.8687 H   0  0  0  0  0  0  0  0  0  0  0  0
   -5.6440   24.8810  -26.1780 H   0  0  0  0  0  0  0  0  0  0  0  0
   -4.3370   25.8780  -25.4820 H   0  0  0  0  0  0  0  0  0  0  0  0
   -5.1690   23.4630  -27.9670 H   0  0  0  0  0  0  0  0  0  0  0  0
  1  2  1  0
  2  3  1  0
  3  4  1  0
  4  5  1  0
  5  6  1  0
  6  7  2  0
  7  8  1  0
  7  9  1  0
  9 10  2  0
 10 11  1  0
 11 12  1  1
 11 13  1  0
 13 14  1  0
 14 15  2  0
 14 16  1  0
 16 17  1  0
 16 18  1  0
 18 19  1  0
 18 20  2  0
 10 21  1  0
 21 22  2  0
 21  5  1  0
 20 11  1  0
  1 23  1  0
  1 24  1  0
  1 25  1  0
  2 26  1  0
  2 27  1  0
  3 28  1  0
  3 29  1  0
  4 30  1  0
  4 31  1  0
  8 32  1  0
  8 33  1  0
  8 34  1  0
  9 35  1  0
 12 36  1  0
 12 37  1  0
 12 38  1  0
 13 39  1  0
 13 40  1  0
 17 41  1  0
 17 42  1  0
 17 43  1  0
 19 44  1  0
 19 45  1  0
 20 46  1  0
M  CHG  1  20   1
M  END
>  <UniqueID>  (2) 
2

>  <SMILES>  (2) 
CCCCn1nc(C)cc([C@@]2(C)CC(=O)N(C)C(N)=[NH+]2)c1=O

>  <Energy>  (2) 
47.38828144944586

>  <Genealogy>  (2) 
CCCCn1nc(C)cc(C2(C)CC(=O)N(C)C(N)=[NH+]2)c1=O (protonated)
CCCCn1nc(C)cc([C@@]2(C)CC(=O)N(C)C(N)=[NH+]2)c1=O (chirality)
CCCCn1nc(C)cc([C@@]2(C)CC(=O)N(C)C(N)=[NH+]2)c1=O (3D coordinates assigned)
CCCCn1nc(C)cc([C@@]2(C)CC(=O)N(C)C(N)=[NH+]2)c1=O (nonaromatic ring conformer: 47.38828144944586 kcal/mol)

>  <smiles>  (2) 
CCCCn1nc(C)cc(C2(C)CC(=O)N(C)C(N)=N2)c1=O

>  <score_type>  (2) 
oracle

>  <origin>  (2) 
adg

>  <m_score__min__energy>  (2) 
-6.7000000000000002

>  <m_primary>  (2) 
energy

$$$$
2:0
     RDKit          3D

 45 47  0  0  1  0  0  0  0  0999 V2000
   -7.2130   24.1530  -30.6860 C   0  0  0  0  0  0  0  0  0  0  0  0
   -6.4110   25.0020  -29.7230 C   0  0  0  0  0  0  0  0  0  0  0  0
   -5.4010   25.8620  -30.4580 C   0  0  0  0  0  0  0  0  0  0  0  0
   -4.1070   25.2150  -30.5070 N   0  0  0  0  0  0  0  0  0  0  0  0
   -3.9460   23.9340  -30.4520 C   0  0  0  0  0  0  0  0  0  0  0  0
   -3.2580   23.4400  -29.4090 N   0  0  0  0  0  0  0  0  0  0  0  0
   -3.0910   22.1050  -29.3540 C   0  0  0  0  0  0  0  0  0  0  0  0
   -2.3680   21.4990  -28.2710 N   0  0  0  0  0  0  0  0  0  0  0  0
   -2.3010   20.0610  -27.9710 C   0  0  0  0  0  0  0  0  0  0  0  0
   -1.9510   19.9670  -26.5160 C   0  0  0  0  0  0  0  0  0  0  0  0
   -1.2430   21.2620  -26.2240 C   0  0  0  0  0  0  0  0  0  0  0  0
   -1.5850   22.2270  -27.3010 C   0  0  0  0  0  0  0  0  0  0  0  0
   -3.6000   21.3010  -30.3150 N   0  0  0  0  0  0  0  0  0  0  0  0
   -4.2910   21.7820  -31.3660 C   0  0  0  0  0  0  0  0  0  0  0  0
   -4.8360   20.9570  -32.3880 N   0  0  0  0  0  0  0  0  0  0  0  0
   -6.2630   21.0680  -32.7100 C   0  0  0  0  0  0  0  0  0  0  0  0
   -6.7600   19.6600  -32.9340 C   0  0  0  0  0  0  0  0  0  0  0  0
   -6.0720   19.1770  -34.0420 O   0  0  0  0  0  0  0  0  0  0  0  0
   -4.7450   18.9570  -33.8200 C   0  0  0  0  0  0  0  0  0  0  0  0
   -4.0030   20.0320  -33.0920 C   0  0  0  0  0  0  0  0  0  0  0  0
   -4.4550   23.1280  -31.4150 N   0  0  0  0  0  0  0  0  0  0  0  0
   -7.8603   23.4677  -30.1191 H   0  0  0  0  0  0  0  0  0  0  0  0
   -7.8336   24.8039  -31.3193 H   0  0  0  0  0  0  0  0  0  0  0  0
   -6.5278   23.5704  -31.3193 H   0  0  0  0  0  0  0  0  0  0  0  0
   -7.0972   25.6543  -29.1630 H   0  0  0  0  0  0  0  0  0  0  0  0
   -5.8666   24.3331  -29.0401 H   0  0  0  0  0  0  0  0  0  0  0  0
   -5.7556   26.0354  -31.4847 H   0  0  0  0  0  0  0  0  0  0  0  0
   -5.2958   26.8159  -29.9205 H   0  0  0  0  0  0  0  0  0  0  0  0
   -3.2729   19.5832  -28.1635 H   0  0  0  0  0  0  0  0  0  0  0  0
   -1.5594   19.5485  -28.6013 H   0  0  0  0  0  0  0  0  0  0  0  0
   -2.8584   19.8710  -25.9016 H   0  0  0  0  0  0  0  0  0  0  0  0
   -1.3323   19.0868  -26.2868 H   0  0  0  0  0  0  0  0  0  0  0  0
   -1.5726   21.6563  -25.2514 H   0  0  0  0  0  0  0  0  0  0  0  0
   -0.1553   21.1021  -26.1863 H   0  0  0  0  0  0  0  0  0  0  0  0
   -2.1704   23.0628  -26.8903 H   0  0  0  0  0  0  0  0  0  0  0  0
   -0.6784   22.6498  -27.7585 H   0  0  0  0  0  0  0  0  0  0  0  0
   -3.4770   20.2650  -30.2820 H   0  0  0  0  0  0  0  0  0  0  0  0
   -6.8062   21.5349  -31.8752 H   0  0  0  0  0  0  0  0  0  0  0  0
   -6.4235   21.6940  -33.6001 H   0  0  0  0  0  0  0  0  0  0  0  0
   -6.5491   19.0365  -32.0527 H   0  0  0  0  0  0  0  0  0  0  0  0
   -7.8476   19.6403  -33.0977 H   0  0  0  0  0  0  0  0  0  0  0  0
   -4.6534   18.0313  -33.2329 H   0  0  0  0  0  0  0  0  0  0  0  0
   -4.2863   18.9119  -34.8188 H   0  0  0  0  0  0  0  0  0  0  0  0
   -3.3308   19.5531  -32.3648 H   0  0  0  0  0  0  0  0  0  0  0  0
   -3.4669   20.6138  -33.8562 H   0  0  0  0  0  0  0  0  0  0  0  0
  1  2  1  0
  2  3  1  0
  3  4  1  0
  4  5  2  0
  5  6  1  0
  6  7  2  0
  7  8  1  0
  8  9  1  0
  9 10  1  0
 10 11  1  0
 11 12  1  0
  7 13  1  0
 13 14  1  0
 14 15  1  0
 15 16  1  0
 16 17  1  0
 17 18  1  0
 18 19  1  0
 19 20  1  0
 14 21  2  0
 21  5  1  0
 12  8  1  0
 20 15  1  0
  1 22  1  0
  1 23  1  0
  1 24  1  0
  2 25  1  0
  2 26  1  0
  3 27  1  0
  3 28  1  0
  9 29  1  0
  9 30  1  0
 10 31  1  0
 10 32  1  0
 11 33  1  0
 11 34  1  0
 12 35  1  0
 12 36  1  0
 13 37  1  0
 16 38  1  0
 16 39  1  0
 17 40  1  0
 17 41  1  0
 19 42  1  0
 19 43  1  0
 20 44  1  0
 20 45  1  0
M  END
>  <smiles>  (3) 
CCCN=c1nc(N2CCCC2)[nH]c(N2CCOCC2)n1

>  <score_type>  (3) 
oracle

>  <origin>  (3) 
adg

>  <m_score__min__energy>  (3) 
-6.4900000000000002

>  <m_primary>  (3) 
energy

$$$$
3:0
     RDKit          3D

 77 79  0  0  0  0  0  0  0  0999 V2000
   -3.9790   24.3380  -27.1020 C   0  0  0  0  0  0  0  0  0  0  0  0
   -4.4620   23.6610  -28.3790 C   0  0  0  0  0  0  0  0  0  0  0  0
   -3.6190   24.1000  -29.5160 N   0  0  0  0  0  0  0  0  0  0  0  0
   -4.3430   24.9610  -30.4780 C   0  0  0  0  0  0  0  0  0  0  0  0
   -5.7710   25.3140  -30.0400 C   0  0  0  0  0  0  0  0  0  0  0  0
   -2.3120   24.6620  -29.1100 C   0  0  0  0  0  0  0  0  0  0  0  0
   -1.1540   23.7270  -29.4990 C   0  0  0  0  0  0  0  0  0  0  0  0
   -1.5810   22.6790  -30.4380 N   0  0  0  0  0  0  0  0  0  0  0  0
   -1.7860   21.3870  -29.7700 C   0  0  0  0  0  0  0  0  0  0  0  0
   -3.2590   20.9800  -29.8570 C   0  0  0  0  0  0  0  0  0  0  0  0
   -3.9200   21.6280  -30.9900 N   0  0  0  0  0  0  0  0  0  0  0  0
   -4.8520   20.8910  -31.7900 C   0  0  0  0  0  0  0  0  0  0  0  0
   -6.2240   21.1080  -31.5790 C   0  0  0  0  0  0  0  0  0  0  0  0
   -6.6740   22.1950  -30.7980 C   0  0  0  0  0  0  0  0  0  0  0  0
   -8.0350   22.4410  -30.6360 C   0  0  0  0  0  0  0  0  0  0  0  0
   -8.9680   21.6160  -31.2530 C   0  0  0  0  0  0  0  0  0  0  0  0
   -8.5440   20.5210  -32.0050 C   0  0  0  0  0  0  0  0  0  0  0  0
   -7.1650   20.2240  -32.1520 C   0  0  0  0  0  0  0  0  0  0  0  0
   -6.7310   19.1010  -32.8210 N   0  0  0  0  0  0  0  0  0  0  0  0
   -7.6790   17.9960  -33.0930 C   0  0  0  0  0  0  0  0  0  0  0  0
   -5.4110   19.0020  -33.2250 C   0  0  0  0  0  0  0  0  0  0  0  0
   -5.0160   18.0080  -34.1520 C   0  0  0  0  0  0  0  0  0  0  0  0
   -3.6980   17.8820  -34.5570 C   0  0  0  0  0  0  0  0  0  0  0  0
   -2.7420   18.7700  -34.1050 C   0  0  0  0  0  0  0  0  0  0  0  0
   -3.0720   19.8180  -33.2270 C   0  0  0  0  0  0  0  0  0  0  0  0
   -2.0480   20.8190  -32.9860 N   0  0  0  0  0  0  0  0  0  0  0  0
   -0.7250   20.2090  -32.7490 C   0  0  0  0  0  0  0  0  0  0  0  0
    0.4200   21.0600  -33.3300 C   0  0  0  0  0  0  0  0  0  0  0  0
    0.0970   21.5670  -34.7520 C   0  0  0  0  0  0  0  0  0  0  0  0
    0.9600   22.7070  -35.1330 N   0  0  0  0  0  0  0  0  0  0  0  0
    2.2070   22.2120  -35.7380 C   0  0  0  0  0  0  0  0  0  0  0  0
    0.2740   23.5970  -36.0860 C   0  0  0  0  0  0  0  0  0  0  0  0
   -4.4240   19.9160  -32.7320 C   0  0  0  0  0  0  0  0  0  0  0  0
   -4.3675   23.7934  -26.2288 H   0  0  0  0  0  0  0  0  0  0  0  0
   -2.8793   24.3330  -27.0777 H   0  0  0  0  0  0  0  0  0  0  0  0
   -4.3416   25.3762  -27.0777 H   0  0  0  0  0  0  0  0  0  0  0  0
   -4.3877   22.5693  -28.2667 H   0  0  0  0  0  0  0  0  0  0  0  0
   -5.5095   23.9379  -28.5689 H   0  0  0  0  0  0  0  0  0  0  0  0
   -3.7768   25.8960  -30.6010 H   0  0  0  0  0  0  0  0  0  0  0  0
   -4.4267   24.3932  -31.4164 H   0  0  0  0  0  0  0  0  0  0  0  0
   -5.8248   25.3273  -28.9414 H   0  0  0  0  0  0  0  0  0  0  0  0
   -6.0403   26.3057  -30.4323 H   0  0  0  0  0  0  0  0  0  0  0  0
   -6.4713   24.5619  -30.4323 H   0  0  0  0  0  0  0  0  0  0  0  0
   -2.1702   25.6332  -29.6066 H   0  0  0  0  0  0  0  0  0  0  0  0
   -2.3101   24.7791  -28.0162 H   0  0  0  0  0  0  0  0  0  0  0  0
   -0.3594   24.3237  -29.9708 H   0  0  0  0  0  0  0  0  0  0  0  0
   -0.7935   23.2352  -28.5835 H   0  0  0  0  0  0  0  0  0  0  0  0
   -2.4980   22.9780  -30.8460 H   0  0  0  0  0  0  0  0  0  0  0  0
   -1.1670   20.6212  -30.2604 H   0  0  0  0  0  0  0  0  0  0  0  0
   -1.4987   21.4781  -28.7121 H   0  0  0  0  0  0  0  0  0  0  0  0
   -3.3233   19.8888  -29.9801 H   0  0  0  0  0  0  0  0  0  0  0  0
   -3.7633   21.2959  -28.9318 H   0  0  0  0  0  0  0  0  0  0  0  0
   -3.8830   22.6680  -31.0980 H   0  0  0  0  0  0  0  0  0  0  0  0
   -5.9407   22.8553  -30.3118 H   0  0  0  0  0  0  0  0  0  0  0  0
   -8.3716   23.2879  -30.0200 H   0  0  0  0  0  0  0  0  0  0  0  0
  -10.0424   21.8272  -31.1479 H   0  0  0  0  0  0  0  0  0  0  0  0
   -9.2911   19.8771  -32.4921 H   0  0  0  0  0  0  0  0  0  0  0  0
   -8.0377   17.5779  -32.1409 H   0  0  0  0  0  0  0  0  0  0  0  0
   -8.5333   18.3795  -33.6701 H   0  0  0  0  0  0  0  0  0  0  0  0
   -7.1700   17.2099  -33.6701 H   0  0  0  0  0  0  0  0  0  0  0  0
   -5.7723   17.3209  -34.5594 H   0  0  0  0  0  0  0  0  0  0  0  0
   -3.4111   17.0706  -35.2421 H   0  0  0  0  0  0  0  0  0  0  0  0
   -1.7001   18.6553  -34.4387 H   0  0  0  0  0  0  0  0  0  0  0  0
   -2.2920   21.4060  -32.1530 H   0  0  0  0  0  0  0  0  0  0  0  0
   -2.0110   21.5150  -33.7560 H   0  0  0  0  0  0  0  0  0  0  0  0
   -0.5728   20.1030  -31.6648 H   0  0  0  0  0  0  0  0  0  0  0  0
   -0.7086   19.2313  -33.2528 H   0  0  0  0  0  0  0  0  0  0  0  0
    0.5876   21.9263  -32.6732 H   0  0  0  0  0  0  0  0  0  0  0  0
    1.3180   20.4275  -33.3897 H   0  0  0  0  0  0  0  0  0  0  0  0
    0.2531   20.7463  -35.4676 H   0  0  0  0  0  0  0  0  0  0  0  0
   -0.9489   21.9074  -34.7666 H   0  0  0  0  0  0  0  0  0  0  0  0
    2.9139   21.9314  -34.9433 H   0  0  0  0  0  0  0  0  0  0  0  0
    1.9882   21.3325  -36.3614 H   0  0  0  0  0  0  0  0  0  0  0  0
    2.6509   23.0021  -36.3614 H   0  0  0  0  0  0  0  0  0  0  0  0
   -0.3062   24.3498  -35.5322 H   0  0  0  0  0  0  0  0  0  0  0  0
    1.0194   24.1011  -36.7186 H   0  0  0  0  0  0  0  0  0  0  0  0
   -0.4033   23.0045  -36.7186 H   0  0  0  0  0  0  0  0  0  0  0  0
  1  2  1  0
  2  3  1  0
  3  4  1  0
  4  5  1  0
  3  6  1  0
  6  7  1  0
  7  8  1  0
  8  9  1  0
  9 10  1  0
 10 11  1  0
 11 12  1  0
 12 13  2  0
 13 14  1  0
 14 15  2  0
 15 16  1  0
 16 17  2  0
 17 18  1  0
 18 19  2  0
 19 20  1  0
 19 21  1  0
 21 22  2  0
 22 23  1  0
 23 24  2  0
 24 25  1  0
 25 26  1  0
 26 27  1  0
 27 28  1  0
 28 29  1  0
 29 30  1  0
 30 31  1  0
 30 32  1  0
 25 33  2  0
 33 12  1  0
 18 13  1  0
 33 21  1  0
  1 34  1  0
  1 35  1  0
  1 36  1  0
  2 37  1  0
  2 38  1  0
  4 39  1  0
  4 40  1  0
  5 41  1  0
  5 42  1  0
  5 43  1  0
  6 44  1  0
  6 45  1  0
  7 46  1  0
  7 47  1  0
  8 48  1  0
  9 49  1  0
  9 50  1  0
 10 51  1  0
 10 52  1  0
 11 53  1  0
 14 54  1  0
 15 55  1  0
 16 56  1  0
 17 57  1  0
 20 58  1  0
 20 59  1  0
 20 60  1  0
 22 61  1  0
 23 62  1  0
 24 63  1  0
 26 64  1  0
 26 65  1  0
 27 66  1  0
 27 67  1  0
 28 68  1  0
 28 69  1  0
 29 70  1  0
 29 71  1  0
 31 72  1  0
 31 73  1  0
 31 74  1  0
 32 75  1  0
 32 76  1  0
 32 77  1  0
M  CHG  2  19   1  26   1
M  END
>  <UniqueID>  (4) 
3

>  <SMILES>  (4) 
CCN(CC)CCNCCNc1c2ccccc2[n+](C)c2cccc([NH2+]CCCN(C)C)c12

>  <Energy>  (4) 
108.70539828117472

>  <Genealogy>  (4) 
CCN(CC)CCNCCNc1c2ccccc2[n+](C)c2cccc([NH2+]CCCN(C)C)c12 (protonated)
CCN(CC)CCNCCNc1c2ccccc2[n+](C)c2cccc([NH2+]CCCN(C)C)c12 (3D coordinates assigned)
CCN(CC)CCNCCNc1c2ccccc2[n+](C)c2cccc([NH2+]CCCN(C)C)c12 (optimized conformer: 108.70539828117472 kcal/mol)

>  <smiles>  (4) 
CCN(CC)CCNCCNc1c2ccccc2[n+](C)c2cccc(NCCCN(C)C)c12

>  <score_type>  (4) 
oracle

>  <origin>  (4) 
adg

>  <m_score__min__energy>  (4) 
-8.4199999999999999

>  <m_primary>  (4) 
energy

$$$$
4:0
     RDKit          3D

 30 30  0  0  0  0  0  0  0  0999 V2000
   -2.6600   24.5450  -28.4090 C   0  0  0  0  0  0  0  0  0  0  0  0
   -3.3900   23.5390  -29.1880 N   0  0  0  0  0  0  0  0  0  0  0  0
   -3.4910   22.1610  -28.6960 C   0  0  0  0  0  0  0  0  0  0  0  0
   -4.0040   23.9300  -30.4370 C   0  0  0  0  0  0  0  0  0  0  0  0
   -3.9110   25.1240  -30.8340 O   0  0  0  0  0  0  0  0  0  0  0  0
   -4.7230   22.9400  -31.3120 C   0  0  0  0  0  0  0  0  0  0  0  0
   -5.8160   23.6110  -32.0180 N   0  0  0  0  0  0  0  0  0  0  0  0
   -7.3420   22.9770  -31.4800 S   0  0  0  0  0  0  0  0  0  0  0  0
   -8.4610   23.7960  -32.0620 O   0  0  0  0  0  0  0  0  0  0  0  0
   -7.4160   23.0710  -29.9830 O   0  0  0  0  0  0  0  0  0  0  0  0
   -7.5120   21.2910  -31.9620 C   0  0  0  0  0  0  0  0  0  0  0  0
   -6.5370   20.6750  -32.7610 C   0  0  0  0  0  0  0  0  0  0  0  0
   -6.6720   19.3310  -33.1220 C   0  0  0  0  0  0  0  0  0  0  0  0
   -7.7770   18.5950  -32.6840 C   0  0  0  0  0  0  0  0  0  0  0  0
   -8.7490   19.2030  -31.8830 C   0  0  0  0  0  0  0  0  0  0  0  0
   -8.6160   20.5470  -31.5200 C   0  0  0  0  0  0  0  0  0  0  0  0
   -2.8010   24.3507  -27.3355 H   0  0  0  0  0  0  0  0  0  0  0  0
   -1.5889   24.4919  -28.6537 H   0  0  0  0  0  0  0  0  0  0  0  0
   -3.0427   25.5468  -28.6537 H   0  0  0  0  0  0  0  0  0  0  0  0
   -3.4908   22.1635  -27.5960 H   0  0  0  0  0  0  0  0  0  0  0  0
   -4.4247   21.7087  -29.0615 H   0  0  0  0  0  0  0  0  0  0  0  0
   -2.6332   21.5774  -29.0615 H   0  0  0  0  0  0  0  0  0  0  0  0
   -4.0182   22.5191  -32.0442 H   0  0  0  0  0  0  0  0  0  0  0  0
   -5.1329   22.1318  -30.6885 H   0  0  0  0  0  0  0  0  0  0  0  0
   -5.7990   24.6250  -31.7590 H   0  0  0  0  0  0  0  0  0  0  0  0
   -5.6646   21.2506  -33.1041 H   0  0  0  0  0  0  0  0  0  0  0  0
   -5.9077   18.8520  -33.7516 H   0  0  0  0  0  0  0  0  0  0  0  0
   -7.8819   17.5378  -32.9693 H   0  0  0  0  0  0  0  0  0  0  0  0
   -9.6184   18.6239  -31.5384 H   0  0  0  0  0  0  0  0  0  0  0  0
   -9.3792   21.0220  -30.8861 H   0  0  0  0  0  0  0  0  0  0  0  0
  1  2  1  0
  2  3  1  0
  2  4  1  0
  4  5  2  0
  4  6  1  0
  6  7  1  0
  7  8  1  0
  8  9  2  0
  8 10  2  0
  8 11  1  0
 11 12  2  0
 12 13  1  0
 13 14  2  0
 14 15  1  0
 15 16  2  0
 16 11  1  0
  1 17  1  0
  1 18  1  0
  1 19  1  0
  3 20  1  0
  3 21  1  0
  3 22  1  0
  6 23  1  0
  6 24  1  0
  7 25  1  0
 12 26  1  0
 13 27  1  0
 14 28  1  0
 15 29  1  0
 16 30  1  0
M  END
>  <UniqueID>  (5) 
4

>  <SMILES>  (5) 
CN(C)C(=O)CNS(=O)(=O)c1ccccc1

>  <Energy>  (5) 
21.90117128997088

>  <Genealogy>  (5) 
CN(C)C(=O)CNS(=O)(=O)c1ccccc1 (3D coordinates assigned)
CN(C)C(=O)CNS(=O)(=O)c1ccccc1 (optimized conformer: 21.90117128997088 kcal/mol)

>  <smiles>  (5) 
CN(C)C(=O)CNS(=O)(=O)c1ccccc1

>  <score_type>  (5) 
oracle

>  <origin>  (5) 
adg

>  <m_score__min__energy>  (5) 
-7.0300000000000002

>  <m_primary>  (5) 
energy

$$$$
5:0
     RDKit          3D

 41 43  0  0  0  0  0  0  0  0999 V2000
   -3.7230   24.5650  -29.2010 C   0  0  0  0  0  0  0  0  0  0  0  0
   -3.8770   25.1650  -30.4670 O   0  0  0  0  0  0  0  0  0  0  0  0
   -5.2500   25.2490  -30.7810 C   0  0  0  0  0  0  0  0  0  0  0  0
   -6.0070   24.1210  -30.0800 C   0  0  0  0  0  0  0  0  0  0  0  0
   -6.1780   22.9650  -30.9780 N   0  0  0  0  0  0  0  0  0  0  0  0
   -7.4140   22.7330  -31.5110 C   0  0  0  0  0  0  0  0  0  0  0  0
   -7.6420   21.6430  -32.3450 C   0  0  0  0  0  0  0  0  0  0  0  0
   -6.5960   20.7630  -32.6370 C   0  0  0  0  0  0  0  0  0  0  0  0
   -6.8110   19.6940  -33.4490 N   0  0  0  0  0  0  0  0  0  0  0  0
   -5.8150   18.8130  -33.7440 C   0  0  0  0  0  0  0  0  0  0  0  0
   -6.1200   17.6400  -34.6440 C   0  0  0  0  0  0  0  0  0  0  0  0
   -4.5550   19.0080  -33.2340 N   0  0  0  0  0  0  0  0  0  0  0  0
   -3.4880   18.0970  -33.5570 C   0  0  0  0  0  0  0  0  0  0  0  0
   -2.3630   18.5470  -34.2640 C   0  0  0  0  0  0  0  0  0  0  0  0
   -1.3270   17.6610  -34.5750 C   0  0  0  0  0  0  0  0  0  0  0  0
   -1.4090   16.3230  -34.1790 C   0  0  0  0  0  0  0  0  0  0  0  0
   -2.5260   15.8690  -33.4710 C   0  0  0  0  0  0  0  0  0  0  0  0
   -3.5640   16.7530  -33.1580 C   0  0  0  0  0  0  0  0  0  0  0  0
   -4.2970   20.0730  -32.4100 C   0  0  0  0  0  0  0  0  0  0  0  0
   -3.1320   20.2350  -31.9470 O   0  0  0  0  0  0  0  0  0  0  0  0
   -5.3230   20.9880  -32.0860 C   0  0  0  0  0  0  0  0  0  0  0  0
   -5.1320   22.1100  -31.2400 C   0  0  0  0  0  0  0  0  0  0  0  0
   -4.0020   22.3280  -30.7230 O   0  0  0  0  0  0  0  0  0  0  0  0
   -3.9145   25.3112  -28.4158 H   0  0  0  0  0  0  0  0  0  0  0  0
   -4.4371   23.7345  -29.0995 H   0  0  0  0  0  0  0  0  0  0  0  0
   -2.6972   24.1810  -29.0995 H   0  0  0  0  0  0  0  0  0  0  0  0
   -5.6439   26.2190  -30.4435 H   0  0  0  0  0  0  0  0  0  0  0  0
   -5.3820   25.1560  -31.8691 H   0  0  0  0  0  0  0  0  0  0  0  0
   -5.4412   23.8058  -29.1909 H   0  0  0  0  0  0  0  0  0  0  0  0
   -7.0015   24.4917  -29.7910 H   0  0  0  0  0  0  0  0  0  0  0  0
   -8.2419   23.4185  -31.2772 H   0  0  0  0  0  0  0  0  0  0  0  0
   -8.6413   21.4744  -32.7728 H   0  0  0  0  0  0  0  0  0  0  0  0
   -7.7650   19.5420  -33.8520 H   0  0  0  0  0  0  0  0  0  0  0  0
   -6.3497   16.7567  -34.0300 H   0  0  0  0  0  0  0  0  0  0  0  0
   -6.9855   17.8803  -35.2789 H   0  0  0  0  0  0  0  0  0  0  0  0
   -5.2470   17.4283  -35.2789 H   0  0  0  0  0  0  0  0  0  0  0  0
   -2.2957   19.6001  -34.5746 H   0  0  0  0  0  0  0  0  0  0  0  0
   -0.4474   18.0170  -35.1314 H   0  0  0  0  0  0  0  0  0  0  0  0
   -0.5939   15.6264  -34.4246 H   0  0  0  0  0  0  0  0  0  0  0  0
   -2.5886   14.8158  -33.1599 H   0  0  0  0  0  0  0  0  0  0  0  0
   -4.4408   16.3947  -32.5986 H   0  0  0  0  0  0  0  0  0  0  0  0
  1  2  1  0
  2  3  1  0
  3  4  1  0
  4  5  1  0
  5  6  1  0
  6  7  2  0
  7  8  1  0
  8  9  1  0
  9 10  2  0
 10 11  1  0
 10 12  1  0
 12 13  1  0
 13 14  2  0
 14 15  1  0
 15 16  2  0
 16 17  1  0
 17 18  2  0
 12 19  1  0
 19 20  2  0
 19 21  1  0
 21 22  1  0
 22 23  2  0
 22  5  1  0
 21  8  2  0
 18 13  1  0
  1 24  1  0
  1 25  1  0
  1 26  1  0
  3 27  1  0
  3 28  1  0
  4 29  1  0
  4 30  1  0
  6 31  1  0
  7 32  1  0
  9 33  1  0
 11 34  1  0
 11 35  1  0
 11 36  1  0
 14 37  1  0
 15 38  1  0
 16 39  1  0
 17 40  1  0
 18 41  1  0
M  CHG  1   9   1
M  END
>  <UniqueID>  (6) 
5

>  <SMILES>  (6) 
COCCn1ccc2[nH+]c(C)n(-c3ccccc3)c(=O)c2c1=O

>  <Energy>  (6) 
60.62601243436953

>  <Genealogy>  (6) 
COCCn1ccc2[nH+]c(C)n(-c3ccccc3)c(=O)c2c1=O (protonated)
COCCn1ccc2[nH+]c(C)n(-c3ccccc3)c(=O)c2c1=O (3D coordinates assigned)
COCCn1ccc2[nH+]c(C)n(-c3ccccc3)c(=O)c2c1=O (optimized conformer: 60.62601243436953 kcal/mol)

>  <smiles>  (6) 
COCCn1ccc2nc(C)n(-c3ccccc3)c(=O)c2c1=O

>  <score_type>  (6) 
oracle

>  <origin>  (6) 
adg

>  <m_score__min__energy>  (6) 
-7.0700000000000003

>  <m_primary>  (6) 
energy

$$$$
6:0
     RDKit          3D

 37 38  0  0  0  0  0  0  0  0999 V2000
   -4.9850   24.5590  -30.2620 C   0  0  0  0  0  0  0  0  0  0  0  0
   -5.9180   23.7130  -31.0610 C   0  0  0  0  0  0  0  0  0  0  0  0
   -5.6320   23.0320  -32.2310 C   0  0  0  0  0  0  0  0  0  0  0  0
   -6.7650   22.4530  -32.6710 N   0  0  0  0  0  0  0  0  0  0  0  0
   -7.7490   22.7610  -31.8410 N   0  0  0  0  0  0  0  0  0  0  0  0
   -9.1190   22.2700  -31.9670 C   0  0  0  0  0  0  0  0  0  0  0  0
   -9.1310   20.7410  -31.9720 C   0  0  0  0  0  0  0  0  0  0  0  0
   -8.2240   20.2340  -33.0090 N   0  0  0  0  0  0  0  0  0  0  0  0
   -7.6130   18.9690  -32.5770 C   0  0  0  0  0  0  0  0  0  0  0  0
   -6.3020   18.7490  -33.2790 C   0  0  0  0  0  0  0  0  0  0  0  0
   -5.2860   19.6730  -33.4720 C   0  0  0  0  0  0  0  0  0  0  0  0
   -4.3070   19.1120  -34.2110 N   0  0  0  0  0  0  0  0  0  0  0  0
   -4.6750   17.8730  -34.5020 N   0  0  0  0  0  0  0  0  0  0  0  0
   -3.8660   16.9650  -35.3070 C   0  0  0  0  0  0  0  0  0  0  0  0
   -5.8950   17.6250  -33.9800 C   0  0  0  0  0  0  0  0  0  0  0  0
   -6.6390   16.3270  -34.0920 C   0  0  0  0  0  0  0  0  0  0  0  0
   -7.2700   23.5290  -30.8430 C   0  0  0  0  0  0  0  0  0  0  0  0
   -5.1672   24.3938  -29.1898 H   0  0  0  0  0  0  0  0  0  0  0  0
   -3.9465   24.2882  -30.5034 H   0  0  0  0  0  0  0  0  0  0  0  0
   -5.1532   25.6189  -30.5034 H   0  0  0  0  0  0  0  0  0  0  0  0
   -4.6475   22.9737  -32.7182 H   0  0  0  0  0  0  0  0  0  0  0  0
   -6.8630   21.8600  -33.5250 H   0  0  0  0  0  0  0  0  0  0  0  0
   -9.7160   22.6357  -31.1186 H   0  0  0  0  0  0  0  0  0  0  0  0
   -9.5472   22.6364  -32.9116 H   0  0  0  0  0  0  0  0  0  0  0  0
   -8.8033   20.3711  -30.9892 H   0  0  0  0  0  0  0  0  0  0  0  0
  -10.1518   20.3891  -32.1823 H   0  0  0  0  0  0  0  0  0  0  0  0
   -8.8020   20.0350  -33.8600 H   0  0  0  0  0  0  0  0  0  0  0  0
   -7.4406   19.0028  -31.4911 H   0  0  0  0  0  0  0  0  0  0  0  0
   -8.2934   18.1420  -32.8281 H   0  0  0  0  0  0  0  0  0  0  0  0
   -5.2795   20.7020  -33.0834 H   0  0  0  0  0  0  0  0  0  0  0  0
   -3.2818   16.3093  -34.6446 H   0  0  0  0  0  0  0  0  0  0  0  0
   -4.5236   16.3529  -35.9418 H   0  0  0  0  0  0  0  0  0  0  0  0
   -3.1824   17.5479  -35.9418 H   0  0  0  0  0  0  0  0  0  0  0  0
   -6.8593   15.9426  -33.0852 H   0  0  0  0  0  0  0  0  0  0  0  0
   -7.5808   16.4900  -34.6365 H   0  0  0  0  0  0  0  0  0  0  0  0
   -6.0224   15.5967  -34.6365 H   0  0  0  0  0  0  0  0  0  0  0  0
   -7.8520   23.9372  -30.0035 H   0  0  0  0  0  0  0  0  0  0  0  0
  1  2  1  0
  2  3  1  0
  3  4  2  0
  4  5  1  0
  5  6  1  0
  6  7  1  0
  7  8  1  0
  8  9  1  0
  9 10  1  0
 10 11  1  0
 11 12  2  0
 12 13  1  0
 13 14  1  0
 13 15  1  0
 15 16  1  0
  5 17  1  0
 17  2  2  0
 15 10  2  0
  1 18  1  0
  1 19  1  0
  1 20  1  0
  3 21  1  0
  4 22  1  0
  6 23  1  0
  6 24  1  0
  7 25  1  0
  7 26  1  0
  8 27  1  0
  9 28  1  0
  9 29  1  0
 11 30  1  0
 14 31  1  0
 14 32  1  0
 14 33  1  0
 16 34  1  0
 16 35  1  0
 16 36  1  0
 17 37  1  0
M  CHG  1   4   1
M  END
>  <UniqueID>  (7) 
6

>  <SMILES>  (7) 
Cc1c[nH+]n(CCNCc2cnn(C)c2C)c1

>  <Energy>  (7) 
89.77161209930493

>  <Genealogy>  (7) 
Cc1c[nH+]n(CCNCc2cnn(C)c2C)c1 (protonated)
Cc1c[nH+]n(CCNCc2cnn(C)c2C)c1 (3D coordinates assigned)
Cc1c[nH+]n(CCNCc2cnn(C)c2C)c1 (optimized conformer: 89.77161209930493 kcal/mol)

>  <smiles>  (7) 
Cc1cnn(CCNCc2cnn(C)c2C)c1

>  <score_type>  (7) 
oracle

>  <origin>  (7) 
adg

>  <m_score__min__energy>  (7) 
-6.0599999999999996

>  <m_primary>  (7) 
energy

$$$$
7:0
     RDKit          3D

 76 79  0  0  0  0  0  0  0  0999 V2000
   -8.8600   23.4020  -31.9930 C   0  0  0  0  0  0  0  0  0  0  0  0
   -7.6990   22.5430  -31.6590 N   0  0  0  0  0  0  0  0  0  0  0  0
   -7.7300   21.1960  -31.9550 C   0  0  0  0  0  0  0  0  0  0  0  0
   -8.9310   20.5330  -32.3170 C   0  0  0  0  0  0  0  0  0  0  0  0
   -8.9300   19.1840  -32.6690 C   0  0  0  0  0  0  0  0  0  0  0  0
   -7.7460   18.4590  -32.6530 C   0  0  0  0  0  0  0  0  0  0  0  0
   -6.5600   19.0710  -32.2540 C   0  0  0  0  0  0  0  0  0  0  0  0
   -6.5420   20.4330  -31.8780 C   0  0  0  0  0  0  0  0  0  0  0  0
   -5.3690   21.0470  -31.4090 C   0  0  0  0  0  0  0  0  0  0  0  0
   -4.1710   20.2570  -31.2610 N   0  0  0  0  0  0  0  0  0  0  0  0
   -3.4010   19.7980  -32.4200 C   0  0  0  0  0  0  0  0  0  0  0  0
   -2.9160   20.9810  -33.2820 C   0  0  0  0  0  0  0  0  0  0  0  0
   -1.6660   20.6860  -34.0240 N   0  0  0  0  0  0  0  0  0  0  0  0
   -0.5060   21.1740  -33.2580 C   0  0  0  0  0  0  0  0  0  0  0  0
   -1.5090   19.2430  -34.2860 C   0  0  0  0  0  0  0  0  0  0  0  0
   -5.3890   22.3710  -31.0350 N   0  0  0  0  0  0  0  0  0  0  0  0
   -4.2260   22.9830  -30.6250 C   0  0  0  0  0  0  0  0  0  0  0  0
   -4.2190   24.3010  -30.1460 C   0  0  0  0  0  0  0  0  0  0  0  0
   -3.0550   24.9580  -29.7110 O   0  0  0  0  0  0  0  0  0  0  0  0
   -2.0850   24.4300  -28.8050 C   0  0  0  0  0  0  0  0  0  0  0  0
   -1.4040   25.5190  -27.9310 C   0  0  0  0  0  0  0  0  0  0  0  0
   -1.7880   25.5910  -26.4770 N   0  0  0  0  0  0  0  0  0  0  0  0
   -3.2220   25.2440  -26.3000 C   0  0  0  0  0  0  0  0  0  0  0  0
   -1.5510   26.9630  -25.9150 C   0  0  0  0  0  0  0  0  0  0  0  0
   -0.1130   27.1490  -25.3960 C   0  0  0  0  0  0  0  0  0  0  0  0
    0.1950   26.2340  -24.2500 N   0  0  0  0  0  0  0  0  0  0  0  0
   -0.0700   26.9370  -22.9690 C   0  0  0  0  0  0  0  0  0  0  0  0
    1.6380   25.8840  -24.2850 C   0  0  0  0  0  0  0  0  0  0  0  0
   -0.6300   24.9850  -24.2970 C   0  0  0  0  0  0  0  0  0  0  0  0
   -0.9640   24.5670  -25.7430 C   0  0  0  0  0  0  0  0  0  0  0  0
   -5.4190   24.9900  -30.0890 C   0  0  0  0  0  0  0  0  0  0  0  0
   -6.5850   24.4040  -30.5560 C   0  0  0  0  0  0  0  0  0  0  0  0
   -6.5660   23.0940  -31.0930 C   0  0  0  0  0  0  0  0  0  0  0  0
   -9.3350   23.7535  -31.0652 H   0  0  0  0  0  0  0  0  0  0  0  0
   -8.5191   24.2670  -32.5808 H   0  0  0  0  0  0  0  0  0  0  0  0
   -9.5875   22.8230  -32.5808 H   0  0  0  0  0  0  0  0  0  0  0  0
   -9.8782   21.0923  -32.3200 H   0  0  0  0  0  0  0  0  0  0  0  0
   -9.8700   18.6926  -32.9603 H   0  0  0  0  0  0  0  0  0  0  0  0
   -7.7445   17.4014  -32.9554 H   0  0  0  0  0  0  0  0  0  0  0  0
   -5.6276   18.4879  -32.2314 H   0  0  0  0  0  0  0  0  0  0  0  0
   -3.7670   20.1460  -30.3070 H   0  0  0  0  0  0  0  0  0  0  0  0
   -2.5268   19.2315  -32.0665 H   0  0  0  0  0  0  0  0  0  0  0  0
   -4.0541   19.1653  -33.0391 H   0  0  0  0  0  0  0  0  0  0  0  0
   -3.7035   21.2311  -34.0082 H   0  0  0  0  0  0  0  0  0  0  0  0
   -2.7033   21.8180  -32.6006 H   0  0  0  0  0  0  0  0  0  0  0  0
   -1.6790   21.1930  -34.9410 H   0  0  0  0  0  0  0  0  0  0  0  0
   -0.7143   21.0864  -32.1815 H   0  0  0  0  0  0  0  0  0  0  0  0
    0.3795   20.5721  -33.5103 H   0  0  0  0  0  0  0  0  0  0  0  0
   -0.3171   22.2279  -33.5103 H   0  0  0  0  0  0  0  0  0  0  0  0
   -1.4500   18.7011  -33.3305 H   0  0  0  0  0  0  0  0  0  0  0  0
   -2.3728   18.8787  -34.8614 H   0  0  0  0  0  0  0  0  0  0  0  0
   -0.5871   19.0730  -34.8614 H   0  0  0  0  0  0  0  0  0  0  0  0
   -3.2795   22.4248  -30.6743 H   0  0  0  0  0  0  0  0  0  0  0  0
   -2.5840   23.7100  -28.1397 H   0  0  0  0  0  0  0  0  0  0  0  0
   -1.2970   23.9578  -29.4100 H   0  0  0  0  0  0  0  0  0  0  0  0
   -0.3188   25.3450  -27.9759 H   0  0  0  0  0  0  0  0  0  0  0  0
   -1.7486   26.4728  -28.3570 H   0  0  0  0  0  0  0  0  0  0  0  0
   -3.4558   25.1874  -25.2266 H   0  0  0  0  0  0  0  0  0  0  0  0
   -3.8471   26.0168  -26.7712 H   0  0  0  0  0  0  0  0  0  0  0  0
   -3.4246   24.2709  -26.7712 H   0  0  0  0  0  0  0  0  0  0  0  0
   -1.7393   27.7049  -26.7050 H   0  0  0  0  0  0  0  0  0  0  0  0
   -2.2332   27.0968  -25.0626 H   0  0  0  0  0  0  0  0  0  0  0  0
    0.5899   26.9398  -26.2158 H   0  0  0  0  0  0  0  0  0  0  0  0
   -0.0128   28.1847  -25.0392 H   0  0  0  0  0  0  0  0  0  0  0  0
    0.1801   26.2735  -22.1281 H   0  0  0  0  0  0  0  0  0  0  0  0
    0.5472   27.8459  -22.9150 H   0  0  0  0  0  0  0  0  0  0  0  0
   -1.1336   27.2123  -22.9150 H   0  0  0  0  0  0  0  0  0  0  0  0
    2.0180   25.7918  -23.2568 H   0  0  0  0  0  0  0  0  0  0  0  0
    1.7707   24.9276  -24.8120 H   0  0  0  0  0  0  0  0  0  0  0  0
    2.1941   26.6733  -24.8120 H   0  0  0  0  0  0  0  0  0  0  0  0
   -0.0703   24.1714  -23.8125 H   0  0  0  0  0  0  0  0  0  0  0  0
   -1.5769   25.1836  -23.7736 H   0  0  0  0  0  0  0  0  0  0  0  0
   -0.0220   24.4173  -26.2909 H   0  0  0  0  0  0  0  0  0  0  0  0
   -1.5594   23.6436  -25.6889 H   0  0  0  0  0  0  0  0  0  0  0  0
   -5.4469   26.0072  -29.6711 H   0  0  0  0  0  0  0  0  0  0  0  0
   -7.5324   24.9609  -30.5091 H   0  0  0  0  0  0  0  0  0  0  0  0
  1  2  1  0
  2  3  2  0
  3  4  1  0
  4  5  2  0
  5  6  1  0
  6  7  2  0
  7  8  1  0
  8  9  2  0
  9 10  1  0
 10 11  1  0
 11 12  1  0
 12 13  1  0
 13 14  1  0
 13 15  1  0
  9 16  1  0
 16 17  2  0
 17 18  1  0
 18 19  1  0
 19 20  1  0
 20 21  1  0
 21 22  1  0
 22 23  1  0
 22 24  1  0
 24 25  1  0
 25 26  1  0
 26 27  1  0
 26 28  1  0
 26 29  1  0
 29 30  1  0
 18 31  2  0
 31 32  1  0
 32 33  2  0
 33  2  1  0
  8  3  1  0
 33 16  1  0
 30 22  1  0
  1 34  1  0
  1 35  1  0
  1 36  1  0
  4 37  1  0
  5 38  1  0
  6 39  1  0
  7 40  1  0
 10 41  1  0
 11 42  1  0
 11 43  1  0
 12 44  1  0
 12 45  1  0
 13 46  1  0
 14 47  1  0
 14 48  1  0
 14 49  1  0
 15 50  1  0
 15 51  1  0
 15 52  1  0
 17 53  1  0
 20 54  1  0
 20 55  1  0
 21 56  1  0
 21 57  1  0
 23 58  1  0
 23 59  1  0
 23 60  1  0
 24 61  1  0
 24 62  1  0
 25 63  1  0
 25 64  1  0
 27 65  1  0
 27 66  1  0
 27 67  1  0
 28 68  1  0
 28 69  1  0
 28 70  1  0
 29 71  1  0
 29 72  1  0
 30 73  1  0
 30 74  1  0
 31 75  1  0
 32 76  1  0
M  CHG  5   2   1  13   1  16   1  22   1  26   1
M  END
>  <UniqueID>  (8) 
7

>  <SMILES>  (8) 
C[n+]1c2ccccc2c(NCC[NH+](C)C)[n+]2cc(OCC[N+]3(C)CC[N+](C)(C)CC3)ccc12

>  <Energy>  (8) 
136.2498982504455

>  <Genealogy>  (8) 
C[n+]1c2ccccc2c(NCC[NH+](C)C)[n+]2cc(OCC[N+]3(C)CC[N+](C)(C)CC3)ccc12 (protonated)
C[n+]1c2ccccc2c(NCC[NH+](C)C)[n+]2cc(OCC[N+]3(C)CC[N+](C)(C)CC3)ccc12 (3D coordinates assigned)
C[n+]1c2ccccc2c(NCC[NH+](C)C)[n+]2cc(OCC[N+]3(C)CC[N+](C)(C)CC3)ccc12 (nonaromatic ring conformer: 136.2498982504455 kcal/mol)

>  <smiles>  (8) 
CN(C)CCNc1c2ccccc2[n+](C)c2ccc(OCC[N+]3(C)CC[N+](C)(C)CC3)c[n+]12

>  <score_type>  (8) 
oracle

>  <origin>  (8) 
adg

>  <m_score__min__energy>  (8) 
-7.3300000000000001

>  <m_primary>  (8) 
energy

$$$$
8:0
     RDKit          3D

 62 63  0  0  0  0  0  0  0  0999 V2000
   -0.8830   21.6340  -31.0980 C   0  0  0  0  0  0  0  0  0  0  0  0
   -1.8940   21.1360  -30.0510 C   0  0  0  0  0  0  0  0  0  0  0  0
   -2.7820   22.1830  -29.4850 N   0  0  0  0  0  0  0  0  0  0  0  0
   -3.2760   21.9070  -28.1190 C   0  0  0  0  0  0  0  0  0  0  0  0
   -2.7820   20.5780  -27.5460 C   0  0  0  0  0  0  0  0  0  0  0  0
   -2.3930   23.5900  -29.7190 C   0  0  0  0  0  0  0  0  0  0  0  0
   -3.5370   24.5380  -29.3490 C   0  0  0  0  0  0  0  0  0  0  0  0
   -3.8740   25.3310  -30.4680 O   0  0  0  0  0  0  0  0  0  0  0  0
   -5.2320   25.1410  -30.8200 C   0  0  0  0  0  0  0  0  0  0  0  0
   -5.5310   23.6550  -31.0630 C   0  0  0  0  0  0  0  0  0  0  0  0
   -4.5480   23.0640  -31.9150 O   0  0  0  0  0  0  0  0  0  0  0  0
   -4.6380   21.8060  -32.5320 C   0  0  0  0  0  0  0  0  0  0  0  0
   -5.8650   21.2000  -32.8430 C   0  0  0  0  0  0  0  0  0  0  0  0
   -5.9030   19.9230  -33.4320 C   0  0  0  0  0  0  0  0  0  0  0  0
   -7.1930   19.3020  -33.6650 N   0  0  0  0  0  0  0  0  0  0  0  0
   -7.5980   18.5180  -32.4850 C   0  0  0  0  0  0  0  0  0  0  0  0
   -8.6260   19.2810  -31.6060 C   0  0  0  0  0  0  0  0  0  0  0  0
   -8.7300   20.7320  -31.8760 N   0  0  0  0  0  0  0  0  0  0  0  0
  -10.0740   21.1470  -32.3010 C   0  0  0  0  0  0  0  0  0  0  0  0
   -8.2280   21.5690  -30.7740 C   0  0  0  0  0  0  0  0  0  0  0  0
   -4.6770   19.2620  -33.7080 C   0  0  0  0  0  0  0  0  0  0  0  0
   -4.6080   17.9700  -34.2730 C   0  0  0  0  0  0  0  0  0  0  0  0
   -3.3720   17.3730  -34.5340 C   0  0  0  0  0  0  0  0  0  0  0  0
   -2.1870   18.0470  -34.2380 C   0  0  0  0  0  0  0  0  0  0  0  0
   -2.2320   19.3210  -33.6700 C   0  0  0  0  0  0  0  0  0  0  0  0
   -3.4640   19.9290  -33.4020 C   0  0  0  0  0  0  0  0  0  0  0  0
   -3.4840   21.1620  -32.8340 N   0  0  0  0  0  0  0  0  0  0  0  0
   -0.0088   22.0646  -30.5878 H   0  0  0  0  0  0  0  0  0  0  0  0
   -0.5618   20.7910  -31.7275 H   0  0  0  0  0  0  0  0  0  0  0  0
   -1.3555   22.4025  -31.7275 H   0  0  0  0  0  0  0  0  0  0  0  0
   -2.5274   20.3719  -30.5254 H   0  0  0  0  0  0  0  0  0  0  0  0
   -1.2991   20.7512  -29.2096 H   0  0  0  0  0  0  0  0  0  0  0  0
   -2.9387   22.7180  -27.4568 H   0  0  0  0  0  0  0  0  0  0  0  0
   -4.3726   21.8446  -28.1791 H   0  0  0  0  0  0  0  0  0  0  0  0
   -2.7989   20.6236  -26.4471 H   0  0  0  0  0  0  0  0  0  0  0  0
   -3.4377   19.7643  -27.8894 H   0  0  0  0  0  0  0  0  0  0  0  0
   -1.7540   20.3902  -27.8894 H   0  0  0  0  0  0  0  0  0  0  0  0
   -1.5133   23.8284  -29.1031 H   0  0  0  0  0  0  0  0  0  0  0  0
   -2.1589   23.7188  -30.7861 H   0  0  0  0  0  0  0  0  0  0  0  0
   -4.4138   23.9506  -29.0388 H   0  0  0  0  0  0  0  0  0  0  0  0
   -3.2194   25.1892  -28.5213 H   0  0  0  0  0  0  0  0  0  0  0  0
   -5.8708   25.5082  -30.0032 H   0  0  0  0  0  0  0  0  0  0  0  0
   -5.4365   25.6973  -31.7467 H   0  0  0  0  0  0  0  0  0  0  0  0
   -5.5340   23.1269  -30.0981 H   0  0  0  0  0  0  0  0  0  0  0  0
   -6.5124   23.5722  -31.5528 H   0  0  0  0  0  0  0  0  0  0  0  0
   -6.8049   21.7279  -32.6244 H   0  0  0  0  0  0  0  0  0  0  0  0
   -7.1720   18.7070  -34.5220 H   0  0  0  0  0  0  0  0  0  0  0  0
   -7.9060   20.0470  -33.8450 H   0  0  0  0  0  0  0  0  0  0  0  0
   -8.0510   17.5745  -32.8236 H   0  0  0  0  0  0  0  0  0  0  0  0
   -6.7012   18.3320  -31.8759 H   0  0  0  0  0  0  0  0  0  0  0  0
   -9.6162   18.8318  -31.7726 H   0  0  0  0  0  0  0  0  0  0  0  0
   -8.2706   19.1877  -30.5692 H   0  0  0  0  0  0  0  0  0  0  0  0
  -10.6960   21.3391  -31.4143 H   0  0  0  0  0  0  0  0  0  0  0  0
  -10.0011   22.0645  -32.9034 H   0  0  0  0  0  0  0  0  0  0  0  0
  -10.5311   20.3481  -32.9034 H   0  0  0  0  0  0  0  0  0  0  0  0
   -8.5023   21.1117  -29.8119 H   0  0  0  0  0  0  0  0  0  0  0  0
   -7.1331   21.6484  -30.8433 H   0  0  0  0  0  0  0  0  0  0  0  0
   -8.6735   22.5723  -30.8433 H   0  0  0  0  0  0  0  0  0  0  0  0
   -5.5357   17.4285  -34.5099 H   0  0  0  0  0  0  0  0  0  0  0  0
   -3.3331   16.3661  -34.9753 H   0  0  0  0  0  0  0  0  0  0  0  0
   -1.2171   17.5743  -34.4523 H   0  0  0  0  0  0  0  0  0  0  0  0
   -1.2967   19.8488  -33.4322 H   0  0  0  0  0  0  0  0  0  0  0  0
  1  2  1  0
  2  3  1  0
  3  4  1  0
  4  5  1  0
  3  6  1  0
  6  7  1  0
  7  8  1  0
  8  9  1  0
  9 10  1  0
 10 11  1  0
 11 12  1  0
 12 13  2  0
 13 14  1  0
 14 15  1  0
 15 16  1  0
 16 17  1  0
 17 18  1  0
 18 19  1  0
 18 20  1  0
 14 21  2  0
 21 22  1  0
 22 23  2  0
 23 24  1  0
 24 25  2  0
 25 26  1  0
 26 27  2  0
 27 12  1  0
 26 21  1  0
  1 28  1  0
  1 29  1  0
  1 30  1  0
  2 31  1  0
  2 32  1  0
  4 33  1  0
  4 34  1  0
  5 35  1  0
  5 36  1  0
  5 37  1  0
  6 38  1  0
  6 39  1  0
  7 40  1  0
  7 41  1  0
  9 42  1  0
  9 43  1  0
 10 44  1  0
 10 45  1  0
 13 46  1  0
 15 47  1  0
 15 48  1  0
 16 49  1  0
 16 50  1  0
 17 51  1  0
 17 52  1  0
 19 53  1  0
 19 54  1  0
 19 55  1  0
 20 56  1  0
 20 57  1  0
 20 58  1  0
 22 59  1  0
 23 60  1  0
 24 61  1  0
 25 62  1  0
M  CHG  1  15   1
M  END
>  <UniqueID>  (9) 
8

>  <SMILES>  (9) 
CCN(CC)CCOCCOc1cc([NH2+]CCN(C)C)c2ccccc2n1

>  <Energy>  (9) 
75.06855340919188

>  <Genealogy>  (9) 
CCN(CC)CCOCCOc1cc([NH2+]CCN(C)C)c2ccccc2n1 (protonated)
CCN(CC)CCOCCOc1cc([NH2+]CCN(C)C)c2ccccc2n1 (3D coordinates assigned)
CCN(CC)CCOCCOc1cc([NH2+]CCN(C)C)c2ccccc2n1 (optimized conformer: 75.06855340919188 kcal/mol)

>  <smiles>  (9) 
CCN(CC)CCOCCOc1cc(NCCN(C)C)c2ccccc2n1

>  <score_type>  (9) 
oracle

>  <origin>  (9) 
adg

>  <m_score__min__energy>  (9) 
-7.3499999999999996

>  <m_primary>  (9) 
energy

$$$$
9:0
     RDKit          3D

 75 78  0  0  0  0  0  0  0  0999 V2000
   -6.8500   24.8210  -29.9110 C   0  0  0  0  0  0  0  0  0  0  0  0
   -5.6890   25.7170  -30.3510 C   0  0  0  0  0  0  0  0  0  0  0  0
   -4.6760   24.9870  -31.1310 N   0  0  0  0  0  0  0  0  0  0  0  0
   -3.8850   24.0770  -30.2930 C   0  0  0  0  0  0  0  0  0  0  0  0
   -4.2220   22.6260  -30.6360 C   0  0  0  0  0  0  0  0  0  0  0  0
   -4.9070   22.5410  -31.9240 N   0  0  0  0  0  0  0  0  0  0  0  0
   -5.5200   21.3100  -32.3340 C   0  0  0  0  0  0  0  0  0  0  0  0
   -6.9050   21.1340  -32.1940 C   0  0  0  0  0  0  0  0  0  0  0  0
   -7.7180   22.1780  -31.7040 C   0  0  0  0  0  0  0  0  0  0  0  0
   -9.0970   22.0160  -31.6070 C   0  0  0  0  0  0  0  0  0  0  0  0
   -9.6890   20.8230  -32.0070 C   0  0  0  0  0  0  0  0  0  0  0  0
   -8.9020   19.7730  -32.4810 C   0  0  0  0  0  0  0  0  0  0  0  0
   -7.4910   19.8910  -32.5530 C   0  0  0  0  0  0  0  0  0  0  0  0
   -6.6900   18.8420  -32.9690 N   0  0  0  0  0  0  0  0  0  0  0  0
   -7.2530   17.4760  -33.0620 C   0  0  0  0  0  0  0  0  0  0  0  0
   -5.3600   19.0670  -33.2740 C   0  0  0  0  0  0  0  0  0  0  0  0
   -4.5720   18.0990  -33.9470 C   0  0  0  0  0  0  0  0  0  0  0  0
   -3.2230   18.3260  -34.2170 C   0  0  0  0  0  0  0  0  0  0  0  0
   -2.6180   19.5360  -33.8490 C   0  0  0  0  0  0  0  0  0  0  0  0
   -1.2660   19.8210  -34.1020 O   0  0  0  0  0  0  0  0  0  0  0  0
   -0.5120   20.8830  -33.5150 C   0  0  0  0  0  0  0  0  0  0  0  0
   -0.3270   20.6430  -31.9980 C   0  0  0  0  0  0  0  0  0  0  0  0
    0.3990   19.3850  -31.6250 N   0  0  0  0  0  0  0  0  0  0  0  0
    0.9520   19.6150  -30.2600 C   0  0  0  0  0  0  0  0  0  0  0  0
   -0.5460   18.2150  -31.5650 C   0  0  0  0  0  0  0  0  0  0  0  0
   -0.2480   17.1210  -32.6130 C   0  0  0  0  0  0  0  0  0  0  0  0
    1.1610   16.6280  -32.5520 N   0  0  0  0  0  0  0  0  0  0  0  0
    1.4390   15.8850  -33.8090 C   0  0  0  0  0  0  0  0  0  0  0  0
    1.3070   15.6740  -31.4240 C   0  0  0  0  0  0  0  0  0  0  0  0
    2.1570   17.7450  -32.3990 C   0  0  0  0  0  0  0  0  0  0  0  0
    1.5380   19.1470  -32.5650 C   0  0  0  0  0  0  0  0  0  0  0  0
   -3.3830   20.5090  -33.2090 C   0  0  0  0  0  0  0  0  0  0  0  0
   -4.7480   20.3000  -32.9290 C   0  0  0  0  0  0  0  0  0  0  0  0
   -6.8921   24.7885  -28.8123 H   0  0  0  0  0  0  0  0  0  0  0  0
   -7.7947   25.2264  -30.3023 H   0  0  0  0  0  0  0  0  0  0  0  0
   -6.6973   23.8044  -30.3023 H   0  0  0  0  0  0  0  0  0  0  0  0
   -6.0890   26.5339  -30.9696 H   0  0  0  0  0  0  0  0  0  0  0  0
   -5.1995   26.0988  -29.4429 H   0  0  0  0  0  0  0  0  0  0  0  0
   -4.0350   25.6740  -31.5940 H   0  0  0  0  0  0  0  0  0  0  0  0
   -2.8143   24.2546  -30.4722 H   0  0  0  0  0  0  0  0  0  0  0  0
   -4.1216   24.2626  -29.2349 H   0  0  0  0  0  0  0  0  0  0  0  0
   -3.2913   22.0416  -30.6836 H   0  0  0  0  0  0  0  0  0  0  0  0
   -4.8872   22.2257  -29.8567 H   0  0  0  0  0  0  0  0  0  0  0  0
   -5.0560   23.3940  -32.5110 H   0  0  0  0  0  0  0  0  0  0  0  0
   -7.2578   23.1284  -31.3959 H   0  0  0  0  0  0  0  0  0  0  0  0
   -9.7195   22.8330  -31.2133 H   0  0  0  0  0  0  0  0  0  0  0  0
  -10.7813   20.7068  -31.9495 H   0  0  0  0  0  0  0  0  0  0  0  0
   -9.3840   18.8385  -32.8041 H   0  0  0  0  0  0  0  0  0  0  0  0
   -7.4173   17.0774  -32.0500 H   0  0  0  0  0  0  0  0  0  0  0  0
   -8.2104   17.5100  -33.6026 H   0  0  0  0  0  0  0  0  0  0  0  0
   -6.5497   16.8255  -33.6026 H   0  0  0  0  0  0  0  0  0  0  0  0
   -5.0335   17.1515  -34.2619 H   0  0  0  0  0  0  0  0  0  0  0  0
   -2.6292   17.5501  -34.7224 H   0  0  0  0  0  0  0  0  0  0  0  0
    0.4758   20.9345  -33.9963 H   0  0  0  0  0  0  0  0  0  0  0  0
   -1.0555   21.8281  -33.6617 H   0  0  0  0  0  0  0  0  0  0  0  0
    0.2366   21.4936  -31.5870 H   0  0  0  0  0  0  0  0  0  0  0  0
   -1.3408   20.5395  -31.5838 H   0  0  0  0  0  0  0  0  0  0  0  0
    0.2112   19.3069  -29.5075 H   0  0  0  0  0  0  0  0  0  0  0  0
    1.8714   19.0246  -30.1326 H   0  0  0  0  0  0  0  0  0  0  0  0
    1.1816   20.6832  -30.1326 H   0  0  0  0  0  0  0  0  0  0  0  0
   -0.4775   17.7645  -30.5638 H   0  0  0  0  0  0  0  0  0  0  0  0
   -1.5519   18.6032  -31.7832 H   0  0  0  0  0  0  0  0  0  0  0  0
   -0.9251   16.2722  -32.4370 H   0  0  0  0  0  0  0  0  0  0  0  0
   -0.4001   17.5655  -33.6076 H   0  0  0  0  0  0  0  0  0  0  0  0
    1.8149   14.8803  -33.5656 H   0  0  0  0  0  0  0  0  0  0  0  0
    0.5127   15.7977  -34.3958 H   0  0  0  0  0  0  0  0  0  0  0  0
    2.1951   16.4272  -34.3958 H   0  0  0  0  0  0  0  0  0  0  0  0
    1.2238   16.2173  -30.4712 H   0  0  0  0  0  0  0  0  0  0  0  0
    0.5149   14.9130  -31.4825 H   0  0  0  0  0  0  0  0  0  0  0  0
    2.2905   15.1848  -31.4825 H   0  0  0  0  0  0  0  0  0  0  0  0
    2.6040   17.6781  -31.3961 H   0  0  0  0  0  0  0  0  0  0  0  0
    2.9041   17.6243  -33.1973 H   0  0  0  0  0  0  0  0  0  0  0  0
    2.3160   19.9010  -32.3746 H   0  0  0  0  0  0  0  0  0  0  0  0
    1.1463   19.2203  -33.5903 H   0  0  0  0  0  0  0  0  0  0  0  0
   -2.9120   21.4591  -32.9166 H   0  0  0  0  0  0  0  0  0  0  0  0
  1  2  1  0
  2  3  1  0
  3  4  1  0
  4  5  1  0
  5  6  1  0
  6  7  1  0
  7  8  2  0
  8  9  1  0
  9 10  2  0
 10 11  1  0
 11 12  2  0
 12 13  1  0
 13 14  2  0
 14 15  1  0
 14 16  1  0
 16 17  2  0
 17 18  1  0
 18 19  2  0
 19 20  1  0
 20 21  1  0
 21 22  1  0
 22 23  1  0
 23 24  1  0
 23 25  1  0
 25 26  1  0
 26 27  1  0
 27 28  1  0
 27 29  1  0
 27 30  1  0
 30 31  1  0
 19 32  1  0
 32 33  2  0
 33  7  1  0
 13  8  1  0
 33 16  1  0
 31 23  1  0
  1 34  1  0
  1 35  1  0
  1 36  1  0
  2 37  1  0
  2 38  1  0
  3 39  1  0
  4 40  1  0
  4 41  1  0
  5 42  1  0
  5 43  1  0
  6 44  1  0
  9 45  1  0
 10 46  1  0
 11 47  1  0
 12 48  1  0
 15 49  1  0
 15 50  1  0
 15 51  1  0
 17 52  1  0
 18 53  1  0
 21 54  1  0
 21 55  1  0
 22 56  1  0
 22 57  1  0
 24 58  1  0
 24 59  1  0
 24 60  1  0
 25 61  1  0
 25 62  1  0
 26 63  1  0
 26 64  1  0
 28 65  1  0
 28 66  1  0
 28 67  1  0
 29 68  1  0
 29 69  1  0
 29 70  1  0
 30 71  1  0
 30 72  1  0
 31 73  1  0
 31 74  1  0
 32 75  1  0
M  CHG  3  14   1  23   1  27   1
M  END
>  <UniqueID>  (10) 
9

>  <SMILES>  (10) 
CCNCCNc1c2ccccc2[n+](C)c2ccc(OCC[N+]3(C)CC[N+](C)(C)CC3)cc12

>  <Energy>  (10) 
127.56316189622886

>  <Genealogy>  (10) 
CCNCCNc1c2ccccc2[n+](C)c2ccc(OCC[N+]3(C)CC[N+](C)(C)CC3)cc12 (3D coordinates assigned)
CCNCCNc1c2ccccc2[n+](C)c2ccc(OCC[N+]3(C)CC[N+](C)(C)CC3)cc12 (nonaromatic ring conformer: 127.56316189622886 kcal/mol)

>  <smiles>  (10) 
CCNCCNc1c2ccccc2[n+](C)c2ccc(OCC[N+]3(C)CC[N+](C)(C)CC3)cc12

>  <score_type>  (10) 
oracle

>  <origin>  (10) 
adg

>  <m_score__min__energy>  (10) 
-9.0600000000000005

>  <m_primary>  (10) 
energy

$$$$
10:0
     RDKit          3D

 50 51  0  0  0  0  0  0  0  0999 V2000
   -1.5380   21.6890  -27.0820 C   0  0  0  0  0  0  0  0  0  0  0  0
   -0.9930   23.0170  -27.4960 C   0  0  0  0  0  0  0  0  0  0  0  0
    0.2540   23.2030  -27.9720 N   0  0  0  0  0  0  0  0  0  0  0  0
    0.3850   24.4750  -28.2160 O   0  0  0  0  0  0  0  0  0  0  0  0
   -0.7150   25.1300  -27.9250 C   0  0  0  0  0  0  0  0  0  0  0  0
   -0.8860   26.6060  -28.0790 C   0  0  0  0  0  0  0  0  0  0  0  0
   -1.6520   24.2330  -27.4520 C   0  0  0  0  0  0  0  0  0  0  0  0
   -3.0430   24.5230  -26.9620 C   0  0  0  0  0  0  0  0  0  0  0  0
   -4.0260   24.3010  -28.0320 N   0  0  0  0  0  0  0  0  0  0  0  0
   -3.5670   23.3240  -29.0340 C   0  0  0  0  0  0  0  0  0  0  0  0
   -3.1520   23.9880  -30.3530 C   0  0  0  0  0  0  0  0  0  0  0  0
   -3.8630   25.2490  -30.5050 N   0  0  0  0  0  0  0  0  0  0  0  0
   -5.2910   25.3370  -30.5120 C   0  0  0  0  0  0  0  0  0  0  0  0
   -5.8880   26.0920  -29.6970 O   0  0  0  0  0  0  0  0  0  0  0  0
   -6.0770   24.5300  -31.4970 C   0  0  0  0  0  0  0  0  0  0  0  0
   -7.0970   23.5960  -30.8190 C   0  0  0  0  0  0  0  0  0  0  0  0
   -7.5420   22.4050  -31.7060 C   0  0  0  0  0  0  0  0  0  0  0  0
   -6.4520   21.3120  -31.7230 C   0  0  0  0  0  0  0  0  0  0  0  0
   -6.8040   20.1680  -32.6960 C   0  0  0  0  0  0  0  0  0  0  0  0
   -8.3180   19.8980  -32.8080 C   0  0  0  0  0  0  0  0  0  0  0  0
   -9.0560   20.3020  -31.5280 C   0  0  0  0  0  0  0  0  0  0  0  0
   -8.9080   21.8100  -31.2500 C   0  0  0  0  0  0  0  0  0  0  0  0
   -1.5626   21.6289  -25.9839 H   0  0  0  0  0  0  0  0  0  0  0  0
   -2.5572   21.5711  -27.4786 H   0  0  0  0  0  0  0  0  0  0  0  0
   -0.8954   20.8891  -27.4786 H   0  0  0  0  0  0  0  0  0  0  0  0
   -0.9403   27.0745  -27.0852 H   0  0  0  0  0  0  0  0  0  0  0  0
   -0.0296   27.0186  -28.6326 H   0  0  0  0  0  0  0  0  0  0  0  0
   -1.8140   26.8118  -28.6326 H   0  0  0  0  0  0  0  0  0  0  0  0
   -3.2738   23.8591  -26.1158 H   0  0  0  0  0  0  0  0  0  0  0  0
   -3.0951   25.5753  -26.6458 H   0  0  0  0  0  0  0  0  0  0  0  0
   -4.2300   25.2160  -28.4990 H   0  0  0  0  0  0  0  0  0  0  0  0
   -2.7029   22.7793  -28.6259 H   0  0  0  0  0  0  0  0  0  0  0  0
   -4.4063   22.6465  -29.2498 H   0  0  0  0  0  0  0  0  0  0  0  0
   -2.0683   24.1767  -30.3437 H   0  0  0  0  0  0  0  0  0  0  0  0
   -3.4007   23.3228  -31.1930 H   0  0  0  0  0  0  0  0  0  0  0  0
   -6.6180   25.2177  -32.1636 H   0  0  0  0  0  0  0  0  0  0  0  0
   -5.3671   23.9000  -32.0529 H   0  0  0  0  0  0  0  0  0  0  0  0
   -6.6425   23.1941  -29.9014 H   0  0  0  0  0  0  0  0  0  0  0  0
   -7.9956   24.1970  -30.6159 H   0  0  0  0  0  0  0  0  0  0  0  0
   -7.6813   22.7897  -32.7271 H   0  0  0  0  0  0  0  0  0  0  0  0
   -5.4990   21.7642  -32.0348 H   0  0  0  0  0  0  0  0  0  0  0  0
   -6.3759   20.8888  -30.7105 H   0  0  0  0  0  0  0  0  0  0  0  0
   -6.4226   20.4302  -33.6939 H   0  0  0  0  0  0  0  0  0  0  0  0
   -6.3412   19.2525  -32.2990 H   0  0  0  0  0  0  0  0  0  0  0  0
   -8.7228   20.4762  -33.6517 H   0  0  0  0  0  0  0  0  0  0  0  0
   -8.4657   18.8195  -32.9660 H   0  0  0  0  0  0  0  0  0  0  0  0
  -10.1236   20.0609  -31.6384 H   0  0  0  0  0  0  0  0  0  0  0  0
   -8.6177   19.7484  -30.6846 H   0  0  0  0  0  0  0  0  0  0  0  0
   -9.7117   22.3407  -31.7815 H   0  0  0  0  0  0  0  0  0  0  0  0
   -8.9650   21.9407  -30.1593 H   0  0  0  0  0  0  0  0  0  0  0  0
  1  2  1  0
  2  3  2  0
  3  4  1  0
  4  5  1  0
  5  6  1  0
  5  7  2  0
  7  8  1  0
  8  9  1  0
  9 10  1  0
 10 11  1  0
 11 12  1  0
 12 13  1  0
 13 14  2  0
 13 15  1  0
 15 16  1  0
 16 17  1  0
 17 18  1  0
 18 19  1  0
 19 20  1  0
 20 21  1  0
 21 22  1  0
  7  2  1  0
 22 17  1  0
  1 23  1  0
  1 24  1  0
  1 25  1  0
  6 26  1  0
  6 27  1  0
  6 28  1  0
  8 29  1  0
  8 30  1  0
  9 31  1  0
 10 32  1  0
 10 33  1  0
 11 34  1  0
 11 35  1  0
 15 36  1  0
 15 37  1  0
 16 38  1  0
 16 39  1  0
 17 40  1  0
 18 41  1  0
 18 42  1  0
 19 43  1  0
 19 44  1  0
 20 45  1  0
 20 46  1  0
 21 47  1  0
 21 48  1  0
 22 49  1  0
 22 50  1  0
M  CHG  1  12  -1
M  END
>  <UniqueID>  (11) 
10

>  <SMILES>  (11) 
Cc1noc(C)c1CNCC[N-]C(=O)CCC1CCCCC1

>  <Energy>  (11) 
69.06470531613454

>  <Genealogy>  (11) 
Cc1noc(C)c1CNCC[N-]C(=O)CCC1CCCCC1 (protonated)
Cc1noc(C)c1CNCC[N-]C(=O)CCC1CCCCC1 (3D coordinates assigned)
Cc1noc(C)c1CNCC[N-]C(=O)CCC1CCCCC1 (nonaromatic ring conformer: 69.06470531613454 kcal/mol)

>  <smiles>  (11) 
Cc1noc(C)c1CNCCNC(=O)CCC1CCCCC1

>  <score_type>  (11) 
oracle

>  <origin>  (11) 
adg

>  <m_score__min__energy>  (11) 
-10.35

>  <m_primary>  (11) 
energy

$$$$
11:0
     RDKit          3D

 61 63  0  0  0  0  0  0  0  0999 V2000
   -1.2160   26.3220  -24.5240 C   0  0  0  0  0  0  0  0  0  0  0  0
   -1.1680   26.6810  -26.0070 C   0  0  0  0  0  0  0  0  0  0  0  0
   -1.9950   25.7500  -26.8020 N   0  0  0  0  0  0  0  0  0  0  0  0
   -3.1620   25.3180  -26.0160 C   0  0  0  0  0  0  0  0  0  0  0  0
   -1.2220   24.5780  -27.2850 C   0  0  0  0  0  0  0  0  0  0  0  0
   -1.2490   24.5220  -28.8160 C   0  0  0  0  0  0  0  0  0  0  0  0
   -2.3240   25.2760  -29.3480 O   0  0  0  0  0  0  0  0  0  0  0  0
   -3.4340   24.4550  -29.6660 C   0  0  0  0  0  0  0  0  0  0  0  0
   -4.5840   25.2950  -30.2340 C   0  0  0  0  0  0  0  0  0  0  0  0
   -5.3730   24.5390  -31.1330 O   0  0  0  0  0  0  0  0  0  0  0  0
   -6.6250   24.2200  -30.5570 C   0  0  0  0  0  0  0  0  0  0  0  0
   -7.5100   23.5310  -31.6040 C   0  0  0  0  0  0  0  0  0  0  0  0
   -6.6940   22.9730  -32.6790 N   0  0  0  0  0  0  0  0  0  0  0  0
   -6.3190   21.5900  -32.6650 C   0  0  0  0  0  0  0  0  0  0  0  0
   -5.0410   21.0600  -32.7900 C   0  0  0  0  0  0  0  0  0  0  0  0
   -3.7690   21.8050  -33.0780 C   0  0  0  0  0  0  0  0  0  0  0  0
   -2.7540   21.5740  -31.9890 C   0  0  0  0  0  0  0  0  0  0  0  0
   -3.1730   21.3940  -30.6590 C   0  0  0  0  0  0  0  0  0  0  0  0
   -2.2350   21.1970  -29.6430 C   0  0  0  0  0  0  0  0  0  0  0  0
   -0.8720   21.1760  -29.9430 C   0  0  0  0  0  0  0  0  0  0  0  0
   -0.4440   21.3600  -31.2600 C   0  0  0  0  0  0  0  0  0  0  0  0
   -1.3790   21.5570  -32.2810 C   0  0  0  0  0  0  0  0  0  0  0  0
   -5.1080   19.7060  -32.7240 N   0  0  0  0  0  0  0  0  0  0  0  0
   -6.4220   19.4590  -32.5430 C   0  0  0  0  0  0  0  0  0  0  0  0
   -6.9970   18.2010  -32.3760 C   0  0  0  0  0  0  0  0  0  0  0  0
   -8.3840   18.1400  -32.1690 C   0  0  0  0  0  0  0  0  0  0  0  0
   -9.1510   19.3200  -32.1380 C   0  0  0  0  0  0  0  0  0  0  0  0
   -8.5200   20.5600  -32.3110 C   0  0  0  0  0  0  0  0  0  0  0  0
   -7.1770   20.5710  -32.5100 N   0  0  0  0  0  0  0  0  0  0  0  0
   -1.0940   27.2344  -23.9217 H   0  0  0  0  0  0  0  0  0  0  0  0
   -2.1845   25.8555  -24.2908 H   0  0  0  0  0  0  0  0  0  0  0  0
   -0.4041   25.6174  -24.2908 H   0  0  0  0  0  0  0  0  0  0  0  0
   -1.5472   27.7047  -26.1422 H   0  0  0  0  0  0  0  0  0  0  0  0
   -0.1262   26.6083  -26.3526 H   0  0  0  0  0  0  0  0  0  0  0  0
   -2.9333   25.4026  -24.9434 H   0  0  0  0  0  0  0  0  0  0  0  0
   -4.0242   25.9565  -26.2586 H   0  0  0  0  0  0  0  0  0  0  0  0
   -3.4006   24.2720  -26.2586 H   0  0  0  0  0  0  0  0  0  0  0  0
   -0.1801   24.6636  -26.9427 H   0  0  0  0  0  0  0  0  0  0  0  0
   -1.6744   23.6591  -26.8838 H   0  0  0  0  0  0  0  0  0  0  0  0
   -0.3028   24.9267  -29.2045 H   0  0  0  0  0  0  0  0  0  0  0  0
   -1.3823   23.4730  -29.1190 H   0  0  0  0  0  0  0  0  0  0  0  0
   -3.1285   23.7084  -30.4139 H   0  0  0  0  0  0  0  0  0  0  0  0
   -3.7797   23.9565  -28.7484 H   0  0  0  0  0  0  0  0  0  0  0  0
   -5.2179   25.6429  -29.4051 H   0  0  0  0  0  0  0  0  0  0  0  0
   -4.1559   26.1492  -30.7790 H   0  0  0  0  0  0  0  0  0  0  0  0
   -6.4738   23.5437  -29.7027 H   0  0  0  0  0  0  0  0  0  0  0  0
   -7.1155   25.1424  -30.2127 H   0  0  0  0  0  0  0  0  0  0  0  0
   -8.0763   22.7205  -31.1219 H   0  0  0  0  0  0  0  0  0  0  0  0
   -8.1991   24.2746  -32.0309 H   0  0  0  0  0  0  0  0  0  0  0  0
   -6.7500   23.4470  -33.6090 H   0  0  0  0  0  0  0  0  0  0  0  0
   -3.3558   21.4558  -34.0358 H   0  0  0  0  0  0  0  0  0  0  0  0
   -3.9943   22.8806  -33.1269 H   0  0  0  0  0  0  0  0  0  0  0  0
   -4.2460   21.4084  -30.4172 H   0  0  0  0  0  0  0  0  0  0  0  0
   -2.5710   21.0582  -28.6048 H   0  0  0  0  0  0  0  0  0  0  0  0
   -0.1350   21.0146  -29.1425 H   0  0  0  0  0  0  0  0  0  0  0  0
    0.6307   21.3499  -31.4944 H   0  0  0  0  0  0  0  0  0  0  0  0
   -1.0372   21.6992  -33.3168 H   0  0  0  0  0  0  0  0  0  0  0  0
   -6.3853   17.2873  -32.4053 H   0  0  0  0  0  0  0  0  0  0  0  0
   -8.8741   17.1651  -32.0303 H   0  0  0  0  0  0  0  0  0  0  0  0
  -10.2383   19.2695  -31.9791 H   0  0  0  0  0  0  0  0  0  0  0  0
   -9.0962   21.4967  -32.2862 H   0  0  0  0  0  0  0  0  0  0  0  0
  1  2  1  0
  2  3  1  0
  3  4  1  0
  3  5  1  0
  5  6  1  0
  6  7  1  0
  7  8  1  0
  8  9  1  0
  9 10  1  0
 10 11  1  0
 11 12  1  0
 12 13  1  0
 13 14  1  0
 14 15  2  0
 15 16  1  0
 16 17  1  0
 17 18  2  0
 18 19  1  0
 19 20  2  0
 20 21  1  0
 21 22  2  0
 15 23  1  0
 23 24  2  0
 24 25  1  0
 25 26  2  0
 26 27  1  0
 27 28  2  0
 28 29  1  0
 29 14  1  0
 22 17  1  0
 29 24  1  0
  1 30  1  0
  1 31  1  0
  1 32  1  0
  2 33  1  0
  2 34  1  0
  4 35  1  0
  4 36  1  0
  4 37  1  0
  5 38  1  0
  5 39  1  0
  6 40  1  0
  6 41  1  0
  8 42  1  0
  8 43  1  0
  9 44  1  0
  9 45  1  0
 11 46  1  0
 11 47  1  0
 12 48  1  0
 12 49  1  0
 13 50  1  0
 16 51  1  0
 16 52  1  0
 18 53  1  0
 19 54  1  0
 20 55  1  0
 21 56  1  0
 22 57  1  0
 25 58  1  0
 26 59  1  0
 27 60  1  0
 28 61  1  0
M  END
>  <UniqueID>  (12) 
11

>  <SMILES>  (12) 
CCN(C)CCOCCOCCNc1c(Cc2ccccc2)nc2ccccn12

>  <Energy>  (12) 
95.95168427860393

>  <Genealogy>  (12) 
CCN(C)CCOCCOCCNc1c(Cc2ccccc2)nc2ccccn12 (3D coordinates assigned)
CCN(C)CCOCCOCCNc1c(Cc2ccccc2)nc2ccccn12 (optimized conformer: 95.95168427860393 kcal/mol)

>  <smiles>  (12) 
CCN(C)CCOCCOCCNc1c(Cc2ccccc2)nc2ccccn12

>  <score_type>  (12) 
oracle

>  <origin>  (12) 
adg

>  <m_score__min__energy>  (12) 
-8.6600000000000001

>  <m_primary>  (12) 
energy

$$$$
12:0
     RDKit          3D

 59 62  0  0  0  0  0  0  0  0999 V2000
   -8.9680   19.2270  -32.0060 C   0  0  0  0  0  0  0  0  0  0  0  0
   -7.7570   19.9390  -32.6070 C   0  0  0  0  0  0  0  0  0  0  0  0
   -6.6950   18.9750  -32.9730 N   0  0  0  0  0  0  0  0  0  0  0  0
   -7.1030   17.7230  -33.3280 C   0  0  0  0  0  0  0  0  0  0  0  0
   -6.2040   16.7560  -33.7650 C   0  0  0  0  0  0  0  0  0  0  0  0
   -6.7500   15.4150  -34.1960 C   0  0  0  0  0  0  0  0  0  0  0  0
   -4.8310   17.0750  -33.8590 C   0  0  0  0  0  0  0  0  0  0  0  0
   -3.9220   16.0750  -34.5530 C   0  0  0  0  0  0  0  0  0  0  0  0
   -4.3730   18.3250  -33.3280 C   0  0  0  0  0  0  0  0  0  0  0  0
   -5.3510   19.3010  -32.9790 C   0  0  0  0  0  0  0  0  0  0  0  0
   -4.8910   20.7380  -32.7800 C   0  0  0  0  0  0  0  0  0  0  0  0
   -3.5680   20.7990  -32.0820 C   0  0  0  0  0  0  0  0  0  0  0  0
   -3.1840   21.9550  -31.2240 C   0  0  0  0  0  0  0  0  0  0  0  0
   -2.0340   21.8820  -30.4210 C   0  0  0  0  0  0  0  0  0  0  0  0
   -1.6320   22.9780  -29.6560 C   0  0  0  0  0  0  0  0  0  0  0  0
   -2.3680   24.1750  -29.6770 C   0  0  0  0  0  0  0  0  0  0  0  0
   -1.9830   25.2990  -28.9300 O   0  0  0  0  0  0  0  0  0  0  0  0
   -1.6950   25.2800  -27.5330 C   0  0  0  0  0  0  0  0  0  0  0  0
   -3.5180   24.2630  -30.4710 C   0  0  0  0  0  0  0  0  0  0  0  0
   -4.2320   25.4750  -30.4750 O   0  0  0  0  0  0  0  0  0  0  0  0
   -5.6250   25.5990  -30.1950 C   0  0  0  0  0  0  0  0  0  0  0  0
   -3.9190   23.1550  -31.2430 C   0  0  0  0  0  0  0  0  0  0  0  0
   -2.7030   19.8580  -32.2890 N   0  0  0  0  0  0  0  0  0  0  0  0
   -2.8770   18.7210  -33.2050 C   0  0  0  0  0  0  0  0  0  0  0  0
   -1.9500   17.6080  -32.6570 C   0  0  0  0  0  0  0  0  0  0  0  0
   -0.7440   17.5220  -33.5910 C   0  0  0  0  0  0  0  0  0  0  0  0
   -0.8320   18.7140  -34.5360 C   0  0  0  0  0  0  0  0  0  0  0  0
   -2.2950   19.1260  -34.5690 C   0  0  0  0  0  0  0  0  0  0  0  0
   -8.9070   19.2629  -30.9083 H   0  0  0  0  0  0  0  0  0  0  0  0
   -9.8896   19.7270  -32.3385 H   0  0  0  0  0  0  0  0  0  0  0  0
   -8.9792   18.1785  -32.3385 H   0  0  0  0  0  0  0  0  0  0  0  0
   -8.0726   20.4842  -33.5087 H   0  0  0  0  0  0  0  0  0  0  0  0
   -7.3529   20.6328  -31.8551 H   0  0  0  0  0  0  0  0  0  0  0  0
   -8.1721   17.4712  -33.2670 H   0  0  0  0  0  0  0  0  0  0  0  0
   -6.9941   14.8155  -33.3066 H   0  0  0  0  0  0  0  0  0  0  0  0
   -7.6586   15.5652  -34.7976 H   0  0  0  0  0  0  0  0  0  0  0  0
   -5.9949   14.8878  -34.7976 H   0  0  0  0  0  0  0  0  0  0  0  0
   -3.3839   15.4831  -33.7980 H   0  0  0  0  0  0  0  0  0  0  0  0
   -4.5265   15.4048  -35.1818 H   0  0  0  0  0  0  0  0  0  0  0  0
   -3.1973   16.6131  -35.1818 H   0  0  0  0  0  0  0  0  0  0  0  0
   -4.7993   21.2233  -33.7629 H   0  0  0  0  0  0  0  0  0  0  0  0
   -5.6346   21.2551  -32.1558 H   0  0  0  0  0  0  0  0  0  0  0  0
   -1.4452   20.9532  -30.3948 H   0  0  0  0  0  0  0  0  0  0  0  0
   -0.7302   22.9041  -29.0305 H   0  0  0  0  0  0  0  0  0  0  0  0
   -2.6344   25.3420  -26.9641 H   0  0  0  0  0  0  0  0  0  0  0  0
   -1.1734   24.3455  -27.2788 H   0  0  0  0  0  0  0  0  0  0  0  0
   -1.0551   26.1379  -27.2788 H   0  0  0  0  0  0  0  0  0  0  0  0
   -5.7803   25.6128  -29.1061 H   0  0  0  0  0  0  0  0  0  0  0  0
   -6.0049   26.5345  -30.6315 H   0  0  0  0  0  0  0  0  0  0  0  0
   -6.1642   24.7453  -30.6315 H   0  0  0  0  0  0  0  0  0  0  0  0
   -4.8199   23.2288  -31.8699 H   0  0  0  0  0  0  0  0  0  0  0  0
   -1.6202   17.8602  -31.6383 H   0  0  0  0  0  0  0  0  0  0  0  0
   -2.4799   16.6450  -32.6147 H   0  0  0  0  0  0  0  0  0  0  0  0
    0.1888   17.5677  -33.0099 H   0  0  0  0  0  0  0  0  0  0  0  0
   -0.7450   16.5747  -34.1501 H   0  0  0  0  0  0  0  0  0  0  0  0
   -0.2115   19.5422  -34.1631 H   0  0  0  0  0  0  0  0  0  0  0  0
   -0.4671   18.4551  -35.5409 H   0  0  0  0  0  0  0  0  0  0  0  0
   -2.3834   20.2126  -34.7154 H   0  0  0  0  0  0  0  0  0  0  0  0
   -2.8326   18.6418  -35.3976 H   0  0  0  0  0  0  0  0  0  0  0  0
  1  2  1  0
  2  3  1  0
  3  4  2  0
  4  5  1  0
  5  6  1  0
  5  7  2  0
  7  8  1  0
  7  9  1  0
  9 10  2  0
 10 11  1  0
 11 12  1  0
 12 13  1  0
 13 14  2  0
 14 15  1  0
 15 16  2  0
 16 17  1  0
 17 18  1  0
 16 19  1  0
 19 20  1  0
 20 21  1  0
 19 22  2  0
 12 23  2  0
 23 24  1  0
 24 25  1  0
 25 26  1  0
 26 27  1  0
 27 28  1  0
 10  3  1  0
 22 13  1  0
 28 24  1  0
 24  9  1  0
  1 29  1  0
  1 30  1  0
  1 31  1  0
  2 32  1  0
  2 33  1  0
  4 34  1  0
  6 35  1  0
  6 36  1  0
  6 37  1  0
  8 38  1  0
  8 39  1  0
  8 40  1  0
 11 41  1  0
 11 42  1  0
 14 43  1  0
 15 44  1  0
 18 45  1  0
 18 46  1  0
 18 47  1  0
 21 48  1  0
 21 49  1  0
 21 50  1  0
 22 51  1  0
 25 52  1  0
 25 53  1  0
 26 54  1  0
 26 55  1  0
 27 56  1  0
 27 57  1  0
 28 58  1  0
 28 59  1  0
M  CHG  1   3   1
M  END
>  <UniqueID>  (13) 
12

>  <SMILES>  (13) 
CC[n+]1cc(C)c(C)c2c1CC(c1ccc(OC)c(OC)c1)=NC21CCCC1

>  <Energy>  (13) 
84.45867705003883

>  <Genealogy>  (13) 
CC[n+]1cc(C)c(C)c2c1CC(c1ccc(OC)c(OC)c1)=NC21CCCC1 (3D coordinates assigned)
CC[n+]1cc(C)c(C)c2c1CC(c1ccc(OC)c(OC)c1)=NC21CCCC1 (nonaromatic ring conformer: 84.45867705003883 kcal/mol)

>  <smiles>  (13) 
CC[n+]1cc(C)c(C)c2c1CC(c1ccc(OC)c(OC)c1)=NC21CCCC1

>  <score_type>  (13) 
oracle

>  <origin>  (13) 
adg

>  <m_score__min__energy>  (13) 
-8.9700000000000006

>  <m_primary>  (13) 
energy

$$$$
13:0
     RDKit          3D

 42 45  0  0  0  0  0  0  0  0999 V2000
   -6.2430   15.2660  -34.2200 C   0  0  0  0  0  0  0  0  0  0  0  0
   -5.3940   16.4460  -33.9860 N   0  0  0  0  0  0  0  0  0  0  0  0
   -5.7460   17.5600  -34.9090 C   0  0  0  0  0  0  0  0  0  0  0  0
   -5.8120   18.9300  -34.2230 C   0  0  0  0  0  0  0  0  0  0  0  0
   -6.6590   18.8420  -33.0360 N   0  0  0  0  0  0  0  0  0  0  0  0
   -7.3500   20.0100  -32.5780 C   0  0  0  0  0  0  0  0  0  0  0  0
   -8.7050   20.1090  -32.7360 N   0  0  0  0  0  0  0  0  0  0  0  0
   -9.4020   21.2200  -32.3400 C   0  0  0  0  0  0  0  0  0  0  0  0
   -8.7390   22.3110  -31.7550 C   0  0  0  0  0  0  0  0  0  0  0  0
   -7.3560   22.2150  -31.5950 C   0  0  0  0  0  0  0  0  0  0  0  0
   -6.6720   21.0820  -31.9870 C   0  0  0  0  0  0  0  0  0  0  0  0
   -5.3520   21.2850  -31.6280 C   0  0  0  0  0  0  0  0  0  0  0  0
   -4.2250   20.4660  -31.7130 C   0  0  0  0  0  0  0  0  0  0  0  0
   -3.0110   20.9610  -31.2050 C   0  0  0  0  0  0  0  0  0  0  0  0
   -2.9480   22.2410  -30.6160 C   0  0  0  0  0  0  0  0  0  0  0  0
   -1.4250   22.8330  -29.9780 Cl  0  0  0  0  0  0  0  0  0  0  0  0
   -4.1010   23.0430  -30.5260 C   0  0  0  0  0  0  0  0  0  0  0  0
   -5.2980   22.5390  -31.0480 C   0  0  0  0  0  0  0  0  0  0  0  0
   -6.5190   23.1280  -31.0390 N   0  0  0  0  0  0  0  0  0  0  0  0
   -6.8820   24.4090  -30.4330 C   0  0  0  0  0  0  0  0  0  0  0  0
   -6.5180   17.7020  -32.1260 C   0  0  0  0  0  0  0  0  0  0  0  0
   -5.3470   16.8040  -32.5490 C   0  0  0  0  0  0  0  0  0  0  0  0
   -6.5507   14.8384  -33.2544 H   0  0  0  0  0  0  0  0  0  0  0  0
   -7.1353   15.5636  -34.7902 H   0  0  0  0  0  0  0  0  0  0  0  0
   -5.6772   14.5145  -34.7902 H   0  0  0  0  0  0  0  0  0  0  0  0
   -4.9870   17.6056  -35.7039 H   0  0  0  0  0  0  0  0  0  0  0  0
   -6.7515   17.3476  -35.3012 H   0  0  0  0  0  0  0  0  0  0  0  0
   -4.7990   19.2411  -33.9279 H   0  0  0  0  0  0  0  0  0  0  0  0
   -6.2348   19.6683  -34.9202 H   0  0  0  0  0  0  0  0  0  0  0  0
   -9.2280   19.3200  -33.1780 H   0  0  0  0  0  0  0  0  0  0  0  0
  -10.4922   21.2578  -32.4817 H   0  0  0  0  0  0  0  0  0  0  0  0
   -9.2894   23.2080  -31.4348 H   0  0  0  0  0  0  0  0  0  0  0  0
   -4.2847   19.4643  -32.1635 H   0  0  0  0  0  0  0  0  0  0  0  0
   -2.1022   20.3444  -31.2675 H   0  0  0  0  0  0  0  0  0  0  0  0
   -4.0626   24.0380  -30.0586 H   0  0  0  0  0  0  0  0  0  0  0  0
   -6.8559   24.3167  -29.3372 H   0  0  0  0  0  0  0  0  0  0  0  0
   -6.1674   25.1816  -30.7531 H   0  0  0  0  0  0  0  0  0  0  0  0
   -7.8957   24.6919  -30.7531 H   0  0  0  0  0  0  0  0  0  0  0  0
   -6.3360   18.0749  -31.1073 H   0  0  0  0  0  0  0  0  0  0  0  0
   -7.4444   17.1098  -32.1590 H   0  0  0  0  0  0  0  0  0  0  0  0
   -4.4051   17.3357  -32.3490 H   0  0  0  0  0  0  0  0  0  0  0  0
   -5.4167   15.8709  -31.9706 H   0  0  0  0  0  0  0  0  0  0  0  0
  1  2  1  0
  2  3  1  0
  3  4  1  0
  4  5  1  0
  5  6  1  0
  6  7  2  0
  7  8  1  0
  8  9  2  0
  9 10  1  0
 10 11  2  0
 11 12  1  0
 12 13  2  0
 13 14  1  0
 14 15  2  0
 15 16  1  0
 15 17  1  0
 17 18  2  0
 18 19  1  0
 19 20  1  0
  5 21  1  0
 21 22  1  0
 22  2  1  0
 11  6  1  0
 18 12  1  0
 19 10  1  0
  1 23  1  0
  1 24  1  0
  1 25  1  0
  3 26  1  0
  3 27  1  0
  4 28  1  0
  4 29  1  0
  7 30  1  0
  8 31  1  0
  9 32  1  0
 13 33  1  0
 14 34  1  0
 17 35  1  0
 20 36  1  0
 20 37  1  0
 20 38  1  0
 21 39  1  0
 21 40  1  0
 22 41  1  0
 22 42  1  0
M  CHG  1   7   1
M  END
>  <UniqueID>  (14) 
13

>  <SMILES>  (14) 
CN1CCN(c2[nH+]ccc3c2c2ccc(Cl)cc2n3C)CC1

>  <Energy>  (14) 
99.5270473016067

>  <Genealogy>  (14) 
CN1CCN(c2[nH+]ccc3c2c2ccc(Cl)cc2n3C)CC1 (protonated)
CN1CCN(c2[nH+]ccc3c2c2ccc(Cl)cc2n3C)CC1 (3D coordinates assigned)
CN1CCN(c2[nH+]ccc3c2c2ccc(Cl)cc2n3C)CC1 (nonaromatic ring conformer: 99.5270473016067 kcal/mol)

>  <smiles>  (14) 
CN1CCN(c2nccc3c2c2ccc(Cl)cc2n3C)CC1

>  <score_type>  (14) 
oracle

>  <origin>  (14) 
adg

>  <m_score__min__energy>  (14) 
-7.3200000000000003

>  <m_primary>  (14) 
energy

$$$$
14:0
     RDKit          3D

 75 79  0  0  0  0  0  0  0  0999 V2000
   -1.3790   21.9400  -30.6160 C   0  0  0  0  0  0  0  0  0  0  0  0
   -2.8210   21.8590  -30.1320 C   0  0  0  0  0  0  0  0  0  0  0  0
   -3.4470   23.2050  -30.2100 N   0  0  0  0  0  0  0  0  0  0  0  0
   -2.9910   24.0860  -29.1100 C   0  0  0  0  0  0  0  0  0  0  0  0
   -4.0090   24.1120  -27.9710 C   0  0  0  0  0  0  0  0  0  0  0  0
   -4.9260   23.1240  -30.2240 C   0  0  0  0  0  0  0  0  0  0  0  0
   -5.5190   24.0270  -31.3170 C   0  0  0  0  0  0  0  0  0  0  0  0
   -5.5560   23.3330  -32.6060 N   0  0  0  0  0  0  0  0  0  0  0  0
   -5.9070   21.9420  -32.7090 C   0  0  0  0  0  0  0  0  0  0  0  0
   -7.2220   21.5120  -32.4510 C   0  0  0  0  0  0  0  0  0  0  0  0
   -8.1890   22.4110  -31.9530 C   0  0  0  0  0  0  0  0  0  0  0  0
   -9.4950   21.9920  -31.7170 C   0  0  0  0  0  0  0  0  0  0  0  0
   -9.8590   20.6730  -31.9580 C   0  0  0  0  0  0  0  0  0  0  0  0
   -8.9140   19.7570  -32.4200 C   0  0  0  0  0  0  0  0  0  0  0  0
   -7.5730   20.1500  -32.6670 C   0  0  0  0  0  0  0  0  0  0  0  0
   -6.6220   19.2430  -33.0970 N   0  0  0  0  0  0  0  0  0  0  0  0
   -7.0000   17.8330  -33.3380 C   0  0  0  0  0  0  0  0  0  0  0  0
   -5.3160   19.6400  -33.2840 C   0  0  0  0  0  0  0  0  0  0  0  0
   -4.3650   18.7260  -33.6630 N   0  0  0  0  0  0  0  0  0  0  0  0
   -3.0810   19.1100  -33.8520 C   0  0  0  0  0  0  0  0  0  0  0  0
   -2.6860   20.4070  -33.6770 C   0  0  0  0  0  0  0  0  0  0  0  0
   -3.5870   21.3880  -33.2920 C   0  0  0  0  0  0  0  0  0  0  0  0
   -4.9360   21.0040  -33.0870 C   0  0  0  0  0  0  0  0  0  0  0  0
   -1.3350   20.4360  -33.9400 C   0  0  0  0  0  0  0  0  0  0  0  0
   -0.4120   21.4780  -33.9140 C   0  0  0  0  0  0  0  0  0  0  0  0
    0.9240   21.1750  -34.2310 C   0  0  0  0  0  0  0  0  0  0  0  0
    1.3010   19.8550  -34.5610 C   0  0  0  0  0  0  0  0  0  0  0  0
    0.3490   18.8200  -34.5790 C   0  0  0  0  0  0  0  0  0  0  0  0
   -0.9760   19.1390  -34.2630 C   0  0  0  0  0  0  0  0  0  0  0  0
   -2.0520   18.3090  -34.2110 N   0  0  0  0  0  0  0  0  0  0  0  0
   -2.1100   16.8630  -34.4490 C   0  0  0  0  0  0  0  0  0  0  0  0
   -2.4170   16.0970  -33.1520 C   0  0  0  0  0  0  0  0  0  0  0  0
   -3.9180   15.7790  -32.9710 C   0  0  0  0  0  0  0  0  0  0  0  0
   -4.1680   14.3210  -32.9490 N   0  0  0  0  0  0  0  0  0  0  0  0
   -4.6130   13.9090  -31.6090 C   0  0  0  0  0  0  0  0  0  0  0  0
   -2.9550   13.5710  -33.3150 C   0  0  0  0  0  0  0  0  0  0  0  0
   -0.7029   21.9780  -29.7492 H   0  0  0  0  0  0  0  0  0  0  0  0
   -1.1460   21.0535  -31.2242 H   0  0  0  0  0  0  0  0  0  0  0  0
   -1.2468   22.8470  -31.2242 H   0  0  0  0  0  0  0  0  0  0  0  0
   -3.3816   21.1567  -30.7664 H   0  0  0  0  0  0  0  0  0  0  0  0
   -2.8385   21.5067  -29.0901 H   0  0  0  0  0  0  0  0  0  0  0  0
   -2.0303   23.7131  -28.7253 H   0  0  0  0  0  0  0  0  0  0  0  0
   -2.8787   25.1073  -29.5028 H   0  0  0  0  0  0  0  0  0  0  0  0
   -3.4804   24.0985  -27.0064 H   0  0  0  0  0  0  0  0  0  0  0  0
   -4.6168   25.0260  -28.0433 H   0  0  0  0  0  0  0  0  0  0  0  0
   -4.6627   23.2303  -28.0433 H   0  0  0  0  0  0  0  0  0  0  0  0
   -5.2271   22.0834  -30.4152 H   0  0  0  0  0  0  0  0  0  0  0  0
   -5.3038   23.4626  -29.2480 H   0  0  0  0  0  0  0  0  0  0  0  0
   -6.5425   24.3123  -31.0322 H   0  0  0  0  0  0  0  0  0  0  0  0
   -4.8846   24.9200  -31.4171 H   0  0  0  0  0  0  0  0  0  0  0  0
   -5.4450   23.8910  -33.4820 H   0  0  0  0  0  0  0  0  0  0  0  0
   -7.9074   23.4546  -31.7491 H   0  0  0  0  0  0  0  0  0  0  0  0
  -10.2407   22.7067  -31.3388 H   0  0  0  0  0  0  0  0  0  0  0  0
  -10.8960   20.3500  -31.7839 H   0  0  0  0  0  0  0  0  0  0  0  0
   -9.2131   18.7131  -32.5957 H   0  0  0  0  0  0  0  0  0  0  0  0
   -7.1374   17.3204  -32.3745 H   0  0  0  0  0  0  0  0  0  0  0  0
   -7.9393   17.7977  -33.9093 H   0  0  0  0  0  0  0  0  0  0  0  0
   -6.2043   17.3326  -33.9093 H   0  0  0  0  0  0  0  0  0  0  0  0
   -3.2654   22.4304  -33.1503 H   0  0  0  0  0  0  0  0  0  0  0  0
   -0.7172   22.5025  -33.6546 H   0  0  0  0  0  0  0  0  0  0  0  0
    1.6814   21.9727  -34.2218 H   0  0  0  0  0  0  0  0  0  0  0  0
    2.3502   19.6338  -34.8066 H   0  0  0  0  0  0  0  0  0  0  0  0
    0.6378   17.7897  -34.8341 H   0  0  0  0  0  0  0  0  0  0  0  0
   -2.8994   16.6521  -35.1854 H   0  0  0  0  0  0  0  0  0  0  0  0
   -1.1303   16.5327  -34.8245 H   0  0  0  0  0  0  0  0  0  0  0  0
   -1.8585   15.1494  -33.1656 H   0  0  0  0  0  0  0  0  0  0  0  0
   -2.1173   16.7427  -32.3134 H   0  0  0  0  0  0  0  0  0  0  0  0
   -4.2630   16.2145  -32.0216 H   0  0  0  0  0  0  0  0  0  0  0  0
   -4.4654   16.2087  -33.8229 H   0  0  0  0  0  0  0  0  0  0  0  0
   -4.0306   14.4482  -30.8474 H   0  0  0  0  0  0  0  0  0  0  0  0
   -5.6808   14.1444  -31.4887 H   0  0  0  0  0  0  0  0  0  0  0  0
   -4.4604   12.8263  -31.4887 H   0  0  0  0  0  0  0  0  0  0  0  0
   -2.4337   13.2487  -32.4016 H   0  0  0  0  0  0  0  0  0  0  0  0
   -3.2349   12.6881  -33.9084 H   0  0  0  0  0  0  0  0  0  0  0  0
   -2.2902   14.2159  -33.9084 H   0  0  0  0  0  0  0  0  0  0  0  0
  1  2  1  0
  2  3  1  0
  3  4  1  0
  4  5  1  0
  3  6  1  0
  6  7  1  0
  7  8  1  0
  8  9  1  0
  9 10  2  0
 10 11  1  0
 11 12  2  0
 12 13  1  0
 13 14  2  0
 14 15  1  0
 15 16  2  0
 16 17  1  0
 16 18  1  0
 18 19  2  0
 19 20  1  0
 20 21  2  0
 21 22  1  0
 22 23  2  0
 21 24  1  0
 24 25  2  0
 25 26  1  0
 26 27  2  0
 27 28  1  0
 28 29  2  0
 29 30  1  0
 30 31  1  0
 31 32  1  0
 32 33  1  0
 33 34  1  0
 34 35  1  0
 34 36  1  0
 23  9  1  0
 29 24  1  0
 15 10  1  0
 23 18  1  0
 30 20  1  0
  1 37  1  0
  1 38  1  0
  1 39  1  0
  2 40  1  0
  2 41  1  0
  4 42  1  0
  4 43  1  0
  5 44  1  0
  5 45  1  0
  5 46  1  0
  6 47  1  0
  6 48  1  0
  7 49  1  0
  7 50  1  0
  8 51  1  0
 11 52  1  0
 12 53  1  0
 13 54  1  0
 14 55  1  0
 17 56  1  0
 17 57  1  0
 17 58  1  0
 22 59  1  0
 25 60  1  0
 26 61  1  0
 27 62  1  0
 28 63  1  0
 31 64  1  0
 31 65  1  0
 32 66  1  0
 32 67  1  0
 33 68  1  0
 33 69  1  0
 35 70  1  0
 35 71  1  0
 35 72  1  0
 36 73  1  0
 36 74  1  0
 36 75  1  0
M  CHG  1  16   1
M  END
>  <UniqueID>  (15) 
14

>  <SMILES>  (15) 
CCN(CC)CCNc1c2ccccc2[n+](C)c2nc3c(cc12)c1ccccc1n3CCCN(C)C

>  <Energy>  (15) 
139.49939527576805

>  <Genealogy>  (15) 
CCN(CC)CCNc1c2ccccc2[n+](C)c2nc3c(cc12)c1ccccc1n3CCCN(C)C (3D coordinates assigned)
CCN(CC)CCNc1c2ccccc2[n+](C)c2nc3c(cc12)c1ccccc1n3CCCN(C)C (optimized conformer: 139.49939527576805 kcal/mol)

>  <smiles>  (15) 
CCN(CC)CCNc1c2ccccc2[n+](C)c2nc3c(cc12)c1ccccc1n3CCCN(C)C

>  <score_type>  (15) 
oracle

>  <origin>  (15) 
adg

>  <m_score__min__energy>  (15) 
-9.0800000000000001

>  <m_primary>  (15) 
energy

$$$$
15:0
     RDKit          3D

 43 44  0  0  0  0  0  0  0  0999 V2000
   -1.0960   26.0800  -26.9180 C   0  0  0  0  0  0  0  0  0  0  0  0
   -1.2410   25.3310  -28.2490 C   0  0  0  0  0  0  0  0  0  0  0  0
   -2.6140   24.8530  -28.5440 N   0  0  0  0  0  0  0  0  0  0  0  0
   -3.3710   24.5540  -27.3170 C   0  0  0  0  0  0  0  0  0  0  0  0
   -2.6860   23.7170  -29.4910 C   0  0  0  0  0  0  0  0  0  0  0  0
   -3.8190   23.8820  -30.5130 C   0  0  0  0  0  0  0  0  0  0  0  0
   -4.0450   25.2510  -30.8010 O   0  0  0  0  0  0  0  0  0  0  0  0
   -5.3610   25.6430  -30.4570 C   0  0  0  0  0  0  0  0  0  0  0  0
   -6.2690   24.4160  -30.3280 C   0  0  0  0  0  0  0  0  0  0  0  0
   -6.5540   23.8540  -31.6100 O   0  0  0  0  0  0  0  0  0  0  0  0
   -7.3260   22.7020  -31.8530 C   0  0  0  0  0  0  0  0  0  0  0  0
   -8.7130   22.6690  -31.6080 C   0  0  0  0  0  0  0  0  0  0  0  0
   -9.4520   21.5120  -31.8570 C   0  0  0  0  0  0  0  0  0  0  0  0
   -8.8260   20.3680  -32.3490 C   0  0  0  0  0  0  0  0  0  0  0  0
   -7.4470   20.3710  -32.5970 C   0  0  0  0  0  0  0  0  0  0  0  0
   -6.8140   19.2190  -33.0910 C   0  0  0  0  0  0  0  0  0  0  0  0
   -5.4400   19.2250  -33.3390 C   0  0  0  0  0  0  0  0  0  0  0  0
   -4.6880   20.3760  -33.0970 C   0  0  0  0  0  0  0  0  0  0  0  0
   -5.3040   21.5290  -32.6040 C   0  0  0  0  0  0  0  0  0  0  0  0
   -6.6880   21.5430  -32.3470 C   0  0  0  0  0  0  0  0  0  0  0  0
   -1.2324   25.3756  -26.0842 H   0  0  0  0  0  0  0  0  0  0  0  0
   -0.0941   26.5300  -26.8577 H   0  0  0  0  0  0  0  0  0  0  0  0
   -1.8576   26.8714  -26.8577 H   0  0  0  0  0  0  0  0  0  0  0  0
   -0.9324   26.0084  -29.0589 H   0  0  0  0  0  0  0  0  0  0  0  0
   -0.6093   24.4338  -28.1715 H   0  0  0  0  0  0  0  0  0  0  0  0
   -2.7557   24.7970  -26.4382 H   0  0  0  0  0  0  0  0  0  0  0  0
   -4.2914   25.1561  -27.2981 H   0  0  0  0  0  0  0  0  0  0  0  0
   -3.6315   23.4855  -27.2981 H   0  0  0  0  0  0  0  0  0  0  0  0
   -1.7303   23.6453  -30.0308 H   0  0  0  0  0  0  0  0  0  0  0  0
   -2.8878   22.8057  -28.9089 H   0  0  0  0  0  0  0  0  0  0  0  0
   -3.5456   23.3591  -31.4413 H   0  0  0  0  0  0  0  0  0  0  0  0
   -4.7399   23.4555  -30.0886 H   0  0  0  0  0  0  0  0  0  0  0  0
   -5.3397   26.1802  -29.4973 H   0  0  0  0  0  0  0  0  0  0  0  0
   -5.7562   26.2968  -31.2484 H   0  0  0  0  0  0  0  0  0  0  0  0
   -5.7661   23.6598  -29.7073 H   0  0  0  0  0  0  0  0  0  0  0  0
   -7.2160   24.7277  -29.8632 H   0  0  0  0  0  0  0  0  0  0  0  0
   -9.2183   23.5642  -31.2165 H   0  0  0  0  0  0  0  0  0  0  0  0
  -10.5349   21.5026  -31.6639 H   0  0  0  0  0  0  0  0  0  0  0  0
   -9.4162   19.4603  -32.5431 H   0  0  0  0  0  0  0  0  0  0  0  0
   -7.4022   18.3095  -33.2831 H   0  0  0  0  0  0  0  0  0  0  0  0
   -4.9486   18.3202  -33.7262 H   0  0  0  0  0  0  0  0  0  0  0  0
   -3.6060   20.3751  -33.2953 H   0  0  0  0  0  0  0  0  0  0  0  0
   -4.7039   22.4314  -32.4155 H   0  0  0  0  0  0  0  0  0  0  0  0
  1  2  1  0
  2  3  1  0
  3  4  1  0
  3  5  1  0
  5  6  1  0
  6  7  1  0
  7  8  1  0
  8  9  1  0
  9 10  1  0
 10 11  1  0
 11 12  2  0
 12 13  1  0
 13 14  2  0
 14 15  1  0
 15 16  2  0
 16 17  1  0
 17 18  2  0
 18 19  1  0
 19 20  2  0
 20 11  1  0
 20 15  1  0
  1 21  1  0
  1 22  1  0
  1 23  1  0
  2 24  1  0
  2 25  1  0
  4 26  1  0
  4 27  1  0
  4 28  1  0
  5 29  1  0
  5 30  1  0
  6 31  1  0
  6 32  1  0
  8 33  1  0
  8 34  1  0
  9 35  1  0
  9 36  1  0
 12 37  1  0
 13 38  1  0
 14 39  1  0
 16 40  1  0
 17 41  1  0
 18 42  1  0
 19 43  1  0
M  END
>  <UniqueID>  (16) 
15

>  <SMILES>  (16) 
CCN(C)CCOCCOc1cccc2ccccc12

>  <Energy>  (16) 
49.92931777308227

>  <Genealogy>  (16) 
CCN(C)CCOCCOc1cccc2ccccc12 (3D coordinates assigned)
CCN(C)CCOCCOc1cccc2ccccc12 (optimized conformer: 49.92931777308227 kcal/mol)

>  <smiles>  (16) 
CCN(C)CCOCCOc1cccc2ccccc12

>  <score_type>  (16) 
oracle

>  <origin>  (16) 
adg

>  <m_score__min__energy>  (16) 
-7.6100000000000003

>  <m_primary>  (16) 
energy

$$$$
16:0
     RDKit          3D

 24 25  0  0  0  0  0  0  0  0999 V2000
   -6.8780   25.2400  -29.6880 C   0  0  0  0  0  0  0  0  0  0  0  0
   -5.2890   25.6560  -30.4720 S   0  0  0  0  0  0  0  0  0  0  0  0
   -4.9970   23.9810  -31.0280 C   0  0  0  0  0  0  0  0  0  0  0  0
   -3.7270   23.5400  -31.2160 N   0  0  0  0  0  0  0  0  0  0  0  0
   -3.4870   22.2700  -31.6330 C   0  0  0  0  0  0  0  0  0  0  0  0
   -4.5520   21.4030  -31.8740 C   0  0  0  0  0  0  0  0  0  0  0  0
   -5.8610   21.8700  -31.6830 C   0  0  0  0  0  0  0  0  0  0  0  0
   -7.0390   20.9990  -31.9220 C   0  0  0  0  0  0  0  0  0  0  0  0
   -6.8790   19.6150  -32.1320 C   0  0  0  0  0  0  0  0  0  0  0  0
   -7.9880   18.7990  -32.3700 C   0  0  0  0  0  0  0  0  0  0  0  0
   -9.2700   19.3510  -32.4040 C   0  0  0  0  0  0  0  0  0  0  0  0
   -9.4440   20.7220  -32.2040 C   0  0  0  0  0  0  0  0  0  0  0  0
   -8.3390   21.5460  -31.9670 C   0  0  0  0  0  0  0  0  0  0  0  0
   -8.5470   22.8710  -31.7540 F   0  0  0  0  0  0  0  0  0  0  0  0
   -6.0470   23.1520  -31.2600 N   0  0  0  0  0  0  0  0  0  0  0  0
   -6.7659   25.2693  -28.5941 H   0  0  0  0  0  0  0  0  0  0  0  0
   -7.6417   25.9685  -29.9980 H   0  0  0  0  0  0  0  0  0  0  0  0
   -7.1867   24.2308  -29.9980 H   0  0  0  0  0  0  0  0  0  0  0  0
   -2.4528   21.9255  -31.7806 H   0  0  0  0  0  0  0  0  0  0  0  0
   -4.3691   20.3710  -32.2080 H   0  0  0  0  0  0  0  0  0  0  0  0
   -5.8720   19.1729  -32.1084 H   0  0  0  0  0  0  0  0  0  0  0  0
   -7.8508   17.7195  -32.5309 H   0  0  0  0  0  0  0  0  0  0  0  0
  -10.1422   18.7065  -32.5882 H   0  0  0  0  0  0  0  0  0  0  0  0
  -10.4544   21.1558  -32.2330 H   0  0  0  0  0  0  0  0  0  0  0  0
  1  2  1  0
  2  3  1  0
  3  4  2  0
  4  5  1  0
  5  6  2  0
  6  7  1  0
  7  8  1  0
  8  9  2  0
  9 10  1  0
 10 11  2  0
 11 12  1  0
 12 13  2  0
 13 14  1  0
  7 15  2  0
 15  3  1  0
 13  8  1  0
  1 16  1  0
  1 17  1  0
  1 18  1  0
  5 19  1  0
  6 20  1  0
  9 21  1  0
 10 22  1  0
 11 23  1  0
 12 24  1  0
M  END
>  <UniqueID>  (17) 
16

>  <SMILES>  (17) 
CSc1nccc(-c2ccccc2F)n1

>  <Energy>  (17) 
26.256910608795117

>  <Genealogy>  (17) 
CSc1nccc(-c2ccccc2F)n1 (3D coordinates assigned)
CSc1nccc(-c2ccccc2F)n1 (optimized conformer: 26.256910608795117 kcal/mol)

>  <smiles>  (17) 
CSc1nccc(-c2ccccc2F)n1

>  <score_type>  (17) 
oracle

>  <origin>  (17) 
adg

>  <m_score__min__energy>  (17) 
-6.3600000000000003

>  <m_primary>  (17) 
energy

$$$$
17:0
     RDKit          3D

 51 52  0  0  0  0  0  0  0  0999 V2000
   -3.0280   21.1920  -33.3730 C   0  0  0  0  0  0  0  0  0  0  0  0
   -3.2180   21.7630  -31.9710 C   0  0  0  0  0  0  0  0  0  0  0  0
   -4.4900   21.2010  -31.3100 C   0  0  0  0  0  0  0  0  0  0  0  0
   -5.7990   21.6860  -31.9790 C   0  0  0  0  0  0  0  0  0  0  0  0
   -6.5120   22.8010  -31.2920 N   0  0  0  0  0  0  0  0  0  0  0  0
   -8.0040   22.6710  -31.3630 C   0  0  0  0  0  0  0  0  0  0  0  0
   -8.5970   21.3140  -30.9070 C   0  0  0  0  0  0  0  0  0  0  0  0
   -9.1370   20.4880  -32.0860 C   0  0  0  0  0  0  0  0  0  0  0  0
   -8.4070   19.1570  -32.2550 C   0  0  0  0  0  0  0  0  0  0  0  0
   -5.9440   24.1350  -31.6260 C   0  0  0  0  0  0  0  0  0  0  0  0
   -4.9440   24.6290  -30.6000 C   0  0  0  0  0  0  0  0  0  0  0  0
   -4.2470   25.6520  -30.8360 O   0  0  0  0  0  0  0  0  0  0  0  0
   -4.7860   23.9690  -29.3370 N   0  0  0  0  0  0  0  0  0  0  0  0
   -3.5360   23.5920  -28.7430 C   0  0  0  0  0  0  0  0  0  0  0  0
   -3.4500   22.3780  -28.0460 C   0  0  0  0  0  0  0  0  0  0  0  0
   -2.2420   21.9800  -27.4640 C   0  0  0  0  0  0  0  0  0  0  0  0
   -1.1190   22.8050  -27.5600 C   0  0  0  0  0  0  0  0  0  0  0  0
   -1.2140   24.0470  -28.2000 C   0  0  0  0  0  0  0  0  0  0  0  0
   -2.4150   24.4390  -28.7970 C   0  0  0  0  0  0  0  0  0  0  0  0
   -0.0950   24.8870  -28.2280 O   0  0  0  0  0  0  0  0  0  0  0  0
    1.0430   24.6240  -27.4010 C   0  0  0  0  0  0  0  0  0  0  0  0
    1.3130   23.1160  -27.3360 C   0  0  0  0  0  0  0  0  0  0  0  0
    0.1100   22.4110  -27.0200 O   0  0  0  0  0  0  0  0  0  0  0  0
   -2.6814   20.1505  -33.3009 H   0  0  0  0  0  0  0  0  0  0  0  0
   -3.9850   21.2233  -33.9145 H   0  0  0  0  0  0  0  0  0  0  0  0
   -2.2806   21.7905  -33.9145 H   0  0  0  0  0  0  0  0  0  0  0  0
   -2.3462   21.4987  -31.3545 H   0  0  0  0  0  0  0  0  0  0  0  0
   -3.3194   22.8555  -32.0500 H   0  0  0  0  0  0  0  0  0  0  0  0
   -4.4560   20.1030  -31.3669 H   0  0  0  0  0  0  0  0  0  0  0  0
   -4.5030   21.5646  -30.2719 H   0  0  0  0  0  0  0  0  0  0  0  0
   -5.5520   22.0216  -32.9970 H   0  0  0  0  0  0  0  0  0  0  0  0
   -6.4861   20.8278  -31.9412 H   0  0  0  0  0  0  0  0  0  0  0  0
   -6.2710   22.6420  -30.2830 H   0  0  0  0  0  0  0  0  0  0  0  0
   -8.4395   23.4572  -30.7288 H   0  0  0  0  0  0  0  0  0  0  0  0
   -8.2556   22.7574  -32.4303 H   0  0  0  0  0  0  0  0  0  0  0  0
   -7.8096   20.7359  -30.4012 H   0  0  0  0  0  0  0  0  0  0  0  0
   -9.4382   21.5246  -30.2302 H   0  0  0  0  0  0  0  0  0  0  0  0
  -10.2043   20.2849  -31.9141 H   0  0  0  0  0  0  0  0  0  0  0  0
   -8.9776   21.0738  -33.0033 H   0  0  0  0  0  0  0  0  0  0  0  0
   -8.1766   18.7369  -31.2648 H   0  0  0  0  0  0  0  0  0  0  0  0
   -9.0468   18.4559  -32.8109 H   0  0  0  0  0  0  0  0  0  0  0  0
   -7.4719   19.3197  -32.8109 H   0  0  0  0  0  0  0  0  0  0  0  0
   -5.4401   24.0667  -32.6014 H   0  0  0  0  0  0  0  0  0  0  0  0
   -6.7781   24.8519  -31.6427 H   0  0  0  0  0  0  0  0  0  0  0  0
   -4.3380   21.7349  -27.9565 H   0  0  0  0  0  0  0  0  0  0  0  0
   -2.1765   21.0195  -26.9319 H   0  0  0  0  0  0  0  0  0  0  0  0
   -2.4835   25.4101  -29.3091 H   0  0  0  0  0  0  0  0  0  0  0  0
    1.9230   25.1329  -27.8212 H   0  0  0  0  0  0  0  0  0  0  0  0
    0.8428   24.9969  -26.3857 H   0  0  0  0  0  0  0  0  0  0  0  0
    1.6900   22.7723  -28.3105 H   0  0  0  0  0  0  0  0  0  0  0  0
    2.0600   22.9191  -26.5530 H   0  0  0  0  0  0  0  0  0  0  0  0
  1  2  1  0
  2  3  1  0
  3  4  1  0
  4  5  1  0
  5  6  1  0
  6  7  1  0
  7  8  1  0
  8  9  1  0
  5 10  1  0
 10 11  1  0
 11 12  2  0
 11 13  1  0
 13 14  1  0
 14 15  2  0
 15 16  1  0
 16 17  2  0
 17 18  1  0
 18 19  2  0
 18 20  1  0
 20 21  1  0
 21 22  1  0
 22 23  1  0
 19 14  1  0
 23 17  1  0
  1 24  1  0
  1 25  1  0
  1 26  1  0
  2 27  1  0
  2 28  1  0
  3 29  1  0
  3 30  1  0
  4 31  1  0
  4 32  1  0
  5 33  1  0
  6 34  1  0
  6 35  1  0
  7 36  1  0
  7 37  1  0
  8 38  1  0
  8 39  1  0
  9 40  1  0
  9 41  1  0
  9 42  1  0
 10 43  1  0
 10 44  1  0
 15 45  1  0
 16 46  1  0
 19 47  1  0
 21 48  1  0
 21 49  1  0
 22 50  1  0
 22 51  1  0
M  CHG  2   5   1  13  -1
M  END
>  <UniqueID>  (18) 
17

>  <SMILES>  (18) 
CCCC[NH+](CCCC)CC(=O)[N-]c1ccc2c(c1)OCCO2

>  <Energy>  (18) 
61.190716232586794

>  <Genealogy>  (18) 
CCCC[NH+](CCCC)CC(=O)[N-]c1ccc2c(c1)OCCO2 (protonated)
CCCC[NH+](CCCC)CC(=O)[N-]c1ccc2c(c1)OCCO2 (3D coordinates assigned)
CCCC[NH+](CCCC)CC(=O)[N-]c1ccc2c(c1)OCCO2 (nonaromatic ring conformer: 61.190716232586794 kcal/mol)

>  <smiles>  (18) 
CCCCN(CCCC)CC(=O)Nc1ccc2c(c1)OCCO2

>  <score_type>  (18) 
oracle

>  <origin>  (18) 
adg

>  <m_score__min__energy>  (18) 
-7.6699999999999999

>  <m_primary>  (18) 
energy

$$$$
18:0
     RDKit          3D

 41 43  0  0  0  0  0  0  0  0999 V2000
   -8.6530   20.1390  -32.0070 C   0  0  0  0  0  0  0  0  0  0  0  0
   -7.3590   20.7130  -32.3750 N   0  0  0  0  0  0  0  0  0  0  0  0
   -6.2440   20.0910  -32.8350 C   0  0  0  0  0  0  0  0  0  0  0  0
   -6.0980   18.6400  -33.0810 C   0  0  0  0  0  0  0  0  0  0  0  0
   -6.0790   18.1200  -34.3870 C   0  0  0  0  0  0  0  0  0  0  0  0
   -5.9190   16.7480  -34.5980 C   0  0  0  0  0  0  0  0  0  0  0  0
   -5.7650   15.8840  -33.5090 C   0  0  0  0  0  0  0  0  0  0  0  0
   -5.7610   16.3960  -32.2090 C   0  0  0  0  0  0  0  0  0  0  0  0
   -5.9190   17.7680  -31.9950 C   0  0  0  0  0  0  0  0  0  0  0  0
   -5.2400   20.9710  -33.0380 N   0  0  0  0  0  0  0  0  0  0  0  0
   -5.7200   22.1640  -32.7260 N   0  0  0  0  0  0  0  0  0  0  0  0
   -6.9940   22.0100  -32.3290 C   0  0  0  0  0  0  0  0  0  0  0  0
   -8.0560   23.3680  -31.8220 S   0  0  0  0  0  0  0  0  0  0  0  0
   -6.9980   23.8870  -30.4250 C   0  0  0  0  0  0  0  0  0  0  0  0
   -5.7840   24.6780  -30.9220 C   0  0  0  0  0  0  0  0  0  0  0  0
   -4.5590   23.8510  -30.8330 N   0  0  0  0  0  0  0  0  0  0  0  0
   -4.8010   22.6050  -30.0850 C   0  0  0  0  0  0  0  0  0  0  0  0
   -4.3810   22.8280  -28.6360 C   0  0  0  0  0  0  0  0  0  0  0  0
   -3.6570   24.1590  -28.6190 C   0  0  0  0  0  0  0  0  0  0  0  0
   -3.5020   24.5390  -30.0800 C   0  0  0  0  0  0  0  0  0  0  0  0
   -8.7389   20.1009  -30.9110 H   0  0  0  0  0  0  0  0  0  0  0  0
   -9.4608   20.7632  -32.4166 H   0  0  0  0  0  0  0  0  0  0  0  0
   -8.7325   19.1212  -32.4166 H   0  0  0  0  0  0  0  0  0  0  0  0
   -6.1906   18.7966  -35.2471 H   0  0  0  0  0  0  0  0  0  0  0  0
   -5.9142   16.3468  -35.6222 H   0  0  0  0  0  0  0  0  0  0  0  0
   -5.6472   14.8031  -33.6757 H   0  0  0  0  0  0  0  0  0  0  0  0
   -5.6332   15.7179  -31.3523 H   0  0  0  0  0  0  0  0  0  0  0  0
   -5.9031   18.1671  -30.9701 H   0  0  0  0  0  0  0  0  0  0  0  0
   -5.1840   23.0570  -32.7890 H   0  0  0  0  0  0  0  0  0  0  0  0
   -7.5859   24.5200  -29.7440 H   0  0  0  0  0  0  0  0  0  0  0  0
   -6.6409   22.9876  -29.9020 H   0  0  0  0  0  0  0  0  0  0  0  0
   -5.9472   24.9729  -31.9691 H   0  0  0  0  0  0  0  0  0  0  0  0
   -5.6582   25.5719  -30.2934 H   0  0  0  0  0  0  0  0  0  0  0  0
   -5.8695   22.3472  -30.1272 H   0  0  0  0  0  0  0  0  0  0  0  0
   -4.2218   21.7798  -30.5251 H   0  0  0  0  0  0  0  0  0  0  0  0
   -5.2646   22.8637  -27.9818 H   0  0  0  0  0  0  0  0  0  0  0  0
   -3.7403   22.0127  -28.2690 H   0  0  0  0  0  0  0  0  0  0  0  0
   -4.2499   24.9151  -28.0834 H   0  0  0  0  0  0  0  0  0  0  0  0
   -2.6877   24.0961  -28.1028 H   0  0  0  0  0  0  0  0  0  0  0  0
   -3.6060   25.6278  -30.1973 H   0  0  0  0  0  0  0  0  0  0  0  0
   -2.5093   24.2454  -30.4521 H   0  0  0  0  0  0  0  0  0  0  0  0
  1  2  1  0
  2  3  1  0
  3  4  1  0
  4  5  2  0
  5  6  1  0
  6  7  2  0
  7  8  1  0
  8  9  2  0
  3 10  2  0
 10 11  1  0
 11 12  2  0
 12 13  1  0
 13 14  1  0
 14 15  1  0
 15 16  1  0
 16 17  1  0
 17 18  1  0
 18 19  1  0
 19 20  1  0
 12  2  1  0
 20 16  1  0
  9  4  1  0
  1 21  1  0
  1 22  1  0
  1 23  1  0
  5 24  1  0
  6 25  1  0
  7 26  1  0
  8 27  1  0
  9 28  1  0
 11 29  1  0
 14 30  1  0
 14 31  1  0
 15 32  1  0
 15 33  1  0
 17 34  1  0
 17 35  1  0
 18 36  1  0
 18 37  1  0
 19 38  1  0
 19 39  1  0
 20 40  1  0
 20 41  1  0
M  CHG  1  11   1
M  END
>  <UniqueID>  (19) 
18

>  <SMILES>  (19) 
Cn1c(-c2ccccc2)n[nH+]c1SCCN1CCCC1

>  <Energy>  (19) 
79.74780050308141

>  <Genealogy>  (19) 
Cn1c(-c2ccccc2)n[nH+]c1SCCN1CCCC1 (protonated)
Cn1c(-c2ccccc2)n[nH+]c1SCCN1CCCC1 (3D coordinates assigned)
Cn1c(-c2ccccc2)n[nH+]c1SCCN1CCCC1 (nonaromatic ring conformer: 79.74780050308141 kcal/mol)

>  <smiles>  (19) 
Cn1c(SCCN2CCCC2)nnc1-c1ccccc1

>  <score_type>  (19) 
oracle

>  <origin>  (19) 
adg

>  <m_score__min__energy>  (19) 
-6.9400000000000004

>  <m_primary>  (19) 
energy

$$$$
19:0
     RDKit          3D

 41 43  0  0  0  0  0  0  0  0999 V2000
   -0.6220   22.2633  -30.8329 H   0  0  0  0  0  0  0  0  0  0  0  0
   -1.4290   22.6610  -30.2000 C   0  0  0  0  0  0  0  0  0  0  0  0
   -2.7250   22.4270  -30.5290 N   0  0  0  0  0  0  0  0  0  0  0  0
   -3.7660   22.8970  -29.7840 C   0  0  0  0  0  0  0  0  0  0  0  0
   -4.9930   22.6450  -30.1360 N   0  0  0  0  0  0  0  0  0  0  0  0
   -5.5010   22.7070  -31.5110 C   0  0  1  0  0  0  0  0  0  0  0  0
   -4.7279   22.3193  -32.1906 H   0  0  0  0  0  0  0  0  0  0  0  0
   -6.7460   21.8470  -31.6680 C   0  0  0  0  0  0  0  0  0  0  0  0
   -7.9670   22.2840  -31.1160 C   0  0  0  0  0  0  0  0  0  0  0  0
   -8.0055   23.2353  -30.5651 H   0  0  0  0  0  0  0  0  0  0  0  0
   -9.1290   21.5220  -31.2610 C   0  0  0  0  0  0  0  0  0  0  0  0
  -10.0729   21.8686  -30.8149 H   0  0  0  0  0  0  0  0  0  0  0  0
   -9.0930   20.3220  -31.9710 C   0  0  0  0  0  0  0  0  0  0  0  0
  -10.0070   19.7195  -32.0787 H   0  0  0  0  0  0  0  0  0  0  0  0
   -7.8980   19.8850  -32.5450 C   0  0  0  0  0  0  0  0  0  0  0  0
   -7.8764   18.9417  -33.1104 H   0  0  0  0  0  0  0  0  0  0  0  0
   -6.7270   20.6390  -32.4060 C   0  0  0  0  0  0  0  0  0  0  0  0
   -5.2680   20.0390  -33.1900 Cl  0  0  0  0  0  0  0  0  0  0  0  0
   -5.8210   24.1600  -31.8710 C   0  0  0  0  0  0  0  0  0  0  0  0
   -6.8515   24.3954  -31.5666 H   0  0  0  0  0  0  0  0  0  0  0  0
   -5.7201   24.3009  -32.9573 H   0  0  0  0  0  0  0  0  0  0  0  0
   -4.9220   25.0180  -31.1970 O   0  0  0  0  0  0  0  0  0  0  0  0
   -5.6280   25.9640  -30.4160 C   0  0  0  0  0  0  0  0  0  0  0  0
   -5.9981   26.7691  -31.0678 H   0  0  0  0  0  0  0  0  0  0  0  0
   -4.9501   26.3777  -29.6549 H   0  0  0  0  0  0  0  0  0  0  0  0
   -6.8080   25.2980  -29.7200 C   0  0  0  0  0  0  0  0  0  0  0  0
   -6.6794   25.3706  -28.6300 H   0  0  0  0  0  0  0  0  0  0  0  0
   -7.7398   25.8034  -30.0137 H   0  0  0  0  0  0  0  0  0  0  0  0
   -6.8569   24.2391  -30.0137 H   0  0  0  0  0  0  0  0  0  0  0  0
   -3.5010   23.6560  -28.6230 C   0  0  0  0  0  0  0  0  0  0  0  0
   -2.1550   23.9060  -28.2670 C   0  0  0  0  0  0  0  0  0  0  0  0
   -1.1180   23.4040  -29.0620 C   0  0  0  0  0  0  0  0  0  0  0  0
   -0.0687   23.5937  -28.7917 H   0  0  0  0  0  0  0  0  0  0  0  0
   -1.8810   24.6570  -27.1180 C   0  0  0  0  0  0  0  0  0  0  0  0
   -0.8398   24.8625  -26.8287 H   0  0  0  0  0  0  0  0  0  0  0  0
   -2.9320   25.1440  -26.3410 C   0  0  0  0  0  0  0  0  0  0  0  0
   -2.7245   25.7331  -25.4355 H   0  0  0  0  0  0  0  0  0  0  0  0
   -4.2480   24.8790  -26.7200 C   0  0  0  0  0  0  0  0  0  0  0  0
   -5.0800   25.2618  -26.1108 H   0  0  0  0  0  0  0  0  0  0  0  0
   -4.5090   24.1490  -27.8400 N   0  0  0  0  0  0  0  0  0  0  0  0
   -5.5100   23.9740  -28.0840 H   0  0  0  0  0  0  0  0  0  0  0  0
  1  2  1  0
  2  3  1  0
  3  4  1  0
  4  5  2  0
  5  6  1  0
  6  7  1  6
  6  8  1  0
  8  9  2  0
  9 10  1  0
  9 11  1  0
 11 12  1  0
 11 13  2  0
 13 14  1  0
 13 15  1  0
 15 16  1  0
 15 17  2  0
 17 18  1  0
  6 19  1  0
 19 20  1  0
 19 21  1  0
 19 22  1  0
 22 23  1  0
 23 24  1  0
 23 25  1  0
 23 26  1  0
 26 27  1  0
 26 28  1  0
 26 29  1  0
  4 30  1  0
 30 31  2  0
 31 32  1  0
 32 33  1  0
 31 34  1  0
 34 35  1  0
 34 36  2  0
 36 37  1  0
 36 38  1  0
 38 39  1  0
 38 40  2  0
 40 41  1  0
 32  2  2  0
 17  8  1  0
 40 30  1  0
M  CHG  2   3  -1  40   1
M  END
>  <UniqueID>  (20) 
19

>  <SMILES>  (20) 
CCOC[C@@H](/N=c1\[n-]ccc2ccc[nH+]c12)c1ccccc1Cl

>  <Energy>  (20) 
47.304111343806184

>  <Genealogy>  (20) 
CCOCC(N=c1[n-]ccc2ccc[nH+]c12)c1ccccc1Cl (protonated)
CCOC[C@@H](N=c1[n-]ccc2ccc[nH+]c12)c1ccccc1Cl (chirality)
CCOC[C@@H](/N=c1\[n-]ccc2ccc[nH+]c12)c1ccccc1Cl (cis-trans isomerization)
CCOC[C@@H](/N=c1\[n-]ccc2ccc[nH+]c12)c1ccccc1Cl (3D coordinates assigned)
CCOC[C@@H](/N=c1\[n-]ccc2ccc[nH+]c12)c1ccccc1Cl (optimized conformer: 47.304111343806184 kcal/mol)

>  <smiles>  (20) 
CCOCC(N=c1[nH]ccc2cccnc12)c1ccccc1Cl

>  <score_type>  (20) 
oracle

>  <origin>  (20) 
adg

>  <m_score__min__energy>  (20) 
-8.1899999999999995

>  <m_primary>  (20) 
energy

$$$$
20:0
     RDKit          3D

 48 51  0  0  0  0  0  0  0  0999 V2000
   -5.9090   24.8730  -30.5920 C   0  0  0  0  0  0  0  0  0  0  0  0
   -6.4540   24.1760  -31.8400 C   0  0  0  0  0  0  0  0  0  0  0  0
   -5.4720   23.2600  -32.4420 N   0  0  0  0  0  0  0  0  0  0  0  0
   -4.2820   23.0540  -31.6020 C   0  0  0  0  0  0  0  0  0  0  0  0
   -3.3650   21.9580  -32.1750 C   0  0  0  0  0  0  0  0  0  0  0  0
   -3.7400   21.5120  -33.5340 N   0  0  0  0  0  0  0  0  0  0  0  0
   -3.6750   20.0710  -33.6940 C   0  0  0  0  0  0  0  0  0  0  0  0
   -2.4640   19.4320  -34.1140 C   0  0  0  0  0  0  0  0  0  0  0  0
   -1.2910   20.1790  -34.3900 C   0  0  0  0  0  0  0  0  0  0  0  0
   -0.0990   19.5490  -34.7360 C   0  0  0  0  0  0  0  0  0  0  0  0
   -0.0370   18.1660  -34.8130 C   0  0  0  0  0  0  0  0  0  0  0  0
   -1.1730   17.4000  -34.5750 C   0  0  0  0  0  0  0  0  0  0  0  0
   -2.4160   18.0060  -34.2590 C   0  0  0  0  0  0  0  0  0  0  0  0
   -3.5560   17.2440  -34.0830 N   0  0  0  0  0  0  0  0  0  0  0  0
   -3.5680   15.7980  -34.3810 C   0  0  0  0  0  0  0  0  0  0  0  0
   -4.6900   17.8560  -33.6220 C   0  0  0  0  0  0  0  0  0  0  0  0
   -5.8360   17.2230  -33.2810 N   0  0  0  0  0  0  0  0  0  0  0  0
   -6.6800   18.1890  -32.8950 C   0  0  0  0  0  0  0  0  0  0  0  0
   -7.9830   17.9940  -32.4400 C   0  0  0  0  0  0  0  0  0  0  0  0
   -8.7260   19.1160  -32.0560 C   0  0  0  0  0  0  0  0  0  0  0  0
   -8.1580   20.4010  -32.1260 C   0  0  0  0  0  0  0  0  0  0  0  0
   -9.1820   21.9180  -31.5810 Br  0  0  0  0  0  0  0  0  0  0  0  0
   -6.8390   20.5750  -32.5840 C   0  0  0  0  0  0  0  0  0  0  0  0
   -6.1000   19.4420  -32.9740 C   0  0  0  0  0  0  0  0  0  0  0  0
   -4.7870   19.2310  -33.4390 C   0  0  0  0  0  0  0  0  0  0  0  0
   -6.2995   24.3736  -29.6931 H   0  0  0  0  0  0  0  0  0  0  0  0
   -4.8103   24.8201  -30.5928 H   0  0  0  0  0  0  0  0  0  0  0  0
   -6.2253   25.9265  -30.5928 H   0  0  0  0  0  0  0  0  0  0  0  0
   -7.3495   23.6012  -31.5615 H   0  0  0  0  0  0  0  0  0  0  0  0
   -6.6897   24.9521  -32.5830 H   0  0  0  0  0  0  0  0  0  0  0  0
   -5.1720   23.6270  -33.3750 H   0  0  0  0  0  0  0  0  0  0  0  0
   -3.7183   23.9968  -31.5447 H   0  0  0  0  0  0  0  0  0  0  0  0
   -4.6170   22.7345  -30.6042 H   0  0  0  0  0  0  0  0  0  0  0  0
   -2.3377   22.3497  -32.2103 H   0  0  0  0  0  0  0  0  0  0  0  0
   -3.4616   21.0838  -31.5144 H   0  0  0  0  0  0  0  0  0  0  0  0
   -4.6570   21.8980  -33.8170 H   0  0  0  0  0  0  0  0  0  0  0  0
   -3.0920   21.9530  -34.2250 H   0  0  0  0  0  0  0  0  0  0  0  0
   -1.3235   21.2769  -34.3296 H   0  0  0  0  0  0  0  0  0  0  0  0
    0.7970   20.1505  -34.9491 H   0  0  0  0  0  0  0  0  0  0  0  0
    0.9140   17.6730  -35.0632 H   0  0  0  0  0  0  0  0  0  0  0  0
   -1.1064   16.3035  -34.6329 H   0  0  0  0  0  0  0  0  0  0  0  0
   -3.5727   15.2296  -33.4393 H   0  0  0  0  0  0  0  0  0  0  0  0
   -4.4682   15.5510  -34.9629 H   0  0  0  0  0  0  0  0  0  0  0  0
   -2.6720   15.5361  -34.9629 H   0  0  0  0  0  0  0  0  0  0  0  0
   -6.0420   16.2000  -33.2620 H   0  0  0  0  0  0  0  0  0  0  0  0
   -8.4160   16.9844  -32.3842 H   0  0  0  0  0  0  0  0  0  0  0  0
   -9.7587   18.9925  -31.6979 H   0  0  0  0  0  0  0  0  0  0  0  0
   -6.3929   21.5791  -32.6364 H   0  0  0  0  0  0  0  0  0  0  0  0
  1  2  1  0
  2  3  1  0
  3  4  1  0
  4  5  1  0
  5  6  1  0
  6  7  1  0
  7  8  2  0
  8  9  1  0
  9 10  2  0
 10 11  1  0
 11 12  2  0
 12 13  1  0
 13 14  2  0
 14 15  1  0
 14 16  1  0
 16 17  1  0
 17 18  1  0
 18 19  2  0
 19 20  1  0
 20 21  2  0
 21 22  1  0
 21 23  1  0
 23 24  2  0
 24 25  1  0
 25  7  1  0
 13  8  1  0
 25 16  2  0
 24 18  1  0
  1 26  1  0
  1 27  1  0
  1 28  1  0
  2 29  1  0
  2 30  1  0
  3 31  1  0
  4 32  1  0
  4 33  1  0
  5 34  1  0
  5 35  1  0
  6 36  1  0
  6 37  1  0
  9 38  1  0
 10 39  1  0
 11 40  1  0
 12 41  1  0
 15 42  1  0
 15 43  1  0
 15 44  1  0
 17 45  1  0
 19 46  1  0
 20 47  1  0
 23 48  1  0
M  CHG  2   6   1  14   1
M  END
>  <UniqueID>  (21) 
20

>  <SMILES>  (21) 
CCNCC[NH2+]c1c2ccccc2[n+](C)c2[nH]c3ccc(Br)cc3c12

>  <Energy>  (21) 
110.89782993940845

>  <Genealogy>  (21) 
CCNCC[NH2+]c1c2ccccc2[n+](C)c2[nH]c3ccc(Br)cc3c12 (protonated)
CCNCC[NH2+]c1c2ccccc2[n+](C)c2[nH]c3ccc(Br)cc3c12 (3D coordinates assigned)
CCNCC[NH2+]c1c2ccccc2[n+](C)c2[nH]c3ccc(Br)cc3c12 (optimized conformer: 110.89782993940845 kcal/mol)

>  <smiles>  (21) 
CCNCCNc1c2ccccc2[n+](C)c2[nH]c3ccc(Br)cc3c12

>  <score_type>  (21) 
oracle

>  <origin>  (21) 
adg

>  <m_score__min__energy>  (21) 
-8.7899999999999991

>  <m_primary>  (21) 
energy

$$$$
