0:0
     RDKit          3D

 53 55  0  0  0  0  0  0  0  0999 V2000
   -1.4180   24.8820  -26.0800 C   0  0  0  0  0  0  0  0  0  0  0  0
   -1.3700   23.7600  -26.9540 O   0  0  0  0  0  0  0  0  0  0  0  0
   -2.3080   23.5010  -27.9640 C   0  0  0  0  0  0  0  0  0  0  0  0
   -2.8690   22.2270  -28.1620 C   0  0  0  0  0  0  0  0  0  0  0  0
   -3.7930   22.0180  -29.1860 C   0  0  0  0  0  0  0  0  0  0  0  0
   -4.1650   23.0670  -30.0360 C   0  0  0  0  0  0  0  0  0  0  0  0
   -5.1200   22.8110  -31.0790 N   0  0  0  0  0  0  0  0  0  0  0  0
   -6.5200   23.0960  -30.9460 C   0  0  0  0  0  0  0  0  0  0  0  0
   -6.9540   23.7130  -29.9350 O   0  0  0  0  0  0  0  0  0  0  0  0
   -7.4720   22.7340  -32.0480 C   0  0  0  0  0  0  0  0  0  0  0  0
   -7.5720   21.2660  -32.1760 N   0  0  0  0  0  0  0  0  0  0  0  0
   -8.6300   20.6030  -31.6100 C   0  0  0  0  0  0  0  0  0  0  0  0
   -9.5170   21.2310  -30.9680 O   0  0  0  0  0  0  0  0  0  0  0  0
   -8.7420   19.2230  -31.7340 C   0  0  0  0  0  0  0  0  0  0  0  0
   -7.7710   18.5320  -32.4430 C   0  0  0  0  0  0  0  0  0  0  0  0
   -6.7280   19.1960  -33.0160 N   0  0  0  0  0  0  0  0  0  0  0  0
   -5.6930   18.4130  -33.7170 C   0  0  0  0  0  0  0  0  0  0  0  0
   -4.4750   18.1670  -32.8150 C   0  0  0  0  0  0  0  0  0  0  0  0
   -3.4380   19.2490  -32.9730 C   0  0  0  0  0  0  0  0  0  0  0  0
   -2.5950   19.2650  -34.0970 C   0  0  0  0  0  0  0  0  0  0  0  0
   -1.5960   20.2360  -34.2140 C   0  0  0  0  0  0  0  0  0  0  0  0
   -1.4300   21.1960  -33.2110 C   0  0  0  0  0  0  0  0  0  0  0  0
   -2.2600   21.1830  -32.0870 C   0  0  0  0  0  0  0  0  0  0  0  0
   -3.2580   20.2110  -31.9640 C   0  0  0  0  0  0  0  0  0  0  0  0
   -6.6270   20.5610  -32.8870 C   0  0  0  0  0  0  0  0  0  0  0  0
   -5.6550   21.1690  -33.4180 O   0  0  0  0  0  0  0  0  0  0  0  0
   -3.6400   24.3580  -29.8260 C   0  0  0  0  0  0  0  0  0  0  0  0
   -4.0900   25.4180  -30.6310 O   0  0  0  0  0  0  0  0  0  0  0  0
   -5.3590   26.0500  -30.5020 C   0  0  0  0  0  0  0  0  0  0  0  0
   -2.6980   24.5570  -28.7950 C   0  0  0  0  0  0  0  0  0  0  0  0
   -1.4031   24.5347  -25.0364 H   0  0  0  0  0  0  0  0  0  0  0  0
   -0.5467   25.5277  -26.2640 H   0  0  0  0  0  0  0  0  0  0  0  0
   -2.3413   25.4509  -26.2640 H   0  0  0  0  0  0  0  0  0  0  0  0
   -2.5783   21.3923  -27.5072 H   0  0  0  0  0  0  0  0  0  0  0  0
   -4.2335   21.0200  -29.3271 H   0  0  0  0  0  0  0  0  0  0  0  0
   -4.7560   22.5570  -32.0250 H   0  0  0  0  0  0  0  0  0  0  0  0
   -8.4656   23.1471  -31.8197 H   0  0  0  0  0  0  0  0  0  0  0  0
   -7.0993   23.1516  -32.9950 H   0  0  0  0  0  0  0  0  0  0  0  0
   -9.5873   18.6877  -31.2770 H   0  0  0  0  0  0  0  0  0  0  0  0
   -7.8433   17.4390  -32.5437 H   0  0  0  0  0  0  0  0  0  0  0  0
   -6.1184   17.4440  -34.0172 H   0  0  0  0  0  0  0  0  0  0  0  0
   -5.3636   18.9826  -34.5985 H   0  0  0  0  0  0  0  0  0  0  0  0
   -4.8069   18.1415  -31.7666 H   0  0  0  0  0  0  0  0  0  0  0  0
   -4.0193   17.2094  -33.1071 H   0  0  0  0  0  0  0  0  0  0  0  0
   -2.7215   18.5108  -34.8877 H   0  0  0  0  0  0  0  0  0  0  0  0
   -0.9395   20.2448  -35.0966 H   0  0  0  0  0  0  0  0  0  0  0  0
   -0.6459   21.9615  -33.3068 H   0  0  0  0  0  0  0  0  0  0  0  0
   -2.1283   21.9381  -31.2980 H   0  0  0  0  0  0  0  0  0  0  0  0
   -3.9046   20.1992  -31.0742 H   0  0  0  0  0  0  0  0  0  0  0  0
   -5.6017   26.1709  -29.4359 H   0  0  0  0  0  0  0  0  0  0  0  0
   -5.3275   27.0377  -30.9852 H   0  0  0  0  0  0  0  0  0  0  0  0
   -6.1283   25.4298  -30.9852 H   0  0  0  0  0  0  0  0  0  0  0  0
   -2.2640   25.5562  -28.6422 H   0  0  0  0  0  0  0  0  0  0  0  0
  1  2  1  0
  2  3  1  0
  3  4  2  0
  4  5  1  0
  5  6  2  0
  6  7  1  0
  7  8  1  0
  8  9  2  0
  8 10  1  0
 10 11  1  0
 11 12  1  0
 12 13  2  0
 12 14  1  0
 14 15  2  0
 15 16  1  0
 16 17  1  0
 17 18  1  0
 18 19  1  0
 19 20  2  0
 20 21  1  0
 21 22  2  0
 22 23  1  0
 23 24  2  0
 16 25  1  0
 25 26  2  0
  6 27  1  0
 27 28  1  0
 28 29  1  0
 27 30  2  0
 30  3  1  0
 25 11  1  0
 24 19  1  0
  1 31  1  0
  1 32  1  0
  1 33  1  0
  4 34  1  0
  5 35  1  0
  7 36  1  0
 10 37  1  0
 10 38  1  0
 14 39  1  0
 15 40  1  0
 17 41  1  0
 17 42  1  0
 18 43  1  0
 18 44  1  0
 20 45  1  0
 21 46  1  0
 22 47  1  0
 23 48  1  0
 24 49  1  0
 29 50  1  0
 29 51  1  0
 29 52  1  0
 30 53  1  0
M  END
>  <UniqueID>  (1) 
1

>  <SMILES>  (1) 
COc1ccc(NC(=O)Cn2c(=O)ccn(CCc3ccccc3)c2=O)c(OC)c1

>  <Energy>  (1) 
59.53017152900054

>  <Genealogy>  (1) 
COc1ccc(NC(=O)Cn2c(=O)ccn(CCc3ccccc3)c2=O)c(OC)c1 (3D coordinates assigned)
COc1ccc(NC(=O)Cn2c(=O)ccn(CCc3ccccc3)c2=O)c(OC)c1 (optimized conformer: 59.53017152900054 kcal/mol)

>  <smiles>  (1) 
COc1ccc(NC(=O)Cn2c(=O)ccn(CCc3ccccc3)c2=O)c(OC)c1

>  <score_type>  (1) 
oracle

>  <origin>  (1) 
adg

>  <m_score__min__energy>  (1) 
-8.4499999999999993

>  <m_primary>  (1) 
energy

$$$$
1:0
     RDKit          3D

 55 58  0  0  0  0  0  0  0  0999 V2000
   -6.1050   17.7960  -34.5420 C   0  0  0  0  0  0  0  0  0  0  0  0
   -6.5250   17.8970  -33.1850 O   0  0  0  0  0  0  0  0  0  0  0  0
   -7.2360   18.9850  -32.6540 C   0  0  0  0  0  0  0  0  0  0  0  0
   -8.4450   18.8270  -31.9540 C   0  0  0  0  0  0  0  0  0  0  0  0
   -9.1090   19.9420  -31.4360 C   0  0  0  0  0  0  0  0  0  0  0  0
   -8.5800   21.2210  -31.6190 C   0  0  0  0  0  0  0  0  0  0  0  0
   -7.3840   21.4000  -32.3360 C   0  0  0  0  0  0  0  0  0  0  0  0
   -6.8030   22.7870  -32.5270 C   0  0  0  0  0  0  0  0  0  0  0  0
   -5.3670   22.9130  -32.1570 N   0  0  0  0  0  0  0  0  0  0  0  0
   -5.0890   22.5200  -30.7580 C   0  0  0  0  0  0  0  0  0  0  0  0
   -4.1350   23.4740  -30.1020 C   0  0  0  0  0  0  0  0  0  0  0  0
   -3.9670   24.7670  -30.4720 N   0  0  0  0  0  0  0  0  0  0  0  0
   -3.0690   25.2900  -29.6780 O   0  0  0  0  0  0  0  0  0  0  0  0
   -2.6540   24.3970  -28.8130 C   0  0  0  0  0  0  0  0  0  0  0  0
   -1.7100   24.5390  -27.7990 C   0  0  0  0  0  0  0  0  0  0  0  0
   -1.4430   23.4140  -26.9960 C   0  0  0  0  0  0  0  0  0  0  0  0
   -2.1200   22.1920  -27.2240 C   0  0  0  0  0  0  0  0  0  0  0  0
   -3.0690   22.0840  -28.2580 C   0  0  0  0  0  0  0  0  0  0  0  0
   -3.3040   23.2180  -29.0320 C   0  0  0  0  0  0  0  0  0  0  0  0
   -4.4400   22.2340  -33.0960 C   0  0  0  0  0  0  0  0  0  0  0  0
   -3.6150   21.1240  -32.4040 C   0  0  0  0  0  0  0  0  0  0  0  0
   -3.6090   19.8280  -33.2610 C   0  0  0  0  0  0  0  0  0  0  0  0
   -2.4020   18.9450  -32.9330 C   0  0  0  0  0  0  0  0  0  0  0  0
   -1.0730   19.6610  -33.2520 C   0  0  0  0  0  0  0  0  0  0  0  0
   -1.1600   21.1960  -33.1350 C   0  0  0  0  0  0  0  0  0  0  0  0
   -2.1810   21.6240  -32.0730 C   0  0  0  0  0  0  0  0  0  0  0  0
   -6.7110   20.2720  -32.8330 C   0  0  0  0  0  0  0  0  0  0  0  0
   -5.0360   17.5389  -34.5768 H   0  0  0  0  0  0  0  0  0  0  0  0
   -6.6873   17.0123  -35.0487 H   0  0  0  0  0  0  0  0  0  0  0  0
   -6.2673   18.7588  -35.0487 H   0  0  0  0  0  0  0  0  0  0  0  0
   -8.8697   17.8221  -31.8136 H   0  0  0  0  0  0  0  0  0  0  0  0
  -10.0508   19.8117  -30.8827 H   0  0  0  0  0  0  0  0  0  0  0  0
   -9.1020   22.0938  -31.1997 H   0  0  0  0  0  0  0  0  0  0  0  0
   -6.9096   23.0607  -33.5871 H   0  0  0  0  0  0  0  0  0  0  0  0
   -7.3589   23.4538  -31.8515 H   0  0  0  0  0  0  0  0  0  0  0  0
   -6.0332   22.5129  -30.1936 H   0  0  0  0  0  0  0  0  0  0  0  0
   -4.6306   21.5201  -30.7633 H   0  0  0  0  0  0  0  0  0  0  0  0
   -1.1921   25.4949  -27.6317 H   0  0  0  0  0  0  0  0  0  0  0  0
   -0.7028   23.4851  -26.1854 H   0  0  0  0  0  0  0  0  0  0  0  0
   -1.9030   21.3206  -26.5887 H   0  0  0  0  0  0  0  0  0  0  0  0
   -3.6038   21.1416  -28.4473 H   0  0  0  0  0  0  0  0  0  0  0  0
   -5.0274   21.7834  -33.9096 H   0  0  0  0  0  0  0  0  0  0  0  0
   -3.7364   22.9877  -33.4793 H   0  0  0  0  0  0  0  0  0  0  0  0
   -4.0940   20.8737  -31.4459 H   0  0  0  0  0  0  0  0  0  0  0  0
   -4.5309   19.2624  -33.0604 H   0  0  0  0  0  0  0  0  0  0  0  0
   -3.5491   20.1151  -34.3212 H   0  0  0  0  0  0  0  0  0  0  0  0
   -2.4241   18.6930  -31.8625 H   0  0  0  0  0  0  0  0  0  0  0  0
   -2.4612   18.0368  -33.5508 H   0  0  0  0  0  0  0  0  0  0  0  0
   -0.3060   19.3009  -32.5505 H   0  0  0  0  0  0  0  0  0  0  0  0
   -0.8225   19.4291  -34.2977 H   0  0  0  0  0  0  0  0  0  0  0  0
   -0.1708   21.5896  -32.8584 H   0  0  0  0  0  0  0  0  0  0  0  0
   -1.4848   21.5974  -34.1063 H   0  0  0  0  0  0  0  0  0  0  0  0
   -1.8764   21.2090  -31.1009 H   0  0  0  0  0  0  0  0  0  0  0  0
   -2.2033   22.7235  -32.0489 H   0  0  0  0  0  0  0  0  0  0  0  0
   -5.7595   20.4003  -33.3697 H   0  0  0  0  0  0  0  0  0  0  0  0
  1  2  1  0
  2  3  1  0
  3  4  2  0
  4  5  1  0
  5  6  2  0
  6  7  1  0
  7  8  1  0
  8  9  1  0
  9 10  1  0
 10 11  1  0
 11 12  2  0
 12 13  1  0
 13 14  1  0
 14 15  2  0
 15 16  1  0
 16 17  2  0
 17 18  1  0
 18 19  2  0
  9 20  1  0
 20 21  1  0
 21 22  1  0
 22 23  1  0
 23 24  1  0
 24 25  1  0
 25 26  1  0
  7 27  2  0
 27  3  1  0
 19 11  1  0
 26 21  1  0
 19 14  1  0
  1 28  1  0
  1 29  1  0
  1 30  1  0
  4 31  1  0
  5 32  1  0
  6 33  1  0
  8 34  1  0
  8 35  1  0
 10 36  1  0
 10 37  1  0
 15 38  1  0
 16 39  1  0
 17 40  1  0
 18 41  1  0
 20 42  1  0
 20 43  1  0
 21 44  1  0
 22 45  1  0
 22 46  1  0
 23 47  1  0
 23 48  1  0
 24 49  1  0
 24 50  1  0
 25 51  1  0
 25 52  1  0
 26 53  1  0
 26 54  1  0
 27 55  1  0
M  END
>  <UniqueID>  (2) 
2

>  <SMILES>  (2) 
COc1cccc(CN(Cc2noc3ccccc23)CC2CCCCC2)c1

>  <Energy>  (2) 
101.2409174270672

>  <Genealogy>  (2) 
COc1cccc(CN(Cc2noc3ccccc23)CC2CCCCC2)c1 (3D coordinates assigned)
COc1cccc(CN(Cc2noc3ccccc23)CC2CCCCC2)c1 (nonaromatic ring conformer: 101.2409174270672 kcal/mol)

>  <smiles>  (2) 
COc1cccc(CN(Cc2noc3ccccc23)CC2CCCCC2)c1

>  <score_type>  (2) 
oracle

>  <origin>  (2) 
adg

>  <m_score__min__energy>  (2) 
-9.9399999999999995

>  <m_primary>  (2) 
energy

$$$$
2:0
     RDKit          3D

 48 51  0  0  0  0  0  0  0  0999 V2000
   -7.8840   23.4730  -31.5800 C   0  0  0  0  0  0  0  0  0  0  0  0
   -7.1430   22.1700  -31.5210 C   0  0  0  0  0  0  0  0  0  0  0  0
   -5.8150   21.9380  -31.1390 C   0  0  0  0  0  0  0  0  0  0  0  0
   -4.8250   22.9320  -30.6900 C   0  0  0  0  0  0  0  0  0  0  0  0
   -4.8360   24.0810  -31.2160 O   0  0  0  0  0  0  0  0  0  0  0  0
   -3.8100   22.5890  -29.7290 N   0  0  0  0  0  0  0  0  0  0  0  0
   -3.1350   23.5590  -28.9100 C   0  0  0  0  0  0  0  0  0  0  0  0
   -3.6320   23.9430  -27.6560 C   0  0  0  0  0  0  0  0  0  0  0  0
   -2.9360   24.8710  -26.8750 C   0  0  0  0  0  0  0  0  0  0  0  0
   -1.7310   25.4190  -27.3500 C   0  0  0  0  0  0  0  0  0  0  0  0
   -0.9750   26.3850  -26.5760 N   0  0  0  0  0  0  0  0  0  0  0  0
   -0.4210   27.5960  -27.2020 C   0  0  0  0  0  0  0  0  0  0  0  0
    0.5490   28.3280  -26.2580 C   0  0  0  0  0  0  0  0  0  0  0  0
   -0.0290   28.5770  -24.9160 N   0  0  0  0  0  0  0  0  0  0  0  0
   -0.7360   29.8750  -24.8630 C   0  0  0  0  0  0  0  0  0  0  0  0
   -0.8860   27.4790  -24.3900 C   0  0  0  0  0  0  0  0  0  0  0  0
   -0.7100   26.1570  -25.1470 C   0  0  0  0  0  0  0  0  0  0  0  0
   -1.2670   25.0130  -28.5660 N   0  0  0  0  0  0  0  0  0  0  0  0
   -1.9230   24.1050  -29.3380 C   0  0  0  0  0  0  0  0  0  0  0  0
   -5.5300   20.6510  -31.2440 O   0  0  0  0  0  0  0  0  0  0  0  0
   -6.6090   20.0340  -31.6580 C   0  0  0  0  0  0  0  0  0  0  0  0
   -6.7650   18.6710  -31.9020 C   0  0  0  0  0  0  0  0  0  0  0  0
   -8.0230   18.2230  -32.3450 C   0  0  0  0  0  0  0  0  0  0  0  0
   -9.0840   19.1370  -32.5330 C   0  0  0  0  0  0  0  0  0  0  0  0
   -8.8980   20.5080  -32.2780 C   0  0  0  0  0  0  0  0  0  0  0  0
   -7.6380   20.9210  -31.8390 C   0  0  0  0  0  0  0  0  0  0  0  0
   -8.0853   23.8269  -30.5581 H   0  0  0  0  0  0  0  0  0  0  0  0
   -7.2743   24.2177  -32.1126 H   0  0  0  0  0  0  0  0  0  0  0  0
   -8.8358   23.3298  -32.1126 H   0  0  0  0  0  0  0  0  0  0  0  0
   -3.4640   21.5970  -29.7120 H   0  0  0  0  0  0  0  0  0  0  0  0
   -4.5737   23.5122  -27.2851 H   0  0  0  0  0  0  0  0  0  0  0  0
   -3.3296   25.1713  -25.8927 H   0  0  0  0  0  0  0  0  0  0  0  0
    0.1187   27.3101  -28.1169 H   0  0  0  0  0  0  0  0  0  0  0  0
   -1.2543   28.2756  -27.4339 H   0  0  0  0  0  0  0  0  0  0  0  0
    1.4549   27.7150  -26.1416 H   0  0  0  0  0  0  0  0  0  0  0  0
    0.7716   29.3067  -26.7080 H   0  0  0  0  0  0  0  0  0  0  0  0
   -0.8935   30.1642  -23.8134 H   0  0  0  0  0  0  0  0  0  0  0  0
   -0.1314   30.6427  -25.3681 H   0  0  0  0  0  0  0  0  0  0  0  0
   -1.7089   29.7835  -25.3681 H   0  0  0  0  0  0  0  0  0  0  0  0
   -0.6309   27.3128  -23.3330 H   0  0  0  0  0  0  0  0  0  0  0  0
   -1.9326   27.7919  -24.5194 H   0  0  0  0  0  0  0  0  0  0  0  0
    0.3192   25.7913  -25.0164 H   0  0  0  0  0  0  0  0  0  0  0  0
   -1.4120   25.4070  -24.7537 H   0  0  0  0  0  0  0  0  0  0  0  0
   -1.4964   23.7992  -30.3047 H   0  0  0  0  0  0  0  0  0  0  0  0
   -5.9319   17.9683  -31.7531 H   0  0  0  0  0  0  0  0  0  0  0  0
   -8.1817   17.1533  -32.5465 H   0  0  0  0  0  0  0  0  0  0  0  0
  -10.0623   18.7740  -32.8812 H   0  0  0  0  0  0  0  0  0  0  0  0
   -9.7162   21.2294  -32.4194 H   0  0  0  0  0  0  0  0  0  0  0  0
  1  2  1  0
  2  3  2  0
  3  4  1  0
  4  5  2  0
  4  6  1  0
  6  7  1  0
  7  8  2  0
  8  9  1  0
  9 10  2  0
 10 11  1  0
 11 12  1  0
 12 13  1  0
 13 14  1  0
 14 15  1  0
 14 16  1  0
 16 17  1  0
 10 18  1  0
 18 19  2  0
  3 20  1  0
 20 21  1  0
 21 22  2  0
 22 23  1  0
 23 24  2  0
 24 25  1  0
 25 26  2  0
 26  2  1  0
 19  7  1  0
 26 21  1  0
 17 11  1  0
  1 27  1  0
  1 28  1  0
  1 29  1  0
  6 30  1  0
  8 31  1  0
  9 32  1  0
 12 33  1  0
 12 34  1  0
 13 35  1  0
 13 36  1  0
 15 37  1  0
 15 38  1  0
 15 39  1  0
 16 40  1  0
 16 41  1  0
 17 42  1  0
 17 43  1  0
 19 44  1  0
 22 45  1  0
 23 46  1  0
 24 47  1  0
 25 48  1  0
M  END
>  <UniqueID>  (3) 
3

>  <SMILES>  (3) 
Cc1c(C(=O)Nc2ccc(N3CCN(C)CC3)nc2)oc2ccccc12

>  <Energy>  (3) 
99.55061647240895

>  <Genealogy>  (3) 
Cc1c(C(=O)Nc2ccc(N3CCN(C)CC3)nc2)oc2ccccc12 (3D coordinates assigned)
Cc1c(C(=O)Nc2ccc(N3CCN(C)CC3)nc2)oc2ccccc12 (nonaromatic ring conformer: 99.55061647240895 kcal/mol)

>  <smiles>  (3) 
Cc1c(C(=O)Nc2ccc(N3CCN(C)CC3)nc2)oc2ccccc12

>  <score_type>  (3) 
oracle

>  <origin>  (3) 
adg

>  <m_score__min__energy>  (3) 
-8.6300000000000008

>  <m_primary>  (3) 
energy

$$$$
3:0
     RDKit          3D

 43 45  0  0  0  0  0  0  0  0999 V2000
    0.5940   22.4310  -35.7250 C   0  0  0  0  0  0  0  0  0  0  0  0
   -0.1160   21.9750  -34.5780 O   0  0  0  0  0  0  0  0  0  0  0  0
    0.2840   20.8990  -33.7670 C   0  0  0  0  0  0  0  0  0  0  0  0
    1.4920   20.2090  -33.9970 C   0  0  0  0  0  0  0  0  0  0  0  0
    1.8820   19.1650  -33.1560 C   0  0  0  0  0  0  0  0  0  0  0  0
    1.0780   18.7970  -32.0780 C   0  0  0  0  0  0  0  0  0  0  0  0
   -0.1230   19.4660  -31.8410 C   0  0  0  0  0  0  0  0  0  0  0  0
   -0.5360   20.5130  -32.6820 C   0  0  0  0  0  0  0  0  0  0  0  0
   -1.8240   21.1980  -32.4140 C   0  0  0  0  0  0  0  0  0  0  0  0
   -2.8360   21.2240  -33.3880 C   0  0  0  0  0  0  0  0  0  0  0  0
   -4.0500   21.8640  -33.1290 C   0  0  0  0  0  0  0  0  0  0  0  0
   -4.2800   22.4890  -31.8920 C   0  0  0  0  0  0  0  0  0  0  0  0
   -5.6020   23.1860  -31.6270 C   0  0  2  0  0  0  0  0  0  0  0  0
   -5.6010   23.9510  -30.2870 C   0  0  0  0  0  0  0  0  0  0  0  0
   -4.8800   25.2600  -30.4070 C   0  0  0  0  0  0  0  0  0  0  0  0
   -5.5290   26.3360  -30.4900 O   0  0  0  0  0  0  0  0  0  0  0  0
   -3.4930   25.2870  -30.4730 O   0  0  0  0  0  0  0  0  0  0  0  0
   -6.7360   22.1970  -31.7100 C   0  0  0  0  0  0  0  0  0  0  0  0
   -8.0340   22.5770  -31.7430 N   0  0  0  0  0  0  0  0  0  0  0  0
   -8.8770   21.5180  -31.8800 C   0  0  0  0  0  0  0  0  0  0  0  0
   -8.2450   20.2850  -31.9860 C   0  0  0  0  0  0  0  0  0  0  0  0
   -8.9230   18.9590  -32.0750 C   0  0  0  0  0  0  0  0  0  0  0  0
   -6.5860   20.5240  -31.8750 S   0  0  0  0  0  0  0  0  0  0  0  0
   -3.2680   22.4540  -30.9140 C   0  0  0  0  0  0  0  0  0  0  0  0
   -2.0540   21.8120  -31.1730 C   0  0  0  0  0  0  0  0  0  0  0  0
    1.4797   22.9999  -35.4058 H   0  0  0  0  0  0  0  0  0  0  0  0
    0.9107   21.5670  -36.3276 H   0  0  0  0  0  0  0  0  0  0  0  0
   -0.0600   23.0784  -36.3276 H   0  0  0  0  0  0  0  0  0  0  0  0
    2.1316   20.4953  -34.8449 H   0  0  0  0  0  0  0  0  0  0  0  0
    2.8255   18.6317  -33.3443 H   0  0  0  0  0  0  0  0  0  0  0  0
    1.3911   17.9781  -31.4136 H   0  0  0  0  0  0  0  0  0  0  0  0
   -0.7522   19.1712  -30.9882 H   0  0  0  0  0  0  0  0  0  0  0  0
   -2.6712   20.7373  -34.3606 H   0  0  0  0  0  0  0  0  0  0  0  0
   -4.8336   21.8789  -33.9009 H   0  0  0  0  0  0  0  0  0  0  0  0
   -5.7480   23.9452  -32.4095 H   0  0  0  0  0  0  0  0  0  0  0  0
   -6.6407   24.1413  -29.9824 H   0  0  0  0  0  0  0  0  0  0  0  0
   -5.0817   23.3363  -29.5370 H   0  0  0  0  0  0  0  0  0  0  0  0
   -9.9711   21.6289  -31.9049 H   0  0  0  0  0  0  0  0  0  0  0  0
   -9.1178   18.5780  -31.0616 H   0  0  0  0  0  0  0  0  0  0  0  0
   -9.8752   19.0695  -32.6145 H   0  0  0  0  0  0  0  0  0  0  0  0
   -8.2759   18.2518  -32.6145 H   0  0  0  0  0  0  0  0  0  0  0  0
   -3.4340   22.9354  -29.9390 H   0  0  0  0  0  0  0  0  0  0  0  0
   -1.2731   21.7877  -30.3987 H   0  0  0  0  0  0  0  0  0  0  0  0
  1  2  1  0
  2  3  1  0
  3  4  2  0
  4  5  1  0
  5  6  2  0
  6  7  1  0
  7  8  2  0
  8  9  1  0
  9 10  2  0
 10 11  1  0
 11 12  2  0
 12 13  1  0
 13 14  1  0
 14 15  1  0
 15 16  2  0
 15 17  1  0
 13 18  1  0
 18 19  2  0
 19 20  1  0
 20 21  2  0
 21 22  1  0
 21 23  1  0
 12 24  1  0
 24 25  2  0
  8  3  1  0
 25  9  1  0
 23 18  1  0
  1 26  1  0
  1 27  1  0
  1 28  1  0
  4 29  1  0
  5 30  1  0
  6 31  1  0
  7 32  1  0
 10 33  1  0
 11 34  1  0
 13 35  1  6
 14 36  1  0
 14 37  1  0
 20 38  1  0
 22 39  1  0
 22 40  1  0
 22 41  1  0
 24 42  1  0
 25 43  1  0
M  CHG  1  17  -1
M  END
>  <UniqueID>  (4) 
4

>  <SMILES>  (4) 
COc1ccccc1-c1ccc([C@H](CC(=O)[O-])c2ncc(C)s2)cc1

>  <Energy>  (4) 
77.52208639251317

>  <Genealogy>  (4) 
COc1ccccc1-c1ccc(C(CC(=O)[O-])c2ncc(C)s2)cc1 (protonated)
COc1ccccc1-c1ccc([C@H](CC(=O)[O-])c2ncc(C)s2)cc1 (chirality)
COc1ccccc1-c1ccc([C@H](CC(=O)[O-])c2ncc(C)s2)cc1 (3D coordinates assigned)
COc1ccccc1-c1ccc([C@H](CC(=O)[O-])c2ncc(C)s2)cc1 (optimized conformer: 77.52208639251317 kcal/mol)

>  <smiles>  (4) 
COc1ccccc1-c1ccc(C(CC(=O)O)c2ncc(C)s2)cc1

>  <score_type>  (4) 
oracle

>  <origin>  (4) 
adg

>  <m_score__min__energy>  (4) 
-10.289999999999999

>  <m_primary>  (4) 
energy

$$$$
4:0
     RDKit          3D

 48 51  0  0  0  0  0  0  0  0999 V2000
   -1.8760   21.6440  -31.6950 C   0  0  0  0  0  0  0  0  0  0  0  0
   -3.1690   22.3530  -31.4190 C   0  0  0  0  0  0  0  0  0  0  0  0
   -3.3690   23.4400  -30.5650 C   0  0  0  0  0  0  0  0  0  0  0  0
   -2.3650   24.1110  -29.7150 C   0  0  0  0  0  0  0  0  0  0  0  0
   -2.5760   25.2900  -29.3280 O   0  0  0  0  0  0  0  0  0  0  0  0
   -1.1390   23.4690  -29.3430 N   0  0  0  0  0  0  0  0  0  0  0  0
   -1.0070   22.1260  -28.8510 C   0  0  0  0  0  0  0  0  0  0  0  0
   -2.0630   21.4700  -28.1950 C   0  0  0  0  0  0  0  0  0  0  0  0
   -1.9060   20.1570  -27.7480 C   0  0  0  0  0  0  0  0  0  0  0  0
   -0.6930   19.4820  -27.9270 C   0  0  0  0  0  0  0  0  0  0  0  0
   -0.5940   18.1610  -27.4630 O   0  0  0  0  0  0  0  0  0  0  0  0
    0.4410   17.2420  -27.8060 C   0  0  0  0  0  0  0  0  0  0  0  0
    0.2550   16.0720  -27.0970 F   0  0  0  0  0  0  0  0  0  0  0  0
    1.6760   17.7720  -27.4770 F   0  0  0  0  0  0  0  0  0  0  0  0
    0.3960   16.9570  -29.1590 F   0  0  0  0  0  0  0  0  0  0  0  0
    0.3750   20.1520  -28.5560 C   0  0  0  0  0  0  0  0  0  0  0  0
    0.2170   21.4670  -29.0050 C   0  0  0  0  0  0  0  0  0  0  0  0
   -4.7280   23.7060  -30.6020 C   0  0  0  0  0  0  0  0  0  0  0  0
   -5.4470   24.6830  -29.9060 C   0  0  0  0  0  0  0  0  0  0  0  0
   -6.8360   24.7320  -30.0930 C   0  0  0  0  0  0  0  0  0  0  0  0
   -7.4680   23.8160  -30.9520 C   0  0  0  0  0  0  0  0  0  0  0  0
   -6.7020   22.8480  -31.6130 C   0  0  0  0  0  0  0  0  0  0  0  0
   -5.3570   22.8250  -31.4030 N   0  0  0  0  0  0  0  0  0  0  0  0
   -4.4220   21.9860  -31.9000 C   0  0  0  0  0  0  0  0  0  0  0  0
   -4.7080   20.8090  -32.7460 C   0  0  0  0  0  0  0  0  0  0  0  0
   -3.9540   20.5710  -33.7270 O   0  0  0  0  0  0  0  0  0  0  0  0
   -5.8420   19.8990  -32.4500 C   0  0  0  0  0  0  0  0  0  0  0  0
   -7.1170   20.1610  -32.9840 C   0  0  0  0  0  0  0  0  0  0  0  0
   -8.1870   19.3030  -32.7140 C   0  0  0  0  0  0  0  0  0  0  0  0
   -7.9970   18.1740  -31.9160 C   0  0  0  0  0  0  0  0  0  0  0  0
   -6.7350   17.8970  -31.3870 C   0  0  0  0  0  0  0  0  0  0  0  0
   -5.6600   18.7510  -31.6540 C   0  0  0  0  0  0  0  0  0  0  0  0
   -1.3927   21.3790  -30.7431 H   0  0  0  0  0  0  0  0  0  0  0  0
   -2.0755   20.7291  -32.2722 H   0  0  0  0  0  0  0  0  0  0  0  0
   -1.2118   22.3041  -32.2722 H   0  0  0  0  0  0  0  0  0  0  0  0
   -3.0169   21.9934  -28.0333 H   0  0  0  0  0  0  0  0  0  0  0  0
   -2.7441   19.6476  -27.2500 H   0  0  0  0  0  0  0  0  0  0  0  0
    1.3377   19.6383  -28.6946 H   0  0  0  0  0  0  0  0  0  0  0  0
    1.0609   21.9865  -29.4824 H   0  0  0  0  0  0  0  0  0  0  0  0
   -4.9394   25.3902  -29.2336 H   0  0  0  0  0  0  0  0  0  0  0  0
   -7.4334   25.4902  -29.5654 H   0  0  0  0  0  0  0  0  0  0  0  0
   -8.5566   23.8594  -31.1038 H   0  0  0  0  0  0  0  0  0  0  0  0
   -7.1772   22.1211  -32.2881 H   0  0  0  0  0  0  0  0  0  0  0  0
   -7.2728   21.0464  -33.6178 H   0  0  0  0  0  0  0  0  0  0  0  0
   -9.1816   19.5183  -33.1317 H   0  0  0  0  0  0  0  0  0  0  0  0
   -8.8418   17.5022  -31.7037 H   0  0  0  0  0  0  0  0  0  0  0  0
   -6.5860   17.0060  -30.7594 H   0  0  0  0  0  0  0  0  0  0  0  0
   -4.6663   18.5249  -31.2399 H   0  0  0  0  0  0  0  0  0  0  0  0
  1  2  1  0
  2  3  1  0
  3  4  1  0
  4  5  2  0
  4  6  1  0
  6  7  1  0
  7  8  2  0
  8  9  1  0
  9 10  2  0
 10 11  1  0
 11 12  1  0
 12 13  1  0
 12 14  1  0
 12 15  1  0
 10 16  1  0
 16 17  2  0
  3 18  2  0
 18 19  1  0
 19 20  2  0
 20 21  1  0
 21 22  2  0
 22 23  1  0
 23 24  1  0
 24 25  1  0
 25 26  2  0
 25 27  1  0
 27 28  2  0
 28 29  1  0
 29 30  2  0
 30 31  1  0
 31 32  2  0
 24  2  2  0
 32 27  1  0
 17  7  1  0
 23 18  1  0
  1 33  1  0
  1 34  1  0
  1 35  1  0
  8 36  1  0
  9 37  1  0
 16 38  1  0
 17 39  1  0
 19 40  1  0
 20 41  1  0
 21 42  1  0
 22 43  1  0
 28 44  1  0
 29 45  1  0
 30 46  1  0
 31 47  1  0
 32 48  1  0
M  CHG  1   6  -1
M  END
>  <UniqueID>  (5) 
5

>  <SMILES>  (5) 
Cc1c(C(=O)[N-]c2ccc(OC(F)(F)F)cc2)c2ccccn2c1C(=O)c1ccccc1

>  <Energy>  (5) 
97.58225902860923

>  <Genealogy>  (5) 
Cc1c(C(=O)[N-]c2ccc(OC(F)(F)F)cc2)c2ccccn2c1C(=O)c1ccccc1 (protonated)
Cc1c(C(=O)[N-]c2ccc(OC(F)(F)F)cc2)c2ccccn2c1C(=O)c1ccccc1 (3D coordinates assigned)
Cc1c(C(=O)[N-]c2ccc(OC(F)(F)F)cc2)c2ccccn2c1C(=O)c1ccccc1 (optimized conformer: 97.58225902860923 kcal/mol)

>  <smiles>  (5) 
Cc1c(C(=O)Nc2ccc(OC(F)(F)F)cc2)c2ccccn2c1C(=O)c1ccccc1

>  <score_type>  (5) 
oracle

>  <origin>  (5) 
adg

>  <m_score__min__energy>  (5) 
-11.02

>  <m_primary>  (5) 
energy

$$$$
5:0
     RDKit          3D

 39 42  0  0  0  0  0  0  0  0999 V2000
   -5.7990   26.0070  -30.8380 O   0  0  0  0  0  0  0  0  0  0  0  0
   -4.9870   25.0500  -30.7190 C   0  0  0  0  0  0  0  0  0  0  0  0
   -3.7430   25.2940  -30.2400 N   0  0  0  0  0  0  0  0  0  0  0  0
   -2.8450   24.3210  -30.0930 N   0  0  0  0  0  0  0  0  0  0  0  0
   -3.1160   23.0280  -30.4160 C   0  0  0  0  0  0  0  0  0  0  0  0
   -2.0340   22.0030  -30.1720 C   0  0  0  0  0  0  0  0  0  0  0  0
   -1.7120   21.8870  -28.7020 C   0  0  0  0  0  0  0  0  0  0  0  0
   -1.5540   20.6260  -28.1050 C   0  0  0  0  0  0  0  0  0  0  0  0
   -1.2490   20.5250  -26.7470 C   0  0  0  0  0  0  0  0  0  0  0  0
   -1.0900   21.6750  -25.9730 C   0  0  0  0  0  0  0  0  0  0  0  0
   -1.2290   22.9490  -26.5540 C   0  0  0  0  0  0  0  0  0  0  0  0
   -1.0610   24.1750  -25.7330 C   0  0  0  0  0  0  0  0  0  0  0  0
   -1.7530   25.3560  -26.0520 C   0  0  0  0  0  0  0  0  0  0  0  0
   -1.5860   26.5000  -25.2710 C   0  0  0  0  0  0  0  0  0  0  0  0
   -0.7270   26.4600  -24.1740 C   0  0  0  0  0  0  0  0  0  0  0  0
   -0.0580   25.3150  -23.8700 N   0  0  0  0  0  0  0  0  0  0  0  0
   -0.2060   24.1850  -24.6160 C   0  0  0  0  0  0  0  0  0  0  0  0
   -1.5320   23.0440  -27.9240 C   0  0  0  0  0  0  0  0  0  0  0  0
   -4.3980   22.7020  -30.9200 C   0  0  0  0  0  0  0  0  0  0  0  0
   -4.7600   21.3860  -31.2750 C   0  0  0  0  0  0  0  0  0  0  0  0
   -6.0400   21.1100  -31.7640 C   0  0  0  0  0  0  0  0  0  0  0  0
   -6.9730   22.1350  -31.9090 C   0  0  0  0  0  0  0  0  0  0  0  0
   -6.6340   23.4450  -31.5670 C   0  0  0  0  0  0  0  0  0  0  0  0
   -5.3490   23.7400  -31.0710 C   0  0  0  0  0  0  0  0  0  0  0  0
   -2.3761   21.0254  -30.5424 H   0  0  0  0  0  0  0  0  0  0  0  0
   -1.1254   22.3233  -30.7029 H   0  0  0  0  0  0  0  0  0  0  0  0
   -1.6710   19.7147  -28.7098 H   0  0  0  0  0  0  0  0  0  0  0  0
   -1.1333   19.5337  -26.2844 H   0  0  0  0  0  0  0  0  0  0  0  0
   -0.8546   21.5851  -24.9022 H   0  0  0  0  0  0  0  0  0  0  0  0
   -2.4283   25.3784  -26.9200 H   0  0  0  0  0  0  0  0  0  0  0  0
   -2.1273   27.4250  -25.5187 H   0  0  0  0  0  0  0  0  0  0  0  0
   -0.5896   27.3569  -23.5522 H   0  0  0  0  0  0  0  0  0  0  0  0
    0.5850   25.3030  -23.0470 H   0  0  0  0  0  0  0  0  0  0  0  0
    0.3469   23.2740  -24.3431 H   0  0  0  0  0  0  0  0  0  0  0  0
   -1.6292   24.0347  -28.3921 H   0  0  0  0  0  0  0  0  0  0  0  0
   -4.0296   20.5707  -31.1663 H   0  0  0  0  0  0  0  0  0  0  0  0
   -6.3121   20.0793  -32.0355 H   0  0  0  0  0  0  0  0  0  0  0  0
   -7.9789   21.9111  -32.2939 H   0  0  0  0  0  0  0  0  0  0  0  0
   -7.3735   24.2507  -31.6853 H   0  0  0  0  0  0  0  0  0  0  0  0
  1  2  2  0
  2  3  1  0
  3  4  1  0
  4  5  2  0
  5  6  1  0
  6  7  1  0
  7  8  2  0
  8  9  1  0
  9 10  2  0
 10 11  1  0
 11 12  1  0
 12 13  2  0
 13 14  1  0
 14 15  2  0
 15 16  1  0
 16 17  2  0
 11 18  2  0
  5 19  1  0
 19 20  2  0
 20 21  1  0
 21 22  2  0
 22 23  1  0
 23 24  2  0
 24  2  1  0
 18  7  1  0
 24 19  1  0
 17 12  1  0
  6 25  1  0
  6 26  1  0
  8 27  1  0
  9 28  1  0
 10 29  1  0
 13 30  1  0
 14 31  1  0
 15 32  1  0
 16 33  1  0
 17 34  1  0
 18 35  1  0
 20 36  1  0
 21 37  1  0
 22 38  1  0
 23 39  1  0
M  CHG  2   3  -1  16   1
M  END
>  <UniqueID>  (6) 
6

>  <SMILES>  (6) 
O=c1[n-]nc(Cc2cccc(-c3ccc[nH+]c3)c2)c2ccccc12

>  <Energy>  (6) 
55.72894389643646

>  <Genealogy>  (6) 
O=c1[n-]nc(Cc2cccc(-c3ccc[nH+]c3)c2)c2ccccc12 (protonated)
O=c1[n-]nc(Cc2cccc(-c3ccc[nH+]c3)c2)c2ccccc12 (3D coordinates assigned)
O=c1[n-]nc(Cc2cccc(-c3ccc[nH+]c3)c2)c2ccccc12 (optimized conformer: 55.72894389643646 kcal/mol)

>  <smiles>  (6) 
O=c1[nH]nc(Cc2cccc(-c3cccnc3)c2)c2ccccc12

>  <score_type>  (6) 
oracle

>  <origin>  (6) 
adg

>  <m_score__min__energy>  (6) 
-10.880000000000001

>  <m_primary>  (6) 
energy

$$$$
6:0
     RDKit          3D

 67 71  0  0  0  0  0  0  0  0999 V2000
    0.8052   22.2470  -29.2801 H   0  0  0  0  0  0  0  0  0  0  0  0
   -0.1110   22.8420  -29.4090 C   0  0  0  0  0  0  0  0  0  0  0  0
   -0.2360   24.0760  -28.7420 C   0  0  0  0  0  0  0  0  0  0  0  0
    0.7750   24.5410  -27.8850 O   0  0  0  0  0  0  0  0  0  0  0  0
    1.1380   23.9350  -26.6490 C   0  0  0  0  0  0  0  0  0  0  0  0
    0.7688   24.5514  -25.8161 H   0  0  0  0  0  0  0  0  0  0  0  0
    0.6924   22.9312  -26.5880 H   0  0  0  0  0  0  0  0  0  0  0  0
    2.2333   23.8542  -26.5880 H   0  0  0  0  0  0  0  0  0  0  0  0
   -1.4130   24.8480  -28.9310 C   0  0  0  0  0  0  0  0  0  0  0  0
   -1.6130   26.1160  -28.3550 O   0  0  0  0  0  0  0  0  0  0  0  0
   -1.0820   26.5760  -27.1130 C   0  0  0  0  0  0  0  0  0  0  0  0
   -1.6278   26.1032  -26.2833 H   0  0  0  0  0  0  0  0  0  0  0  0
   -0.0163   26.3109  -27.0492 H   0  0  0  0  0  0  0  0  0  0  0  0
   -1.1925   27.6686  -27.0492 H   0  0  0  0  0  0  0  0  0  0  0  0
   -2.4510   24.3500  -29.7320 C   0  0  0  0  0  0  0  0  0  0  0  0
   -3.6170   25.1190  -29.8600 O   0  0  0  0  0  0  0  0  0  0  0  0
   -4.9420   24.6200  -29.6760 C   0  0  0  0  0  0  0  0  0  0  0  0
   -5.1572   24.5390  -28.6003 H   0  0  0  0  0  0  0  0  0  0  0  0
   -5.6614   25.3088  -30.1430 H   0  0  0  0  0  0  0  0  0  0  0  0
   -5.0283   23.6278  -30.1430 H   0  0  0  0  0  0  0  0  0  0  0  0
   -2.3050   23.1140  -30.3820 C   0  0  0  0  0  0  0  0  0  0  0  0
   -3.1194   22.7325  -31.0154 H   0  0  0  0  0  0  0  0  0  0  0  0
   -1.1330   22.3620  -30.2320 C   0  0  0  0  0  0  0  0  0  0  0  0
   -1.0010   21.0580  -30.9070 C   0  0  0  0  0  0  0  0  0  0  0  0
   -1.4860   20.8120  -32.1430 N   0  0  0  0  0  0  0  0  0  0  0  0
   -1.2270   19.5090  -32.3400 C   0  0  0  0  0  0  0  0  0  0  0  0
   -1.6030   18.7740  -33.5600 C   0  0  0  0  0  0  0  0  0  0  0  0
   -1.0710   19.0810  -34.6610 O   0  0  0  0  0  0  0  0  0  0  0  0
   -2.6030   17.7550  -33.5500 N   0  0  0  0  0  0  0  0  0  0  0  0
   -3.5840   16.9210  -33.7030 C   0  0  0  0  0  0  0  0  0  0  0  0
   -3.3810   15.5790  -33.6540 N   0  0  0  0  0  0  0  0  0  0  0  0
   -4.6060   15.0770  -33.8930 C   0  0  0  0  0  0  0  0  0  0  0  0
   -4.9690   13.7370  -33.9960 C   0  0  0  0  0  0  0  0  0  0  0  0
   -4.2288   12.9355  -33.8559 H   0  0  0  0  0  0  0  0  0  0  0  0
   -6.3130   13.4420  -34.2850 C   0  0  0  0  0  0  0  0  0  0  0  0
   -6.6329   12.3947  -34.3886 H   0  0  0  0  0  0  0  0  0  0  0  0
   -7.2540   14.4820  -34.4430 C   0  0  0  0  0  0  0  0  0  0  0  0
   -8.3051   14.2401  -34.6590 H   0  0  0  0  0  0  0  0  0  0  0  0
   -6.8560   15.8250  -34.3260 C   0  0  0  0  0  0  0  0  0  0  0  0
   -7.5813   16.6445  -34.4371 H   0  0  0  0  0  0  0  0  0  0  0  0
   -5.5090   16.0840  -34.0640 C   0  0  0  0  0  0  0  0  0  0  0  0
   -4.8800   17.2700  -33.9490 N   0  0  0  0  0  0  0  0  0  0  0  0
   -5.5150   18.5930  -33.9450 C   0  0  0  0  0  0  0  0  0  0  0  0
   -5.1365   19.1740  -34.7990 H   0  0  0  0  0  0  0  0  0  0  0  0
   -6.6037   18.4540  -34.0184 H   0  0  0  0  0  0  0  0  0  0  0  0
   -5.2130   19.3560  -32.6500 C   0  0  0  0  0  0  0  0  0  0  0  0
   -4.4494   18.8075  -32.0790 H   0  0  0  0  0  0  0  0  0  0  0  0
   -4.8504   20.3610  -32.9118 H   0  0  0  0  0  0  0  0  0  0  0  0
   -6.4280   19.4950  -31.8220 N   0  0  0  0  0  0  0  0  0  0  0  0
   -7.1770   18.2270  -31.7580 C   0  0  0  0  0  0  0  0  0  0  0  0
   -6.8686   17.5667  -32.5820 H   0  0  0  0  0  0  0  0  0  0  0  0
   -6.9786   17.7074  -30.8090 H   0  0  0  0  0  0  0  0  0  0  0  0
   -8.6510   18.5610  -31.8860 C   0  0  0  0  0  0  0  0  0  0  0  0
   -9.1937   17.7514  -32.3959 H   0  0  0  0  0  0  0  0  0  0  0  0
   -9.1453   18.6878  -30.9115 H   0  0  0  0  0  0  0  0  0  0  0  0
   -8.6620   19.8180  -32.7130 C   0  0  0  0  0  0  0  0  0  0  0  0
   -8.6910   19.5790  -33.7863 H   0  0  0  0  0  0  0  0  0  0  0  0
   -9.5439   20.4452  -32.5159 H   0  0  0  0  0  0  0  0  0  0  0  0
   -7.3600   20.5120  -32.3500 C   0  0  0  0  0  0  0  0  0  0  0  0
   -6.9279   20.9848  -33.2443 H   0  0  0  0  0  0  0  0  0  0  0  0
   -7.5416   21.2905  -31.5944 H   0  0  0  0  0  0  0  0  0  0  0  0
   -0.5580   19.0200  -31.2300 C   0  0  0  0  0  0  0  0  0  0  0  0
   -0.0500   17.6340  -31.0040 C   0  0  0  0  0  0  0  0  0  0  0  0
    0.0207   17.4411  -29.9234 H   0  0  0  0  0  0  0  0  0  0  0  0
   -0.7416   16.9109  -31.4611 H   0  0  0  0  0  0  0  0  0  0  0  0
    0.9450   17.5291  -31.4611 H   0  0  0  0  0  0  0  0  0  0  0  0
   -0.4370   19.9990  -30.3660 O   0  0  0  0  0  0  0  0  0  0  0  0
  1  2  1  0
  2  3  2  0
  3  4  1  0
  4  5  1  0
  5  6  1  0
  5  7  1  0
  5  8  1  0
  3  9  1  0
  9 10  1  0
 10 11  1  0
 11 12  1  0
 11 13  1  0
 11 14  1  0
  9 15  2  0
 15 16  1  0
 16 17  1  0
 17 18  1  0
 17 19  1  0
 17 20  1  0
 15 21  1  0
 21 22  1  0
 21 23  2  0
 23 24  1  0
 24 25  2  0
 25 26  1  0
 26 27  1  0
 27 28  2  0
 27 29  1  0
 29 30  2  0
 30 31  1  0
 31 32  1  0
 32 33  2  0
 33 34  1  0
 33 35  1  0
 35 36  1  0
 35 37  2  0
 37 38  1  0
 37 39  1  0
 39 40  1  0
 39 41  2  0
 41 42  1  0
 42 43  1  0
 43 44  1  0
 43 45  1  0
 43 46  1  0
 46 47  1  0
 46 48  1  0
 46 49  1  0
 49 50  1  0
 50 51  1  0
 50 52  1  0
 50 53  1  0
 53 54  1  0
 53 55  1  0
 53 56  1  0
 56 57  1  0
 56 58  1  0
 56 59  1  0
 59 60  1  0
 59 61  1  0
 26 62  2  0
 62 63  1  0
 63 64  1  0
 63 65  1  0
 63 66  1  0
 62 67  1  0
 23  2  1  0
 67 24  1  0
 42 30  1  0
 59 49  1  0
 41 32  1  0
M  CHG  1  31  -1
M  END
>  <UniqueID>  (7) 
7

>  <SMILES>  (7) 
COc1cc(-c2nc(C(=O)/N=c3/[n-]c4ccccc4n3CCN3CCCC3)c(C)o2)cc(OC)c1OC

>  <Energy>  (7) 
187.53042795443545

>  <Genealogy>  (7) 
COc1cc(-c2nc(C(=O)N=c3[n-]c4ccccc4n3CCN3CCCC3)c(C)o2)cc(OC)c1OC (protonated)
COc1cc(-c2nc(C(=O)/N=c3/[n-]c4ccccc4n3CCN3CCCC3)c(C)o2)cc(OC)c1OC (cis-trans isomerization)
COc1cc(-c2nc(C(=O)/N=c3/[n-]c4ccccc4n3CCN3CCCC3)c(C)o2)cc(OC)c1OC (3D coordinates assigned)
COc1cc(-c2nc(C(=O)/N=c3/[n-]c4ccccc4n3CCN3CCCC3)c(C)o2)cc(OC)c1OC (nonaromatic ring conformer: 187.53042795443545 kcal/mol)

>  <smiles>  (7) 
COc1cc(-c2nc(C(=O)N=c3[nH]c4ccccc4n3CCN3CCCC3)c(C)o2)cc(OC)c1OC

>  <score_type>  (7) 
oracle

>  <origin>  (7) 
adg

>  <m_score__min__energy>  (7) 
-9.7400000000000002

>  <m_primary>  (7) 
energy

$$$$
7:0
     RDKit          3D

 43 46  0  0  0  0  0  0  0  0999 V2000
   -5.4113   26.9474  -29.8323 H   0  0  0  0  0  0  0  0  0  0  0  0
   -5.5840   25.8930  -30.0940 C   0  0  0  0  0  0  0  0  0  0  0  0
   -4.5980   25.1640  -30.6740 N   0  0  0  0  0  0  0  0  0  0  0  0
   -4.7900   23.8610  -31.0060 C   0  0  0  0  0  0  0  0  0  0  0  0
   -3.7850   23.1540  -31.5820 N   0  0  0  0  0  0  0  0  0  0  0  0
   -3.9250   21.8470  -31.9320 C   0  0  0  0  0  0  0  0  0  0  0  0
   -2.7790   21.1390  -32.5570 C   0  0  0  0  0  0  0  0  0  0  0  0
   -2.9780   20.0620  -33.4460 C   0  0  0  0  0  0  0  0  0  0  0  0
   -4.0000   19.7366  -33.6904 H   0  0  0  0  0  0  0  0  0  0  0  0
   -1.8850   19.4060  -34.0180 C   0  0  0  0  0  0  0  0  0  0  0  0
   -2.0503   18.5713  -34.7151 H   0  0  0  0  0  0  0  0  0  0  0  0
   -0.5840   19.8060  -33.7080 C   0  0  0  0  0  0  0  0  0  0  0  0
    0.4750   19.1660  -34.2640 F   0  0  0  0  0  0  0  0  0  0  0  0
   -0.3730   20.8630  -32.8190 C   0  0  0  0  0  0  0  0  0  0  0  0
    0.6521   21.1760  -32.5716 H   0  0  0  0  0  0  0  0  0  0  0  0
   -1.4630   21.5240  -32.2430 C   0  0  0  0  0  0  0  0  0  0  0  0
   -1.2897   22.3513  -31.5390 H   0  0  0  0  0  0  0  0  0  0  0  0
   -5.1550   21.2020  -31.7070 C   0  0  0  0  0  0  0  0  0  0  0  0
   -5.2854   20.1514  -32.0058 H   0  0  0  0  0  0  0  0  0  0  0  0
   -6.2230   21.8980  -31.0990 C   0  0  0  0  0  0  0  0  0  0  0  0
   -7.3750   21.3290  -30.8620 N   0  0  0  0  0  0  0  0  0  0  0  0
   -8.4230   21.0010  -31.8310 C   0  0  0  0  0  0  0  0  0  0  0  0
   -9.3645   21.4774  -31.5201 H   0  0  0  0  0  0  0  0  0  0  0  0
   -8.1179   21.3703  -32.8212 H   0  0  0  0  0  0  0  0  0  0  0  0
   -8.6290   19.4840  -31.9120 C   0  0  0  0  0  0  0  0  0  0  0  0
   -8.6628   19.0682  -30.8942 H   0  0  0  0  0  0  0  0  0  0  0  0
   -9.5746   19.2804  -32.4359 H   0  0  0  0  0  0  0  0  0  0  0  0
   -7.5020   18.8400  -32.6730 C   0  0  0  0  0  0  0  0  0  0  0  0
   -6.8640   19.5360  -33.7150 C   0  0  0  0  0  0  0  0  0  0  0  0
   -7.1728   20.5635  -33.9576 H   0  0  0  0  0  0  0  0  0  0  0  0
   -5.8380   18.9260  -34.4440 C   0  0  0  0  0  0  0  0  0  0  0  0
   -5.3361   19.4768  -35.2532 H   0  0  0  0  0  0  0  0  0  0  0  0
   -5.4500   17.6170  -34.1450 C   0  0  0  0  0  0  0  0  0  0  0  0
   -4.6413   17.1392  -34.7175 H   0  0  0  0  0  0  0  0  0  0  0  0
   -6.0880   16.9150  -33.1200 C   0  0  0  0  0  0  0  0  0  0  0  0
   -5.7820   15.8843  -32.8873 H   0  0  0  0  0  0  0  0  0  0  0  0
   -7.1150   17.5200  -32.3890 C   0  0  0  0  0  0  0  0  0  0  0  0
   -7.6215   16.9603  -31.5889 H   0  0  0  0  0  0  0  0  0  0  0  0
   -6.0340   23.2510  -30.7460 C   0  0  0  0  0  0  0  0  0  0  0  0
   -7.0230   23.9930  -30.1590 N   0  0  0  0  0  0  0  0  0  0  0  0
   -7.9580   23.5750  -29.9510 H   0  0  0  0  0  0  0  0  0  0  0  0
   -6.8190   25.2980  -29.8310 C   0  0  0  0  0  0  0  0  0  0  0  0
   -7.6241   25.8815  -29.3605 H   0  0  0  0  0  0  0  0  0  0  0  0
  1  2  1  0
  2  3  2  0
  3  4  1  0
  4  5  1  0
  5  6  1  0
  6  7  1  0
  7  8  2  0
  8  9  1  0
  8 10  1  0
 10 11  1  0
 10 12  2  0
 12 13  1  0
 12 14  1  0
 14 15  1  0
 14 16  2  0
 16 17  1  0
  6 18  2  0
 18 19  1  0
 18 20  1  0
 20 21  2  0
 21 22  1  0
 22 23  1  0
 22 24  1  0
 22 25  1  0
 25 26  1  0
 25 27  1  0
 25 28  1  0
 28 29  2  0
 29 30  1  0
 29 31  1  0
 31 32  1  0
 31 33  2  0
 33 34  1  0
 33 35  1  0
 35 36  1  0
 35 37  2  0
 37 38  1  0
 20 39  1  0
 39 40  1  0
 40 41  1  0
 40 42  2  0
 42 43  1  0
 42  2  1  0
 39  4  2  0
 16  7  1  0
 37 28  1  0
M  CHG  2   5  -1  40   1
M  END
>  <UniqueID>  (8) 
8

>  <SMILES>  (8) 
Fc1ccc(-c2c/c(=N\CCc3ccccc3)c3[nH+]ccnc3[n-]2)cc1

>  <Energy>  (8) 
56.70519457309882

>  <Genealogy>  (8) 
Fc1ccc(-c2cc(=NCCc3ccccc3)c3[nH+]ccnc3[n-]2)cc1 (protonated)
Fc1ccc(-c2c/c(=N\CCc3ccccc3)c3[nH+]ccnc3[n-]2)cc1 (cis-trans isomerization)
Fc1ccc(-c2c/c(=N\CCc3ccccc3)c3[nH+]ccnc3[n-]2)cc1 (3D coordinates assigned)
Fc1ccc(-c2c/c(=N\CCc3ccccc3)c3[nH+]ccnc3[n-]2)cc1 (optimized conformer: 56.70519457309882 kcal/mol)

>  <smiles>  (8) 
Fc1ccc(-c2cc(=NCCc3ccccc3)c3nccnc3[nH]2)cc1

>  <score_type>  (8) 
oracle

>  <origin>  (8) 
adg

>  <m_score__min__energy>  (8) 
-8.9100000000000001

>  <m_primary>  (8) 
energy

$$$$
8:0
     RDKit          3D

 24 26  0  0  0  0  0  0  0  0999 V2000
   -0.9620   25.4230  -29.8030 H   0  0  0  0  0  0  0  0  0  0  0  0
   -1.8830   25.2950  -29.3420 N   0  0  0  0  0  0  0  0  0  0  0  0
   -2.7930   24.4540  -29.7190 C   0  0  0  0  0  0  0  0  0  0  0  0
   -3.8600   24.9160  -30.4320 N   0  0  0  0  0  0  0  0  0  0  0  0
   -4.8600   24.0920  -30.8630 C   0  0  0  0  0  0  0  0  0  0  0  0
   -5.9360   24.6100  -31.5920 C   0  0  0  0  0  0  0  0  0  0  0  0
   -5.9794   25.6852  -31.8204 H   0  0  0  0  0  0  0  0  0  0  0  0
   -6.9560   23.7600  -32.0300 C   0  0  0  0  0  0  0  0  0  0  0  0
   -7.8018   24.1686  -32.6024 H   0  0  0  0  0  0  0  0  0  0  0  0
   -6.9050   22.3920  -31.7430 C   0  0  0  0  0  0  0  0  0  0  0  0
   -7.7110   21.7294  -32.0914 H   0  0  0  0  0  0  0  0  0  0  0  0
   -5.8340   21.8620  -31.0150 C   0  0  0  0  0  0  0  0  0  0  0  0
   -5.7981   20.7855  -30.7915 H   0  0  0  0  0  0  0  0  0  0  0  0
   -4.8040   22.7090  -30.5700 C   0  0  0  0  0  0  0  0  0  0  0  0
   -3.7300   22.2650  -29.8560 N   0  0  0  0  0  0  0  0  0  0  0  0
   -2.7450   23.0750  -29.4300 C   0  0  0  0  0  0  0  0  0  0  0  0
   -1.8410   22.2630  -28.7470 C   0  0  0  0  0  0  0  0  0  0  0  0
   -0.5630   22.6270  -28.0660 C   0  0  0  0  0  0  0  0  0  0  0  0
   -0.7041   22.5868  -26.9758 H   0  0  0  0  0  0  0  0  0  0  0  0
    0.2243   21.9174  -28.3602 H   0  0  0  0  0  0  0  0  0  0  0  0
   -0.2677   23.6450  -28.3602 H   0  0  0  0  0  0  0  0  0  0  0  0
   -2.3160   20.9960  -28.7870 N   0  0  0  0  0  0  0  0  0  0  0  0
   -3.4560   21.0300  -29.4630 N   0  0  0  0  0  0  0  0  0  0  0  0
   -4.0400   20.1860  -29.6460 H   0  0  0  0  0  0  0  0  0  0  0  0
  1  2  1  0
  2  3  2  0
  3  4  1  0
  4  5  1  0
  5  6  2  0
  6  7  1  0
  6  8  1  0
  8  9  1  0
  8 10  2  0
 10 11  1  0
 10 12  1  0
 12 13  1  0
 12 14  2  0
 14 15  1  0
 15 16  1  0
 16 17  2  0
 17 18  1  0
 18 19  1  0
 18 20  1  0
 18 21  1  0
 17 22  1  0
 22 23  2  0
 23 24  1  0
 16  3  1  0
 14  5  1  0
 23 15  1  0
M  CHG  2   4  -1  23   1
M  END
>  <UniqueID>  (9) 
9

>  <SMILES>  (9) 
[H]/N=c1/[n-]c2ccccc2n2[nH+]nc(C)c12

>  <Energy>  (9) 
76.5716198680326

>  <Genealogy>  (9) 
Cc1n[nH+]n2c1c(=N)[n-]c1ccccc12 (protonated)
[H]/N=c1/[n-]c2ccccc2n2[nH+]nc(C)c12 (cis-trans isomerization)
[H]/N=c1/[n-]c2ccccc2n2[nH+]nc(C)c12 (3D coordinates assigned)
[H]/N=c1/[n-]c2ccccc2n2[nH+]nc(C)c12 (optimized conformer: 76.5716198680326 kcal/mol)

>  <smiles>  (9) 
Cc1nnn2c1c(=N)[nH]c1ccccc12

>  <score_type>  (9) 
oracle

>  <origin>  (9) 
adg

>  <m_score__min__energy>  (9) 
-7.2999999999999998

>  <m_primary>  (9) 
energy

$$$$
9:0
     RDKit          3D

 29 31  0  0  0  0  0  0  0  0999 V2000
   -4.3000   21.1040  -31.9900 N   0  0  0  0  0  0  0  0  0  0  0  0
   -7.7520   21.6000  -31.9110 C   0  0  0  0  0  0  0  0  0  0  0  0
   -5.5270   22.9530  -31.2010 C   0  0  0  0  0  0  0  0  0  0  0  0
   -4.3940   23.6380  -30.8410 C   0  0  0  0  0  0  0  0  0  0  0  0
   -4.4940   24.8920  -30.2750 C   0  0  0  0  0  0  0  0  0  0  0  0
   -5.7540   25.4590  -30.0700 C   0  0  0  0  0  0  0  0  0  0  0  0
   -6.8760   24.7280  -30.4500 C   0  0  0  0  0  0  0  0  0  0  0  0
   -6.7900   23.4890  -31.0110 C   0  0  0  0  0  0  0  0  0  0  0  0
   -7.9090   22.8320  -31.3580 N   0  0  0  0  0  0  0  0  0  0  0  0
   -5.3920   21.7020  -31.7640 C   0  0  0  0  0  0  0  0  0  0  0  0
   -9.1070   20.7730  -32.3450 S   0  0  0  0  0  0  0  0  0  0  0  0
   -6.5400   21.0520  -32.1090 N   0  0  0  0  0  0  0  0  0  0  0  0
   -6.4900   19.7520  -32.6970 C   0  0  0  0  0  0  0  0  0  0  0  0
   -6.8420   18.6800  -31.8800 C   0  0  0  0  0  0  0  0  0  0  0  0
   -6.8340   17.3960  -32.3280 C   0  0  0  0  0  0  0  0  0  0  0  0
   -6.4600   17.1660  -33.6370 C   0  0  0  0  0  0  0  0  0  0  0  0
   -6.4570   15.5080  -34.1890 Cl  0  0  0  0  0  0  0  0  0  0  0  0
   -6.1100   18.2300  -34.4470 C   0  0  0  0  0  0  0  0  0  0  0  0
   -6.1150   19.5410  -34.0060 C   0  0  0  0  0  0  0  0  0  0  0  0
   -3.5790   20.7630  -31.3580 H   0  0  0  0  0  0  0  0  0  0  0  0
   -3.4043   23.1865  -31.0040 H   0  0  0  0  0  0  0  0  0  0  0  0
   -3.5864   25.4425  -29.9866 H   0  0  0  0  0  0  0  0  0  0  0  0
   -5.8570   26.4574  -29.6199 H   0  0  0  0  0  0  0  0  0  0  0  0
   -7.8716   25.1679  -30.2912 H   0  0  0  0  0  0  0  0  0  0  0  0
   -8.8410   23.2660  -31.2000 H   0  0  0  0  0  0  0  0  0  0  0  0
   -7.1359   18.8785  -30.8388 H   0  0  0  0  0  0  0  0  0  0  0  0
   -7.1175   16.5643  -31.6663 H   0  0  0  0  0  0  0  0  0  0  0  0
   -5.8149   18.0254  -35.4867 H   0  0  0  0  0  0  0  0  0  0  0  0
   -5.8336   20.3737  -34.6674 H   0  0  0  0  0  0  0  0  0  0  0  0
  1  2  2  3
  2  3  1  0
  3  4  2  0
  4  5  1  0
  5  6  2  0
  6  7  1  0
  7  8  2  0
  8  9  1  0
  9 10  1  0
 10 11  2  0
 10 12  1  0
 12 13  1  0
 13 14  2  0
 14 15  1  0
 15 16  2  0
 16 17  1  0
 16 18  1  0
 18 19  2  0
 12  2  1  0
 19 13  1  0
  8  3  1  0
  1 20  1  0
  4 21  1  0
  5 22  1  0
  6 23  1  0
  7 24  1  0
  9 25  1  0
 14 26  1  0
 15 27  1  0
 18 28  1  0
 19 29  1  0
M  END
>  <smiles>  (10) 
N=c1c2ccccc2[nH]c(=S)n1-c1ccc(Cl)cc1

>  <score_type>  (10) 
oracle

>  <origin>  (10) 
adg

>  <m_score__min__energy>  (10) 
-7.4299999999999997

>  <m_primary>  (10) 
energy

$$$$
10:0
     RDKit          3D

 34 35  0  0  0  0  0  0  0  0999 V2000
   -6.4810   17.4510  -32.3130 C   0  0  0  0  0  0  0  0  0  0  0  0
   -6.2100   17.6070  -33.8090 C   0  0  0  0  0  0  0  0  0  0  0  0
   -5.9810   19.0690  -34.2130 C   0  0  0  0  0  0  0  0  0  0  0  0
   -6.7070   20.0170  -33.3070 C   0  0  0  0  0  0  0  0  0  0  0  0
   -8.0520   20.0540  -33.1710 N   0  0  0  0  0  0  0  0  0  0  0  0
   -8.4790   20.9550  -32.2900 N   0  0  0  0  0  0  0  0  0  0  0  0
   -7.4710   21.6350  -31.6990 C   0  0  0  0  0  0  0  0  0  0  0  0
   -7.6830   22.7460  -30.7230 C   0  0  0  0  0  0  0  0  0  0  0  0
   -6.3680   23.3890  -30.3810 C   0  0  0  0  0  0  0  0  0  0  0  0
   -5.4420   22.7200  -29.5660 C   0  0  0  0  0  0  0  0  0  0  0  0
   -4.2350   23.3310  -29.2180 C   0  0  0  0  0  0  0  0  0  0  0  0
   -3.9400   24.6320  -29.6740 C   0  0  0  0  0  0  0  0  0  0  0  0
   -2.7430   25.2880  -29.3520 O   0  0  0  0  0  0  0  0  0  0  0  0
   -1.8970   24.9300  -28.2650 C   0  0  0  0  0  0  0  0  0  0  0  0
   -4.8720   25.3010  -30.4750 C   0  0  0  0  0  0  0  0  0  0  0  0
   -6.0800   24.6890  -30.8230 C   0  0  0  0  0  0  0  0  0  0  0  0
   -5.9710   21.1410  -32.2900 S   0  0  0  0  0  0  0  0  0  0  0  0
   -5.6662   17.9200  -31.7419 H   0  0  0  0  0  0  0  0  0  0  0  0
   -7.4340   17.9387  -32.0602 H   0  0  0  0  0  0  0  0  0  0  0  0
   -6.5378   16.3820  -32.0602 H   0  0  0  0  0  0  0  0  0  0  0  0
   -5.3136   17.0244  -34.0682 H   0  0  0  0  0  0  0  0  0  0  0  0
   -7.0968   17.2448  -34.3498 H   0  0  0  0  0  0  0  0  0  0  0  0
   -4.9038   19.2867  -34.1666 H   0  0  0  0  0  0  0  0  0  0  0  0
   -6.3686   19.2066  -35.2332 H   0  0  0  0  0  0  0  0  0  0  0  0
   -8.7070   19.4400  -33.7040 H   0  0  0  0  0  0  0  0  0  0  0  0
   -8.3515   23.4982  -31.1671 H   0  0  0  0  0  0  0  0  0  0  0  0
   -8.1349   22.3394  -29.8062 H   0  0  0  0  0  0  0  0  0  0  0  0
   -5.6681   21.7080  -29.1989 H   0  0  0  0  0  0  0  0  0  0  0  0
   -3.5119   22.7950  -28.5857 H   0  0  0  0  0  0  0  0  0  0  0  0
   -2.4085   25.1465  -27.3155 H   0  0  0  0  0  0  0  0  0  0  0  0
   -1.6643   23.8563  -28.3197 H   0  0  0  0  0  0  0  0  0  0  0  0
   -0.9643   25.5106  -28.3197 H   0  0  0  0  0  0  0  0  0  0  0  0
   -4.6524   26.3173  -30.8341 H   0  0  0  0  0  0  0  0  0  0  0  0
   -6.8079   25.2292  -31.4462 H   0  0  0  0  0  0  0  0  0  0  0  0
  1  2  1  0
  2  3  1  0
  3  4  1  0
  4  5  2  0
  5  6  1  0
  6  7  2  0
  7  8  1  0
  8  9  1  0
  9 10  2  0
 10 11  1  0
 11 12  2  0
 12 13  1  0
 13 14  1  0
 12 15  1  0
 15 16  2  0
  7 17  1  0
 17  4  1  0
 16  9  1  0
  1 18  1  0
  1 19  1  0
  1 20  1  0
  2 21  1  0
  2 22  1  0
  3 23  1  0
  3 24  1  0
  5 25  1  0
  8 26  1  0
  8 27  1  0
 10 28  1  0
 11 29  1  0
 14 30  1  0
 14 31  1  0
 14 32  1  0
 15 33  1  0
 16 34  1  0
M  CHG  1   5   1
M  END
>  <UniqueID>  (11) 
10

>  <SMILES>  (11) 
CCCc1[nH+]nc(Cc2ccc(OC)cc2)s1

>  <Energy>  (11) 
58.26886542601887

>  <Genealogy>  (11) 
CCCc1[nH+]nc(Cc2ccc(OC)cc2)s1 (protonated)
CCCc1[nH+]nc(Cc2ccc(OC)cc2)s1 (3D coordinates assigned)
CCCc1[nH+]nc(Cc2ccc(OC)cc2)s1 (optimized conformer: 58.26886542601887 kcal/mol)

>  <smiles>  (11) 
CCCc1nnc(Cc2ccc(OC)cc2)s1

>  <score_type>  (11) 
oracle

>  <origin>  (11) 
adg

>  <m_score__min__energy>  (11) 
-7.4100000000000001

>  <m_primary>  (11) 
energy

$$$$
11:0
     RDKit          3D

 41 44  0  0  0  0  0  0  0  0999 V2000
   -5.3650   24.5490  -31.5560 N   0  0  0  0  0  0  0  0  0  0  0  0
   -5.6730   23.4900  -31.9050 C   0  0  0  0  0  0  0  0  0  0  0  0
   -6.0550   22.1740  -32.3390 C   0  0  0  0  0  0  0  0  0  0  0  0
   -5.2280   21.3220  -32.9850 N   0  0  0  0  0  0  0  0  0  0  0  0
   -5.9700   20.2010  -33.1720 C   0  0  0  0  0  0  0  0  0  0  0  0
   -5.4540   18.9810  -33.8950 C   0  0  0  0  0  0  0  0  0  0  0  0
   -4.1420   18.4350  -33.3020 C   0  0  0  0  0  0  0  0  0  0  0  0
   -2.8780   19.0550  -33.9240 C   0  0  0  0  0  0  0  0  0  0  0  0
   -2.1310   19.9160  -32.9480 C   0  0  0  0  0  0  0  0  0  0  0  0
   -0.9170   20.1730  -33.1670 O   0  0  0  0  0  0  0  0  0  0  0  0
   -2.8200   20.4950  -31.8250 N   0  0  0  0  0  0  0  0  0  0  0  0
   -2.2670   21.5020  -30.9580 C   0  0  0  0  0  0  0  0  0  0  0  0
   -1.0550   21.2920  -30.2410 C   0  0  0  0  0  0  0  0  0  0  0  0
   -0.5190   22.3040  -29.4230 C   0  0  0  0  0  0  0  0  0  0  0  0
   -1.2260   23.4960  -29.3290 C   0  0  0  0  0  0  0  0  0  0  0  0
   -0.9910   24.6600  -28.6390 C   0  0  0  0  0  0  0  0  0  0  0  0
   -2.0140   25.5100  -28.8930 N   0  0  0  0  0  0  0  0  0  0  0  0
   -2.8810   24.9230  -29.7140 N   0  0  0  0  0  0  0  0  0  0  0  0
   -2.4040   23.6950  -29.9810 C   0  0  0  0  0  0  0  0  0  0  0  0
   -2.9670   22.7180  -30.7940 C   0  0  0  0  0  0  0  0  0  0  0  0
   -7.2270   20.3420  -32.6930 N   0  0  0  0  0  0  0  0  0  0  0  0
   -8.2900   19.4920  -32.6930 C   0  0  0  0  0  0  0  0  0  0  0  0
   -9.4880   19.9240  -32.1020 C   0  0  0  0  0  0  0  0  0  0  0  0
   -9.5580   21.2100  -31.5350 C   0  0  0  0  0  0  0  0  0  0  0  0
   -8.4400   22.0590  -31.5630 C   0  0  0  0  0  0  0  0  0  0  0  0
   -7.2800   21.5730  -32.1650 C   0  0  0  0  0  0  0  0  0  0  0  0
   -6.2183   18.1919  -33.8388 H   0  0  0  0  0  0  0  0  0  0  0  0
   -5.2446   19.2798  -34.9327 H   0  0  0  0  0  0  0  0  0  0  0  0
   -4.1357   18.6432  -32.2219 H   0  0  0  0  0  0  0  0  0  0  0  0
   -4.1134   17.3575  -33.5213 H   0  0  0  0  0  0  0  0  0  0  0  0
   -2.2151   18.2447  -34.2615 H   0  0  0  0  0  0  0  0  0  0  0  0
   -3.1920   19.6911  -34.7647 H   0  0  0  0  0  0  0  0  0  0  0  0
   -3.8460   20.3150  -31.7520 H   0  0  0  0  0  0  0  0  0  0  0  0
   -0.5319   20.3282  -30.3274 H   0  0  0  0  0  0  0  0  0  0  0  0
    0.4251   22.1565  -28.8781 H   0  0  0  0  0  0  0  0  0  0  0  0
   -0.1243   24.8656  -27.9936 H   0  0  0  0  0  0  0  0  0  0  0  0
   -3.9311   22.8871  -31.2958 H   0  0  0  0  0  0  0  0  0  0  0  0
   -8.2125   18.4920  -33.1446 H   0  0  0  0  0  0  0  0  0  0  0  0
  -10.3660   19.2617  -32.0823 H   0  0  0  0  0  0  0  0  0  0  0  0
  -10.4932   21.5518  -31.0675 H   0  0  0  0  0  0  0  0  0  0  0  0
   -8.4778   23.0682  -31.1270 H   0  0  0  0  0  0  0  0  0  0  0  0
  1  2  3  0
  2  3  1  0
  3  4  1  0
  4  5  2  0
  5  6  1  0
  6  7  1  0
  7  8  1  0
  8  9  1  0
  9 10  2  0
  9 11  1  0
 11 12  1  0
 12 13  1  0
 13 14  2  0
 14 15  1  0
 15 16  2  0
 16 17  1  0
 17 18  1  0
 18 19  2  0
 19 20  1  0
  5 21  1  0
 21 22  1  0
 22 23  2  0
 23 24  1  0
 24 25  2  0
 25 26  1  0
 26  3  2  0
 20 12  2  0
 26 21  1  0
 19 15  1  0
  6 27  1  0
  6 28  1  0
  7 29  1  0
  7 30  1  0
  8 31  1  0
  8 32  1  0
 11 33  1  0
 13 34  1  0
 14 35  1  0
 16 36  1  0
 20 37  1  0
 22 38  1  0
 23 39  1  0
 24 40  1  0
 25 41  1  0
M  CHG  1  17  -1
M  END
>  <UniqueID>  (12) 
11

>  <SMILES>  (12) 
N#Cc1nc(CCCC(=O)Nc2ccc3c[n-]nc3c2)n2ccccc12

>  <Energy>  (12) 
113.89783649844237

>  <Genealogy>  (12) 
N#Cc1nc(CCCC(=O)Nc2ccc3c[n-]nc3c2)n2ccccc12 (protonated)
N#Cc1nc(CCCC(=O)Nc2ccc3c[n-]nc3c2)n2ccccc12 (3D coordinates assigned)
N#Cc1nc(CCCC(=O)Nc2ccc3c[n-]nc3c2)n2ccccc12 (optimized conformer: 113.89783649844237 kcal/mol)

>  <smiles>  (12) 
N#Cc1nc(CCCC(=O)Nc2ccc3c[nH]nc3c2)n2ccccc12

>  <score_type>  (12) 
oracle

>  <origin>  (12) 
adg

>  <m_score__min__energy>  (12) 
-10.800000000000001

>  <m_primary>  (12) 
energy

$$$$
12:0
     RDKit          3D

 24 24  0  0  0  0  0  0  0  0999 V2000
   -6.8570   23.0440  -32.3330 C   0  0  0  0  0  0  0  0  0  0  0  0
   -7.8430   22.1780  -31.6370 N   0  0  0  0  0  0  0  0  0  0  0  0
   -9.1960   22.6850  -31.9680 C   0  0  0  0  0  0  0  0  0  0  0  0
   -7.6070   22.3140  -30.1790 C   0  0  0  0  0  0  0  0  0  0  0  0
   -7.7430   20.7540  -32.0200 C   0  0  0  0  0  0  0  0  0  0  0  0
   -8.7380   19.8320  -31.5980 C   0  0  0  0  0  0  0  0  0  0  0  0
   -8.6710   18.4800  -31.9450 C   0  0  0  0  0  0  0  0  0  0  0  0
   -7.6150   18.0050  -32.7180 C   0  0  0  0  0  0  0  0  0  0  0  0
   -6.6220   18.8820  -33.1500 C   0  0  0  0  0  0  0  0  0  0  0  0
   -6.6790   20.2370  -32.8100 C   0  0  0  0  0  0  0  0  0  0  0  0
   -6.2485   23.5784  -31.5886 H   0  0  0  0  0  0  0  0  0  0  0  0
   -6.2035   22.4226  -32.9629 H   0  0  0  0  0  0  0  0  0  0  0  0
   -7.3889   23.7723  -32.9629 H   0  0  0  0  0  0  0  0  0  0  0  0
   -9.7475   22.8917  -31.0390 H   0  0  0  0  0  0  0  0  0  0  0  0
   -9.1071   23.6108  -32.5553 H   0  0  0  0  0  0  0  0  0  0  0  0
   -9.7374   21.9287  -32.5553 H   0  0  0  0  0  0  0  0  0  0  0  0
   -8.4319   21.8386  -29.6281 H   0  0  0  0  0  0  0  0  0  0  0  0
   -6.6586   21.8239  -29.9138 H   0  0  0  0  0  0  0  0  0  0  0  0
   -7.5555   23.3803  -29.9138 H   0  0  0  0  0  0  0  0  0  0  0  0
   -9.5786   20.1898  -30.9854 H   0  0  0  0  0  0  0  0  0  0  0  0
   -9.4560   17.7881  -31.6059 H   0  0  0  0  0  0  0  0  0  0  0  0
   -7.5646   16.9396  -32.9872 H   0  0  0  0  0  0  0  0  0  0  0  0
   -5.7887   18.5062  -33.7619 H   0  0  0  0  0  0  0  0  0  0  0  0
   -5.8869   20.9154  -33.1597 H   0  0  0  0  0  0  0  0  0  0  0  0
  1  2  1  0
  2  3  1  0
  2  4  1  0
  2  5  1  0
  5  6  2  0
  6  7  1  0
  7  8  2  0
  8  9  1  0
  9 10  2  0
 10  5  1  0
  1 11  1  0
  1 12  1  0
  1 13  1  0
  3 14  1  0
  3 15  1  0
  3 16  1  0
  4 17  1  0
  4 18  1  0
  4 19  1  0
  6 20  1  0
  7 21  1  0
  8 22  1  0
  9 23  1  0
 10 24  1  0
M  CHG  1   2   1
M  END
>  <UniqueID>  (13) 
12

>  <SMILES>  (13) 
C[N+](C)(C)c1ccccc1

>  <Energy>  (13) 
34.970289946367934

>  <Genealogy>  (13) 
C[N+](C)(C)c1ccccc1 (3D coordinates assigned)
C[N+](C)(C)c1ccccc1 (optimized conformer: 34.970289946367934 kcal/mol)

>  <smiles>  (13) 
C[N+](C)(C)c1ccccc1

>  <score_type>  (13) 
oracle

>  <origin>  (13) 
adg

>  <m_score__min__energy>  (13) 
-3.98

>  <m_primary>  (13) 
energy

$$$$
13:0
     RDKit          3D

 30 31  0  0  0  0  0  0  0  0999 V2000
   -5.5750   25.6740  -30.2260 C   0  0  0  0  0  0  0  0  0  0  0  0
   -4.9870   24.7760  -31.1630 O   0  0  0  0  0  0  0  0  0  0  0  0
   -5.5780   23.5790  -31.5970 C   0  0  0  0  0  0  0  0  0  0  0  0
   -4.7770   22.6520  -32.2630 C   0  0  0  0  0  0  0  0  0  0  0  0
   -5.3000   21.4280  -32.7270 C   0  0  0  0  0  0  0  0  0  0  0  0
   -4.4800   20.5040  -33.3970 O   0  0  0  0  0  0  0  0  0  0  0  0
   -3.0570   20.5590  -33.4470 C   0  0  0  0  0  0  0  0  0  0  0  0
   -6.6730   21.1320  -32.5130 C   0  0  0  0  0  0  0  0  0  0  0  0
   -7.2620   19.9160  -32.9560 C   0  0  0  0  0  0  0  0  0  0  0  0
   -6.4810   18.9610  -33.6300 O   0  0  0  0  0  0  0  0  0  0  0  0
   -6.5110   17.5590  -33.3840 C   0  0  0  0  0  0  0  0  0  0  0  0
   -8.6300   19.6830  -32.7120 C   0  0  0  0  0  0  0  0  0  0  0  0
   -9.4080   20.6250  -32.0450 C   0  0  0  0  0  0  0  0  0  0  0  0
   -8.8410   21.8180  -31.6070 C   0  0  0  0  0  0  0  0  0  0  0  0
   -7.4840   22.0820  -31.8330 C   0  0  0  0  0  0  0  0  0  0  0  0
   -6.9330   23.2900  -31.3830 C   0  0  0  0  0  0  0  0  0  0  0  0
   -5.3527   25.3345  -29.2036 H   0  0  0  0  0  0  0  0  0  0  0  0
   -5.1617   26.6824  -30.3755 H   0  0  0  0  0  0  0  0  0  0  0  0
   -6.6645   25.6984  -30.3755 H   0  0  0  0  0  0  0  0  0  0  0  0
   -3.7141   22.8808  -32.4299 H   0  0  0  0  0  0  0  0  0  0  0  0
   -2.6545   20.5746  -32.4234 H   0  0  0  0  0  0  0  0  0  0  0  0
   -2.6743   19.6750  -33.9781 H   0  0  0  0  0  0  0  0  0  0  0  0
   -2.7437   21.4699  -33.9781 H   0  0  0  0  0  0  0  0  0  0  0  0
   -6.5149   17.3771  -32.2992 H   0  0  0  0  0  0  0  0  0  0  0  0
   -7.4186   17.1276  -33.8314 H   0  0  0  0  0  0  0  0  0  0  0  0
   -5.6227   17.0891  -33.8314 H   0  0  0  0  0  0  0  0  0  0  0  0
   -9.0895   18.7437  -33.0533 H   0  0  0  0  0  0  0  0  0  0  0  0
  -10.4745   20.4258  -31.8635 H   0  0  0  0  0  0  0  0  0  0  0  0
   -9.4618   22.5578  -31.0804 H   0  0  0  0  0  0  0  0  0  0  0  0
   -7.5693   24.0173  -30.8575 H   0  0  0  0  0  0  0  0  0  0  0  0
  1  2  1  0
  2  3  1  0
  3  4  2  0
  4  5  1  0
  5  6  1  0
  6  7  1  0
  5  8  2  0
  8  9  1  0
  9 10  1  0
 10 11  1  0
  9 12  2  0
 12 13  1  0
 13 14  2  0
 14 15  1  0
 15 16  2  0
 16  3  1  0
 15  8  1  0
  1 17  1  0
  1 18  1  0
  1 19  1  0
  4 20  1  0
  7 21  1  0
  7 22  1  0
  7 23  1  0
 11 24  1  0
 11 25  1  0
 11 26  1  0
 12 27  1  0
 13 28  1  0
 14 29  1  0
 16 30  1  0
M  END
>  <UniqueID>  (14) 
13

>  <SMILES>  (14) 
COc1cc(OC)c2c(OC)cccc2c1

>  <Energy>  (14) 
34.95735183487953

>  <Genealogy>  (14) 
COc1cc(OC)c2c(OC)cccc2c1 (3D coordinates assigned)
COc1cc(OC)c2c(OC)cccc2c1 (optimized conformer: 34.95735183487953 kcal/mol)

>  <smiles>  (14) 
COc1cc(OC)c2c(OC)cccc2c1

>  <score_type>  (14) 
oracle

>  <origin>  (14) 
adg

>  <m_score__min__energy>  (14) 
-6.1100000000000003

>  <m_primary>  (14) 
energy

$$$$
14:0
     RDKit          3D

 50 53  0  0  0  0  0  0  0  0999 V2000
   -0.5080   25.9140  -23.8530 C   0  0  0  0  0  0  0  0  0  0  0  0
   -0.4640   24.6180  -24.5290 N   0  0  0  0  0  0  0  0  0  0  0  0
   -0.4870   23.3820  -23.7480 C   0  0  0  0  0  0  0  0  0  0  0  0
   -0.1310   24.5540  -25.9220 C   0  0  0  0  0  0  0  0  0  0  0  0
    1.2120   24.6330  -26.3110 C   0  0  0  0  0  0  0  0  0  0  0  0
    1.5470   24.5530  -27.6620 C   0  0  0  0  0  0  0  0  0  0  0  0
    0.5760   24.4020  -28.6000 N   0  0  0  0  0  0  0  0  0  0  0  0
   -0.7410   24.3300  -28.2640 C   0  0  0  0  0  0  0  0  0  0  0  0
   -1.7060   24.1820  -29.2650 C   0  0  0  0  0  0  0  0  0  0  0  0
   -3.0710   24.1130  -28.9370 C   0  0  0  0  0  0  0  0  0  0  0  0
   -4.0970   23.9580  -30.0020 C   0  0  0  0  0  0  0  0  0  0  0  0
   -5.2570   24.7520  -29.9950 C   0  0  0  0  0  0  0  0  0  0  0  0
   -6.2180   24.6060  -30.9960 C   0  0  0  0  0  0  0  0  0  0  0  0
   -6.0350   23.6720  -32.0170 C   0  0  0  0  0  0  0  0  0  0  0  0
   -4.8800   22.8710  -32.0480 C   0  0  0  0  0  0  0  0  0  0  0  0
   -4.6560   21.9040  -33.0900 N   0  0  0  0  0  0  0  0  0  0  0  0
   -4.8070   20.1900  -32.8590 S   0  0  0  0  0  0  0  0  0  0  0  0
   -3.8980   19.7600  -31.7410 O   0  0  0  0  0  0  0  0  0  0  0  0
   -4.3980   19.4810  -34.1180 O   0  0  0  0  0  0  0  0  0  0  0  0
   -6.4820   19.7850  -32.5000 C   0  0  0  0  0  0  0  0  0  0  0  0
   -7.4720   20.7710  -32.6030 C   0  0  0  0  0  0  0  0  0  0  0  0
   -8.8030   20.4650  -32.3010 C   0  0  0  0  0  0  0  0  0  0  0  0
   -9.1490   19.1730  -31.8970 C   0  0  0  0  0  0  0  0  0  0  0  0
   -8.1650   18.1850  -31.7950 C   0  0  0  0  0  0  0  0  0  0  0  0
   -6.8330   18.4880  -32.0970 C   0  0  0  0  0  0  0  0  0  0  0  0
   -3.9220   23.0150  -31.0320 C   0  0  0  0  0  0  0  0  0  0  0  0
   -3.4550   24.2010  -27.5870 C   0  0  0  0  0  0  0  0  0  0  0  0
   -2.4960   24.3480  -26.5810 C   0  0  0  0  0  0  0  0  0  0  0  0
   -1.1300   24.4070  -26.9070 C   0  0  0  0  0  0  0  0  0  0  0  0
   -0.5028   25.7598  -22.7639 H   0  0  0  0  0  0  0  0  0  0  0  0
    0.3705   26.5090  -24.1433 H   0  0  0  0  0  0  0  0  0  0  0  0
   -1.4248   26.4480  -24.1433 H   0  0  0  0  0  0  0  0  0  0  0  0
   -0.4825   23.6259  -22.6754 H   0  0  0  0  0  0  0  0  0  0  0  0
   -1.3959   22.8119  -23.9905 H   0  0  0  0  0  0  0  0  0  0  0  0
    0.4001   22.7784  -23.9905 H   0  0  0  0  0  0  0  0  0  0  0  0
    1.9997   24.7577  -25.5534 H   0  0  0  0  0  0  0  0  0  0  0  0
    2.6015   24.6124  -27.9695 H   0  0  0  0  0  0  0  0  0  0  0  0
   -1.3943   24.1190  -30.3180 H   0  0  0  0  0  0  0  0  0  0  0  0
   -5.4080   25.4926  -29.1958 H   0  0  0  0  0  0  0  0  0  0  0  0
   -7.1239   25.2298  -30.9805 H   0  0  0  0  0  0  0  0  0  0  0  0
   -6.7984   23.5621  -32.8014 H   0  0  0  0  0  0  0  0  0  0  0  0
   -4.5080   22.2370  -34.0690 H   0  0  0  0  0  0  0  0  0  0  0  0
   -7.2018   21.7884  -32.9222 H   0  0  0  0  0  0  0  0  0  0  0  0
   -9.5776   21.2418  -32.3816 H   0  0  0  0  0  0  0  0  0  0  0  0
  -10.1958   18.9331  -31.6591 H   0  0  0  0  0  0  0  0  0  0  0  0
   -8.4385   17.1681  -31.4769 H   0  0  0  0  0  0  0  0  0  0  0  0
   -6.0605   17.7088  -32.0184 H   0  0  0  0  0  0  0  0  0  0  0  0
   -3.0223   22.3822  -31.0410 H   0  0  0  0  0  0  0  0  0  0  0  0
   -4.5211   24.1537  -27.3201 H   0  0  0  0  0  0  0  0  0  0  0  0
   -2.8116   24.4178  -25.5296 H   0  0  0  0  0  0  0  0  0  0  0  0
  1  2  1  0
  2  3  1  0
  2  4  1  0
  4  5  2  0
  5  6  1  0
  6  7  2  0
  7  8  1  0
  8  9  2  0
  9 10  1  0
 10 11  1  0
 11 12  2  0
 12 13  1  0
 13 14  2  0
 14 15  1  0
 15 16  1  0
 16 17  1  0
 17 18  2  0
 17 19  2  0
 17 20  1  0
 20 21  2  0
 21 22  1  0
 22 23  2  0
 23 24  1  0
 24 25  2  0
 15 26  2  0
 10 27  2  0
 27 28  1  0
 28 29  2  0
 29  4  1  0
 29  8  1  0
 26 11  1  0
 25 20  1  0
  1 30  1  0
  1 31  1  0
  1 32  1  0
  3 33  1  0
  3 34  1  0
  3 35  1  0
  5 36  1  0
  6 37  1  0
  9 38  1  0
 12 39  1  0
 13 40  1  0
 14 41  1  0
 16 42  1  0
 21 43  1  0
 22 44  1  0
 23 45  1  0
 24 46  1  0
 25 47  1  0
 26 48  1  0
 27 49  1  0
 28 50  1  0
M  END
>  <UniqueID>  (15) 
14

>  <SMILES>  (15) 
CN(C)c1ccnc2cc(-c3cccc(NS(=O)(=O)c4ccccc4)c3)ccc12

>  <Energy>  (15) 
70.46850484924609

>  <Genealogy>  (15) 
CN(C)c1ccnc2cc(-c3cccc(NS(=O)(=O)c4ccccc4)c3)ccc12 (3D coordinates assigned)
CN(C)c1ccnc2cc(-c3cccc(NS(=O)(=O)c4ccccc4)c3)ccc12 (optimized conformer: 70.46850484924609 kcal/mol)

>  <smiles>  (15) 
CN(C)c1ccnc2cc(-c3cccc(NS(=O)(=O)c4ccccc4)c3)ccc12

>  <score_type>  (15) 
oracle

>  <origin>  (15) 
adg

>  <m_score__min__energy>  (15) 
-10.16

>  <m_primary>  (15) 
energy

$$$$
15:0
     RDKit          3D

 37 39  0  0  0  0  0  0  0  0999 V2000
   -0.5370   24.7860  -28.1060 C   0  0  0  0  0  0  0  0  0  0  0  0
   -0.9370   23.7160  -29.0710 C   0  0  0  0  0  0  0  0  0  0  0  0
   -0.1440   22.7380  -29.4410 O   0  0  0  0  0  0  0  0  0  0  0  0
   -0.7640   21.9240  -30.2430 N   0  0  0  0  0  0  0  0  0  0  0  0
   -2.0220   22.3730  -30.4230 C   0  0  0  0  0  0  0  0  0  0  0  0
   -3.0280   21.6940  -31.2770 C   0  0  0  0  0  0  0  0  0  0  0  0
   -3.9300   20.7800  -30.7050 C   0  0  0  0  0  0  0  0  0  0  0  0
   -4.8680   20.1140  -31.5010 C   0  0  0  0  0  0  0  0  0  0  0  0
   -4.9100   20.3490  -32.8790 C   0  0  0  0  0  0  0  0  0  0  0  0
   -6.0830   19.5100  -33.8760 Cl  0  0  0  0  0  0  0  0  0  0  0  0
   -4.0140   21.2500  -33.4590 C   0  0  0  0  0  0  0  0  0  0  0  0
   -3.0780   21.9190  -32.6650 C   0  0  0  0  0  0  0  0  0  0  0  0
   -2.1660   23.5490  -29.6940 C   0  0  0  0  0  0  0  0  0  0  0  0
   -3.3830   24.3510  -29.4920 C   0  0  0  0  0  0  0  0  0  0  0  0
   -4.0420   24.2050  -28.4290 O   0  0  0  0  0  0  0  0  0  0  0  0
   -3.8550   25.2760  -30.4820 N   0  0  0  0  0  0  0  0  0  0  0  0
   -5.2480   25.6780  -30.6610 C   0  0  0  0  0  0  0  0  0  0  0  0
   -6.1140   24.4780  -30.8970 C   0  0  0  0  0  0  0  0  0  0  0  0
   -6.7180   23.8100  -29.8210 C   0  0  0  0  0  0  0  0  0  0  0  0
   -7.4700   22.6600  -30.0650 C   0  0  0  0  0  0  0  0  0  0  0  0
   -7.6110   22.1850  -31.3710 C   0  0  0  0  0  0  0  0  0  0  0  0
   -6.9970   22.8740  -32.4190 C   0  0  0  0  0  0  0  0  0  0  0  0
   -6.2670   23.9930  -32.1610 N   0  0  0  0  0  0  0  0  0  0  0  0
   -0.6733   24.4215  -27.0771 H   0  0  0  0  0  0  0  0  0  0  0  0
    0.5195   25.0473  -28.2655 H   0  0  0  0  0  0  0  0  0  0  0  0
   -1.1630   25.6763  -28.2655 H   0  0  0  0  0  0  0  0  0  0  0  0
   -0.3280   21.0780  -30.6720 H   0  0  0  0  0  0  0  0  0  0  0  0
   -3.8980   20.5869  -29.6226 H   0  0  0  0  0  0  0  0  0  0  0  0
   -5.5731   19.4049  -31.0427 H   0  0  0  0  0  0  0  0  0  0  0  0
   -4.0450   21.4336  -34.5431 H   0  0  0  0  0  0  0  0  0  0  0  0
   -2.3752   22.6267  -33.1289 H   0  0  0  0  0  0  0  0  0  0  0  0
   -5.5929   26.2012  -29.7569 H   0  0  0  0  0  0  0  0  0  0  0  0
   -5.3169   26.3439  -31.5339 H   0  0  0  0  0  0  0  0  0  0  0  0
   -6.5999   24.1891  -28.7952 H   0  0  0  0  0  0  0  0  0  0  0  0
   -7.9508   22.1286  -29.2305 H   0  0  0  0  0  0  0  0  0  0  0  0
   -8.1996   21.2777  -31.5718 H   0  0  0  0  0  0  0  0  0  0  0  0
   -7.1034   22.5124  -33.4524 H   0  0  0  0  0  0  0  0  0  0  0  0
  1  2  1  0
  2  3  1  0
  3  4  1  0
  4  5  2  0
  5  6  1  0
  6  7  2  0
  7  8  1  0
  8  9  2  0
  9 10  1  0
  9 11  1  0
 11 12  2  0
  5 13  1  0
 13 14  1  0
 14 15  2  0
 14 16  1  0
 16 17  1  0
 17 18  1  0
 18 19  2  0
 19 20  1  0
 20 21  2  0
 21 22  1  0
 22 23  2  0
 13  2  2  0
 23 18  1  0
 12  6  1  0
  1 24  1  0
  1 25  1  0
  1 26  1  0
  4 27  1  0
  7 28  1  0
  8 29  1  0
 11 30  1  0
 12 31  1  0
 17 32  1  0
 17 33  1  0
 19 34  1  0
 20 35  1  0
 21 36  1  0
 22 37  1  0
M  CHG  2   4   1  16  -1
M  END
>  <UniqueID>  (16) 
15

>  <SMILES>  (16) 
Cc1o[nH+]c(-c2ccc(Cl)cc2)c1C(=O)[N-]Cc1ccccn1

>  <Energy>  (16) 
75.18271004114044

>  <Genealogy>  (16) 
Cc1o[nH+]c(-c2ccc(Cl)cc2)c1C(=O)[N-]Cc1ccccn1 (protonated)
Cc1o[nH+]c(-c2ccc(Cl)cc2)c1C(=O)[N-]Cc1ccccn1 (3D coordinates assigned)
Cc1o[nH+]c(-c2ccc(Cl)cc2)c1C(=O)[N-]Cc1ccccn1 (optimized conformer: 75.18271004114044 kcal/mol)

>  <smiles>  (16) 
Cc1onc(-c2ccc(Cl)cc2)c1C(=O)NCc1ccccn1

>  <score_type>  (16) 
oracle

>  <origin>  (16) 
adg

>  <m_score__min__energy>  (16) 
-9.2799999999999994

>  <m_primary>  (16) 
energy

$$$$
16:0
     RDKit          3D

 46 49  0  0  0  0  0  0  0  0999 V2000
   -3.1620   22.5720  -31.1340 C   0  0  0  0  0  0  0  0  0  0  0  0
   -4.4400   23.3010  -30.8370 C   0  0  0  0  0  0  0  0  0  0  0  0
   -4.4100   24.6340  -30.3700 C   0  0  0  0  0  0  0  0  0  0  0  0
   -5.6070   25.3190  -30.0710 C   0  0  0  0  0  0  0  0  0  0  0  0
   -6.8500   24.6820  -30.2230 C   0  0  0  0  0  0  0  0  0  0  0  0
   -6.8530   23.3610  -30.6640 C   0  0  0  0  0  0  0  0  0  0  0  0
   -7.9050   22.5090  -30.9040 C   0  0  0  0  0  0  0  0  0  0  0  0
   -7.3260   21.3140  -31.3300 C   0  0  0  0  0  0  0  0  0  0  0  0
   -8.1240   20.1320  -31.7610 C   0  0  0  0  0  0  0  0  0  0  0  0
   -9.1080   19.8070  -31.0410 O   0  0  0  0  0  0  0  0  0  0  0  0
   -7.8110   19.3080  -32.9190 N   0  0  0  0  0  0  0  0  0  0  0  0
   -6.8240   19.9440  -33.8340 C   0  0  0  0  0  0  0  0  0  0  0  0
   -5.7850   18.9630  -34.3890 C   0  0  0  0  0  0  0  0  0  0  0  0
   -5.1960   18.1630  -33.3080 N   0  0  0  0  0  0  0  0  0  0  0  0
   -3.8030   17.7780  -33.3540 C   0  0  0  0  0  0  0  0  0  0  0  0
   -3.4380   16.4200  -33.4370 C   0  0  0  0  0  0  0  0  0  0  0  0
   -2.0920   16.0460  -33.4730 C   0  0  0  0  0  0  0  0  0  0  0  0
   -1.0920   17.0210  -33.4380 C   0  0  0  0  0  0  0  0  0  0  0  0
   -1.4380   18.3720  -33.3690 C   0  0  0  0  0  0  0  0  0  0  0  0
   -2.7840   18.7510  -33.3290 C   0  0  0  0  0  0  0  0  0  0  0  0
   -6.0720   17.5890  -32.2770 C   0  0  0  0  0  0  0  0  0  0  0  0
   -7.5480   17.8940  -32.5480 C   0  0  0  0  0  0  0  0  0  0  0  0
   -5.9720   21.4310  -31.3590 N   0  0  0  0  0  0  0  0  0  0  0  0
   -5.6970   22.6860  -30.9530 C   0  0  0  0  0  0  0  0  0  0  0  0
   -2.6716   22.2922  -30.1900 H   0  0  0  0  0  0  0  0  0  0  0  0
   -3.3839   21.6646  -31.7148 H   0  0  0  0  0  0  0  0  0  0  0  0
   -2.4939   23.2249  -31.7148 H   0  0  0  0  0  0  0  0  0  0  0  0
   -3.4439   25.1431  -30.2381 H   0  0  0  0  0  0  0  0  0  0  0  0
   -5.5666   26.3594  -29.7163 H   0  0  0  0  0  0  0  0  0  0  0  0
   -7.7896   25.2091  -30.0011 H   0  0  0  0  0  0  0  0  0  0  0  0
   -8.9771   22.7245  -30.7851 H   0  0  0  0  0  0  0  0  0  0  0  0
   -8.7020   19.2600  -33.4740 H   0  0  0  0  0  0  0  0  0  0  0  0
   -7.3692   20.3890  -34.6794 H   0  0  0  0  0  0  0  0  0  0  0  0
   -6.2773   20.6972  -33.2476 H   0  0  0  0  0  0  0  0  0  0  0  0
   -6.2724   18.2911  -35.1108 H   0  0  0  0  0  0  0  0  0  0  0  0
   -4.9851   19.5362  -34.8804 H   0  0  0  0  0  0  0  0  0  0  0  0
   -4.2196   15.6469  -33.4738 H   0  0  0  0  0  0  0  0  0  0  0  0
   -1.8193   14.9818  -33.5290 H   0  0  0  0  0  0  0  0  0  0  0  0
   -0.0330   16.7246  -33.4648 H   0  0  0  0  0  0  0  0  0  0  0  0
   -0.6506   19.1398  -33.3461 H   0  0  0  0  0  0  0  0  0  0  0  0
   -3.0491   19.8173  -33.2776 H   0  0  0  0  0  0  0  0  0  0  0  0
   -5.9318   16.4981  -32.2582 H   0  0  0  0  0  0  0  0  0  0  0  0
   -5.8024   18.0400  -31.3106 H   0  0  0  0  0  0  0  0  0  0  0  0
   -7.8893   17.2503  -33.3721 H   0  0  0  0  0  0  0  0  0  0  0  0
   -8.0913   17.7029  -31.6108 H   0  0  0  0  0  0  0  0  0  0  0  0
   -5.2690   20.7210  -31.6450 H   0  0  0  0  0  0  0  0  0  0  0  0
  1  2  1  0
  2  3  2  0
  3  4  1  0
  4  5  2  0
  5  6  1  0
  6  7  1  0
  7  8  2  0
  8  9  1  0
  9 10  2  0
  9 11  1  0
 11 12  1  0
 12 13  1  0
 13 14  1  0
 14 15  1  0
 15 16  2  0
 16 17  1  0
 17 18  2  0
 18 19  1  0
 19 20  2  0
 14 21  1  0
 21 22  1  0
  8 23  1  0
 23 24  1  0
 24  2  1  0
 24  6  2  0
 22 11  1  0
 20 15  1  0
  1 25  1  0
  1 26  1  0
  1 27  1  0
  3 28  1  0
  4 29  1  0
  5 30  1  0
  7 31  1  0
 11 32  1  0
 12 33  1  0
 12 34  1  0
 13 35  1  0
 13 36  1  0
 16 37  1  0
 17 38  1  0
 18 39  1  0
 19 40  1  0
 20 41  1  0
 21 42  1  0
 21 43  1  0
 22 44  1  0
 22 45  1  0
 23 46  1  0
M  CHG  1  11   1
M  END
>  <UniqueID>  (17) 
16

>  <SMILES>  (17) 
Cc1cccc2cc(C(=O)[NH+]3CCN(c4ccccc4)CC3)[nH]c12

>  <Energy>  (17) 
98.77046252165349

>  <Genealogy>  (17) 
Cc1cccc2cc(C(=O)[NH+]3CCN(c4ccccc4)CC3)[nH]c12 (protonated)
Cc1cccc2cc(C(=O)[NH+]3CCN(c4ccccc4)CC3)[nH]c12 (3D coordinates assigned)
Cc1cccc2cc(C(=O)[NH+]3CCN(c4ccccc4)CC3)[nH]c12 (nonaromatic ring conformer: 98.77046252165349 kcal/mol)

>  <smiles>  (17) 
Cc1cccc2cc(C(=O)N3CCN(c4ccccc4)CC3)[nH]c12

>  <score_type>  (17) 
oracle

>  <origin>  (17) 
adg

>  <m_score__min__energy>  (17) 
-8.0500000000000007

>  <m_primary>  (17) 
energy

$$$$
17:0
     RDKit          3D

 33 34  0  0  0  0  0  0  0  0999 V2000
   -9.1060   18.1980  -31.5840 C   0  0  0  0  0  0  0  0  0  0  0  0
   -8.3370   19.4750  -31.8030 C   0  0  0  0  0  0  0  0  0  0  0  0
   -9.0100   20.6970  -31.7970 C   0  0  0  0  0  0  0  0  0  0  0  0
   -8.3120   21.8980  -31.9920 C   0  0  0  0  0  0  0  0  0  0  0  0
   -9.1130   23.1790  -32.0230 C   0  0  0  0  0  0  0  0  0  0  0  0
   -6.9470   21.8770  -32.2060 N   0  0  0  0  0  0  0  0  0  0  0  0
   -6.1850   23.1420  -32.3600 C   0  0  0  0  0  0  0  0  0  0  0  0
   -5.6680   23.6870  -31.0040 C   0  0  2  0  0  0  0  0  0  0  0  0
   -6.7870   24.0620  -30.0320 C   0  0  0  0  0  0  0  0  0  0  0  0
   -6.2980   25.3350  -29.4160 C   0  0  0  0  0  0  0  0  0  0  0  0
   -5.3620   25.8790  -30.4700 C   0  0  0  0  0  0  0  0  0  0  0  0
   -4.8160   24.8000  -31.1880 O   0  0  0  0  0  0  0  0  0  0  0  0
   -6.2770   20.6750  -32.2510 C   0  0  0  0  0  0  0  0  0  0  0  0
   -5.0370   20.6440  -32.4950 O   0  0  0  0  0  0  0  0  0  0  0  0
   -6.9540   19.4620  -32.0410 C   0  0  0  0  0  0  0  0  0  0  0  0
   -6.2260   18.2120  -32.0800 C   0  0  0  0  0  0  0  0  0  0  0  0
   -5.6420   17.2130  -32.1120 N   0  0  0  0  0  0  0  0  0  0  0  0
   -9.2154   18.0164  -30.5046 H   0  0  0  0  0  0  0  0  0  0  0  0
  -10.1014   18.2860  -32.0437 H   0  0  0  0  0  0  0  0  0  0  0  0
   -8.5626   17.3593  -32.0437 H   0  0  0  0  0  0  0  0  0  0  0  0
  -10.0982   20.7189  -31.6379 H   0  0  0  0  0  0  0  0  0  0  0  0
   -9.3186   23.5079  -30.9936 H   0  0  0  0  0  0  0  0  0  0  0  0
   -8.5402   23.9570  -32.5490 H   0  0  0  0  0  0  0  0  0  0  0  0
  -10.0632   23.0046  -32.5490 H   0  0  0  0  0  0  0  0  0  0  0  0
   -5.3235   22.9579  -33.0187 H   0  0  0  0  0  0  0  0  0  0  0  0
   -6.8646   23.8940  -32.7875 H   0  0  0  0  0  0  0  0  0  0  0  0
   -5.1039   22.8568  -30.5540 H   0  0  0  0  0  0  0  0  0  0  0  0
   -7.7353   24.2218  -30.5660 H   0  0  0  0  0  0  0  0  0  0  0  0
   -6.9927   23.2766  -29.2898 H   0  0  0  0  0  0  0  0  0  0  0  0
   -7.1301   26.0296  -29.2284 H   0  0  0  0  0  0  0  0  0  0  0  0
   -5.8151   25.1884  -28.4386 H   0  0  0  0  0  0  0  0  0  0  0  0
   -5.9177   26.5362  -31.1550 H   0  0  0  0  0  0  0  0  0  0  0  0
   -4.5571   26.4581  -29.9938 H   0  0  0  0  0  0  0  0  0  0  0  0
  1  2  1  0
  2  3  1  0
  3  4  2  0
  4  5  1  0
  4  6  1  0
  6  7  1  0
  7  8  1  0
  8  9  1  0
  9 10  1  0
 10 11  1  0
 11 12  1  0
  6 13  1  0
 13 14  2  0
 13 15  1  0
 15 16  1  0
 16 17  3  0
 15  2  2  0
 12  8  1  0
  1 18  1  0
  1 19  1  0
  1 20  1  0
  3 21  1  0
  5 22  1  0
  5 23  1  0
  5 24  1  0
  7 25  1  0
  7 26  1  0
  8 27  1  1
  9 28  1  0
  9 29  1  0
 10 30  1  0
 10 31  1  0
 11 32  1  0
 11 33  1  0
M  END
>  <UniqueID>  (18) 
17

>  <SMILES>  (18) 
Cc1cc(C)n(C[C@@H]2CCCO2)c(=O)c1C#N

>  <Energy>  (18) 
39.3646291740977

>  <Genealogy>  (18) 
Cc1cc(C)n(C[C@@H]2CCCO2)c(=O)c1C#N (chirality)
Cc1cc(C)n(C[C@@H]2CCCO2)c(=O)c1C#N (3D coordinates assigned)
Cc1cc(C)n(C[C@@H]2CCCO2)c(=O)c1C#N (nonaromatic ring conformer: 39.3646291740977 kcal/mol)

>  <smiles>  (18) 
Cc1cc(C)n(CC2CCCO2)c(=O)c1C#N

>  <score_type>  (18) 
oracle

>  <origin>  (18) 
adg

>  <m_score__min__energy>  (18) 
-7.3600000000000003

>  <m_primary>  (18) 
energy

$$$$
18:0
     RDKit          3D

 37 39  0  0  0  0  0  0  0  0999 V2000
   -6.0780   17.2350  -34.2490 C   0  0  0  0  0  0  0  0  0  0  0  0
   -5.7670   18.5810  -34.5930 O   0  0  0  0  0  0  0  0  0  0  0  0
   -5.8890   19.6690  -33.7150 C   0  0  0  0  0  0  0  0  0  0  0  0
   -7.1900   20.1170  -33.3840 C   0  0  0  0  0  0  0  0  0  0  0  0
   -7.3820   21.2110  -32.5040 C   0  0  0  0  0  0  0  0  0  0  0  0
   -8.6490   21.6920  -32.1440 O   0  0  0  0  0  0  0  0  0  0  0  0
   -9.2190   21.5500  -30.8480 C   0  0  0  0  0  0  0  0  0  0  0  0
   -6.2400   21.8190  -31.9850 C   0  0  0  0  0  0  0  0  0  0  0  0
   -6.1000   22.8830  -31.1220 C   0  0  0  0  0  0  0  0  0  0  0  0
   -4.7220   23.0260  -30.9740 C   0  0  0  0  0  0  0  0  0  0  0  0
   -4.0520   24.0380  -30.1430 C   0  0  0  0  0  0  0  0  0  0  0  0
   -3.8690   25.1970  -30.6040 O   0  0  0  0  0  0  0  0  0  0  0  0
   -3.6480   23.7150  -28.8020 N   0  0  0  0  0  0  0  0  0  0  0  0
   -2.7920   24.5440  -27.9970 C   0  0  0  0  0  0  0  0  0  0  0  0
   -1.6150   25.0650  -28.5560 C   0  0  0  0  0  0  0  0  0  0  0  0
   -0.7780   25.8920  -27.7990 C   0  0  0  0  0  0  0  0  0  0  0  0
   -1.1180   26.2180  -26.4850 C   0  0  0  0  0  0  0  0  0  0  0  0
   -2.2990   25.7240  -25.9260 C   0  0  0  0  0  0  0  0  0  0  0  0
   -3.1390   24.8950  -26.6790 C   0  0  0  0  0  0  0  0  0  0  0  0
   -4.0790   22.1220  -31.6900 O   0  0  0  0  0  0  0  0  0  0  0  0
   -4.9790   21.3920  -32.3010 C   0  0  0  0  0  0  0  0  0  0  0  0
   -4.7600   20.3210  -33.1620 C   0  0  0  0  0  0  0  0  0  0  0  0
   -6.1017   17.1325  -33.1540 H   0  0  0  0  0  0  0  0  0  0  0  0
   -7.0614   16.9684  -34.6636 H   0  0  0  0  0  0  0  0  0  0  0  0
   -5.3112   16.5641  -34.6636 H   0  0  0  0  0  0  0  0  0  0  0  0
   -8.0647   19.6087  -33.8160 H   0  0  0  0  0  0  0  0  0  0  0  0
   -8.4493   21.7417  -30.0859 H   0  0  0  0  0  0  0  0  0  0  0  0
  -10.0413   22.2707  -30.7281 H   0  0  0  0  0  0  0  0  0  0  0  0
   -9.6071   20.5277  -30.7281 H   0  0  0  0  0  0  0  0  0  0  0  0
   -6.8951   23.4833  -30.6557 H   0  0  0  0  0  0  0  0  0  0  0  0
   -4.0700   22.8700  -28.3540 H   0  0  0  0  0  0  0  0  0  0  0  0
   -1.3489   24.8218  -29.5953 H   0  0  0  0  0  0  0  0  0  0  0  0
    0.1495   26.2859  -28.2400 H   0  0  0  0  0  0  0  0  0  0  0  0
   -0.4559   26.8639  -25.8897 H   0  0  0  0  0  0  0  0  0  0  0  0
   -2.5694   25.9868  -24.8926 H   0  0  0  0  0  0  0  0  0  0  0  0
   -4.0735   24.5166  -26.2390 H   0  0  0  0  0  0  0  0  0  0  0  0
   -3.7396   19.9904  -33.4060 H   0  0  0  0  0  0  0  0  0  0  0  0
  1  2  1  0
  2  3  1  0
  3  4  2  0
  4  5  1  0
  5  6  1  0
  6  7  1  0
  5  8  2  0
  8  9  1  0
  9 10  2  0
 10 11  1  0
 11 12  2  0
 11 13  1  0
 13 14  1  0
 14 15  2  0
 15 16  1  0
 16 17  2  0
 17 18  1  0
 18 19  2  0
 10 20  1  0
 20 21  1  0
 21 22  2  0
 22  3  1  0
 21  8  1  0
 19 14  1  0
  1 23  1  0
  1 24  1  0
  1 25  1  0
  4 26  1  0
  7 27  1  0
  7 28  1  0
  7 29  1  0
  9 30  1  0
 13 31  1  0
 15 32  1  0
 16 33  1  0
 17 34  1  0
 18 35  1  0
 19 36  1  0
 22 37  1  0
M  END
>  <UniqueID>  (19) 
18

>  <SMILES>  (19) 
COc1cc(OC)c2cc(C(=O)Nc3ccccc3)oc2c1

>  <Energy>  (19) 
73.8877618041712

>  <Genealogy>  (19) 
COc1cc(OC)c2cc(C(=O)Nc3ccccc3)oc2c1 (3D coordinates assigned)
COc1cc(OC)c2cc(C(=O)Nc3ccccc3)oc2c1 (optimized conformer: 73.8877618041712 kcal/mol)

>  <smiles>  (19) 
COc1cc(OC)c2cc(C(=O)Nc3ccccc3)oc2c1

>  <score_type>  (19) 
oracle

>  <origin>  (19) 
adg

>  <m_score__min__energy>  (19) 
-7.1299999999999999

>  <m_primary>  (19) 
energy

$$$$
19:0
     RDKit          3D

 31 32  0  0  0  0  0  0  0  0999 V2000
   -7.6180   17.9660  -32.3210 C   0  0  0  0  0  0  0  0  0  0  0  0
   -6.7960   18.9770  -33.1140 C   0  0  0  0  0  0  0  0  0  0  0  0
   -6.9540   20.3540  -32.5420 C   0  0  0  0  0  0  0  0  0  0  0  0
   -8.2270   20.8980  -32.3330 C   0  0  0  0  0  0  0  0  0  0  0  0
   -8.3370   22.1740  -31.7810 C   0  0  0  0  0  0  0  0  0  0  0  0
   -9.4800   22.6720  -31.5920 O   0  0  0  0  0  0  0  0  0  0  0  0
   -7.1710   22.8820  -31.4430 C   0  0  0  0  0  0  0  0  0  0  0  0
   -7.2160   24.1660  -30.8860 C   0  0  0  0  0  0  0  0  0  0  0  0
   -6.0340   24.8310  -30.5630 C   0  0  0  0  0  0  0  0  0  0  0  0
   -4.7780   24.2310  -30.7890 C   0  0  0  0  0  0  0  0  0  0  0  0
   -3.5910   24.9050  -30.4620 O   0  0  0  0  0  0  0  0  0  0  0  0
   -2.7130   24.5450  -29.4000 C   0  0  0  0  0  0  0  0  0  0  0  0
   -4.7250   22.9290  -31.3530 C   0  0  0  0  0  0  0  0  0  0  0  0
   -3.5260   22.2390  -31.6190 O   0  0  0  0  0  0  0  0  0  0  0  0
   -3.1670   21.6030  -32.8400 C   0  0  0  0  0  0  0  0  0  0  0  0
   -5.9210   22.2660  -31.6760 C   0  0  0  0  0  0  0  0  0  0  0  0
   -5.8690   21.0450  -32.2050 O   0  0  0  0  0  0  0  0  0  0  0  0
   -7.4755   18.1413  -31.2445 H   0  0  0  0  0  0  0  0  0  0  0  0
   -8.6825   18.0804  -32.5733 H   0  0  0  0  0  0  0  0  0  0  0  0
   -7.2888   16.9472  -32.5733 H   0  0  0  0  0  0  0  0  0  0  0  0
   -5.7350   18.6895  -33.0752 H   0  0  0  0  0  0  0  0  0  0  0  0
   -7.1519   18.9835  -34.1548 H   0  0  0  0  0  0  0  0  0  0  0  0
   -9.1282   20.3267  -32.6005 H   0  0  0  0  0  0  0  0  0  0  0  0
   -8.1862   24.6510  -30.7029 H   0  0  0  0  0  0  0  0  0  0  0  0
   -6.0819   25.8390  -30.1252 H   0  0  0  0  0  0  0  0  0  0  0  0
   -3.2025   24.7457  -28.4356 H   0  0  0  0  0  0  0  0  0  0  0  0
   -2.4699   23.4746  -29.4721 H   0  0  0  0  0  0  0  0  0  0  0  0
   -1.7885   25.1366  -29.4721 H   0  0  0  0  0  0  0  0  0  0  0  0
   -2.6370   20.6640  -32.6223 H   0  0  0  0  0  0  0  0  0  0  0  0
   -4.0754   21.3851  -33.4209 H   0  0  0  0  0  0  0  0  0  0  0  0
   -2.5111   22.2681  -33.4209 H   0  0  0  0  0  0  0  0  0  0  0  0
  1  2  1  0
  2  3  1  0
  3  4  2  0
  4  5  1  0
  5  6  2  0
  5  7  1  0
  7  8  2  0
  8  9  1  0
  9 10  2  0
 10 11  1  0
 11 12  1  0
 10 13  1  0
 13 14  1  0
 14 15  1  0
 13 16  2  0
 16 17  1  0
 17  3  1  0
 16  7  1  0
  1 18  1  0
  1 19  1  0
  1 20  1  0
  2 21  1  0
  2 22  1  0
  4 23  1  0
  8 24  1  0
  9 25  1  0
 12 26  1  0
 12 27  1  0
 12 28  1  0
 15 29  1  0
 15 30  1  0
 15 31  1  0
M  END
>  <UniqueID>  (20) 
19

>  <SMILES>  (20) 
CCc1cc(=O)c2ccc(OC)c(OC)c2o1

>  <Energy>  (20) 
34.42978053467376

>  <Genealogy>  (20) 
CCc1cc(=O)c2ccc(OC)c(OC)c2o1 (3D coordinates assigned)
CCc1cc(=O)c2ccc(OC)c(OC)c2o1 (optimized conformer: 34.42978053467376 kcal/mol)

>  <smiles>  (20) 
CCc1cc(=O)c2ccc(OC)c(OC)c2o1

>  <score_type>  (20) 
oracle

>  <origin>  (20) 
adg

>  <m_score__min__energy>  (20) 
-6.3300000000000001

>  <m_primary>  (20) 
energy

$$$$
20:0
     RDKit          3D

 37 38  0  0  0  0  0  0  0  0999 V2000
   -3.0560   24.5010  -29.4180 C   0  0  0  0  0  0  0  0  0  0  0  0
   -3.9050   24.6280  -30.5540 O   0  0  0  0  0  0  0  0  0  0  0  0
   -4.9830   23.7760  -30.8360 C   0  0  0  0  0  0  0  0  0  0  0  0
   -4.9390   22.3910  -30.5800 C   0  0  0  0  0  0  0  0  0  0  0  0
   -6.0420   21.5850  -30.8780 C   0  0  0  0  0  0  0  0  0  0  0  0
   -7.2000   22.1490  -31.4300 C   0  0  0  0  0  0  0  0  0  0  0  0
   -8.5850   21.1370  -31.8360 S   0  0  0  0  0  0  0  0  0  0  0  0
   -9.6710   22.0100  -32.4000 O   0  0  0  0  0  0  0  0  0  0  0  0
   -9.1080   20.4650  -30.5950 O   0  0  0  0  0  0  0  0  0  0  0  0
   -8.1180   19.9350  -33.0160 N   0  0  0  0  0  0  0  0  0  0  0  0
   -6.7360   20.1980  -33.4840 C   0  0  0  0  0  0  0  0  0  0  0  0
   -6.0990   18.9280  -34.0600 C   0  0  0  0  0  0  0  0  0  0  0  0
   -5.9550   17.8830  -33.0210 N   0  0  0  0  0  0  0  0  0  0  0  0
   -5.8790   16.5490  -33.6380 C   0  0  0  0  0  0  0  0  0  0  0  0
   -7.0040   17.9360  -31.9720 C   0  0  0  0  0  0  0  0  0  0  0  0
   -8.3140   18.5610  -32.4830 C   0  0  0  0  0  0  0  0  0  0  0  0
   -7.2430   23.5230  -31.6900 C   0  0  0  0  0  0  0  0  0  0  0  0
   -6.1420   24.3310  -31.3920 C   0  0  0  0  0  0  0  0  0  0  0  0
   -3.6557   24.5907  -28.5002 H   0  0  0  0  0  0  0  0  0  0  0  0
   -2.5611   23.5188  -29.4381 H   0  0  0  0  0  0  0  0  0  0  0  0
   -2.2953   25.2954  -29.4381 H   0  0  0  0  0  0  0  0  0  0  0  0
   -4.0340   21.9425  -30.1443 H   0  0  0  0  0  0  0  0  0  0  0  0
   -6.0006   20.5041  -30.6784 H   0  0  0  0  0  0  0  0  0  0  0  0
   -8.7630   20.0570  -33.8330 H   0  0  0  0  0  0  0  0  0  0  0  0
   -6.7620   20.9729  -34.2643 H   0  0  0  0  0  0  0  0  0  0  0  0
   -6.1340   20.5337  -32.6267 H   0  0  0  0  0  0  0  0  0  0  0  0
   -6.7355   18.5431  -34.8703 H   0  0  0  0  0  0  0  0  0  0  0  0
   -5.0984   19.1816  -34.4401 H   0  0  0  0  0  0  0  0  0  0  0  0
   -5.8353   15.7826  -32.8502 H   0  0  0  0  0  0  0  0  0  0  0  0
   -6.7691   16.3826  -34.2625 H   0  0  0  0  0  0  0  0  0  0  0  0
   -4.9757   16.4848  -34.2625 H   0  0  0  0  0  0  0  0  0  0  0  0
   -7.2118   16.9120  -31.6282 H   0  0  0  0  0  0  0  0  0  0  0  0
   -6.6281   18.5676  -31.1536 H   0  0  0  0  0  0  0  0  0  0  0  0
   -8.7189   17.9259  -33.2846 H   0  0  0  0  0  0  0  0  0  0  0  0
   -9.0073   18.6280  -31.6317 H   0  0  0  0  0  0  0  0  0  0  0  0
   -8.1467   23.9692  -32.1306 H   0  0  0  0  0  0  0  0  0  0  0  0
   -6.1864   25.4110  -31.5958 H   0  0  0  0  0  0  0  0  0  0  0  0
  1  2  1  0
  2  3  1  0
  3  4  2  0
  4  5  1  0
  5  6  2  0
  6  7  1  0
  7  8  2  0
  7  9  2  0
  7 10  1  0
 10 11  1  0
 11 12  1  0
 12 13  1  0
 13 14  1  0
 13 15  1  0
 15 16  1  0
  6 17  1  0
 17 18  2  0
 18  3  1  0
 16 10  1  0
  1 19  1  0
  1 20  1  0
  1 21  1  0
  4 22  1  0
  5 23  1  0
 10 24  1  0
 11 25  1  0
 11 26  1  0
 12 27  1  0
 12 28  1  0
 14 29  1  0
 14 30  1  0
 14 31  1  0
 15 32  1  0
 15 33  1  0
 16 34  1  0
 16 35  1  0
 17 36  1  0
 18 37  1  0
M  CHG  1  10   1
M  END
>  <UniqueID>  (21) 
20

>  <SMILES>  (21) 
COc1ccc(S(=O)(=O)[NH+]2CCN(C)CC2)cc1

>  <Energy>  (21) 
45.27047703162101

>  <Genealogy>  (21) 
COc1ccc(S(=O)(=O)[NH+]2CCN(C)CC2)cc1 (protonated)
COc1ccc(S(=O)(=O)[NH+]2CCN(C)CC2)cc1 (3D coordinates assigned)
COc1ccc(S(=O)(=O)[NH+]2CCN(C)CC2)cc1 (nonaromatic ring conformer: 45.27047703162101 kcal/mol)

>  <smiles>  (21) 
COc1ccc(S(=O)(=O)N2CCN(C)CC2)cc1

>  <score_type>  (21) 
oracle

>  <origin>  (21) 
adg

>  <m_score__min__energy>  (21) 
-7.1900000000000004

>  <m_primary>  (21) 
energy

$$$$
21:0
     RDKit          3D

 39 41  0  0  0  0  0  0  0  0999 V2000
   -6.6910   19.1590  -31.9140 C   0  0  0  0  0  0  0  0  0  0  0  0
   -7.4190   20.4590  -31.9460 C   0  0  0  0  0  0  0  0  0  0  0  0
   -8.7920   20.4220  -31.8200 C   0  0  0  0  0  0  0  0  0  0  0  0
   -9.5680   21.5550  -31.8300 C   0  0  0  0  0  0  0  0  0  0  0  0
   -8.9120   22.7560  -31.9760 C   0  0  0  0  0  0  0  0  0  0  0  0
   -7.5170   22.7940  -32.1050 C   0  0  0  0  0  0  0  0  0  0  0  0
   -6.7320   21.6740  -32.0930 C   0  0  0  0  0  0  0  0  0  0  0  0
   -5.3180   21.6020  -32.2810 C   0  0  0  0  0  0  0  0  0  0  0  0
   -4.7370   20.6400  -33.0730 N   0  0  0  0  0  0  0  0  0  0  0  0
   -3.4170   20.7540  -33.0820 C   0  0  0  0  0  0  0  0  0  0  0  0
   -2.4480   19.8970  -33.8230 C   0  0  0  0  0  0  0  0  0  0  0  0
   -1.6020   20.6370  -34.5930 F   0  0  0  0  0  0  0  0  0  0  0  0
   -3.1810   18.9810  -34.5780 F   0  0  0  0  0  0  0  0  0  0  0  0
   -1.7560   19.1260  -32.8890 F   0  0  0  0  0  0  0  0  0  0  0  0
   -3.1120   21.7810  -32.3030 N   0  0  0  0  0  0  0  0  0  0  0  0
   -4.2620   22.3190  -31.7960 C   0  0  0  0  0  0  0  0  0  0  0  0
   -4.2350   23.3840  -30.8270 C   0  0  0  0  0  0  0  0  0  0  0  0
   -4.2340   24.6140  -31.0460 O   0  0  0  0  0  0  0  0  0  0  0  0
   -4.2010   23.0280  -29.4240 N   0  0  0  0  0  0  0  0  0  0  0  0
   -4.1720   24.1570  -28.5080 C   0  0  0  0  0  0  0  0  0  0  0  0
   -2.7960   24.5970  -28.2760 C   0  0  0  0  0  0  0  0  0  0  0  0
   -2.0330   24.1620  -27.1910 C   0  0  0  0  0  0  0  0  0  0  0  0
   -0.7860   24.7760  -27.2810 C   0  0  0  0  0  0  0  0  0  0  0  0
   -0.8660   25.5510  -28.4210 C   0  0  0  0  0  0  0  0  0  0  0  0
   -2.0480   25.4240  -28.9740 O   0  0  0  0  0  0  0  0  0  0  0  0
   -6.5228   18.8586  -30.8693 H   0  0  0  0  0  0  0  0  0  0  0  0
   -7.2901   18.3906  -32.4246 H   0  0  0  0  0  0  0  0  0  0  0  0
   -5.7228   19.2683  -32.4246 H   0  0  0  0  0  0  0  0  0  0  0  0
   -9.2854   19.4454  -31.7069 H   0  0  0  0  0  0  0  0  0  0  0  0
  -10.6620   21.5050  -31.7262 H   0  0  0  0  0  0  0  0  0  0  0  0
   -9.4872   23.6935  -31.9916 H   0  0  0  0  0  0  0  0  0  0  0  0
   -7.0293   23.7730  -32.2217 H   0  0  0  0  0  0  0  0  0  0  0  0
   -2.1260   22.0990  -32.1300 H   0  0  0  0  0  0  0  0  0  0  0  0
   -4.1990   22.0340  -29.1170 H   0  0  0  0  0  0  0  0  0  0  0  0
   -4.7492   24.9878  -28.9399 H   0  0  0  0  0  0  0  0  0  0  0  0
   -4.6115   23.8465  -27.5486 H   0  0  0  0  0  0  0  0  0  0  0  0
   -2.3576   23.4616  -26.4074 H   0  0  0  0  0  0  0  0  0  0  0  0
    0.0695   24.6679  -26.5980 H   0  0  0  0  0  0  0  0  0  0  0  0
   -0.0546   26.1840  -28.8094 H   0  0  0  0  0  0  0  0  0  0  0  0
  1  2  1  0
  2  3  2  0
  3  4  1  0
  4  5  2  0
  5  6  1  0
  6  7  2  0
  7  8  1  0
  8  9  1  0
  9 10  2  0
 10 11  1  0
 11 12  1  0
 11 13  1  0
 11 14  1  0
 10 15  1  0
 15 16  1  0
 16 17  1  0
 17 18  2  0
 17 19  1  0
 19 20  1  0
 20 21  1  0
 21 22  2  0
 22 23  1  0
 23 24  2  0
 24 25  1  0
  7  2  1  0
 16  8  2  0
 25 21  1  0
  1 26  1  0
  1 27  1  0
  1 28  1  0
  3 29  1  0
  4 30  1  0
  5 31  1  0
  6 32  1  0
 15 33  1  0
 19 34  1  0
 20 35  1  0
 20 36  1  0
 22 37  1  0
 23 38  1  0
 24 39  1  0
M  END
>  <smiles>  (22) 
Cc1ccccc1-c1nc(C(F)(F)F)[nH]c1C(=O)NCc1ccco1

>  <score_type>  (22) 
oracle

>  <origin>  (22) 
adg

>  <m_score__min__energy>  (22) 
-8.1300000000000008

>  <m_primary>  (22) 
energy

$$$$
22:0
     RDKit          3D

 53 57  0  0  0  0  0  0  0  0999 V2000
    0.0130   25.3970  -26.4610 C   0  0  0  0  0  0  0  0  0  0  0  0
   -1.2320   25.1370  -25.9150 C   0  0  0  0  0  0  0  0  0  0  0  0
   -2.0730   24.9040  -26.9320 N   0  0  0  0  0  0  0  0  0  0  0  0
   -1.3400   25.0170  -28.0400 C   0  0  0  0  0  0  0  0  0  0  0  0
   -0.0470   25.3220  -27.8110 N   0  0  0  0  0  0  0  0  0  0  0  0
   -1.9190   24.8230  -29.3220 N   0  0  0  0  0  0  0  0  0  0  0  0
   -3.3220   24.5200  -29.3800 C   0  0  0  0  0  0  0  0  0  0  0  0
   -3.9590   24.3930  -30.6600 N   0  0  0  0  0  0  0  0  0  0  0  0
   -5.2800   23.8600  -30.8610 C   0  0  0  0  0  0  0  0  0  0  0  0
   -5.9560   23.1710  -29.8390 C   0  0  0  0  0  0  0  0  0  0  0  0
   -7.2290   22.6390  -30.0670 C   0  0  0  0  0  0  0  0  0  0  0  0
   -7.8360   22.7670  -31.3250 C   0  0  0  0  0  0  0  0  0  0  0  0
   -9.2100   22.2040  -31.5750 C   0  0  0  0  0  0  0  0  0  0  0  0
   -9.2030   20.7800  -31.4650 O   0  0  0  0  0  0  0  0  0  0  0  0
   -8.2640   19.9240  -32.0620 C   0  0  0  0  0  0  0  0  0  0  0  0
   -8.1860   18.6050  -31.6040 C   0  0  0  0  0  0  0  0  0  0  0  0
   -7.2740   17.7080  -32.1650 C   0  0  0  0  0  0  0  0  0  0  0  0
   -6.4120   18.1140  -33.2030 C   0  0  0  0  0  0  0  0  0  0  0  0
   -5.4680   17.1860  -33.7850 N   0  0  0  0  0  0  0  0  0  0  0  0
   -5.2420   15.8360  -33.2880 C   0  0  0  0  0  0  0  0  0  0  0  0
   -4.3080   15.1730  -34.2910 C   0  0  0  0  0  0  0  0  0  0  0  0
   -3.6840   16.3110  -35.0910 C   0  0  0  0  0  0  0  0  0  0  0  0
   -4.6310   17.4930  -34.9370 C   0  0  0  0  0  0  0  0  0  0  0  0
   -6.4900   19.4460  -33.6560 C   0  0  0  0  0  0  0  0  0  0  0  0
   -7.4030   20.3400  -33.0930 C   0  0  0  0  0  0  0  0  0  0  0  0
   -7.1570   23.4460  -32.3490 C   0  0  0  0  0  0  0  0  0  0  0  0
   -5.8840   23.9760  -32.1210 C   0  0  0  0  0  0  0  0  0  0  0  0
   -4.0230   24.4270  -28.2790 N   0  0  0  0  0  0  0  0  0  0  0  0
   -3.4880   24.5520  -26.9110 C   0  0  0  0  0  0  0  0  0  0  0  0
    0.9188   25.6305  -25.8823 H   0  0  0  0  0  0  0  0  0  0  0  0
   -1.4844   25.1240  -24.8444 H   0  0  0  0  0  0  0  0  0  0  0  0
   -1.3450   24.9120  -30.1900 H   0  0  0  0  0  0  0  0  0  0  0  0
   -3.4580   24.7850  -31.4890 H   0  0  0  0  0  0  0  0  0  0  0  0
   -5.4809   23.0496  -28.8543 H   0  0  0  0  0  0  0  0  0  0  0  0
   -7.7572   22.1173  -29.2553 H   0  0  0  0  0  0  0  0  0  0  0  0
   -9.9099   22.6193  -30.8350 H   0  0  0  0  0  0  0  0  0  0  0  0
   -9.5227   22.4771  -32.5936 H   0  0  0  0  0  0  0  0  0  0  0  0
   -8.8499   18.2703  -30.7933 H   0  0  0  0  0  0  0  0  0  0  0  0
   -7.2283   16.6740  -31.7926 H   0  0  0  0  0  0  0  0  0  0  0  0
   -4.7744   15.8679  -32.2929 H   0  0  0  0  0  0  0  0  0  0  0  0
   -6.1856   15.2799  -33.1861 H   0  0  0  0  0  0  0  0  0  0  0  0
   -3.5284   14.5998  -33.7679 H   0  0  0  0  0  0  0  0  0  0  0  0
   -4.8463   14.4679  -34.9414 H   0  0  0  0  0  0  0  0  0  0  0  0
   -2.6905   16.5612  -34.6905 H   0  0  0  0  0  0  0  0  0  0  0  0
   -3.5472   16.0363  -36.1473 H   0  0  0  0  0  0  0  0  0  0  0  0
   -4.0627   18.4183  -34.7614 H   0  0  0  0  0  0  0  0  0  0  0  0
   -5.2334   17.6489  -35.8441 H   0  0  0  0  0  0  0  0  0  0  0  0
   -5.8238   19.7856  -34.4627 H   0  0  0  0  0  0  0  0  0  0  0  0
   -7.4490   21.3765  -33.4584 H   0  0  0  0  0  0  0  0  0  0  0  0
   -7.6292   23.5615  -33.3358 H   0  0  0  0  0  0  0  0  0  0  0  0
   -5.3519   24.4880  -32.9363 H   0  0  0  0  0  0  0  0  0  0  0  0
   -4.0455   25.3357  -26.3772 H   0  0  0  0  0  0  0  0  0  0  0  0
   -3.6001   23.5835  -26.4016 H   0  0  0  0  0  0  0  0  0  0  0  0
  1  2  2  0
  2  3  1  0
  3  4  1  0
  4  5  2  0
  4  6  1  0
  6  7  1  0
  7  8  1  0
  8  9  1  0
  9 10  2  0
 10 11  1  0
 11 12  2  0
 12 13  1  0
 13 14  1  0
 14 15  1  0
 15 16  2  0
 16 17  1  0
 17 18  2  0
 18 19  1  0
 19 20  1  0
 20 21  1  0
 21 22  1  0
 22 23  1  0
 18 24  1  0
 24 25  2  0
 12 26  1  0
 26 27  2  0
  7 28  2  0
 28 29  1  0
  5  1  1  0
 27  9  1  0
 29  3  1  0
 25 15  1  0
 23 19  1  0
  1 30  1  0
  2 31  1  0
  6 32  1  0
  8 33  1  0
 10 34  1  0
 11 35  1  0
 13 36  1  0
 13 37  1  0
 16 38  1  0
 17 39  1  0
 20 40  1  0
 20 41  1  0
 21 42  1  0
 21 43  1  0
 22 44  1  0
 22 45  1  0
 23 46  1  0
 23 47  1  0
 24 48  1  0
 25 49  1  0
 26 50  1  0
 27 51  1  0
 29 52  1  0
 29 53  1  0
M  END
>  <UniqueID>  (23) 
21

>  <SMILES>  (23) 
c1cn2c(n1)NC(Nc1ccc(COc3ccc(N4CCCC4)cc3)cc1)=NC2

>  <Energy>  (23) 
95.70624674697017

>  <Genealogy>  (23) 
c1cn2c(n1)NC(Nc1ccc(COc3ccc(N4CCCC4)cc3)cc1)=NC2 (3D coordinates assigned)
c1cn2c(n1)NC(Nc1ccc(COc3ccc(N4CCCC4)cc3)cc1)=NC2 (nonaromatic ring conformer: 95.70624674697017 kcal/mol)

>  <smiles>  (23) 
c1cn2c(n1)NC(Nc1ccc(COc3ccc(N4CCCC4)cc3)cc1)=NC2

>  <score_type>  (23) 
oracle

>  <origin>  (23) 
adg

>  <m_score__min__energy>  (23) 
-9.9399999999999995

>  <m_primary>  (23) 
energy

$$$$
23:0
     RDKit          3D

 36 38  0  0  0  0  0  0  0  0999 V2000
   -6.1490   16.1700  -33.8650 C   0  0  0  0  0  0  0  0  0  0  0  0
   -7.2160   17.0630  -33.5620 O   0  0  0  0  0  0  0  0  0  0  0  0
   -7.0460   18.3570  -33.0480 C   0  0  0  0  0  0  0  0  0  0  0  0
   -8.0790   18.9120  -32.2870 C   0  0  0  0  0  0  0  0  0  0  0  0
   -7.9580   20.1970  -31.7530 C   0  0  0  0  0  0  0  0  0  0  0  0
   -6.7930   20.9550  -31.9670 C   0  0  0  0  0  0  0  0  0  0  0  0
   -6.6840   22.2820  -31.4100 N   0  0  0  0  0  0  0  0  0  0  0  0
   -5.7220   23.1990  -31.6320 C   0  0  0  0  0  0  0  0  0  0  0  0
   -6.0580   24.3010  -30.8800 C   0  0  0  0  0  0  0  0  0  0  0  0
   -5.2770   25.5720  -30.7490 C   0  0  0  0  0  0  0  0  0  0  0  0
   -3.9090   25.2980  -30.4510 O   0  0  0  0  0  0  0  0  0  0  0  0
   -3.4440   24.1940  -29.7170 C   0  0  0  0  0  0  0  0  0  0  0  0
   -2.6990   23.1500  -30.3040 C   0  0  0  0  0  0  0  0  0  0  0  0
   -2.2660   22.0720  -29.5260 C   0  0  0  0  0  0  0  0  0  0  0  0
   -2.5680   22.0230  -28.1620 C   0  0  0  0  0  0  0  0  0  0  0  0
   -1.9760   20.5490  -27.1040 Br  0  0  0  0  0  0  0  0  0  0  0  0
   -3.3030   23.0570  -27.5740 C   0  0  0  0  0  0  0  0  0  0  0  0
   -3.7380   24.1360  -28.3490 C   0  0  0  0  0  0  0  0  0  0  0  0
   -7.1940   24.0310  -30.2100 N   0  0  0  0  0  0  0  0  0  0  0  0
   -7.5530   22.8020  -30.5550 N   0  0  0  0  0  0  0  0  0  0  0  0
   -5.7550   20.3960  -32.7360 C   0  0  0  0  0  0  0  0  0  0  0  0
   -5.8790   19.1100  -33.2710 C   0  0  0  0  0  0  0  0  0  0  0  0
   -5.7050   15.7984  -32.9297 H   0  0  0  0  0  0  0  0  0  0  0  0
   -6.5353   15.3221  -34.4497 H   0  0  0  0  0  0  0  0  0  0  0  0
   -5.3824   16.6996  -34.4497 H   0  0  0  0  0  0  0  0  0  0  0  0
   -8.9957   18.3313  -32.1070 H   0  0  0  0  0  0  0  0  0  0  0  0
   -8.7818   20.6201  -31.1594 H   0  0  0  0  0  0  0  0  0  0  0  0
   -4.8433   23.0885  -32.2844 H   0  0  0  0  0  0  0  0  0  0  0  0
   -5.3351   26.1301  -31.6951 H   0  0  0  0  0  0  0  0  0  0  0  0
   -5.7047   26.1653  -29.9274 H   0  0  0  0  0  0  0  0  0  0  0  0
   -2.4580   23.1840  -31.3767 H   0  0  0  0  0  0  0  0  0  0  0  0
   -1.6859   21.2599  -29.9887 H   0  0  0  0  0  0  0  0  0  0  0  0
   -3.5392   23.0213  -26.5003 H   0  0  0  0  0  0  0  0  0  0  0  0
   -4.3160   24.9462  -27.8805 H   0  0  0  0  0  0  0  0  0  0  0  0
   -4.8381   20.9759  -32.9177 H   0  0  0  0  0  0  0  0  0  0  0  0
   -5.0597   18.6850  -33.8694 H   0  0  0  0  0  0  0  0  0  0  0  0
  1  2  1  0
  2  3  1  0
  3  4  2  0
  4  5  1  0
  5  6  2  0
  6  7  1  0
  7  8  1  0
  8  9  2  0
  9 10  1  0
 10 11  1  0
 11 12  1  0
 12 13  2  0
 13 14  1  0
 14 15  2  0
 15 16  1  0
 15 17  1  0
 17 18  2  0
  9 19  1  0
 19 20  2  0
  6 21  1  0
 21 22  2  0
 22  3  1  0
 20  7  1  0
 18 12  1  0
  1 23  1  0
  1 24  1  0
  1 25  1  0
  4 26  1  0
  5 27  1  0
  8 28  1  0
 10 29  1  0
 10 30  1  0
 13 31  1  0
 14 32  1  0
 17 33  1  0
 18 34  1  0
 21 35  1  0
 22 36  1  0
M  END
>  <UniqueID>  (24) 
22

>  <SMILES>  (24) 
COc1ccc(-n2cc(COc3ccc(Br)cc3)nn2)cc1

>  <Energy>  (24) 
74.21987746421628

>  <Genealogy>  (24) 
COc1ccc(-n2cc(COc3ccc(Br)cc3)nn2)cc1 (3D coordinates assigned)
COc1ccc(-n2cc(COc3ccc(Br)cc3)nn2)cc1 (optimized conformer: 74.21987746421628 kcal/mol)

>  <smiles>  (24) 
COc1ccc(-n2cc(COc3ccc(Br)cc3)nn2)cc1

>  <score_type>  (24) 
oracle

>  <origin>  (24) 
adg

>  <m_score__min__energy>  (24) 
-8.4000000000000004

>  <m_primary>  (24) 
energy

$$$$
24:0
     RDKit          3D

 36 37  0  0  0  0  0  0  0  0999 V2000
   -9.0470   22.6810  -31.9160 C   0  0  0  0  0  0  0  0  0  0  0  0
   -8.2070   23.7450  -31.5240 O   0  0  0  0  0  0  0  0  0  0  0  0
   -7.0350   23.2450  -30.8980 C   0  0  1  0  0  0  0  0  0  0  0  0
   -6.8300   21.8000  -31.3360 C   0  0  0  0  0  0  0  0  0  0  0  0
   -6.0500   21.8990  -32.6490 C   0  0  2  0  0  0  0  0  0  0  0  0
   -5.3670   20.6590  -33.1150 N   0  0  0  0  0  0  0  0  0  0  0  0
   -4.0010   20.5180  -33.1000 C   0  0  0  0  0  0  0  0  0  0  0  0
   -3.3870   19.3490  -33.5630 C   0  0  0  0  0  0  0  0  0  0  0  0
   -1.8900   19.2030  -33.5270 C   0  0  0  0  0  0  0  0  0  0  0  0
   -4.2040   18.3020  -33.9950 C   0  0  0  0  0  0  0  0  0  0  0  0
   -3.6990   17.2200  -34.4020 O   0  0  0  0  0  0  0  0  0  0  0  0
   -5.5520   18.4460  -33.9680 N   0  0  0  0  0  0  0  0  0  0  0  0
   -6.1350   19.5940  -33.5280 C   0  0  0  0  0  0  0  0  0  0  0  0
   -7.3950   19.6600  -33.4940 O   0  0  0  0  0  0  0  0  0  0  0  0
   -5.0650   23.0360  -32.3790 C   0  0  0  0  0  0  0  0  0  0  0  0
   -5.7850   23.9950  -31.4150 C   0  0  2  0  0  0  0  0  0  0  0  0
   -4.8590   24.4430  -30.2720 C   0  0  0  0  0  0  0  0  0  0  0  0
   -3.8880   25.3260  -30.7600 O   0  0  0  0  0  0  0  0  0  0  0  0
   -9.4438   22.1784  -31.0216 H   0  0  0  0  0  0  0  0  0  0  0  0
   -9.8809   23.0741  -32.5160 H   0  0  0  0  0  0  0  0  0  0  0  0
   -8.4711   21.9611  -32.5160 H   0  0  0  0  0  0  0  0  0  0  0  0
   -7.1549   23.3588  -29.8105 H   0  0  0  0  0  0  0  0  0  0  0  0
   -6.2523   21.2445  -30.5825 H   0  0  0  0  0  0  0  0  0  0  0  0
   -7.7822   21.2627  -31.4571 H   0  0  0  0  0  0  0  0  0  0  0  0
   -6.7391   22.0765  -33.4878 H   0  0  0  0  0  0  0  0  0  0  0  0
   -3.3779   21.3395  -32.7168 H   0  0  0  0  0  0  0  0  0  0  0  0
   -1.5499   19.1698  -32.4814 H   0  0  0  0  0  0  0  0  0  0  0  0
   -1.6000   18.2723  -34.0366 H   0  0  0  0  0  0  0  0  0  0  0  0
   -1.4256   20.0601  -34.0366 H   0  0  0  0  0  0  0  0  0  0  0  0
   -6.1570   17.6530  -34.2830 H   0  0  0  0  0  0  0  0  0  0  0  0
   -4.1469   22.6454  -31.9159 H   0  0  0  0  0  0  0  0  0  0  0  0
   -4.7685   23.5438  -33.3086 H   0  0  0  0  0  0  0  0  0  0  0  0
   -6.0823   24.9221  -31.9269 H   0  0  0  0  0  0  0  0  0  0  0  0
   -5.4546   24.9484  -29.4976 H   0  0  0  0  0  0  0  0  0  0  0  0
   -4.3615   23.5604  -29.8435 H   0  0  0  0  0  0  0  0  0  0  0  0
   -4.2200   25.6410  -31.6410 H   0  0  0  0  0  0  0  0  0  0  0  0
  1  2  1  0
  2  3  1  0
  3  4  1  0
  4  5  1  0
  5  6  1  0
  6  7  1  0
  7  8  2  0
  8  9  1  0
  8 10  1  0
 10 11  2  0
 10 12  1  0
 12 13  1  0
 13 14  2  0
  5 15  1  0
 15 16  1  0
 16 17  1  0
 17 18  1  0
 16  3  1  0
 13  6  1  0
  1 19  1  0
  1 20  1  0
  1 21  1  0
  3 22  1  1
  4 23  1  0
  4 24  1  0
  5 25  1  6
  7 26  1  0
  9 27  1  0
  9 28  1  0
  9 29  1  0
 12 30  1  0
 15 31  1  0
 15 32  1  0
 16 33  1  6
 17 34  1  0
 17 35  1  0
 18 36  1  0
M  END
>  <UniqueID>  (25) 
23

>  <SMILES>  (25) 
CO[C@H]1C[C@H](n2cc(C)c(=O)[nH]c2=O)CC1CO

>  <Energy>  (25) 
46.95896890448018

>  <Genealogy>  (25) 
CO[C@H]1C[C@H](n2cc(C)c(=O)[nH]c2=O)CC1CO (chirality)
CO[C@H]1C[C@H](n2cc(C)c(=O)[nH]c2=O)CC1CO (3D coordinates assigned)
CO[C@H]1C[C@H](n2cc(C)c(=O)[nH]c2=O)CC1CO (nonaromatic ring conformer: 46.95896890448018 kcal/mol)

>  <smiles>  (25) 
COC1CC(n2cc(C)c(=O)[nH]c2=O)CC1CO

>  <score_type>  (25) 
oracle

>  <origin>  (25) 
adg

>  <m_score__min__energy>  (25) 
-7.1799999999999997

>  <m_primary>  (25) 
energy

$$$$
25:0
     RDKit          3D

 45 47  0  0  0  0  0  0  0  0999 V2000
   -0.9230   26.3530  -27.8130 C   0  0  0  0  0  0  0  0  0  0  0  0
   -1.6370   25.8960  -28.9570 O   0  0  0  0  0  0  0  0  0  0  0  0
   -1.7760   24.5480  -29.3210 C   0  0  0  0  0  0  0  0  0  0  0  0
   -0.8410   23.5700  -28.9350 C   0  0  0  0  0  0  0  0  0  0  0  0
   -1.0130   22.2380  -29.3150 C   0  0  0  0  0  0  0  0  0  0  0  0
   -2.1190   21.8580  -30.0870 C   0  0  0  0  0  0  0  0  0  0  0  0
   -2.3180   20.4130  -30.4810 C   0  0  0  0  0  0  0  0  0  0  0  0
   -1.5160   20.0410  -31.6620 N   0  0  0  0  0  0  0  0  0  0  0  0
   -2.0330   20.5970  -32.9270 C   0  0  0  0  0  0  0  0  0  0  0  0
   -3.4950   20.3120  -33.1120 C   0  0  0  0  0  0  0  0  0  0  0  0
   -4.0370   19.2720  -33.8330 C   0  0  0  0  0  0  0  0  0  0  0  0
   -5.3380   19.3480  -33.7080 O   0  0  0  0  0  0  0  0  0  0  0  0
   -5.5990   20.3830  -32.9390 C   0  0  0  0  0  0  0  0  0  0  0  0
   -6.9630   20.7970  -32.5560 C   0  0  0  0  0  0  0  0  0  0  0  0
   -7.1950   22.0890  -32.0520 C   0  0  0  0  0  0  0  0  0  0  0  0
   -8.4870   22.4840  -31.6900 C   0  0  0  0  0  0  0  0  0  0  0  0
   -9.5570   21.5960  -31.8290 C   0  0  0  0  0  0  0  0  0  0  0  0
   -9.3360   20.3100  -32.3290 C   0  0  0  0  0  0  0  0  0  0  0  0
   -8.0460   19.9110  -32.6930 C   0  0  0  0  0  0  0  0  0  0  0  0
   -4.4800   21.0240  -32.5340 N   0  0  0  0  0  0  0  0  0  0  0  0
   -3.0530   22.8300  -30.4760 C   0  0  0  0  0  0  0  0  0  0  0  0
   -2.8870   24.1770  -30.0950 C   0  0  0  0  0  0  0  0  0  0  0  0
   -3.8030   25.1730  -30.4660 O   0  0  0  0  0  0  0  0  0  0  0  0
   -5.2180   25.0470  -30.3660 C   0  0  0  0  0  0  0  0  0  0  0  0
   -1.4409   26.0215  -26.9009 H   0  0  0  0  0  0  0  0  0  0  0  0
    0.0959   25.9388  -27.8271 H   0  0  0  0  0  0  0  0  0  0  0  0
   -0.8724   27.4517  -27.8271 H   0  0  0  0  0  0  0  0  0  0  0  0
    0.0314   23.8571  -28.3297 H   0  0  0  0  0  0  0  0  0  0  0  0
   -0.2759   21.4820  -29.0066 H   0  0  0  0  0  0  0  0  0  0  0  0
   -2.0236   19.7721  -29.6369 H   0  0  0  0  0  0  0  0  0  0  0  0
   -3.3790   20.2762  -30.7371 H   0  0  0  0  0  0  0  0  0  0  0  0
   -0.5320   20.3690  -31.5300 H   0  0  0  0  0  0  0  0  0  0  0  0
   -1.4900   18.9960  -31.7330 H   0  0  0  0  0  0  0  0  0  0  0  0
   -1.8814   21.6865  -32.9240 H   0  0  0  0  0  0  0  0  0  0  0  0
   -1.4872   20.1209  -33.7549 H   0  0  0  0  0  0  0  0  0  0  0  0
   -3.4802   18.5171  -34.4076 H   0  0  0  0  0  0  0  0  0  0  0  0
   -6.3565   22.7924  -31.9419 H   0  0  0  0  0  0  0  0  0  0  0  0
   -8.6612   23.4958  -31.2951 H   0  0  0  0  0  0  0  0  0  0  0  0
  -10.5725   21.9091  -31.5450 H   0  0  0  0  0  0  0  0  0  0  0  0
  -10.1780   19.6104  -32.4365 H   0  0  0  0  0  0  0  0  0  0  0  0
   -7.8778   18.8985  -33.0886 H   0  0  0  0  0  0  0  0  0  0  0  0
   -3.9224   22.5384  -31.0836 H   0  0  0  0  0  0  0  0  0  0  0  0
   -5.5098   25.0210  -29.3057 H   0  0  0  0  0  0  0  0  0  0  0  0
   -5.6983   25.9059  -30.8575 H   0  0  0  0  0  0  0  0  0  0  0  0
   -5.5389   24.1167  -30.8575 H   0  0  0  0  0  0  0  0  0  0  0  0
  1  2  1  0
  2  3  1  0
  3  4  2  0
  4  5  1  0
  5  6  2  0
  6  7  1  0
  7  8  1  0
  8  9  1  0
  9 10  1  0
 10 11  2  0
 11 12  1  0
 12 13  1  0
 13 14  1  0
 14 15  2  0
 15 16  1  0
 16 17  2  0
 17 18  1  0
 18 19  2  0
 13 20  2  0
  6 21  1  0
 21 22  2  0
 22 23  1  0
 23 24  1  0
 22  3  1  0
 20 10  1  0
 19 14  1  0
  1 25  1  0
  1 26  1  0
  1 27  1  0
  4 28  1  0
  5 29  1  0
  7 30  1  0
  7 31  1  0
  8 32  1  0
  8 33  1  0
  9 34  1  0
  9 35  1  0
 11 36  1  0
 15 37  1  0
 16 38  1  0
 17 39  1  0
 18 40  1  0
 19 41  1  0
 21 42  1  0
 24 43  1  0
 24 44  1  0
 24 45  1  0
M  CHG  1   8   1
M  END
>  <UniqueID>  (26) 
24

>  <SMILES>  (26) 
COc1ccc(C[NH2+]Cc2coc(-c3ccccc3)n2)cc1OC

>  <Energy>  (26) 
74.6707138394657

>  <Genealogy>  (26) 
COc1ccc(C[NH2+]Cc2coc(-c3ccccc3)n2)cc1OC (protonated)
COc1ccc(C[NH2+]Cc2coc(-c3ccccc3)n2)cc1OC (3D coordinates assigned)
COc1ccc(C[NH2+]Cc2coc(-c3ccccc3)n2)cc1OC (optimized conformer: 74.6707138394657 kcal/mol)

>  <smiles>  (26) 
COc1ccc(CNCc2coc(-c3ccccc3)n2)cc1OC

>  <score_type>  (26) 
oracle

>  <origin>  (26) 
adg

>  <m_score__min__energy>  (26) 
-7.5899999999999999

>  <m_primary>  (26) 
energy

$$$$
26:0
     RDKit          3D

 41 42  0  0  0  0  0  0  0  0999 V2000
   -8.0480   19.5380  -32.5320 C   0  0  0  0  0  0  0  0  0  0  0  0
   -6.6750   18.9870  -32.1500 C   0  0  0  0  0  0  0  0  0  0  0  0
   -6.0660   18.0800  -33.2310 C   0  0  0  0  0  0  0  0  0  0  0  0
   -5.6270   18.8400  -34.4870 C   0  0  0  0  0  0  0  0  0  0  0  0
   -4.2060   18.8450  -34.5860 O   0  0  0  0  0  0  0  0  0  0  0  0
   -3.3490   19.4840  -33.6790 C   0  0  0  0  0  0  0  0  0  0  0  0
   -3.2570   20.8800  -33.7210 C   0  0  0  0  0  0  0  0  0  0  0  0
   -2.4170   21.5660  -32.8390 C   0  0  0  0  0  0  0  0  0  0  0  0
   -1.6400   20.8560  -31.9060 C   0  0  0  0  0  0  0  0  0  0  0  0
   -0.7840   21.5200  -30.9660 N   0  0  0  0  0  0  0  0  0  0  0  0
   -0.9570   21.5660  -29.5440 C   0  0  0  0  0  0  0  0  0  0  0  0
   -0.8160   20.5280  -28.8440 O   0  0  0  0  0  0  0  0  0  0  0  0
   -1.3500   22.8520  -28.8870 C   0  0  0  0  0  0  0  0  0  0  0  0
   -2.6020   23.4080  -29.5270 C   0  0  0  0  0  0  0  0  0  0  0  0
   -3.6480   22.5640  -29.9770 C   0  0  0  0  0  0  0  0  0  0  0  0
   -3.5970   21.1730  -29.8570 O   0  0  0  0  0  0  0  0  0  0  0  0
   -4.7820   23.1270  -30.5710 C   0  0  0  0  0  0  0  0  0  0  0  0
   -4.8660   24.5080  -30.7340 C   0  0  0  0  0  0  0  0  0  0  0  0
   -5.8830   25.0220  -31.2690 O   0  0  0  0  0  0  0  0  0  0  0  0
   -3.8480   25.3040  -30.3200 N   0  0  0  0  0  0  0  0  0  0  0  0
   -2.7310   24.7980  -29.7330 C   0  0  0  0  0  0  0  0  0  0  0  0
   -1.7220   25.6720  -29.3450 O   0  0  0  0  0  0  0  0  0  0  0  0
   -1.7480   19.4620  -31.8470 C   0  0  0  0  0  0  0  0  0  0  0  0
   -2.5880   18.7760  -32.7300 C   0  0  0  0  0  0  0  0  0  0  0  0
   -8.6181   19.7668  -31.6195 H   0  0  0  0  0  0  0  0  0  0  0  0
   -7.9227   20.4555  -33.1257 H   0  0  0  0  0  0  0  0  0  0  0  0
   -8.5917   18.7884  -33.1257 H   0  0  0  0  0  0  0  0  0  0  0  0
   -5.9936   19.8334  -31.9789 H   0  0  0  0  0  0  0  0  0  0  0  0
   -6.8078   18.3750  -31.2457 H   0  0  0  0  0  0  0  0  0  0  0  0
   -5.1876   17.5724  -32.8059 H   0  0  0  0  0  0  0  0  0  0  0  0
   -6.8485   17.3704  -33.5379 H   0  0  0  0  0  0  0  0  0  0  0  0
   -6.0516   18.3499  -35.3755 H   0  0  0  0  0  0  0  0  0  0  0  0
   -5.9865   19.8776  -34.4233 H   0  0  0  0  0  0  0  0  0  0  0  0
   -3.8517   21.4430  -34.4554 H   0  0  0  0  0  0  0  0  0  0  0  0
   -2.3635   22.6641  -32.8747 H   0  0  0  0  0  0  0  0  0  0  0  0
   -1.5386   22.6706  -27.8186 H   0  0  0  0  0  0  0  0  0  0  0  0
   -0.5336   23.5792  -29.0078 H   0  0  0  0  0  0  0  0  0  0  0  0
   -2.7440   20.6370  -29.9200 H   0  0  0  0  0  0  0  0  0  0  0  0
   -5.6057   22.4809  -30.9087 H   0  0  0  0  0  0  0  0  0  0  0  0
   -1.1673   18.9011  -31.0998 H   0  0  0  0  0  0  0  0  0  0  0  0
   -2.6542   17.6790  -32.6827 H   0  0  0  0  0  0  0  0  0  0  0  0
  1  2  1  0
  2  3  1  0
  3  4  1  0
  4  5  1  0
  5  6  1  0
  6  7  2  0
  7  8  1  0
  8  9  2  0
  9 10  1  0
 10 11  1  0
 11 12  2  0
 11 13  1  0
 13 14  1  0
 14 15  1  0
 15 16  1  0
 15 17  2  0
 17 18  1  0
 18 19  2  0
 18 20  1  0
 20 21  1  0
 21 22  1  0
  9 23  1  0
 23 24  2  0
 24  6  1  0
 21 14  2  0
  1 25  1  0
  1 26  1  0
  1 27  1  0
  2 28  1  0
  2 29  1  0
  3 30  1  0
  3 31  1  0
  4 32  1  0
  4 33  1  0
  7 34  1  0
  8 35  1  0
 13 36  1  0
 13 37  1  0
 16 38  1  0
 17 39  1  0
 23 40  1  0
 24 41  1  0
M  CHG  3  10  -1  20  -1  22  -1
M  END
>  <UniqueID>  (27) 
25

>  <SMILES>  (27) 
CCCCOc1ccc([N-]C(=O)Cc2c(O)cc(=O)[n-]c2[O-])cc1

>  <Energy>  (27) 
40.3484413601001

>  <Genealogy>  (27) 
CCCCOc1ccc([N-]C(=O)Cc2c(O)cc(=O)[n-]c2[O-])cc1 (protonated)
CCCCOc1ccc([N-]C(=O)Cc2c(O)cc(=O)[n-]c2[O-])cc1 (3D coordinates assigned)
CCCCOc1ccc([N-]C(=O)Cc2c(O)cc(=O)[n-]c2[O-])cc1 (optimized conformer: 40.3484413601001 kcal/mol)

>  <smiles>  (27) 
CCCCOc1ccc(NC(=O)Cc2c(O)cc(=O)[nH]c2O)cc1

>  <score_type>  (27) 
oracle

>  <origin>  (27) 
adg

>  <m_score__min__energy>  (27) 
-11.5

>  <m_primary>  (27) 
energy

$$$$
27:0
     RDKit          3D

 31 32  0  0  0  0  0  0  0  0999 V2000
   -6.0147   17.3712  -35.5441 H   0  0  0  0  0  0  0  0  0  0  0  0
   -5.9580   17.8960  -34.5790 C   0  0  0  0  0  0  0  0  0  0  0  0
   -6.0520   19.2490  -34.4790 N   0  0  0  0  0  0  0  0  0  0  0  0
   -5.9600   19.6670  -33.2000 C   0  0  0  0  0  0  0  0  0  0  0  0
   -6.0090   20.9290  -32.8840 N   0  0  0  0  0  0  0  0  0  0  0  0
   -6.9320   21.5920  -32.0010 C   0  0  0  0  0  0  0  0  0  0  0  0
   -8.1700   21.7700  -32.3540 N   0  0  0  0  0  0  0  0  0  0  0  0
   -9.2990   21.0460  -31.7730 C   0  0  0  0  0  0  0  0  0  0  0  0
  -10.2184   21.6333  -31.9138 H   0  0  0  0  0  0  0  0  0  0  0  0
   -9.1123   20.8917  -30.7000 H   0  0  0  0  0  0  0  0  0  0  0  0
   -9.4600   19.6850  -32.4520 C   0  0  0  0  0  0  0  0  0  0  0  0
   -8.8970   19.6905  -33.3970 H   0  0  0  0  0  0  0  0  0  0  0  0
  -10.5327   19.5181  -32.6297 H   0  0  0  0  0  0  0  0  0  0  0  0
   -8.9430   18.5450  -31.5760 C   0  0  0  0  0  0  0  0  0  0  0  0
   -9.0645   18.8130  -30.5161 H   0  0  0  0  0  0  0  0  0  0  0  0
   -9.5141   17.6297  -31.7906 H   0  0  0  0  0  0  0  0  0  0  0  0
   -7.8782   18.3716  -31.7906 H   0  0  0  0  0  0  0  0  0  0  0  0
   -6.4430   22.2110  -30.7980 N   0  0  0  0  0  0  0  0  0  0  0  0
   -5.6240   23.2220  -30.6860 C   0  0  0  0  0  0  0  0  0  0  0  0
   -4.2550   22.9550  -30.5570 C   0  0  0  0  0  0  0  0  0  0  0  0
   -3.8955   21.9155  -30.5455 H   0  0  0  0  0  0  0  0  0  0  0  0
   -3.3470   24.0100  -30.4430 C   0  0  0  0  0  0  0  0  0  0  0  0
   -2.2732   23.8004  -30.3288 H   0  0  0  0  0  0  0  0  0  0  0  0
   -3.7880   25.2950  -30.4730 N   0  0  0  0  0  0  0  0  0  0  0  0
   -5.1050   25.5910  -30.6190 C   0  0  0  0  0  0  0  0  0  0  0  0
   -5.4304   26.6414  -30.6469 H   0  0  0  0  0  0  0  0  0  0  0  0
   -6.0490   24.5670  -30.7340 C   0  0  0  0  0  0  0  0  0  0  0  0
   -7.1149   24.8074  -30.8609 H   0  0  0  0  0  0  0  0  0  0  0  0
   -5.7490   18.3670  -32.1420 S   0  0  0  0  0  0  0  0  0  0  0  0
   -5.7850   17.2230  -33.3740 C   0  0  0  0  0  0  0  0  0  0  0  0
   -5.6887   16.1344  -33.2490 H   0  0  0  0  0  0  0  0  0  0  0  0
  1  2  1  0
  2  3  1  0
  3  4  1  0
  4  5  2  0
  5  6  1  0
  6  7  2  0
  7  8  1  0
  8  9  1  0
  8 10  1  0
  8 11  1  0
 11 12  1  0
 11 13  1  0
 11 14  1  0
 14 15  1  0
 14 16  1  0
 14 17  1  0
  6 18  1  0
 18 19  2  3
 19 20  1  0
 20 21  1  0
 20 22  2  0
 22 23  1  0
 22 24  1  0
 24 25  1  0
 25 26  1  0
 25 27  2  0
 27 28  1  0
  4 29  1  0
 29 30  1  0
 30 31  1  0
 30  2  2  0
 27 19  1  0
M  CHG  2   3  -1  24  -1
M  END
>  <UniqueID>  (28) 
26

>  <SMILES>  (28) 
CCCN=C(N=c1cc[n-]cc1)/N=c1/[n-]ccs1

>  <Energy>  (28) 
67.19514314733081

>  <Genealogy>  (28) 
CCCN=C(N=c1cc[n-]cc1)N=c1[n-]ccs1 (protonated)
CCCN=C(N=c1cc[n-]cc1)/N=c1/[n-]ccs1 (cis-trans isomerization)
CCCN=C(N=c1cc[n-]cc1)/N=c1/[n-]ccs1 (3D coordinates assigned)
CCCN=C(N=c1cc[n-]cc1)/N=c1/[n-]ccs1 (optimized conformer: 67.19514314733081 kcal/mol)

>  <smiles>  (28) 
CCCN=C(N=c1cc[nH]cc1)N=c1[nH]ccs1

>  <score_type>  (28) 
oracle

>  <origin>  (28) 
adg

>  <m_score__min__energy>  (28) 
-7.9000000000000004

>  <m_primary>  (28) 
energy

$$$$
28:0
     RDKit          3D

 49 51  0  0  0  0  0  0  0  0999 V2000
   -3.5690   24.2670  -29.5560 C   0  0  0  0  0  0  0  0  0  0  0  0
   -3.8600   25.2990  -30.4740 O   0  0  0  0  0  0  0  0  0  0  0  0
   -5.2480   25.5860  -30.4780 C   0  0  0  0  0  0  0  0  0  0  0  0
   -6.0730   24.2950  -30.5450 C   0  0  0  0  0  0  0  0  0  0  0  0
   -6.2600   23.7550  -31.9730 C   0  0  0  0  0  0  0  0  0  0  0  0
   -6.2400   22.2860  -32.0290 N   0  0  0  0  0  0  0  0  0  0  0  0
   -5.1570   21.4620  -31.9990 C   0  0  0  0  0  0  0  0  0  0  0  0
   -3.4520   22.0260  -31.8990 S   0  0  0  0  0  0  0  0  0  0  0  0
   -2.9200   21.2230  -33.4500 C   0  0  0  0  0  0  0  0  0  0  0  0
   -2.1560   19.9330  -33.1510 C   0  0  0  0  0  0  0  0  0  0  0  0
   -2.5460   18.9010  -34.0570 O   0  0  0  0  0  0  0  0  0  0  0  0
   -3.7120   18.1250  -33.9530 C   0  0  0  0  0  0  0  0  0  0  0  0
   -4.9260   18.4840  -34.5730 C   0  0  0  0  0  0  0  0  0  0  0  0
   -6.0550   17.6740  -34.4320 C   0  0  0  0  0  0  0  0  0  0  0  0
   -5.9890   16.5010  -33.6780 C   0  0  0  0  0  0  0  0  0  0  0  0
   -4.7930   16.1390  -33.0400 C   0  0  0  0  0  0  0  0  0  0  0  0
   -4.7090   14.8600  -32.2610 C   0  0  0  0  0  0  0  0  0  0  0  0
   -3.6570   16.9500  -33.1920 C   0  0  0  0  0  0  0  0  0  0  0  0
   -5.4790   20.1430  -31.9860 N   0  0  0  0  0  0  0  0  0  0  0  0
   -6.8230   20.1600  -32.0120 C   0  0  0  0  0  0  0  0  0  0  0  0
   -7.6810   19.0620  -31.9940 C   0  0  0  0  0  0  0  0  0  0  0  0
   -9.0650   19.3140  -31.9730 C   0  0  0  0  0  0  0  0  0  0  0  0
   -9.5500   20.6400  -31.9570 C   0  0  0  0  0  0  0  0  0  0  0  0
   -8.6560   21.7270  -31.9710 C   0  0  0  0  0  0  0  0  0  0  0  0
   -7.2880   21.4430  -32.0190 C   0  0  0  0  0  0  0  0  0  0  0  0
   -3.6765   24.6481  -28.5297 H   0  0  0  0  0  0  0  0  0  0  0  0
   -4.2663   23.4306  -29.7114 H   0  0  0  0  0  0  0  0  0  0  0  0
   -2.5374   23.9181  -29.7114 H   0  0  0  0  0  0  0  0  0  0  0  0
   -5.5058   26.1309  -29.5579 H   0  0  0  0  0  0  0  0  0  0  0  0
   -5.4783   26.1969  -31.3633 H   0  0  0  0  0  0  0  0  0  0  0  0
   -5.5633   23.5255  -29.9466 H   0  0  0  0  0  0  0  0  0  0  0  0
   -7.0745   24.5327  -30.1571 H   0  0  0  0  0  0  0  0  0  0  0  0
   -7.2269   24.1092  -32.3598 H   0  0  0  0  0  0  0  0  0  0  0  0
   -5.4205   24.1231  -32.5810 H   0  0  0  0  0  0  0  0  0  0  0  0
   -3.8060   20.9863  -34.0574 H   0  0  0  0  0  0  0  0  0  0  0  0
   -2.2574   21.9100  -33.9969 H   0  0  0  0  0  0  0  0  0  0  0  0
   -1.0769   20.1185  -33.2560 H   0  0  0  0  0  0  0  0  0  0  0  0
   -2.3868   19.6120  -32.1245 H   0  0  0  0  0  0  0  0  0  0  0  0
   -4.9844   19.4059  -35.1703 H   0  0  0  0  0  0  0  0  0  0  0  0
   -6.9996   17.9614  -34.9168 H   0  0  0  0  0  0  0  0  0  0  0  0
   -6.8771   15.8588  -33.5838 H   0  0  0  0  0  0  0  0  0  0  0  0
   -4.7238   15.0848  -31.1843 H   0  0  0  0  0  0  0  0  0  0  0  0
   -5.5670   14.2197  -32.5137 H   0  0  0  0  0  0  0  0  0  0  0  0
   -3.7746   14.3375  -32.5137 H   0  0  0  0  0  0  0  0  0  0  0  0
   -2.7129   16.6595  -32.7080 H   0  0  0  0  0  0  0  0  0  0  0  0
   -7.2897   18.0339  -31.9961 H   0  0  0  0  0  0  0  0  0  0  0  0
   -9.7737   18.4727  -31.9690 H   0  0  0  0  0  0  0  0  0  0  0  0
  -10.6341   20.8248  -31.9334 H   0  0  0  0  0  0  0  0  0  0  0  0
   -9.0211   22.7643  -31.9451 H   0  0  0  0  0  0  0  0  0  0  0  0
  1  2  1  0
  2  3  1  0
  3  4  1  0
  4  5  1  0
  5  6  1  0
  6  7  1  0
  7  8  1  0
  8  9  1  0
  9 10  1  0
 10 11  1  0
 11 12  1  0
 12 13  2  0
 13 14  1  0
 14 15  2  0
 15 16  1  0
 16 17  1  0
 16 18  2  0
  7 19  2  0
 19 20  1  0
 20 21  2  0
 21 22  1  0
 22 23  2  0
 23 24  1  0
 24 25  2  0
 25  6  1  0
 18 12  1  0
 25 20  1  0
  1 26  1  0
  1 27  1  0
  1 28  1  0
  3 29  1  0
  3 30  1  0
  4 31  1  0
  4 32  1  0
  5 33  1  0
  5 34  1  0
  9 35  1  0
  9 36  1  0
 10 37  1  0
 10 38  1  0
 13 39  1  0
 14 40  1  0
 15 41  1  0
 17 42  1  0
 17 43  1  0
 17 44  1  0
 18 45  1  0
 21 46  1  0
 22 47  1  0
 23 48  1  0
 24 49  1  0
M  END
>  <UniqueID>  (29) 
27

>  <SMILES>  (29) 
COCCCn1c(SCCOc2cccc(C)c2)nc2ccccc21

>  <Energy>  (29) 
78.74899521638785

>  <Genealogy>  (29) 
COCCCn1c(SCCOc2cccc(C)c2)nc2ccccc21 (3D coordinates assigned)
COCCCn1c(SCCOc2cccc(C)c2)nc2ccccc21 (optimized conformer: 78.74899521638785 kcal/mol)

>  <smiles>  (29) 
COCCCn1c(SCCOc2cccc(C)c2)nc2ccccc21

>  <score_type>  (29) 
oracle

>  <origin>  (29) 
adg

>  <m_score__min__energy>  (29) 
-8.3100000000000005

>  <m_primary>  (29) 
energy

$$$$
29:0
     RDKit          3D

 40 41  0  0  0  0  0  0  0  0999 V2000
   -6.1249   20.6986  -33.1956 H   0  0  0  0  0  0  0  0  0  0  0  0
   -5.3820   21.2620  -32.6120 C   0  0  0  0  0  0  0  0  0  0  0  0
   -5.7330   22.5810  -32.3380 C   0  0  0  0  0  0  0  0  0  0  0  0
   -6.7029   22.9199  -32.7310 H   0  0  0  0  0  0  0  0  0  0  0  0
   -5.0000   23.5120  -31.6280 C   0  0  0  0  0  0  0  0  0  0  0  0
   -5.4240   24.7820  -31.4350 N   0  0  0  0  0  0  0  0  0  0  0  0
   -4.5000   25.3650  -30.7270 O   0  0  0  0  0  0  0  0  0  0  0  0
   -3.5170   24.5650  -30.4500 N   0  0  0  0  0  0  0  0  0  0  0  0
   -2.4080   24.9120  -29.7150 O   0  0  0  0  0  0  0  0  0  0  0  0
   -3.7840   23.3700  -31.0010 C   0  0  0  0  0  0  0  0  0  0  0  0
   -2.9570   22.2640  -30.9010 C   0  0  0  0  0  0  0  0  0  0  0  0
   -2.0354   22.3937  -30.3146 H   0  0  0  0  0  0  0  0  0  0  0  0
   -3.1630   21.0050  -31.4610 C   0  0  0  0  0  0  0  0  0  0  0  0
   -2.3774   20.2650  -31.2480 H   0  0  0  0  0  0  0  0  0  0  0  0
   -4.2310   20.5340  -32.2630 C   0  0  0  0  0  0  0  0  0  0  0  0
   -4.1980   19.3170  -32.7430 N   0  0  0  0  0  0  0  0  0  0  0  0
   -4.5220   18.8330  -34.0880 C   0  0  0  0  0  0  0  0  0  0  0  0
   -4.1957   17.7863  -34.1774 H   0  0  0  0  0  0  0  0  0  0  0  0
   -4.0023   19.4741  -34.8152 H   0  0  0  0  0  0  0  0  0  0  0  0
   -6.0320   18.9100  -34.3780 C   0  0  0  0  0  0  0  0  0  0  0  0
   -6.1997   18.6565  -35.4352 H   0  0  0  0  0  0  0  0  0  0  0  0
   -6.3609   19.9335  -34.1452 H   0  0  0  0  0  0  0  0  0  0  0  0
   -6.8590   17.9500  -33.5060 C   0  0  0  0  0  0  0  0  0  0  0  0
   -6.3034   17.0088  -33.3815 H   0  0  0  0  0  0  0  0  0  0  0  0
   -7.8223   17.7671  -34.0045 H   0  0  0  0  0  0  0  0  0  0  0  0
   -7.1240   18.5370  -32.1690 N   0  0  0  0  0  0  0  0  0  0  0  0
   -6.4300   17.7720  -31.1070 C   0  0  0  0  0  0  0  0  0  0  0  0
   -7.1645   17.4484  -30.3548 H   0  0  0  0  0  0  0  0  0  0  0  0
   -5.6705   18.4172  -30.6413 H   0  0  0  0  0  0  0  0  0  0  0  0
   -5.7410   16.5440  -31.6980 C   0  0  0  0  0  0  0  0  0  0  0  0
   -5.3792   15.8991  -30.8836 H   0  0  0  0  0  0  0  0  0  0  0  0
   -6.4570   15.9847  -32.3180 H   0  0  0  0  0  0  0  0  0  0  0  0
   -4.8905   16.8636  -32.3180 H   0  0  0  0  0  0  0  0  0  0  0  0
   -8.5790   18.6150  -31.9010 C   0  0  0  0  0  0  0  0  0  0  0  0
   -9.0917   17.8088  -32.4461 H   0  0  0  0  0  0  0  0  0  0  0  0
   -8.7489   18.5075  -30.8195 H   0  0  0  0  0  0  0  0  0  0  0  0
   -9.1330   19.9630  -32.3580 C   0  0  0  0  0  0  0  0  0  0  0  0
   -9.3840   20.5736  -31.4781 H   0  0  0  0  0  0  0  0  0  0  0  0
   -8.3763   20.4845  -32.9625 H   0  0  0  0  0  0  0  0  0  0  0  0
  -10.0377   19.8017  -32.9625 H   0  0  0  0  0  0  0  0  0  0  0  0
  1  2  1  0
  2  3  2  0
  3  4  1  0
  3  5  1  0
  5  6  2  0
  6  7  1  0
  7  8  1  0
  8  9  1  0
  8 10  2  0
 10 11  1  0
 11 12  1  0
 11 13  2  0
 13 14  1  0
 13 15  1  0
 15 16  2  0
 16 17  1  0
 17 18  1  0
 17 19  1  0
 17 20  1  0
 20 21  1  0
 20 22  1  0
 20 23  1  0
 23 24  1  0
 23 25  1  0
 23 26  1  0
 26 27  1  0
 27 28  1  0
 27 29  1  0
 27 30  1  0
 30 31  1  0
 30 32  1  0
 30 33  1  0
 26 34  1  0
 34 35  1  0
 34 36  1  0
 34 37  1  0
 37 38  1  0
 37 39  1  0
 37 40  1  0
 15  2  1  0
 10  5  1  0
M  CHG  2   8   1   9  -1
M  END
>  <UniqueID>  (30) 
28

>  <SMILES>  (30) 
CCN(CC)CCC/N=c1/ccc2no[n+]([O-])c2cc1

>  <Energy>  (30) 
88.45980448363993

>  <Genealogy>  (30) 
CCN(CC)CCC/N=c1/ccc2no[n+]([O-])c2cc1 (cis-trans isomerization)
CCN(CC)CCC/N=c1/ccc2no[n+]([O-])c2cc1 (3D coordinates assigned)
CCN(CC)CCC/N=c1/ccc2no[n+]([O-])c2cc1 (optimized conformer: 88.45980448363993 kcal/mol)

>  <smiles>  (30) 
CCN(CC)CCCN=c1ccc2no[n+]([O-])c2cc1

>  <score_type>  (30) 
oracle

>  <origin>  (30) 
adg

>  <m_score__min__energy>  (30) 
-8.2100000000000009

>  <m_primary>  (30) 
energy

$$$$
30:0
     RDKit          3D

 43 45  0  0  0  0  0  0  0  0999 V2000
   -9.2410   21.5790  -30.9480 C   0  0  0  0  0  0  0  0  0  0  0  0
   -7.8550   21.8280  -31.3880 N   0  0  0  0  0  0  0  0  0  0  0  0
   -7.5310   23.2760  -31.3630 C   0  0  0  0  0  0  0  0  0  0  0  0
   -6.1730   23.6070  -30.7710 C   0  0  0  0  0  0  0  0  0  0  0  0
   -5.6250   22.8290  -29.7400 C   0  0  0  0  0  0  0  0  0  0  0  0
   -4.3790   23.1550  -29.2010 C   0  0  0  0  0  0  0  0  0  0  0  0
   -3.6950   24.2700  -29.6880 C   0  0  0  0  0  0  0  0  0  0  0  0
   -4.2440   25.0290  -30.6710 N   0  0  0  0  0  0  0  0  0  0  0  0
   -5.4540   24.7300  -31.2140 C   0  0  0  0  0  0  0  0  0  0  0  0
   -7.5730   21.1430  -32.6740 C   0  0  0  0  0  0  0  0  0  0  0  0
   -6.7450   19.8270  -32.5300 C   0  0  1  0  0  0  0  0  0  0  0  0
   -5.5200   19.9870  -31.5790 C   0  0  0  0  0  0  0  0  0  0  0  0
   -4.3320   20.5320  -32.2410 N   0  0  0  0  0  0  0  0  0  0  0  0
   -3.1840   19.8860  -32.5060 C   0  0  0  0  0  0  0  0  0  0  0  0
   -2.3780   20.7330  -33.2310 C   0  0  0  0  0  0  0  0  0  0  0  0
   -3.0230   21.8960  -33.4480 N   0  0  0  0  0  0  0  0  0  0  0  0
   -4.2160   21.7340  -32.8370 C   0  0  0  0  0  0  0  0  0  0  0  0
   -7.6860   18.6900  -32.0830 C   0  0  0  0  0  0  0  0  0  0  0  0
   -7.0590   17.3670  -32.4760 C   0  0  0  0  0  0  0  0  0  0  0  0
   -6.5130   17.5320  -33.8820 C   0  0  0  0  0  0  0  0  0  0  0  0
   -6.1020   19.2850  -34.1590 S   0  0  0  0  0  0  0  0  0  0  0  0
   -9.2810   21.5718  -29.8488 H   0  0  0  0  0  0  0  0  0  0  0  0
   -9.8965   22.3738  -31.3336 H   0  0  0  0  0  0  0  0  0  0  0  0
   -9.5789   20.6058  -31.3336 H   0  0  0  0  0  0  0  0  0  0  0  0
   -7.5560   23.6516  -32.3966 H   0  0  0  0  0  0  0  0  0  0  0  0
   -8.2800   23.7530  -30.7138 H   0  0  0  0  0  0  0  0  0  0  0  0
   -6.1786   21.9598  -29.3553 H   0  0  0  0  0  0  0  0  0  0  0  0
   -3.9411   22.5398  -28.4012 H   0  0  0  0  0  0  0  0  0  0  0  0
   -2.7102   24.5341  -29.2751 H   0  0  0  0  0  0  0  0  0  0  0  0
   -5.8723   25.3706  -32.0043 H   0  0  0  0  0  0  0  0  0  0  0  0
   -8.5329   20.8962  -33.1511 H   0  0  0  0  0  0  0  0  0  0  0  0
   -6.9644   21.8354  -33.2742 H   0  0  0  0  0  0  0  0  0  0  0  0
   -5.8023   20.6634  -30.7587 H   0  0  0  0  0  0  0  0  0  0  0  0
   -5.2567   18.9813  -31.2195 H   0  0  0  0  0  0  0  0  0  0  0  0
   -2.9328   18.8604  -32.1976 H   0  0  0  0  0  0  0  0  0  0  0  0
   -1.3620   20.4969  -33.5803 H   0  0  0  0  0  0  0  0  0  0  0  0
   -5.0060   22.4994  -32.8271 H   0  0  0  0  0  0  0  0  0  0  0  0
   -7.8215   18.7273  -30.9920 H   0  0  0  0  0  0  0  0  0  0  0  0
   -8.6682   18.8007  -32.5658 H   0  0  0  0  0  0  0  0  0  0  0  0
   -6.2438   17.1149  -31.7819 H   0  0  0  0  0  0  0  0  0  0  0  0
   -7.8005   16.5554  -32.4368 H   0  0  0  0  0  0  0  0  0  0  0  0
   -5.6079   16.9182  -34.0002 H   0  0  0  0  0  0  0  0  0  0  0  0
   -7.2680   17.2080  -34.6135 H   0  0  0  0  0  0  0  0  0  0  0  0
  1  2  1  0
  2  3  1  0
  3  4  1  0
  4  5  2  0
  5  6  1  0
  6  7  2  0
  7  8  1  0
  8  9  2  0
  2 10  1  0
 11 10  1  6
 11 12  1  0
 12 13  1  0
 13 14  1  0
 14 15  2  0
 15 16  1  0
 16 17  2  0
 11 18  1  0
 18 19  1  0
 19 20  1  0
 20 21  1  0
  9  4  1  0
 21 11  1  0
 17 13  1  0
  1 22  1  0
  1 23  1  0
  1 24  1  0
  3 25  1  0
  3 26  1  0
  5 27  1  0
  6 28  1  0
  7 29  1  0
  9 30  1  0
 10 31  1  0
 10 32  1  0
 12 33  1  0
 12 34  1  0
 14 35  1  0
 15 36  1  0
 17 37  1  0
 18 38  1  0
 18 39  1  0
 19 40  1  0
 19 41  1  0
 20 42  1  0
 20 43  1  0
M  END
>  <UniqueID>  (31) 
29

>  <SMILES>  (31) 
CN(Cc1cccnc1)C[C@@]1(Cn2ccnc2)CCCS1

>  <Energy>  (31) 
76.98682457072971

>  <Genealogy>  (31) 
CN(Cc1cccnc1)C[C@@]1(Cn2ccnc2)CCCS1 (chirality)
CN(Cc1cccnc1)C[C@@]1(Cn2ccnc2)CCCS1 (3D coordinates assigned)
CN(Cc1cccnc1)C[C@@]1(Cn2ccnc2)CCCS1 (nonaromatic ring conformer: 76.98682457072971 kcal/mol)

>  <smiles>  (31) 
CN(Cc1cccnc1)CC1(Cn2ccnc2)CCCS1

>  <score_type>  (31) 
oracle

>  <origin>  (31) 
adg

>  <m_score__min__energy>  (31) 
-7.4699999999999998

>  <m_primary>  (31) 
energy

$$$$
31:0
     RDKit          3D

 50 54  0  0  1  0  0  0  0  0999 V2000
    0.4300   18.4910  -33.2950 C   0  0  0  0  0  0  0  0  0  0  0  0
    0.0050   19.5680  -32.3750 C   0  0  0  0  0  0  0  0  0  0  0  0
    0.2610   19.5600  -31.0220 C   0  0  0  0  0  0  0  0  0  0  0  0
   -0.1670   20.6000  -30.2240 C   0  0  0  0  0  0  0  0  0  0  0  0
   -0.8550   21.6760  -30.7270 C   0  0  0  0  0  0  0  0  0  0  0  0
   -1.3340   22.8000  -29.9520 C   0  0  0  0  0  0  0  0  0  0  0  0
   -0.5470   23.2380  -28.9070 C   0  0  0  0  0  0  0  0  0  0  0  0
   -0.9130   24.3130  -28.0980 C   0  0  0  0  0  0  0  0  0  0  0  0
   -2.1020   24.9440  -28.3630 C   0  0  0  0  0  0  0  0  0  0  0  0
   -2.8670   24.5060  -29.3920 N   0  0  0  0  0  0  0  0  0  0  0  0
   -4.0330   25.0000  -29.7800 N   0  0  0  0  0  0  0  0  0  0  0  0
   -4.4060   24.2460  -30.8290 C   0  0  0  0  0  0  0  0  0  0  0  0
   -5.4820   24.4070  -31.4880 N   0  0  0  0  0  0  0  0  0  0  0  0
   -6.3680   23.3010  -31.7380 C   0  0  0  0  0  0  0  0  0  0  0  0
   -7.7110   23.3960  -31.3650 C   0  0  0  0  0  0  0  0  0  0  0  0
   -8.5800   22.3290  -31.6040 C   0  0  0  0  0  0  0  0  0  0  0  0
   -8.0710   21.1900  -32.2140 C   0  0  0  0  0  0  0  0  0  0  0  0
   -6.7470   21.0780  -32.5910 C   0  0  0  0  0  0  0  0  0  0  0  0
   -5.8950   22.1530  -32.3440 C   0  0  0  0  0  0  0  0  0  0  0  0
   -6.0490   19.9450  -33.2470 C   0  0  0  0  0  0  0  0  0  0  0  0
   -6.3960   18.7000  -32.4500 C   0  0  0  0  0  0  0  0  0  0  0  0
   -7.7370   18.2630  -32.7560 N   0  0  0  0  0  0  0  0  0  0  0  0
   -8.7020   18.8270  -31.8120 C   0  0  0  0  0  0  0  0  0  0  0  0
   -9.1520   20.1550  -32.3880 C   0  0  0  0  0  0  0  0  0  0  0  0
   -3.4850   23.3030  -31.0830 N   0  0  0  0  0  0  0  0  0  0  0  0
   -2.5120   23.4680  -30.1730 C   0  0  0  0  0  0  0  0  0  0  0  0
   -1.1000   21.6730  -32.0540 N   0  0  0  0  0  0  0  0  0  0  0  0
   -0.6910   20.6600  -32.8660 C   0  0  0  0  0  0  0  0  0  0  0  0
    0.7722   17.6238  -32.7111 H   0  0  0  0  0  0  0  0  0  0  0  0
   -0.4185   18.1944  -33.9291 H   0  0  0  0  0  0  0  0  0  0  0  0
    1.2524   18.8537  -33.9291 H   0  0  0  0  0  0  0  0  0  0  0  0
    0.8105   18.7185  -30.5748 H   0  0  0  0  0  0  0  0  0  0  0  0
    0.0506   20.5661  -29.1463 H   0  0  0  0  0  0  0  0  0  0  0  0
    0.4026   22.7210  -28.7049 H   0  0  0  0  0  0  0  0  0  0  0  0
   -0.2675   24.6453  -27.2717 H   0  0  0  0  0  0  0  0  0  0  0  0
   -2.4302   25.7948  -27.7478 H   0  0  0  0  0  0  0  0  0  0  0  0
   -4.5800   25.8070  -29.3790 H   0  0  0  0  0  0  0  0  0  0  0  0
   -8.0842   24.3116  -30.8829 H   0  0  0  0  0  0  0  0  0  0  0  0
   -9.6401   22.3893  -31.3165 H   0  0  0  0  0  0  0  0  0  0  0  0
   -4.8361   22.0868  -32.6343 H   0  0  0  0  0  0  0  0  0  0  0  0
   -6.3930   19.8381  -34.2864 H   0  0  0  0  0  0  0  0  0  0  0  0
   -4.9617   20.1099  -33.2708 H   0  0  0  0  0  0  0  0  0  0  0  0
   -5.6870   17.8982  -32.7037 H   0  0  0  0  0  0  0  0  0  0  0  0
   -6.3338   18.9349  -31.3772 H   0  0  0  0  0  0  0  0  0  0  0  0
   -7.7770   17.2320  -32.6430 H   0  0  0  0  0  0  0  0  0  0  0  0
   -9.5627   18.1511  -31.7009 H   0  0  0  0  0  0  0  0  0  0  0  0
   -8.2505   18.9603  -30.8178 H   0  0  0  0  0  0  0  0  0  0  0  0
   -9.3682   20.0319  -33.4595 H   0  0  0  0  0  0  0  0  0  0  0  0
  -10.0568   20.4881  -31.8585 H   0  0  0  0  0  0  0  0  0  0  0  0
   -0.9194   20.7101  -33.9409 H   0  0  0  0  0  0  0  0  0  0  0  0
  1  2  1  0
  2  3  2  0
  3  4  1  0
  4  5  2  0
  5  6  1  0
  6  7  2  0
  7  8  1  0
  8  9  2  0
  9 10  1  0
 10 11  1  0
 11 12  1  0
 12 13  2  0
 13 14  1  0
 14 15  2  0
 15 16  1  0
 16 17  2  0
 17 18  1  0
 18 19  2  0
 18 20  1  0
 20 21  1  0
 21 22  1  0
 22 23  1  0
 23 24  1  0
 12 25  1  0
 25 26  2  0
  5 27  1  0
 27 28  2  0
 28  2  1  0
 26  6  1  0
 26 10  1  0
 19 14  1  0
 24 17  1  0
  1 29  1  0
  1 30  1  0
  1 31  1  0
  3 32  1  0
  4 33  1  0
  7 34  1  0
  8 35  1  0
  9 36  1  0
 11 37  1  0
 15 38  1  0
 16 39  1  0
 19 40  1  0
 20 41  1  0
 20 42  1  0
 21 43  1  0
 21 44  1  0
 22 45  1  0
 23 46  1  0
 23 47  1  0
 24 48  1  0
 24 49  1  0
 28 50  1  0
M  END
>  <smiles>  (32) 
Cc1ccc(-c2cccn3[nH]c(=Nc4ccc5c(c4)CCNCC5)nc23)nc1

>  <score_type>  (32) 
oracle

>  <origin>  (32) 
adg

>  <m_score__min__energy>  (32) 
-8.6500000000000004

>  <m_primary>  (32) 
energy

$$$$
32:0
     RDKit          3D

 57 60  0  0  0  0  0  0  0  0999 V2000
   -0.4340   26.1930  -23.7410 C   0  0  0  0  0  0  0  0  0  0  0  0
    0.7700   25.4210  -24.1000 N   0  0  0  0  0  0  0  0  0  0  0  0
    1.9760   26.2260  -23.8420 C   0  0  0  0  0  0  0  0  0  0  0  0
    0.7330   24.9990  -25.5180 C   0  0  0  0  0  0  0  0  0  0  0  0
    0.5580   23.5340  -25.6330 N   0  0  0  0  0  0  0  0  0  0  0  0
   -0.4990   23.0490  -24.7090 C   0  0  0  0  0  0  0  0  0  0  0  0
   -0.7240   22.9760  -26.1620 C   0  0  2  0  0  0  0  0  0  0  0  0
   -0.5190   21.6140  -26.7730 C   0  0  0  0  0  0  0  0  0  0  0  0
   -1.3600   20.5360  -26.4520 C   0  0  0  0  0  0  0  0  0  0  0  0
   -1.1540   19.3000  -27.0660 C   0  0  0  0  0  0  0  0  0  0  0  0
   -0.1170   19.1450  -27.9860 C   0  0  0  0  0  0  0  0  0  0  0  0
    0.7060   20.2350  -28.2780 C   0  0  0  0  0  0  0  0  0  0  0  0
    0.4880   21.4320  -27.6720 N   0  0  0  0  0  0  0  0  0  0  0  0
   -1.8180   23.9190  -26.7740 C   0  0  0  0  0  0  0  0  0  0  0  0
   -1.2240   24.8920  -27.8290 C   0  0  0  0  0  0  0  0  0  0  0  0
   -1.4690   24.4020  -29.2620 C   0  0  0  0  0  0  0  0  0  0  0  0
   -2.9170   24.2980  -29.5710 N   0  0  0  0  0  0  0  0  0  0  0  0
   -3.1290   23.4200  -30.7420 C   0  0  0  0  0  0  0  0  0  0  0  0
   -4.5980   23.1580  -30.9460 C   0  0  0  0  0  0  0  0  0  0  0  0
   -5.5190   24.2170  -30.9660 C   0  0  0  0  0  0  0  0  0  0  0  0
   -6.8810   23.9650  -31.1670 C   0  0  0  0  0  0  0  0  0  0  0  0
   -7.3310   22.6520  -31.3450 C   0  0  0  0  0  0  0  0  0  0  0  0
   -9.0390   22.3370  -31.5920 Cl  0  0  0  0  0  0  0  0  0  0  0  0
   -6.4190   21.5920  -31.3290 C   0  0  0  0  0  0  0  0  0  0  0  0
   -5.0570   21.8430  -31.1320 C   0  0  0  0  0  0  0  0  0  0  0  0
   -3.7570   23.8930  -28.4110 C   0  0  0  0  0  0  0  0  0  0  0  0
   -2.9740   23.0800  -27.3720 C   0  0  0  0  0  0  0  0  0  0  0  0
   -0.5208   26.2487  -22.6458 H   0  0  0  0  0  0  0  0  0  0  0  0
   -0.3549   27.2092  -24.1547 H   0  0  0  0  0  0  0  0  0  0  0  0
   -1.3244   25.6970  -24.1547 H   0  0  0  0  0  0  0  0  0  0  0  0
    0.8140   24.5770  -23.4860 H   0  0  0  0  0  0  0  0  0  0  0  0
    2.1251   26.3256  -22.7567 H   0  0  0  0  0  0  0  0  0  0  0  0
    2.8504   25.7298  -24.2883 H   0  0  0  0  0  0  0  0  0  0  0  0
    1.8532   27.2239  -24.2883 H   0  0  0  0  0  0  0  0  0  0  0  0
   -0.1064   25.5017  -26.0207 H   0  0  0  0  0  0  0  0  0  0  0  0
    1.6875   25.2752  -25.9899 H   0  0  0  0  0  0  0  0  0  0  0  0
   -0.3410   22.1260  -24.1319 H   0  0  0  0  0  0  0  0  0  0  0  0
   -1.0473   23.4879  -23.8624 H   0  0  0  0  0  0  0  0  0  0  0  0
   -2.1737   20.6648  -25.7231 H   0  0  0  0  0  0  0  0  0  0  0  0
   -1.8083   18.4493  -26.8249 H   0  0  0  0  0  0  0  0  0  0  0  0
    0.0508   18.1747  -28.4763 H   0  0  0  0  0  0  0  0  0  0  0  0
    1.5302   20.1248  -28.9981 H   0  0  0  0  0  0  0  0  0  0  0  0
   -2.2195   24.5412  -25.9606 H   0  0  0  0  0  0  0  0  0  0  0  0
   -1.6930   25.8794  -27.7058 H   0  0  0  0  0  0  0  0  0  0  0  0
   -0.1371   24.9461  -27.6686 H   0  0  0  0  0  0  0  0  0  0  0  0
   -1.0054   25.1104  -29.9643 H   0  0  0  0  0  0  0  0  0  0  0  0
   -1.0265   23.3997  -29.3601 H   0  0  0  0  0  0  0  0  0  0  0  0
   -2.7204   23.9081  -31.6391 H   0  0  0  0  0  0  0  0  0  0  0  0
   -2.6180   22.4620  -30.5654 H   0  0  0  0  0  0  0  0  0  0  0  0
   -5.1687   25.2499  -30.8230 H   0  0  0  0  0  0  0  0  0  0  0  0
   -7.5978   24.7992  -31.1851 H   0  0  0  0  0  0  0  0  0  0  0  0
   -6.7728   20.5602  -31.4714 H   0  0  0  0  0  0  0  0  0  0  0  0
   -4.3420   21.0071  -31.1227 H   0  0  0  0  0  0  0  0  0  0  0  0
   -4.1495   24.7992  -27.9265 H   0  0  0  0  0  0  0  0  0  0  0  0
   -4.5672   23.2543  -28.7927 H   0  0  0  0  0  0  0  0  0  0  0  0
   -3.6553   22.7769  -26.5633 H   0  0  0  0  0  0  0  0  0  0  0  0
   -2.5477   22.1944  -27.8659 H   0  0  0  0  0  0  0  0  0  0  0  0
  1  2  1  0
  2  3  1  0
  2  4  1  0
  5  4  1  0
  5  6  1  0
  6  7  1  0
  7  8  1  0
  8  9  2  0
  9 10  1  0
 10 11  2  0
 11 12  1  0
 12 13  2  0
  7 14  1  1
 14 15  1  0
 15 16  1  0
 16 17  1  0
 17 18  1  0
 18 19  1  0
 19 20  2  0
 20 21  1  0
 21 22  2  0
 22 23  1  0
 22 24  1  0
 24 25  2  0
 17 26  1  0
 26 27  1  0
  7  5  1  0
 13  8  1  0
 27 14  1  0
 25 19  1  0
  1 28  1  0
  1 29  1  0
  1 30  1  0
  2 31  1  0
  3 32  1  0
  3 33  1  0
  3 34  1  0
  4 35  1  0
  4 36  1  0
  6 37  1  0
  6 38  1  0
  9 39  1  0
 10 40  1  0
 11 41  1  0
 12 42  1  0
 14 43  1  0
 15 44  1  0
 15 45  1  0
 16 46  1  0
 16 47  1  0
 18 48  1  0
 18 49  1  0
 20 50  1  0
 21 51  1  0
 24 52  1  0
 25 53  1  0
 26 54  1  0
 26 55  1  0
 27 56  1  0
 27 57  1  0
M  CHG  1   2   1
M  END
>  <UniqueID>  (33) 
30

>  <SMILES>  (33) 
C[NH+](C)C[N@@]1C[C@@]1(c1ccccn1)C1CCN(Cc2ccc(Cl)cc2)CC1

>  <Energy>  (33) 
417.8777176120084

>  <Genealogy>  (33) 
C[NH+](C)CN1CC1(c1ccccn1)C1CCN(Cc2ccc(Cl)cc2)CC1 (protonated)
C[NH+](C)C[N@@]1C[C@@]1(c1ccccn1)C1CCN(Cc2ccc(Cl)cc2)CC1 (chirality)
C[NH+](C)C[N@@]1C[C@@]1(c1ccccn1)C1CCN(Cc2ccc(Cl)cc2)CC1 (3D coordinates assigned)
C[NH+](C)C[N@@]1C[C@@]1(c1ccccn1)C1CCN(Cc2ccc(Cl)cc2)CC1 (nonaromatic ring conformer: 417.8777176120084 kcal/mol)

>  <smiles>  (33) 
CN(C)CN1CC1(c1ccccn1)C1CCN(Cc2ccc(Cl)cc2)CC1

>  <score_type>  (33) 
oracle

>  <origin>  (33) 
adg

>  <m_score__min__energy>  (33) 
-8.4000000000000004

>  <m_primary>  (33) 
energy

$$$$
33:0
     RDKit          3D

 41 44  0  0  0  0  0  0  0  0999 V2000
   -4.2200   24.3910  -30.9090 O   0  0  0  0  0  0  0  0  0  0  0  0
   -3.4390   24.1880  -29.9390 C   0  0  0  0  0  0  0  0  0  0  0  0
   -2.7440   25.2960  -29.3420 N   0  0  0  0  0  0  0  0  0  0  0  0
   -1.5200   25.2280  -28.6010 C   0  0  0  0  0  0  0  0  0  0  0  0
   -1.2950   25.9950  -27.4420 C   0  0  0  0  0  0  0  0  0  0  0  0
   -0.0930   25.8700  -26.7490 C   0  0  0  0  0  0  0  0  0  0  0  0
    0.8700   24.9740  -27.2140 C   0  0  0  0  0  0  0  0  0  0  0  0
    0.6340   24.2290  -28.3280 N   0  0  0  0  0  0  0  0  0  0  0  0
   -0.5320   24.3290  -29.0180 C   0  0  0  0  0  0  0  0  0  0  0  0
   -3.1580   22.8050  -29.4700 C   0  0  0  0  0  0  0  0  0  0  0  0
   -3.2310   22.5340  -28.0890 C   0  0  0  0  0  0  0  0  0  0  0  0
   -2.9500   21.2610  -27.5880 C   0  0  0  0  0  0  0  0  0  0  0  0
   -2.5890   20.2340  -28.4540 C   0  0  0  0  0  0  0  0  0  0  0  0
   -2.5300   20.4720  -29.8270 C   0  0  0  0  0  0  0  0  0  0  0  0
   -2.8270   21.7390  -30.3510 C   0  0  0  0  0  0  0  0  0  0  0  0
   -2.8000   21.9220  -32.1460 S   0  0  0  0  0  0  0  0  0  0  0  0
   -4.4550   21.2590  -32.3450 C   0  0  0  0  0  0  0  0  0  0  0  0
   -4.6390   19.9640  -32.8420 C   0  0  0  0  0  0  0  0  0  0  0  0
   -5.9250   19.4330  -32.9770 C   0  0  0  0  0  0  0  0  0  0  0  0
   -7.0430   20.1950  -32.6150 C   0  0  0  0  0  0  0  0  0  0  0  0
   -8.3390   19.6620  -32.7200 C   0  0  0  0  0  0  0  0  0  0  0  0
   -9.4420   20.4240  -32.3320 C   0  0  0  0  0  0  0  0  0  0  0  0
   -9.2650   21.7220  -31.8480 C   0  0  0  0  0  0  0  0  0  0  0  0
   -7.9810   22.2630  -31.7380 C   0  0  0  0  0  0  0  0  0  0  0  0
   -6.8620   21.5070  -32.1140 C   0  0  0  0  0  0  0  0  0  0  0  0
   -5.5650   22.0310  -31.9860 C   0  0  0  0  0  0  0  0  0  0  0  0
   -2.0672   26.6919  -27.0842 H   0  0  0  0  0  0  0  0  0  0  0  0
    0.0945   26.4702  -25.8465 H   0  0  0  0  0  0  0  0  0  0  0  0
    1.8246   24.8693  -26.6776 H   0  0  0  0  0  0  0  0  0  0  0  0
   -0.6998   23.7021  -29.9062 H   0  0  0  0  0  0  0  0  0  0  0  0
   -3.5140   23.3384  -27.3941 H   0  0  0  0  0  0  0  0  0  0  0  0
   -3.0143   21.0701  -26.5066 H   0  0  0  0  0  0  0  0  0  0  0  0
   -2.3506   19.2363  -28.0568 H   0  0  0  0  0  0  0  0  0  0  0  0
   -2.2469   19.6557  -30.5078 H   0  0  0  0  0  0  0  0  0  0  0  0
   -3.7657   19.3597  -33.1284 H   0  0  0  0  0  0  0  0  0  0  0  0
   -6.0593   18.4139  -33.3686 H   0  0  0  0  0  0  0  0  0  0  0  0
   -8.4843   18.6432  -33.1084 H   0  0  0  0  0  0  0  0  0  0  0  0
  -10.4545   20.0007  -32.4077 H   0  0  0  0  0  0  0  0  0  0  0  0
  -10.1392   22.3207  -31.5523 H   0  0  0  0  0  0  0  0  0  0  0  0
   -7.8481   23.2856  -31.3550 H   0  0  0  0  0  0  0  0  0  0  0  0
   -5.4217   23.0518  -31.6022 H   0  0  0  0  0  0  0  0  0  0  0  0
  1  2  2  0
  2  3  1  0
  3  4  1  0
  4  5  2  0
  5  6  1  0
  6  7  2  0
  7  8  1  0
  8  9  2  0
  2 10  1  0
 10 11  2  0
 11 12  1  0
 12 13  2  0
 13 14  1  0
 14 15  2  0
 15 16  1  0
 16 17  1  0
 17 18  2  0
 18 19  1  0
 19 20  2  0
 20 21  1  0
 21 22  2  0
 22 23  1  0
 23 24  2  0
 24 25  1  0
 25 26  2  0
  9  4  1  0
 15 10  1  0
 26 17  1  0
 25 20  1  0
  5 27  1  0
  6 28  1  0
  7 29  1  0
  9 30  1  0
 11 31  1  0
 12 32  1  0
 13 33  1  0
 14 34  1  0
 18 35  1  0
 19 36  1  0
 21 37  1  0
 22 38  1  0
 23 39  1  0
 24 40  1  0
 26 41  1  0
M  CHG  1   3  -1
M  END
>  <UniqueID>  (34) 
31

>  <SMILES>  (34) 
O=C([N-]c1cccnc1)c1ccccc1Sc1ccc2ccccc2c1

>  <Energy>  (34) 
52.89361477985143

>  <Genealogy>  (34) 
O=C([N-]c1cccnc1)c1ccccc1Sc1ccc2ccccc2c1 (protonated)
O=C([N-]c1cccnc1)c1ccccc1Sc1ccc2ccccc2c1 (3D coordinates assigned)
O=C([N-]c1cccnc1)c1ccccc1Sc1ccc2ccccc2c1 (optimized conformer: 52.89361477985143 kcal/mol)

>  <smiles>  (34) 
O=C(Nc1cccnc1)c1ccccc1Sc1ccc2ccccc2c1

>  <score_type>  (34) 
oracle

>  <origin>  (34) 
adg

>  <m_score__min__energy>  (34) 
-11.41

>  <m_primary>  (34) 
energy

$$$$
34:0
     RDKit          3D

 30 31  0  0  0  0  0  0  0  0999 V2000
   -2.8580   20.8350  -33.5030 C   0  0  0  0  0  0  0  0  0  0  0  0
   -2.6260   20.6840  -32.0050 C   0  0  0  0  0  0  0  0  0  0  0  0
   -2.2200   22.2930  -31.2390 S   0  0  0  0  0  0  0  0  0  0  0  0
   -3.9130   22.8720  -31.1900 C   0  0  0  0  0  0  0  0  0  0  0  0
   -4.1820   24.1560  -30.8380 N   0  0  0  0  0  0  0  0  0  0  0  0
   -5.4590   24.6160  -30.7950 C   0  0  0  0  0  0  0  0  0  0  0  0
   -5.7230   26.0450  -30.4370 C   0  0  0  0  0  0  0  0  0  0  0  0
   -6.5160   23.7630  -31.1270 C   0  0  0  0  0  0  0  0  0  0  0  0
   -6.2280   22.4340  -31.4760 C   0  0  0  0  0  0  0  0  0  0  0  0
   -7.2970   21.4710  -31.8450 C   0  0  0  0  0  0  0  0  0  0  0  0
   -8.6500   21.8380  -31.7040 C   0  0  0  0  0  0  0  0  0  0  0  0
   -9.6680   20.9460  -32.0510 C   0  0  0  0  0  0  0  0  0  0  0  0
   -9.3520   19.6820  -32.5510 C   0  0  0  0  0  0  0  0  0  0  0  0
   -8.0160   19.3080  -32.7070 C   0  0  0  0  0  0  0  0  0  0  0  0
   -6.9920   20.1960  -32.3610 C   0  0  0  0  0  0  0  0  0  0  0  0
   -4.9290   22.0270  -31.5010 N   0  0  0  0  0  0  0  0  0  0  0  0
   -3.7686   21.4277  -33.6751 H   0  0  0  0  0  0  0  0  0  0  0  0
   -1.9965   21.3459  -33.9578 H   0  0  0  0  0  0  0  0  0  0  0  0
   -2.9764   19.8404  -33.9578 H   0  0  0  0  0  0  0  0  0  0  0  0
   -3.5381   20.2835  -31.5384 H   0  0  0  0  0  0  0  0  0  0  0  0
   -1.7801   19.9984  -31.8490 H   0  0  0  0  0  0  0  0  0  0  0  0
   -5.7426   26.1511  -29.3423 H   0  0  0  0  0  0  0  0  0  0  0  0
   -4.9270   26.6802  -30.8528 H   0  0  0  0  0  0  0  0  0  0  0  0
   -6.6934   26.3539  -30.8528 H   0  0  0  0  0  0  0  0  0  0  0  0
   -7.5541   24.1266  -31.1150 H   0  0  0  0  0  0  0  0  0  0  0  0
   -8.9071   22.8352  -31.3175 H   0  0  0  0  0  0  0  0  0  0  0  0
  -10.7208   21.2407  -31.9298 H   0  0  0  0  0  0  0  0  0  0  0  0
  -10.1550   18.9808  -32.8220 H   0  0  0  0  0  0  0  0  0  0  0  0
   -7.7679   18.3122  -33.1031 H   0  0  0  0  0  0  0  0  0  0  0  0
   -5.9417   19.8968  -32.4927 H   0  0  0  0  0  0  0  0  0  0  0  0
  1  2  1  0
  2  3  1  0
  3  4  1  0
  4  5  2  0
  5  6  1  0
  6  7  1  0
  6  8  2  0
  8  9  1  0
  9 10  1  0
 10 11  2  0
 11 12  1  0
 12 13  2  0
 13 14  1  0
 14 15  2  0
  9 16  2  0
 16  4  1  0
 15 10  1  0
  1 17  1  0
  1 18  1  0
  1 19  1  0
  2 20  1  0
  2 21  1  0
  7 22  1  0
  7 23  1  0
  7 24  1  0
  8 25  1  0
 11 26  1  0
 12 27  1  0
 13 28  1  0
 14 29  1  0
 15 30  1  0
M  END
>  <UniqueID>  (35) 
32

>  <SMILES>  (35) 
CCSc1nc(C)cc(-c2ccccc2)n1

>  <Energy>  (35) 
27.199968879155016

>  <Genealogy>  (35) 
CCSc1nc(C)cc(-c2ccccc2)n1 (3D coordinates assigned)
CCSc1nc(C)cc(-c2ccccc2)n1 (optimized conformer: 27.199968879155016 kcal/mol)

>  <smiles>  (35) 
CCSc1nc(C)cc(-c2ccccc2)n1

>  <score_type>  (35) 
oracle

>  <origin>  (35) 
adg

>  <m_score__min__energy>  (35) 
-6.7999999999999998

>  <m_primary>  (35) 
energy

$$$$
35:0
     RDKit          3D

 29 31  0  0  0  0  0  0  0  0999 V2000
   -7.7540   22.4900  -31.5730 C   0  0  0  0  0  0  0  0  0  0  0  0
   -6.7050   23.4530  -31.0900 C   0  0  0  0  0  0  0  0  0  0  0  0
   -7.0970   24.5560  -30.3150 C   0  0  0  0  0  0  0  0  0  0  0  0
   -6.1420   25.4370  -29.8090 C   0  0  0  0  0  0  0  0  0  0  0  0
   -4.7950   25.2140  -30.0830 C   0  0  0  0  0  0  0  0  0  0  0  0
   -4.4240   24.1590  -30.8530 N   0  0  0  0  0  0  0  0  0  0  0  0
   -5.3280   23.2870  -31.3830 C   0  0  0  0  0  0  0  0  0  0  0  0
   -4.8460   22.2120  -32.2040 N   0  0  0  0  0  0  0  0  0  0  0  0
   -3.8730   22.3000  -33.1340 C   0  0  0  0  0  0  0  0  0  0  0  0
   -3.7200   21.1450  -33.8090 N   0  0  0  0  0  0  0  0  0  0  0  0
   -4.6450   20.3030  -33.3020 C   0  0  0  0  0  0  0  0  0  0  0  0
   -4.8690   18.9150  -33.7610 C   0  0  0  0  0  0  0  0  0  0  0  0
   -6.1330   18.2980  -33.7840 C   0  0  0  0  0  0  0  0  0  0  0  0
   -6.1080   16.9920  -34.2540 C   0  0  0  0  0  0  0  0  0  0  0  0
   -4.5210   16.6060  -34.6400 S   0  0  0  0  0  0  0  0  0  0  0  0
   -3.8460   18.0850  -34.2180 C   0  0  0  0  0  0  0  0  0  0  0  0
   -5.3520   20.9670  -32.3150 C   0  0  0  0  0  0  0  0  0  0  0  0
   -8.2552   22.0299  -30.7086 H   0  0  0  0  0  0  0  0  0  0  0  0
   -8.4945   23.0294  -32.1818 H   0  0  0  0  0  0  0  0  0  0  0  0
   -7.2797   21.7062  -32.1818 H   0  0  0  0  0  0  0  0  0  0  0  0
   -8.1634   24.7262  -30.1058 H   0  0  0  0  0  0  0  0  0  0  0  0
   -6.4495   26.2995  -29.1995 H   0  0  0  0  0  0  0  0  0  0  0  0
   -4.0313   25.8928  -29.6755 H   0  0  0  0  0  0  0  0  0  0  0  0
   -3.2767   23.2057  -33.3186 H   0  0  0  0  0  0  0  0  0  0  0  0
   -3.0360   20.9630  -34.5750 H   0  0  0  0  0  0  0  0  0  0  0  0
   -7.0549   18.8031  -33.4599 H   0  0  0  0  0  0  0  0  0  0  0  0
   -6.9774   16.3258  -34.3558 H   0  0  0  0  0  0  0  0  0  0  0  0
   -2.7814   18.3525  -34.2897 H   0  0  0  0  0  0  0  0  0  0  0  0
   -6.1818   20.5518  -31.7242 H   0  0  0  0  0  0  0  0  0  0  0  0
  1  2  1  0
  2  3  2  0
  3  4  1  0
  4  5  2  0
  5  6  1  0
  6  7  2  0
  7  8  1  0
  8  9  1  0
  9 10  2  0
 10 11  1  0
 11 12  1  0
 12 13  1  0
 13 14  2  0
 14 15  1  0
 15 16  1  0
 11 17  2  0
  7  2  1  0
 17  8  1  0
 16 12  2  0
  1 18  1  0
  1 19  1  0
  1 20  1  0
  3 21  1  0
  4 22  1  0
  5 23  1  0
  9 24  1  0
 10 25  1  0
 13 26  1  0
 14 27  1  0
 16 28  1  0
 17 29  1  0
M  CHG  1  10   1
M  END
>  <UniqueID>  (36) 
33

>  <SMILES>  (36) 
Cc1cccnc1-n1c[nH+]c(-c2ccsc2)c1

>  <Energy>  (36) 
94.03844569093526

>  <Genealogy>  (36) 
Cc1cccnc1-n1c[nH+]c(-c2ccsc2)c1 (protonated)
Cc1cccnc1-n1c[nH+]c(-c2ccsc2)c1 (3D coordinates assigned)
Cc1cccnc1-n1c[nH+]c(-c2ccsc2)c1 (optimized conformer: 94.03844569093526 kcal/mol)

>  <smiles>  (36) 
Cc1cccnc1-n1cnc(-c2ccsc2)c1

>  <score_type>  (36) 
oracle

>  <origin>  (36) 
adg

>  <m_score__min__energy>  (36) 
-6.1200000000000001

>  <m_primary>  (36) 
energy

$$$$
36:0
     RDKit          3D

 47 50  0  0  0  0  0  0  0  0999 V2000
   -8.9670   18.2720  -31.6030 C   0  0  0  0  0  0  0  0  0  0  0  0
   -7.9670   17.7520  -32.6310 C   0  0  0  0  0  0  0  0  0  0  0  0
   -6.8100   18.6660  -32.7450 N   0  0  0  0  0  0  0  0  0  0  0  0
   -6.9450   19.9090  -32.1880 C   0  0  0  0  0  0  0  0  0  0  0  0
   -5.9140   20.8540  -32.2370 C   0  0  0  0  0  0  0  0  0  0  0  0
   -6.1370   22.1820  -31.6100 C   0  0  0  0  0  0  0  0  0  0  0  0
   -5.1760   23.1010  -31.3760 N   0  0  0  0  0  0  0  0  0  0  0  0
   -5.8240   24.1170  -30.7800 C   0  0  0  0  0  0  0  0  0  0  0  0
   -5.1900   25.4060  -30.3720 C   0  0  0  0  0  0  0  0  0  0  0  0
   -3.7420   25.2880  -30.4900 N   0  0  0  0  0  0  0  0  0  0  0  0
   -2.9230   24.4320  -29.6830 C   0  0  0  0  0  0  0  0  0  0  0  0
   -2.6470   23.2800  -30.1110 O   0  0  0  0  0  0  0  0  0  0  0  0
   -2.3620   24.8690  -28.3900 C   0  0  0  0  0  0  0  0  0  0  0  0
   -3.1060   24.6960  -27.2110 C   0  0  0  0  0  0  0  0  0  0  0  0
   -2.5900   25.1210  -25.9830 C   0  0  0  0  0  0  0  0  0  0  0  0
   -1.3340   25.7330  -25.9250 C   0  0  0  0  0  0  0  0  0  0  0  0
   -0.5980   25.9300  -27.0970 C   0  0  0  0  0  0  0  0  0  0  0  0
   -1.1110   25.5050  -28.3260 C   0  0  0  0  0  0  0  0  0  0  0  0
   -7.1600   23.7930  -30.6810 C   0  0  0  0  0  0  0  0  0  0  0  0
   -7.3150   22.5930  -31.1910 O   0  0  0  0  0  0  0  0  0  0  0  0
   -4.7210   20.5210  -32.8960 C   0  0  0  0  0  0  0  0  0  0  0  0
   -3.8030   21.3790  -33.0160 O   0  0  0  0  0  0  0  0  0  0  0  0
   -4.5600   19.2360  -33.4430 C   0  0  0  0  0  0  0  0  0  0  0  0
   -3.3560   18.8730  -34.0810 C   0  0  0  0  0  0  0  0  0  0  0  0
   -3.1920   17.5940  -34.6080 C   0  0  0  0  0  0  0  0  0  0  0  0
   -4.2190   16.6610  -34.5060 C   0  0  0  0  0  0  0  0  0  0  0  0
   -5.4210   17.0000  -33.8840 C   0  0  0  0  0  0  0  0  0  0  0  0
   -5.6240   18.2960  -33.3490 C   0  0  0  0  0  0  0  0  0  0  0  0
   -8.5873   18.0746  -30.5897 H   0  0  0  0  0  0  0  0  0  0  0  0
   -9.1030   19.3550  -31.7390 H   0  0  0  0  0  0  0  0  0  0  0  0
   -9.9317   17.7613  -31.7390 H   0  0  0  0  0  0  0  0  0  0  0  0
   -7.6127   16.7584  -32.3193 H   0  0  0  0  0  0  0  0  0  0  0  0
   -8.4660   17.6902  -33.6093 H   0  0  0  0  0  0  0  0  0  0  0  0
   -7.8891   20.1721  -31.6885 H   0  0  0  0  0  0  0  0  0  0  0  0
   -4.1530   23.0420  -31.5710 H   0  0  0  0  0  0  0  0  0  0  0  0
   -5.5475   26.2148  -31.0262 H   0  0  0  0  0  0  0  0  0  0  0  0
   -5.4578   25.6353  -29.3300 H   0  0  0  0  0  0  0  0  0  0  0  0
   -4.0987   24.2242  -27.2541 H   0  0  0  0  0  0  0  0  0  0  0  0
   -3.1726   24.9738  -25.0616 H   0  0  0  0  0  0  0  0  0  0  0  0
   -0.9252   26.0593  -24.9573 H   0  0  0  0  0  0  0  0  0  0  0  0
    0.3858   26.4199  -27.0521 H   0  0  0  0  0  0  0  0  0  0  0  0
   -0.5325   25.6693  -29.2471 H   0  0  0  0  0  0  0  0  0  0  0  0
   -7.9522   24.4247  -30.2527 H   0  0  0  0  0  0  0  0  0  0  0  0
   -2.5397   19.6057  -34.1632 H   0  0  0  0  0  0  0  0  0  0  0  0
   -2.2495   17.3214  -35.1053 H   0  0  0  0  0  0  0  0  0  0  0  0
   -4.0825   15.6503  -34.9181 H   0  0  0  0  0  0  0  0  0  0  0  0
   -6.2224   16.2504  -33.8079 H   0  0  0  0  0  0  0  0  0  0  0  0
  1  2  1  0
  2  3  1  0
  3  4  1  0
  4  5  2  0
  5  6  1  0
  6  7  2  0
  7  8  1  0
  8  9  1  0
  9 10  1  0
 10 11  1  0
 11 12  2  0
 11 13  1  0
 13 14  2  0
 14 15  1  0
 15 16  2  0
 16 17  1  0
 17 18  2  0
  8 19  2  0
 19 20  1  0
  5 21  1  0
 21 22  2  0
 21 23  1  0
 23 24  2  0
 24 25  1  0
 25 26  2  0
 26 27  1  0
 27 28  2  0
 28  3  1  0
 20  6  1  0
 28 23  1  0
 18 13  1  0
  1 29  1  0
  1 30  1  0
  1 31  1  0
  2 32  1  0
  2 33  1  0
  4 34  1  0
  7 35  1  0
  9 36  1  0
  9 37  1  0
 14 38  1  0
 15 39  1  0
 16 40  1  0
 17 41  1  0
 18 42  1  0
 19 43  1  0
 24 44  1  0
 25 45  1  0
 26 46  1  0
 27 47  1  0
M  CHG  2   7   1  10  -1
M  END
>  <UniqueID>  (37) 
34

>  <SMILES>  (37) 
CCn1cc(-c2[nH+]c(C[N-]C(=O)c3ccccc3)co2)c(=O)c2ccccc21

>  <Energy>  (37) 
96.17126379180095

>  <Genealogy>  (37) 
CCn1cc(-c2[nH+]c(C[N-]C(=O)c3ccccc3)co2)c(=O)c2ccccc21 (protonated)
CCn1cc(-c2[nH+]c(C[N-]C(=O)c3ccccc3)co2)c(=O)c2ccccc21 (3D coordinates assigned)
CCn1cc(-c2[nH+]c(C[N-]C(=O)c3ccccc3)co2)c(=O)c2ccccc21 (optimized conformer: 96.17126379180095 kcal/mol)

>  <smiles>  (37) 
CCn1cc(-c2nc(CNC(=O)c3ccccc3)co2)c(=O)c2ccccc21

>  <score_type>  (37) 
oracle

>  <origin>  (37) 
adg

>  <m_score__min__energy>  (37) 
-9.6300000000000008

>  <m_primary>  (37) 
energy

$$$$
37:0
     RDKit          3D

 45 47  0  0  0  0  0  0  0  0999 V2000
   -5.9070   23.7850  -33.0220 F   0  0  0  0  0  0  0  0  0  0  0  0
   -6.7350   23.1190  -32.1790 C   0  0  0  0  0  0  0  0  0  0  0  0
   -7.6080   22.2100  -32.6890 N   0  0  0  0  0  0  0  0  0  0  0  0
   -8.4610   21.5120  -31.8950 C   0  0  0  0  0  0  0  0  0  0  0  0
   -8.4560   21.7160  -30.5150 C   0  0  0  0  0  0  0  0  0  0  0  0
   -7.5690   22.6420  -29.9640 C   0  0  0  0  0  0  0  0  0  0  0  0
   -6.6930   23.3590  -30.7940 C   0  0  0  0  0  0  0  0  0  0  0  0
   -5.7540   24.3840  -30.2110 C   0  0  0  0  0  0  0  0  0  0  0  0
   -4.6070   23.7130  -29.4940 C   0  0  0  0  0  0  0  0  0  0  0  0
   -4.2670   24.1260  -28.1940 C   0  0  0  0  0  0  0  0  0  0  0  0
   -3.2300   23.5010  -27.5010 C   0  0  0  0  0  0  0  0  0  0  0  0
   -2.5250   22.4540  -28.0940 C   0  0  0  0  0  0  0  0  0  0  0  0
   -2.8520   22.0290  -29.3830 C   0  0  0  0  0  0  0  0  0  0  0  0
   -3.8960   22.6530  -30.0970 C   0  0  0  0  0  0  0  0  0  0  0  0
   -4.2450   22.2490  -31.3960 O   0  0  0  0  0  0  0  0  0  0  0  0
   -3.3250   21.7690  -32.3740 C   0  0  0  0  0  0  0  0  0  0  0  0
   -3.8990   20.5400  -33.1100 C   0  0  0  0  0  0  0  0  0  0  0  0
   -5.3060   20.1870  -32.7820 N   0  0  0  0  0  0  0  0  0  0  0  0
   -5.4100   19.2970  -31.5990 C   0  0  0  0  0  0  0  0  0  0  0  0
   -6.7510   18.5440  -31.5950 C   0  0  0  0  0  0  0  0  0  0  0  0
   -6.9340   17.7050  -32.7280 O   0  0  0  0  0  0  0  0  0  0  0  0
   -6.2920   18.1760  -33.9070 C   0  0  0  0  0  0  0  0  0  0  0  0
   -6.0950   19.7040  -33.9440 C   0  0  0  0  0  0  0  0  0  0  0  0
   -9.1563   20.7853  -32.3406 H   0  0  0  0  0  0  0  0  0  0  0  0
   -9.1442   21.1527  -29.8676 H   0  0  0  0  0  0  0  0  0  0  0  0
   -7.5563   22.8103  -28.8770 H   0  0  0  0  0  0  0  0  0  0  0  0
   -5.3552   25.0106  -31.0223 H   0  0  0  0  0  0  0  0  0  0  0  0
   -6.3091   25.0007  -29.4889 H   0  0  0  0  0  0  0  0  0  0  0  0
   -4.8228   24.9482  -27.7196 H   0  0  0  0  0  0  0  0  0  0  0  0
   -2.9682   23.8343  -26.4859 H   0  0  0  0  0  0  0  0  0  0  0  0
   -1.7090   21.9617  -27.5446 H   0  0  0  0  0  0  0  0  0  0  0  0
   -2.2920   21.2024  -29.8446 H   0  0  0  0  0  0  0  0  0  0  0  0
   -3.1267   22.5669  -33.1048 H   0  0  0  0  0  0  0  0  0  0  0  0
   -2.3943   21.4736  -31.8675 H   0  0  0  0  0  0  0  0  0  0  0  0
   -3.8440   20.7379  -34.1907 H   0  0  0  0  0  0  0  0  0  0  0  0
   -3.2919   19.6841  -32.7799 H   0  0  0  0  0  0  0  0  0  0  0  0
   -5.7500   21.0930  -32.4950 H   0  0  0  0  0  0  0  0  0  0  0  0
   -4.5873   18.5673  -31.6239 H   0  0  0  0  0  0  0  0  0  0  0  0
   -5.3500   19.9128  -30.6895 H   0  0  0  0  0  0  0  0  0  0  0  0
   -6.7978   17.9212  -30.6895 H   0  0  0  0  0  0  0  0  0  0  0  0
   -7.5476   19.3021  -31.6219 H   0  0  0  0  0  0  0  0  0  0  0  0
   -5.3039   17.6978  -33.9777 H   0  0  0  0  0  0  0  0  0  0  0  0
   -6.9478   17.9185  -34.7517 H   0  0  0  0  0  0  0  0  0  0  0  0
   -5.5655   19.9724  -34.8701 H   0  0  0  0  0  0  0  0  0  0  0  0
   -7.0870   20.1776  -33.9041 H   0  0  0  0  0  0  0  0  0  0  0  0
  1  2  1  0
  2  3  2  0
  3  4  1  0
  4  5  2  0
  5  6  1  0
  6  7  2  0
  7  8  1  0
  8  9  1  0
  9 10  2  0
 10 11  1  0
 11 12  2  0
 12 13  1  0
 13 14  2  0
 14 15  1  0
 15 16  1  0
 16 17  1  0
 17 18  1  0
 18 19  1  0
 19 20  1  0
 20 21  1  0
 21 22  1  0
 22 23  1  0
  7  2  1  0
 14  9  1  0
 23 18  1  0
  4 24  1  0
  5 25  1  0
  6 26  1  0
  8 27  1  0
  8 28  1  0
 10 29  1  0
 11 30  1  0
 12 31  1  0
 13 32  1  0
 16 33  1  0
 16 34  1  0
 17 35  1  0
 17 36  1  0
 18 37  1  0
 19 38  1  0
 19 39  1  0
 20 40  1  0
 20 41  1  0
 22 42  1  0
 22 43  1  0
 23 44  1  0
 23 45  1  0
M  CHG  1  18   1
M  END
>  <UniqueID>  (38) 
35

>  <SMILES>  (38) 
Fc1ncccc1Cc1ccccc1OCC[NH+]1CCOCC1

>  <Energy>  (38) 
62.48851513538546

>  <Genealogy>  (38) 
Fc1ncccc1Cc1ccccc1OCC[NH+]1CCOCC1 (protonated)
Fc1ncccc1Cc1ccccc1OCC[NH+]1CCOCC1 (3D coordinates assigned)
Fc1ncccc1Cc1ccccc1OCC[NH+]1CCOCC1 (nonaromatic ring conformer: 62.48851513538546 kcal/mol)

>  <smiles>  (38) 
Fc1ncccc1Cc1ccccc1OCCN1CCOCC1

>  <score_type>  (38) 
oracle

>  <origin>  (38) 
adg

>  <m_score__min__energy>  (38) 
-6.1699999999999999

>  <m_primary>  (38) 
energy

$$$$
38:0
     RDKit          3D

 58 61  0  0  0  0  0  0  0  0999 V2000
   -9.0000   22.3110  -31.9540 C   0  0  0  0  0  0  0  0  0  0  0  0
   -8.4250   20.9270  -31.9780 C   0  0  0  0  0  0  0  0  0  0  0  0
   -9.1260   19.8580  -31.3990 C   0  0  0  0  0  0  0  0  0  0  0  0
   -8.5710   18.5740  -31.3910 C   0  0  0  0  0  0  0  0  0  0  0  0
   -7.3000   18.3580  -31.9290 C   0  0  0  0  0  0  0  0  0  0  0  0
   -6.5700   19.4290  -32.4650 C   0  0  0  0  0  0  0  0  0  0  0  0
   -5.3090   19.1890  -33.0930 N   0  0  0  0  0  0  0  0  0  0  0  0
   -5.1830   18.2390  -34.0100 N   0  0  0  0  0  0  0  0  0  0  0  0
   -3.8750   18.0860  -34.3030 C   0  0  0  0  0  0  0  0  0  0  0  0
   -3.3780   17.0880  -35.2990 C   0  0  0  0  0  0  0  0  0  0  0  0
   -3.1380   18.9670  -33.5240 C   0  0  0  0  0  0  0  0  0  0  0  0
   -1.7680   19.2210  -33.4070 C   0  0  0  0  0  0  0  0  0  0  0  0
   -0.7290   18.4740  -34.1920 C   0  0  0  0  0  0  0  0  0  0  0  0
   -1.3890   20.2330  -32.5130 C   0  0  0  0  0  0  0  0  0  0  0  0
   -2.3600   20.9650  -31.8000 C   0  0  0  0  0  0  0  0  0  0  0  0
   -1.9630   21.8970  -31.0470 O   0  0  0  0  0  0  0  0  0  0  0  0
   -3.7090   20.6860  -31.9300 N   0  0  0  0  0  0  0  0  0  0  0  0
   -4.6850   21.5960  -31.2950 C   0  0  0  0  0  0  0  0  0  0  0  0
   -4.5990   22.9960  -31.9230 C   0  0  0  0  0  0  0  0  0  0  0  0
   -4.6200   24.0620  -30.8970 N   0  0  0  0  0  0  0  0  0  0  0  0
   -5.7500   24.9720  -31.1490 C   0  0  0  0  0  0  0  0  0  0  0  0
   -4.6770   23.5270  -29.5150 C   0  0  0  0  0  0  0  0  0  0  0  0
   -3.5860   24.1510  -28.6870 C   0  0  0  0  0  0  0  0  0  0  0  0
   -2.3570   24.5090  -29.2670 C   0  0  0  0  0  0  0  0  0  0  0  0
   -1.3520   25.0890  -28.4860 C   0  0  0  0  0  0  0  0  0  0  0  0
   -1.5620   25.3100  -27.1220 C   0  0  0  0  0  0  0  0  0  0  0  0
   -2.7780   24.9480  -26.5360 C   0  0  0  0  0  0  0  0  0  0  0  0
   -3.7860   24.3690  -27.3130 C   0  0  0  0  0  0  0  0  0  0  0  0
   -4.0690   19.6590  -32.7800 C   0  0  0  0  0  0  0  0  0  0  0  0
   -7.1470   20.7050  -32.5150 C   0  0  0  0  0  0  0  0  0  0  0  0
   -9.1343   22.6342  -30.9112 H   0  0  0  0  0  0  0  0  0  0  0  0
   -8.3144   23.0018  -32.4666 H   0  0  0  0  0  0  0  0  0  0  0  0
   -9.9733   22.3126  -32.4666 H   0  0  0  0  0  0  0  0  0  0  0  0
  -10.1153   20.0304  -30.9499 H   0  0  0  0  0  0  0  0  0  0  0  0
   -9.1358   17.7338  -30.9608 H   0  0  0  0  0  0  0  0  0  0  0  0
   -6.8706   17.3453  -31.9323 H   0  0  0  0  0  0  0  0  0  0  0  0
   -2.9481   16.2247  -34.7699 H   0  0  0  0  0  0  0  0  0  0  0  0
   -4.2141   16.7521  -35.9300 H   0  0  0  0  0  0  0  0  0  0  0  0
   -2.6061   17.5528  -35.9300 H   0  0  0  0  0  0  0  0  0  0  0  0
   -0.0349   17.9750  -33.4997 H   0  0  0  0  0  0  0  0  0  0  0  0
   -1.2197   17.7206  -34.8257 H   0  0  0  0  0  0  0  0  0  0  0  0
   -0.1711   19.1791  -34.8257 H   0  0  0  0  0  0  0  0  0  0  0  0
   -0.3223   20.4580  -32.3666 H   0  0  0  0  0  0  0  0  0  0  0  0
   -5.6997   21.1962  -31.4381 H   0  0  0  0  0  0  0  0  0  0  0  0
   -4.4566   21.6716  -30.2216 H   0  0  0  0  0  0  0  0  0  0  0  0
   -3.6631   23.0721  -32.4961 H   0  0  0  0  0  0  0  0  0  0  0  0
   -5.4746   23.1322  -32.5748 H   0  0  0  0  0  0  0  0  0  0  0  0
   -6.1696   25.3099  -30.1900 H   0  0  0  0  0  0  0  0  0  0  0  0
   -5.3989   25.8424  -31.7226 H   0  0  0  0  0  0  0  0  0  0  0  0
   -6.5256   24.4434  -31.7226 H   0  0  0  0  0  0  0  0  0  0  0  0
   -5.6549   23.7641  -29.0706 H   0  0  0  0  0  0  0  0  0  0  0  0
   -4.5386   22.4360  -29.5395 H   0  0  0  0  0  0  0  0  0  0  0  0
   -2.1848   24.3325  -30.3390 H   0  0  0  0  0  0  0  0  0  0  0  0
   -0.3939   25.3719  -28.9465 H   0  0  0  0  0  0  0  0  0  0  0  0
   -0.7710   25.7684  -26.5103 H   0  0  0  0  0  0  0  0  0  0  0  0
   -2.9424   25.1188  -25.4618 H   0  0  0  0  0  0  0  0  0  0  0  0
   -4.7402   24.0827  -26.8466 H   0  0  0  0  0  0  0  0  0  0  0  0
   -6.5957   21.5370  -32.9774 H   0  0  0  0  0  0  0  0  0  0  0  0
  1  2  1  0
  2  3  2  0
  3  4  1  0
  4  5  2  0
  5  6  1  0
  6  7  1  0
  7  8  1  0
  8  9  2  0
  9 10  1  0
  9 11  1  0
 11 12  1  0
 12 13  1  0
 12 14  2  0
 14 15  1  0
 15 16  2  0
 15 17  1  0
 17 18  1  0
 18 19  1  0
 19 20  1  0
 20 21  1  0
 20 22  1  0
 22 23  1  0
 23 24  2  0
 24 25  1  0
 25 26  2  0
 26 27  1  0
 27 28  2  0
 17 29  1  0
  6 30  2  0
 30  2  1  0
 29  7  1  0
 29 11  2  0
 28 23  1  0
  1 31  1  0
  1 32  1  0
  1 33  1  0
  3 34  1  0
  4 35  1  0
  5 36  1  0
 10 37  1  0
 10 38  1  0
 10 39  1  0
 13 40  1  0
 13 41  1  0
 13 42  1  0
 14 43  1  0
 18 44  1  0
 18 45  1  0
 19 46  1  0
 19 47  1  0
 21 48  1  0
 21 49  1  0
 21 50  1  0
 22 51  1  0
 22 52  1  0
 24 53  1  0
 25 54  1  0
 26 55  1  0
 27 56  1  0
 28 57  1  0
 30 58  1  0
M  END
>  <UniqueID>  (39) 
36

>  <SMILES>  (39) 
Cc1cccc(-n2nc(C)c3c(C)cc(=O)n(CCN(C)Cc4ccccc4)c32)c1

>  <Energy>  (39) 
114.46862040161439

>  <Genealogy>  (39) 
Cc1cccc(-n2nc(C)c3c(C)cc(=O)n(CCN(C)Cc4ccccc4)c32)c1 (3D coordinates assigned)
Cc1cccc(-n2nc(C)c3c(C)cc(=O)n(CCN(C)Cc4ccccc4)c32)c1 (optimized conformer: 114.46862040161439 kcal/mol)

>  <smiles>  (39) 
Cc1cccc(-n2nc(C)c3c(C)cc(=O)n(CCN(C)Cc4ccccc4)c32)c1

>  <score_type>  (39) 
oracle

>  <origin>  (39) 
adg

>  <m_score__min__energy>  (39) 
-9.4800000000000004

>  <m_primary>  (39) 
energy

$$$$
39:0
     RDKit          3D

 36 38  0  0  0  0  0  0  0  0999 V2000
   -3.6020   24.5610  -26.9950 C   0  0  0  0  0  0  0  0  0  0  0  0
   -2.3020   24.7890  -27.6160 N   0  0  0  0  0  0  0  0  0  0  0  0
   -1.2010   25.3110  -27.0470 C   0  0  0  0  0  0  0  0  0  0  0  0
   -0.1690   25.3200  -27.9120 N   0  0  0  0  0  0  0  0  0  0  0  0
   -0.6010   24.7900  -29.0470 N   0  0  0  0  0  0  0  0  0  0  0  0
   -1.8920   24.4560  -28.8550 C   0  0  0  0  0  0  0  0  0  0  0  0
   -2.7610   23.8500  -29.9110 C   0  0  0  0  0  0  0  0  0  0  0  0
   -3.6280   24.8800  -30.4680 N   0  0  0  0  0  0  0  0  0  0  0  0
   -5.0590   24.8760  -30.3940 C   0  0  0  0  0  0  0  0  0  0  0  0
   -5.6070   25.2030  -29.3080 O   0  0  0  0  0  0  0  0  0  0  0  0
   -5.9210   24.5530  -31.5880 C   0  0  0  0  0  0  0  0  0  0  0  0
   -5.8310   23.0840  -31.9480 C   0  0  0  0  0  0  0  0  0  0  0  0
   -4.5760   22.5600  -32.3040 C   0  0  0  0  0  0  0  0  0  0  0  0
   -4.4330   21.2180  -32.6530 C   0  0  0  0  0  0  0  0  0  0  0  0
   -5.5370   20.3710  -32.6610 C   0  0  0  0  0  0  0  0  0  0  0  0
   -6.8060   20.8630  -32.3240 C   0  0  0  0  0  0  0  0  0  0  0  0
   -7.9160   20.0040  -32.3450 C   0  0  0  0  0  0  0  0  0  0  0  0
   -9.1840   20.4850  -32.0200 C   0  0  0  0  0  0  0  0  0  0  0  0
   -9.3570   21.8240  -31.6730 C   0  0  0  0  0  0  0  0  0  0  0  0
   -8.2630   22.6920  -31.6450 C   0  0  0  0  0  0  0  0  0  0  0  0
   -6.9680   22.2290  -31.9660 C   0  0  0  0  0  0  0  0  0  0  0  0
   -3.4939   24.5800  -25.9005 H   0  0  0  0  0  0  0  0  0  0  0  0
   -4.3014   25.3502  -27.3081 H   0  0  0  0  0  0  0  0  0  0  0  0
   -3.9911   23.5809  -27.3081 H   0  0  0  0  0  0  0  0  0  0  0  0
   -1.1502   25.6814  -26.0125 H   0  0  0  0  0  0  0  0  0  0  0  0
   -2.1313   23.4286  -30.7084 H   0  0  0  0  0  0  0  0  0  0  0  0
   -3.3739   23.0498  -29.4705 H   0  0  0  0  0  0  0  0  0  0  0  0
   -6.9666   24.8014  -31.3533 H   0  0  0  0  0  0  0  0  0  0  0  0
   -5.5646   25.1438  -32.4447 H   0  0  0  0  0  0  0  0  0  0  0  0
   -3.6946   23.2181  -32.3072 H   0  0  0  0  0  0  0  0  0  0  0  0
   -3.4414   20.8262  -32.9237 H   0  0  0  0  0  0  0  0  0  0  0  0
   -5.4138   19.3122  -32.9325 H   0  0  0  0  0  0  0  0  0  0  0  0
   -7.7851   18.9468  -32.6190 H   0  0  0  0  0  0  0  0  0  0  0  0
  -10.0495   19.8063  -32.0375 H   0  0  0  0  0  0  0  0  0  0  0  0
  -10.3598   22.1988  -31.4200 H   0  0  0  0  0  0  0  0  0  0  0  0
   -8.4116   23.7467  -31.3702 H   0  0  0  0  0  0  0  0  0  0  0  0
  1  2  1  0
  2  3  1  0
  3  4  2  0
  4  5  1  0
  5  6  2  0
  6  7  1  0
  7  8  1  0
  8  9  1  0
  9 10  2  0
  9 11  1  0
 11 12  1  0
 12 13  2  0
 13 14  1  0
 14 15  2  0
 15 16  1  0
 16 17  2  0
 17 18  1  0
 18 19  2  0
 19 20  1  0
 20 21  2  0
  6  2  1  0
 21 12  1  0
 21 16  1  0
  1 22  1  0
  1 23  1  0
  1 24  1  0
  3 25  1  0
  7 26  1  0
  7 27  1  0
 11 28  1  0
 11 29  1  0
 13 30  1  0
 14 31  1  0
 15 32  1  0
 17 33  1  0
 18 34  1  0
 19 35  1  0
 20 36  1  0
M  CHG  1   8  -1
M  END
>  <UniqueID>  (40) 
37

>  <SMILES>  (40) 
Cn1cnnc1C[N-]C(=O)Cc1cccc2ccccc12

>  <Energy>  (40) 
73.57035980181726

>  <Genealogy>  (40) 
Cn1cnnc1C[N-]C(=O)Cc1cccc2ccccc12 (protonated)
Cn1cnnc1C[N-]C(=O)Cc1cccc2ccccc12 (3D coordinates assigned)
Cn1cnnc1C[N-]C(=O)Cc1cccc2ccccc12 (optimized conformer: 73.57035980181726 kcal/mol)

>  <smiles>  (40) 
Cn1cnnc1CNC(=O)Cc1cccc2ccccc12

>  <score_type>  (40) 
oracle

>  <origin>  (40) 
adg

>  <m_score__min__energy>  (40) 
-10.550000000000001

>  <m_primary>  (40) 
energy

$$$$
40:0
     RDKit          3D

 33 34  0  0  0  0  0  0  0  0999 V2000
   -4.1417   20.5801  -32.7621 H   0  0  0  0  0  0  0  0  0  0  0  0
   -4.5210   20.8730  -31.7720 C   0  0  0  0  0  0  0  0  0  0  0  0
   -5.5170   20.2240  -31.2510 N   0  0  0  0  0  0  0  0  0  0  0  0
   -6.8260   20.2660  -31.7670 N   0  0  0  0  0  0  0  0  0  0  0  0
   -7.8230   21.1510  -31.5270 C   0  0  0  0  0  0  0  0  0  0  0  0
   -7.7700   22.2960  -30.5660 C   0  0  0  0  0  0  0  0  0  0  0  0
   -7.7878   21.9111  -29.5357 H   0  0  0  0  0  0  0  0  0  0  0  0
   -6.8444   22.8679  -30.7278 H   0  0  0  0  0  0  0  0  0  0  0  0
   -8.6388   22.9510  -30.7278 H   0  0  0  0  0  0  0  0  0  0  0  0
   -8.8860   20.9120  -32.3250 N   0  0  0  0  0  0  0  0  0  0  0  0
   -8.5540   19.8840  -33.0930 N   0  0  0  0  0  0  0  0  0  0  0  0
   -9.1670   19.4670  -33.8290 H   0  0  0  0  0  0  0  0  0  0  0  0
   -7.3060   19.5090  -32.7670 C   0  0  0  0  0  0  0  0  0  0  0  0
   -6.4840   18.2990  -33.5020 S   0  0  0  0  0  0  0  0  0  0  0  0
   -3.8890   22.0000  -31.0540 C   0  0  0  0  0  0  0  0  0  0  0  0
   -2.7360   21.8150  -30.2750 C   0  0  0  0  0  0  0  0  0  0  0  0
   -2.2875   20.8141  -30.1909 H   0  0  0  0  0  0  0  0  0  0  0  0
   -2.1550   22.8950  -29.6060 C   0  0  0  0  0  0  0  0  0  0  0  0
   -1.2519   22.7389  -28.9977 H   0  0  0  0  0  0  0  0  0  0  0  0
   -2.7170   24.1810  -29.7050 C   0  0  0  0  0  0  0  0  0  0  0  0
   -2.1610   25.2900  -29.0480 O   0  0  0  0  0  0  0  0  0  0  0  0
   -1.6340   25.2620  -27.7250 C   0  0  0  0  0  0  0  0  0  0  0  0
   -2.4603   25.3059  -27.0002 H   0  0  0  0  0  0  0  0  0  0  0  0
   -1.0650   24.3324  -27.5766 H   0  0  0  0  0  0  0  0  0  0  0  0
   -0.9697   26.1261  -27.5766 H   0  0  0  0  0  0  0  0  0  0  0  0
   -3.8690   24.3750  -30.4820 C   0  0  0  0  0  0  0  0  0  0  0  0
   -4.4070   25.6700  -30.5620 O   0  0  0  0  0  0  0  0  0  0  0  0
   -5.7260   26.0230  -30.1560 C   0  0  0  0  0  0  0  0  0  0  0  0
   -5.7800   26.0374  -29.0574 H   0  0  0  0  0  0  0  0  0  0  0  0
   -5.9761   27.0197  -30.5485 H   0  0  0  0  0  0  0  0  0  0  0  0
   -6.4405   25.2845  -30.5485 H   0  0  0  0  0  0  0  0  0  0  0  0
   -4.4500   23.2810  -31.1540 C   0  0  0  0  0  0  0  0  0  0  0  0
   -5.3530   23.4337  -31.7633 H   0  0  0  0  0  0  0  0  0  0  0  0
  1  2  1  0
  2  3  2  0
  3  4  1  0
  4  5  1  0
  5  6  1  0
  6  7  1  0
  6  8  1  0
  6  9  1  0
  5 10  2  0
 10 11  1  0
 11 12  1  0
 11 13  1  0
 13 14  2  0
  2 15  1  0
 15 16  2  0
 16 17  1  0
 16 18  1  0
 18 19  1  0
 18 20  2  0
 20 21  1  0
 21 22  1  0
 22 23  1  0
 22 24  1  0
 22 25  1  0
 20 26  1  0
 26 27  1  0
 27 28  1  0
 28 29  1  0
 28 30  1  0
 28 31  1  0
 26 32  2  0
 32 33  1  0
 13  4  1  0
 32 15  1  0
M  END
>  <UniqueID>  (41) 
38

>  <SMILES>  (41) 
COc1ccc(/C=N/n2c(C)n[nH]c2=S)cc1OC

>  <Energy>  (41) 
73.18580651019789

>  <Genealogy>  (41) 
COc1ccc(/C=N/n2c(C)n[nH]c2=S)cc1OC (cis-trans isomerization)
COc1ccc(/C=N/n2c(C)n[nH]c2=S)cc1OC (3D coordinates assigned)
COc1ccc(/C=N/n2c(C)n[nH]c2=S)cc1OC (optimized conformer: 73.18580651019789 kcal/mol)

>  <smiles>  (41) 
COc1ccc(C=Nn2c(C)n[nH]c2=S)cc1OC

>  <score_type>  (41) 
oracle

>  <origin>  (41) 
adg

>  <m_score__min__energy>  (41) 
-7.5499999999999998

>  <m_primary>  (41) 
energy

$$$$
41:0
     RDKit          3D

 30 31  0  0  0  0  0  0  0  0999 V2000
   -8.2920   23.3310  -31.9860 C   0  0  0  0  0  0  0  0  0  0  0  0
   -7.4660   23.0510  -30.7350 C   0  0  0  0  0  0  0  0  0  0  0  0
   -6.1600   23.7090  -30.8230 N   0  0  0  0  0  0  0  0  0  0  0  0
   -5.8770   24.9820  -30.4930 C   0  0  0  0  0  0  0  0  0  0  0  0
   -4.5840   25.2700  -30.7310 N   0  0  0  0  0  0  0  0  0  0  0  0
   -4.0210   24.1740  -31.2180 N   0  0  0  0  0  0  0  0  0  0  0  0
   -4.9780   23.2280  -31.2660 C   0  0  0  0  0  0  0  0  0  0  0  0
   -4.7350   21.8400  -31.7880 C   0  0  0  0  0  0  0  0  0  0  0  0
   -5.4190   21.6400  -33.0730 N   0  0  0  0  0  0  0  0  0  0  0  0
   -6.0460   20.3420  -33.1000 C   0  0  0  0  0  0  0  0  0  0  0  0
   -5.4750   19.2890  -33.8370 C   0  0  0  0  0  0  0  0  0  0  0  0
   -6.0690   18.0240  -33.8390 C   0  0  0  0  0  0  0  0  0  0  0  0
   -7.2330   17.7960  -33.0990 C   0  0  0  0  0  0  0  0  0  0  0  0
   -7.8020   18.8310  -32.3530 C   0  0  0  0  0  0  0  0  0  0  0  0
   -8.9270   18.6060  -31.6300 F   0  0  0  0  0  0  0  0  0  0  0  0
   -7.2110   20.0990  -32.3490 C   0  0  0  0  0  0  0  0  0  0  0  0
   -9.2963   23.6714  -31.6937 H   0  0  0  0  0  0  0  0  0  0  0  0
   -7.7994   24.1124  -32.5833 H   0  0  0  0  0  0  0  0  0  0  0  0
   -8.3761   22.4112  -32.5833 H   0  0  0  0  0  0  0  0  0  0  0  0
   -8.0038   23.4309  -29.8539 H   0  0  0  0  0  0  0  0  0  0  0  0
   -7.3116   21.9655  -30.6469 H   0  0  0  0  0  0  0  0  0  0  0  0
   -6.6072   25.6947  -30.0822 H   0  0  0  0  0  0  0  0  0  0  0  0
   -3.6541   21.6910  -31.9275 H   0  0  0  0  0  0  0  0  0  0  0  0
   -5.1301   21.1151  -31.0611 H   0  0  0  0  0  0  0  0  0  0  0  0
   -6.1460   22.3810  -33.2100 H   0  0  0  0  0  0  0  0  0  0  0  0
   -4.7280   21.7170  -33.8570 H   0  0  0  0  0  0  0  0  0  0  0  0
   -4.5554   19.4621  -34.4153 H   0  0  0  0  0  0  0  0  0  0  0  0
   -5.6203   17.2071  -34.4233 H   0  0  0  0  0  0  0  0  0  0  0  0
   -7.7013   16.8007  -33.1042 H   0  0  0  0  0  0  0  0  0  0  0  0
   -7.6591   20.9099  -31.7560 H   0  0  0  0  0  0  0  0  0  0  0  0
  1  2  1  0
  2  3  1  0
  3  4  1  0
  4  5  2  0
  5  6  1  0
  6  7  2  0
  7  8  1  0
  8  9  1  0
  9 10  1  0
 10 11  2  0
 11 12  1  0
 12 13  2  0
 13 14  1  0
 14 15  1  0
 14 16  2  0
  7  3  1  0
 16 10  1  0
  1 17  1  0
  1 18  1  0
  1 19  1  0
  2 20  1  0
  2 21  1  0
  4 22  1  0
  8 23  1  0
  8 24  1  0
  9 25  1  0
  9 26  1  0
 11 27  1  0
 12 28  1  0
 13 29  1  0
 16 30  1  0
M  CHG  1   9   1
M  END
>  <UniqueID>  (42) 
39

>  <SMILES>  (42) 
CCn1cnnc1C[NH2+]c1cccc(F)c1

>  <Energy>  (42) 
60.97156198340971

>  <Genealogy>  (42) 
CCn1cnnc1C[NH2+]c1cccc(F)c1 (protonated)
CCn1cnnc1C[NH2+]c1cccc(F)c1 (3D coordinates assigned)
CCn1cnnc1C[NH2+]c1cccc(F)c1 (optimized conformer: 60.97156198340971 kcal/mol)

>  <smiles>  (42) 
CCn1cnnc1CNc1cccc(F)c1

>  <score_type>  (42) 
oracle

>  <origin>  (42) 
adg

>  <m_score__min__energy>  (42) 
-6.3399999999999999

>  <m_primary>  (42) 
energy

$$$$
42:0
     RDKit          3D

 28 30  0  0  0  0  0  0  0  0999 V2000
   -9.4910   18.9730  -32.7180 O   0  0  0  0  0  0  0  0  0  0  0  0
   -8.9120   20.0550  -32.4210 C   0  0  0  0  0  0  0  0  0  0  0  0
   -9.6770   21.1320  -31.9700 C   0  0  0  0  0  0  0  0  0  0  0  0
   -9.0740   22.3010  -31.6380 N   0  0  0  0  0  0  0  0  0  0  0  0
   -7.7260   22.4490  -31.7400 C   0  0  0  0  0  0  0  0  0  0  0  0
   -7.1200   23.6670  -31.3970 C   0  0  0  0  0  0  0  0  0  0  0  0
   -5.7380   23.8230  -31.5120 C   0  0  0  0  0  0  0  0  0  0  0  0
   -4.9510   22.7680  -31.9710 C   0  0  0  0  0  0  0  0  0  0  0  0
   -5.5380   21.5470  -32.3150 C   0  0  0  0  0  0  0  0  0  0  0  0
   -6.9350   21.3640  -32.2000 C   0  0  0  0  0  0  0  0  0  0  0  0
   -7.5500   20.1760  -32.5280 N   0  0  0  0  0  0  0  0  0  0  0  0
   -6.7890   19.0400  -32.9810 C   0  0  0  0  0  0  0  0  0  0  0  0
   -6.7140   17.8820  -32.1930 C   0  0  0  0  0  0  0  0  0  0  0  0
   -5.9750   16.7800  -32.6340 C   0  0  0  0  0  0  0  0  0  0  0  0
   -5.3110   16.8290  -33.8630 C   0  0  0  0  0  0  0  0  0  0  0  0
   -5.3860   17.9800  -34.6540 C   0  0  0  0  0  0  0  0  0  0  0  0
   -6.1240   19.0840  -34.2150 C   0  0  0  0  0  0  0  0  0  0  0  0
  -10.7691   21.0328  -31.8838 H   0  0  0  0  0  0  0  0  0  0  0  0
   -9.6700   23.0910  -31.3010 H   0  0  0  0  0  0  0  0  0  0  0  0
   -7.7371   24.5029  -31.0357 H   0  0  0  0  0  0  0  0  0  0  0  0
   -5.2689   24.7801  -31.2400 H   0  0  0  0  0  0  0  0  0  0  0  0
   -3.8625   22.8970  -32.0630 H   0  0  0  0  0  0  0  0  0  0  0  0
   -4.9078   20.7218  -32.6781 H   0  0  0  0  0  0  0  0  0  0  0  0
   -7.2375   17.8408  -31.2264 H   0  0  0  0  0  0  0  0  0  0  0  0
   -5.9161   15.8738  -32.0133 H   0  0  0  0  0  0  0  0  0  0  0  0
   -4.7291   15.9617  -34.2083 H   0  0  0  0  0  0  0  0  0  0  0  0
   -4.8644   18.0170  -35.6217 H   0  0  0  0  0  0  0  0  0  0  0  0
   -6.1829   19.9882  -34.8386 H   0  0  0  0  0  0  0  0  0  0  0  0
  1  2  2  0
  2  3  1  0
  3  4  2  0
  4  5  1  0
  5  6  2  0
  6  7  1  0
  7  8  2  0
  8  9  1  0
  9 10  2  0
 10 11  1  0
 11 12  1  0
 12 13  2  0
 13 14  1  0
 14 15  2  0
 15 16  1  0
 16 17  2  0
 11  2  1  0
 17 12  1  0
 10  5  1  0
  3 18  1  0
  4 19  1  0
  6 20  1  0
  7 21  1  0
  8 22  1  0
  9 23  1  0
 13 24  1  0
 14 25  1  0
 15 26  1  0
 16 27  1  0
 17 28  1  0
M  CHG  1   4   1
M  END
>  <UniqueID>  (43) 
40

>  <SMILES>  (43) 
O=c1c[nH+]c2ccccc2n1-c1ccccc1

>  <Energy>  (43) 
46.467247717041246

>  <Genealogy>  (43) 
O=c1c[nH+]c2ccccc2n1-c1ccccc1 (protonated)
O=c1c[nH+]c2ccccc2n1-c1ccccc1 (3D coordinates assigned)
O=c1c[nH+]c2ccccc2n1-c1ccccc1 (optimized conformer: 46.467247717041246 kcal/mol)

>  <smiles>  (43) 
O=c1cnc2ccccc2n1-c1ccccc1

>  <score_type>  (43) 
oracle

>  <origin>  (43) 
adg

>  <m_score__min__energy>  (43) 
-6.3700000000000001

>  <m_primary>  (43) 
energy

$$$$
43:0
     RDKit          3D

 41 42  0  0  0  0  0  0  0  0999 V2000
   -1.9801   20.1488  -30.1548 H   0  0  0  0  0  0  0  0  0  0  0  0
   -2.5920   20.8980  -29.6310 C   0  0  0  0  0  0  0  0  0  0  0  0
   -3.2280   21.9090  -30.3580 C   0  0  0  0  0  0  0  0  0  0  0  0
   -3.1229   21.9470  -31.4523 H   0  0  0  0  0  0  0  0  0  0  0  0
   -3.9990   22.8740  -29.6960 C   0  0  0  0  0  0  0  0  0  0  0  0
   -4.8150   24.1430  -30.6060 S   0  0  0  0  0  0  0  0  0  0  0  0
   -3.8910   25.3060  -30.8380 O   0  0  0  0  0  0  0  0  0  0  0  0
   -6.0080   24.6140  -29.8230 O   0  0  0  0  0  0  0  0  0  0  0  0
   -5.3460   23.5260  -32.1390 N   0  0  0  0  0  0  0  0  0  0  0  0
   -5.9670   22.3950  -32.3020 C   0  0  0  0  0  0  0  0  0  0  0  0
   -5.2460   20.9460  -32.7540 S   0  0  0  0  0  0  0  0  0  0  0  0
   -6.6820   20.0700  -32.7070 C   0  0  0  0  0  0  0  0  0  0  0  0
   -6.7300   18.5900  -33.0200 C   0  0  0  0  0  0  0  0  0  0  0  0
   -7.7646   18.3726  -33.3238 H   0  0  0  0  0  0  0  0  0  0  0  0
   -5.8190   18.2330  -34.1990 C   0  0  0  0  0  0  0  0  0  0  0  0
   -4.8579   17.8564  -33.8188 H   0  0  0  0  0  0  0  0  0  0  0  0
   -6.3002   17.4569  -34.8123 H   0  0  0  0  0  0  0  0  0  0  0  0
   -5.6448   19.1294  -34.8123 H   0  0  0  0  0  0  0  0  0  0  0  0
   -6.4610   17.7060  -31.7960 C   0  0  0  0  0  0  0  0  0  0  0  0
   -6.6376   18.2865  -30.8785 H   0  0  0  0  0  0  0  0  0  0  0  0
   -7.1354   16.8372  -31.8158 H   0  0  0  0  0  0  0  0  0  0  0  0
   -5.4170   17.3602  -31.8158 H   0  0  0  0  0  0  0  0  0  0  0  0
   -7.7120   20.9450  -32.2980 C   0  0  0  0  0  0  0  0  0  0  0  0
   -9.1520   20.5280  -32.1460 C   0  0  0  0  0  0  0  0  0  0  0  0
   -9.4019   20.4556  -31.0772 H   0  0  0  0  0  0  0  0  0  0  0  0
   -9.8025   21.2747  -32.6249 H   0  0  0  0  0  0  0  0  0  0  0  0
   -9.3028   19.5493  -32.6249 H   0  0  0  0  0  0  0  0  0  0  0  0
   -7.3030   22.2440  -32.1110 N   0  0  0  0  0  0  0  0  0  0  0  0
   -8.1960   23.3400  -31.7130 C   0  0  0  0  0  0  0  0  0  0  0  0
   -8.2414   23.3957  -30.6154 H   0  0  0  0  0  0  0  0  0  0  0  0
   -7.8114   24.2899  -32.1128 H   0  0  0  0  0  0  0  0  0  0  0  0
   -9.2040   23.1552  -32.1128 H   0  0  0  0  0  0  0  0  0  0  0  0
   -4.1180   22.8270  -28.3010 C   0  0  0  0  0  0  0  0  0  0  0  0
   -4.7132   23.5887  -27.7761 H   0  0  0  0  0  0  0  0  0  0  0  0
   -3.4840   21.8170  -27.5740 C   0  0  0  0  0  0  0  0  0  0  0  0
   -3.5752   21.7911  -26.4781 H   0  0  0  0  0  0  0  0  0  0  0  0
   -2.7310   20.8350  -28.2360 C   0  0  0  0  0  0  0  0  0  0  0  0
   -2.0200   19.7720  -27.4530 C   0  0  0  0  0  0  0  0  0  0  0  0
   -2.1472   19.9622  -26.3771 H   0  0  0  0  0  0  0  0  0  0  0  0
   -2.4422   18.7877  -27.7038 H   0  0  0  0  0  0  0  0  0  0  0  0
   -0.9491   19.7863  -27.7038 H   0  0  0  0  0  0  0  0  0  0  0  0
  1  2  1  0
  2  3  2  0
  3  4  1  0
  3  5  1  0
  5  6  1  0
  6  7  2  0
  6  8  2  0
  6  9  1  0
  9 10  2  0
 10 11  1  0
 11 12  1  0
 12 13  1  0
 13 14  1  0
 13 15  1  0
 15 16  1  0
 15 17  1  0
 15 18  1  0
 13 19  1  0
 19 20  1  0
 19 21  1  0
 19 22  1  0
 12 23  2  0
 23 24  1  0
 24 25  1  0
 24 26  1  0
 24 27  1  0
 23 28  1  0
 28 29  1  0
 29 30  1  0
 29 31  1  0
 29 32  1  0
  5 33  2  0
 33 34  1  0
 33 35  1  0
 35 36  1  0
 35 37  2  0
 37 38  1  0
 38 39  1  0
 38 40  1  0
 38 41  1  0
 37  2  1  0
 28 10  1  0
M  END
>  <UniqueID>  (44) 
41

>  <SMILES>  (44) 
Cc1ccc(S(=O)(=O)/N=c2\sc(C(C)C)c(C)n2C)cc1

>  <Energy>  (44) 
72.05949200437189

>  <Genealogy>  (44) 
Cc1ccc(S(=O)(=O)/N=c2\sc(C(C)C)c(C)n2C)cc1 (cis-trans isomerization)
Cc1ccc(S(=O)(=O)/N=c2\sc(C(C)C)c(C)n2C)cc1 (3D coordinates assigned)
Cc1ccc(S(=O)(=O)/N=c2\sc(C(C)C)c(C)n2C)cc1 (optimized conformer: 72.05949200437189 kcal/mol)

>  <smiles>  (44) 
Cc1ccc(S(=O)(=O)N=c2sc(C(C)C)c(C)n2C)cc1

>  <score_type>  (44) 
oracle

>  <origin>  (44) 
adg

>  <m_score__min__energy>  (44) 
-8.6099999999999994

>  <m_primary>  (44) 
energy

$$$$
44:0
     RDKit          3D

 43 45  0  0  0  0  0  0  0  0999 V2000
   -3.0660   18.5670  -25.7600 C   0  0  0  0  0  0  0  0  0  0  0  0
   -1.9360   19.1770  -26.3750 O   0  0  0  0  0  0  0  0  0  0  0  0
   -1.9820   19.8980  -27.5770 C   0  0  0  0  0  0  0  0  0  0  0  0
   -1.0660   19.6770  -28.6250 C   0  0  0  0  0  0  0  0  0  0  0  0
   -1.1580   20.4180  -29.8070 C   0  0  0  0  0  0  0  0  0  0  0  0
   -2.1670   21.3760  -29.9620 C   0  0  0  0  0  0  0  0  0  0  0  0
   -2.2930   22.3130  -31.4880 S   0  0  0  0  0  0  0  0  0  0  0  0
   -4.0830   22.5220  -31.3440 C   0  0  0  0  0  0  0  0  0  0  0  0
   -4.9910   21.5190  -31.7480 C   0  0  0  0  0  0  0  0  0  0  0  0
   -4.4910   20.2520  -32.4130 C   0  0  0  0  0  0  0  0  0  0  0  0
   -6.3350   21.7060  -31.5170 N   0  0  0  0  0  0  0  0  0  0  0  0
   -7.2950   20.6720  -31.8100 C   0  0  0  0  0  0  0  0  0  0  0  0
   -7.0090   19.3300  -31.5090 C   0  0  0  0  0  0  0  0  0  0  0  0
   -7.9500   18.3330  -31.7840 C   0  0  0  0  0  0  0  0  0  0  0  0
   -9.1830   18.6700  -32.3480 C   0  0  0  0  0  0  0  0  0  0  0  0
   -9.4790   20.0060  -32.6350 C   0  0  0  0  0  0  0  0  0  0  0  0
   -8.5400   21.0060  -32.3640 C   0  0  0  0  0  0  0  0  0  0  0  0
   -6.7940   22.8560  -31.0050 N   0  0  0  0  0  0  0  0  0  0  0  0
   -5.9620   23.8800  -30.6670 C   0  0  0  0  0  0  0  0  0  0  0  0
   -6.5240   25.1470  -30.0820 C   0  0  0  0  0  0  0  0  0  0  0  0
   -4.5840   23.7180  -30.8210 C   0  0  0  0  0  0  0  0  0  0  0  0
   -3.7950   24.6470  -30.4910 O   0  0  0  0  0  0  0  0  0  0  0  0
   -3.0660   21.6110  -28.9160 C   0  0  0  0  0  0  0  0  0  0  0  0
   -2.9760   20.8710  -27.7330 C   0  0  0  0  0  0  0  0  0  0  0  0
   -2.9628   18.6227  -24.6663 H   0  0  0  0  0  0  0  0  0  0  0  0
   -3.9807   19.0939  -26.0693 H   0  0  0  0  0  0  0  0  0  0  0  0
   -3.1275   17.5132  -26.0693 H   0  0  0  0  0  0  0  0  0  0  0  0
   -0.2765   18.9194  -28.5127 H   0  0  0  0  0  0  0  0  0  0  0  0
   -0.4349   20.2476  -30.6182 H   0  0  0  0  0  0  0  0  0  0  0  0
   -4.2030   19.5223  -31.6419 H   0  0  0  0  0  0  0  0  0  0  0  0
   -5.2890   19.8274  -33.0398 H   0  0  0  0  0  0  0  0  0  0  0  0
   -3.6181   20.4868  -33.0398 H   0  0  0  0  0  0  0  0  0  0  0  0
   -6.0428   19.0629  -31.0560 H   0  0  0  0  0  0  0  0  0  0  0  0
   -7.7192   17.2819  -31.5560 H   0  0  0  0  0  0  0  0  0  0  0  0
   -9.9210   17.8841  -32.5663 H   0  0  0  0  0  0  0  0  0  0  0  0
  -10.4520   20.2708  -33.0746 H   0  0  0  0  0  0  0  0  0  0  0  0
   -8.7779   22.0568  -32.5856 H   0  0  0  0  0  0  0  0  0  0  0  0
   -7.8210   22.9720  -30.8460 H   0  0  0  0  0  0  0  0  0  0  0  0
   -6.4975   25.0872  -28.9840 H   0  0  0  0  0  0  0  0  0  0  0  0
   -5.9217   26.0043  -30.4172 H   0  0  0  0  0  0  0  0  0  0  0  0
   -7.5637   25.2759  -30.4172 H   0  0  0  0  0  0  0  0  0  0  0  0
   -3.8454   22.3796  -29.0245 H   0  0  0  0  0  0  0  0  0  0  0  0
   -3.6921   21.0550  -26.9185 H   0  0  0  0  0  0  0  0  0  0  0  0
  1  2  1  0
  2  3  1  0
  3  4  2  0
  4  5  1  0
  5  6  2  0
  6  7  1  0
  7  8  1  0
  8  9  2  0
  9 10  1  0
  9 11  1  0
 11 12  1  0
 12 13  2  0
 13 14  1  0
 14 15  2  0
 15 16  1  0
 16 17  2  0
 11 18  1  0
 18 19  2  0
 19 20  1  0
 19 21  1  0
 21 22  2  0
  6 23  1  0
 23 24  2  0
 24  3  1  0
 21  8  1  0
 17 12  1  0
  1 25  1  0
  1 26  1  0
  1 27  1  0
  4 28  1  0
  5 29  1  0
 10 30  1  0
 10 31  1  0
 10 32  1  0
 13 33  1  0
 14 34  1  0
 15 35  1  0
 16 36  1  0
 17 37  1  0
 18 38  1  0
 20 39  1  0
 20 40  1  0
 20 41  1  0
 23 42  1  0
 24 43  1  0
M  CHG  1  18   1
M  END
>  <UniqueID>  (45) 
42

>  <SMILES>  (45) 
COc1ccc(Sc2c(C)n(-c3ccccc3)[nH+]c(C)c2=O)cc1

>  <Energy>  (45) 
51.6179009872088

>  <Genealogy>  (45) 
COc1ccc(Sc2c(C)n(-c3ccccc3)[nH+]c(C)c2=O)cc1 (protonated)
COc1ccc(Sc2c(C)n(-c3ccccc3)[nH+]c(C)c2=O)cc1 (3D coordinates assigned)
COc1ccc(Sc2c(C)n(-c3ccccc3)[nH+]c(C)c2=O)cc1 (optimized conformer: 51.6179009872088 kcal/mol)

>  <smiles>  (45) 
COc1ccc(Sc2c(C)n(-c3ccccc3)nc(C)c2=O)cc1

>  <score_type>  (45) 
oracle

>  <origin>  (45) 
adg

>  <m_score__min__energy>  (45) 
-7.9000000000000004

>  <m_primary>  (45) 
energy

$$$$
45:0
     RDKit          3D

 67 71  0  0  0  0  0  0  0  0999 V2000
   -8.6720   20.0010  -32.9750 C   0  0  0  0  0  0  0  0  0  0  0  0
   -7.7210   20.9150  -32.2460 C   0  0  0  0  0  0  0  0  0  0  0  0
   -8.2110   22.0680  -31.6160 C   0  0  0  0  0  0  0  0  0  0  0  0
   -7.3450   22.9330  -30.9440 C   0  0  0  0  0  0  0  0  0  0  0  0
   -5.9670   22.6660  -30.8850 C   0  0  0  0  0  0  0  0  0  0  0  0
   -5.0600   23.5870  -30.1560 C   0  0  0  0  0  0  0  0  0  0  0  0
   -4.3710   24.4190  -30.8060 O   0  0  0  0  0  0  0  0  0  0  0  0
   -5.0050   23.5820  -28.7180 N   0  0  0  0  0  0  0  0  0  0  0  0
   -3.9420   24.1780  -27.9540 C   0  0  0  0  0  0  0  0  0  0  0  0
   -4.2390   24.7960  -26.7360 C   0  0  0  0  0  0  0  0  0  0  0  0
   -3.2280   25.3670  -25.9650 C   0  0  0  0  0  0  0  0  0  0  0  0
   -1.8830   25.3060  -26.3730 C   0  0  0  0  0  0  0  0  0  0  0  0
   -0.8230   25.9370  -25.4790 C   0  0  0  0  0  0  0  0  0  0  0  0
   -0.3130   27.2430  -25.9600 N   0  0  0  0  0  0  0  0  0  0  0  0
   -0.7920   28.3980  -25.1800 C   0  0  0  0  0  0  0  0  0  0  0  0
   -0.4880   29.7090  -25.9350 C   0  0  0  0  0  0  0  0  0  0  0  0
    0.5150   29.5060  -27.0040 N   0  0  0  0  0  0  0  0  0  0  0  0
    0.9990   30.8020  -27.5040 C   0  0  0  0  0  0  0  0  0  0  0  0
    1.6410   28.6950  -26.5060 C   0  0  0  0  0  0  0  0  0  0  0  0
    1.1530   27.2800  -26.1350 C   0  0  0  0  0  0  0  0  0  0  0  0
   -1.5740   24.6970  -27.6190 C   0  0  0  0  0  0  0  0  0  0  0  0
   -0.1750   24.6950  -28.1840 C   0  0  0  0  0  0  0  0  0  0  0  0
   -2.6070   24.1230  -28.3830 C   0  0  0  0  0  0  0  0  0  0  0  0
   -5.4690   21.5240  -31.5400 C   0  0  0  0  0  0  0  0  0  0  0  0
   -6.3340   20.6510  -32.2140 C   0  0  0  0  0  0  0  0  0  0  0  0
   -5.7780   19.4900  -32.8670 C   0  0  0  0  0  0  0  0  0  0  0  0
   -5.3170   18.5180  -33.4100 C   0  0  0  0  0  0  0  0  0  0  0  0
   -4.7720   17.3560  -34.0600 C   0  0  0  0  0  0  0  0  0  0  0  0
   -4.2910   17.2880  -35.3560 C   0  0  0  0  0  0  0  0  0  0  0  0
   -3.8630   16.0280  -35.6170 N   0  0  0  0  0  0  0  0  0  0  0  0
   -4.1010   15.3670  -34.4640 C   0  0  0  0  0  0  0  0  0  0  0  0
   -3.8290   14.0210  -34.2240 C   0  0  0  0  0  0  0  0  0  0  0  0
   -4.1470   13.5060  -32.9560 C   0  0  0  0  0  0  0  0  0  0  0  0
   -4.7200   14.3370  -31.9740 C   0  0  0  0  0  0  0  0  0  0  0  0
   -4.9720   15.6850  -32.2690 C   0  0  0  0  0  0  0  0  0  0  0  0
   -4.6470   16.1390  -33.5090 N   0  0  0  0  0  0  0  0  0  0  0  0
   -9.2651   19.4310  -32.2447 H   0  0  0  0  0  0  0  0  0  0  0  0
   -9.3449   20.6000  -33.6062 H   0  0  0  0  0  0  0  0  0  0  0  0
   -8.1002   19.3049  -33.6062 H   0  0  0  0  0  0  0  0  0  0  0  0
   -9.2872   22.2930  -31.6515 H   0  0  0  0  0  0  0  0  0  0  0  0
   -7.7461   23.8333  -30.4555 H   0  0  0  0  0  0  0  0  0  0  0  0
   -5.8530   23.2620  -28.2000 H   0  0  0  0  0  0  0  0  0  0  0  0
   -5.2801   24.8320  -26.3827 H   0  0  0  0  0  0  0  0  0  0  0  0
   -3.4857   25.8731  -25.0230 H   0  0  0  0  0  0  0  0  0  0  0  0
   -1.2594   26.0851  -24.4802 H   0  0  0  0  0  0  0  0  0  0  0  0
    0.0344   25.2479  -25.4752 H   0  0  0  0  0  0  0  0  0  0  0  0
   -1.8777   28.3092  -25.0274 H   0  0  0  0  0  0  0  0  0  0  0  0
   -0.2781   28.4145  -24.2076 H   0  0  0  0  0  0  0  0  0  0  0  0
   -1.4184   30.0844  -26.3860 H   0  0  0  0  0  0  0  0  0  0  0  0
   -0.0789   30.4324  -25.2143 H   0  0  0  0  0  0  0  0  0  0  0  0
    1.2430   31.4553  -26.6533 H   0  0  0  0  0  0  0  0  0  0  0  0
    1.8994   30.6457  -28.1163 H   0  0  0  0  0  0  0  0  0  0  0  0
    0.2166   31.2741  -28.1163 H   0  0  0  0  0  0  0  0  0  0  0  0
    2.4100   28.6208  -27.2890 H   0  0  0  0  0  0  0  0  0  0  0  0
    2.0626   29.1761  -25.6111 H   0  0  0  0  0  0  0  0  0  0  0  0
    1.4351   26.5825  -26.9374 H   0  0  0  0  0  0  0  0  0  0  0  0
    1.6222   26.9911  -25.1830 H   0  0  0  0  0  0  0  0  0  0  0  0
    0.5533   24.6940  -27.3597 H   0  0  0  0  0  0  0  0  0  0  0  0
   -0.0305   23.7966  -28.8021 H   0  0  0  0  0  0  0  0  0  0  0  0
   -0.0279   25.5929  -28.8021 H   0  0  0  0  0  0  0  0  0  0  0  0
   -2.3640   23.6229  -29.3322 H   0  0  0  0  0  0  0  0  0  0  0  0
   -4.3893   21.3144  -31.5228 H   0  0  0  0  0  0  0  0  0  0  0  0
   -4.2605   18.1277  -36.0659 H   0  0  0  0  0  0  0  0  0  0  0  0
   -3.3808   13.3839  -35.0007 H   0  0  0  0  0  0  0  0  0  0  0  0
   -3.9474   12.4483  -32.7292 H   0  0  0  0  0  0  0  0  0  0  0  0
   -4.9684   13.9316  -30.9820 H   0  0  0  0  0  0  0  0  0  0  0  0
   -5.4191   16.3548  -31.5197 H   0  0  0  0  0  0  0  0  0  0  0  0
  1  2  1  0
  2  3  2  0
  3  4  1  0
  4  5  2  0
  5  6  1  0
  6  7  2  0
  6  8  1  0
  8  9  1  0
  9 10  2  0
 10 11  1  0
 11 12  2  0
 12 13  1  0
 13 14  1  0
 14 15  1  0
 15 16  1  0
 16 17  1  0
 17 18  1  0
 17 19  1  0
 19 20  1  0
 12 21  1  0
 21 22  1  0
 21 23  2  0
  5 24  1  0
 24 25  2  0
 25 26  1  0
 26 27  3  0
 27 28  1  0
 28 29  2  0
 29 30  1  0
 30 31  2  0
 31 32  1  0
 32 33  2  0
 33 34  1  0
 34 35  2  0
 35 36  1  0
 25  2  1  0
 36 28  1  0
 23  9  1  0
 36 31  1  0
 20 14  1  0
  1 37  1  0
  1 38  1  0
  1 39  1  0
  3 40  1  0
  4 41  1  0
  8 42  1  0
 10 43  1  0
 11 44  1  0
 13 45  1  0
 13 46  1  0
 15 47  1  0
 15 48  1  0
 16 49  1  0
 16 50  1  0
 18 51  1  0
 18 52  1  0
 18 53  1  0
 19 54  1  0
 19 55  1  0
 20 56  1  0
 20 57  1  0
 22 58  1  0
 22 59  1  0
 22 60  1  0
 23 61  1  0
 24 62  1  0
 29 63  1  0
 32 64  1  0
 33 65  1  0
 34 66  1  0
 35 67  1  0
M  END
>  <UniqueID>  (46) 
43

>  <SMILES>  (46) 
Cc1ccc(C(=O)Nc2ccc(CN3CCN(C)CC3)c(C)c2)cc1C#Cc1cnc2ccccn12

>  <Energy>  (46) 
122.50026008360764

>  <Genealogy>  (46) 
Cc1ccc(C(=O)Nc2ccc(CN3CCN(C)CC3)c(C)c2)cc1C#Cc1cnc2ccccn12 (3D coordinates assigned)
Cc1ccc(C(=O)Nc2ccc(CN3CCN(C)CC3)c(C)c2)cc1C#Cc1cnc2ccccn12 (nonaromatic ring conformer: 122.50026008360764 kcal/mol)

>  <smiles>  (46) 
Cc1ccc(C(=O)Nc2ccc(CN3CCN(C)CC3)c(C)c2)cc1C#Cc1cnc2ccccn12

>  <score_type>  (46) 
oracle

>  <origin>  (46) 
adg

>  <m_score__min__energy>  (46) 
-10.16

>  <m_primary>  (46) 
energy

$$$$
46:0
     RDKit          3D

 27 29  0  0  0  0  0  0  0  0999 V2000
   -4.2310   25.6800  -30.6830 O   0  0  0  0  0  0  0  0  0  0  0  0
   -4.3420   24.4360  -30.5070 C   0  0  0  0  0  0  0  0  0  0  0  0
   -5.4500   23.7730  -31.0350 C   0  0  0  0  0  0  0  0  0  0  0  0
   -5.5880   22.3830  -30.8460 C   0  0  0  0  0  0  0  0  0  0  0  0
   -6.7430   21.5980  -31.3780 C   0  0  0  0  0  0  0  0  0  0  0  0
   -6.5870   20.3650  -32.0540 C   0  0  0  0  0  0  0  0  0  0  0  0
   -7.7020   19.6690  -32.5320 C   0  0  0  0  0  0  0  0  0  0  0  0
   -8.9850   20.1840  -32.3490 C   0  0  0  0  0  0  0  0  0  0  0  0
   -9.1590   21.3980  -31.6850 C   0  0  0  0  0  0  0  0  0  0  0  0
   -8.0500   22.1000  -31.2040 C   0  0  0  0  0  0  0  0  0  0  0  0
   -4.6480   21.7330  -30.1610 O   0  0  0  0  0  0  0  0  0  0  0  0
   -3.5760   22.3190  -29.6390 C   0  0  0  0  0  0  0  0  0  0  0  0
   -2.6460   21.5450  -28.9370 C   0  0  0  0  0  0  0  0  0  0  0  0
   -1.5130   22.1410  -28.3810 C   0  0  0  0  0  0  0  0  0  0  0  0
   -1.3020   23.5140  -28.5240 C   0  0  0  0  0  0  0  0  0  0  0  0
   -2.2200   24.3040  -29.2230 C   0  0  0  0  0  0  0  0  0  0  0  0
   -1.9740   25.6680  -29.3430 O   0  0  0  0  0  0  0  0  0  0  0  0
   -3.3720   23.7100  -29.7900 C   0  0  0  0  0  0  0  0  0  0  0  0
   -6.2127   24.3325  -31.5964 H   0  0  0  0  0  0  0  0  0  0  0  0
   -5.5796   19.9499  -32.2050 H   0  0  0  0  0  0  0  0  0  0  0  0
   -7.5663   18.7108  -33.0548 H   0  0  0  0  0  0  0  0  0  0  0  0
   -9.8586   19.6334  -32.7279 H   0  0  0  0  0  0  0  0  0  0  0  0
  -10.1709   21.8039  -31.5395 H   0  0  0  0  0  0  0  0  0  0  0  0
   -8.1984   23.0571  -30.6826 H   0  0  0  0  0  0  0  0  0  0  0  0
   -2.8082   20.4630  -28.8228 H   0  0  0  0  0  0  0  0  0  0  0  0
   -0.7850   21.5282  -27.8292 H   0  0  0  0  0  0  0  0  0  0  0  0
   -0.4070   23.9775  -28.0835 H   0  0  0  0  0  0  0  0  0  0  0  0
  1  2  2  0
  2  3  1  0
  3  4  2  0
  4  5  1  0
  5  6  2  0
  6  7  1  0
  7  8  2  0
  8  9  1  0
  9 10  2  0
  4 11  1  0
 11 12  1  0
 12 13  2  0
 13 14  1  0
 14 15  2  0
 15 16  1  0
 16 17  1  0
 16 18  2  0
 18  2  1  0
 10  5  1  0
 18 12  1  0
  3 19  1  0
  6 20  1  0
  7 21  1  0
  8 22  1  0
  9 23  1  0
 10 24  1  0
 13 25  1  0
 14 26  1  0
 15 27  1  0
M  CHG  1  17  -1
M  END
>  <UniqueID>  (47) 
44

>  <SMILES>  (47) 
O=c1cc(-c2ccccc2)oc2cccc([O-])c12

>  <Energy>  (47) 
41.08953034019325

>  <Genealogy>  (47) 
O=c1cc(-c2ccccc2)oc2cccc([O-])c12 (protonated)
O=c1cc(-c2ccccc2)oc2cccc([O-])c12 (3D coordinates assigned)
O=c1cc(-c2ccccc2)oc2cccc([O-])c12 (optimized conformer: 41.08953034019325 kcal/mol)

>  <smiles>  (47) 
O=c1cc(-c2ccccc2)oc2cccc(O)c12

>  <score_type>  (47) 
oracle

>  <origin>  (47) 
adg

>  <m_score__min__energy>  (47) 
-10.82

>  <m_primary>  (47) 
energy

$$$$
47:0
     RDKit          3D

 18 18  0  0  1  0  0  0  0  0999 V2000
   -3.1740   24.3290  -29.4660 C   0  0  0  0  0  0  0  0  0  0  0  0
   -4.0730   24.9020  -30.4570 N   0  0  0  0  0  0  0  0  0  0  0  0
   -5.1760   24.2620  -30.6920 C   0  0  0  0  0  0  0  0  0  0  0  0
   -5.3610   23.8150  -31.9680 N   0  0  0  0  0  0  0  0  0  0  0  0
   -6.5030   23.1490  -32.2230 C   0  0  0  0  0  0  0  0  0  0  0  0
   -7.4440   22.9310  -31.2260 C   0  0  0  0  0  0  0  0  0  0  0  0
   -8.9650   22.0350  -31.5940 S   0  0  0  0  0  0  0  0  0  0  0  0
   -8.5200   20.4140  -32.2890 C   0  0  0  0  0  0  0  0  0  0  0  0
   -7.2340   23.3850  -29.9720 N   0  0  0  0  0  0  0  0  0  0  0  0
   -6.1060   24.0390  -29.7350 N   0  0  0  0  0  0  0  0  0  0  0  0
   -3.5430   24.5642  -28.4568 H   0  0  0  0  0  0  0  0  0  0  0  0
   -3.1326   23.2375  -29.5962 H   0  0  0  0  0  0  0  0  0  0  0  0
   -2.1671   24.7523  -29.5962 H   0  0  0  0  0  0  0  0  0  0  0  0
   -6.6936   22.7713  -33.2384 H   0  0  0  0  0  0  0  0  0  0  0  0
   -8.3254   19.7051  -31.4707 H   0  0  0  0  0  0  0  0  0  0  0  0
   -9.3488   20.0405  -32.9083 H   0  0  0  0  0  0  0  0  0  0  0  0
   -7.6166   20.5161  -32.9083 H   0  0  0  0  0  0  0  0  0  0  0  0
   -5.9580   24.3810  -28.7710 H   0  0  0  0  0  0  0  0  0  0  0  0
  1  2  1  0
  2  3  2  0
  3  4  1  0
  4  5  2  0
  5  6  1  0
  6  7  1  0
  7  8  1  0
  6  9  2  0
  9 10  1  0
 10  3  1  0
  1 11  1  0
  1 12  1  0
  1 13  1  0
  5 14  1  0
  8 15  1  0
  8 16  1  0
  8 17  1  0
 10 18  1  0
M  END
>  <smiles>  (48) 
CN=c1ncc(SC)n[nH]1

>  <score_type>  (48) 
oracle

>  <origin>  (48) 
adg

>  <m_score__min__energy>  (48) 
-4.75

>  <m_primary>  (48) 
energy

$$$$
48:0
     RDKit          3D

 29 31  0  0  0  0  0  0  0  0999 V2000
   -9.1000   20.5880  -31.0730 O   0  0  0  0  0  0  0  0  0  0  0  0
   -8.1070   20.5590  -31.8500 C   0  0  0  0  0  0  0  0  0  0  0  0
   -7.4270   21.6490  -32.2700 N   0  0  0  0  0  0  0  0  0  0  0  0
   -7.7250   23.0500  -31.9860 C   0  0  0  0  0  0  0  0  0  0  0  0
   -6.5890   23.6670  -31.2200 C   0  0  0  0  0  0  0  0  0  0  0  0
   -6.8250   24.7500  -30.3560 C   0  0  0  0  0  0  0  0  0  0  0  0
   -5.7750   25.2990  -29.6120 C   0  0  0  0  0  0  0  0  0  0  0  0
   -4.4880   24.7630  -29.7160 C   0  0  0  0  0  0  0  0  0  0  0  0
   -4.2490   23.6760  -30.5610 C   0  0  0  0  0  0  0  0  0  0  0  0
   -5.2960   23.1250  -31.3080 C   0  0  0  0  0  0  0  0  0  0  0  0
   -6.4730   21.2300  -33.0960 N   0  0  0  0  0  0  0  0  0  0  0  0
   -6.5800   19.8870  -33.1520 C   0  0  0  0  0  0  0  0  0  0  0  0
   -5.7990   19.0060  -33.8950 C   0  0  0  0  0  0  0  0  0  0  0  0
   -6.1070   17.6380  -33.8050 C   0  0  0  0  0  0  0  0  0  0  0  0
   -7.1720   17.1940  -32.9920 C   0  0  0  0  0  0  0  0  0  0  0  0
   -7.9270   18.1320  -32.2680 C   0  0  0  0  0  0  0  0  0  0  0  0
   -7.5900   19.4410  -32.3840 N   0  0  0  0  0  0  0  0  0  0  0  0
   -7.8646   23.5928  -32.9325 H   0  0  0  0  0  0  0  0  0  0  0  0
   -8.6440   23.1111  -31.3846 H   0  0  0  0  0  0  0  0  0  0  0  0
   -7.8386   25.1674  -30.2644 H   0  0  0  0  0  0  0  0  0  0  0  0
   -5.9623   26.1531  -28.9446 H   0  0  0  0  0  0  0  0  0  0  0  0
   -3.6629   25.1972  -29.1323 H   0  0  0  0  0  0  0  0  0  0  0  0
   -3.2366   23.2530  -30.6390 H   0  0  0  0  0  0  0  0  0  0  0  0
   -5.1060   22.2645  -31.9664 H   0  0  0  0  0  0  0  0  0  0  0  0
   -5.7950   21.8390  -33.6070 H   0  0  0  0  0  0  0  0  0  0  0  0
   -4.9740   19.3663  -34.5271 H   0  0  0  0  0  0  0  0  0  0  0  0
   -5.5131   16.9068  -34.3730 H   0  0  0  0  0  0  0  0  0  0  0  0
   -7.4090   16.1219  -32.9258 H   0  0  0  0  0  0  0  0  0  0  0  0
   -8.7639   17.8154  -31.6281 H   0  0  0  0  0  0  0  0  0  0  0  0
  1  2  2  0
  2  3  1  0
  3  4  1  0
  4  5  1  0
  5  6  2  0
  6  7  1  0
  7  8  2  0
  8  9  1  0
  9 10  2  0
  3 11  1  0
 11 12  2  0
 12 13  1  0
 13 14  2  0
 14 15  1  0
 15 16  2  0
 16 17  1  0
 17  2  1  0
 10  5  1  0
 17 12  1  0
  4 18  1  0
  4 19  1  0
  6 20  1  0
  7 21  1  0
  8 22  1  0
  9 23  1  0
 10 24  1  0
 11 25  1  0
 13 26  1  0
 14 27  1  0
 15 28  1  0
 16 29  1  0
M  CHG  1  11   1
M  END
>  <UniqueID>  (49) 
45

>  <SMILES>  (49) 
O=c1n(Cc2ccccc2)[nH+]c2ccccn12

>  <Energy>  (49) 
75.03771110478017

>  <Genealogy>  (49) 
O=c1n(Cc2ccccc2)[nH+]c2ccccn12 (protonated)
O=c1n(Cc2ccccc2)[nH+]c2ccccn12 (3D coordinates assigned)
O=c1n(Cc2ccccc2)[nH+]c2ccccn12 (optimized conformer: 75.03771110478017 kcal/mol)

>  <smiles>  (49) 
O=c1n(Cc2ccccc2)nc2ccccn12

>  <score_type>  (49) 
oracle

>  <origin>  (49) 
adg

>  <m_score__min__energy>  (49) 
-6.5999999999999996

>  <m_primary>  (49) 
energy

$$$$
49:0
     RDKit          3D

 40 41  0  0  0  0  0  0  0  0999 V2000
   -9.0620   23.4130  -32.4450 C   0  0  0  0  0  0  0  0  0  0  0  0
   -7.8170   22.8680  -31.8650 N   0  0  0  0  0  0  0  0  0  0  0  0
   -8.1280   21.5530  -31.2560 C   0  0  0  0  0  0  0  0  0  0  0  0
   -7.5680   20.4340  -32.0760 C   0  0  0  0  0  0  0  0  0  0  0  0
   -6.5710   20.5180  -33.0300 C   0  0  0  0  0  0  0  0  0  0  0  0
   -6.3100   19.2830  -33.5030 N   0  0  0  0  0  0  0  0  0  0  0  0
   -7.1200   18.4370  -32.8840 N   0  0  0  0  0  0  0  0  0  0  0  0
   -7.0810   16.9930  -33.0690 C   0  0  0  0  0  0  0  0  0  0  0  0
   -7.8910   19.0960  -31.9990 C   0  0  0  0  0  0  0  0  0  0  0  0
   -7.2400   23.8140  -30.8670 C   0  0  0  0  0  0  0  0  0  0  0  0
   -5.6780   23.7610  -30.8130 C   0  0  2  0  0  0  0  0  0  0  0  0
   -5.2070   23.5100  -32.1190 O   0  0  0  0  0  0  0  0  0  0  0  0
   -5.2010   22.6110  -29.8660 C   0  0  0  0  0  0  0  0  0  0  0  0
   -3.9070   21.9960  -30.2220 N   0  0  0  0  0  0  0  0  0  0  0  0
   -2.7490   22.9010  -30.2970 C   0  0  0  0  0  0  0  0  0  0  0  0
   -3.0070   24.3130  -29.7130 C   0  0  0  0  0  0  0  0  0  0  0  0
   -3.7070   25.2090  -30.5640 O   0  0  0  0  0  0  0  0  0  0  0  0
   -5.1050   25.1400  -30.3630 C   0  0  0  0  0  0  0  0  0  0  0  0
   -9.7438   23.7115  -31.6351 H   0  0  0  0  0  0  0  0  0  0  0  0
   -8.8243   24.2894  -33.0659 H   0  0  0  0  0  0  0  0  0  0  0  0
   -9.5447   22.6439  -33.0659 H   0  0  0  0  0  0  0  0  0  0  0  0
   -7.6919   21.5122  -30.2470 H   0  0  0  0  0  0  0  0  0  0  0  0
   -9.2211   21.4391  -31.2095 H   0  0  0  0  0  0  0  0  0  0  0  0
   -6.0711   21.4437  -33.3514 H   0  0  0  0  0  0  0  0  0  0  0  0
   -7.0676   16.4977  -32.0869 H   0  0  0  0  0  0  0  0  0  0  0  0
   -7.9708   16.6710  -33.6299 H   0  0  0  0  0  0  0  0  0  0  0  0
   -6.1751   16.7195  -33.6299 H   0  0  0  0  0  0  0  0  0  0  0  0
   -8.6436   18.6475  -31.3338 H   0  0  0  0  0  0  0  0  0  0  0  0
   -7.5478   24.8360  -31.1329 H   0  0  0  0  0  0  0  0  0  0  0  0
   -7.6155   23.5190  -29.8760 H   0  0  0  0  0  0  0  0  0  0  0  0
   -5.9840   23.5260  -32.7380 H   0  0  0  0  0  0  0  0  0  0  0  0
   -5.1135   23.0222  -28.8495 H   0  0  0  0  0  0  0  0  0  0  0  0
   -5.9520   21.8123  -29.9554 H   0  0  0  0  0  0  0  0  0  0  0  0
   -4.0080   21.5320  -31.1550 H   0  0  0  0  0  0  0  0  0  0  0  0
   -1.9176   22.4441  -29.7402 H   0  0  0  0  0  0  0  0  0  0  0  0
   -2.5231   23.0372  -31.3649 H   0  0  0  0  0  0  0  0  0  0  0  0
   -3.5928   24.1957  -28.7894 H   0  0  0  0  0  0  0  0  0  0  0  0
   -2.0144   24.7601  -29.5554 H   0  0  0  0  0  0  0  0  0  0  0  0
   -5.3204   25.2853  -29.2941 H   0  0  0  0  0  0  0  0  0  0  0  0
   -5.5806   25.9262  -30.9678 H   0  0  0  0  0  0  0  0  0  0  0  0
  1  2  1  0
  2  3  1  0
  3  4  1  0
  4  5  1  0
  5  6  2  0
  6  7  1  0
  7  8  1  0
  7  9  1  0
  2 10  1  0
 10 11  1  0
 11 12  1  6
 11 13  1  0
 13 14  1  0
 14 15  1  0
 15 16  1  0
 16 17  1  0
 17 18  1  0
  9  4  2  0
 18 11  1  0
  1 19  1  0
  1 20  1  0
  1 21  1  0
  3 22  1  0
  3 23  1  0
  5 24  1  0
  8 25  1  0
  8 26  1  0
  8 27  1  0
  9 28  1  0
 10 29  1  0
 10 30  1  0
 12 31  1  0
 13 32  1  0
 13 33  1  0
 14 34  1  0
 15 35  1  0
 15 36  1  0
 16 37  1  0
 16 38  1  0
 18 39  1  0
 18 40  1  0
M  END
>  <UniqueID>  (50) 
46

>  <SMILES>  (50) 
CN(Cc1cnn(C)c1)C[C@]1(O)CNCCOC1

>  <Energy>  (50) 
89.35736879323856

>  <Genealogy>  (50) 
CN(Cc1cnn(C)c1)C[C@]1(O)CNCCOC1 (chirality)
CN(Cc1cnn(C)c1)C[C@]1(O)CNCCOC1 (3D coordinates assigned)
CN(Cc1cnn(C)c1)C[C@]1(O)CNCCOC1 (nonaromatic ring conformer: 89.35736879323856 kcal/mol)

>  <smiles>  (50) 
CN(Cc1cnn(C)c1)CC1(O)CNCCOC1

>  <score_type>  (50) 
oracle

>  <origin>  (50) 
adg

>  <m_score__min__energy>  (50) 
-4.6900000000000004

>  <m_primary>  (50) 
energy

$$$$
