0:0
     RDKit          3D

 68 70  0  0  0  0  0  0  0  0999 V2000
   -1.9240   20.9330  -27.6420 C   0  0  0  0  0  0  0  0  0  0  0  0
   -2.2200   21.2290  -29.1090 C   0  0  0  0  0  0  0  0  0  0  0  0
   -1.1160   22.0160  -29.7080 N   0  0  0  0  0  0  0  0  0  0  0  0
   -0.1260   21.1330  -30.3680 C   0  0  0  0  0  0  0  0  0  0  0  0
   -0.6530   19.7020  -30.4370 C   0  0  0  0  0  0  0  0  0  0  0  0
   -0.4610   22.8570  -28.6810 C   0  0  0  0  0  0  0  0  0  0  0  0
   -0.5060   24.2670  -29.0900 N   0  0  0  0  0  0  0  0  0  0  0  0
   -1.3420   25.0740  -28.1820 C   0  0  0  0  0  0  0  0  0  0  0  0
   -2.4670   24.2160  -27.5970 C   0  0  0  0  0  0  0  0  0  0  0  0
   -3.7310   24.2520  -28.4720 C   0  0  0  0  0  0  0  0  0  0  0  0
   -3.4250   24.4800  -29.9670 C   0  0  0  0  0  0  0  0  0  0  0  0
   -4.2710   25.4980  -30.6100 N   0  0  0  0  0  0  0  0  0  0  0  0
   -5.6990   25.1490  -30.5920 C   0  0  0  0  0  0  0  0  0  0  0  0
   -5.9750   24.0140  -31.5790 C   0  0  0  0  0  0  0  0  0  0  0  0
   -5.6810   22.7090  -30.9890 N   0  0  0  0  0  0  0  0  0  0  0  0
   -5.6500   21.5330  -31.8100 C   0  0  0  0  0  0  0  0  0  0  0  0
   -6.7900   20.7190  -31.9250 C   0  0  0  0  0  0  0  0  0  0  0  0
   -7.9830   21.0510  -31.2470 C   0  0  0  0  0  0  0  0  0  0  0  0
   -9.0920   20.2110  -31.3100 C   0  0  0  0  0  0  0  0  0  0  0  0
   -9.0290   19.0280  -32.0370 C   0  0  0  0  0  0  0  0  0  0  0  0
   -7.8700   18.6940  -32.7360 C   0  0  0  0  0  0  0  0  0  0  0  0
   -6.7390   19.5510  -32.7310 C   0  0  0  0  0  0  0  0  0  0  0  0
   -5.6050   19.2670  -33.4710 N   0  0  0  0  0  0  0  0  0  0  0  0
   -5.6480   18.2200  -34.5170 C   0  0  0  0  0  0  0  0  0  0  0  0
   -4.4410   19.9830  -33.2550 C   0  0  0  0  0  0  0  0  0  0  0  0
   -3.1980   19.5690  -33.8010 C   0  0  0  0  0  0  0  0  0  0  0  0
   -2.0410   20.3310  -33.6210 C   0  0  0  0  0  0  0  0  0  0  0  0
   -0.5200   19.7970  -34.3120 Cl  0  0  0  0  0  0  0  0  0  0  0  0
   -2.0900   21.5110  -32.8840 C   0  0  0  0  0  0  0  0  0  0  0  0
   -3.2860   21.9180  -32.2990 C   0  0  0  0  0  0  0  0  0  0  0  0
   -4.4620   21.1560  -32.4560 C   0  0  0  0  0  0  0  0  0  0  0  0
   -2.5580   21.5670  -27.0048 H   0  0  0  0  0  0  0  0  0  0  0  0
   -2.1353   19.8742  -27.4317 H   0  0  0  0  0  0  0  0  0  0  0  0
   -0.8652   21.1443  -27.4317 H   0  0  0  0  0  0  0  0  0  0  0  0
   -2.3279   20.2807  -29.6559 H   0  0  0  0  0  0  0  0  0  0  0  0
   -3.1512   21.8107  -29.1758 H   0  0  0  0  0  0  0  0  0  0  0  0
    0.0634   21.4992  -31.3878 H   0  0  0  0  0  0  0  0  0  0  0  0
    0.8062   21.1425  -29.7841 H   0  0  0  0  0  0  0  0  0  0  0  0
   -0.7958   19.3143  -29.4175 H   0  0  0  0  0  0  0  0  0  0  0  0
   -1.6143   19.6907  -30.9716 H   0  0  0  0  0  0  0  0  0  0  0  0
    0.0713   19.0699  -30.9716 H   0  0  0  0  0  0  0  0  0  0  0  0
   -0.9865   22.7380  -27.7220 H   0  0  0  0  0  0  0  0  0  0  0  0
    0.5878   22.5442  -28.5702 H   0  0  0  0  0  0  0  0  0  0  0  0
   -0.9160   24.3080  -30.0530 H   0  0  0  0  0  0  0  0  0  0  0  0
   -0.7185   25.4630  -27.3635 H   0  0  0  0  0  0  0  0  0  0  0  0
   -1.7834   25.9083  -28.7468 H   0  0  0  0  0  0  0  0  0  0  0  0
   -2.1175   23.1759  -27.5201 H   0  0  0  0  0  0  0  0  0  0  0  0
   -2.7258   24.6220  -26.6080 H   0  0  0  0  0  0  0  0  0  0  0  0
   -4.2586   23.2927  -28.3648 H   0  0  0  0  0  0  0  0  0  0  0  0
   -4.3435   25.0990  -28.1293 H   0  0  0  0  0  0  0  0  0  0  0  0
   -2.3754   24.7959  -30.0595 H   0  0  0  0  0  0  0  0  0  0  0  0
   -3.6321   23.5290  -30.4795 H   0  0  0  0  0  0  0  0  0  0  0  0
   -3.9540   25.6540  -31.5950 H   0  0  0  0  0  0  0  0  0  0  0  0
   -5.9821   24.8271  -29.5790 H   0  0  0  0  0  0  0  0  0  0  0  0
   -6.2888   26.0307  -30.8831 H   0  0  0  0  0  0  0  0  0  0  0  0
   -7.0351   24.0438  -31.8710 H   0  0  0  0  0  0  0  0  0  0  0  0
   -5.3241   24.1518  -32.4550 H   0  0  0  0  0  0  0  0  0  0  0  0
   -5.6530   22.5880  -29.9520 H   0  0  0  0  0  0  0  0  0  0  0  0
   -8.0371   21.9819  -30.6635 H   0  0  0  0  0  0  0  0  0  0  0  0
  -10.0187   20.4840  -30.7839 H   0  0  0  0  0  0  0  0  0  0  0  0
   -9.8970   18.3527  -32.0609 H   0  0  0  0  0  0  0  0  0  0  0  0
   -7.8316   17.7508  -33.3006 H   0  0  0  0  0  0  0  0  0  0  0  0
   -5.6887   17.2287  -34.0420 H   0  0  0  0  0  0  0  0  0  0  0  0
   -6.5410   18.3636  -35.1430 H   0  0  0  0  0  0  0  0  0  0  0  0
   -4.7462   18.2899  -35.1430 H   0  0  0  0  0  0  0  0  0  0  0  0
   -3.1448   18.6325  -34.3755 H   0  0  0  0  0  0  0  0  0  0  0  0
   -1.1833   22.1221  -32.7638 H   0  0  0  0  0  0  0  0  0  0  0  0
   -3.3139   22.8449  -31.7074 H   0  0  0  0  0  0  0  0  0  0  0  0
  1  2  1  0
  2  3  1  0
  3  4  1  0
  4  5  1  0
  3  6  1  0
  6  7  1  0
  7  8  1  0
  8  9  1  0
  9 10  1  0
 10 11  1  0
 11 12  1  0
 12 13  1  0
 13 14  1  0
 14 15  1  0
 15 16  1  0
 16 17  2  0
 17 18  1  0
 18 19  2  0
 19 20  1  0
 20 21  2  0
 21 22  1  0
 22 23  2  0
 23 24  1  0
 23 25  1  0
 25 26  2  0
 26 27  1  0
 27 28  1  0
 27 29  2  0
 29 30  1  0
 30 31  2  0
 31 16  1  0
 22 17  1  0
 31 25  1  0
  1 32  1  0
  1 33  1  0
  1 34  1  0
  2 35  1  0
  2 36  1  0
  4 37  1  0
  4 38  1  0
  5 39  1  0
  5 40  1  0
  5 41  1  0
  6 42  1  0
  6 43  1  0
  7 44  1  0
  8 45  1  0
  8 46  1  0
  9 47  1  0
  9 48  1  0
 10 49  1  0
 10 50  1  0
 11 51  1  0
 11 52  1  0
 12 53  1  0
 13 54  1  0
 13 55  1  0
 14 56  1  0
 14 57  1  0
 15 58  1  0
 18 59  1  0
 19 60  1  0
 20 61  1  0
 21 62  1  0
 24 63  1  0
 24 64  1  0
 24 65  1  0
 26 66  1  0
 29 67  1  0
 30 68  1  0
M  CHG  1  23   1
M  END
>  <UniqueID>  (1) 
1

>  <SMILES>  (1) 
CCN(CC)CNCCCCNCCNc1c2ccccc2[n+](C)c2cc(Cl)ccc12

>  <Energy>  (1) 
87.79793218423336

>  <Genealogy>  (1) 
CCN(CC)CNCCCCNCCNc1c2ccccc2[n+](C)c2cc(Cl)ccc12 (3D coordinates assigned)
CCN(CC)CNCCCCNCCNc1c2ccccc2[n+](C)c2cc(Cl)ccc12 (optimized conformer: 87.79793218423336 kcal/mol)

>  <smiles>  (1) 
CCN(CC)CNCCCCNCCNc1c2ccccc2[n+](C)c2cc(Cl)ccc12

>  <score_type>  (1) 
oracle

>  <origin>  (1) 
adg

>  <m_score__min__energy>  (1) 
-9.5399999999999991

>  <m_primary>  (1) 
energy

$$$$
1:0
     RDKit          3D

 88 93  0  0  0  0  0  0  0  0999 V2000
   -3.3450   24.4530  -27.4580 C   0  0  0  0  0  0  0  0  0  0  0  0
   -2.4060   24.8650  -28.5900 C   0  0  0  0  0  0  0  0  0  0  0  0
   -3.1420   25.2660  -29.7450 O   0  0  0  0  0  0  0  0  0  0  0  0
   -4.3710   24.7240  -30.1570 C   0  0  0  0  0  0  0  0  0  0  0  0
   -5.5720   25.4450  -30.0960 C   0  0  0  0  0  0  0  0  0  0  0  0
   -6.7680   24.8450  -30.4810 C   0  0  0  0  0  0  0  0  0  0  0  0
   -6.7900   23.5200  -30.9410 C   0  0  0  0  0  0  0  0  0  0  0  0
   -7.9770   22.9560  -31.2880 N   0  0  0  0  0  0  0  0  0  0  0  0
   -8.0640   21.6720  -31.7270 C   0  0  0  0  0  0  0  0  0  0  0  0
   -9.3250   21.1430  -32.0540 C   0  0  0  0  0  0  0  0  0  0  0  0
   -9.4500   19.8240  -32.4840 C   0  0  0  0  0  0  0  0  0  0  0  0
   -8.3210   19.0190  -32.5900 C   0  0  0  0  0  0  0  0  0  0  0  0
   -7.0590   19.5300  -32.2800 C   0  0  0  0  0  0  0  0  0  0  0  0
   -6.8980   20.8740  -31.8570 C   0  0  0  0  0  0  0  0  0  0  0  0
   -5.6260   21.4510  -31.5570 C   0  0  0  0  0  0  0  0  0  0  0  0
   -4.3300   20.6780  -31.7970 C   0  0  0  0  0  0  0  0  0  0  0  0
   -3.6030   21.1270  -33.0730 C   0  0  0  0  0  0  0  0  0  0  0  0
   -3.1530   19.9700  -33.8580 N   0  0  0  0  0  0  0  0  0  0  0  0
   -3.1990   18.7360  -33.0610 C   0  0  0  0  0  0  0  0  0  0  0  0
   -2.3160   17.6500  -33.6920 C   0  0  0  0  0  0  0  0  0  0  0  0
   -1.7270   18.1130  -34.9570 N   0  0  0  0  0  0  0  0  0  0  0  0
   -0.2880   17.8190  -35.0200 C   0  0  0  0  0  0  0  0  0  0  0  0
    0.5070   19.1020  -35.3160 C   0  0  0  0  0  0  0  0  0  0  0  0
   -0.3550   20.3030  -35.3260 N   0  0  0  0  0  0  0  0  0  0  0  0
    0.1940   21.4430  -34.5700 C   0  0  0  0  0  0  0  0  0  0  0  0
    0.3620   21.1370  -33.0720 C   0  0  0  0  0  0  0  0  0  0  0  0
   -0.4940   20.0350  -32.6400 N   0  0  0  0  0  0  0  0  0  0  0  0
   -0.2720   19.4130  -31.3620 C   0  0  0  0  0  0  0  0  0  0  0  0
    0.5740   18.2970  -31.2620 C   0  0  0  0  0  0  0  0  0  0  0  0
    1.2130   17.7760  -32.4080 C   0  0  0  0  0  0  0  0  0  0  0  0
    2.0880   16.6970  -32.3090 C   0  0  0  0  0  0  0  0  0  0  0  0
    2.3530   16.1290  -31.0690 C   0  0  0  0  0  0  0  0  0  0  0  0
    1.7390   16.6300  -29.9230 C   0  0  0  0  0  0  0  0  0  0  0  0
    0.8120   17.7040  -29.9910 C   0  0  0  0  0  0  0  0  0  0  0  0
    0.1670   18.1890  -28.8660 N   0  0  0  0  0  0  0  0  0  0  0  0
    0.2610   17.4450  -27.5880 C   0  0  0  0  0  0  0  0  0  0  0  0
   -0.5760   19.3580  -28.9370 C   0  0  0  0  0  0  0  0  0  0  0  0
   -1.0730   20.0050  -27.7760 C   0  0  0  0  0  0  0  0  0  0  0  0
   -1.8870   21.1330  -27.8710 C   0  0  0  0  0  0  0  0  0  0  0  0
   -2.2130   21.6590  -29.1140 C   0  0  0  0  0  0  0  0  0  0  0  0
   -1.6940   21.0830  -30.2700 C   0  0  0  0  0  0  0  0  0  0  0  0
   -0.8480   19.9530  -30.2000 C   0  0  0  0  0  0  0  0  0  0  0  0
   -5.5850   22.7850  -31.0510 C   0  0  0  0  0  0  0  0  0  0  0  0
   -4.3800   23.4130  -30.6480 C   0  0  0  0  0  0  0  0  0  0  0  0
   -2.8666   24.6629  -26.4900 H   0  0  0  0  0  0  0  0  0  0  0  0
   -4.2832   25.0221  -27.5344 H   0  0  0  0  0  0  0  0  0  0  0  0
   -3.5615   23.3772  -27.5344 H   0  0  0  0  0  0  0  0  0  0  0  0
   -1.7818   25.7052  -28.2517 H   0  0  0  0  0  0  0  0  0  0  0  0
   -1.7788   24.0016  -28.8566 H   0  0  0  0  0  0  0  0  0  0  0  0
   -5.5693   26.4869  -29.7432 H   0  0  0  0  0  0  0  0  0  0  0  0
   -7.7062   25.4164  -30.4238 H   0  0  0  0  0  0  0  0  0  0  0  0
   -8.8530   23.5240  -31.2020 H   0  0  0  0  0  0  0  0  0  0  0  0
  -10.2205   21.7762  -31.9695 H   0  0  0  0  0  0  0  0  0  0  0  0
  -10.4406   19.4196  -32.7394 H   0  0  0  0  0  0  0  0  0  0  0  0
   -8.4226   17.9745  -32.9197 H   0  0  0  0  0  0  0  0  0  0  0  0
   -6.1758   18.8798  -32.3652 H   0  0  0  0  0  0  0  0  0  0  0  0
   -3.6620   20.8344  -30.9372 H   0  0  0  0  0  0  0  0  0  0  0  0
   -4.5924   19.6167  -31.9187 H   0  0  0  0  0  0  0  0  0  0  0  0
   -4.2895   21.7312  -33.6843 H   0  0  0  0  0  0  0  0  0  0  0  0
   -2.7216   21.7184  -32.7842 H   0  0  0  0  0  0  0  0  0  0  0  0
   -2.1480   20.1350  -34.1030 H   0  0  0  0  0  0  0  0  0  0  0  0
   -2.8381   18.9492  -32.0440 H   0  0  0  0  0  0  0  0  0  0  0  0
   -4.2372   18.3738  -33.0291 H   0  0  0  0  0  0  0  0  0  0  0  0
   -1.5071   17.3936  -32.9921 H   0  0  0  0  0  0  0  0  0  0  0  0
   -2.9417   16.7696  -33.9005 H   0  0  0  0  0  0  0  0  0  0  0  0
   -2.2000   17.5810  -35.7260 H   0  0  0  0  0  0  0  0  0  0  0  0
    0.0399   17.4033  -34.0558 H   0  0  0  0  0  0  0  0  0  0  0  0
   -0.1065   17.0920  -35.8253 H   0  0  0  0  0  0  0  0  0  0  0  0
    1.2793   19.2266  -34.5427 H   0  0  0  0  0  0  0  0  0  0  0  0
    0.9545   18.9991  -36.3156 H   0  0  0  0  0  0  0  0  0  0  0  0
   -1.3360   20.0910  -35.0280 H   0  0  0  0  0  0  0  0  0  0  0  0
    1.1777   21.7018  -34.9887 H   0  0  0  0  0  0  0  0  0  0  0  0
   -0.5189   22.2758  -34.6608 H   0  0  0  0  0  0  0  0  0  0  0  0
    1.4112   20.8683  -32.8798 H   0  0  0  0  0  0  0  0  0  0  0  0
    0.0717   22.0349  -32.5068 H   0  0  0  0  0  0  0  0  0  0  0  0
   -1.0370   19.4980  -33.3520 H   0  0  0  0  0  0  0  0  0  0  0  0
    1.0173   18.2280  -33.3916 H   0  0  0  0  0  0  0  0  0  0  0  0
    2.5693   16.2945  -33.2125 H   0  0  0  0  0  0  0  0  0  0  0  0
    3.0496   15.2812  -30.9918 H   0  0  0  0  0  0  0  0  0  0  0  0
    1.9770   16.1847  -28.9457 H   0  0  0  0  0  0  0  0  0  0  0  0
    0.1721   18.1483  -26.7469 H   0  0  0  0  0  0  0  0  0  0  0  0
   -0.5507   16.7046  -27.5342 H   0  0  0  0  0  0  0  0  0  0  0  0
    1.2314   16.9298  -27.5342 H   0  0  0  0  0  0  0  0  0  0  0  0
   -0.8114   19.6096  -26.7834 H   0  0  0  0  0  0  0  0  0  0  0  0
   -2.2727   21.6084  -26.9571 H   0  0  0  0  0  0  0  0  0  0  0  0
   -2.8808   22.5302  -29.1851 H   0  0  0  0  0  0  0  0  0  0  0  0
   -1.9456   21.5129  -31.2508 H   0  0  0  0  0  0  0  0  0  0  0  0
   -3.4326   22.8590  -30.7225 H   0  0  0  0  0  0  0  0  0  0  0  0
  1  2  1  0
  2  3  1  0
  3  4  1  0
  4  5  2  0
  5  6  1  0
  6  7  2  0
  7  8  1  0
  8  9  2  0
  9 10  1  0
 10 11  2  0
 11 12  1  0
 12 13  2  0
 13 14  1  0
 14 15  2  0
 15 16  1  0
 16 17  1  0
 17 18  1  0
 18 19  1  0
 19 20  1  0
 20 21  1  0
 21 22  1  0
 22 23  1  0
 23 24  1  0
 24 25  1  0
 25 26  1  0
 26 27  1  0
 27 28  1  0
 28 29  1  0
 29 30  2  0
 30 31  1  0
 31 32  2  0
 32 33  1  0
 33 34  2  0
 34 35  1  0
 35 36  1  0
 35 37  2  0
 37 38  1  0
 38 39  2  0
 39 40  1  0
 40 41  2  0
 41 42  1  0
 15 43  1  0
 43 44  2  0
 44  4  1  0
 43  7  1  0
 14  9  1  0
 42 28  2  0
 34 29  1  0
 42 37  1  0
  1 45  1  0
  1 46  1  0
  1 47  1  0
  2 48  1  0
  2 49  1  0
  5 50  1  0
  6 51  1  0
  8 52  1  0
 10 53  1  0
 11 54  1  0
 12 55  1  0
 13 56  1  0
 16 57  1  0
 16 58  1  0
 17 59  1  0
 17 60  1  0
 18 61  1  0
 19 62  1  0
 19 63  1  0
 20 64  1  0
 20 65  1  0
 21 66  1  0
 22 67  1  0
 22 68  1  0
 23 69  1  0
 23 70  1  0
 24 71  1  0
 25 72  1  0
 25 73  1  0
 26 74  1  0
 26 75  1  0
 27 76  1  0
 30 77  1  0
 31 78  1  0
 32 79  1  0
 33 80  1  0
 36 81  1  0
 36 82  1  0
 36 83  1  0
 38 84  1  0
 39 85  1  0
 40 86  1  0
 41 87  1  0
 44 88  1  0
M  CHG  2   8   1  35   1
M  END
>  <UniqueID>  (2) 
2

>  <SMILES>  (2) 
CCOc1ccc2[nH+]c3ccccc3c(CCNCCNCCNCCNc3c4ccccc4[n+](C)c4ccccc34)c2c1

>  <Energy>  (2) 
126.85900133492875

>  <Genealogy>  (2) 
CCOc1ccc2[nH+]c3ccccc3c(CCNCCNCCNCCNc3c4ccccc4[n+](C)c4ccccc34)c2c1 (protonated)
CCOc1ccc2[nH+]c3ccccc3c(CCNCCNCCNCCNc3c4ccccc4[n+](C)c4ccccc34)c2c1 (3D coordinates assigned)
CCOc1ccc2[nH+]c3ccccc3c(CCNCCNCCNCCNc3c4ccccc4[n+](C)c4ccccc34)c2c1 (optimized conformer: 126.85900133492875 kcal/mol)

>  <smiles>  (2) 
CCOc1ccc2nc3ccccc3c(CCNCCNCCNCCNc3c4ccccc4[n+](C)c4ccccc34)c2c1

>  <score_type>  (2) 
oracle

>  <origin>  (2) 
adg

>  <m_score__min__energy>  (2) 
-10.68

>  <m_primary>  (2) 
energy

$$$$
2:0
     RDKit          3D

 65 67  0  0  0  0  0  0  0  0999 V2000
   -3.0800   18.9180  -26.2370 C   0  0  0  0  0  0  0  0  0  0  0  0
   -2.1650   19.8740  -26.9370 C   0  0  0  0  0  0  0  0  0  0  0  0
   -1.9620   19.7500  -28.1760 O   0  0  0  0  0  0  0  0  0  0  0  0
   -1.4950   20.9010  -26.1920 N   0  0  0  0  0  0  0  0  0  0  0  0
   -0.6150   21.8880  -26.8260 C   0  0  1  0  0  0  0  0  0  0  0  0
    0.5490   21.1820  -27.5340 C   0  0  0  0  0  0  0  0  0  0  0  0
   -1.4150   22.7710  -27.7680 C   0  0  0  0  0  0  0  0  0  0  0  0
   -1.3530   22.6000  -29.1640 C   0  0  0  0  0  0  0  0  0  0  0  0
   -2.1110   23.4110  -30.0150 C   0  0  0  0  0  0  0  0  0  0  0  0
   -2.9770   24.3870  -29.4840 C   0  0  0  0  0  0  0  0  0  0  0  0
   -3.7460   25.2410  -30.2910 O   0  0  0  0  0  0  0  0  0  0  0  0
   -5.0200   24.9170  -30.8490 C   0  0  2  0  0  0  0  0  0  0  0  0
   -6.0840   24.8840  -29.7530 C   0  0  0  0  0  0  0  0  0  0  0  0
   -7.0800   23.8220  -30.1980 C   0  0  0  0  0  0  0  0  0  0  0  0
   -6.3630   22.9930  -31.1550 N   0  0  0  0  0  0  0  0  0  0  0  0
   -6.7540   21.6520  -31.4920 C   0  0  0  0  0  0  0  0  0  0  0  0
   -5.8090   20.6720  -31.4960 N   0  0  0  0  0  0  0  0  0  0  0  0
   -6.0980   19.3780  -31.7930 C   0  0  0  0  0  0  0  0  0  0  0  0
   -7.4140   19.0060  -32.1080 C   0  0  0  0  0  0  0  0  0  0  0  0
   -7.7880   17.6890  -32.4230 O   0  0  0  0  0  0  0  0  0  0  0  0
   -7.2240   16.8890  -33.4630 C   0  0  0  0  0  0  0  0  0  0  0  0
   -5.7220   16.6590  -33.2550 C   0  0  0  0  0  0  0  0  0  0  0  0
   -4.9410   17.3410  -34.3130 N   0  0  0  0  0  0  0  0  0  0  0  0
   -5.7330   18.3960  -34.9700 C   0  0  0  0  0  0  0  0  0  0  0  0
   -3.7110   17.9330  -33.7610 C   0  0  0  0  0  0  0  0  0  0  0  0
   -8.4000   19.9940  -32.1210 C   0  0  0  0  0  0  0  0  0  0  0  0
   -8.0830   21.3310  -31.8450 C   0  0  0  0  0  0  0  0  0  0  0  0
   -9.1570   22.3790  -31.9570 C   0  0  0  0  0  0  0  0  0  0  0  0
   -5.0410   23.5150  -31.4580 C   0  0  0  0  0  0  0  0  0  0  0  0
   -3.0760   24.5230  -28.0940 C   0  0  0  0  0  0  0  0  0  0  0  0
   -2.3020   23.7280  -27.2440 C   0  0  0  0  0  0  0  0  0  0  0  0
   -2.9688   19.0342  -25.1488 H   0  0  0  0  0  0  0  0  0  0  0  0
   -4.1206   19.1297  -26.5239 H   0  0  0  0  0  0  0  0  0  0  0  0
   -2.8229   17.8877  -26.5239 H   0  0  0  0  0  0  0  0  0  0  0  0
   -1.6890   20.9780  -25.1680 H   0  0  0  0  0  0  0  0  0  0  0  0
   -0.1786   22.5419  -26.0566 H   0  0  0  0  0  0  0  0  0  0  0  0
    1.2363   20.7651  -26.7831 H   0  0  0  0  0  0  0  0  0  0  0  0
    0.1568   20.3694  -28.1632 H   0  0  0  0  0  0  0  0  0  0  0  0
    1.0883   21.9053  -28.1632 H   0  0  0  0  0  0  0  0  0  0  0  0
   -0.7026   21.8216  -29.5894 H   0  0  0  0  0  0  0  0  0  0  0  0
   -2.0304   23.2860  -31.1049 H   0  0  0  0  0  0  0  0  0  0  0  0
   -5.2160   25.6835  -31.6132 H   0  0  0  0  0  0  0  0  0  0  0  0
   -5.6346   24.6111  -28.7868 H   0  0  0  0  0  0  0  0  0  0  0  0
   -6.5624   25.8647  -29.6137 H   0  0  0  0  0  0  0  0  0  0  0  0
   -7.4093   23.2197  -29.3385 H   0  0  0  0  0  0  0  0  0  0  0  0
   -7.9823   24.2689  -30.6408 H   0  0  0  0  0  0  0  0  0  0  0  0
   -5.2997   18.6213  -31.7865 H   0  0  0  0  0  0  0  0  0  0  0  0
   -7.7344   15.9147  -33.4790 H   0  0  0  0  0  0  0  0  0  0  0  0
   -7.3591   17.4224  -34.4155 H   0  0  0  0  0  0  0  0  0  0  0  0
   -5.4272   17.0582  -32.2733 H   0  0  0  0  0  0  0  0  0  0  0  0
   -5.5177   15.5792  -33.3023 H   0  0  0  0  0  0  0  0  0  0  0  0
   -6.2076   19.0282  -34.2051 H   0  0  0  0  0  0  0  0  0  0  0  0
   -5.0730   19.0128  -35.5976 H   0  0  0  0  0  0  0  0  0  0  0  0
   -6.5095   17.9344  -35.5976 H   0  0  0  0  0  0  0  0  0  0  0  0
   -3.7550   17.9118  -32.6621 H   0  0  0  0  0  0  0  0  0  0  0  0
   -2.8400   17.3554  -34.1043 H   0  0  0  0  0  0  0  0  0  0  0  0
   -3.6191   18.9740  -34.1043 H   0  0  0  0  0  0  0  0  0  0  0  0
   -9.4401   19.7194  -32.3510 H   0  0  0  0  0  0  0  0  0  0  0  0
   -9.4739   22.6883  -30.9501 H   0  0  0  0  0  0  0  0  0  0  0  0
   -8.7638   23.2502  -32.5014 H   0  0  0  0  0  0  0  0  0  0  0  0
  -10.0183   21.9646  -32.5014 H   0  0  0  0  0  0  0  0  0  0  0  0
   -4.2628   22.8843  -31.0034 H   0  0  0  0  0  0  0  0  0  0  0  0
   -4.8412   23.5313  -32.5396 H   0  0  0  0  0  0  0  0  0  0  0  0
   -3.7694   25.2624  -27.6669 H   0  0  0  0  0  0  0  0  0  0  0  0
   -2.3876   23.8522  -26.1544 H   0  0  0  0  0  0  0  0  0  0  0  0
  1  2  1  0
  2  3  2  0
  2  4  1  0
  4  5  1  0
  5  6  1  0
  5  7  1  0
  7  8  2  0
  8  9  1  0
  9 10  2  0
 10 11  1  0
 11 12  1  0
 12 13  1  0
 13 14  1  0
 14 15  1  0
 15 16  1  0
 16 17  2  0
 17 18  1  0
 18 19  2  0
 19 20  1  0
 20 21  1  0
 21 22  1  0
 22 23  1  0
 23 24  1  0
 23 25  1  0
 19 26  1  0
 26 27  2  0
 27 28  1  0
 15 29  1  0
 10 30  1  0
 30 31  2  0
 31  7  1  0
 29 12  1  0
 27 16  1  0
  1 32  1  0
  1 33  1  0
  1 34  1  0
  4 35  1  0
  5 36  1  1
  6 37  1  0
  6 38  1  0
  6 39  1  0
  8 40  1  0
  9 41  1  0
 12 42  1  6
 13 43  1  0
 13 44  1  0
 14 45  1  0
 14 46  1  0
 18 47  1  0
 21 48  1  0
 21 49  1  0
 22 50  1  0
 22 51  1  0
 24 52  1  0
 24 53  1  0
 24 54  1  0
 25 55  1  0
 25 56  1  0
 25 57  1  0
 26 58  1  0
 28 59  1  0
 28 60  1  0
 28 61  1  0
 29 62  1  0
 29 63  1  0
 30 64  1  0
 31 65  1  0
M  END
>  <UniqueID>  (3) 
3

>  <SMILES>  (3) 
CC(=O)N[C@@H](C)c1ccc(O[C@@H]2CCN(c3ncc(OCCN(C)C)cc3C)C2)cc1

>  <Energy>  (3) 
68.54489381414037

>  <Genealogy>  (3) 
CC(=O)N[C@@H](C)c1ccc(O[C@@H]2CCN(c3ncc(OCCN(C)C)cc3C)C2)cc1 (chirality)
CC(=O)N[C@@H](C)c1ccc(O[C@@H]2CCN(c3ncc(OCCN(C)C)cc3C)C2)cc1 (3D coordinates assigned)
CC(=O)N[C@@H](C)c1ccc(O[C@@H]2CCN(c3ncc(OCCN(C)C)cc3C)C2)cc1 (nonaromatic ring conformer: 68.54489381414037 kcal/mol)

>  <smiles>  (3) 
CC(=O)NC(C)c1ccc(OC2CCN(c3ncc(OCCN(C)C)cc3C)C2)cc1

>  <score_type>  (3) 
oracle

>  <origin>  (3) 
adg

>  <m_score__min__energy>  (3) 
-9.2699999999999996

>  <m_primary>  (3) 
energy

$$$$
3:0
     RDKit          3D

 69 71  0  0  0  0  0  0  0  0999 V2000
   -1.4850   20.3250  -28.8210 C   0  0  0  0  0  0  0  0  0  0  0  0
   -0.7210   20.6140  -30.1100 C   0  0  0  0  0  0  0  0  0  0  0  0
   -0.1710   19.3160  -30.7280 C   0  0  0  0  0  0  0  0  0  0  0  0
   -0.6310   19.1040  -32.1160 N   0  0  0  0  0  0  0  0  0  0  0  0
    0.0220   19.9650  -33.1250 C   0  0  0  0  0  0  0  0  0  0  0  0
   -0.8960   20.3690  -34.3010 C   0  0  0  0  0  0  0  0  0  0  0  0
   -2.1890   21.0700  -33.8420 C   0  0  0  0  0  0  0  0  0  0  0  0
   -2.8070   20.3670  -32.7620 O   0  0  0  0  0  0  0  0  0  0  0  0
   -3.8540   19.4190  -32.8050 C   0  0  0  0  0  0  0  0  0  0  0  0
   -3.6280   18.0610  -33.1570 C   0  0  0  0  0  0  0  0  0  0  0  0
   -2.3300   17.6010  -33.4250 O   0  0  0  0  0  0  0  0  0  0  0  0
   -2.0010   16.5350  -34.3120 C   0  0  0  0  0  0  0  0  0  0  0  0
   -4.7130   17.1850  -33.2400 C   0  0  0  0  0  0  0  0  0  0  0  0
   -5.9990   17.6110  -32.9560 C   0  0  0  0  0  0  0  0  0  0  0  0
   -6.2630   18.9320  -32.5430 C   0  0  0  0  0  0  0  0  0  0  0  0
   -5.1820   19.8580  -32.4950 C   0  0  0  0  0  0  0  0  0  0  0  0
   -5.4740   21.2050  -32.1530 C   0  0  0  0  0  0  0  0  0  0  0  0
   -4.4260   22.1680  -31.9570 N   0  0  0  0  0  0  0  0  0  0  0  0
   -3.7530   22.3040  -30.6640 C   0  0  0  0  0  0  0  0  0  0  0  0
   -3.8700   23.7350  -30.1400 C   0  0  0  0  0  0  0  0  0  0  0  0
   -4.3160   24.6300  -31.2160 N   0  0  0  0  0  0  0  0  0  0  0  0
   -5.3420   25.5660  -30.7390 C   0  0  0  0  0  0  0  0  0  0  0  0
   -5.9720   25.0360  -29.4570 C   0  0  0  0  0  0  0  0  0  0  0  0
   -6.8110   21.6290  -32.0670 C   0  0  0  0  0  0  0  0  0  0  0  0
   -7.1310   23.0010  -31.9440 C   0  0  0  0  0  0  0  0  0  0  0  0
   -8.4550   23.4220  -31.8900 C   0  0  0  0  0  0  0  0  0  0  0  0
   -9.4830   22.4900  -31.9770 C   0  0  0  0  0  0  0  0  0  0  0  0
   -9.1920   21.1330  -32.1030 C   0  0  0  0  0  0  0  0  0  0  0  0
   -7.8510   20.6710  -32.1220 C   0  0  0  0  0  0  0  0  0  0  0  0
   -7.5470   19.3300  -32.2140 N   0  0  0  0  0  0  0  0  0  0  0  0
   -8.5930   18.3180  -31.9480 C   0  0  0  0  0  0  0  0  0  0  0  0
   -0.8492   20.5655  -27.9562 H   0  0  0  0  0  0  0  0  0  0  0  0
   -2.3960   20.9406  -28.7888 H   0  0  0  0  0  0  0  0  0  0  0  0
   -1.7605   19.2605  -28.7888 H   0  0  0  0  0  0  0  0  0  0  0  0
   -1.3991   21.0959  -30.8297 H   0  0  0  0  0  0  0  0  0  0  0  0
    0.1253   21.2762  -29.8749 H   0  0  0  0  0  0  0  0  0  0  0  0
    0.9280   19.3633  -30.7251 H   0  0  0  0  0  0  0  0  0  0  0  0
   -0.5444   18.4766  -30.1231 H   0  0  0  0  0  0  0  0  0  0  0  0
   -1.6650   19.2480  -32.1510 H   0  0  0  0  0  0  0  0  0  0  0  0
   -0.4640   18.1020  -32.3780 H   0  0  0  0  0  0  0  0  0  0  0  0
    0.3665   20.8823  -32.6251 H   0  0  0  0  0  0  0  0  0  0  0  0
    0.8476   19.3788  -33.5548 H   0  0  0  0  0  0  0  0  0  0  0  0
   -0.3412   21.0533  -34.9598 H   0  0  0  0  0  0  0  0  0  0  0  0
   -1.1894   19.4455  -34.8217 H   0  0  0  0  0  0  0  0  0  0  0  0
   -1.9452   22.0906  -33.5120 H   0  0  0  0  0  0  0  0  0  0  0  0
   -2.8910   21.0913  -34.6886 H   0  0  0  0  0  0  0  0  0  0  0  0
   -1.7260   15.6440  -33.7284 H   0  0  0  0  0  0  0  0  0  0  0  0
   -2.8697   16.3043  -34.9461 H   0  0  0  0  0  0  0  0  0  0  0  0
   -1.1533   16.8340  -34.9461 H   0  0  0  0  0  0  0  0  0  0  0  0
   -4.5426   16.1394  -33.5360 H   0  0  0  0  0  0  0  0  0  0  0  0
   -6.8341   16.9019  -33.0550 H   0  0  0  0  0  0  0  0  0  0  0  0
   -4.3630   22.9570  -32.6400 H   0  0  0  0  0  0  0  0  0  0  0  0
   -4.2170   21.6162  -29.9417 H   0  0  0  0  0  0  0  0  0  0  0  0
   -2.6879   22.0615  -30.7933 H   0  0  0  0  0  0  0  0  0  0  0  0
   -4.5996   23.7630  -29.3172 H   0  0  0  0  0  0  0  0  0  0  0  0
   -2.8861   24.0682  -29.7782 H   0  0  0  0  0  0  0  0  0  0  0  0
   -3.4920   25.1950  -31.5290 H   0  0  0  0  0  0  0  0  0  0  0  0
   -4.8794   26.5441  -30.5407 H   0  0  0  0  0  0  0  0  0  0  0  0
   -6.1211   25.6721  -31.5083 H   0  0  0  0  0  0  0  0  0  0  0  0
   -5.4558   25.4702  -28.5881 H   0  0  0  0  0  0  0  0  0  0  0  0
   -7.0357   25.3148  -29.4287 H   0  0  0  0  0  0  0  0  0  0  0  0
   -5.8793   23.9403  -29.4287 H   0  0  0  0  0  0  0  0  0  0  0  0
   -6.3221   23.7446  -31.8904 H   0  0  0  0  0  0  0  0  0  0  0  0
   -8.6888   24.4911  -31.7786 H   0  0  0  0  0  0  0  0  0  0  0  0
  -10.5303   22.8251  -31.9462 H   0  0  0  0  0  0  0  0  0  0  0  0
  -10.0153   20.4086  -32.1891 H   0  0  0  0  0  0  0  0  0  0  0  0
   -8.7182   18.1969  -30.8619 H   0  0  0  0  0  0  0  0  0  0  0  0
   -9.5437   18.6479  -32.3922 H   0  0  0  0  0  0  0  0  0  0  0  0
   -8.2947   17.3569  -32.3922 H   0  0  0  0  0  0  0  0  0  0  0  0
  1  2  1  0
  2  3  1  0
  3  4  1  0
  4  5  1  0
  5  6  1  0
  6  7  1  0
  7  8  1  0
  8  9  1  0
  9 10  2  0
 10 11  1  0
 11 12  1  0
 10 13  1  0
 13 14  2  0
 14 15  1  0
 15 16  2  0
 16 17  1  0
 17 18  1  0
 18 19  1  0
 19 20  1  0
 20 21  1  0
 21 22  1  0
 22 23  1  0
 17 24  2  0
 24 25  1  0
 25 26  2  0
 26 27  1  0
 27 28  2  0
 28 29  1  0
 29 30  2  0
 30 31  1  0
 16  9  1  0
 29 24  1  0
 30 15  1  0
  1 32  1  0
  1 33  1  0
  1 34  1  0
  2 35  1  0
  2 36  1  0
  3 37  1  0
  3 38  1  0
  4 39  1  0
  4 40  1  0
  5 41  1  0
  5 42  1  0
  6 43  1  0
  6 44  1  0
  7 45  1  0
  7 46  1  0
 12 47  1  0
 12 48  1  0
 12 49  1  0
 13 50  1  0
 14 51  1  0
 18 52  1  0
 19 53  1  0
 19 54  1  0
 20 55  1  0
 20 56  1  0
 21 57  1  0
 22 58  1  0
 22 59  1  0
 23 60  1  0
 23 61  1  0
 23 62  1  0
 25 63  1  0
 26 64  1  0
 27 65  1  0
 28 66  1  0
 31 67  1  0
 31 68  1  0
 31 69  1  0
M  CHG  2   4   1  30   1
M  END
>  <UniqueID>  (4) 
4

>  <SMILES>  (4) 
CCC[NH2+]CCCOc1c(OC)ccc2c1c(NCCNCC)c1ccccc1[n+]2C

>  <Energy>  (4) 
93.11816503615795

>  <Genealogy>  (4) 
CCC[NH2+]CCCOc1c(OC)ccc2c1c(NCCNCC)c1ccccc1[n+]2C (protonated)
CCC[NH2+]CCCOc1c(OC)ccc2c1c(NCCNCC)c1ccccc1[n+]2C (3D coordinates assigned)
CCC[NH2+]CCCOc1c(OC)ccc2c1c(NCCNCC)c1ccccc1[n+]2C (optimized conformer: 93.11816503615795 kcal/mol)

>  <smiles>  (4) 
CCCNCCCOc1c(OC)ccc2c1c(NCCNCC)c1ccccc1[n+]2C

>  <score_type>  (4) 
oracle

>  <origin>  (4) 
adg

>  <m_score__min__energy>  (4) 
-7.4400000000000004

>  <m_primary>  (4) 
energy

$$$$
4:0
     RDKit          3D

 64 66  0  0  0  0  0  0  0  0999 V2000
    0.2710   21.3890  -35.3630 C   0  0  0  0  0  0  0  0  0  0  0  0
    0.3490   19.8650  -35.3030 C   0  0  0  0  0  0  0  0  0  0  0  0
    1.1360   19.4240  -34.1400 N   0  0  0  0  0  0  0  0  0  0  0  0
    0.5240   19.9080  -32.8900 C   0  0  0  0  0  0  0  0  0  0  0  0
   -0.3950   18.8400  -32.2800 C   0  0  0  0  0  0  0  0  0  0  0  0
   -1.8500   19.3240  -32.2530 C   0  0  0  0  0  0  0  0  0  0  0  0
   -2.0110   20.7270  -32.8570 C   0  0  0  0  0  0  0  0  0  0  0  0
   -3.1980   20.8210  -33.7130 N   0  0  0  0  0  0  0  0  0  0  0  0
   -4.5060   20.3970  -33.2710 C   0  0  0  0  0  0  0  0  0  0  0  0
   -5.0090   19.1300  -33.6280 C   0  0  0  0  0  0  0  0  0  0  0  0
   -4.1770   18.1580  -34.2220 C   0  0  0  0  0  0  0  0  0  0  0  0
   -4.6720   16.8950  -34.5440 C   0  0  0  0  0  0  0  0  0  0  0  0
   -5.9940   16.5700  -34.2580 C   0  0  0  0  0  0  0  0  0  0  0  0
   -6.8290   17.5070  -33.6480 C   0  0  0  0  0  0  0  0  0  0  0  0
   -6.3610   18.8100  -33.3330 C   0  0  0  0  0  0  0  0  0  0  0  0
   -7.1760   19.7460  -32.7250 N   0  0  0  0  0  0  0  0  0  0  0  0
   -8.6420   19.5390  -32.6870 C   0  0  0  0  0  0  0  0  0  0  0  0
   -6.6180   20.8730  -32.1500 C   0  0  0  0  0  0  0  0  0  0  0  0
   -7.3500   21.6910  -31.2570 C   0  0  0  0  0  0  0  0  0  0  0  0
   -6.7880   22.8420  -30.7030 C   0  0  0  0  0  0  0  0  0  0  0  0
   -5.4740   23.2120  -31.0040 C   0  0  0  0  0  0  0  0  0  0  0  0
   -4.8860   24.4010  -30.4210 N   0  0  0  0  0  0  0  0  0  0  0  0
   -3.5810   24.3260  -29.7450 C   0  0  0  0  0  0  0  0  0  0  0  0
   -3.7360   23.8480  -28.3030 C   0  0  0  0  0  0  0  0  0  0  0  0
   -5.5990   25.6910  -30.4540 C   0  0  0  0  0  0  0  0  0  0  0  0
   -6.6400   25.7670  -29.3370 C   0  0  0  0  0  0  0  0  0  0  0  0
   -4.7240   22.3940  -31.8630 C   0  0  0  0  0  0  0  0  0  0  0  0
   -5.2740   21.2250  -32.4320 C   0  0  0  0  0  0  0  0  0  0  0  0
    0.2502   21.7956  -34.3411 H   0  0  0  0  0  0  0  0  0  0  0  0
    1.1503   21.7805  -35.8955 H   0  0  0  0  0  0  0  0  0  0  0  0
   -0.6437   21.6887  -35.8955 H   0  0  0  0  0  0  0  0  0  0  0  0
   -0.6689   19.4552  -35.2252 H   0  0  0  0  0  0  0  0  0  0  0  0
    0.8408   19.5023  -36.2177 H   0  0  0  0  0  0  0  0  0  0  0  0
    1.1710   18.3780  -34.1270 H   0  0  0  0  0  0  0  0  0  0  0  0
    2.1100   19.7940  -34.2210 H   0  0  0  0  0  0  0  0  0  0  0  0
    1.3195   20.1520  -32.1705 H   0  0  0  0  0  0  0  0  0  0  0  0
   -0.0771   20.8011  -33.1160 H   0  0  0  0  0  0  0  0  0  0  0  0
   -0.3314   17.9224  -32.8832 H   0  0  0  0  0  0  0  0  0  0  0  0
   -0.0699   18.6431  -31.2478 H   0  0  0  0  0  0  0  0  0  0  0  0
   -2.4678   18.6186  -32.8282 H   0  0  0  0  0  0  0  0  0  0  0  0
   -2.1680   19.3729  -31.2011 H   0  0  0  0  0  0  0  0  0  0  0  0
   -2.1031   21.4575  -32.0398 H   0  0  0  0  0  0  0  0  0  0  0  0
   -1.1264   20.9348  -33.4769 H   0  0  0  0  0  0  0  0  0  0  0  0
   -3.0820   21.1720  -34.6900 H   0  0  0  0  0  0  0  0  0  0  0  0
   -3.1249   18.3994  -34.4337 H   0  0  0  0  0  0  0  0  0  0  0  0
   -4.0161   16.1544  -35.0250 H   0  0  0  0  0  0  0  0  0  0  0  0
   -6.3818   15.5727  -34.5131 H   0  0  0  0  0  0  0  0  0  0  0  0
   -7.8664   17.2317  -33.4073 H   0  0  0  0  0  0  0  0  0  0  0  0
   -8.9786   19.4915  -31.6408 H   0  0  0  0  0  0  0  0  0  0  0  0
   -9.1437   20.3752  -33.1960 H   0  0  0  0  0  0  0  0  0  0  0  0
   -8.8925   18.5966  -33.1960 H   0  0  0  0  0  0  0  0  0  0  0  0
   -8.3818   21.4143  -30.9945 H   0  0  0  0  0  0  0  0  0  0  0  0
   -7.3858   23.4652  -30.0217 H   0  0  0  0  0  0  0  0  0  0  0  0
   -2.9343   23.6221  -30.2893 H   0  0  0  0  0  0  0  0  0  0  0  0
   -3.1347   25.3314  -29.7340 H   0  0  0  0  0  0  0  0  0  0  0  0
   -3.4711   24.6648  -27.6155 H   0  0  0  0  0  0  0  0  0  0  0  0
   -4.7786   23.5445  -28.1274 H   0  0  0  0  0  0  0  0  0  0  0  0
   -3.0699   22.9904  -28.1274 H   0  0  0  0  0  0  0  0  0  0  0  0
   -4.8729   26.5073  -30.3259 H   0  0  0  0  0  0  0  0  0  0  0  0
   -6.1140   25.7836  -31.4216 H   0  0  0  0  0  0  0  0  0  0  0  0
   -6.1339   25.7301  -28.3610 H   0  0  0  0  0  0  0  0  0  0  0  0
   -7.2022   26.7086  -29.4231 H   0  0  0  0  0  0  0  0  0  0  0  0
   -7.3329   24.9171  -29.4231 H   0  0  0  0  0  0  0  0  0  0  0  0
   -3.6853   22.6696  -32.0980 H   0  0  0  0  0  0  0  0  0  0  0  0
  1  2  1  0
  2  3  1  0
  3  4  1  0
  4  5  1  0
  5  6  1  0
  6  7  1  0
  7  8  1  0
  8  9  1  0
  9 10  2  0
 10 11  1  0
 11 12  2  0
 12 13  1  0
 13 14  2  0
 14 15  1  0
 15 16  2  0
 16 17  1  0
 16 18  1  0
 18 19  2  0
 19 20  1  0
 20 21  2  0
 21 22  1  0
 22 23  1  0
 23 24  1  0
 22 25  1  0
 25 26  1  0
 21 27  1  0
 27 28  2  0
 28  9  1  0
 15 10  1  0
 28 18  1  0
  1 29  1  0
  1 30  1  0
  1 31  1  0
  2 32  1  0
  2 33  1  0
  3 34  1  0
  3 35  1  0
  4 36  1  0
  4 37  1  0
  5 38  1  0
  5 39  1  0
  6 40  1  0
  6 41  1  0
  7 42  1  0
  7 43  1  0
  8 44  1  0
 11 45  1  0
 12 46  1  0
 13 47  1  0
 14 48  1  0
 17 49  1  0
 17 50  1  0
 17 51  1  0
 19 52  1  0
 20 53  1  0
 23 54  1  0
 23 55  1  0
 24 56  1  0
 24 57  1  0
 24 58  1  0
 25 59  1  0
 25 60  1  0
 26 61  1  0
 26 62  1  0
 26 63  1  0
 27 64  1  0
M  CHG  2   3   1  16   1
M  END
>  <UniqueID>  (5) 
5

>  <SMILES>  (5) 
CC[NH2+]CCCCNc1c2ccccc2[n+](C)c2ccc(N(CC)CC)cc12

>  <Energy>  (5) 
76.83235014533209

>  <Genealogy>  (5) 
CC[NH2+]CCCCNc1c2ccccc2[n+](C)c2ccc(N(CC)CC)cc12 (protonated)
CC[NH2+]CCCCNc1c2ccccc2[n+](C)c2ccc(N(CC)CC)cc12 (3D coordinates assigned)
CC[NH2+]CCCCNc1c2ccccc2[n+](C)c2ccc(N(CC)CC)cc12 (optimized conformer: 76.83235014533209 kcal/mol)

>  <smiles>  (5) 
CCNCCCCNc1c2ccccc2[n+](C)c2ccc(N(CC)CC)cc12

>  <score_type>  (5) 
oracle

>  <origin>  (5) 
adg

>  <m_score__min__energy>  (5) 
-7.5300000000000002

>  <m_primary>  (5) 
energy

$$$$
5:0
     RDKit          3D

 46 48  0  0  0  0  0  0  0  0999 V2000
   -6.0850   24.5920  -30.1260 C   0  0  0  0  0  0  0  0  0  0  0  0
   -6.7830   23.2380  -30.0550 C   0  0  0  0  0  0  0  0  0  0  0  0
   -7.0790   22.7420  -31.4040 N   0  0  0  0  0  0  0  0  0  0  0  0
   -8.0780   23.4200  -32.2380 C   0  0  0  0  0  0  0  0  0  0  0  0
   -9.4700   22.8620  -31.9660 C   0  0  0  0  0  0  0  0  0  0  0  0
   -6.2360   21.7310  -31.9820 C   0  0  0  0  0  0  0  0  0  0  0  0
   -4.9190   22.0620  -32.3350 C   0  0  0  0  0  0  0  0  0  0  0  0
   -4.0580   21.1100  -32.8960 C   0  0  0  0  0  0  0  0  0  0  0  0
   -2.7170   21.5020  -33.2470 N   0  0  0  0  0  0  0  0  0  0  0  0
   -1.5920   21.5350  -32.3100 C   0  0  0  0  0  0  0  0  0  0  0  0
   -2.0770   21.7660  -30.9030 C   0  0  0  0  0  0  0  0  0  0  0  0
   -2.2030   20.6930  -30.0090 C   0  0  0  0  0  0  0  0  0  0  0  0
   -2.6500   20.9170  -28.7060 C   0  0  0  0  0  0  0  0  0  0  0  0
   -2.9610   22.2180  -28.3050 C   0  0  0  0  0  0  0  0  0  0  0  0
   -2.8240   23.2510  -29.1770 N   0  0  0  0  0  0  0  0  0  0  0  0
   -2.3910   23.0580  -30.4520 C   0  0  0  0  0  0  0  0  0  0  0  0
   -4.5240   19.7990  -33.0940 C   0  0  0  0  0  0  0  0  0  0  0  0
   -5.8380   19.4480  -32.7550 C   0  0  0  0  0  0  0  0  0  0  0  0
   -6.2970   18.1390  -32.9720 C   0  0  0  0  0  0  0  0  0  0  0  0
   -7.6100   17.7910  -32.6460 C   0  0  0  0  0  0  0  0  0  0  0  0
   -8.4740   18.7440  -32.1050 C   0  0  0  0  0  0  0  0  0  0  0  0
   -8.0320   20.0500  -31.8820 C   0  0  0  0  0  0  0  0  0  0  0  0
   -6.7090   20.4180  -32.1970 C   0  0  0  0  0  0  0  0  0  0  0  0
   -5.8950   24.9605  -29.1071 H   0  0  0  0  0  0  0  0  0  0  0  0
   -5.1299   24.4846  -30.6611 H   0  0  0  0  0  0  0  0  0  0  0  0
   -6.7265   25.3076  -30.6611 H   0  0  0  0  0  0  0  0  0  0  0  0
   -6.1280   22.5194  -29.5406 H   0  0  0  0  0  0  0  0  0  0  0  0
   -7.7273   23.3526  -29.5025 H   0  0  0  0  0  0  0  0  0  0  0  0
   -8.0689   24.4962  -32.0105 H   0  0  0  0  0  0  0  0  0  0  0  0
   -7.8292   23.2533  -33.2964 H   0  0  0  0  0  0  0  0  0  0  0  0
   -9.6331   22.7966  -30.8801 H   0  0  0  0  0  0  0  0  0  0  0  0
  -10.2250   23.5270  -32.4108 H   0  0  0  0  0  0  0  0  0  0  0  0
   -9.5566   21.8597  -32.4108 H   0  0  0  0  0  0  0  0  0  0  0  0
   -4.5562   23.0870  -32.1683 H   0  0  0  0  0  0  0  0  0  0  0  0
   -2.5080   21.7250  -34.2470 H   0  0  0  0  0  0  0  0  0  0  0  0
   -1.0570   20.5749  -32.3544 H   0  0  0  0  0  0  0  0  0  0  0  0
   -0.9209   22.3596  -32.5924 H   0  0  0  0  0  0  0  0  0  0  0  0
   -1.9492   19.6736  -30.3351 H   0  0  0  0  0  0  0  0  0  0  0  0
   -2.7562   20.0780  -28.0026 H   0  0  0  0  0  0  0  0  0  0  0  0
   -3.3174   22.4068  -27.2816 H   0  0  0  0  0  0  0  0  0  0  0  0
   -2.2866   23.9166  -31.1316 H   0  0  0  0  0  0  0  0  0  0  0  0
   -3.8505   19.0404  -33.5194 H   0  0  0  0  0  0  0  0  0  0  0  0
   -5.6203   17.3848  -33.4002 H   0  0  0  0  0  0  0  0  0  0  0  0
   -7.9637   16.7634  -32.8161 H   0  0  0  0  0  0  0  0  0  0  0  0
   -9.5079   18.4654  -31.8530 H   0  0  0  0  0  0  0  0  0  0  0  0
   -8.7208   20.7955  -31.4580 H   0  0  0  0  0  0  0  0  0  0  0  0
  1  2  1  0
  2  3  1  0
  3  4  1  0
  4  5  1  0
  3  6  1  0
  6  7  2  0
  7  8  1  0
  8  9  1  0
  9 10  1  0
 10 11  1  0
 11 12  2  0
 12 13  1  0
 13 14  2  0
 14 15  1  0
 15 16  2  0
  8 17  2  0
 17 18  1  0
 18 19  2  0
 19 20  1  0
 20 21  2  0
 21 22  1  0
 22 23  2  0
 23  6  1  0
 16 11  1  0
 23 18  1  0
  1 24  1  0
  1 25  1  0
  1 26  1  0
  2 27  1  0
  2 28  1  0
  4 29  1  0
  4 30  1  0
  5 31  1  0
  5 32  1  0
  5 33  1  0
  7 34  1  0
  9 35  1  0
 10 36  1  0
 10 37  1  0
 12 38  1  0
 13 39  1  0
 14 40  1  0
 16 41  1  0
 17 42  1  0
 19 43  1  0
 20 44  1  0
 21 45  1  0
 22 46  1  0
M  END
>  <UniqueID>  (6) 
6

>  <SMILES>  (6) 
CCN(CC)c1cc(NCc2cccnc2)cc2ccccc12

>  <Energy>  (6) 
49.50741202862296

>  <Genealogy>  (6) 
CCN(CC)c1cc(NCc2cccnc2)cc2ccccc12 (3D coordinates assigned)
CCN(CC)c1cc(NCc2cccnc2)cc2ccccc12 (optimized conformer: 49.50741202862296 kcal/mol)

>  <smiles>  (6) 
CCN(CC)c1cc(NCc2cccnc2)cc2ccccc12

>  <score_type>  (6) 
oracle

>  <origin>  (6) 
adg

>  <m_score__min__energy>  (6) 
-7.8499999999999996

>  <m_primary>  (6) 
energy

$$$$
6:0
     RDKit          3D

 53 54  0  0  0  0  0  0  0  0999 V2000
   -4.4870   22.4000  -32.0750 C   0  0  0  0  0  0  0  0  0  0  0  0
   -3.8100   21.0690  -32.3920 C   0  0  0  0  0  0  0  0  0  0  0  0
   -2.6510   21.1690  -33.4140 C   0  0  0  0  0  0  0  0  0  0  0  0
   -1.8980   19.9140  -33.7070 N   0  0  0  0  0  0  0  0  0  0  0  0
   -0.4380   20.1560  -33.8800 C   0  0  0  0  0  0  0  0  0  0  0  0
   -0.0870   20.5650  -35.3260 C   0  0  0  0  0  0  0  0  0  0  0  0
    0.2730   22.0450  -35.4100 C   0  0  0  0  0  0  0  0  0  0  0  0
   -2.1420   18.8110  -32.7400 C   0  0  0  0  0  0  0  0  0  0  0  0
   -2.9140   17.6320  -33.3670 C   0  0  0  0  0  0  0  0  0  0  0  0
   -3.1190   17.8180  -34.8150 N   0  0  0  0  0  0  0  0  0  0  0  0
   -4.4480   17.4070  -35.3040 C   0  0  0  0  0  0  0  0  0  0  0  0
   -5.5660   17.7330  -34.3360 C   0  0  0  0  0  0  0  0  0  0  0  0
   -5.9150   19.0750  -34.1130 C   0  0  0  0  0  0  0  0  0  0  0  0
   -6.9210   19.4010  -33.1980 C   0  0  0  0  0  0  0  0  0  0  0  0
   -7.2790   20.7350  -32.9540 C   0  0  0  0  0  0  0  0  0  0  0  0
   -8.2890   21.0410  -32.0330 C   0  0  0  0  0  0  0  0  0  0  0  0
   -8.6110   22.3910  -31.8250 O   0  0  0  0  0  0  0  0  0  0  0  0
   -7.6510   23.4220  -31.6080 C   0  0  0  0  0  0  0  0  0  0  0  0
   -8.9430   19.9960  -31.3520 C   0  0  0  0  0  0  0  0  0  0  0  0
   -8.5880   18.6650  -31.5910 C   0  0  0  0  0  0  0  0  0  0  0  0
   -7.5790   18.3620  -32.5100 C   0  0  0  0  0  0  0  0  0  0  0  0
   -7.2320   17.0690  -32.7410 N   0  0  0  0  0  0  0  0  0  0  0  0
   -6.2540   16.7290  -33.6230 C   0  0  0  0  0  0  0  0  0  0  0  0
   -5.8990   15.0210  -33.8450 Cl  0  0  0  0  0  0  0  0  0  0  0  0
   -4.5520   22.5277  -30.9844 H   0  0  0  0  0  0  0  0  0  0  0  0
   -3.8979   23.2229  -32.5061 H   0  0  0  0  0  0  0  0  0  0  0  0
   -5.4990   22.4085  -32.5061 H   0  0  0  0  0  0  0  0  0  0  0  0
   -3.4081   20.6556  -31.4552 H   0  0  0  0  0  0  0  0  0  0  0  0
   -4.5775   20.4271  -32.8491 H   0  0  0  0  0  0  0  0  0  0  0  0
   -3.0747   21.5313  -34.3623 H   0  0  0  0  0  0  0  0  0  0  0  0
   -1.9159   21.8421  -32.9485 H   0  0  0  0  0  0  0  0  0  0  0  0
   -2.2690   19.5890  -34.6330 H   0  0  0  0  0  0  0  0  0  0  0  0
   -0.1283   20.9616  -33.1980 H   0  0  0  0  0  0  0  0  0  0  0  0
    0.0909   19.2182  -33.6543 H   0  0  0  0  0  0  0  0  0  0  0  0
    0.7702   19.9674  -35.6696 H   0  0  0  0  0  0  0  0  0  0  0  0
   -0.9663   20.3843  -35.9617 H   0  0  0  0  0  0  0  0  0  0  0  0
    0.3730   22.4562  -34.3947 H   0  0  0  0  0  0  0  0  0  0  0  0
    1.2255   22.1607  -35.9479 H   0  0  0  0  0  0  0  0  0  0  0  0
   -0.5199   22.5853  -35.9479 H   0  0  0  0  0  0  0  0  0  0  0  0
   -1.1723   18.4423  -32.3742 H   0  0  0  0  0  0  0  0  0  0  0  0
   -2.7573   19.2148  -31.9225 H   0  0  0  0  0  0  0  0  0  0  0  0
   -2.3427   16.7061  -33.2046 H   0  0  0  0  0  0  0  0  0  0  0  0
   -3.9021   17.5772  -32.8868 H   0  0  0  0  0  0  0  0  0  0  0  0
   -2.3930   17.2560  -35.3180 H   0  0  0  0  0  0  0  0  0  0  0  0
   -4.6463   17.9242  -36.2544 H   0  0  0  0  0  0  0  0  0  0  0  0
   -4.4284   16.3139  -35.4252 H   0  0  0  0  0  0  0  0  0  0  0  0
   -5.3942   19.8740  -34.6611 H   0  0  0  0  0  0  0  0  0  0  0  0
   -6.7634   21.5460  -33.4892 H   0  0  0  0  0  0  0  0  0  0  0  0
   -7.5116   23.5717  -30.5272 H   0  0  0  0  0  0  0  0  0  0  0  0
   -6.6929   23.1330  -32.0647 H   0  0  0  0  0  0  0  0  0  0  0  0
   -8.0076   24.3570  -32.0647 H   0  0  0  0  0  0  0  0  0  0  0  0
   -9.7377   20.2284  -30.6278 H   0  0  0  0  0  0  0  0  0  0  0  0
   -9.1036   17.8546  -31.0549 H   0  0  0  0  0  0  0  0  0  0  0  0
  1  2  1  0
  2  3  1  0
  3  4  1  0
  4  5  1  0
  5  6  1  0
  6  7  1  0
  4  8  1  0
  8  9  1  0
  9 10  1  0
 10 11  1  0
 11 12  1  0
 12 13  2  0
 13 14  1  0
 14 15  2  0
 15 16  1  0
 16 17  1  0
 17 18  1  0
 16 19  2  0
 19 20  1  0
 20 21  2  0
 21 22  1  0
 22 23  2  0
 23 24  1  0
 23 12  1  0
 21 14  1  0
  1 25  1  0
  1 26  1  0
  1 27  1  0
  2 28  1  0
  2 29  1  0
  3 30  1  0
  3 31  1  0
  4 32  1  0
  5 33  1  0
  5 34  1  0
  6 35  1  0
  6 36  1  0
  7 37  1  0
  7 38  1  0
  7 39  1  0
  8 40  1  0
  8 41  1  0
  9 42  1  0
  9 43  1  0
 10 44  1  0
 11 45  1  0
 11 46  1  0
 13 47  1  0
 15 48  1  0
 18 49  1  0
 18 50  1  0
 18 51  1  0
 19 52  1  0
 20 53  1  0
M  CHG  1   4   1
M  END
>  <UniqueID>  (7) 
7

>  <SMILES>  (7) 
CCC[NH+](CCC)CCNCc1cc2cc(OC)ccc2nc1Cl

>  <Energy>  (7) 
58.63851749629015

>  <Genealogy>  (7) 
CCC[NH+](CCC)CCNCc1cc2cc(OC)ccc2nc1Cl (protonated)
CCC[NH+](CCC)CCNCc1cc2cc(OC)ccc2nc1Cl (3D coordinates assigned)
CCC[NH+](CCC)CCNCc1cc2cc(OC)ccc2nc1Cl (optimized conformer: 58.63851749629015 kcal/mol)

>  <smiles>  (7) 
CCCN(CCC)CCNCc1cc2cc(OC)ccc2nc1Cl

>  <score_type>  (7) 
oracle

>  <origin>  (7) 
adg

>  <m_score__min__energy>  (7) 
-7.1699999999999999

>  <m_primary>  (7) 
energy

$$$$
7:0
     RDKit          3D

 67 70  0  0  0  0  0  0  0  0999 V2000
   -3.4670   24.5280  -27.0850 C   0  0  0  0  0  0  0  0  0  0  0  0
   -4.2400   24.1600  -28.3480 C   0  0  0  0  0  0  0  0  0  0  0  0
   -3.2900   23.9580  -29.5410 C   0  0  0  0  0  0  0  0  0  0  0  0
   -3.6830   24.7510  -30.7150 N   0  0  0  0  0  0  0  0  0  0  0  0
   -5.1330   24.9760  -30.7800 C   0  0  0  0  0  0  0  0  0  0  0  0
   -5.8650   23.6520  -31.0420 C   0  0  0  0  0  0  0  0  0  0  0  0
   -5.4300   23.0210  -32.3090 N   0  0  0  0  0  0  0  0  0  0  0  0
   -5.7480   21.5970  -32.3560 C   0  0  0  0  0  0  0  0  0  0  0  0
   -7.1130   21.1900  -32.2850 C   0  0  0  0  0  0  0  0  0  0  0  0
   -8.1520   22.1180  -32.0120 C   0  0  0  0  0  0  0  0  0  0  0  0
   -9.4860   21.7230  -31.9710 C   0  0  0  0  0  0  0  0  0  0  0  0
   -9.8280   20.4050  -32.2180 C   0  0  0  0  0  0  0  0  0  0  0  0
   -8.8370   19.4680  -32.4920 C   0  0  0  0  0  0  0  0  0  0  0  0
   -7.4630   19.8310  -32.5080 C   0  0  0  0  0  0  0  0  0  0  0  0
   -6.4860   18.9000  -32.7820 N   0  0  0  0  0  0  0  0  0  0  0  0
   -6.8140   17.4560  -32.7600 C   0  0  0  0  0  0  0  0  0  0  0  0
   -5.1970   19.3060  -33.0460 C   0  0  0  0  0  0  0  0  0  0  0  0
   -4.2930   18.4370  -33.7030 C   0  0  0  0  0  0  0  0  0  0  0  0
   -2.9630   18.7850  -33.8810 C   0  0  0  0  0  0  0  0  0  0  0  0
   -2.4850   19.9710  -33.3540 C   0  0  0  0  0  0  0  0  0  0  0  0
   -3.3480   20.8780  -32.7210 C   0  0  0  0  0  0  0  0  0  0  0  0
   -2.7530   21.9300  -31.9460 N   0  0  0  0  0  0  0  0  0  0  0  0
   -1.3350   21.9320  -31.5850 C   0  0  0  0  0  0  0  0  0  0  0  0
   -1.1740   21.7130  -30.0680 C   0  0  0  0  0  0  0  0  0  0  0  0
   -1.8000   20.4720  -29.5540 N   0  0  0  0  0  0  0  0  0  0  0  0
   -0.8520   19.5650  -28.8900 C   0  0  0  0  0  0  0  0  0  0  0  0
   -1.1610   19.5550  -27.3970 C   0  0  0  0  0  0  0  0  0  0  0  0
   -2.3860   20.4310  -27.2130 C   0  0  0  0  0  0  0  0  0  0  0  0
   -2.9020   20.7080  -28.6140 C   0  0  0  0  0  0  0  0  0  0  0  0
   -4.7570   20.6150  -32.6840 C   0  0  0  0  0  0  0  0  0  0  0  0
   -4.0563   24.2474  -26.1996 H   0  0  0  0  0  0  0  0  0  0  0  0
   -2.5076   23.9900  -27.0724 H   0  0  0  0  0  0  0  0  0  0  0  0
   -3.2798   25.6119  -27.0724 H   0  0  0  0  0  0  0  0  0  0  0  0
   -4.7960   23.2277  -28.1699 H   0  0  0  0  0  0  0  0  0  0  0  0
   -4.9300   24.9827  -28.5869 H   0  0  0  0  0  0  0  0  0  0  0  0
   -2.2753   24.2556  -29.2381 H   0  0  0  0  0  0  0  0  0  0  0  0
   -3.3325   22.8963  -29.8257 H   0  0  0  0  0  0  0  0  0  0  0  0
   -3.3810   24.2500  -31.5840 H   0  0  0  0  0  0  0  0  0  0  0  0
   -5.4780   25.3989  -29.8250 H   0  0  0  0  0  0  0  0  0  0  0  0
   -5.3509   25.6746  -31.6013 H   0  0  0  0  0  0  0  0  0  0  0  0
   -5.6582   22.9611  -30.2114 H   0  0  0  0  0  0  0  0  0  0  0  0
   -6.9408   23.8674  -31.1206 H   0  0  0  0  0  0  0  0  0  0  0  0
   -5.8810   23.4870  -33.1300 H   0  0  0  0  0  0  0  0  0  0  0  0
   -4.4190   23.2090  -32.4760 H   0  0  0  0  0  0  0  0  0  0  0  0
   -7.8972   23.1723  -31.8289 H   0  0  0  0  0  0  0  0  0  0  0  0
  -10.2699   22.4599  -31.7418 H   0  0  0  0  0  0  0  0  0  0  0  0
  -10.8841   20.0981  -32.1977 H   0  0  0  0  0  0  0  0  0  0  0  0
   -9.1223   18.4262  -32.7003 H   0  0  0  0  0  0  0  0  0  0  0  0
   -6.8918   17.1135  -31.7176 H   0  0  0  0  0  0  0  0  0  0  0  0
   -7.7728   17.2899  -33.2730 H   0  0  0  0  0  0  0  0  0  0  0  0
   -6.0211   16.8920  -33.2730 H   0  0  0  0  0  0  0  0  0  0  0  0
   -4.6525   17.4679  -34.0792 H   0  0  0  0  0  0  0  0  0  0  0  0
   -2.2892   18.1192  -34.4402 H   0  0  0  0  0  0  0  0  0  0  0  0
   -1.4133   20.2064  -33.4323 H   0  0  0  0  0  0  0  0  0  0  0  0
   -3.4030   22.5040  -31.3670 H   0  0  0  0  0  0  0  0  0  0  0  0
   -0.8208   21.1238  -32.1258 H   0  0  0  0  0  0  0  0  0  0  0  0
   -0.8958   22.9031  -31.8570 H   0  0  0  0  0  0  0  0  0  0  0  0
   -0.0988   21.6752  -29.8390 H   0  0  0  0  0  0  0  0  0  0  0  0
   -1.6908   22.5499  -29.5756 H   0  0  0  0  0  0  0  0  0  0  0  0
   -0.9609   18.5496  -29.2987 H   0  0  0  0  0  0  0  0  0  0  0  0
    0.1798   19.9061  -29.0602 H   0  0  0  0  0  0  0  0  0  0  0  0
   -1.3707   18.5299  -27.0578 H   0  0  0  0  0  0  0  0  0  0  0  0
   -0.3095   19.9276  -26.8087 H   0  0  0  0  0  0  0  0  0  0  0  0
   -3.1486   19.9054  -26.6195 H   0  0  0  0  0  0  0  0  0  0  0  0
   -2.1457   21.3604  -26.6759 H   0  0  0  0  0  0  0  0  0  0  0  0
   -3.7404   20.0340  -28.8438 H   0  0  0  0  0  0  0  0  0  0  0  0
   -3.2586   21.7456  -28.6934 H   0  0  0  0  0  0  0  0  0  0  0  0
  1  2  1  0
  2  3  1  0
  3  4  1  0
  4  5  1  0
  5  6  1  0
  6  7  1  0
  7  8  1  0
  8  9  2  0
  9 10  1  0
 10 11  2  0
 11 12  1  0
 12 13  2  0
 13 14  1  0
 14 15  2  0
 15 16  1  0
 15 17  1  0
 17 18  2  0
 18 19  1  0
 19 20  2  0
 20 21  1  0
 21 22  1  0
 22 23  1  0
 23 24  1  0
 24 25  1  0
 25 26  1  0
 26 27  1  0
 27 28  1  0
 28 29  1  0
 21 30  2  0
 30  8  1  0
 14  9  1  0
 30 17  1  0
 29 25  1  0
  1 31  1  0
  1 32  1  0
  1 33  1  0
  2 34  1  0
  2 35  1  0
  3 36  1  0
  3 37  1  0
  4 38  1  0
  5 39  1  0
  5 40  1  0
  6 41  1  0
  6 42  1  0
  7 43  1  0
  7 44  1  0
 10 45  1  0
 11 46  1  0
 12 47  1  0
 13 48  1  0
 16 49  1  0
 16 50  1  0
 16 51  1  0
 18 52  1  0
 19 53  1  0
 20 54  1  0
 22 55  1  0
 23 56  1  0
 23 57  1  0
 24 58  1  0
 24 59  1  0
 26 60  1  0
 26 61  1  0
 27 62  1  0
 27 63  1  0
 28 64  1  0
 28 65  1  0
 29 66  1  0
 29 67  1  0
M  CHG  2   7   1  15   1
M  END
>  <UniqueID>  (8) 
8

>  <SMILES>  (8) 
CCCNCC[NH2+]c1c2ccccc2[n+](C)c2cccc(NCCN3CCCC3)c12

>  <Energy>  (8) 
108.80462507359258

>  <Genealogy>  (8) 
CCCNCC[NH2+]c1c2ccccc2[n+](C)c2cccc(NCCN3CCCC3)c12 (protonated)
CCCNCC[NH2+]c1c2ccccc2[n+](C)c2cccc(NCCN3CCCC3)c12 (3D coordinates assigned)
CCCNCC[NH2+]c1c2ccccc2[n+](C)c2cccc(NCCN3CCCC3)c12 (nonaromatic ring conformer: 108.80462507359258 kcal/mol)

>  <smiles>  (8) 
CCCNCCNc1c2ccccc2[n+](C)c2cccc(NCCN3CCCC3)c12

>  <score_type>  (8) 
oracle

>  <origin>  (8) 
adg

>  <m_score__min__energy>  (8) 
-8.5

>  <m_primary>  (8) 
energy

$$$$
8:0
     RDKit          3D

 53 55  0  0  0  0  0  0  0  0999 V2000
   -4.2230   24.9190  -26.4570 C   0  0  0  0  0  0  0  0  0  0  0  0
   -3.1570   24.5380  -27.4720 C   0  0  0  0  0  0  0  0  0  0  0  0
   -3.7780   24.0860  -28.7130 N   0  0  0  0  0  0  0  0  0  0  0  0
   -5.0420   24.3390  -29.0970 C   0  0  0  0  0  0  0  0  0  0  0  0
   -5.2370   23.7770  -30.3430 C   0  0  0  0  0  0  0  0  0  0  0  0
   -6.5080   23.8060  -31.1650 C   0  0  0  0  0  0  0  0  0  0  0  0
   -7.3540   22.5910  -31.0250 N   0  0  0  0  0  0  0  0  0  0  0  0
   -8.7220   22.7910  -31.5750 C   0  0  0  0  0  0  0  0  0  0  0  0
   -9.4450   21.4500  -31.7500 C   0  0  0  0  0  0  0  0  0  0  0  0
   -8.7340   20.5950  -32.7300 N   0  0  0  0  0  0  0  0  0  0  0  0
   -9.1410   19.1730  -32.7040 C   0  0  0  0  0  0  0  0  0  0  0  0
   -8.7760   18.4170  -31.4120 C   0  0  0  0  0  0  0  0  0  0  0  0
   -7.3610   18.2930  -31.2890 O   0  0  0  0  0  0  0  0  0  0  0  0
   -6.5010   17.9080  -32.3240 C   0  0  0  0  0  0  0  0  0  0  0  0
   -6.9170   16.8790  -33.1840 C   0  0  0  0  0  0  0  0  0  0  0  0
   -6.0920   16.4500  -34.2280 C   0  0  0  0  0  0  0  0  0  0  0  0
   -4.8420   17.0490  -34.4190 C   0  0  0  0  0  0  0  0  0  0  0  0
   -4.4190   18.0850  -33.5700 C   0  0  0  0  0  0  0  0  0  0  0  0
   -2.7120   18.9050  -33.8340 Br  0  0  0  0  0  0  0  0  0  0  0  0
   -5.2440   18.5160  -32.5260 C   0  0  0  0  0  0  0  0  0  0  0  0
   -7.2770   20.8380  -32.8390 C   0  0  0  0  0  0  0  0  0  0  0  0
   -6.6830   21.3510  -31.5130 C   0  0  0  0  0  0  0  0  0  0  0  0
   -4.0040   23.2280  -30.6760 C   0  0  0  0  0  0  0  0  0  0  0  0
   -3.6450   22.4940  -31.9300 C   0  0  0  0  0  0  0  0  0  0  0  0
   -3.1350   23.4240  -29.6630 N   0  0  0  0  0  0  0  0  0  0  0  0
   -3.8281   24.7779  -25.4401 H   0  0  0  0  0  0  0  0  0  0  0  0
   -4.5038   25.9731  -26.5983 H   0  0  0  0  0  0  0  0  0  0  0  0
   -5.1083   24.2816  -26.5983 H   0  0  0  0  0  0  0  0  0  0  0  0
   -2.5249   25.4138  -27.6805 H   0  0  0  0  0  0  0  0  0  0  0  0
   -2.5457   23.7217  -27.0597 H   0  0  0  0  0  0  0  0  0  0  0  0
   -5.7918   24.8978  -28.5177 H   0  0  0  0  0  0  0  0  0  0  0  0
   -7.1016   24.6774  -30.8513 H   0  0  0  0  0  0  0  0  0  0  0  0
   -6.2004   23.8564  -32.2199 H   0  0  0  0  0  0  0  0  0  0  0  0
   -7.4770   22.4670  -29.9890 H   0  0  0  0  0  0  0  0  0  0  0  0
   -9.2988   23.4232  -30.8839 H   0  0  0  0  0  0  0  0  0  0  0  0
   -8.6369   23.2745  -32.5594 H   0  0  0  0  0  0  0  0  0  0  0  0
   -9.4844   20.9319  -30.7805 H   0  0  0  0  0  0  0  0  0  0  0  0
  -10.4623   21.6427  -32.1215 H   0  0  0  0  0  0  0  0  0  0  0  0
  -10.2329   19.1278  -32.8294 H   0  0  0  0  0  0  0  0  0  0  0  0
   -8.5884   18.6792  -33.5169 H   0  0  0  0  0  0  0  0  0  0  0  0
   -9.1676   18.9705  -30.5458 H   0  0  0  0  0  0  0  0  0  0  0  0
   -9.2193   17.4110  -31.4511 H   0  0  0  0  0  0  0  0  0  0  0  0
   -7.8993   16.4069  -33.0352 H   0  0  0  0  0  0  0  0  0  0  0  0
   -6.4248   15.6434  -34.8978 H   0  0  0  0  0  0  0  0  0  0  0  0
   -4.1891   16.7078  -35.2359 H   0  0  0  0  0  0  0  0  0  0  0  0
   -4.9129   19.3287  -31.8627 H   0  0  0  0  0  0  0  0  0  0  0  0
   -6.7782   19.8964  -33.1122 H   0  0  0  0  0  0  0  0  0  0  0  0
   -7.1148   21.6081  -33.6076 H   0  0  0  0  0  0  0  0  0  0  0  0
   -6.7948   20.5665  -30.7501 H   0  0  0  0  0  0  0  0  0  0  0  0
   -5.6254   21.5937  -31.6937 H   0  0  0  0  0  0  0  0  0  0  0  0
   -3.1753   21.5336  -31.6710 H   0  0  0  0  0  0  0  0  0  0  0  0
   -4.5547   22.3098  -32.5203 H   0  0  0  0  0  0  0  0  0  0  0  0
   -2.9411   23.0991  -32.5203 H   0  0  0  0  0  0  0  0  0  0  0  0
  1  2  1  0
  2  3  1  0
  3  4  1  0
  4  5  2  0
  5  6  1  0
  6  7  1  0
  7  8  1  0
  8  9  1  0
  9 10  1  0
 10 11  1  0
 11 12  1  0
 12 13  1  0
 13 14  1  0
 14 15  2  0
 15 16  1  0
 16 17  2  0
 17 18  1  0
 18 19  1  0
 18 20  2  0
 10 21  1  0
 21 22  1  0
  5 23  1  0
 23 24  1  0
 23 25  2  0
 25  3  1  0
 22  7  1  0
 20 14  1  0
  1 26  1  0
  1 27  1  0
  1 28  1  0
  2 29  1  0
  2 30  1  0
  4 31  1  0
  6 32  1  0
  6 33  1  0
  7 34  1  0
  8 35  1  0
  8 36  1  0
  9 37  1  0
  9 38  1  0
 11 39  1  0
 11 40  1  0
 12 41  1  0
 12 42  1  0
 15 43  1  0
 16 44  1  0
 17 45  1  0
 20 46  1  0
 21 47  1  0
 21 48  1  0
 22 49  1  0
 22 50  1  0
 24 51  1  0
 24 52  1  0
 24 53  1  0
M  CHG  1   7   1
M  END
>  <UniqueID>  (9) 
9

>  <SMILES>  (9) 
CCn1cc(C[NH+]2CCN(CCOc3cccc(Br)c3)CC2)c(C)n1

>  <Energy>  (9) 
95.37080594983527

>  <Genealogy>  (9) 
CCn1cc(C[NH+]2CCN(CCOc3cccc(Br)c3)CC2)c(C)n1 (protonated)
CCn1cc(C[NH+]2CCN(CCOc3cccc(Br)c3)CC2)c(C)n1 (3D coordinates assigned)
CCn1cc(C[NH+]2CCN(CCOc3cccc(Br)c3)CC2)c(C)n1 (nonaromatic ring conformer: 95.37080594983527 kcal/mol)

>  <smiles>  (9) 
CCn1cc(CN2CCN(CCOc3cccc(Br)c3)CC2)c(C)n1

>  <score_type>  (9) 
oracle

>  <origin>  (9) 
adg

>  <m_score__min__energy>  (9) 
-8.3200000000000003

>  <m_primary>  (9) 
energy

$$$$
9:0
     RDKit          3D

 47 47  0  0  0  0  0  0  0  0999 V2000
   -6.4990   24.9440  -29.8490 C   0  0  0  0  0  0  0  0  0  0  0  0
   -6.7180   23.4400  -29.8150 C   0  0  0  0  0  0  0  0  0  0  0  0
   -6.5120   22.9130  -31.1000 O   0  0  0  0  0  0  0  0  0  0  0  0
   -7.9640   23.1810  -31.9950 S   0  0  0  0  0  0  0  0  0  0  0  0
   -8.6540   21.5590  -31.5330 C   0  0  0  0  0  0  0  0  0  0  0  0
   -7.9490   20.4340  -32.2920 C   0  0  0  0  0  0  0  0  0  0  0  0
   -6.5410   20.5670  -32.1990 O   0  0  0  0  0  0  0  0  0  0  0  0
   -5.9260   19.3470  -31.8250 C   0  0  0  0  0  0  0  0  0  0  0  0
   -4.6960   19.0830  -32.6900 C   0  0  0  0  0  0  0  0  0  0  0  0
   -4.4320   20.2280  -33.4740 O   0  0  0  0  0  0  0  0  0  0  0  0
   -3.1090   20.6860  -33.2660 C   0  0  0  0  0  0  0  0  0  0  0  0
   -3.0920   22.0730  -32.6050 C   0  0  0  0  0  0  0  0  0  0  0  0
   -4.1250   22.1870  -31.5620 N   0  0  0  0  0  0  0  0  0  0  0  0
   -3.5520   21.9350  -30.2610 C   0  0  0  0  0  0  0  0  0  0  0  0
   -3.4090   20.6080  -29.8180 C   0  0  0  0  0  0  0  0  0  0  0  0
   -2.7900   20.3210  -28.6010 C   0  0  0  0  0  0  0  0  0  0  0  0
   -2.2740   21.3530  -27.8010 C   0  0  0  0  0  0  0  0  0  0  0  0
   -1.6290   21.0590  -26.5490 N   0  0  0  0  0  0  0  0  0  0  0  0
   -0.8760   21.8960  -26.0070 O   0  0  0  0  0  0  0  0  0  0  0  0
   -1.8330   19.8510  -25.9220 O   0  0  0  0  0  0  0  0  0  0  0  0
   -2.4000   22.6790  -28.2430 C   0  0  0  0  0  0  0  0  0  0  0  0
   -3.0420   22.9850  -29.4540 C   0  0  0  0  0  0  0  0  0  0  0  0
   -3.1470   24.3600  -29.8560 N   0  0  0  0  0  0  0  0  0  0  0  0
   -3.8520   24.6690  -30.8380 O   0  0  0  0  0  0  0  0  0  0  0  0
   -2.2850   25.2970  -29.3380 O   0  0  0  0  0  0  0  0  0  0  0  0
   -6.4428   25.3297  -28.8204 H   0  0  0  0  0  0  0  0  0  0  0  0
   -5.5591   25.1659  -30.3756 H   0  0  0  0  0  0  0  0  0  0  0  0
   -7.3366   25.4247  -30.3756 H   0  0  0  0  0  0  0  0  0  0  0  0
   -6.0081   22.9809  -29.1112 H   0  0  0  0  0  0  0  0  0  0  0  0
   -7.7459   23.2241  -29.4881 H   0  0  0  0  0  0  0  0  0  0  0  0
   -8.5198   21.4044  -30.4522 H   0  0  0  0  0  0  0  0  0  0  0  0
   -9.7230   21.5435  -31.7917 H   0  0  0  0  0  0  0  0  0  0  0  0
   -8.2487   19.4667  -31.8625 H   0  0  0  0  0  0  0  0  0  0  0  0
   -8.2383   20.4895  -33.3518 H   0  0  0  0  0  0  0  0  0  0  0  0
   -5.6213   19.4035  -30.7695 H   0  0  0  0  0  0  0  0  0  0  0  0
   -6.6450   18.5269  -31.9679 H   0  0  0  0  0  0  0  0  0  0  0  0
   -3.8305   18.8696  -32.0455 H   0  0  0  0  0  0  0  0  0  0  0  0
   -4.8800   18.2183  -33.3445 H   0  0  0  0  0  0  0  0  0  0  0  0
   -2.5819   19.9730  -32.6150 H   0  0  0  0  0  0  0  0  0  0  0  0
   -2.6121   20.7632  -34.2443 H   0  0  0  0  0  0  0  0  0  0  0  0
   -2.1046   22.2398  -32.1498 H   0  0  0  0  0  0  0  0  0  0  0  0
   -3.2989   22.8265  -33.3792 H   0  0  0  0  0  0  0  0  0  0  0  0
   -4.8850   21.4950  -31.7610 H   0  0  0  0  0  0  0  0  0  0  0  0
   -4.5680   23.1300  -31.5830 H   0  0  0  0  0  0  0  0  0  0  0  0
   -3.7905   19.7847  -30.4397 H   0  0  0  0  0  0  0  0  0  0  0  0
   -2.7055   19.2769  -28.2653 H   0  0  0  0  0  0  0  0  0  0  0  0
   -1.9882   23.4939  -27.6295 H   0  0  0  0  0  0  0  0  0  0  0  0
  1  2  1  0
  2  3  1  0
  3  4  1  0
  4  5  1  0
  5  6  1  0
  6  7  1  0
  7  8  1  0
  8  9  1  0
  9 10  1  0
 10 11  1  0
 11 12  1  0
 12 13  1  0
 13 14  1  0
 14 15  2  0
 15 16  1  0
 16 17  2  0
 17 18  1  0
 18 19  2  0
 18 20  1  0
 17 21  1  0
 21 22  2  0
 22 23  1  0
 23 24  2  0
 23 25  1  0
 22 14  1  0
  1 26  1  0
  1 27  1  0
  1 28  1  0
  2 29  1  0
  2 30  1  0
  5 31  1  0
  5 32  1  0
  6 33  1  0
  6 34  1  0
  8 35  1  0
  8 36  1  0
  9 37  1  0
  9 38  1  0
 11 39  1  0
 11 40  1  0
 12 41  1  0
 12 42  1  0
 13 43  1  0
 13 44  1  0
 15 45  1  0
 16 46  1  0
 21 47  1  0
M  CHG  5  13   1  18   1  20  -1  23   1  25  -1
M  END
>  <UniqueID>  (10) 
10

>  <SMILES>  (10) 
CCOSCCOCCOCC[NH2+]c1ccc([N+](=O)[O-])cc1[N+](=O)[O-]

>  <Energy>  (10) 
46.576147597908374

>  <Genealogy>  (10) 
CCOSCCOCCOCC[NH2+]c1ccc([N+](=O)[O-])cc1[N+](=O)[O-] (protonated)
CCOSCCOCCOCC[NH2+]c1ccc([N+](=O)[O-])cc1[N+](=O)[O-] (3D coordinates assigned)
CCOSCCOCCOCC[NH2+]c1ccc([N+](=O)[O-])cc1[N+](=O)[O-] (optimized conformer: 46.576147597908374 kcal/mol)

>  <smiles>  (10) 
CCOSCCOCCOCCNc1ccc([N+](=O)[O-])cc1[N+](=O)[O-]

>  <score_type>  (10) 
oracle

>  <origin>  (10) 
adg

>  <m_score__min__energy>  (10) 
-6.5099999999999998

>  <m_primary>  (10) 
energy

$$$$
10:0
     RDKit          3D

 37 38  0  0  0  0  0  0  0  0999 V2000
   -9.1470   21.2120  -32.2730 C   0  0  0  0  0  0  0  0  0  0  0  0
   -7.8540   21.7600  -31.7350 C   0  0  0  0  0  0  0  0  0  0  0  0
   -7.8310   23.0210  -31.1210 C   0  0  0  0  0  0  0  0  0  0  0  0
   -6.6410   23.5500  -30.6090 C   0  0  0  0  0  0  0  0  0  0  0  0
   -6.7610   25.2420  -29.7100 Br  0  0  0  0  0  0  0  0  0  0  0  0
   -5.4360   22.8210  -30.7270 C   0  0  0  0  0  0  0  0  0  0  0  0
   -3.8980   23.4520  -30.0900 S   0  0  0  0  0  0  0  0  0  0  0  0
   -3.7950   24.8930  -30.5090 O   0  0  0  0  0  0  0  0  0  0  0  0
   -2.7510   22.6850  -30.6870 O   0  0  0  0  0  0  0  0  0  0  0  0
   -3.7890   23.3330  -28.3410 N   0  0  0  0  0  0  0  0  0  0  0  0
   -2.8760   24.3770  -27.8010 C   0  0  0  0  0  0  0  0  0  0  0  0
   -1.6110   24.6550  -28.6470 C   0  0  0  0  0  0  0  0  0  0  0  0
   -0.4610   23.6220  -28.5160 C   0  0  0  0  0  0  0  0  0  0  0  0
   -0.8930   22.1460  -28.5330 C   0  0  0  0  0  0  0  0  0  0  0  0
   -1.9800   21.7810  -27.4970 C   0  0  0  0  0  0  0  0  0  0  0  0
   -3.4380   21.9430  -27.9680 C   0  0  0  0  0  0  0  0  0  0  0  0
   -5.4760   21.5400  -31.3000 C   0  0  0  0  0  0  0  0  0  0  0  0
   -6.6650   21.0130  -31.8110 C   0  0  0  0  0  0  0  0  0  0  0  0
   -6.6220   19.2630  -32.5970 Br  0  0  0  0  0  0  0  0  0  0  0  0
   -9.8039   20.9336  -31.4357 H   0  0  0  0  0  0  0  0  0  0  0  0
   -9.6419   21.9777  -32.8884 H   0  0  0  0  0  0  0  0  0  0  0  0
   -8.9410   20.3238  -32.8884 H   0  0  0  0  0  0  0  0  0  0  0  0
   -8.7615   23.6022  -31.0409 H   0  0  0  0  0  0  0  0  0  0  0  0
   -4.7420   23.5420  -27.9640 H   0  0  0  0  0  0  0  0  0  0  0  0
   -3.4437   25.3158  -27.7210 H   0  0  0  0  0  0  0  0  0  0  0  0
   -2.5160   23.9941  -26.8347 H   0  0  0  0  0  0  0  0  0  0  0  0
   -1.9142   24.6880  -29.7039 H   0  0  0  0  0  0  0  0  0  0  0  0
   -1.2023   25.6019  -28.2645 H   0  0  0  0  0  0  0  0  0  0  0  0
    0.2349   23.7813  -29.3529 H   0  0  0  0  0  0  0  0  0  0  0  0
   -0.0111   23.7941  -27.5271 H   0  0  0  0  0  0  0  0  0  0  0  0
   -1.2828   21.9143  -29.5352 H   0  0  0  0  0  0  0  0  0  0  0  0
   -0.0017   21.5576  -28.2696 H   0  0  0  0  0  0  0  0  0  0  0  0
   -1.8331   20.7292  -27.2102 H   0  0  0  0  0  0  0  0  0  0  0  0
   -1.8534   22.4932  -26.6683 H   0  0  0  0  0  0  0  0  0  0  0  0
   -3.5941   21.2975  -28.8449 H   0  0  0  0  0  0  0  0  0  0  0  0
   -4.0835   21.6628  -27.1225 H   0  0  0  0  0  0  0  0  0  0  0  0
   -4.5550   20.9405  -31.3476 H   0  0  0  0  0  0  0  0  0  0  0  0
  1  2  1  0
  2  3  2  0
  3  4  1  0
  4  5  1  0
  4  6  2  0
  6  7  1  0
  7  8  2  0
  7  9  2  0
  7 10  1  0
 10 11  1  0
 11 12  1  0
 12 13  1  0
 13 14  1  0
 14 15  1  0
 15 16  1  0
  6 17  1  0
 17 18  2  0
 18 19  1  0
 18  2  1  0
 16 10  1  0
  1 20  1  0
  1 21  1  0
  1 22  1  0
  3 23  1  0
 10 24  1  0
 11 25  1  0
 11 26  1  0
 12 27  1  0
 12 28  1  0
 13 29  1  0
 13 30  1  0
 14 31  1  0
 14 32  1  0
 15 33  1  0
 15 34  1  0
 16 35  1  0
 16 36  1  0
 17 37  1  0
M  CHG  1  10   1
M  END
>  <UniqueID>  (11) 
11

>  <SMILES>  (11) 
Cc1cc(Br)c(S(=O)(=O)[NH+]2CCCCCC2)cc1Br

>  <Energy>  (11) 
53.19613628873001

>  <Genealogy>  (11) 
Cc1cc(Br)c(S(=O)(=O)[NH+]2CCCCCC2)cc1Br (protonated)
Cc1cc(Br)c(S(=O)(=O)[NH+]2CCCCCC2)cc1Br (3D coordinates assigned)
Cc1cc(Br)c(S(=O)(=O)[NH+]2CCCCCC2)cc1Br (nonaromatic ring conformer: 53.19613628873001 kcal/mol)

>  <smiles>  (11) 
Cc1cc(Br)c(S(=O)(=O)N2CCCCCC2)cc1Br

>  <score_type>  (11) 
oracle

>  <origin>  (11) 
adg

>  <m_score__min__energy>  (11) 
-6.1900000000000004

>  <m_primary>  (11) 
energy

$$$$
11:0
     RDKit          3D

 73 76  0  0  0  0  0  0  0  0999 V2000
   -4.1060   24.1220  -28.8740 C   0  0  0  0  0  0  0  0  0  0  0  0
   -3.0660   23.7830  -29.9300 C   0  0  0  0  0  0  0  0  0  0  0  0
   -3.6780   23.7990  -31.2030 O   0  0  0  0  0  0  0  0  0  0  0  0
   -5.0510   24.0940  -31.0600 C   0  0  0  0  0  0  0  0  0  0  0  0
   -5.8590   22.8190  -31.2790 C   0  0  0  0  0  0  0  0  0  0  0  0
   -5.5040   22.1860  -32.5480 N   0  0  0  0  0  0  0  0  0  0  0  0
   -5.5930   20.7620  -32.6850 C   0  0  0  0  0  0  0  0  0  0  0  0
   -6.8370   20.1440  -32.4750 C   0  0  0  0  0  0  0  0  0  0  0  0
   -7.9020   20.8460  -31.8700 C   0  0  0  0  0  0  0  0  0  0  0  0
   -9.1160   20.2130  -31.6130 C   0  0  0  0  0  0  0  0  0  0  0  0
   -9.2860   18.8740  -31.9470 C   0  0  0  0  0  0  0  0  0  0  0  0
   -8.2560   18.1720  -32.5730 C   0  0  0  0  0  0  0  0  0  0  0  0
   -7.0260   18.8040  -32.8870 C   0  0  0  0  0  0  0  0  0  0  0  0
   -6.0330   18.1580  -33.5940 N   0  0  0  0  0  0  0  0  0  0  0  0
   -6.3550   16.9250  -34.3490 C   0  0  0  0  0  0  0  0  0  0  0  0
   -4.7500   18.6750  -33.6180 C   0  0  0  0  0  0  0  0  0  0  0  0
   -3.6720   17.9130  -34.1260 C   0  0  0  0  0  0  0  0  0  0  0  0
   -2.3980   18.4430  -34.2150 C   0  0  0  0  0  0  0  0  0  0  0  0
   -2.1260   19.7050  -33.7170 C   0  0  0  0  0  0  0  0  0  0  0  0
   -3.1270   20.4730  -33.0800 C   0  0  0  0  0  0  0  0  0  0  0  0
   -2.7840   21.7040  -32.3720 N   0  0  0  0  0  0  0  0  0  0  0  0
   -1.3540   21.9020  -32.0380 C   0  0  0  0  0  0  0  0  0  0  0  0
   -0.8840   20.9310  -30.9350 C   0  0  0  0  0  0  0  0  0  0  0  0
   -1.9450   20.6070  -29.8430 C   0  0  0  0  0  0  0  0  0  0  0  0
   -1.4820   20.4740  -28.4130 N   0  0  0  0  0  0  0  0  0  0  0  0
   -0.3170   21.3600  -28.1480 C   0  0  0  0  0  0  0  0  0  0  0  0
   -2.5890   20.8310  -27.4560 C   0  0  0  0  0  0  0  0  0  0  0  0
   -3.4650   19.6290  -27.0660 C   0  0  0  0  0  0  0  0  0  0  0  0
   -2.6390   18.5660  -26.3240 C   0  0  0  0  0  0  0  0  0  0  0  0
   -1.1670   18.5590  -26.7650 C   0  0  0  0  0  0  0  0  0  0  0  0
   -1.0310   19.0500  -28.2160 C   0  0  0  0  0  0  0  0  0  0  0  0
   -4.4840   19.9900  -33.1230 C   0  0  0  0  0  0  0  0  0  0  0  0
   -3.6720   23.9805  -27.8732 H   0  0  0  0  0  0  0  0  0  0  0  0
   -4.4209   25.1693  -28.9924 H   0  0  0  0  0  0  0  0  0  0  0  0
   -4.9776   23.4614  -28.9924 H   0  0  0  0  0  0  0  0  0  0  0  0
   -2.2559   24.5266  -29.9013 H   0  0  0  0  0  0  0  0  0  0  0  0
   -2.6484   22.7848  -29.7320 H   0  0  0  0  0  0  0  0  0  0  0  0
   -5.2413   24.4819  -30.0484 H   0  0  0  0  0  0  0  0  0  0  0  0
   -5.3468   24.8527  -31.7995 H   0  0  0  0  0  0  0  0  0  0  0  0
   -5.6538   22.1173  -30.4571 H   0  0  0  0  0  0  0  0  0  0  0  0
   -6.9271   23.0807  -31.3043 H   0  0  0  0  0  0  0  0  0  0  0  0
   -4.9950   22.7300  -33.2840 H   0  0  0  0  0  0  0  0  0  0  0  0
   -7.7718   21.9040  -31.5987 H   0  0  0  0  0  0  0  0  0  0  0  0
   -9.9400   20.7723  -31.1459 H   0  0  0  0  0  0  0  0  0  0  0  0
  -10.2348   18.3672  -31.7171 H   0  0  0  0  0  0  0  0  0  0  0  0
   -8.4001   17.1115  -32.8271 H   0  0  0  0  0  0  0  0  0  0  0  0
   -6.5683   16.1083  -33.6436 H   0  0  0  0  0  0  0  0  0  0  0  0
   -7.2369   17.1024  -34.9820 H   0  0  0  0  0  0  0  0  0  0  0  0
   -5.4989   16.6486  -34.9820 H   0  0  0  0  0  0  0  0  0  0  0  0
   -3.8506   16.8791  -34.4565 H   0  0  0  0  0  0  0  0  0  0  0  0
   -1.5946   17.8569  -34.6853 H   0  0  0  0  0  0  0  0  0  0  0  0
   -1.1117   20.1183  -33.8188 H   0  0  0  0  0  0  0  0  0  0  0  0
   -3.1270   22.5240  -32.9210 H   0  0  0  0  0  0  0  0  0  0  0  0
   -3.2770   21.6830  -31.4500 H   0  0  0  0  0  0  0  0  0  0  0  0
   -0.7504   21.7332  -32.9420 H   0  0  0  0  0  0  0  0  0  0  0  0
   -1.2287   22.9294  -31.6655 H   0  0  0  0  0  0  0  0  0  0  0  0
   -0.5904   19.9861  -31.4156 H   0  0  0  0  0  0  0  0  0  0  0  0
   -0.0554   21.4353  -30.4163 H   0  0  0  0  0  0  0  0  0  0  0  0
   -2.6952   21.4111  -29.8690 H   0  0  0  0  0  0  0  0  0  0  0  0
   -2.3069   19.6020  -30.1058 H   0  0  0  0  0  0  0  0  0  0  0  0
   -0.1769   21.4666  -27.0622 H   0  0  0  0  0  0  0  0  0  0  0  0
    0.5874   20.9194  -28.5929 H   0  0  0  0  0  0  0  0  0  0  0  0
   -0.5000   22.3492  -28.5929 H   0  0  0  0  0  0  0  0  0  0  0  0
   -2.1401   21.2474  -26.5421 H   0  0  0  0  0  0  0  0  0  0  0  0
   -3.2394   21.5573  -27.9654 H   0  0  0  0  0  0  0  0  0  0  0  0
   -4.2791   19.9739  -26.4116 H   0  0  0  0  0  0  0  0  0  0  0  0
   -3.8735   19.1796  -27.9832 H   0  0  0  0  0  0  0  0  0  0  0  0
   -2.6840   18.7730  -25.2446 H   0  0  0  0  0  0  0  0  0  0  0  0
   -3.0664   17.5808  -26.5622 H   0  0  0  0  0  0  0  0  0  0  0  0
   -0.5891   19.2217  -26.1041 H   0  0  0  0  0  0  0  0  0  0  0  0
   -0.7846   17.5295  -26.7031 H   0  0  0  0  0  0  0  0  0  0  0  0
    0.0260   18.9755  -28.5112 H   0  0  0  0  0  0  0  0  0  0  0  0
   -1.6825   18.4155  -28.8348 H   0  0  0  0  0  0  0  0  0  0  0  0
  1  2  1  0
  2  3  1  0
  3  4  1  0
  4  5  1  0
  5  6  1  0
  6  7  1  0
  7  8  2  0
  8  9  1  0
  9 10  2  0
 10 11  1  0
 11 12  2  0
 12 13  1  0
 13 14  2  0
 14 15  1  0
 14 16  1  0
 16 17  2  0
 17 18  1  0
 18 19  2  0
 19 20  1  0
 20 21  1  0
 21 22  1  0
 22 23  1  0
 23 24  1  0
 24 25  1  0
 25 26  1  0
 25 27  1  0
 27 28  1  0
 28 29  1  0
 29 30  1  0
 30 31  1  0
 20 32  2  0
 32  7  1  0
 13  8  1  0
 32 16  1  0
 31 25  1  0
  1 33  1  0
  1 34  1  0
  1 35  1  0
  2 36  1  0
  2 37  1  0
  4 38  1  0
  4 39  1  0
  5 40  1  0
  5 41  1  0
  6 42  1  0
  9 43  1  0
 10 44  1  0
 11 45  1  0
 12 46  1  0
 15 47  1  0
 15 48  1  0
 15 49  1  0
 17 50  1  0
 18 51  1  0
 19 52  1  0
 21 53  1  0
 21 54  1  0
 22 55  1  0
 22 56  1  0
 23 57  1  0
 23 58  1  0
 24 59  1  0
 24 60  1  0
 26 61  1  0
 26 62  1  0
 26 63  1  0
 27 64  1  0
 27 65  1  0
 28 66  1  0
 28 67  1  0
 29 68  1  0
 29 69  1  0
 30 70  1  0
 30 71  1  0
 31 72  1  0
 31 73  1  0
M  CHG  3  14   1  21   1  25   1
M  END
>  <UniqueID>  (12) 
12

>  <SMILES>  (12) 
CCOCCNc1c2ccccc2[n+](C)c2cccc([NH2+]CCC[N+]3(C)CCCCC3)c12

>  <Energy>  (12) 
134.34524690097115

>  <Genealogy>  (12) 
CCOCCNc1c2ccccc2[n+](C)c2cccc([NH2+]CCC[N+]3(C)CCCCC3)c12 (protonated)
CCOCCNc1c2ccccc2[n+](C)c2cccc([NH2+]CCC[N+]3(C)CCCCC3)c12 (3D coordinates assigned)
CCOCCNc1c2ccccc2[n+](C)c2cccc([NH2+]CCC[N+]3(C)CCCCC3)c12 (nonaromatic ring conformer: 134.34524690097115 kcal/mol)

>  <smiles>  (12) 
CCOCCNc1c2ccccc2[n+](C)c2cccc(NCCC[N+]3(C)CCCCC3)c12

>  <score_type>  (12) 
oracle

>  <origin>  (12) 
adg

>  <m_score__min__energy>  (12) 
-7.0800000000000001

>  <m_primary>  (12) 
energy

$$$$
12:0
     RDKit          3D

 67 69  0  0  0  0  0  0  0  0999 V2000
   -3.4340   18.5630  -25.9780 C   0  0  0  0  0  0  0  0  0  0  0  0
   -2.2030   19.0700  -26.7140 C   0  0  0  0  0  0  0  0  0  0  0  0
   -2.2790   20.4780  -26.8310 O   0  0  0  0  0  0  0  0  0  0  0  0
   -1.0170   21.0100  -26.9410 N   0  0  0  0  0  0  0  0  0  0  0  0
   -0.8440   22.0930  -25.9680 C   0  0  0  0  0  0  0  0  0  0  0  0
   -0.6610   23.4510  -26.6660 C   0  0  0  0  0  0  0  0  0  0  0  0
   -1.8340   24.4090  -26.3900 C   0  0  0  0  0  0  0  0  0  0  0  0
   -2.7880   24.5460  -27.5910 C   0  0  0  0  0  0  0  0  0  0  0  0
   -3.8420   23.4290  -27.7030 C   0  0  0  0  0  0  0  0  0  0  0  0
   -3.7010   22.6010  -28.9910 C   0  0  0  0  0  0  0  0  0  0  0  0
   -2.3220   22.1230  -29.1850 N   0  0  0  0  0  0  0  0  0  0  0  0
   -1.8870   22.0330  -30.5920 C   0  0  0  0  0  0  0  0  0  0  0  0
   -3.0050   22.2590  -31.6310 C   0  0  0  0  0  0  0  0  0  0  0  0
   -3.0580   21.1630  -32.7020 C   0  0  0  0  0  0  0  0  0  0  0  0
   -4.2760   21.2950  -33.5010 N   0  0  0  0  0  0  0  0  0  0  0  0
   -5.4780   20.5770  -33.1680 C   0  0  0  0  0  0  0  0  0  0  0  0
   -6.5750   21.2530  -32.6030 C   0  0  0  0  0  0  0  0  0  0  0  0
   -6.5130   22.6380  -32.3350 C   0  0  0  0  0  0  0  0  0  0  0  0
   -7.6250   23.3190  -31.8470 C   0  0  0  0  0  0  0  0  0  0  0  0
   -8.8150   22.6370  -31.6230 C   0  0  0  0  0  0  0  0  0  0  0  0
   -8.8860   21.2610  -31.8400 C   0  0  0  0  0  0  0  0  0  0  0  0
   -7.7550   20.5300  -32.2850 C   0  0  0  0  0  0  0  0  0  0  0  0
   -7.7830   19.1530  -32.4140 N   0  0  0  0  0  0  0  0  0  0  0  0
   -8.8850   18.3780  -31.8020 C   0  0  0  0  0  0  0  0  0  0  0  0
   -6.7600   18.4990  -33.0770 C   0  0  0  0  0  0  0  0  0  0  0  0
   -6.8620   17.1300  -33.4380 C   0  0  0  0  0  0  0  0  0  0  0  0
   -5.8100   16.4730  -34.0760 C   0  0  0  0  0  0  0  0  0  0  0  0
   -4.6420   17.1590  -34.3850 C   0  0  0  0  0  0  0  0  0  0  0  0
   -4.5220   18.5090  -34.0690 C   0  0  0  0  0  0  0  0  0  0  0  0
   -5.5760   19.1990  -33.4320 C   0  0  0  0  0  0  0  0  0  0  0  0
   -3.2668   18.6319  -24.8930 H   0  0  0  0  0  0  0  0  0  0  0  0
   -4.3047   19.1757  -26.2544 H   0  0  0  0  0  0  0  0  0  0  0  0
   -3.6207   17.5148  -26.2544 H   0  0  0  0  0  0  0  0  0  0  0  0
   -1.2986   18.7957  -26.1511 H   0  0  0  0  0  0  0  0  0  0  0  0
   -2.1583   18.6174  -27.7156 H   0  0  0  0  0  0  0  0  0  0  0  0
   -0.7860   21.3580  -27.9050 H   0  0  0  0  0  0  0  0  0  0  0  0
   -1.7334   22.1395  -25.3224 H   0  0  0  0  0  0  0  0  0  0  0  0
    0.0586   21.8844  -25.3749 H   0  0  0  0  0  0  0  0  0  0  0  0
    0.2679   23.9142  -26.3019 H   0  0  0  0  0  0  0  0  0  0  0  0
   -0.6200   23.2707  -27.7504 H   0  0  0  0  0  0  0  0  0  0  0  0
   -2.4042   24.0278  -25.5300 H   0  0  0  0  0  0  0  0  0  0  0  0
   -1.4091   25.4036  -26.1895 H   0  0  0  0  0  0  0  0  0  0  0  0
   -3.3150   25.5075  -27.5026 H   0  0  0  0  0  0  0  0  0  0  0  0
   -2.1640   24.4775  -28.4943 H   0  0  0  0  0  0  0  0  0  0  0  0
   -3.7337   22.7562  -26.8395 H   0  0  0  0  0  0  0  0  0  0  0  0
   -4.8313   23.9094  -27.7257 H   0  0  0  0  0  0  0  0  0  0  0  0
   -4.3738   21.7328  -28.9317 H   0  0  0  0  0  0  0  0  0  0  0  0
   -3.9625   23.2461  -29.8427 H   0  0  0  0  0  0  0  0  0  0  0  0
   -2.2220   21.1870  -28.7280 H   0  0  0  0  0  0  0  0  0  0  0  0
   -1.1072   22.7909  -30.7582 H   0  0  0  0  0  0  0  0  0  0  0  0
   -1.5302   21.0031  -30.7404 H   0  0  0  0  0  0  0  0  0  0  0  0
   -3.9715   22.2834  -31.1063 H   0  0  0  0  0  0  0  0  0  0  0  0
   -2.7915   23.2090  -32.1427 H   0  0  0  0  0  0  0  0  0  0  0  0
   -2.1807   21.2547  -33.3593 H   0  0  0  0  0  0  0  0  0  0  0  0
   -3.0573   20.1796  -32.2091 H   0  0  0  0  0  0  0  0  0  0  0  0
   -4.3450   22.0990  -34.1650 H   0  0  0  0  0  0  0  0  0  0  0  0
   -5.5756   23.1851  -32.5138 H   0  0  0  0  0  0  0  0  0  0  0  0
   -7.5616   24.3972  -31.6387 H   0  0  0  0  0  0  0  0  0  0  0  0
   -9.7032   23.1838  -31.2736 H   0  0  0  0  0  0  0  0  0  0  0  0
   -9.8351   20.7339  -31.6630 H   0  0  0  0  0  0  0  0  0  0  0  0
   -8.8072   18.4327  -30.7061 H   0  0  0  0  0  0  0  0  0  0  0  0
   -9.8502   18.7972  -32.1225 H   0  0  0  0  0  0  0  0  0  0  0  0
   -8.8168   17.3279  -32.1225 H   0  0  0  0  0  0  0  0  0  0  0  0
   -7.7860   16.5781  -33.2108 H   0  0  0  0  0  0  0  0  0  0  0  0
   -5.9054   15.4083  -34.3354 H   0  0  0  0  0  0  0  0  0  0  0  0
   -3.8113   16.6346  -34.8799 H   0  0  0  0  0  0  0  0  0  0  0  0
   -3.5944   19.0450  -34.3187 H   0  0  0  0  0  0  0  0  0  0  0  0
  1  2  1  0
  2  3  1  0
  3  4  1  0
  4  5  1  0
  5  6  1  0
  6  7  1  0
  7  8  1  0
  8  9  1  0
  9 10  1  0
 10 11  1  0
 11 12  1  0
 12 13  1  0
 13 14  1  0
 14 15  1  0
 15 16  1  0
 16 17  2  0
 17 18  1  0
 18 19  2  0
 19 20  1  0
 20 21  2  0
 21 22  1  0
 22 23  2  0
 23 24  1  0
 23 25  1  0
 25 26  2  0
 26 27  1  0
 27 28  2  0
 28 29  1  0
 29 30  2  0
 30 16  1  0
 22 17  1  0
 30 25  1  0
  1 31  1  0
  1 32  1  0
  1 33  1  0
  2 34  1  0
  2 35  1  0
  4 36  1  0
  5 37  1  0
  5 38  1  0
  6 39  1  0
  6 40  1  0
  7 41  1  0
  7 42  1  0
  8 43  1  0
  8 44  1  0
  9 45  1  0
  9 46  1  0
 10 47  1  0
 10 48  1  0
 11 49  1  0
 12 50  1  0
 12 51  1  0
 13 52  1  0
 13 53  1  0
 14 54  1  0
 14 55  1  0
 15 56  1  0
 18 57  1  0
 19 58  1  0
 20 59  1  0
 21 60  1  0
 24 61  1  0
 24 62  1  0
 24 63  1  0
 26 64  1  0
 27 65  1  0
 28 66  1  0
 29 67  1  0
M  CHG  1  23   1
M  END
>  <UniqueID>  (13) 
13

>  <SMILES>  (13) 
CCONCCCCCCNCCCNc1c2ccccc2[n+](C)c2ccccc12

>  <Energy>  (13) 
81.7450513796386

>  <Genealogy>  (13) 
CCONCCCCCCNCCCNc1c2ccccc2[n+](C)c2ccccc12 (3D coordinates assigned)
CCONCCCCCCNCCCNc1c2ccccc2[n+](C)c2ccccc12 (optimized conformer: 81.7450513796386 kcal/mol)

>  <smiles>  (13) 
CCONCCCCCCNCCCNc1c2ccccc2[n+](C)c2ccccc12

>  <score_type>  (13) 
oracle

>  <origin>  (13) 
adg

>  <m_score__min__energy>  (13) 
-9.5800000000000001

>  <m_primary>  (13) 
energy

$$$$
13:0
     RDKit          3D

 45 48  0  0  0  0  0  0  0  0999 V2000
   -3.1220   21.1140  -29.9060 C   0  0  0  0  0  0  0  0  0  0  0  0
   -3.6930   21.6290  -31.1470 N   0  0  0  0  0  0  0  0  0  0  0  0
   -3.8100   20.9950  -32.3250 C   0  0  0  0  0  0  0  0  0  0  0  0
   -4.4410   21.7810  -33.2160 N   0  0  0  0  0  0  0  0  0  0  0  0
   -4.7470   22.9240  -32.6230 N   0  0  0  0  0  0  0  0  0  0  0  0
   -4.2800   22.8240  -31.3630 C   0  0  0  0  0  0  0  0  0  0  0  0
   -4.4700   24.1110  -30.1220 S   0  0  0  0  0  0  0  0  0  0  0  0
   -5.9990   24.8310  -30.8320 C   0  0  0  0  0  0  0  0  0  0  0  0
   -7.2360   23.9740  -30.5240 C   0  0  0  0  0  0  0  0  0  0  0  0
   -7.7530   23.1220  -31.7050 C   0  0  0  0  0  0  0  0  0  0  0  0
   -8.4830   21.9190  -31.2340 N   0  0  0  0  0  0  0  0  0  0  0  0
   -9.4410   21.3990  -32.2320 C   0  0  0  0  0  0  0  0  0  0  0  0
   -9.0370   19.9950  -32.6440 C   0  0  2  0  0  0  0  0  0  0  0  0
   -9.1660   18.8930  -31.6020 C   0  0  0  0  0  0  0  0  0  0  0  0
   -7.8470   19.6350  -31.7920 C   0  0  1  0  0  0  0  0  0  0  0  0
   -6.7250   18.9850  -32.5600 C   0  0  0  0  0  0  0  0  0  0  0  0
   -5.9860   17.9370  -31.9840 C   0  0  0  0  0  0  0  0  0  0  0  0
   -4.9610   17.3180  -32.7060 C   0  0  0  0  0  0  0  0  0  0  0  0
   -4.6810   17.7260  -34.0120 C   0  0  0  0  0  0  0  0  0  0  0  0
   -5.4270   18.7530  -34.5970 C   0  0  0  0  0  0  0  0  0  0  0  0
   -6.4490   19.3790  -33.8770 C   0  0  0  0  0  0  0  0  0  0  0  0
   -7.5610   20.8190  -30.8840 C   0  0  0  0  0  0  0  0  0  0  0  0
   -3.6332   21.5751  -29.0481 H   0  0  0  0  0  0  0  0  0  0  0  0
   -3.2528   20.0225  -29.8674 H   0  0  0  0  0  0  0  0  0  0  0  0
   -2.0497   21.3564  -29.8674 H   0  0  0  0  0  0  0  0  0  0  0  0
   -3.4427   19.9790  -32.5317 H   0  0  0  0  0  0  0  0  0  0  0  0
   -4.6670   21.5460  -34.2110 H   0  0  0  0  0  0  0  0  0  0  0  0
   -6.1484   25.8352  -30.4086 H   0  0  0  0  0  0  0  0  0  0  0  0
   -5.8788   24.8734  -31.9246 H   0  0  0  0  0  0  0  0  0  0  0  0
   -6.9821   23.2933  -29.6981 H   0  0  0  0  0  0  0  0  0  0  0  0
   -8.0438   24.6789  -30.2777 H   0  0  0  0  0  0  0  0  0  0  0  0
   -8.4319   23.7346  -32.3165 H   0  0  0  0  0  0  0  0  0  0  0  0
   -6.8856   22.7888  -32.2938 H   0  0  0  0  0  0  0  0  0  0  0  0
  -10.4496   21.3757  -31.7935 H   0  0  0  0  0  0  0  0  0  0  0  0
   -9.4382   22.0536  -33.1160 H   0  0  0  0  0  0  0  0  0  0  0  0
   -9.3417   20.0213  -33.7006 H   0  0  0  0  0  0  0  0  0  0  0  0
   -9.7666   19.0582  -30.6954 H   0  0  0  0  0  0  0  0  0  0  0  0
   -9.4787   17.8385  -31.6137 H   0  0  0  0  0  0  0  0  0  0  0  0
   -6.2150   17.6026  -30.9614 H   0  0  0  0  0  0  0  0  0  0  0  0
   -4.3749   16.5093  -32.2451 H   0  0  0  0  0  0  0  0  0  0  0  0
   -3.8741   17.2395  -34.5797 H   0  0  0  0  0  0  0  0  0  0  0  0
   -5.2093   19.0699  -35.6276 H   0  0  0  0  0  0  0  0  0  0  0  0
   -7.0376   20.1821  -34.3446 H   0  0  0  0  0  0  0  0  0  0  0  0
   -7.7154   20.5265  -29.8349 H   0  0  0  0  0  0  0  0  0  0  0  0
   -6.5194   21.1477  -31.0143 H   0  0  0  0  0  0  0  0  0  0  0  0
  1  2  1  0
  2  3  1  0
  3  4  2  0
  4  5  1  0
  5  6  2  0
  6  7  1  0
  7  8  1  0
  8  9  1  0
  9 10  1  0
 10 11  1  0
 11 12  1  0
 12 13  1  0
 13 14  1  0
 14 15  1  0
 15 16  1  6
 16 17  2  0
 17 18  1  0
 18 19  2  0
 19 20  1  0
 20 21  2  0
 15 22  1  0
  6  2  1  0
 22 11  1  0
 15 13  1  0
 21 16  1  0
  1 23  1  0
  1 24  1  0
  1 25  1  0
  3 26  1  0
  4 27  1  0
  8 28  1  0
  8 29  1  0
  9 30  1  0
  9 31  1  0
 10 32  1  0
 10 33  1  0
 12 34  1  0
 12 35  1  0
 13 36  1  6
 14 37  1  0
 14 38  1  0
 17 39  1  0
 18 40  1  0
 19 41  1  0
 20 42  1  0
 21 43  1  0
 22 44  1  0
 22 45  1  0
M  CHG  1   4   1
M  END
>  <UniqueID>  (14) 
14

>  <SMILES>  (14) 
Cn1c[nH+]nc1SCCCN1C[C@@H]2C[C@]2(c2ccccc2)C1

>  <Energy>  (14) 
350.80699188556645

>  <Genealogy>  (14) 
Cn1c[nH+]nc1SCCCN1CC2CC2(c2ccccc2)C1 (protonated)
Cn1c[nH+]nc1SCCCN1C[C@@H]2C[C@]2(c2ccccc2)C1 (chirality)
Cn1c[nH+]nc1SCCCN1C[C@@H]2C[C@]2(c2ccccc2)C1 (3D coordinates assigned)
Cn1c[nH+]nc1SCCCN1C[C@@H]2C[C@]2(c2ccccc2)C1 (nonaromatic ring conformer: 350.80699188556645 kcal/mol)

>  <smiles>  (14) 
Cn1cnnc1SCCCN1CC2CC2(c2ccccc2)C1

>  <score_type>  (14) 
oracle

>  <origin>  (14) 
adg

>  <m_score__min__energy>  (14) 
-8.6899999999999995

>  <m_primary>  (14) 
energy

$$$$
14:0
     RDKit          3D

 68 70  0  0  0  0  0  0  0  0999 V2000
    1.9630   23.9221  -28.4291 H   0  0  0  0  0  0  0  0  0  0  0  0
    1.0330   23.9010  -27.8420 C   0  0  0  0  0  0  0  0  0  0  0  0
    0.2600   24.9450  -27.8440 N   0  0  0  0  0  0  0  0  0  0  0  0
    0.2270   25.8350  -26.7920 O   0  0  0  0  0  0  0  0  0  0  0  0
   -0.9690   26.5400  -26.4930 C   0  0  0  0  0  0  0  0  0  0  0  0
   -1.6728   26.4342  -27.3317 H   0  0  0  0  0  0  0  0  0  0  0  0
   -0.7305   27.6022  -26.3356 H   0  0  0  0  0  0  0  0  0  0  0  0
   -1.6090   25.9770  -25.2210 C   0  0  0  0  0  0  0  0  0  0  0  0
   -1.7724   24.8968  -25.3495 H   0  0  0  0  0  0  0  0  0  0  0  0
   -2.5638   26.4966  -25.0524 H   0  0  0  0  0  0  0  0  0  0  0  0
   -0.7060   26.2060  -23.9940 C   0  0  0  0  0  0  0  0  0  0  0  0
   -1.2253   25.8300  -23.1001 H   0  0  0  0  0  0  0  0  0  0  0  0
   -0.5068   27.2857  -23.9256 H   0  0  0  0  0  0  0  0  0  0  0  0
    0.5930   25.5210  -24.1070 N   0  0  0  0  0  0  0  0  0  0  0  0
    0.6570   25.0400  -25.0360 H   0  0  0  0  0  0  0  0  0  0  0  0
    0.6290   24.7880  -23.3600 H   0  0  0  0  0  0  0  0  0  0  0  0
    1.7340   26.4420  -23.9470 C   0  0  0  0  0  0  0  0  0  0  0  0
    1.8178   26.7298  -22.8886 H   0  0  0  0  0  0  0  0  0  0  0  0
    1.5591   27.3276  -24.5756 H   0  0  0  0  0  0  0  0  0  0  0  0
    3.0400   25.7820  -24.3900 C   0  0  0  0  0  0  0  0  0  0  0  0
    3.6214   25.4882  -23.5036 H   0  0  0  0  0  0  0  0  0  0  0  0
    2.8140   24.8899  -24.9925 H   0  0  0  0  0  0  0  0  0  0  0  0
    3.6242   26.4931  -24.9925 H   0  0  0  0  0  0  0  0  0  0  0  0
    0.6900   22.6640  -27.0580 C   0  0  0  0  0  0  0  0  0  0  0  0
    0.9854   21.7756  -27.6355 H   0  0  0  0  0  0  0  0  0  0  0  0
    1.2290   22.6887  -26.0994 H   0  0  0  0  0  0  0  0  0  0  0  0
   -0.8250   22.6070  -26.7780 C   0  0  0  0  0  0  0  0  0  0  0  0
   -1.0061   21.8443  -26.0063 H   0  0  0  0  0  0  0  0  0  0  0  0
   -1.1283   23.6141  -26.4558 H   0  0  0  0  0  0  0  0  0  0  0  0
   -1.6410   22.2720  -27.9640 N   0  0  0  0  0  0  0  0  0  0  0  0
   -2.4810   23.3770  -28.4540 C   0  0  0  0  0  0  0  0  0  0  0  0
   -3.1047   23.7591  -27.6324 H   0  0  0  0  0  0  0  0  0  0  0  0
   -1.8439   24.1909  -28.8305 H   0  0  0  0  0  0  0  0  0  0  0  0
   -3.3730   22.8590  -29.5750 C   0  0  0  0  0  0  0  0  0  0  0  0
   -3.9844   22.0293  -29.1905 H   0  0  0  0  0  0  0  0  0  0  0  0
   -4.0088   23.6876  -29.9202 H   0  0  0  0  0  0  0  0  0  0  0  0
   -2.5760   22.3760  -30.7250 N   0  0  0  0  0  0  0  0  0  0  0  0
   -3.2910   21.4080  -31.5830 C   0  0  0  0  0  0  0  0  0  0  0  0
   -2.5456   20.7746  -32.0863 H   0  0  0  0  0  0  0  0  0  0  0  0
   -3.9599   20.8323  -30.9263 H   0  0  0  0  0  0  0  0  0  0  0  0
   -4.1770   22.0640  -32.6600 C   0  0  0  0  0  0  0  0  0  0  0  0
   -3.7393   23.0303  -32.9511 H   0  0  0  0  0  0  0  0  0  0  0  0
   -4.2321   21.3975  -33.5334 H   0  0  0  0  0  0  0  0  0  0  0  0
   -5.5380   22.2840  -32.1370 N   0  0  0  0  0  0  0  0  0  0  0  0
   -5.8680   23.5560  -31.5370 C   0  0  0  0  0  0  0  0  0  0  0  0
   -5.0010   24.4680  -31.4400 O   0  0  0  0  0  0  0  0  0  0  0  0
   -7.2300   23.7780  -30.9470 C   0  0  0  0  0  0  0  0  0  0  0  0
   -7.2400   23.4074  -29.9113 H   0  0  0  0  0  0  0  0  0  0  0  0
   -7.4543   24.8547  -30.9683 H   0  0  0  0  0  0  0  0  0  0  0  0
   -8.2960   23.0360  -31.7570 C   0  0  0  0  0  0  0  0  0  0  0  0
   -9.2520   23.0770  -31.2144 H   0  0  0  0  0  0  0  0  0  0  0  0
   -8.3866   23.5212  -32.7401 H   0  0  0  0  0  0  0  0  0  0  0  0
   -7.9140   21.5960  -31.9700 C   0  0  0  0  0  0  0  0  0  0  0  0
   -8.9110   20.6130  -32.0470 C   0  0  0  0  0  0  0  0  0  0  0  0
   -9.9659   20.8930  -31.9102 H   0  0  0  0  0  0  0  0  0  0  0  0
   -8.5740   19.2820  -32.2960 C   0  0  0  0  0  0  0  0  0  0  0  0
   -9.3607   18.5151  -32.3503 H   0  0  0  0  0  0  0  0  0  0  0  0
   -7.2370   18.9260  -32.4760 C   0  0  0  0  0  0  0  0  0  0  0  0
   -6.9712   17.8755  -32.6654 H   0  0  0  0  0  0  0  0  0  0  0  0
   -6.2350   19.8960  -32.4170 C   0  0  0  0  0  0  0  0  0  0  0  0
   -5.1838   19.6025  -32.5541 H   0  0  0  0  0  0  0  0  0  0  0  0
   -6.5580   21.2500  -32.1830 C   0  0  0  0  0  0  0  0  0  0  0  0
   -1.1580   22.0480  -30.4450 C   0  0  0  0  0  0  0  0  0  0  0  0
   -0.8271   21.2860  -31.1660 H   0  0  0  0  0  0  0  0  0  0  0  0
   -0.5838   22.9818  -30.5357 H   0  0  0  0  0  0  0  0  0  0  0  0
   -0.9260   21.5050  -29.0160 C   0  0  0  0  0  0  0  0  0  0  0  0
   -1.2714   20.4612  -28.9805 H   0  0  0  0  0  0  0  0  0  0  0  0
    0.1500   21.5975  -28.8070 H   0  0  0  0  0  0  0  0  0  0  0  0
  1  2  1  0
  2  3  2  0
  3  4  1  0
  4  5  1  0
  5  6  1  0
  5  7  1  0
  5  8  1  0
  8  9  1  0
  8 10  1  0
  8 11  1  0
 11 12  1  0
 11 13  1  0
 11 14  1  0
 14 15  1  0
 14 16  1  0
 14 17  1  0
 17 18  1  0
 17 19  1  0
 17 20  1  0
 20 21  1  0
 20 22  1  0
 20 23  1  0
  2 24  1  0
 24 25  1  0
 24 26  1  0
 24 27  1  0
 27 28  1  0
 27 29  1  0
 27 30  1  0
 30 31  1  0
 31 32  1  0
 31 33  1  0
 31 34  1  0
 34 35  1  0
 34 36  1  0
 34 37  1  0
 37 38  1  0
 38 39  1  0
 38 40  1  0
 38 41  1  0
 41 42  1  0
 41 43  1  0
 41 44  1  0
 44 45  1  0
 45 46  2  0
 45 47  1  0
 47 48  1  0
 47 49  1  0
 47 50  1  0
 50 51  1  0
 50 52  1  0
 50 53  1  0
 53 54  2  0
 54 55  1  0
 54 56  1  0
 56 57  1  0
 56 58  2  0
 58 59  1  0
 58 60  1  0
 60 61  1  0
 60 62  2  0
 37 63  1  0
 63 64  1  0
 63 65  1  0
 63 66  1  0
 66 67  1  0
 66 68  1  0
 66 30  1  0
 62 44  1  0
 62 53  1  0
M  CHG  1  14   1
M  END
>  <UniqueID>  (15) 
15

>  <SMILES>  (15) 
CC[NH2+]CCCO/N=C\CCN1CCN(CCN2C(=O)CCc3ccccc32)CC1

>  <Energy>  (15) 
77.41670939741384

>  <Genealogy>  (15) 
CC[NH2+]CCCON=CCCN1CCN(CCN2C(=O)CCc3ccccc32)CC1 (protonated)
CC[NH2+]CCCO/N=C\CCN1CCN(CCN2C(=O)CCc3ccccc32)CC1 (cis-trans isomerization)
CC[NH2+]CCCO/N=C\CCN1CCN(CCN2C(=O)CCc3ccccc32)CC1 (3D coordinates assigned)
CC[NH2+]CCCO/N=C\CCN1CCN(CCN2C(=O)CCc3ccccc32)CC1 (nonaromatic ring conformer: 77.41670939741384 kcal/mol)

>  <smiles>  (15) 
CCNCCCON=CCCN1CCN(CCN2C(=O)CCc3ccccc32)CC1

>  <score_type>  (15) 
oracle

>  <origin>  (15) 
adg

>  <m_score__min__energy>  (15) 
-8.6799999999999997

>  <m_primary>  (15) 
energy

$$$$
15:0
     RDKit          3D

 70 72  0  0  0  0  0  0  0  0999 V2000
    0.2520   26.4410  -39.0760 C   0  0  0  0  0  0  0  0  0  0  0  0
    0.6460   26.0410  -37.6650 C   0  0  0  0  0  0  0  0  0  0  0  0
    1.5030   24.9230  -37.7260 O   0  0  0  0  0  0  0  0  0  0  0  0
    1.6140   24.3410  -36.4430 C   0  0  0  0  0  0  0  0  0  0  0  0
    0.2930   23.6750  -36.0780 C   0  0  0  0  0  0  0  0  0  0  0  0
    0.5390   22.6720  -35.1120 O   0  0  0  0  0  0  0  0  0  0  0  0
    1.7540   21.9930  -35.3840 C   0  0  0  0  0  0  0  0  0  0  0  0
    1.5080   20.5730  -35.9290 C   0  0  0  0  0  0  0  0  0  0  0  0
    0.0770   20.0570  -35.6560 C   0  0  0  0  0  0  0  0  0  0  0  0
    0.0960   18.6210  -35.1110 C   0  0  0  0  0  0  0  0  0  0  0  0
    0.3050   18.5590  -33.5890 C   0  0  0  0  0  0  0  0  0  0  0  0
   -0.9240   18.8970  -32.8450 N   0  0  0  0  0  0  0  0  0  0  0  0
   -0.9430   20.3180  -32.4250 C   0  0  0  0  0  0  0  0  0  0  0  0
   -1.9450   21.1650  -33.2320 C   0  0  0  0  0  0  0  0  0  0  0  0
   -3.2490   21.4190  -32.4610 C   0  0  0  0  0  0  0  0  0  0  0  0
   -4.4070   21.4120  -33.3580 N   0  0  0  0  0  0  0  0  0  0  0  0
   -5.5890   20.6370  -33.0870 C   0  0  0  0  0  0  0  0  0  0  0  0
   -5.6370   19.2690  -33.4040 C   0  0  0  0  0  0  0  0  0  0  0  0
   -4.5900   18.6540  -34.1220 C   0  0  0  0  0  0  0  0  0  0  0  0
   -4.6530   17.3040  -34.4550 C   0  0  0  0  0  0  0  0  0  0  0  0
   -5.7680   16.5520  -34.1050 C   0  0  0  0  0  0  0  0  0  0  0  0
   -6.8230   17.1410  -33.4110 C   0  0  0  0  0  0  0  0  0  0  0  0
   -6.7760   18.5060  -33.0270 C   0  0  0  0  0  0  0  0  0  0  0  0
   -7.8100   19.1010  -32.3280 N   0  0  0  0  0  0  0  0  0  0  0  0
   -8.8530   18.2640  -31.6940 C   0  0  0  0  0  0  0  0  0  0  0  0
   -7.8590   20.4770  -32.2050 C   0  0  0  0  0  0  0  0  0  0  0  0
   -9.0250   21.1470  -31.7530 C   0  0  0  0  0  0  0  0  0  0  0  0
   -9.0380   22.5290  -31.5740 C   0  0  0  0  0  0  0  0  0  0  0  0
   -7.9020   23.2810  -31.8520 C   0  0  0  0  0  0  0  0  0  0  0  0
   -6.7570   22.6580  -32.3410 C   0  0  0  0  0  0  0  0  0  0  0  0
   -6.7270   21.2620  -32.5480 C   0  0  0  0  0  0  0  0  0  0  0  0
   -0.5193   27.2241  -39.0332 H   0  0  0  0  0  0  0  0  0  0  0  0
    1.1348   26.8246  -39.6084 H   0  0  0  0  0  0  0  0  0  0  0  0
   -0.1449   25.5641  -39.6084 H   0  0  0  0  0  0  0  0  0  0  0  0
    1.1662   26.8780  -37.1763 H   0  0  0  0  0  0  0  0  0  0  0  0
   -0.2543   25.7874  -37.0861 H   0  0  0  0  0  0  0  0  0  0  0  0
    2.4161   23.5883  -36.4488 H   0  0  0  0  0  0  0  0  0  0  0  0
    1.8515   25.1200  -35.7035 H   0  0  0  0  0  0  0  0  0  0  0  0
   -0.3971   24.4251  -35.6644 H   0  0  0  0  0  0  0  0  0  0  0  0
   -0.1595   23.2267  -36.9748 H   0  0  0  0  0  0  0  0  0  0  0  0
    2.3229   22.5669  -36.1303 H   0  0  0  0  0  0  0  0  0  0  0  0
    2.3139   21.9045  -34.4413 H   0  0  0  0  0  0  0  0  0  0  0  0
    1.6753   20.5817  -37.0162 H   0  0  0  0  0  0  0  0  0  0  0  0
    2.2042   19.8978  -35.4099 H   0  0  0  0  0  0  0  0  0  0  0  0
   -0.4061   20.7141  -34.9178 H   0  0  0  0  0  0  0  0  0  0  0  0
   -0.4804   20.0611  -36.6043 H   0  0  0  0  0  0  0  0  0  0  0  0
   -0.8640   18.1415  -35.3528 H   0  0  0  0  0  0  0  0  0  0  0  0
    0.9442   18.1018  -35.5811 H   0  0  0  0  0  0  0  0  0  0  0  0
    0.6164   17.5402  -33.3151 H   0  0  0  0  0  0  0  0  0  0  0  0
    1.0757   19.2974  -33.3228 H   0  0  0  0  0  0  0  0  0  0  0  0
   -1.0260   18.2570  -32.0230 H   0  0  0  0  0  0  0  0  0  0  0  0
   -1.7470   18.7320  -33.4720 H   0  0  0  0  0  0  0  0  0  0  0  0
   -1.2184   20.3665  -31.3611 H   0  0  0  0  0  0  0  0  0  0  0  0
    0.0606   20.7304  -32.6056 H   0  0  0  0  0  0  0  0  0  0  0  0
   -1.4797   22.1333  -33.4683 H   0  0  0  0  0  0  0  0  0  0  0  0
   -2.1979   20.6067  -34.1454 H   0  0  0  0  0  0  0  0  0  0  0  0
   -3.3771   20.6312  -31.7041 H   0  0  0  0  0  0  0  0  0  0  0  0
   -3.1841   22.4086  -31.9851 H   0  0  0  0  0  0  0  0  0  0  0  0
   -4.4320   22.1000  -34.1460 H   0  0  0  0  0  0  0  0  0  0  0  0
   -3.7141   19.2479  -34.4220 H   0  0  0  0  0  0  0  0  0  0  0  0
   -3.8195   16.8319  -34.9957 H   0  0  0  0  0  0  0  0  0  0  0  0
   -5.8179   15.4873  -34.3770 H   0  0  0  0  0  0  0  0  0  0  0  0
   -7.7069   16.5377  -33.1566 H   0  0  0  0  0  0  0  0  0  0  0  0
   -8.7649   18.3347  -30.5998 H   0  0  0  0  0  0  0  0  0  0  0  0
   -9.8468   18.6181  -32.0055 H   0  0  0  0  0  0  0  0  0  0  0  0
   -8.7225   17.2171  -32.0055 H   0  0  0  0  0  0  0  0  0  0  0  0
   -9.9343   20.5657  -31.5402 H   0  0  0  0  0  0  0  0  0  0  0  0
   -9.9498   23.0264  -31.2117 H   0  0  0  0  0  0  0  0  0  0  0  0
   -7.9080   24.3683  -31.6855 H   0  0  0  0  0  0  0  0  0  0  0  0
   -5.8654   23.2606  -32.5687 H   0  0  0  0  0  0  0  0  0  0  0  0
  1  2  1  0
  2  3  1  0
  3  4  1  0
  4  5  1  0
  5  6  1  0
  6  7  1  0
  7  8  1  0
  8  9  1  0
  9 10  1  0
 10 11  1  0
 11 12  1  0
 12 13  1  0
 13 14  1  0
 14 15  1  0
 15 16  1  0
 16 17  1  0
 17 18  2  0
 18 19  1  0
 19 20  2  0
 20 21  1  0
 21 22  2  0
 22 23  1  0
 23 24  2  0
 24 25  1  0
 24 26  1  0
 26 27  2  0
 27 28  1  0
 28 29  2  0
 29 30  1  0
 30 31  2  0
 31 17  1  0
 23 18  1  0
 31 26  1  0
  1 32  1  0
  1 33  1  0
  1 34  1  0
  2 35  1  0
  2 36  1  0
  4 37  1  0
  4 38  1  0
  5 39  1  0
  5 40  1  0
  7 41  1  0
  7 42  1  0
  8 43  1  0
  8 44  1  0
  9 45  1  0
  9 46  1  0
 10 47  1  0
 10 48  1  0
 11 49  1  0
 11 50  1  0
 12 51  1  0
 12 52  1  0
 13 53  1  0
 13 54  1  0
 14 55  1  0
 14 56  1  0
 15 57  1  0
 15 58  1  0
 16 59  1  0
 19 60  1  0
 20 61  1  0
 21 62  1  0
 22 63  1  0
 25 64  1  0
 25 65  1  0
 25 66  1  0
 27 67  1  0
 28 68  1  0
 29 69  1  0
 30 70  1  0
M  CHG  2  12   1  24   1
M  END
>  <UniqueID>  (16) 
16

>  <SMILES>  (16) 
CCOCCOCCCCC[NH2+]CCCNc1c2ccccc2[n+](C)c2ccccc12

>  <Energy>  (16) 
87.09044830900297

>  <Genealogy>  (16) 
CCOCCOCCCCC[NH2+]CCCNc1c2ccccc2[n+](C)c2ccccc12 (protonated)
CCOCCOCCCCC[NH2+]CCCNc1c2ccccc2[n+](C)c2ccccc12 (3D coordinates assigned)
CCOCCOCCCCC[NH2+]CCCNc1c2ccccc2[n+](C)c2ccccc12 (optimized conformer: 87.09044830900297 kcal/mol)

>  <smiles>  (16) 
CCOCCOCCCCCNCCCNc1c2ccccc2[n+](C)c2ccccc12

>  <score_type>  (16) 
oracle

>  <origin>  (16) 
adg

>  <m_score__min__energy>  (16) 
-8.6899999999999995

>  <m_primary>  (16) 
energy

$$$$
16:0
     RDKit          3D

 54 56  0  0  0  0  0  0  0  0999 V2000
   -9.1100   23.3420  -32.0250 C   0  0  0  0  0  0  0  0  0  0  0  0
   -9.1470   21.9560  -31.3640 C   0  0  0  0  0  0  0  0  0  0  0  0
   -8.1790   20.9850  -31.9310 N   0  0  0  0  0  0  0  0  0  0  0  0
   -8.8400   19.9210  -32.7160 C   0  0  0  0  0  0  0  0  0  0  0  0
   -9.0200   18.6640  -31.8680 C   0  0  0  0  0  0  0  0  0  0  0  0
   -7.0780   21.6290  -32.6820 C   0  0  0  0  0  0  0  0  0  0  0  0
   -5.7880   21.3940  -32.0200 N   0  0  0  0  0  0  0  0  0  0  0  0
   -5.0420   20.2530  -32.0280 C   0  0  0  0  0  0  0  0  0  0  0  0
   -5.3830   19.0340  -32.7850 C   0  0  0  0  0  0  0  0  0  0  0  0
   -5.3410   19.0240  -34.1880 C   0  0  0  0  0  0  0  0  0  0  0  0
   -5.6720   17.8620  -34.8930 C   0  0  0  0  0  0  0  0  0  0  0  0
   -6.0370   16.7040  -34.2020 C   0  0  0  0  0  0  0  0  0  0  0  0
   -6.0610   16.7010  -32.8050 C   0  0  0  0  0  0  0  0  0  0  0  0
   -5.7290   17.8610  -32.0970 C   0  0  0  0  0  0  0  0  0  0  0  0
   -3.9630   20.3080  -31.2030 N   0  0  0  0  0  0  0  0  0  0  0  0
   -4.0420   21.5440  -30.6830 C   0  0  0  0  0  0  0  0  0  0  0  0
   -3.1740   22.1270  -29.7630 C   0  0  0  0  0  0  0  0  0  0  0  0
   -3.4520   23.4410  -29.3290 C   0  0  0  0  0  0  0  0  0  0  0  0
   -2.5100   24.1270  -28.3760 C   0  0  0  0  0  0  0  0  0  0  0  0
   -1.8860   25.2970  -29.0130 N   0  0  0  0  0  0  0  0  0  0  0  0
   -1.1580   26.1460  -28.0520 C   0  0  0  0  0  0  0  0  0  0  0  0
    0.0740   25.4130  -27.5230 C   0  0  0  0  0  0  0  0  0  0  0  0
    0.5700   24.5470  -28.5050 O   0  0  0  0  0  0  0  0  0  0  0  0
   -4.5900   24.1230  -29.8300 C   0  0  0  0  0  0  0  0  0  0  0  0
   -5.4480   23.5030  -30.7570 C   0  0  0  0  0  0  0  0  0  0  0  0
   -5.1360   22.2020  -31.1650 C   0  0  0  0  0  0  0  0  0  0  0  0
   -9.0893   24.1190  -31.2466 H   0  0  0  0  0  0  0  0  0  0  0  0
   -8.2093   23.4258  -32.6509 H   0  0  0  0  0  0  0  0  0  0  0  0
  -10.0049   23.4738  -32.6509 H   0  0  0  0  0  0  0  0  0  0  0  0
   -8.9256   22.0785  -30.2935 H   0  0  0  0  0  0  0  0  0  0  0  0
  -10.1507   21.5452  -31.5478 H   0  0  0  0  0  0  0  0  0  0  0  0
   -9.8259   20.2768  -33.0497 H   0  0  0  0  0  0  0  0  0  0  0  0
   -8.2109   19.6769  -33.5847 H   0  0  0  0  0  0  0  0  0  0  0  0
   -8.9816   18.9323  -30.8019 H   0  0  0  0  0  0  0  0  0  0  0  0
   -9.9931   18.2044  -32.0956 H   0  0  0  0  0  0  0  0  0  0  0  0
   -8.2150   17.9498  -32.0956 H   0  0  0  0  0  0  0  0  0  0  0  0
   -7.0428   21.2116  -33.6991 H   0  0  0  0  0  0  0  0  0  0  0  0
   -7.2631   22.7127  -32.7191 H   0  0  0  0  0  0  0  0  0  0  0  0
   -5.0470   19.9322  -34.7345 H   0  0  0  0  0  0  0  0  0  0  0  0
   -5.6449   17.8601  -35.9927 H   0  0  0  0  0  0  0  0  0  0  0  0
   -6.3057   15.7938  -34.7582 H   0  0  0  0  0  0  0  0  0  0  0  0
   -6.3410   15.7864  -32.2618 H   0  0  0  0  0  0  0  0  0  0  0  0
   -5.7392   17.8535  -30.9971 H   0  0  0  0  0  0  0  0  0  0  0  0
   -2.2976   21.5796  -29.3857 H   0  0  0  0  0  0  0  0  0  0  0  0
   -3.0704   24.4553  -27.4882 H   0  0  0  0  0  0  0  0  0  0  0  0
   -1.7199   23.4179  -28.0882 H   0  0  0  0  0  0  0  0  0  0  0  0
   -1.1990   24.9390  -29.7180 H   0  0  0  0  0  0  0  0  0  0  0  0
   -0.8414   27.0724  -28.5536 H   0  0  0  0  0  0  0  0  0  0  0  0
   -1.8231   26.3823  -27.2083 H   0  0  0  0  0  0  0  0  0  0  0  0
    0.8495   26.1468  -27.2581 H   0  0  0  0  0  0  0  0  0  0  0  0
   -0.2052   24.8301  -26.6329 H   0  0  0  0  0  0  0  0  0  0  0  0
    0.2390   24.8970  -29.3730 H   0  0  0  0  0  0  0  0  0  0  0  0
   -4.8041   25.1471  -29.4904 H   0  0  0  0  0  0  0  0  0  0  0  0
   -6.3345   24.0240  -31.1478 H   0  0  0  0  0  0  0  0  0  0  0  0
  1  2  1  0
  2  3  1  0
  3  4  1  0
  4  5  1  0
  3  6  1  0
  6  7  1  0
  7  8  1  0
  8  9  1  0
  9 10  2  0
 10 11  1  0
 11 12  2  0
 12 13  1  0
 13 14  2  0
  8 15  2  0
 15 16  1  0
 16 17  2  0
 17 18  1  0
 18 19  1  0
 19 20  1  0
 20 21  1  0
 21 22  1  0
 22 23  1  0
 18 24  2  0
 24 25  1  0
 25 26  2  0
 26  7  1  0
 14  9  1  0
 26 16  1  0
  1 27  1  0
  1 28  1  0
  1 29  1  0
  2 30  1  0
  2 31  1  0
  4 32  1  0
  4 33  1  0
  5 34  1  0
  5 35  1  0
  5 36  1  0
  6 37  1  0
  6 38  1  0
 10 39  1  0
 11 40  1  0
 12 41  1  0
 13 42  1  0
 14 43  1  0
 17 44  1  0
 19 45  1  0
 19 46  1  0
 20 47  1  0
 21 48  1  0
 21 49  1  0
 22 50  1  0
 22 51  1  0
 23 52  1  0
 24 53  1  0
 25 54  1  0
M  END
>  <UniqueID>  (17) 
17

>  <SMILES>  (17) 
CCN(CC)Cn1c(-c2ccccc2)nc2cc(CNCCO)ccc21

>  <Energy>  (17) 
93.89402439943964

>  <Genealogy>  (17) 
CCN(CC)Cn1c(-c2ccccc2)nc2cc(CNCCO)ccc21 (3D coordinates assigned)
CCN(CC)Cn1c(-c2ccccc2)nc2cc(CNCCO)ccc21 (optimized conformer: 93.89402439943964 kcal/mol)

>  <smiles>  (17) 
CCN(CC)Cn1c(-c2ccccc2)nc2cc(CNCCO)ccc21

>  <score_type>  (17) 
oracle

>  <origin>  (17) 
adg

>  <m_score__min__energy>  (17) 
-8.8699999999999992

>  <m_primary>  (17) 
energy

$$$$
17:0
     RDKit          3D

 58 60  0  0  0  0  0  0  0  0999 V2000
   -6.1400   25.3120  -29.4860 C   0  0  0  0  0  0  0  0  0  0  0  0
   -5.3570   25.6390  -30.7440 C   0  0  0  0  0  0  0  0  0  0  0  0
   -4.0080   25.2930  -30.5440 O   0  0  0  0  0  0  0  0  0  0  0  0
   -3.8990   23.9620  -30.0770 C   0  0  0  0  0  0  0  0  0  0  0  0
   -4.3570   23.0000  -31.1690 C   0  0  0  0  0  0  0  0  0  0  0  0
   -3.2680   22.6440  -32.0020 O   0  0  0  0  0  0  0  0  0  0  0  0
   -3.5120   21.4060  -32.6420 C   0  0  0  0  0  0  0  0  0  0  0  0
   -3.1810   20.2560  -31.6900 C   0  0  0  0  0  0  0  0  0  0  0  0
   -2.3190   19.2430  -32.3450 N   0  0  0  0  0  0  0  0  0  0  0  0
   -0.9480   19.2940  -31.8060 C   0  0  0  0  0  0  0  0  0  0  0  0
   -2.2970   19.4470  -33.8110 C   0  0  0  0  0  0  0  0  0  0  0  0
   -3.2690   18.4840  -34.5010 C   0  0  0  0  0  0  0  0  0  0  0  0
   -3.8890   17.5830  -33.5280 N   0  0  0  0  0  0  0  0  0  0  0  0
   -5.0120   16.7600  -33.8770 C   0  0  0  0  0  0  0  0  0  0  0  0
   -6.3450   17.0360  -33.5860 C   0  0  0  0  0  0  0  0  0  0  0  0
   -6.9280   18.3170  -33.1420 C   0  0  0  0  0  0  0  0  0  0  0  0
   -6.3410   19.5260  -33.5510 C   0  0  0  0  0  0  0  0  0  0  0  0
   -6.8040   20.7410  -33.0410 C   0  0  0  0  0  0  0  0  0  0  0  0
   -7.8440   20.7610  -32.1080 C   0  0  0  0  0  0  0  0  0  0  0  0
   -8.3940   22.4140  -31.3250 Br  0  0  0  0  0  0  0  0  0  0  0  0
   -8.4420   19.5640  -31.7060 C   0  0  0  0  0  0  0  0  0  0  0  0
   -7.9830   18.3450  -32.2170 C   0  0  0  0  0  0  0  0  0  0  0  0
   -7.0910   15.9220  -33.7790 N   0  0  0  0  0  0  0  0  0  0  0  0
   -6.1950   15.0030  -34.1950 C   0  0  0  0  0  0  0  0  0  0  0  0
   -6.4880   13.6830  -34.5330 C   0  0  0  0  0  0  0  0  0  0  0  0
   -5.4310   12.8740  -34.9760 C   0  0  0  0  0  0  0  0  0  0  0  0
   -4.1300   13.4000  -35.0830 C   0  0  0  0  0  0  0  0  0  0  0  0
   -3.8920   14.7360  -34.7280 C   0  0  0  0  0  0  0  0  0  0  0  0
   -4.9380   15.4770  -34.2720 N   0  0  0  0  0  0  0  0  0  0  0  0
   -5.5358   25.5643  -28.6021 H   0  0  0  0  0  0  0  0  0  0  0  0
   -7.0720   25.8961  -29.4720 H   0  0  0  0  0  0  0  0  0  0  0  0
   -6.3798   24.2385  -29.4720 H   0  0  0  0  0  0  0  0  0  0  0  0
   -5.7633   25.0668  -31.5910 H   0  0  0  0  0  0  0  0  0  0  0  0
   -5.4374   26.7137  -30.9642 H   0  0  0  0  0  0  0  0  0  0  0  0
   -2.8515   23.7494  -29.8170 H   0  0  0  0  0  0  0  0  0  0  0  0
   -4.5317   23.8333  -29.1864 H   0  0  0  0  0  0  0  0  0  0  0  0
   -4.7688   22.0926  -30.7032 H   0  0  0  0  0  0  0  0  0  0  0  0
   -5.1269   23.4941  -31.7799 H   0  0  0  0  0  0  0  0  0  0  0  0
   -4.5717   21.3471  -32.9311 H   0  0  0  0  0  0  0  0  0  0  0  0
   -2.8783   21.3294  -33.5379 H   0  0  0  0  0  0  0  0  0  0  0  0
   -2.6559   20.6586  -30.8113 H   0  0  0  0  0  0  0  0  0  0  0  0
   -4.1222   19.7701  -31.3933 H   0  0  0  0  0  0  0  0  0  0  0  0
   -0.9859   19.2926  -30.7067 H   0  0  0  0  0  0  0  0  0  0  0  0
   -0.3841   18.4162  -32.1546 H   0  0  0  0  0  0  0  0  0  0  0  0
   -0.4509   20.2113  -32.1546 H   0  0  0  0  0  0  0  0  0  0  0  0
   -2.5916   20.4824  -34.0369 H   0  0  0  0  0  0  0  0  0  0  0  0
   -1.2799   19.2528  -34.1822 H   0  0  0  0  0  0  0  0  0  0  0  0
   -4.0548   19.0653  -35.0056 H   0  0  0  0  0  0  0  0  0  0  0  0
   -2.7087   17.8816  -35.2312 H   0  0  0  0  0  0  0  0  0  0  0  0
   -3.3120   17.3220  -32.7000 H   0  0  0  0  0  0  0  0  0  0  0  0
   -5.5135   19.5157  -34.2757 H   0  0  0  0  0  0  0  0  0  0  0  0
   -6.3486   21.6850  -33.3748 H   0  0  0  0  0  0  0  0  0  0  0  0
   -9.2744   19.5799  -30.9871 H   0  0  0  0  0  0  0  0  0  0  0  0
   -8.4513   17.4042  -31.8922 H   0  0  0  0  0  0  0  0  0  0  0  0
   -7.5122   13.2893  -34.4551 H   0  0  0  0  0  0  0  0  0  0  0  0
   -5.6200   11.8233  -35.2411 H   0  0  0  0  0  0  0  0  0  0  0  0
   -3.3051   12.7675  -35.4427 H   0  0  0  0  0  0  0  0  0  0  0  0
   -2.8864   15.1730  -34.8159 H   0  0  0  0  0  0  0  0  0  0  0  0
  1  2  1  0
  2  3  1  0
  3  4  1  0
  4  5  1  0
  5  6  1  0
  6  7  1  0
  7  8  1  0
  8  9  1  0
  9 10  1  0
  9 11  1  0
 11 12  1  0
 12 13  1  0
 13 14  1  0
 14 15  2  0
 15 16  1  0
 16 17  2  0
 17 18  1  0
 18 19  2  0
 19 20  1  0
 19 21  1  0
 21 22  2  0
 15 23  1  0
 23 24  2  0
 24 25  1  0
 25 26  2  0
 26 27  1  0
 27 28  2  0
 28 29  1  0
 29 14  1  0
 22 16  1  0
 29 24  1  0
  1 30  1  0
  1 31  1  0
  1 32  1  0
  2 33  1  0
  2 34  1  0
  4 35  1  0
  4 36  1  0
  5 37  1  0
  5 38  1  0
  7 39  1  0
  7 40  1  0
  8 41  1  0
  8 42  1  0
 10 43  1  0
 10 44  1  0
 10 45  1  0
 11 46  1  0
 11 47  1  0
 12 48  1  0
 12 49  1  0
 13 50  1  0
 17 51  1  0
 18 52  1  0
 21 53  1  0
 22 54  1  0
 25 55  1  0
 26 56  1  0
 27 57  1  0
 28 58  1  0
M  END
>  <UniqueID>  (18) 
18

>  <SMILES>  (18) 
CCOCCOCCN(C)CCNc1c(-c2ccc(Br)cc2)nc2ccccn12

>  <Energy>  (18) 
97.49845473570765

>  <Genealogy>  (18) 
CCOCCOCCN(C)CCNc1c(-c2ccc(Br)cc2)nc2ccccn12 (3D coordinates assigned)
CCOCCOCCN(C)CCNc1c(-c2ccc(Br)cc2)nc2ccccn12 (optimized conformer: 97.49845473570765 kcal/mol)

>  <smiles>  (18) 
CCOCCOCCN(C)CCNc1c(-c2ccc(Br)cc2)nc2ccccn12

>  <score_type>  (18) 
oracle

>  <origin>  (18) 
adg

>  <m_score__min__energy>  (18) 
-9.1400000000000006

>  <m_primary>  (18) 
energy

$$$$
18:0
     RDKit          3D

 38 40  0  0  0  0  0  0  0  0999 V2000
   -6.1050   18.6220  -33.9720 C   0  0  0  0  0  0  0  0  0  0  0  0
   -6.7250   18.5260  -32.5710 C   0  0  0  0  0  0  0  0  0  0  0  0
   -8.1830   18.7830  -32.5350 N   0  0  0  0  0  0  0  0  0  0  0  0
   -8.7710   18.4890  -31.2150 C   0  0  0  0  0  0  0  0  0  0  0  0
   -8.5350   20.1380  -33.0060 C   0  0  0  0  0  0  0  0  0  0  0  0
   -7.8460   21.1720  -32.1710 C   0  0  0  0  0  0  0  0  0  0  0  0
   -8.3920   21.8240  -31.0750 C   0  0  0  0  0  0  0  0  0  0  0  0
   -7.4990   22.7110  -30.4610 C   0  0  0  0  0  0  0  0  0  0  0  0
   -6.2480   22.7540  -31.0690 C   0  0  0  0  0  0  0  0  0  0  0  0
   -5.1220   23.5970  -30.6210 C   0  0  0  0  0  0  0  0  0  0  0  0
   -4.9230   24.8600  -31.0700 N   0  0  0  0  0  0  0  0  0  0  0  0
   -3.8530   25.3290  -30.4860 O   0  0  0  0  0  0  0  0  0  0  0  0
   -3.3480   24.4310  -29.6800 C   0  0  0  0  0  0  0  0  0  0  0  0
   -2.2150   24.5340  -28.8810 C   0  0  0  0  0  0  0  0  0  0  0  0
   -1.8650   23.4230  -28.0950 C   0  0  0  0  0  0  0  0  0  0  0  0
   -2.6570   22.2470  -28.1140 C   0  0  0  0  0  0  0  0  0  0  0  0
   -2.2500   21.0550  -27.3000 C   0  0  0  0  0  0  0  0  0  0  0  0
   -3.7930   22.1760  -28.9510 C   0  0  0  0  0  0  0  0  0  0  0  0
   -4.1130   23.2980  -29.7180 C   0  0  0  0  0  0  0  0  0  0  0  0
   -6.2580   21.6830  -32.3700 S   0  0  0  0  0  0  0  0  0  0  0  0
   -5.0215   18.7898  -33.8828 H   0  0  0  0  0  0  0  0  0  0  0  0
   -6.2872   17.6849  -34.5186 H   0  0  0  0  0  0  0  0  0  0  0  0
   -6.5620   19.4601  -34.5186 H   0  0  0  0  0  0  0  0  0  0  0  0
   -6.5432   17.5134  -32.1817 H   0  0  0  0  0  0  0  0  0  0  0  0
   -6.2503   19.3082  -31.9603 H   0  0  0  0  0  0  0  0  0  0  0  0
   -8.0869   18.8311  -30.4244 H   0  0  0  0  0  0  0  0  0  0  0  0
   -9.7340   19.0116  -31.1180 H   0  0  0  0  0  0  0  0  0  0  0  0
   -8.9307   17.4050  -31.1180 H   0  0  0  0  0  0  0  0  0  0  0  0
   -8.2223   20.2506  -34.0546 H   0  0  0  0  0  0  0  0  0  0  0  0
   -9.6231   20.2756  -32.9212 H   0  0  0  0  0  0  0  0  0  0  0  0
   -9.4216   21.6609  -30.7239 H   0  0  0  0  0  0  0  0  0  0  0  0
   -7.7617   23.3166  -29.5811 H   0  0  0  0  0  0  0  0  0  0  0  0
   -1.6127   25.4543  -28.8646 H   0  0  0  0  0  0  0  0  0  0  0  0
   -0.9684   23.4660  -27.4592 H   0  0  0  0  0  0  0  0  0  0  0  0
   -2.3324   21.2963  -26.2300 H   0  0  0  0  0  0  0  0  0  0  0  0
   -2.9095   20.2070  -27.5365 H   0  0  0  0  0  0  0  0  0  0  0  0
   -1.2096   20.7874  -27.5365 H   0  0  0  0  0  0  0  0  0  0  0  0
   -4.4068   21.2643  -28.9970 H   0  0  0  0  0  0  0  0  0  0  0  0
  1  2  1  0
  2  3  1  0
  3  4  1  0
  3  5  1  0
  5  6  1  0
  6  7  2  0
  7  8  1  0
  8  9  2  0
  9 10  1  0
 10 11  2  0
 11 12  1  0
 12 13  1  0
 13 14  2  0
 14 15  1  0
 15 16  2  0
 16 17  1  0
 16 18  1  0
 18 19  2  0
  9 20  1  0
 20  6  1  0
 19 10  1  0
 19 13  1  0
  1 21  1  0
  1 22  1  0
  1 23  1  0
  2 24  1  0
  2 25  1  0
  4 26  1  0
  4 27  1  0
  4 28  1  0
  5 29  1  0
  5 30  1  0
  7 31  1  0
  8 32  1  0
 14 33  1  0
 15 34  1  0
 17 35  1  0
 17 36  1  0
 17 37  1  0
 18 38  1  0
M  END
>  <UniqueID>  (19) 
19

>  <SMILES>  (19) 
CCN(C)Cc1ccc(-c2noc3ccc(C)cc23)s1

>  <Energy>  (19) 
106.03908637827207

>  <Genealogy>  (19) 
CCN(C)Cc1ccc(-c2noc3ccc(C)cc23)s1 (3D coordinates assigned)
CCN(C)Cc1ccc(-c2noc3ccc(C)cc23)s1 (optimized conformer: 106.03908637827207 kcal/mol)

>  <smiles>  (19) 
CCN(C)Cc1ccc(-c2noc3ccc(C)cc23)s1

>  <score_type>  (19) 
oracle

>  <origin>  (19) 
adg

>  <m_score__min__energy>  (19) 
-8.8200000000000003

>  <m_primary>  (19) 
energy

$$$$
19:0
     RDKit          3D

 60 61  0  0  0  0  0  0  0  0999 V2000
    0.3720   20.1680  -35.8500 C   0  0  0  0  0  0  0  0  0  0  0  0
    0.4180   21.6880  -35.9190 C   0  0  0  0  0  0  0  0  0  0  0  0
    0.3810   22.2070  -34.6070 O   0  0  0  0  0  0  0  0  0  0  0  0
    0.0960   21.1850  -33.6700 C   0  0  0  0  0  0  0  0  0  0  0  0
   -1.2000   21.4850  -32.9000 C   0  0  0  0  0  0  0  0  0  0  0  0
   -1.9670   20.3150  -32.6810 O   0  0  0  0  0  0  0  0  0  0  0  0
   -2.8990   20.0800  -33.7240 C   0  0  0  0  0  0  0  0  0  0  0  0
   -3.9700   19.0900  -33.2640 C   0  0  0  0  0  0  0  0  0  0  0  0
   -5.2480   19.6590  -33.4550 O   0  0  0  0  0  0  0  0  0  0  0  0
   -6.0920   18.7310  -34.1030 C   0  0  0  0  0  0  0  0  0  0  0  0
   -7.0600   18.1200  -33.0910 C   0  0  0  0  0  0  0  0  0  0  0  0
   -7.1430   18.9640  -31.8870 N   0  0  0  0  0  0  0  0  0  0  0  0
   -8.5050   19.4790  -31.6790 C   0  0  0  0  0  0  0  0  0  0  0  0
   -8.4990   21.0060  -31.7500 C   0  0  0  0  0  0  0  0  0  0  0  0
   -7.1700   21.4950  -31.7130 O   0  0  0  0  0  0  0  0  0  0  0  0
   -7.1420   22.9060  -31.6120 C   0  0  0  0  0  0  0  0  0  0  0  0
   -5.7920   23.4450  -32.0910 C   0  0  0  0  0  0  0  0  0  0  0  0
   -4.7540   23.1740  -31.0980 N   0  0  0  0  0  0  0  0  0  0  0  0
   -4.3210   21.9610  -30.6730 C   0  0  0  0  0  0  0  0  0  0  0  0
   -4.8300   20.7400  -31.1020 O   0  0  0  0  0  0  0  0  0  0  0  0
   -3.2570   22.1550  -29.8160 C   0  0  0  0  0  0  0  0  0  0  0  0
   -3.0080   23.4440  -29.7340 N   0  0  0  0  0  0  0  0  0  0  0  0
   -3.8900   24.0580  -30.5410 C   0  0  0  0  0  0  0  0  0  0  0  0
   -3.8710   25.2920  -30.7960 O   0  0  0  0  0  0  0  0  0  0  0  0
   -1.7110   23.7520  -29.1870 C   0  0  0  0  0  0  0  0  0  0  0  0
   -1.1630   22.3580  -28.7760 C   0  0  0  0  0  0  0  0  0  0  0  0
   -2.1800   21.2980  -29.2850 C   0  0  0  0  0  0  0  0  0  0  0  0
    0.3623   19.8489  -34.7974 H   0  0  0  0  0  0  0  0  0  0  0  0
   -0.5375   19.8055  -36.3514 H   0  0  0  0  0  0  0  0  0  0  0  0
    1.2579   19.7512  -36.3514 H   0  0  0  0  0  0  0  0  0  0  0  0
    1.3459   22.0071  -36.4162 H   0  0  0  0  0  0  0  0  0  0  0  0
   -0.4439   22.0611  -36.4916 H   0  0  0  0  0  0  0  0  0  0  0  0
   -0.0162   20.2297  -34.2036 H   0  0  0  0  0  0  0  0  0  0  0  0
    0.9255   21.1307  -32.9496 H   0  0  0  0  0  0  0  0  0  0  0  0
   -0.9411   21.9278  -31.9269 H   0  0  0  0  0  0  0  0  0  0  0  0
   -1.8024   22.1794  -33.5040 H   0  0  0  0  0  0  0  0  0  0  0  0
   -3.3785   21.0298  -34.0033 H   0  0  0  0  0  0  0  0  0  0  0  0
   -2.3686   19.6573  -34.5900 H   0  0  0  0  0  0  0  0  0  0  0  0
   -3.8895   18.1633  -33.8511 H   0  0  0  0  0  0  0  0  0  0  0  0
   -3.8253   18.8615  -32.1978 H   0  0  0  0  0  0  0  0  0  0  0  0
   -6.6628   19.2442  -34.8909 H   0  0  0  0  0  0  0  0  0  0  0  0
   -5.4806   17.9330  -34.5495 H   0  0  0  0  0  0  0  0  0  0  0  0
   -8.0579   18.0393  -33.5468 H   0  0  0  0  0  0  0  0  0  0  0  0
   -6.6943   17.1231  -32.8039 H   0  0  0  0  0  0  0  0  0  0  0  0
   -6.5150   19.7930  -32.0280 H   0  0  0  0  0  0  0  0  0  0  0  0
   -9.1693   19.0800  -32.4597 H   0  0  0  0  0  0  0  0  0  0  0  0
   -8.8647   19.1634  -30.6886 H   0  0  0  0  0  0  0  0  0  0  0  0
   -8.9780   21.3275  -32.6866 H   0  0  0  0  0  0  0  0  0  0  0  0
   -9.0516   21.4063  -30.8872 H   0  0  0  0  0  0  0  0  0  0  0  0
   -7.9438   23.3305  -32.2340 H   0  0  0  0  0  0  0  0  0  0  0  0
   -7.2896   23.1929  -30.5604 H   0  0  0  0  0  0  0  0  0  0  0  0
   -5.5227   22.9570  -33.0393 H   0  0  0  0  0  0  0  0  0  0  0  0
   -5.8727   24.5325  -32.2352 H   0  0  0  0  0  0  0  0  0  0  0  0
   -5.7170   20.6890  -31.5930 H   0  0  0  0  0  0  0  0  0  0  0  0
   -1.0653   24.2232  -29.9427 H   0  0  0  0  0  0  0  0  0  0  0  0
   -1.7524   24.4646  -28.3501 H   0  0  0  0  0  0  0  0  0  0  0  0
   -0.1789   22.1886  -29.2373 H   0  0  0  0  0  0  0  0  0  0  0  0
   -1.0418   22.2915  -27.6847 H   0  0  0  0  0  0  0  0  0  0  0  0
   -1.7427   20.6675  -30.0732 H   0  0  0  0  0  0  0  0  0  0  0  0
   -2.5114   20.5876  -28.5133 H   0  0  0  0  0  0  0  0  0  0  0  0
  1  2  1  0
  2  3  1  0
  3  4  1  0
  4  5  1  0
  5  6  1  0
  6  7  1  0
  7  8  1  0
  8  9  1  0
  9 10  1  0
 10 11  1  0
 11 12  1  0
 12 13  1  0
 13 14  1  0
 14 15  1  0
 15 16  1  0
 16 17  1  0
 17 18  1  0
 18 19  1  0
 19 20  1  0
 19 21  2  0
 21 22  1  0
 22 23  1  0
 23 24  2  0
 22 25  1  0
 25 26  1  0
 26 27  1  0
 23 18  1  0
 27 21  1  0
  1 28  1  0
  1 29  1  0
  1 30  1  0
  2 31  1  0
  2 32  1  0
  4 33  1  0
  4 34  1  0
  5 35  1  0
  5 36  1  0
  7 37  1  0
  7 38  1  0
  8 39  1  0
  8 40  1  0
 10 41  1  0
 10 42  1  0
 11 43  1  0
 11 44  1  0
 12 45  1  0
 13 46  1  0
 13 47  1  0
 14 48  1  0
 14 49  1  0
 16 50  1  0
 16 51  1  0
 17 52  1  0
 17 53  1  0
 20 54  1  0
 25 55  1  0
 25 56  1  0
 26 57  1  0
 26 58  1  0
 27 59  1  0
 27 60  1  0
M  END
>  <UniqueID>  (20) 
20

>  <SMILES>  (20) 
CCOCCOCCOCCNCCOCCn1c(O)c2n(c1=O)CCC2

>  <Energy>  (20) 
108.50583362513116

>  <Genealogy>  (20) 
CCOCCOCCOCCNCCOCCn1c(O)c2n(c1=O)CCC2 (3D coordinates assigned)
CCOCCOCCOCCNCCOCCn1c(O)c2n(c1=O)CCC2 (nonaromatic ring conformer: 108.50583362513116 kcal/mol)

>  <smiles>  (20) 
CCOCCOCCOCCNCCOCCn1c(O)c2n(c1=O)CCC2

>  <score_type>  (20) 
oracle

>  <origin>  (20) 
adg

>  <m_score__min__energy>  (20) 
-5.4500000000000002

>  <m_primary>  (20) 
energy

$$$$
20:0
     RDKit          3D

 48 51  0  0  0  0  0  0  0  0999 V2000
   -1.3790   21.3020  -31.1130 C   0  0  0  0  0  0  0  0  0  0  0  0
   -2.3340   20.9000  -32.1430 N   0  0  0  0  0  0  0  0  0  0  0  0
   -3.5900   21.3580  -32.3730 C   0  0  0  0  0  0  0  0  0  0  0  0
   -4.2860   22.4100  -31.6030 C   0  0  0  0  0  0  0  0  0  0  0  0
   -5.6450   22.6660  -31.8470 C   0  0  0  0  0  0  0  0  0  0  0  0
   -6.3160   23.6660  -31.1380 C   0  0  0  0  0  0  0  0  0  0  0  0
   -5.6320   24.4320  -30.1890 C   0  0  0  0  0  0  0  0  0  0  0  0
   -6.4740   25.6890  -29.3010 Cl  0  0  0  0  0  0  0  0  0  0  0  0
   -4.2730   24.2000  -29.9560 C   0  0  0  0  0  0  0  0  0  0  0  0
   -3.6000   23.1990  -30.6630 C   0  0  0  0  0  0  0  0  0  0  0  0
   -4.1670   20.7090  -33.4080 N   0  0  0  0  0  0  0  0  0  0  0  0
   -3.2690   19.8480  -33.8550 N   0  0  0  0  0  0  0  0  0  0  0  0
   -2.1670   19.9620  -33.0970 C   0  0  0  0  0  0  0  0  0  0  0  0
   -0.6750   18.9940  -33.3490 S   0  0  0  0  0  0  0  0  0  0  0  0
   -1.3170   18.0790  -34.7990 C   0  0  0  0  0  0  0  0  0  0  0  0
   -1.5820   16.5950  -34.4990 C   0  0  0  0  0  0  0  0  0  0  0  0
   -2.9130   16.0980  -35.0700 C   0  0  0  0  0  0  0  0  0  0  0  0
   -3.8290   17.1800  -35.2020 O   0  0  0  0  0  0  0  0  0  0  0  0
   -4.8520   17.4260  -34.2840 C   0  0  0  0  0  0  0  0  0  0  0  0
   -5.1490   16.4620  -33.3160 C   0  0  0  0  0  0  0  0  0  0  0  0
   -6.1640   16.7050  -32.3890 C   0  0  0  0  0  0  0  0  0  0  0  0
   -6.8760   17.9100  -32.4350 C   0  0  0  0  0  0  0  0  0  0  0  0
   -7.9010   18.1890  -31.5180 C   0  0  0  0  0  0  0  0  0  0  0  0
   -8.5920   19.4040  -31.5920 C   0  0  0  0  0  0  0  0  0  0  0  0
   -8.2640   20.3420  -32.5760 C   0  0  0  0  0  0  0  0  0  0  0  0
   -7.2430   20.0730  -33.4940 C   0  0  0  0  0  0  0  0  0  0  0  0
   -6.5480   18.8590  -33.4290 C   0  0  0  0  0  0  0  0  0  0  0  0
   -5.5550   18.5930  -34.3190 N   0  0  0  0  0  0  0  0  0  0  0  0
   -1.8132   21.1192  -30.1190 H   0  0  0  0  0  0  0  0  0  0  0  0
   -0.4539   20.7169  -31.2223 H   0  0  0  0  0  0  0  0  0  0  0  0
   -1.1508   22.3725  -31.2223 H   0  0  0  0  0  0  0  0  0  0  0  0
   -6.1852   22.0753  -32.6015 H   0  0  0  0  0  0  0  0  0  0  0  0
   -7.3838   23.8508  -31.3268 H   0  0  0  0  0  0  0  0  0  0  0  0
   -3.7320   24.8065  -29.2147 H   0  0  0  0  0  0  0  0  0  0  0  0
   -2.5284   23.0279  -30.4829 H   0  0  0  0  0  0  0  0  0  0  0  0
   -3.4120   19.2030  -34.6640 H   0  0  0  0  0  0  0  0  0  0  0  0
   -2.2597   18.5462  -35.1199 H   0  0  0  0  0  0  0  0  0  0  0  0
   -0.5494   18.1253  -35.5855 H   0  0  0  0  0  0  0  0  0  0  0  0
   -0.7681   15.9981  -34.9364 H   0  0  0  0  0  0  0  0  0  0  0  0
   -1.6307   16.4837  -33.4057 H   0  0  0  0  0  0  0  0  0  0  0  0
   -2.7383   15.6478  -36.0583 H   0  0  0  0  0  0  0  0  0  0  0  0
   -3.3391   15.3501  -34.3851 H   0  0  0  0  0  0  0  0  0  0  0  0
   -4.5861   15.5175  -33.2850 H   0  0  0  0  0  0  0  0  0  0  0  0
   -6.4040   15.9517  -31.6242 H   0  0  0  0  0  0  0  0  0  0  0  0
   -8.1610   17.4539  -30.7421 H   0  0  0  0  0  0  0  0  0  0  0  0
   -9.3960   19.6218  -30.8735 H   0  0  0  0  0  0  0  0  0  0  0  0
   -8.8108   21.2950  -32.6285 H   0  0  0  0  0  0  0  0  0  0  0  0
   -6.9866   20.8139  -34.2656 H   0  0  0  0  0  0  0  0  0  0  0  0
  1  2  1  0
  2  3  1  0
  3  4  1  0
  4  5  2  0
  5  6  1  0
  6  7  2  0
  7  8  1  0
  7  9  1  0
  9 10  2  0
  3 11  2  0
 11 12  1  0
 12 13  2  0
 13 14  1  0
 14 15  1  0
 15 16  1  0
 16 17  1  0
 17 18  1  0
 18 19  1  0
 19 20  2  0
 20 21  1  0
 21 22  2  0
 22 23  1  0
 23 24  2  0
 24 25  1  0
 25 26  2  0
 26 27  1  0
 27 28  2  0
 13  2  1  0
 28 19  1  0
 10  4  1  0
 27 22  1  0
  1 29  1  0
  1 30  1  0
  1 31  1  0
  5 32  1  0
  6 33  1  0
  9 34  1  0
 10 35  1  0
 12 36  1  0
 15 37  1  0
 15 38  1  0
 16 39  1  0
 16 40  1  0
 17 41  1  0
 17 42  1  0
 20 43  1  0
 21 44  1  0
 23 45  1  0
 24 46  1  0
 25 47  1  0
 26 48  1  0
M  CHG  1  12   1
M  END
>  <UniqueID>  (21) 
21

>  <SMILES>  (21) 
Cn1c(-c2ccc(Cl)cc2)n[nH+]c1SCCCOc1ccc2ccccc2n1

>  <Energy>  (21) 
86.40683287743951

>  <Genealogy>  (21) 
Cn1c(-c2ccc(Cl)cc2)n[nH+]c1SCCCOc1ccc2ccccc2n1 (protonated)
Cn1c(-c2ccc(Cl)cc2)n[nH+]c1SCCCOc1ccc2ccccc2n1 (3D coordinates assigned)
Cn1c(-c2ccc(Cl)cc2)n[nH+]c1SCCCOc1ccc2ccccc2n1 (optimized conformer: 86.40683287743951 kcal/mol)

>  <smiles>  (21) 
Cn1c(SCCCOc2ccc3ccccc3n2)nnc1-c1ccc(Cl)cc1

>  <score_type>  (21) 
oracle

>  <origin>  (21) 
adg

>  <m_score__min__energy>  (21) 
-8.4700000000000006

>  <m_primary>  (21) 
energy

$$$$
21:0
     RDKit          3D

 86 90  0  0  0  0  0  0  0  0999 V2000
    0.8170   22.8250  -35.7700 C   0  0  0  0  0  0  0  0  0  0  0  0
   -0.0300   21.5900  -35.5090 C   0  0  0  0  0  0  0  0  0  0  0  0
   -0.2920   21.4930  -34.1320 O   0  0  0  0  0  0  0  0  0  0  0  0
   -0.0900   20.1890  -33.7940 N   0  0  0  0  0  0  0  0  0  0  0  0
    0.7560   20.1390  -32.5990 C   0  0  0  0  0  0  0  0  0  0  0  0
    0.0790   19.4500  -31.3980 C   0  0  0  0  0  0  0  0  0  0  0  0
   -0.5650   20.4410  -30.4140 C   0  0  0  0  0  0  0  0  0  0  0  0
   -2.0940   20.4890  -30.5620 C   0  0  0  0  0  0  0  0  0  0  0  0
   -2.5030   20.7770  -31.9380 N   0  0  0  0  0  0  0  0  0  0  0  0
   -3.8800   20.6410  -32.3110 C   0  0  0  0  0  0  0  0  0  0  0  0
   -4.3130   19.6170  -33.1810 C   0  0  0  0  0  0  0  0  0  0  0  0
   -3.3810   18.7520  -33.7870 C   0  0  0  0  0  0  0  0  0  0  0  0
   -3.8010   17.7660  -34.6760 C   0  0  0  0  0  0  0  0  0  0  0  0
   -5.1510   17.6250  -34.9770 C   0  0  0  0  0  0  0  0  0  0  0  0
   -6.1000   18.4580  -34.3810 C   0  0  0  0  0  0  0  0  0  0  0  0
   -5.7140   19.4570  -33.4560 C   0  0  0  0  0  0  0  0  0  0  0  0
   -6.6480   20.2710  -32.8290 N   0  0  0  0  0  0  0  0  0  0  0  0
   -8.0970   20.0500  -32.9950 C   0  0  0  0  0  0  0  0  0  0  0  0
   -6.1920   21.3060  -32.0540 C   0  0  0  0  0  0  0  0  0  0  0  0
   -6.9420   22.2800  -31.4780 N   0  0  0  0  0  0  0  0  0  0  0  0
   -6.0520   23.0900  -30.8660 C   0  0  0  0  0  0  0  0  0  0  0  0
   -6.3300   24.2700  -30.1760 C   0  0  0  0  0  0  0  0  0  0  0  0
   -5.2480   25.0100  -29.6650 C   0  0  0  0  0  0  0  0  0  0  0  0
   -3.9120   24.5730  -29.8710 C   0  0  0  0  0  0  0  0  0  0  0  0
   -2.7960   25.2810  -29.4000 O   0  0  0  0  0  0  0  0  0  0  0  0
   -1.6850   24.7280  -28.7020 C   0  0  0  0  0  0  0  0  0  0  0  0
   -0.9720   25.7520  -27.7810 C   0  0  0  0  0  0  0  0  0  0  0  0
   -1.3250   25.7160  -26.3200 N   0  0  0  0  0  0  0  0  0  0  0  0
   -2.7470   25.3040  -26.1550 C   0  0  0  0  0  0  0  0  0  0  0  0
   -0.4350   24.7610  -25.5820 C   0  0  0  0  0  0  0  0  0  0  0  0
   -0.2680   25.1430  -24.1010 C   0  0  0  0  0  0  0  0  0  0  0  0
    0.4120   26.4690  -23.9370 N   0  0  0  0  0  0  0  0  0  0  0  0
   -0.0990   27.1240  -22.7060 C   0  0  0  0  0  0  0  0  0  0  0  0
    1.8720   26.2610  -23.7700 C   0  0  0  0  0  0  0  0  0  0  0  0
    0.1810   27.3670  -25.1150 C   0  0  0  0  0  0  0  0  0  0  0  0
   -1.1920   27.1140  -25.7740 C   0  0  0  0  0  0  0  0  0  0  0  0
   -3.6730   23.3830  -30.5820 C   0  0  0  0  0  0  0  0  0  0  0  0
   -4.7620   22.6520  -31.0460 C   0  0  0  0  0  0  0  0  0  0  0  0
   -4.8490   21.4980  -31.8010 C   0  0  0  0  0  0  0  0  0  0  0  0
    1.1220   23.2697  -34.8113 H   0  0  0  0  0  0  0  0  0  0  0  0
    1.7116   22.5415  -36.3438 H   0  0  0  0  0  0  0  0  0  0  0  0
    0.2303   23.5575  -36.3438 H   0  0  0  0  0  0  0  0  0  0  0  0
   -0.9789   21.6715  -36.0594 H   0  0  0  0  0  0  0  0  0  0  0  0
    0.5098   20.6931  -35.8469 H   0  0  0  0  0  0  0  0  0  0  0  0
   -1.0230   19.7640  -33.5810 H   0  0  0  0  0  0  0  0  0  0  0  0
    1.6749   19.5868  -32.8452 H   0  0  0  0  0  0  0  0  0  0  0  0
    0.9620   21.1783  -32.3033 H   0  0  0  0  0  0  0  0  0  0  0  0
   -0.7032   18.7759  -31.7772 H   0  0  0  0  0  0  0  0  0  0  0  0
    0.8624   18.9071  -30.8489 H   0  0  0  0  0  0  0  0  0  0  0  0
   -0.3172   20.1335  -29.3873 H   0  0  0  0  0  0  0  0  0  0  0  0
   -0.1709   21.4438  -30.6355 H   0  0  0  0  0  0  0  0  0  0  0  0
   -2.5104   19.5154  -30.2641 H   0  0  0  0  0  0  0  0  0  0  0  0
   -2.4724   21.2971  -29.9188 H   0  0  0  0  0  0  0  0  0  0  0  0
   -1.7910   20.9010  -32.6930 H   0  0  0  0  0  0  0  0  0  0  0  0
   -2.3107   18.8565  -33.5556 H   0  0  0  0  0  0  0  0  0  0  0  0
   -3.0625   17.0967  -35.1415 H   0  0  0  0  0  0  0  0  0  0  0  0
   -5.4738   16.8518  -35.6897 H   0  0  0  0  0  0  0  0  0  0  0  0
   -7.1635   18.3359  -34.6343 H   0  0  0  0  0  0  0  0  0  0  0  0
   -8.5725   19.9775  -32.0058 H   0  0  0  0  0  0  0  0  0  0  0  0
   -8.5349   20.8917  -33.5515 H   0  0  0  0  0  0  0  0  0  0  0  0
   -8.2641   19.1160  -33.5515 H   0  0  0  0  0  0  0  0  0  0  0  0
   -7.9720   22.4350  -31.5280 H   0  0  0  0  0  0  0  0  0  0  0  0
   -7.3659   24.6123  -30.0354 H   0  0  0  0  0  0  0  0  0  0  0  0
   -5.4382   25.9351  -29.1010 H   0  0  0  0  0  0  0  0  0  0  0  0
   -2.0417   23.8908  -28.0840 H   0  0  0  0  0  0  0  0  0  0  0  0
   -0.9539   24.4019  -29.4565 H   0  0  0  0  0  0  0  0  0  0  0  0
    0.1107   25.5769  -27.8654 H   0  0  0  0  0  0  0  0  0  0  0  0
   -1.3106   26.7376  -28.1330 H   0  0  0  0  0  0  0  0  0  0  0  0
   -2.9867   25.2346  -25.0837 H   0  0  0  0  0  0  0  0  0  0  0  0
   -3.4021   26.0493  -26.6297 H   0  0  0  0  0  0  0  0  0  0  0  0
   -2.9022   24.3239  -26.6297 H   0  0  0  0  0  0  0  0  0  0  0  0
   -0.8723   23.7533  -25.6401 H   0  0  0  0  0  0  0  0  0  0  0  0
    0.5588   24.7958  -26.0523 H   0  0  0  0  0  0  0  0  0  0  0  0
   -1.2621   25.1932  -23.6328 H   0  0  0  0  0  0  0  0  0  0  0  0
    0.3593   24.3774  -23.6210 H   0  0  0  0  0  0  0  0  0  0  0  0
    0.3036   26.6079  -21.8219 H   0  0  0  0  0  0  0  0  0  0  0  0
    0.2186   28.1771  -22.6921 H   0  0  0  0  0  0  0  0  0  0  0  0
   -1.1977   27.0722  -22.6921 H   0  0  0  0  0  0  0  0  0  0  0  0
    2.1172   26.2261  -22.6982 H   0  0  0  0  0  0  0  0  0  0  0  0
    2.1638   25.3122  -24.2440 H   0  0  0  0  0  0  0  0  0  0  0  0
    2.4171   27.0905  -24.2440 H   0  0  0  0  0  0  0  0  0  0  0  0
    0.2260   28.4132  -24.7783 H   0  0  0  0  0  0  0  0  0  0  0  0
    0.9606   27.1556  -25.8617 H   0  0  0  0  0  0  0  0  0  0  0  0
   -1.9785   27.2746  -25.0219 H   0  0  0  0  0  0  0  0  0  0  0  0
   -1.2892   27.8118  -26.6188 H   0  0  0  0  0  0  0  0  0  0  0  0
   -2.6454   23.0372  -30.7675 H   0  0  0  0  0  0  0  0  0  0  0  0
  1  2  1  0
  2  3  1  0
  3  4  1  0
  4  5  1  0
  5  6  1  0
  6  7  1  0
  7  8  1  0
  8  9  1  0
  9 10  1  0
 10 11  2  0
 11 12  1  0
 12 13  2  0
 13 14  1  0
 14 15  2  0
 15 16  1  0
 16 17  2  0
 17 18  1  0
 17 19  1  0
 19 20  1  0
 20 21  1  0
 21 22  2  0
 22 23  1  0
 23 24  2  0
 24 25  1  0
 25 26  1  0
 26 27  1  0
 27 28  1  0
 28 29  1  0
 28 30  1  0
 30 31  1  0
 31 32  1  0
 32 33  1  0
 32 34  1  0
 32 35  1  0
 35 36  1  0
 24 37  1  0
 37 38  2  0
 38 39  1  0
 39 10  1  0
 16 11  1  0
 39 19  2  0
 38 21  1  0
 36 28  1  0
  1 40  1  0
  1 41  1  0
  1 42  1  0
  2 43  1  0
  2 44  1  0
  4 45  1  0
  5 46  1  0
  5 47  1  0
  6 48  1  0
  6 49  1  0
  7 50  1  0
  7 51  1  0
  8 52  1  0
  8 53  1  0
  9 54  1  0
 12 55  1  0
 13 56  1  0
 14 57  1  0
 15 58  1  0
 18 59  1  0
 18 60  1  0
 18 61  1  0
 20 62  1  0
 22 63  1  0
 23 64  1  0
 26 65  1  0
 26 66  1  0
 27 67  1  0
 27 68  1  0
 29 69  1  0
 29 70  1  0
 29 71  1  0
 30 72  1  0
 30 73  1  0
 31 74  1  0
 31 75  1  0
 33 76  1  0
 33 77  1  0
 33 78  1  0
 34 79  1  0
 34 80  1  0
 34 81  1  0
 35 82  1  0
 35 83  1  0
 36 84  1  0
 36 85  1  0
 37 86  1  0
M  CHG  3  17   1  28   1  32   1
M  END
>  <UniqueID>  (22) 
22

>  <SMILES>  (22) 
CCONCCCCNc1c2ccccc2[n+](C)c2[nH]c3ccc(OCC[N+]4(C)CC[N+](C)(C)CC4)cc3c12

>  <Energy>  (22) 
163.16193590921563

>  <Genealogy>  (22) 
CCONCCCCNc1c2ccccc2[n+](C)c2[nH]c3ccc(OCC[N+]4(C)CC[N+](C)(C)CC4)cc3c12 (3D coordinates assigned)
CCONCCCCNc1c2ccccc2[n+](C)c2[nH]c3ccc(OCC[N+]4(C)CC[N+](C)(C)CC4)cc3c12 (nonaromatic ring conformer: 163.16193590921563 kcal/mol)

>  <smiles>  (22) 
CCONCCCCNc1c2ccccc2[n+](C)c2[nH]c3ccc(OCC[N+]4(C)CC[N+](C)(C)CC4)cc3c12

>  <score_type>  (22) 
oracle

>  <origin>  (22) 
adg

>  <m_score__min__energy>  (22) 
-9.5500000000000007

>  <m_primary>  (22) 
energy

$$$$
