0:0
     RDKit          3D

 48 49  0  0  0  0  0  0  0  0999 V2000
   -2.2980   21.2280  -27.4820 C   0  0  0  0  0  0  0  0  0  0  0  0
   -1.0440   22.1190  -27.4260 C   0  0  0  0  0  0  0  0  0  0  0  0
   -1.3130   23.5860  -27.4100 N   0  0  0  0  0  0  0  0  0  0  0  0
   -1.2840   24.1810  -26.0490 C   0  0  0  0  0  0  0  0  0  0  0  0
   -2.0970   25.4790  -25.9500 C   0  0  0  0  0  0  0  0  0  0  0  0
   -2.5890   23.9330  -28.0920 C   0  0  0  0  0  0  0  0  0  0  0  0
   -2.4060   24.9180  -29.2300 C   0  0  0  0  0  0  0  0  0  0  0  0
   -1.3290   25.5620  -29.3260 O   0  0  0  0  0  0  0  0  0  0  0  0
   -3.4980   25.2790  -30.0860 N   0  0  0  0  0  0  0  0  0  0  0  0
   -4.4560   24.3750  -30.6480 C   0  0  0  0  0  0  0  0  0  0  0  0
   -4.0430   23.1000  -31.0470 C   0  0  0  0  0  0  0  0  0  0  0  0
   -4.9650   22.1910  -31.5730 C   0  0  0  0  0  0  0  0  0  0  0  0
   -6.3220   22.5420  -31.6920 C   0  0  0  0  0  0  0  0  0  0  0  0
   -7.2760   21.6000  -32.2230 N   0  0  0  0  0  0  0  0  0  0  0  0
   -6.8370   20.4720  -33.0560 C   0  0  0  0  0  0  0  0  0  0  0  0
   -7.3090   19.1410  -32.4500 C   0  0  0  0  0  0  0  0  0  0  0  0
   -8.7030   19.2280  -31.7910 C   0  0  0  0  0  0  0  0  0  0  0  0
   -9.4900   20.4680  -32.2320 C   0  0  0  0  0  0  0  0  0  0  0  0
   -8.7040   21.7450  -31.9010 C   0  0  0  0  0  0  0  0  0  0  0  0
   -6.7400   23.8080  -31.2490 C   0  0  0  0  0  0  0  0  0  0  0  0
   -5.8140   24.7140  -30.7250 C   0  0  0  0  0  0  0  0  0  0  0  0
   -2.6275   20.9939  -26.4589 H   0  0  0  0  0  0  0  0  0  0  0  0
   -3.1015   21.7588  -28.0135 H   0  0  0  0  0  0  0  0  0  0  0  0
   -2.0611   20.2945  -28.0135 H   0  0  0  0  0  0  0  0  0  0  0  0
   -0.4852   21.8646  -26.5133 H   0  0  0  0  0  0  0  0  0  0  0  0
   -0.4836   21.9194  -28.3513 H   0  0  0  0  0  0  0  0  0  0  0  0
   -0.5380   24.0450  -27.9460 H   0  0  0  0  0  0  0  0  0  0  0  0
   -1.6985   23.4515  -25.3376 H   0  0  0  0  0  0  0  0  0  0  0  0
   -0.2372   24.4273  -25.8174 H   0  0  0  0  0  0  0  0  0  0  0  0
   -2.2557   25.7324  -24.8914 H   0  0  0  0  0  0  0  0  0  0  0  0
   -1.5478   26.2942  -26.4438 H   0  0  0  0  0  0  0  0  0  0  0  0
   -3.0701   25.3407  -26.4438 H   0  0  0  0  0  0  0  0  0  0  0  0
   -3.0326   23.0107  -28.4951 H   0  0  0  0  0  0  0  0  0  0  0  0
   -3.2405   24.4111  -27.3457 H   0  0  0  0  0  0  0  0  0  0  0  0
   -2.9865   22.8109  -30.9463 H   0  0  0  0  0  0  0  0  0  0  0  0
   -4.6276   21.1951  -31.8959 H   0  0  0  0  0  0  0  0  0  0  0  0
   -7.2605   20.5808  -34.0654 H   0  0  0  0  0  0  0  0  0  0  0  0
   -5.7381   20.4715  -33.1044 H   0  0  0  0  0  0  0  0  0  0  0  0
   -7.3481   18.3876  -33.2506 H   0  0  0  0  0  0  0  0  0  0  0  0
   -6.5924   18.8712  -31.6602 H   0  0  0  0  0  0  0  0  0  0  0  0
   -9.2779   18.3309  -32.0641 H   0  0  0  0  0  0  0  0  0  0  0  0
   -8.5525   19.2995  -30.7037 H   0  0  0  0  0  0  0  0  0  0  0  0
   -9.6639   20.4202  -33.3171 H   0  0  0  0  0  0  0  0  0  0  0  0
  -10.4506   20.4907  -31.6965 H   0  0  0  0  0  0  0  0  0  0  0  0
   -9.1185   22.5806  -32.4840 H   0  0  0  0  0  0  0  0  0  0  0  0
   -8.7959   21.9358  -30.8216 H   0  0  0  0  0  0  0  0  0  0  0  0
   -7.8018   24.0876  -31.3150 H   0  0  0  0  0  0  0  0  0  0  0  0
   -6.1527   25.6988  -30.3709 H   0  0  0  0  0  0  0  0  0  0  0  0
  1  2  1  0
  2  3  1  0
  3  4  1  0
  4  5  1  0
  3  6  1  0
  6  7  1  0
  7  8  2  0
  7  9  1  0
  9 10  1  0
 10 11  2  0
 11 12  1  0
 12 13  2  0
 13 14  1  0
 14 15  1  0
 15 16  1  0
 16 17  1  0
 17 18  1  0
 18 19  1  0
 13 20  1  0
 20 21  2  0
 21 10  1  0
 19 14  1  0
  1 22  1  0
  1 23  1  0
  1 24  1  0
  2 25  1  0
  2 26  1  0
  3 27  1  0
  4 28  1  0
  4 29  1  0
  5 30  1  0
  5 31  1  0
  5 32  1  0
  6 33  1  0
  6 34  1  0
 11 35  1  0
 12 36  1  0
 15 37  1  0
 15 38  1  0
 16 39  1  0
 16 40  1  0
 17 41  1  0
 17 42  1  0
 18 43  1  0
 18 44  1  0
 19 45  1  0
 19 46  1  0
 20 47  1  0
 21 48  1  0
M  CHG  2   3   1   9  -1
M  END
>  <UniqueID>  (1) 
1

>  <SMILES>  (1) 
CC[NH+](CC)CC(=O)[N-]c1ccc(N2CCCCC2)cc1

>  <Energy>  (1) 
60.502368358024725

>  <Genealogy>  (1) 
CC[NH+](CC)CC(=O)[N-]c1ccc(N2CCCCC2)cc1 (protonated)
CC[NH+](CC)CC(=O)[N-]c1ccc(N2CCCCC2)cc1 (3D coordinates assigned)
CC[NH+](CC)CC(=O)[N-]c1ccc(N2CCCCC2)cc1 (nonaromatic ring conformer: 60.502368358024725 kcal/mol)

>  <smiles>  (1) 
CCN(CC)CC(=O)Nc1ccc(N2CCCCC2)cc1

>  <score_type>  (1) 
oracle

>  <origin>  (1) 
adg

>  <m_score__min__energy>  (1) 
-8.3699999999999992

>  <m_primary>  (1) 
energy

$$$$
1:0
     RDKit          3D

 46 48  0  0  0  0  0  0  0  0999 V2000
   -5.6834   23.8650  -32.1644 H   0  0  0  0  0  0  0  0  0  0  0  0
   -5.6500   19.0360  -33.1390 C   0  0  0  0  0  0  0  0  0  0  0  0
   -4.4850   18.9950  -32.5550 N   0  0  0  0  0  0  0  0  0  0  0  0
   -6.7590   21.0740  -32.1580 C   0  0  0  0  0  0  0  0  0  0  0  0
   -7.8860   21.6670  -31.5490 C   0  0  0  0  0  0  0  0  0  0  0  0
   -7.8502   22.7239  -31.2462 H   0  0  0  0  0  0  0  0  0  0  0  0
   -9.0470   20.9210  -31.3280 C   0  0  0  0  0  0  0  0  0  0  0  0
   -9.9215   21.3947  -30.8579 H   0  0  0  0  0  0  0  0  0  0  0  0
   -9.1010   19.5790  -31.7010 C   0  0  0  0  0  0  0  0  0  0  0  0
  -10.0189   18.9974  -31.5302 H   0  0  0  0  0  0  0  0  0  0  0  0
   -7.9910   18.9730  -32.2910 C   0  0  0  0  0  0  0  0  0  0  0  0
   -8.0349   17.9115  -32.5762 H   0  0  0  0  0  0  0  0  0  0  0  0
   -6.8180   19.7100  -32.5230 C   0  0  0  0  0  0  0  0  0  0  0  0
   -5.1690   22.9310  -31.8940 C   0  0  0  0  0  0  0  0  0  0  0  0
   -5.5490   21.8080  -32.4270 N   0  0  0  0  0  0  0  0  0  0  0  0
   -3.3370   19.6870  -32.9860 N   0  0  0  0  0  0  0  0  0  0  0  0
   -2.0980   19.5390  -32.4860 C   0  0  0  0  0  0  0  0  0  0  0  0
   -1.8118   18.7834  -31.7395 H   0  0  0  0  0  0  0  0  0  0  0  0
   -1.2530   20.4430  -33.0240 N   0  0  0  0  0  0  0  0  0  0  0  0
   -1.9780   21.1820  -33.8530 N   0  0  0  0  0  0  0  0  0  0  0  0
   -1.6120   21.9870  -34.4060 H   0  0  0  0  0  0  0  0  0  0  0  0
   -3.2470   20.7400  -33.8180 C   0  0  0  0  0  0  0  0  0  0  0  0
   -4.0847   21.1736  -34.3839 H   0  0  0  0  0  0  0  0  0  0  0  0
   -5.7480   18.5600  -34.5560 C   0  0  0  0  0  0  0  0  0  0  0  0
   -5.9698   17.4826  -34.5664 H   0  0  0  0  0  0  0  0  0  0  0  0
   -6.5528   19.1050  -35.0711 H   0  0  0  0  0  0  0  0  0  0  0  0
   -4.7934   18.7428  -35.0711 H   0  0  0  0  0  0  0  0  0  0  0  0
   -4.0460   22.9630  -30.9230 C   0  0  0  0  0  0  0  0  0  0  0  0
   -3.4440   21.7630  -30.5050 C   0  0  0  0  0  0  0  0  0  0  0  0
   -3.8073   20.8035  -30.9018 H   0  0  0  0  0  0  0  0  0  0  0  0
   -2.3930   21.7790  -29.5940 C   0  0  0  0  0  0  0  0  0  0  0  0
   -1.9310   20.8337  -29.2731 H   0  0  0  0  0  0  0  0  0  0  0  0
   -1.9240   22.9880  -29.0870 C   0  0  0  0  0  0  0  0  0  0  0  0
   -1.0911   22.9894  -28.3684 H   0  0  0  0  0  0  0  0  0  0  0  0
   -2.5030   24.2090  -29.4830 C   0  0  0  0  0  0  0  0  0  0  0  0
   -2.0200   25.4270  -28.9810 O   0  0  0  0  0  0  0  0  0  0  0  0
   -1.5090   25.6250  -27.6670 C   0  0  0  0  0  0  0  0  0  0  0  0
   -2.2699   25.3302  -26.9294 H   0  0  0  0  0  0  0  0  0  0  0  0
   -0.6066   25.0114  -27.5282 H   0  0  0  0  0  0  0  0  0  0  0  0
   -1.2556   26.6864  -27.5282 H   0  0  0  0  0  0  0  0  0  0  0  0
   -3.5840   24.1980  -30.4090 C   0  0  0  0  0  0  0  0  0  0  0  0
   -4.2340   25.3680  -30.8470 O   0  0  0  0  0  0  0  0  0  0  0  0
   -5.5400   25.8060  -30.4840 C   0  0  0  0  0  0  0  0  0  0  0  0
   -5.6256   25.8347  -29.3877 H   0  0  0  0  0  0  0  0  0  0  0  0
   -5.7159   26.8123  -30.8920 H   0  0  0  0  0  0  0  0  0  0  0  0
   -6.2870   25.1092  -30.8920 H   0  0  0  0  0  0  0  0  0  0  0  0
  1  2  1  0
  2  3  2  0
  3  4  1  0
  4  5  2  0
  5  6  1  0
  5  7  1  0
  7  8  1  0
  7  9  2  0
  9 10  1  0
  9 11  1  0
 11 12  1  0
 11 13  2  0
 13 14  1  0
 14 15  2  0
 15 16  1  0
 16 17  1  0
 17 18  1  0
 17 19  2  0
 19 20  1  0
 20 21  1  0
 20 22  2  0
 22 23  1  0
 14 24  1  0
 24 25  1  0
 24 26  1  0
 24 27  1  0
  2 28  1  0
 28 29  2  0
 29 30  1  0
 29 31  1  0
 31 32  1  0
 31 33  2  0
 33 34  1  0
 33 35  1  0
 35 36  1  0
 36 37  1  0
 37 38  1  0
 37 39  1  0
 37 40  1  0
 35 41  2  0
 41 42  1  0
 42 43  1  0
 43 44  1  0
 43 45  1  0
 43 46  1  0
 13  4  1  0
 22 16  1  0
 41 28  1  0
M  CHG  1  20   1
M  END
>  <UniqueID>  (2) 
2

>  <SMILES>  (2) 
COc1cccc(/C=N/c2ccccc2/C(C)=N\n2cn[nH+]c2)c1OC

>  <Energy>  (2) 
100.10287784312082

>  <Genealogy>  (2) 
COc1cccc(C=Nc2ccccc2C(C)=Nn2cn[nH+]c2)c1OC (protonated)
COc1cccc(/C=N/c2ccccc2/C(C)=N\n2cn[nH+]c2)c1OC (cis-trans isomerization)
COc1cccc(/C=N/c2ccccc2/C(C)=N\n2cn[nH+]c2)c1OC (3D coordinates assigned)
COc1cccc(/C=N/c2ccccc2/C(C)=N\n2cn[nH+]c2)c1OC (optimized conformer: 100.10287784312082 kcal/mol)

>  <smiles>  (2) 
COc1cccc(C=Nc2ccccc2C(C)=Nn2cnnc2)c1OC

>  <score_type>  (2) 
oracle

>  <origin>  (2) 
adg

>  <m_score__min__energy>  (2) 
-9.2400000000000002

>  <m_primary>  (2) 
energy

$$$$
2:0
     RDKit          3D

 46 48  0  0  1  0  0  0  0  0999 V2000
   -9.4870   19.4090  -32.6820 C   0  0  0  0  0  0  0  0  0  0  0  0
   -8.7010   18.5730  -31.7140 C   0  0  0  0  0  0  0  0  0  0  0  0
   -7.2160   18.8440  -31.8000 C   0  0  0  0  0  0  0  0  0  0  0  0
   -6.6810   18.1530  -33.0260 C   0  0  0  0  0  0  0  0  0  0  0  0
   -6.0000   19.1050  -33.9660 C   0  0  0  0  0  0  0  0  0  0  0  0
   -5.4630   20.2460  -33.2070 C   0  0  0  0  0  0  0  0  0  0  0  0
   -4.2290   20.6660  -33.2090 C   0  0  0  0  0  0  0  0  0  0  0  0
   -3.5410   21.3950  -32.1760 C   0  0  0  0  0  0  0  0  0  0  0  0
   -4.1400   22.5280  -31.7340 N   0  0  0  0  0  0  0  0  0  0  0  0
   -3.5860   23.3310  -30.8230 C   0  0  0  0  0  0  0  0  0  0  0  0
   -2.3570   23.0500  -30.2720 C   0  0  0  0  0  0  0  0  0  0  0  0
   -2.0990   24.0410  -29.4050 N   0  0  0  0  0  0  0  0  0  0  0  0
   -3.1400   24.8850  -29.4370 N   0  0  0  0  0  0  0  0  0  0  0  0
   -4.0550   24.4680  -30.2950 N   0  0  0  0  0  0  0  0  0  0  0  0
   -5.3180   25.1020  -30.6140 C   0  0  0  0  0  0  0  0  0  0  0  0
   -6.3340   24.0530  -30.9000 C   0  0  0  0  0  0  0  0  0  0  0  0
   -6.8210   23.8220  -32.1550 C   0  0  0  0  0  0  0  0  0  0  0  0
   -7.7700   22.8080  -32.2830 C   0  0  0  0  0  0  0  0  0  0  0  0
   -8.2130   22.0640  -31.2240 C   0  0  0  0  0  0  0  0  0  0  0  0
   -7.7170   22.3010  -29.9520 C   0  0  0  0  0  0  0  0  0  0  0  0
   -6.7740   23.3030  -29.8030 C   0  0  0  0  0  0  0  0  0  0  0  0
   -1.7370   21.9040  -30.7130 C   0  0  0  0  0  0  0  0  0  0  0  0
   -0.5930   21.6000  -30.2310 N   0  0  0  0  0  0  0  0  0  0  0  0
   -2.3480   21.1170  -31.6480 N   0  0  0  0  0  0  0  0  0  0  0  0
  -10.1370   20.1004  -32.1257 H   0  0  0  0  0  0  0  0  0  0  0  0
   -8.7956   19.9848  -33.3148 H   0  0  0  0  0  0  0  0  0  0  0  0
  -10.1043   18.7544  -33.3148 H   0  0  0  0  0  0  0  0  0  0  0  0
   -9.0435   18.7971  -30.6930 H   0  0  0  0  0  0  0  0  0  0  0  0
   -8.8667   17.5158  -31.9688 H   0  0  0  0  0  0  0  0  0  0  0  0
   -7.0391   19.9270  -31.8761 H   0  0  0  0  0  0  0  0  0  0  0  0
   -6.7086   18.4668  -30.8999 H   0  0  0  0  0  0  0  0  0  0  0  0
   -5.9566   17.3869  -32.7123 H   0  0  0  0  0  0  0  0  0  0  0  0
   -7.5333   17.7063  -33.5590 H   0  0  0  0  0  0  0  0  0  0  0  0
   -5.1769   18.5867  -34.4798 H   0  0  0  0  0  0  0  0  0  0  0  0
   -6.7257   19.4682  -34.7086 H   0  0  0  0  0  0  0  0  0  0  0  0
   -6.1736   20.7993  -32.5753 H   0  0  0  0  0  0  0  0  0  0  0  0
   -3.6418   20.4352  -34.1101 H   0  0  0  0  0  0  0  0  0  0  0  0
   -5.6493   25.7120  -29.7607 H   0  0  0  0  0  0  0  0  0  0  0  0
   -5.1949   25.7474  -31.4962 H   0  0  0  0  0  0  0  0  0  0  0  0
   -6.4813   24.4071  -33.0224 H   0  0  0  0  0  0  0  0  0  0  0  0
   -8.1811   22.5969  -33.2812 H   0  0  0  0  0  0  0  0  0  0  0  0
   -8.9642   21.2763  -31.3824 H   0  0  0  0  0  0  0  0  0  0  0  0
   -8.0614   21.7121  -29.0891 H   0  0  0  0  0  0  0  0  0  0  0  0
   -6.3629   23.5138  -28.8047 H   0  0  0  0  0  0  0  0  0  0  0  0
   -0.1720   22.2340  -29.5210 H   0  0  0  0  0  0  0  0  0  0  0  0
   -1.7890   20.3110  -31.9500 H   0  0  0  0  0  0  0  0  0  0  0  0
  1  2  1  0
  2  3  1  0
  3  4  1  0
  4  5  1  0
  5  6  1  0
  6  7  2  0
  7  8  1  0
  8  9  2  0
  9 10  1  0
 10 11  2  0
 11 12  1  0
 12 13  2  0
 13 14  1  0
 14 15  1  0
 15 16  1  0
 16 17  2  0
 17 18  1  0
 18 19  2  0
 19 20  1  0
 20 21  2  0
 11 22  1  0
 22 23  2  3
 22 24  1  0
 24  8  1  0
 14 10  1  0
 21 16  1  0
  1 25  1  0
  1 26  1  0
  1 27  1  0
  2 28  1  0
  2 29  1  0
  3 30  1  0
  3 31  1  0
  4 32  1  0
  4 33  1  0
  5 34  1  0
  5 35  1  0
  6 36  1  0
  7 37  1  0
 15 38  1  0
 15 39  1  0
 17 40  1  0
 18 41  1  0
 19 42  1  0
 20 43  1  0
 21 44  1  0
 23 45  1  0
 24 46  1  0
M  END
>  <smiles>  (3) 
CCCCCC=Cc1nc2c(nnn2Cc2ccccc2)c(=N)[nH]1

>  <score_type>  (3) 
oracle

>  <origin>  (3) 
adg

>  <m_score__min__energy>  (3) 
-8.4600000000000009

>  <m_primary>  (3) 
energy

$$$$
3:0
     RDKit          3D

 50 52  0  0  1  0  0  0  0  0999 V2000
   -7.7360   22.3190  -30.4500 C   0  0  0  0  0  0  0  0  0  0  0  0
   -6.9660   23.4030  -29.7550 C   0  0  0  0  0  0  0  0  0  0  0  0
   -6.5980   24.5330  -30.6780 C   0  0  0  0  0  0  0  0  0  0  0  0
   -5.3510   25.2170  -30.1330 C   0  0  0  0  0  0  0  0  0  0  0  0
   -4.7270   20.4950  -32.7850 N   0  0  0  0  0  0  0  0  0  0  0  0
   -4.2950   21.2680  -31.8490 C   0  0  0  0  0  0  0  0  0  0  0  0
   -3.3580   22.8330  -29.8550 N   0  0  0  0  0  0  0  0  0  0  0  0
   -3.1260   21.5100  -29.8110 C   0  0  0  0  0  0  0  0  0  0  0  0
   -2.4070   20.8830  -28.7610 N   0  0  0  0  0  0  0  0  0  0  0  0
   -0.9370   20.8110  -28.7670 C   0  0  0  0  0  0  0  0  0  0  0  0
   -0.6190   19.3370  -28.6150 C   0  0  0  0  0  0  0  0  0  0  0  0
   -0.9580   18.9430  -27.2010 C   0  0  0  0  0  0  0  0  0  0  0  0
   -2.0130   19.8330  -26.6300 C   0  0  0  0  0  0  0  0  0  0  0  0
   -3.0530   20.2700  -27.6100 C   0  0  0  0  0  0  0  0  0  0  0  0
   -3.5960   20.7390  -30.8080 N   0  0  0  0  0  0  0  0  0  0  0  0
   -4.0540   23.3960  -30.8840 C   0  0  0  0  0  0  0  0  0  0  0  0
   -4.2250   24.6530  -30.8400 N   0  0  0  0  0  0  0  0  0  0  0  0
   -5.9900   19.8540  -32.5520 C   0  0  0  0  0  0  0  0  0  0  0  0
   -7.1820   20.4220  -32.9920 C   0  0  0  0  0  0  0  0  0  0  0  0
   -8.3440   19.7280  -32.7190 C   0  0  0  0  0  0  0  0  0  0  0  0
   -8.3700   18.5300  -32.0480 C   0  0  0  0  0  0  0  0  0  0  0  0
   -7.1560   17.9840  -31.6170 C   0  0  0  0  0  0  0  0  0  0  0  0
   -5.9780   18.6560  -31.8760 C   0  0  0  0  0  0  0  0  0  0  0  0
   -4.5070   22.5960  -31.8590 N   0  0  0  0  0  0  0  0  0  0  0  0
   -8.2024   21.6624  -29.7007 H   0  0  0  0  0  0  0  0  0  0  0  0
   -8.5173   22.7700  -31.0794 H   0  0  0  0  0  0  0  0  0  0  0  0
   -7.0529   21.7298  -31.0794 H   0  0  0  0  0  0  0  0  0  0  0  0
   -7.5817   23.8031  -28.9360 H   0  0  0  0  0  0  0  0  0  0  0  0
   -6.0313   22.9605  -29.3803 H   0  0  0  0  0  0  0  0  0  0  0  0
   -6.3947   24.1385  -31.6845 H   0  0  0  0  0  0  0  0  0  0  0  0
   -7.4265   25.2540  -30.7394 H   0  0  0  0  0  0  0  0  0  0  0  0
   -5.4053   26.3013  -30.3103 H   0  0  0  0  0  0  0  0  0  0  0  0
   -5.2559   25.0599  -29.0484 H   0  0  0  0  0  0  0  0  0  0  0  0
   -2.9950   23.4390  -29.0830 H   0  0  0  0  0  0  0  0  0  0  0  0
   -0.5343   21.1982  -29.7146 H   0  0  0  0  0  0  0  0  0  0  0  0
   -0.4891   21.4164  -27.9652 H   0  0  0  0  0  0  0  0  0  0  0  0
   -1.2205   18.7482  -29.3232 H   0  0  0  0  0  0  0  0  0  0  0  0
    0.4438   19.1467  -28.8255 H   0  0  0  0  0  0  0  0  0  0  0  0
   -1.3226   17.9052  -27.1954 H   0  0  0  0  0  0  0  0  0  0  0  0
   -0.0511   19.0391  -26.5859 H   0  0  0  0  0  0  0  0  0  0  0  0
   -2.5152   19.2912  -25.8150 H   0  0  0  0  0  0  0  0  0  0  0  0
   -1.5015   20.7453  -26.2894 H   0  0  0  0  0  0  0  0  0  0  0  0
   -3.6369   19.3976  -27.9386 H   0  0  0  0  0  0  0  0  0  0  0  0
   -3.7228   21.0006  -27.1329 H   0  0  0  0  0  0  0  0  0  0  0  0
   -7.1976   21.3799  -33.5325 H   0  0  0  0  0  0  0  0  0  0  0  0
   -9.2989   20.1571  -33.0566 H   0  0  0  0  0  0  0  0  0  0  0  0
   -9.3213   18.0127  -31.8543 H   0  0  0  0  0  0  0  0  0  0  0  0
   -7.1402   17.0265  -31.0758 H   0  0  0  0  0  0  0  0  0  0  0  0
   -5.0216   18.2297  -31.5389 H   0  0  0  0  0  0  0  0  0  0  0  0
   -5.0330   22.9880  -32.6450 H   0  0  0  0  0  0  0  0  0  0  0  0
  1  2  1  0
  2  3  1  0
  3  4  1  0
  4  5  1  0
  5  6  2  0
  6  7  1  0
  7  8  1  0
  8  9  1  0
  9 10  1  0
 10 11  1  0
 11 12  1  0
 12 13  1  0
 13 14  1  0
  8 15  2  0
 15 16  1  0
 16 17  2  0
 17 18  1  0
 18 19  2  0
 19 20  1  0
 20 21  2  0
 21 22  1  0
 22 23  2  0
 16 24  1  0
 24  6  1  0
 14  9  1  0
 23 18  1  0
  1 25  1  0
  1 26  1  0
  1 27  1  0
  2 28  1  0
  2 29  1  0
  3 30  1  0
  3 31  1  0
  4 32  1  0
  4 33  1  0
  7 34  1  0
 10 35  1  0
 10 36  1  0
 11 37  1  0
 11 38  1  0
 12 39  1  0
 12 40  1  0
 13 41  1  0
 13 42  1  0
 14 43  1  0
 14 44  1  0
 19 45  1  0
 20 46  1  0
 21 47  1  0
 22 48  1  0
 23 49  1  0
 24 50  1  0
M  END
>  <smiles>  (4) 
CCCCN=c1[nH]c(N2CCCCC2)nc(=Nc2ccccc2)[nH]1

>  <score_type>  (4) 
oracle

>  <origin>  (4) 
adg

>  <m_score__min__energy>  (4) 
-7.6600000000000001

>  <m_primary>  (4) 
energy

$$$$
4:0
     RDKit          3D

 40 42  0  0  0  0  0  0  0  0999 V2000
   -4.6670   25.4650  -30.8490 O   0  0  0  0  0  0  0  0  0  0  0  0
   -3.8530   24.5670  -30.5090 C   0  0  0  0  0  0  0  0  0  0  0  0
   -2.7410   24.9220  -29.6780 N   0  0  0  0  0  0  0  0  0  0  0  0
   -2.6340   24.6180  -28.2560 C   0  0  0  0  0  0  0  0  0  0  0  0
   -2.3410   23.1560  -28.0830 C   0  0  0  0  0  0  0  0  0  0  0  0
   -1.0250   22.6760  -28.2080 C   0  0  0  0  0  0  0  0  0  0  0  0
   -0.7600   21.3100  -28.0820 C   0  0  0  0  0  0  0  0  0  0  0  0
   -1.8040   20.4110  -27.8430 C   0  0  0  0  0  0  0  0  0  0  0  0
   -1.5450   19.0860  -27.7230 F   0  0  0  0  0  0  0  0  0  0  0  0
   -3.1170   20.8790  -27.7350 C   0  0  0  0  0  0  0  0  0  0  0  0
   -3.3870   22.2460  -27.8590 C   0  0  0  0  0  0  0  0  0  0  0  0
   -4.0560   23.1920  -31.0060 C   0  0  0  0  0  0  0  0  0  0  0  0
   -2.9480   22.3800  -31.2800 C   0  0  0  0  0  0  0  0  0  0  0  0
   -3.1300   21.0850  -31.7640 C   0  0  0  0  0  0  0  0  0  0  0  0
   -4.4180   20.5920  -31.9880 C   0  0  0  0  0  0  0  0  0  0  0  0
   -5.5480   21.3950  -31.7390 C   0  0  0  0  0  0  0  0  0  0  0  0
   -6.8820   20.8920  -31.9830 N   0  0  0  0  0  0  0  0  0  0  0  0
   -8.1070   21.6430  -31.7130 C   0  0  0  0  0  0  0  0  0  0  0  0
   -9.3140   20.8290  -32.2300 C   0  0  0  0  0  0  0  0  0  0  0  0
   -8.9840   19.3340  -32.2060 C   0  0  0  0  0  0  0  0  0  0  0  0
   -7.2380   19.2660  -32.4070 S   0  0  0  0  0  0  0  0  0  0  0  0
   -6.6080   18.2920  -31.4510 O   0  0  0  0  0  0  0  0  0  0  0  0
   -6.8540   18.9740  -33.8310 O   0  0  0  0  0  0  0  0  0  0  0  0
   -5.3490   22.7050  -31.2590 C   0  0  0  0  0  0  0  0  0  0  0  0
   -1.8200   25.2110  -27.8135 H   0  0  0  0  0  0  0  0  0  0  0  0
   -3.5803   24.8666  -27.7534 H   0  0  0  0  0  0  0  0  0  0  0  0
   -0.2017   23.3783  -28.4056 H   0  0  0  0  0  0  0  0  0  0  0  0
    0.2724   20.9409  -28.1710 H   0  0  0  0  0  0  0  0  0  0  0  0
   -3.9390   20.1712  -27.5522 H   0  0  0  0  0  0  0  0  0  0  0  0
   -4.4223   22.6095  -27.7808 H   0  0  0  0  0  0  0  0  0  0  0  0
   -1.9312   22.7651  -31.1129 H   0  0  0  0  0  0  0  0  0  0  0  0
   -2.2563   20.4492  -31.9702 H   0  0  0  0  0  0  0  0  0  0  0  0
   -4.5508   19.5663  -32.3626 H   0  0  0  0  0  0  0  0  0  0  0  0
   -8.2086   21.8077  -30.6302 H   0  0  0  0  0  0  0  0  0  0  0  0
   -8.0678   22.6175  -32.2217 H   0  0  0  0  0  0  0  0  0  0  0  0
  -10.1854   21.0204  -31.5865 H   0  0  0  0  0  0  0  0  0  0  0  0
   -9.5399   21.1332  -33.2627 H   0  0  0  0  0  0  0  0  0  0  0  0
   -9.2829   18.8851  -31.2473 H   0  0  0  0  0  0  0  0  0  0  0  0
   -9.5175   18.7750  -32.9888 H   0  0  0  0  0  0  0  0  0  0  0  0
   -6.2182   23.3550  -31.0800 H   0  0  0  0  0  0  0  0  0  0  0  0
  1  2  2  0
  2  3  1  0
  3  4  1  0
  4  5  1  0
  5  6  2  0
  6  7  1  0
  7  8  2  0
  8  9  1  0
  8 10  1  0
 10 11  2  0
  2 12  1  0
 12 13  2  0
 13 14  1  0
 14 15  2  0
 15 16  1  0
 16 17  1  0
 17 18  1  0
 18 19  1  0
 19 20  1  0
 20 21  1  0
 21 22  2  0
 21 23  2  0
 16 24  2  0
 11  5  1  0
 24 12  1  0
 21 17  1  0
  4 25  1  0
  4 26  1  0
  6 27  1  0
  7 28  1  0
 10 29  1  0
 11 30  1  0
 13 31  1  0
 14 32  1  0
 15 33  1  0
 18 34  1  0
 18 35  1  0
 19 36  1  0
 19 37  1  0
 20 38  1  0
 20 39  1  0
 24 40  1  0
M  CHG  1   3  -1
M  END
>  <UniqueID>  (5) 
3

>  <SMILES>  (5) 
O=C([N-]Cc1ccc(F)cc1)c1cccc(N2CCCS2(=O)=O)c1

>  <Energy>  (5) 
51.335724024883966

>  <Genealogy>  (5) 
O=C([N-]Cc1ccc(F)cc1)c1cccc(N2CCCS2(=O)=O)c1 (protonated)
O=C([N-]Cc1ccc(F)cc1)c1cccc(N2CCCS2(=O)=O)c1 (3D coordinates assigned)
O=C([N-]Cc1ccc(F)cc1)c1cccc(N2CCCS2(=O)=O)c1 (nonaromatic ring conformer: 51.335724024883966 kcal/mol)

>  <smiles>  (5) 
O=C(NCc1ccc(F)cc1)c1cccc(N2CCCS2(=O)=O)c1

>  <score_type>  (5) 
oracle

>  <origin>  (5) 
adg

>  <m_score__min__energy>  (5) 
-9.8000000000000007

>  <m_primary>  (5) 
energy

$$$$
5:0
     RDKit          3D

 44 45  0  0  0  0  0  0  0  0999 V2000
   -8.7280   18.6060  -31.5550 C   0  0  0  0  0  0  0  0  0  0  0  0
   -7.2520   18.1890  -31.4890 C   0  0  0  0  0  0  0  0  0  0  0  0
   -6.6500   17.8750  -32.8040 N   0  0  0  0  0  0  0  0  0  0  0  0
   -5.4150   17.0690  -32.6890 C   0  0  0  0  0  0  0  0  0  0  0  0
   -5.3570   16.0120  -33.7860 C   0  0  0  0  0  0  0  0  0  0  0  0
   -6.4120   19.3060  -33.7910 S   0  0  0  0  0  0  0  0  0  0  0  0
   -7.6840   20.1030  -33.8390 O   0  0  0  0  0  0  0  0  0  0  0  0
   -6.0420   18.9170  -35.1970 O   0  0  0  0  0  0  0  0  0  0  0  0
   -5.1580   20.3380  -33.1050 C   0  0  0  0  0  0  0  0  0  0  0  0
   -3.8150   19.9490  -33.1990 C   0  0  0  0  0  0  0  0  0  0  0  0
   -2.8090   20.7690  -32.6830 C   0  0  0  0  0  0  0  0  0  0  0  0
   -3.1370   21.9780  -32.0630 C   0  0  0  0  0  0  0  0  0  0  0  0
   -4.4840   22.3680  -31.9420 C   0  0  0  0  0  0  0  0  0  0  0  0
   -4.8640   23.6120  -31.3350 N   0  0  0  0  0  0  0  0  0  0  0  0
   -4.0540   24.4230  -30.4750 C   0  0  0  0  0  0  0  0  0  0  0  0
   -3.8740   25.6440  -30.7330 O   0  0  0  0  0  0  0  0  0  0  0  0
   -3.3740   23.8070  -29.3730 N   0  0  0  0  0  0  0  0  0  0  0  0
   -2.6850   24.5310  -28.3400 C   0  0  0  0  0  0  0  0  0  0  0  0
   -1.4910   25.2300  -28.6010 C   0  0  0  0  0  0  0  0  0  0  0  0
   -0.8550   25.9450  -27.5810 C   0  0  0  0  0  0  0  0  0  0  0  0
   -1.4090   25.9810  -26.2990 C   0  0  0  0  0  0  0  0  0  0  0  0
   -2.6050   25.3080  -26.0360 C   0  0  0  0  0  0  0  0  0  0  0  0
   -3.2440   24.5920  -27.0530 C   0  0  0  0  0  0  0  0  0  0  0  0
   -5.4850   21.5520  -32.4820 C   0  0  0  0  0  0  0  0  0  0  0  0
   -9.1234   18.7177  -30.5346 H   0  0  0  0  0  0  0  0  0  0  0  0
   -8.8149   19.5639  -32.0888 H   0  0  0  0  0  0  0  0  0  0  0  0
   -9.3033   17.8352  -32.0888 H   0  0  0  0  0  0  0  0  0  0  0  0
   -6.6809   19.0129  -31.0362 H   0  0  0  0  0  0  0  0  0  0  0  0
   -7.2115   17.2644  -30.8944 H   0  0  0  0  0  0  0  0  0  0  0  0
   -4.5417   17.7316  -32.7796 H   0  0  0  0  0  0  0  0  0  0  0  0
   -5.4118   16.5646  -31.7115 H   0  0  0  0  0  0  0  0  0  0  0  0
   -5.3022   15.0126  -33.3297 H   0  0  0  0  0  0  0  0  0  0  0  0
   -6.2603   16.0811  -34.4099 H   0  0  0  0  0  0  0  0  0  0  0  0
   -4.4667   16.1796  -34.4099 H   0  0  0  0  0  0  0  0  0  0  0  0
   -3.5525   18.9954  -33.6804 H   0  0  0  0  0  0  0  0  0  0  0  0
   -1.7557   20.4625  -32.7648 H   0  0  0  0  0  0  0  0  0  0  0  0
   -2.3405   22.6262  -31.6687 H   0  0  0  0  0  0  0  0  0  0  0  0
   -3.3160   22.7630  -29.3680 H   0  0  0  0  0  0  0  0  0  0  0  0
   -1.0565   25.2137  -29.6114 H   0  0  0  0  0  0  0  0  0  0  0  0
    0.0834   26.4801  -27.7886 H   0  0  0  0  0  0  0  0  0  0  0  0
   -0.9038   26.5390  -25.4968 H   0  0  0  0  0  0  0  0  0  0  0  0
   -3.0442   25.3415  -25.0280 H   0  0  0  0  0  0  0  0  0  0  0  0
   -4.1910   24.0730  -26.8436 H   0  0  0  0  0  0  0  0  0  0  0  0
   -6.5375   21.8653  -32.4174 H   0  0  0  0  0  0  0  0  0  0  0  0
  1  2  1  0
  2  3  1  0
  3  4  1  0
  4  5  1  0
  3  6  1  0
  6  7  2  0
  6  8  2  0
  6  9  1  0
  9 10  2  0
 10 11  1  0
 11 12  2  0
 12 13  1  0
 13 14  1  0
 14 15  1  0
 15 16  2  0
 15 17  1  0
 17 18  1  0
 18 19  2  0
 19 20  1  0
 20 21  2  0
 21 22  1  0
 22 23  2  0
 13 24  2  0
 24  9  1  0
 23 18  1  0
  1 25  1  0
  1 26  1  0
  1 27  1  0
  2 28  1  0
  2 29  1  0
  4 30  1  0
  4 31  1  0
  5 32  1  0
  5 33  1  0
  5 34  1  0
 10 35  1  0
 11 36  1  0
 12 37  1  0
 17 38  1  0
 19 39  1  0
 20 40  1  0
 21 41  1  0
 22 42  1  0
 23 43  1  0
 24 44  1  0
M  CHG  1  14  -1
M  END
>  <UniqueID>  (6) 
4

>  <SMILES>  (6) 
CCN(CC)S(=O)(=O)c1cccc([N-]C(=O)Nc2ccccc2)c1

>  <Energy>  (6) 
49.9207276203498

>  <Genealogy>  (6) 
CCN(CC)S(=O)(=O)c1cccc([N-]C(=O)Nc2ccccc2)c1 (protonated)
CCN(CC)S(=O)(=O)c1cccc([N-]C(=O)Nc2ccccc2)c1 (3D coordinates assigned)
CCN(CC)S(=O)(=O)c1cccc([N-]C(=O)Nc2ccccc2)c1 (optimized conformer: 49.9207276203498 kcal/mol)

>  <smiles>  (6) 
CCN(CC)S(=O)(=O)c1cccc(NC(=O)Nc2ccccc2)c1

>  <score_type>  (6) 
oracle

>  <origin>  (6) 
adg

>  <m_score__min__energy>  (6) 
-9.9199999999999999

>  <m_primary>  (6) 
energy

$$$$
6:0
     RDKit          3D

 31 33  0  0  0  0  0  0  0  0999 V2000
   -5.7400   26.3600  -30.4670 O   0  0  0  0  0  0  0  0  0  0  0  0
   -5.1170   25.3010  -30.7380 C   0  0  0  0  0  0  0  0  0  0  0  0
   -5.8500   24.1910  -31.4400 C   0  0  0  0  0  0  0  0  0  0  0  0
   -4.6730   23.0200  -32.1960 S   0  0  0  0  0  0  0  0  0  0  0  0
   -5.8290   21.6530  -32.2110 C   0  0  0  0  0  0  0  0  0  0  0  0
   -7.1590   21.8070  -31.9790 N   0  0  0  0  0  0  0  0  0  0  0  0
   -7.6010   20.5420  -32.0740 C   0  0  0  0  0  0  0  0  0  0  0  0
   -8.9010   20.0750  -31.8980 C   0  0  0  0  0  0  0  0  0  0  0  0
   -9.1180   18.6890  -32.0270 C   0  0  0  0  0  0  0  0  0  0  0  0
   -8.0430   17.8190  -32.3260 C   0  0  0  0  0  0  0  0  0  0  0  0
   -6.7410   18.3290  -32.4950 C   0  0  0  0  0  0  0  0  0  0  0  0
   -6.5660   19.7020  -32.3540 C   0  0  0  0  0  0  0  0  0  0  0  0
   -5.4680   20.4010  -32.4370 O   0  0  0  0  0  0  0  0  0  0  0  0
   -3.7090   25.2410  -30.4690 N   0  0  0  0  0  0  0  0  0  0  0  0
   -3.0730   24.5100  -29.4130 C   0  0  0  0  0  0  0  0  0  0  0  0
   -3.6410   23.3020  -28.9900 C   0  0  0  0  0  0  0  0  0  0  0  0
   -3.0540   22.5680  -27.9560 C   0  0  0  0  0  0  0  0  0  0  0  0
   -1.8710   23.0180  -27.3630 C   0  0  0  0  0  0  0  0  0  0  0  0
   -1.2670   24.1940  -27.8170 C   0  0  0  0  0  0  0  0  0  0  0  0
   -1.8550   24.9340  -28.8480 C   0  0  0  0  0  0  0  0  0  0  0  0
   -1.2180   26.0370  -29.3190 F   0  0  0  0  0  0  0  0  0  0  0  0
   -6.4762   23.6545  -30.7119 H   0  0  0  0  0  0  0  0  0  0  0  0
   -6.4757   24.6260  -32.2333 H   0  0  0  0  0  0  0  0  0  0  0  0
   -9.7278   20.7627  -31.6668 H   0  0  0  0  0  0  0  0  0  0  0  0
  -10.1306   18.2802  -31.8943 H   0  0  0  0  0  0  0  0  0  0  0  0
   -8.2250   16.7389  -32.4270 H   0  0  0  0  0  0  0  0  0  0  0  0
   -5.8946   17.6668  -32.7296 H   0  0  0  0  0  0  0  0  0  0  0  0
   -4.5551   22.9285  -29.4748 H   0  0  0  0  0  0  0  0  0  0  0  0
   -3.5231   21.6357  -27.6086 H   0  0  0  0  0  0  0  0  0  0  0  0
   -1.4159   22.4474  -26.5400 H   0  0  0  0  0  0  0  0  0  0  0  0
   -0.3266   24.5385  -27.3621 H   0  0  0  0  0  0  0  0  0  0  0  0
  1  2  2  0
  2  3  1  0
  3  4  1  0
  4  5  1  0
  5  6  2  0
  6  7  1  0
  7  8  2  0
  8  9  1  0
  9 10  2  0
 10 11  1  0
 11 12  2  0
 12 13  1  0
  2 14  1  0
 14 15  1  0
 15 16  2  0
 16 17  1  0
 17 18  2  0
 18 19  1  0
 19 20  2  0
 20 21  1  0
 13  5  1  0
 20 15  1  0
 12  7  1  0
  3 22  1  0
  3 23  1  0
  8 24  1  0
  9 25  1  0
 10 26  1  0
 11 27  1  0
 16 28  1  0
 17 29  1  0
 18 30  1  0
 19 31  1  0
M  CHG  1  14  -1
M  END
>  <UniqueID>  (7) 
5

>  <SMILES>  (7) 
O=C(CSc1nc2ccccc2o1)[N-]c1ccccc1F

>  <Energy>  (7) 
69.84268829135208

>  <Genealogy>  (7) 
O=C(CSc1nc2ccccc2o1)[N-]c1ccccc1F (protonated)
O=C(CSc1nc2ccccc2o1)[N-]c1ccccc1F (3D coordinates assigned)
O=C(CSc1nc2ccccc2o1)[N-]c1ccccc1F (optimized conformer: 69.84268829135208 kcal/mol)

>  <smiles>  (7) 
O=C(CSc1nc2ccccc2o1)Nc1ccccc1F

>  <score_type>  (7) 
oracle

>  <origin>  (7) 
adg

>  <m_score__min__energy>  (7) 
-9.6099999999999994

>  <m_primary>  (7) 
energy

$$$$
7:0
     RDKit          3D

 45 47  0  0  0  0  0  0  0  0999 V2000
   -9.4730   18.9970  -32.3610 C   0  0  0  0  0  0  0  0  0  0  0  0
   -8.3830   19.3990  -31.3660 C   0  0  0  0  0  0  0  0  0  0  0  0
   -7.2540   20.0820  -32.0450 N   0  0  0  0  0  0  0  0  0  0  0  0
   -7.1690   21.4680  -32.0190 C   0  0  0  0  0  0  0  0  0  0  0  0
   -8.3280   22.3260  -31.5330 C   0  0  0  0  0  0  0  0  0  0  0  0
   -5.9760   22.1160  -32.4370 C   0  0  0  0  0  0  0  0  0  0  0  0
   -5.7180   23.6040  -32.2130 C   0  0  0  0  0  0  0  0  0  0  0  0
   -4.6310   23.8090  -31.2320 N   0  0  0  0  0  0  0  0  0  0  0  0
   -4.4770   22.6250  -30.3450 C   0  0  0  0  0  0  0  0  0  0  0  0
   -3.7410   22.9730  -29.0470 C   0  0  0  0  0  0  0  0  0  0  0  0
   -4.5310   24.0060  -28.2270 C   0  0  0  0  0  0  0  0  0  0  0  0
   -5.4050   24.9170  -29.1080 C   0  0  0  0  0  0  0  0  0  0  0  0
   -4.7870   25.0960  -30.5020 C   0  0  0  0  0  0  0  0  0  0  0  0
   -4.9640   21.3580  -33.0400 C   0  0  0  0  0  0  0  0  0  0  0  0
   -3.9150   21.9300  -33.4530 O   0  0  0  0  0  0  0  0  0  0  0  0
   -5.1090   19.9750  -33.1880 C   0  0  0  0  0  0  0  0  0  0  0  0
   -4.1030   19.2170  -33.8220 C   0  0  0  0  0  0  0  0  0  0  0  0
   -4.2340   17.8390  -33.9620 C   0  0  0  0  0  0  0  0  0  0  0  0
   -5.3650   17.1970  -33.4760 C   0  0  0  0  0  0  0  0  0  0  0  0
   -6.3720   17.9270  -32.8430 C   0  0  0  0  0  0  0  0  0  0  0  0
   -6.2690   19.3350  -32.6750 C   0  0  0  0  0  0  0  0  0  0  0  0
  -10.3672   18.6672  -31.8118 H   0  0  0  0  0  0  0  0  0  0  0  0
   -9.7286   19.8600  -32.9934 H   0  0  0  0  0  0  0  0  0  0  0  0
   -9.1070   18.1747  -32.9934 H   0  0  0  0  0  0  0  0  0  0  0  0
   -8.8151   20.0798  -30.6178 H   0  0  0  0  0  0  0  0  0  0  0  0
   -7.9978   18.4864  -30.8877 H   0  0  0  0  0  0  0  0  0  0  0  0
   -8.3411   22.3357  -30.4331 H   0  0  0  0  0  0  0  0  0  0  0  0
   -8.2060   23.3531  -31.9073 H   0  0  0  0  0  0  0  0  0  0  0  0
   -9.2748   21.9094  -31.9073 H   0  0  0  0  0  0  0  0  0  0  0  0
   -5.4329   24.0680  -33.1687 H   0  0  0  0  0  0  0  0  0  0  0  0
   -6.6367   24.0650  -31.8212 H   0  0  0  0  0  0  0  0  0  0  0  0
   -5.4752   22.2367  -30.0943 H   0  0  0  0  0  0  0  0  0  0  0  0
   -3.8812   21.8726  -30.8825 H   0  0  0  0  0  0  0  0  0  0  0  0
   -3.6149   22.0587  -28.4485 H   0  0  0  0  0  0  0  0  0  0  0  0
   -2.7616   23.4032  -29.3034 H   0  0  0  0  0  0  0  0  0  0  0  0
   -5.1813   23.4712  -27.5190 H   0  0  0  0  0  0  0  0  0  0  0  0
   -3.8031   24.6450  -27.7056 H   0  0  0  0  0  0  0  0  0  0  0  0
   -6.4027   24.4657  -29.2126 H   0  0  0  0  0  0  0  0  0  0  0  0
   -5.4755   25.9041  -28.6278 H   0  0  0  0  0  0  0  0  0  0  0  0
   -5.4370   25.7586  -31.0924 H   0  0  0  0  0  0  0  0  0  0  0  0
   -3.7829   25.5246  -30.3671 H   0  0  0  0  0  0  0  0  0  0  0  0
   -3.2052   19.7205  -34.2099 H   0  0  0  0  0  0  0  0  0  0  0  0
   -3.4419   17.2585  -34.4575 H   0  0  0  0  0  0  0  0  0  0  0  0
   -5.4679   16.1078  -33.5904 H   0  0  0  0  0  0  0  0  0  0  0  0
   -7.2628   17.4028  -32.4667 H   0  0  0  0  0  0  0  0  0  0  0  0
  1  2  1  0
  2  3  1  0
  3  4  1  0
  4  5  1  0
  4  6  2  0
  6  7  1  0
  7  8  1  0
  8  9  1  0
  9 10  1  0
 10 11  1  0
 11 12  1  0
 12 13  1  0
  6 14  1  0
 14 15  2  0
 14 16  1  0
 16 17  2  0
 17 18  1  0
 18 19  2  0
 19 20  1  0
 20 21  2  0
 21  3  1  0
 13  8  1  0
 21 16  1  0
  1 22  1  0
  1 23  1  0
  1 24  1  0
  2 25  1  0
  2 26  1  0
  5 27  1  0
  5 28  1  0
  5 29  1  0
  7 30  1  0
  7 31  1  0
  9 32  1  0
  9 33  1  0
 10 34  1  0
 10 35  1  0
 11 36  1  0
 11 37  1  0
 12 38  1  0
 12 39  1  0
 13 40  1  0
 13 41  1  0
 17 42  1  0
 18 43  1  0
 19 44  1  0
 20 45  1  0
M  END
>  <UniqueID>  (8) 
6

>  <SMILES>  (8) 
CCn1c(C)c(CN2CCCCC2)c(=O)c2ccccc21

>  <Energy>  (8) 
71.8454896997688

>  <Genealogy>  (8) 
CCn1c(C)c(CN2CCCCC2)c(=O)c2ccccc21 (3D coordinates assigned)
CCn1c(C)c(CN2CCCCC2)c(=O)c2ccccc21 (nonaromatic ring conformer: 71.8454896997688 kcal/mol)

>  <smiles>  (8) 
CCn1c(C)c(CN2CCCCC2)c(=O)c2ccccc21

>  <score_type>  (8) 
oracle

>  <origin>  (8) 
adg

>  <m_score__min__energy>  (8) 
-8.1799999999999997

>  <m_primary>  (8) 
energy

$$$$
8:0
     RDKit          3D

 58 61  0  0  0  0  0  0  0  0999 V2000
   -4.4490   24.5480  -29.6340 C   0  0  0  0  0  0  0  0  0  0  0  0
   -3.1170   24.9210  -29.9560 O   0  0  0  0  0  0  0  0  0  0  0  0
   -1.9890   24.5840  -29.1910 C   0  0  0  0  0  0  0  0  0  0  0  0
   -1.3300   25.5290  -28.3820 C   0  0  0  0  0  0  0  0  0  0  0  0
   -0.2220   25.1530  -27.6160 C   0  0  0  0  0  0  0  0  0  0  0  0
    0.2340   23.8350  -27.6430 C   0  0  0  0  0  0  0  0  0  0  0  0
   -0.4120   22.8870  -28.4390 C   0  0  0  0  0  0  0  0  0  0  0  0
   -1.5150   23.2570  -29.2250 C   0  0  0  0  0  0  0  0  0  0  0  0
   -2.1610   22.2720  -30.0450 N   0  0  0  0  0  0  0  0  0  0  0  0
   -1.9530   22.2690  -31.4970 C   0  0  0  0  0  0  0  0  0  0  0  0
   -2.1310   20.8510  -32.0590 C   0  0  0  0  0  0  0  0  0  0  0  0
   -3.3910   20.1880  -31.6190 N   0  0  0  0  0  0  0  0  0  0  0  0
   -4.3240   19.7940  -32.7070 C   0  0  1  0  0  0  0  0  0  0  0  0
   -3.6560   18.9660  -33.8400 C   0  0  0  0  0  0  0  0  0  0  0  0
   -4.6710   18.0800  -34.5880 C   0  0  0  0  0  0  0  0  0  0  0  0
   -6.0630   18.7200  -34.5870 C   0  0  0  0  0  0  0  0  0  0  0  0
   -6.5970   18.8580  -33.2080 N   0  0  0  0  0  0  0  0  0  0  0  0
   -7.7850   19.7400  -33.1140 C   0  0  0  0  0  0  0  0  0  0  0  0
   -7.5650   20.9720  -32.2560 C   0  0  0  0  0  0  0  0  0  0  0  0
   -6.6470   21.9590  -32.6560 C   0  0  0  0  0  0  0  0  0  0  0  0
   -6.4700   23.1140  -31.8920 C   0  0  0  0  0  0  0  0  0  0  0  0
   -7.1900   23.2870  -30.7080 C   0  0  0  0  0  0  0  0  0  0  0  0
   -8.0730   22.2970  -30.2790 C   0  0  0  0  0  0  0  0  0  0  0  0
   -8.2540   21.1380  -31.0390 C   0  0  0  0  0  0  0  0  0  0  0  0
   -9.0930   20.1750  -30.5730 F   0  0  0  0  0  0  0  0  0  0  0  0
   -5.5750   19.0760  -32.1540 C   0  0  0  0  0  0  0  0  0  0  0  0
   -4.1010   20.8470  -30.5010 C   0  0  0  0  0  0  0  0  0  0  0  0
   -3.1210   21.3450  -29.4400 C   0  0  0  0  0  0  0  0  0  0  0  0
   -4.5665   24.5151  -28.5408 H   0  0  0  0  0  0  0  0  0  0  0  0
   -5.1483   25.2849  -30.0559 H   0  0  0  0  0  0  0  0  0  0  0  0
   -4.6639   23.5551  -30.0559 H   0  0  0  0  0  0  0  0  0  0  0  0
   -1.6884   26.5685  -28.3522 H   0  0  0  0  0  0  0  0  0  0  0  0
    0.2912   25.8984  -26.9907 H   0  0  0  0  0  0  0  0  0  0  0  0
    1.1036   23.5421  -27.0364 H   0  0  0  0  0  0  0  0  0  0  0  0
   -0.0555   21.8464  -28.4503 H   0  0  0  0  0  0  0  0  0  0  0  0
   -2.6846   22.9409  -31.9696 H   0  0  0  0  0  0  0  0  0  0  0  0
   -0.9306   22.6130  -31.7123 H   0  0  0  0  0  0  0  0  0  0  0  0
   -2.1346   20.9103  -33.1574 H   0  0  0  0  0  0  0  0  0  0  0  0
   -1.2970   20.2451  -31.6751 H   0  0  0  0  0  0  0  0  0  0  0  0
   -4.6433   20.7382  -33.1723 H   0  0  0  0  0  0  0  0  0  0  0  0
   -3.1924   19.6579  -34.5585 H   0  0  0  0  0  0  0  0  0  0  0  0
   -2.9060   18.3061  -33.3794 H   0  0  0  0  0  0  0  0  0  0  0  0
   -4.3363   17.9483  -35.6275 H   0  0  0  0  0  0  0  0  0  0  0  0
   -4.7316   17.1079  -34.0769 H   0  0  0  0  0  0  0  0  0  0  0  0
   -5.9984   19.7172  -35.0469 H   0  0  0  0  0  0  0  0  0  0  0  0
   -6.7426   18.0695  -35.1571 H   0  0  0  0  0  0  0  0  0  0  0  0
   -8.0553   20.0675  -34.1287 H   0  0  0  0  0  0  0  0  0  0  0  0
   -8.5830   19.1536  -32.6351 H   0  0  0  0  0  0  0  0  0  0  0  0
   -6.0637   21.8200  -33.5782 H   0  0  0  0  0  0  0  0  0  0  0  0
   -5.7626   23.8886  -32.2230 H   0  0  0  0  0  0  0  0  0  0  0  0
   -7.0605   24.2039  -30.1142 H   0  0  0  0  0  0  0  0  0  0  0  0
   -8.6292   22.4285  -29.3391 H   0  0  0  0  0  0  0  0  0  0  0  0
   -6.0139   19.6907  -31.3543 H   0  0  0  0  0  0  0  0  0  0  0  0
   -5.2636   18.0928  -31.7715 H   0  0  0  0  0  0  0  0  0  0  0  0
   -4.6709   21.7025  -30.8926 H   0  0  0  0  0  0  0  0  0  0  0  0
   -4.7744   20.1124  -30.0352 H   0  0  0  0  0  0  0  0  0  0  0  0
   -3.6767   21.8629  -28.6444 H   0  0  0  0  0  0  0  0  0  0  0  0
   -2.5787   20.4870  -29.0161 H   0  0  0  0  0  0  0  0  0  0  0  0
  1  2  1  0
  2  3  1  0
  3  4  2  0
  4  5  1  0
  5  6  2  0
  6  7  1  0
  7  8  2  0
  8  9  1  0
  9 10  1  0
 10 11  1  0
 11 12  1  0
 12 13  1  0
 13 14  1  0
 14 15  1  0
 15 16  1  0
 16 17  1  0
 17 18  1  0
 18 19  1  0
 19 20  2  0
 20 21  1  0
 21 22  2  0
 22 23  1  0
 23 24  2  0
 24 25  1  0
 17 26  1  0
 12 27  1  0
 27 28  1  0
  8  3  1  0
 28  9  1  0
 26 13  1  0
 24 19  1  0
  1 29  1  0
  1 30  1  0
  1 31  1  0
  4 32  1  0
  5 33  1  0
  6 34  1  0
  7 35  1  0
 10 36  1  0
 10 37  1  0
 11 38  1  0
 11 39  1  0
 13 40  1  6
 14 41  1  0
 14 42  1  0
 15 43  1  0
 15 44  1  0
 16 45  1  0
 16 46  1  0
 18 47  1  0
 18 48  1  0
 20 49  1  0
 21 50  1  0
 22 51  1  0
 23 52  1  0
 26 53  1  0
 26 54  1  0
 27 55  1  0
 27 56  1  0
 28 57  1  0
 28 58  1  0
M  END
>  <UniqueID>  (9) 
7

>  <SMILES>  (9) 
COc1ccccc1N1CCN([C@H]2CCCN(Cc3ccccc3F)C2)CC1

>  <Energy>  (9) 
86.77688926075186

>  <Genealogy>  (9) 
COc1ccccc1N1CCN([C@H]2CCCN(Cc3ccccc3F)C2)CC1 (chirality)
COc1ccccc1N1CCN([C@H]2CCCN(Cc3ccccc3F)C2)CC1 (3D coordinates assigned)
COc1ccccc1N1CCN([C@H]2CCCN(Cc3ccccc3F)C2)CC1 (nonaromatic ring conformer: 86.77688926075186 kcal/mol)

>  <smiles>  (9) 
COc1ccccc1N1CCN(C2CCCN(Cc3ccccc3F)C2)CC1

>  <score_type>  (9) 
oracle

>  <origin>  (9) 
adg

>  <m_score__min__energy>  (9) 
-8.8699999999999992

>  <m_primary>  (9) 
energy

$$$$
9:0
     RDKit          3D

 59 62  0  0  1  0  0  0  0  0999 V2000
    0.6970   23.7280  -36.0940 C   0  0  0  0  0  0  0  0  0  0  0  0
    0.2010   22.6720  -35.2000 N   0  0  0  0  0  0  0  0  0  0  0  0
    0.9990   21.5080  -35.4690 C   0  0  0  0  0  0  0  0  0  0  0  0
    1.1090   20.5730  -34.2990 C   0  0  0  0  0  0  0  0  0  0  0  0
    0.3890   20.9900  -33.1370 N   0  0  0  0  0  0  0  0  0  0  0  0
   -0.8860   20.9730  -32.9910 C   0  0  0  0  0  0  0  0  0  0  0  0
   -1.5830   19.9740  -33.5650 N   0  0  0  0  0  0  0  0  0  0  0  0
   -2.9190   19.8570  -33.4760 C   0  0  0  0  0  0  0  0  0  0  0  0
   -3.6970   18.7670  -34.1010 C   0  0  0  0  0  0  0  0  0  0  0  0
   -3.5890   20.8150  -32.7600 C   0  0  0  0  0  0  0  0  0  0  0  0
   -5.0460   20.7020  -32.6530 C   0  0  0  0  0  0  0  0  0  0  0  0
   -5.8890   19.8680  -32.7000 N   0  0  0  0  0  0  0  0  0  0  0  0
   -7.1850   19.9750  -32.5760 C   0  0  0  0  0  0  0  0  0  0  0  0
   -8.1900   19.0030  -32.6270 C   0  0  0  0  0  0  0  0  0  0  0  0
   -9.4960   19.3870  -32.4640 C   0  0  0  0  0  0  0  0  0  0  0  0
   -9.9160   20.6780  -32.2490 C   0  0  0  0  0  0  0  0  0  0  0  0
   -8.9280   21.6560  -32.1950 C   0  0  0  0  0  0  0  0  0  0  0  0
   -7.6340   21.2660  -32.3580 C   0  0  0  0  0  0  0  0  0  0  0  0
   -6.0750   22.2500  -32.3500 S   0  0  0  0  0  0  0  0  0  0  0  0
   -2.9010   21.8310  -32.1730 C   0  0  0  0  0  0  0  0  0  0  0  0
   -3.5060   22.7300  -31.5040 N   0  0  0  0  0  0  0  0  0  0  0  0
   -3.1170   23.2670  -30.2770 C   0  0  2  0  0  0  0  0  0  0  0  0
   -2.3530   22.4560  -29.2930 C   0  0  0  0  0  0  0  0  0  0  0  0
   -2.1270   23.4390  -28.1770 C   0  0  1  0  0  0  0  0  0  0  0  0
   -0.6690   23.8450  -28.0710 C   0  0  0  0  0  0  0  0  0  0  0  0
   -0.1920   24.3240  -29.3020 O   0  0  0  0  0  0  0  0  0  0  0  0
   -2.9320   24.6690  -28.4640 C   0  0  1  0  0  0  0  0  0  0  0  0
   -2.0890   25.7020  -28.9210 O   0  0  0  0  0  0  0  0  0  0  0  0
   -3.8960   24.3220  -29.6080 C   0  0  1  0  0  0  0  0  0  0  0  0
   -4.0140   25.4810  -30.4100 O   0  0  0  0  0  0  0  0  0  0  0  0
   -1.5630   21.9020  -32.2920 N   0  0  0  0  0  0  0  0  0  0  0  0
    1.0889   24.5624  -35.4938 H   0  0  0  0  0  0  0  0  0  0  0  0
    1.4996   23.3241  -36.7286 H   0  0  0  0  0  0  0  0  0  0  0  0
   -0.1263   24.0878  -36.7286 H   0  0  0  0  0  0  0  0  0  0  0  0
   -0.8140   22.5250  -35.3040 H   0  0  0  0  0  0  0  0  0  0  0  0
    0.5458   20.9620  -36.3095 H   0  0  0  0  0  0  0  0  0  0  0  0
    2.0158   21.8592  -35.6990 H   0  0  0  0  0  0  0  0  0  0  0  0
    0.7237   19.5900  -34.6075 H   0  0  0  0  0  0  0  0  0  0  0  0
    2.1718   20.5493  -34.0165 H   0  0  0  0  0  0  0  0  0  0  0  0
   -1.0860   19.2370  -34.1130 H   0  0  0  0  0  0  0  0  0  0  0  0
   -4.1448   18.1396  -33.3163 H   0  0  0  0  0  0  0  0  0  0  0  0
   -4.4937   19.1968  -34.7260 H   0  0  0  0  0  0  0  0  0  0  0  0
   -3.0316   18.1533  -34.7260 H   0  0  0  0  0  0  0  0  0  0  0  0
   -7.9360   17.9461  -32.7954 H   0  0  0  0  0  0  0  0  0  0  0  0
  -10.2659   18.6026  -32.5087 H   0  0  0  0  0  0  0  0  0  0  0  0
  -10.9806   20.9256  -32.1257 H   0  0  0  0  0  0  0  0  0  0  0  0
   -9.1846   22.7122  -32.0258 H   0  0  0  0  0  0  0  0  0  0  0  0
   -2.3715   23.8095  -30.8769 H   0  0  0  0  0  0  0  0  0  0  0  0
   -2.9385   21.5905  -28.9494 H   0  0  0  0  0  0  0  0  0  0  0  0
   -1.4244   22.0288  -29.6995 H   0  0  0  0  0  0  0  0  0  0  0  0
   -2.4261   22.9625  -27.2318 H   0  0  0  0  0  0  0  0  0  0  0  0
   -0.5696   24.6364  -27.3135 H   0  0  0  0  0  0  0  0  0  0  0  0
   -0.0781   22.9626  -27.7841 H   0  0  0  0  0  0  0  0  0  0  0  0
   -0.1930   25.3000  -29.3750 H   0  0  0  0  0  0  0  0  0  0  0  0
   -3.4583   24.9947  -27.5546 H   0  0  0  0  0  0  0  0  0  0  0  0
   -1.9710   25.6790  -29.8840 H   0  0  0  0  0  0  0  0  0  0  0  0
   -4.9172   24.0092  -29.3449 H   0  0  0  0  0  0  0  0  0  0  0  0
   -3.8880   26.3030  -29.9070 H   0  0  0  0  0  0  0  0  0  0  0  0
   -1.0780   22.6740  -31.8420 H   0  0  0  0  0  0  0  0  0  0  0  0
  1  2  1  0
  2  3  1  0
  3  4  1  0
  4  5  1  0
  5  6  2  0
  6  7  1  0
  7  8  1  0
  8  9  1  0
  8 10  2  0
 10 11  1  0
 11 12  2  0
 12 13  1  0
 13 14  2  0
 14 15  1  0
 15 16  2  0
 16 17  1  0
 17 18  2  0
 18 19  1  0
 10 20  1  0
 20 21  2  0
 21 22  1  0
 22 23  1  0
 23 24  1  0
 24 25  1  0
 25 26  1  0
 24 27  1  0
 27 28  1  0
 27 29  1  0
 29 30  1  0
 20 31  1  0
 31  6  1  0
 19 11  1  0
 29 22  1  0
 18 13  1  0
  1 32  1  0
  1 33  1  0
  1 34  1  0
  2 35  1  0
  3 36  1  0
  3 37  1  0
  4 38  1  0
  4 39  1  0
  7 40  1  0
  9 41  1  0
  9 42  1  0
  9 43  1  0
 14 44  1  0
 15 45  1  0
 16 46  1  0
 17 47  1  0
 22 48  1  6
 23 49  1  0
 23 50  1  0
 24 51  1  1
 25 52  1  0
 25 53  1  0
 26 54  1  0
 27 55  1  1
 28 56  1  0
 29 57  1  1
 30 58  1  0
 31 59  1  0
M  END
>  <smiles>  (10) 
CNCCN=c1[nH]c(C)c(-c2nc3ccccc3s2)c(=NC2CC(CO)C(O)C2O)[nH]1

>  <score_type>  (10) 
oracle

>  <origin>  (10) 
adg

>  <m_score__min__energy>  (10) 
-10.83

>  <m_primary>  (10) 
energy

$$$$
10:0
     RDKit          3D

 38 40  0  0  0  0  0  0  0  0999 V2000
   -3.6770   25.9220  -31.6100 H   0  0  0  0  0  0  0  0  0  0  0  0
   -3.8870   25.3050  -30.7940 N   0  0  0  0  0  0  0  0  0  0  0  0
   -4.8380   24.4310  -30.8450 C   0  0  0  0  0  0  0  0  0  0  0  0
   -4.9300   23.4920  -31.8120 N   0  0  0  0  0  0  0  0  0  0  0  0
   -6.0290   22.7130  -31.6310 C   0  0  0  0  0  0  0  0  0  0  0  0
   -6.7800   23.0160  -30.4980 C   0  0  0  0  0  0  0  0  0  0  0  0
   -6.0900   24.3390  -29.7220 S   0  0  0  0  0  0  0  0  0  0  0  0
   -8.0760   22.3540  -30.1380 C   0  0  0  0  0  0  0  0  0  0  0  0
   -8.1070   22.1893  -29.0508 H   0  0  0  0  0  0  0  0  0  0  0  0
   -8.9042   23.0072  -30.4501 H   0  0  0  0  0  0  0  0  0  0  0  0
   -8.2170   21.0000  -30.8580 C   0  0  0  0  0  0  0  0  0  0  0  0
   -7.5553   20.2656  -30.3756 H   0  0  0  0  0  0  0  0  0  0  0  0
   -9.2661   20.6759  -30.7919 H   0  0  0  0  0  0  0  0  0  0  0  0
   -7.8320   21.1230  -32.3540 C   0  0  2  0  0  0  0  0  0  0  0  0
   -8.4541   21.9302  -32.7679 H   0  0  0  0  0  0  0  0  0  0  0  0
   -8.1860   19.9340  -33.1630 N   0  0  0  0  0  0  0  0  0  0  0  0
   -7.8260   20.0410  -34.1400 H   0  0  0  0  0  0  0  0  0  0  0  0
   -7.8340   18.6040  -32.6270 C   0  0  0  0  0  0  0  0  0  0  0  0
   -7.5816   18.7118  -31.5618 H   0  0  0  0  0  0  0  0  0  0  0  0
   -8.7039   17.9485  -32.7808 H   0  0  0  0  0  0  0  0  0  0  0  0
   -6.6640   17.9700  -33.3350 C   0  0  0  0  0  0  0  0  0  0  0  0
   -5.6880   18.7700  -33.9490 C   0  0  0  0  0  0  0  0  0  0  0  0
   -5.7835   19.8655  -33.9219 H   0  0  0  0  0  0  0  0  0  0  0  0
   -4.5950   18.1840  -34.5950 C   0  0  0  0  0  0  0  0  0  0  0  0
   -3.8311   18.8206  -35.0654 H   0  0  0  0  0  0  0  0  0  0  0  0
   -4.4680   16.7830  -34.6460 C   0  0  0  0  0  0  0  0  0  0  0  0
   -3.3890   16.1470  -35.2770 O   0  0  0  0  0  0  0  0  0  0  0  0
   -3.1990   14.7360  -35.3130 C   0  0  0  0  0  0  0  0  0  0  0  0
   -3.1466   14.3468  -34.2855 H   0  0  0  0  0  0  0  0  0  0  0  0
   -4.0419   14.2659  -35.8406 H   0  0  0  0  0  0  0  0  0  0  0  0
   -2.2617   14.5056  -35.8406 H   0  0  0  0  0  0  0  0  0  0  0  0
   -5.4510   15.9870  -34.0480 C   0  0  0  0  0  0  0  0  0  0  0  0
   -5.3639   14.8912  -34.0872 H   0  0  0  0  0  0  0  0  0  0  0  0
   -6.5430   16.5730  -33.4010 C   0  0  0  0  0  0  0  0  0  0  0  0
   -7.3122   15.9354  -32.9408 H   0  0  0  0  0  0  0  0  0  0  0  0
   -6.3520   21.5490  -32.5210 C   0  0  0  0  0  0  0  0  0  0  0  0
   -5.7011   20.7022  -32.2578 H   0  0  0  0  0  0  0  0  0  0  0  0
   -6.1870   21.8482  -33.5666 H   0  0  0  0  0  0  0  0  0  0  0  0
  1  2  1  0
  2  3  2  0
  3  4  1  0
  4  5  1  0
  5  6  2  0
  6  7  1  0
  6  8  1  0
  8  9  1  0
  8 10  1  0
  8 11  1  0
 11 12  1  0
 11 13  1  0
 11 14  1  0
 14 15  1  6
 14 16  1  0
 16 17  1  0
 16 18  1  0
 18 19  1  0
 18 20  1  0
 18 21  1  0
 21 22  2  0
 22 23  1  0
 22 24  1  0
 24 25  1  0
 24 26  2  0
 26 27  1  0
 27 28  1  0
 28 29  1  0
 28 30  1  0
 28 31  1  0
 26 32  1  0
 32 33  1  0
 32 34  2  0
 34 35  1  0
 14 36  1  0
 36 37  1  0
 36 38  1  0
  7  3  1  0
 34 21  1  0
 36  5  1  0
M  CHG  1   4  -1
M  END
>  <UniqueID>  (11) 
8

>  <SMILES>  (11) 
[H]/N=c1\[n-]c2c(s1)CC[C@H](NCc1ccc(OC)cc1)C2

>  <Energy>  (11) 
74.42868405009678

>  <Genealogy>  (11) 
COc1ccc(CNC2CCc3sc(=N)[n-]c3C2)cc1 (protonated)
COc1ccc(CN[C@H]2CCc3sc(=N)[n-]c3C2)cc1 (chirality)
[H]/N=c1\[n-]c2c(s1)CC[C@H](NCc1ccc(OC)cc1)C2 (cis-trans isomerization)
[H]/N=c1\[n-]c2c(s1)CC[C@H](NCc1ccc(OC)cc1)C2 (3D coordinates assigned)
[H]/N=c1\[n-]c2c(s1)CC[C@H](NCc1ccc(OC)cc1)C2 (nonaromatic ring conformer: 74.42868405009678 kcal/mol)

>  <smiles>  (11) 
COc1ccc(CNC2CCc3sc(=N)[nH]c3C2)cc1

>  <score_type>  (11) 
oracle

>  <origin>  (11) 
adg

>  <m_score__min__energy>  (11) 
-9.5999999999999996

>  <m_primary>  (11) 
energy

$$$$
11:0
     RDKit          3D

 46 46  0  0  0  0  0  0  0  0999 V2000
   -5.5050   16.8110  -34.1740 C   0  0  0  0  0  0  0  0  0  0  0  0
   -6.8700   16.9950  -33.5180 C   0  0  0  0  0  0  0  0  0  0  0  0
   -6.7350   17.6390  -32.1240 C   0  0  0  0  0  0  0  0  0  0  0  0
   -7.2450   19.0340  -32.0840 N   0  0  0  0  0  0  0  0  0  0  0  0
   -8.7010   19.1410  -31.7580 C   0  0  0  0  0  0  0  0  0  0  0  0
   -9.4790   20.3490  -32.3410 C   0  0  0  0  0  0  0  0  0  0  0  0
   -9.4460   21.6100  -31.4800 C   0  0  0  0  0  0  0  0  0  0  0  0
   -6.8410   19.7610  -33.3170 C   0  0  0  0  0  0  0  0  0  0  0  0
   -5.7220   20.7950  -33.0910 C   0  0  0  0  0  0  0  0  0  0  0  0
   -5.5660   21.0500  -31.6970 O   0  0  0  0  0  0  0  0  0  0  0  0
   -5.5400   22.3270  -31.1190 C   0  0  0  0  0  0  0  0  0  0  0  0
   -6.4840   23.3210  -31.4390 C   0  0  0  0  0  0  0  0  0  0  0  0
   -6.4080   24.5810  -30.8410 C   0  0  0  0  0  0  0  0  0  0  0  0
   -5.3970   24.8600  -29.9180 C   0  0  0  0  0  0  0  0  0  0  0  0
   -4.4590   23.8740  -29.5780 C   0  0  0  0  0  0  0  0  0  0  0  0
   -3.3480   24.1840  -28.6090 C   0  0  0  0  0  0  0  0  0  0  0  0
   -3.8690   24.1950  -27.1760 C   0  0  0  0  0  0  0  0  0  0  0  0
   -4.5320   22.6130  -30.1910 C   0  0  0  0  0  0  0  0  0  0  0  0
   -4.7350   16.7072  -33.3953 H   0  0  0  0  0  0  0  0  0  0  0  0
   -5.5179   15.9065  -34.7998 H   0  0  0  0  0  0  0  0  0  0  0  0
   -5.2779   17.6867  -34.7998 H   0  0  0  0  0  0  0  0  0  0  0  0
   -7.4898   17.6436  -34.1546 H   0  0  0  0  0  0  0  0  0  0  0  0
   -7.3372   16.0060  -33.4016 H   0  0  0  0  0  0  0  0  0  0  0  0
   -7.3039   17.0357  -31.4012 H   0  0  0  0  0  0  0  0  0  0  0  0
   -5.6640   17.6700  -31.8751 H   0  0  0  0  0  0  0  0  0  0  0  0
   -6.7330   19.5040  -31.2990 H   0  0  0  0  0  0  0  0  0  0  0  0
   -9.1890   18.2264  -32.1260 H   0  0  0  0  0  0  0  0  0  0  0  0
   -8.7339   19.2865  -30.6682 H   0  0  0  0  0  0  0  0  0  0  0  0
   -9.0457   20.5935  -33.3221 H   0  0  0  0  0  0  0  0  0  0  0  0
  -10.5333   20.0400  -32.3960 H   0  0  0  0  0  0  0  0  0  0  0  0
   -9.4534   21.3283  -30.4167 H   0  0  0  0  0  0  0  0  0  0  0  0
   -8.5326   22.1815  -31.7016 H   0  0  0  0  0  0  0  0  0  0  0  0
  -10.3283   22.2285  -31.7016 H   0  0  0  0  0  0  0  0  0  0  0  0
   -6.4888   19.0244  -34.0541 H   0  0  0  0  0  0  0  0  0  0  0  0
   -7.7244   20.3162  -33.6653 H   0  0  0  0  0  0  0  0  0  0  0  0
   -4.7776   20.4040  -33.4974 H   0  0  0  0  0  0  0  0  0  0  0  0
   -5.9889   21.7323  -33.6012 H   0  0  0  0  0  0  0  0  0  0  0  0
   -7.2841   23.1048  -32.1623 H   0  0  0  0  0  0  0  0  0  0  0  0
   -7.1459   25.3554  -31.0974 H   0  0  0  0  0  0  0  0  0  0  0  0
   -5.3363   25.8565  -29.4562 H   0  0  0  0  0  0  0  0  0  0  0  0
   -2.5638   23.4183  -28.7021 H   0  0  0  0  0  0  0  0  0  0  0  0
   -2.9409   25.1784  -28.8446 H   0  0  0  0  0  0  0  0  0  0  0  0
   -3.0199   24.1771  -26.4770 H   0  0  0  0  0  0  0  0  0  0  0  0
   -4.4625   25.1059  -27.0086 H   0  0  0  0  0  0  0  0  0  0  0  0
   -4.5005   23.3100  -27.0086 H   0  0  0  0  0  0  0  0  0  0  0  0
   -3.7892   21.8417  -29.9393 H   0  0  0  0  0  0  0  0  0  0  0  0
  1  2  1  0
  2  3  1  0
  3  4  1  0
  4  5  1  0
  5  6  1  0
  6  7  1  0
  4  8  1  0
  8  9  1  0
  9 10  1  0
 10 11  1  0
 11 12  2  0
 12 13  1  0
 13 14  2  0
 14 15  1  0
 15 16  1  0
 16 17  1  0
 15 18  2  0
 18 11  1  0
  1 19  1  0
  1 20  1  0
  1 21  1  0
  2 22  1  0
  2 23  1  0
  3 24  1  0
  3 25  1  0
  4 26  1  0
  5 27  1  0
  5 28  1  0
  6 29  1  0
  6 30  1  0
  7 31  1  0
  7 32  1  0
  7 33  1  0
  8 34  1  0
  8 35  1  0
  9 36  1  0
  9 37  1  0
 12 38  1  0
 13 39  1  0
 14 40  1  0
 16 41  1  0
 16 42  1  0
 17 43  1  0
 17 44  1  0
 17 45  1  0
 18 46  1  0
M  CHG  1   4   1
M  END
>  <UniqueID>  (12) 
9

>  <SMILES>  (12) 
CCC[NH+](CCC)CCOc1cccc(CC)c1

>  <Energy>  (12) 
42.79815927310779

>  <Genealogy>  (12) 
CCC[NH+](CCC)CCOc1cccc(CC)c1 (protonated)
CCC[NH+](CCC)CCOc1cccc(CC)c1 (3D coordinates assigned)
CCC[NH+](CCC)CCOc1cccc(CC)c1 (optimized conformer: 42.79815927310779 kcal/mol)

>  <smiles>  (12) 
CCCN(CCC)CCOc1cccc(CC)c1

>  <score_type>  (12) 
oracle

>  <origin>  (12) 
adg

>  <m_score__min__energy>  (12) 
-5

>  <m_primary>  (12) 
energy

$$$$
12:0
     RDKit          3D

 54 57  0  0  0  0  0  0  0  0999 V2000
   -3.3600   20.4780  -33.4680 C   0  0  0  0  0  0  0  0  0  0  0  0
   -4.6530   20.9800  -32.8980 C   0  0  0  0  0  0  0  0  0  0  0  0
   -4.6990   22.2260  -32.2650 C   0  0  0  0  0  0  0  0  0  0  0  0
   -5.9120   22.7270  -31.7710 C   0  0  0  0  0  0  0  0  0  0  0  0
   -5.9220   24.0920  -31.1160 C   0  0  0  0  0  0  0  0  0  0  0  0
   -4.5920   24.5320  -30.8340 O   0  0  0  0  0  0  0  0  0  0  0  0
   -3.7840   24.0660  -29.7850 C   0  0  0  0  0  0  0  0  0  0  0  0
   -4.2110   24.0500  -28.4440 C   0  0  0  0  0  0  0  0  0  0  0  0
   -3.3650   23.5700  -27.4400 C   0  0  0  0  0  0  0  0  0  0  0  0
   -2.0780   23.1140  -27.7580 C   0  0  0  0  0  0  0  0  0  0  0  0
   -1.0090   22.5150  -26.4890 S   0  0  0  0  0  0  0  0  0  0  0  0
    0.3070   22.1250  -27.1030 O   0  0  0  0  0  0  0  0  0  0  0  0
   -1.6130   21.2820  -25.8750 O   0  0  0  0  0  0  0  0  0  0  0  0
   -0.7380   23.7050  -25.2350 N   0  0  0  0  0  0  0  0  0  0  0  0
   -1.4690   24.9670  -25.4720 C   0  0  0  0  0  0  0  0  0  0  0  0
   -0.7070   25.9830  -26.3480 C   0  0  0  0  0  0  0  0  0  0  0  0
    0.8180   25.9540  -26.1590 C   0  0  0  0  0  0  0  0  0  0  0  0
    1.2300   25.2630  -24.8590 C   0  0  1  0  0  0  0  0  0  0  0  0
    0.7490   25.9680  -23.7420 O   0  0  0  0  0  0  0  0  0  0  0  0
    0.6890   23.8230  -24.8470 C   0  0  0  0  0  0  0  0  0  0  0  0
   -1.6540   23.1240  -29.0930 C   0  0  0  0  0  0  0  0  0  0  0  0
   -2.5000   23.6040  -30.0960 C   0  0  0  0  0  0  0  0  0  0  0  0
   -7.0830   21.9420  -31.9060 C   0  0  0  0  0  0  0  0  0  0  0  0
   -8.3350   22.3570  -31.4000 C   0  0  0  0  0  0  0  0  0  0  0  0
   -9.4680   21.5570  -31.5700 C   0  0  0  0  0  0  0  0  0  0  0  0
   -9.3740   20.3370  -32.2370 C   0  0  0  0  0  0  0  0  0  0  0  0
   -8.1450   19.9040  -32.7360 C   0  0  0  0  0  0  0  0  0  0  0  0
   -6.9940   20.6930  -32.5730 C   0  0  0  0  0  0  0  0  0  0  0  0
   -5.7970   20.2560  -33.0550 N   0  0  0  0  0  0  0  0  0  0  0  0
   -2.6764   20.2126  -32.6481 H   0  0  0  0  0  0  0  0  0  0  0  0
   -3.5526   19.5893  -34.0870 H   0  0  0  0  0  0  0  0  0  0  0  0
   -2.9025   21.2638  -34.0870 H   0  0  0  0  0  0  0  0  0  0  0  0
   -3.7779   22.8169  -32.1539 H   0  0  0  0  0  0  0  0  0  0  0  0
   -6.4039   24.8128  -31.7930 H   0  0  0  0  0  0  0  0  0  0  0  0
   -6.4777   24.0234  -30.1692 H   0  0  0  0  0  0  0  0  0  0  0  0
   -5.2151   24.4169  -28.1848 H   0  0  0  0  0  0  0  0  0  0  0  0
   -3.7106   23.5500  -26.3959 H   0  0  0  0  0  0  0  0  0  0  0  0
   -2.4200   24.7268  -25.9699 H   0  0  0  0  0  0  0  0  0  0  0  0
   -1.6108   25.4401  -24.4891 H   0  0  0  0  0  0  0  0  0  0  0  0
   -0.9287   25.7644  -27.4030 H   0  0  0  0  0  0  0  0  0  0  0  0
   -1.0460   26.9836  -26.0415 H   0  0  0  0  0  0  0  0  0  0  0  0
    1.2688   25.4139  -27.0046 H   0  0  0  0  0  0  0  0  0  0  0  0
    1.1705   26.9949  -26.1124 H   0  0  0  0  0  0  0  0  0  0  0  0
    2.3285   25.2431  -24.8043 H   0  0  0  0  0  0  0  0  0  0  0  0
    0.6740   25.3110  -23.0000 H   0  0  0  0  0  0  0  0  0  0  0  0
    1.2878   23.2239  -25.5489 H   0  0  0  0  0  0  0  0  0  0  0  0
    0.7644   23.4662  -23.8092 H   0  0  0  0  0  0  0  0  0  0  0  0
   -0.6516   22.7527  -29.3526 H   0  0  0  0  0  0  0  0  0  0  0  0
   -2.1536   23.6189  -31.1399 H   0  0  0  0  0  0  0  0  0  0  0  0
   -8.4185   23.3165  -30.8685 H   0  0  0  0  0  0  0  0  0  0  0  0
  -10.4387   21.8918  -31.1755 H   0  0  0  0  0  0  0  0  0  0  0  0
  -10.2707   19.7140  -32.3704 H   0  0  0  0  0  0  0  0  0  0  0  0
   -8.0769   18.9393  -33.2601 H   0  0  0  0  0  0  0  0  0  0  0  0
   -5.7470   19.3380  -33.5540 H   0  0  0  0  0  0  0  0  0  0  0  0
  1  2  1  0
  2  3  2  0
  3  4  1  0
  4  5  1  0
  5  6  1  0
  6  7  1  0
  7  8  2  0
  8  9  1  0
  9 10  2  0
 10 11  1  0
 11 12  2  0
 11 13  2  0
 11 14  1  0
 14 15  1  0
 15 16  1  0
 16 17  1  0
 17 18  1  0
 18 19  1  0
 18 20  1  0
 10 21  1  0
 21 22  2  0
  4 23  2  0
 23 24  1  0
 24 25  2  0
 25 26  1  0
 26 27  2  0
 27 28  1  0
 28 29  2  0
 29  2  1  0
 22  7  1  0
 28 23  1  0
 20 14  1  0
  1 30  1  0
  1 31  1  0
  1 32  1  0
  3 33  1  0
  5 34  1  0
  5 35  1  0
  8 36  1  0
  9 37  1  0
 15 38  1  0
 15 39  1  0
 16 40  1  0
 16 41  1  0
 17 42  1  0
 17 43  1  0
 18 44  1  1
 19 45  1  0
 20 46  1  0
 20 47  1  0
 21 48  1  0
 22 49  1  0
 24 50  1  0
 25 51  1  0
 26 52  1  0
 27 53  1  0
 29 54  1  0
M  CHG  1  29   1
M  END
>  <UniqueID>  (13) 
10

>  <SMILES>  (13) 
Cc1cc(COc2ccc(S(=O)(=O)N3CCC[C@@H](O)C3)cc2)c2ccccc2[nH+]1

>  <Energy>  (13) 
70.13306084920124

>  <Genealogy>  (13) 
Cc1cc(COc2ccc(S(=O)(=O)N3CCCC(O)C3)cc2)c2ccccc2[nH+]1 (protonated)
Cc1cc(COc2ccc(S(=O)(=O)N3CCC[C@@H](O)C3)cc2)c2ccccc2[nH+]1 (chirality)
Cc1cc(COc2ccc(S(=O)(=O)N3CCC[C@@H](O)C3)cc2)c2ccccc2[nH+]1 (3D coordinates assigned)
Cc1cc(COc2ccc(S(=O)(=O)N3CCC[C@@H](O)C3)cc2)c2ccccc2[nH+]1 (nonaromatic ring conformer: 70.13306084920124 kcal/mol)

>  <smiles>  (13) 
Cc1cc(COc2ccc(S(=O)(=O)N3CCCC(O)C3)cc2)c2ccccc2n1

>  <score_type>  (13) 
oracle

>  <origin>  (13) 
adg

>  <m_score__min__energy>  (13) 
-10.07

>  <m_primary>  (13) 
energy

$$$$
13:0
     RDKit          3D

 60 62  0  0  0  0  0  0  0  0999 V2000
   -1.9800   23.3200  -29.8170 C   0  0  0  0  0  0  0  0  0  0  0  0
   -2.7530   24.5470  -29.3560 C   0  0  0  0  0  0  0  0  0  0  0  0
   -3.4890   25.1100  -30.4790 N   0  0  0  0  0  0  0  0  0  0  0  0
   -4.9170   25.1620  -30.6270 C   0  0  0  0  0  0  0  0  0  0  0  0
   -5.4640   26.2960  -30.6510 O   0  0  0  0  0  0  0  0  0  0  0  0
   -5.7680   23.9490  -30.7430 C   0  0  0  0  0  0  0  0  0  0  0  0
   -6.9880   23.8590  -30.0540 C   0  0  0  0  0  0  0  0  0  0  0  0
   -7.7570   22.7470  -30.1860 N   0  0  0  0  0  0  0  0  0  0  0  0
   -7.3730   21.7140  -30.9810 C   0  0  0  0  0  0  0  0  0  0  0  0
   -6.1590   21.7930  -31.6830 C   0  0  0  0  0  0  0  0  0  0  0  0
   -5.6860   20.6920  -32.5590 C   0  0  0  0  0  0  0  0  0  0  0  0
   -6.5620   19.6510  -32.9100 C   0  0  0  0  0  0  0  0  0  0  0  0
   -6.1320   18.6070  -33.7310 C   0  0  0  0  0  0  0  0  0  0  0  0
   -4.8170   18.5690  -34.2060 C   0  0  0  0  0  0  0  0  0  0  0  0
   -4.4410   17.4930  -35.0270 O   0  0  0  0  0  0  0  0  0  0  0  0
   -3.1180   16.9690  -35.1530 C   0  0  0  0  0  0  0  0  0  0  0  0
   -2.4190   16.9390  -33.7900 C   0  0  0  0  0  0  0  0  0  0  0  0
   -1.1200   17.7620  -33.8060 C   0  0  0  0  0  0  0  0  0  0  0  0
   -0.7000   18.1630  -32.4420 N   0  0  0  0  0  0  0  0  0  0  0  0
    0.7820   18.2550  -32.3210 C   0  0  0  0  0  0  0  0  0  0  0  0
    1.3000   19.6750  -31.9990 C   0  0  0  0  0  0  0  0  0  0  0  0
    0.5980   20.7220  -32.7700 N   0  0  0  0  0  0  0  0  0  0  0  0
    1.0690   20.8220  -34.1700 C   0  0  0  0  0  0  0  0  0  0  0  0
   -0.1120   20.9560  -35.1300 C   0  0  0  0  0  0  0  0  0  0  0  0
   -0.8820   20.6470  -32.6530 C   0  0  0  0  0  0  0  0  0  0  0  0
   -1.3810   19.3760  -31.9410 C   0  0  0  0  0  0  0  0  0  0  0  0
   -3.9310   19.6040  -33.8510 C   0  0  0  0  0  0  0  0  0  0  0  0
   -4.3630   20.6540  -33.0330 C   0  0  0  0  0  0  0  0  0  0  0  0
   -5.3960   22.9100  -31.5360 N   0  0  0  0  0  0  0  0  0  0  0  0
   -1.6263   22.7585  -28.9397 H   0  0  0  0  0  0  0  0  0  0  0  0
   -2.6374   22.6785  -30.4223 H   0  0  0  0  0  0  0  0  0  0  0  0
   -1.1176   23.6360  -30.4223 H   0  0  0  0  0  0  0  0  0  0  0  0
   -3.4589   24.2586  -28.5632 H   0  0  0  0  0  0  0  0  0  0  0  0
   -2.0493   25.2976  -28.9668 H   0  0  0  0  0  0  0  0  0  0  0  0
   -7.3200   24.6862  -29.4094 H   0  0  0  0  0  0  0  0  0  0  0  0
   -8.6540   22.6800  -29.6580 H   0  0  0  0  0  0  0  0  0  0  0  0
   -8.0090   20.8214  -31.0742 H   0  0  0  0  0  0  0  0  0  0  0  0
   -7.5959   19.6587  -32.5345 H   0  0  0  0  0  0  0  0  0  0  0  0
   -6.8342   17.8065  -34.0070 H   0  0  0  0  0  0  0  0  0  0  0  0
   -3.1707   15.9465  -35.5550 H   0  0  0  0  0  0  0  0  0  0  0  0
   -2.5433   17.6154  -35.8326 H   0  0  0  0  0  0  0  0  0  0  0  0
   -3.0972   17.3559  -33.0310 H   0  0  0  0  0  0  0  0  0  0  0  0
   -2.1639   15.8951  -33.5552 H   0  0  0  0  0  0  0  0  0  0  0  0
   -0.3216   17.1566  -34.2599 H   0  0  0  0  0  0  0  0  0  0  0  0
   -1.3047   18.6772  -34.3876 H   0  0  0  0  0  0  0  0  0  0  0  0
    1.1060   17.5781  -31.5167 H   0  0  0  0  0  0  0  0  0  0  0  0
    1.1988   17.9790  -33.3009 H   0  0  0  0  0  0  0  0  0  0  0  0
    1.1536   19.8690  -30.9262 H   0  0  0  0  0  0  0  0  0  0  0  0
    2.3640   19.7132  -32.2755 H   0  0  0  0  0  0  0  0  0  0  0  0
    1.7176   21.7047  -34.2704 H   0  0  0  0  0  0  0  0  0  0  0  0
    1.6264   19.9076  -34.4213 H   0  0  0  0  0  0  0  0  0  0  0  0
   -1.0429   21.0616  -34.5536 H   0  0  0  0  0  0  0  0  0  0  0  0
    0.0296   21.8438  -35.7638 H   0  0  0  0  0  0  0  0  0  0  0  0
   -0.1729   20.0590  -35.7638 H   0  0  0  0  0  0  0  0  0  0  0  0
   -1.2307   21.5227  -32.0860 H   0  0  0  0  0  0  0  0  0  0  0  0
   -1.2854   20.6228  -33.6761 H   0  0  0  0  0  0  0  0  0  0  0  0
   -1.1879   19.4730  -30.8624 H   0  0  0  0  0  0  0  0  0  0  0  0
   -2.4574   19.2716  -32.1420 H   0  0  0  0  0  0  0  0  0  0  0  0
   -2.8943   19.5872  -34.2184 H   0  0  0  0  0  0  0  0  0  0  0  0
   -3.6619   21.4560  -32.7587 H   0  0  0  0  0  0  0  0  0  0  0  0
  1  2  1  0
  2  3  1  0
  3  4  1  0
  4  5  2  0
  4  6  1  0
  6  7  2  0
  7  8  1  0
  8  9  2  0
  9 10  1  0
 10 11  1  0
 11 12  2  0
 12 13  1  0
 13 14  2  0
 14 15  1  0
 15 16  1  0
 16 17  1  0
 17 18  1  0
 18 19  1  0
 19 20  1  0
 20 21  1  0
 21 22  1  0
 22 23  1  0
 23 24  1  0
 22 25  1  0
 25 26  1  0
 14 27  1  0
 27 28  2  0
 10 29  2  0
 29  6  1  0
 28 11  1  0
 26 19  1  0
  1 30  1  0
  1 31  1  0
  1 32  1  0
  2 33  1  0
  2 34  1  0
  7 35  1  0
  8 36  1  0
  9 37  1  0
 12 38  1  0
 13 39  1  0
 16 40  1  0
 16 41  1  0
 17 42  1  0
 17 43  1  0
 18 44  1  0
 18 45  1  0
 20 46  1  0
 20 47  1  0
 21 48  1  0
 21 49  1  0
 23 50  1  0
 23 51  1  0
 24 52  1  0
 24 53  1  0
 24 54  1  0
 25 55  1  0
 25 56  1  0
 26 57  1  0
 26 58  1  0
 27 59  1  0
 28 60  1  0
M  CHG  2   3  -1   8   1
M  END
>  <UniqueID>  (14) 
11

>  <SMILES>  (14) 
CC[N-]C(=O)c1c[nH+]cc(-c2ccc(OCCCN3CCN(CC)CC3)cc2)n1

>  <Energy>  (14) 
76.00171448985436

>  <Genealogy>  (14) 
CC[N-]C(=O)c1c[nH+]cc(-c2ccc(OCCCN3CCN(CC)CC3)cc2)n1 (protonated)
CC[N-]C(=O)c1c[nH+]cc(-c2ccc(OCCCN3CCN(CC)CC3)cc2)n1 (3D coordinates assigned)
CC[N-]C(=O)c1c[nH+]cc(-c2ccc(OCCCN3CCN(CC)CC3)cc2)n1 (nonaromatic ring conformer: 76.00171448985436 kcal/mol)

>  <smiles>  (14) 
CCNC(=O)c1cncc(-c2ccc(OCCCN3CCN(CC)CC3)cc2)n1

>  <score_type>  (14) 
oracle

>  <origin>  (14) 
adg

>  <m_score__min__energy>  (14) 
-8.0899999999999999

>  <m_primary>  (14) 
energy

$$$$
14:0
     RDKit          3D

 61 64  0  0  0  0  0  0  0  0999 V2000
    0.4565   22.9329  -29.1233 H   0  0  0  0  0  0  0  0  0  0  0  0
   -0.0210   22.2430  -28.4120 C   0  0  0  0  0  0  0  0  0  0  0  0
   -0.6510   21.1630  -28.9180 C   0  0  0  0  0  0  0  0  0  0  0  0
   -1.7500   21.3450  -29.9000 C   0  0  0  0  0  0  0  0  0  0  0  0
   -1.4570   21.6310  -31.2440 C   0  0  0  0  0  0  0  0  0  0  0  0
   -0.4092   21.6885  -31.5740 H   0  0  0  0  0  0  0  0  0  0  0  0
   -2.4870   21.8430  -32.1650 C   0  0  0  0  0  0  0  0  0  0  0  0
   -2.2445   22.0457  -33.2186 H   0  0  0  0  0  0  0  0  0  0  0  0
   -3.8270   21.7990  -31.7550 C   0  0  0  0  0  0  0  0  0  0  0  0
   -4.8720   22.0220  -32.7170 N   0  0  0  0  0  0  0  0  0  0  0  0
   -4.6040   22.3320  -33.6790 H   0  0  0  0  0  0  0  0  0  0  0  0
   -6.2720   21.9540  -32.3930 C   0  0  0  0  0  0  0  0  0  0  0  0
   -6.9880   23.1420  -32.1720 C   0  0  0  0  0  0  0  0  0  0  0  0
   -6.4634   24.1081  -32.2083 H   0  0  0  0  0  0  0  0  0  0  0  0
   -8.3570   23.1100  -31.9070 C   0  0  0  0  0  0  0  0  0  0  0  0
   -8.9026   24.0485  -31.7296 H   0  0  0  0  0  0  0  0  0  0  0  0
   -9.0370   21.8930  -31.8660 C   0  0  0  0  0  0  0  0  0  0  0  0
  -10.1178   21.8756  -31.6619 H   0  0  0  0  0  0  0  0  0  0  0  0
   -8.3480   20.6920  -32.0840 C   0  0  0  0  0  0  0  0  0  0  0  0
   -9.0330   19.4680  -32.0330 C   0  0  0  0  0  0  0  0  0  0  0  0
  -10.1147   19.4540  -31.8337 H   0  0  0  0  0  0  0  0  0  0  0  0
   -8.3480   18.2680  -32.2340 C   0  0  0  0  0  0  0  0  0  0  0  0
   -8.8915   17.3124  -32.1960 H   0  0  0  0  0  0  0  0  0  0  0  0
   -6.9750   18.2790  -32.4830 C   0  0  0  0  0  0  0  0  0  0  0  0
   -6.4386   17.3306  -32.6344 H   0  0  0  0  0  0  0  0  0  0  0  0
   -6.2780   19.4890  -32.5410 C   0  0  0  0  0  0  0  0  0  0  0  0
   -5.1953   19.4865  -32.7356 H   0  0  0  0  0  0  0  0  0  0  0  0
   -6.9520   20.7130  -32.3520 C   0  0  0  0  0  0  0  0  0  0  0  0
   -4.1230   21.5050  -30.4140 C   0  0  0  0  0  0  0  0  0  0  0  0
   -5.1713   21.4485  -30.0857 H   0  0  0  0  0  0  0  0  0  0  0  0
   -3.0960   21.2840  -29.4950 C   0  0  0  0  0  0  0  0  0  0  0  0
   -3.3408   21.0604  -28.4462 H   0  0  0  0  0  0  0  0  0  0  0  0
   -0.2530   19.7800  -28.5670 C   0  0  0  0  0  0  0  0  0  0  0  0
    0.6550   19.0860  -29.3770 C   0  0  0  0  0  0  0  0  0  0  0  0
    1.0860   19.5749  -30.2631 H   0  0  0  0  0  0  0  0  0  0  0  0
    1.0130   17.7760  -29.0610 C   0  0  0  0  0  0  0  0  0  0  0  0
    1.7374   17.2321  -29.6850 H   0  0  0  0  0  0  0  0  0  0  0  0
    0.4430   17.1620  -27.9450 C   0  0  0  0  0  0  0  0  0  0  0  0
    0.7231   16.1310  -27.6833 H   0  0  0  0  0  0  0  0  0  0  0  0
   -0.4580   17.8350  -27.1800 N   0  0  0  0  0  0  0  0  0  0  0  0
   -0.8860   17.3560  -26.3560 H   0  0  0  0  0  0  0  0  0  0  0  0
   -0.8230   19.1130  -27.4700 C   0  0  0  0  0  0  0  0  0  0  0  0
   -1.5672   19.6260  -26.8431 H   0  0  0  0  0  0  0  0  0  0  0  0
    0.0780   22.5760  -26.9440 C   0  0  0  0  0  0  0  0  0  0  0  0
    0.7374   23.4480  -26.8226 H   0  0  0  0  0  0  0  0  0  0  0  0
    0.4801   21.6936  -26.4247 H   0  0  0  0  0  0  0  0  0  0  0  0
   -1.2920   22.9020  -26.3270 C   0  0  0  0  0  0  0  0  0  0  0  0
   -1.2859   22.6011  -25.2690 H   0  0  0  0  0  0  0  0  0  0  0  0
   -2.0591   22.3522  -26.8920 H   0  0  0  0  0  0  0  0  0  0  0  0
   -1.6200   24.4020  -26.4150 C   0  0  0  0  0  0  0  0  0  0  0  0
   -0.9405   24.8674  -27.1441 H   0  0  0  0  0  0  0  0  0  0  0  0
   -1.4940   24.8266  -25.4081 H   0  0  0  0  0  0  0  0  0  0  0  0
   -3.0730   24.6750  -26.8530 C   0  0  0  0  0  0  0  0  0  0  0  0
   -3.2283   25.7636  -26.8815 H   0  0  0  0  0  0  0  0  0  0  0  0
   -3.7276   24.1763  -26.1231 H   0  0  0  0  0  0  0  0  0  0  0  0
   -3.4210   24.0990  -28.2350 C   0  0  0  0  0  0  0  0  0  0  0  0
   -4.5157   24.0581  -28.3344 H   0  0  0  0  0  0  0  0  0  0  0  0
   -2.9705   23.0977  -28.3023 H   0  0  0  0  0  0  0  0  0  0  0  0
   -2.8680   24.9220  -29.3560 C   0  0  0  0  0  0  0  0  0  0  0  0
   -1.6660   25.2970  -29.3330 O   0  0  0  0  0  0  0  0  0  0  0  0
   -3.6730   25.2660  -30.4340 O   0  0  0  0  0  0  0  0  0  0  0  0
  1  2  1  0
  2  3  2  0
  3  4  1  0
  4  5  2  0
  5  6  1  0
  5  7  1  0
  7  8  1  0
  7  9  2  0
  9 10  1  0
 10 11  1  0
 10 12  1  0
 12 13  2  0
 13 14  1  0
 13 15  1  0
 15 16  1  0
 15 17  2  0
 17 18  1  0
 17 19  1  0
 19 20  2  0
 20 21  1  0
 20 22  1  0
 22 23  1  0
 22 24  2  0
 24 25  1  0
 24 26  1  0
 26 27  1  0
 26 28  2  0
  9 29  1  0
 29 30  1  0
 29 31  2  0
 31 32  1  0
  3 33  1  0
 33 34  2  0
 34 35  1  0
 34 36  1  0
 36 37  1  0
 36 38  2  0
 38 39  1  0
 38 40  1  0
 40 41  1  0
 40 42  2  0
 42 43  1  0
  2 44  1  0
 44 45  1  0
 44 46  1  0
 44 47  1  0
 47 48  1  0
 47 49  1  0
 47 50  1  0
 50 51  1  0
 50 52  1  0
 50 53  1  0
 53 54  1  0
 53 55  1  0
 53 56  1  0
 56 57  1  0
 56 58  1  0
 56 59  1  0
 59 60  2  0
 59 61  1  0
 31  4  1  0
 42 33  1  0
 28 12  1  0
 28 19  1  0
M  CHG  2  40   1  61  -1
M  END
>  <UniqueID>  (15) 
12

>  <SMILES>  (15) 
O=C([O-])CCCCC/C=C(/c1ccc(Nc2cccc3ccccc23)cc1)c1ccc[nH+]c1

>  <Energy>  (15) 
78.56960512137378

>  <Genealogy>  (15) 
O=C([O-])CCCCCC=C(c1ccc(Nc2cccc3ccccc23)cc1)c1ccc[nH+]c1 (protonated)
O=C([O-])CCCCC/C=C(/c1ccc(Nc2cccc3ccccc23)cc1)c1ccc[nH+]c1 (cis-trans isomerization)
O=C([O-])CCCCC/C=C(/c1ccc(Nc2cccc3ccccc23)cc1)c1ccc[nH+]c1 (3D coordinates assigned)
O=C([O-])CCCCC/C=C(/c1ccc(Nc2cccc3ccccc23)cc1)c1ccc[nH+]c1 (optimized conformer: 78.56960512137378 kcal/mol)

>  <smiles>  (15) 
O=C(O)CCCCCC=C(c1ccc(Nc2cccc3ccccc23)cc1)c1cccnc1

>  <score_type>  (15) 
oracle

>  <origin>  (15) 
adg

>  <m_score__min__energy>  (15) 
-12.880000000000001

>  <m_primary>  (15) 
energy

$$$$
15:0
     RDKit          3D

 49 51  0  0  0  0  0  0  0  0999 V2000
   -1.9930   25.9690  -25.2530 C   0  0  0  0  0  0  0  0  0  0  0  0
   -1.6650   25.2510  -26.5370 C   0  0  0  0  0  0  0  0  0  0  0  0
   -0.3280   25.2110  -26.9660 C   0  0  0  0  0  0  0  0  0  0  0  0
    0.0200   24.5570  -28.1450 C   0  0  0  0  0  0  0  0  0  0  0  0
   -0.9610   23.9420  -28.9200 C   0  0  0  0  0  0  0  0  0  0  0  0
   -2.3030   23.9630  -28.5170 C   0  0  0  0  0  0  0  0  0  0  0  0
   -3.2910   23.3520  -29.3610 N   0  0  0  0  0  0  0  0  0  0  0  0
   -3.5570   21.9210  -29.4590 C   0  0  0  0  0  0  0  0  0  0  0  0
   -4.6210   21.7660  -30.5770 C   0  0  0  0  0  0  0  0  0  0  0  0
   -4.8030   23.1020  -31.1350 N   0  0  0  0  0  0  0  0  0  0  0  0
   -5.7360   23.4530  -32.2020 C   0  0  0  0  0  0  0  0  0  0  0  0
   -7.1830   23.1620  -31.7570 C   0  0  0  0  0  0  0  0  0  0  0  0
   -7.5780   21.7390  -31.8550 N   0  0  0  0  0  0  0  0  0  0  0  0
   -6.8530   20.9900  -32.8960 C   0  0  0  0  0  0  0  0  0  0  0  0
   -7.0010   19.4750  -32.6610 C   0  0  0  0  0  0  0  0  0  0  0  0
   -8.3000   19.1180  -31.9160 C   0  0  0  0  0  0  0  0  0  0  0  0
   -9.4290   20.0910  -32.2720 C   0  0  0  0  0  0  0  0  0  0  0  0
   -9.0450   21.5490  -31.9390 C   0  0  0  0  0  0  0  0  0  0  0  0
   -4.0150   24.0020  -30.3850 C   0  0  0  0  0  0  0  0  0  0  0  0
   -3.9510   25.2390  -30.6160 O   0  0  0  0  0  0  0  0  0  0  0  0
   -2.6630   24.5860  -27.2950 C   0  0  0  0  0  0  0  0  0  0  0  0
   -4.0980   24.5610  -26.8190 C   0  0  0  0  0  0  0  0  0  0  0  0
   -1.7057   25.3401  -24.3975 H   0  0  0  0  0  0  0  0  0  0  0  0
   -1.4394   26.9187  -25.2122 H   0  0  0  0  0  0  0  0  0  0  0  0
   -3.0733   26.1723  -25.2122 H   0  0  0  0  0  0  0  0  0  0  0  0
    0.4518   25.7012  -26.3646 H   0  0  0  0  0  0  0  0  0  0  0  0
    1.0719   24.5258  -28.4653 H   0  0  0  0  0  0  0  0  0  0  0  0
   -0.6799   23.4361  -29.8554 H   0  0  0  0  0  0  0  0  0  0  0  0
   -2.6385   21.3778  -29.7260 H   0  0  0  0  0  0  0  0  0  0  0  0
   -3.9105   21.5079  -28.5028 H   0  0  0  0  0  0  0  0  0  0  0  0
   -4.2648   21.0716  -31.3522 H   0  0  0  0  0  0  0  0  0  0  0  0
   -5.5643   21.3565  -30.1865 H   0  0  0  0  0  0  0  0  0  0  0  0
   -5.6355   24.5231  -32.4358 H   0  0  0  0  0  0  0  0  0  0  0  0
   -5.5057   22.8519  -33.0940 H   0  0  0  0  0  0  0  0  0  0  0  0
   -7.2907   23.4776  -30.7088 H   0  0  0  0  0  0  0  0  0  0  0  0
   -7.8401   23.7182  -32.4418 H   0  0  0  0  0  0  0  0  0  0  0  0
   -7.2659   21.2468  -33.8827 H   0  0  0  0  0  0  0  0  0  0  0  0
   -5.7868   21.2575  -32.8542 H   0  0  0  0  0  0  0  0  0  0  0  0
   -7.0019   18.9653  -33.6358 H   0  0  0  0  0  0  0  0  0  0  0  0
   -6.1567   19.1498  -32.0353 H   0  0  0  0  0  0  0  0  0  0  0  0
   -8.6043   18.0982  -32.1942 H   0  0  0  0  0  0  0  0  0  0  0  0
   -8.1107   19.1852  -30.8345 H   0  0  0  0  0  0  0  0  0  0  0  0
   -9.6410   20.0141  -33.3486 H   0  0  0  0  0  0  0  0  0  0  0  0
  -10.3156   19.8233  -31.6784 H   0  0  0  0  0  0  0  0  0  0  0  0
   -9.4426   22.2078  -32.7250 H   0  0  0  0  0  0  0  0  0  0  0  0
   -9.4728   21.7934  -30.9555 H   0  0  0  0  0  0  0  0  0  0  0  0
   -4.1195   24.5606  -25.7192 H   0  0  0  0  0  0  0  0  0  0  0  0
   -4.6248   25.4501  -27.1958 H   0  0  0  0  0  0  0  0  0  0  0  0
   -4.5935   23.6541  -27.1958 H   0  0  0  0  0  0  0  0  0  0  0  0
  1  2  1  0
  2  3  2  0
  3  4  1  0
  4  5  2  0
  5  6  1  0
  6  7  1  0
  7  8  1  0
  8  9  1  0
  9 10  1  0
 10 11  1  0
 11 12  1  0
 12 13  1  0
 13 14  1  0
 14 15  1  0
 15 16  1  0
 16 17  1  0
 17 18  1  0
 10 19  1  0
 19 20  2  0
  6 21  2  0
 21 22  1  0
 21  2  1  0
 19  7  1  0
 18 13  1  0
  1 23  1  0
  1 24  1  0
  1 25  1  0
  3 26  1  0
  4 27  1  0
  5 28  1  0
  8 29  1  0
  8 30  1  0
  9 31  1  0
  9 32  1  0
 11 33  1  0
 11 34  1  0
 12 35  1  0
 12 36  1  0
 14 37  1  0
 14 38  1  0
 15 39  1  0
 15 40  1  0
 16 41  1  0
 16 42  1  0
 17 43  1  0
 17 44  1  0
 18 45  1  0
 18 46  1  0
 22 47  1  0
 22 48  1  0
 22 49  1  0
M  END
>  <UniqueID>  (16) 
13

>  <SMILES>  (16) 
Cc1cccc(N2CCN(CCN3CCCCC3)C2=O)c1C

>  <Energy>  (16) 
74.04225599766153

>  <Genealogy>  (16) 
Cc1cccc(N2CCN(CCN3CCCCC3)C2=O)c1C (3D coordinates assigned)
Cc1cccc(N2CCN(CCN3CCCCC3)C2=O)c1C (nonaromatic ring conformer: 74.04225599766153 kcal/mol)

>  <smiles>  (16) 
Cc1cccc(N2CCN(CCN3CCCCC3)C2=O)c1C

>  <score_type>  (16) 
oracle

>  <origin>  (16) 
adg

>  <m_score__min__energy>  (16) 
-8.3699999999999992

>  <m_primary>  (16) 
energy

$$$$
16:0
     RDKit          3D

 47 49  0  0  0  0  0  0  0  0999 V2000
    1.5240   21.6630  -35.0760 C   0  0  0  0  0  0  0  0  0  0  0  0
    0.9460   21.3530  -33.8120 O   0  0  0  0  0  0  0  0  0  0  0  0
   -0.3880   20.9630  -33.6240 C   0  0  0  0  0  0  0  0  0  0  0  0
   -0.8640   19.8650  -34.3450 C   0  0  0  0  0  0  0  0  0  0  0  0
   -2.1850   19.4390  -34.2030 C   0  0  0  0  0  0  0  0  0  0  0  0
   -3.0580   20.1070  -33.3320 C   0  0  0  0  0  0  0  0  0  0  0  0
   -4.3500   19.6880  -33.2030 N   0  0  0  0  0  0  0  0  0  0  0  0
   -5.2300   20.3090  -32.3630 C   0  0  0  0  0  0  0  0  0  0  0  0
   -6.6270   19.8220  -32.2480 C   0  0  0  0  0  0  0  0  0  0  0  0
   -6.8890   18.4500  -32.0760 C   0  0  0  0  0  0  0  0  0  0  0  0
   -8.2050   17.9900  -31.9690 C   0  0  0  0  0  0  0  0  0  0  0  0
   -9.2710   18.8900  -32.0360 C   0  0  0  0  0  0  0  0  0  0  0  0
   -9.0220   20.2540  -32.2090 C   0  0  0  0  0  0  0  0  0  0  0  0
   -7.7080   20.7200  -32.3140 C   0  0  0  0  0  0  0  0  0  0  0  0
   -4.8040   21.4120  -31.6100 C   0  0  0  0  0  0  0  0  0  0  0  0
   -3.4980   21.8930  -31.7410 C   0  0  0  0  0  0  0  0  0  0  0  0
   -3.0870   23.0420  -30.9130 C   0  0  0  0  0  0  0  0  0  0  0  0
   -2.0270   22.9510  -30.2420 O   0  0  0  0  0  0  0  0  0  0  0  0
   -3.8510   24.2560  -30.8380 N   0  0  0  0  0  0  0  0  0  0  0  0
   -4.9600   24.5920  -29.9380 C   0  0  2  0  0  0  0  0  0  0  0  0
   -4.5360   24.4730  -28.4670 C   0  0  0  0  0  0  0  0  0  0  0  0
   -6.2190   23.7600  -30.2750 C   0  0  0  0  0  0  0  0  0  0  0  0
   -6.8580   24.1300  -31.6180 C   0  0  0  0  0  0  0  0  0  0  0  0
   -8.0980   23.5330  -31.7520 F   0  0  0  0  0  0  0  0  0  0  0  0
   -6.0450   23.7520  -32.6700 F   0  0  0  0  0  0  0  0  0  0  0  0
   -2.5930   21.2220  -32.5930 C   0  0  0  0  0  0  0  0  0  0  0  0
   -1.2550   21.6380  -32.7420 C   0  0  0  0  0  0  0  0  0  0  0  0
    2.4841   22.1779  -34.9238 H   0  0  0  0  0  0  0  0  0  0  0  0
    1.6917   20.7338  -35.6403 H   0  0  0  0  0  0  0  0  0  0  0  0
    0.8427   22.3168  -35.6403 H   0  0  0  0  0  0  0  0  0  0  0  0
   -0.1905   19.3310  -35.0315 H   0  0  0  0  0  0  0  0  0  0  0  0
   -2.5443   18.5730  -34.7783 H   0  0  0  0  0  0  0  0  0  0  0  0
   -4.6800   18.8790  -33.7770 H   0  0  0  0  0  0  0  0  0  0  0  0
   -6.0540   17.7357  -32.0255 H   0  0  0  0  0  0  0  0  0  0  0  0
   -8.4013   16.9164  -31.8317 H   0  0  0  0  0  0  0  0  0  0  0  0
  -10.3055   18.5254  -31.9527 H   0  0  0  0  0  0  0  0  0  0  0  0
   -9.8616   20.9627  -32.2627 H   0  0  0  0  0  0  0  0  0  0  0  0
   -7.5183   21.7951  -32.4490 H   0  0  0  0  0  0  0  0  0  0  0  0
   -5.5004   21.9011  -30.9130 H   0  0  0  0  0  0  0  0  0  0  0  0
   -5.2318   25.6461  -30.0961 H   0  0  0  0  0  0  0  0  0  0  0  0
   -5.3913   24.7131  -27.8183 H   0  0  0  0  0  0  0  0  0  0  0  0
   -4.1992   23.4456  -28.2645 H   0  0  0  0  0  0  0  0  0  0  0  0
   -3.7138   25.1751  -28.2645 H   0  0  0  0  0  0  0  0  0  0  0  0
   -5.9357   22.6976  -30.3057 H   0  0  0  0  0  0  0  0  0  0  0  0
   -6.9641   23.9721  -29.4941 H   0  0  0  0  0  0  0  0  0  0  0  0
   -6.9831   25.2227  -31.6391 H   0  0  0  0  0  0  0  0  0  0  0  0
   -0.8840   22.4975  -32.1645 H   0  0  0  0  0  0  0  0  0  0  0  0
  1  2  1  0
  2  3  1  0
  3  4  2  0
  4  5  1  0
  5  6  2  0
  6  7  1  0
  7  8  2  0
  8  9  1  0
  9 10  2  0
 10 11  1  0
 11 12  2  0
 12 13  1  0
 13 14  2  0
  8 15  1  0
 15 16  2  0
 16 17  1  0
 17 18  2  0
 17 19  1  0
 19 20  1  0
 20 21  1  0
 20 22  1  0
 22 23  1  0
 23 24  1  0
 23 25  1  0
 16 26  1  0
 26 27  2  0
 27  3  1  0
 26  6  1  0
 14  9  1  0
  1 28  1  0
  1 29  1  0
  1 30  1  0
  4 31  1  0
  5 32  1  0
  7 33  1  0
 10 34  1  0
 11 35  1  0
 12 36  1  0
 13 37  1  0
 14 38  1  0
 15 39  1  0
 20 40  1  6
 21 41  1  0
 21 42  1  0
 21 43  1  0
 22 44  1  0
 22 45  1  0
 23 46  1  0
 27 47  1  0
M  CHG  2   7   1  19  -1
M  END
>  <UniqueID>  (17) 
14

>  <SMILES>  (17) 
COc1ccc2[nH+]c(-c3ccccc3)cc(C(=O)[N-][C@H](C)CC(F)F)c2c1

>  <Energy>  (17) 
60.96384505683883

>  <Genealogy>  (17) 
COc1ccc2[nH+]c(-c3ccccc3)cc(C(=O)[N-]C(C)CC(F)F)c2c1 (protonated)
COc1ccc2[nH+]c(-c3ccccc3)cc(C(=O)[N-][C@H](C)CC(F)F)c2c1 (chirality)
COc1ccc2[nH+]c(-c3ccccc3)cc(C(=O)[N-][C@H](C)CC(F)F)c2c1 (3D coordinates assigned)
COc1ccc2[nH+]c(-c3ccccc3)cc(C(=O)[N-][C@H](C)CC(F)F)c2c1 (optimized conformer: 60.96384505683883 kcal/mol)

>  <smiles>  (17) 
COc1ccc2nc(-c3ccccc3)cc(C(=O)NC(C)CC(F)F)c2c1

>  <score_type>  (17) 
oracle

>  <origin>  (17) 
adg

>  <m_score__min__energy>  (17) 
-8.4900000000000002

>  <m_primary>  (17) 
energy

$$$$
17:0
     RDKit          3D

 49 50  0  0  0  0  0  0  0  0999 V2000
   -3.7460   19.9020  -33.0420 C   0  0  0  0  0  0  0  0  0  0  0  0
   -3.4330   21.2240  -32.4830 N   0  0  0  0  0  0  0  0  0  0  0  0
   -4.2900   22.2760  -33.0540 C   0  0  0  0  0  0  0  0  0  0  0  0
   -1.9870   21.5480  -32.5180 C   0  0  0  0  0  0  0  0  0  0  0  0
   -1.2580   21.4110  -31.1980 C   0  0  0  0  0  0  0  0  0  0  0  0
   -0.4450   20.4700  -31.0010 O   0  0  0  0  0  0  0  0  0  0  0  0
   -1.3240   22.4720  -30.2410 N   0  0  0  0  0  0  0  0  0  0  0  0
   -2.1090   22.5440  -29.2010 C   0  0  0  0  0  0  0  0  0  0  0  0
   -2.0560   21.5060  -28.0910 C   0  0  0  0  0  0  0  0  0  0  0  0
   -1.0270   21.8440  -26.9900 C   0  0  0  0  0  0  0  0  0  0  0  0
   -1.2130   23.2040  -26.2900 C   0  0  0  0  0  0  0  0  0  0  0  0
   -1.3190   24.4090  -27.2490 C   0  0  0  0  0  0  0  0  0  0  0  0
   -2.7050   24.6210  -27.8890 C   0  0  0  0  0  0  0  0  0  0  0  0
   -2.9470   23.7160  -29.0280 N   0  0  0  0  0  0  0  0  0  0  0  0
   -4.0290   23.9850  -29.9480 C   0  0  0  0  0  0  0  0  0  0  0  0
   -3.9110   24.9070  -30.7990 O   0  0  0  0  0  0  0  0  0  0  0  0
   -5.3190   23.2090  -29.9060 C   0  0  0  0  0  0  0  0  0  0  0  0
   -6.6230   24.0220  -30.8940 S   0  0  0  0  0  0  0  0  0  0  0  0
   -7.4790   22.5020  -31.3180 C   0  0  0  0  0  0  0  0  0  0  0  0
   -8.8470   22.5250  -31.6200 C   0  0  0  0  0  0  0  0  0  0  0  0
   -9.5120   21.3380  -31.9450 C   0  0  0  0  0  0  0  0  0  0  0  0
   -8.8110   20.1290  -31.9770 C   0  0  0  0  0  0  0  0  0  0  0  0
   -7.4420   20.1060  -31.6900 C   0  0  0  0  0  0  0  0  0  0  0  0
   -6.7760   21.2920  -31.3670 C   0  0  0  0  0  0  0  0  0  0  0  0
   -3.9150   19.1880  -32.2224 H   0  0  0  0  0  0  0  0  0  0  0  0
   -4.6526   19.9710  -33.6611 H   0  0  0  0  0  0  0  0  0  0  0  0
   -2.9047   19.5571  -33.6611 H   0  0  0  0  0  0  0  0  0  0  0  0
   -4.7575   22.8499  -32.2403 H   0  0  0  0  0  0  0  0  0  0  0  0
   -3.6801   22.9493  -33.6742 H   0  0  0  0  0  0  0  0  0  0  0  0
   -5.0728   21.8148  -33.6742 H   0  0  0  0  0  0  0  0  0  0  0  0
   -1.5059   20.8747  -33.2427 H   0  0  0  0  0  0  0  0  0  0  0  0
   -1.9215   22.6115  -32.7911 H   0  0  0  0  0  0  0  0  0  0  0  0
   -3.0520   21.4369  -27.6292 H   0  0  0  0  0  0  0  0  0  0  0  0
   -1.7452   20.5548  -28.5478 H   0  0  0  0  0  0  0  0  0  0  0  0
   -1.0851   21.0588  -26.2218 H   0  0  0  0  0  0  0  0  0  0  0  0
   -0.0539   21.9020  -27.4996 H   0  0  0  0  0  0  0  0  0  0  0  0
   -2.1349   23.1591  -25.6917 H   0  0  0  0  0  0  0  0  0  0  0  0
   -0.3120   23.3678  -25.6807 H   0  0  0  0  0  0  0  0  0  0  0  0
   -1.0633   25.3171  -26.6834 H   0  0  0  0  0  0  0  0  0  0  0  0
   -0.6292   24.1985  -28.0796 H   0  0  0  0  0  0  0  0  0  0  0  0
   -3.4768   24.4415  -27.1260 H   0  0  0  0  0  0  0  0  0  0  0  0
   -2.7429   25.6527  -28.2687 H   0  0  0  0  0  0  0  0  0  0  0  0
   -5.1425   22.2005  -30.3082 H   0  0  0  0  0  0  0  0  0  0  0  0
   -5.6582   23.1604  -28.8607 H   0  0  0  0  0  0  0  0  0  0  0  0
   -9.3982   23.4767  -31.6015 H   0  0  0  0  0  0  0  0  0  0  0  0
  -10.5874   21.3560  -32.1756 H   0  0  0  0  0  0  0  0  0  0  0  0
   -9.3360   19.1955  -32.2279 H   0  0  0  0  0  0  0  0  0  0  0  0
   -6.8898   19.1551  -31.7185 H   0  0  0  0  0  0  0  0  0  0  0  0
   -5.6976   21.2746  -31.1509 H   0  0  0  0  0  0  0  0  0  0  0  0
  1  2  1  0
  2  3  1  0
  2  4  1  0
  4  5  1  0
  5  6  2  0
  5  7  1  0
  7  8  2  3
  8  9  1  0
  9 10  1  0
 10 11  1  0
 11 12  1  0
 12 13  1  0
 13 14  1  0
 14 15  1  0
 15 16  2  0
 15 17  1  0
 17 18  1  0
 18 19  1  0
 19 20  2  0
 20 21  1  0
 21 22  2  0
 22 23  1  0
 23 24  2  0
 14  8  1  0
 24 19  1  0
  1 25  1  0
  1 26  1  0
  1 27  1  0
  3 28  1  0
  3 29  1  0
  3 30  1  0
  4 31  1  0
  4 32  1  0
  9 33  1  0
  9 34  1  0
 10 35  1  0
 10 36  1  0
 11 37  1  0
 11 38  1  0
 12 39  1  0
 12 40  1  0
 13 41  1  0
 13 42  1  0
 17 43  1  0
 17 44  1  0
 20 45  1  0
 21 46  1  0
 22 47  1  0
 23 48  1  0
 24 49  1  0
M  END
>  <UniqueID>  (18) 
15

>  <SMILES>  (18) 
CN(C)CC(=O)N=C1CCCCCN1C(=O)CSc1ccccc1

>  <Energy>  (18) 
64.09456124834848

>  <Genealogy>  (18) 
CN(C)CC(=O)N=C1CCCCCN1C(=O)CSc1ccccc1 (3D coordinates assigned)
CN(C)CC(=O)N=C1CCCCCN1C(=O)CSc1ccccc1 (nonaromatic ring conformer: 64.09456124834848 kcal/mol)

>  <smiles>  (18) 
CN(C)CC(=O)N=C1CCCCCN1C(=O)CSc1ccccc1

>  <score_type>  (18) 
oracle

>  <origin>  (18) 
adg

>  <m_score__min__energy>  (18) 
-6.21

>  <m_primary>  (18) 
energy

$$$$
18:0
     RDKit          3D

 78 82  0  0  0  0  0  0  0  0999 V2000
    3.6650   25.9840  -35.3090 C   0  0  0  0  0  0  0  0  0  0  0  0
    3.5280   24.9440  -36.4160 C   0  0  0  0  0  0  0  0  0  0  0  0
    2.2590   24.2210  -36.2860 N   0  0  0  0  0  0  0  0  0  0  0  0
    2.1330   22.9850  -35.7620 C   0  0  0  0  0  0  0  0  0  0  0  0
    0.7900   22.6710  -35.6280 C   0  0  0  0  0  0  0  0  0  0  0  0
    0.2300   21.4500  -35.0980 N   0  0  0  0  0  0  0  0  0  0  0  0
    0.4140   20.1990  -35.8380 C   0  0  0  0  0  0  0  0  0  0  0  0
   -0.1700   19.0040  -35.0800 C   0  0  0  0  0  0  0  0  0  0  0  0
   -1.5530   19.3110  -34.6560 N   0  0  0  0  0  0  0  0  0  0  0  0
   -2.2880   18.1440  -34.0710 C   0  0  2  0  0  0  0  0  0  0  0  0
   -1.3620   17.0960  -33.4110 C   0  0  0  0  0  0  0  0  0  0  0  0
   -2.1600   15.9130  -32.8250 C   0  0  0  0  0  0  0  0  0  0  0  0
   -3.2680   15.4190  -33.6870 N   0  0  1  0  0  0  0  0  0  0  0  0
   -4.5700   15.6720  -33.0850 C   0  0  0  0  0  0  0  0  0  0  0  0
   -5.0990   14.8200  -32.3850 O   0  0  0  0  0  0  0  0  0  0  0  0
   -5.3310   16.9560  -33.3620 C   0  0  0  0  0  0  0  0  0  0  0  0
   -6.8610   16.7150  -33.4890 C   0  0  0  0  0  0  0  0  0  0  0  0
   -7.6800   17.4570  -32.4250 C   0  0  0  0  0  0  0  0  0  0  0  0
   -7.3010   18.8790  -32.3880 N   0  0  0  0  0  0  0  0  0  0  0  0
   -8.3120   19.8930  -32.2000 C   0  0  0  0  0  0  0  0  0  0  0  0
   -7.9900   21.3520  -32.3370 C   0  0  0  0  0  0  0  0  0  0  0  0
   -9.4890   19.5620  -31.8910 O   0  0  0  0  0  0  0  0  0  0  0  0
   -5.8780   19.2540  -32.4340 C   0  0  0  0  0  0  0  0  0  0  0  0
   -4.9650   18.0280  -32.3150 C   0  0  0  0  0  0  0  0  0  0  0  0
   -3.2030   15.9150  -35.0780 C   0  0  0  0  0  0  0  0  0  0  0  0
   -3.1330   17.4510  -35.1810 C   0  0  0  0  0  0  0  0  0  0  0  0
   -1.6000   20.4820  -33.7290 C   0  0  0  0  0  0  0  0  0  0  0  0
   -0.3590   21.3990  -33.7580 C   0  0  0  0  0  0  0  0  0  0  0  0
    0.0700   23.7620  -36.0830 C   0  0  0  0  0  0  0  0  0  0  0  0
    1.0060   24.6990  -36.4820 C   0  0  0  0  0  0  0  0  0  0  0  0
    0.6670   26.0470  -36.9810 C   0  0  0  0  0  0  0  0  0  0  0  0
   -0.0360   26.9550  -36.1740 C   0  0  0  0  0  0  0  0  0  0  0  0
   -0.3400   28.2330  -36.6530 C   0  0  0  0  0  0  0  0  0  0  0  0
    0.0690   28.6170  -37.9330 C   0  0  0  0  0  0  0  0  0  0  0  0
   -0.2230   29.8590  -38.3950 F   0  0  0  0  0  0  0  0  0  0  0  0
    0.7880   27.7250  -38.7340 C   0  0  0  0  0  0  0  0  0  0  0  0
    1.0930   26.4470  -38.2580 C   0  0  0  0  0  0  0  0  0  0  0  0
    3.5996   25.4877  -34.3295 H   0  0  0  0  0  0  0  0  0  0  0  0
    4.6375   26.4899  -35.3995 H   0  0  0  0  0  0  0  0  0  0  0  0
    2.8566   26.7245  -35.3995 H   0  0  0  0  0  0  0  0  0  0  0  0
    3.5588   25.4487  -37.3929 H   0  0  0  0  0  0  0  0  0  0  0  0
    4.3571   24.2257  -36.3344 H   0  0  0  0  0  0  0  0  0  0  0  0
    2.9688   22.3264  -35.4834 H   0  0  0  0  0  0  0  0  0  0  0  0
   -0.0888   20.2837  -36.8127 H   0  0  0  0  0  0  0  0  0  0  0  0
    1.4935   20.0308  -35.9658 H   0  0  0  0  0  0  0  0  0  0  0  0
   -0.1762   18.1218  -35.7370 H   0  0  0  0  0  0  0  0  0  0  0  0
    0.4464   18.7989  -34.1923 H   0  0  0  0  0  0  0  0  0  0  0  0
   -2.9313   18.5482  -33.2755 H   0  0  0  0  0  0  0  0  0  0  0  0
   -0.6619   16.7128  -34.1680 H   0  0  0  0  0  0  0  0  0  0  0  0
   -0.8240   17.5867  -32.5865 H   0  0  0  0  0  0  0  0  0  0  0  0
   -1.4618   15.0803  -32.6547 H   0  0  0  0  0  0  0  0  0  0  0  0
   -2.6282   16.2831  -31.9010 H   0  0  0  0  0  0  0  0  0  0  0  0
   -3.1520   14.3810  -33.7570 H   0  0  0  0  0  0  0  0  0  0  0  0
   -5.0210   17.3416  -34.3445 H   0  0  0  0  0  0  0  0  0  0  0  0
   -7.1874   17.0564  -34.4824 H   0  0  0  0  0  0  0  0  0  0  0  0
   -7.0355   15.6387  -33.3440 H   0  0  0  0  0  0  0  0  0  0  0  0
   -8.7498   17.3728  -32.6666 H   0  0  0  0  0  0  0  0  0  0  0  0
   -7.4792   17.0076  -31.4413 H   0  0  0  0  0  0  0  0  0  0  0  0
   -7.8909   21.8010  -31.3377 H   0  0  0  0  0  0  0  0  0  0  0  0
   -7.0445   21.4688  -32.8869 H   0  0  0  0  0  0  0  0  0  0  0  0
   -8.7986   21.8559  -32.8869 H   0  0  0  0  0  0  0  0  0  0  0  0
   -5.6732   19.7598  -33.3891 H   0  0  0  0  0  0  0  0  0  0  0  0
   -5.6709   19.9200  -31.5833 H   0  0  0  0  0  0  0  0  0  0  0  0
   -3.9221   18.3408  -32.4713 H   0  0  0  0  0  0  0  0  0  0  0  0
   -5.0937   17.5939  -31.3125 H   0  0  0  0  0  0  0  0  0  0  0  0
   -2.3070   15.4929  -35.5565 H   0  0  0  0  0  0  0  0  0  0  0  0
   -4.1309   15.5995  -35.5774 H   0  0  0  0  0  0  0  0  0  0  0  0
   -2.6937   17.7086  -36.1560 H   0  0  0  0  0  0  0  0  0  0  0  0
   -4.1633   17.8161  -35.0581 H   0  0  0  0  0  0  0  0  0  0  0  0
   -2.4775   21.0899  -33.9943 H   0  0  0  0  0  0  0  0  0  0  0  0
   -1.6436   20.0628  -32.7129 H   0  0  0  0  0  0  0  0  0  0  0  0
   -0.6561   22.4146  -33.4577 H   0  0  0  0  0  0  0  0  0  0  0  0
    0.3907   20.9930  -33.0629 H   0  0  0  0  0  0  0  0  0  0  0  0
   -1.0247   23.8634  -36.1198 H   0  0  0  0  0  0  0  0  0  0  0  0
   -0.3488   26.6603  -35.1614 H   0  0  0  0  0  0  0  0  0  0  0  0
   -0.9018   28.9370  -36.0215 H   0  0  0  0  0  0  0  0  0  0  0  0
    1.1139   28.0293  -39.7396 H   0  0  0  0  0  0  0  0  0  0  0  0
    1.6691   25.7516  -38.8861 H   0  0  0  0  0  0  0  0  0  0  0  0
  1  2  1  0
  2  3  1  0
  3  4  1  0
  4  5  2  0
  5  6  1  0
  6  7  1  0
  7  8  1  0
  8  9  1  0
  9 10  1  0
 10 11  1  0
 11 12  1  0
 12 13  1  0
 13 14  1  0
 14 15  2  0
 14 16  1  0
 16 17  1  0
 17 18  1  0
 18 19  1  0
 19 20  1  0
 20 21  1  0
 20 22  2  0
 19 23  1  0
 23 24  1  0
 13 25  1  0
 25 26  1  0
  9 27  1  0
 27 28  1  0
  5 29  1  0
 29 30  2  0
 30 31  1  0
 31 32  2  0
 32 33  1  0
 33 34  2  0
 34 35  1  0
 34 36  1  0
 36 37  2  0
 30  3  1  0
 37 31  1  0
 28  6  1  0
 26 10  1  0
 24 16  1  0
  1 38  1  0
  1 39  1  0
  1 40  1  0
  2 41  1  0
  2 42  1  0
  4 43  1  0
  7 44  1  0
  7 45  1  0
  8 46  1  0
  8 47  1  0
 10 48  1  1
 11 49  1  0
 11 50  1  0
 12 51  1  0
 12 52  1  0
 13 53  1  6
 16 54  1  0
 17 55  1  0
 17 56  1  0
 18 57  1  0
 18 58  1  0
 21 59  1  0
 21 60  1  0
 21 61  1  0
 23 62  1  0
 23 63  1  0
 24 64  1  0
 24 65  1  0
 25 66  1  0
 25 67  1  0
 26 68  1  0
 26 69  1  0
 27 70  1  0
 27 71  1  0
 28 72  1  0
 28 73  1  0
 29 74  1  0
 32 75  1  0
 33 76  1  0
 36 77  1  0
 37 78  1  0
M  CHG  1  13   1
M  END
>  <UniqueID>  (19) 
16

>  <SMILES>  (19) 
CCn1cc(N2CCN(C3CC[NH+](C(=O)C4CCN(C(C)=O)CC4)CC3)CC2)cc1-c1ccc(F)cc1

>  <Energy>  (19) 
135.14586419963416

>  <Genealogy>  (19) 
CCn1cc(N2CCN(C3CC[NH+](C(=O)C4CCN(C(C)=O)CC4)CC3)CC2)cc1-c1ccc(F)cc1 (protonated)
CCn1cc(N2CCN(C3CC[NH+](C(=O)C4CCN(C(C)=O)CC4)CC3)CC2)cc1-c1ccc(F)cc1 (3D coordinates assigned)
CCn1cc(N2CCN(C3CC[NH+](C(=O)C4CCN(C(C)=O)CC4)CC3)CC2)cc1-c1ccc(F)cc1 (nonaromatic ring conformer: 135.14586419963416 kcal/mol)

>  <smiles>  (19) 
CCn1cc(N2CCN(C3CCN(C(=O)C4CCN(C(C)=O)CC4)CC3)CC2)cc1-c1ccc(F)cc1

>  <score_type>  (19) 
oracle

>  <origin>  (19) 
adg

>  <m_score__min__energy>  (19) 
-8.8900000000000006

>  <m_primary>  (19) 
energy

$$$$
19:0
     RDKit          3D

 63 68  0  0  0  0  0  0  0  0999 V2000
   -0.2995   28.6876  -24.6087 H   0  0  0  0  0  0  0  0  0  0  0  0
   -0.3980   27.6210  -24.8590 C   0  0  0  0  0  0  0  0  0  0  0  0
   -1.6040   27.1200  -25.2250 N   0  0  0  0  0  0  0  0  0  0  0  0
   -1.7640   25.8030  -25.5200 C   0  0  0  0  0  0  0  0  0  0  0  0
   -3.1170   25.3130  -25.9470 C   0  0  0  0  0  0  0  0  0  0  0  0
   -3.7249   25.0928  -25.0571 H   0  0  0  0  0  0  0  0  0  0  0  0
   -3.6146   26.0880  -26.5484 H   0  0  0  0  0  0  0  0  0  0  0  0
   -3.0030   24.3991  -26.5484 H   0  0  0  0  0  0  0  0  0  0  0  0
   -0.6550   24.9340  -25.4360 C   0  0  0  0  0  0  0  0  0  0  0  0
   -0.7910   23.4970  -25.7460 C   0  0  0  0  0  0  0  0  0  0  0  0
   -0.6180   22.6650  -24.8140 O   0  0  0  0  0  0  0  0  0  0  0  0
   -1.1330   23.0400  -27.0740 N   0  0  0  0  0  0  0  0  0  0  0  0
   -2.1270   21.9480  -27.2150 C   0  0  0  0  0  0  0  0  0  0  0  0
   -3.1343   22.3890  -27.2458 H   0  0  0  0  0  0  0  0  0  0  0  0
   -2.0085   21.2734  -26.3542 H   0  0  0  0  0  0  0  0  0  0  0  0
   -1.9100   21.1160  -28.4990 C   0  0  0  0  0  0  0  0  0  0  0  0
   -2.8354   20.5756  -28.7471 H   0  0  0  0  0  0  0  0  0  0  0  0
   -1.0973   20.3929  -28.3358 H   0  0  0  0  0  0  0  0  0  0  0  0
   -1.5560   22.0090  -29.6010 N   0  0  0  0  0  0  0  0  0  0  0  0
   -2.6330   22.7960  -30.1380 C   0  0  0  0  0  0  0  0  0  0  0  0
   -3.5760   22.2330  -30.9350 N   0  0  0  0  0  0  0  0  0  0  0  0
   -4.6450   22.9570  -31.3730 C   0  0  0  0  0  0  0  0  0  0  0  0
   -5.5440   22.4290  -32.1530 N   0  0  0  0  0  0  0  0  0  0  0  0
   -5.6980   21.0350  -32.4780 C   0  0  0  0  0  0  0  0  0  0  0  0
   -6.8930   20.3440  -32.2130 C   0  0  0  0  0  0  0  0  0  0  0  0
   -7.7337   20.8701  -31.7371 H   0  0  0  0  0  0  0  0  0  0  0  0
   -7.0210   18.9960  -32.5490 C   0  0  0  0  0  0  0  0  0  0  0  0
   -7.9531   18.4607  -32.3151 H   0  0  0  0  0  0  0  0  0  0  0  0
   -5.9690   18.3190  -33.1830 C   0  0  0  0  0  0  0  0  0  0  0  0
   -6.1110   16.8910  -33.5460 C   0  0  0  0  0  0  0  0  0  0  0  0
   -7.2210   16.3640  -34.1040 N   0  0  0  0  0  0  0  0  0  0  0  0
   -6.9550   15.1020  -34.2530 O   0  0  0  0  0  0  0  0  0  0  0  0
   -5.7490   14.8530  -33.8110 C   0  0  0  0  0  0  0  0  0  0  0  0
   -5.1070   13.5080  -33.8410 C   0  0  0  0  0  0  0  0  0  0  0  0
   -4.9401   13.1583  -32.8115 H   0  0  0  0  0  0  0  0  0  0  0  0
   -5.7641   12.7997  -34.3668 H   0  0  0  0  0  0  0  0  0  0  0  0
   -4.1430   13.5735  -34.3668 H   0  0  0  0  0  0  0  0  0  0  0  0
   -5.1490   15.9650  -33.3450 N   0  0  0  0  0  0  0  0  0  0  0  0
   -4.7910   19.0200  -33.4880 C   0  0  0  0  0  0  0  0  0  0  0  0
   -3.9657   18.5006  -33.9969 H   0  0  0  0  0  0  0  0  0  0  0  0
   -4.6540   20.3800  -33.1500 C   0  0  0  0  0  0  0  0  0  0  0  0
   -3.4970   21.1120  -33.4630 O   0  0  0  0  0  0  0  0  0  0  0  0
   -2.1790   20.5730  -33.4810 C   0  0  0  0  0  0  0  0  0  0  0  0
   -1.8275   20.4293  -32.4486 H   0  0  0  0  0  0  0  0  0  0  0  0
   -2.1857   19.6054  -34.0041 H   0  0  0  0  0  0  0  0  0  0  0  0
   -1.5057   21.2680  -34.0041 H   0  0  0  0  0  0  0  0  0  0  0  0
   -4.7630   24.2650  -31.0170 N   0  0  0  0  0  0  0  0  0  0  0  0
   -3.8470   24.8660  -30.2100 C   0  0  0  0  0  0  0  0  0  0  0  0
   -3.9642   25.9242  -29.9336 H   0  0  0  0  0  0  0  0  0  0  0  0
   -2.7570   24.1330  -29.7340 C   0  0  0  0  0  0  0  0  0  0  0  0
   -1.7400   24.6890  -28.8060 C   0  0  0  0  0  0  0  0  0  0  0  0
   -1.7680   25.9040  -28.4690 O   0  0  0  0  0  0  0  0  0  0  0  0
   -0.6540   23.7730  -28.2720 C   0  0  2  0  0  0  0  0  0  0  0  0
    0.2268   24.3712  -27.9956 H   0  0  0  0  0  0  0  0  0  0  0  0
   -0.3200   22.7530  -29.3630 C   0  0  0  0  0  0  0  0  0  0  0  0
    0.0021   23.2655  -30.2815 H   0  0  0  0  0  0  0  0  0  0  0  0
    0.5019   22.0881  -29.0592 H   0  0  0  0  0  0  0  0  0  0  0  0
    0.5940   25.4810  -25.0790 C   0  0  0  0  0  0  0  0  0  0  0  0
    1.8450   24.6510  -25.0660 C   0  0  0  0  0  0  0  0  0  0  0  0
    2.1430   24.4533  -24.0258 H   0  0  0  0  0  0  0  0  0  0  0  0
    1.6577   23.6974  -25.5814 H   0  0  0  0  0  0  0  0  0  0  0  0
    2.6508   25.1942  -25.5814 H   0  0  0  0  0  0  0  0  0  0  0  0
    0.6880   26.8080  -24.8010 N   0  0  0  0  0  0  0  0  0  0  0  0
  1  2  1  0
  2  3  2  0
  3  4  1  0
  4  5  1  0
  5  6  1  0
  5  7  1  0
  5  8  1  0
  4  9  2  0
  9 10  1  0
 10 11  2  0
 10 12  1  0
 12 13  1  0
 13 14  1  0
 13 15  1  0
 13 16  1  0
 16 17  1  0
 16 18  1  0
 16 19  1  0
 19 20  1  0
 20 21  2  0
 21 22  1  0
 22 23  2  0
 23 24  1  0
 24 25  2  0
 25 26  1  0
 25 27  1  0
 27 28  1  0
 27 29  2  0
 29 30  1  0
 30 31  2  0
 31 32  1  0
 32 33  1  0
 33 34  1  0
 34 35  1  0
 34 36  1  0
 34 37  1  0
 33 38  2  0
 29 39  1  0
 39 40  1  0
 39 41  2  0
 41 42  1  0
 42 43  1  0
 43 44  1  0
 43 45  1  0
 43 46  1  0
 22 47  1  0
 47 48  1  0
 48 49  1  0
 48 50  2  0
 50 51  1  0
 51 52  2  0
 51 53  1  0
 53 54  1  1
 53 55  1  0
 55 56  1  0
 55 57  1  0
  9 58  1  0
 58 59  1  0
 59 60  1  0
 59 61  1  0
 59 62  1  0
 58 63  2  0
 63  2  1  0
 53 12  1  0
 55 19  1  0
 50 20  1  0
 41 24  1  0
 38 30  1  0
M  CHG  1  47  -1
M  END
>  <UniqueID>  (20) 
17

>  <SMILES>  (20) 
COc1cc(-c2noc(C)n2)ccc1/N=c1\nc2c(c[n-]1)C(=O)[C@@H]1CN2CCN1C(=O)c1c(C)ncnc1C

>  <Energy>  (20) 
133.01614792938375

>  <Genealogy>  (20) 
COc1cc(-c2noc(C)n2)ccc1N=c1nc2c(c[n-]1)C(=O)C1CN2CCN1C(=O)c1c(C)ncnc1C (protonated)
COc1cc(-c2noc(C)n2)ccc1N=c1nc2c(c[n-]1)C(=O)[C@@H]1CN2CCN1C(=O)c1c(C)ncnc1C (chirality)
COc1cc(-c2noc(C)n2)ccc1/N=c1\nc2c(c[n-]1)C(=O)[C@@H]1CN2CCN1C(=O)c1c(C)ncnc1C (cis-trans isomerization)
COc1cc(-c2noc(C)n2)ccc1/N=c1\nc2c(c[n-]1)C(=O)[C@@H]1CN2CCN1C(=O)c1c(C)ncnc1C (3D coordinates assigned)
COc1cc(-c2noc(C)n2)ccc1/N=c1\nc2c(c[n-]1)C(=O)[C@@H]1CN2CCN1C(=O)c1c(C)ncnc1C (nonaromatic ring conformer: 133.01614792938375 kcal/mol)

>  <smiles>  (20) 
COc1cc(-c2noc(C)n2)ccc1N=c1nc2c(c[nH]1)C(=O)C1CN2CCN1C(=O)c1c(C)ncnc1C

>  <score_type>  (20) 
oracle

>  <origin>  (20) 
adg

>  <m_score__min__energy>  (20) 
-9.9399999999999995

>  <m_primary>  (20) 
energy

$$$$
20:0
     RDKit          3D

 40 42  0  0  0  0  0  0  0  0999 V2000
   -5.4080   25.7550  -30.7220 C   0  0  0  0  0  0  0  0  0  0  0  0
   -4.0660   25.3510  -30.4690 O   0  0  0  0  0  0  0  0  0  0  0  0
   -3.7020   24.1730  -29.7980 C   0  0  0  0  0  0  0  0  0  0  0  0
   -3.3110   24.1750  -28.4460 C   0  0  0  0  0  0  0  0  0  0  0  0
   -2.9480   22.9850  -27.8130 C   0  0  0  0  0  0  0  0  0  0  0  0
   -2.9570   21.7710  -28.5170 C   0  0  0  0  0  0  0  0  0  0  0  0
   -2.5640   20.5440  -27.8700 N   0  0  0  0  0  0  0  0  0  0  0  0
   -1.4260   19.8490  -28.0870 C   0  0  0  0  0  0  0  0  0  0  0  0
   -1.4360   18.7390  -27.2670 C   0  0  0  0  0  0  0  0  0  0  0  0
   -0.3480   17.7310  -27.1050 C   0  0  0  0  0  0  0  0  0  0  0  0
   -2.6090   18.8200  -26.5430 C   0  0  0  0  0  0  0  0  0  0  0  0
   -3.2750   19.9200  -26.9400 N   0  0  0  0  0  0  0  0  0  0  0  0
   -3.3450   21.7700  -29.8670 C   0  0  0  0  0  0  0  0  0  0  0  0
   -3.7380   22.9600  -30.5040 C   0  0  0  0  0  0  0  0  0  0  0  0
   -4.1140   22.9810  -31.8900 N   0  0  0  0  0  0  0  0  0  0  0  0
   -4.9100   22.0050  -32.5740 C   0  0  0  0  0  0  0  0  0  0  0  0
   -4.3590   21.1680  -33.3410 O   0  0  0  0  0  0  0  0  0  0  0  0
   -6.3660   21.9070  -32.3120 C   0  0  0  0  0  0  0  0  0  0  0  0
   -7.1150   23.0940  -32.1900 C   0  0  0  0  0  0  0  0  0  0  0  0
   -8.4920   23.0510  -31.9630 C   0  0  0  0  0  0  0  0  0  0  0  0
   -9.1430   21.8240  -31.8480 C   0  0  0  0  0  0  0  0  0  0  0  0
   -8.4170   20.6360  -31.9510 C   0  0  0  0  0  0  0  0  0  0  0  0
   -7.0350   20.6640  -32.1780 C   0  0  0  0  0  0  0  0  0  0  0  0
   -6.1900   19.1180  -32.2090 Cl  0  0  0  0  0  0  0  0  0  0  0  0
   -5.9299   25.9121  -29.7665 H   0  0  0  0  0  0  0  0  0  0  0  0
   -5.4064   26.6925  -31.2974 H   0  0  0  0  0  0  0  0  0  0  0  0
   -5.9242   24.9724  -31.2974 H   0  0  0  0  0  0  0  0  0  0  0  0
   -3.2913   25.1206  -27.8844 H   0  0  0  0  0  0  0  0  0  0  0  0
   -2.6524   22.9989  -26.7535 H   0  0  0  0  0  0  0  0  0  0  0  0
   -0.6292   20.1209  -28.7949 H   0  0  0  0  0  0  0  0  0  0  0  0
   -0.1632   17.5598  -26.0342 H   0  0  0  0  0  0  0  0  0  0  0  0
   -0.6497   16.7862  -27.5807 H   0  0  0  0  0  0  0  0  0  0  0  0
    0.5711   18.1039  -27.5807 H   0  0  0  0  0  0  0  0  0  0  0  0
   -2.9419   18.1077  -25.7738 H   0  0  0  0  0  0  0  0  0  0  0  0
   -4.1840   20.2510  -26.5470 H   0  0  0  0  0  0  0  0  0  0  0  0
   -3.3413   20.8266  -30.4327 H   0  0  0  0  0  0  0  0  0  0  0  0
   -6.6086   24.0668  -32.2746 H   0  0  0  0  0  0  0  0  0  0  0  0
   -9.0637   23.9866  -31.8748 H   0  0  0  0  0  0  0  0  0  0  0  0
  -10.2290   21.7917  -31.6761 H   0  0  0  0  0  0  0  0  0  0  0  0
   -8.9344   19.6702  -31.8531 H   0  0  0  0  0  0  0  0  0  0  0  0
  1  2  1  0
  2  3  1  0
  3  4  2  0
  4  5  1  0
  5  6  2  0
  6  7  1  0
  7  8  1  0
  8  9  2  0
  9 10  1  0
  9 11  1  0
 11 12  2  0
  6 13  1  0
 13 14  2  0
 14 15  1  0
 15 16  1  0
 16 17  2  0
 16 18  1  0
 18 19  2  0
 19 20  1  0
 20 21  2  0
 21 22  1  0
 22 23  2  0
 23 24  1  0
 14  3  1  0
 23 18  1  0
 12  7  1  0
  1 25  1  0
  1 26  1  0
  1 27  1  0
  4 28  1  0
  5 29  1  0
  8 30  1  0
 10 31  1  0
 10 32  1  0
 10 33  1  0
 11 34  1  0
 12 35  1  0
 13 36  1  0
 19 37  1  0
 20 38  1  0
 21 39  1  0
 22 40  1  0
M  CHG  2  12   1  15  -1
M  END
>  <UniqueID>  (21) 
18

>  <SMILES>  (21) 
COc1ccc(-n2cc(C)c[nH+]2)cc1[N-]C(=O)c1ccccc1Cl

>  <Energy>  (21) 
83.10851984507228

>  <Genealogy>  (21) 
COc1ccc(-n2cc(C)c[nH+]2)cc1[N-]C(=O)c1ccccc1Cl (protonated)
COc1ccc(-n2cc(C)c[nH+]2)cc1[N-]C(=O)c1ccccc1Cl (3D coordinates assigned)
COc1ccc(-n2cc(C)c[nH+]2)cc1[N-]C(=O)c1ccccc1Cl (optimized conformer: 83.10851984507228 kcal/mol)

>  <smiles>  (21) 
COc1ccc(-n2cc(C)cn2)cc1NC(=O)c1ccccc1Cl

>  <score_type>  (21) 
oracle

>  <origin>  (21) 
adg

>  <m_score__min__energy>  (21) 
-9.6099999999999994

>  <m_primary>  (21) 
energy

$$$$
21:0
     RDKit          3D

 44 45  0  0  0  0  0  0  0  0999 V2000
   -2.7930   21.1350  -33.3370 C   0  0  0  0  0  0  0  0  0  0  0  0
   -4.1290   20.6320  -32.8020 C   0  0  0  0  0  0  0  0  0  0  0  0
   -4.8580   19.9870  -33.8300 O   0  0  0  0  0  0  0  0  0  0  0  0
   -4.4780   18.6300  -33.9630 C   0  0  0  0  0  0  0  0  0  0  0  0
   -5.5520   17.6870  -33.3880 C   0  0  0  0  0  0  0  0  0  0  0  0
   -6.9170   18.2270  -33.5010 N   0  0  0  0  0  0  0  0  0  0  0  0
   -7.6000   18.3210  -32.2060 C   0  0  0  0  0  0  0  0  0  0  0  0
   -7.9660   19.7550  -31.9400 C   0  0  0  0  0  0  0  0  0  0  0  0
   -9.2580   20.2220  -32.2300 C   0  0  0  0  0  0  0  0  0  0  0  0
   -9.6050   21.5440  -31.9500 C   0  0  0  0  0  0  0  0  0  0  0  0
   -8.6750   22.4070  -31.3650 C   0  0  0  0  0  0  0  0  0  0  0  0
   -7.3850   21.9500  -31.0450 C   0  0  0  0  0  0  0  0  0  0  0  0
   -6.4230   22.8420  -30.4460 N   0  0  0  0  0  0  0  0  0  0  0  0
   -6.7560   24.2460  -30.1800 C   0  0  0  0  0  0  0  0  0  0  0  0
   -5.6690   25.1790  -30.7540 C   0  0  0  0  0  0  0  0  0  0  0  0
   -4.3330   24.5550  -30.8460 N   0  0  0  0  0  0  0  0  0  0  0  0
   -4.1270   23.5120  -29.8320 C   0  0  0  0  0  0  0  0  0  0  0  0
   -5.0980   22.3440  -30.0570 C   0  0  0  0  0  0  0  0  0  0  0  0
   -7.0380   20.6200  -31.3370 C   0  0  0  0  0  0  0  0  0  0  0  0
   -2.1311   21.3842  -32.4945 H   0  0  0  0  0  0  0  0  0  0  0  0
   -2.3255   20.3513  -33.9512 H   0  0  0  0  0  0  0  0  0  0  0  0
   -2.9584   22.0324  -33.9512 H   0  0  0  0  0  0  0  0  0  0  0  0
   -3.9473   19.9194  -31.9839 H   0  0  0  0  0  0  0  0  0  0  0  0
   -4.7122   21.4885  -32.4328 H   0  0  0  0  0  0  0  0  0  0  0  0
   -4.3346   18.4013  -35.0294 H   0  0  0  0  0  0  0  0  0  0  0  0
   -3.5447   18.4751  -33.4018 H   0  0  0  0  0  0  0  0  0  0  0  0
   -5.5072   16.7324  -33.9327 H   0  0  0  0  0  0  0  0  0  0  0  0
   -5.3374   17.5611  -32.3165 H   0  0  0  0  0  0  0  0  0  0  0  0
   -6.8860   19.1750  -33.9450 H   0  0  0  0  0  0  0  0  0  0  0  0
   -8.5122   17.7066  -32.2263 H   0  0  0  0  0  0  0  0  0  0  0  0
   -6.9331   17.9573  -31.4104 H   0  0  0  0  0  0  0  0  0  0  0  0
   -9.9985   19.5438  -32.6791 H   0  0  0  0  0  0  0  0  0  0  0  0
  -10.6146   21.9082  -32.1908 H   0  0  0  0  0  0  0  0  0  0  0  0
   -8.9539   23.4499  -31.1537 H   0  0  0  0  0  0  0  0  0  0  0  0
   -7.7218   24.4839  -30.6497 H   0  0  0  0  0  0  0  0  0  0  0  0
   -6.8152   24.3969  -29.0920 H   0  0  0  0  0  0  0  0  0  0  0  0
   -5.9766   25.4895  -31.7634 H   0  0  0  0  0  0  0  0  0  0  0  0
   -5.5781   26.0282  -30.0607 H   0  0  0  0  0  0  0  0  0  0  0  0
   -4.2280   24.1210  -31.7940 H   0  0  0  0  0  0  0  0  0  0  0  0
   -3.0934   23.1415  -29.8986 H   0  0  0  0  0  0  0  0  0  0  0  0
   -4.3123   23.9420  -28.8366 H   0  0  0  0  0  0  0  0  0  0  0  0
   -4.7062   21.6967  -30.8555 H   0  0  0  0  0  0  0  0  0  0  0  0
   -5.1934   21.7762  -29.1197 H   0  0  0  0  0  0  0  0  0  0  0  0
   -6.0306   20.2530  -31.0912 H   0  0  0  0  0  0  0  0  0  0  0  0
  1  2  1  0
  2  3  1  0
  3  4  1  0
  4  5  1  0
  5  6  1  0
  6  7  1  0
  7  8  1  0
  8  9  2  0
  9 10  1  0
 10 11  2  0
 11 12  1  0
 12 13  1  0
 13 14  1  0
 14 15  1  0
 15 16  1  0
 16 17  1  0
 17 18  1  0
 12 19  2  0
 19  8  1  0
 18 13  1  0
  1 20  1  0
  1 21  1  0
  1 22  1  0
  2 23  1  0
  2 24  1  0
  4 25  1  0
  4 26  1  0
  5 27  1  0
  5 28  1  0
  6 29  1  0
  7 30  1  0
  7 31  1  0
  9 32  1  0
 10 33  1  0
 11 34  1  0
 14 35  1  0
 14 36  1  0
 15 37  1  0
 15 38  1  0
 16 39  1  0
 17 40  1  0
 17 41  1  0
 18 42  1  0
 18 43  1  0
 19 44  1  0
M  END
>  <UniqueID>  (22) 
19

>  <SMILES>  (22) 
CCOCCNCc1cccc(N2CCNCC2)c1

>  <Energy>  (22) 
50.44789029351863

>  <Genealogy>  (22) 
CCOCCNCc1cccc(N2CCNCC2)c1 (3D coordinates assigned)
CCOCCNCc1cccc(N2CCNCC2)c1 (nonaromatic ring conformer: 50.44789029351863 kcal/mol)

>  <smiles>  (22) 
CCOCCNCc1cccc(N2CCNCC2)c1

>  <score_type>  (22) 
oracle

>  <origin>  (22) 
adg

>  <m_score__min__energy>  (22) 
-7.5999999999999996

>  <m_primary>  (22) 
energy

$$$$
22:0
     RDKit          3D

 40 43  0  0  0  0  0  0  0  0999 V2000
  -10.0389   19.3115  -31.0466 H   0  0  0  0  0  0  0  0  0  0  0  0
   -9.1010   19.4030  -31.6140 C   0  0  0  0  0  0  0  0  0  0  0  0
   -8.3760   18.2580  -31.9560 C   0  0  0  0  0  0  0  0  0  0  0  0
   -8.7397   17.2661  -31.6496 H   0  0  0  0  0  0  0  0  0  0  0  0
   -7.1890   18.3710  -32.6870 C   0  0  0  0  0  0  0  0  0  0  0  0
   -6.6129   17.4688  -32.9402 H   0  0  0  0  0  0  0  0  0  0  0  0
   -6.7290   19.6370  -33.1000 C   0  0  0  0  0  0  0  0  0  0  0  0
   -5.4960   19.8020  -33.8210 N   0  0  0  0  0  0  0  0  0  0  0  0
   -4.3900   20.3210  -33.3700 C   0  0  0  0  0  0  0  0  0  0  0  0
   -4.4100   21.4330  -32.5640 N   0  0  0  0  0  0  0  0  0  0  0  0
   -3.2670   21.9860  -32.0650 C   0  0  0  0  0  0  0  0  0  0  0  0
   -3.3480   23.1160  -31.2430 O   0  0  0  0  0  0  0  0  0  0  0  0
   -4.5410   23.6910  -30.7820 C   0  0  0  0  0  0  0  0  0  0  0  0
   -4.5720   25.0680  -30.5280 C   0  0  0  0  0  0  0  0  0  0  0  0
   -3.6709   25.6757  -30.6976 H   0  0  0  0  0  0  0  0  0  0  0  0
   -5.7420   25.6750  -30.0600 C   0  0  0  0  0  0  0  0  0  0  0  0
   -5.7616   26.7586  -29.8721 H   0  0  0  0  0  0  0  0  0  0  0  0
   -6.8860   24.9060  -29.8310 C   0  0  0  0  0  0  0  0  0  0  0  0
   -7.8066   25.3851  -29.4663 H   0  0  0  0  0  0  0  0  0  0  0  0
   -6.8610   23.5290  -30.0650 C   0  0  0  0  0  0  0  0  0  0  0  0
   -7.7612   22.9242  -29.8812 H   0  0  0  0  0  0  0  0  0  0  0  0
   -5.6920   22.9180  -30.5330 C   0  0  0  0  0  0  0  0  0  0  0  0
   -5.6720   21.8320  -30.7067 H   0  0  0  0  0  0  0  0  0  0  0  0
   -2.0600   21.3590  -32.3730 C   0  0  0  0  0  0  0  0  0  0  0  0
   -0.7560   21.5830  -31.9720 C   0  0  0  0  0  0  0  0  0  0  0  0
   -0.3878   22.3857  -31.3161 H   0  0  0  0  0  0  0  0  0  0  0  0
   -0.0080   20.5750  -32.5760 C   0  0  0  0  0  0  0  0  0  0  0  0
    1.0801   20.4528  -32.4703 H   0  0  0  0  0  0  0  0  0  0  0  0
   -0.8080   19.7660  -33.3120 N   0  0  0  0  0  0  0  0  0  0  0  0
   -0.4020   18.5660  -34.0360 C   0  0  0  0  0  0  0  0  0  0  0  0
   -0.1351   17.7770  -33.3175 H   0  0  0  0  0  0  0  0  0  0  0  0
   -1.2332   18.2203  -34.6681 H   0  0  0  0  0  0  0  0  0  0  0  0
    0.4683   18.7960  -34.6681 H   0  0  0  0  0  0  0  0  0  0  0  0
   -2.0540   20.2500  -33.1670 C   0  0  0  0  0  0  0  0  0  0  0  0
   -3.1980   19.7180  -33.6680 N   0  0  0  0  0  0  0  0  0  0  0  0
   -3.1710   18.8580  -34.2610 H   0  0  0  0  0  0  0  0  0  0  0  0
   -7.4460   20.7800  -32.7240 C   0  0  0  0  0  0  0  0  0  0  0  0
   -7.0731   21.7760  -33.0050 H   0  0  0  0  0  0  0  0  0  0  0  0
   -8.6340   20.6630  -31.9930 C   0  0  0  0  0  0  0  0  0  0  0  0
   -9.2002   21.5647  -31.7169 H   0  0  0  0  0  0  0  0  0  0  0  0
  1  2  1  0
  2  3  2  0
  3  4  1  0
  3  5  1  0
  5  6  1  0
  5  7  2  0
  7  8  1  0
  8  9  2  0
  9 10  1  0
 10 11  2  0
 11 12  1  0
 12 13  1  0
 13 14  2  0
 14 15  1  0
 14 16  1  0
 16 17  1  0
 16 18  2  0
 18 19  1  0
 18 20  1  0
 20 21  1  0
 20 22  2  0
 22 23  1  0
 11 24  1  0
 24 25  1  0
 25 26  1  0
 25 27  2  0
 27 28  1  0
 27 29  1  0
 29 30  1  0
 30 31  1  0
 30 32  1  0
 30 33  1  0
 29 34  1  0
 34 35  1  0
 35 36  1  0
  7 37  1  0
 37 38  1  0
 37 39  2  0
 39 40  1  0
 39  2  1  0
 35  9  1  0
 22 13  1  0
 34 24  2  0
M  END
>  <UniqueID>  (23) 
20

>  <SMILES>  (23) 
Cn1ccc2c(Oc3ccccc3)n/c(=N\c3ccccc3)[nH]c21

>  <Energy>  (23) 
93.0882259975738

>  <Genealogy>  (23) 
Cn1ccc2c(Oc3ccccc3)n/c(=N\c3ccccc3)[nH]c21 (cis-trans isomerization)
Cn1ccc2c(Oc3ccccc3)n/c(=N\c3ccccc3)[nH]c21 (3D coordinates assigned)
Cn1ccc2c(Oc3ccccc3)n/c(=N\c3ccccc3)[nH]c21 (optimized conformer: 93.0882259975738 kcal/mol)

>  <smiles>  (23) 
Cn1ccc2c(Oc3ccccc3)nc(=Nc3ccccc3)[nH]c21

>  <score_type>  (23) 
oracle

>  <origin>  (23) 
adg

>  <m_score__min__energy>  (23) 
-7.8899999999999997

>  <m_primary>  (23) 
energy

$$$$
23:0
     RDKit          3D

 39 42  0  0  1  0  0  0  0  0999 V2000
   -1.8340   25.3930  -27.1530 C   0  0  0  0  0  0  0  0  0  0  0  0
   -1.9360   25.5820  -28.5430 O   0  0  0  0  0  0  0  0  0  0  0  0
   -2.3020   24.5060  -29.3400 C   0  0  0  0  0  0  0  0  0  0  0  0
   -1.5030   23.4120  -29.3990 C   0  0  0  0  0  0  0  0  0  0  0  0
   -1.7640   22.2900  -30.1540 C   0  0  0  0  0  0  0  0  0  0  0  0
   -2.9250   22.3140  -30.8860 C   0  0  0  0  0  0  0  0  0  0  0  0
   -3.2000   21.2280  -31.6290 N   0  0  0  0  0  0  0  0  0  0  0  0
   -4.3140   21.1790  -32.3690 C   0  0  0  0  0  0  0  0  0  0  0  0
   -4.6240   19.9960  -33.1860 C   0  0  0  0  0  0  0  0  0  0  0  0
   -3.8520   19.0150  -33.6350 C   0  0  0  0  0  0  0  0  0  0  0  0
   -4.3950   18.0310  -34.3760 C   0  0  0  0  0  0  0  0  0  0  0  0
   -5.7470   18.1180  -34.6200 C   0  0  0  0  0  0  0  0  0  0  0  0
   -6.2640   19.6460  -33.7680 S   0  0  0  0  0  0  0  0  0  0  0  0
   -5.1300   22.2360  -32.3410 N   0  0  0  0  0  0  0  0  0  0  0  0
   -4.8860   23.3550  -31.6010 C   0  0  0  0  0  0  0  0  0  0  0  0
   -5.7330   24.2690  -31.6740 N   0  0  0  0  0  0  0  0  0  0  0  0
   -6.8460   24.4290  -30.8280 C   0  0  0  0  0  0  0  0  0  0  0  0
   -7.5990   23.1210  -31.0940 C   0  0  0  0  0  0  0  0  0  0  0  0
   -7.9800   22.1960  -30.1370 C   0  0  0  0  0  0  0  0  0  0  0  0
   -8.6200   21.1890  -30.8170 C   0  0  0  0  0  0  0  0  0  0  0  0
   -8.5930   21.5550  -32.1420 C   0  0  0  0  0  0  0  0  0  0  0  0
   -7.9910   22.6850  -32.2680 O   0  0  0  0  0  0  0  0  0  0  0  0
   -3.7570   23.4290  -30.8380 C   0  0  0  0  0  0  0  0  0  0  0  0
   -3.5040   24.5360  -30.0960 C   0  0  0  0  0  0  0  0  0  0  0  0
   -2.2942   26.2457  -26.6323 H   0  0  0  0  0  0  0  0  0  0  0  0
   -2.3544   24.4662  -26.8698 H   0  0  0  0  0  0  0  0  0  0  0  0
   -0.7736   25.3193  -26.8698 H   0  0  0  0  0  0  0  0  0  0  0  0
   -0.5799   23.4213  -28.8008 H   0  0  0  0  0  0  0  0  0  0  0  0
   -1.0829   21.4264  -30.1695 H   0  0  0  0  0  0  0  0  0  0  0  0
   -2.7766   19.0057  -33.4036 H   0  0  0  0  0  0  0  0  0  0  0  0
   -3.7893   17.1999  -34.7665 H   0  0  0  0  0  0  0  0  0  0  0  0
   -6.3739   17.4232  -35.1981 H   0  0  0  0  0  0  0  0  0  0  0  0
   -5.9930   22.1790  -32.9240 H   0  0  0  0  0  0  0  0  0  0  0  0
   -6.5441   24.5152  -29.7737 H   0  0  0  0  0  0  0  0  0  0  0  0
   -7.4340   25.3394  -31.0161 H   0  0  0  0  0  0  0  0  0  0  0  0
   -7.8056   22.2555  -29.0525 H   0  0  0  0  0  0  0  0  0  0  0  0
   -9.0630   20.2774  -30.3896 H   0  0  0  0  0  0  0  0  0  0  0  0
   -9.0214   20.9701  -32.9693 H   0  0  0  0  0  0  0  0  0  0  0  0
   -4.1848   25.3999  -30.0808 H   0  0  0  0  0  0  0  0  0  0  0  0
  1  2  1  0
  2  3  1  0
  3  4  2  0
  4  5  1  0
  5  6  2  0
  6  7  1  0
  7  8  2  0
  8  9  1  0
  9 10  2  0
 10 11  1  0
 11 12  2  0
 12 13  1  0
  8 14  1  0
 14 15  1  0
 15 16  2  0
 16 17  1  0
 17 18  1  0
 18 19  2  0
 19 20  1  0
 20 21  2  0
 21 22  1  0
 15 23  1  0
 23 24  2  0
 24  3  1  0
 23  6  1  0
 13  9  1  0
 22 18  1  0
  1 25  1  0
  1 26  1  0
  1 27  1  0
  4 28  1  0
  5 29  1  0
 10 30  1  0
 11 31  1  0
 12 32  1  0
 14 33  1  0
 17 34  1  0
 17 35  1  0
 19 36  1  0
 20 37  1  0
 21 38  1  0
 24 39  1  0
M  END
>  <smiles>  (24) 
COc1ccc2nc(-c3cccs3)[nH]c(=NCc3ccco3)c2c1

>  <score_type>  (24) 
oracle

>  <origin>  (24) 
adg

>  <m_score__min__energy>  (24) 
-7.9699999999999998

>  <m_primary>  (24) 
energy

$$$$
24:0
     RDKit          3D

 48 51  0  0  0  0  0  0  0  0999 V2000
   -1.1630   25.6520  -26.8170 C   0  0  0  0  0  0  0  0  0  0  0  0
   -0.6670   25.2640  -28.0950 O   0  0  0  0  0  0  0  0  0  0  0  0
   -1.2810   24.3170  -28.9280 C   0  0  0  0  0  0  0  0  0  0  0  0
   -2.6010   24.5420  -29.3310 C   0  0  0  0  0  0  0  0  0  0  0  0
   -3.2560   23.6310  -30.1650 C   0  0  0  0  0  0  0  0  0  0  0  0
   -2.5880   22.4850  -30.6200 C   0  0  0  0  0  0  0  0  0  0  0  0
   -3.2920   21.5240  -31.4870 C   0  0  0  0  0  0  0  0  0  0  0  0
   -4.5990   21.2590  -31.2130 N   0  0  0  0  0  0  0  0  0  0  0  0
   -5.3360   20.3910  -31.9510 C   0  0  0  0  0  0  0  0  0  0  0  0
   -6.6750   20.1520  -31.6230 C   0  0  0  0  0  0  0  0  0  0  0  0
   -7.4340   19.2570  -32.3860 C   0  0  0  0  0  0  0  0  0  0  0  0
   -9.1130   18.9590  -31.9740 Cl  0  0  0  0  0  0  0  0  0  0  0  0
   -6.8550   18.6000  -33.4780 C   0  0  0  0  0  0  0  0  0  0  0  0
   -5.5170   18.8350  -33.8110 C   0  0  0  0  0  0  0  0  0  0  0  0
   -4.7510   19.7300  -33.0500 C   0  0  0  0  0  0  0  0  0  0  0  0
   -3.4140   19.9910  -33.3640 C   0  0  0  0  0  0  0  0  0  0  0  0
   -2.6630   20.8940  -32.5920 C   0  0  0  0  0  0  0  0  0  0  0  0
   -1.2430   21.2240  -33.0210 C   0  0  0  0  0  0  0  0  0  0  0  0
   -1.0020   20.9130  -34.4520 N   0  0  0  0  0  0  0  0  0  0  0  0
   -0.5020   19.5240  -34.6230 C   0  0  0  0  0  0  0  0  0  0  0  0
    0.2980   19.3800  -35.9280 C   0  0  0  0  0  0  0  0  0  0  0  0
    1.4510   20.2110  -35.9860 O   0  0  0  0  0  0  0  0  0  0  0  0
    1.3490   21.3840  -35.1910 C   0  0  0  0  0  0  0  0  0  0  0  0
   -0.0900   21.9160  -35.0670 C   0  0  0  0  0  0  0  0  0  0  0  0
   -1.2720   22.2420  -30.2000 C   0  0  0  0  0  0  0  0  0  0  0  0
   -0.6180   23.1540  -29.3660 C   0  0  0  0  0  0  0  0  0  0  0  0
   -0.5579   25.1787  -26.0297 H   0  0  0  0  0  0  0  0  0  0  0  0
   -1.1036   26.7459  -26.7173 H   0  0  0  0  0  0  0  0  0  0  0  0
   -2.2104   25.3310  -26.7173 H   0  0  0  0  0  0  0  0  0  0  0  0
   -3.1289   25.4442  -28.9886 H   0  0  0  0  0  0  0  0  0  0  0  0
   -4.2984   23.8137  -30.4652 H   0  0  0  0  0  0  0  0  0  0  0  0
   -7.1314   20.6676  -30.7652 H   0  0  0  0  0  0  0  0  0  0  0  0
   -7.4538   17.8971  -34.0758 H   0  0  0  0  0  0  0  0  0  0  0  0
   -5.0653   18.3176  -34.6702 H   0  0  0  0  0  0  0  0  0  0  0  0
   -2.9462   19.4858  -34.2218 H   0  0  0  0  0  0  0  0  0  0  0  0
   -1.0638   22.2968  -32.8568 H   0  0  0  0  0  0  0  0  0  0  0  0
   -0.5576   20.6067  -32.4217 H   0  0  0  0  0  0  0  0  0  0  0  0
   -1.9160   20.9850  -34.9560 H   0  0  0  0  0  0  0  0  0  0  0  0
    0.1482   19.2691  -33.7731 H   0  0  0  0  0  0  0  0  0  0  0  0
   -1.3661   18.8447  -34.6663 H   0  0  0  0  0  0  0  0  0  0  0  0
    0.6196   18.3325  -36.0245 H   0  0  0  0  0  0  0  0  0  0  0  0
   -0.3653   19.6924  -36.7480 H   0  0  0  0  0  0  0  0  0  0  0  0
    1.7242   21.1553  -34.1826 H   0  0  0  0  0  0  0  0  0  0  0  0
    1.9421   22.1656  -35.6883 H   0  0  0  0  0  0  0  0  0  0  0  0
   -0.0820   22.8204  -34.4408 H   0  0  0  0  0  0  0  0  0  0  0  0
   -0.4598   22.1374  -36.0790 H   0  0  0  0  0  0  0  0  0  0  0  0
   -0.7521   21.3299  -30.5282 H   0  0  0  0  0  0  0  0  0  0  0  0
    0.4183   22.9625  -29.0507 H   0  0  0  0  0  0  0  0  0  0  0  0
  1  2  1  0
  2  3  1  0
  3  4  2  0
  4  5  1  0
  5  6  2  0
  6  7  1  0
  7  8  2  0
  8  9  1  0
  9 10  2  0
 10 11  1  0
 11 12  1  0
 11 13  2  0
 13 14  1  0
 14 15  2  0
 15 16  1  0
 16 17  2  0
 17 18  1  0
 18 19  1  0
 19 20  1  0
 20 21  1  0
 21 22  1  0
 22 23  1  0
 23 24  1  0
  6 25  1  0
 25 26  2  0
 26  3  1  0
 17  7  1  0
 24 19  1  0
 15  9  1  0
  1 27  1  0
  1 28  1  0
  1 29  1  0
  4 30  1  0
  5 31  1  0
 10 32  1  0
 13 33  1  0
 14 34  1  0
 16 35  1  0
 18 36  1  0
 18 37  1  0
 19 38  1  0
 20 39  1  0
 20 40  1  0
 21 41  1  0
 21 42  1  0
 23 43  1  0
 23 44  1  0
 24 45  1  0
 24 46  1  0
 25 47  1  0
 26 48  1  0
M  CHG  1  19   1
M  END
>  <UniqueID>  (25) 
21

>  <SMILES>  (25) 
COc1ccc(-c2nc3cc(Cl)ccc3cc2C[NH+]2CCOCC2)cc1

>  <Energy>  (25) 
75.9505199199255

>  <Genealogy>  (25) 
COc1ccc(-c2nc3cc(Cl)ccc3cc2C[NH+]2CCOCC2)cc1 (protonated)
COc1ccc(-c2nc3cc(Cl)ccc3cc2C[NH+]2CCOCC2)cc1 (3D coordinates assigned)
COc1ccc(-c2nc3cc(Cl)ccc3cc2C[NH+]2CCOCC2)cc1 (nonaromatic ring conformer: 75.9505199199255 kcal/mol)

>  <smiles>  (25) 
COc1ccc(-c2nc3cc(Cl)ccc3cc2CN2CCOCC2)cc1

>  <score_type>  (25) 
oracle

>  <origin>  (25) 
adg

>  <m_score__min__energy>  (25) 
-7.2599999999999998

>  <m_primary>  (25) 
energy

$$$$
25:0
     RDKit          3D

 45 47  0  0  0  0  0  0  0  0999 V2000
   -2.0800   21.5610  -31.9480 C   0  0  0  0  0  0  0  0  0  0  0  0
   -3.5660   21.4560  -31.6170 C   0  0  0  0  0  0  0  0  0  0  0  0
   -4.4610   21.6410  -32.8490 C   0  0  0  0  0  0  0  0  0  0  0  0
   -5.8840   21.5040  -32.5150 N   0  0  0  0  0  0  0  0  0  0  0  0
   -6.7470   22.4790  -32.1150 C   0  0  0  0  0  0  0  0  0  0  0  0
   -6.3150   24.2200  -31.9750 S   0  0  0  0  0  0  0  0  0  0  0  0
   -5.8610   24.1590  -30.2060 C   0  0  0  0  0  0  0  0  0  0  0  0
   -4.4440   24.5750  -30.0010 C   0  0  0  0  0  0  0  0  0  0  0  0
   -3.8920   25.3280  -30.8470 O   0  0  0  0  0  0  0  0  0  0  0  0
   -3.7700   24.1840  -28.7970 N   0  0  0  0  0  0  0  0  0  0  0  0
   -2.5220   23.4830  -28.6660 C   0  0  0  0  0  0  0  0  0  0  0  0
   -2.4610   22.1000  -28.4080 C   0  0  0  0  0  0  0  0  0  0  0  0
   -1.2260   21.4560  -28.3070 C   0  0  0  0  0  0  0  0  0  0  0  0
   -0.0430   22.1830  -28.4460 C   0  0  0  0  0  0  0  0  0  0  0  0
   -0.0910   23.5600  -28.6690 C   0  0  0  0  0  0  0  0  0  0  0  0
   -1.3300   24.2220  -28.7700 C   0  0  0  0  0  0  0  0  0  0  0  0
   -1.4170   25.6070  -28.9840 O   0  0  0  0  0  0  0  0  0  0  0  0
   -0.8610   26.5920  -28.1200 C   0  0  0  0  0  0  0  0  0  0  0  0
   -7.9620   22.0050  -31.7370 N   0  0  0  0  0  0  0  0  0  0  0  0
   -7.8450   20.6810  -31.9320 C   0  0  0  0  0  0  0  0  0  0  0  0
   -8.8010   19.7000  -31.6740 C   0  0  0  0  0  0  0  0  0  0  0  0
   -8.4420   18.3590  -31.9010 C   0  0  0  0  0  0  0  0  0  0  0  0
   -7.1500   18.0340  -32.3710 C   0  0  0  0  0  0  0  0  0  0  0  0
   -6.2060   19.0480  -32.6170 C   0  0  0  0  0  0  0  0  0  0  0  0
   -6.5980   20.3710  -32.3930 C   0  0  0  0  0  0  0  0  0  0  0  0
   -1.4986   21.6021  -31.0151 H   0  0  0  0  0  0  0  0  0  0  0  0
   -1.7718   20.6824  -32.5337 H   0  0  0  0  0  0  0  0  0  0  0  0
   -1.8984   22.4742  -32.5337 H   0  0  0  0  0  0  0  0  0  0  0  0
   -3.7613   20.4630  -31.1860 H   0  0  0  0  0  0  0  0  0  0  0  0
   -3.8063   22.2616  -30.9076 H   0  0  0  0  0  0  0  0  0  0  0  0
   -4.2884   22.6437  -33.2671 H   0  0  0  0  0  0  0  0  0  0  0  0
   -4.2043   20.8587  -33.5785 H   0  0  0  0  0  0  0  0  0  0  0  0
   -6.5194   24.8365  -29.6425 H   0  0  0  0  0  0  0  0  0  0  0  0
   -5.9762   23.1242  -29.8511 H   0  0  0  0  0  0  0  0  0  0  0  0
   -3.3903   21.5244  -28.2855 H   0  0  0  0  0  0  0  0  0  0  0  0
   -1.1856   20.3732  -28.1174 H   0  0  0  0  0  0  0  0  0  0  0  0
    0.9281   21.6705  -28.3798 H   0  0  0  0  0  0  0  0  0  0  0  0
    0.8440   24.1313  -28.7664 H   0  0  0  0  0  0  0  0  0  0  0  0
   -1.0272   26.2975  -27.0733 H   0  0  0  0  0  0  0  0  0  0  0  0
    0.2191   26.6784  -28.3095 H   0  0  0  0  0  0  0  0  0  0  0  0
   -1.3452   27.5614  -28.3095 H   0  0  0  0  0  0  0  0  0  0  0  0
   -9.8027   19.9656  -31.3052 H   0  0  0  0  0  0  0  0  0  0  0  0
   -9.1720   17.5583  -31.7113 H   0  0  0  0  0  0  0  0  0  0  0  0
   -6.8804   16.9820  -32.5457 H   0  0  0  0  0  0  0  0  0  0  0  0
   -5.1935   18.8077  -32.9736 H   0  0  0  0  0  0  0  0  0  0  0  0
  1  2  1  0
  2  3  1  0
  3  4  1  0
  4  5  1  0
  5  6  1  0
  6  7  1  0
  7  8  1  0
  8  9  2  0
  8 10  1  0
 10 11  1  0
 11 12  2  0
 12 13  1  0
 13 14  2  0
 14 15  1  0
 15 16  2  0
 16 17  1  0
 17 18  1  0
  5 19  2  0
 19 20  1  0
 20 21  2  0
 21 22  1  0
 22 23  2  0
 23 24  1  0
 24 25  2  0
 25  4  1  0
 16 11  1  0
 25 20  1  0
  1 26  1  0
  1 27  1  0
  1 28  1  0
  2 29  1  0
  2 30  1  0
  3 31  1  0
  3 32  1  0
  7 33  1  0
  7 34  1  0
 12 35  1  0
 13 36  1  0
 14 37  1  0
 15 38  1  0
 18 39  1  0
 18 40  1  0
 18 41  1  0
 21 42  1  0
 22 43  1  0
 23 44  1  0
 24 45  1  0
M  CHG  1  10  -1
M  END
>  <UniqueID>  (26) 
22

>  <SMILES>  (26) 
CCCn1c(SCC(=O)[N-]c2ccccc2OC)nc2ccccc21

>  <Energy>  (26) 
74.43981513558045

>  <Genealogy>  (26) 
CCCn1c(SCC(=O)[N-]c2ccccc2OC)nc2ccccc21 (protonated)
CCCn1c(SCC(=O)[N-]c2ccccc2OC)nc2ccccc21 (3D coordinates assigned)
CCCn1c(SCC(=O)[N-]c2ccccc2OC)nc2ccccc21 (optimized conformer: 74.43981513558045 kcal/mol)

>  <smiles>  (26) 
CCCn1c(SCC(=O)Nc2ccccc2OC)nc2ccccc21

>  <score_type>  (26) 
oracle

>  <origin>  (26) 
adg

>  <m_score__min__energy>  (26) 
-10.800000000000001

>  <m_primary>  (26) 
energy

$$$$
26:0
     RDKit          3D

 61 63  0  0  0  0  0  0  0  0999 V2000
    3.8080   24.8070  -36.2400 C   0  0  0  0  0  0  0  0  0  0  0  0
    2.6730   23.8770  -35.9310 C   0  0  0  0  0  0  0  0  0  0  0  0
    1.3470   24.2670  -36.1730 C   0  0  0  0  0  0  0  0  0  0  0  0
    0.2930   23.3900  -35.9040 C   0  0  0  0  0  0  0  0  0  0  0  0
    0.5540   22.0950  -35.4170 C   0  0  0  0  0  0  0  0  0  0  0  0
   -0.5110   21.1790  -35.1040 N   0  0  0  0  0  0  0  0  0  0  0  0
   -0.6830   20.5330  -33.8390 C   0  0  0  0  0  0  0  0  0  0  0  0
   -0.0630   20.9490  -32.8200 O   0  0  0  0  0  0  0  0  0  0  0  0
   -1.5580   19.4010  -33.7500 N   0  0  0  0  0  0  0  0  0  0  0  0
   -2.9920   19.4260  -33.6820 C   0  0  0  0  0  0  0  0  0  0  0  0
   -3.7830   18.3150  -34.0350 C   0  0  0  0  0  0  0  0  0  0  0  0
   -5.1770   18.3830  -33.9350 C   0  0  0  0  0  0  0  0  0  0  0  0
   -5.8010   19.5450  -33.4650 C   0  0  0  0  0  0  0  0  0  0  0  0
   -7.2370   19.5830  -33.4210 N   0  0  0  0  0  0  0  0  0  0  0  0
   -8.0500   19.6470  -32.2400 C   0  0  0  0  0  0  0  0  0  0  0  0
   -8.3420   18.5990  -31.6040 O   0  0  0  0  0  0  0  0  0  0  0  0
   -8.5300   20.9070  -31.7590 N   0  0  0  0  0  0  0  0  0  0  0  0
   -7.7080   22.0410  -31.4530 C   0  0  0  0  0  0  0  0  0  0  0  0
   -7.2330   22.9000  -32.4540 C   0  0  0  0  0  0  0  0  0  0  0  0
   -6.4350   24.0010  -32.1250 C   0  0  0  0  0  0  0  0  0  0  0  0
   -6.1010   24.2650  -30.7880 C   0  0  0  0  0  0  0  0  0  0  0  0
   -5.2120   25.3990  -30.4430 C   0  0  0  0  0  0  0  0  0  0  0  0
   -5.7060   26.5160  -30.1140 O   0  0  0  0  0  0  0  0  0  0  0  0
   -3.7910   25.2280  -30.4650 N   0  0  0  0  0  0  0  0  0  0  0  0
   -3.0080   24.8790  -29.2820 C   0  0  0  0  0  0  0  0  0  0  0  0
   -3.1010   23.3750  -29.0020 C   0  0  0  0  0  0  0  0  0  0  0  0
   -3.0980   22.6090  -30.2670 N   0  0  0  0  0  0  0  0  0  0  0  0
   -3.8690   21.3650  -30.1150 C   0  0  0  0  0  0  0  0  0  0  0  0
   -1.7240   22.2890  -30.6950 C   0  0  0  0  0  0  0  0  0  0  0  0
   -6.6100   23.4240  -29.7810 C   0  0  0  0  0  0  0  0  0  0  0  0
   -7.4180   22.3300  -30.1140 C   0  0  0  0  0  0  0  0  0  0  0  0
   -5.0120   20.6550  -33.1190 C   0  0  0  0  0  0  0  0  0  0  0  0
   -3.6170   20.5860  -33.2110 C   0  0  0  0  0  0  0  0  0  0  0  0
    1.8810   21.7110  -35.1750 C   0  0  0  0  0  0  0  0  0  0  0  0
    2.9350   22.5920  -35.4400 C   0  0  0  0  0  0  0  0  0  0  0  0
    4.2508   25.1698  -35.3007 H   0  0  0  0  0  0  0  0  0  0  0  0
    4.5721   24.2720  -36.8230 H   0  0  0  0  0  0  0  0  0  0  0  0
    3.4336   25.6614  -36.8230 H   0  0  0  0  0  0  0  0  0  0  0  0
    1.1362   25.2683  -36.5766 H   0  0  0  0  0  0  0  0  0  0  0  0
   -0.7449   23.7127  -36.0734 H   0  0  0  0  0  0  0  0  0  0  0  0
   -1.2510   21.0190  -35.8220 H   0  0  0  0  0  0  0  0  0  0  0  0
   -3.3032   17.3911  -34.3904 H   0  0  0  0  0  0  0  0  0  0  0  0
   -5.7878   17.5163  -34.2281 H   0  0  0  0  0  0  0  0  0  0  0  0
   -7.4897   22.7068  -33.5060 H   0  0  0  0  0  0  0  0  0  0  0  0
   -6.0665   24.6650  -32.9208 H   0  0  0  0  0  0  0  0  0  0  0  0
   -1.9558   25.1515  -29.4509 H   0  0  0  0  0  0  0  0  0  0  0  0
   -3.4072   25.4277  -28.4162 H   0  0  0  0  0  0  0  0  0  0  0  0
   -2.2398   23.0671  -28.3909 H   0  0  0  0  0  0  0  0  0  0  0  0
   -4.0399   23.1714  -28.4663 H   0  0  0  0  0  0  0  0  0  0  0  0
   -4.0047   21.1461  -29.0456 H   0  0  0  0  0  0  0  0  0  0  0  0
   -4.8528   21.4826  -30.5929 H   0  0  0  0  0  0  0  0  0  0  0  0
   -3.3259   20.5363  -30.5929 H   0  0  0  0  0  0  0  0  0  0  0  0
   -1.0890   22.1411  -29.8090 H   0  0  0  0  0  0  0  0  0  0  0  0
   -1.7326   21.3688  -31.2977 H   0  0  0  0  0  0  0  0  0  0  0  0
   -1.3252   23.1183  -31.2977 H   0  0  0  0  0  0  0  0  0  0  0  0
   -6.3718   23.6272  -28.7265 H   0  0  0  0  0  0  0  0  0  0  0  0
   -7.8283   21.6923  -29.3171 H   0  0  0  0  0  0  0  0  0  0  0  0
   -5.4928   21.5824  -32.7743 H   0  0  0  0  0  0  0  0  0  0  0  0
   -3.0071   21.4507  -32.9106 H   0  0  0  0  0  0  0  0  0  0  0  0
    2.0947   20.7094  -34.7737 H   0  0  0  0  0  0  0  0  0  0  0  0
    3.9730   22.2742  -35.2621 H   0  0  0  0  0  0  0  0  0  0  0  0
  1  2  1  0
  2  3  2  0
  3  4  1  0
  4  5  2  0
  5  6  1  0
  6  7  1  0
  7  8  2  0
  7  9  1  0
  9 10  1  0
 10 11  2  0
 11 12  1  0
 12 13  2  0
 13 14  1  0
 14 15  1  0
 15 16  2  0
 15 17  1  0
 17 18  1  0
 18 19  2  0
 19 20  1  0
 20 21  2  0
 21 22  1  0
 22 23  2  0
 22 24  1  0
 24 25  1  0
 25 26  1  0
 26 27  1  0
 27 28  1  0
 27 29  1  0
 21 30  1  0
 30 31  2  0
 13 32  1  0
 32 33  2  0
  5 34  1  0
 34 35  2  0
 35  2  1  0
 33 10  1  0
 31 18  1  0
  1 36  1  0
  1 37  1  0
  1 38  1  0
  3 39  1  0
  4 40  1  0
  6 41  1  0
 11 42  1  0
 12 43  1  0
 19 44  1  0
 20 45  1  0
 25 46  1  0
 25 47  1  0
 26 48  1  0
 26 49  1  0
 28 50  1  0
 28 51  1  0
 28 52  1  0
 29 53  1  0
 29 54  1  0
 29 55  1  0
 30 56  1  0
 31 57  1  0
 32 58  1  0
 33 59  1  0
 34 60  1  0
 35 61  1  0
M  CHG  4   9  -1  14  -1  17  -1  24  -1
M  END
>  <UniqueID>  (27) 
23

>  <SMILES>  (27) 
Cc1ccc(NC(=O)[N-]c2ccc([N-]C(=O)[N-]c3ccc(C(=O)[N-]CCN(C)C)cc3)cc2)cc1

>  <Energy>  (27) 
74.51209301350703

>  <Genealogy>  (27) 
Cc1ccc(NC(=O)[N-]c2ccc([N-]C(=O)[N-]c3ccc(C(=O)[N-]CCN(C)C)cc3)cc2)cc1 (protonated)
Cc1ccc(NC(=O)[N-]c2ccc([N-]C(=O)[N-]c3ccc(C(=O)[N-]CCN(C)C)cc3)cc2)cc1 (3D coordinates assigned)
Cc1ccc(NC(=O)[N-]c2ccc([N-]C(=O)[N-]c3ccc(C(=O)[N-]CCN(C)C)cc3)cc2)cc1 (optimized conformer: 74.51209301350703 kcal/mol)

>  <smiles>  (27) 
Cc1ccc(NC(=O)Nc2ccc(NC(=O)Nc3ccc(C(=O)NCCN(C)C)cc3)cc2)cc1

>  <score_type>  (27) 
oracle

>  <origin>  (27) 
adg

>  <m_score__min__energy>  (27) 
-11.02

>  <m_primary>  (27) 
energy

$$$$
27:0
     RDKit          3D

 27 29  0  0  0  0  0  0  0  0999 V2000
   -0.2827   21.6166  -29.7859 H   0  0  0  0  0  0  0  0  0  0  0  0
   -1.2610   21.8180  -29.3250 C   0  0  0  0  0  0  0  0  0  0  0  0
   -1.8790   22.9630  -29.6620 C   0  0  0  0  0  0  0  0  0  0  0  0
   -1.3970   24.2850  -29.2600 C   0  0  0  0  0  0  0  0  0  0  0  0
   -0.2370   24.5340  -28.8360 O   0  0  0  0  0  0  0  0  0  0  0  0
   -2.4210   25.2710  -29.3320 N   0  0  0  0  0  0  0  0  0  0  0  0
   -3.5310   24.5550  -29.8630 C   0  0  0  0  0  0  0  0  0  0  0  0
   -4.7510   25.1320  -30.2120 C   0  0  0  0  0  0  0  0  0  0  0  0
   -4.9685   26.1809  -29.9620 H   0  0  0  0  0  0  0  0  0  0  0  0
   -5.6940   24.3470  -30.8880 C   0  0  0  0  0  0  0  0  0  0  0  0
   -6.6848   24.7625  -31.1238 H   0  0  0  0  0  0  0  0  0  0  0  0
   -5.3790   23.0310  -31.2660 C   0  0  0  0  0  0  0  0  0  0  0  0
   -6.1128   22.4368  -31.8303 H   0  0  0  0  0  0  0  0  0  0  0  0
   -4.1360   22.4650  -30.9310 C   0  0  0  0  0  0  0  0  0  0  0  0
   -3.6490   20.8290  -31.8000 Br  0  0  0  0  0  0  0  0  0  0  0  0
   -3.2520   23.2210  -30.1320 C   0  0  0  0  0  0  0  0  0  0  0  0
   -1.7890   20.8100  -28.3870 C   0  0  0  0  0  0  0  0  0  0  0  0
   -0.9890   19.7190  -28.0210 C   0  0  0  0  0  0  0  0  0  0  0  0
    0.0116   19.5985  -28.4619 H   0  0  0  0  0  0  0  0  0  0  0  0
   -1.4610   18.7860  -27.0980 C   0  0  0  0  0  0  0  0  0  0  0  0
   -0.8454   17.9167  -26.8234 H   0  0  0  0  0  0  0  0  0  0  0  0
   -2.7210   18.9650  -26.5260 C   0  0  0  0  0  0  0  0  0  0  0  0
   -3.1047   18.2300  -25.8031 H   0  0  0  0  0  0  0  0  0  0  0  0
   -3.4760   20.0460  -26.8600 N   0  0  0  0  0  0  0  0  0  0  0  0
   -4.4100   20.1750  -26.4110 H   0  0  0  0  0  0  0  0  0  0  0  0
   -3.0370   20.9690  -27.7590 C   0  0  0  0  0  0  0  0  0  0  0  0
   -3.6614   21.8433  -27.9953 H   0  0  0  0  0  0  0  0  0  0  0  0
  1  2  1  0
  2  3  2  0
  3  4  1  0
  4  5  2  0
  4  6  1  0
  6  7  1  0
  7  8  2  0
  8  9  1  0
  8 10  1  0
 10 11  1  0
 10 12  2  0
 12 13  1  0
 12 14  1  0
 14 15  1  0
 14 16  2  0
  2 17  1  0
 17 18  2  0
 18 19  1  0
 18 20  1  0
 20 21  1  0
 20 22  2  0
 22 23  1  0
 22 24  1  0
 24 25  1  0
 24 26  2  0
 26 27  1  0
 16  3  1  0
 26 17  1  0
 16  7  1  0
M  CHG  2   6  -1  24   1
M  END
>  <UniqueID>  (28) 
24

>  <SMILES>  (28) 
O=C1[N-]c2cccc(Br)c2/C1=C\c1ccc[nH+]c1

>  <Energy>  (28) 
73.93851211351274

>  <Genealogy>  (28) 
O=C1[N-]c2cccc(Br)c2C1=Cc1ccc[nH+]c1 (protonated)
O=C1[N-]c2cccc(Br)c2/C1=C\c1ccc[nH+]c1 (cis-trans isomerization)
O=C1[N-]c2cccc(Br)c2/C1=C\c1ccc[nH+]c1 (3D coordinates assigned)
O=C1[N-]c2cccc(Br)c2/C1=C\c1ccc[nH+]c1 (nonaromatic ring conformer: 73.93851211351274 kcal/mol)

>  <smiles>  (28) 
O=C1Nc2cccc(Br)c2C1=Cc1cccnc1

>  <score_type>  (28) 
oracle

>  <origin>  (28) 
adg

>  <m_score__min__energy>  (28) 
-8.6199999999999992

>  <m_primary>  (28) 
energy

$$$$
28:0
     RDKit          3D

 32 33  0  0  1  0  0  0  0  0999 V2000
   -9.4920   21.5090  -31.0270 C   0  0  0  0  0  0  0  0  0  0  0  0
   -8.8460   21.5680  -32.3250 N   0  0  0  0  0  0  0  0  0  0  0  0
   -7.6660   21.1010  -32.5290 C   0  0  0  0  0  0  0  0  0  0  0  0
   -7.5090   19.9290  -33.1550 N   0  0  0  0  0  0  0  0  0  0  0  0
   -6.3060   19.3790  -33.4040 C   0  0  0  0  0  0  0  0  0  0  0  0
   -6.1620   18.0620  -34.1100 C   0  0  0  0  0  0  0  0  0  0  0  0
   -5.1870   20.0440  -32.9970 N   0  0  0  0  0  0  0  0  0  0  0  0
   -5.2900   21.2300  -32.3600 C   0  0  0  0  0  0  0  0  0  0  0  0
   -4.1850   21.9430  -31.9280 C   0  0  0  0  0  0  0  0  0  0  0  0
   -4.2900   23.1540  -31.2760 C   0  0  0  0  0  0  0  0  0  0  0  0
   -3.1930   23.8820  -30.8370 O   0  0  0  0  0  0  0  0  0  0  0  0
   -2.4860   23.4430  -29.7080 C   0  0  0  0  0  0  0  0  0  0  0  0
   -5.5450   23.7080  -31.0290 C   0  0  0  0  0  0  0  0  0  0  0  0
   -5.6640   24.9270  -30.3750 O   0  0  0  0  0  0  0  0  0  0  0  0
   -6.8600   25.2180  -29.7060 C   0  0  0  0  0  0  0  0  0  0  0  0
   -6.6370   22.9850  -31.4660 C   0  0  0  0  0  0  0  0  0  0  0  0
   -6.5330   21.7740  -32.1180 C   0  0  0  0  0  0  0  0  0  0  0  0
   -8.7314   21.5785  -30.2354 H   0  0  0  0  0  0  0  0  0  0  0  0
  -10.1988   22.3463  -30.9308 H   0  0  0  0  0  0  0  0  0  0  0  0
  -10.0355   20.5575  -30.9308 H   0  0  0  0  0  0  0  0  0  0  0  0
   -8.3390   19.3730  -33.4910 H   0  0  0  0  0  0  0  0  0  0  0  0
   -6.0738   17.2555  -33.3672 H   0  0  0  0  0  0  0  0  0  0  0  0
   -7.0462   17.8851  -34.7401 H   0  0  0  0  0  0  0  0  0  0  0  0
   -5.2605   18.0804  -34.7401 H   0  0  0  0  0  0  0  0  0  0  0  0
   -3.1833   21.5273  -32.1120 H   0  0  0  0  0  0  0  0  0  0  0  0
   -3.0104   23.7686  -28.7975 H   0  0  0  0  0  0  0  0  0  0  0  0
   -2.4204   22.3450  -29.7205 H   0  0  0  0  0  0  0  0  0  0  0  0
   -1.4728   23.8711  -29.7205 H   0  0  0  0  0  0  0  0  0  0  0  0
   -6.6918   25.1771  -28.6197 H   0  0  0  0  0  0  0  0  0  0  0  0
   -7.2013   26.2254  -29.9865 H   0  0  0  0  0  0  0  0  0  0  0  0
   -7.6260   24.4800  -29.9865 H   0  0  0  0  0  0  0  0  0  0  0  0
   -7.6413   23.3957  -31.2849 H   0  0  0  0  0  0  0  0  0  0  0  0
  1  2  1  0
  2  3  2  0
  3  4  1  0
  4  5  1  0
  5  6  1  0
  5  7  2  0
  7  8  1  0
  8  9  2  0
  9 10  1  0
 10 11  1  0
 11 12  1  0
 10 13  2  0
 13 14  1  0
 14 15  1  0
 13 16  1  0
 16 17  2  0
 17  3  1  0
 17  8  1  0
  1 18  1  0
  1 19  1  0
  1 20  1  0
  4 21  1  0
  6 22  1  0
  6 23  1  0
  6 24  1  0
  9 25  1  0
 12 26  1  0
 12 27  1  0
 12 28  1  0
 15 29  1  0
 15 30  1  0
 15 31  1  0
 16 32  1  0
M  END
>  <smiles>  (29) 
CN=c1[nH]c(C)nc2cc(OC)c(OC)cc12

>  <score_type>  (29) 
oracle

>  <origin>  (29) 
adg

>  <m_score__min__energy>  (29) 
-6.3099999999999996

>  <m_primary>  (29) 
energy

$$$$
29:0
     RDKit          3D

 32 34  0  0  0  0  0  0  0  0999 V2000
   -5.7350   26.0480  -30.1270 C   0  0  0  0  0  0  0  0  0  0  0  0
   -4.8500   25.1940  -30.8440 O   0  0  0  0  0  0  0  0  0  0  0  0
   -5.1740   23.8980  -31.2730 C   0  0  0  0  0  0  0  0  0  0  0  0
   -6.4630   23.5490  -31.7150 C   0  0  0  0  0  0  0  0  0  0  0  0
   -6.7370   22.2430  -32.1330 C   0  0  0  0  0  0  0  0  0  0  0  0
   -5.7300   21.2620  -32.1170 C   0  0  0  0  0  0  0  0  0  0  0  0
   -6.0210   19.8740  -32.5610 C   0  0  0  0  0  0  0  0  0  0  0  0
   -7.3350   19.3740  -32.5190 C   0  0  0  0  0  0  0  0  0  0  0  0
   -7.6160   18.0690  -32.9360 C   0  0  0  0  0  0  0  0  0  0  0  0
   -6.5850   17.2420  -33.4020 C   0  0  0  0  0  0  0  0  0  0  0  0
   -6.8480   15.9320  -33.8230 C   0  0  0  0  0  0  0  0  0  0  0  0
   -5.7980   15.1340  -34.2800 C   0  0  0  0  0  0  0  0  0  0  0  0
   -4.5280   15.6240  -34.3160 N   0  0  0  0  0  0  0  0  0  0  0  0
   -4.2410   16.8920  -33.9140 C   0  0  0  0  0  0  0  0  0  0  0  0
   -5.2620   17.7330  -33.4480 C   0  0  0  0  0  0  0  0  0  0  0  0
   -4.9870   19.0430  -33.0290 C   0  0  0  0  0  0  0  0  0  0  0  0
   -4.4440   21.6160  -31.6750 C   0  0  0  0  0  0  0  0  0  0  0  0
   -4.1720   22.9230  -31.2580 C   0  0  0  0  0  0  0  0  0  0  0  0
   -5.5871   25.9053  -29.0464 H   0  0  0  0  0  0  0  0  0  0  0  0
   -5.5272   27.0956  -30.3903 H   0  0  0  0  0  0  0  0  0  0  0  0
   -6.7745   25.8030  -30.3903 H   0  0  0  0  0  0  0  0  0  0  0  0
   -7.2596   24.3074  -31.7319 H   0  0  0  0  0  0  0  0  0  0  0  0
   -7.7485   21.9811  -32.4771 H   0  0  0  0  0  0  0  0  0  0  0  0
   -8.1502   20.0162  -32.1543 H   0  0  0  0  0  0  0  0  0  0  0  0
   -8.6483   17.6909  -32.8981 H   0  0  0  0  0  0  0  0  0  0  0  0
   -7.8736   15.5355  -33.7937 H   0  0  0  0  0  0  0  0  0  0  0  0
   -5.9973   14.1046  -34.6126 H   0  0  0  0  0  0  0  0  0  0  0  0
   -3.7560   15.0120  -34.6620 H   0  0  0  0  0  0  0  0  0  0  0  0
   -3.2047   17.2586  -33.9547 H   0  0  0  0  0  0  0  0  0  0  0  0
   -3.9555   19.4232  -33.0666 H   0  0  0  0  0  0  0  0  0  0  0  0
   -3.6454   20.8597  -31.6568 H   0  0  0  0  0  0  0  0  0  0  0  0
   -3.1605   23.1863  -30.9151 H   0  0  0  0  0  0  0  0  0  0  0  0
  1  2  1  0
  2  3  1  0
  3  4  2  0
  4  5  1  0
  5  6  2  0
  6  7  1  0
  7  8  2  0
  8  9  1  0
  9 10  2  0
 10 11  1  0
 11 12  2  0
 12 13  1  0
 13 14  2  0
 14 15  1  0
 15 16  2  0
  6 17  1  0
 17 18  2  0
 18  3  1  0
 16  7  1  0
 15 10  1  0
  1 19  1  0
  1 20  1  0
  1 21  1  0
  4 22  1  0
  5 23  1  0
  8 24  1  0
  9 25  1  0
 11 26  1  0
 12 27  1  0
 13 28  1  0
 14 29  1  0
 16 30  1  0
 17 31  1  0
 18 32  1  0
M  CHG  1  13   1
M  END
>  <UniqueID>  (30) 
25

>  <SMILES>  (30) 
COc1ccc(-c2ccc3cc[nH+]cc3c2)cc1

>  <Energy>  (30) 
42.35323538155407

>  <Genealogy>  (30) 
COc1ccc(-c2ccc3cc[nH+]cc3c2)cc1 (protonated)
COc1ccc(-c2ccc3cc[nH+]cc3c2)cc1 (3D coordinates assigned)
COc1ccc(-c2ccc3cc[nH+]cc3c2)cc1 (optimized conformer: 42.35323538155407 kcal/mol)

>  <smiles>  (30) 
COc1ccc(-c2ccc3ccncc3c2)cc1

>  <score_type>  (30) 
oracle

>  <origin>  (30) 
adg

>  <m_score__min__energy>  (30) 
-6.54

>  <m_primary>  (30) 
energy

$$$$
30:0
     RDKit          3D

 24 25  0  0  0  0  0  0  0  0999 V2000
   -8.2080   19.5240  -32.3470 C   0  0  0  0  0  0  0  0  0  0  0  0
   -8.2520   20.9950  -31.9460 C   0  0  0  0  0  0  0  0  0  0  0  0
   -7.0150   21.6760  -32.3210 N   0  0  0  0  0  0  0  0  0  0  0  0
   -5.7690   21.0050  -32.7200 C   0  0  0  0  0  0  0  0  0  0  0  0
   -4.6420   22.0600  -32.5130 C   0  0  0  0  0  0  0  0  0  0  0  0
   -5.3650   23.2360  -32.0690 N   0  0  0  0  0  0  0  0  0  0  0  0
   -4.9860   24.1720  -31.2200 N   0  0  0  0  0  0  0  0  0  0  0  0
   -6.1210   24.6080  -30.6210 C   0  0  0  0  0  0  0  0  0  0  0  0
   -6.1330   25.5900  -29.4990 C   0  0  0  0  0  0  0  0  0  0  0  0
   -7.2120   23.8350  -31.0210 C   0  0  0  0  0  0  0  0  0  0  0  0
   -6.6510   22.9910  -31.9520 C   0  0  0  0  0  0  0  0  0  0  0  0
   -8.1893   18.8979  -31.4428 H   0  0  0  0  0  0  0  0  0  0  0  0
   -9.0992   19.2798  -32.9437 H   0  0  0  0  0  0  0  0  0  0  0  0
   -7.3038   19.3335  -32.9437 H   0  0  0  0  0  0  0  0  0  0  0  0
   -9.0985   21.4811  -32.4531 H   0  0  0  0  0  0  0  0  0  0  0  0
   -8.3700   21.0577  -30.8542 H   0  0  0  0  0  0  0  0  0  0  0  0
   -5.5892   20.1219  -32.0893 H   0  0  0  0  0  0  0  0  0  0  0  0
   -5.8112   20.6526  -33.7612 H   0  0  0  0  0  0  0  0  0  0  0  0
   -3.9249   21.7261  -31.7486 H   0  0  0  0  0  0  0  0  0  0  0  0
   -4.0460   22.2376  -33.4203 H   0  0  0  0  0  0  0  0  0  0  0  0
   -6.1264   25.0512  -28.5400 H   0  0  0  0  0  0  0  0  0  0  0  0
   -5.2426   26.2326  -29.5646 H   0  0  0  0  0  0  0  0  0  0  0  0
   -7.0388   26.2107  -29.5646 H   0  0  0  0  0  0  0  0  0  0  0  0
   -8.2561   23.8872  -30.6787 H   0  0  0  0  0  0  0  0  0  0  0  0
  1  2  1  0
  2  3  1  0
  3  4  1  0
  4  5  1  0
  5  6  1  0
  6  7  1  0
  7  8  2  0
  8  9  1  0
  8 10  1  0
 10 11  2  0
 11  3  1  0
 11  6  1  0
  1 12  1  0
  1 13  1  0
  1 14  1  0
  2 15  1  0
  2 16  1  0
  4 17  1  0
  4 18  1  0
  5 19  1  0
  5 20  1  0
  9 21  1  0
  9 22  1  0
  9 23  1  0
 10 24  1  0
M  END
>  <UniqueID>  (31) 
26

>  <SMILES>  (31) 
CCN1CCn2nc(C)cc21

>  <Energy>  (31) 
77.6291579000615

>  <Genealogy>  (31) 
CCN1CCn2nc(C)cc21 (3D coordinates assigned)
CCN1CCn2nc(C)cc21 (nonaromatic ring conformer: 77.6291579000615 kcal/mol)

>  <smiles>  (31) 
CCN1CCn2nc(C)cc21

>  <score_type>  (31) 
oracle

>  <origin>  (31) 
adg

>  <m_score__min__energy>  (31) 
-5.1699999999999999

>  <m_primary>  (31) 
energy

$$$$
31:0
     RDKit          3D

 46 48  0  0  0  0  0  0  0  0999 V2000
   -2.4200   23.2740  -29.8450 C   0  0  0  0  0  0  0  0  0  0  0  0
   -3.7540   23.5040  -30.3830 N   0  0  0  0  0  0  0  0  0  0  0  0
   -4.7040   22.5680  -30.5610 C   0  0  0  0  0  0  0  0  0  0  0  0
   -5.8420   23.1980  -31.0210 C   0  0  0  0  0  0  0  0  0  0  0  0
   -7.1300   22.5540  -31.3510 C   0  0  0  0  0  0  0  0  0  0  0  0
   -7.2160   21.1970  -31.3380 N   0  0  0  0  0  0  0  0  0  0  0  0
   -8.3750   20.5550  -31.6400 C   0  0  0  0  0  0  0  0  0  0  0  0
   -8.4320   19.0570  -31.5720 C   0  0  0  0  0  0  0  0  0  0  0  0
   -7.0730   18.5150  -31.4800 N   0  0  0  0  0  0  0  0  0  0  0  0
   -6.9100   17.3770  -32.3950 C   0  0  0  0  0  0  0  0  0  0  0  0
   -5.8250   17.6780  -33.4640 C   0  0  1  0  0  0  0  0  0  0  0  0
   -5.9730   16.7760  -34.5400 O   0  0  0  0  0  0  0  0  0  0  0  0
   -5.9930   19.1240  -34.0320 C   0  0  0  0  0  0  0  0  0  0  0  0
   -5.3010   20.1980  -33.2940 N   0  0  0  0  0  0  0  0  0  0  0  0
   -3.8520   20.0420  -33.0790 C   0  0  0  0  0  0  0  0  0  0  0  0
   -3.1500   19.0630  -34.0560 C   0  0  0  0  0  0  0  0  0  0  0  0
   -3.4120   17.6810  -33.8620 O   0  0  0  0  0  0  0  0  0  0  0  0
   -4.4000   17.4580  -32.8760 C   0  0  0  0  0  0  0  0  0  0  0  0
   -9.5150   21.3020  -31.9490 C   0  0  0  0  0  0  0  0  0  0  0  0
   -9.4150   22.6920  -31.9610 C   0  0  0  0  0  0  0  0  0  0  0  0
   -8.2330   23.2950  -31.6660 N   0  0  0  0  0  0  0  0  0  0  0  0
   -5.5070   24.5400  -31.0880 C   0  0  0  0  0  0  0  0  0  0  0  0
   -4.2320   24.7010  -30.6860 N   0  0  0  0  0  0  0  0  0  0  0  0
   -2.4617   23.2812  -28.7458 H   0  0  0  0  0  0  0  0  0  0  0  0
   -2.0481   22.2985  -30.1915 H   0  0  0  0  0  0  0  0  0  0  0  0
   -1.7429   24.0687  -30.1915 H   0  0  0  0  0  0  0  0  0  0  0  0
   -4.5929   21.4899  -30.3728 H   0  0  0  0  0  0  0  0  0  0  0  0
   -9.0079   18.7528  -30.6855 H   0  0  0  0  0  0  0  0  0  0  0  0
   -8.9185   18.6692  -32.4792 H   0  0  0  0  0  0  0  0  0  0  0  0
   -6.9370   18.1660  -30.5010 H   0  0  0  0  0  0  0  0  0  0  0  0
   -6.6104   16.4902  -31.8173 H   0  0  0  0  0  0  0  0  0  0  0  0
   -7.8672   17.1966  -32.9062 H   0  0  0  0  0  0  0  0  0  0  0  0
   -5.0740   16.5970  -34.9240 H   0  0  0  0  0  0  0  0  0  0  0  0
   -5.6113   19.1258  -35.0636 H   0  0  0  0  0  0  0  0  0  0  0  0
   -7.0658   19.3514  -33.9458 H   0  0  0  0  0  0  0  0  0  0  0  0
   -5.7590   20.3130  -32.3600 H   0  0  0  0  0  0  0  0  0  0  0  0
   -3.3817   21.0303  -33.1885 H   0  0  0  0  0  0  0  0  0  0  0  0
   -3.7331   19.6131  -32.0730 H   0  0  0  0  0  0  0  0  0  0  0  0
   -3.4673   19.3237  -35.0765 H   0  0  0  0  0  0  0  0  0  0  0  0
   -2.0730   19.1853  -33.8685 H   0  0  0  0  0  0  0  0  0  0  0  0
   -4.3167   16.4245  -32.5088 H   0  0  0  0  0  0  0  0  0  0  0  0
   -4.2440   18.1699  -32.0521 H   0  0  0  0  0  0  0  0  0  0  0  0
  -10.4691   20.8044  -32.1774 H   0  0  0  0  0  0  0  0  0  0  0  0
  -10.2952   23.3030  -32.2099 H   0  0  0  0  0  0  0  0  0  0  0  0
   -8.1920   24.3380  -31.6840 H   0  0  0  0  0  0  0  0  0  0  0  0
   -6.1771   25.3476  -31.4178 H   0  0  0  0  0  0  0  0  0  0  0  0
  1  2  1  0
  2  3  1  0
  3  4  2  0
  4  5  1  0
  5  6  2  0
  6  7  1  0
  7  8  1  0
  8  9  1  0
  9 10  1  0
 10 11  1  0
 11 12  1  6
 11 13  1  0
 13 14  1  0
 14 15  1  0
 15 16  1  0
 16 17  1  0
 17 18  1  0
  7 19  2  0
 19 20  1  0
 20 21  2  0
  4 22  1  0
 22 23  2  0
 23  2  1  0
 21  5  1  0
 18 11  1  0
  1 24  1  0
  1 25  1  0
  1 26  1  0
  3 27  1  0
  8 28  1  0
  8 29  1  0
  9 30  1  0
 10 31  1  0
 10 32  1  0
 12 33  1  0
 13 34  1  0
 13 35  1  0
 14 36  1  0
 15 37  1  0
 15 38  1  0
 16 39  1  0
 16 40  1  0
 18 41  1  0
 18 42  1  0
 19 43  1  0
 20 44  1  0
 21 45  1  0
 22 46  1  0
M  CHG  1  21   1
M  END
>  <UniqueID>  (32) 
27

>  <SMILES>  (32) 
Cn1cc(-c2nc(CNC[C@@]3(O)CNCCOC3)cc[nH+]2)cn1

>  <Energy>  (32) 
93.73938662508245

>  <Genealogy>  (32) 
Cn1cc(-c2nc(CNCC3(O)CNCCOC3)cc[nH+]2)cn1 (protonated)
Cn1cc(-c2nc(CNC[C@@]3(O)CNCCOC3)cc[nH+]2)cn1 (chirality)
Cn1cc(-c2nc(CNC[C@@]3(O)CNCCOC3)cc[nH+]2)cn1 (3D coordinates assigned)
Cn1cc(-c2nc(CNC[C@@]3(O)CNCCOC3)cc[nH+]2)cn1 (nonaromatic ring conformer: 93.73938662508245 kcal/mol)

>  <smiles>  (32) 
Cn1cc(-c2nccc(CNCC3(O)CNCCOC3)n2)cn1

>  <score_type>  (32) 
oracle

>  <origin>  (32) 
adg

>  <m_score__min__energy>  (32) 
-6.0999999999999996

>  <m_primary>  (32) 
energy

$$$$
32:0
     RDKit          3D

 56 59  0  0  0  0  0  0  0  0999 V2000
    2.5040   24.8810  -27.4920 C   0  0  0  0  0  0  0  0  0  0  0  0
    1.2070   25.4530  -27.6310 O   0  0  0  0  0  0  0  0  0  0  0  0
    0.4680   26.0160  -26.5760 C   0  0  0  0  0  0  0  0  0  0  0  0
    0.6260   27.3620  -26.1900 C   0  0  0  0  0  0  0  0  0  0  0  0
   -0.1210   27.8820  -25.1300 C   0  0  0  0  0  0  0  0  0  0  0  0
   -1.0250   27.0690  -24.4430 C   0  0  0  0  0  0  0  0  0  0  0  0
   -1.1900   25.7360  -24.8180 C   0  0  0  0  0  0  0  0  0  0  0  0
   -0.4490   25.2030  -25.8830 C   0  0  0  0  0  0  0  0  0  0  0  0
   -0.6540   23.8390  -26.2780 N   0  0  0  0  0  0  0  0  0  0  0  0
   -1.0450   23.3740  -27.4840 C   0  0  0  0  0  0  0  0  0  0  0  0
   -1.3940   24.4050  -28.9130 S   0  0  0  0  0  0  0  0  0  0  0  0
   -3.2120   24.2630  -28.7630 C   0  0  0  0  0  0  0  0  0  0  0  0
   -3.8850   24.2260  -30.1100 C   0  0  0  0  0  0  0  0  0  0  0  0
   -3.9370   25.2770  -30.8050 O   0  0  0  0  0  0  0  0  0  0  0  0
   -4.4290   23.0000  -30.6400 N   0  0  0  0  0  0  0  0  0  0  0  0
   -4.0040   21.6920  -30.1200 C   0  0  0  0  0  0  0  0  0  0  0  0
   -4.0240   20.6360  -31.2290 C   0  0  0  0  0  0  0  0  0  0  0  0
   -5.3150   20.6190  -31.9360 N   0  0  0  0  0  0  0  0  0  0  0  0
   -5.7100   19.4450  -32.6830 C   0  0  0  0  0  0  0  0  0  0  0  0
   -6.7970   18.6570  -32.2570 C   0  0  0  0  0  0  0  0  0  0  0  0
   -7.1890   17.5320  -32.9900 C   0  0  0  0  0  0  0  0  0  0  0  0
   -6.4960   17.1750  -34.1490 C   0  0  0  0  0  0  0  0  0  0  0  0
   -5.4090   17.9430  -34.5770 C   0  0  0  0  0  0  0  0  0  0  0  0
   -5.0160   19.0700  -33.8500 C   0  0  0  0  0  0  0  0  0  0  0  0
   -6.2300   21.7630  -31.8230 C   0  0  0  0  0  0  0  0  0  0  0  0
   -5.4540   23.0780  -31.6920 C   0  0  0  0  0  0  0  0  0  0  0  0
   -1.1970   22.0340  -27.4750 N   0  0  0  0  0  0  0  0  0  0  0  0
   -0.9030   21.6390  -26.2470 N   0  0  0  0  0  0  0  0  0  0  0  0
   -0.5820   22.7260  -25.5210 C   0  0  0  0  0  0  0  0  0  0  0  0
   -0.1620   22.6870  -24.0860 C   0  0  0  0  0  0  0  0  0  0  0  0
    2.7453   24.7746  -26.4241 H   0  0  0  0  0  0  0  0  0  0  0  0
    2.5218   23.8916  -27.9723 H   0  0  0  0  0  0  0  0  0  0  0  0
    3.2466   25.5351  -27.9723 H   0  0  0  0  0  0  0  0  0  0  0  0
    1.3399   28.0055  -26.7251 H   0  0  0  0  0  0  0  0  0  0  0  0
    0.0033   28.9346  -24.8358 H   0  0  0  0  0  0  0  0  0  0  0  0
   -1.6074   27.4804  -23.6054 H   0  0  0  0  0  0  0  0  0  0  0  0
   -1.9048   25.0994  -24.2759 H   0  0  0  0  0  0  0  0  0  0  0  0
   -3.4529   23.3375  -28.2195 H   0  0  0  0  0  0  0  0  0  0  0  0
   -3.5798   25.1474  -28.2221 H   0  0  0  0  0  0  0  0  0  0  0  0
   -2.9826   21.7768  -29.7205 H   0  0  0  0  0  0  0  0  0  0  0  0
   -4.7001   21.3840  -29.3259 H   0  0  0  0  0  0  0  0  0  0  0  0
   -3.2245   20.8604  -31.9505 H   0  0  0  0  0  0  0  0  0  0  0  0
   -3.8705   19.6491  -30.7680 H   0  0  0  0  0  0  0  0  0  0  0  0
   -7.3419   18.9284  -31.3408 H   0  0  0  0  0  0  0  0  0  0  0  0
   -8.0442   16.9276  -32.6532 H   0  0  0  0  0  0  0  0  0  0  0  0
   -6.8053   16.2901  -34.7246 H   0  0  0  0  0  0  0  0  0  0  0  0
   -4.8618   17.6595  -35.4881 H   0  0  0  0  0  0  0  0  0  0  0  0
   -4.1586   19.6685  -34.1915 H   0  0  0  0  0  0  0  0  0  0  0  0
   -6.8630   21.8071  -32.7216 H   0  0  0  0  0  0  0  0  0  0  0  0
   -6.8471   21.6297  -30.9222 H   0  0  0  0  0  0  0  0  0  0  0  0
   -4.9643   23.3005  -32.6515 H   0  0  0  0  0  0  0  0  0  0  0  0
   -6.1657   23.8716  -31.4204 H   0  0  0  0  0  0  0  0  0  0  0  0
   -0.9240   20.6470  -25.9210 H   0  0  0  0  0  0  0  0  0  0  0  0
   -1.0498   22.7694  -23.4417 H   0  0  0  0  0  0  0  0  0  0  0  0
    0.3533   21.7371  -23.8805 H   0  0  0  0  0  0  0  0  0  0  0  0
    0.5194   23.5257  -23.8805 H   0  0  0  0  0  0  0  0  0  0  0  0
  1  2  1  0
  2  3  1  0
  3  4  2  0
  4  5  1  0
  5  6  2  0
  6  7  1  0
  7  8  2  0
  8  9  1  0
  9 10  1  0
 10 11  1  0
 11 12  1  0
 12 13  1  0
 13 14  2  0
 13 15  1  0
 15 16  1  0
 16 17  1  0
 17 18  1  0
 18 19  1  0
 19 20  2  0
 20 21  1  0
 21 22  2  0
 22 23  1  0
 23 24  2  0
 18 25  1  0
 25 26  1  0
 10 27  2  0
 27 28  1  0
 28 29  2  0
 29 30  1  0
  8  3  1  0
 29  9  1  0
 26 15  1  0
 24 19  1  0
  1 31  1  0
  1 32  1  0
  1 33  1  0
  4 34  1  0
  5 35  1  0
  6 36  1  0
  7 37  1  0
 12 38  1  0
 12 39  1  0
 16 40  1  0
 16 41  1  0
 17 42  1  0
 17 43  1  0
 20 44  1  0
 21 45  1  0
 22 46  1  0
 23 47  1  0
 24 48  1  0
 25 49  1  0
 25 50  1  0
 26 51  1  0
 26 52  1  0
 28 53  1  0
 30 54  1  0
 30 55  1  0
 30 56  1  0
M  CHG  1  28   1
M  END
>  <UniqueID>  (33) 
28

>  <SMILES>  (33) 
COc1ccccc1-n1c(SCC(=O)N2CCN(c3ccccc3)CC2)n[nH+]c1C

>  <Energy>  (33) 
100.26018964917347

>  <Genealogy>  (33) 
COc1ccccc1-n1c(SCC(=O)N2CCN(c3ccccc3)CC2)n[nH+]c1C (protonated)
COc1ccccc1-n1c(SCC(=O)N2CCN(c3ccccc3)CC2)n[nH+]c1C (3D coordinates assigned)
COc1ccccc1-n1c(SCC(=O)N2CCN(c3ccccc3)CC2)n[nH+]c1C (nonaromatic ring conformer: 100.26018964917347 kcal/mol)

>  <smiles>  (33) 
COc1ccccc1-n1c(C)nnc1SCC(=O)N1CCN(c2ccccc2)CC1

>  <score_type>  (33) 
oracle

>  <origin>  (33) 
adg

>  <m_score__min__energy>  (33) 
-8.8000000000000007

>  <m_primary>  (33) 
energy

$$$$
33:0
     RDKit          3D

 37 39  0  0  0  0  0  0  0  0999 V2000
   -4.2320   24.4960  -27.2230 C   0  0  0  0  0  0  0  0  0  0  0  0
   -4.0430   23.2340  -28.0550 C   0  0  0  0  0  0  0  0  0  0  0  0
   -3.5380   23.5780  -29.3890 N   0  0  0  0  0  0  0  0  0  0  0  0
   -2.1140   23.4580  -29.7090 C   0  0  0  0  0  0  0  0  0  0  0  0
   -1.3110   24.3130  -28.7750 C   0  0  0  0  0  0  0  0  0  0  0  0
   -0.4270   23.7300  -27.8540 C   0  0  0  0  0  0  0  0  0  0  0  0
    0.2430   24.5460  -26.9400 C   0  0  0  0  0  0  0  0  0  0  0  0
    0.0240   25.9250  -26.9480 C   0  0  0  0  0  0  0  0  0  0  0  0
   -0.8720   26.4690  -27.8710 C   0  0  0  0  0  0  0  0  0  0  0  0
   -1.5180   25.6580  -28.7510 N   0  0  0  0  0  0  0  0  0  0  0  0
   -4.4430   24.0870  -30.3800 C   0  0  0  0  0  0  0  0  0  0  0  0
   -4.2710   25.2450  -30.8490 O   0  0  0  0  0  0  0  0  0  0  0  0
   -5.5490   23.2530  -30.8750 C   0  0  0  0  0  0  0  0  0  0  0  0
   -6.8950   23.4260  -30.5620 C   0  0  0  0  0  0  0  0  0  0  0  0
   -7.5270   22.4000  -31.2200 C   0  0  0  0  0  0  0  0  0  0  0  0
   -8.8720   22.0410  -31.2690 C   0  0  0  0  0  0  0  0  0  0  0  0
   -9.2220   20.9080  -32.0350 C   0  0  0  0  0  0  0  0  0  0  0  0
   -8.2270   20.1730  -32.7210 C   0  0  0  0  0  0  0  0  0  0  0  0
   -6.8760   20.5620  -32.6460 C   0  0  0  0  0  0  0  0  0  0  0  0
   -6.5630   21.6850  -31.8810 C   0  0  0  0  0  0  0  0  0  0  0  0
   -5.3810   22.2060  -31.6670 O   0  0  0  0  0  0  0  0  0  0  0  0
   -4.1936   24.2396  -26.1540 H   0  0  0  0  0  0  0  0  0  0  0  0
   -3.4312   25.2129  -27.4571 H   0  0  0  0  0  0  0  0  0  0  0  0
   -5.2077   24.9468  -27.4571 H   0  0  0  0  0  0  0  0  0  0  0  0
   -3.3219   22.5723  -27.5529 H   0  0  0  0  0  0  0  0  0  0  0  0
   -5.0119   22.7236  -28.1584 H   0  0  0  0  0  0  0  0  0  0  0  0
   -1.8027   22.4084  -29.6024 H   0  0  0  0  0  0  0  0  0  0  0  0
   -1.9444   23.7910  -30.7436 H   0  0  0  0  0  0  0  0  0  0  0  0
   -0.2637   22.6422  -27.8521 H   0  0  0  0  0  0  0  0  0  0  0  0
    0.9419   24.1032  -26.2151 H   0  0  0  0  0  0  0  0  0  0  0  0
    0.5514   26.5758  -26.2351 H   0  0  0  0  0  0  0  0  0  0  0  0
   -1.0552   27.5535  -27.8862 H   0  0  0  0  0  0  0  0  0  0  0  0
   -7.3479   24.2058  -29.9321 H   0  0  0  0  0  0  0  0  0  0  0  0
   -9.6354   22.6206  -30.7292 H   0  0  0  0  0  0  0  0  0  0  0  0
  -10.2746   20.5949  -32.0988 H   0  0  0  0  0  0  0  0  0  0  0  0
   -8.5104   19.2926  -33.3164 H   0  0  0  0  0  0  0  0  0  0  0  0
   -6.0927   19.9982  -33.1738 H   0  0  0  0  0  0  0  0  0  0  0  0
  1  2  1  0
  2  3  1  0
  3  4  1  0
  4  5  1  0
  5  6  2  0
  6  7  1  0
  7  8  2  0
  8  9  1  0
  9 10  2  0
  3 11  1  0
 11 12  2  0
 11 13  1  0
 13 14  2  0
 14 15  1  0
 15 16  2  0
 16 17  1  0
 17 18  2  0
 18 19  1  0
 19 20  2  0
 20 21  1  0
 10  5  1  0
 21 13  1  0
 20 15  1  0
  1 22  1  0
  1 23  1  0
  1 24  1  0
  2 25  1  0
  2 26  1  0
  4 27  1  0
  4 28  1  0
  6 29  1  0
  7 30  1  0
  8 31  1  0
  9 32  1  0
 14 33  1  0
 16 34  1  0
 17 35  1  0
 18 36  1  0
 19 37  1  0
M  END
>  <UniqueID>  (34) 
29

>  <SMILES>  (34) 
CCN(Cc1ccccn1)C(=O)c1cc2ccccc2o1

>  <Energy>  (34) 
71.461583025699

>  <Genealogy>  (34) 
CCN(Cc1ccccn1)C(=O)c1cc2ccccc2o1 (3D coordinates assigned)
CCN(Cc1ccccn1)C(=O)c1cc2ccccc2o1 (optimized conformer: 71.461583025699 kcal/mol)

>  <smiles>  (34) 
CCN(Cc1ccccn1)C(=O)c1cc2ccccc2o1

>  <score_type>  (34) 
oracle

>  <origin>  (34) 
adg

>  <m_score__min__energy>  (34) 
-7.6200000000000001

>  <m_primary>  (34) 
energy

$$$$
34:0
     RDKit          3D

 45 47  0  0  0  0  0  0  0  0999 V2000
   -9.0840   21.1330  -31.9710 C   0  0  0  0  0  0  0  0  0  0  0  0
   -7.7990   21.8400  -31.6550 C   0  0  0  0  0  0  0  0  0  0  0  0
   -7.8080   23.1870  -31.2640 C   0  0  0  0  0  0  0  0  0  0  0  0
   -6.6180   23.8230  -30.9000 C   0  0  0  0  0  0  0  0  0  0  0  0
   -5.4110   23.1100  -30.8780 C   0  0  0  0  0  0  0  0  0  0  0  0
   -3.9190   23.8970  -30.3360 S   0  0  0  0  0  0  0  0  0  0  0  0
   -3.9260   25.3100  -30.8460 O   0  0  0  0  0  0  0  0  0  0  0  0
   -2.7390   23.1940  -30.9480 O   0  0  0  0  0  0  0  0  0  0  0  0
   -3.7280   23.9350  -28.5890 N   0  0  0  0  0  0  0  0  0  0  0  0
   -4.3630   22.8030  -27.9120 C   0  0  0  0  0  0  0  0  0  0  0  0
   -3.4680   21.5480  -27.7600 C   0  0  0  0  0  0  0  0  0  0  0  0
   -2.0840   21.6470  -28.2860 N   0  0  0  0  0  0  0  0  0  0  0  0
   -1.3140   20.4030  -28.4160 C   0  0  0  0  0  0  0  0  0  0  0  0
   -0.4880   20.2430  -29.5040 N   0  0  0  0  0  0  0  0  0  0  0  0
    0.3230   19.1660  -29.6720 C   0  0  0  0  0  0  0  0  0  0  0  0
    0.3590   18.1480  -28.7210 C   0  0  0  0  0  0  0  0  0  0  0  0
    1.2280   16.9320  -28.9200 C   0  0  0  0  0  0  0  0  0  0  0  0
    2.5560   17.3180  -28.9260 F   0  0  0  0  0  0  0  0  0  0  0  0
    1.0290   16.0150  -27.9020 F   0  0  0  0  0  0  0  0  0  0  0  0
    0.9330   16.3130  -30.1220 F   0  0  0  0  0  0  0  0  0  0  0  0
   -0.5100   18.2320  -27.6330 C   0  0  0  0  0  0  0  0  0  0  0  0
   -1.3480   19.3390  -27.4590 C   0  0  0  0  0  0  0  0  0  0  0  0
   -2.3680   19.2470  -26.0270 Cl  0  0  0  0  0  0  0  0  0  0  0  0
   -1.4550   22.9640  -28.5020 C   0  0  0  0  0  0  0  0  0  0  0  0
   -2.3530   24.1340  -28.1220 C   0  0  0  0  0  0  0  0  0  0  0  0
   -5.3970   21.7760  -31.3120 C   0  0  0  0  0  0  0  0  0  0  0  0
   -6.5850   21.1410  -31.6820 C   0  0  0  0  0  0  0  0  0  0  0  0
   -9.5894   20.8549  -31.0344 H   0  0  0  0  0  0  0  0  0  0  0  0
   -9.7353   21.7998  -32.5551 H   0  0  0  0  0  0  0  0  0  0  0  0
   -8.8694   20.2260  -32.5551 H   0  0  0  0  0  0  0  0  0  0  0  0
   -8.7557   23.7451  -31.2438 H   0  0  0  0  0  0  0  0  0  0  0  0
   -6.6284   24.8891  -30.6292 H   0  0  0  0  0  0  0  0  0  0  0  0
   -4.6642   23.1316  -26.9064 H   0  0  0  0  0  0  0  0  0  0  0  0
   -5.2113   22.5020  -28.5443 H   0  0  0  0  0  0  0  0  0  0  0  0
   -3.4006   21.3150  -26.6871 H   0  0  0  0  0  0  0  0  0  0  0  0
   -3.9535   20.7720  -28.3700 H   0  0  0  0  0  0  0  0  0  0  0  0
   -0.4540   20.9480  -30.2700 H   0  0  0  0  0  0  0  0  0  0  0  0
    0.9577   19.0969  -30.5678 H   0  0  0  0  0  0  0  0  0  0  0  0
   -0.5370   17.4134  -26.8987 H   0  0  0  0  0  0  0  0  0  0  0  0
   -0.5390   23.0164  -27.8953 H   0  0  0  0  0  0  0  0  0  0  0  0
   -1.2469   23.0513  -29.5786 H   0  0  0  0  0  0  0  0  0  0  0  0
   -2.3597   24.2374  -27.0269 H   0  0  0  0  0  0  0  0  0  0  0  0
   -1.9558   25.0412  -28.6008 H   0  0  0  0  0  0  0  0  0  0  0  0
   -4.4451   21.2269  -31.3612 H   0  0  0  0  0  0  0  0  0  0  0  0
   -6.5673   20.0870  -31.9961 H   0  0  0  0  0  0  0  0  0  0  0  0
  1  2  1  0
  2  3  2  0
  3  4  1  0
  4  5  2  0
  5  6  1  0
  6  7  2  0
  6  8  2  0
  6  9  1  0
  9 10  1  0
 10 11  1  0
 11 12  1  0
 12 13  1  0
 13 14  2  0
 14 15  1  0
 15 16  2  0
 16 17  1  0
 17 18  1  0
 17 19  1  0
 17 20  1  0
 16 21  1  0
 21 22  2  0
 22 23  1  0
 12 24  1  0
 24 25  1  0
  5 26  1  0
 26 27  2  0
 27  2  1  0
 25  9  1  0
 22 13  1  0
  1 28  1  0
  1 29  1  0
  1 30  1  0
  3 31  1  0
  4 32  1  0
 10 33  1  0
 10 34  1  0
 11 35  1  0
 11 36  1  0
 14 37  1  0
 15 38  1  0
 21 39  1  0
 24 40  1  0
 24 41  1  0
 25 42  1  0
 25 43  1  0
 26 44  1  0
 27 45  1  0
M  CHG  1  14   1
M  END
>  <UniqueID>  (35) 
30

>  <SMILES>  (35) 
Cc1ccc(S(=O)(=O)N2CCN(c3[nH+]cc(C(F)(F)F)cc3Cl)CC2)cc1

>  <Energy>  (35) 
65.26327271717123

>  <Genealogy>  (35) 
Cc1ccc(S(=O)(=O)N2CCN(c3[nH+]cc(C(F)(F)F)cc3Cl)CC2)cc1 (protonated)
Cc1ccc(S(=O)(=O)N2CCN(c3[nH+]cc(C(F)(F)F)cc3Cl)CC2)cc1 (3D coordinates assigned)
Cc1ccc(S(=O)(=O)N2CCN(c3[nH+]cc(C(F)(F)F)cc3Cl)CC2)cc1 (nonaromatic ring conformer: 65.26327271717123 kcal/mol)

>  <smiles>  (35) 
Cc1ccc(S(=O)(=O)N2CCN(c3ncc(C(F)(F)F)cc3Cl)CC2)cc1

>  <score_type>  (35) 
oracle

>  <origin>  (35) 
adg

>  <m_score__min__energy>  (35) 
-7.6600000000000001

>  <m_primary>  (35) 
energy

$$$$
35:0
     RDKit          3D

 49 52  0  0  0  0  0  0  0  0999 V2000
   -2.0010   21.7520  -31.3760 C   0  0  0  0  0  0  0  0  0  0  0  0
   -2.8000   22.9310  -31.3550 O   0  0  0  0  0  0  0  0  0  0  0  0
   -3.4030   23.4780  -30.2170 C   0  0  0  0  0  0  0  0  0  0  0  0
   -2.7110   23.5190  -28.9870 C   0  0  0  0  0  0  0  0  0  0  0  0
   -3.3110   24.0500  -27.8480 C   0  0  0  0  0  0  0  0  0  0  0  0
   -4.6090   24.5440  -27.9110 C   0  0  0  0  0  0  0  0  0  0  0  0
   -5.3100   24.5160  -29.1150 C   0  0  0  0  0  0  0  0  0  0  0  0
   -4.7220   24.0030  -30.2920 C   0  0  0  0  0  0  0  0  0  0  0  0
   -5.5880   23.9880  -31.5610 C   0  0  2  0  0  0  0  0  0  0  0  0
   -7.0910   24.1150  -31.2500 C   0  0  0  0  0  0  0  0  0  0  0  0
   -7.7070   22.8170  -31.0100 N   0  0  0  0  0  0  0  0  0  0  0  0
   -7.2990   21.7200  -31.5680 C   0  0  0  0  0  0  0  0  0  0  0  0
   -8.0180   20.5440  -31.3610 C   0  0  0  0  0  0  0  0  0  0  0  0
   -7.6040   19.3460  -31.9440 C   0  0  0  0  0  0  0  0  0  0  0  0
   -6.4430   19.2870  -32.7520 C   0  0  0  0  0  0  0  0  0  0  0  0
   -6.0330   18.1140  -33.3230 C   0  0  0  0  0  0  0  0  0  0  0  0
   -6.4650   16.7620  -32.7730 C   0  0  0  0  0  0  0  0  0  0  0  0
   -6.4990   15.6990  -33.8780 C   0  0  0  0  0  0  0  0  0  0  0  0
   -5.1480   15.5330  -34.5960 C   0  0  0  0  0  0  0  0  0  0  0  0
   -4.2830   16.8050  -34.5860 C   0  0  0  0  0  0  0  0  0  0  0  0
   -5.1140   18.0920  -34.5380 C   0  0  0  0  0  0  0  0  0  0  0  0
   -5.7170   20.4900  -32.9360 C   0  0  0  0  0  0  0  0  0  0  0  0
   -6.1200   21.6950  -32.3370 C   0  0  0  0  0  0  0  0  0  0  0  0
   -5.2940   22.8750  -32.4980 N   0  0  0  0  0  0  0  0  0  0  0  0
   -1.7867   21.4358  -30.3444 H   0  0  0  0  0  0  0  0  0  0  0  0
   -2.5431   20.9510  -31.8999 H   0  0  0  0  0  0  0  0  0  0  0  0
   -1.0561   21.9587  -31.8999 H   0  0  0  0  0  0  0  0  0  0  0  0
   -1.6851   23.1266  -28.9277 H   0  0  0  0  0  0  0  0  0  0  0  0
   -2.7576   24.0786  -26.8978 H   0  0  0  0  0  0  0  0  0  0  0  0
   -5.0834   24.9577  -27.0089 H   0  0  0  0  0  0  0  0  0  0  0  0
   -6.3401   24.9005  -29.1492 H   0  0  0  0  0  0  0  0  0  0  0  0
   -5.2925   24.8953  -32.1082 H   0  0  0  0  0  0  0  0  0  0  0  0
   -7.2172   24.7399  -30.3536 H   0  0  0  0  0  0  0  0  0  0  0  0
   -7.5827   24.5699  -32.1225 H   0  0  0  0  0  0  0  0  0  0  0  0
   -8.9203   20.5606  -30.7321 H   0  0  0  0  0  0  0  0  0  0  0  0
   -8.1901   18.4310  -31.7728 H   0  0  0  0  0  0  0  0  0  0  0  0
   -5.7543   16.4477  -31.9945 H   0  0  0  0  0  0  0  0  0  0  0  0
   -7.4777   16.8632  -32.3557 H   0  0  0  0  0  0  0  0  0  0  0  0
   -6.7774   14.7346  -33.4280 H   0  0  0  0  0  0  0  0  0  0  0  0
   -7.2318   16.0291  -34.6290 H   0  0  0  0  0  0  0  0  0  0  0  0
   -4.5872   14.7276  -34.0993 H   0  0  0  0  0  0  0  0  0  0  0  0
   -5.3691   15.3024  -35.6486 H   0  0  0  0  0  0  0  0  0  0  0  0
   -3.6282   16.7770  -33.7026 H   0  0  0  0  0  0  0  0  0  0  0  0
   -3.7068   16.8193  -35.5229 H   0  0  0  0  0  0  0  0  0  0  0  0
   -4.4343   18.9555  -34.4886 H   0  0  0  0  0  0  0  0  0  0  0  0
   -5.7361   18.1370  -35.4441 H   0  0  0  0  0  0  0  0  0  0  0  0
   -4.8142   20.4799  -33.5644 H   0  0  0  0  0  0  0  0  0  0  0  0
   -4.2840   22.6100  -32.4150 H   0  0  0  0  0  0  0  0  0  0  0  0
   -5.4440   23.2140  -33.4770 H   0  0  0  0  0  0  0  0  0  0  0  0
  1  2  1  0
  2  3  1  0
  3  4  2  0
  4  5  1  0
  5  6  2  0
  6  7  1  0
  7  8  2  0
  8  9  1  0
  9 10  1  0
 10 11  1  0
 11 12  2  0
 12 13  1  0
 13 14  2  0
 14 15  1  0
 15 16  2  3
 16 17  1  0
 17 18  1  0
 18 19  1  0
 19 20  1  0
 20 21  1  0
 15 22  1  0
 22 23  2  0
 23 24  1  0
  8  3  1  0
 24  9  1  0
 23 12  1  0
 21 16  1  0
  1 25  1  0
  1 26  1  0
  1 27  1  0
  4 28  1  0
  5 29  1  0
  6 30  1  0
  7 31  1  0
  9 32  1  6
 10 33  1  0
 10 34  1  0
 13 35  1  0
 14 36  1  0
 17 37  1  0
 17 38  1  0
 18 39  1  0
 18 40  1  0
 19 41  1  0
 19 42  1  0
 20 43  1  0
 20 44  1  0
 21 45  1  0
 21 46  1  0
 22 47  1  0
 24 48  1  0
 24 49  1  0
M  CHG  1  24   1
M  END
>  <UniqueID>  (36) 
31

>  <SMILES>  (36) 
COc1ccccc1[C@@H]1CN=c2ccc(=C3CCCCC3)cc2[NH2+]1

>  <Energy>  (36) 
74.77728681445437

>  <Genealogy>  (36) 
COc1ccccc1C1CN=c2ccc(=C3CCCCC3)cc2[NH2+]1 (protonated)
COc1ccccc1[C@@H]1CN=c2ccc(=C3CCCCC3)cc2[NH2+]1 (chirality)
COc1ccccc1[C@@H]1CN=c2ccc(=C3CCCCC3)cc2[NH2+]1 (3D coordinates assigned)
COc1ccccc1[C@@H]1CN=c2ccc(=C3CCCCC3)cc2[NH2+]1 (nonaromatic ring conformer: 74.77728681445437 kcal/mol)

>  <smiles>  (36) 
COc1ccccc1C1CN=c2ccc(=C3CCCCC3)cc2N1

>  <score_type>  (36) 
oracle

>  <origin>  (36) 
adg

>  <m_score__min__energy>  (36) 
-7.7000000000000002

>  <m_primary>  (36) 
energy

$$$$
36:0
     RDKit          3D

 39 40  0  0  0  0  0  0  0  0999 V2000
   -7.1108   16.9447  -32.5590 H   0  0  0  0  0  0  0  0  0  0  0  0
   -6.6720   17.8590  -32.1330 C   0  0  0  0  0  0  0  0  0  0  0  0
   -6.1330   17.8180  -30.9950 O   0  0  0  0  0  0  0  0  0  0  0  0
   -6.7210   19.0850  -32.8820 N   0  0  0  0  0  0  0  0  0  0  0  0
   -7.5230   20.1900  -32.4300 C   0  0  0  0  0  0  0  0  0  0  0  0
   -8.9190   20.0730  -32.3660 C   0  0  0  0  0  0  0  0  0  0  0  0
   -9.4018   19.1210  -32.6317 H   0  0  0  0  0  0  0  0  0  0  0  0
   -9.6990   21.1610  -31.9660 C   0  0  0  0  0  0  0  0  0  0  0  0
  -10.7939   21.0647  -31.9234 H   0  0  0  0  0  0  0  0  0  0  0  0
   -9.0920   22.3710  -31.6200 C   0  0  0  0  0  0  0  0  0  0  0  0
   -9.7120   23.2291  -31.3213 H   0  0  0  0  0  0  0  0  0  0  0  0
   -7.6950   22.4960  -31.6520 C   0  0  0  0  0  0  0  0  0  0  0  0
   -7.0780   23.8010  -31.3330 C   0  0  0  0  0  0  0  0  0  0  0  0
   -7.4994   24.6923  -31.8209 H   0  0  0  0  0  0  0  0  0  0  0  0
   -6.0450   23.9860  -30.4960 C   0  0  0  0  0  0  0  0  0  0  0  0
   -5.8283   23.1800  -29.7795 H   0  0  0  0  0  0  0  0  0  0  0  0
   -5.1750   25.1770  -30.4540 C   0  0  0  0  0  0  0  0  0  0  0  0
   -5.6650   26.3400  -30.4410 O   0  0  0  0  0  0  0  0  0  0  0  0
   -3.7900   24.9970  -30.4910 O   0  0  0  0  0  0  0  0  0  0  0  0
   -3.1620   23.7900  -30.0760 C   0  0  0  0  0  0  0  0  0  0  0  0
   -3.1398   23.7473  -28.9771 H   0  0  0  0  0  0  0  0  0  0  0  0
   -3.7270   22.9301  -30.4650 H   0  0  0  0  0  0  0  0  0  0  0  0
   -2.1335   23.7592  -30.4650 H   0  0  0  0  0  0  0  0  0  0  0  0
   -6.9170   21.4100  -32.0870 C   0  0  0  0  0  0  0  0  0  0  0  0
   -5.8245   21.5159  -32.1596 H   0  0  0  0  0  0  0  0  0  0  0  0
   -5.7890   19.2760  -33.9980 C   0  0  0  0  0  0  0  0  0  0  0  0
   -5.6710   18.3268  -34.5413 H   0  0  0  0  0  0  0  0  0  0  0  0
   -6.1881   20.0450  -34.6757 H   0  0  0  0  0  0  0  0  0  0  0  0
   -4.4500   19.7220  -33.4760 C   0  0  0  0  0  0  0  0  0  0  0  0
   -4.1560   21.0900  -33.3540 C   0  0  0  0  0  0  0  0  0  0  0  0
   -4.9208   21.8399  -33.6045 H   0  0  0  0  0  0  0  0  0  0  0  0
   -2.8940   21.5010  -32.9150 C   0  0  0  0  0  0  0  0  0  0  0  0
   -2.6707   22.5733  -32.8132 H   0  0  0  0  0  0  0  0  0  0  0  0
   -1.9150   20.5520  -32.6050 C   0  0  0  0  0  0  0  0  0  0  0  0
   -0.9238   20.8773  -32.2560 H   0  0  0  0  0  0  0  0  0  0  0  0
   -2.1970   19.1900  -32.7390 C   0  0  0  0  0  0  0  0  0  0  0  0
   -1.4251   18.4436  -32.5001 H   0  0  0  0  0  0  0  0  0  0  0  0
   -3.4580   18.7740  -33.1760 C   0  0  0  0  0  0  0  0  0  0  0  0
   -3.6740   17.7010  -33.2852 H   0  0  0  0  0  0  0  0  0  0  0  0
  1  2  1  0
  2  3  2  0
  2  4  1  0
  4  5  1  0
  5  6  2  0
  6  7  1  0
  6  8  1  0
  8  9  1  0
  8 10  2  0
 10 11  1  0
 10 12  1  0
 12 13  1  0
 13 14  1  0
 13 15  2  0
 15 16  1  0
 15 17  1  0
 17 18  2  0
 17 19  1  0
 19 20  1  0
 20 21  1  0
 20 22  1  0
 20 23  1  0
 12 24  2  0
 24 25  1  0
  4 26  1  0
 26 27  1  0
 26 28  1  0
 26 29  1  0
 29 30  2  0
 30 31  1  0
 30 32  1  0
 32 33  1  0
 32 34  2  0
 34 35  1  0
 34 36  1  0
 36 37  1  0
 36 38  2  0
 38 39  1  0
 24  5  1  0
 38 29  1  0
M  END
>  <UniqueID>  (37) 
32

>  <SMILES>  (37) 
COC(=O)/C=C\c1cccc(N(C=O)Cc2ccccc2)c1

>  <Energy>  (37) 
47.087927524692354

>  <Genealogy>  (37) 
COC(=O)/C=C\c1cccc(N(C=O)Cc2ccccc2)c1 (cis-trans isomerization)
COC(=O)/C=C\c1cccc(N(C=O)Cc2ccccc2)c1 (3D coordinates assigned)
COC(=O)/C=C\c1cccc(N(C=O)Cc2ccccc2)c1 (optimized conformer: 47.087927524692354 kcal/mol)

>  <smiles>  (37) 
COC(=O)C=Cc1cccc(N(C=O)Cc2ccccc2)c1

>  <score_type>  (37) 
oracle

>  <origin>  (37) 
adg

>  <m_score__min__energy>  (37) 
-7.96

>  <m_primary>  (37) 
energy

$$$$
37:0
     RDKit          3D

 39 41  0  0  0  0  0  0  0  0999 V2000
   -5.8330   20.1310  -33.1470 C   0  0  0  0  0  0  0  0  0  0  0  0
   -5.6720   21.2840  -32.1600 C   0  0  0  0  0  0  0  0  0  0  0  0
   -6.9840   21.8890  -31.8450 N   0  0  0  0  0  0  0  0  0  0  0  0
   -8.1300   21.0550  -32.2810 C   0  0  0  0  0  0  0  0  0  0  0  0
   -9.4730   21.4490  -31.6440 C   0  0  0  0  0  0  0  0  0  0  0  0
   -7.1000   22.3450  -30.4400 C   0  0  0  0  0  0  0  0  0  0  0  0
   -6.5970   23.7850  -30.3070 C   0  0  0  0  0  0  0  0  0  0  0  0
   -5.2440   23.8090  -29.7560 N   0  0  0  0  0  0  0  0  0  0  0  0
   -4.6690   22.7820  -28.5520 S   0  0  0  0  0  0  0  0  0  0  0  0
   -3.1720   23.4990  -28.4050 C   0  0  0  0  0  0  0  0  0  0  0  0
   -3.1100   24.5340  -29.2690 C   0  0  0  0  0  0  0  0  0  0  0  0
   -1.9400   25.2010  -29.1880 N   0  0  0  0  0  0  0  0  0  0  0  0
   -1.2610   24.5280  -28.2220 C   0  0  0  0  0  0  0  0  0  0  0  0
    0.0130   24.8150  -27.7320 C   0  0  0  0  0  0  0  0  0  0  0  0
    0.5260   23.9960  -26.7070 C   0  0  0  0  0  0  0  0  0  0  0  0
   -0.2350   22.9190  -26.1930 C   0  0  0  0  0  0  0  0  0  0  0  0
   -1.5200   22.6430  -26.6960 C   0  0  0  0  0  0  0  0  0  0  0  0
   -1.9960   23.4660  -27.7110 C   0  0  0  0  0  0  0  0  0  0  0  0
   -4.2650   24.7250  -30.0310 C   0  0  0  0  0  0  0  0  0  0  0  0
   -4.4040   25.6540  -30.8710 O   0  0  0  0  0  0  0  0  0  0  0  0
   -5.9644   19.1898  -32.5931 H   0  0  0  0  0  0  0  0  0  0  0  0
   -6.7148   20.3103  -33.7796 H   0  0  0  0  0  0  0  0  0  0  0  0
   -4.9358   20.0619  -33.7796 H   0  0  0  0  0  0  0  0  0  0  0  0
   -5.2172   20.9050  -31.2329 H   0  0  0  0  0  0  0  0  0  0  0  0
   -5.0284   22.0516  -32.6146 H   0  0  0  0  0  0  0  0  0  0  0  0
   -8.2264   21.1446  -33.3731 H   0  0  0  0  0  0  0  0  0  0  0  0
   -7.9149   20.0264  -31.9558 H   0  0  0  0  0  0  0  0  0  0  0  0
   -9.3810   21.4220  -30.5482 H   0  0  0  0  0  0  0  0  0  0  0  0
   -9.7465   22.4652  -31.9641 H   0  0  0  0  0  0  0  0  0  0  0  0
  -10.2522   20.7416  -31.9641 H   0  0  0  0  0  0  0  0  0  0  0  0
   -8.1541   22.2983  -30.1289 H   0  0  0  0  0  0  0  0  0  0  0  0
   -6.4895   21.6915  -29.7995 H   0  0  0  0  0  0  0  0  0  0  0  0
   -6.5914   24.2590  -31.2996 H   0  0  0  0  0  0  0  0  0  0  0  0
   -7.2662   24.3327  -29.6272 H   0  0  0  0  0  0  0  0  0  0  0  0
   -1.6370   26.0420  -29.7280 H   0  0  0  0  0  0  0  0  0  0  0  0
    0.5990   25.6549  -28.1335 H   0  0  0  0  0  0  0  0  0  0  0  0
    1.5289   24.1957  -26.3017 H   0  0  0  0  0  0  0  0  0  0  0  0
    0.1823   22.2911  -25.3920 H   0  0  0  0  0  0  0  0  0  0  0  0
   -2.1227   21.8111  -26.3028 H   0  0  0  0  0  0  0  0  0  0  0  0
  1  2  1  0
  2  3  1  0
  3  4  1  0
  4  5  1  0
  3  6  1  0
  6  7  1  0
  7  8  1  0
  8  9  1  0
  9 10  1  0
 10 11  2  0
 11 12  1  0
 12 13  1  0
 13 14  2  0
 14 15  1  0
 15 16  2  0
 16 17  1  0
 17 18  2  0
 11 19  1  0
 19 20  2  0
 19  8  1  0
 18 10  1  0
 18 13  1  0
  1 21  1  0
  1 22  1  0
  1 23  1  0
  2 24  1  0
  2 25  1  0
  4 26  1  0
  4 27  1  0
  5 28  1  0
  5 29  1  0
  5 30  1  0
  6 31  1  0
  6 32  1  0
  7 33  1  0
  7 34  1  0
 12 35  1  0
 14 36  1  0
 15 37  1  0
 16 38  1  0
 17 39  1  0
M  END
>  <UniqueID>  (38) 
33

>  <SMILES>  (38) 
CCN(CC)CCn1sc2c([nH]c3ccccc32)c1=O

>  <Energy>  (38) 
131.0256284162887

>  <Genealogy>  (38) 
CCN(CC)CCn1sc2c([nH]c3ccccc32)c1=O (3D coordinates assigned)
CCN(CC)CCn1sc2c([nH]c3ccccc32)c1=O (optimized conformer: 131.0256284162887 kcal/mol)

>  <smiles>  (38) 
CCN(CC)CCn1sc2c([nH]c3ccccc32)c1=O

>  <score_type>  (38) 
oracle

>  <origin>  (38) 
adg

>  <m_score__min__energy>  (38) 
-7.3200000000000003

>  <m_primary>  (38) 
energy

$$$$
38:0
     RDKit          3D

 40 41  0  0  0  0  0  0  0  0999 V2000
   -2.3090   25.6280  -26.0740 C   0  0  0  0  0  0  0  0  0  0  0  0
   -3.3180   25.0180  -26.9580 N   0  0  0  0  0  0  0  0  0  0  0  0
   -4.5850   24.8560  -26.2200 C   0  0  0  0  0  0  0  0  0  0  0  0
   -2.8100   23.7230  -27.4760 C   0  0  0  0  0  0  0  0  0  0  0  0
   -2.2180   23.8250  -28.8970 C   0  0  0  0  0  0  0  0  0  0  0  0
   -2.8170   24.9190  -29.6590 N   0  0  0  0  0  0  0  0  0  0  0  0
   -4.0110   24.8400  -30.4520 C   0  0  0  0  0  0  0  0  0  0  0  0
   -4.6200   25.9040  -30.7350 O   0  0  0  0  0  0  0  0  0  0  0  0
   -4.5580   23.5550  -30.9260 C   0  0  0  0  0  0  0  0  0  0  0  0
   -3.7390   22.6240  -31.5820 C   0  0  0  0  0  0  0  0  0  0  0  0
   -4.2700   21.4130  -32.0340 C   0  0  0  0  0  0  0  0  0  0  0  0
   -5.6320   21.1150  -31.8500 C   0  0  0  0  0  0  0  0  0  0  0  0
   -6.1940   19.8260  -32.3260 C   0  0  0  0  0  0  0  0  0  0  0  0
   -7.4390   19.3700  -31.8540 C   0  0  0  0  0  0  0  0  0  0  0  0
   -7.9670   18.1560  -32.3050 C   0  0  0  0  0  0  0  0  0  0  0  0
   -7.2590   17.3830  -33.2290 C   0  0  0  0  0  0  0  0  0  0  0  0
   -6.0220   17.8250  -33.7060 C   0  0  0  0  0  0  0  0  0  0  0  0
   -5.4910   19.0390  -33.2590 C   0  0  0  0  0  0  0  0  0  0  0  0
   -6.4540   22.0630  -31.2120 C   0  0  0  0  0  0  0  0  0  0  0  0
   -5.9220   23.2740  -30.7620 C   0  0  0  0  0  0  0  0  0  0  0  0
   -2.5903   25.4579  -25.0243 H   0  0  0  0  0  0  0  0  0  0  0  0
   -1.3271   25.1721  -26.2689 H   0  0  0  0  0  0  0  0  0  0  0  0
   -2.2564   26.7093  -26.2689 H   0  0  0  0  0  0  0  0  0  0  0  0
   -3.4770   25.6740  -27.7590 H   0  0  0  0  0  0  0  0  0  0  0  0
   -4.3853   24.8815  -25.1386 H   0  0  0  0  0  0  0  0  0  0  0  0
   -5.2712   25.6737  -26.4856 H   0  0  0  0  0  0  0  0  0  0  0  0
   -5.0433   23.8919  -26.4856 H   0  0  0  0  0  0  0  0  0  0  0  0
   -2.0258   23.3584  -26.7963 H   0  0  0  0  0  0  0  0  0  0  0  0
   -3.6660   23.0342  -27.5280 H   0  0  0  0  0  0  0  0  0  0  0  0
   -1.1343   23.9971  -28.8194 H   0  0  0  0  0  0  0  0  0  0  0  0
   -2.4330   22.8840  -29.4245 H   0  0  0  0  0  0  0  0  0  0  0  0
   -2.6740   22.8482  -31.7413 H   0  0  0  0  0  0  0  0  0  0  0  0
   -3.6165   20.6860  -32.5384 H   0  0  0  0  0  0  0  0  0  0  0  0
   -8.0008   19.9727  -31.1252 H   0  0  0  0  0  0  0  0  0  0  0  0
   -8.9417   17.8089  -31.9315 H   0  0  0  0  0  0  0  0  0  0  0  0
   -7.6750   16.4273  -33.5807 H   0  0  0  0  0  0  0  0  0  0  0  0
   -5.4652   17.2170  -34.4342 H   0  0  0  0  0  0  0  0  0  0  0  0
   -4.5172   19.3818  -33.6388 H   0  0  0  0  0  0  0  0  0  0  0  0
   -7.5231   21.8488  -31.0666 H   0  0  0  0  0  0  0  0  0  0  0  0
   -6.5773   24.0117  -30.2759 H   0  0  0  0  0  0  0  0  0  0  0  0
  1  2  1  0
  2  3  1  0
  2  4  1  0
  4  5  1  0
  5  6  1  0
  6  7  1  0
  7  8  2  0
  7  9  1  0
  9 10  2  0
 10 11  1  0
 11 12  2  0
 12 13  1  0
 13 14  2  0
 14 15  1  0
 15 16  2  0
 16 17  1  0
 17 18  2  0
 12 19  1  0
 19 20  2  0
 20  9  1  0
 18 13  1  0
  1 21  1  0
  1 22  1  0
  1 23  1  0
  2 24  1  0
  3 25  1  0
  3 26  1  0
  3 27  1  0
  4 28  1  0
  4 29  1  0
  5 30  1  0
  5 31  1  0
 10 32  1  0
 11 33  1  0
 14 34  1  0
 15 35  1  0
 16 36  1  0
 17 37  1  0
 18 38  1  0
 19 39  1  0
 20 40  1  0
M  CHG  2   2   1   6  -1
M  END
>  <UniqueID>  (39) 
34

>  <SMILES>  (39) 
C[NH+](C)CC[N-]C(=O)c1ccc(-c2ccccc2)cc1

>  <Energy>  (39) 
49.92881235323669

>  <Genealogy>  (39) 
C[NH+](C)CC[N-]C(=O)c1ccc(-c2ccccc2)cc1 (protonated)
C[NH+](C)CC[N-]C(=O)c1ccc(-c2ccccc2)cc1 (3D coordinates assigned)
C[NH+](C)CC[N-]C(=O)c1ccc(-c2ccccc2)cc1 (optimized conformer: 49.92881235323669 kcal/mol)

>  <smiles>  (39) 
CN(C)CCNC(=O)c1ccc(-c2ccccc2)cc1

>  <score_type>  (39) 
oracle

>  <origin>  (39) 
adg

>  <m_score__min__energy>  (39) 
-8.3399999999999999

>  <m_primary>  (39) 
energy

$$$$
39:0
     RDKit          3D

 22 23  0  0  0  0  0  0  0  0999 V2000
   -6.2950   16.7580  -32.8230 C   0  0  0  0  0  0  0  0  0  0  0  0
   -6.1410   17.7670  -33.4640 C   0  0  0  0  0  0  0  0  0  0  0  0
   -5.9560   18.9970  -34.2440 C   0  0  0  0  0  0  0  0  0  0  0  0
   -5.9730   20.1760  -33.3520 N   0  0  0  0  0  0  0  0  0  0  0  0
   -4.7960   20.8420  -33.0930 C   0  0  0  0  0  0  0  0  0  0  0  0
   -3.7020   20.4440  -33.5810 O   0  0  0  0  0  0  0  0  0  0  0  0
   -4.7900   21.9750  -32.2770 C   0  0  0  0  0  0  0  0  0  0  0  0
   -5.9420   22.4150  -31.7250 N   0  0  0  0  0  0  0  0  0  0  0  0
   -7.1120   21.7670  -31.9390 C   0  0  0  0  0  0  0  0  0  0  0  0
   -8.2860   22.2310  -31.3420 C   0  0  0  0  0  0  0  0  0  0  0  0
   -9.4810   21.5480  -31.5470 C   0  0  0  0  0  0  0  0  0  0  0  0
   -9.4870   20.4030  -32.3420 C   0  0  0  0  0  0  0  0  0  0  0  0
   -8.3380   19.9570  -32.9220 N   0  0  0  0  0  0  0  0  0  0  0  0
   -7.1440   20.6130  -32.7560 C   0  0  0  0  0  0  0  0  0  0  0  0
   -6.4355   15.8371  -32.2380 H   0  0  0  0  0  0  0  0  0  0  0  0
   -4.9902   18.9525  -34.7687 H   0  0  0  0  0  0  0  0  0  0  0  0
   -6.7758   19.0865  -34.9720 H   0  0  0  0  0  0  0  0  0  0  0  0
   -3.8480   22.5090  -32.0837 H   0  0  0  0  0  0  0  0  0  0  0  0
   -8.2663   23.1327  -30.7123 H   0  0  0  0  0  0  0  0  0  0  0  0
  -10.4124   21.9084  -31.0859 H   0  0  0  0  0  0  0  0  0  0  0  0
  -10.4273   19.8551  -32.5023 H   0  0  0  0  0  0  0  0  0  0  0  0
   -8.4150   19.0830  -33.4840 H   0  0  0  0  0  0  0  0  0  0  0  0
  1  2  3  0
  2  3  1  0
  3  4  1  0
  4  5  1  0
  5  6  2  0
  5  7  1  0
  7  8  2  0
  8  9  1  0
  9 10  2  0
 10 11  1  0
 11 12  2  0
 12 13  1  0
 13 14  2  0
 14  4  1  0
 14  9  1  0
  1 15  1  0
  3 16  1  0
  3 17  1  0
  7 18  1  0
 10 19  1  0
 11 20  1  0
 12 21  1  0
 13 22  1  0
M  CHG  1  13   1
M  END
>  <UniqueID>  (40) 
35

>  <SMILES>  (40) 
C#CCn1c(=O)cnc2ccc[nH+]c21

>  <Energy>  (40) 
30.543304358040544

>  <Genealogy>  (40) 
C#CCn1c(=O)cnc2ccc[nH+]c21 (protonated)
C#CCn1c(=O)cnc2ccc[nH+]c21 (3D coordinates assigned)
C#CCn1c(=O)cnc2ccc[nH+]c21 (optimized conformer: 30.543304358040544 kcal/mol)

>  <smiles>  (40) 
C#CCn1c(=O)cnc2cccnc21

>  <score_type>  (40) 
oracle

>  <origin>  (40) 
adg

>  <m_score__min__energy>  (40) 
-4.8899999999999997

>  <m_primary>  (40) 
energy

$$$$
40:0
     RDKit          3D

 50 52  0  0  0  0  0  0  0  0999 V2000
   -6.4350   11.4670  -35.6070 C   0  0  0  0  0  0  0  0  0  0  0  0
   -6.7510   11.4920  -34.1160 C   0  0  0  0  0  0  0  0  0  0  0  0
   -5.8050   12.2950  -33.4100 O   0  0  0  0  0  0  0  0  0  0  0  0
   -5.7050   13.6940  -33.4800 C   0  0  0  0  0  0  0  0  0  0  0  0
   -4.6430   14.3180  -32.8210 C   0  0  0  0  0  0  0  0  0  0  0  0
   -4.5040   15.7050  -32.8670 C   0  0  0  0  0  0  0  0  0  0  0  0
   -5.4360   16.4650  -33.5800 C   0  0  0  0  0  0  0  0  0  0  0  0
   -5.2930   17.8850  -33.6520 N   0  0  0  0  0  0  0  0  0  0  0  0
   -6.1680   19.0700  -33.6710 C   0  0  0  0  0  0  0  0  0  0  0  0
   -5.0690   20.0830  -33.8420 C   0  0  0  0  0  0  0  0  0  0  0  0
   -4.9140   21.0760  -32.7040 C   0  0  0  0  0  0  0  0  0  0  0  0
   -6.0160   21.4050  -31.8990 C   0  0  0  0  0  0  0  0  0  0  0  0
   -5.9040   22.3730  -30.8970 C   0  0  0  0  0  0  0  0  0  0  0  0
   -4.6820   23.0420  -30.6770 C   0  0  0  0  0  0  0  0  0  0  0  0
   -4.5110   24.1110  -29.6050 C   0  0  2  0  0  0  0  0  0  0  0  0
   -5.7490   25.0130  -29.4730 C   0  0  0  0  0  0  0  0  0  0  0  0
   -3.2850   24.9040  -29.7590 N   0  0  0  0  0  0  0  0  0  0  0  0
   -2.0930   24.8900  -28.9560 C   0  0  0  0  0  0  0  0  0  0  0  0
   -1.8010   23.8140  -27.9550 C   0  0  0  0  0  0  0  0  0  0  0  0
   -1.2400   25.8020  -29.1290 O   0  0  0  0  0  0  0  0  0  0  0  0
   -3.6070   22.7640  -31.5410 C   0  0  0  0  0  0  0  0  0  0  0  0
   -3.7250   21.8050  -32.5510 C   0  0  0  0  0  0  0  0  0  0  0  0
   -4.1950   18.8620  -33.7700 C   0  0  0  0  0  0  0  0  0  0  0  0
   -6.4670   15.8480  -34.2210 N   0  0  0  0  0  0  0  0  0  0  0  0
   -6.6190   14.4950  -34.1930 C   0  0  0  0  0  0  0  0  0  0  0  0
   -5.3477   11.3810  -35.7500 H   0  0  0  0  0  0  0  0  0  0  0  0
   -6.9355   10.6056  -36.0735 H   0  0  0  0  0  0  0  0  0  0  0  0
   -6.7938   12.3963  -36.0735 H   0  0  0  0  0  0  0  0  0  0  0  0
   -7.7585   11.9079  -33.9680 H   0  0  0  0  0  0  0  0  0  0  0  0
   -6.6998   10.4641  -33.7278 H   0  0  0  0  0  0  0  0  0  0  0  0
   -3.9132   13.7127  -32.2633 H   0  0  0  0  0  0  0  0  0  0  0  0
   -3.6686   16.1965  -32.3470 H   0  0  0  0  0  0  0  0  0  0  0  0
   -6.8730   19.0628  -34.5154 H   0  0  0  0  0  0  0  0  0  0  0  0
   -6.8432   19.2059  -32.8133 H   0  0  0  0  0  0  0  0  0  0  0  0
   -5.0271   20.8240  -34.6539 H   0  0  0  0  0  0  0  0  0  0  0  0
   -6.9778   20.8956  -32.0585 H   0  0  0  0  0  0  0  0  0  0  0  0
   -6.7775   22.6154  -30.2739 H   0  0  0  0  0  0  0  0  0  0  0  0
   -4.4033   23.5559  -28.6615 H   0  0  0  0  0  0  0  0  0  0  0  0
   -5.9723   25.1757  -28.4083 H   0  0  0  0  0  0  0  0  0  0  0  0
   -5.5513   25.9802  -29.9581 H   0  0  0  0  0  0  0  0  0  0  0  0
   -6.6091   24.5284  -29.9581 H   0  0  0  0  0  0  0  0  0  0  0  0
   -1.9110   24.2194  -26.9383 H   0  0  0  0  0  0  0  0  0  0  0  0
   -2.5056   22.9811  -28.0959 H   0  0  0  0  0  0  0  0  0  0  0  0
   -0.7720   23.4516  -28.0959 H   0  0  0  0  0  0  0  0  0  0  0  0
   -2.6595   23.3095  -31.4199 H   0  0  0  0  0  0  0  0  0  0  0  0
   -2.8799   21.6206  -33.2305 H   0  0  0  0  0  0  0  0  0  0  0  0
   -3.5942   18.7166  -34.6799 H   0  0  0  0  0  0  0  0  0  0  0  0
   -3.4248   18.8448  -32.9848 H   0  0  0  0  0  0  0  0  0  0  0  0
   -7.1590   16.4200  -34.7540 H   0  0  0  0  0  0  0  0  0  0  0  0
   -7.4577   14.0261  -34.7285 H   0  0  0  0  0  0  0  0  0  0  0  0
  1  2  1  0
  2  3  1  0
  3  4  1  0
  4  5  2  0
  5  6  1  0
  6  7  2  0
  7  8  1  0
  8  9  1  0
  9 10  1  0
 10 11  1  0
 11 12  2  0
 12 13  1  0
 13 14  2  0
 14 15  1  0
 15 16  1  0
 15 17  1  0
 17 18  1  0
 18 19  1  0
 18 20  2  0
 14 21  1  0
 21 22  2  0
 10 23  1  0
  7 24  1  0
 24 25  2  0
 25  4  1  0
 23  8  1  0
 22 11  1  0
  1 26  1  0
  1 27  1  0
  1 28  1  0
  2 29  1  0
  2 30  1  0
  5 31  1  0
  6 32  1  0
  9 33  1  0
  9 34  1  0
 10 35  1  0
 12 36  1  0
 13 37  1  0
 15 38  1  1
 16 39  1  0
 16 40  1  0
 16 41  1  0
 19 42  1  0
 19 43  1  0
 19 44  1  0
 21 45  1  0
 22 46  1  0
 23 47  1  0
 23 48  1  0
 24 49  1  0
 25 50  1  0
M  CHG  2  17  -1  24   1
M  END
>  <UniqueID>  (41) 
36

>  <SMILES>  (41) 
CCOc1ccc(N2CC(c3ccc([C@H](C)[N-]C(C)=O)cc3)C2)[nH+]c1

>  <Energy>  (41) 
97.24466367630744

>  <Genealogy>  (41) 
CCOc1ccc(N2CC(c3ccc(C(C)[N-]C(C)=O)cc3)C2)[nH+]c1 (protonated)
CCOc1ccc(N2CC(c3ccc([C@H](C)[N-]C(C)=O)cc3)C2)[nH+]c1 (chirality)
CCOc1ccc(N2CC(c3ccc([C@H](C)[N-]C(C)=O)cc3)C2)[nH+]c1 (3D coordinates assigned)
CCOc1ccc(N2CC(c3ccc([C@H](C)[N-]C(C)=O)cc3)C2)[nH+]c1 (nonaromatic ring conformer: 97.24466367630744 kcal/mol)

>  <smiles>  (41) 
CCOc1ccc(N2CC(c3ccc(C(C)NC(C)=O)cc3)C2)nc1

>  <score_type>  (41) 
oracle

>  <origin>  (41) 
adg

>  <m_score__min__energy>  (41) 
-9.3300000000000001

>  <m_primary>  (41) 
energy

$$$$
41:0
     RDKit          3D

 31 34  0  0  0  0  0  0  0  0999 V2000
   -4.1980   14.6750  -34.0380 F   0  0  0  0  0  0  0  0  0  0  0  0
   -4.9360   15.7450  -33.6530 C   0  0  0  0  0  0  0  0  0  0  0  0
   -5.2890   15.9030  -32.3120 C   0  0  0  0  0  0  0  0  0  0  0  0
   -6.0510   17.0060  -31.9110 C   0  0  0  0  0  0  0  0  0  0  0  0
   -6.4700   17.9660  -32.8530 C   0  0  0  0  0  0  0  0  0  0  0  0
   -7.2790   19.1440  -32.4440 C   0  0  0  0  0  0  0  0  0  0  0  0
   -6.7640   20.2730  -31.8700 N   0  0  0  0  0  0  0  0  0  0  0  0
   -7.7280   21.1470  -31.6190 N   0  0  0  0  0  0  0  0  0  0  0  0
   -7.7840   22.4630  -31.3740 C   0  0  0  0  0  0  0  0  0  0  0  0
   -6.6590   23.3290  -30.9710 C   0  0  0  0  0  0  0  0  0  0  0  0
   -6.8890   24.5920  -30.3970 C   0  0  0  0  0  0  0  0  0  0  0  0
   -5.8130   25.4070  -30.0300 C   0  0  0  0  0  0  0  0  0  0  0  0
   -4.5020   24.9740  -30.2410 C   0  0  0  0  0  0  0  0  0  0  0  0
   -4.2640   23.7280  -30.8280 C   0  0  0  0  0  0  0  0  0  0  0  0
   -5.3360   22.9110  -31.1980 C   0  0  0  0  0  0  0  0  0  0  0  0
   -9.0470   22.9040  -31.6220 N   0  0  0  0  0  0  0  0  0  0  0  0
   -9.7750   21.8640  -32.0450 N   0  0  0  0  0  0  0  0  0  0  0  0
   -8.9320   20.8190  -32.0120 C   0  0  0  0  0  0  0  0  0  0  0  0
   -8.9780   19.2990  -32.7150 S   0  0  0  0  0  0  0  0  0  0  0  0
   -6.1020   17.7960  -34.2010 C   0  0  0  0  0  0  0  0  0  0  0  0
   -5.3410   16.6910  -34.5970 C   0  0  0  0  0  0  0  0  0  0  0  0
   -4.9675   15.1587  -31.5686 H   0  0  0  0  0  0  0  0  0  0  0  0
   -6.3249   17.1244  -30.8522 H   0  0  0  0  0  0  0  0  0  0  0  0
   -5.7540   20.4640  -31.6960 H   0  0  0  0  0  0  0  0  0  0  0  0
   -7.9198   24.9406  -30.2359 H   0  0  0  0  0  0  0  0  0  0  0  0
   -5.9997   26.3907  -29.5744 H   0  0  0  0  0  0  0  0  0  0  0  0
   -3.6571   25.6133  -29.9453 H   0  0  0  0  0  0  0  0  0  0  0  0
   -3.2313   23.3899  -30.9990 H   0  0  0  0  0  0  0  0  0  0  0  0
   -5.1435   21.9359  -31.6693 H   0  0  0  0  0  0  0  0  0  0  0  0
   -6.4156   18.5385  -34.9496 H   0  0  0  0  0  0  0  0  0  0  0  0
   -5.0612   16.5671  -35.6536 H   0  0  0  0  0  0  0  0  0  0  0  0
  1  2  1  0
  2  3  2  0
  3  4  1  0
  4  5  2  0
  5  6  1  0
  6  7  2  0
  7  8  1  0
  8  9  1  0
  9 10  1  0
 10 11  2  0
 11 12  1  0
 12 13  2  0
 13 14  1  0
 14 15  2  0
  9 16  2  0
 16 17  1  0
 17 18  2  0
 18 19  1  0
  5 20  1  0
 20 21  2  0
 21  2  1  0
 19  6  1  0
 18  8  1  0
 15 10  1  0
  3 22  1  0
  4 23  1  0
  7 24  1  0
 11 25  1  0
 12 26  1  0
 13 27  1  0
 14 28  1  0
 15 29  1  0
 20 30  1  0
 21 31  1  0
M  CHG  1   7   1
M  END
>  <UniqueID>  (42) 
37

>  <SMILES>  (42) 
Fc1ccc(-c2[nH+]n3c(-c4ccccc4)nnc3s2)cc1

>  <Energy>  (42) 
134.63292530435098

>  <Genealogy>  (42) 
Fc1ccc(-c2[nH+]n3c(-c4ccccc4)nnc3s2)cc1 (protonated)
Fc1ccc(-c2[nH+]n3c(-c4ccccc4)nnc3s2)cc1 (3D coordinates assigned)
Fc1ccc(-c2[nH+]n3c(-c4ccccc4)nnc3s2)cc1 (optimized conformer: 134.63292530435098 kcal/mol)

>  <smiles>  (42) 
Fc1ccc(-c2nn3c(-c4ccccc4)nnc3s2)cc1

>  <score_type>  (42) 
oracle

>  <origin>  (42) 
adg

>  <m_score__min__energy>  (42) 
-7.8499999999999996

>  <m_primary>  (42) 
energy

$$$$
42:0
     RDKit          3D

 40 41  0  0  0  0  0  0  0  0999 V2000
   -2.2250   19.9300  -32.8430 C   0  0  0  0  0  0  0  0  0  0  0  0
   -3.4390   20.3580  -33.6590 C   0  0  0  0  0  0  0  0  0  0  0  0
   -4.6310   19.6190  -33.2270 N   0  0  0  0  0  0  0  0  0  0  0  0
   -4.8000   18.2120  -33.6100 C   0  0  0  0  0  0  0  0  0  0  0  0
   -5.5740   18.1070  -34.9190 C   0  0  0  0  0  0  0  0  0  0  0  0
   -5.7340   20.3380  -32.6500 C   0  0  0  0  0  0  0  0  0  0  0  0
   -7.0140   19.8900  -32.8180 N   0  0  0  0  0  0  0  0  0  0  0  0
   -8.0850   20.5610  -32.2860 C   0  0  0  0  0  0  0  0  0  0  0  0
   -9.4680   20.0550  -32.5210 C   0  0  0  0  0  0  0  0  0  0  0  0
   -7.8940   21.7250  -31.5950 N   0  0  0  0  0  0  0  0  0  0  0  0
   -6.6270   22.1810  -31.4290 C   0  0  0  0  0  0  0  0  0  0  0  0
   -5.5510   21.5210  -31.9390 C   0  0  0  0  0  0  0  0  0  0  0  0
   -4.4320   22.2760  -31.6550 C   0  0  0  0  0  0  0  0  0  0  0  0
   -4.9070   23.3860  -30.9510 C   0  0  0  0  0  0  0  0  0  0  0  0
   -4.0440   24.4770  -30.4540 C   0  0  0  0  0  0  0  0  0  0  0  0
   -4.2400   25.6570  -30.8560 O   0  0  0  0  0  0  0  0  0  0  0  0
   -3.0170   24.2090  -29.5440 O   0  0  0  0  0  0  0  0  0  0  0  0
   -3.2240   23.4740  -28.3450 C   0  0  0  0  0  0  0  0  0  0  0  0
   -6.2610   23.3210  -30.8140 N   0  0  0  0  0  0  0  0  0  0  0  0
   -7.1510   24.2880  -30.1730 C   0  0  0  0  0  0  0  0  0  0  0  0
   -2.4566   20.0117  -31.7708 H   0  0  0  0  0  0  0  0  0  0  0  0
   -1.9697   18.8877  -33.0846 H   0  0  0  0  0  0  0  0  0  0  0  0
   -1.3725   20.5818  -33.0846 H   0  0  0  0  0  0  0  0  0  0  0  0
   -3.6094   21.4355  -33.5177 H   0  0  0  0  0  0  0  0  0  0  0  0
   -3.2500   20.1418  -34.7208 H   0  0  0  0  0  0  0  0  0  0  0  0
   -3.8101   17.7493  -33.7361 H   0  0  0  0  0  0  0  0  0  0  0  0
   -5.3623   17.6922  -32.8203 H   0  0  0  0  0  0  0  0  0  0  0  0
   -6.6427   17.9620  -34.7024 H   0  0  0  0  0  0  0  0  0  0  0  0
   -5.4397   19.0316  -35.4996 H   0  0  0  0  0  0  0  0  0  0  0  0
   -5.1982   17.2516  -35.4996 H   0  0  0  0  0  0  0  0  0  0  0  0
   -9.9615   19.8744  -31.5546 H   0  0  0  0  0  0  0  0  0  0  0  0
  -10.0399   20.8021  -33.0908 H   0  0  0  0  0  0  0  0  0  0  0  0
   -9.4227   19.1152  -33.0908 H   0  0  0  0  0  0  0  0  0  0  0  0
   -3.3893   22.0524  -31.9248 H   0  0  0  0  0  0  0  0  0  0  0  0
   -3.0403   24.1264  -27.4786 H   0  0  0  0  0  0  0  0  0  0  0  0
   -4.2605   23.1069  -28.3143 H   0  0  0  0  0  0  0  0  0  0  0  0
   -2.5314   22.6199  -28.3143 H   0  0  0  0  0  0  0  0  0  0  0  0
   -7.0663   24.1960  -29.0801 H   0  0  0  0  0  0  0  0  0  0  0  0
   -6.8673   25.3060  -30.4783 H   0  0  0  0  0  0  0  0  0  0  0  0
   -8.1890   24.0895  -30.4783 H   0  0  0  0  0  0  0  0  0  0  0  0
  1  2  1  0
  2  3  1  0
  3  4  1  0
  4  5  1  0
  3  6  1  0
  6  7  2  0
  7  8  1  0
  8  9  1  0
  8 10  2  0
 10 11  1  0
 11 12  2  0
 12 13  1  0
 13 14  2  0
 14 15  1  0
 15 16  2  0
 15 17  1  0
 17 18  1  0
 14 19  1  0
 19 20  1  0
 12  6  1  0
 19 11  1  0
  1 21  1  0
  1 22  1  0
  1 23  1  0
  2 24  1  0
  2 25  1  0
  4 26  1  0
  4 27  1  0
  5 28  1  0
  5 29  1  0
  5 30  1  0
  9 31  1  0
  9 32  1  0
  9 33  1  0
 13 34  1  0
 18 35  1  0
 18 36  1  0
 18 37  1  0
 20 38  1  0
 20 39  1  0
 20 40  1  0
M  END
>  <UniqueID>  (43) 
38

>  <SMILES>  (43) 
CCN(CC)c1nc(C)nc2c1cc(C(=O)OC)n2C

>  <Energy>  (43) 
69.06920266434878

>  <Genealogy>  (43) 
CCN(CC)c1nc(C)nc2c1cc(C(=O)OC)n2C (3D coordinates assigned)
CCN(CC)c1nc(C)nc2c1cc(C(=O)OC)n2C (optimized conformer: 69.06920266434878 kcal/mol)

>  <smiles>  (43) 
CCN(CC)c1nc(C)nc2c1cc(C(=O)OC)n2C

>  <score_type>  (43) 
oracle

>  <origin>  (43) 
adg

>  <m_score__min__energy>  (43) 
-7.1799999999999997

>  <m_primary>  (43) 
energy

$$$$
43:0
     RDKit          3D

 36 38  0  0  0  0  0  0  0  0999 V2000
   -5.1940   25.3270  -30.8190 C   0  0  0  0  0  0  0  0  0  0  0  0
   -3.8340   24.9850  -30.5710 O   0  0  0  0  0  0  0  0  0  0  0  0
   -3.3920   24.2040  -29.4900 C   0  0  0  0  0  0  0  0  0  0  0  0
   -3.6910   24.5470  -28.1550 C   0  0  0  0  0  0  0  0  0  0  0  0
   -3.2220   23.7590  -27.1020 C   0  0  0  0  0  0  0  0  0  0  0  0
   -2.4490   22.6280  -27.3630 C   0  0  0  0  0  0  0  0  0  0  0  0
   -2.1450   22.2760  -28.6800 C   0  0  0  0  0  0  0  0  0  0  0  0
   -2.6240   23.0500  -29.7500 C   0  0  0  0  0  0  0  0  0  0  0  0
   -2.2510   22.6760  -31.1620 C   0  0  0  0  0  0  0  0  0  0  0  0
   -3.4150   22.1360  -31.8540 N   0  0  0  0  0  0  0  0  0  0  0  0
   -3.4540   21.6530  -33.1070 C   0  0  0  0  0  0  0  0  0  0  0  0
   -4.7130   21.3290  -33.4450 N   0  0  0  0  0  0  0  0  0  0  0  0
   -5.4330   21.6480  -32.3450 C   0  0  0  0  0  0  0  0  0  0  0  0
   -6.9040   21.5040  -32.2150 C   0  0  0  0  0  0  0  0  0  0  0  0
   -7.7250   22.6120  -31.9300 C   0  0  0  0  0  0  0  0  0  0  0  0
   -9.1090   22.4530  -31.8100 C   0  0  0  0  0  0  0  0  0  0  0  0
   -9.6890   21.1940  -31.9720 C   0  0  0  0  0  0  0  0  0  0  0  0
   -8.8860   20.0870  -32.2570 C   0  0  0  0  0  0  0  0  0  0  0  0
   -9.4480   18.8640  -32.4150 F   0  0  0  0  0  0  0  0  0  0  0  0
   -7.5000   20.2400  -32.3790 C   0  0  0  0  0  0  0  0  0  0  0  0
   -4.6460   22.1500  -31.3700 N   0  0  0  0  0  0  0  0  0  0  0  0
   -5.7193   25.4591  -29.8616 H   0  0  0  0  0  0  0  0  0  0  0  0
   -5.2376   26.2641  -31.3935 H   0  0  0  0  0  0  0  0  0  0  0  0
   -5.6756   24.5220  -31.3935 H   0  0  0  0  0  0  0  0  0  0  0  0
   -4.2969   25.4401  -27.9422 H   0  0  0  0  0  0  0  0  0  0  0  0
   -3.4629   24.0311  -26.0638 H   0  0  0  0  0  0  0  0  0  0  0  0
   -2.0781   22.0122  -26.5304 H   0  0  0  0  0  0  0  0  0  0  0  0
   -1.5273   21.3881  -28.8804 H   0  0  0  0  0  0  0  0  0  0  0  0
   -1.8921   23.5696  -31.6937 H   0  0  0  0  0  0  0  0  0  0  0  0
   -1.4572   21.9149  -31.1383 H   0  0  0  0  0  0  0  0  0  0  0  0
   -2.5787   21.5390  -33.7634 H   0  0  0  0  0  0  0  0  0  0  0  0
   -5.0360   20.9480  -34.3610 H   0  0  0  0  0  0  0  0  0  0  0  0
   -7.2753   23.6076  -31.8011 H   0  0  0  0  0  0  0  0  0  0  0  0
   -9.7432   23.3237  -31.5870 H   0  0  0  0  0  0  0  0  0  0  0  0
  -10.7781   21.0734  -31.8753 H   0  0  0  0  0  0  0  0  0  0  0  0
   -6.8720   19.3655  -32.6048 H   0  0  0  0  0  0  0  0  0  0  0  0
  1  2  1  0
  2  3  1  0
  3  4  2  0
  4  5  1  0
  5  6  2  0
  6  7  1  0
  7  8  2  0
  8  9  1  0
  9 10  1  0
 10 11  1  0
 11 12  2  0
 12 13  1  0
 13 14  1  0
 14 15  2  0
 15 16  1  0
 16 17  2  0
 17 18  1  0
 18 19  1  0
 18 20  2  0
 13 21  2  0
  8  3  1  0
 21 10  1  0
 20 14  1  0
  1 22  1  0
  1 23  1  0
  1 24  1  0
  4 25  1  0
  5 26  1  0
  6 27  1  0
  7 28  1  0
  9 29  1  0
  9 30  1  0
 11 31  1  0
 12 32  1  0
 15 33  1  0
 16 34  1  0
 17 35  1  0
 20 36  1  0
M  CHG  1  12   1
M  END
>  <UniqueID>  (44) 
39

>  <SMILES>  (44) 
COc1ccccc1Cn1c[nH+]c(-c2cccc(F)c2)n1

>  <Energy>  (44) 
72.09583658168455

>  <Genealogy>  (44) 
COc1ccccc1Cn1c[nH+]c(-c2cccc(F)c2)n1 (protonated)
COc1ccccc1Cn1c[nH+]c(-c2cccc(F)c2)n1 (3D coordinates assigned)
COc1ccccc1Cn1c[nH+]c(-c2cccc(F)c2)n1 (optimized conformer: 72.09583658168455 kcal/mol)

>  <smiles>  (44) 
COc1ccccc1Cn1cnc(-c2cccc(F)c2)n1

>  <score_type>  (44) 
oracle

>  <origin>  (44) 
adg

>  <m_score__min__energy>  (44) 
-7.0999999999999996

>  <m_primary>  (44) 
energy

$$$$
44:0
     RDKit          3D

 59 62  0  0  0  0  0  0  0  0999 V2000
   -3.0490   19.0050  -26.5030 C   0  0  0  0  0  0  0  0  0  0  0  0
   -1.5420   18.8810  -26.7190 C   0  0  0  0  0  0  0  0  0  0  0  0
   -1.0870   19.8020  -27.7730 N   0  0  0  0  0  0  0  0  0  0  0  0
   -0.5820   19.2520  -29.0430 C   0  0  0  0  0  0  0  0  0  0  0  0
    0.2960   18.0290  -28.7910 C   0  0  0  0  0  0  0  0  0  0  0  0
   -1.2040   21.2320  -27.5650 C   0  0  0  0  0  0  0  0  0  0  0  0
   -1.4530   21.6720  -26.4060 O   0  0  0  0  0  0  0  0  0  0  0  0
   -1.1050   22.2060  -28.7180 C   0  0  0  0  0  0  0  0  0  0  0  0
   -2.3610   23.0190  -28.8930 C   0  0  0  0  0  0  0  0  0  0  0  0
   -2.7210   24.1960  -28.2340 C   0  0  0  0  0  0  0  0  0  0  0  0
   -1.9310   24.9570  -27.2430 C   0  0  0  0  0  0  0  0  0  0  0  0
   -0.6100   25.3260  -27.5390 C   0  0  0  0  0  0  0  0  0  0  0  0
    0.1570   26.0280  -26.6030 C   0  0  0  0  0  0  0  0  0  0  0  0
   -0.3850   26.3550  -25.3450 C   0  0  0  0  0  0  0  0  0  0  0  0
    0.3440   27.0520  -24.3700 O   0  0  0  0  0  0  0  0  0  0  0  0
   -0.0160   27.1240  -22.9960 C   0  0  0  0  0  0  0  0  0  0  0  0
   -1.6970   25.9700  -25.0470 C   0  0  0  0  0  0  0  0  0  0  0  0
   -2.4650   25.2740  -25.9840 C   0  0  0  0  0  0  0  0  0  0  0  0
   -3.9550   24.5700  -28.6470 N   0  0  0  0  0  0  0  0  0  0  0  0
   -4.3140   23.6430  -29.5570 C   0  0  0  0  0  0  0  0  0  0  0  0
   -5.5040   23.6070  -30.2830 C   0  0  0  0  0  0  0  0  0  0  0  0
   -6.8560   24.9460  -30.0820 Br  0  0  0  0  0  0  0  0  0  0  0  0
   -5.6830   22.5510  -31.1900 C   0  0  0  0  0  0  0  0  0  0  0  0
   -4.6850   21.5610  -31.3560 C   0  0  0  0  0  0  0  0  0  0  0  0
   -4.8740   20.4450  -32.3180 C   0  0  0  0  0  0  0  0  0  0  0  0
   -6.1660   19.9740  -32.6210 C   0  0  0  0  0  0  0  0  0  0  0  0
   -6.3420   18.9220  -33.5270 C   0  0  0  0  0  0  0  0  0  0  0  0
   -5.2330   18.3310  -34.1370 C   0  0  0  0  0  0  0  0  0  0  0  0
   -3.9470   18.7910  -33.8460 C   0  0  0  0  0  0  0  0  0  0  0  0
   -3.7660   19.8410  -32.9420 C   0  0  0  0  0  0  0  0  0  0  0  0
   -3.5050   21.6570  -30.5900 C   0  0  0  0  0  0  0  0  0  0  0  0
   -3.3740   22.6980  -29.7250 N   0  0  0  0  0  0  0  0  0  0  0  0
   -3.2646   19.0227  -25.4245 H   0  0  0  0  0  0  0  0  0  0  0  0
   -3.4102   19.9359  -26.9645 H   0  0  0  0  0  0  0  0  0  0  0  0
   -3.5575   18.1457  -26.9645 H   0  0  0  0  0  0  0  0  0  0  0  0
   -1.0221   19.1225  -25.7801 H   0  0  0  0  0  0  0  0  0  0  0  0
   -1.3141   17.8505  -27.0291 H   0  0  0  0  0  0  0  0  0  0  0  0
   -1.4343   18.9606  -29.6744 H   0  0  0  0  0  0  0  0  0  0  0  0
    0.0209   20.0220  -29.5466 H   0  0  0  0  0  0  0  0  0  0  0  0
    0.4071   17.8743  -27.7076 H   0  0  0  0  0  0  0  0  0  0  0  0
   -0.1728   17.1419  -29.2419 H   0  0  0  0  0  0  0  0  0  0  0  0
    1.2864   18.1895  -29.2419 H   0  0  0  0  0  0  0  0  0  0  0  0
   -0.2645   22.8905  -28.5309 H   0  0  0  0  0  0  0  0  0  0  0  0
   -0.9527   21.6222  -29.6378 H   0  0  0  0  0  0  0  0  0  0  0  0
   -0.1744   25.0615  -28.5138 H   0  0  0  0  0  0  0  0  0  0  0  0
    1.1867   26.3255  -26.8504 H   0  0  0  0  0  0  0  0  0  0  0  0
    0.8737   26.9461  -22.3740 H   0  0  0  0  0  0  0  0  0  0  0  0
   -0.4239   28.1215  -22.7756 H   0  0  0  0  0  0  0  0  0  0  0  0
   -0.7762   26.3601  -22.7756 H   0  0  0  0  0  0  0  0  0  0  0  0
   -2.1278   26.2177  -24.0656 H   0  0  0  0  0  0  0  0  0  0  0  0
   -3.4930   24.9730  -25.7340 H   0  0  0  0  0  0  0  0  0  0  0  0
   -4.4960   25.4090  -28.3440 H   0  0  0  0  0  0  0  0  0  0  0  0
   -6.6101   22.4920  -31.7790 H   0  0  0  0  0  0  0  0  0  0  0  0
   -7.0423   20.4358  -32.1426 H   0  0  0  0  0  0  0  0  0  0  0  0
   -7.3546   18.5602  -33.7590 H   0  0  0  0  0  0  0  0  0  0  0  0
   -5.3728   17.5026  -34.8471 H   0  0  0  0  0  0  0  0  0  0  0  0
   -3.0751   18.3260  -34.3292 H   0  0  0  0  0  0  0  0  0  0  0  0
   -2.7504   20.1982  -32.7163 H   0  0  0  0  0  0  0  0  0  0  0  0
   -2.7076   20.9059  -30.6900 H   0  0  0  0  0  0  0  0  0  0  0  0
  1  2  1  0
  2  3  1  0
  3  4  1  0
  4  5  1  0
  3  6  1  0
  6  7  2  0
  6  8  1  0
  8  9  1  0
  9 10  2  0
 10 11  1  0
 11 12  2  0
 12 13  1  0
 13 14  2  0
 14 15  1  0
 15 16  1  0
 14 17  1  0
 17 18  2  0
 10 19  1  0
 19 20  2  0
 20 21  1  0
 21 22  1  0
 21 23  2  0
 23 24  1  0
 24 25  1  0
 25 26  2  0
 26 27  1  0
 27 28  2  0
 28 29  1  0
 29 30  2  0
 24 31  2  0
 31 32  1  0
 32  9  1  0
 18 11  1  0
 32 20  1  0
 30 25  1  0
  1 33  1  0
  1 34  1  0
  1 35  1  0
  2 36  1  0
  2 37  1  0
  4 38  1  0
  4 39  1  0
  5 40  1  0
  5 41  1  0
  5 42  1  0
  8 43  1  0
  8 44  1  0
 12 45  1  0
 13 46  1  0
 16 47  1  0
 16 48  1  0
 16 49  1  0
 17 50  1  0
 18 51  1  0
 19 52  1  0
 23 53  1  0
 26 54  1  0
 27 55  1  0
 28 56  1  0
 29 57  1  0
 30 58  1  0
 31 59  1  0
M  CHG  1  19   1
M  END
>  <UniqueID>  (45) 
40

>  <SMILES>  (45) 
CCN(CC)C(=O)Cc1c(-c2ccc(OC)cc2)[nH+]c2c(Br)cc(-c3ccccc3)cn12

>  <Energy>  (45) 
101.40702983205618

>  <Genealogy>  (45) 
CCN(CC)C(=O)Cc1c(-c2ccc(OC)cc2)[nH+]c2c(Br)cc(-c3ccccc3)cn12 (protonated)
CCN(CC)C(=O)Cc1c(-c2ccc(OC)cc2)[nH+]c2c(Br)cc(-c3ccccc3)cn12 (3D coordinates assigned)
CCN(CC)C(=O)Cc1c(-c2ccc(OC)cc2)[nH+]c2c(Br)cc(-c3ccccc3)cn12 (optimized conformer: 101.40702983205618 kcal/mol)

>  <smiles>  (45) 
CCN(CC)C(=O)Cc1c(-c2ccc(OC)cc2)nc2c(Br)cc(-c3ccccc3)cn12

>  <score_type>  (45) 
oracle

>  <origin>  (45) 
adg

>  <m_score__min__energy>  (45) 
-8.3499999999999996

>  <m_primary>  (45) 
energy

$$$$
45:0
     RDKit          3D

 52 55  0  0  0  0  0  0  0  0999 V2000
   -0.3923   25.4736  -28.8149 H   0  0  0  0  0  0  0  0  0  0  0  0
   -1.2280   24.7890  -29.0220 C   0  0  0  0  0  0  0  0  0  0  0  0
   -2.4430   25.2860  -29.3420 N   0  0  0  0  0  0  0  0  0  0  0  0
   -3.5050   24.4820  -29.5960 C   0  0  0  0  0  0  0  0  0  0  0  0
   -4.7290   25.0830  -29.9090 C   0  0  0  0  0  0  0  0  0  0  0  0
   -4.8017   26.1794  -29.9592 H   0  0  0  0  0  0  0  0  0  0  0  0
   -5.8540   24.3050  -30.1570 C   0  0  0  0  0  0  0  0  0  0  0  0
   -7.0380   24.8960  -30.4560 F   0  0  0  0  0  0  0  0  0  0  0  0
   -5.7640   22.9190  -30.0900 C   0  0  0  0  0  0  0  0  0  0  0  0
   -6.6559   22.3046  -30.2826 H   0  0  0  0  0  0  0  0  0  0  0  0
   -4.5500   22.3000  -29.7800 C   0  0  0  0  0  0  0  0  0  0  0  0
   -4.5041   21.2025  -29.7225 H   0  0  0  0  0  0  0  0  0  0  0  0
   -3.3760   23.0580  -29.5380 C   0  0  0  0  0  0  0  0  0  0  0  0
   -2.0770   22.5200  -29.2210 C   0  0  0  0  0  0  0  0  0  0  0  0
   -1.7380   21.2550  -29.1630 N   0  0  0  0  0  0  0  0  0  0  0  0
   -1.0500   20.3290  -30.0580 C   0  0  0  0  0  0  0  0  0  0  0  0
   -0.3752   19.6922  -29.4671 H   0  0  0  0  0  0  0  0  0  0  0  0
   -1.8034   19.7167  -30.5752 H   0  0  0  0  0  0  0  0  0  0  0  0
   -0.2300   21.0880  -31.1110 C   0  0  0  0  0  0  0  0  0  0  0  0
    0.0092   22.0909  -30.7275 H   0  0  0  0  0  0  0  0  0  0  0  0
    0.6929   20.5243  -31.3121 H   0  0  0  0  0  0  0  0  0  0  0  0
   -1.0220   21.2260  -32.4290 C   0  0  0  0  0  0  0  0  0  0  0  0
   -0.8881   22.2512  -32.8047 H   0  0  0  0  0  0  0  0  0  0  0  0
   -0.6256   20.4620  -33.1139 H   0  0  0  0  0  0  0  0  0  0  0  0
   -2.4780   20.9650  -32.3020 N   0  0  0  0  0  0  0  0  0  0  0  0
   -2.7130   21.1980  -31.3070 H   0  0  0  0  0  0  0  0  0  0  0  0
   -2.8120   19.5250  -32.4900 C   0  0  0  0  0  0  0  0  0  0  0  0
   -2.0466   19.0754  -33.1396 H   0  0  0  0  0  0  0  0  0  0  0  0
   -2.8390   19.0734  -31.4874 H   0  0  0  0  0  0  0  0  0  0  0  0
   -4.1960   19.2740  -33.1270 C   0  0  0  0  0  0  0  0  0  0  0  0
   -4.0914   19.2780  -34.2220 H   0  0  0  0  0  0  0  0  0  0  0  0
   -4.5676   18.3013  -32.7725 H   0  0  0  0  0  0  0  0  0  0  0  0
   -5.1650   20.3080  -32.7360 N   0  0  0  0  0  0  0  0  0  0  0  0
   -6.5560   19.9690  -32.5580 C   0  0  0  0  0  0  0  0  0  0  0  0
   -7.5320   20.9790  -32.4440 C   0  0  0  0  0  0  0  0  0  0  0  0
   -7.2325   22.0362  -32.4955 H   0  0  0  0  0  0  0  0  0  0  0  0
   -8.8780   20.6470  -32.2660 C   0  0  0  0  0  0  0  0  0  0  0  0
   -9.6329   21.4423  -32.1793 H   0  0  0  0  0  0  0  0  0  0  0  0
   -9.2660   19.3070  -32.1980 C   0  0  0  0  0  0  0  0  0  0  0  0
  -10.3258   19.0479  -32.0578 H   0  0  0  0  0  0  0  0  0  0  0  0
   -8.3090   18.2960  -32.3080 C   0  0  0  0  0  0  0  0  0  0  0  0
   -8.6158   17.2410  -32.2538 H   0  0  0  0  0  0  0  0  0  0  0  0
   -6.9610   18.6230  -32.4870 C   0  0  0  0  0  0  0  0  0  0  0  0
   -6.2118   17.8222  -32.5729 H   0  0  0  0  0  0  0  0  0  0  0  0
   -4.7730   21.7230  -32.7840 C   0  0  0  0  0  0  0  0  0  0  0  0
   -5.3806   22.2395  -33.5417 H   0  0  0  0  0  0  0  0  0  0  0  0
   -4.9378   22.1671  -31.7912 H   0  0  0  0  0  0  0  0  0  0  0  0
   -3.2920   21.8680  -33.1450 C   0  0  0  0  0  0  0  0  0  0  0  0
   -3.1474   21.6075  -34.2039 H   0  0  0  0  0  0  0  0  0  0  0  0
   -2.9769   22.9075  -32.9717 H   0  0  0  0  0  0  0  0  0  0  0  0
   -1.0320   23.4170  -28.9540 C   0  0  0  0  0  0  0  0  0  0  0  0
   -0.0395   23.0257  -28.6859 H   0  0  0  0  0  0  0  0  0  0  0  0
  1  2  1  0
  2  3  1  0
  3  4  1  0
  4  5  2  0
  5  6  1  0
  5  7  1  0
  7  8  1  0
  7  9  2  0
  9 10  1  0
  9 11  1  0
 11 12  1  0
 11 13  2  0
 13 14  1  0
 14 15  2  0
 15 16  1  0
 16 17  1  0
 16 18  1  0
 16 19  1  0
 19 20  1  0
 19 21  1  0
 19 22  1  0
 22 23  1  0
 22 24  1  0
 22 25  1  0
 25 26  1  0
 25 27  1  0
 27 28  1  0
 27 29  1  0
 27 30  1  0
 30 31  1  0
 30 32  1  0
 30 33  1  0
 33 34  1  0
 34 35  2  0
 35 36  1  0
 35 37  1  0
 37 38  1  0
 37 39  2  0
 39 40  1  0
 39 41  1  0
 41 42  1  0
 41 43  2  0
 43 44  1  0
 33 45  1  0
 45 46  1  0
 45 47  1  0
 45 48  1  0
 48 49  1  0
 48 50  1  0
 14 51  1  0
 51 52  1  0
 51  2  2  0
 13  4  1  0
 48 25  1  0
 43 34  1  0
M  CHG  2   3  -1  25   1
M  END
>  <UniqueID>  (46) 
41

>  <SMILES>  (46) 
Fc1ccc2/c(=N\CCC[NH+]3CCN(c4ccccc4)CC3)cc[n-]c2c1

>  <Energy>  (46) 
86.51797089021278

>  <Genealogy>  (46) 
Fc1ccc2c(=NCCC[NH+]3CCN(c4ccccc4)CC3)cc[n-]c2c1 (protonated)
Fc1ccc2/c(=N\CCC[NH+]3CCN(c4ccccc4)CC3)cc[n-]c2c1 (cis-trans isomerization)
Fc1ccc2/c(=N\CCC[NH+]3CCN(c4ccccc4)CC3)cc[n-]c2c1 (3D coordinates assigned)
Fc1ccc2/c(=N\CCC[NH+]3CCN(c4ccccc4)CC3)cc[n-]c2c1 (nonaromatic ring conformer: 86.51797089021278 kcal/mol)

>  <smiles>  (46) 
Fc1ccc2c(=NCCCN3CCN(c4ccccc4)CC3)cc[nH]c2c1

>  <score_type>  (46) 
oracle

>  <origin>  (46) 
adg

>  <m_score__min__energy>  (46) 
-10.08

>  <m_primary>  (46) 
energy

$$$$
46:0
     RDKit          3D

 23 23  0  0  0  0  0  0  0  0999 V2000
   -4.5580   20.6300  -32.3950 C   0  0  0  0  0  0  0  0  0  0  0  0
   -5.7430   20.7890  -33.1660 O   0  0  0  0  0  0  0  0  0  0  0  0
   -7.0330   20.6270  -32.6450 C   0  0  0  0  0  0  0  0  0  0  0  0
   -7.7750   19.4330  -32.7240 C   0  0  0  0  0  0  0  0  0  0  0  0
   -9.0280   19.5170  -32.1350 C   0  0  0  0  0  0  0  0  0  0  0  0
   -9.2150   21.0680  -31.5170 S   0  0  0  0  0  0  0  0  0  0  0  0
   -7.7080   21.6560  -31.9890 C   0  0  0  0  0  0  0  0  0  0  0  0
   -7.2010   23.0220  -31.7410 C   0  0  0  0  0  0  0  0  0  0  0  0
   -6.9980   23.8000  -32.7120 O   0  0  0  0  0  0  0  0  0  0  0  0
   -6.8760   23.4970  -30.3530 C   0  0  0  0  0  0  0  0  0  0  0  0
   -6.1230   24.8290  -30.4000 C   0  0  0  0  0  0  0  0  0  0  0  0
   -4.7430   24.6100  -30.8140 N   0  0  0  0  0  0  0  0  0  0  0  0
   -4.4110   23.5210  -31.3280 O   0  0  0  0  0  0  0  0  0  0  0  0
   -3.8640   25.6670  -30.8410 O   0  0  0  0  0  0  0  0  0  0  0  0
   -4.8096   20.6638  -31.3247 H   0  0  0  0  0  0  0  0  0  0  0  0
   -4.0935   19.6615  -32.6321 H   0  0  0  0  0  0  0  0  0  0  0  0
   -3.8546   21.4418  -32.6321 H   0  0  0  0  0  0  0  0  0  0  0  0
   -7.3968   18.5200  -33.2071 H   0  0  0  0  0  0  0  0  0  0  0  0
   -9.7711   18.7077  -32.0817 H   0  0  0  0  0  0  0  0  0  0  0  0
   -7.8108   23.6302  -29.7887 H   0  0  0  0  0  0  0  0  0  0  0  0
   -6.2381   22.7470  -29.8626 H   0  0  0  0  0  0  0  0  0  0  0  0
   -6.6161   25.5005  -31.1183 H   0  0  0  0  0  0  0  0  0  0  0  0
   -6.1305   25.2823  -29.3978 H   0  0  0  0  0  0  0  0  0  0  0  0
  1  2  1  0
  2  3  1  0
  3  4  1  0
  4  5  2  0
  5  6  1  0
  6  7  1  0
  7  8  1  0
  8  9  2  0
  8 10  1  0
 10 11  1  0
 11 12  1  0
 12 13  2  0
 12 14  1  0
  7  3  2  0
  1 15  1  0
  1 16  1  0
  1 17  1  0
  4 18  1  0
  5 19  1  0
 10 20  1  0
 10 21  1  0
 11 22  1  0
 11 23  1  0
M  CHG  2  12   1  14  -1
M  END
>  <UniqueID>  (47) 
42

>  <SMILES>  (47) 
COc1ccsc1C(=O)CC[N+](=O)[O-]

>  <Energy>  (47) 
41.20650556269653

>  <Genealogy>  (47) 
COc1ccsc1C(=O)CC[N+](=O)[O-] (3D coordinates assigned)
COc1ccsc1C(=O)CC[N+](=O)[O-] (optimized conformer: 41.20650556269653 kcal/mol)

>  <smiles>  (47) 
COc1ccsc1C(=O)CC[N+](=O)[O-]

>  <score_type>  (47) 
oracle

>  <origin>  (47) 
adg

>  <m_score__min__energy>  (47) 
-6.2300000000000004

>  <m_primary>  (47) 
energy

$$$$
