0:0
     RDKit          3D

 50 52  0  0  0  0  0  0  0  0999 V2000
   -1.6970   21.2540  -30.2810 C   0  0  0  0  0  0  0  0  0  0  0  0
   -2.0720   22.7340  -30.3930 C   0  0  0  0  0  0  0  0  0  0  0  0
   -2.8820   23.2390  -29.2670 N   0  0  0  0  0  0  0  0  0  0  0  0
   -2.1800   23.5760  -28.0110 C   0  0  0  0  0  0  0  0  0  0  0  0
   -1.5640   24.9800  -27.9870 C   0  0  0  0  0  0  0  0  0  0  0  0
   -4.2680   24.2140  -29.7070 S   0  0  0  0  0  0  0  0  0  0  0  0
   -3.8560   25.2880  -30.6760 O   0  0  0  0  0  0  0  0  0  0  0  0
   -4.7870   24.8920  -28.4700 O   0  0  0  0  0  0  0  0  0  0  0  0
   -5.5720   23.2510  -30.4060 C   0  0  0  0  0  0  0  0  0  0  0  0
   -6.8750   23.7590  -30.4280 C   0  0  0  0  0  0  0  0  0  0  0  0
   -7.9210   22.9820  -30.9220 C   0  0  0  0  0  0  0  0  0  0  0  0
   -7.6760   21.6970  -31.4130 C   0  0  0  0  0  0  0  0  0  0  0  0
   -8.7200   20.9390  -31.8230 N   0  0  0  0  0  0  0  0  0  0  0  0
   -8.5770   19.6670  -32.2710 C   0  0  0  0  0  0  0  0  0  0  0  0
   -9.8210   18.9200  -32.6530 C   0  0  0  0  0  0  0  0  0  0  0  0
   -7.2850   19.0910  -32.3510 C   0  0  0  0  0  0  0  0  0  0  0  0
   -6.1570   19.8790  -31.9900 C   0  0  0  0  0  0  0  0  0  0  0  0
   -6.3600   21.1810  -31.4530 C   0  0  0  0  0  0  0  0  0  0  0  0
   -5.3140   21.9770  -30.9300 C   0  0  0  0  0  0  0  0  0  0  0  0
   -4.7760   19.2430  -32.0890 C   0  0  0  0  0  0  0  0  0  0  0  0
   -4.3120   19.0980  -33.5470 C   0  0  0  0  0  0  0  0  0  0  0  0
   -5.4230   18.6730  -34.5340 C   0  0  0  0  0  0  0  0  0  0  0  0
   -6.2560   17.4580  -34.0740 C   0  0  0  0  0  0  0  0  0  0  0  0
   -7.0860   17.6380  -32.7760 C   0  0  0  0  0  0  0  0  0  0  0  0
   -1.6258   20.9731  -29.2199 H   0  0  0  0  0  0  0  0  0  0  0  0
   -2.4685   20.6421  -30.7713 H   0  0  0  0  0  0  0  0  0  0  0  0
   -0.7272   21.0833  -30.7713 H   0  0  0  0  0  0  0  0  0  0  0  0
   -1.1439   23.3225  -30.4417 H   0  0  0  0  0  0  0  0  0  0  0  0
   -2.6891   22.8365  -31.2978 H   0  0  0  0  0  0  0  0  0  0  0  0
   -2.9009   23.5024  -27.1835 H   0  0  0  0  0  0  0  0  0  0  0  0
   -1.3456   22.8653  -27.9172 H   0  0  0  0  0  0  0  0  0  0  0  0
   -1.4232   25.3009  -26.9443 H   0  0  0  0  0  0  0  0  0  0  0  0
   -0.5910   24.9623  -28.4997 H   0  0  0  0  0  0  0  0  0  0  0  0
   -2.2359   25.6840  -28.4997 H   0  0  0  0  0  0  0  0  0  0  0  0
   -7.0745   24.7742  -30.0545 H   0  0  0  0  0  0  0  0  0  0  0  0
   -8.9455   23.3826  -30.9254 H   0  0  0  0  0  0  0  0  0  0  0  0
  -10.3513   18.6015  -31.7434 H   0  0  0  0  0  0  0  0  0  0  0  0
  -10.4742   19.5754  -33.2478 H   0  0  0  0  0  0  0  0  0  0  0  0
   -9.5495   18.0354  -33.2478 H   0  0  0  0  0  0  0  0  0  0  0  0
   -4.2841   21.5907  -30.9347 H   0  0  0  0  0  0  0  0  0  0  0  0
   -4.0551   19.8735  -31.5479 H   0  0  0  0  0  0  0  0  0  0  0  0
   -4.8332   18.2365  -31.6490 H   0  0  0  0  0  0  0  0  0  0  0  0
   -3.9109   20.0673  -33.8779 H   0  0  0  0  0  0  0  0  0  0  0  0
   -3.5602   18.2951  -33.5576 H   0  0  0  0  0  0  0  0  0  0  0  0
   -6.1049   19.5251  -34.6716 H   0  0  0  0  0  0  0  0  0  0  0  0
   -4.9178   18.3725  -35.4638 H   0  0  0  0  0  0  0  0  0  0  0  0
   -6.9550   17.2059  -34.8851 H   0  0  0  0  0  0  0  0  0  0  0  0
   -5.5213   16.6727  -33.8426 H   0  0  0  0  0  0  0  0  0  0  0  0
   -8.0767   17.1875  -32.9359 H   0  0  0  0  0  0  0  0  0  0  0  0
   -6.5181   17.1501  -31.9701 H   0  0  0  0  0  0  0  0  0  0  0  0
  1  2  1  0
  2  3  1  0
  3  4  1  0
  4  5  1  0
  3  6  1  0
  6  7  2  0
  6  8  2  0
  6  9  1  0
  9 10  2  0
 10 11  1  0
 11 12  2  0
 12 13  1  0
 13 14  2  0
 14 15  1  0
 14 16  1  0
 16 17  2  0
 17 18  1  0
 18 19  2  0
 17 20  1  0
 20 21  1  0
 21 22  1  0
 22 23  1  0
 23 24  1  0
 19  9  1  0
 18 12  1  0
 24 16  1  0
  1 25  1  0
  1 26  1  0
  1 27  1  0
  2 28  1  0
  2 29  1  0
  4 30  1  0
  4 31  1  0
  5 32  1  0
  5 33  1  0
  5 34  1  0
 10 35  1  0
 11 36  1  0
 15 37  1  0
 15 38  1  0
 15 39  1  0
 19 40  1  0
 20 41  1  0
 20 42  1  0
 21 43  1  0
 21 44  1  0
 22 45  1  0
 22 46  1  0
 23 47  1  0
 23 48  1  0
 24 49  1  0
 24 50  1  0
M  END
>  <UniqueID>  (1) 
1

>  <SMILES>  (1) 
CCN(CC)S(=O)(=O)c1ccc2nc(C)c3c(c2c1)CCCCC3

>  <Energy>  (1) 
72.80110664918983

>  <Genealogy>  (1) 
CCN(CC)S(=O)(=O)c1ccc2nc(C)c3c(c2c1)CCCCC3 (3D coordinates assigned)
CCN(CC)S(=O)(=O)c1ccc2nc(C)c3c(c2c1)CCCCC3 (nonaromatic ring conformer: 72.80110664918983 kcal/mol)

>  <smiles>  (1) 
CCN(CC)S(=O)(=O)c1ccc2nc(C)c3c(c2c1)CCCCC3

>  <score_type>  (1) 
oracle

>  <origin>  (1) 
adg

>  <m_score__min__energy>  (1) 
-7.4199999999999999

>  <m_primary>  (1) 
energy

$$$$
1:0
     RDKit          3D

 45 47  0  0  0  0  0  0  0  0999 V2000
   -4.6357   20.1496  -34.0591 H   0  0  0  0  0  0  0  0  0  0  0  0
   -4.9860   19.9940  -33.0280 C   0  0  0  0  0  0  0  0  0  0  0  0
   -4.1260   19.9240  -32.0560 N   0  0  0  0  0  0  0  0  0  0  0  0
   -3.6490   21.0220  -31.2610 C   0  0  0  0  0  0  0  0  0  0  0  0
   -2.2670   21.2490  -31.2090 C   0  0  0  0  0  0  0  0  0  0  0  0
   -1.5855   20.5966  -31.7746 H   0  0  0  0  0  0  0  0  0  0  0  0
   -1.7470   22.2980  -30.4440 C   0  0  0  0  0  0  0  0  0  0  0  0
   -0.6613   22.4725  -30.4166 H   0  0  0  0  0  0  0  0  0  0  0  0
   -2.6060   23.1250  -29.7140 C   0  0  0  0  0  0  0  0  0  0  0  0
   -1.8950   24.5560  -28.6670 Br  0  0  0  0  0  0  0  0  0  0  0  0
   -3.9850   22.8980  -29.7460 C   0  0  0  0  0  0  0  0  0  0  0  0
   -4.6608   23.5451  -29.1675 H   0  0  0  0  0  0  0  0  0  0  0  0
   -4.5080   21.8510  -30.5110 C   0  0  0  0  0  0  0  0  0  0  0  0
   -5.5935   21.6735  -30.5277 H   0  0  0  0  0  0  0  0  0  0  0  0
   -6.4370   19.8650  -32.7530 C   0  0  0  0  0  0  0  0  0  0  0  0
   -7.0030   18.5700  -32.7250 C   0  0  0  0  0  0  0  0  0  0  0  0
   -6.2010   17.4050  -32.9900 N   0  0  0  0  0  0  0  0  0  0  0  0
   -6.1380   16.8690  -34.3570 C   0  0  0  0  0  0  0  0  0  0  0  0
   -7.1593   16.7696  -34.7533 H   0  0  0  0  0  0  0  0  0  0  0  0
   -5.6421   15.8875  -34.3295 H   0  0  0  0  0  0  0  0  0  0  0  0
   -5.3380   17.7970  -35.2630 C   0  0  0  0  0  0  0  0  0  0  0  0
   -4.7429   18.4873  -34.6471 H   0  0  0  0  0  0  0  0  0  0  0  0
   -4.6665   17.2004  -35.8979 H   0  0  0  0  0  0  0  0  0  0  0  0
   -6.0271   18.3732  -35.8979 H   0  0  0  0  0  0  0  0  0  0  0  0
   -5.5800   16.6910  -31.8680 C   0  0  0  0  0  0  0  0  0  0  0  0
   -4.8982   17.3735  -31.3395 H   0  0  0  0  0  0  0  0  0  0  0  0
   -6.3732   16.3412  -31.1909 H   0  0  0  0  0  0  0  0  0  0  0  0
   -4.7930   15.4830  -32.3630 C   0  0  0  0  0  0  0  0  0  0  0  0
   -4.4199   14.9103  -31.5012 H   0  0  0  0  0  0  0  0  0  0  0  0
   -5.4481   14.8432  -32.9725 H   0  0  0  0  0  0  0  0  0  0  0  0
   -3.9431   15.8238  -32.9725 H   0  0  0  0  0  0  0  0  0  0  0  0
   -8.3520   18.4000  -32.3940 C   0  0  0  0  0  0  0  0  0  0  0  0
   -8.7818   17.3878  -32.3661 H   0  0  0  0  0  0  0  0  0  0  0  0
   -9.1550   19.4960  -32.1000 C   0  0  0  0  0  0  0  0  0  0  0  0
  -10.2086   19.3433  -31.8233 H   0  0  0  0  0  0  0  0  0  0  0  0
   -8.6310   20.7920  -32.1540 C   0  0  0  0  0  0  0  0  0  0  0  0
   -9.4610   21.8910  -31.8820 C   0  0  0  0  0  0  0  0  0  0  0  0
  -10.5111   21.7272  -31.5982 H   0  0  0  0  0  0  0  0  0  0  0  0
   -8.9600   23.1900  -31.9700 C   0  0  0  0  0  0  0  0  0  0  0  0
   -9.6134   24.0467  -31.7486 H   0  0  0  0  0  0  0  0  0  0  0  0
   -7.6330   23.4040  -32.3380 C   0  0  0  0  0  0  0  0  0  0  0  0
   -7.2455   24.4305  -32.4161 H   0  0  0  0  0  0  0  0  0  0  0  0
   -6.7930   22.3220  -32.6080 C   0  0  0  0  0  0  0  0  0  0  0  0
   -5.7514   22.5049  -32.9107 H   0  0  0  0  0  0  0  0  0  0  0  0
   -7.2650   20.9950  -32.4970 C   0  0  0  0  0  0  0  0  0  0  0  0
  1  2  1  0
  2  3  2  0
  3  4  1  0
  4  5  2  0
  5  6  1  0
  5  7  1  0
  7  8  1  0
  7  9  2  0
  9 10  1  0
  9 11  1  0
 11 12  1  0
 11 13  2  0
 13 14  1  0
  2 15  1  0
 15 16  2  0
 16 17  1  0
 17 18  1  0
 18 19  1  0
 18 20  1  0
 18 21  1  0
 21 22  1  0
 21 23  1  0
 21 24  1  0
 17 25  1  0
 25 26  1  0
 25 27  1  0
 25 28  1  0
 28 29  1  0
 28 30  1  0
 28 31  1  0
 16 32  1  0
 32 33  1  0
 32 34  2  0
 34 35  1  0
 34 36  1  0
 36 37  2  0
 37 38  1  0
 37 39  1  0
 39 40  1  0
 39 41  2  0
 41 42  1  0
 41 43  1  0
 43 44  1  0
 43 45  2  0
 13  4  1  0
 45 15  1  0
 45 36  1  0
M  END
>  <UniqueID>  (2) 
2

>  <SMILES>  (2) 
CCN(CC)c1ccc2ccccc2c1/C=N/c1ccc(Br)cc1

>  <Energy>  (2) 
58.65257114484993

>  <Genealogy>  (2) 
CCN(CC)c1ccc2ccccc2c1/C=N/c1ccc(Br)cc1 (cis-trans isomerization)
CCN(CC)c1ccc2ccccc2c1/C=N/c1ccc(Br)cc1 (3D coordinates assigned)
CCN(CC)c1ccc2ccccc2c1/C=N/c1ccc(Br)cc1 (optimized conformer: 58.65257114484993 kcal/mol)

>  <smiles>  (2) 
CCN(CC)c1ccc2ccccc2c1C=Nc1ccc(Br)cc1

>  <score_type>  (2) 
oracle

>  <origin>  (2) 
adg

>  <m_score__min__energy>  (2) 
-8.1799999999999997

>  <m_primary>  (2) 
energy

$$$$
2:0
     RDKit          3D

 38 39  0  0  0  0  0  0  0  0999 V2000
   -4.2360   25.7170  -30.6620 O   0  0  0  0  0  0  0  0  0  0  0  0
   -3.9070   24.5150  -30.4720 C   0  0  0  0  0  0  0  0  0  0  0  0
   -2.9100   24.1890  -29.4000 C   0  0  0  0  0  0  0  0  0  0  0  0
   -1.9660   25.2910  -29.2680 N   0  0  0  0  0  0  0  0  0  0  0  0
   -0.8940   25.3230  -28.3200 C   0  0  0  0  0  0  0  0  0  0  0  0
    0.1540   24.6710  -28.5690 O   0  0  0  0  0  0  0  0  0  0  0  0
   -0.9740   26.0890  -27.0650 C   0  0  0  0  0  0  0  0  0  0  0  0
   -1.6080   25.7010  -25.8980 C   0  0  0  0  0  0  0  0  0  0  0  0
   -1.4720   26.7620  -25.0260 C   0  0  0  0  0  0  0  0  0  0  0  0
   -0.7700   27.7310  -25.7130 C   0  0  0  0  0  0  0  0  0  0  0  0
   -0.4940   27.3040  -26.9270 O   0  0  0  0  0  0  0  0  0  0  0  0
   -4.4820   23.4970  -31.3050 N   0  0  0  0  0  0  0  0  0  0  0  0
   -5.7480   23.6410  -32.0160 C   0  0  0  0  0  0  0  0  0  0  0  0
   -6.8560   22.9200  -31.2510 C   0  0  0  0  0  0  0  0  0  0  0  0
   -7.2890   21.6720  -31.9850 C   0  0  0  0  0  0  0  0  0  0  0  0
   -6.4080   20.9690  -32.7170 C   0  0  0  0  0  0  0  0  0  0  0  0
   -6.8660   19.7330  -33.4370 C   0  0  0  0  0  0  0  0  0  0  0  0
   -7.7240   18.8590  -32.5030 C   0  0  0  0  0  0  0  0  0  0  0  0
   -8.7650   19.6610  -31.6730 C   0  0  0  0  0  0  0  0  0  0  0  0
   -8.7170   21.1800  -31.9080 C   0  0  0  0  0  0  0  0  0  0  0  0
   -3.4340   24.0378  -28.4447 H   0  0  0  0  0  0  0  0  0  0  0  0
   -2.3681   23.2702  -29.6684 H   0  0  0  0  0  0  0  0  0  0  0  0
   -2.1156   24.7444  -25.7051 H   0  0  0  0  0  0  0  0  0  0  0  0
   -1.8469   26.8228  -23.9936 H   0  0  0  0  0  0  0  0  0  0  0  0
   -0.4841   28.7126  -25.3072 H   0  0  0  0  0  0  0  0  0  0  0  0
   -5.9989   24.7085  -32.1024 H   0  0  0  0  0  0  0  0  0  0  0  0
   -5.6532   23.2001  -33.0193 H   0  0  0  0  0  0  0  0  0  0  0  0
   -6.4838   22.6414  -30.2541 H   0  0  0  0  0  0  0  0  0  0  0  0
   -7.7201   23.5948  -31.1618 H   0  0  0  0  0  0  0  0  0  0  0  0
   -5.3602   21.2961  -32.7882 H   0  0  0  0  0  0  0  0  0  0  0  0
   -7.4641   20.0238  -34.3132 H   0  0  0  0  0  0  0  0  0  0  0  0
   -5.9849   19.1575  -33.7572 H   0  0  0  0  0  0  0  0  0  0  0  0
   -8.2632   18.1220  -33.1163 H   0  0  0  0  0  0  0  0  0  0  0  0
   -7.0368   18.3877  -31.7849 H   0  0  0  0  0  0  0  0  0  0  0  0
   -9.7701   19.3016  -31.9388 H   0  0  0  0  0  0  0  0  0  0  0  0
   -8.5221   19.4954  -30.6130 H   0  0  0  0  0  0  0  0  0  0  0  0
   -9.2295   21.4141  -32.8527 H   0  0  0  0  0  0  0  0  0  0  0  0
   -9.2151   21.6808  -31.0647 H   0  0  0  0  0  0  0  0  0  0  0  0
  1  2  2  0
  2  3  1  0
  3  4  1  0
  4  5  1  0
  5  6  2  0
  5  7  1  0
  7  8  2  0
  8  9  1  0
  9 10  2  0
 10 11  1  0
  2 12  1  0
 12 13  1  0
 13 14  1  0
 14 15  1  0
 15 16  2  0
 16 17  1  0
 17 18  1  0
 18 19  1  0
 19 20  1  0
 11  7  1  0
 20 15  1  0
  3 21  1  0
  3 22  1  0
  8 23  1  0
  9 24  1  0
 10 25  1  0
 13 26  1  0
 13 27  1  0
 14 28  1  0
 14 29  1  0
 16 30  1  0
 17 31  1  0
 17 32  1  0
 18 33  1  0
 18 34  1  0
 19 35  1  0
 19 36  1  0
 20 37  1  0
 20 38  1  0
M  CHG  2   4  -1  12  -1
M  END
>  <UniqueID>  (3) 
3

>  <SMILES>  (3) 
O=C(C[N-]C(=O)c1ccco1)[N-]CCC1=CCCCC1

>  <Energy>  (3) 
60.159025205146676

>  <Genealogy>  (3) 
O=C(C[N-]C(=O)c1ccco1)[N-]CCC1=CCCCC1 (protonated)
O=C(C[N-]C(=O)c1ccco1)[N-]CCC1=CCCCC1 (3D coordinates assigned)
O=C(C[N-]C(=O)c1ccco1)[N-]CCC1=CCCCC1 (nonaromatic ring conformer: 60.159025205146676 kcal/mol)

>  <smiles>  (3) 
O=C(CNC(=O)c1ccco1)NCCC1=CCCCC1

>  <score_type>  (3) 
oracle

>  <origin>  (3) 
adg

>  <m_score__min__energy>  (3) 
-10.67

>  <m_primary>  (3) 
energy

$$$$
3:0
     RDKit          3D

 36 36  0  0  0  0  0  0  0  0999 V2000
   -5.7310   16.8730  -33.1110 C   0  0  0  0  0  0  0  0  0  0  0  0
   -5.3960   17.9900  -32.1100 C   0  0  0  0  0  0  0  0  0  0  0  0
   -6.5220   18.9120  -31.8240 N   0  0  0  0  0  0  0  0  0  0  0  0
   -7.8150   18.1890  -31.7160 C   0  0  0  0  0  0  0  0  0  0  0  0
   -8.9520   19.0920  -31.2290 C   0  0  0  0  0  0  0  0  0  0  0  0
   -6.5900   20.2240  -32.9920 S   0  0  0  0  0  0  0  0  0  0  0  0
   -8.0000   20.4210  -33.4750 O   0  0  0  0  0  0  0  0  0  0  0  0
   -5.7270   19.9120  -34.1850 O   0  0  0  0  0  0  0  0  0  0  0  0
   -5.9830   21.7170  -32.2680 C   0  0  0  0  0  0  0  0  0  0  0  0
   -4.6820   22.2050  -32.2690 C   0  0  0  0  0  0  0  0  0  0  0  0
   -3.4770   21.5600  -32.8750 C   0  0  0  0  0  0  0  0  0  0  0  0
   -4.6370   23.3720  -31.5970 N   0  0  0  0  0  0  0  0  0  0  0  0
   -5.8650   23.6470  -31.1850 N   0  0  0  0  0  0  0  0  0  0  0  0
   -6.2010   24.8200  -30.3830 C   0  0  0  0  0  0  0  0  0  0  0  0
   -6.7070   22.6570  -31.5540 C   0  0  0  0  0  0  0  0  0  0  0  0
   -8.1770   22.6350  -31.2560 C   0  0  0  0  0  0  0  0  0  0  0  0
   -6.0050   15.9595  -32.5629 H   0  0  0  0  0  0  0  0  0  0  0  0
   -6.5742   17.1880  -33.7433 H   0  0  0  0  0  0  0  0  0  0  0  0
   -4.8536   16.6720  -33.7433 H   0  0  0  0  0  0  0  0  0  0  0  0
   -5.0847   17.5228  -31.1641 H   0  0  0  0  0  0  0  0  0  0  0  0
   -4.6016   18.5965  -32.5694 H   0  0  0  0  0  0  0  0  0  0  0  0
   -6.3080   19.3440  -30.8950 H   0  0  0  0  0  0  0  0  0  0  0  0
   -8.0803   17.7905  -32.7064 H   0  0  0  0  0  0  0  0  0  0  0  0
   -7.6875   17.3838  -30.9775 H   0  0  0  0  0  0  0  0  0  0  0  0
   -8.9660   19.1031  -30.1291 H   0  0  0  0  0  0  0  0  0  0  0  0
   -8.7948   20.1141  -31.6040 H   0  0  0  0  0  0  0  0  0  0  0  0
   -9.9119   18.7074  -31.6040 H   0  0  0  0  0  0  0  0  0  0  0  0
   -2.8109   21.2034  -32.0755 H   0  0  0  0  0  0  0  0  0  0  0  0
   -3.7906   20.7092  -33.4977 H   0  0  0  0  0  0  0  0  0  0  0  0
   -2.9429   22.2928  -33.4977 H   0  0  0  0  0  0  0  0  0  0  0  0
   -6.1285   24.5669  -29.3150 H   0  0  0  0  0  0  0  0  0  0  0  0
   -5.5004   25.6357  -30.6149 H   0  0  0  0  0  0  0  0  0  0  0  0
   -7.2272   25.1410  -30.6149 H   0  0  0  0  0  0  0  0  0  0  0  0
   -8.3303   22.6327  -30.1667 H   0  0  0  0  0  0  0  0  0  0  0  0
   -8.6528   23.5261  -31.6914 H   0  0  0  0  0  0  0  0  0  0  0  0
   -8.6259   21.7300  -31.6914 H   0  0  0  0  0  0  0  0  0  0  0  0
  1  2  1  0
  2  3  1  0
  3  4  1  0
  4  5  1  0
  3  6  1  0
  6  7  2  0
  6  8  2  0
  6  9  1  0
  9 10  1  0
 10 11  1  0
 10 12  2  0
 12 13  1  0
 13 14  1  0
 13 15  1  0
 15 16  1  0
 15  9  2  0
  1 17  1  0
  1 18  1  0
  1 19  1  0
  2 20  1  0
  2 21  1  0
  3 22  1  0
  4 23  1  0
  4 24  1  0
  5 25  1  0
  5 26  1  0
  5 27  1  0
 11 28  1  0
 11 29  1  0
 11 30  1  0
 14 31  1  0
 14 32  1  0
 14 33  1  0
 16 34  1  0
 16 35  1  0
 16 36  1  0
M  CHG  1   3   1
M  END
>  <UniqueID>  (4) 
4

>  <SMILES>  (4) 
CC[NH+](CC)S(=O)(=O)c1c(C)nn(C)c1C

>  <Energy>  (4) 
61.110802661658354

>  <Genealogy>  (4) 
CC[NH+](CC)S(=O)(=O)c1c(C)nn(C)c1C (protonated)
CC[NH+](CC)S(=O)(=O)c1c(C)nn(C)c1C (3D coordinates assigned)
CC[NH+](CC)S(=O)(=O)c1c(C)nn(C)c1C (optimized conformer: 61.110802661658354 kcal/mol)

>  <smiles>  (4) 
CCN(CC)S(=O)(=O)c1c(C)nn(C)c1C

>  <score_type>  (4) 
oracle

>  <origin>  (4) 
adg

>  <m_score__min__energy>  (4) 
-5.4699999999999998

>  <m_primary>  (4) 
energy

$$$$
4:0
     RDKit          3D

 50 52  0  0  0  0  0  0  0  0999 V2000
   -6.1320   25.6490  -29.7230 C   0  0  0  0  0  0  0  0  0  0  0  0
   -5.1180   25.4170  -30.8400 C   0  0  0  0  0  0  0  0  0  0  0  0
   -5.3510   24.1080  -31.4930 N   0  0  0  0  0  0  0  0  0  0  0  0
   -6.7880   23.7770  -31.5150 C   0  0  0  0  0  0  0  0  0  0  0  0
   -4.5690   23.0230  -30.8500 C   0  0  0  0  0  0  0  0  0  0  0  0
   -3.8500   22.1870  -31.9160 C   0  0  0  0  0  0  0  0  0  0  0  0
   -4.6990   21.9550  -33.0960 N   0  0  0  0  0  0  0  0  0  0  0  0
   -5.0430   20.5450  -33.2070 C   0  0  0  0  0  0  0  0  0  0  0  0
   -4.0520   19.5850  -33.5470 C   0  0  0  0  0  0  0  0  0  0  0  0
   -2.7390   19.9700  -33.9210 C   0  0  0  0  0  0  0  0  0  0  0  0
   -1.7500   19.0190  -34.1530 C   0  0  0  0  0  0  0  0  0  0  0  0
   -2.0370   17.6690  -34.0190 C   0  0  0  0  0  0  0  0  0  0  0  0
   -3.3300   17.2590  -33.7030 C   0  0  0  0  0  0  0  0  0  0  0  0
   -4.3760   18.2000  -33.5180 C   0  0  0  0  0  0  0  0  0  0  0  0
   -5.6770   17.7920  -33.3020 N   0  0  0  0  0  0  0  0  0  0  0  0
   -6.0620   16.3850  -33.5680 C   0  0  0  0  0  0  0  0  0  0  0  0
   -6.6340   18.6990  -32.8960 C   0  0  0  0  0  0  0  0  0  0  0  0
   -7.9050   18.2730  -32.4340 C   0  0  0  0  0  0  0  0  0  0  0  0
   -8.9070   19.1860  -32.1230 C   0  0  0  0  0  0  0  0  0  0  0  0
   -8.6840   20.5520  -32.2710 C   0  0  0  0  0  0  0  0  0  0  0  0
   -9.7680   21.5350  -31.9410 C   0  0  0  0  0  0  0  0  0  0  0  0
   -7.4140   21.0030  -32.6470 C   0  0  0  0  0  0  0  0  0  0  0  0
   -6.3590   20.0960  -32.9160 C   0  0  0  0  0  0  0  0  0  0  0  0
   -5.6357   25.5355  -28.7479 H   0  0  0  0  0  0  0  0  0  0  0  0
   -6.5452   26.6649  -29.8081 H   0  0  0  0  0  0  0  0  0  0  0  0
   -6.9458   24.9138  -29.8081 H   0  0  0  0  0  0  0  0  0  0  0  0
   -5.2158   26.2169  -31.5888 H   0  0  0  0  0  0  0  0  0  0  0  0
   -4.1067   25.4220  -30.4072 H   0  0  0  0  0  0  0  0  0  0  0  0
   -7.1603   23.6912  -30.4835 H   0  0  0  0  0  0  0  0  0  0  0  0
   -7.3393   24.5717  -32.0390 H   0  0  0  0  0  0  0  0  0  0  0  0
   -6.9361   22.8212  -32.0390 H   0  0  0  0  0  0  0  0  0  0  0  0
   -3.8246   23.4645  -30.1711 H   0  0  0  0  0  0  0  0  0  0  0  0
   -5.2532   22.3732  -30.2846 H   0  0  0  0  0  0  0  0  0  0  0  0
   -2.9403   22.7190  -32.2314 H   0  0  0  0  0  0  0  0  0  0  0  0
   -3.6048   21.2096  -31.4748 H   0  0  0  0  0  0  0  0  0  0  0  0
   -5.5600   22.5420  -33.0530 H   0  0  0  0  0  0  0  0  0  0  0  0
   -4.2270   22.2990  -33.9600 H   0  0  0  0  0  0  0  0  0  0  0  0
   -2.4986   21.0379  -34.0294 H   0  0  0  0  0  0  0  0  0  0  0  0
   -0.7384   19.3388  -34.4433 H   0  0  0  0  0  0  0  0  0  0  0  0
   -1.2429   16.9214  -34.1624 H   0  0  0  0  0  0  0  0  0  0  0  0
   -3.5444   16.1855  -33.5948 H   0  0  0  0  0  0  0  0  0  0  0  0
   -6.2063   15.8576  -32.6135 H   0  0  0  0  0  0  0  0  0  0  0  0
   -6.9990   16.3638  -34.1439 H   0  0  0  0  0  0  0  0  0  0  0  0
   -5.2664   15.8897  -34.1439 H   0  0  0  0  0  0  0  0  0  0  0  0
   -8.1028   17.1971  -32.3191 H   0  0  0  0  0  0  0  0  0  0  0  0
   -9.8806   18.8268  -31.7582 H   0  0  0  0  0  0  0  0  0  0  0  0
   -9.8640   21.6220  -30.8487 H   0  0  0  0  0  0  0  0  0  0  0  0
   -9.5141   22.5172  -32.3662 H   0  0  0  0  0  0  0  0  0  0  0  0
  -10.7208   21.1866  -32.3662 H   0  0  0  0  0  0  0  0  0  0  0  0
   -7.2307   22.0840  -32.7356 H   0  0  0  0  0  0  0  0  0  0  0  0
  1  2  1  0
  2  3  1  0
  3  4  1  0
  3  5  1  0
  5  6  1  0
  6  7  1  0
  7  8  1  0
  8  9  2  0
  9 10  1  0
 10 11  2  0
 11 12  1  0
 12 13  2  0
 13 14  1  0
 14 15  2  0
 15 16  1  0
 15 17  1  0
 17 18  2  0
 18 19  1  0
 19 20  2  0
 20 21  1  0
 20 22  1  0
 22 23  2  0
 23  8  1  0
 14  9  1  0
 23 17  1  0
  1 24  1  0
  1 25  1  0
  1 26  1  0
  2 27  1  0
  2 28  1  0
  4 29  1  0
  4 30  1  0
  4 31  1  0
  5 32  1  0
  5 33  1  0
  6 34  1  0
  6 35  1  0
  7 36  1  0
  7 37  1  0
 10 38  1  0
 11 39  1  0
 12 40  1  0
 13 41  1  0
 16 42  1  0
 16 43  1  0
 16 44  1  0
 18 45  1  0
 19 46  1  0
 21 47  1  0
 21 48  1  0
 21 49  1  0
 22 50  1  0
M  CHG  2   7   1  15   1
M  END
>  <UniqueID>  (5) 
5

>  <SMILES>  (5) 
CCN(C)CC[NH2+]c1c2ccccc2[n+](C)c2ccc(C)cc12

>  <Energy>  (5) 
78.55332413676837

>  <Genealogy>  (5) 
CCN(C)CC[NH2+]c1c2ccccc2[n+](C)c2ccc(C)cc12 (protonated)
CCN(C)CC[NH2+]c1c2ccccc2[n+](C)c2ccc(C)cc12 (3D coordinates assigned)
CCN(C)CC[NH2+]c1c2ccccc2[n+](C)c2ccc(C)cc12 (optimized conformer: 78.55332413676837 kcal/mol)

>  <smiles>  (5) 
CCN(C)CCNc1c2ccccc2[n+](C)c2ccc(C)cc12

>  <score_type>  (5) 
oracle

>  <origin>  (5) 
adg

>  <m_score__min__energy>  (5) 
-7.7800000000000002

>  <m_primary>  (5) 
energy

$$$$
5:0
     RDKit          3D

 37 38  0  0  1  0  0  0  0  0999 V2000
   -2.1520   22.4710  -30.4410 C   0  0  0  0  0  0  0  0  0  0  0  0
   -2.1210   21.1630  -31.1980 C   0  0  0  0  0  0  0  0  0  0  0  0
   -2.9490   21.2540  -32.4090 N   0  0  0  0  0  0  0  0  0  0  0  0
   -2.3260   21.0090  -33.6700 C   0  0  0  0  0  0  0  0  0  0  0  0
   -4.3340   21.5810  -32.2670 C   0  0  0  0  0  0  0  0  0  0  0  0
   -5.2540   20.6040  -32.3770 N   0  0  0  0  0  0  0  0  0  0  0  0
   -6.5830   20.8870  -32.2510 C   0  0  0  0  0  0  0  0  0  0  0  0
   -6.9860   22.1830  -32.0100 C   0  0  0  0  0  0  0  0  0  0  0  0
   -8.3560   22.2270  -31.9220 C   0  0  0  0  0  0  0  0  0  0  0  0
   -8.7880   20.9200  -32.1150 C   0  0  0  0  0  0  0  0  0  0  0  0
   -7.7060   20.1370  -32.3110 N   0  0  0  0  0  0  0  0  0  0  0  0
   -7.7880   18.7090  -32.5450 C   0  0  0  0  0  0  0  0  0  0  0  0
   -6.0160   23.1640  -31.9030 C   0  0  0  0  0  0  0  0  0  0  0  0
   -6.3140   24.3780  -31.6840 N   0  0  0  0  0  0  0  0  0  0  0  0
   -6.2780   25.0400  -30.4180 C   0  0  0  0  0  0  0  0  0  0  0  0
   -4.9150   25.2120  -29.8240 C   0  0  0  0  0  0  0  0  0  0  0  0
   -3.8770   25.3310  -30.7110 O   0  0  0  0  0  0  0  0  0  0  0  0
   -4.7140   22.8360  -32.0340 N   0  0  0  0  0  0  0  0  0  0  0  0
   -2.1472   22.2691  -29.3597 H   0  0  0  0  0  0  0  0  0  0  0  0
   -1.2678   23.0692  -30.7062 H   0  0  0  0  0  0  0  0  0  0  0  0
   -3.0636   23.0266  -30.7062 H   0  0  0  0  0  0  0  0  0  0  0  0
   -1.0838   20.9339  -31.4841 H   0  0  0  0  0  0  0  0  0  0  0  0
   -2.5187   20.3665  -30.5520 H   0  0  0  0  0  0  0  0  0  0  0  0
   -1.3135   20.6108  -33.5076 H   0  0  0  0  0  0  0  0  0  0  0  0
   -2.9209   20.2779  -34.2370 H   0  0  0  0  0  0  0  0  0  0  0  0
   -2.2635   21.9495  -34.2370 H   0  0  0  0  0  0  0  0  0  0  0  0
   -8.9815   23.1128  -31.7371 H   0  0  0  0  0  0  0  0  0  0  0  0
   -9.8345   20.5811  -32.1090 H   0  0  0  0  0  0  0  0  0  0  0  0
   -7.8183   18.1806  -31.5807 H   0  0  0  0  0  0  0  0  0  0  0  0
   -8.7006   18.4828  -33.1159 H   0  0  0  0  0  0  0  0  0  0  0  0
   -6.9073   18.3798  -33.1159 H   0  0  0  0  0  0  0  0  0  0  0  0
   -6.7221   26.0384  -30.5440 H   0  0  0  0  0  0  0  0  0  0  0  0
   -6.8337   24.3947  -29.7217 H   0  0  0  0  0  0  0  0  0  0  0  0
   -4.9318   26.1204  -29.2038 H   0  0  0  0  0  0  0  0  0  0  0  0
   -4.7191   24.2847  -29.2657 H   0  0  0  0  0  0  0  0  0  0  0  0
   -4.2480   25.6070  -31.5940 H   0  0  0  0  0  0  0  0  0  0  0  0
   -3.9970   23.5620  -31.9540 H   0  0  0  0  0  0  0  0  0  0  0  0
  1  2  1  0
  2  3  1  0
  3  4  1  0
  3  5  1  0
  5  6  2  0
  6  7  1  0
  7  8  2  0
  8  9  1  0
  9 10  2  0
 10 11  1  0
 11 12  1  0
  8 13  1  0
 13 14  2  0
 14 15  1  0
 15 16  1  0
 16 17  1  0
 13 18  1  0
 18  5  1  0
 11  7  1  0
  1 19  1  0
  1 20  1  0
  1 21  1  0
  2 22  1  0
  2 23  1  0
  4 24  1  0
  4 25  1  0
  4 26  1  0
  9 27  1  0
 10 28  1  0
 12 29  1  0
 12 30  1  0
 12 31  1  0
 15 32  1  0
 15 33  1  0
 16 34  1  0
 16 35  1  0
 17 36  1  0
 18 37  1  0
M  END
>  <smiles>  (6) 
CCN(C)c1nc2c(ccn2C)c(=NCCO)[nH]1

>  <score_type>  (6) 
oracle

>  <origin>  (6) 
adg

>  <m_score__min__energy>  (6) 
-6.9800000000000004

>  <m_primary>  (6) 
energy

$$$$
6:0
     RDKit          3D

 24 24  0  0  0  0  0  0  0  0999 V2000
   -6.5350   20.9000  -32.6980 C   0  0  0  0  0  0  0  0  0  0  0  0
   -6.2180   21.9660  -32.2300 C   0  0  0  0  0  0  0  0  0  0  0  0
   -5.8320   23.2700  -31.6610 C   0  0  1  0  0  0  0  0  0  0  0  0
   -6.9860   23.8600  -30.8450 C   0  0  0  0  0  0  0  0  0  0  0  0
   -4.6130   23.1450  -30.8280 N   0  0  0  0  0  0  0  0  0  0  0  0
   -4.2270   21.9060  -30.3820 C   0  0  0  0  0  0  0  0  0  0  0  0
   -3.0960   21.7510  -29.5820 C   0  0  0  0  0  0  0  0  0  0  0  0
   -2.3510   22.8680  -29.2240 C   0  0  0  0  0  0  0  0  0  0  0  0
   -2.7440   24.1410  -29.6610 C   0  0  0  0  0  0  0  0  0  0  0  0
   -2.0310   25.3020  -29.3200 O   0  0  0  0  0  0  0  0  0  0  0  0
   -1.2320   25.4420  -28.1490 C   0  0  0  0  0  0  0  0  0  0  0  0
   -3.8890   24.2590  -30.4650 C   0  0  0  0  0  0  0  0  0  0  0  0
   -4.2440   25.4090  -30.8450 O   0  0  0  0  0  0  0  0  0  0  0  0
   -6.8240   19.9282  -33.1247 H   0  0  0  0  0  0  0  0  0  0  0  0
   -5.6062   23.9543  -32.4921 H   0  0  0  0  0  0  0  0  0  0  0  0
   -6.7703   23.7497  -29.7720 H   0  0  0  0  0  0  0  0  0  0  0  0
   -7.0994   24.9267  -31.0885 H   0  0  0  0  0  0  0  0  0  0  0  0
   -7.9171   23.3273  -31.0885 H   0  0  0  0  0  0  0  0  0  0  0  0
   -4.8191   21.0216  -30.6600 H   0  0  0  0  0  0  0  0  0  0  0  0
   -2.7952   20.7510  -29.2364 H   0  0  0  0  0  0  0  0  0  0  0  0
   -1.4536   22.7536  -28.5982 H   0  0  0  0  0  0  0  0  0  0  0  0
   -1.8661   25.3309  -27.2570 H   0  0  0  0  0  0  0  0  0  0  0  0
   -0.4515   24.6669  -28.1429 H   0  0  0  0  0  0  0  0  0  0  0  0
   -0.7615   26.4363  -28.1429 H   0  0  0  0  0  0  0  0  0  0  0  0
  1  2  3  0
  2  3  1  0
  3  4  1  0
  3  5  1  0
  5  6  1  0
  6  7  2  0
  7  8  1  0
  8  9  2  0
  9 10  1  0
 10 11  1  0
  9 12  1  0
 12 13  2  0
 12  5  1  0
  1 14  1  0
  3 15  1  6
  4 16  1  0
  4 17  1  0
  4 18  1  0
  6 19  1  0
  7 20  1  0
  8 21  1  0
 11 22  1  0
 11 23  1  0
 11 24  1  0
M  END
>  <UniqueID>  (7) 
6

>  <SMILES>  (7) 
C#C[C@@H](C)n1cccc(OC)c1=O

>  <Energy>  (7) 
22.12633136057517

>  <Genealogy>  (7) 
C#C[C@@H](C)n1cccc(OC)c1=O (chirality)
C#C[C@@H](C)n1cccc(OC)c1=O (3D coordinates assigned)
C#C[C@@H](C)n1cccc(OC)c1=O (optimized conformer: 22.12633136057517 kcal/mol)

>  <smiles>  (7) 
C#CC(C)n1cccc(OC)c1=O

>  <score_type>  (7) 
oracle

>  <origin>  (7) 
adg

>  <m_score__min__energy>  (7) 
-5.4000000000000004

>  <m_primary>  (7) 
energy

$$$$
7:0
     RDKit          3D

 52 53  0  0  0  0  0  0  0  0999 V2000
   -9.2880   21.5780  -31.1210 C   0  0  0  0  0  0  0  0  0  0  0  0
   -8.2860   21.7530  -32.2680 C   0  0  0  0  0  0  0  0  0  0  0  0
   -6.8890   21.9160  -31.7860 N   0  0  1  0  0  0  0  0  0  0  0  0
   -6.7450   23.0270  -30.8050 C   0  0  0  0  0  0  0  0  0  0  0  0
   -5.3160   23.4700  -30.5690 C   0  0  0  0  0  0  0  0  0  0  0  0
   -4.2130   22.6380  -30.5010 C   0  0  0  0  0  0  0  0  0  0  0  0
   -3.1280   23.4710  -30.3070 C   0  0  0  0  0  0  0  0  0  0  0  0
   -1.7000   23.0390  -30.1940 C   0  0  0  0  0  0  0  0  0  0  0  0
   -0.8850   24.0710  -29.5340 N   0  0  0  0  0  0  0  0  0  0  0  0
   -0.9670   24.0160  -28.0640 C   0  0  0  0  0  0  0  0  0  0  0  0
   -1.5400   25.3110  -27.4860 C   0  0  0  0  0  0  0  0  0  0  0  0
   -1.1580   26.4210  -28.2780 O   0  0  0  0  0  0  0  0  0  0  0  0
   -0.4670   27.3740  -27.4990 C   0  0  0  0  0  0  0  0  0  0  0  0
   -3.5190   24.7260  -30.2740 O   0  0  0  0  0  0  0  0  0  0  0  0
   -4.8220   24.7630  -30.4400 C   0  0  0  0  0  0  0  0  0  0  0  0
   -5.6020   26.0370  -30.4780 C   0  0  0  0  0  0  0  0  0  0  0  0
   -6.3590   20.6430  -31.2320 C   0  0  0  0  0  0  0  0  0  0  0  0
   -6.2650   19.5480  -32.2800 C   0  0  0  0  0  0  0  0  0  0  0  0
   -7.1930   18.4830  -32.2760 C   0  0  0  0  0  0  0  0  0  0  0  0
   -8.1740   18.4190  -31.3410 F   0  0  0  0  0  0  0  0  0  0  0  0
   -7.1100   17.4750  -33.2400 C   0  0  0  0  0  0  0  0  0  0  0  0
   -6.1060   17.5040  -34.2060 C   0  0  0  0  0  0  0  0  0  0  0  0
   -5.1780   18.5440  -34.2160 C   0  0  0  0  0  0  0  0  0  0  0  0
   -5.2480   19.5660  -33.2620 C   0  0  0  0  0  0  0  0  0  0  0  0
   -4.0180   20.8290  -33.3090 Cl  0  0  0  0  0  0  0  0  0  0  0  0
   -8.7633   21.6696  -30.1586 H   0  0  0  0  0  0  0  0  0  0  0  0
  -10.0644   22.3541  -31.1907 H   0  0  0  0  0  0  0  0  0  0  0  0
   -9.7553   20.5846  -31.1907 H   0  0  0  0  0  0  0  0  0  0  0  0
   -8.3339   20.8656  -32.9163 H   0  0  0  0  0  0  0  0  0  0  0  0
   -8.5596   22.6684  -32.8131 H   0  0  0  0  0  0  0  0  0  0  0  0
   -6.2950   22.1750  -32.6080 H   0  0  0  0  0  0  0  0  0  0  0  0
   -7.3163   23.8905  -31.1764 H   0  0  0  0  0  0  0  0  0  0  0  0
   -7.1197   22.6477  -29.8429 H   0  0  0  0  0  0  0  0  0  0  0  0
   -4.2020   21.5412  -30.5841 H   0  0  0  0  0  0  0  0  0  0  0  0
   -1.6509   22.1113  -29.6050 H   0  0  0  0  0  0  0  0  0  0  0  0
   -1.3033   22.8754  -31.2068 H   0  0  0  0  0  0  0  0  0  0  0  0
   -1.2670   24.9980  -29.8320 H   0  0  0  0  0  0  0  0  0  0  0  0
   -1.6161   23.1768  -27.7733 H   0  0  0  0  0  0  0  0  0  0  0  0
    0.0496   23.8805  -27.6663 H   0  0  0  0  0  0  0  0  0  0  0  0
   -2.6377   25.2428  -27.4643 H   0  0  0  0  0  0  0  0  0  0  0  0
   -1.1476   25.4495  -26.4677 H   0  0  0  0  0  0  0  0  0  0  0  0
   -0.6235   27.1582  -26.4318 H   0  0  0  0  0  0  0  0  0  0  0  0
    0.6076   27.3260  -27.7291 H   0  0  0  0  0  0  0  0  0  0  0  0
   -0.8466   28.3804  -27.7291 H   0  0  0  0  0  0  0  0  0  0  0  0
   -5.8072   26.3721  -29.4506 H   0  0  0  0  0  0  0  0  0  0  0  0
   -5.0205   26.8073  -31.0057 H   0  0  0  0  0  0  0  0  0  0  0  0
   -6.5525   25.8694  -31.0057 H   0  0  0  0  0  0  0  0  0  0  0  0
   -5.3546   20.8272  -30.8230 H   0  0  0  0  0  0  0  0  0  0  0  0
   -7.0562   20.3013  -30.4528 H   0  0  0  0  0  0  0  0  0  0  0  0
   -7.8416   16.6536  -33.2364 H   0  0  0  0  0  0  0  0  0  0  0  0
   -6.0458   16.7060  -34.9607 H   0  0  0  0  0  0  0  0  0  0  0  0
   -4.3854   18.5617  -34.9786 H   0  0  0  0  0  0  0  0  0  0  0  0
  1  2  1  0
  2  3  1  0
  3  4  1  0
  4  5  1  0
  5  6  1  0
  6  7  2  0
  7  8  1  0
  8  9  1  0
  9 10  1  0
 10 11  1  0
 11 12  1  0
 12 13  1  0
  7 14  1  0
 14 15  1  0
 15 16  1  0
  3 17  1  0
 17 18  1  0
 18 19  2  0
 19 20  1  0
 19 21  1  0
 21 22  2  0
 22 23  1  0
 23 24  2  0
 24 25  1  0
 15  5  2  0
 24 18  1  0
  1 26  1  0
  1 27  1  0
  1 28  1  0
  2 29  1  0
  2 30  1  0
  3 31  1  6
  4 32  1  0
  4 33  1  0
  6 34  1  0
  8 35  1  0
  8 36  1  0
  9 37  1  0
 10 38  1  0
 10 39  1  0
 11 40  1  0
 11 41  1  0
 13 42  1  0
 13 43  1  0
 13 44  1  0
 16 45  1  0
 16 46  1  0
 16 47  1  0
 17 48  1  0
 17 49  1  0
 21 50  1  0
 22 51  1  0
 23 52  1  0
M  CHG  1   3   1
M  END
>  <UniqueID>  (8) 
7

>  <SMILES>  (8) 
CC[N@@H+](Cc1cc(CNCCOC)oc1C)Cc1c(F)cccc1Cl

>  <Energy>  (8) 
79.77803576851234

>  <Genealogy>  (8) 
CC[NH+](Cc1cc(CNCCOC)oc1C)Cc1c(F)cccc1Cl (protonated)
CC[N@@H+](Cc1cc(CNCCOC)oc1C)Cc1c(F)cccc1Cl (chirality)
CC[N@@H+](Cc1cc(CNCCOC)oc1C)Cc1c(F)cccc1Cl (3D coordinates assigned)
CC[N@@H+](Cc1cc(CNCCOC)oc1C)Cc1c(F)cccc1Cl (optimized conformer: 79.77803576851234 kcal/mol)

>  <smiles>  (8) 
CCN(Cc1cc(CNCCOC)oc1C)Cc1c(F)cccc1Cl

>  <score_type>  (8) 
oracle

>  <origin>  (8) 
adg

>  <m_score__min__energy>  (8) 
-7.3099999999999996

>  <m_primary>  (8) 
energy

$$$$
8:0
     RDKit          3D

 54 56  0  0  0  0  0  0  0  0999 V2000
   -4.7400   13.6370  -34.4840 C   0  0  0  0  0  0  0  0  0  0  0  0
   -5.7880   14.5910  -34.6210 O   0  0  0  0  0  0  0  0  0  0  0  0
   -5.7470   15.8930  -34.1010 C   0  0  0  0  0  0  0  0  0  0  0  0
   -5.7140   17.0340  -34.9240 C   0  0  0  0  0  0  0  0  0  0  0  0
   -5.6740   18.3130  -34.3610 C   0  0  0  0  0  0  0  0  0  0  0  0
   -5.6560   18.4830  -32.9580 C   0  0  0  0  0  0  0  0  0  0  0  0
   -5.6450   19.8620  -32.2770 C   0  0  1  0  0  0  0  0  0  0  0  0
   -5.1530   19.6920  -30.9640 O   0  0  0  0  0  0  0  0  0  0  0  0
   -4.7480   20.9120  -33.0050 C   0  0  0  0  0  0  0  0  0  0  0  0
   -3.9010   21.7250  -32.0440 C   0  0  0  0  0  0  0  0  0  0  0  0
   -4.2760   23.0450  -31.7470 C   0  0  0  0  0  0  0  0  0  0  0  0
   -3.5600   23.8100  -30.8100 C   0  0  0  0  0  0  0  0  0  0  0  0
   -3.9460   25.1180  -30.4730 O   0  0  0  0  0  0  0  0  0  0  0  0
   -5.2930   25.5750  -30.4250 C   0  0  0  0  0  0  0  0  0  0  0  0
   -2.4310   23.2520  -30.1890 C   0  0  0  0  0  0  0  0  0  0  0  0
   -1.6540   24.0530  -29.1800 C   0  0  0  0  0  0  0  0  0  0  0  0
   -2.0460   21.9360  -30.4880 C   0  0  0  0  0  0  0  0  0  0  0  0
   -2.7740   21.1640  -31.4100 C   0  0  0  0  0  0  0  0  0  0  0  0
   -2.4060   19.8430  -31.7200 O   0  0  0  0  0  0  0  0  0  0  0  0
   -1.6640   19.4570  -32.8720 C   0  0  0  0  0  0  0  0  0  0  0  0
   -7.0820   20.3880  -32.2220 C   0  0  0  0  0  0  0  0  0  0  0  0
   -8.1830   19.5510  -32.5040 C   0  0  0  0  0  0  0  0  0  0  0  0
   -9.4900   20.0290  -32.3830 C   0  0  0  0  0  0  0  0  0  0  0  0
   -9.7230   21.3430  -31.9740 C   0  0  0  0  0  0  0  0  0  0  0  0
   -8.6470   22.1810  -31.6790 C   0  0  0  0  0  0  0  0  0  0  0  0
   -7.3370   21.7100  -31.7960 C   0  0  0  0  0  0  0  0  0  0  0  0
   -5.7000   17.3320  -32.1480 C   0  0  0  0  0  0  0  0  0  0  0  0
   -5.7400   16.0560  -32.7150 C   0  0  0  0  0  0  0  0  0  0  0  0
   -4.5439   13.4585  -33.4164 H   0  0  0  0  0  0  0  0  0  0  0  0
   -5.0378   12.6936  -34.9649 H   0  0  0  0  0  0  0  0  0  0  0  0
   -3.8286   14.0219  -34.9649 H   0  0  0  0  0  0  0  0  0  0  0  0
   -5.7197   16.9187  -36.0179 H   0  0  0  0  0  0  0  0  0  0  0  0
   -5.6564   19.1961  -35.0166 H   0  0  0  0  0  0  0  0  0  0  0  0
   -4.2140   19.3730  -31.0280 H   0  0  0  0  0  0  0  0  0  0  0  0
   -4.0806   20.3826  -33.7010 H   0  0  0  0  0  0  0  0  0  0  0  0
   -5.4148   21.6100  -33.5325 H   0  0  0  0  0  0  0  0  0  0  0  0
   -5.1447   23.4880  -32.2561 H   0  0  0  0  0  0  0  0  0  0  0  0
   -5.6069   25.6815  -29.3761 H   0  0  0  0  0  0  0  0  0  0  0  0
   -5.3680   26.5489  -30.9309 H   0  0  0  0  0  0  0  0  0  0  0  0
   -5.9452   24.8478  -30.9309 H   0  0  0  0  0  0  0  0  0  0  0  0
   -1.9489   23.7490  -28.1648 H   0  0  0  0  0  0  0  0  0  0  0  0
   -0.5778   23.8725  -29.3187 H   0  0  0  0  0  0  0  0  0  0  0  0
   -1.8672   25.1232  -29.3187 H   0  0  0  0  0  0  0  0  0  0  0  0
   -1.1633   21.5031  -29.9946 H   0  0  0  0  0  0  0  0  0  0  0  0
   -0.7284   18.9703  -32.5594 H   0  0  0  0  0  0  0  0  0  0  0  0
   -2.2596   18.7545  -33.4734 H   0  0  0  0  0  0  0  0  0  0  0  0
   -1.4306   20.3480  -33.4734 H   0  0  0  0  0  0  0  0  0  0  0  0
   -8.0102   18.5123  -32.8221 H   0  0  0  0  0  0  0  0  0  0  0  0
  -10.3387   19.3674  -32.6109 H   0  0  0  0  0  0  0  0  0  0  0  0
  -10.7534   21.7174  -31.8844 H   0  0  0  0  0  0  0  0  0  0  0  0
   -8.8308   23.2155  -31.3534 H   0  0  0  0  0  0  0  0  0  0  0  0
   -6.4955   22.3757  -31.5538 H   0  0  0  0  0  0  0  0  0  0  0  0
   -5.7029   17.4392  -31.0532 H   0  0  0  0  0  0  0  0  0  0  0  0
   -5.7662   15.1708  -32.0625 H   0  0  0  0  0  0  0  0  0  0  0  0
  1  2  1  0
  2  3  1  0
  3  4  2  0
  4  5  1  0
  5  6  2  0
  6  7  1  0
  7  8  1  1
  7  9  1  0
  9 10  1  0
 10 11  2  0
 11 12  1  0
 12 13  1  0
 13 14  1  0
 12 15  2  0
 15 16  1  0
 15 17  1  0
 17 18  2  0
 18 19  1  0
 19 20  1  0
  7 21  1  0
 21 22  2  0
 22 23  1  0
 23 24  2  0
 24 25  1  0
 25 26  2  0
  6 27  1  0
 27 28  2  0
 28  3  1  0
 18 10  1  0
 26 21  1  0
  1 29  1  0
  1 30  1  0
  1 31  1  0
  4 32  1  0
  5 33  1  0
  8 34  1  0
  9 35  1  0
  9 36  1  0
 11 37  1  0
 14 38  1  0
 14 39  1  0
 14 40  1  0
 16 41  1  0
 16 42  1  0
 16 43  1  0
 17 44  1  0
 20 45  1  0
 20 46  1  0
 20 47  1  0
 22 48  1  0
 23 49  1  0
 24 50  1  0
 25 51  1  0
 26 52  1  0
 27 53  1  0
 28 54  1  0
M  END
>  <UniqueID>  (9) 
8

>  <SMILES>  (9) 
COc1ccc([C@@](O)(Cc2cc(OC)c(C)cc2OC)c2ccccc2)cc1

>  <Energy>  (9) 
59.733002468723726

>  <Genealogy>  (9) 
COc1ccc(C(O)(Cc2cc(OC)c(C)cc2OC)c2ccccc2)cc1 (protonated)
COc1ccc([C@@](O)(Cc2cc(OC)c(C)cc2OC)c2ccccc2)cc1 (chirality)
COc1ccc([C@@](O)(Cc2cc(OC)c(C)cc2OC)c2ccccc2)cc1 (3D coordinates assigned)
COc1ccc([C@@](O)(Cc2cc(OC)c(C)cc2OC)c2ccccc2)cc1 (optimized conformer: 59.733002468723726 kcal/mol)

>  <smiles>  (9) 
COc1ccc(C([O-])(Cc2cc(OC)c(C)cc2OC)c2ccccc2)cc1

>  <score_type>  (9) 
oracle

>  <origin>  (9) 
adg

>  <m_score__min__energy>  (9) 
-8.0700000000000003

>  <m_primary>  (9) 
energy

$$$$
9:0
     RDKit          3D

 65 68  0  0  0  0  0  0  0  0999 V2000
   -0.7760   26.9660  -27.8190 C   0  0  0  0  0  0  0  0  0  0  0  0
   -1.1950   26.2180  -28.9560 O   0  0  0  0  0  0  0  0  0  0  0  0
   -1.3860   24.8270  -28.9680 C   0  0  0  0  0  0  0  0  0  0  0  0
   -0.3830   23.9320  -28.5510 C   0  0  0  0  0  0  0  0  0  0  0  0
   -0.6100   22.5480  -28.5580 C   0  0  0  0  0  0  0  0  0  0  0  0
   -1.8480   22.0460  -29.0030 C   0  0  0  0  0  0  0  0  0  0  0  0
   -2.8440   22.9410  -29.4240 C   0  0  0  0  0  0  0  0  0  0  0  0
   -2.6170   24.3300  -29.4140 C   0  0  0  0  0  0  0  0  0  0  0  0
   -3.5920   25.2480  -29.8420 O   0  0  0  0  0  0  0  0  0  0  0  0
   -4.9610   24.9250  -30.0670 C   0  0  0  0  0  0  0  0  0  0  0  0
   -2.1520   20.5560  -28.9790 C   0  0  2  0  0  0  0  0  0  0  0  0
   -3.1020   20.2200  -27.8210 C   0  0  0  0  0  0  0  0  0  0  0  0
   -0.9320   19.7130  -28.9000 N   0  0  0  0  0  0  0  0  0  0  0  0
   -0.2930   19.5060  -30.2210 C   0  0  0  0  0  0  0  0  0  0  0  0
   -1.0660   20.2600  -31.3130 C   0  0  0  0  0  0  0  0  0  0  0  0
   -2.0840   19.3420  -32.0180 C   0  0  0  0  0  0  0  0  0  0  0  0
   -2.7570   19.9980  -33.1640 N   0  0  0  0  0  0  0  0  0  0  0  0
   -3.6240   21.0940  -32.7510 C   0  0  0  0  0  0  0  0  0  0  0  0
   -3.1260   22.1790  -32.4870 O   0  0  0  0  0  0  0  0  0  0  0  0
   -5.1300   20.9890  -32.6940 C   0  0  0  0  0  0  0  0  0  0  0  0
   -5.6650   19.5580  -32.9080 C   0  0  0  0  0  0  0  0  0  0  0  0
   -7.1850   19.6000  -33.1860 C   0  0  0  0  0  0  0  0  0  0  0  0
   -7.7780   18.4000  -32.4720 C   0  0  0  0  0  0  0  0  0  0  0  0
   -6.9200   18.2210  -31.2380 C   0  0  0  0  0  0  0  0  0  0  0  0
   -5.5210   18.6830  -31.6330 C   0  0  0  0  0  0  0  0  0  0  0  0
   -4.9340   18.9270  -34.1120 C   0  0  0  0  0  0  0  0  0  0  0  0
   -3.4310   19.0030  -33.9820 C   0  0  0  0  0  0  0  0  0  0  0  0
   -2.7610   18.2160  -34.6390 O   0  0  0  0  0  0  0  0  0  0  0  0
    0.0240   20.2050  -27.8850 C   0  0  0  0  0  0  0  0  0  0  0  0
    0.5200   21.6210  -28.1960 C   0  0  0  0  0  0  0  0  0  0  0  0
   -1.0728   26.4362  -26.9018 H   0  0  0  0  0  0  0  0  0  0  0  0
    0.3178   27.0809  -27.8384 H   0  0  0  0  0  0  0  0  0  0  0  0
   -1.2494   27.9588  -27.8384 H   0  0  0  0  0  0  0  0  0  0  0  0
    0.5894   24.3222  -28.2160 H   0  0  0  0  0  0  0  0  0  0  0  0
   -3.8143   22.5518  -29.7661 H   0  0  0  0  0  0  0  0  0  0  0  0
   -5.4728   24.8042  -29.1008 H   0  0  0  0  0  0  0  0  0  0  0  0
   -5.4399   25.7348  -30.6370 H   0  0  0  0  0  0  0  0  0  0  0  0
   -5.0274   23.9865  -30.6370 H   0  0  0  0  0  0  0  0  0  0  0  0
   -2.6391   20.3223  -29.9372 H   0  0  0  0  0  0  0  0  0  0  0  0
   -2.5913   20.4006  -26.8636 H   0  0  0  0  0  0  0  0  0  0  0  0
   -3.9972   20.8560  -27.8848 H   0  0  0  0  0  0  0  0  0  0  0  0
   -3.3982   19.1626  -27.8848 H   0  0  0  0  0  0  0  0  0  0  0  0
    0.7413   19.8788  -30.1858 H   0  0  0  0  0  0  0  0  0  0  0  0
   -0.2994   18.4315  -30.4563 H   0  0  0  0  0  0  0  0  0  0  0  0
   -1.6027   21.1034  -30.8540 H   0  0  0  0  0  0  0  0  0  0  0  0
   -0.3451   20.6175  -32.0630 H   0  0  0  0  0  0  0  0  0  0  0  0
   -1.5560   18.4496  -32.3853 H   0  0  0  0  0  0  0  0  0  0  0  0
   -2.8607   19.0852  -31.2826 H   0  0  0  0  0  0  0  0  0  0  0  0
   -2.0170   20.4180  -33.7770 H   0  0  0  0  0  0  0  0  0  0  0  0
   -5.4646   21.3399  -31.7066 H   0  0  0  0  0  0  0  0  0  0  0  0
   -5.5245   21.6038  -33.5164 H   0  0  0  0  0  0  0  0  0  0  0  0
   -7.6192   20.5310  -32.7926 H   0  0  0  0  0  0  0  0  0  0  0  0
   -7.3966   19.5699  -34.2650 H   0  0  0  0  0  0  0  0  0  0  0  0
   -8.8239   18.5937  -32.1919 H   0  0  0  0  0  0  0  0  0  0  0  0
   -7.7853   17.5014  -33.1064 H   0  0  0  0  0  0  0  0  0  0  0  0
   -7.3064   18.8343  -30.4107 H   0  0  0  0  0  0  0  0  0  0  0  0
   -6.9189   17.1761  -30.8941 H   0  0  0  0  0  0  0  0  0  0  0  0
   -5.0763   19.2744  -30.8191 H   0  0  0  0  0  0  0  0  0  0  0  0
   -4.8663   17.8202  -31.8253 H   0  0  0  0  0  0  0  0  0  0  0  0
   -5.2283   17.8699  -34.1886 H   0  0  0  0  0  0  0  0  0  0  0  0
   -5.2204   19.4932  -35.0106 H   0  0  0  0  0  0  0  0  0  0  0  0
   -0.4730   20.2112  -26.9037 H   0  0  0  0  0  0  0  0  0  0  0  0
    0.8953   19.5335  -27.8880 H   0  0  0  0  0  0  0  0  0  0  0  0
    1.0359   22.0192  -27.3098 H   0  0  0  0  0  0  0  0  0  0  0  0
    1.1997   21.5609  -29.0588 H   0  0  0  0  0  0  0  0  0  0  0  0
  1  2  1  0
  2  3  1  0
  3  4  2  0
  4  5  1  0
  5  6  2  0
  6  7  1  0
  7  8  2  0
  8  9  1  0
  9 10  1  0
  6 11  1  0
 11 12  1  0
 11 13  1  0
 13 14  1  0
 14 15  1  0
 15 16  1  0
 16 17  1  0
 17 18  1  0
 18 19  2  0
 18 20  1  0
 20 21  1  0
 21 22  1  0
 22 23  1  0
 23 24  1  0
 24 25  1  0
 21 26  1  0
 26 27  1  0
 27 28  2  0
 13 29  1  0
 29 30  1  0
  8  3  1  0
 27 17  1  0
 30  5  1  0
 25 21  1  0
  1 31  1  0
  1 32  1  0
  1 33  1  0
  4 34  1  0
  7 35  1  0
 10 36  1  0
 10 37  1  0
 10 38  1  0
 11 39  1  6
 12 40  1  0
 12 41  1  0
 12 42  1  0
 14 43  1  0
 14 44  1  0
 15 45  1  0
 15 46  1  0
 16 47  1  0
 16 48  1  0
 17 49  1  0
 20 50  1  0
 20 51  1  0
 22 52  1  0
 22 53  1  0
 23 54  1  0
 23 55  1  0
 24 56  1  0
 24 57  1  0
 25 58  1  0
 25 59  1  0
 26 60  1  0
 26 61  1  0
 29 62  1  0
 29 63  1  0
 30 64  1  0
 30 65  1  0
M  CHG  1  17   1
M  END
>  <UniqueID>  (10) 
9

>  <SMILES>  (10) 
COc1cc2c(cc1OC)[C@H](C)N(CCC[NH+]1C(=O)CC3(CCCC3)CC1=O)CC2

>  <Energy>  (10) 
76.68554137171537

>  <Genealogy>  (10) 
COc1cc2c(cc1OC)C(C)N(CCC[NH+]1C(=O)CC3(CCCC3)CC1=O)CC2 (protonated)
COc1cc2c(cc1OC)[C@H](C)N(CCC[NH+]1C(=O)CC3(CCCC3)CC1=O)CC2 (chirality)
COc1cc2c(cc1OC)[C@H](C)N(CCC[NH+]1C(=O)CC3(CCCC3)CC1=O)CC2 (3D coordinates assigned)
COc1cc2c(cc1OC)[C@H](C)N(CCC[NH+]1C(=O)CC3(CCCC3)CC1=O)CC2 (nonaromatic ring conformer: 76.68554137171537 kcal/mol)

>  <smiles>  (10) 
COc1cc2c(cc1OC)C(C)N(CCCN1C(=O)CC3(CCCC3)CC1=O)CC2

>  <score_type>  (10) 
oracle

>  <origin>  (10) 
adg

>  <m_score__min__energy>  (10) 
-8.8699999999999992

>  <m_primary>  (10) 
energy

$$$$
10:0
     RDKit          3D

 48 49  0  0  0  0  0  0  0  0999 V2000
   -2.0400   16.4080  -35.0710 C   0  0  0  0  0  0  0  0  0  0  0  0
   -3.5200   16.2840  -35.4220 C   0  0  0  0  0  0  0  0  0  0  0  0
   -4.3370   17.2840  -34.6480 C   0  0  0  0  0  0  0  0  0  0  0  0
   -3.7470   18.4650  -34.1750 C   0  0  0  0  0  0  0  0  0  0  0  0
   -4.5090   19.4050  -33.4770 C   0  0  0  0  0  0  0  0  0  0  0  0
   -5.8770   19.1820  -33.2470 C   0  0  0  0  0  0  0  0  0  0  0  0
   -6.6880   20.1740  -32.5120 C   0  0  0  0  0  0  0  0  0  0  0  0
   -6.2000   20.9530  -31.5210 N   0  0  0  0  0  0  0  0  0  0  0  0
   -7.2620   21.6950  -31.1540 C   0  0  0  0  0  0  0  0  0  0  0  0
   -7.2020   22.7620  -30.1010 C   0  0  0  0  0  0  0  0  0  0  0  0
   -6.7710   24.0450  -30.6960 N   0  0  0  0  0  0  0  0  0  0  0  0
   -6.0380   23.7890  -31.9490 C   0  0  0  0  0  0  0  0  0  0  0  0
   -5.9260   24.8050  -29.7500 C   0  0  0  0  0  0  0  0  0  0  0  0
   -4.4640   24.5570  -30.0150 C   0  0  0  0  0  0  0  0  0  0  0  0
   -3.8720   25.3050  -30.8420 O   0  0  0  0  0  0  0  0  0  0  0  0
   -3.7270   23.5090  -29.3430 N   0  0  0  0  0  0  0  0  0  0  0  0
   -4.3640   22.6690  -28.3230 C   0  0  0  0  0  0  0  0  0  0  0  0
   -2.3120   23.3080  -29.6760 C   0  0  0  0  0  0  0  0  0  0  0  0
   -8.3470   21.3420  -31.9300 C   0  0  0  0  0  0  0  0  0  0  0  0
   -9.7310   21.9000  -31.8710 C   0  0  0  0  0  0  0  0  0  0  0  0
   -7.9610   20.4020  -32.7550 O   0  0  0  0  0  0  0  0  0  0  0  0
   -6.4700   18.0060  -33.7330 C   0  0  0  0  0  0  0  0  0  0  0  0
   -5.7060   17.0670  -34.4340 C   0  0  0  0  0  0  0  0  0  0  0  0
   -1.9221   16.4179  -33.9774 H   0  0  0  0  0  0  0  0  0  0  0  0
   -1.4906   15.5527  -35.4913 H   0  0  0  0  0  0  0  0  0  0  0  0
   -1.6405   17.3428  -35.4913 H   0  0  0  0  0  0  0  0  0  0  0  0
   -3.6521   16.4661  -36.4987 H   0  0  0  0  0  0  0  0  0  0  0  0
   -3.8613   15.2714  -35.1611 H   0  0  0  0  0  0  0  0  0  0  0  0
   -2.6780   18.6523  -34.3546 H   0  0  0  0  0  0  0  0  0  0  0  0
   -4.0351   20.3254  -33.1052 H   0  0  0  0  0  0  0  0  0  0  0  0
   -8.1989   22.8863  -29.6529 H   0  0  0  0  0  0  0  0  0  0  0  0
   -6.4771   22.4635  -29.3294 H   0  0  0  0  0  0  0  0  0  0  0  0
   -5.0234   23.4347  -31.7144 H   0  0  0  0  0  0  0  0  0  0  0  0
   -6.5679   23.0227  -32.5338 H   0  0  0  0  0  0  0  0  0  0  0  0
   -5.9757   24.7186  -32.5338 H   0  0  0  0  0  0  0  0  0  0  0  0
   -6.1352   25.8790  -29.8632 H   0  0  0  0  0  0  0  0  0  0  0  0
   -6.1586   24.4735  -28.7272 H   0  0  0  0  0  0  0  0  0  0  0  0
   -4.0875   23.0336  -27.3227 H   0  0  0  0  0  0  0  0  0  0  0  0
   -5.4567   22.7144  -28.4407 H   0  0  0  0  0  0  0  0  0  0  0  0
   -4.0255   21.6290  -28.4407 H   0  0  0  0  0  0  0  0  0  0  0  0
   -1.7255   23.2247  -28.7492 H   0  0  0  0  0  0  0  0  0  0  0  0
   -2.2013   22.3851  -30.2642 H   0  0  0  0  0  0  0  0  0  0  0  0
   -1.9486   24.1635  -30.2642 H   0  0  0  0  0  0  0  0  0  0  0  0
  -10.0328   22.0217  -30.8202 H   0  0  0  0  0  0  0  0  0  0  0  0
   -9.7540   22.8777  -32.3747 H   0  0  0  0  0  0  0  0  0  0  0  0
  -10.4256   21.2117  -32.3747 H   0  0  0  0  0  0  0  0  0  0  0  0
   -7.5409   17.8220  -33.5617 H   0  0  0  0  0  0  0  0  0  0  0  0
   -6.1817   16.1532  -34.8196 H   0  0  0  0  0  0  0  0  0  0  0  0
  1  2  1  0
  2  3  1  0
  3  4  2  0
  4  5  1  0
  5  6  2  0
  6  7  1  0
  7  8  2  0
  8  9  1  0
  9 10  1  0
 10 11  1  0
 11 12  1  0
 11 13  1  0
 13 14  1  0
 14 15  2  0
 14 16  1  0
 16 17  1  0
 16 18  1  0
  9 19  2  0
 19 20  1  0
 19 21  1  0
  6 22  1  0
 22 23  2  0
 23  3  1  0
 21  7  1  0
  1 24  1  0
  1 25  1  0
  1 26  1  0
  2 27  1  0
  2 28  1  0
  4 29  1  0
  5 30  1  0
 10 31  1  0
 10 32  1  0
 12 33  1  0
 12 34  1  0
 12 35  1  0
 13 36  1  0
 13 37  1  0
 17 38  1  0
 17 39  1  0
 17 40  1  0
 18 41  1  0
 18 42  1  0
 18 43  1  0
 20 44  1  0
 20 45  1  0
 20 46  1  0
 22 47  1  0
 23 48  1  0
M  END
>  <UniqueID>  (11) 
10

>  <SMILES>  (11) 
CCc1ccc(-c2nc(CN(C)CC(=O)N(C)C)c(C)o2)cc1

>  <Energy>  (11) 
68.21302994052895

>  <Genealogy>  (11) 
CCc1ccc(-c2nc(CN(C)CC(=O)N(C)C)c(C)o2)cc1 (3D coordinates assigned)
CCc1ccc(-c2nc(CN(C)CC(=O)N(C)C)c(C)o2)cc1 (optimized conformer: 68.21302994052895 kcal/mol)

>  <smiles>  (11) 
CCc1ccc(-c2nc(CN(C)CC(=O)N(C)C)c(C)o2)cc1

>  <score_type>  (11) 
oracle

>  <origin>  (11) 
adg

>  <m_score__min__energy>  (11) 
-7.7400000000000002

>  <m_primary>  (11) 
energy

$$$$
11:0
     RDKit          3D

 52 54  0  0  0  0  0  0  0  0999 V2000
   -8.0950   18.5620  -31.7510 C   0  0  0  0  0  0  0  0  0  0  0  0
   -7.3410   17.7980  -32.8450 C   0  0  0  0  0  0  0  0  0  0  0  0
   -5.8090   18.0750  -32.8300 C   0  0  2  0  0  0  0  0  0  0  0  0
   -5.4010   18.8000  -31.5110 C   0  0  0  0  0  0  0  0  0  0  0  0
   -4.4710   20.0240  -31.6890 C   0  0  1  0  0  0  0  0  0  0  0  0
   -3.3930   19.8040  -32.7540 C   0  0  2  0  0  0  0  0  0  0  0  0
   -2.9440   21.2140  -33.1160 C   0  0  0  0  0  0  0  0  0  0  0  0
   -4.1770   22.0920  -33.0000 C   0  0  0  0  0  0  0  0  0  0  0  0
   -5.1230   21.4420  -31.9480 C   0  0  1  0  0  0  0  0  0  0  0  0
   -6.5760   21.3930  -32.4900 C   0  0  0  0  0  0  0  0  0  0  0  0
   -7.1860   22.7840  -32.7180 C   0  0  0  0  0  0  0  0  0  0  0  0
   -6.5320   23.8950  -31.8790 C   0  0  0  0  0  0  0  0  0  0  0  0
   -6.0620   23.4390  -30.5420 N   0  0  0  0  0  0  0  0  0  0  0  0
   -5.3570   24.5790  -29.8990 C   0  0  0  0  0  0  0  0  0  0  0  0
   -7.2370   23.1160  -29.6880 C   0  0  0  0  0  0  0  0  0  0  0  0
   -5.1220   22.2620  -30.6080 C   0  0  0  0  0  0  0  0  0  0  0  0
   -3.8780   18.9880  -33.9800 C   0  0  0  0  0  0  0  0  0  0  0  0
   -5.3490   18.8480  -34.0180 N   0  0  0  0  0  0  0  0  0  0  0  0
   -5.7370   18.2110  -35.2940 C   0  0  0  0  0  0  0  0  0  0  0  0
   -7.7554   18.2179  -30.7629 H   0  0  0  0  0  0  0  0  0  0  0  0
   -7.8961   19.6391  -31.8524 H   0  0  0  0  0  0  0  0  0  0  0  0
   -9.1746   18.3773  -31.8524 H   0  0  0  0  0  0  0  0  0  0  0  0
   -7.5045   16.7203  -32.6970 H   0  0  0  0  0  0  0  0  0  0  0  0
   -7.7294   18.1410  -33.8153 H   0  0  0  0  0  0  0  0  0  0  0  0
   -5.3071   17.0973  -32.8772 H   0  0  0  0  0  0  0  0  0  0  0  0
   -6.3203   19.1414  -31.0126 H   0  0  0  0  0  0  0  0  0  0  0  0
   -4.8284   18.0658  -30.9252 H   0  0  0  0  0  0  0  0  0  0  0  0
   -4.0496   20.0763  -30.6743 H   0  0  0  0  0  0  0  0  0  0  0  0
   -2.5680   19.1837  -32.3738 H   0  0  0  0  0  0  0  0  0  0  0  0
   -2.1645   21.5569  -32.4197 H   0  0  0  0  0  0  0  0  0  0  0  0
   -2.5178   21.2520  -34.1294 H   0  0  0  0  0  0  0  0  0  0  0  0
   -3.8887   23.1015  -32.6716 H   0  0  0  0  0  0  0  0  0  0  0  0
   -4.6829   22.1767  -33.9731 H   0  0  0  0  0  0  0  0  0  0  0  0
   -6.5735   20.8515  -33.4475 H   0  0  0  0  0  0  0  0  0  0  0  0
   -7.1906   20.8880  -31.7302 H   0  0  0  0  0  0  0  0  0  0  0  0
   -7.0741   23.0414  -33.7816 H   0  0  0  0  0  0  0  0  0  0  0  0
   -8.2395   22.7262  -32.4068 H   0  0  0  0  0  0  0  0  0  0  0  0
   -5.6679   24.2870  -32.4355 H   0  0  0  0  0  0  0  0  0  0  0  0
   -7.3022   24.6608  -31.7044 H   0  0  0  0  0  0  0  0  0  0  0  0
   -5.4190   24.4787  -28.8053 H   0  0  0  0  0  0  0  0  0  0  0  0
   -4.3013   24.5785  -30.2079 H   0  0  0  0  0  0  0  0  0  0  0  0
   -5.8290   25.5233  -30.2079 H   0  0  0  0  0  0  0  0  0  0  0  0
   -6.9526   23.1942  -28.6283 H   0  0  0  0  0  0  0  0  0  0  0  0
   -8.0515   23.8235  -29.9022 H   0  0  0  0  0  0  0  0  0  0  0  0
   -7.5754   22.0915  -29.9022 H   0  0  0  0  0  0  0  0  0  0  0  0
   -4.1013   22.6393  -30.4472 H   0  0  0  0  0  0  0  0  0  0  0  0
   -5.4754   21.5620  -29.8366 H   0  0  0  0  0  0  0  0  0  0  0  0
   -3.5480   19.4983  -34.8969 H   0  0  0  0  0  0  0  0  0  0  0  0
   -3.4471   17.9789  -33.9028 H   0  0  0  0  0  0  0  0  0  0  0  0
   -6.2990   17.2883  -35.0872 H   0  0  0  0  0  0  0  0  0  0  0  0
   -6.3674   18.9025  -35.8722 H   0  0  0  0  0  0  0  0  0  0  0  0
   -4.8333   17.9681  -35.8722 H   0  0  0  0  0  0  0  0  0  0  0  0
  1  2  1  0
  2  3  1  0
  3  4  1  0
  4  5  1  0
  5  6  1  0
  6  7  1  0
  7  8  1  0
  9  8  1  6
  9 10  1  0
 10 11  1  0
 11 12  1  0
 12 13  1  0
 13 14  1  0
 13 15  1  0
 13 16  1  0
  6 17  1  0
 17 18  1  0
 18 19  1  0
 18  3  1  0
  9  5  1  0
 16  9  1  0
  1 20  1  0
  1 21  1  0
  1 22  1  0
  2 23  1  0
  2 24  1  0
  3 25  1  1
  4 26  1  0
  4 27  1  0
  5 28  1  1
  6 29  1  1
  7 30  1  0
  7 31  1  0
  8 32  1  0
  8 33  1  0
 10 34  1  0
 10 35  1  0
 11 36  1  0
 11 37  1  0
 12 38  1  0
 12 39  1  0
 14 40  1  0
 14 41  1  0
 14 42  1  0
 15 43  1  0
 15 44  1  0
 15 45  1  0
 16 46  1  0
 16 47  1  0
 17 48  1  0
 17 49  1  0
 19 50  1  0
 19 51  1  0
 19 52  1  0
M  CHG  1  13   1
M  END
>  <UniqueID>  (12) 
11

>  <SMILES>  (12) 
CC[C@@H]1C[C@H]2C(CCC23CCC[N+](C)(C)C3)CN1C

>  <Energy>  (12) 
88.61922305626

>  <Genealogy>  (12) 
CC[C@@H]1C[C@H]2C(CCC23CCC[N+](C)(C)C3)CN1C (chirality)
CC[C@@H]1C[C@H]2C(CCC23CCC[N+](C)(C)C3)CN1C (3D coordinates assigned)
CC[C@@H]1C[C@H]2C(CCC23CCC[N+](C)(C)C3)CN1C (nonaromatic ring conformer: 88.61922305626 kcal/mol)

>  <smiles>  (12) 
CCC1CC2C(CCC23CCC[N+](C)(C)C3)CN1C

>  <score_type>  (12) 
oracle

>  <origin>  (12) 
adg

>  <m_score__min__energy>  (12) 
-6.4100000000000001

>  <m_primary>  (12) 
energy

$$$$
12:0
     RDKit          3D

 52 54  0  0  0  0  0  0  0  0999 V2000
   -3.1100   16.3490  -34.6790 C   0  0  0  0  0  0  0  0  0  0  0  0
   -4.4130   16.7920  -35.0430 O   0  0  0  0  0  0  0  0  0  0  0  0
   -5.1740   17.7200  -34.3140 C   0  0  0  0  0  0  0  0  0  0  0  0
   -4.7030   19.0100  -34.0310 C   0  0  0  0  0  0  0  0  0  0  0  0
   -5.4760   19.9210  -33.2820 C   0  0  0  0  0  0  0  0  0  0  0  0
   -4.9540   21.1760  -32.9200 C   0  0  0  0  0  0  0  0  0  0  0  0
   -3.6050   21.5260  -33.2780 N   0  0  0  0  0  0  0  0  0  0  0  0
   -2.4660   21.2250  -32.4090 C   0  0  0  0  0  0  0  0  0  0  0  0
   -1.1360   21.4700  -33.1440 C   0  0  0  0  0  0  0  0  0  0  0  0
   -1.0910   20.8170  -34.4740 N   0  0  0  0  0  0  0  0  0  0  0  0
    0.1570   21.1860  -35.1680 C   0  0  0  0  0  0  0  0  0  0  0  0
   -1.1790   19.3480  -34.3650 C   0  0  0  0  0  0  0  0  0  0  0  0
   -5.7370   22.0570  -32.1530 C   0  0  0  0  0  0  0  0  0  0  0  0
   -5.2480   23.3300  -31.7880 C   0  0  0  0  0  0  0  0  0  0  0  0
   -5.9950   24.1700  -30.9670 C   0  0  0  0  0  0  0  0  0  0  0  0
   -7.2350   23.7590  -30.4940 C   0  0  0  0  0  0  0  0  0  0  0  0
   -7.7560   22.5230  -30.8760 C   0  0  0  0  0  0  0  0  0  0  0  0
   -7.0420   21.6660  -31.7530 C   0  0  0  0  0  0  0  0  0  0  0  0
   -7.5810   20.4770  -32.2100 N   0  0  0  0  0  0  0  0  0  0  0  0
   -9.0280   20.2090  -32.0380 C   0  0  0  0  0  0  0  0  0  0  0  0
   -6.7820   19.5590  -32.8680 C   0  0  0  0  0  0  0  0  0  0  0  0
   -7.2220   18.2380  -33.1280 C   0  0  0  0  0  0  0  0  0  0  0  0
   -6.4310   17.3280  -33.8510 C   0  0  0  0  0  0  0  0  0  0  0  0
   -6.8590   16.0200  -34.1280 O   0  0  0  0  0  0  0  0  0  0  0  0
   -6.1040   14.8430  -33.8570 C   0  0  0  0  0  0  0  0  0  0  0  0
   -3.0255   16.3203  -33.5826 H   0  0  0  0  0  0  0  0  0  0  0  0
   -2.9380   15.3419  -35.0866 H   0  0  0  0  0  0  0  0  0  0  0  0
   -2.3598   17.0426  -35.0866 H   0  0  0  0  0  0  0  0  0  0  0  0
   -3.7131   19.3168  -34.3997 H   0  0  0  0  0  0  0  0  0  0  0  0
   -3.4290   21.9460  -34.2190 H   0  0  0  0  0  0  0  0  0  0  0  0
   -2.5106   21.8710  -31.5198 H   0  0  0  0  0  0  0  0  0  0  0  0
   -2.5166   20.1658  -32.1167 H   0  0  0  0  0  0  0  0  0  0  0  0
   -1.0024   22.5535  -33.2788 H   0  0  0  0  0  0  0  0  0  0  0  0
   -0.3321   21.0351  -32.5320 H   0  0  0  0  0  0  0  0  0  0  0  0
   -1.8910   21.1590  -35.0570 H   0  0  0  0  0  0  0  0  0  0  0  0
    0.9352   21.4161  -34.4254 H   0  0  0  0  0  0  0  0  0  0  0  0
    0.4879   20.3473  -35.7981 H   0  0  0  0  0  0  0  0  0  0  0  0
   -0.0214   22.0698  -35.7981 H   0  0  0  0  0  0  0  0  0  0  0  0
   -1.1963   19.0595  -33.3037 H   0  0  0  0  0  0  0  0  0  0  0  0
   -2.0997   18.9985  -34.8550 H   0  0  0  0  0  0  0  0  0  0  0  0
   -0.3066   18.8910  -34.8550 H   0  0  0  0  0  0  0  0  0  0  0  0
   -4.2660   23.6617  -32.1564 H   0  0  0  0  0  0  0  0  0  0  0  0
   -5.6031   25.1604  -30.6924 H   0  0  0  0  0  0  0  0  0  0  0  0
   -7.8072   24.4100  -29.8166 H   0  0  0  0  0  0  0  0  0  0  0  0
   -8.7368   22.2072  -30.4910 H   0  0  0  0  0  0  0  0  0  0  0  0
   -9.2677   20.1646  -30.9654 H   0  0  0  0  0  0  0  0  0  0  0  0
   -9.6089   21.0148  -32.5105 H   0  0  0  0  0  0  0  0  0  0  0  0
   -9.2817   19.2486  -32.5105 H   0  0  0  0  0  0  0  0  0  0  0  0
   -8.2058   17.9165  -32.7554 H   0  0  0  0  0  0  0  0  0  0  0  0
   -6.0162   14.7061  -32.7691 H   0  0  0  0  0  0  0  0  0  0  0  0
   -6.6124   13.9720  -34.2963 H   0  0  0  0  0  0  0  0  0  0  0  0
   -5.1004   14.9419  -34.2963 H   0  0  0  0  0  0  0  0  0  0  0  0
  1  2  1  0
  2  3  1  0
  3  4  2  0
  4  5  1  0
  5  6  2  0
  6  7  1  0
  7  8  1  0
  8  9  1  0
  9 10  1  0
 10 11  1  0
 10 12  1  0
  6 13  1  0
 13 14  2  0
 14 15  1  0
 15 16  2  0
 16 17  1  0
 17 18  2  0
 18 19  1  0
 19 20  1  0
 19 21  2  0
 21 22  1  0
 22 23  2  0
 23 24  1  0
 24 25  1  0
 23  3  1  0
 21  5  1  0
 18 13  1  0
  1 26  1  0
  1 27  1  0
  1 28  1  0
  4 29  1  0
  7 30  1  0
  8 31  1  0
  8 32  1  0
  9 33  1  0
  9 34  1  0
 10 35  1  0
 11 36  1  0
 11 37  1  0
 11 38  1  0
 12 39  1  0
 12 40  1  0
 12 41  1  0
 14 42  1  0
 15 43  1  0
 16 44  1  0
 17 45  1  0
 20 46  1  0
 20 47  1  0
 20 48  1  0
 22 49  1  0
 25 50  1  0
 25 51  1  0
 25 52  1  0
M  CHG  2  10   1  19   1
M  END
>  <UniqueID>  (13) 
12

>  <SMILES>  (13) 
COc1cc2c(NCC[NH+](C)C)c3ccccc3[n+](C)c2cc1OC

>  <Energy>  (13) 
78.13477205313416

>  <Genealogy>  (13) 
COc1cc2c(NCC[NH+](C)C)c3ccccc3[n+](C)c2cc1OC (protonated)
COc1cc2c(NCC[NH+](C)C)c3ccccc3[n+](C)c2cc1OC (3D coordinates assigned)
COc1cc2c(NCC[NH+](C)C)c3ccccc3[n+](C)c2cc1OC (optimized conformer: 78.13477205313416 kcal/mol)

>  <smiles>  (13) 
COc1cc2c(NCCN(C)C)c3ccccc3[n+](C)c2cc1OC

>  <score_type>  (13) 
oracle

>  <origin>  (13) 
adg

>  <m_score__min__energy>  (13) 
-6.5

>  <m_primary>  (13) 
energy

$$$$
13:0
     RDKit          3D

 42 44  0  0  0  0  0  0  0  0999 V2000
   -5.2010   20.1740  -33.4540 C   0  0  0  0  0  0  0  0  0  0  0  0
   -3.7330   19.7360  -33.4320 C   0  0  0  0  0  0  0  0  0  0  0  0
   -2.8040   20.8790  -33.5080 N   0  0  0  0  0  0  0  0  0  0  0  0
   -1.4270   20.4510  -33.8150 C   0  0  0  0  0  0  0  0  0  0  0  0
   -0.5920   20.2180  -32.5400 C   0  0  0  0  0  0  0  0  0  0  0  0
   -0.4930   21.4510  -31.6200 C   0  0  0  0  0  0  0  0  0  0  0  0
   -1.7520   21.7370  -30.9310 N   0  0  0  0  0  0  0  0  0  0  0  0
   -2.3090   22.7950  -30.3870 C   0  0  0  0  0  0  0  0  0  0  0  0
   -1.5150   23.5030  -29.4460 C   0  0  0  0  0  0  0  0  0  0  0  0
   -0.2730   23.0030  -28.9890 C   0  0  0  0  0  0  0  0  0  0  0  0
    0.5040   23.7370  -28.0890 C   0  0  0  0  0  0  0  0  0  0  0  0
    0.0650   24.9810  -27.6350 C   0  0  0  0  0  0  0  0  0  0  0  0
   -1.1520   25.4960  -28.0810 C   0  0  0  0  0  0  0  0  0  0  0  0
   -1.9410   24.7670  -28.9780 C   0  0  0  0  0  0  0  0  0  0  0  0
   -3.1100   25.2910  -29.4060 N   0  0  0  0  0  0  0  0  0  0  0  0
   -3.9370   24.6290  -30.2480 C   0  0  0  0  0  0  0  0  0  0  0  0
   -5.1490   25.2350  -30.5990 C   0  0  0  0  0  0  0  0  0  0  0  0
   -6.0740   24.5560  -31.3870 C   0  0  0  0  0  0  0  0  0  0  0  0
   -5.8050   23.2550  -31.7990 C   0  0  0  0  0  0  0  0  0  0  0  0
   -4.5950   22.6420  -31.4630 C   0  0  0  0  0  0  0  0  0  0  0  0
   -3.5970   23.3330  -30.7330 C   0  0  0  0  0  0  0  0  0  0  0  0
   -5.5666   20.2831  -32.4223 H   0  0  0  0  0  0  0  0  0  0  0  0
   -5.2884   21.1373  -33.9778 H   0  0  0  0  0  0  0  0  0  0  0  0
   -5.8020   19.4160  -33.9778 H   0  0  0  0  0  0  0  0  0  0  0  0
   -3.5421   19.1871  -32.4980 H   0  0  0  0  0  0  0  0  0  0  0  0
   -3.5587   19.1029  -34.3145 H   0  0  0  0  0  0  0  0  0  0  0  0
   -3.1380   21.5690  -34.2200 H   0  0  0  0  0  0  0  0  0  0  0  0
   -2.8070   21.3460  -32.5710 H   0  0  0  0  0  0  0  0  0  0  0  0
   -1.4670   19.5133  -34.3886 H   0  0  0  0  0  0  0  0  0  0  0  0
   -0.9447   21.2532  -34.3928 H   0  0  0  0  0  0  0  0  0  0  0  0
   -1.0527   19.3976  -31.9702 H   0  0  0  0  0  0  0  0  0  0  0  0
    0.4313   19.9838  -32.8687 H   0  0  0  0  0  0  0  0  0  0  0  0
    0.2878   21.2679  -30.8671 H   0  0  0  0  0  0  0  0  0  0  0  0
   -0.2509   22.3199  -32.2496 H   0  0  0  0  0  0  0  0  0  0  0  0
    0.0848   22.0260  -29.3460 H   0  0  0  0  0  0  0  0  0  0  0  0
    1.4647   23.3328  -27.7374 H   0  0  0  0  0  0  0  0  0  0  0  0
    0.6786   25.5555  -26.9255 H   0  0  0  0  0  0  0  0  0  0  0  0
   -1.4932   26.4797  -27.7261 H   0  0  0  0  0  0  0  0  0  0  0  0
   -5.3718   26.2541  -30.2500 H   0  0  0  0  0  0  0  0  0  0  0  0
   -7.0134   25.0461  -31.6825 H   0  0  0  0  0  0  0  0  0  0  0  0
   -6.5496   22.7050  -32.3932 H   0  0  0  0  0  0  0  0  0  0  0  0
   -4.4139   21.6018  -31.7716 H   0  0  0  0  0  0  0  0  0  0  0  0
  1  2  1  0
  2  3  1  0
  3  4  1  0
  4  5  1  0
  5  6  1  0
  6  7  1  0
  7  8  2  3
  8  9  1  0
  9 10  2  0
 10 11  1  0
 11 12  2  0
 12 13  1  0
 13 14  2  0
 14 15  1  0
 15 16  1  0
 16 17  2  0
 17 18  1  0
 18 19  2  0
 19 20  1  0
 20 21  2  0
 21  8  1  0
 14  9  1  0
 21 16  1  0
  1 22  1  0
  1 23  1  0
  1 24  1  0
  2 25  1  0
  2 26  1  0
  3 27  1  0
  3 28  1  0
  4 29  1  0
  4 30  1  0
  5 31  1  0
  5 32  1  0
  6 33  1  0
  6 34  1  0
 10 35  1  0
 11 36  1  0
 12 37  1  0
 13 38  1  0
 17 39  1  0
 18 40  1  0
 19 41  1  0
 20 42  1  0
M  CHG  2   3   1  15  -1
M  END
>  <UniqueID>  (14) 
13

>  <SMILES>  (14) 
CC[NH2+]CCCN=c1c2ccccc2[n-]c2ccccc12

>  <Energy>  (14) 
66.26774834790855

>  <Genealogy>  (14) 
CC[NH2+]CCCN=c1c2ccccc2[n-]c2ccccc12 (protonated)
CC[NH2+]CCCN=c1c2ccccc2[n-]c2ccccc12 (3D coordinates assigned)
CC[NH2+]CCCN=c1c2ccccc2[n-]c2ccccc12 (optimized conformer: 66.26774834790855 kcal/mol)

>  <smiles>  (14) 
CCNCCCN=c1c2ccccc2[nH]c2ccccc12

>  <score_type>  (14) 
oracle

>  <origin>  (14) 
adg

>  <m_score__min__energy>  (14) 
-7.0800000000000001

>  <m_primary>  (14) 
energy

$$$$
14:0
     RDKit          3D

 64 67  0  0  0  0  0  0  0  0999 V2000
    2.6300   26.6620  -25.1140 C   0  0  0  0  0  0  0  0  0  0  0  0
    1.9500   25.9960  -23.9050 C   0  0  0  0  0  0  0  0  0  0  0  0
    0.9190   26.8430  -23.2460 N   0  0  0  0  0  0  0  0  0  0  0  0
    1.1880   28.2860  -23.4850 C   0  0  0  0  0  0  0  0  0  0  0  0
    0.2220   28.9100  -24.4960 C   0  0  0  0  0  0  0  0  0  0  0  0
   -0.4620   26.4360  -23.6460 C   0  0  0  0  0  0  0  0  0  0  0  0
   -0.5010   25.0350  -24.2820 C   0  0  0  0  0  0  0  0  0  0  0  0
   -0.0510   25.0830  -25.6370 O   0  0  0  0  0  0  0  0  0  0  0  0
   -0.7550   24.6020  -26.7540 C   0  0  0  0  0  0  0  0  0  0  0  0
   -1.1150   23.2500  -26.7740 C   0  0  0  0  0  0  0  0  0  0  0  0
   -1.8150   22.7160  -27.8590 C   0  0  0  0  0  0  0  0  0  0  0  0
   -2.1750   23.5340  -28.9390 C   0  0  0  0  0  0  0  0  0  0  0  0
   -2.8970   22.9690  -30.1010 C   0  0  0  0  0  0  0  0  0  0  0  0
   -2.2470   21.9940  -30.8670 C   0  0  0  0  0  0  0  0  0  0  0  0
   -2.8800   21.3980  -31.9550 C   0  0  0  0  0  0  0  0  0  0  0  0
   -4.1870   21.7670  -32.3140 C   0  0  0  0  0  0  0  0  0  0  0  0
   -4.8440   21.1790  -33.4120 O   0  0  0  0  0  0  0  0  0  0  0  0
   -5.2160   19.8030  -33.5190 C   0  0  0  0  0  0  0  0  0  0  0  0
   -6.5660   19.5640  -32.8970 C   0  0  0  0  0  0  0  0  0  0  0  0
   -6.8010   18.3980  -32.1490 C   0  0  0  0  0  0  0  0  0  0  0  0
   -8.0570   18.1680  -31.5770 C   0  0  0  0  0  0  0  0  0  0  0  0
   -9.0880   19.0950  -31.7570 C   0  0  0  0  0  0  0  0  0  0  0  0
   -8.8660   20.2510  -32.5100 C   0  0  0  0  0  0  0  0  0  0  0  0
   -7.6120   20.4840  -33.0840 C   0  0  0  0  0  0  0  0  0  0  0  0
   -4.8570   22.7530  -31.5610 C   0  0  0  0  0  0  0  0  0  0  0  0
   -6.1640   23.1490  -31.9070 C   0  0  0  0  0  0  0  0  0  0  0  0
   -6.8200   24.1440  -31.1810 C   0  0  0  0  0  0  0  0  0  0  0  0
   -6.1840   24.7610  -30.1060 C   0  0  0  0  0  0  0  0  0  0  0  0
   -4.8900   24.3840  -29.7430 C   0  0  0  0  0  0  0  0  0  0  0  0
   -4.2110   23.3690  -30.4510 C   0  0  0  0  0  0  0  0  0  0  0  0
   -1.8120   24.8890  -28.9280 C   0  0  0  0  0  0  0  0  0  0  0  0
   -1.1130   25.4220  -27.8410 C   0  0  0  0  0  0  0  0  0  0  0  0
    3.3742   27.3909  -24.7606 H   0  0  0  0  0  0  0  0  0  0  0  0
    3.1294   25.8940  -25.7229 H   0  0  0  0  0  0  0  0  0  0  0  0
    1.8725   27.1773  -25.7229 H   0  0  0  0  0  0  0  0  0  0  0  0
    1.4680   25.0684  -24.2473 H   0  0  0  0  0  0  0  0  0  0  0  0
    2.7369   25.8148  -23.1581 H   0  0  0  0  0  0  0  0  0  0  0  0
    1.0480   26.6690  -22.2200 H   0  0  0  0  0  0  0  0  0  0  0  0
    1.0934   28.8240  -22.5302 H   0  0  0  0  0  0  0  0  0  0  0  0
    2.2027   28.3693  -23.9014 H   0  0  0  0  0  0  0  0  0  0  0  0
   -0.5845   29.4310  -23.9592 H   0  0  0  0  0  0  0  0  0  0  0  0
    0.7656   29.6281  -25.1275 H   0  0  0  0  0  0  0  0  0  0  0  0
   -0.2091   28.1192  -25.1275 H   0  0  0  0  0  0  0  0  0  0  0  0
   -1.1029   26.4358  -22.7520 H   0  0  0  0  0  0  0  0  0  0  0  0
   -0.8185   27.1552  -24.3981 H   0  0  0  0  0  0  0  0  0  0  0  0
    0.1512   24.3598  -23.7086 H   0  0  0  0  0  0  0  0  0  0  0  0
   -1.5379   24.6682  -24.2665 H   0  0  0  0  0  0  0  0  0  0  0  0
   -0.8444   22.6015  -25.9277 H   0  0  0  0  0  0  0  0  0  0  0  0
   -2.0846   21.6496  -27.8657 H   0  0  0  0  0  0  0  0  0  0  0  0
   -1.2214   21.6943  -30.6057 H   0  0  0  0  0  0  0  0  0  0  0  0
   -2.3511   20.6305  -32.5392 H   0  0  0  0  0  0  0  0  0  0  0  0
   -5.2536   19.5212  -34.5816 H   0  0  0  0  0  0  0  0  0  0  0  0
   -4.4701   19.1939  -32.9874 H   0  0  0  0  0  0  0  0  0  0  0  0
   -5.9941   17.6629  -32.0125 H   0  0  0  0  0  0  0  0  0  0  0  0
   -8.2333   17.2575  -30.9855 H   0  0  0  0  0  0  0  0  0  0  0  0
  -10.0747   18.9142  -31.3055 H   0  0  0  0  0  0  0  0  0  0  0  0
   -9.6786   20.9788  -32.6515 H   0  0  0  0  0  0  0  0  0  0  0  0
   -7.4438   21.3905  -33.6839 H   0  0  0  0  0  0  0  0  0  0  0  0
   -6.6719   22.6697  -32.7569 H   0  0  0  0  0  0  0  0  0  0  0  0
   -7.8419   24.4419  -31.4583 H   0  0  0  0  0  0  0  0  0  0  0  0
   -6.7038   25.5487  -29.5408 H   0  0  0  0  0  0  0  0  0  0  0  0
   -4.3945   24.8827  -28.8970 H   0  0  0  0  0  0  0  0  0  0  0  0
   -2.0784   25.5345  -29.7779 H   0  0  0  0  0  0  0  0  0  0  0  0
   -0.8412   26.4879  -27.8349 H   0  0  0  0  0  0  0  0  0  0  0  0
  1  2  1  0
  2  3  1  0
  3  4  1  0
  4  5  1  0
  3  6  1  0
  6  7  1  0
  7  8  1  0
  8  9  1  0
  9 10  2  0
 10 11  1  0
 11 12  2  0
 12 13  1  0
 13 14  2  0
 14 15  1  0
 15 16  2  0
 16 17  1  0
 17 18  1  0
 18 19  1  0
 19 20  2  0
 20 21  1  0
 21 22  2  0
 22 23  1  0
 23 24  2  0
 16 25  1  0
 25 26  2  0
 26 27  1  0
 27 28  2  0
 28 29  1  0
 29 30  2  0
 12 31  1  0
 31 32  2  0
 32  9  1  0
 30 13  1  0
 24 19  1  0
 30 25  1  0
  1 33  1  0
  1 34  1  0
  1 35  1  0
  2 36  1  0
  2 37  1  0
  3 38  1  0
  4 39  1  0
  4 40  1  0
  5 41  1  0
  5 42  1  0
  5 43  1  0
  6 44  1  0
  6 45  1  0
  7 46  1  0
  7 47  1  0
 10 48  1  0
 11 49  1  0
 14 50  1  0
 15 51  1  0
 18 52  1  0
 18 53  1  0
 20 54  1  0
 21 55  1  0
 22 56  1  0
 23 57  1  0
 24 58  1  0
 26 59  1  0
 27 60  1  0
 28 61  1  0
 29 62  1  0
 31 63  1  0
 32 64  1  0
M  CHG  1   3   1
M  END
>  <UniqueID>  (15) 
14

>  <SMILES>  (15) 
CC[NH+](CC)CCOc1ccc(-c2ccc(OCc3ccccc3)c3ccccc23)cc1

>  <Energy>  (15) 
83.69070135105275

>  <Genealogy>  (15) 
CC[NH+](CC)CCOc1ccc(-c2ccc(OCc3ccccc3)c3ccccc23)cc1 (protonated)
CC[NH+](CC)CCOc1ccc(-c2ccc(OCc3ccccc3)c3ccccc23)cc1 (3D coordinates assigned)
CC[NH+](CC)CCOc1ccc(-c2ccc(OCc3ccccc3)c3ccccc23)cc1 (optimized conformer: 83.69070135105275 kcal/mol)

>  <smiles>  (15) 
CCN(CC)CCOc1ccc(-c2ccc(OCc3ccccc3)c3ccccc23)cc1

>  <score_type>  (15) 
oracle

>  <origin>  (15) 
adg

>  <m_score__min__energy>  (15) 
-10.07

>  <m_primary>  (15) 
energy

$$$$
15:0
     RDKit          3D

 55 58  0  0  0  0  0  0  0  0999 V2000
   -1.3770   21.2860  -26.7610 C   0  0  0  0  0  0  0  0  0  0  0  0
   -1.5390   22.8020  -26.6990 C   0  0  0  0  0  0  0  0  0  0  0  0
   -0.2320   23.4690  -26.9000 N   0  0  0  0  0  0  0  0  0  0  0  0
    0.7420   22.5260  -27.4810 C   0  0  0  0  0  0  0  0  0  0  0  0
   -0.3650   24.6580  -27.7700 C   0  0  0  0  0  0  0  0  0  0  0  0
   -1.7730   25.2520  -27.6490 C   0  0  0  0  0  0  0  0  0  0  0  0
   -2.3700   25.3990  -28.9390 O   0  0  0  0  0  0  0  0  0  0  0  0
   -2.9380   24.3610  -29.6960 C   0  0  0  0  0  0  0  0  0  0  0  0
   -4.1550   24.6060  -30.3420 C   0  0  0  0  0  0  0  0  0  0  0  0
   -4.7550   23.6190  -31.1290 C   0  0  0  0  0  0  0  0  0  0  0  0
   -4.1360   22.3680  -31.2880 C   0  0  0  0  0  0  0  0  0  0  0  0
   -4.7590   21.3260  -32.1360 C   0  0  0  0  0  0  0  0  0  0  0  0
   -3.9410   20.6350  -33.0400 C   0  0  0  0  0  0  0  0  0  0  0  0
   -4.4580   19.6130  -33.8320 C   0  0  0  0  0  0  0  0  0  0  0  0
   -5.8030   19.2480  -33.7380 C   0  0  0  0  0  0  0  0  0  0  0  0
   -6.2720   18.1520  -34.5310 N   0  0  0  0  0  0  0  0  0  0  0  0
   -5.7350   16.8080  -34.3250 C   0  0  0  0  0  0  0  0  0  0  0  0
   -5.7790   16.3360  -32.8800 C   0  0  0  0  0  0  0  0  0  0  0  0
   -6.7840   15.8010  -33.8880 C   0  0  0  0  0  0  0  0  0  0  0  0
   -6.6670   19.9650  -32.8780 C   0  0  0  0  0  0  0  0  0  0  0  0
   -8.0470   19.6870  -32.8370 C   0  0  0  0  0  0  0  0  0  0  0  0
   -8.8930   20.4070  -31.9970 C   0  0  0  0  0  0  0  0  0  0  0  0
   -8.3840   21.4290  -31.2000 C   0  0  0  0  0  0  0  0  0  0  0  0
   -7.0260   21.7390  -31.2380 C   0  0  0  0  0  0  0  0  0  0  0  0
   -6.1420   21.0120  -32.0660 C   0  0  0  0  0  0  0  0  0  0  0  0
   -2.9320   22.1070  -30.6180 C   0  0  0  0  0  0  0  0  0  0  0  0
   -2.3350   23.0940  -29.8280 C   0  0  0  0  0  0  0  0  0  0  0  0
   -1.3336   20.8798  -25.7397 H   0  0  0  0  0  0  0  0  0  0  0  0
   -2.2334   20.8472  -27.2940 H   0  0  0  0  0  0  0  0  0  0  0  0
   -0.4472   21.0381  -27.2940 H   0  0  0  0  0  0  0  0  0  0  0  0
   -2.2357   23.1247  -27.4867 H   0  0  0  0  0  0  0  0  0  0  0  0
   -1.9328   23.0789  -25.7099 H   0  0  0  0  0  0  0  0  0  0  0  0
    1.2776   22.0074  -26.6722 H   0  0  0  0  0  0  0  0  0  0  0  0
    0.2126   21.7884  -28.1021 H   0  0  0  0  0  0  0  0  0  0  0  0
    1.4621   23.0789  -28.1021 H   0  0  0  0  0  0  0  0  0  0  0  0
    0.3747   25.4137  -27.4671 H   0  0  0  0  0  0  0  0  0  0  0  0
   -0.1921   24.3581  -28.8141 H   0  0  0  0  0  0  0  0  0  0  0  0
   -2.3959   24.5835  -27.0366 H   0  0  0  0  0  0  0  0  0  0  0  0
   -1.7002   26.2430  -27.1772 H   0  0  0  0  0  0  0  0  0  0  0  0
   -4.6441   25.5848  -30.2293 H   0  0  0  0  0  0  0  0  0  0  0  0
   -5.7152   23.8225  -31.6256 H   0  0  0  0  0  0  0  0  0  0  0  0
   -2.8776   20.9032  -33.1250 H   0  0  0  0  0  0  0  0  0  0  0  0
   -3.7999   19.0873  -34.5395 H   0  0  0  0  0  0  0  0  0  0  0  0
   -6.8520   18.3560  -35.3760 H   0  0  0  0  0  0  0  0  0  0  0  0
   -4.9612   16.8466  -35.1059 H   0  0  0  0  0  0  0  0  0  0  0  0
   -4.9868   15.6793  -32.4912 H   0  0  0  0  0  0  0  0  0  0  0  0
   -5.8476   16.8323  -31.9007 H   0  0  0  0  0  0  0  0  0  0  0  0
   -6.7192   14.7569  -34.2280 H   0  0  0  0  0  0  0  0  0  0  0  0
   -7.8816   15.7498  -33.9394 H   0  0  0  0  0  0  0  0  0  0  0  0
   -8.4612   18.8926  -33.4753 H   0  0  0  0  0  0  0  0  0  0  0  0
   -9.9661   20.1677  -31.9631 H   0  0  0  0  0  0  0  0  0  0  0  0
   -9.0566   21.9939  -30.5378 H   0  0  0  0  0  0  0  0  0  0  0  0
   -6.6379   22.5592  -30.6162 H   0  0  0  0  0  0  0  0  0  0  0  0
   -2.4548   21.1206  -30.7145 H   0  0  0  0  0  0  0  0  0  0  0  0
   -1.3900   22.8806  -29.3069 H   0  0  0  0  0  0  0  0  0  0  0  0
  1  2  1  0
  2  3  1  0
  3  4  1  0
  3  5  1  0
  5  6  1  0
  6  7  1  0
  7  8  1  0
  8  9  2  0
  9 10  1  0
 10 11  2  0
 11 12  1  0
 12 13  2  0
 13 14  1  0
 14 15  2  0
 15 16  1  0
 16 17  1  0
 17 18  1  0
 18 19  1  0
 15 20  1  0
 20 21  2  0
 21 22  1  0
 22 23  2  0
 23 24  1  0
 24 25  2  0
 11 26  1  0
 26 27  2  0
 27  8  1  0
 25 12  1  0
 19 17  1  0
 25 20  1  0
  1 28  1  0
  1 29  1  0
  1 30  1  0
  2 31  1  0
  2 32  1  0
  4 33  1  0
  4 34  1  0
  4 35  1  0
  5 36  1  0
  5 37  1  0
  6 38  1  0
  6 39  1  0
  9 40  1  0
 10 41  1  0
 13 42  1  0
 14 43  1  0
 16 44  1  0
 17 45  1  0
 18 46  1  0
 18 47  1  0
 19 48  1  0
 19 49  1  0
 21 50  1  0
 22 51  1  0
 23 52  1  0
 24 53  1  0
 26 54  1  0
 27 55  1  0
M  END
>  <UniqueID>  (16) 
15

>  <SMILES>  (16) 
CCN(C)CCOc1ccc(-c2ccc(NC3CC3)c3ccccc23)cc1

>  <Energy>  (16) 
339.3034402080166

>  <Genealogy>  (16) 
CCN(C)CCOc1ccc(-c2ccc(NC3CC3)c3ccccc23)cc1 (3D coordinates assigned)
CCN(C)CCOc1ccc(-c2ccc(NC3CC3)c3ccccc23)cc1 (nonaromatic ring conformer: 339.3034402080166 kcal/mol)

>  <smiles>  (16) 
CCN(C)CCOc1ccc(-c2ccc(NC3CC3)c3ccccc23)cc1

>  <score_type>  (16) 
oracle

>  <origin>  (16) 
adg

>  <m_score__min__energy>  (16) 
-9.3900000000000006

>  <m_primary>  (16) 
energy

$$$$
16:0
     RDKit          3D

 39 40  0  0  0  0  0  0  0  0999 V2000
   -9.1210   23.2860  -32.1890 C   0  0  0  0  0  0  0  0  0  0  0  0
   -7.6100   23.4240  -32.3410 C   0  0  0  0  0  0  0  0  0  0  0  0
   -6.9180   22.3900  -31.5630 N   0  0  0  0  0  0  0  0  0  0  0  0
   -6.5180   22.6290  -30.1720 C   0  0  0  0  0  0  0  0  0  0  0  0
   -5.1330   23.2150  -30.1180 C   0  0  0  0  0  0  0  0  0  0  0  0
   -4.0000   22.4170  -29.9930 C   0  0  0  0  0  0  0  0  0  0  0  0
   -2.7210   23.4780  -30.0790 S   0  0  0  0  0  0  0  0  0  0  0  0
   -3.5160   24.9210  -30.2770 N   0  0  0  0  0  0  0  0  0  0  0  0
   -4.8350   24.5960  -30.2790 C   0  0  0  0  0  0  0  0  0  0  0  0
   -5.8800   25.6500  -30.4740 C   0  0  0  0  0  0  0  0  0  0  0  0
   -6.6160   21.1270  -32.1790 C   0  0  0  0  0  0  0  0  0  0  0  0
   -5.4440   20.7730  -32.8230 C   0  0  0  0  0  0  0  0  0  0  0  0
   -4.2660   21.6510  -33.1020 C   0  0  0  0  0  0  0  0  0  0  0  0
   -5.5320   19.4790  -33.1890 N   0  0  0  0  0  0  0  0  0  0  0  0
   -6.6970   18.9980  -32.7770 N   0  0  0  0  0  0  0  0  0  0  0  0
   -7.1410   17.6260  -33.0030 C   0  0  0  0  0  0  0  0  0  0  0  0
   -7.3940   19.9820  -32.1650 C   0  0  0  0  0  0  0  0  0  0  0  0
   -8.7470   19.8250  -31.5420 C   0  0  0  0  0  0  0  0  0  0  0  0
   -9.3814   23.2622  -31.1205 H   0  0  0  0  0  0  0  0  0  0  0  0
   -9.6175   24.1425  -32.6684 H   0  0  0  0  0  0  0  0  0  0  0  0
   -9.4541   22.3537  -32.6684 H   0  0  0  0  0  0  0  0  0  0  0  0
   -7.3419   23.3182  -33.4026 H   0  0  0  0  0  0  0  0  0  0  0  0
   -7.3042   24.4130  -31.9691 H   0  0  0  0  0  0  0  0  0  0  0  0
   -7.2265   23.3298  -29.7064 H   0  0  0  0  0  0  0  0  0  0  0  0
   -6.5220   21.6718  -29.6300 H   0  0  0  0  0  0  0  0  0  0  0  0
   -3.9589   21.3252  -29.8654 H   0  0  0  0  0  0  0  0  0  0  0  0
   -6.2311   26.0041  -29.4935 H   0  0  0  0  0  0  0  0  0  0  0  0
   -5.4506   26.4926  -31.0359 H   0  0  0  0  0  0  0  0  0  0  0  0
   -6.7262   25.2278  -31.0359 H   0  0  0  0  0  0  0  0  0  0  0  0
   -3.8220   21.9819  -32.1515 H   0  0  0  0  0  0  0  0  0  0  0  0
   -3.5180   21.0883  -33.6798 H   0  0  0  0  0  0  0  0  0  0  0  0
   -4.5915   22.5286  -33.6798 H   0  0  0  0  0  0  0  0  0  0  0  0
   -4.8050   18.9310  -33.7000 H   0  0  0  0  0  0  0  0  0  0  0  0
   -7.3020   17.1286  -32.0352 H   0  0  0  0  0  0  0  0  0  0  0  0
   -8.0823   17.6343  -33.5721 H   0  0  0  0  0  0  0  0  0  0  0  0
   -6.3733   17.0812  -33.5721 H   0  0  0  0  0  0  0  0  0  0  0  0
   -8.6497   19.8363  -30.4464 H   0  0  0  0  0  0  0  0  0  0  0  0
   -9.3960   20.6539  -31.8610 H   0  0  0  0  0  0  0  0  0  0  0  0
   -9.1889   18.8695  -31.8610 H   0  0  0  0  0  0  0  0  0  0  0  0
  1  2  1  0
  2  3  1  0
  3  4  1  0
  4  5  1  0
  5  6  2  0
  6  7  1  0
  7  8  1  0
  8  9  2  0
  9 10  1  0
  3 11  1  0
 11 12  1  0
 12 13  1  0
 12 14  2  0
 14 15  1  0
 15 16  1  0
 15 17  1  0
 17 18  1  0
  9  5  1  0
 17 11  2  0
  1 19  1  0
  1 20  1  0
  1 21  1  0
  2 22  1  0
  2 23  1  0
  4 24  1  0
  4 25  1  0
  6 26  1  0
 10 27  1  0
 10 28  1  0
 10 29  1  0
 13 30  1  0
 13 31  1  0
 13 32  1  0
 14 33  1  0
 16 34  1  0
 16 35  1  0
 16 36  1  0
 18 37  1  0
 18 38  1  0
 18 39  1  0
M  CHG  1  14   1
M  END
>  <UniqueID>  (17) 
16

>  <SMILES>  (17) 
CCN(Cc1csnc1C)c1c(C)[nH+]n(C)c1C

>  <Energy>  (17) 
94.8783763628695

>  <Genealogy>  (17) 
CCN(Cc1csnc1C)c1c(C)[nH+]n(C)c1C (protonated)
CCN(Cc1csnc1C)c1c(C)[nH+]n(C)c1C (3D coordinates assigned)
CCN(Cc1csnc1C)c1c(C)[nH+]n(C)c1C (optimized conformer: 94.8783763628695 kcal/mol)

>  <smiles>  (17) 
CCN(Cc1csnc1C)c1c(C)nn(C)c1C

>  <score_type>  (17) 
oracle

>  <origin>  (17) 
adg

>  <m_score__min__energy>  (17) 
-6.75

>  <m_primary>  (17) 
energy

$$$$
17:0
     RDKit          3D

 49 51  0  0  0  0  0  0  0  0999 V2000
   -0.8510   26.5030  -23.8280 C   0  0  0  0  0  0  0  0  0  0  0  0
   -1.1060   26.1910  -25.2730 C   0  0  0  0  0  0  0  0  0  0  0  0
   -2.1540   25.3260  -25.6220 C   0  0  0  0  0  0  0  0  0  0  0  0
   -2.4130   25.0370  -26.9650 C   0  0  0  0  0  0  0  0  0  0  0  0
   -1.6220   25.5970  -27.9750 C   0  0  0  0  0  0  0  0  0  0  0  0
   -1.9360   25.3020  -29.3420 N   0  0  0  0  0  0  0  0  0  0  0  0
   -2.5740   24.1100  -29.8180 C   0  0  0  0  0  0  0  0  0  0  0  0
   -3.6580   24.1950  -30.4590 O   0  0  0  0  0  0  0  0  0  0  0  0
   -1.8670   22.7710  -29.7020 C   0  0  1  0  0  0  0  0  0  0  0  0
   -2.7270   21.7230  -28.9650 C   0  0  0  0  0  0  0  0  0  0  0  0
   -3.8810   21.2130  -29.8490 C   0  0  0  0  0  0  0  0  0  0  0  0
   -3.4570   20.8080  -31.2220 N   0  0  1  0  0  0  0  0  0  0  0  0
   -4.1470   21.5640  -32.2510 C   0  0  0  0  0  0  0  0  0  0  0  0
   -3.5310   21.9400  -33.2860 O   0  0  0  0  0  0  0  0  0  0  0  0
   -5.6000   21.8340  -32.1470 C   0  0  0  0  0  0  0  0  0  0  0  0
   -6.0310   23.1210  -31.7820 C   0  0  0  0  0  0  0  0  0  0  0  0
   -7.3920   23.4140  -31.6880 C   0  0  0  0  0  0  0  0  0  0  0  0
   -8.3400   22.4270  -31.9540 C   0  0  0  0  0  0  0  0  0  0  0  0
   -7.9300   21.1400  -32.3140 C   0  0  0  0  0  0  0  0  0  0  0  0
   -6.5640   20.8290  -32.4160 C   0  0  0  0  0  0  0  0  0  0  0  0
   -6.1600   19.4320  -32.8080 C   0  0  0  0  0  0  0  0  0  0  0  0
   -1.9930   20.8610  -31.4480 C   0  0  0  0  0  0  0  0  0  0  0  0
   -1.3820   22.2260  -31.0790 C   0  0  0  0  0  0  0  0  0  0  0  0
   -0.5860   26.4830  -27.6290 C   0  0  0  0  0  0  0  0  0  0  0  0
   -0.3280   26.7750  -26.2860 C   0  0  0  0  0  0  0  0  0  0  0  0
   -1.4209   25.8058  -23.1962 H   0  0  0  0  0  0  0  0  0  0  0  0
    0.2228   26.3976  -23.6141 H   0  0  0  0  0  0  0  0  0  0  0  0
   -1.1680   27.5344  -23.6141 H   0  0  0  0  0  0  0  0  0  0  0  0
   -2.7749   24.8730  -24.8351 H   0  0  0  0  0  0  0  0  0  0  0  0
   -3.2432   24.3656  -27.2296 H   0  0  0  0  0  0  0  0  0  0  0  0
   -0.9695   22.9566  -29.0936 H   0  0  0  0  0  0  0  0  0  0  0  0
   -3.1479   22.1809  -28.0577 H   0  0  0  0  0  0  0  0  0  0  0  0
   -2.0840   20.8673  -28.7113 H   0  0  0  0  0  0  0  0  0  0  0  0
   -4.6285   22.0149  -29.9396 H   0  0  0  0  0  0  0  0  0  0  0  0
   -4.2842   20.3135  -29.3607 H   0  0  0  0  0  0  0  0  0  0  0  0
   -3.7210   19.8010  -31.3340 H   0  0  0  0  0  0  0  0  0  0  0  0
   -5.2888   23.9043  -31.5685 H   0  0  0  0  0  0  0  0  0  0  0  0
   -7.7175   24.4255  -31.4035 H   0  0  0  0  0  0  0  0  0  0  0  0
   -9.4122   22.6613  -31.8805 H   0  0  0  0  0  0  0  0  0  0  0  0
   -8.6830   20.3647  -32.5190 H   0  0  0  0  0  0  0  0  0  0  0  0
   -5.9867   18.8326  -31.9021 H   0  0  0  0  0  0  0  0  0  0  0  0
   -6.9619   18.9720  -33.4041 H   0  0  0  0  0  0  0  0  0  0  0  0
   -5.2363   19.4711  -33.4041 H   0  0  0  0  0  0  0  0  0  0  0  0
   -1.7940   20.6626  -32.5115 H   0  0  0  0  0  0  0  0  0  0  0  0
   -1.5296   20.1038  -30.7984 H   0  0  0  0  0  0  0  0  0  0  0  0
   -1.6569   22.9527  -31.8577 H   0  0  0  0  0  0  0  0  0  0  0  0
   -0.2935   22.0848  -31.0065 H   0  0  0  0  0  0  0  0  0  0  0  0
    0.0236   26.9480  -28.4178 H   0  0  0  0  0  0  0  0  0  0  0  0
    0.4873   27.4646  -26.0220 H   0  0  0  0  0  0  0  0  0  0  0  0
  1  2  1  0
  2  3  2  0
  3  4  1  0
  4  5  2  0
  5  6  1  0
  6  7  1  0
  7  8  2  0
  7  9  1  0
  9 10  1  0
 10 11  1  0
 11 12  1  0
 12 13  1  0
 13 14  2  0
 13 15  1  0
 15 16  2  0
 16 17  1  0
 17 18  2  0
 18 19  1  0
 19 20  2  0
 20 21  1  0
 12 22  1  0
 22 23  1  0
  5 24  1  0
 24 25  2  0
 25  2  1  0
 23  9  1  0
 20 15  1  0
  1 26  1  0
  1 27  1  0
  1 28  1  0
  3 29  1  0
  4 30  1  0
  9 31  1  1
 10 32  1  0
 10 33  1  0
 11 34  1  0
 11 35  1  0
 12 36  1  6
 16 37  1  0
 17 38  1  0
 18 39  1  0
 19 40  1  0
 21 41  1  0
 21 42  1  0
 21 43  1  0
 22 44  1  0
 22 45  1  0
 23 46  1  0
 23 47  1  0
 24 48  1  0
 25 49  1  0
M  CHG  2   6  -1  12   1
M  END
>  <UniqueID>  (18) 
17

>  <SMILES>  (18) 
Cc1ccc([N-]C(=O)C2CC[NH+](C(=O)c3ccccc3C)CC2)cc1

>  <Energy>  (18) 
72.38225019591246

>  <Genealogy>  (18) 
Cc1ccc([N-]C(=O)C2CC[NH+](C(=O)c3ccccc3C)CC2)cc1 (protonated)
Cc1ccc([N-]C(=O)C2CC[NH+](C(=O)c3ccccc3C)CC2)cc1 (3D coordinates assigned)
Cc1ccc([N-]C(=O)C2CC[NH+](C(=O)c3ccccc3C)CC2)cc1 (nonaromatic ring conformer: 72.38225019591246 kcal/mol)

>  <smiles>  (18) 
Cc1ccc(NC(=O)C2CCN(C(=O)c3ccccc3C)CC2)cc1

>  <score_type>  (18) 
oracle

>  <origin>  (18) 
adg

>  <m_score__min__energy>  (18) 
-10.460000000000001

>  <m_primary>  (18) 
energy

$$$$
18:0
     RDKit          3D

 38 41  0  0  0  0  0  0  0  0999 V2000
   -5.3360   25.8340  -30.4620 C   0  0  0  0  0  0  0  0  0  0  0  0
   -3.9960   25.3560  -30.5010 O   0  0  0  0  0  0  0  0  0  0  0  0
   -3.5830   24.0940  -30.0450 C   0  0  0  0  0  0  0  0  0  0  0  0
   -2.7060   23.9530  -28.9500 C   0  0  0  0  0  0  0  0  0  0  0  0
   -2.3250   22.6850  -28.5080 C   0  0  0  0  0  0  0  0  0  0  0  0
   -2.8180   21.5450  -29.1430 C   0  0  0  0  0  0  0  0  0  0  0  0
   -3.6870   21.6690  -30.2270 C   0  0  0  0  0  0  0  0  0  0  0  0
   -4.0630   22.9390  -30.7000 C   0  0  0  0  0  0  0  0  0  0  0  0
   -4.9910   23.0510  -31.8890 C   0  0  0  0  0  0  0  0  0  0  0  0
   -5.6090   21.7550  -32.2010 N   0  0  0  0  0  0  0  0  0  0  0  0
   -5.0790   20.6640  -32.8290 C   0  0  0  0  0  0  0  0  0  0  0  0
   -3.6700   20.5090  -33.2280 C   0  0  0  0  0  0  0  0  0  0  0  0
   -3.0390   19.3440  -33.6220 C   0  0  0  0  0  0  0  0  0  0  0  0
   -1.7430   19.7040  -33.9180 C   0  0  0  0  0  0  0  0  0  0  0  0
   -1.6640   21.0640  -33.7000 C   0  0  0  0  0  0  0  0  0  0  0  0
   -2.8290   21.5150  -33.2950 O   0  0  0  0  0  0  0  0  0  0  0  0
   -6.0020   19.7050  -33.1190 N   0  0  0  0  0  0  0  0  0  0  0  0
   -7.1410   20.2230  -32.6290 C   0  0  0  0  0  0  0  0  0  0  0  0
   -8.4230   19.6870  -32.6750 C   0  0  0  0  0  0  0  0  0  0  0  0
   -9.4640   20.4610  -32.1310 C   0  0  0  0  0  0  0  0  0  0  0  0
   -9.1790   21.7320  -31.5790 C   0  0  0  0  0  0  0  0  0  0  0  0
   -7.8990   22.2120  -31.5650 N   0  0  0  0  0  0  0  0  0  0  0  0
   -6.9080   21.4420  -32.0820 C   0  0  0  0  0  0  0  0  0  0  0  0
   -5.6545   25.9476  -29.4153 H   0  0  0  0  0  0  0  0  0  0  0  0
   -5.3928   26.8079  -30.9703 H   0  0  0  0  0  0  0  0  0  0  0  0
   -5.9964   25.1160  -30.9703 H   0  0  0  0  0  0  0  0  0  0  0  0
   -2.3195   24.8481  -28.4407 H   0  0  0  0  0  0  0  0  0  0  0  0
   -1.6348   22.5845  -27.6574 H   0  0  0  0  0  0  0  0  0  0  0  0
   -2.5211   20.5470  -28.7884 H   0  0  0  0  0  0  0  0  0  0  0  0
   -4.0815   20.7660  -30.7159 H   0  0  0  0  0  0  0  0  0  0  0  0
   -5.7819   23.7804  -31.6601 H   0  0  0  0  0  0  0  0  0  0  0  0
   -4.4047   23.3776  -32.7605 H   0  0  0  0  0  0  0  0  0  0  0  0
   -3.4802   18.3384  -33.6859 H   0  0  0  0  0  0  0  0  0  0  0  0
   -0.9343   19.0411  -34.2593 H   0  0  0  0  0  0  0  0  0  0  0  0
   -0.7622   21.6774  -33.8436 H   0  0  0  0  0  0  0  0  0  0  0  0
   -8.6152   18.6988  -33.1183 H   0  0  0  0  0  0  0  0  0  0  0  0
  -10.4957   20.0795  -32.1348 H   0  0  0  0  0  0  0  0  0  0  0  0
   -9.9939   22.3390  -31.1576 H   0  0  0  0  0  0  0  0  0  0  0  0
  1  2  1  0
  2  3  1  0
  3  4  2  0
  4  5  1  0
  5  6  2  0
  6  7  1  0
  7  8  2  0
  8  9  1  0
  9 10  1  0
 10 11  1  0
 11 12  1  0
 12 13  2  0
 13 14  1  0
 14 15  2  0
 15 16  1  0
 11 17  2  0
 17 18  1  0
 18 19  2  0
 19 20  1  0
 20 21  2  0
 21 22  1  0
 22 23  2  0
  8  3  1  0
 23 10  1  0
 16 12  1  0
 23 18  1  0
  1 24  1  0
  1 25  1  0
  1 26  1  0
  4 27  1  0
  5 28  1  0
  6 29  1  0
  7 30  1  0
  9 31  1  0
  9 32  1  0
 13 33  1  0
 14 34  1  0
 15 35  1  0
 19 36  1  0
 20 37  1  0
 21 38  1  0
M  END
>  <UniqueID>  (19) 
18

>  <SMILES>  (19) 
COc1ccccc1Cn1c(-c2ccco2)nc2cccnc21

>  <Energy>  (19) 
109.62772067819463

>  <Genealogy>  (19) 
COc1ccccc1Cn1c(-c2ccco2)nc2cccnc21 (3D coordinates assigned)
COc1ccccc1Cn1c(-c2ccco2)nc2cccnc21 (optimized conformer: 109.62772067819463 kcal/mol)

>  <smiles>  (19) 
COc1ccccc1Cn1c(-c2ccco2)nc2cccnc21

>  <score_type>  (19) 
oracle

>  <origin>  (19) 
adg

>  <m_score__min__energy>  (19) 
-7.8399999999999999

>  <m_primary>  (19) 
energy

$$$$
19:0
     RDKit          3D

 47 50  0  0  0  0  0  0  0  0999 V2000
   -6.8580   24.9120  -29.8100 C   0  0  0  0  0  0  0  0  0  0  0  0
   -5.6710   25.7530  -30.2860 C   0  0  0  0  0  0  0  0  0  0  0  0
   -4.7910   25.0130  -31.2050 N   0  0  0  0  0  0  0  0  0  0  0  0
   -4.1550   23.8590  -30.5520 C   0  0  0  0  0  0  0  0  0  0  0  0
   -3.8460   22.7450  -31.5730 C   0  0  0  0  0  0  0  0  0  0  0  0
   -4.8180   22.6640  -32.6870 N   0  0  0  0  0  0  0  0  0  0  0  0
   -5.5370   21.4030  -32.7070 C   0  0  0  0  0  0  0  0  0  0  0  0
   -6.9410   21.3720  -32.4060 C   0  0  0  0  0  0  0  0  0  0  0  0
   -7.6920   22.5380  -32.0850 C   0  0  0  0  0  0  0  0  0  0  0  0
   -9.0550   22.4730  -31.8100 C   0  0  0  0  0  0  0  0  0  0  0  0
   -9.7180   21.2590  -31.8520 C   0  0  0  0  0  0  0  0  0  0  0  0
   -9.0200   20.0980  -32.1550 C   0  0  0  0  0  0  0  0  0  0  0  0
   -7.6240   20.1230  -32.4200 C   0  0  0  0  0  0  0  0  0  0  0  0
   -6.9390   18.9650  -32.6970 N   0  0  0  0  0  0  0  0  0  0  0  0
   -7.6220   17.6540  -32.6320 C   0  0  0  0  0  0  0  0  0  0  0  0
   -5.6210   19.0410  -33.0580 C   0  0  0  0  0  0  0  0  0  0  0  0
   -4.7110   17.7180  -33.5880 S   0  0  0  0  0  0  0  0  0  0  0  0
   -3.3420   18.6230  -33.7930 C   0  0  0  0  0  0  0  0  0  0  0  0
   -2.1120   18.1430  -34.2320 C   0  0  0  0  0  0  0  0  0  0  0  0
   -1.0450   19.0340  -34.3250 C   0  0  0  0  0  0  0  0  0  0  0  0
   -1.2240   20.3730  -33.9660 C   0  0  0  0  0  0  0  0  0  0  0  0
   -2.4720   20.8410  -33.5230 C   0  0  0  0  0  0  0  0  0  0  0  0
   -3.5840   19.9570  -33.4450 C   0  0  0  0  0  0  0  0  0  0  0  0
   -4.9030   20.2120  -33.0470 N   0  0  0  0  0  0  0  0  0  0  0  0
   -6.8792   24.8970  -28.7103 H   0  0  0  0  0  0  0  0  0  0  0  0
   -7.7932   25.3502  -30.1888 H   0  0  0  0  0  0  0  0  0  0  0  0
   -6.7547   23.8845  -30.1888 H   0  0  0  0  0  0  0  0  0  0  0  0
   -6.0548   26.6437  -30.8051 H   0  0  0  0  0  0  0  0  0  0  0  0
   -5.0776   26.0263  -29.4010 H   0  0  0  0  0  0  0  0  0  0  0  0
   -4.0660   25.6600  -31.5890 H   0  0  0  0  0  0  0  0  0  0  0  0
   -3.2161   24.1851  -30.0807 H   0  0  0  0  0  0  0  0  0  0  0  0
   -4.8476   23.4590  -29.7968 H   0  0  0  0  0  0  0  0  0  0  0  0
   -2.8483   22.9312  -31.9971 H   0  0  0  0  0  0  0  0  0  0  0  0
   -3.9033   21.7901  -31.0299 H   0  0  0  0  0  0  0  0  0  0  0  0
   -4.3740   22.8030  -33.6170 H   0  0  0  0  0  0  0  0  0  0  0  0
   -5.4320   23.5010  -32.6730 H   0  0  0  0  0  0  0  0  0  0  0  0
   -7.1834   23.5129  -32.0536 H   0  0  0  0  0  0  0  0  0  0  0  0
   -9.6074   23.3904  -31.5583 H   0  0  0  0  0  0  0  0  0  0  0  0
  -10.7975   21.2141  -31.6454 H   0  0  0  0  0  0  0  0  0  0  0  0
   -9.5583   19.1393  -32.1907 H   0  0  0  0  0  0  0  0  0  0  0  0
   -7.7702   17.3695  -31.5798 H   0  0  0  0  0  0  0  0  0  0  0  0
   -8.5983   17.7239  -33.1339 H   0  0  0  0  0  0  0  0  0  0  0  0
   -7.0052   16.8940  -33.1339 H   0  0  0  0  0  0  0  0  0  0  0  0
   -1.9849   17.0837  -34.4997 H   0  0  0  0  0  0  0  0  0  0  0  0
   -0.0642   18.6847  -34.6800 H   0  0  0  0  0  0  0  0  0  0  0  0
   -0.3755   21.0700  -34.0313 H   0  0  0  0  0  0  0  0  0  0  0  0
   -2.5902   21.8960  -33.2350 H   0  0  0  0  0  0  0  0  0  0  0  0
  1  2  1  0
  2  3  1  0
  3  4  1  0
  4  5  1  0
  5  6  1  0
  6  7  1  0
  7  8  2  0
  8  9  1  0
  9 10  2  0
 10 11  1  0
 11 12  2  0
 12 13  1  0
 13 14  2  0
 14 15  1  0
 14 16  1  0
 16 17  1  0
 17 18  1  0
 18 19  2  0
 19 20  1  0
 20 21  2  0
 21 22  1  0
 22 23  2  0
 23 24  1  0
 24  7  1  0
 13  8  1  0
 24 16  2  0
 23 18  1  0
  1 25  1  0
  1 26  1  0
  1 27  1  0
  2 28  1  0
  2 29  1  0
  3 30  1  0
  4 31  1  0
  4 32  1  0
  5 33  1  0
  5 34  1  0
  6 35  1  0
  6 36  1  0
  9 37  1  0
 10 38  1  0
 11 39  1  0
 12 40  1  0
 15 41  1  0
 15 42  1  0
 15 43  1  0
 19 44  1  0
 20 45  1  0
 21 46  1  0
 22 47  1  0
M  CHG  3   6   1  14   1  24   1
M  END
>  <UniqueID>  (20) 
19

>  <SMILES>  (20) 
CCNCC[NH2+]c1c2ccccc2[n+](C)c2sc3ccccc3[n+]12

>  <Energy>  (20) 
120.71707140918872

>  <Genealogy>  (20) 
CCNCC[NH2+]c1c2ccccc2[n+](C)c2sc3ccccc3[n+]12 (protonated)
CCNCC[NH2+]c1c2ccccc2[n+](C)c2sc3ccccc3[n+]12 (3D coordinates assigned)
CCNCC[NH2+]c1c2ccccc2[n+](C)c2sc3ccccc3[n+]12 (optimized conformer: 120.71707140918872 kcal/mol)

>  <smiles>  (20) 
CCNCCNc1c2ccccc2[n+](C)c2sc3ccccc3[n+]12

>  <score_type>  (20) 
oracle

>  <origin>  (20) 
adg

>  <m_score__min__energy>  (20) 
-8.0800000000000001

>  <m_primary>  (20) 
energy

$$$$
20:0
     RDKit          3D

 59 62  0  0  0  0  0  0  0  0999 V2000
   -0.4090   22.2850  -27.0690 C   0  0  0  0  0  0  0  0  0  0  0  0
   -0.7110   20.7880  -27.2220 C   0  0  0  0  0  0  0  0  0  0  0  0
   -2.0990   20.4510  -26.8010 N   0  0  0  0  0  0  0  0  0  0  0  0
   -2.2810   18.9760  -26.7330 C   0  0  0  0  0  0  0  0  0  0  0  0
   -3.5560   18.5820  -25.9750 C   0  0  0  0  0  0  0  0  0  0  0  0
   -3.0820   21.0570  -27.7440 C   0  0  0  0  0  0  0  0  0  0  0  0
   -2.8280   20.6760  -29.2160 C   0  0  0  0  0  0  0  0  0  0  0  0
   -3.5280   21.5890  -30.1250 N   0  0  0  0  0  0  0  0  0  0  0  0
   -3.7130   21.2760  -31.5240 C   0  0  0  0  0  0  0  0  0  0  0  0
   -2.6120   20.9290  -32.3240 C   0  0  0  0  0  0  0  0  0  0  0  0
   -1.3310   21.4450  -32.0490 C   0  0  0  0  0  0  0  0  0  0  0  0
   -0.2510   21.1360  -32.8730 C   0  0  0  0  0  0  0  0  0  0  0  0
   -0.4380   20.3250  -33.9900 C   0  0  0  0  0  0  0  0  0  0  0  0
   -1.6980   19.8000  -34.2760 C   0  0  0  0  0  0  0  0  0  0  0  0
   -2.8070   20.0700  -33.4350 C   0  0  0  0  0  0  0  0  0  0  0  0
   -4.0490   19.5060  -33.6530 N   0  0  0  0  0  0  0  0  0  0  0  0
   -4.1800   18.3180  -34.5240 C   0  0  0  0  0  0  0  0  0  0  0  0
   -5.1640   20.0540  -33.0430 C   0  0  0  0  0  0  0  0  0  0  0  0
   -6.4860   19.6200  -33.3670 C   0  0  0  0  0  0  0  0  0  0  0  0
   -7.6060   20.1570  -32.7210 C   0  0  0  0  0  0  0  0  0  0  0  0
   -7.4110   21.2050  -31.8360 C   0  0  0  0  0  0  0  0  0  0  0  0
   -8.3490   22.0100  -31.2360 C   0  0  0  0  0  0  0  0  0  0  0  0
   -7.6270   23.0470  -30.6700 C   0  0  0  0  0  0  0  0  0  0  0  0
   -6.3020   22.8980  -30.9070 N   0  0  0  0  0  0  0  0  0  0  0  0
   -5.3830   24.0030  -30.8200 C   0  0  0  0  0  0  0  0  0  0  0  0
   -5.7870   25.3250  -30.2410 C   0  0  0  0  0  0  0  0  0  0  0  0
   -4.1910   23.8470  -31.1980 O   0  0  0  0  0  0  0  0  0  0  0  0
   -6.1660   21.7150  -31.5650 C   0  0  0  0  0  0  0  0  0  0  0  0
   -5.0010   21.0700  -32.0500 C   0  0  0  0  0  0  0  0  0  0  0  0
   -0.3573   22.5413  -26.0005 H   0  0  0  0  0  0  0  0  0  0  0  0
    0.5538   22.5157  -27.5484 H   0  0  0  0  0  0  0  0  0  0  0  0
   -1.2070   22.8709  -27.5484 H   0  0  0  0  0  0  0  0  0  0  0  0
   -0.5821   20.5062  -28.2774 H   0  0  0  0  0  0  0  0  0  0  0  0
   -0.0163   20.2341  -26.5735 H   0  0  0  0  0  0  0  0  0  0  0  0
   -2.2550   20.8450  -25.8440 H   0  0  0  0  0  0  0  0  0  0  0  0
   -2.3412   18.5792  -27.7572 H   0  0  0  0  0  0  0  0  0  0  0  0
   -1.4222   18.5551  -26.1896 H   0  0  0  0  0  0  0  0  0  0  0  0
   -3.3712   18.6391  -24.8921 H   0  0  0  0  0  0  0  0  0  0  0  0
   -4.3705   19.2704  -26.2448 H   0  0  0  0  0  0  0  0  0  0  0  0
   -3.8401   17.5541  -26.2448 H   0  0  0  0  0  0  0  0  0  0  0  0
   -4.0900   20.7170  -27.4641 H   0  0  0  0  0  0  0  0  0  0  0  0
   -2.9773   22.1493  -27.6670 H   0  0  0  0  0  0  0  0  0  0  0  0
   -1.7480   20.7250  -29.4187 H   0  0  0  0  0  0  0  0  0  0  0  0
   -3.2066   19.6569  -29.3839 H   0  0  0  0  0  0  0  0  0  0  0  0
   -4.1610   22.2580  -29.6460 H   0  0  0  0  0  0  0  0  0  0  0  0
   -1.1818   22.0976  -31.1762 H   0  0  0  0  0  0  0  0  0  0  0  0
    0.7488   21.5322  -32.6417 H   0  0  0  0  0  0  0  0  0  0  0  0
    0.4123   20.0975  -34.6497 H   0  0  0  0  0  0  0  0  0  0  0  0
   -1.8332   19.1679  -35.1661 H   0  0  0  0  0  0  0  0  0  0  0  0
   -4.2794   17.4163  -33.9018 H   0  0  0  0  0  0  0  0  0  0  0  0
   -5.0717   18.4255  -35.1590 H   0  0  0  0  0  0  0  0  0  0  0  0
   -3.2863   18.2286  -35.1590 H   0  0  0  0  0  0  0  0  0  0  0  0
   -6.6266   18.8490  -34.1389 H   0  0  0  0  0  0  0  0  0  0  0  0
   -8.6133   19.7578  -32.9109 H   0  0  0  0  0  0  0  0  0  0  0  0
   -9.4388   21.8624  -31.2108 H   0  0  0  0  0  0  0  0  0  0  0  0
   -8.0700   23.8797  -30.1040 H   0  0  0  0  0  0  0  0  0  0  0  0
   -5.7687   25.2653  -29.1428 H   0  0  0  0  0  0  0  0  0  0  0  0
   -5.0855   26.1025  -30.5776 H   0  0  0  0  0  0  0  0  0  0  0  0
   -6.8033   25.5775  -30.5776 H   0  0  0  0  0  0  0  0  0  0  0  0
  1  2  1  0
  2  3  1  0
  3  4  1  0
  4  5  1  0
  3  6  1  0
  6  7  1  0
  7  8  1  0
  8  9  1  0
  9 10  2  0
 10 11  1  0
 11 12  2  0
 12 13  1  0
 13 14  2  0
 14 15  1  0
 15 16  2  0
 16 17  1  0
 16 18  1  0
 18 19  2  0
 19 20  1  0
 20 21  2  0
 21 22  1  0
 22 23  2  0
 23 24  1  0
 24 25  1  0
 25 26  1  0
 25 27  2  0
 24 28  1  0
 28 29  2  0
 29  9  1  0
 15 10  1  0
 29 18  1  0
 28 21  1  0
  1 30  1  0
  1 31  1  0
  1 32  1  0
  2 33  1  0
  2 34  1  0
  3 35  1  0
  4 36  1  0
  4 37  1  0
  5 38  1  0
  5 39  1  0
  5 40  1  0
  6 41  1  0
  6 42  1  0
  7 43  1  0
  7 44  1  0
  8 45  1  0
 11 46  1  0
 12 47  1  0
 13 48  1  0
 14 49  1  0
 17 50  1  0
 17 51  1  0
 17 52  1  0
 19 53  1  0
 20 54  1  0
 22 55  1  0
 23 56  1  0
 26 57  1  0
 26 58  1  0
 26 59  1  0
M  CHG  2   3   1  16   1
M  END
>  <UniqueID>  (21) 
20

>  <SMILES>  (21) 
CC[NH+](CC)CCNc1c2ccccc2[n+](C)c2ccc3ccn(C(C)=O)c3c12

>  <Energy>  (21) 
138.34872599916503

>  <Genealogy>  (21) 
CC[NH+](CC)CCNc1c2ccccc2[n+](C)c2ccc3ccn(C(C)=O)c3c12 (protonated)
CC[NH+](CC)CCNc1c2ccccc2[n+](C)c2ccc3ccn(C(C)=O)c3c12 (3D coordinates assigned)
CC[NH+](CC)CCNc1c2ccccc2[n+](C)c2ccc3ccn(C(C)=O)c3c12 (optimized conformer: 138.34872599916503 kcal/mol)

>  <smiles>  (21) 
CCN(CC)CCNc1c2ccccc2[n+](C)c2ccc3ccn(C(C)=O)c3c12

>  <score_type>  (21) 
oracle

>  <origin>  (21) 
adg

>  <m_score__min__energy>  (21) 
-7.46

>  <m_primary>  (21) 
energy

$$$$
21:0
     RDKit          3D

 52 55  0  0  0  0  0  0  0  0999 V2000
   -6.2440   25.1060  -29.7450 C   0  0  0  0  0  0  0  0  0  0  0  0
   -4.9850   25.4730  -30.5290 C   0  0  0  0  0  0  0  0  0  0  0  0
   -4.0040   24.3630  -30.4880 N   0  0  0  0  0  0  0  0  0  0  0  0
   -3.0700   24.5490  -29.3580 C   0  0  0  0  0  0  0  0  0  0  0  0
   -4.6990   23.0580  -30.3860 C   0  0  0  0  0  0  0  0  0  0  0  0
   -3.8060   21.9040  -30.8680 C   0  0  0  0  0  0  0  0  0  0  0  0
   -3.4300   22.0720  -32.3440 C   0  0  0  0  0  0  0  0  0  0  0  0
   -4.5790   21.7940  -33.2060 N   0  0  0  0  0  0  0  0  0  0  0  0
   -5.6780   21.0150  -32.7300 C   0  0  0  0  0  0  0  0  0  0  0  0
   -6.8920   21.5420  -32.3180 C   0  0  0  0  0  0  0  0  0  0  0  0
   -7.3260   22.8510  -32.1100 C   0  0  0  0  0  0  0  0  0  0  0  0
   -8.6740   23.0450  -31.7570 C   0  0  0  0  0  0  0  0  0  0  0  0
   -9.5530   21.9440  -31.6470 C   0  0  0  0  0  0  0  0  0  0  0  0
   -9.0960   20.6380  -31.9000 C   0  0  0  0  0  0  0  0  0  0  0  0
   -7.7480   20.4740  -32.2370 C   0  0  0  0  0  0  0  0  0  0  0  0
   -7.0910   19.3540  -32.6000 N   0  0  0  0  0  0  0  0  0  0  0  0
   -7.5910   18.0980  -32.7280 C   0  0  0  0  0  0  0  0  0  0  0  0
   -6.7480   17.0870  -33.1770 C   0  0  0  0  0  0  0  0  0  0  0  0
   -5.3960   17.3720  -33.4550 C   0  0  0  0  0  0  0  0  0  0  0  0
   -4.4920   16.3690  -33.8810 C   0  0  0  0  0  0  0  0  0  0  0  0
   -4.9200   14.9480  -34.1150 C   0  0  0  0  0  0  0  0  0  0  0  0
   -3.1840   16.6840  -34.0740 N   0  0  0  0  0  0  0  0  0  0  0  0
   -2.7010   17.9340  -33.8670 C   0  0  0  0  0  0  0  0  0  0  0  0
   -3.5510   18.9590  -33.4580 C   0  0  0  0  0  0  0  0  0  0  0  0
   -4.9240   18.7020  -33.2810 C   0  0  0  0  0  0  0  0  0  0  0  0
   -5.8270   19.6660  -32.8940 N   0  0  0  0  0  0  0  0  0  0  0  0
   -6.0352   25.1669  -28.6667 H   0  0  0  0  0  0  0  0  0  0  0  0
   -7.0529   25.8057  -30.0019 H   0  0  0  0  0  0  0  0  0  0  0  0
   -6.5502   24.0812  -30.0019 H   0  0  0  0  0  0  0  0  0  0  0  0
   -5.2570   25.6769  -31.5752 H   0  0  0  0  0  0  0  0  0  0  0  0
   -4.5307   26.3653  -30.0736 H   0  0  0  0  0  0  0  0  0  0  0  0
   -3.6160   24.4403  -28.4093 H   0  0  0  0  0  0  0  0  0  0  0  0
   -2.2740   23.7917  -29.4118 H   0  0  0  0  0  0  0  0  0  0  0  0
   -2.6248   25.5534  -29.4118 H   0  0  0  0  0  0  0  0  0  0  0  0
   -4.9752   22.8814  -29.3360 H   0  0  0  0  0  0  0  0  0  0  0  0
   -5.5929   23.0926  -31.0261 H   0  0  0  0  0  0  0  0  0  0  0  0
   -2.8870   21.8852  -30.2637 H   0  0  0  0  0  0  0  0  0  0  0  0
   -4.3637   20.9625  -30.7561 H   0  0  0  0  0  0  0  0  0  0  0  0
   -3.0919   23.1047  -32.5151 H   0  0  0  0  0  0  0  0  0  0  0  0
   -2.6260   21.3616  -32.5869 H   0  0  0  0  0  0  0  0  0  0  0  0
   -4.5530   22.0450  -34.2210 H   0  0  0  0  0  0  0  0  0  0  0  0
   -6.6380   23.7025  -32.2182 H   0  0  0  0  0  0  0  0  0  0  0  0
   -9.0468   24.0620  -31.5651 H   0  0  0  0  0  0  0  0  0  0  0  0
  -10.6023   22.1095  -31.3614 H   0  0  0  0  0  0  0  0  0  0  0  0
   -9.7752   19.7751  -31.8351 H   0  0  0  0  0  0  0  0  0  0  0  0
   -8.6416   17.8845  -32.4816 H   0  0  0  0  0  0  0  0  0  0  0  0
   -7.1357   16.0669  -33.3149 H   0  0  0  0  0  0  0  0  0  0  0  0
   -5.0710   14.4465  -33.1477 H   0  0  0  0  0  0  0  0  0  0  0  0
   -5.8611   14.9376  -34.6843 H   0  0  0  0  0  0  0  0  0  0  0  0
   -4.1412   14.4195  -34.6843 H   0  0  0  0  0  0  0  0  0  0  0  0
   -1.6317   18.1398  -34.0230 H   0  0  0  0  0  0  0  0  0  0  0  0
   -3.1505   19.9668  -33.2737 H   0  0  0  0  0  0  0  0  0  0  0  0
  1  2  1  0
  2  3  1  0
  3  4  1  0
  3  5  1  0
  5  6  1  0
  6  7  1  0
  7  8  1  0
  8  9  1  0
  9 10  2  0
 10 11  1  0
 11 12  2  0
 12 13  1  0
 13 14  2  0
 14 15  1  0
 15 16  2  0
 16 17  1  0
 17 18  2  0
 18 19  1  0
 19 20  2  0
 20 21  1  0
 20 22  1  0
 22 23  2  0
 23 24  1  0
 24 25  2  0
 25 26  1  0
 26  9  1  0
 15 10  1  0
 26 16  1  0
 25 19  1  0
  1 27  1  0
  1 28  1  0
  1 29  1  0
  2 30  1  0
  2 31  1  0
  4 32  1  0
  4 33  1  0
  4 34  1  0
  5 35  1  0
  5 36  1  0
  6 37  1  0
  6 38  1  0
  7 39  1  0
  7 40  1  0
  8 41  1  0
 11 42  1  0
 12 43  1  0
 13 44  1  0
 14 45  1  0
 17 46  1  0
 18 47  1  0
 21 48  1  0
 21 49  1  0
 21 50  1  0
 23 51  1  0
 24 52  1  0
M  CHG  1  16   1
M  END
>  <UniqueID>  (22) 
21

>  <SMILES>  (22) 
CCN(C)CCCNc1c2ccccc2[n+]2ccc3c(C)nccc3n12

>  <Energy>  (22) 
112.0128351940004

>  <Genealogy>  (22) 
CCN(C)CCCNc1c2ccccc2[n+]2ccc3c(C)nccc3n12 (3D coordinates assigned)
CCN(C)CCCNc1c2ccccc2[n+]2ccc3c(C)nccc3n12 (optimized conformer: 112.0128351940004 kcal/mol)

>  <smiles>  (22) 
CCN(C)CCCNc1c2ccccc2[n+]2ccc3c(C)nccc3n12

>  <score_type>  (22) 
oracle

>  <origin>  (22) 
adg

>  <m_score__min__energy>  (22) 
-9.1099999999999994

>  <m_primary>  (22) 
energy

$$$$
22:0
     RDKit          3D

 34 36  0  0  0  0  0  0  0  0999 V2000
   -6.0960   25.3010  -30.1690 C   0  0  0  0  0  0  0  0  0  0  0  0
   -5.6940   24.1870  -31.0200 N   0  0  0  0  0  0  0  0  0  0  0  0
   -4.4380   23.7960  -31.1630 N   0  0  0  0  0  0  0  0  0  0  0  0
   -4.4420   22.7000  -31.9480 C   0  0  0  0  0  0  0  0  0  0  0  0
   -3.2350   21.9310  -32.2780 C   0  0  0  0  0  0  0  0  0  0  0  0
   -3.0480   21.1330  -33.4020 C   0  0  0  0  0  0  0  0  0  0  0  0
   -1.7970   20.5030  -33.4250 C   0  0  0  0  0  0  0  0  0  0  0  0
   -1.0020   20.7980  -32.3260 C   0  0  0  0  0  0  0  0  0  0  0  0
   -1.8550   21.8430  -31.3230 S   0  0  0  0  0  0  0  0  0  0  0  0
   -5.7400   22.3820  -32.3110 C   0  0  0  0  0  0  0  0  0  0  0  0
   -6.5090   23.3430  -31.6880 C   0  0  0  0  0  0  0  0  0  0  0  0
   -8.0100   23.3560  -31.6330 C   0  0  0  0  0  0  0  0  0  0  0  0
   -8.5180   22.1230  -31.0080 N   0  0  0  0  0  0  0  0  0  0  0  0
   -9.2020   21.2380  -31.9660 C   0  0  0  0  0  0  0  0  0  0  0  0
   -8.3870   20.0130  -32.2510 C   0  0  0  0  0  0  0  0  0  0  0  0
   -8.4930   18.7890  -31.6000 C   0  0  0  0  0  0  0  0  0  0  0  0
   -7.5950   17.8300  -32.0840 C   0  0  0  0  0  0  0  0  0  0  0  0
   -6.7970   18.2870  -33.1250 C   0  0  0  0  0  0  0  0  0  0  0  0
   -7.2090   19.8860  -33.4450 S   0  0  0  0  0  0  0  0  0  0  0  0
   -5.9917   25.0118  -29.1128 H   0  0  0  0  0  0  0  0  0  0  0  0
   -5.4550   26.1706  -30.3761 H   0  0  0  0  0  0  0  0  0  0  0  0
   -7.1446   25.5608  -30.3761 H   0  0  0  0  0  0  0  0  0  0  0  0
   -3.8043   21.0095  -34.1912 H   0  0  0  0  0  0  0  0  0  0  0  0
   -1.4746   19.8364  -34.2385 H   0  0  0  0  0  0  0  0  0  0  0  0
    0.0123   20.4138  -32.1428 H   0  0  0  0  0  0  0  0  0  0  0  0
   -6.0799   21.5533  -32.9496 H   0  0  0  0  0  0  0  0  0  0  0  0
   -8.3424   24.2232  -31.0435 H   0  0  0  0  0  0  0  0  0  0  0  0
   -8.4013   23.4199  -32.6591 H   0  0  0  0  0  0  0  0  0  0  0  0
   -9.2280   22.4090  -30.2930 H   0  0  0  0  0  0  0  0  0  0  0  0
  -10.1713   20.9337  -31.5441 H   0  0  0  0  0  0  0  0  0  0  0  0
   -9.3439   21.7883  -32.9078 H   0  0  0  0  0  0  0  0  0  0  0  0
   -9.2090   18.5941  -30.7880 H   0  0  0  0  0  0  0  0  0  0  0  0
   -7.5277   16.8100  -31.6778 H   0  0  0  0  0  0  0  0  0  0  0  0
   -6.0271   17.7029  -33.6504 H   0  0  0  0  0  0  0  0  0  0  0  0
  1  2  1  0
  2  3  1  0
  3  4  2  0
  4  5  1  0
  5  6  2  0
  6  7  1  0
  7  8  2  0
  8  9  1  0
  4 10  1  0
 10 11  2  0
 11 12  1  0
 12 13  1  0
 13 14  1  0
 14 15  1  0
 15 16  2  0
 16 17  1  0
 17 18  2  0
 18 19  1  0
 11  2  1  0
 19 15  1  0
  9  5  1  0
  1 20  1  0
  1 21  1  0
  1 22  1  0
  6 23  1  0
  7 24  1  0
  8 25  1  0
 10 26  1  0
 12 27  1  0
 12 28  1  0
 13 29  1  0
 14 30  1  0
 14 31  1  0
 16 32  1  0
 17 33  1  0
 18 34  1  0
M  END
>  <UniqueID>  (23) 
22

>  <SMILES>  (23) 
Cn1nc(-c2cccs2)cc1CNCc1cccs1

>  <Energy>  (23) 
111.52656671876822

>  <Genealogy>  (23) 
Cn1nc(-c2cccs2)cc1CNCc1cccs1 (3D coordinates assigned)
Cn1nc(-c2cccs2)cc1CNCc1cccs1 (optimized conformer: 111.52656671876822 kcal/mol)

>  <smiles>  (23) 
Cn1nc(-c2cccs2)cc1CNCc1cccs1

>  <score_type>  (23) 
oracle

>  <origin>  (23) 
adg

>  <m_score__min__energy>  (23) 
-7.2599999999999998

>  <m_primary>  (23) 
energy

$$$$
23:0
     RDKit          3D

 27 28  0  0  0  0  0  0  0  0999 V2000
   -6.7800   16.7000  -33.4590 Cl  0  0  0  0  0  0  0  0  0  0  0  0
   -7.2350   18.2610  -32.7900 C   0  0  0  0  0  0  0  0  0  0  0  0
   -8.4430   18.3740  -32.0940 C   0  0  0  0  0  0  0  0  0  0  0  0
   -8.8330   19.6010  -31.5520 C   0  0  0  0  0  0  0  0  0  0  0  0
   -8.0120   20.7320  -31.6920 C   0  0  0  0  0  0  0  0  0  0  0  0
   -8.4270   22.0060  -31.1600 N   0  0  0  0  0  0  0  0  0  0  0  0
   -7.8740   23.0970  -31.9750 C   0  0  0  0  0  0  0  0  0  0  0  0
   -6.6870   23.7190  -31.2860 C   0  0  0  0  0  0  0  0  0  0  0  0
   -6.8630   24.5390  -30.1610 C   0  0  0  0  0  0  0  0  0  0  0  0
   -5.7590   25.1380  -29.5540 C   0  0  0  0  0  0  0  0  0  0  0  0
   -4.4860   24.9200  -30.0840 C   0  0  0  0  0  0  0  0  0  0  0  0
   -4.3310   24.1370  -31.1850 N   0  0  0  0  0  0  0  0  0  0  0  0
   -5.3910   23.5420  -31.7930 C   0  0  0  0  0  0  0  0  0  0  0  0
   -6.8040   20.6180  -32.4030 C   0  0  0  0  0  0  0  0  0  0  0  0
   -6.4130   19.3890  -32.9480 C   0  0  0  0  0  0  0  0  0  0  0  0
   -4.8920   19.2930  -33.8240 Cl  0  0  0  0  0  0  0  0  0  0  0  0
   -9.0892   17.4921  -31.9728 H   0  0  0  0  0  0  0  0  0  0  0  0
   -9.7883   19.6819  -31.0126 H   0  0  0  0  0  0  0  0  0  0  0  0
   -9.4730   22.0630  -31.1560 H   0  0  0  0  0  0  0  0  0  0  0  0
   -8.0950   22.1000  -30.1700 H   0  0  0  0  0  0  0  0  0  0  0  0
   -7.5584   22.6969  -32.9498 H   0  0  0  0  0  0  0  0  0  0  0  0
   -8.6484   23.8657  -32.1142 H   0  0  0  0  0  0  0  0  0  0  0  0
   -7.8720   24.7096  -29.7575 H   0  0  0  0  0  0  0  0  0  0  0  0
   -5.8901   25.7754  -28.6671 H   0  0  0  0  0  0  0  0  0  0  0  0
   -3.6073   25.3821  -29.6104 H   0  0  0  0  0  0  0  0  0  0  0  0
   -5.2321   22.9194  -32.6858 H   0  0  0  0  0  0  0  0  0  0  0  0
   -6.1613   21.5013  -32.5320 H   0  0  0  0  0  0  0  0  0  0  0  0
  1  2  1  0
  2  3  2  0
  3  4  1  0
  4  5  2  0
  5  6  1  0
  6  7  1  0
  7  8  1  0
  8  9  2  0
  9 10  1  0
 10 11  2  0
 11 12  1  0
 12 13  2  0
  5 14  1  0
 14 15  2  0
 15 16  1  0
 15  2  1  0
 13  8  1  0
  3 17  1  0
  4 18  1  0
  6 19  1  0
  6 20  1  0
  7 21  1  0
  7 22  1  0
  9 23  1  0
 10 24  1  0
 11 25  1  0
 13 26  1  0
 14 27  1  0
M  CHG  1   6   1
M  END
>  <UniqueID>  (24) 
23

>  <SMILES>  (24) 
Clc1ccc([NH2+]Cc2cccnc2)cc1Cl

>  <Energy>  (24) 
29.285769086967495

>  <Genealogy>  (24) 
Clc1ccc([NH2+]Cc2cccnc2)cc1Cl (protonated)
Clc1ccc([NH2+]Cc2cccnc2)cc1Cl (3D coordinates assigned)
Clc1ccc([NH2+]Cc2cccnc2)cc1Cl (optimized conformer: 29.285769086967495 kcal/mol)

>  <smiles>  (24) 
Clc1ccc(NCc2cccnc2)cc1Cl

>  <score_type>  (24) 
oracle

>  <origin>  (24) 
adg

>  <m_score__min__energy>  (24) 
-6.5700000000000003

>  <m_primary>  (24) 
energy

$$$$
24:0
     RDKit          3D

 78 80  0  0  0  0  0  0  0  0999 V2000
   -0.1180   18.3800  -31.3840 C   0  0  0  0  0  0  0  0  0  0  0  0
   -0.5780   17.3060  -32.3860 C   0  0  0  0  0  0  0  0  0  0  0  0
   -1.5120   17.8120  -33.4220 N   0  0  0  0  0  0  0  0  0  0  0  0
   -0.8410   18.0460  -34.7270 C   0  0  0  0  0  0  0  0  0  0  0  0
   -0.2180   19.4370  -34.7440 C   0  0  0  0  0  0  0  0  0  0  0  0
   -2.7260   16.9680  -33.5300 C   0  0  0  0  0  0  0  0  0  0  0  0
   -3.1700   16.8050  -34.9860 C   0  0  0  0  0  0  0  0  0  0  0  0
   -4.4670   17.3480  -35.1600 O   0  0  0  0  0  0  0  0  0  0  0  0
   -5.3660   16.7370  -34.2520 C   0  0  0  0  0  0  0  0  0  0  0  0
   -6.3310   17.7820  -33.6760 C   0  0  0  0  0  0  0  0  0  0  0  0
   -6.1120   19.1490  -34.2080 N   0  0  0  0  0  0  0  0  0  0  0  0
   -6.0600   20.1620  -33.1590 C   0  0  0  0  0  0  0  0  0  0  0  0
   -7.2680   20.6360  -32.5710 C   0  0  0  0  0  0  0  0  0  0  0  0
   -8.5310   20.0910  -32.9280 C   0  0  0  0  0  0  0  0  0  0  0  0
   -9.7030   20.5410  -32.3310 C   0  0  0  0  0  0  0  0  0  0  0  0
   -9.6560   21.5290  -31.3550 C   0  0  0  0  0  0  0  0  0  0  0  0
   -8.4380   22.0870  -30.9860 C   0  0  0  0  0  0  0  0  0  0  0  0
   -7.2250   21.6830  -31.6090 C   0  0  0  0  0  0  0  0  0  0  0  0
   -6.0270   22.2890  -31.2970 N   0  0  0  0  0  0  0  0  0  0  0  0
   -6.0280   23.5850  -30.5840 C   0  0  0  0  0  0  0  0  0  0  0  0
   -4.8380   21.7240  -31.7030 C   0  0  0  0  0  0  0  0  0  0  0  0
   -3.6030   22.1620  -31.1590 C   0  0  0  0  0  0  0  0  0  0  0  0
   -2.3920   21.7410  -31.6930 C   0  0  0  0  0  0  0  0  0  0  0  0
   -1.2070   22.2670  -31.1860 O   0  0  0  0  0  0  0  0  0  0  0  0
   -0.8750   22.1650  -29.8060 C   0  0  0  0  0  0  0  0  0  0  0  0
   -1.2210   20.7630  -29.3000 C   0  0  0  0  0  0  0  0  0  0  0  0
   -2.2100   20.8490  -28.1970 N   0  0  0  0  0  0  0  0  0  0  0  0
   -1.8570   19.9610  -27.0670 C   0  0  0  0  0  0  0  0  0  0  0  0
   -3.0380   19.0520  -26.7160 C   0  0  0  0  0  0  0  0  0  0  0  0
   -2.4170   22.2450  -27.7450 C   0  0  0  0  0  0  0  0  0  0  0  0
   -3.8960   22.6190  -27.8410 C   0  0  0  0  0  0  0  0  0  0  0  0
   -2.3780   20.8010  -32.7200 C   0  0  0  0  0  0  0  0  0  0  0  0
   -3.5670   20.2380  -33.1740 C   0  0  0  0  0  0  0  0  0  0  0  0
   -4.8250   20.6910  -32.6870 C   0  0  0  0  0  0  0  0  0  0  0  0
   -0.2742   18.0152  -30.3581 H   0  0  0  0  0  0  0  0  0  0  0  0
    0.9501   18.5925  -31.5389 H   0  0  0  0  0  0  0  0  0  0  0  0
   -0.7011   19.2998  -31.5389 H   0  0  0  0  0  0  0  0  0  0  0  0
    0.3110   16.8989  -32.8900 H   0  0  0  0  0  0  0  0  0  0  0  0
   -1.1225   16.5435  -31.8097 H   0  0  0  0  0  0  0  0  0  0  0  0
   -0.0542   17.2914  -34.8738 H   0  0  0  0  0  0  0  0  0  0  0  0
   -1.5825   17.9698  -35.5360 H   0  0  0  0  0  0  0  0  0  0  0  0
   -0.0634   19.7822  -33.7111 H   0  0  0  0  0  0  0  0  0  0  0  0
    0.7492   19.3992  -35.2666 H   0  0  0  0  0  0  0  0  0  0  0  0
   -0.8902   20.1335  -35.2666 H   0  0  0  0  0  0  0  0  0  0  0  0
   -2.5092   15.9750  -33.1094 H   0  0  0  0  0  0  0  0  0  0  0  0
   -3.5383   17.4602  -32.9752 H   0  0  0  0  0  0  0  0  0  0  0  0
   -2.4631   17.3319  -35.6437 H   0  0  0  0  0  0  0  0  0  0  0  0
   -3.1890   15.7350  -35.2404 H   0  0  0  0  0  0  0  0  0  0  0  0
   -5.9422   15.9615  -34.7779 H   0  0  0  0  0  0  0  0  0  0  0  0
   -4.7927   16.2861  -33.4286 H   0  0  0  0  0  0  0  0  0  0  0  0
   -7.3596   17.4757  -33.9169 H   0  0  0  0  0  0  0  0  0  0  0  0
   -6.1505   17.8249  -32.5918 H   0  0  0  0  0  0  0  0  0  0  0  0
   -6.8980   19.3910  -34.8590 H   0  0  0  0  0  0  0  0  0  0  0  0
   -5.2940   19.1770  -34.8520 H   0  0  0  0  0  0  0  0  0  0  0  0
   -8.5821   19.2993  -33.6900 H   0  0  0  0  0  0  0  0  0  0  0  0
  -10.6708   20.1136  -32.6322 H   0  0  0  0  0  0  0  0  0  0  0  0
  -10.5845   21.8700  -30.8737 H   0  0  0  0  0  0  0  0  0  0  0  0
   -8.4116   22.8545  -30.1984 H   0  0  0  0  0  0  0  0  0  0  0  0
   -6.0279   23.4064  -29.4986 H   0  0  0  0  0  0  0  0  0  0  0  0
   -5.1303   24.1569  -30.8616 H   0  0  0  0  0  0  0  0  0  0  0  0
   -6.9266   24.1555  -30.8616 H   0  0  0  0  0  0  0  0  0  0  0  0
   -3.6047   22.8475  -30.2987 H   0  0  0  0  0  0  0  0  0  0  0  0
    0.2017   22.3472  -29.6735 H   0  0  0  0  0  0  0  0  0  0  0  0
   -1.4464   22.9119  -29.2354 H   0  0  0  0  0  0  0  0  0  0  0  0
   -1.6466   20.1731  -30.1252 H   0  0  0  0  0  0  0  0  0  0  0  0
   -0.3065   20.2789  -28.9268 H   0  0  0  0  0  0  0  0  0  0  0  0
   -0.9932   19.3410  -27.3489 H   0  0  0  0  0  0  0  0  0  0  0  0
   -1.6082   20.5783  -26.1912 H   0  0  0  0  0  0  0  0  0  0  0  0
   -3.1324   18.9793  -25.6225 H   0  0  0  0  0  0  0  0  0  0  0  0
   -3.9628   19.4735  -27.1367 H   0  0  0  0  0  0  0  0  0  0  0  0
   -2.8672   18.0501  -27.1367 H   0  0  0  0  0  0  0  0  0  0  0  0
   -2.0852   22.3414  -26.7007 H   0  0  0  0  0  0  0  0  0  0  0  0
   -1.8343   22.9201  -28.3890 H   0  0  0  0  0  0  0  0  0  0  0  0
   -4.3139   22.7247  -26.8290 H   0  0  0  0  0  0  0  0  0  0  0  0
   -3.9990   23.5715  -28.3815 H   0  0  0  0  0  0  0  0  0  0  0  0
   -4.4394   21.8300  -28.3815 H   0  0  0  0  0  0  0  0  0  0  0  0
   -1.4222   20.5018  -33.1749 H   0  0  0  0  0  0  0  0  0  0  0  0
   -3.5338   19.4307  -33.9205 H   0  0  0  0  0  0  0  0  0  0  0  0
  1  2  1  0
  2  3  1  0
  3  4  1  0
  4  5  1  0
  3  6  1  0
  6  7  1  0
  7  8  1  0
  8  9  1  0
  9 10  1  0
 10 11  1  0
 11 12  1  0
 12 13  2  0
 13 14  1  0
 14 15  2  0
 15 16  1  0
 16 17  2  0
 17 18  1  0
 18 19  2  0
 19 20  1  0
 19 21  1  0
 21 22  2  0
 22 23  1  0
 23 24  1  0
 24 25  1  0
 25 26  1  0
 26 27  1  0
 27 28  1  0
 28 29  1  0
 27 30  1  0
 30 31  1  0
 23 32  2  0
 32 33  1  0
 33 34  2  0
 34 12  1  0
 18 13  1  0
 34 21  1  0
  1 35  1  0
  1 36  1  0
  1 37  1  0
  2 38  1  0
  2 39  1  0
  4 40  1  0
  4 41  1  0
  5 42  1  0
  5 43  1  0
  5 44  1  0
  6 45  1  0
  6 46  1  0
  7 47  1  0
  7 48  1  0
  9 49  1  0
  9 50  1  0
 10 51  1  0
 10 52  1  0
 11 53  1  0
 11 54  1  0
 14 55  1  0
 15 56  1  0
 16 57  1  0
 17 58  1  0
 20 59  1  0
 20 60  1  0
 20 61  1  0
 22 62  1  0
 25 63  1  0
 25 64  1  0
 26 65  1  0
 26 66  1  0
 28 67  1  0
 28 68  1  0
 29 69  1  0
 29 70  1  0
 29 71  1  0
 30 72  1  0
 30 73  1  0
 31 74  1  0
 31 75  1  0
 31 76  1  0
 32 77  1  0
 33 78  1  0
M  CHG  2  11   1  19   1
M  END
>  <UniqueID>  (25) 
24

>  <SMILES>  (25) 
CCN(CC)CCOCC[NH2+]c1c2ccccc2[n+](C)c2cc(OCCN(CC)CC)ccc12

>  <Energy>  (25) 
107.69272526794565

>  <Genealogy>  (25) 
CCN(CC)CCOCC[NH2+]c1c2ccccc2[n+](C)c2cc(OCCN(CC)CC)ccc12 (protonated)
CCN(CC)CCOCC[NH2+]c1c2ccccc2[n+](C)c2cc(OCCN(CC)CC)ccc12 (3D coordinates assigned)
CCN(CC)CCOCC[NH2+]c1c2ccccc2[n+](C)c2cc(OCCN(CC)CC)ccc12 (optimized conformer: 107.69272526794565 kcal/mol)

>  <smiles>  (25) 
CCN(CC)CCOCCNc1c2ccccc2[n+](C)c2cc(OCCN(CC)CC)ccc12

>  <score_type>  (25) 
oracle

>  <origin>  (25) 
adg

>  <m_score__min__energy>  (25) 
-7.3899999999999997

>  <m_primary>  (25) 
energy

$$$$
25:0
     RDKit          3D

 50 52  0  0  0  0  0  0  0  0999 V2000
   -8.7330   18.5320  -31.9340 C   0  0  0  0  0  0  0  0  0  0  0  0
   -9.2020   19.7560  -32.7110 C   0  0  0  0  0  0  0  0  0  0  0  0
   -8.6380   20.9690  -32.1310 N   0  0  0  0  0  0  0  0  0  0  0  0
   -7.5250   21.0410  -31.3770 C   0  0  0  0  0  0  0  0  0  0  0  0
   -7.2890   22.3720  -31.0810 C   0  0  0  0  0  0  0  0  0  0  0  0
   -6.1730   22.9390  -30.2810 C   0  0  0  0  0  0  0  0  0  0  0  0
   -4.9840   22.2180  -30.0900 C   0  0  0  0  0  0  0  0  0  0  0  0
   -3.9420   22.7630  -29.3410 C   0  0  0  0  0  0  0  0  0  0  0  0
   -4.0830   24.0400  -28.7760 C   0  0  0  0  0  0  0  0  0  0  0  0
   -2.9800   24.6400  -27.9840 C   0  0  0  0  0  0  0  0  0  0  0  0
   -3.1530   24.9400  -26.6210 C   0  0  0  0  0  0  0  0  0  0  0  0
   -2.1110   25.5110  -25.8830 C   0  0  0  0  0  0  0  0  0  0  0  0
   -0.8900   25.8000  -26.4990 C   0  0  0  0  0  0  0  0  0  0  0  0
    0.4430   26.5400  -25.5490 S   0  0  0  0  0  0  0  0  0  0  0  0
    1.3840   24.9860  -25.3410 C   0  0  0  0  0  0  0  0  0  0  0  0
    0.4530   23.8430  -24.8930 C   0  0  0  0  0  0  0  0  0  0  0  0
    0.4600   22.6660  -25.7900 N   0  0  0  0  0  0  0  0  0  0  0  0
   -0.8820   22.0990  -26.0000 C   0  0  0  0  0  0  0  0  0  0  0  0
    1.1370   22.9220  -27.0720 C   0  0  0  0  0  0  0  0  0  0  0  0
   -0.7030   25.4910  -27.8500 C   0  0  0  0  0  0  0  0  0  0  0  0
   -1.7420   24.9190  -28.5910 C   0  0  0  0  0  0  0  0  0  0  0  0
   -5.2470   24.7290  -28.9720 N   0  0  0  0  0  0  0  0  0  0  0  0
   -6.2760   24.2140  -29.6980 C   0  0  0  0  0  0  0  0  0  0  0  0
   -8.3180   23.0590  -31.7130 C   0  0  0  0  0  0  0  0  0  0  0  0
   -9.1190   22.1830  -32.3480 N   0  0  0  0  0  0  0  0  0  0  0  0
   -8.8094   18.7313  -30.8549 H   0  0  0  0  0  0  0  0  0  0  0  0
   -9.3642   17.6692  -32.1931 H   0  0  0  0  0  0  0  0  0  0  0  0
   -7.6868   18.3119  -32.1931 H   0  0  0  0  0  0  0  0  0  0  0  0
   -8.8757   19.6685  -33.7578 H   0  0  0  0  0  0  0  0  0  0  0  0
  -10.2995   19.8124  -32.6623 H   0  0  0  0  0  0  0  0  0  0  0  0
   -6.9096   20.1890  -31.0523 H   0  0  0  0  0  0  0  0  0  0  0  0
   -4.8737   21.2175  -30.5337 H   0  0  0  0  0  0  0  0  0  0  0  0
   -3.0123   22.1939  -29.1933 H   0  0  0  0  0  0  0  0  0  0  0  0
   -4.1144   24.7241  -26.1319 H   0  0  0  0  0  0  0  0  0  0  0  0
   -2.2528   25.7332  -24.8150 H   0  0  0  0  0  0  0  0  0  0  0  0
    1.8523   24.7161  -26.2991 H   0  0  0  0  0  0  0  0  0  0  0  0
    2.1539   25.1385  -24.5703 H   0  0  0  0  0  0  0  0  0  0  0  0
    0.7675   23.5148  -23.8913 H   0  0  0  0  0  0  0  0  0  0  0  0
   -0.5706   24.2454  -24.9087 H   0  0  0  0  0  0  0  0  0  0  0  0
   -1.3526   21.9002  -25.0258 H   0  0  0  0  0  0  0  0  0  0  0  0
   -1.4977   22.8139  -26.5656 H   0  0  0  0  0  0  0  0  0  0  0  0
   -0.7986   21.1592  -26.5656 H   0  0  0  0  0  0  0  0  0  0  0  0
    2.1503   23.3052  -26.8814 H   0  0  0  0  0  0  0  0  0  0  0  0
    1.2009   21.9860  -27.6462 H   0  0  0  0  0  0  0  0  0  0  0  0
    0.5656   23.6661  -27.6462 H   0  0  0  0  0  0  0  0  0  0  0  0
    0.2641   25.6985  -28.3312 H   0  0  0  0  0  0  0  0  0  0  0  0
   -1.5902   24.6858  -29.6552 H   0  0  0  0  0  0  0  0  0  0  0  0
   -5.3760   25.6720  -28.5400 H   0  0  0  0  0  0  0  0  0  0  0  0
   -7.1970   24.8007  -29.8300 H   0  0  0  0  0  0  0  0  0  0  0  0
   -8.4567   24.1501  -31.6970 H   0  0  0  0  0  0  0  0  0  0  0  0
  1  2  1  0
  2  3  1  0
  3  4  1  0
  4  5  2  0
  5  6  1  0
  6  7  2  0
  7  8  1  0
  8  9  2  0
  9 10  1  0
 10 11  2  0
 11 12  1  0
 12 13  2  0
 13 14  1  0
 14 15  1  0
 15 16  1  0
 16 17  1  0
 17 18  1  0
 17 19  1  0
 13 20  1  0
 20 21  2  0
  9 22  1  0
 22 23  2  0
  5 24  1  0
 24 25  2  0
 25  3  1  0
 23  6  1  0
 21 10  1  0
  1 26  1  0
  1 27  1  0
  1 28  1  0
  2 29  1  0
  2 30  1  0
  4 31  1  0
  7 32  1  0
  8 33  1  0
 11 34  1  0
 12 35  1  0
 15 36  1  0
 15 37  1  0
 16 38  1  0
 16 39  1  0
 18 40  1  0
 18 41  1  0
 18 42  1  0
 19 43  1  0
 19 44  1  0
 19 45  1  0
 20 46  1  0
 21 47  1  0
 22 48  1  0
 23 49  1  0
 24 50  1  0
M  CHG  1  22   1
M  END
>  <UniqueID>  (26) 
25

>  <SMILES>  (26) 
CCn1cc(-c2ccc(-c3ccc(SCCN(C)C)cc3)[nH+]c2)cn1

>  <Energy>  (26) 
82.4889502078706

>  <Genealogy>  (26) 
CCn1cc(-c2ccc(-c3ccc(SCCN(C)C)cc3)[nH+]c2)cn1 (protonated)
CCn1cc(-c2ccc(-c3ccc(SCCN(C)C)cc3)[nH+]c2)cn1 (3D coordinates assigned)
CCn1cc(-c2ccc(-c3ccc(SCCN(C)C)cc3)[nH+]c2)cn1 (optimized conformer: 82.4889502078706 kcal/mol)

>  <smiles>  (26) 
CCn1cc(-c2ccc(-c3ccc(SCCN(C)C)cc3)nc2)cn1

>  <score_type>  (26) 
oracle

>  <origin>  (26) 
adg

>  <m_score__min__energy>  (26) 
-7.0499999999999998

>  <m_primary>  (26) 
energy

$$$$
26:0
     RDKit          3D

 50 53  0  0  0  0  0  0  0  0999 V2000
   -6.4940   25.2810  -29.7650 C   0  0  0  0  0  0  0  0  0  0  0  0
   -5.1450   25.5090  -30.4370 C   0  0  0  0  0  0  0  0  0  0  0  0
   -4.5780   24.2260  -30.8680 N   0  0  0  0  0  0  0  0  0  0  0  0
   -4.6000   23.2310  -29.7840 C   0  0  0  0  0  0  0  0  0  0  0  0
   -4.3170   21.8190  -30.3200 C   0  0  0  0  0  0  0  0  0  0  0  0
   -3.9940   21.8400  -31.7600 N   0  0  0  0  0  0  0  0  0  0  0  0
   -4.5150   20.6560  -32.4310 C   0  0  0  0  0  0  0  0  0  0  0  0
   -3.6430   19.7640  -33.0920 C   0  0  0  0  0  0  0  0  0  0  0  0
   -2.4110   20.1970  -33.6280 C   0  0  0  0  0  0  0  0  0  0  0  0
   -1.5740   19.3060  -34.2950 C   0  0  0  0  0  0  0  0  0  0  0  0
   -1.9520   17.9780  -34.4510 C   0  0  0  0  0  0  0  0  0  0  0  0
   -3.1590   17.5240  -33.9190 C   0  0  0  0  0  0  0  0  0  0  0  0
   -4.0160   18.4010  -33.2070 C   0  0  0  0  0  0  0  0  0  0  0  0
   -5.1790   17.9580  -32.6100 N   0  0  0  0  0  0  0  0  0  0  0  0
   -5.3800   16.5130  -32.3640 C   0  0  0  0  0  0  0  0  0  0  0  0
   -6.1580   18.8710  -32.2660 C   0  0  0  0  0  0  0  0  0  0  0  0
   -7.4600   18.4540  -31.9010 C   0  0  0  0  0  0  0  0  0  0  0  0
   -8.4550   19.3760  -31.5970 C   0  0  0  0  0  0  0  0  0  0  0  0
   -8.2280   20.7410  -31.7670 C   0  0  0  0  0  0  0  0  0  0  0  0
   -9.2880   21.6470  -31.6000 C   0  0  0  0  0  0  0  0  0  0  0  0
   -9.1180   22.9940  -31.9190 C   0  0  0  0  0  0  0  0  0  0  0  0
   -7.9050   23.4360  -32.4420 C   0  0  0  0  0  0  0  0  0  0  0  0
   -6.8390   22.5460  -32.5970 C   0  0  0  0  0  0  0  0  0  0  0  0
   -6.9520   21.1980  -32.1820 C   0  0  0  0  0  0  0  0  0  0  0  0
   -5.8730   20.2660  -32.2890 C   0  0  0  0  0  0  0  0  0  0  0  0
   -6.3677   25.3024  -28.6725 H   0  0  0  0  0  0  0  0  0  0  0  0
   -7.1936   26.0736  -30.0688 H   0  0  0  0  0  0  0  0  0  0  0  0
   -6.8942   24.3025  -30.0688 H   0  0  0  0  0  0  0  0  0  0  0  0
   -5.2794   26.1609  -31.3128 H   0  0  0  0  0  0  0  0  0  0  0  0
   -4.4596   25.9852  -29.7205 H   0  0  0  0  0  0  0  0  0  0  0  0
   -5.1770   23.8610  -31.6450 H   0  0  0  0  0  0  0  0  0  0  0  0
   -3.8326   23.4931  -29.0407 H   0  0  0  0  0  0  0  0  0  0  0  0
   -5.6005   23.2360  -29.3268 H   0  0  0  0  0  0  0  0  0  0  0  0
   -3.4659   21.3919  -29.7693 H   0  0  0  0  0  0  0  0  0  0  0  0
   -5.2216   21.2093  -30.1788 H   0  0  0  0  0  0  0  0  0  0  0  0
   -4.4390   22.7110  -32.1230 H   0  0  0  0  0  0  0  0  0  0  0  0
   -2.9640   21.9140  -31.9190 H   0  0  0  0  0  0  0  0  0  0  0  0
   -2.1090   21.2490  -33.5177 H   0  0  0  0  0  0  0  0  0  0  0  0
   -0.6119   19.6541  -34.6991 H   0  0  0  0  0  0  0  0  0  0  0  0
   -1.2971   17.2822  -34.9960 H   0  0  0  0  0  0  0  0  0  0  0  0
   -3.4498   16.4717  -34.0536 H   0  0  0  0  0  0  0  0  0  0  0  0
   -5.4061   16.3257  -31.2804 H   0  0  0  0  0  0  0  0  0  0  0  0
   -6.3313   16.1932  -32.8144 H   0  0  0  0  0  0  0  0  0  0  0  0
   -4.5521   15.9457  -32.8144 H   0  0  0  0  0  0  0  0  0  0  0  0
   -7.6893   17.3791  -31.8569 H   0  0  0  0  0  0  0  0  0  0  0  0
   -9.4274   19.0264  -31.2200 H   0  0  0  0  0  0  0  0  0  0  0  0
  -10.2561   21.2928  -31.2161 H   0  0  0  0  0  0  0  0  0  0  0  0
   -9.9406   23.7063  -31.7578 H   0  0  0  0  0  0  0  0  0  0  0  0
   -7.7858   24.4898  -32.7341 H   0  0  0  0  0  0  0  0  0  0  0  0
   -5.8994   22.8980  -33.0477 H   0  0  0  0  0  0  0  0  0  0  0  0
  1  2  1  0
  2  3  1  0
  3  4  1  0
  4  5  1  0
  5  6  1  0
  6  7  1  0
  7  8  2  0
  8  9  1  0
  9 10  2  0
 10 11  1  0
 11 12  2  0
 12 13  1  0
 13 14  2  0
 14 15  1  0
 14 16  1  0
 16 17  2  0
 17 18  1  0
 18 19  2  0
 19 20  1  0
 20 21  2  0
 21 22  1  0
 22 23  2  0
 23 24  1  0
 24 25  2  0
 25  7  1  0
 13  8  1  0
 25 16  1  0
 24 19  1  0
  1 26  1  0
  1 27  1  0
  1 28  1  0
  2 29  1  0
  2 30  1  0
  3 31  1  0
  4 32  1  0
  4 33  1  0
  5 34  1  0
  5 35  1  0
  6 36  1  0
  6 37  1  0
  9 38  1  0
 10 39  1  0
 11 40  1  0
 12 41  1  0
 15 42  1  0
 15 43  1  0
 15 44  1  0
 17 45  1  0
 18 46  1  0
 20 47  1  0
 21 48  1  0
 22 49  1  0
 23 50  1  0
M  CHG  2   6   1  14   1
M  END
>  <UniqueID>  (27) 
26

>  <SMILES>  (27) 
CCNCC[NH2+]c1c2ccccc2[n+](C)c2ccc3ccccc3c12

>  <Energy>  (27) 
95.48770478795697

>  <Genealogy>  (27) 
CCNCC[NH2+]c1c2ccccc2[n+](C)c2ccc3ccccc3c12 (protonated)
CCNCC[NH2+]c1c2ccccc2[n+](C)c2ccc3ccccc3c12 (3D coordinates assigned)
CCNCC[NH2+]c1c2ccccc2[n+](C)c2ccc3ccccc3c12 (optimized conformer: 95.48770478795697 kcal/mol)

>  <smiles>  (27) 
CCNCCNc1c2ccccc2[n+](C)c2ccc3ccccc3c12

>  <score_type>  (27) 
oracle

>  <origin>  (27) 
adg

>  <m_score__min__energy>  (27) 
-8.6699999999999999

>  <m_primary>  (27) 
energy

$$$$
27:0
     RDKit          3D

 35 36  0  0  0  0  0  0  0  0999 V2000
   -4.5690   24.1680  -28.7650 C   0  0  0  0  0  0  0  0  0  0  0  0
   -5.6990   25.0880  -28.9370 N   0  0  0  0  0  0  0  0  0  0  0  0
   -6.1660   25.1370  -30.3330 C   0  0  0  0  0  0  0  0  0  0  0  0
   -6.3150   23.7560  -30.9260 C   0  0  0  0  0  0  0  0  0  0  0  0
   -7.3850   22.9340  -30.5560 C   0  0  0  0  0  0  0  0  0  0  0  0
   -7.5040   21.6520  -31.0940 C   0  0  0  0  0  0  0  0  0  0  0  0
   -6.5400   21.1890  -32.0070 C   0  0  0  0  0  0  0  0  0  0  0  0
   -6.6250   19.8670  -32.5850 N   0  0  0  0  0  0  0  0  0  0  0  0
   -7.1090   18.7300  -31.7820 C   0  0  0  0  0  0  0  0  0  0  0  0
   -7.6060   17.5870  -32.6740 C   0  0  0  0  0  0  0  0  0  0  0  0
   -6.5400   17.1440  -33.6890 C   0  0  0  0  0  0  0  0  0  0  0  0
   -5.6900   18.3050  -34.2440 C   0  0  0  0  0  0  0  0  0  0  0  0
   -6.3350   19.6760  -34.0140 C   0  0  0  0  0  0  0  0  0  0  0  0
   -5.5020   22.0070  -32.3410 N   0  0  0  0  0  0  0  0  0  0  0  0
   -5.3670   23.2590  -31.8310 C   0  0  0  0  0  0  0  0  0  0  0  0
   -4.3809   24.0149  -27.6921 H   0  0  0  0  0  0  0  0  0  0  0  0
   -4.8065   23.2032  -29.2370 H   0  0  0  0  0  0  0  0  0  0  0  0
   -3.6724   24.5962  -29.2370 H   0  0  0  0  0  0  0  0  0  0  0  0
   -6.4800   24.8030  -28.3010 H   0  0  0  0  0  0  0  0  0  0  0  0
   -5.3850   26.0470  -28.6580 H   0  0  0  0  0  0  0  0  0  0  0  0
   -7.1415   25.6445  -30.3640 H   0  0  0  0  0  0  0  0  0  0  0  0
   -5.4160   25.6827  -30.9243 H   0  0  0  0  0  0  0  0  0  0  0  0
   -8.1347   23.2994  -29.8388 H   0  0  0  0  0  0  0  0  0  0  0  0
   -8.3472   21.0072  -30.8055 H   0  0  0  0  0  0  0  0  0  0  0  0
   -6.2863   18.3607  -31.1522 H   0  0  0  0  0  0  0  0  0  0  0  0
   -7.9495   19.0764  -31.1626 H   0  0  0  0  0  0  0  0  0  0  0  0
   -7.8693   16.7289  -32.0381 H   0  0  0  0  0  0  0  0  0  0  0  0
   -8.4800   17.9491  -33.2352 H   0  0  0  0  0  0  0  0  0  0  0  0
   -5.8677   16.4268  -33.1954 H   0  0  0  0  0  0  0  0  0  0  0  0
   -7.0741   16.7009  -34.5424 H   0  0  0  0  0  0  0  0  0  0  0  0
   -4.7085   18.2906  -33.7475 H   0  0  0  0  0  0  0  0  0  0  0  0
   -5.5998   18.1595  -35.3306 H   0  0  0  0  0  0  0  0  0  0  0  0
   -5.6459   20.4634  -34.3534 H   0  0  0  0  0  0  0  0  0  0  0  0
   -7.2756   19.7301  -34.5817 H   0  0  0  0  0  0  0  0  0  0  0  0
   -4.5121   23.8838  -32.1289 H   0  0  0  0  0  0  0  0  0  0  0  0
  1  2  1  0
  2  3  1  0
  3  4  1  0
  4  5  2  0
  5  6  1  0
  6  7  2  0
  7  8  1  0
  8  9  1  0
  9 10  1  0
 10 11  1  0
 11 12  1  0
 12 13  1  0
  7 14  1  0
 14 15  2  0
 15  4  1  0
 13  8  1  0
  1 16  1  0
  1 17  1  0
  1 18  1  0
  2 19  1  0
  2 20  1  0
  3 21  1  0
  3 22  1  0
  5 23  1  0
  6 24  1  0
  9 25  1  0
  9 26  1  0
 10 27  1  0
 10 28  1  0
 11 29  1  0
 11 30  1  0
 12 31  1  0
 12 32  1  0
 13 33  1  0
 13 34  1  0
 15 35  1  0
M  CHG  1   2   1
M  END
>  <UniqueID>  (28) 
27

>  <SMILES>  (28) 
C[NH2+]Cc1ccc(N2CCCCC2)nc1

>  <Energy>  (28) 
35.9215195428883

>  <Genealogy>  (28) 
C[NH2+]Cc1ccc(N2CCCCC2)nc1 (protonated)
C[NH2+]Cc1ccc(N2CCCCC2)nc1 (3D coordinates assigned)
C[NH2+]Cc1ccc(N2CCCCC2)nc1 (nonaromatic ring conformer: 35.9215195428883 kcal/mol)

>  <smiles>  (28) 
CNCc1ccc(N2CCCCC2)nc1

>  <score_type>  (28) 
oracle

>  <origin>  (28) 
adg

>  <m_score__min__energy>  (28) 
-5.7999999999999998

>  <m_primary>  (28) 
energy

$$$$
28:0
     RDKit          3D

 53 56  0  0  0  0  0  0  0  0999 V2000
   -3.0970   19.6740  -27.1000 C   0  0  0  0  0  0  0  0  0  0  0  0
   -2.7590   20.8450  -27.9740 C   0  0  0  0  0  0  0  0  0  0  0  0
   -3.4300   22.0660  -27.8130 C   0  0  0  0  0  0  0  0  0  0  0  0
   -3.0860   23.1650  -28.6050 C   0  0  0  0  0  0  0  0  0  0  0  0
   -2.0640   23.0570  -29.5510 C   0  0  0  0  0  0  0  0  0  0  0  0
   -1.3700   21.8430  -29.7090 C   0  0  0  0  0  0  0  0  0  0  0  0
   -0.3280   21.6880  -30.6350 O   0  0  0  0  0  0  0  0  0  0  0  0
    0.2330   20.4340  -31.0160 C   0  0  0  0  0  0  0  0  0  0  0  0
    0.1480   20.2720  -32.5310 C   0  0  0  0  0  0  0  0  0  0  0  0
   -0.7890   21.1930  -33.0930 O   0  0  0  0  0  0  0  0  0  0  0  0
   -2.1850   21.0480  -33.0770 C   0  0  0  0  0  0  0  0  0  0  0  0
   -2.7460   19.9830  -33.7880 C   0  0  0  0  0  0  0  0  0  0  0  0
   -4.1290   19.8090  -33.8010 C   0  0  0  0  0  0  0  0  0  0  0  0
   -4.9300   20.6740  -33.1250 N   0  0  0  0  0  0  0  0  0  0  0  0
   -4.4250   21.7290  -32.4290 C   0  0  0  0  0  0  0  0  0  0  0  0
   -5.3330   22.6300  -31.6890 C   0  0  0  0  0  0  0  0  0  0  0  0
   -4.9550   23.8530  -31.2630 N   0  0  0  0  0  0  0  0  0  0  0  0
   -6.0400   24.2670  -30.5760 C   0  0  0  0  0  0  0  0  0  0  0  0
   -6.1060   25.5650  -29.8440 C   0  0  0  0  0  0  0  0  0  0  0  0
   -7.0280   23.3530  -30.5590 N   0  0  0  0  0  0  0  0  0  0  0  0
   -6.5840   22.3280  -31.2660 N   0  0  0  0  0  0  0  0  0  0  0  0
   -7.3920   21.1840  -31.5890 C   0  0  0  0  0  0  0  0  0  0  0  0
   -8.7230   21.3480  -31.9980 C   0  0  0  0  0  0  0  0  0  0  0  0
   -9.4840   20.2260  -32.3280 C   0  0  0  0  0  0  0  0  0  0  0  0
   -8.9130   18.9540  -32.2600 C   0  0  0  0  0  0  0  0  0  0  0  0
   -7.5750   18.8230  -31.8690 C   0  0  0  0  0  0  0  0  0  0  0  0
   -6.9420   17.4730  -31.7730 C   0  0  0  0  0  0  0  0  0  0  0  0
   -6.8560   19.9330  -31.5480 N   0  0  0  0  0  0  0  0  0  0  0  0
   -3.0360   21.9220  -32.3760 C   0  0  0  0  0  0  0  0  0  0  0  0
   -1.7210   20.7450  -28.9150 C   0  0  0  0  0  0  0  0  0  0  0  0
   -3.0120   19.9684  -26.0435 H   0  0  0  0  0  0  0  0  0  0  0  0
   -4.1264   19.3465  -27.3077 H   0  0  0  0  0  0  0  0  0  0  0  0
   -2.4005   18.8483  -27.3077 H   0  0  0  0  0  0  0  0  0  0  0  0
   -4.2284   22.1589  -27.0621 H   0  0  0  0  0  0  0  0  0  0  0  0
   -3.6217   24.1179  -28.4830 H   0  0  0  0  0  0  0  0  0  0  0  0
   -1.8007   23.9240  -30.1747 H   0  0  0  0  0  0  0  0  0  0  0  0
    1.2866   20.3943  -30.7025 H   0  0  0  0  0  0  0  0  0  0  0  0
   -0.3275   19.6215  -30.5306 H   0  0  0  0  0  0  0  0  0  0  0  0
    1.1402   20.4563  -32.9687 H   0  0  0  0  0  0  0  0  0  0  0  0
   -0.1884   19.2491  -32.7556 H   0  0  0  0  0  0  0  0  0  0  0  0
   -2.0974   19.2838  -34.3361 H   0  0  0  0  0  0  0  0  0  0  0  0
   -4.5723   18.9710  -34.3588 H   0  0  0  0  0  0  0  0  0  0  0  0
   -6.0964   25.3758  -28.7604 H   0  0  0  0  0  0  0  0  0  0  0  0
   -5.2382   26.1838  -30.1159 H   0  0  0  0  0  0  0  0  0  0  0  0
   -7.0321   26.0926  -30.1159 H   0  0  0  0  0  0  0  0  0  0  0  0
   -9.1641   22.3539  -32.0583 H   0  0  0  0  0  0  0  0  0  0  0  0
  -10.5319   20.3436  -32.6411 H   0  0  0  0  0  0  0  0  0  0  0  0
   -9.5082   18.0637  -32.5110 H   0  0  0  0  0  0  0  0  0  0  0  0
   -6.8149   17.2020  -30.7145 H   0  0  0  0  0  0  0  0  0  0  0  0
   -7.5857   16.7302  -32.2669 H   0  0  0  0  0  0  0  0  0  0  0  0
   -5.9593   17.4928  -32.2669 H   0  0  0  0  0  0  0  0  0  0  0  0
   -2.6149   22.7520  -31.7896 H   0  0  0  0  0  0  0  0  0  0  0  0
   -1.1788   19.7947  -29.0290 H   0  0  0  0  0  0  0  0  0  0  0  0
  1  2  1  0
  2  3  2  0
  3  4  1  0
  4  5  2  0
  5  6  1  0
  6  7  1  0
  7  8  1  0
  8  9  1  0
  9 10  1  0
 10 11  1  0
 11 12  2  0
 12 13  1  0
 13 14  2  0
 14 15  1  0
 15 16  1  0
 16 17  2  0
 17 18  1  0
 18 19  1  0
 18 20  2  0
 20 21  1  0
 21 22  1  0
 22 23  2  0
 23 24  1  0
 24 25  2  0
 25 26  1  0
 26 27  1  0
 26 28  2  0
 15 29  2  0
  6 30  2  0
 30  2  1  0
 29 11  1  0
 21 16  1  0
 28 22  1  0
  1 31  1  0
  1 32  1  0
  1 33  1  0
  3 34  1  0
  4 35  1  0
  5 36  1  0
  8 37  1  0
  8 38  1  0
  9 39  1  0
  9 40  1  0
 12 41  1  0
 13 42  1  0
 19 43  1  0
 19 44  1  0
 19 45  1  0
 23 46  1  0
 24 47  1  0
 25 48  1  0
 27 49  1  0
 27 50  1  0
 27 51  1  0
 29 52  1  0
 30 53  1  0
M  END
>  <UniqueID>  (29) 
28

>  <SMILES>  (29) 
Cc1cccc(OCCOc2ccnc(-c3nc(C)nn3-c3cccc(C)n3)c2)c1

>  <Energy>  (29) 
91.37573021542597

>  <Genealogy>  (29) 
Cc1cccc(OCCOc2ccnc(-c3nc(C)nn3-c3cccc(C)n3)c2)c1 (3D coordinates assigned)
Cc1cccc(OCCOc2ccnc(-c3nc(C)nn3-c3cccc(C)n3)c2)c1 (optimized conformer: 91.37573021542597 kcal/mol)

>  <smiles>  (29) 
Cc1cccc(OCCOc2ccnc(-c3nc(C)nn3-c3cccc(C)n3)c2)c1

>  <score_type>  (29) 
oracle

>  <origin>  (29) 
adg

>  <m_score__min__energy>  (29) 
-9.4600000000000009

>  <m_primary>  (29) 
energy

$$$$
29:0
     RDKit          3D

 52 54  0  0  0  0  0  0  0  0999 V2000
   -4.1850   22.6970  -27.9570 C   0  0  0  0  0  0  0  0  0  0  0  0
   -3.1050   21.7460  -28.4820 C   0  0  0  0  0  0  0  0  0  0  0  0
   -2.5020   22.2410  -29.7480 N   0  0  0  0  0  0  0  0  0  0  0  0
   -1.2710   23.0400  -29.5200 C   0  0  0  0  0  0  0  0  0  0  0  0
   -1.5510   24.4300  -28.9520 C   0  0  0  0  0  0  0  0  0  0  0  0
   -2.2070   21.1180  -30.6800 C   0  0  0  0  0  0  0  0  0  0  0  0
   -2.2570   21.5850  -32.1420 C   0  0  0  0  0  0  0  0  0  0  0  0
   -3.1680   20.7210  -33.0290 C   0  0  0  0  0  0  0  0  0  0  0  0
   -4.3910   21.4350  -33.3990 N   0  0  0  0  0  0  0  0  0  0  0  0
   -5.5530   21.4020  -32.5520 C   0  0  0  0  0  0  0  0  0  0  0  0
   -5.8370   22.4800  -31.6960 C   0  0  0  0  0  0  0  0  0  0  0  0
   -4.9400   23.5600  -31.5770 C   0  0  0  0  0  0  0  0  0  0  0  0
   -5.2030   24.6130  -30.7060 C   0  0  0  0  0  0  0  0  0  0  0  0
   -6.3540   24.5980  -29.9260 C   0  0  0  0  0  0  0  0  0  0  0  0
   -7.2570   23.5410  -30.0280 C   0  0  0  0  0  0  0  0  0  0  0  0
   -7.0350   22.4720  -30.9350 C   0  0  0  0  0  0  0  0  0  0  0  0
   -7.9400   21.4360  -31.0740 N   0  0  0  0  0  0  0  0  0  0  0  0
   -9.3040   21.5630  -30.5170 C   0  0  0  0  0  0  0  0  0  0  0  0
   -7.5710   20.2860  -31.7490 C   0  0  0  0  0  0  0  0  0  0  0  0
   -8.3440   19.0990  -31.6780 C   0  0  0  0  0  0  0  0  0  0  0  0
   -7.9750   17.9560  -32.3880 C   0  0  0  0  0  0  0  0  0  0  0  0
   -6.8250   17.9560  -33.1680 C   0  0  0  0  0  0  0  0  0  0  0  0
   -6.3220   16.3830  -34.1280 Br  0  0  0  0  0  0  0  0  0  0  0  0
   -6.0250   19.0960  -33.2290 C   0  0  0  0  0  0  0  0  0  0  0  0
   -6.3790   20.2640  -32.5220 C   0  0  0  0  0  0  0  0  0  0  0  0
   -4.1768   22.6897  -26.8571 H   0  0  0  0  0  0  0  0  0  0  0  0
   -3.9834   23.7162  -28.3185 H   0  0  0  0  0  0  0  0  0  0  0  0
   -5.1705   22.3680  -28.3185 H   0  0  0  0  0  0  0  0  0  0  0  0
   -2.3138   21.6521  -27.7235 H   0  0  0  0  0  0  0  0  0  0  0  0
   -3.5755   20.7726  -28.6848 H   0  0  0  0  0  0  0  0  0  0  0  0
   -0.6278   22.4965  -28.8123 H   0  0  0  0  0  0  0  0  0  0  0  0
   -0.7861   23.1785  -30.4976 H   0  0  0  0  0  0  0  0  0  0  0  0
   -1.5421   24.3856  -27.8529 H   0  0  0  0  0  0  0  0  0  0  0  0
   -0.7758   25.1301  -29.2970 H   0  0  0  0  0  0  0  0  0  0  0  0
   -2.5368   24.7753  -29.2970 H   0  0  0  0  0  0  0  0  0  0  0  0
   -1.2029   20.7251  -30.4626 H   0  0  0  0  0  0  0  0  0  0  0  0
   -2.9675   20.3363  -30.5368 H   0  0  0  0  0  0  0  0  0  0  0  0
   -2.6285   22.6201  -32.1647 H   0  0  0  0  0  0  0  0  0  0  0  0
   -1.2369   21.4999  -32.5447 H   0  0  0  0  0  0  0  0  0  0  0  0
   -2.6220   20.4493  -33.9445 H   0  0  0  0  0  0  0  0  0  0  0  0
   -3.4515   19.8229  -32.4607 H   0  0  0  0  0  0  0  0  0  0  0  0
   -4.3280   22.1950  -34.1110 H   0  0  0  0  0  0  0  0  0  0  0  0
   -4.0202   23.5710  -32.1802 H   0  0  0  0  0  0  0  0  0  0  0  0
   -4.5008   25.4567  -30.6346 H   0  0  0  0  0  0  0  0  0  0  0  0
   -6.5526   25.4230  -29.2261 H   0  0  0  0  0  0  0  0  0  0  0  0
   -8.1566   23.5352  -29.3950 H   0  0  0  0  0  0  0  0  0  0  0  0
   -9.2533   21.5583  -29.4182 H   0  0  0  0  0  0  0  0  0  0  0  0
   -9.7534   22.5069  -30.8592 H   0  0  0  0  0  0  0  0  0  0  0  0
   -9.9199   20.7183  -30.8592 H   0  0  0  0  0  0  0  0  0  0  0  0
   -9.2490   19.0792  -31.0531 H   0  0  0  0  0  0  0  0  0  0  0  0
   -8.5973   17.0508  -32.3300 H   0  0  0  0  0  0  0  0  0  0  0  0
   -5.1073   19.0845  -33.8354 H   0  0  0  0  0  0  0  0  0  0  0  0
  1  2  1  0
  2  3  1  0
  3  4  1  0
  4  5  1  0
  3  6  1  0
  6  7  1  0
  7  8  1  0
  8  9  1  0
  9 10  1  0
 10 11  2  0
 11 12  1  0
 12 13  2  0
 13 14  1  0
 14 15  2  0
 15 16  1  0
 16 17  2  0
 17 18  1  0
 17 19  1  0
 19 20  2  0
 20 21  1  0
 21 22  2  0
 22 23  1  0
 22 24  1  0
 24 25  2  0
 25 10  1  0
 16 11  1  0
 25 19  1  0
  1 26  1  0
  1 27  1  0
  1 28  1  0
  2 29  1  0
  2 30  1  0
  4 31  1  0
  4 32  1  0
  5 33  1  0
  5 34  1  0
  5 35  1  0
  6 36  1  0
  6 37  1  0
  7 38  1  0
  7 39  1  0
  8 40  1  0
  8 41  1  0
  9 42  1  0
 12 43  1  0
 13 44  1  0
 14 45  1  0
 15 46  1  0
 18 47  1  0
 18 48  1  0
 18 49  1  0
 20 50  1  0
 21 51  1  0
 24 52  1  0
M  CHG  1  17   1
M  END
>  <UniqueID>  (30) 
29

>  <SMILES>  (30) 
CCN(CC)CCCNc1c2ccccc2[n+](C)c2ccc(Br)cc12

>  <Energy>  (30) 
80.7324521778471

>  <Genealogy>  (30) 
CCN(CC)CCCNc1c2ccccc2[n+](C)c2ccc(Br)cc12 (3D coordinates assigned)
CCN(CC)CCCNc1c2ccccc2[n+](C)c2ccc(Br)cc12 (optimized conformer: 80.7324521778471 kcal/mol)

>  <smiles>  (30) 
CCN(CC)CCCNc1c2ccccc2[n+](C)c2ccc(Br)cc12

>  <score_type>  (30) 
oracle

>  <origin>  (30) 
adg

>  <m_score__min__energy>  (30) 
-8.5099999999999998

>  <m_primary>  (30) 
energy

$$$$
30:0
     RDKit          3D

 41 43  0  0  0  0  0  0  0  0999 V2000
    0.0160   20.8350  -35.4170 C   0  0  0  0  0  0  0  0  0  0  0  0
   -1.1170   21.2560  -34.5850 N   0  0  0  0  0  0  0  0  0  0  0  0
   -0.9470   20.8660  -33.1720 C   0  0  0  0  0  0  0  0  0  0  0  0
   -2.2650   20.8960  -32.3790 C   0  0  0  0  0  0  0  0  0  0  0  0
   -3.4040   21.1590  -33.2570 N   0  0  0  0  0  0  0  0  0  0  0  0
   -4.7140   20.6490  -32.9510 C   0  0  0  0  0  0  0  0  0  0  0  0
   -5.1330   19.4090  -33.4670 C   0  0  0  0  0  0  0  0  0  0  0  0
   -4.3080   18.6710  -34.3420 C   0  0  0  0  0  0  0  0  0  0  0  0
   -4.7430   17.4630  -34.8830 C   0  0  0  0  0  0  0  0  0  0  0  0
   -6.0070   16.9780  -34.5730 C   0  0  0  0  0  0  0  0  0  0  0  0
   -6.8340   17.6800  -33.6970 C   0  0  0  0  0  0  0  0  0  0  0  0
   -6.4040   18.8910  -33.0960 C   0  0  0  0  0  0  0  0  0  0  0  0
   -7.1900   19.5680  -32.1820 N   0  0  0  0  0  0  0  0  0  0  0  0
   -8.3600   18.8980  -31.5710 C   0  0  0  0  0  0  0  0  0  0  0  0
   -6.8700   20.8650  -31.8240 C   0  0  0  0  0  0  0  0  0  0  0  0
   -7.7830   21.6900  -31.1180 C   0  0  0  0  0  0  0  0  0  0  0  0
   -7.4380   22.9880  -30.7400 C   0  0  0  0  0  0  0  0  0  0  0  0
   -6.1910   23.5050  -31.0700 C   0  0  0  0  0  0  0  0  0  0  0  0
   -5.7330   25.2880  -30.5610 Br  0  0  0  0  0  0  0  0  0  0  0  0
   -5.2870   22.7320  -31.7960 C   0  0  0  0  0  0  0  0  0  0  0  0
   -5.6100   21.4150  -32.1830 C   0  0  0  0  0  0  0  0  0  0  0  0
    0.8503   20.5250  -34.7706 H   0  0  0  0  0  0  0  0  0  0  0  0
   -0.2893   19.9903  -36.0520 H   0  0  0  0  0  0  0  0  0  0  0  0
    0.3363   21.6741  -36.0520 H   0  0  0  0  0  0  0  0  0  0  0  0
   -1.9780   20.7890  -34.9550 H   0  0  0  0  0  0  0  0  0  0  0  0
   -1.2470   22.2880  -34.6790 H   0  0  0  0  0  0  0  0  0  0  0  0
   -0.5394   19.8449  -33.1365 H   0  0  0  0  0  0  0  0  0  0  0  0
   -0.2665   21.5953  -32.7082 H   0  0  0  0  0  0  0  0  0  0  0  0
   -2.4092   19.9235  -31.8857 H   0  0  0  0  0  0  0  0  0  0  0  0
   -2.2053   21.7034  -31.6343 H   0  0  0  0  0  0  0  0  0  0  0  0
   -3.2270   21.5540  -34.2090 H   0  0  0  0  0  0  0  0  0  0  0  0
   -3.3096   19.0539  -34.6001 H   0  0  0  0  0  0  0  0  0  0  0  0
   -4.0852   16.8932  -35.5558 H   0  0  0  0  0  0  0  0  0  0  0  0
   -6.3571   16.0361  -35.0205 H   0  0  0  0  0  0  0  0  0  0  0  0
   -7.8362   17.2885  -33.4682 H   0  0  0  0  0  0  0  0  0  0  0  0
   -8.2783   18.9448  -30.4750 H   0  0  0  0  0  0  0  0  0  0  0  0
   -9.2819   19.4051  -31.8920 H   0  0  0  0  0  0  0  0  0  0  0  0
   -8.3892   17.8463  -31.8920 H   0  0  0  0  0  0  0  0  0  0  0  0
   -8.7797   21.2998  -30.8643 H   0  0  0  0  0  0  0  0  0  0  0  0
   -8.1557   23.6044  -30.1787 H   0  0  0  0  0  0  0  0  0  0  0  0
   -4.3092   23.1544  -32.0707 H   0  0  0  0  0  0  0  0  0  0  0  0
  1  2  1  0
  2  3  1  0
  3  4  1  0
  4  5  1  0
  5  6  1  0
  6  7  2  0
  7  8  1  0
  8  9  2  0
  9 10  1  0
 10 11  2  0
 11 12  1  0
 12 13  2  0
 13 14  1  0
 13 15  1  0
 15 16  2  0
 16 17  1  0
 17 18  2  0
 18 19  1  0
 18 20  1  0
 20 21  2  0
 21  6  1  0
 12  7  1  0
 21 15  1  0
  1 22  1  0
  1 23  1  0
  1 24  1  0
  2 25  1  0
  2 26  1  0
  3 27  1  0
  3 28  1  0
  4 29  1  0
  4 30  1  0
  5 31  1  0
  8 32  1  0
  9 33  1  0
 10 34  1  0
 11 35  1  0
 14 36  1  0
 14 37  1  0
 14 38  1  0
 16 39  1  0
 17 40  1  0
 20 41  1  0
M  CHG  2   2   1  13   1
M  END
>  <UniqueID>  (31) 
30

>  <SMILES>  (31) 
C[NH2+]CCNc1c2ccccc2[n+](C)c2ccc(Br)cc12

>  <Energy>  (31) 
67.12088074941008

>  <Genealogy>  (31) 
C[NH2+]CCNc1c2ccccc2[n+](C)c2ccc(Br)cc12 (protonated)
C[NH2+]CCNc1c2ccccc2[n+](C)c2ccc(Br)cc12 (3D coordinates assigned)
C[NH2+]CCNc1c2ccccc2[n+](C)c2ccc(Br)cc12 (optimized conformer: 67.12088074941008 kcal/mol)

>  <smiles>  (31) 
CNCCNc1c2ccccc2[n+](C)c2ccc(Br)cc12

>  <score_type>  (31) 
oracle

>  <origin>  (31) 
adg

>  <m_score__min__energy>  (31) 
-7.5300000000000002

>  <m_primary>  (31) 
energy

$$$$
31:0
     RDKit          3D

 31 32  0  0  0  0  0  0  0  0999 V2000
   -5.7580   26.4830  -30.1000 O   0  0  0  0  0  0  0  0  0  0  0  0
   -5.2440   25.4340  -30.5710 C   0  0  0  0  0  0  0  0  0  0  0  0
   -6.1260   24.4480  -31.2980 C   0  0  0  0  0  0  0  0  0  0  0  0
   -5.3440   23.5020  -32.1160 N   0  0  0  0  0  0  0  0  0  0  0  0
   -5.4430   22.1030  -31.6580 C   0  0  0  0  0  0  0  0  0  0  0  0
   -6.8050   21.5150  -31.9070 C   0  0  0  0  0  0  0  0  0  0  0  0
   -7.0750   20.3940  -32.6800 C   0  0  0  0  0  0  0  0  0  0  0  0
   -8.4310   20.0510  -32.6990 C   0  0  0  0  0  0  0  0  0  0  0  0
   -9.2310   20.9020  -31.9470 C   0  0  0  0  0  0  0  0  0  0  0  0
   -8.2480   22.0790  -31.2550 S   0  0  0  0  0  0  0  0  0  0  0  0
   -3.8250   25.2550  -30.4700 N   0  0  0  0  0  0  0  0  0  0  0  0
   -3.1320   24.4960  -29.4700 C   0  0  0  0  0  0  0  0  0  0  0  0
   -1.8860   24.9100  -28.9660 C   0  0  0  0  0  0  0  0  0  0  0  0
   -1.2290   24.1410  -27.9990 C   0  0  0  0  0  0  0  0  0  0  0  0
   -1.8000   22.9470  -27.5470 C   0  0  0  0  0  0  0  0  0  0  0  0
   -3.0210   22.5150  -28.0700 C   0  0  0  0  0  0  0  0  0  0  0  0
   -3.6790   23.2800  -29.0380 C   0  0  0  0  0  0  0  0  0  0  0  0
   -6.7080   23.8796  -30.5575 H   0  0  0  0  0  0  0  0  0  0  0  0
   -6.7840   25.0155  -31.9726 H   0  0  0  0  0  0  0  0  0  0  0  0
   -4.3370   23.7870  -32.1090 H   0  0  0  0  0  0  0  0  0  0  0  0
   -5.6770   23.5620  -33.1060 H   0  0  0  0  0  0  0  0  0  0  0  0
   -4.6946   21.5014  -32.1947 H   0  0  0  0  0  0  0  0  0  0  0  0
   -5.2651   22.0912  -30.5726 H   0  0  0  0  0  0  0  0  0  0  0  0
   -6.3007   19.8321  -33.2229 H   0  0  0  0  0  0  0  0  0  0  0  0
   -8.8263   19.1891  -33.2566 H   0  0  0  0  0  0  0  0  0  0  0  0
  -10.3211   20.8203  -31.8248 H   0  0  0  0  0  0  0  0  0  0  0  0
   -1.4271   25.8400  -29.3326 H   0  0  0  0  0  0  0  0  0  0  0  0
   -0.2626   24.4759  -27.5940 H   0  0  0  0  0  0  0  0  0  0  0  0
   -1.2876   22.3481  -26.7797 H   0  0  0  0  0  0  0  0  0  0  0  0
   -3.4655   21.5717  -27.7199 H   0  0  0  0  0  0  0  0  0  0  0  0
   -4.6301   22.9259  -29.4623 H   0  0  0  0  0  0  0  0  0  0  0  0
  1  2  2  0
  2  3  1  0
  3  4  1  0
  4  5  1  0
  5  6  1  0
  6  7  2  0
  7  8  1  0
  8  9  2  0
  9 10  1  0
  2 11  1  0
 11 12  1  0
 12 13  2  0
 13 14  1  0
 14 15  2  0
 15 16  1  0
 16 17  2  0
 10  6  1  0
 17 12  1  0
  3 18  1  0
  3 19  1  0
  4 20  1  0
  4 21  1  0
  5 22  1  0
  5 23  1  0
  7 24  1  0
  8 25  1  0
  9 26  1  0
 13 27  1  0
 14 28  1  0
 15 29  1  0
 16 30  1  0
 17 31  1  0
M  CHG  2   4   1  11  -1
M  END
>  <UniqueID>  (32) 
31

>  <SMILES>  (32) 
O=C(C[NH2+]Cc1cccs1)[N-]c1ccccc1

>  <Energy>  (32) 
59.76431204903622

>  <Genealogy>  (32) 
O=C(C[NH2+]Cc1cccs1)[N-]c1ccccc1 (protonated)
O=C(C[NH2+]Cc1cccs1)[N-]c1ccccc1 (3D coordinates assigned)
O=C(C[NH2+]Cc1cccs1)[N-]c1ccccc1 (optimized conformer: 59.76431204903622 kcal/mol)

>  <smiles>  (32) 
O=C(CNCc1cccs1)Nc1ccccc1

>  <score_type>  (32) 
oracle

>  <origin>  (32) 
adg

>  <m_score__min__energy>  (32) 
-7.4400000000000004

>  <m_primary>  (32) 
energy

$$$$
