0:0
     RDKit          3D

 42 44  0  0  0  0  0  0  0  0999 V2000
   -6.6443   24.3165  -31.4861 H   0  0  0  0  0  0  0  0  0  0  0  0
   -6.1920   23.3320  -31.2960 C   0  0  0  0  0  0  0  0  0  0  0  0
   -4.9960   23.3010  -30.6880 C   0  0  0  0  0  0  0  0  0  0  0  0
   -4.0790   24.4190  -30.4380 C   0  0  0  0  0  0  0  0  0  0  0  0
   -4.2260   25.6160  -30.8010 O   0  0  0  0  0  0  0  0  0  0  0  0
   -2.9100   23.8870  -29.7760 C   0  0  0  0  0  0  0  0  0  0  0  0
   -1.7730   24.5560  -29.3290 C   0  0  0  0  0  0  0  0  0  0  0  0
   -1.6772   25.6447  -29.4538 H   0  0  0  0  0  0  0  0  0  0  0  0
   -0.7450   23.8080  -28.7120 C   0  0  0  0  0  0  0  0  0  0  0  0
    0.4280   24.4130  -28.2350 O   0  0  0  0  0  0  0  0  0  0  0  0
    0.7460   24.5770  -26.8560 C   0  0  0  0  0  0  0  0  0  0  0  0
   -0.0643   24.1591  -26.2406 H   0  0  0  0  0  0  0  0  0  0  0  0
    1.6856   24.0510  -26.6313 H   0  0  0  0  0  0  0  0  0  0  0  0
    0.8623   25.6475  -26.6313 H   0  0  0  0  0  0  0  0  0  0  0  0
   -0.8870   22.4090  -28.5610 C   0  0  0  0  0  0  0  0  0  0  0  0
    0.1540   21.6980  -27.9420 O   0  0  0  0  0  0  0  0  0  0  0  0
    0.3680   20.2970  -28.0830 C   0  0  0  0  0  0  0  0  0  0  0  0
    0.4386   19.8348  -27.0873 H   0  0  0  0  0  0  0  0  0  0  0  0
   -0.4725   19.8514  -28.6353 H   0  0  0  0  0  0  0  0  0  0  0  0
    1.3032   20.1227  -28.6353 H   0  0  0  0  0  0  0  0  0  0  0  0
   -2.0560   21.7630  -29.0310 C   0  0  0  0  0  0  0  0  0  0  0  0
   -2.1744   20.6749  -28.9215 H   0  0  0  0  0  0  0  0  0  0  0  0
   -3.0540   22.5250  -29.6340 C   0  0  0  0  0  0  0  0  0  0  0  0
   -4.3500   22.0290  -30.2030 C   0  0  0  0  0  0  0  0  0  0  0  0
   -4.9627   21.5403  -29.4312 H   0  0  0  0  0  0  0  0  0  0  0  0
   -4.2238   21.2713  -30.9904 H   0  0  0  0  0  0  0  0  0  0  0  0
   -6.9420   22.1370  -31.7270 C   0  0  0  0  0  0  0  0  0  0  0  0
   -8.1400   21.7680  -31.0970 C   0  0  0  0  0  0  0  0  0  0  0  0
   -8.5527   22.3959  -30.2936 H   0  0  0  0  0  0  0  0  0  0  0  0
   -8.8100   20.6070  -31.4860 C   0  0  0  0  0  0  0  0  0  0  0  0
   -9.7576   20.3319  -30.9998 H   0  0  0  0  0  0  0  0  0  0  0  0
   -8.2810   19.7930  -32.4910 C   0  0  0  0  0  0  0  0  0  0  0  0
   -8.8183   18.8837  -32.7983 H   0  0  0  0  0  0  0  0  0  0  0  0
   -7.0640   20.1310  -33.1120 C   0  0  0  0  0  0  0  0  0  0  0  0
   -6.4850   19.3070  -34.1400 N   0  0  0  0  0  0  0  0  0  0  0  0
   -6.8640   19.3720  -35.1130 H   0  0  0  0  0  0  0  0  0  0  0  0
   -5.3880   18.3750  -33.9050 C   0  0  0  0  0  0  0  0  0  0  0  0
   -5.2396   18.2489  -32.8224 H   0  0  0  0  0  0  0  0  0  0  0  0
   -5.6301   17.4021  -34.3577 H   0  0  0  0  0  0  0  0  0  0  0  0
   -4.4670   18.7711  -34.3577 H   0  0  0  0  0  0  0  0  0  0  0  0
   -6.3970   21.3020  -32.7130 C   0  0  0  0  0  0  0  0  0  0  0  0
   -5.4366   21.5665  -33.1795 H   0  0  0  0  0  0  0  0  0  0  0  0
  1  2  1  0
  2  3  2  0
  3  4  1  0
  4  5  2  0
  4  6  1  0
  6  7  2  0
  7  8  1  0
  7  9  1  0
  9 10  1  0
 10 11  1  0
 11 12  1  0
 11 13  1  0
 11 14  1  0
  9 15  2  0
 15 16  1  0
 16 17  1  0
 17 18  1  0
 17 19  1  0
 17 20  1  0
 15 21  1  0
 21 22  1  0
 21 23  2  0
 23 24  1  0
 24 25  1  0
 24 26  1  0
  2 27  1  0
 27 28  2  0
 28 29  1  0
 28 30  1  0
 30 31  1  0
 30 32  2  0
 32 33  1  0
 32 34  1  0
 34 35  1  0
 35 36  1  0
 35 37  1  0
 37 38  1  0
 37 39  1  0
 37 40  1  0
 34 41  2  0
 41 42  1  0
 24  3  1  0
 41 27  1  0
 23  6  1  0
M  END
>  <UniqueID>  (1) 
1

>  <SMILES>  (1) 
CNc1cccc(/C=C2/Cc3cc(OC)c(OC)cc3C2=O)c1

>  <Energy>  (1) 
66.75726511544381

>  <Genealogy>  (1) 
CNc1cccc(/C=C2/Cc3cc(OC)c(OC)cc3C2=O)c1 (cis-trans isomerization)
CNc1cccc(/C=C2/Cc3cc(OC)c(OC)cc3C2=O)c1 (3D coordinates assigned)
CNc1cccc(/C=C2/Cc3cc(OC)c(OC)cc3C2=O)c1 (nonaromatic ring conformer: 66.75726511544381 kcal/mol)

>  <smiles>  (1) 
CNc1cccc(C=C2Cc3cc(OC)c(OC)cc3C2=O)c1

>  <score_type>  (1) 
oracle

>  <origin>  (1) 
adg

>  <m_score__min__energy>  (1) 
-8.3499999999999996

>  <m_primary>  (1) 
energy

$$$$
1:0
     RDKit          3D

 61 65  0  0  0  0  0  0  0  0999 V2000
   -2.5670   13.9510  -33.5670 C   0  0  0  0  0  0  0  0  0  0  0  0
   -3.2250   14.7960  -34.5680 N   0  0  0  0  0  0  0  0  0  0  0  0
   -2.6990   14.8800  -35.9330 C   0  0  0  0  0  0  0  0  0  0  0  0
   -4.4020   15.5430  -34.2080 C   0  0  0  0  0  0  0  0  0  0  0  0
   -5.6460   14.9650  -34.3130 N   0  0  0  0  0  0  0  0  0  0  0  0
   -6.7840   15.6460  -33.9870 C   0  0  0  0  0  0  0  0  0  0  0  0
   -6.6480   16.9540  -33.5470 C   0  0  0  0  0  0  0  0  0  0  0  0
   -7.5730   17.8040  -33.1780 O   0  0  0  0  0  0  0  0  0  0  0  0
   -6.9660   18.9340  -32.8440 C   0  0  0  0  0  0  0  0  0  0  0  0
   -7.7160   20.1430  -32.4480 C   0  0  0  0  0  0  0  0  0  0  0  0
   -7.0740   21.3900  -32.3490 C   0  0  0  0  0  0  0  0  0  0  0  0
   -7.8040   22.5330  -32.0120 C   0  0  0  0  0  0  0  0  0  0  0  0
   -9.1810   22.4450  -31.7840 C   0  0  0  0  0  0  0  0  0  0  0  0
   -9.8300   21.2120  -31.9000 C   0  0  0  0  0  0  0  0  0  0  0  0
   -9.1030   20.0640  -32.2390 C   0  0  0  0  0  0  0  0  0  0  0  0
   -5.5720   18.7950  -32.9790 C   0  0  0  0  0  0  0  0  0  0  0  0
   -4.4860   19.7310  -32.6300 C   0  0  0  0  0  0  0  0  0  0  0  0
   -3.6710   20.3080  -33.6170 C   0  0  0  0  0  0  0  0  0  0  0  0
   -2.6560   21.1890  -33.2400 C   0  0  0  0  0  0  0  0  0  0  0  0
   -2.4770   21.5070  -31.8940 C   0  0  0  0  0  0  0  0  0  0  0  0
   -3.3380   20.9540  -30.9360 C   0  0  0  0  0  0  0  0  0  0  0  0
   -3.1680   21.2750  -29.4840 C   0  0  0  0  0  0  0  0  0  0  0  0
   -3.9270   22.5020  -29.1650 N   0  0  0  0  0  0  0  0  0  0  0  0
   -5.0900   22.6540  -30.0520 C   0  0  0  0  0  0  0  0  0  0  0  0
   -2.9080   23.9140  -29.2860 S   0  0  0  0  0  0  0  0  0  0  0  0
   -1.5440   23.5250  -29.7810 O   0  0  0  0  0  0  0  0  0  0  0  0
   -3.5050   24.8990  -30.2520 O   0  0  0  0  0  0  0  0  0  0  0  0
   -2.8120   24.6810  -27.7000 C   0  0  0  0  0  0  0  0  0  0  0  0
   -3.8060   24.6520  -26.7490 C   0  0  0  0  0  0  0  0  0  0  0  0
   -3.3950   25.3180  -25.6520 N   0  0  0  0  0  0  0  0  0  0  0  0
   -2.1500   25.7380  -25.9610 C   0  0  0  0  0  0  0  0  0  0  0  0
   -1.7620   25.3580  -27.1960 N   0  0  0  0  0  0  0  0  0  0  0  0
   -0.4990   25.6960  -27.8470 C   0  0  0  0  0  0  0  0  0  0  0  0
   -4.3040   20.0800  -31.3260 N   0  0  0  0  0  0  0  0  0  0  0  0
   -5.4170   17.5140  -33.4540 C   0  0  0  0  0  0  0  0  0  0  0  0
   -4.2880   16.8350  -33.7670 N   0  0  0  0  0  0  0  0  0  0  0  0
   -2.8375   14.2984  -32.5590 H   0  0  0  0  0  0  0  0  0  0  0  0
   -2.8935   12.9085  -33.6955 H   0  0  0  0  0  0  0  0  0  0  0  0
   -1.4762   14.0121  -33.6955 H   0  0  0  0  0  0  0  0  0  0  0  0
   -1.6133   15.0534  -35.8976 H   0  0  0  0  0  0  0  0  0  0  0  0
   -2.9028   13.9379  -36.4631 H   0  0  0  0  0  0  0  0  0  0  0  0
   -3.1860   15.7117  -36.4631 H   0  0  0  0  0  0  0  0  0  0  0  0
   -7.7738   15.1735  -34.0705 H   0  0  0  0  0  0  0  0  0  0  0  0
   -5.9930   21.4662  -32.5375 H   0  0  0  0  0  0  0  0  0  0  0  0
   -7.2944   23.5040  -31.9259 H   0  0  0  0  0  0  0  0  0  0  0  0
   -9.7529   23.3449  -31.5137 H   0  0  0  0  0  0  0  0  0  0  0  0
  -10.9138   21.1435  -31.7246 H   0  0  0  0  0  0  0  0  0  0  0  0
   -9.6192   19.0981  -32.3419 H   0  0  0  0  0  0  0  0  0  0  0  0
   -3.8310   20.0678  -34.6785 H   0  0  0  0  0  0  0  0  0  0  0  0
   -1.9987   21.6315  -34.0030 H   0  0  0  0  0  0  0  0  0  0  0  0
   -1.6675   22.1856  -31.5869 H   0  0  0  0  0  0  0  0  0  0  0  0
   -3.5463   20.4400  -28.8760 H   0  0  0  0  0  0  0  0  0  0  0  0
   -2.1020   21.4322  -29.2628 H   0  0  0  0  0  0  0  0  0  0  0  0
   -6.0003   22.7730  -29.4460 H   0  0  0  0  0  0  0  0  0  0  0  0
   -4.9535   23.5419  -30.6868 H   0  0  0  0  0  0  0  0  0  0  0  0
   -5.1862   21.7608  -30.6868 H   0  0  0  0  0  0  0  0  0  0  0  0
   -4.7837   24.1616  -26.8660 H   0  0  0  0  0  0  0  0  0  0  0  0
   -1.5193   26.3270  -25.2789 H   0  0  0  0  0  0  0  0  0  0  0  0
    0.2646   25.9004  -27.0821 H   0  0  0  0  0  0  0  0  0  0  0  0
   -0.1730   24.8535  -28.4746 H   0  0  0  0  0  0  0  0  0  0  0  0
   -0.6374   26.5887  -28.4746 H   0  0  0  0  0  0  0  0  0  0  0  0
  1  2  1  0
  2  3  1  0
  2  4  1  0
  4  5  2  0
  5  6  1  0
  6  7  2  0
  7  8  1  0
  8  9  1  0
  9 10  1  0
 10 11  2  0
 11 12  1  0
 12 13  2  0
 13 14  1  0
 14 15  2  0
  9 16  2  0
 16 17  1  0
 17 18  2  0
 18 19  1  0
 19 20  2  0
 20 21  1  0
 21 22  1  0
 22 23  1  0
 23 24  1  0
 23 25  1  0
 25 26  2  0
 25 27  2  0
 25 28  1  0
 28 29  2  0
 29 30  1  0
 30 31  2  0
 31 32  1  0
 32 33  1  0
 21 34  2  0
 16 35  1  0
 35 36  2  0
 36  4  1  0
 35  7  1  0
 15 10  1  0
 34 17  1  0
 32 28  1  0
  1 37  1  0
  1 38  1  0
  1 39  1  0
  3 40  1  0
  3 41  1  0
  3 42  1  0
  6 43  1  0
 11 44  1  0
 12 45  1  0
 13 46  1  0
 14 47  1  0
 15 48  1  0
 18 49  1  0
 19 50  1  0
 20 51  1  0
 22 52  1  0
 22 53  1  0
 24 54  1  0
 24 55  1  0
 24 56  1  0
 29 57  1  0
 31 58  1  0
 33 59  1  0
 33 60  1  0
 33 61  1  0
M  END
>  <UniqueID>  (2) 
2

>  <SMILES>  (2) 
CN(C)c1ncc2oc(-c3ccccc3)c(-c3cccc(CN(C)S(=O)(=O)c4cncn4C)n3)c2n1

>  <Energy>  (2) 
137.6678576537165

>  <Genealogy>  (2) 
CN(C)c1ncc2oc(-c3ccccc3)c(-c3cccc(CN(C)S(=O)(=O)c4cncn4C)n3)c2n1 (3D coordinates assigned)
CN(C)c1ncc2oc(-c3ccccc3)c(-c3cccc(CN(C)S(=O)(=O)c4cncn4C)n3)c2n1 (optimized conformer: 137.6678576537165 kcal/mol)

>  <smiles>  (2) 
CN(C)c1ncc2oc(-c3ccccc3)c(-c3cccc(CN(C)S(=O)(=O)c4cncn4C)n3)c2n1

>  <score_type>  (2) 
oracle

>  <origin>  (2) 
adg

>  <m_score__min__energy>  (2) 
-10.44

>  <m_primary>  (2) 
energy

$$$$
2:0
     RDKit          3D

 19 19  0  0  0  0  0  0  0  0999 V2000
   -3.4030   25.6010  -31.6100 H   0  0  0  0  0  0  0  0  0  0  0  0
   -3.8580   25.2900  -30.7620 O   0  0  0  0  0  0  0  0  0  0  0  0
   -4.9490   24.4530  -30.8340 N   0  0  0  0  0  0  0  0  0  0  0  0
   -4.9310   23.3320  -31.4890 C   0  0  0  0  0  0  0  0  0  0  0  0
   -3.9703   22.9701  -31.8841 H   0  0  0  0  0  0  0  0  0  0  0  0
   -6.1490   22.5160  -31.7290 C   0  0  0  0  0  0  0  0  0  0  0  0
   -7.3770   22.9340  -31.1840 C   0  0  0  0  0  0  0  0  0  0  0  0
   -7.4362   23.8745  -30.6165 H   0  0  0  0  0  0  0  0  0  0  0  0
   -8.5160   22.1560  -31.3640 C   0  0  0  0  0  0  0  0  0  0  0  0
   -9.4805   22.4864  -30.9511 H   0  0  0  0  0  0  0  0  0  0  0  0
   -8.4320   20.9600  -32.0670 C   0  0  0  0  0  0  0  0  0  0  0  0
   -9.3279   20.3390  -32.2146 H   0  0  0  0  0  0  0  0  0  0  0  0
   -7.2010   20.5540  -32.5840 C   0  0  0  0  0  0  0  0  0  0  0  0
   -7.1296   19.6026  -33.1314 H   0  0  0  0  0  0  0  0  0  0  0  0
   -6.0810   21.3240  -32.4190 N   0  0  0  0  0  0  0  0  0  0  0  0
   -4.8090   20.8460  -32.9790 C   0  0  0  0  0  0  0  0  0  0  0  0
   -4.1218   20.5877  -32.1599 H   0  0  0  0  0  0  0  0  0  0  0  0
   -4.9925   19.9555  -33.5981 H   0  0  0  0  0  0  0  0  0  0  0  0
   -4.3607   21.6370  -33.5981 H   0  0  0  0  0  0  0  0  0  0  0  0
  1  2  1  0
  2  3  1  0
  3  4  2  0
  4  5  1  0
  4  6  1  0
  6  7  2  0
  7  8  1  0
  7  9  1  0
  9 10  1  0
  9 11  2  0
 11 12  1  0
 11 13  1  0
 13 14  1  0
 13 15  2  0
 15 16  1  0
 16 17  1  0
 16 18  1  0
 16 19  1  0
 15  6  1  0
M  CHG  1  15   1
M  END
>  <UniqueID>  (3) 
3

>  <SMILES>  (3) 
C[n+]1ccccc1/C=N\O

>  <Energy>  (3) 
24.332930358816483

>  <Genealogy>  (3) 
C[n+]1ccccc1/C=N\O (cis-trans isomerization)
C[n+]1ccccc1/C=N\O (3D coordinates assigned)
C[n+]1ccccc1/C=N\O (optimized conformer: 24.332930358816483 kcal/mol)

>  <smiles>  (3) 
C[n+]1ccccc1C=NO

>  <score_type>  (3) 
oracle

>  <origin>  (3) 
adg

>  <m_score__min__energy>  (3) 
-5.4299999999999997

>  <m_primary>  (3) 
energy

$$$$
3:0
     RDKit          3D

 39 41  0  0  0  0  0  0  0  0999 V2000
   -8.4210   22.6290  -32.3100 O   0  0  0  0  0  0  0  0  0  0  0  0
   -7.4130   21.9450  -31.9760 C   0  0  0  0  0  0  0  0  0  0  0  0
   -7.3950   20.5010  -32.3560 C   0  0  0  0  0  0  0  0  0  0  0  0
   -8.2250   19.5420  -31.7390 C   0  0  0  0  0  0  0  0  0  0  0  0
   -8.1580   18.1970  -32.1150 C   0  0  0  0  0  0  0  0  0  0  0  0
   -7.2590   17.7870  -33.1010 C   0  0  0  0  0  0  0  0  0  0  0  0
   -7.1960   16.4800  -33.4610 F   0  0  0  0  0  0  0  0  0  0  0  0
   -6.4220   18.7210  -33.7110 C   0  0  0  0  0  0  0  0  0  0  0  0
   -6.4850   20.0680  -33.3410 C   0  0  0  0  0  0  0  0  0  0  0  0
   -6.3440   22.6030  -31.2460 N   0  0  0  0  0  0  0  0  0  0  0  0
   -5.0570   22.5670  -31.9700 C   0  0  0  0  0  0  0  0  0  0  0  0
   -3.9210   23.1320  -31.0900 C   0  0  0  0  0  0  0  0  0  0  0  0
   -4.3210   24.3230  -30.2930 N   0  0  0  0  0  0  0  0  0  0  0  0
   -4.3800   24.0460  -28.8420 C   0  0  0  0  0  0  0  0  0  0  0  0
   -3.1450   24.5550  -28.1660 C   0  0  0  0  0  0  0  0  0  0  0  0
   -3.0120   24.8200  -26.8090 C   0  0  0  0  0  0  0  0  0  0  0  0
   -1.7430   25.2980  -26.4640 C   0  0  0  0  0  0  0  0  0  0  0  0
   -0.8770   25.4120  -27.5450 C   0  0  0  0  0  0  0  0  0  0  0  0
   -1.6920   24.9170  -28.9310 S   0  0  0  0  0  0  0  0  0  0  0  0
   -5.5620   24.9550  -30.7840 C   0  0  0  0  0  0  0  0  0  0  0  0
   -6.7440   23.9650  -30.8060 C   0  0  0  0  0  0  0  0  0  0  0  0
   -8.9309   19.8548  -30.9555 H   0  0  0  0  0  0  0  0  0  0  0  0
   -8.8159   17.4594  -31.6322 H   0  0  0  0  0  0  0  0  0  0  0  0
   -5.7106   18.3973  -34.4850 H   0  0  0  0  0  0  0  0  0  0  0  0
   -5.8175   20.7970  -33.8237 H   0  0  0  0  0  0  0  0  0  0  0  0
   -6.1920   22.0350  -30.3780 H   0  0  0  0  0  0  0  0  0  0  0  0
   -4.8225   21.5264  -32.2385 H   0  0  0  0  0  0  0  0  0  0  0  0
   -5.1432   23.1843  -32.8764 H   0  0  0  0  0  0  0  0  0  0  0  0
   -3.5934   22.3435  -30.3965 H   0  0  0  0  0  0  0  0  0  0  0  0
   -3.1168   23.4531  -31.7684 H   0  0  0  0  0  0  0  0  0  0  0  0
   -5.2610   24.5455  -28.4126 H   0  0  0  0  0  0  0  0  0  0  0  0
   -4.4508   22.9592  -28.6874 H   0  0  0  0  0  0  0  0  0  0  0  0
   -3.8218   24.6694  -26.0799 H   0  0  0  0  0  0  0  0  0  0  0  0
   -1.4577   25.5590  -25.4342 H   0  0  0  0  0  0  0  0  0  0  0  0
    0.1637   25.7656  -27.5017 H   0  0  0  0  0  0  0  0  0  0  0  0
   -5.8166   25.7976  -30.1244 H   0  0  0  0  0  0  0  0  0  0  0  0
   -5.3851   25.2963  -31.8146 H   0  0  0  0  0  0  0  0  0  0  0  0
   -7.1654   23.8976  -29.7921 H   0  0  0  0  0  0  0  0  0  0  0  0
   -7.4813   24.3443  -31.5289 H   0  0  0  0  0  0  0  0  0  0  0  0
  1  2  2  0
  2  3  1  0
  3  4  2  0
  4  5  1  0
  5  6  2  0
  6  7  1  0
  6  8  1  0
  8  9  2  0
  2 10  1  0
 10 11  1  0
 11 12  1  0
 12 13  1  0
 13 14  1  0
 14 15  1  0
 15 16  2  0
 16 17  1  0
 17 18  2  0
 18 19  1  0
 13 20  1  0
 20 21  1  0
  9  3  1  0
 21 10  1  0
 19 15  1  0
  4 22  1  0
  5 23  1  0
  8 24  1  0
  9 25  1  0
 10 26  1  0
 11 27  1  0
 11 28  1  0
 12 29  1  0
 12 30  1  0
 14 31  1  0
 14 32  1  0
 16 33  1  0
 17 34  1  0
 18 35  1  0
 20 36  1  0
 20 37  1  0
 21 38  1  0
 21 39  1  0
M  CHG  1  10   1
M  END
>  <UniqueID>  (4) 
4

>  <SMILES>  (4) 
O=C(c1ccc(F)cc1)[NH+]1CCN(Cc2cccs2)CC1

>  <Energy>  (4) 
86.25426760628619

>  <Genealogy>  (4) 
O=C(c1ccc(F)cc1)[NH+]1CCN(Cc2cccs2)CC1 (protonated)
O=C(c1ccc(F)cc1)[NH+]1CCN(Cc2cccs2)CC1 (3D coordinates assigned)
O=C(c1ccc(F)cc1)[NH+]1CCN(Cc2cccs2)CC1 (nonaromatic ring conformer: 86.25426760628619 kcal/mol)

>  <smiles>  (4) 
O=C(c1ccc(F)cc1)N1CCN(Cc2cccs2)CC1

>  <score_type>  (4) 
oracle

>  <origin>  (4) 
adg

>  <m_score__min__energy>  (4) 
-7.1699999999999999

>  <m_primary>  (4) 
energy

$$$$
4:0
     RDKit          3D

 42 43  0  0  0  0  0  0  0  0999 V2000
   -3.8660   24.8950  -26.6540 C   0  0  0  0  0  0  0  0  0  0  0  0
   -2.8710   23.9050  -27.2610 C   0  0  0  0  0  0  0  0  0  0  0  0
   -2.4740   24.2850  -28.6930 C   0  0  0  0  0  0  0  0  0  0  0  0
   -3.6640   24.3570  -29.6000 C   0  0  0  0  0  0  0  0  0  0  0  0
   -4.7080   23.4580  -29.6530 C   0  0  0  0  0  0  0  0  0  0  0  0
   -5.5130   23.9630  -30.6530 C   0  0  0  0  0  0  0  0  0  0  0  0
   -6.7800   23.3800  -31.1220 C   0  0  0  0  0  0  0  0  0  0  0  0
   -7.7980   24.1160  -31.2300 O   0  0  0  0  0  0  0  0  0  0  0  0
   -6.8580   21.9850  -31.4560 N   0  0  0  0  0  0  0  0  0  0  0  0
   -8.0810   21.3700  -31.9680 C   0  0  0  0  0  0  0  0  0  0  0  0
   -7.8660   19.8880  -32.2930 C   0  0  0  0  0  0  0  0  0  0  0  0
   -6.4290   19.5420  -32.1750 N   0  0  0  0  0  0  0  0  0  0  0  0
   -6.2090   18.1820  -31.6400 C   0  0  0  0  0  0  0  0  0  0  0  0
   -6.6520   17.0850  -32.6280 C   0  0  0  0  0  0  0  0  0  0  0  0
   -6.4590   17.4950  -34.0980 C   0  0  0  0  0  0  0  0  0  0  0  0
   -5.3500   18.5340  -34.2450 C   0  0  0  0  0  0  0  0  0  0  0  0
   -5.6510   19.8020  -33.4150 C   0  0  0  0  0  0  0  0  0  0  0  0
   -4.9680   25.0910  -31.1500 N   0  0  0  0  0  0  0  0  0  0  0  0
   -3.8610   25.2940  -30.4980 O   0  0  0  0  0  0  0  0  0  0  0  0
   -3.8128   24.8420  -25.5566 H   0  0  0  0  0  0  0  0  0  0  0  0
   -3.6170   25.9142  -26.9844 H   0  0  0  0  0  0  0  0  0  0  0  0
   -4.8840   24.6409  -26.9844 H   0  0  0  0  0  0  0  0  0  0  0  0
   -1.9659   23.8848  -26.6362 H   0  0  0  0  0  0  0  0  0  0  0  0
   -3.3560   22.9183  -27.2962 H   0  0  0  0  0  0  0  0  0  0  0  0
   -1.9791   25.2672  -28.6765 H   0  0  0  0  0  0  0  0  0  0  0  0
   -1.7975   23.5076  -29.0778 H   0  0  0  0  0  0  0  0  0  0  0  0
   -4.8620   22.5549  -29.0441 H   0  0  0  0  0  0  0  0  0  0  0  0
   -6.0320   21.3690  -31.2840 H   0  0  0  0  0  0  0  0  0  0  0  0
   -8.8718   21.4591  -31.2086 H   0  0  0  0  0  0  0  0  0  0  0  0
   -8.3694   21.8898  -32.8936 H   0  0  0  0  0  0  0  0  0  0  0  0
   -8.4468   19.2736  -31.5893 H   0  0  0  0  0  0  0  0  0  0  0  0
   -8.1988   19.6942  -33.3234 H   0  0  0  0  0  0  0  0  0  0  0  0
   -5.1372   18.0547  -31.4276 H   0  0  0  0  0  0  0  0  0  0  0  0
   -6.8150   18.0775  -30.7279 H   0  0  0  0  0  0  0  0  0  0  0  0
   -6.0600   16.1782  -32.4352 H   0  0  0  0  0  0  0  0  0  0  0  0
   -7.7267   16.9111  -32.4705 H   0  0  0  0  0  0  0  0  0  0  0  0
   -6.1950   16.6039  -34.6865 H   0  0  0  0  0  0  0  0  0  0  0  0
   -7.3986   17.9376  -34.4604 H   0  0  0  0  0  0  0  0  0  0  0  0
   -4.4018   18.0966  -33.8990 H   0  0  0  0  0  0  0  0  0  0  0  0
   -5.2838   18.8218  -35.3046 H   0  0  0  0  0  0  0  0  0  0  0  0
   -4.6944   20.2657  -33.1324 H   0  0  0  0  0  0  0  0  0  0  0  0
   -6.2686   20.4571  -34.0470 H   0  0  0  0  0  0  0  0  0  0  0  0
  1  2  1  0
  2  3  1  0
  3  4  1  0
  4  5  2  0
  5  6  1  0
  6  7  1  0
  7  8  2  0
  7  9  1  0
  9 10  1  0
 10 11  1  0
 11 12  1  0
 12 13  1  0
 13 14  1  0
 14 15  1  0
 15 16  1  0
 16 17  1  0
  6 18  2  0
 18 19  1  0
 19  4  1  0
 17 12  1  0
  1 20  1  0
  1 21  1  0
  1 22  1  0
  2 23  1  0
  2 24  1  0
  3 25  1  0
  3 26  1  0
  5 27  1  0
  9 28  1  0
 10 29  1  0
 10 30  1  0
 11 31  1  0
 11 32  1  0
 13 33  1  0
 13 34  1  0
 14 35  1  0
 14 36  1  0
 15 37  1  0
 15 38  1  0
 16 39  1  0
 16 40  1  0
 17 41  1  0
 17 42  1  0
M  END
>  <UniqueID>  (5) 
5

>  <SMILES>  (5) 
CCCc1cc(C(=O)NCCN2CCCCC2)no1

>  <Energy>  (5) 
68.93935443917002

>  <Genealogy>  (5) 
CCCc1cc(C(=O)NCCN2CCCCC2)no1 (3D coordinates assigned)
CCCc1cc(C(=O)NCCN2CCCCC2)no1 (nonaromatic ring conformer: 68.93935443917002 kcal/mol)

>  <smiles>  (5) 
CCCc1cc(C(=O)NCCN2CCCCC2)no1

>  <score_type>  (5) 
oracle

>  <origin>  (5) 
adg

>  <m_score__min__energy>  (5) 
-8.1199999999999992

>  <m_primary>  (5) 
energy

$$$$
5:0
     RDKit          3D

 41 43  0  0  0  0  0  0  0  0999 V2000
    0.8940   17.7640  -27.8670 C   0  0  0  0  0  0  0  0  0  0  0  0
   -0.3580   18.4870  -27.6810 N   0  0  0  0  0  0  0  0  0  0  0  0
   -1.4080   18.1390  -26.7320 C   0  0  0  0  0  0  0  0  0  0  0  0
   -2.4980   19.2280  -26.9020 C   0  0  0  0  0  0  0  0  0  0  0  0
   -2.0430   20.0910  -27.9950 N   0  0  0  0  0  0  0  0  0  0  0  0
   -2.8090   21.1620  -28.5810 C   0  0  0  0  0  0  0  0  0  0  0  0
   -3.5190   22.0690  -27.7730 C   0  0  0  0  0  0  0  0  0  0  0  0
   -4.2500   23.1120  -28.3490 C   0  0  0  0  0  0  0  0  0  0  0  0
   -4.2810   23.2650  -29.7400 C   0  0  0  0  0  0  0  0  0  0  0  0
   -5.1950   24.5840  -30.4620 S   0  0  0  0  0  0  0  0  0  0  0  0
   -6.2100   25.0890  -29.4750 O   0  0  0  0  0  0  0  0  0  0  0  0
   -4.2520   25.6930  -30.8360 O   0  0  0  0  0  0  0  0  0  0  0  0
   -6.0070   24.0150  -31.8590 O   0  0  0  0  0  0  0  0  0  0  0  0
   -6.7850   22.8510  -31.9120 C   0  0  0  0  0  0  0  0  0  0  0  0
   -6.1830   21.6770  -32.3770 C   0  0  0  0  0  0  0  0  0  0  0  0
   -6.9100   20.4850  -32.4520 C   0  0  0  0  0  0  0  0  0  0  0  0
   -8.2610   20.4480  -32.0620 C   0  0  0  0  0  0  0  0  0  0  0  0
   -9.0140   19.2240  -32.1380 N   0  0  0  0  0  0  0  0  0  0  0  0
   -9.8410   19.0400  -33.0560 O   0  0  0  0  0  0  0  0  0  0  0  0
   -8.8360   18.2340  -31.1990 O   0  0  0  0  0  0  0  0  0  0  0  0
   -8.8650   21.6280  -31.5950 C   0  0  0  0  0  0  0  0  0  0  0  0
   -8.1360   22.8190  -31.5210 C   0  0  0  0  0  0  0  0  0  0  0  0
   -3.5620   22.3800  -30.5510 C   0  0  0  0  0  0  0  0  0  0  0  0
   -2.8290   21.3370  -29.9760 C   0  0  0  0  0  0  0  0  0  0  0  0
   -0.7650   19.6320  -28.3950 C   0  0  0  0  0  0  0  0  0  0  0  0
   -0.0400   20.2110  -29.2480 O   0  0  0  0  0  0  0  0  0  0  0  0
    1.3235   17.5160  -26.8852 H   0  0  0  0  0  0  0  0  0  0  0  0
    0.7025   16.8374  -28.4281 H   0  0  0  0  0  0  0  0  0  0  0  0
    1.6008   18.3930  -28.4281 H   0  0  0  0  0  0  0  0  0  0  0  0
   -1.8190   17.1447  -26.9611 H   0  0  0  0  0  0  0  0  0  0  0  0
   -1.0286   18.0992  -25.7003 H   0  0  0  0  0  0  0  0  0  0  0  0
   -3.4630   18.7657  -27.1570 H   0  0  0  0  0  0  0  0  0  0  0  0
   -2.6440   19.7990  -25.9732 H   0  0  0  0  0  0  0  0  0  0  0  0
   -3.4987   21.9564  -26.6790 H   0  0  0  0  0  0  0  0  0  0  0  0
   -4.8023   23.8144  -27.7074 H   0  0  0  0  0  0  0  0  0  0  0  0
   -5.1276   21.6917  -32.6866 H   0  0  0  0  0  0  0  0  0  0  0  0
   -6.4221   19.5698  -32.8185 H   0  0  0  0  0  0  0  0  0  0  0  0
   -9.9203   21.6145  -31.2850 H   0  0  0  0  0  0  0  0  0  0  0  0
   -8.6215   23.7357  -31.1551 H   0  0  0  0  0  0  0  0  0  0  0  0
   -3.5734   22.5050  -31.6438 H   0  0  0  0  0  0  0  0  0  0  0  0
   -2.2634   20.6478  -30.6204 H   0  0  0  0  0  0  0  0  0  0  0  0
  1  2  1  0
  2  3  1  0
  3  4  1  0
  4  5  1  0
  5  6  1  0
  6  7  2  0
  7  8  1  0
  8  9  2  0
  9 10  1  0
 10 11  2  0
 10 12  2  0
 10 13  1  0
 13 14  1  0
 14 15  2  0
 15 16  1  0
 16 17  2  0
 17 18  1  0
 18 19  2  0
 18 20  1  0
 17 21  1  0
 21 22  2  0
  9 23  1  0
 23 24  2  0
  5 25  1  0
 25 26  2  0
 25  2  1  0
 24  6  1  0
 22 14  1  0
  1 27  1  0
  1 28  1  0
  1 29  1  0
  3 30  1  0
  3 31  1  0
  4 32  1  0
  4 33  1  0
  7 34  1  0
  8 35  1  0
 15 36  1  0
 16 37  1  0
 21 38  1  0
 22 39  1  0
 23 40  1  0
 24 41  1  0
M  CHG  2  18   1  20  -1
M  END
>  <UniqueID>  (6) 
6

>  <SMILES>  (6) 
CN1CCN(c2ccc(S(=O)(=O)Oc3ccc([N+](=O)[O-])cc3)cc2)C1=O

>  <Energy>  (6) 
59.60802244970368

>  <Genealogy>  (6) 
CN1CCN(c2ccc(S(=O)(=O)Oc3ccc([N+](=O)[O-])cc3)cc2)C1=O (3D coordinates assigned)
CN1CCN(c2ccc(S(=O)(=O)Oc3ccc([N+](=O)[O-])cc3)cc2)C1=O (nonaromatic ring conformer: 59.60802244970368 kcal/mol)

>  <smiles>  (6) 
CN1CCN(c2ccc(S(=O)(=O)Oc3ccc([N+](=O)[O-])cc3)cc2)C1=O

>  <score_type>  (6) 
oracle

>  <origin>  (6) 
adg

>  <m_score__min__energy>  (6) 
-9.3200000000000003

>  <m_primary>  (6) 
energy

$$$$
6:0
     RDKit          3D

 43 45  0  0  0  0  0  0  0  0999 V2000
   -8.3110   23.0700  -31.5250 C   0  0  0  0  0  0  0  0  0  0  0  0
   -7.9590   21.6520  -31.8780 C   0  0  0  0  0  0  0  0  0  0  0  0
   -8.9860   20.7350  -32.1620 C   0  0  0  0  0  0  0  0  0  0  0  0
   -8.6840   19.4070  -32.4730 C   0  0  0  0  0  0  0  0  0  0  0  0
   -7.3560   18.9770  -32.4950 C   0  0  0  0  0  0  0  0  0  0  0  0
   -6.9800   17.3080  -32.8870 Cl  0  0  0  0  0  0  0  0  0  0  0  0
   -6.3260   19.8740  -32.1980 C   0  0  0  0  0  0  0  0  0  0  0  0
   -6.6170   21.2070  -31.8800 C   0  0  0  0  0  0  0  0  0  0  0  0
   -5.5420   22.1040  -31.5670 N   0  0  0  0  0  0  0  0  0  0  0  0
   -5.3470   22.5250  -30.1710 C   0  0  0  0  0  0  0  0  0  0  0  0
   -4.0500   21.9430  -29.5800 C   0  0  0  0  0  0  0  0  0  0  0  0
   -2.7670   22.5040  -30.2140 C   0  0  0  0  0  0  0  0  0  0  0  0
   -2.4920   21.8710  -31.5060 N   0  0  0  0  0  0  0  0  0  0  0  0
   -1.4180   21.1550  -31.9140 C   0  0  0  0  0  0  0  0  0  0  0  0
   -0.1890   20.8800  -31.0810 C   0  0  0  0  0  0  0  0  0  0  0  0
   -0.5480   20.1310  -29.7910 C   0  0  0  0  0  0  0  0  0  0  0  0
    0.8330   20.0870  -31.9000 C   0  0  0  0  0  0  0  0  0  0  0  0
   -1.5450   20.7810  -33.2070 N   0  0  0  0  0  0  0  0  0  0  0  0
   -2.7200   21.2330  -33.6150 N   0  0  0  0  0  0  0  0  0  0  0  0
   -3.2970   21.8800  -32.5870 C   0  0  0  0  0  0  0  0  0  0  0  0
   -4.6470   22.5450  -32.6510 C   0  0  0  0  0  0  0  0  0  0  0  0
   -8.3382   23.1795  -30.4308 H   0  0  0  0  0  0  0  0  0  0  0  0
   -7.5545   23.7505  -31.9429 H   0  0  0  0  0  0  0  0  0  0  0  0
   -9.2979   23.3177  -31.9429 H   0  0  0  0  0  0  0  0  0  0  0  0
  -10.0349   21.0655  -32.1392 H   0  0  0  0  0  0  0  0  0  0  0  0
   -9.4942   18.6987  -32.7010 H   0  0  0  0  0  0  0  0  0  0  0  0
   -5.2809   19.5313  -32.2141 H   0  0  0  0  0  0  0  0  0  0  0  0
   -5.2954   23.6231  -30.1331 H   0  0  0  0  0  0  0  0  0  0  0  0
   -6.1941   22.1511  -29.5771 H   0  0  0  0  0  0  0  0  0  0  0  0
   -4.0299   22.1664  -28.5031 H   0  0  0  0  0  0  0  0  0  0  0  0
   -4.0620   20.8630  -29.7885 H   0  0  0  0  0  0  0  0  0  0  0  0
   -2.8851   23.5874  -30.3635 H   0  0  0  0  0  0  0  0  0  0  0  0
   -1.9249   22.2944  -29.5380 H   0  0  0  0  0  0  0  0  0  0  0  0
    0.2560   21.8440  -30.7934 H   0  0  0  0  0  0  0  0  0  0  0  0
   -0.2569   20.7383  -28.9213 H   0  0  0  0  0  0  0  0  0  0  0  0
   -1.6322   19.9470  -29.7634 H   0  0  0  0  0  0  0  0  0  0  0  0
   -0.0123   19.1706  -29.7634 H   0  0  0  0  0  0  0  0  0  0  0  0
    1.5161   19.5570  -31.2199 H   0  0  0  0  0  0  0  0  0  0  0  0
    0.3080   19.3575  -32.5343 H   0  0  0  0  0  0  0  0  0  0  0  0
    1.4092   20.7767  -32.5343 H   0  0  0  0  0  0  0  0  0  0  0  0
   -3.1100   21.0980  -34.5740 H   0  0  0  0  0  0  0  0  0  0  0  0
   -4.5086   23.6335  -32.5741 H   0  0  0  0  0  0  0  0  0  0  0  0
   -5.1141   22.2647  -33.6067 H   0  0  0  0  0  0  0  0  0  0  0  0
  1  2  1  0
  2  3  2  0
  3  4  1  0
  4  5  2  0
  5  6  1  0
  5  7  1  0
  7  8  2  0
  8  9  1  0
  9 10  1  0
 10 11  1  0
 11 12  1  0
 12 13  1  0
 13 14  1  0
 14 15  1  0
 15 16  1  0
 15 17  1  0
 14 18  2  0
 18 19  1  0
 19 20  2  0
 20 21  1  0
  8  2  1  0
 21  9  1  0
 20 13  1  0
  1 22  1  0
  1 23  1  0
  1 24  1  0
  3 25  1  0
  4 26  1  0
  7 27  1  0
 10 28  1  0
 10 29  1  0
 11 30  1  0
 11 31  1  0
 12 32  1  0
 12 33  1  0
 15 34  1  0
 16 35  1  0
 16 36  1  0
 16 37  1  0
 17 38  1  0
 17 39  1  0
 17 40  1  0
 19 41  1  0
 21 42  1  0
 21 43  1  0
M  CHG  1  19   1
M  END
>  <UniqueID>  (7) 
7

>  <SMILES>  (7) 
Cc1ccc(Cl)cc1N1CCCn2c(C(C)C)n[nH+]c2C1

>  <Energy>  (7) 
82.95918778446465

>  <Genealogy>  (7) 
Cc1ccc(Cl)cc1N1CCCn2c(C(C)C)n[nH+]c2C1 (protonated)
Cc1ccc(Cl)cc1N1CCCn2c(C(C)C)n[nH+]c2C1 (3D coordinates assigned)
Cc1ccc(Cl)cc1N1CCCn2c(C(C)C)n[nH+]c2C1 (nonaromatic ring conformer: 82.95918778446465 kcal/mol)

>  <smiles>  (7) 
Cc1ccc(Cl)cc1N1CCCn2c(nnc2C(C)C)C1

>  <score_type>  (7) 
oracle

>  <origin>  (7) 
adg

>  <m_score__min__energy>  (7) 
-5.3899999999999997

>  <m_primary>  (7) 
energy

$$$$
7:0
     RDKit          3D

 51 54  0  0  0  0  0  0  0  0999 V2000
    0.5570   27.2010  -23.3310 C   0  0  0  0  0  0  0  0  0  0  0  0
   -0.8240   26.6830  -23.7160 C   0  0  0  0  0  0  0  0  0  0  0  0
   -1.1670   27.0900  -25.0410 O   0  0  0  0  0  0  0  0  0  0  0  0
   -1.5920   26.2380  -26.0740 C   0  0  0  0  0  0  0  0  0  0  0  0
   -2.7110   25.3910  -25.9530 C   0  0  0  0  0  0  0  0  0  0  0  0
   -3.0840   24.5610  -27.0140 C   0  0  0  0  0  0  0  0  0  0  0  0
   -2.3440   24.5530  -28.2060 C   0  0  0  0  0  0  0  0  0  0  0  0
   -2.7340   23.7120  -29.3060 N   0  0  0  0  0  0  0  0  0  0  0  0
   -1.9820   22.7400  -29.8830 C   0  0  0  0  0  0  0  0  0  0  0  0
   -2.6260   22.1300  -30.9070 N   0  0  0  0  0  0  0  0  0  0  0  0
   -3.8220   22.7370  -30.9620 C   0  0  0  0  0  0  0  0  0  0  0  0
   -4.8840   22.4640  -31.8180 C   0  0  0  0  0  0  0  0  0  0  0  0
   -6.0780   23.2030  -31.6570 C   0  0  0  0  0  0  0  0  0  0  0  0
   -7.1900   22.9290  -32.5310 N   0  0  0  0  0  0  0  0  0  0  0  0
   -8.2640   21.9820  -32.2340 C   0  0  0  0  0  0  0  0  0  0  0  0
   -7.8190   20.5680  -32.5030 C   0  0  0  0  0  0  0  0  0  0  0  0
   -6.7970   20.3040  -33.4290 C   0  0  0  0  0  0  0  0  0  0  0  0
   -6.3860   18.9900  -33.6710 C   0  0  0  0  0  0  0  0  0  0  0  0
   -6.9930   17.9220  -32.9940 C   0  0  0  0  0  0  0  0  0  0  0  0
   -6.5240   16.5160  -33.2250 C   0  0  0  0  0  0  0  0  0  0  0  0
   -7.9920   18.1870  -32.0450 C   0  0  0  0  0  0  0  0  0  0  0  0
   -8.4040   19.5010  -31.8020 C   0  0  0  0  0  0  0  0  0  0  0  0
   -6.1550   24.1900  -30.6340 C   0  0  0  0  0  0  0  0  0  0  0  0
   -5.0600   24.4350  -29.7840 C   0  0  0  0  0  0  0  0  0  0  0  0
   -3.8960   23.6950  -29.9920 C   0  0  0  0  0  0  0  0  0  0  0  0
   -1.2380   25.4060  -28.3280 C   0  0  0  0  0  0  0  0  0  0  0  0
   -0.8640   26.2350  -27.2690 C   0  0  0  0  0  0  0  0  0  0  0  0
    0.6439   27.2336  -22.2349 H   0  0  0  0  0  0  0  0  0  0  0  0
    1.3272   26.5307  -23.7401 H   0  0  0  0  0  0  0  0  0  0  0  0
    0.6964   28.2125  -23.7401 H   0  0  0  0  0  0  0  0  0  0  0  0
   -0.8242   25.5842  -23.6648 H   0  0  0  0  0  0  0  0  0  0  0  0
   -1.5642   27.0990  -23.0167 H   0  0  0  0  0  0  0  0  0  0  0  0
   -3.2935   25.3827  -25.0199 H   0  0  0  0  0  0  0  0  0  0  0  0
   -3.9644   23.9092  -26.9137 H   0  0  0  0  0  0  0  0  0  0  0  0
   -0.9650   22.4775  -29.5561 H   0  0  0  0  0  0  0  0  0  0  0  0
   -2.2720   21.3540  -31.5100 H   0  0  0  0  0  0  0  0  0  0  0  0
   -4.7969   21.6941  -32.5988 H   0  0  0  0  0  0  0  0  0  0  0  0
   -7.2170   23.4030  -33.4640 H   0  0  0  0  0  0  0  0  0  0  0  0
   -8.5455   22.0763  -31.1748 H   0  0  0  0  0  0  0  0  0  0  0  0
   -9.1244   22.2102  -32.8802 H   0  0  0  0  0  0  0  0  0  0  0  0
   -6.3174   21.1353  -33.9666 H   0  0  0  0  0  0  0  0  0  0  0  0
   -5.5826   18.7926  -34.3959 H   0  0  0  0  0  0  0  0  0  0  0  0
   -6.3588   16.0208  -32.2567 H   0  0  0  0  0  0  0  0  0  0  0  0
   -7.2866   15.9639  -33.7938 H   0  0  0  0  0  0  0  0  0  0  0  0
   -5.5826   16.5323  -33.7938 H   0  0  0  0  0  0  0  0  0  0  0  0
   -8.4533   17.3571  -31.4895 H   0  0  0  0  0  0  0  0  0  0  0  0
   -9.1899   19.6998  -31.0584 H   0  0  0  0  0  0  0  0  0  0  0  0
   -7.0818   24.7685  -30.5061 H   0  0  0  0  0  0  0  0  0  0  0  0
   -5.1203   25.1854  -28.9820 H   0  0  0  0  0  0  0  0  0  0  0  0
   -0.6611   25.4221  -29.2645 H   0  0  0  0  0  0  0  0  0  0  0  0
    0.0116   26.8924  -27.3749 H   0  0  0  0  0  0  0  0  0  0  0  0
  1  2  1  0
  2  3  1  0
  3  4  1  0
  4  5  2  0
  5  6  1  0
  6  7  2  0
  7  8  1  0
  8  9  1  0
  9 10  2  0
 10 11  1  0
 11 12  2  0
 12 13  1  0
 13 14  1  0
 14 15  1  0
 15 16  1  0
 16 17  2  0
 17 18  1  0
 18 19  2  0
 19 20  1  0
 19 21  1  0
 21 22  2  0
 13 23  2  0
 23 24  1  0
 24 25  2  0
  7 26  1  0
 26 27  2  0
 27  4  1  0
 25  8  1  0
 25 11  1  0
 22 16  1  0
  1 28  1  0
  1 29  1  0
  1 30  1  0
  2 31  1  0
  2 32  1  0
  5 33  1  0
  6 34  1  0
  9 35  1  0
 10 36  1  0
 12 37  1  0
 14 38  1  0
 15 39  1  0
 15 40  1  0
 17 41  1  0
 18 42  1  0
 20 43  1  0
 20 44  1  0
 20 45  1  0
 21 46  1  0
 22 47  1  0
 23 48  1  0
 24 49  1  0
 26 50  1  0
 27 51  1  0
M  CHG  1  10   1
M  END
>  <UniqueID>  (8) 
8

>  <SMILES>  (8) 
CCOc1ccc(-n2c[nH+]c3cc(NCc4ccc(C)cc4)ccc32)cc1

>  <Energy>  (8) 
95.48939535066576

>  <Genealogy>  (8) 
CCOc1ccc(-n2c[nH+]c3cc(NCc4ccc(C)cc4)ccc32)cc1 (protonated)
CCOc1ccc(-n2c[nH+]c3cc(NCc4ccc(C)cc4)ccc32)cc1 (3D coordinates assigned)
CCOc1ccc(-n2c[nH+]c3cc(NCc4ccc(C)cc4)ccc32)cc1 (optimized conformer: 95.48939535066576 kcal/mol)

>  <smiles>  (8) 
CCOc1ccc(-n2cnc3cc(NCc4ccc(C)cc4)ccc32)cc1

>  <score_type>  (8) 
oracle

>  <origin>  (8) 
adg

>  <m_score__min__energy>  (8) 
-8.3900000000000006

>  <m_primary>  (8) 
energy

$$$$
8:0
     RDKit          3D

 25 27  0  0  0  0  0  0  0  0999 V2000
   -5.0380   16.2870  -34.3260 F   0  0  0  0  0  0  0  0  0  0  0  0
   -5.7820   17.3050  -33.8270 C   0  0  0  0  0  0  0  0  0  0  0  0
   -6.6090   17.0890  -32.7210 C   0  0  0  0  0  0  0  0  0  0  0  0
   -7.3770   18.1380  -32.2070 C   0  0  0  0  0  0  0  0  0  0  0  0
   -7.3100   19.4160  -32.7860 C   0  0  0  0  0  0  0  0  0  0  0  0
   -8.1170   20.4930  -32.2840 N   0  0  0  0  0  0  0  0  0  0  0  0
   -9.4380   20.5020  -32.3270 N   0  0  0  0  0  0  0  0  0  0  0  0
   -9.8790   21.5900  -31.7140 N   0  0  0  0  0  0  0  0  0  0  0  0
   -8.8550   22.3050  -31.2670 N   0  0  0  0  0  0  0  0  0  0  0  0
   -7.7540   21.6150  -31.6250 C   0  0  0  0  0  0  0  0  0  0  0  0
   -6.3770   22.1110  -31.4220 C   0  0  0  0  0  0  0  0  0  0  0  0
   -6.1110   23.4880  -31.3810 C   0  0  0  0  0  0  0  0  0  0  0  0
   -4.8310   23.9180  -31.2190 N   0  0  0  0  0  0  0  0  0  0  0  0
   -3.8010   23.0400  -31.1040 C   0  0  0  0  0  0  0  0  0  0  0  0
   -4.0590   21.6700  -31.1560 C   0  0  0  0  0  0  0  0  0  0  0  0
   -5.3370   21.2390  -31.3190 N   0  0  0  0  0  0  0  0  0  0  0  0
   -6.4970   19.6190  -33.9110 C   0  0  0  0  0  0  0  0  0  0  0  0
   -5.7290   18.5670  -34.4240 C   0  0  0  0  0  0  0  0  0  0  0  0
   -6.6555   16.0936  -32.2551 H   0  0  0  0  0  0  0  0  0  0  0  0
   -8.0370   17.9617  -31.3449 H   0  0  0  0  0  0  0  0  0  0  0  0
   -6.9314   24.2142  -31.4791 H   0  0  0  0  0  0  0  0  0  0  0  0
   -2.7723   23.4061  -30.9710 H   0  0  0  0  0  0  0  0  0  0  0  0
   -3.2358   20.9459  -31.0659 H   0  0  0  0  0  0  0  0  0  0  0  0
   -6.4629   20.6079  -34.3916 H   0  0  0  0  0  0  0  0  0  0  0  0
   -5.0829   18.7342  -35.2984 H   0  0  0  0  0  0  0  0  0  0  0  0
  1  2  1  0
  2  3  2  0
  3  4  1  0
  4  5  2  0
  5  6  1  0
  6  7  1  0
  7  8  2  0
  8  9  1  0
  9 10  2  0
 10 11  1  0
 11 12  2  0
 12 13  1  0
 13 14  2  0
 14 15  1  0
 15 16  2  0
  5 17  1  0
 17 18  2  0
 18  2  1  0
 10  6  1  0
 16 11  1  0
  3 19  1  0
  4 20  1  0
 12 21  1  0
 14 22  1  0
 15 23  1  0
 17 24  1  0
 18 25  1  0
M  END
>  <UniqueID>  (9) 
9

>  <SMILES>  (9) 
Fc1ccc(-n2nnnc2-c2cnccn2)cc1

>  <Energy>  (9) 
77.15251764670566

>  <Genealogy>  (9) 
Fc1ccc(-n2nnnc2-c2cnccn2)cc1 (3D coordinates assigned)
Fc1ccc(-n2nnnc2-c2cnccn2)cc1 (optimized conformer: 77.15251764670566 kcal/mol)

>  <smiles>  (9) 
Fc1ccc(-n2nnnc2-c2cnccn2)cc1

>  <score_type>  (9) 
oracle

>  <origin>  (9) 
adg

>  <m_score__min__energy>  (9) 
-6.96

>  <m_primary>  (9) 
energy

$$$$
9:0
     RDKit          3D

 30 32  0  0  0  0  0  0  0  0999 V2000
   -4.0270   24.6000  -30.5180 O   0  0  0  0  0  0  0  0  0  0  0  0
   -4.7500   23.7790  -29.8910 C   0  0  0  0  0  0  0  0  0  0  0  0
   -4.6980   23.7260  -28.4570 N   0  0  0  0  0  0  0  0  0  0  0  0
   -3.7750   24.5470  -27.6770 C   0  0  0  0  0  0  0  0  0  0  0  0
   -2.3590   24.0920  -27.9000 C   0  0  0  0  0  0  0  0  0  0  0  0
   -2.0050   22.7520  -27.6890 C   0  0  0  0  0  0  0  0  0  0  0  0
   -0.6940   22.3320  -27.9160 C   0  0  0  0  0  0  0  0  0  0  0  0
    0.2540   23.2570  -28.3580 C   0  0  0  0  0  0  0  0  0  0  0  0
   -0.1040   24.5520  -28.5640 N   0  0  0  0  0  0  0  0  0  0  0  0
   -1.3750   24.9860  -28.3500 C   0  0  0  0  0  0  0  0  0  0  0  0
   -5.6390   22.8860  -30.6510 C   0  0  0  0  0  0  0  0  0  0  0  0
   -6.9680   22.7770  -30.3920 N   0  0  0  0  0  0  0  0  0  0  0  0
   -7.5610   21.8940  -31.2340 C   0  0  0  0  0  0  0  0  0  0  0  0
   -8.9190   21.5720  -31.2110 C   0  0  0  0  0  0  0  0  0  0  0  0
   -9.4070   20.6380  -32.1430 C   0  0  0  0  0  0  0  0  0  0  0  0
   -8.5390   20.0420  -33.0790 C   0  0  0  0  0  0  0  0  0  0  0  0
   -7.1750   20.3740  -33.0930 C   0  0  0  0  0  0  0  0  0  0  0  0
   -6.7170   21.3010  -32.1600 C   0  0  0  0  0  0  0  0  0  0  0  0
   -5.1610   21.8880  -31.9380 S   0  0  0  0  0  0  0  0  0  0  0  0
   -5.3410   23.0870  -27.9380 H   0  0  0  0  0  0  0  0  0  0  0  0
   -3.8721   25.5977  -27.9877 H   0  0  0  0  0  0  0  0  0  0  0  0
   -4.0201   24.4466  -26.6094 H   0  0  0  0  0  0  0  0  0  0  0  0
   -2.7612   22.0314  -27.3443 H   0  0  0  0  0  0  0  0  0  0  0  0
   -0.4100   21.2826  -27.7484 H   0  0  0  0  0  0  0  0  0  0  0  0
    1.2908   22.9376  -28.5395 H   0  0  0  0  0  0  0  0  0  0  0  0
   -1.6325   26.0402  -28.5300 H   0  0  0  0  0  0  0  0  0  0  0  0
   -9.5941   22.0392  -30.4788 H   0  0  0  0  0  0  0  0  0  0  0  0
  -10.4741   20.3711  -32.1409 H   0  0  0  0  0  0  0  0  0  0  0  0
   -8.9321   19.3127  -33.8026 H   0  0  0  0  0  0  0  0  0  0  0  0
   -6.4881   19.9154  -33.8196 H   0  0  0  0  0  0  0  0  0  0  0  0
  1  2  2  0
  2  3  1  0
  3  4  1  0
  4  5  1  0
  5  6  2  0
  6  7  1  0
  7  8  2  0
  8  9  1  0
  9 10  2  0
  2 11  1  0
 11 12  2  0
 12 13  1  0
 13 14  2  0
 14 15  1  0
 15 16  2  0
 16 17  1  0
 17 18  2  0
 18 19  1  0
 10  5  1  0
 19 11  1  0
 18 13  1  0
  3 20  1  0
  4 21  1  0
  4 22  1  0
  6 23  1  0
  7 24  1  0
  8 25  1  0
 10 26  1  0
 14 27  1  0
 15 28  1  0
 16 29  1  0
 17 30  1  0
M  END
>  <UniqueID>  (10) 
10

>  <SMILES>  (10) 
O=C(NCc1cccnc1)c1nc2ccccc2s1

>  <Energy>  (10) 
64.68502899798564

>  <Genealogy>  (10) 
O=C(NCc1cccnc1)c1nc2ccccc2s1 (3D coordinates assigned)
O=C(NCc1cccnc1)c1nc2ccccc2s1 (optimized conformer: 64.68502899798564 kcal/mol)

>  <smiles>  (10) 
O=C(NCc1cccnc1)c1nc2ccccc2s1

>  <score_type>  (10) 
oracle

>  <origin>  (10) 
adg

>  <m_score__min__energy>  (10) 
-7.3200000000000003

>  <m_primary>  (10) 
energy

$$$$
10:0
     RDKit          3D

 49 53  0  0  1  0  0  0  0  0999 V2000
   -6.4730   24.7160  -30.9710 C   0  0  0  0  0  0  0  0  0  0  0  0
   -5.3170   23.8440  -31.0530 N   0  0  0  0  0  0  0  0  0  0  0  0
   -4.2390   24.0490  -30.3150 N   0  0  0  0  0  0  0  0  0  0  0  0
   -3.2850   23.1110  -30.5780 C   0  0  0  0  0  0  0  0  0  0  0  0
   -3.8630   22.3180  -31.5370 C   0  0  0  0  0  0  0  0  0  0  0  0
   -5.1340   22.7480  -31.8510 C   0  0  0  0  0  0  0  0  0  0  0  0
   -6.1900   22.1830  -32.6860 C   0  0  0  0  0  0  0  0  0  0  0  0
   -6.8890   20.9930  -32.2150 C   0  0  0  0  0  0  0  0  0  0  0  0
   -6.0860   19.8280  -32.0910 C   0  0  0  0  0  0  0  0  0  0  0  0
   -6.5840   18.6360  -31.6370 C   0  0  0  0  0  0  0  0  0  0  0  0
   -7.9040   18.4930  -31.2680 C   0  0  0  0  0  0  0  0  0  0  0  0
   -8.6920   19.6190  -31.3850 C   0  0  0  0  0  0  0  0  0  0  0  0
   -8.1810   20.8330  -31.8490 C   0  0  0  0  0  0  0  0  0  0  0  0
   -9.3210   22.1420  -31.9490 Cl  0  0  0  0  0  0  0  0  0  0  0  0
   -3.0480   21.2680  -32.1120 C   0  0  0  0  0  0  0  0  0  0  0  0
   -3.4850   20.4860  -33.0810 N   0  0  0  0  0  0  0  0  0  0  0  0
   -2.7330   19.5450  -33.6640 C   0  0  0  0  0  0  0  0  0  0  0  0
   -3.2490   18.8280  -34.5980 N   0  0  0  0  0  0  0  0  0  0  0  0
   -4.2430   17.8710  -34.3140 C   0  0  0  0  0  0  0  0  0  0  0  0
   -5.4930   18.0200  -34.8860 C   0  0  0  0  0  0  0  0  0  0  0  0
   -6.4580   17.0490  -34.5900 C   0  0  0  0  0  0  0  0  0  0  0  0
   -6.1480   15.9820  -33.7490 C   0  0  0  0  0  0  0  0  0  0  0  0
   -4.8960   15.8590  -33.1940 C   0  0  0  0  0  0  0  0  0  0  0  0
   -3.9220   16.8150  -33.4760 C   0  0  0  0  0  0  0  0  0  0  0  0
   -1.4690   19.3810  -33.2490 N   0  0  0  0  0  0  0  0  0  0  0  0
   -0.9870   20.1580  -32.2650 C   0  0  0  0  0  0  0  0  0  0  0  0
   -1.7670   21.1450  -31.6510 C   0  0  0  0  0  0  0  0  0  0  0  0
   -1.1210   21.9360  -30.6030 C   0  0  0  0  0  0  0  0  0  0  0  0
   -1.9770   22.9690  -29.9690 C   0  0  0  0  0  0  0  0  0  0  0  0
   -6.7184   24.9011  -29.9148 H   0  0  0  0  0  0  0  0  0  0  0  0
   -6.2478   25.6711  -31.4680 H   0  0  0  0  0  0  0  0  0  0  0  0
   -7.3295   24.2371  -31.4680 H   0  0  0  0  0  0  0  0  0  0  0  0
   -6.9465   22.9687  -32.8283 H   0  0  0  0  0  0  0  0  0  0  0  0
   -5.6649   21.8455  -33.5917 H   0  0  0  0  0  0  0  0  0  0  0  0
   -5.0236   19.8855  -32.3703 H   0  0  0  0  0  0  0  0  0  0  0  0
   -5.9117   17.7684  -31.5648 H   0  0  0  0  0  0  0  0  0  0  0  0
   -8.3057   17.5368  -30.9016 H   0  0  0  0  0  0  0  0  0  0  0  0
   -9.7540   19.5590  -31.1046 H   0  0  0  0  0  0  0  0  0  0  0  0
   -5.7208   18.8684  -35.5480 H   0  0  0  0  0  0  0  0  0  0  0  0
   -7.4658   17.1291  -35.0236 H   0  0  0  0  0  0  0  0  0  0  0  0
   -6.9162   15.2270  -33.5258 H   0  0  0  0  0  0  0  0  0  0  0  0
   -4.6647   15.0116  -32.5318 H   0  0  0  0  0  0  0  0  0  0  0  0
   -2.9152   16.7327  -33.0407 H   0  0  0  0  0  0  0  0  0  0  0  0
   -0.8670   18.6480  -33.7010 H   0  0  0  0  0  0  0  0  0  0  0  0
    0.0514   20.0145  -31.9318 H   0  0  0  0  0  0  0  0  0  0  0  0
   -0.7824   21.2457  -29.8163 H   0  0  0  0  0  0  0  0  0  0  0  0
   -0.3013   22.4804  -31.0947 H   0  0  0  0  0  0  0  0  0  0  0  0
   -2.1160   22.7005  -28.9114 H   0  0  0  0  0  0  0  0  0  0  0  0
   -1.4608   23.9316  -30.0995 H   0  0  0  0  0  0  0  0  0  0  0  0
  1  2  1  0
  2  3  1  0
  3  4  2  0
  4  5  1  0
  5  6  2  0
  6  7  1  0
  7  8  1  0
  8  9  2  0
  9 10  1  0
 10 11  2  0
 11 12  1  0
 12 13  2  0
 13 14  1  0
  5 15  1  0
 15 16  2  0
 16 17  1  0
 17 18  2  0
 18 19  1  0
 19 20  2  0
 20 21  1  0
 21 22  2  0
 22 23  1  0
 23 24  2  0
 17 25  1  0
 25 26  1  0
 26 27  2  0
 27 28  1  0
 28 29  1  0
  6  2  1  0
 13  8  1  0
 27 15  1  0
 29  4  1  0
 24 19  1  0
  1 30  1  0
  1 31  1  0
  1 32  1  0
  7 33  1  0
  7 34  1  0
  9 35  1  0
 10 36  1  0
 11 37  1  0
 12 38  1  0
 20 39  1  0
 21 40  1  0
 22 41  1  0
 23 42  1  0
 24 43  1  0
 25 44  1  0
 26 45  1  0
 28 46  1  0
 28 47  1  0
 29 48  1  0
 29 49  1  0
M  END
>  <smiles>  (11) 
Cn1nc2c(c1Cc1ccccc1Cl)-c1nc(=Nc3ccccc3)[nH]cc1CC2

>  <score_type>  (11) 
oracle

>  <origin>  (11) 
adg

>  <m_score__min__energy>  (11) 
-9.7100000000000009

>  <m_primary>  (11) 
energy

$$$$
11:0
     RDKit          3D

 43 45  0  0  0  0  0  0  0  0999 V2000
   -2.6250   22.7150  -28.4940 C   0  0  0  0  0  0  0  0  0  0  0  0
   -3.1510   24.1800  -29.3590 S   0  0  0  0  0  0  0  0  0  0  0  0
   -3.1700   23.9160  -30.8400 O   0  0  0  0  0  0  0  0  0  0  0  0
   -2.1810   25.2900  -29.0690 O   0  0  0  0  0  0  0  0  0  0  0  0
   -4.7320   24.6550  -28.8150 N   0  0  0  0  0  0  0  0  0  0  0  0
   -5.4230   25.4240  -29.8520 C   0  0  0  0  0  0  0  0  0  0  0  0
   -6.8260   24.8480  -30.1340 C   0  0  0  0  0  0  0  0  0  0  0  0
   -6.9430   24.0810  -31.3970 N   0  0  0  0  0  0  0  0  0  0  0  0
   -8.3230   23.6630  -31.7540 C   0  0  0  0  0  0  0  0  0  0  0  0
   -8.4900   22.1690  -31.7950 C   0  0  0  0  0  0  0  0  0  0  0  0
   -7.5160   21.3980  -32.2920 C   0  0  0  0  0  0  0  0  0  0  0  0
   -7.6830   19.9280  -32.3730 C   0  0  0  0  0  0  0  0  0  0  0  0
   -8.6900   19.1770  -31.7670 C   0  0  0  0  0  0  0  0  0  0  0  0
   -8.5230   17.8620  -32.0240 N   0  0  0  0  0  0  0  0  0  0  0  0
   -7.4260   17.7690  -32.7930 C   0  0  0  0  0  0  0  0  0  0  0  0
   -6.8730   16.6070  -33.3300 C   0  0  0  0  0  0  0  0  0  0  0  0
   -5.7330   16.7350  -34.1430 C   0  0  0  0  0  0  0  0  0  0  0  0
   -5.1850   18.0070  -34.4080 C   0  0  0  0  0  0  0  0  0  0  0  0
   -5.7640   19.1630  -33.8560 C   0  0  0  0  0  0  0  0  0  0  0  0
   -6.8830   19.0080  -33.0340 C   0  0  0  0  0  0  0  0  0  0  0  0
   -6.2290   22.0620  -32.6960 C   0  0  0  0  0  0  0  0  0  0  0  0
   -5.8510   23.1030  -31.6360 C   0  0  0  0  0  0  0  0  0  0  0  0
   -2.6869   22.8875  -27.4094 H   0  0  0  0  0  0  0  0  0  0  0  0
   -3.2769   21.8728  -28.7692 H   0  0  0  0  0  0  0  0  0  0  0  0
   -1.5863   22.4798  -28.7692 H   0  0  0  0  0  0  0  0  0  0  0  0
   -4.5990   25.2750  -27.9830 H   0  0  0  0  0  0  0  0  0  0  0  0
   -5.5242   26.4670  -29.5174 H   0  0  0  0  0  0  0  0  0  0  0  0
   -4.8318   25.3686  -30.7780 H   0  0  0  0  0  0  0  0  0  0  0  0
   -7.0947   24.1801  -29.3024 H   0  0  0  0  0  0  0  0  0  0  0  0
   -7.4999   25.7116  -30.2338 H   0  0  0  0  0  0  0  0  0  0  0  0
   -9.0183   24.0735  -31.0070 H   0  0  0  0  0  0  0  0  0  0  0  0
   -8.5332   24.0464  -32.7634 H   0  0  0  0  0  0  0  0  0  0  0  0
   -9.4146   21.7093  -31.4157 H   0  0  0  0  0  0  0  0  0  0  0  0
   -9.5074   19.5979  -31.1631 H   0  0  0  0  0  0  0  0  0  0  0  0
   -9.1300   17.0790  -31.6920 H   0  0  0  0  0  0  0  0  0  0  0  0
   -7.3149   15.6209  -33.1240 H   0  0  0  0  0  0  0  0  0  0  0  0
   -5.2659   15.8376  -34.5749 H   0  0  0  0  0  0  0  0  0  0  0  0
   -4.2974   18.0954  -35.0517 H   0  0  0  0  0  0  0  0  0  0  0  0
   -5.3484   20.1598  -34.0650 H   0  0  0  0  0  0  0  0  0  0  0  0
   -5.4325   21.3071  -32.7722 H   0  0  0  0  0  0  0  0  0  0  0  0
   -6.3546   22.5537  -33.6719 H   0  0  0  0  0  0  0  0  0  0  0  0
   -5.6279   22.5833  -30.6925 H   0  0  0  0  0  0  0  0  0  0  0  0
   -4.9751   23.6574  -32.0039 H   0  0  0  0  0  0  0  0  0  0  0  0
  1  2  1  0
  2  3  2  0
  2  4  2  0
  2  5  1  0
  5  6  1  0
  6  7  1  0
  7  8  1  0
  8  9  1  0
  9 10  1  0
 10 11  2  0
 11 12  1  0
 12 13  2  0
 13 14  1  0
 14 15  1  0
 15 16  2  0
 16 17  1  0
 17 18  2  0
 18 19  1  0
 19 20  2  0
 11 21  1  0
 21 22  1  0
 22  8  1  0
 20 12  1  0
 20 15  1  0
  1 23  1  0
  1 24  1  0
  1 25  1  0
  5 26  1  0
  6 27  1  0
  6 28  1  0
  7 29  1  0
  7 30  1  0
  9 31  1  0
  9 32  1  0
 10 33  1  0
 13 34  1  0
 14 35  1  0
 16 36  1  0
 17 37  1  0
 18 38  1  0
 19 39  1  0
 21 40  1  0
 21 41  1  0
 22 42  1  0
 22 43  1  0
M  END
>  <UniqueID>  (12) 
11

>  <SMILES>  (12) 
CS(=O)(=O)NCCN1CC=C(c2c[nH]c3ccccc23)CC1

>  <Energy>  (12) 
83.67701949803036

>  <Genealogy>  (12) 
CS(=O)(=O)NCCN1CC=C(c2c[nH]c3ccccc23)CC1 (3D coordinates assigned)
CS(=O)(=O)NCCN1CC=C(c2c[nH]c3ccccc23)CC1 (nonaromatic ring conformer: 83.67701949803036 kcal/mol)

>  <smiles>  (12) 
CS(=O)(=O)NCCN1CC=C(c2c[nH]c3ccccc23)CC1

>  <score_type>  (12) 
oracle

>  <origin>  (12) 
adg

>  <m_score__min__energy>  (12) 
-9.5

>  <m_primary>  (12) 
energy

$$$$
12:0
     RDKit          3D

 51 54  0  0  0  0  0  0  0  0999 V2000
   -4.6310   19.5100  -33.4770 C   0  0  0  0  0  0  0  0  0  0  0  0
   -5.5190   18.5290  -34.2350 C   0  0  0  0  0  0  0  0  0  0  0  0
   -6.0580   17.5080  -33.3290 N   0  0  0  0  0  0  0  0  0  0  0  0
   -6.1320   16.1150  -33.7860 C   0  0  0  0  0  0  0  0  0  0  0  0
   -6.7010   17.9050  -32.0980 C   0  0  0  0  0  0  0  0  0  0  0  0
   -6.4500   17.2780  -31.0320 O   0  0  0  0  0  0  0  0  0  0  0  0
   -7.6420   19.0440  -32.0430 C   0  0  0  0  0  0  0  0  0  0  0  0
   -8.9110   18.9400  -32.6370 C   0  0  0  0  0  0  0  0  0  0  0  0
   -9.8090   20.0090  -32.5710 C   0  0  0  0  0  0  0  0  0  0  0  0
   -9.4510   21.1870  -31.9140 C   0  0  0  0  0  0  0  0  0  0  0  0
   -8.1820   21.3090  -31.3300 C   0  0  0  0  0  0  0  0  0  0  0  0
   -7.7950   22.5370  -30.6060 C   0  0  0  0  0  0  0  0  0  0  0  0
   -7.6480   22.4520  -29.3550 O   0  0  0  0  0  0  0  0  0  0  0  0
   -7.5140   23.7880  -31.3020 N   0  0  2  0  0  0  0  0  0  0  0  0
   -6.7170   23.5730  -32.5470 C   0  0  0  0  0  0  0  0  0  0  0  0
   -5.3040   22.9860  -32.2760 C   0  0  0  0  0  0  0  0  0  0  0  0
   -4.7150   23.5890  -31.0390 C   0  0  0  0  0  0  0  0  0  0  0  0
   -5.4260   24.3720  -30.1580 C   0  0  0  0  0  0  0  0  0  0  0  0
   -4.6920   24.6880  -29.0670 N   0  0  0  0  0  0  0  0  0  0  0  0
   -3.5100   24.0680  -29.2530 C   0  0  0  0  0  0  0  0  0  0  0  0
   -2.4260   24.0410  -28.3790 C   0  0  0  0  0  0  0  0  0  0  0  0
   -1.2980   23.2850  -28.7510 C   0  0  0  0  0  0  0  0  0  0  0  0
   -1.2820   22.5760  -29.9740 C   0  0  0  0  0  0  0  0  0  0  0  0
   -2.3930   22.6160  -30.8380 C   0  0  0  0  0  0  0  0  0  0  0  0
   -3.4900   23.3800  -30.4450 C   0  0  0  0  0  0  0  0  0  0  0  0
   -6.8340   24.7900  -30.4340 C   0  0  0  0  0  0  0  0  0  0  0  0
   -7.2710   20.2470  -31.4220 C   0  0  0  0  0  0  0  0  0  0  0  0
   -4.7634   19.3637  -32.3948 H   0  0  0  0  0  0  0  0  0  0  0  0
   -3.5786   19.3342  -33.7447 H   0  0  0  0  0  0  0  0  0  0  0  0
   -4.9104   20.5397  -33.7447 H   0  0  0  0  0  0  0  0  0  0  0  0
   -6.3528   19.0789  -34.6957 H   0  0  0  0  0  0  0  0  0  0  0  0
   -4.9153   18.0314  -35.0083 H   0  0  0  0  0  0  0  0  0  0  0  0
   -6.1676   15.4446  -32.9146 H   0  0  0  0  0  0  0  0  0  0  0  0
   -7.0388   15.9759  -34.3929 H   0  0  0  0  0  0  0  0  0  0  0  0
   -5.2450   15.8806  -34.3929 H   0  0  0  0  0  0  0  0  0  0  0  0
   -9.1989   18.0138  -33.1559 H   0  0  0  0  0  0  0  0  0  0  0  0
  -10.8009   19.9215  -33.0383 H   0  0  0  0  0  0  0  0  0  0  0  0
  -10.1655   22.0212  -31.8542 H   0  0  0  0  0  0  0  0  0  0  0  0
   -8.4380   24.1930  -31.5860 H   0  0  0  0  0  0  0  0  0  0  0  0
   -7.2660   22.8763  -33.1976 H   0  0  0  0  0  0  0  0  0  0  0  0
   -6.5771   24.5565  -33.0193 H   0  0  0  0  0  0  0  0  0  0  0  0
   -5.3834   21.8967  -32.1454 H   0  0  0  0  0  0  0  0  0  0  0  0
   -4.6519   23.2186  -33.1308 H   0  0  0  0  0  0  0  0  0  0  0  0
   -4.9910   25.2590  -28.2460 H   0  0  0  0  0  0  0  0  0  0  0  0
   -2.4504   24.5930  -27.4279 H   0  0  0  0  0  0  0  0  0  0  0  0
   -0.4231   23.2457  -28.0854 H   0  0  0  0  0  0  0  0  0  0  0  0
   -0.3947   21.9886  -30.2527 H   0  0  0  0  0  0  0  0  0  0  0  0
   -2.3949   22.0638  -31.7894 H   0  0  0  0  0  0  0  0  0  0  0  0
   -7.3797   24.8748  -29.4827 H   0  0  0  0  0  0  0  0  0  0  0  0
   -6.8225   25.7604  -30.9518 H   0  0  0  0  0  0  0  0  0  0  0  0
   -6.2591   20.3573  -31.0049 H   0  0  0  0  0  0  0  0  0  0  0  0
  1  2  1  0
  2  3  1  0
  3  4  1  0
  3  5  1  0
  5  6  2  0
  5  7  1  0
  7  8  2  0
  8  9  1  0
  9 10  2  0
 10 11  1  0
 11 12  1  0
 12 13  2  0
 12 14  1  0
 14 15  1  0
 15 16  1  0
 16 17  1  0
 17 18  2  0
 18 19  1  0
 19 20  1  0
 20 21  2  0
 21 22  1  0
 22 23  2  0
 23 24  1  0
 24 25  2  0
 18 26  1  0
 11 27  2  0
 27  7  1  0
 26 14  1  0
 25 17  1  0
 25 20  1  0
  1 28  1  0
  1 29  1  0
  1 30  1  0
  2 31  1  0
  2 32  1  0
  4 33  1  0
  4 34  1  0
  4 35  1  0
  8 36  1  0
  9 37  1  0
 10 38  1  0
 14 39  1  6
 15 40  1  0
 15 41  1  0
 16 42  1  0
 16 43  1  0
 19 44  1  0
 21 45  1  0
 22 46  1  0
 23 47  1  0
 24 48  1  0
 26 49  1  0
 26 50  1  0
 27 51  1  0
M  CHG  1  14   1
M  END
>  <UniqueID>  (13) 
12

>  <SMILES>  (13) 
CCN(C)C(=O)c1cccc(C(=O)[N@@H+]2CCc3c([nH]c4ccccc34)C2)c1

>  <Energy>  (13) 
102.19448750850582

>  <Genealogy>  (13) 
CCN(C)C(=O)c1cccc(C(=O)[NH+]2CCc3c([nH]c4ccccc34)C2)c1 (protonated)
CCN(C)C(=O)c1cccc(C(=O)[N@@H+]2CCc3c([nH]c4ccccc34)C2)c1 (chirality)
CCN(C)C(=O)c1cccc(C(=O)[N@@H+]2CCc3c([nH]c4ccccc34)C2)c1 (3D coordinates assigned)
CCN(C)C(=O)c1cccc(C(=O)[N@@H+]2CCc3c([nH]c4ccccc34)C2)c1 (nonaromatic ring conformer: 102.19448750850582 kcal/mol)

>  <smiles>  (13) 
CCN(C)C(=O)c1cccc(C(=O)N2CCc3c([nH]c4ccccc34)C2)c1

>  <score_type>  (13) 
oracle

>  <origin>  (13) 
adg

>  <m_score__min__energy>  (13) 
-9.0399999999999991

>  <m_primary>  (13) 
energy

$$$$
13:0
     RDKit          3D

 32 33  0  0  0  0  0  0  0  0999 V2000
   -7.2750   18.2150  -31.2270 C   0  0  0  0  0  0  0  0  0  0  0  0
   -6.4700   18.1560  -32.4920 C   0  0  0  0  0  0  0  0  0  0  0  0
   -6.8500   17.2210  -33.4230 C   0  0  0  0  0  0  0  0  0  0  0  0
   -6.1590   17.0470  -34.5930 C   0  0  0  0  0  0  0  0  0  0  0  0
   -5.0640   17.8490  -34.8000 C   0  0  0  0  0  0  0  0  0  0  0  0
   -4.6760   18.8030  -33.8570 C   0  0  0  0  0  0  0  0  0  0  0  0
   -3.6030   19.5380  -34.1920 F   0  0  0  0  0  0  0  0  0  0  0  0
   -5.3510   18.9990  -32.6710 C   0  0  0  0  0  0  0  0  0  0  0  0
   -5.0540   20.0200  -31.6720 C   0  0  0  0  0  0  0  0  0  0  0  0
   -5.8150   21.2460  -31.6980 N   0  0  0  0  0  0  0  0  0  0  0  0
   -6.9930   21.4170  -32.3090 C   0  0  0  0  0  0  0  0  0  0  0  0
   -7.6390   22.6230  -32.3350 N   0  0  0  0  0  0  0  0  0  0  0  0
   -7.0590   23.6900  -31.7150 C   0  0  0  0  0  0  0  0  0  0  0  0
   -5.8500   23.5590  -31.0750 C   0  0  0  0  0  0  0  0  0  0  0  0
   -5.1850   24.6880  -30.3900 C   0  0  0  0  0  0  0  0  0  0  0  0
   -5.7480   25.3350  -29.2740 N   0  0  0  0  0  0  0  0  0  0  0  0
   -4.0520   25.0860  -30.8350 O   0  0  0  0  0  0  0  0  0  0  0  0
   -5.2110   22.2990  -31.0660 C   0  0  0  0  0  0  0  0  0  0  0  0
   -4.1250   22.2490  -30.4330 N   0  0  0  0  0  0  0  0  0  0  0  0
   -6.5998   18.1655  -30.3600 H   0  0  0  0  0  0  0  0  0  0  0  0
   -7.8420   19.1571  -31.1968 H   0  0  0  0  0  0  0  0  0  0  0  0
   -7.9733   17.3656  -31.1968 H   0  0  0  0  0  0  0  0  0  0  0  0
   -7.7325   16.5952  -33.2241 H   0  0  0  0  0  0  0  0  0  0  0  0
   -6.4684   16.2965  -35.3353 H   0  0  0  0  0  0  0  0  0  0  0  0
   -4.4813   17.7379  -35.7263 H   0  0  0  0  0  0  0  0  0  0  0  0
   -5.2076   19.5625  -30.6835 H   0  0  0  0  0  0  0  0  0  0  0  0
   -4.0256   20.3345  -31.9034 H   0  0  0  0  0  0  0  0  0  0  0  0
   -7.4597   20.5557  -32.8093 H   0  0  0  0  0  0  0  0  0  0  0  0
   -7.5647   24.6668  -31.7273 H   0  0  0  0  0  0  0  0  0  0  0  0
   -5.5540   26.3760  -29.1960 H   0  0  0  0  0  0  0  0  0  0  0  0
   -6.3370   24.8340  -28.5500 H   0  0  0  0  0  0  0  0  0  0  0  0
   -3.4940   23.0400  -30.2820 H   0  0  0  0  0  0  0  0  0  0  0  0
  1  2  1  0
  2  3  2  0
  3  4  1  0
  4  5  2  0
  5  6  1  0
  6  7  1  0
  6  8  2  0
  8  9  1  0
  9 10  1  0
 10 11  1  0
 11 12  2  0
 12 13  1  0
 13 14  2  0
 14 15  1  0
 15 16  1  0
 15 17  2  0
 14 18  1  0
 18 19  2  3
  8  2  1  0
 18 10  1  0
  1 20  1  0
  1 21  1  0
  1 22  1  0
  3 23  1  0
  4 24  1  0
  5 25  1  0
  9 26  1  0
  9 27  1  0
 11 28  1  0
 13 29  1  0
 16 30  1  0
 16 31  1  0
 19 32  1  0
M  END
>  <smiles>  (14) 
Cc1cccc(F)c1Cn1cncc(C(N)=O)c1=N

>  <score_type>  (14) 
oracle

>  <origin>  (14) 
adg

>  <m_score__min__energy>  (14) 
-7.54

>  <m_primary>  (14) 
energy

$$$$
14:0
     RDKit          3D

 44 45  0  0  0  0  0  0  0  0999 V2000
   -2.4900   21.5770  -32.1840 C   0  0  0  0  0  0  0  0  0  0  0  0
   -3.8180   21.1110  -32.7690 C   0  0  0  0  0  0  0  0  0  0  0  0
   -4.9420   21.9670  -32.2700 C   0  0  0  0  0  0  0  0  0  0  0  0
   -4.8100   22.9430  -31.3530 N   0  0  0  0  0  0  0  0  0  0  0  0
   -6.0110   23.4310  -31.0720 N   0  0  0  0  0  0  0  0  0  0  0  0
   -6.2360   24.5120  -30.1100 C   0  0  0  0  0  0  0  0  0  0  0  0
   -5.3660   25.7210  -30.4490 C   0  0  0  0  0  0  0  0  0  0  0  0
   -4.0500   25.3080  -30.6930 O   0  0  0  0  0  0  0  0  0  0  0  0
   -6.9400   22.7900  -31.8230 C   0  0  0  0  0  0  0  0  0  0  0  0
   -8.4310   22.9220  -31.6520 C   0  0  0  0  0  0  0  0  0  0  0  0
   -9.0580   21.5650  -31.3490 C   0  0  0  0  0  0  0  0  0  0  0  0
   -6.2780   21.8370  -32.5870 C   0  0  0  0  0  0  0  0  0  0  0  0
   -6.8250   20.8790  -33.4470 O   0  0  0  0  0  0  0  0  0  0  0  0
   -6.5260   19.5110  -33.3980 C   0  0  0  0  0  0  0  0  0  0  0  0
   -6.8770   18.7870  -32.2540 C   0  0  0  0  0  0  0  0  0  0  0  0
   -6.5870   17.4230  -32.1620 C   0  0  0  0  0  0  0  0  0  0  0  0
   -5.9300   16.7640  -33.2180 C   0  0  0  0  0  0  0  0  0  0  0  0
   -5.6190   15.3960  -33.1760 O   0  0  0  0  0  0  0  0  0  0  0  0
   -4.5790   14.8320  -32.3840 C   0  0  0  0  0  0  0  0  0  0  0  0
   -5.5650   17.4940  -34.3560 C   0  0  0  0  0  0  0  0  0  0  0  0
   -5.8550   18.8580  -34.4470 C   0  0  0  0  0  0  0  0  0  0  0  0
   -2.5461   21.5573  -31.0856 H   0  0  0  0  0  0  0  0  0  0  0  0
   -1.6853   20.9075  -32.5221 H   0  0  0  0  0  0  0  0  0  0  0  0
   -2.2801   22.6025  -32.5221 H   0  0  0  0  0  0  0  0  0  0  0  0
   -3.7729   21.1766  -33.8661 H   0  0  0  0  0  0  0  0  0  0  0  0
   -3.9980   20.0714  -32.4577 H   0  0  0  0  0  0  0  0  0  0  0  0
   -3.9180   23.2550  -30.9070 H   0  0  0  0  0  0  0  0  0  0  0  0
   -7.2949   24.8084  -30.1400 H   0  0  0  0  0  0  0  0  0  0  0  0
   -5.9703   24.1538  -29.1045 H   0  0  0  0  0  0  0  0  0  0  0  0
   -5.7648   26.2173  -31.3460 H   0  0  0  0  0  0  0  0  0  0  0  0
   -5.3743   26.4221  -29.6015 H   0  0  0  0  0  0  0  0  0  0  0  0
   -3.8070   25.6760  -31.5810 H   0  0  0  0  0  0  0  0  0  0  0  0
   -8.6401   23.6108  -30.8202 H   0  0  0  0  0  0  0  0  0  0  0  0
   -8.8623   23.3117  -32.5859 H   0  0  0  0  0  0  0  0  0  0  0  0
   -9.1223   21.4258  -30.2597 H   0  0  0  0  0  0  0  0  0  0  0  0
  -10.0673   21.5220  -31.7844 H   0  0  0  0  0  0  0  0  0  0  0  0
   -8.4366   20.7685  -31.7844 H   0  0  0  0  0  0  0  0  0  0  0  0
   -7.3849   19.2948  -31.4208 H   0  0  0  0  0  0  0  0  0  0  0  0
   -6.8735   16.8619  -31.2603 H   0  0  0  0  0  0  0  0  0  0  0  0
   -4.8183   14.9618  -31.3182 H   0  0  0  0  0  0  0  0  0  0  0  0
   -4.4857   13.7597  -32.6109 H   0  0  0  0  0  0  0  0  0  0  0  0
   -3.6294   15.3387  -32.6109 H   0  0  0  0  0  0  0  0  0  0  0  0
   -5.0461   16.9899  -35.1846 H   0  0  0  0  0  0  0  0  0  0  0  0
   -5.5572   19.4229  -35.3426 H   0  0  0  0  0  0  0  0  0  0  0  0
  1  2  1  0
  2  3  1  0
  3  4  2  0
  4  5  1  0
  5  6  1  0
  6  7  1  0
  7  8  1  0
  5  9  1  0
  9 10  1  0
 10 11  1  0
  9 12  2  0
 12 13  1  0
 13 14  1  0
 14 15  2  0
 15 16  1  0
 16 17  2  0
 17 18  1  0
 18 19  1  0
 17 20  1  0
 20 21  2  0
 12  3  1  0
 21 14  1  0
  1 22  1  0
  1 23  1  0
  1 24  1  0
  2 25  1  0
  2 26  1  0
  4 27  1  0
  6 28  1  0
  6 29  1  0
  7 30  1  0
  7 31  1  0
  8 32  1  0
 10 33  1  0
 10 34  1  0
 11 35  1  0
 11 36  1  0
 11 37  1  0
 15 38  1  0
 16 39  1  0
 19 40  1  0
 19 41  1  0
 19 42  1  0
 20 43  1  0
 21 44  1  0
M  CHG  1   4   1
M  END
>  <UniqueID>  (15) 
13

>  <SMILES>  (15) 
CCc1[nH+]n(CCO)c(CC)c1Oc1ccc(OC)cc1

>  <Energy>  (15) 
70.60156984115012

>  <Genealogy>  (15) 
CCc1[nH+]n(CCO)c(CC)c1Oc1ccc(OC)cc1 (protonated)
CCc1[nH+]n(CCO)c(CC)c1Oc1ccc(OC)cc1 (3D coordinates assigned)
CCc1[nH+]n(CCO)c(CC)c1Oc1ccc(OC)cc1 (optimized conformer: 70.60156984115012 kcal/mol)

>  <smiles>  (15) 
CCc1nn(CCO)c(CC)c1Oc1ccc(OC)cc1

>  <score_type>  (15) 
oracle

>  <origin>  (15) 
adg

>  <m_score__min__energy>  (15) 
-7.25

>  <m_primary>  (15) 
energy

$$$$
15:0
     RDKit          3D

 44 46  0  0  0  0  0  0  0  0999 V2000
   -3.8020   14.1680  -33.6680 C   0  0  0  0  0  0  0  0  0  0  0  0
   -4.1450   15.1690  -34.7670 C   0  0  0  0  0  0  0  0  0  0  0  0
   -4.9650   16.3050  -34.2150 C   0  0  0  0  0  0  0  0  0  0  0  0
   -5.0080   17.5360  -34.8840 C   0  0  0  0  0  0  0  0  0  0  0  0
   -5.7930   18.5820  -34.3890 C   0  0  0  0  0  0  0  0  0  0  0  0
   -6.5560   18.4130  -33.2200 C   0  0  0  0  0  0  0  0  0  0  0  0
   -7.3770   19.5360  -32.7070 C   0  0  0  0  0  0  0  0  0  0  0  0
   -6.9540   20.3920  -31.7500 N   0  0  0  0  0  0  0  0  0  0  0  0
   -8.0320   21.1880  -31.5940 C   0  0  0  0  0  0  0  0  0  0  0  0
   -8.1130   22.3050  -30.5980 C   0  0  0  0  0  0  0  0  0  0  0  0
   -7.5440   23.5760  -31.1000 N   0  0  0  0  0  0  0  0  0  0  0  0
   -6.8350   24.3900  -30.0850 C   0  0  0  0  0  0  0  0  0  0  0  0
   -5.3120   24.4280  -30.2960 C   0  0  0  0  0  0  0  0  0  0  0  0
   -4.8650   23.1690  -30.9070 N   0  0  0  0  0  0  0  0  0  0  0  0
   -3.3990   23.0710  -30.8860 C   0  0  0  0  0  0  0  0  0  0  0  0
   -5.3700   23.0640  -32.2890 C   0  0  0  0  0  0  0  0  0  0  0  0
   -6.8570   23.4740  -32.4060 C   0  0  0  0  0  0  0  0  0  0  0  0
   -9.0120   20.8400  -32.3920 O   0  0  0  0  0  0  0  0  0  0  0  0
   -8.6360   19.8190  -33.0960 N   0  0  0  0  0  0  0  0  0  0  0  0
   -6.5210   17.1710  -32.5610 C   0  0  0  0  0  0  0  0  0  0  0  0
   -5.7360   16.1260  -33.0580 C   0  0  0  0  0  0  0  0  0  0  0  0
   -3.9617   14.6342  -32.6846 H   0  0  0  0  0  0  0  0  0  0  0  0
   -4.4481   13.2829  -33.7635 H   0  0  0  0  0  0  0  0  0  0  0  0
   -2.7488   13.8652  -33.7635 H   0  0  0  0  0  0  0  0  0  0  0  0
   -3.2138   15.5699  -35.1938 H   0  0  0  0  0  0  0  0  0  0  0  0
   -4.7304   14.6549  -35.5436 H   0  0  0  0  0  0  0  0  0  0  0  0
   -4.4212   17.6800  -35.8032 H   0  0  0  0  0  0  0  0  0  0  0  0
   -5.8138   19.5457  -34.9189 H   0  0  0  0  0  0  0  0  0  0  0  0
   -9.1704   22.4713  -30.3444 H   0  0  0  0  0  0  0  0  0  0  0  0
   -7.5202   22.0050  -29.7213 H   0  0  0  0  0  0  0  0  0  0  0  0
   -7.2202   25.4193  -30.1308 H   0  0  0  0  0  0  0  0  0  0  0  0
   -7.0181   23.9239  -29.1056 H   0  0  0  0  0  0  0  0  0  0  0  0
   -5.0556   25.2674  -30.9590 H   0  0  0  0  0  0  0  0  0  0  0  0
   -4.8129   24.5587  -29.3245 H   0  0  0  0  0  0  0  0  0  0  0  0
   -3.0480   23.0475  -29.8438 H   0  0  0  0  0  0  0  0  0  0  0  0
   -3.0857   22.1499  -31.3993 H   0  0  0  0  0  0  0  0  0  0  0  0
   -2.9659   23.9422  -31.3993 H   0  0  0  0  0  0  0  0  0  0  0  0
   -4.7703   23.7218  -32.9352 H   0  0  0  0  0  0  0  0  0  0  0  0
   -5.2870   22.0114  -32.5975 H   0  0  0  0  0  0  0  0  0  0  0  0
   -6.9103   24.4528  -32.9052 H   0  0  0  0  0  0  0  0  0  0  0  0
   -7.3665   22.6857  -32.9796 H   0  0  0  0  0  0  0  0  0  0  0  0
   -9.2320   19.3280  -33.7980 H   0  0  0  0  0  0  0  0  0  0  0  0
   -7.1156   17.0206  -31.6478 H   0  0  0  0  0  0  0  0  0  0  0  0
   -5.7234   15.1570  -32.5376 H   0  0  0  0  0  0  0  0  0  0  0  0
  1  2  1  0
  2  3  1  0
  3  4  2  0
  4  5  1  0
  5  6  2  0
  6  7  1  0
  7  8  1  0
  8  9  2  0
  9 10  1  0
 10 11  1  0
 11 12  1  0
 12 13  1  0
 13 14  1  0
 14 15  1  0
 14 16  1  0
 16 17  1  0
  9 18  1  0
 18 19  1  0
  6 20  1  0
 20 21  2  0
 21  3  1  0
 19  7  2  0
 17 11  1  0
  1 22  1  0
  1 23  1  0
  1 24  1  0
  2 25  1  0
  2 26  1  0
  4 27  1  0
  5 28  1  0
 10 29  1  0
 10 30  1  0
 12 31  1  0
 12 32  1  0
 13 33  1  0
 13 34  1  0
 15 35  1  0
 15 36  1  0
 15 37  1  0
 16 38  1  0
 16 39  1  0
 17 40  1  0
 17 41  1  0
 19 42  1  0
 20 43  1  0
 21 44  1  0
M  CHG  1  19   1
M  END
>  <UniqueID>  (16) 
14

>  <SMILES>  (16) 
CCc1ccc(-c2nc(CN3CCN(C)CC3)o[nH+]2)cc1

>  <Energy>  (16) 
88.30726793048451

>  <Genealogy>  (16) 
CCc1ccc(-c2nc(CN3CCN(C)CC3)o[nH+]2)cc1 (protonated)
CCc1ccc(-c2nc(CN3CCN(C)CC3)o[nH+]2)cc1 (3D coordinates assigned)
CCc1ccc(-c2nc(CN3CCN(C)CC3)o[nH+]2)cc1 (nonaromatic ring conformer: 88.30726793048451 kcal/mol)

>  <smiles>  (16) 
CCc1ccc(-c2noc(CN3CCN(C)CC3)n2)cc1

>  <score_type>  (16) 
oracle

>  <origin>  (16) 
adg

>  <m_score__min__energy>  (16) 
-7.2199999999999998

>  <m_primary>  (16) 
energy

$$$$
16:0
     RDKit          3D

 41 42  0  0  0  0  0  0  0  0999 V2000
   -5.7450   17.3480  -33.1550 C   0  0  0  0  0  0  0  0  0  0  0  0
   -6.0600   18.0230  -34.4800 C   0  0  0  0  0  0  0  0  0  0  0  0
   -5.4290   19.2990  -34.5250 O   0  0  0  0  0  0  0  0  0  0  0  0
   -4.9750   20.0050  -33.3990 C   0  0  0  0  0  0  0  0  0  0  0  0
   -3.6090   20.1110  -33.0850 C   0  0  0  0  0  0  0  0  0  0  0  0
   -3.1860   20.8190  -31.9520 C   0  0  0  0  0  0  0  0  0  0  0  0
   -4.1310   21.4930  -31.1450 C   0  0  0  0  0  0  0  0  0  0  0  0
   -5.4990   21.3380  -31.4410 C   0  0  0  0  0  0  0  0  0  0  0  0
   -5.9240   20.6080  -32.5660 C   0  0  0  0  0  0  0  0  0  0  0  0
   -7.2820   20.4610  -32.9000 O   0  0  0  0  0  0  0  0  0  0  0  0
   -8.3610   20.3210  -31.9750 C   0  0  0  0  0  0  0  0  0  0  0  0
   -8.8720   18.8840  -31.9510 C   0  0  0  0  0  0  0  0  0  0  0  0
   -3.6870   22.2550  -29.8890 C   0  0  2  0  0  0  0  0  0  0  0  0
   -4.4290   23.6130  -29.7210 C   0  0  0  0  0  0  0  0  0  0  0  0
   -3.5610   24.8030  -30.0150 C   0  0  0  0  0  0  0  0  0  0  0  0
   -3.9330   25.6710  -30.8480 O   0  0  0  0  0  0  0  0  0  0  0  0
   -2.3640   24.9770  -29.3330 O   0  0  0  0  0  0  0  0  0  0  0  0
   -2.2280   22.5070  -29.8880 N   0  0  0  0  0  0  0  0  0  0  0  0
   -1.4640   21.2960  -30.2030 C   0  0  0  0  0  0  0  0  0  0  0  0
   -1.7130   20.8840  -31.6520 C   0  0  0  0  0  0  0  0  0  0  0  0
   -6.0513   18.0044  -32.3272 H   0  0  0  0  0  0  0  0  0  0  0  0
   -6.2917   16.3958  -33.0895 H   0  0  0  0  0  0  0  0  0  0  0  0
   -4.6640   17.1554  -33.0895 H   0  0  0  0  0  0  0  0  0  0  0  0
   -5.6870   17.4002  -35.3065 H   0  0  0  0  0  0  0  0  0  0  0  0
   -7.1484   18.1487  -34.5776 H   0  0  0  0  0  0  0  0  0  0  0  0
   -2.8630   19.6324  -33.7365 H   0  0  0  0  0  0  0  0  0  0  0  0
   -6.2494   21.7964  -30.7801 H   0  0  0  0  0  0  0  0  0  0  0  0
   -8.0114   20.5961  -30.9690 H   0  0  0  0  0  0  0  0  0  0  0  0
   -9.1824   20.9817  -32.2893 H   0  0  0  0  0  0  0  0  0  0  0  0
   -8.9894   18.5539  -30.9083 H   0  0  0  0  0  0  0  0  0  0  0  0
   -9.8438   18.8318  -32.4637 H   0  0  0  0  0  0  0  0  0  0  0  0
   -8.1513   18.2300  -32.4637 H   0  0  0  0  0  0  0  0  0  0  0  0
   -3.9488   21.6035  -29.0422 H   0  0  0  0  0  0  0  0  0  0  0  0
   -5.2882   23.6290  -30.4077 H   0  0  0  0  0  0  0  0  0  0  0  0
   -4.7393   23.6874  -28.6683 H   0  0  0  0  0  0  0  0  0  0  0  0
   -1.9390   22.8330  -28.9360 H   0  0  0  0  0  0  0  0  0  0  0  0
   -1.9870   23.2600  -30.5780 H   0  0  0  0  0  0  0  0  0  0  0  0
   -0.3915   21.4943  -30.0598 H   0  0  0  0  0  0  0  0  0  0  0  0
   -1.7852   20.4825  -29.5359 H   0  0  0  0  0  0  0  0  0  0  0  0
   -1.2425   21.6200  -32.3205 H   0  0  0  0  0  0  0  0  0  0  0  0
   -1.2802   19.8852  -31.8102 H   0  0  0  0  0  0  0  0  0  0  0  0
  1  2  1  0
  2  3  1  0
  3  4  1  0
  4  5  2  0
  5  6  1  0
  6  7  2  0
  7  8  1  0
  8  9  2  0
  9 10  1  0
 10 11  1  0
 11 12  1  0
  7 13  1  0
 13 14  1  0
 14 15  1  0
 15 16  2  0
 15 17  1  0
 13 18  1  0
 18 19  1  0
 19 20  1  0
  9  4  1  0
 20  6  1  0
  1 21  1  0
  1 22  1  0
  1 23  1  0
  2 24  1  0
  2 25  1  0
  5 26  1  0
  8 27  1  0
 11 28  1  0
 11 29  1  0
 12 30  1  0
 12 31  1  0
 12 32  1  0
 13 33  1  1
 14 34  1  0
 14 35  1  0
 18 36  1  0
 18 37  1  0
 19 38  1  0
 19 39  1  0
 20 40  1  0
 20 41  1  0
M  CHG  2  17  -1  18   1
M  END
>  <UniqueID>  (17) 
15

>  <SMILES>  (17) 
CCOc1cc2c(cc1OCC)[C@H](CC(=O)[O-])[NH2+]CC2

>  <Energy>  (17) 
39.62641223455375

>  <Genealogy>  (17) 
CCOc1cc2c(cc1OCC)C(CC(=O)[O-])[NH2+]CC2 (protonated)
CCOc1cc2c(cc1OCC)[C@H](CC(=O)[O-])[NH2+]CC2 (chirality)
CCOc1cc2c(cc1OCC)[C@H](CC(=O)[O-])[NH2+]CC2 (3D coordinates assigned)
CCOc1cc2c(cc1OCC)[C@H](CC(=O)[O-])[NH2+]CC2 (nonaromatic ring conformer: 39.62641223455375 kcal/mol)

>  <smiles>  (17) 
CCOc1cc2c(cc1OCC)C(CC(=O)O)NCC2

>  <score_type>  (17) 
oracle

>  <origin>  (17) 
adg

>  <m_score__min__energy>  (17) 
-7.5300000000000002

>  <m_primary>  (17) 
energy

$$$$
17:0
     RDKit          3D

 34 35  0  0  0  0  0  0  0  0999 V2000
   -4.0711   23.1583  -33.5079 H   0  0  0  0  0  0  0  0  0  0  0  0
   -4.5950   22.6030  -32.7160 C   0  0  0  0  0  0  0  0  0  0  0  0
   -4.5720   21.2620  -32.7700 C   0  0  0  0  0  0  0  0  0  0  0  0
   -3.0880   20.2500  -32.6220 S   0  0  0  0  0  0  0  0  0  0  0  0
   -4.0550   18.8390  -33.1700 C   0  0  0  0  0  0  0  0  0  0  0  0
   -3.3130   17.5250  -33.8090 S   0  0  0  0  0  0  0  0  0  0  0  0
   -5.4550   19.0830  -33.3290 N   0  0  0  0  0  0  0  0  0  0  0  0
   -6.4370   18.1160  -33.8310 C   0  0  0  0  0  0  0  0  0  0  0  0
   -5.9150   17.3306  -34.3972 H   0  0  0  0  0  0  0  0  0  0  0  0
   -7.1524   18.6402  -34.4817 H   0  0  0  0  0  0  0  0  0  0  0  0
   -7.2000   17.4770  -32.6700 C   0  0  0  0  0  0  0  0  0  0  0  0
   -6.5056   16.8789  -32.0617 H   0  0  0  0  0  0  0  0  0  0  0  0
   -7.9943   16.8294  -33.0697 H   0  0  0  0  0  0  0  0  0  0  0  0
   -7.8020   18.5240  -31.8350 N   0  0  0  0  0  0  0  0  0  0  0  0
   -7.1540   19.3460  -31.7980 H   0  0  0  0  0  0  0  0  0  0  0  0
   -9.1120   18.9590  -32.3460 C   0  0  0  0  0  0  0  0  0  0  0  0
   -9.8903   18.3102  -31.9178 H   0  0  0  0  0  0  0  0  0  0  0  0
   -9.0822   18.8870  -33.4432 H   0  0  0  0  0  0  0  0  0  0  0  0
   -9.4320   20.4130  -31.9850 C   0  0  0  0  0  0  0  0  0  0  0  0
   -9.4561   20.5223  -30.8907 H   0  0  0  0  0  0  0  0  0  0  0  0
   -8.6577   21.0734  -32.4025 H   0  0  0  0  0  0  0  0  0  0  0  0
  -10.4120   20.6873  -32.4025 H   0  0  0  0  0  0  0  0  0  0  0  0
   -5.7420   20.4590  -33.1180 C   0  0  0  0  0  0  0  0  0  0  0  0
   -6.9040   20.9350  -33.2420 O   0  0  0  0  0  0  0  0  0  0  0  0
   -5.2770   23.3810  -31.6640 C   0  0  0  0  0  0  0  0  0  0  0  0
   -4.6800   24.5160  -31.2020 N   0  0  0  0  0  0  0  0  0  0  0  0
   -5.2650   25.3050  -30.2610 C   0  0  0  0  0  0  0  0  0  0  0  0
   -4.7472   26.2064  -29.9013 H   0  0  0  0  0  0  0  0  0  0  0  0
   -6.5210   24.9730  -29.7510 C   0  0  0  0  0  0  0  0  0  0  0  0
   -6.9945   25.6037  -28.9842 H   0  0  0  0  0  0  0  0  0  0  0  0
   -7.1690   23.8320  -30.2250 C   0  0  0  0  0  0  0  0  0  0  0  0
   -8.1622   23.5612  -29.8374 H   0  0  0  0  0  0  0  0  0  0  0  0
   -6.5540   23.0340  -31.1930 C   0  0  0  0  0  0  0  0  0  0  0  0
   -7.0655   22.1416  -31.5829 H   0  0  0  0  0  0  0  0  0  0  0  0
  1  2  1  0
  2  3  2  0
  3  4  1  0
  4  5  1  0
  5  6  2  0
  5  7  1  0
  7  8  1  0
  8  9  1  0
  8 10  1  0
  8 11  1  0
 11 12  1  0
 11 13  1  0
 11 14  1  0
 14 15  1  0
 14 16  1  0
 16 17  1  0
 16 18  1  0
 16 19  1  0
 19 20  1  0
 19 21  1  0
 19 22  1  0
  7 23  1  0
 23 24  2  0
  2 25  1  0
 25 26  2  0
 26 27  1  0
 27 28  1  0
 27 29  2  0
 29 30  1  0
 29 31  1  0
 31 32  1  0
 31 33  2  0
 33 34  1  0
 23  3  1  0
 33 25  1  0
M  END
>  <UniqueID>  (18) 
16

>  <SMILES>  (18) 
CCNCCN1C(=O)/C(=C/c2ccccn2)SC1=S

>  <Energy>  (18) 
54.31173758389058

>  <Genealogy>  (18) 
CCNCCN1C(=O)/C(=C/c2ccccn2)SC1=S (cis-trans isomerization)
CCNCCN1C(=O)/C(=C/c2ccccn2)SC1=S (3D coordinates assigned)
CCNCCN1C(=O)/C(=C/c2ccccn2)SC1=S (nonaromatic ring conformer: 54.31173758389058 kcal/mol)

>  <smiles>  (18) 
CCNCCN1C(=O)C(=Cc2ccccn2)SC1=S

>  <score_type>  (18) 
oracle

>  <origin>  (18) 
adg

>  <m_score__min__energy>  (18) 
-7.2800000000000002

>  <m_primary>  (18) 
energy

$$$$
18:0
     RDKit          3D

 31 31  0  0  0  0  0  0  0  0999 V2000
   -8.1490   19.1200  -31.9350 C   0  0  0  0  0  0  0  0  0  0  0  0
   -9.0640   20.3280  -32.0970 C   0  0  0  0  0  0  0  0  0  0  0  0
   -8.6910   21.3670  -31.1940 O   0  0  0  0  0  0  0  0  0  0  0  0
   -8.1150   22.5770  -31.6020 C   0  0  0  0  0  0  0  0  0  0  0  0
   -8.8500   23.5280  -31.9850 O   0  0  0  0  0  0  0  0  0  0  0  0
   -6.6430   22.7670  -31.5530 C   0  0  0  0  0  0  0  0  0  0  0  0
   -5.8470   21.8450  -32.1720 N   0  0  0  0  0  0  0  0  0  0  0  0
   -4.4870   21.9760  -32.2020 C   0  0  0  0  0  0  0  0  0  0  0  0
   -3.6480   21.0020  -32.8680 N   0  0  0  0  0  0  0  0  0  0  0  0
   -2.2000   21.2340  -32.9330 C   0  0  0  0  0  0  0  0  0  0  0  0
   -4.2170   19.7900  -33.4680 C   0  0  0  0  0  0  0  0  0  0  0  0
   -3.9120   23.0500  -31.6000 N   0  0  0  0  0  0  0  0  0  0  0  0
   -4.6450   23.9880  -30.9570 C   0  0  0  0  0  0  0  0  0  0  0  0
   -4.0530   24.9640  -30.4220 O   0  0  0  0  0  0  0  0  0  0  0  0
   -6.0440   23.8690  -30.8900 C   0  0  0  0  0  0  0  0  0  0  0  0
   -6.8600   24.8900  -30.1320 C   0  0  0  0  0  0  0  0  0  0  0  0
   -7.9954   18.9173  -30.8648 H   0  0  0  0  0  0  0  0  0  0  0  0
   -8.6115   18.2431  -32.4116 H   0  0  0  0  0  0  0  0  0  0  0  0
   -7.1796   19.3277  -32.4116 H   0  0  0  0  0  0  0  0  0  0  0  0
   -8.9891   20.7020  -33.1287 H   0  0  0  0  0  0  0  0  0  0  0  0
  -10.0972   20.0215  -31.8765 H   0  0  0  0  0  0  0  0  0  0  0  0
   -6.2990   21.0380  -32.6510 H   0  0  0  0  0  0  0  0  0  0  0  0
   -1.7930   21.2992  -31.9132 H   0  0  0  0  0  0  0  0  0  0  0  0
   -1.7189   20.4015  -33.4673 H   0  0  0  0  0  0  0  0  0  0  0  0
   -2.0031   22.1752  -33.4673 H   0  0  0  0  0  0  0  0  0  0  0  0
   -4.5394   19.1032  -32.6715 H   0  0  0  0  0  0  0  0  0  0  0  0
   -5.0821   20.0607  -34.0911 H   0  0  0  0  0  0  0  0  0  0  0  0
   -3.4561   19.2974  -34.0911 H   0  0  0  0  0  0  0  0  0  0  0  0
   -6.7332   24.7313  -29.0509 H   0  0  0  0  0  0  0  0  0  0  0  0
   -6.5188   25.9017  -30.3966 H   0  0  0  0  0  0  0  0  0  0  0  0
   -7.9220   24.7803  -30.3966 H   0  0  0  0  0  0  0  0  0  0  0  0
  1  2  1  0
  2  3  1  0
  3  4  1  0
  4  5  2  0
  4  6  1  0
  6  7  1  0
  7  8  1  0
  8  9  1  0
  9 10  1  0
  9 11  1  0
  8 12  2  0
 12 13  1  0
 13 14  2  0
 13 15  1  0
 15 16  1  0
 15  6  2  0
  1 17  1  0
  1 18  1  0
  1 19  1  0
  2 20  1  0
  2 21  1  0
  7 22  1  0
 10 23  1  0
 10 24  1  0
 10 25  1  0
 11 26  1  0
 11 27  1  0
 11 28  1  0
 16 29  1  0
 16 30  1  0
 16 31  1  0
M  END
>  <UniqueID>  (19) 
17

>  <SMILES>  (19) 
CCOC(=O)c1[nH]c(N(C)C)nc(=O)c1C

>  <Energy>  (19) 
29.363757447981577

>  <Genealogy>  (19) 
CCOC(=O)c1[nH]c(N(C)C)nc(=O)c1C (3D coordinates assigned)
CCOC(=O)c1[nH]c(N(C)C)nc(=O)c1C (optimized conformer: 29.363757447981577 kcal/mol)

>  <smiles>  (19) 
CCOC(=O)c1[nH]c(N(C)C)nc(=O)c1C

>  <score_type>  (19) 
oracle

>  <origin>  (19) 
adg

>  <m_score__min__energy>  (19) 
-5.4500000000000002

>  <m_primary>  (19) 
energy

$$$$
19:0
     RDKit          3D

 48 48  0  0  0  0  0  0  0  0999 V2000
   -8.5890   18.6370  -31.5820 C   0  0  0  0  0  0  0  0  0  0  0  0
   -7.3140   17.8070  -31.7250 C   0  0  0  0  0  0  0  0  0  0  0  0
   -7.1990   17.2040  -33.1380 C   0  0  0  0  0  0  0  0  0  0  0  0
   -5.8650   16.6130  -33.4100 N   0  0  0  0  0  0  0  0  0  0  0  0
   -5.1680   16.0600  -32.2210 C   0  0  0  0  0  0  0  0  0  0  0  0
   -4.3280   14.7930  -32.4830 C   0  0  0  0  0  0  0  0  0  0  0  0
   -4.5990   13.7240  -31.4190 C   0  0  0  0  0  0  0  0  0  0  0  0
   -4.8570   17.7320  -34.3120 S   0  0  0  0  0  0  0  0  0  0  0  0
   -3.4660   17.1730  -34.4280 O   0  0  0  0  0  0  0  0  0  0  0  0
   -5.4130   17.8750  -35.7020 O   0  0  0  0  0  0  0  0  0  0  0  0
   -4.7830   19.3440  -33.5870 C   0  0  0  0  0  0  0  0  0  0  0  0
   -3.5460   19.9040  -33.2480 C   0  0  0  0  0  0  0  0  0  0  0  0
   -3.4770   21.1760  -32.6720 C   0  0  0  0  0  0  0  0  0  0  0  0
   -4.6520   21.9040  -32.4100 C   0  0  0  0  0  0  0  0  0  0  0  0
   -4.6230   23.2150  -31.8120 N   0  0  0  0  0  0  0  0  0  0  0  0
   -5.7210   23.8060  -31.0450 C   0  0  0  0  0  0  0  0  0  0  0  0
   -5.2560   25.0830  -30.3360 C   0  0  0  0  0  0  0  0  0  0  0  0
   -3.8520   25.2290  -30.4580 O   0  0  0  0  0  0  0  0  0  0  0  0
   -3.1910   24.4840  -29.4580 C   0  0  0  0  0  0  0  0  0  0  0  0
   -5.8910   21.3230  -32.7190 C   0  0  0  0  0  0  0  0  0  0  0  0
   -5.9560   20.0530  -33.3000 C   0  0  0  0  0  0  0  0  0  0  0  0
   -8.8136   18.7832  -30.5151 H   0  0  0  0  0  0  0  0  0  0  0  0
   -8.4456   19.6153  -32.0640 H   0  0  0  0  0  0  0  0  0  0  0  0
   -9.4256   18.1099  -32.0640 H   0  0  0  0  0  0  0  0  0  0  0  0
   -6.4428   18.4520  -31.5379 H   0  0  0  0  0  0  0  0  0  0  0  0
   -7.3500   16.9838  -30.9962 H   0  0  0  0  0  0  0  0  0  0  0  0
   -7.9597   16.4168  -33.2461 H   0  0  0  0  0  0  0  0  0  0  0  0
   -7.3492   18.0221  -33.8579 H   0  0  0  0  0  0  0  0  0  0  0  0
   -6.0180   15.8060  -34.0580 H   0  0  0  0  0  0  0  0  0  0  0  0
   -4.4971   16.8378  -31.8274 H   0  0  0  0  0  0  0  0  0  0  0  0
   -5.9574   15.7626  -31.5151 H   0  0  0  0  0  0  0  0  0  0  0  0
   -4.5862   14.3887  -33.4729 H   0  0  0  0  0  0  0  0  0  0  0  0
   -3.2628   15.0646  -32.4432 H   0  0  0  0  0  0  0  0  0  0  0  0
   -4.4869   14.1662  -30.4181 H   0  0  0  0  0  0  0  0  0  0  0  0
   -5.6229   13.3399  -31.5376 H   0  0  0  0  0  0  0  0  0  0  0  0
   -3.8817   12.8985  -31.5376 H   0  0  0  0  0  0  0  0  0  0  0  0
   -2.6211   19.3391  -33.4362 H   0  0  0  0  0  0  0  0  0  0  0  0
   -2.4978   21.6104  -32.4221 H   0  0  0  0  0  0  0  0  0  0  0  0
   -3.7580   23.7950  -31.9300 H   0  0  0  0  0  0  0  0  0  0  0  0
   -6.5478   24.0518  -31.7276 H   0  0  0  0  0  0  0  0  0  0  0  0
   -6.0559   23.0814  -30.2882 H   0  0  0  0  0  0  0  0  0  0  0  0
   -5.7523   25.9525  -30.7917 H   0  0  0  0  0  0  0  0  0  0  0  0
   -5.5178   25.0161  -29.2697 H   0  0  0  0  0  0  0  0  0  0  0  0
   -3.5070   24.8401  -28.4664 H   0  0  0  0  0  0  0  0  0  0  0  0
   -3.4473   23.4195  -29.5641 H   0  0  0  0  0  0  0  0  0  0  0  0
   -2.1036   24.6117  -29.5641 H   0  0  0  0  0  0  0  0  0  0  0  0
   -6.8195   21.8715  -32.5023 H   0  0  0  0  0  0  0  0  0  0  0  0
   -6.9346   19.6080  -33.5331 H   0  0  0  0  0  0  0  0  0  0  0  0
  1  2  1  0
  2  3  1  0
  3  4  1  0
  4  5  1  0
  5  6  1  0
  6  7  1  0
  4  8  1  0
  8  9  2  0
  8 10  2  0
  8 11  1  0
 11 12  2  0
 12 13  1  0
 13 14  2  0
 14 15  1  0
 15 16  1  0
 16 17  1  0
 17 18  1  0
 18 19  1  0
 14 20  1  0
 20 21  2  0
 21 11  1  0
  1 22  1  0
  1 23  1  0
  1 24  1  0
  2 25  1  0
  2 26  1  0
  3 27  1  0
  3 28  1  0
  4 29  1  0
  5 30  1  0
  5 31  1  0
  6 32  1  0
  6 33  1  0
  7 34  1  0
  7 35  1  0
  7 36  1  0
 12 37  1  0
 13 38  1  0
 15 39  1  0
 16 40  1  0
 16 41  1  0
 17 42  1  0
 17 43  1  0
 19 44  1  0
 19 45  1  0
 19 46  1  0
 20 47  1  0
 21 48  1  0
M  CHG  1   4   1
M  END
>  <UniqueID>  (20) 
18

>  <SMILES>  (20) 
CCC[NH+](CCC)S(=O)(=O)c1ccc(NCCOC)cc1

>  <Energy>  (20) 
43.11185362633478

>  <Genealogy>  (20) 
CCC[NH+](CCC)S(=O)(=O)c1ccc(NCCOC)cc1 (protonated)
CCC[NH+](CCC)S(=O)(=O)c1ccc(NCCOC)cc1 (3D coordinates assigned)
CCC[NH+](CCC)S(=O)(=O)c1ccc(NCCOC)cc1 (optimized conformer: 43.11185362633478 kcal/mol)

>  <smiles>  (20) 
CCCN(CCC)S(=O)(=O)c1ccc(NCCOC)cc1

>  <score_type>  (20) 
oracle

>  <origin>  (20) 
adg

>  <m_score__min__energy>  (20) 
-6.8200000000000003

>  <m_primary>  (20) 
energy

$$$$
20:0
     RDKit          3D

 44 45  0  0  0  0  0  0  0  0999 V2000
   -2.6470   21.5790  -32.0370 C   0  0  0  0  0  0  0  0  0  0  0  0
   -2.2770   21.5300  -30.5580 C   0  0  0  0  0  0  0  0  0  0  0  0
   -1.6680   22.8600  -30.0950 C   0  0  0  0  0  0  0  0  0  0  0  0
   -2.6940   23.7190  -29.4820 N   0  0  0  0  0  0  0  0  0  0  0  0
   -2.5040   24.1650  -28.0930 C   0  0  0  0  0  0  0  0  0  0  0  0
   -3.8390   24.2040  -27.3570 C   0  0  0  0  0  0  0  0  0  0  0  0
   -3.8780   24.1360  -30.2090 C   0  0  0  0  0  0  0  0  0  0  0  0
   -3.9070   25.2840  -30.7330 O   0  0  0  0  0  0  0  0  0  0  0  0
   -5.0140   23.2630  -30.3550 N   0  0  0  0  0  0  0  0  0  0  0  0
   -6.1360   23.5460  -31.2110 C   0  0  0  0  0  0  0  0  0  0  0  0
   -6.3350   24.7180  -31.6330 O   0  0  0  0  0  0  0  0  0  0  0  0
   -7.0590   22.4590  -31.6010 C   0  0  0  0  0  0  0  0  0  0  0  0
   -8.4500   22.6380  -31.5830 C   0  0  0  0  0  0  0  0  0  0  0  0
   -9.2800   21.5900  -31.9870 C   0  0  0  0  0  0  0  0  0  0  0  0
   -8.7250   20.3780  -32.4030 C   0  0  0  0  0  0  0  0  0  0  0  0
   -7.3290   20.2210  -32.4040 C   0  0  0  0  0  0  0  0  0  0  0  0
   -6.6790   18.9610  -32.8460 C   0  0  0  0  0  0  0  0  0  0  0  0
   -6.2710   18.0150  -31.8890 C   0  0  0  0  0  0  0  0  0  0  0  0
   -5.6700   16.8270  -32.3030 C   0  0  0  0  0  0  0  0  0  0  0  0
   -5.4810   16.5820  -33.6620 C   0  0  0  0  0  0  0  0  0  0  0  0
   -5.9060   17.5320  -34.5920 C   0  0  0  0  0  0  0  0  0  0  0  0
   -6.4930   18.6890  -34.1740 N   0  0  0  0  0  0  0  0  0  0  0  0
   -6.5480   21.2650  -32.0110 N   0  0  0  0  0  0  0  0  0  0  0  0
   -3.7328   21.7228  -32.1388 H   0  0  0  0  0  0  0  0  0  0  0  0
   -2.1196   22.4151  -32.5194 H   0  0  0  0  0  0  0  0  0  0  0  0
   -2.3554   20.6344  -32.5194 H   0  0  0  0  0  0  0  0  0  0  0  0
   -3.1825   21.3251  -29.9680 H   0  0  0  0  0  0  0  0  0  0  0  0
   -1.5310   20.7351  -30.4113 H   0  0  0  0  0  0  0  0  0  0  0  0
   -0.8787   22.6575  -29.3561 H   0  0  0  0  0  0  0  0  0  0  0  0
   -1.2494   23.3797  -30.9695 H   0  0  0  0  0  0  0  0  0  0  0  0
   -1.8271   23.4673  -27.5782 H   0  0  0  0  0  0  0  0  0  0  0  0
   -2.0722   25.1767  -28.1002 H   0  0  0  0  0  0  0  0  0  0  0  0
   -3.6597   24.1988  -26.2717 H   0  0  0  0  0  0  0  0  0  0  0  0
   -4.3839   25.1184  -27.6342 H   0  0  0  0  0  0  0  0  0  0  0  0
   -4.4364   23.3229  -27.6342 H   0  0  0  0  0  0  0  0  0  0  0  0
   -5.0240   22.3510  -29.8530 H   0  0  0  0  0  0  0  0  0  0  0  0
   -8.8828   23.5942  -31.2540 H   0  0  0  0  0  0  0  0  0  0  0  0
  -10.3723   21.7194  -31.9775 H   0  0  0  0  0  0  0  0  0  0  0  0
   -9.3758   19.5527  -32.7274 H   0  0  0  0  0  0  0  0  0  0  0  0
   -6.4254   18.2115  -30.8178 H   0  0  0  0  0  0  0  0  0  0  0  0
   -5.3457   16.0847  -31.5587 H   0  0  0  0  0  0  0  0  0  0  0  0
   -5.0022   15.6503  -33.9978 H   0  0  0  0  0  0  0  0  0  0  0  0
   -5.7666   17.3462  -35.6672 H   0  0  0  0  0  0  0  0  0  0  0  0
   -6.8260   19.3520  -34.9070 H   0  0  0  0  0  0  0  0  0  0  0  0
  1  2  1  0
  2  3  1  0
  3  4  1  0
  4  5  1  0
  5  6  1  0
  4  7  1  0
  7  8  2  0
  7  9  1  0
  9 10  1  0
 10 11  2  0
 10 12  1  0
 12 13  2  0
 13 14  1  0
 14 15  2  0
 15 16  1  0
 16 17  1  0
 17 18  2  0
 18 19  1  0
 19 20  2  0
 20 21  1  0
 21 22  2  0
 16 23  2  0
 23 12  1  0
 22 17  1  0
  1 24  1  0
  1 25  1  0
  1 26  1  0
  2 27  1  0
  2 28  1  0
  3 29  1  0
  3 30  1  0
  5 31  1  0
  5 32  1  0
  6 33  1  0
  6 34  1  0
  6 35  1  0
  9 36  1  0
 13 37  1  0
 14 38  1  0
 15 39  1  0
 18 40  1  0
 19 41  1  0
 20 42  1  0
 21 43  1  0
 22 44  1  0
M  CHG  1  22   1
M  END
>  <UniqueID>  (21) 
19

>  <SMILES>  (21) 
CCCN(CC)C(=O)NC(=O)c1cccc(-c2cccc[nH+]2)n1

>  <Energy>  (21) 
39.875184621438464

>  <Genealogy>  (21) 
CCCN(CC)C(=O)NC(=O)c1cccc(-c2cccc[nH+]2)n1 (protonated)
CCCN(CC)C(=O)NC(=O)c1cccc(-c2cccc[nH+]2)n1 (3D coordinates assigned)
CCCN(CC)C(=O)NC(=O)c1cccc(-c2cccc[nH+]2)n1 (optimized conformer: 39.875184621438464 kcal/mol)

>  <smiles>  (21) 
CCCN(CC)C(=O)NC(=O)c1cccc(-c2ccccn2)n1

>  <score_type>  (21) 
oracle

>  <origin>  (21) 
adg

>  <m_score__min__energy>  (21) 
-8.25

>  <m_primary>  (21) 
energy

$$$$
21:0
     RDKit          3D

 41 43  0  0  0  0  0  0  0  0999 V2000
   -4.1320   24.5510  -26.7340 C   0  0  0  0  0  0  0  0  0  0  0  0
   -2.7080   25.0710  -26.5720 C   0  0  0  0  0  0  0  0  0  0  0  0
   -1.7600   24.2150  -27.2950 N   0  0  0  0  0  0  0  0  0  0  0  0
   -1.0090   23.1840  -26.5730 C   0  0  0  0  0  0  0  0  0  0  0  0
   -1.7260   24.2170  -28.7320 C   0  0  0  0  0  0  0  0  0  0  0  0
   -0.8740   24.9250  -29.3330 O   0  0  0  0  0  0  0  0  0  0  0  0
   -2.6880   23.4310  -29.5210 C   0  0  0  0  0  0  0  0  0  0  0  0
   -2.5060   22.1250  -29.9770 C   0  0  0  0  0  0  0  0  0  0  0  0
   -3.6910   21.8550  -30.6180 C   0  0  0  0  0  0  0  0  0  0  0  0
   -4.0540   20.7170  -31.2590 N   0  0  0  0  0  0  0  0  0  0  0  0
   -5.2920   20.6470  -31.8430 C   0  0  0  0  0  0  0  0  0  0  0  0
   -5.7030   19.4180  -32.5670 C   0  0  0  0  0  0  0  0  0  0  0  0
   -6.6420   18.5390  -31.9960 C   0  0  0  0  0  0  0  0  0  0  0  0
   -7.0310   17.3800  -32.6750 C   0  0  0  0  0  0  0  0  0  0  0  0
   -6.4930   17.0900  -33.9320 C   0  0  0  0  0  0  0  0  0  0  0  0
   -6.8700   15.9650  -34.5870 F   0  0  0  0  0  0  0  0  0  0  0  0
   -5.5630   17.9570  -34.5090 C   0  0  0  0  0  0  0  0  0  0  0  0
   -5.1680   19.1150  -33.8320 C   0  0  0  0  0  0  0  0  0  0  0  0
   -6.1690   21.7560  -31.7600 C   0  0  0  0  0  0  0  0  0  0  0  0
   -5.7550   22.9160  -31.0760 C   0  0  0  0  0  0  0  0  0  0  0  0
   -6.6320   24.1380  -30.9730 C   0  0  0  0  0  0  0  0  0  0  0  0
   -6.0060   25.2100  -31.5850 F   0  0  0  0  0  0  0  0  0  0  0  0
   -6.8870   24.4750  -29.6550 F   0  0  0  0  0  0  0  0  0  0  0  0
   -7.8350   23.8920  -31.6080 F   0  0  0  0  0  0  0  0  0  0  0  0
   -4.5090   22.9090  -30.5340 N   0  0  0  0  0  0  0  0  0  0  0  0
   -3.9190   23.8850  -29.8640 N   0  0  0  0  0  0  0  0  0  0  0  0
   -4.5780   24.3881  -25.7417 H   0  0  0  0  0  0  0  0  0  0  0  0
   -4.7308   25.2885  -27.2886 H   0  0  0  0  0  0  0  0  0  0  0  0
   -4.1146   23.6012  -27.2886 H   0  0  0  0  0  0  0  0  0  0  0  0
   -2.6490   26.0940  -26.9720 H   0  0  0  0  0  0  0  0  0  0  0  0
   -2.4476   25.0647  -25.5033 H   0  0  0  0  0  0  0  0  0  0  0  0
   -1.1219   23.3390  -25.4898 H   0  0  0  0  0  0  0  0  0  0  0  0
   -1.3967   22.1908  -26.8436 H   0  0  0  0  0  0  0  0  0  0  0  0
    0.0552   23.2484  -26.8436 H   0  0  0  0  0  0  0  0  0  0  0  0
   -1.6294   21.4720  -29.8537 H   0  0  0  0  0  0  0  0  0  0  0  0
   -3.3940   19.9080  -31.2890 H   0  0  0  0  0  0  0  0  0  0  0  0
   -7.0727   18.7650  -31.0094 H   0  0  0  0  0  0  0  0  0  0  0  0
   -7.7615   16.6955  -32.2191 H   0  0  0  0  0  0  0  0  0  0  0  0
   -5.1401   17.7286  -35.4984 H   0  0  0  0  0  0  0  0  0  0  0  0
   -4.4342   19.7933  -34.2917 H   0  0  0  0  0  0  0  0  0  0  0  0
   -7.1647   21.7120  -32.2255 H   0  0  0  0  0  0  0  0  0  0  0  0
  1  2  1  0
  2  3  1  0
  3  4  1  0
  3  5  1  0
  5  6  2  0
  5  7  1  0
  7  8  1  0
  8  9  2  0
  9 10  1  0
 10 11  2  0
 11 12  1  0
 12 13  2  0
 13 14  1  0
 14 15  2  0
 15 16  1  0
 15 17  1  0
 17 18  2  0
 11 19  1  0
 19 20  2  0
 20 21  1  0
 21 22  1  0
 21 23  1  0
 21 24  1  0
 20 25  1  0
 25 26  1  0
 26  7  2  0
 25  9  1  0
 18 12  1  0
  1 27  1  0
  1 28  1  0
  1 29  1  0
  2 30  1  0
  2 31  1  0
  4 32  1  0
  4 33  1  0
  4 34  1  0
  8 35  1  0
 10 36  1  0
 13 37  1  0
 14 38  1  0
 17 39  1  0
 18 40  1  0
 19 41  1  0
M  CHG  1  10   1
M  END
>  <UniqueID>  (22) 
20

>  <SMILES>  (22) 
CCN(C)C(=O)c1cc2[nH+]c(-c3ccc(F)cc3)cc(C(F)(F)F)n2n1

>  <Energy>  (22) 
83.56473234274199

>  <Genealogy>  (22) 
CCN(C)C(=O)c1cc2[nH+]c(-c3ccc(F)cc3)cc(C(F)(F)F)n2n1 (protonated)
CCN(C)C(=O)c1cc2[nH+]c(-c3ccc(F)cc3)cc(C(F)(F)F)n2n1 (3D coordinates assigned)
CCN(C)C(=O)c1cc2[nH+]c(-c3ccc(F)cc3)cc(C(F)(F)F)n2n1 (optimized conformer: 83.56473234274199 kcal/mol)

>  <smiles>  (22) 
CCN(C)C(=O)c1cc2nc(-c3ccc(F)cc3)cc(C(F)(F)F)n2n1

>  <score_type>  (22) 
oracle

>  <origin>  (22) 
adg

>  <m_score__min__energy>  (22) 
-6.9800000000000004

>  <m_primary>  (22) 
energy

$$$$
22:0
     RDKit          3D

 33 34  0  0  0  0  0  0  0  0999 V2000
   -5.5420   25.6620  -30.2550 C   0  0  0  0  0  0  0  0  0  0  0  0
   -5.0130   24.7520  -31.2130 O   0  0  0  0  0  0  0  0  0  0  0  0
   -5.6200   23.5410  -31.5820 C   0  0  0  0  0  0  0  0  0  0  0  0
   -7.0180   23.3760  -31.5800 C   0  0  0  0  0  0  0  0  0  0  0  0
   -7.5920   22.1530  -31.9520 C   0  0  0  0  0  0  0  0  0  0  0  0
   -8.9480   22.0050  -31.9680 N   0  0  0  0  0  0  0  0  0  0  0  0
   -9.5160   20.8300  -32.3420 C   0  0  0  0  0  0  0  0  0  0  0  0
   -8.7380   19.7760  -32.6940 N   0  0  0  0  0  0  0  0  0  0  0  0
   -7.3810   19.8580  -32.6850 C   0  0  0  0  0  0  0  0  0  0  0  0
   -6.6090   18.7010  -33.0450 N   0  0  0  0  0  0  0  0  0  0  0  0
   -5.9990   18.6500  -34.3720 C   0  0  0  0  0  0  0  0  0  0  0  0
   -6.8570   17.4400  -32.3470 C   0  0  0  0  0  0  0  0  0  0  0  0
   -6.7640   21.0720  -32.3220 C   0  0  0  0  0  0  0  0  0  0  0  0
   -5.3690   21.2450  -32.3430 C   0  0  0  0  0  0  0  0  0  0  0  0
   -4.7940   22.4750  -31.9690 C   0  0  0  0  0  0  0  0  0  0  0  0
   -3.4040   22.6760  -31.9680 O   0  0  0  0  0  0  0  0  0  0  0  0
   -2.4350   21.6340  -32.0050 C   0  0  0  0  0  0  0  0  0  0  0  0
   -5.3275   25.2929  -29.2412 H   0  0  0  0  0  0  0  0  0  0  0  0
   -5.0772   26.6496  -30.3917 H   0  0  0  0  0  0  0  0  0  0  0  0
   -6.6302   25.7468  -30.3917 H   0  0  0  0  0  0  0  0  0  0  0  0
   -7.6655   24.2145  -31.2838 H   0  0  0  0  0  0  0  0  0  0  0  0
   -9.5720   22.7990  -31.6980 H   0  0  0  0  0  0  0  0  0  0  0  0
  -10.6115   20.7323  -32.3597 H   0  0  0  0  0  0  0  0  0  0  0  0
   -4.9075   18.5587  -34.2705 H   0  0  0  0  0  0  0  0  0  0  0  0
   -6.3900   17.7814  -34.9222 H   0  0  0  0  0  0  0  0  0  0  0  0
   -6.2403   19.5715  -34.9222 H   0  0  0  0  0  0  0  0  0  0  0  0
   -6.8237   17.6095  -31.2607 H   0  0  0  0  0  0  0  0  0  0  0  0
   -7.8482   17.0543  -32.6277 H   0  0  0  0  0  0  0  0  0  0  0  0
   -6.0857   16.7077  -32.6277 H   0  0  0  0  0  0  0  0  0  0  0  0
   -4.7210   20.4124  -32.6542 H   0  0  0  0  0  0  0  0  0  0  0  0
   -2.1670   21.3458  -30.9778 H   0  0  0  0  0  0  0  0  0  0  0  0
   -2.8523   20.7638  -32.5329 H   0  0  0  0  0  0  0  0  0  0  0  0
   -1.5369   21.9871  -32.5329 H   0  0  0  0  0  0  0  0  0  0  0  0
  1  2  1  0
  2  3  1  0
  3  4  2  0
  4  5  1  0
  5  6  2  0
  6  7  1  0
  7  8  2  0
  8  9  1  0
  9 10  1  0
 10 11  1  0
 10 12  1  0
  9 13  2  0
 13 14  1  0
 14 15  2  0
 15 16  1  0
 16 17  1  0
 15  3  1  0
 13  5  1  0
  1 18  1  0
  1 19  1  0
  1 20  1  0
  4 21  1  0
  6 22  1  0
  7 23  1  0
 11 24  1  0
 11 25  1  0
 11 26  1  0
 12 27  1  0
 12 28  1  0
 12 29  1  0
 14 30  1  0
 17 31  1  0
 17 32  1  0
 17 33  1  0
M  CHG  1   6   1
M  END
>  <UniqueID>  (23) 
21

>  <SMILES>  (23) 
COc1cc2[nH+]cnc(N(C)C)c2cc1OC

>  <Energy>  (23) 
39.802269677018224

>  <Genealogy>  (23) 
COc1cc2[nH+]cnc(N(C)C)c2cc1OC (protonated)
COc1cc2[nH+]cnc(N(C)C)c2cc1OC (3D coordinates assigned)
COc1cc2[nH+]cnc(N(C)C)c2cc1OC (optimized conformer: 39.802269677018224 kcal/mol)

>  <smiles>  (23) 
COc1cc2ncnc(N(C)C)c2cc1OC

>  <score_type>  (23) 
oracle

>  <origin>  (23) 
adg

>  <m_score__min__energy>  (23) 
-5.6799999999999997

>  <m_primary>  (23) 
energy

$$$$
23:0
     RDKit          3D

 52 55  0  0  0  0  0  0  0  0999 V2000
   -8.3350   18.7230  -32.3190 C   0  0  0  0  0  0  0  0  0  0  0  0
   -8.2990   20.2260  -32.2230 C   0  0  0  0  0  0  0  0  0  0  0  0
   -9.4690   20.9010  -31.8320 C   0  0  0  0  0  0  0  0  0  0  0  0
   -9.4770   22.2890  -31.6900 C   0  0  0  0  0  0  0  0  0  0  0  0
   -8.3210   23.0240  -31.9450 C   0  0  0  0  0  0  0  0  0  0  0  0
   -7.1530   22.3740  -32.3490 C   0  0  0  0  0  0  0  0  0  0  0  0
   -7.1220   20.9750  -32.5020 C   0  0  0  0  0  0  0  0  0  0  0  0
   -5.8620   20.3330  -32.9560 C   0  0  0  0  0  0  0  0  0  0  0  0
   -5.7600   19.1980  -33.7450 C   0  0  0  0  0  0  0  0  0  0  0  0
   -4.4000   18.9750  -33.8670 C   0  0  0  0  0  0  0  0  0  0  0  0
   -3.7700   17.8170  -34.5490 C   0  0  0  0  0  0  0  0  0  0  0  0
   -4.3190   17.3440  -35.5810 O   0  0  0  0  0  0  0  0  0  0  0  0
   -2.5800   17.1910  -34.0020 N   0  0  0  0  0  0  0  0  0  0  0  0
   -2.9090   15.8200  -33.5460 C   0  0  0  0  0  0  0  0  0  0  0  0
   -1.6480   14.9680  -33.2990 C   0  0  0  0  0  0  0  0  0  0  0  0
   -0.4720   15.8240  -33.1200 N   0  0  0  0  0  0  0  0  0  0  0  0
   -0.1880   16.5870  -34.3450 C   0  0  0  0  0  0  0  0  0  0  0  0
   -1.4720   17.1660  -34.9800 C   0  0  0  0  0  0  0  0  0  0  0  0
   -3.7470   19.9470  -33.1840 N   0  0  0  0  0  0  0  0  0  0  0  0
   -2.3310   20.1760  -33.1050 C   0  0  0  0  0  0  0  0  0  0  0  0
   -1.6580   19.9780  -31.8930 C   0  0  0  0  0  0  0  0  0  0  0  0
   -0.2860   20.2170  -31.8050 C   0  0  0  0  0  0  0  0  0  0  0  0
    0.4220   20.6810  -32.9160 C   0  0  0  0  0  0  0  0  0  0  0  0
   -0.2460   20.9320  -34.1270 C   0  0  0  0  0  0  0  0  0  0  0  0
    0.5020   21.4100  -35.3480 C   0  0  0  0  0  0  0  0  0  0  0  0
    0.1190   22.7030  -35.6650 F   0  0  0  0  0  0  0  0  0  0  0  0
    1.8710   21.4060  -35.1330 F   0  0  0  0  0  0  0  0  0  0  0  0
    0.2110   20.5800  -36.4160 F   0  0  0  0  0  0  0  0  0  0  0  0
   -1.6240   20.6670  -34.2150 C   0  0  0  0  0  0  0  0  0  0  0  0
   -4.6280   20.7620  -32.6270 N   0  0  0  0  0  0  0  0  0  0  0  0
   -8.3453   18.2911  -31.3074 H   0  0  0  0  0  0  0  0  0  0  0  0
   -9.2409   18.4117  -32.8599 H   0  0  0  0  0  0  0  0  0  0  0  0
   -7.4451   18.3687  -32.8599 H   0  0  0  0  0  0  0  0  0  0  0  0
  -10.3877   20.3287  -31.6360 H   0  0  0  0  0  0  0  0  0  0  0  0
  -10.3971   22.8037  -31.3763 H   0  0  0  0  0  0  0  0  0  0  0  0
   -8.3285   24.1177  -31.8279 H   0  0  0  0  0  0  0  0  0  0  0  0
   -6.2458   22.9626  -32.5502 H   0  0  0  0  0  0  0  0  0  0  0  0
   -6.5792   18.6055  -34.1784 H   0  0  0  0  0  0  0  0  0  0  0  0
   -2.2560   17.7530  -33.1800 H   0  0  0  0  0  0  0  0  0  0  0  0
   -3.4804   15.8865  -32.6084 H   0  0  0  0  0  0  0  0  0  0  0  0
   -3.4948   15.3326  -34.3393 H   0  0  0  0  0  0  0  0  0  0  0  0
   -1.7940   14.3608  -32.3934 H   0  0  0  0  0  0  0  0  0  0  0  0
   -1.4834   14.3184  -34.1713 H   0  0  0  0  0  0  0  0  0  0  0  0
    0.3520   15.2090  -32.9220 H   0  0  0  0  0  0  0  0  0  0  0  0
    0.4902   17.4167  -34.0968 H   0  0  0  0  0  0  0  0  0  0  0  0
    0.2701   15.9010  -35.0727 H   0  0  0  0  0  0  0  0  0  0  0  0
   -1.2725   18.1915  -35.3243 H   0  0  0  0  0  0  0  0  0  0  0  0
   -1.7646   16.5264  -35.8258 H   0  0  0  0  0  0  0  0  0  0  0  0
   -2.2125   19.6331  -31.0078 H   0  0  0  0  0  0  0  0  0  0  0  0
    0.2406   20.0391  -30.8558 H   0  0  0  0  0  0  0  0  0  0  0  0
    1.5064   20.8506  -32.8430 H   0  0  0  0  0  0  0  0  0  0  0  0
   -2.1536   20.8459  -35.1624 H   0  0  0  0  0  0  0  0  0  0  0  0
  1  2  1  0
  2  3  2  0
  3  4  1  0
  4  5  2  0
  5  6  1  0
  6  7  2  0
  7  8  1  0
  8  9  1  0
  9 10  2  0
 10 11  1  0
 11 12  2  0
 11 13  1  0
 13 14  1  0
 14 15  1  0
 15 16  1  0
 16 17  1  0
 17 18  1  0
 10 19  1  0
 19 20  1  0
 20 21  2  0
 21 22  1  0
 22 23  2  0
 23 24  1  0
 24 25  1  0
 25 26  1  0
 25 27  1  0
 25 28  1  0
 24 29  2  0
 19 30  1  0
  7  2  1  0
 30  8  2  0
 18 13  1  0
 29 20  1  0
  1 31  1  0
  1 32  1  0
  1 33  1  0
  3 34  1  0
  4 35  1  0
  5 36  1  0
  6 37  1  0
  9 38  1  0
 13 39  1  0
 14 40  1  0
 14 41  1  0
 15 42  1  0
 15 43  1  0
 16 44  1  0
 17 45  1  0
 17 46  1  0
 18 47  1  0
 18 48  1  0
 21 49  1  0
 22 50  1  0
 23 51  1  0
 29 52  1  0
M  CHG  1  13   1
M  END
>  <UniqueID>  (24) 
22

>  <SMILES>  (24) 
Cc1ccccc1-c1cc(C(=O)[NH+]2CCNCC2)n(-c2cccc(C(F)(F)F)c2)n1

>  <Energy>  (24) 
106.54241537364061

>  <Genealogy>  (24) 
Cc1ccccc1-c1cc(C(=O)[NH+]2CCNCC2)n(-c2cccc(C(F)(F)F)c2)n1 (protonated)
Cc1ccccc1-c1cc(C(=O)[NH+]2CCNCC2)n(-c2cccc(C(F)(F)F)c2)n1 (3D coordinates assigned)
Cc1ccccc1-c1cc(C(=O)[NH+]2CCNCC2)n(-c2cccc(C(F)(F)F)c2)n1 (nonaromatic ring conformer: 106.54241537364061 kcal/mol)

>  <smiles>  (24) 
Cc1ccccc1-c1cc(C(=O)N2CCNCC2)n(-c2cccc(C(F)(F)F)c2)n1

>  <score_type>  (24) 
oracle

>  <origin>  (24) 
adg

>  <m_score__min__energy>  (24) 
-7.6299999999999999

>  <m_primary>  (24) 
energy

$$$$
24:0
     RDKit          3D

 45 47  0  0  0  0  0  0  0  0999 V2000
   -3.6960   24.8540  -26.7320 C   0  0  0  0  0  0  0  0  0  0  0  0
   -4.4140   24.4500  -27.9350 N   0  0  0  0  0  0  0  0  0  0  0  0
   -3.8250   24.5600  -29.2370 C   0  0  0  0  0  0  0  0  0  0  0  0
   -2.6430   24.9860  -29.3600 O   0  0  0  0  0  0  0  0  0  0  0  0
   -4.5960   24.1220  -30.4570 C   0  0  1  0  0  0  0  0  0  0  0  0
   -3.8430   23.0270  -31.2340 C   0  0  0  0  0  0  0  0  0  0  0  0
   -4.6080   22.6500  -32.5250 C   0  0  1  0  0  0  0  0  0  0  0  0
   -4.1980   21.2680  -33.0030 C   0  0  0  0  0  0  0  0  0  0  0  0
   -2.8400   20.9350  -33.1270 C   0  0  0  0  0  0  0  0  0  0  0  0
   -2.4750   19.6610  -33.5680 C   0  0  0  0  0  0  0  0  0  0  0  0
   -3.4320   18.7440  -33.8720 N   0  0  0  0  0  0  0  0  0  0  0  0
   -4.7550   19.0320  -33.7560 C   0  0  0  0  0  0  0  0  0  0  0  0
   -5.1630   20.2930  -33.3160 C   0  0  0  0  0  0  0  0  0  0  0  0
   -6.1420   22.7600  -32.3400 C   0  0  0  0  0  0  0  0  0  0  0  0
   -6.4990   22.5310  -30.9250 N   0  0  0  0  0  0  0  0  0  0  0  0
   -7.9500   22.3230  -30.7580 C   0  0  0  0  0  0  0  0  0  0  0  0
   -8.3530   21.0160  -31.3800 C   0  0  0  0  0  0  0  0  0  0  0  0
   -9.5130   20.9150  -32.1620 C   0  0  0  0  0  0  0  0  0  0  0  0
   -9.8300   19.6930  -32.7610 C   0  0  0  0  0  0  0  0  0  0  0  0
   -8.9940   18.5920  -32.5770 C   0  0  0  0  0  0  0  0  0  0  0  0
   -7.8470   18.7290  -31.7930 C   0  0  0  0  0  0  0  0  0  0  0  0
   -7.5530   19.9260  -31.2190 N   0  0  0  0  0  0  0  0  0  0  0  0
   -6.0240   23.6490  -30.0740 C   0  0  0  0  0  0  0  0  0  0  0  0
   -4.2612   24.5360  -25.8435 H   0  0  0  0  0  0  0  0  0  0  0  0
   -2.7021   24.3827  -26.7225 H   0  0  0  0  0  0  0  0  0  0  0  0
   -3.5830   25.9481  -26.7225 H   0  0  0  0  0  0  0  0  0  0  0  0
   -5.3810   24.0680  -27.8360 H   0  0  0  0  0  0  0  0  0  0  0  0
   -4.6927   24.9947  -31.1196 H   0  0  0  0  0  0  0  0  0  0  0  0
   -2.8424   23.3972  -31.5020 H   0  0  0  0  0  0  0  0  0  0  0  0
   -3.7608   22.1338  -30.5973 H   0  0  0  0  0  0  0  0  0  0  0  0
   -4.3325   23.3759  -33.3042 H   0  0  0  0  0  0  0  0  0  0  0  0
   -2.0655   21.6753  -32.8776 H   0  0  0  0  0  0  0  0  0  0  0  0
   -1.4115   19.3990  -33.6696 H   0  0  0  0  0  0  0  0  0  0  0  0
   -5.5066   18.2698  -34.0094 H   0  0  0  0  0  0  0  0  0  0  0  0
   -6.2339   20.5230  -33.2146 H   0  0  0  0  0  0  0  0  0  0  0  0
   -6.4739   23.7645  -32.6413 H   0  0  0  0  0  0  0  0  0  0  0  0
   -6.6359   22.0006  -32.9640 H   0  0  0  0  0  0  0  0  0  0  0  0
   -8.1955   22.3080  -29.6859 H   0  0  0  0  0  0  0  0  0  0  0  0
   -8.4930   23.1423  -31.2518 H   0  0  0  0  0  0  0  0  0  0  0  0
  -10.1664   21.7887  -32.3023 H   0  0  0  0  0  0  0  0  0  0  0  0
  -10.7370   19.5996  -33.3764 H   0  0  0  0  0  0  0  0  0  0  0  0
   -9.2357   17.6261  -33.0445 H   0  0  0  0  0  0  0  0  0  0  0  0
   -7.1804   17.8676  -31.6395 H   0  0  0  0  0  0  0  0  0  0  0  0
   -6.7175   24.4957  -30.1843 H   0  0  0  0  0  0  0  0  0  0  0  0
   -5.9892   23.2875  -29.0357 H   0  0  0  0  0  0  0  0  0  0  0  0
  1  2  1  0
  2  3  1  0
  3  4  2  0
  3  5  1  0
  5  6  1  0
  6  7  1  0
  7  8  1  0
  8  9  2  0
  9 10  1  0
 10 11  2  0
 11 12  1  0
 12 13  2  0
  7 14  1  0
 14 15  1  0
 15 16  1  0
 16 17  1  0
 17 18  2  0
 18 19  1  0
 19 20  2  0
 20 21  1  0
 21 22  2  0
 15 23  1  0
 23  5  1  0
 13  8  1  0
 22 17  1  0
  1 24  1  0
  1 25  1  0
  1 26  1  0
  2 27  1  0
  5 28  1  6
  6 29  1  0
  6 30  1  0
  7 31  1  6
  9 32  1  0
 10 33  1  0
 12 34  1  0
 13 35  1  0
 14 36  1  0
 14 37  1  0
 16 38  1  0
 16 39  1  0
 18 40  1  0
 19 41  1  0
 20 42  1  0
 21 43  1  0
 23 44  1  0
 23 45  1  0
M  END
>  <UniqueID>  (25) 
23

>  <SMILES>  (25) 
CNC(=O)[C@H]1C[C@@H](c2ccncc2)CN(Cc2ccccn2)C1

>  <Energy>  (25) 
50.41161558573195

>  <Genealogy>  (25) 
CNC(=O)[C@H]1C[C@@H](c2ccncc2)CN(Cc2ccccn2)C1 (chirality)
CNC(=O)[C@H]1C[C@@H](c2ccncc2)CN(Cc2ccccn2)C1 (3D coordinates assigned)
CNC(=O)[C@H]1C[C@@H](c2ccncc2)CN(Cc2ccccn2)C1 (nonaromatic ring conformer: 50.41161558573195 kcal/mol)

>  <smiles>  (25) 
CNC(=O)C1CC(c2ccncc2)CN(Cc2ccccn2)C1

>  <score_type>  (25) 
oracle

>  <origin>  (25) 
adg

>  <m_score__min__energy>  (25) 
-8.0500000000000007

>  <m_primary>  (25) 
energy

$$$$
25:0
     RDKit          3D

 41 43  0  0  0  0  0  0  0  0999 V2000
   -4.8940   24.6080  -28.5920 N   0  0  0  0  0  0  0  0  0  0  0  0
   -4.0350   23.8560  -29.2180 C   0  0  0  0  0  0  0  0  0  0  0  0
   -2.6240   24.0780  -29.0470 N   0  0  0  0  0  0  0  0  0  0  0  0
   -2.0870   25.3080  -28.7130 O   0  0  0  0  0  0  0  0  0  0  0  0
   -0.9160   25.4440  -27.9570 C   0  0  0  0  0  0  0  0  0  0  0  0
    0.1530   24.8860  -28.3260 O   0  0  0  0  0  0  0  0  0  0  0  0
   -0.9430   26.2250  -26.7160 C   0  0  0  0  0  0  0  0  0  0  0  0
   -1.3290   25.7610  -25.4630 C   0  0  0  0  0  0  0  0  0  0  0  0
   -1.2320   26.7350  -24.4640 C   0  0  0  0  0  0  0  0  0  0  0  0
   -0.7680   27.9630  -24.9210 C   0  0  0  0  0  0  0  0  0  0  0  0
   -0.4830   27.8370  -26.5740 S   0  0  0  0  0  0  0  0  0  0  0  0
   -4.4930   22.7500  -30.0990 C   0  0  0  0  0  0  0  0  0  0  0  0
   -5.8470   22.6630  -30.4670 C   0  0  0  0  0  0  0  0  0  0  0  0
   -6.2990   21.6110  -31.2710 C   0  0  0  0  0  0  0  0  0  0  0  0
   -5.4100   20.6230  -31.7210 C   0  0  0  0  0  0  0  0  0  0  0  0
   -5.8910   19.5150  -32.5090 N   0  0  0  0  0  0  0  0  0  0  0  0
   -5.3730   19.3270  -33.8700 C   0  0  0  0  0  0  0  0  0  0  0  0
   -5.5500   17.8650  -34.3010 C   0  0  0  0  0  0  0  0  0  0  0  0
   -6.8850   17.4400  -34.1070 O   0  0  0  0  0  0  0  0  0  0  0  0
   -7.1880   17.4420  -32.7250 C   0  0  0  0  0  0  0  0  0  0  0  0
   -7.1610   18.8690  -32.1680 C   0  0  0  0  0  0  0  0  0  0  0  0
   -4.0500   20.7260  -31.3800 C   0  0  0  0  0  0  0  0  0  0  0  0
   -3.5960   21.7780  -30.5790 C   0  0  0  0  0  0  0  0  0  0  0  0
   -5.8650   24.2860  -28.3860 H   0  0  0  0  0  0  0  0  0  0  0  0
   -4.6410   25.5730  -28.2810 H   0  0  0  0  0  0  0  0  0  0  0  0
   -1.9850   23.2550  -29.0660 H   0  0  0  0  0  0  0  0  0  0  0  0
   -1.6750   24.7336  -25.2768 H   0  0  0  0  0  0  0  0  0  0  0  0
   -1.4983   26.5466  -23.4135 H   0  0  0  0  0  0  0  0  0  0  0  0
   -0.6137   28.8626  -24.3071 H   0  0  0  0  0  0  0  0  0  0  0  0
   -6.5569   23.4283  -30.1200 H   0  0  0  0  0  0  0  0  0  0  0  0
   -7.3609   21.5579  -31.5529 H   0  0  0  0  0  0  0  0  0  0  0  0
   -5.9235   19.9803  -34.5629 H   0  0  0  0  0  0  0  0  0  0  0  0
   -4.3031   19.5819  -33.8878 H   0  0  0  0  0  0  0  0  0  0  0  0
   -5.2929   17.7699  -35.3663 H   0  0  0  0  0  0  0  0  0  0  0  0
   -4.8880   17.2353  -33.6884 H   0  0  0  0  0  0  0  0  0  0  0  0
   -8.1901   17.0142  -32.5742 H   0  0  0  0  0  0  0  0  0  0  0  0
   -6.4336   16.8410  -32.1961 H   0  0  0  0  0  0  0  0  0  0  0  0
   -7.9912   19.4454  -32.6021 H   0  0  0  0  0  0  0  0  0  0  0  0
   -7.2653   18.8319  -31.0736 H   0  0  0  0  0  0  0  0  0  0  0  0
   -3.3372   19.9726  -31.7465 H   0  0  0  0  0  0  0  0  0  0  0  0
   -2.5287   21.8464  -30.3219 H   0  0  0  0  0  0  0  0  0  0  0  0
  1  2  2  0
  2  3  1  0
  3  4  1  0
  4  5  1  0
  5  6  2  0
  5  7  1  0
  7  8  2  0
  8  9  1  0
  9 10  2  0
 10 11  1  0
  2 12  1  0
 12 13  2  0
 13 14  1  0
 14 15  2  0
 15 16  1  0
 16 17  1  0
 17 18  1  0
 18 19  1  0
 19 20  1  0
 20 21  1  0
 15 22  1  0
 22 23  2  0
 11  7  1  0
 23 12  1  0
 21 16  1  0
  1 24  1  0
  1 25  1  0
  3 26  1  0
  8 27  1  0
  9 28  1  0
 10 29  1  0
 13 30  1  0
 14 31  1  0
 17 32  1  0
 17 33  1  0
 18 34  1  0
 18 35  1  0
 20 36  1  0
 20 37  1  0
 21 38  1  0
 21 39  1  0
 22 40  1  0
 23 41  1  0
M  CHG  1   1   1
M  END
>  <UniqueID>  (26) 
24

>  <SMILES>  (26) 
[NH2+]=C(NOC(=O)c1cccs1)c1ccc(N2CCOCC2)cc1

>  <Energy>  (26) 
81.30266237387018

>  <Genealogy>  (26) 
[NH2+]=C(NOC(=O)c1cccs1)c1ccc(N2CCOCC2)cc1 (protonated)
[NH2+]=C(NOC(=O)c1cccs1)c1ccc(N2CCOCC2)cc1 (3D coordinates assigned)
[NH2+]=C(NOC(=O)c1cccs1)c1ccc(N2CCOCC2)cc1 (nonaromatic ring conformer: 81.30266237387018 kcal/mol)

>  <smiles>  (26) 
N=C(NOC(=O)c1cccs1)c1ccc(N2CCOCC2)cc1

>  <score_type>  (26) 
oracle

>  <origin>  (26) 
adg

>  <m_score__min__energy>  (26) 
-6.9100000000000001

>  <m_primary>  (26) 
energy

$$$$
26:0
     RDKit          3D

 33 35  0  0  0  0  0  0  0  0999 V2000
   -3.9250   24.0850  -26.7710 C   0  0  0  0  0  0  0  0  0  0  0  0
   -3.3750   23.0480  -27.6970 C   0  0  0  0  0  0  0  0  0  0  0  0
   -3.4710   21.7240  -27.4700 N   0  0  0  0  0  0  0  0  0  0  0  0
   -2.9330   21.1200  -28.4910 O   0  0  0  0  0  0  0  0  0  0  0  0
   -2.4840   21.9800  -29.3770 C   0  0  0  0  0  0  0  0  0  0  0  0
   -1.7940   21.5750  -30.6170 C   0  0  0  0  0  0  0  0  0  0  0  0
   -0.4550   21.1630  -30.5690 C   0  0  0  0  0  0  0  0  0  0  0  0
    0.2080   20.8020  -31.7430 C   0  0  0  0  0  0  0  0  0  0  0  0
   -0.4700   20.8760  -32.9610 C   0  0  0  0  0  0  0  0  0  0  0  0
   -1.7590   21.3040  -32.9980 N   0  0  0  0  0  0  0  0  0  0  0  0
   -2.4270   21.6580  -31.8680 C   0  0  0  0  0  0  0  0  0  0  0  0
   -2.7580   23.2630  -28.9190 C   0  0  0  0  0  0  0  0  0  0  0  0
   -2.5730   24.5520  -29.6150 C   0  0  0  0  0  0  0  0  0  0  0  0
   -1.6480   25.3290  -29.2570 O   0  0  0  0  0  0  0  0  0  0  0  0
   -3.4980   24.9500  -30.6340 N   0  0  0  0  0  0  0  0  0  0  0  0
   -4.8260   24.4450  -30.8300 C   0  0  0  0  0  0  0  0  0  0  0  0
   -5.9370   24.9840  -30.1570 C   0  0  0  0  0  0  0  0  0  0  0  0
   -7.2200   24.4800  -30.4000 C   0  0  0  0  0  0  0  0  0  0  0  0
   -7.4030   23.4480  -31.3240 C   0  0  0  0  0  0  0  0  0  0  0  0
   -6.3060   22.9240  -32.0130 C   0  0  0  0  0  0  0  0  0  0  0  0
   -5.0230   23.4260  -31.7730 C   0  0  0  0  0  0  0  0  0  0  0  0
   -3.7589   23.7719  -25.7297 H   0  0  0  0  0  0  0  0  0  0  0  0
   -3.4169   25.0439  -26.9510 H   0  0  0  0  0  0  0  0  0  0  0  0
   -5.0038   24.2022  -26.9510 H   0  0  0  0  0  0  0  0  0  0  0  0
    0.0737   21.1242  -29.6052 H   0  0  0  0  0  0  0  0  0  0  0  0
    1.2538   20.4627  -31.7088 H   0  0  0  0  0  0  0  0  0  0  0  0
    0.0399   20.5874  -33.8920 H   0  0  0  0  0  0  0  0  0  0  0  0
   -3.4669   22.0107  -31.9338 H   0  0  0  0  0  0  0  0  0  0  0  0
   -5.7973   25.8042  -29.4374 H   0  0  0  0  0  0  0  0  0  0  0  0
   -8.0849   24.8967  -29.8631 H   0  0  0  0  0  0  0  0  0  0  0  0
   -8.4108   23.0479  -31.5091 H   0  0  0  0  0  0  0  0  0  0  0  0
   -6.4518   22.1159  -32.7449 H   0  0  0  0  0  0  0  0  0  0  0  0
   -4.1639   23.0194  -32.3268 H   0  0  0  0  0  0  0  0  0  0  0  0
  1  2  1  0
  2  3  2  0
  3  4  1  0
  4  5  1  0
  5  6  1  0
  6  7  2  0
  7  8  1  0
  8  9  2  0
  9 10  1  0
 10 11  2  0
  5 12  2  0
 12 13  1  0
 13 14  2  0
 13 15  1  0
 15 16  1  0
 16 17  2  0
 17 18  1  0
 18 19  2  0
 19 20  1  0
 20 21  2  0
 12  2  1  0
 21 16  1  0
 11  6  1  0
  1 22  1  0
  1 23  1  0
  1 24  1  0
  7 25  1  0
  8 26  1  0
  9 27  1  0
 11 28  1  0
 17 29  1  0
 18 30  1  0
 19 31  1  0
 20 32  1  0
 21 33  1  0
M  CHG  1  15  -1
M  END
>  <UniqueID>  (27) 
25

>  <SMILES>  (27) 
Cc1noc(-c2cccnc2)c1C(=O)[N-]c1ccccc1

>  <Energy>  (27) 
75.29478667035625

>  <Genealogy>  (27) 
Cc1noc(-c2cccnc2)c1C(=O)[N-]c1ccccc1 (protonated)
Cc1noc(-c2cccnc2)c1C(=O)[N-]c1ccccc1 (3D coordinates assigned)
Cc1noc(-c2cccnc2)c1C(=O)[N-]c1ccccc1 (optimized conformer: 75.29478667035625 kcal/mol)

>  <smiles>  (27) 
Cc1noc(-c2cccnc2)c1C(=O)Nc1ccccc1

>  <score_type>  (27) 
oracle

>  <origin>  (27) 
adg

>  <m_score__min__energy>  (27) 
-8.2300000000000004

>  <m_primary>  (27) 
energy

$$$$
27:0
     RDKit          3D

 30 31  0  0  0  0  0  0  0  0999 V2000
   -3.1630   22.3800  -28.1660 C   0  0  0  0  0  0  0  0  0  0  0  0
   -3.5880   23.7900  -28.6100 C   0  0  0  0  0  0  0  0  0  0  0  0
   -2.3470   24.5790  -29.0710 C   0  0  0  0  0  0  0  0  0  0  0  0
   -4.2350   24.5300  -27.4220 C   0  0  0  0  0  0  0  0  0  0  0  0
   -4.5790   23.6640  -29.7490 C   0  0  0  0  0  0  0  0  0  0  0  0
   -4.5860   24.4720  -30.8340 N   0  0  0  0  0  0  0  0  0  0  0  0
   -5.5560   23.9310  -31.5950 C   0  0  0  0  0  0  0  0  0  0  0  0
   -6.0930   22.8440  -31.0080 N   0  0  0  0  0  0  0  0  0  0  0  0
   -7.1360   21.9820  -31.5100 C   0  0  0  0  0  0  0  0  0  0  0  0
   -8.4990   22.2850  -31.3130 C   0  0  0  0  0  0  0  0  0  0  0  0
   -9.4930   21.4350  -31.8070 C   0  0  0  0  0  0  0  0  0  0  0  0
   -9.1430   20.2740  -32.5000 C   0  0  0  0  0  0  0  0  0  0  0  0
   -7.7980   19.9590  -32.6990 C   0  0  0  0  0  0  0  0  0  0  0  0
   -6.7990   20.8050  -32.2070 C   0  0  0  0  0  0  0  0  0  0  0  0
   -5.4760   22.6620  -29.8550 N   0  0  0  0  0  0  0  0  0  0  0  0
   -3.1481   22.3305  -27.0672 H   0  0  0  0  0  0  0  0  0  0  0  0
   -3.8784   21.6414  -28.5566 H   0  0  0  0  0  0  0  0  0  0  0  0
   -2.1586   22.1598  -28.5566 H   0  0  0  0  0  0  0  0  0  0  0  0
   -1.7900   24.9332  -28.1911 H   0  0  0  0  0  0  0  0  0  0  0  0
   -1.7008   23.9256  -29.6755 H   0  0  0  0  0  0  0  0  0  0  0  0
   -2.6645   25.4414  -29.6755 H   0  0  0  0  0  0  0  0  0  0  0  0
   -3.8629   24.1044  -26.4784 H   0  0  0  0  0  0  0  0  0  0  0  0
   -3.9757   25.5979  -27.4701 H   0  0  0  0  0  0  0  0  0  0  0  0
   -5.3280   24.4156  -27.4701 H   0  0  0  0  0  0  0  0  0  0  0  0
   -5.8702   24.3265  -32.5722 H   0  0  0  0  0  0  0  0  0  0  0  0
   -8.7822   23.1968  -30.7667 H   0  0  0  0  0  0  0  0  0  0  0  0
  -10.5534   21.6812  -31.6495 H   0  0  0  0  0  0  0  0  0  0  0  0
   -9.9273   19.6080  -32.8889 H   0  0  0  0  0  0  0  0  0  0  0  0
   -7.5232   19.0437  -33.2438 H   0  0  0  0  0  0  0  0  0  0  0  0
   -5.7410   20.5492  -32.3656 H   0  0  0  0  0  0  0  0  0  0  0  0
  1  2  1  0
  2  3  1  0
  2  4  1  0
  2  5  1  0
  5  6  1  0
  6  7  2  0
  7  8  1  0
  8  9  1  0
  9 10  2  0
 10 11  1  0
 11 12  2  0
 12 13  1  0
 13 14  2  0
  8 15  1  0
 15  5  2  0
 14  9  1  0
  1 16  1  0
  1 17  1  0
  1 18  1  0
  3 19  1  0
  3 20  1  0
  3 21  1  0
  4 22  1  0
  4 23  1  0
  4 24  1  0
  7 25  1  0
 10 26  1  0
 11 27  1  0
 12 28  1  0
 13 29  1  0
 14 30  1  0
M  END
>  <UniqueID>  (28) 
26

>  <SMILES>  (28) 
CC(C)(C)c1ncn(-c2ccccc2)n1

>  <Energy>  (28) 
60.57087350610612

>  <Genealogy>  (28) 
CC(C)(C)c1ncn(-c2ccccc2)n1 (3D coordinates assigned)
CC(C)(C)c1ncn(-c2ccccc2)n1 (optimized conformer: 60.57087350610612 kcal/mol)

>  <smiles>  (28) 
CC(C)(C)c1ncn(-c2ccccc2)n1

>  <score_type>  (28) 
oracle

>  <origin>  (28) 
adg

>  <m_score__min__energy>  (28) 
-6.3499999999999996

>  <m_primary>  (28) 
energy

$$$$
28:0
     RDKit          3D

 27 29  0  0  0  0  0  0  0  0999 V2000
   -8.6550   23.4150  -31.9750 C   0  0  0  0  0  0  0  0  0  0  0  0
   -7.4490   22.5870  -32.0200 N   0  0  0  0  0  0  0  0  0  0  0  0
   -7.4900   21.3220  -32.4790 N   0  0  0  0  0  0  0  0  0  0  0  0
   -6.3630   20.5190  -32.5320 C   0  0  0  0  0  0  0  0  0  0  0  0
   -6.4240   19.1400  -33.0630 C   0  0  0  0  0  0  0  0  0  0  0  0
   -5.8280   18.6460  -34.2240 C   0  0  0  0  0  0  0  0  0  0  0  0
   -6.0800   17.2860  -34.4430 C   0  0  0  0  0  0  0  0  0  0  0  0
   -6.8710   16.6970  -33.4660 C   0  0  0  0  0  0  0  0  0  0  0  0
   -7.2550   17.8720  -32.3280 S   0  0  0  0  0  0  0  0  0  0  0  0
   -5.1550   20.9930  -32.0900 N   0  0  0  0  0  0  0  0  0  0  0  0
   -5.1240   22.2430  -31.5910 C   0  0  0  0  0  0  0  0  0  0  0  0
   -4.0790   22.9520  -31.1540 N   0  0  0  0  0  0  0  0  0  0  0  0
   -2.6740   22.5570  -31.1370 C   0  0  0  0  0  0  0  0  0  0  0  0
   -4.6120   24.1770  -30.8820 C   0  0  0  0  0  0  0  0  0  0  0  0
   -3.9220   25.1460  -30.4680 O   0  0  0  0  0  0  0  0  0  0  0  0
   -5.9550   24.2840  -31.1090 N   0  0  0  0  0  0  0  0  0  0  0  0
   -6.2660   23.0510  -31.5530 C   0  0  0  0  0  0  0  0  0  0  0  0
   -8.9308   23.6044  -30.9271 H   0  0  0  0  0  0  0  0  0  0  0  0
   -8.4619   24.3719  -32.4820 H   0  0  0  0  0  0  0  0  0  0  0  0
   -9.4786   22.8910  -32.4820 H   0  0  0  0  0  0  0  0  0  0  0  0
   -8.4030   20.9440  -32.8140 H   0  0  0  0  0  0  0  0  0  0  0  0
   -5.2199   19.2642  -34.9008 H   0  0  0  0  0  0  0  0  0  0  0  0
   -5.6870   16.7348  -35.3100 H   0  0  0  0  0  0  0  0  0  0  0  0
   -7.1906   15.6447  -33.4412 H   0  0  0  0  0  0  0  0  0  0  0  0
   -2.3327   22.4610  -30.0957 H   0  0  0  0  0  0  0  0  0  0  0  0
   -2.5583   21.5915  -31.6512 H   0  0  0  0  0  0  0  0  0  0  0  0
   -2.0721   23.3208  -31.6512 H   0  0  0  0  0  0  0  0  0  0  0  0
  1  2  1  0
  2  3  1  0
  3  4  2  0
  4  5  1  0
  5  6  2  0
  6  7  1  0
  7  8  2  0
  8  9  1  0
  4 10  1  0
 10 11  2  0
 11 12  1  0
 12 13  1  0
 12 14  1  0
 14 15  2  0
 14 16  1  0
 16 17  2  0
 17  2  1  0
  9  5  1  0
 17 11  1  0
  1 18  1  0
  1 19  1  0
  1 20  1  0
  3 21  1  0
  6 22  1  0
  7 23  1  0
  8 24  1  0
 13 25  1  0
 13 26  1  0
 13 27  1  0
M  CHG  1   3   1
M  END
>  <UniqueID>  (29) 
27

>  <SMILES>  (29) 
Cn1[nH+]c(-c2cccs2)nc2n(C)c(=O)nc1-2

>  <Energy>  (29) 
100.25008325865366

>  <Genealogy>  (29) 
Cn1[nH+]c(-c2cccs2)nc2n(C)c(=O)nc1-2 (protonated)
Cn1[nH+]c(-c2cccs2)nc2n(C)c(=O)nc1-2 (3D coordinates assigned)
Cn1[nH+]c(-c2cccs2)nc2n(C)c(=O)nc1-2 (optimized conformer: 100.25008325865366 kcal/mol)

>  <smiles>  (29) 
Cn1nc(-c2cccs2)nc2n(C)c(=O)nc1-2

>  <score_type>  (29) 
oracle

>  <origin>  (29) 
adg

>  <m_score__min__energy>  (29) 
-6.3300000000000001

>  <m_primary>  (29) 
energy

$$$$
29:0
     RDKit          3D

 36 39  0  0  0  0  0  0  0  0999 V2000
   -1.5680   21.1880  -26.7740 Cl  0  0  0  0  0  0  0  0  0  0  0  0
   -2.4960   22.1710  -27.8920 C   0  0  0  0  0  0  0  0  0  0  0  0
   -3.8930   22.1950  -27.8100 C   0  0  0  0  0  0  0  0  0  0  0  0
   -4.6330   22.9780  -28.7010 C   0  0  0  0  0  0  0  0  0  0  0  0
   -3.9780   23.7320  -29.6840 C   0  0  0  0  0  0  0  0  0  0  0  0
   -4.9300   24.7180  -30.8390 S   0  0  0  0  0  0  0  0  0  0  0  0
   -6.0730   23.3770  -31.1760 C   0  0  0  0  0  0  0  0  0  0  0  0
   -7.4170   23.5260  -31.0490 N   0  0  0  0  0  0  0  0  0  0  0  0
   -7.8910   22.3340  -31.4540 C   0  0  0  0  0  0  0  0  0  0  0  0
   -9.2230   21.9300  -31.5200 C   0  0  0  0  0  0  0  0  0  0  0  0
   -9.4900   20.6230  -31.9680 C   0  0  0  0  0  0  0  0  0  0  0  0
   -8.4310   19.7610  -32.3310 C   0  0  0  0  0  0  0  0  0  0  0  0
   -7.0970   20.1990  -32.2540 C   0  0  0  0  0  0  0  0  0  0  0  0
   -6.8680   21.5060  -31.8160 C   0  0  0  0  0  0  0  0  0  0  0  0
   -5.7030   22.1540  -31.6400 N   0  0  0  0  0  0  0  0  0  0  0  0
   -4.3780   21.6870  -31.9380 C   0  0  0  0  0  0  0  0  0  0  0  0
   -3.7760   22.0010  -33.1670 C   0  0  0  0  0  0  0  0  0  0  0  0
   -2.4960   21.5250  -33.4670 C   0  0  0  0  0  0  0  0  0  0  0  0
   -1.8100   20.7310  -32.5420 C   0  0  0  0  0  0  0  0  0  0  0  0
   -2.4040   20.4130  -31.3170 C   0  0  0  0  0  0  0  0  0  0  0  0
   -3.6830   20.8890  -31.0150 C   0  0  0  0  0  0  0  0  0  0  0  0
   -2.5800   23.7140  -29.7600 C   0  0  0  0  0  0  0  0  0  0  0  0
   -1.8400   22.9320  -28.8670 C   0  0  0  0  0  0  0  0  0  0  0  0
   -4.4090   21.5974  -27.0441 H   0  0  0  0  0  0  0  0  0  0  0  0
   -5.7305   23.0022  -28.6304 H   0  0  0  0  0  0  0  0  0  0  0  0
  -10.0383   22.6098  -31.2316 H   0  0  0  0  0  0  0  0  0  0  0  0
  -10.5297   20.2702  -32.0360 H   0  0  0  0  0  0  0  0  0  0  0  0
   -8.6516   18.7401  -32.6763 H   0  0  0  0  0  0  0  0  0  0  0  0
   -6.2632   19.5362  -32.5288 H   0  0  0  0  0  0  0  0  0  0  0  0
   -4.3136   22.6241  -33.8969 H   0  0  0  0  0  0  0  0  0  0  0  0
   -2.0283   21.7750  -34.4307 H   0  0  0  0  0  0  0  0  0  0  0  0
   -0.8030   20.3568  -32.7785 H   0  0  0  0  0  0  0  0  0  0  0  0
   -1.8644   19.7878  -30.5904 H   0  0  0  0  0  0  0  0  0  0  0  0
   -4.1472   20.6374  -30.0500 H   0  0  0  0  0  0  0  0  0  0  0  0
   -2.0633   24.3153  -30.5225 H   0  0  0  0  0  0  0  0  0  0  0  0
   -0.7420   22.9149  -28.9308 H   0  0  0  0  0  0  0  0  0  0  0  0
  1  2  1  0
  2  3  2  0
  3  4  1  0
  4  5  2  0
  5  6  1  0
  6  7  1  0
  7  8  2  0
  8  9  1  0
  9 10  2  0
 10 11  1  0
 11 12  2  0
 12 13  1  0
 13 14  2  0
 14 15  1  0
 15 16  1  0
 16 17  2  0
 17 18  1  0
 18 19  2  0
 19 20  1  0
 20 21  2  0
  5 22  1  0
 22 23  2  0
 23  2  1  0
 15  7  1  0
 21 16  1  0
 14  9  1  0
  3 24  1  0
  4 25  1  0
 10 26  1  0
 11 27  1  0
 12 28  1  0
 13 29  1  0
 17 30  1  0
 18 31  1  0
 19 32  1  0
 20 33  1  0
 21 34  1  0
 22 35  1  0
 23 36  1  0
M  END
>  <UniqueID>  (30) 
28

>  <SMILES>  (30) 
Clc1ccc(Sc2nc3ccccc3n2-c2ccccc2)cc1

>  <Energy>  (30) 
78.65435014600807

>  <Genealogy>  (30) 
Clc1ccc(Sc2nc3ccccc3n2-c2ccccc2)cc1 (3D coordinates assigned)
Clc1ccc(Sc2nc3ccccc3n2-c2ccccc2)cc1 (optimized conformer: 78.65435014600807 kcal/mol)

>  <smiles>  (30) 
Clc1ccc(Sc2nc3ccccc3n2-c2ccccc2)cc1

>  <score_type>  (30) 
oracle

>  <origin>  (30) 
adg

>  <m_score__min__energy>  (30) 
-7.9500000000000002

>  <m_primary>  (30) 
energy

$$$$
30:0
     RDKit          3D

 34 36  0  0  0  0  0  0  0  0999 V2000
   -5.7380   26.0790  -30.0780 C   0  0  0  0  0  0  0  0  0  0  0  0
   -4.8860   25.2630  -30.8750 O   0  0  0  0  0  0  0  0  0  0  0  0
   -5.1900   23.9530  -31.2770 C   0  0  0  0  0  0  0  0  0  0  0  0
   -6.2840   23.6620  -32.1170 C   0  0  0  0  0  0  0  0  0  0  0  0
   -6.5530   22.3440  -32.4960 C   0  0  0  0  0  0  0  0  0  0  0  0
   -5.7350   21.3000  -32.0470 C   0  0  0  0  0  0  0  0  0  0  0  0
   -6.0150   19.9420  -32.4380 N   0  0  0  0  0  0  0  0  0  0  0  0
   -7.2290   19.3690  -32.1440 C   0  0  0  0  0  0  0  0  0  0  0  0
   -8.3010   20.1190  -31.4050 C   0  0  0  0  0  0  0  0  0  0  0  0
   -7.4860   18.0900  -32.5270 N   0  0  0  0  0  0  0  0  0  0  0  0
   -6.5680   17.3480  -33.1920 C   0  0  0  0  0  0  0  0  0  0  0  0
   -6.8700   16.0340  -33.5670 C   0  0  0  0  0  0  0  0  0  0  0  0
   -5.9220   15.2660  -34.2510 C   0  0  0  0  0  0  0  0  0  0  0  0
   -4.6710   15.8090  -34.5600 C   0  0  0  0  0  0  0  0  0  0  0  0
   -4.3620   17.1210  -34.1880 C   0  0  0  0  0  0  0  0  0  0  0  0
   -5.3110   17.9010  -33.4990 C   0  0  0  0  0  0  0  0  0  0  0  0
   -5.0540   19.2250  -33.1040 C   0  0  0  0  0  0  0  0  0  0  0  0
   -3.9380   19.7550  -33.3710 O   0  0  0  0  0  0  0  0  0  0  0  0
   -4.6500   21.5830  -31.2070 C   0  0  0  0  0  0  0  0  0  0  0  0
   -4.3770   22.9010  -30.8260 C   0  0  0  0  0  0  0  0  0  0  0  0
   -2.8810   23.2470  -29.6840 Br  0  0  0  0  0  0  0  0  0  0  0  0
   -5.5381   25.8876  -29.0134 H   0  0  0  0  0  0  0  0  0  0  0  0
   -5.5458   27.1386  -30.3024 H   0  0  0  0  0  0  0  0  0  0  0  0
   -6.7883   25.8413  -30.3024 H   0  0  0  0  0  0  0  0  0  0  0  0
   -6.9296   24.4769  -32.4762 H   0  0  0  0  0  0  0  0  0  0  0  0
   -7.4106   22.1259  -33.1495 H   0  0  0  0  0  0  0  0  0  0  0  0
   -8.1447   20.0096  -30.3217 H   0  0  0  0  0  0  0  0  0  0  0  0
   -8.2567   21.1841  -31.6762 H   0  0  0  0  0  0  0  0  0  0  0  0
   -9.2864   19.7123  -31.6762 H   0  0  0  0  0  0  0  0  0  0  0  0
   -7.8533   15.6050  -33.3238 H   0  0  0  0  0  0  0  0  0  0  0  0
   -6.1608   14.2336  -34.5462 H   0  0  0  0  0  0  0  0  0  0  0  0
   -3.9275   15.2020  -35.0975 H   0  0  0  0  0  0  0  0  0  0  0  0
   -3.3769   17.5443  -34.4337 H   0  0  0  0  0  0  0  0  0  0  0  0
   -4.0098   20.7649  -30.8454 H   0  0  0  0  0  0  0  0  0  0  0  0
  1  2  1  0
  2  3  1  0
  3  4  2  0
  4  5  1  0
  5  6  2  0
  6  7  1  0
  7  8  1  0
  8  9  1  0
  8 10  2  0
 10 11  1  0
 11 12  2  0
 12 13  1  0
 13 14  2  0
 14 15  1  0
 15 16  2  0
 16 17  1  0
 17 18  2  0
  6 19  1  0
 19 20  2  0
 20 21  1  0
 20  3  1  0
 17  7  1  0
 16 11  1  0
  1 22  1  0
  1 23  1  0
  1 24  1  0
  4 25  1  0
  5 26  1  0
  9 27  1  0
  9 28  1  0
  9 29  1  0
 12 30  1  0
 13 31  1  0
 14 32  1  0
 15 33  1  0
 19 34  1  0
M  END
>  <UniqueID>  (31) 
29

>  <SMILES>  (31) 
COc1ccc(-n2c(C)nc3ccccc3c2=O)cc1Br

>  <Energy>  (31) 
49.92067793822106

>  <Genealogy>  (31) 
COc1ccc(-n2c(C)nc3ccccc3c2=O)cc1Br (3D coordinates assigned)
COc1ccc(-n2c(C)nc3ccccc3c2=O)cc1Br (optimized conformer: 49.92067793822106 kcal/mol)

>  <smiles>  (31) 
COc1ccc(-n2c(C)nc3ccccc3c2=O)cc1Br

>  <score_type>  (31) 
oracle

>  <origin>  (31) 
adg

>  <m_score__min__energy>  (31) 
-7.7699999999999996

>  <m_primary>  (31) 
energy

$$$$
31:0
     RDKit          3D

 44 45  0  0  0  0  0  0  0  0999 V2000
   -1.4680   20.1600  -28.1640 C   0  0  0  0  0  0  0  0  0  0  0  0
   -2.1620   21.5100  -27.9930 C   0  0  0  0  0  0  0  0  0  0  0  0
   -1.5780   22.5210  -28.9050 N   0  0  0  0  0  0  0  0  0  0  0  0
   -1.0060   23.6660  -28.1580 C   0  0  0  0  0  0  0  0  0  0  0  0
   -1.9350   24.8750  -28.2530 C   0  0  0  0  0  0  0  0  0  0  0  0
   -1.6050   25.6650  -29.3390 F   0  0  0  0  0  0  0  0  0  0  0  0
   -0.5770   21.9040  -29.8090 C   0  0  0  0  0  0  0  0  0  0  0  0
   -1.0780   21.9300  -31.2570 C   0  0  0  0  0  0  0  0  0  0  0  0
   -2.5070   22.2400  -31.2920 N   0  0  0  0  0  0  0  0  0  0  0  0
   -3.4360   21.5100  -32.1100 C   0  0  0  0  0  0  0  0  0  0  0  0
   -3.0170   20.6250  -32.9030 O   0  0  0  0  0  0  0  0  0  0  0  0
   -4.8910   21.7290  -31.9940 C   0  0  0  0  0  0  0  0  0  0  0  0
   -5.7310   20.7270  -32.3720 N   0  0  0  0  0  0  0  0  0  0  0  0
   -7.0790   20.8540  -32.2790 C   0  0  0  0  0  0  0  0  0  0  0  0
   -7.9240   19.8060  -32.6630 C   0  0  0  0  0  0  0  0  0  0  0  0
   -9.3110   19.9550  -32.5530 C   0  0  0  0  0  0  0  0  0  0  0  0
   -9.8550   21.1470  -32.0620 C   0  0  0  0  0  0  0  0  0  0  0  0
   -9.0130   22.1990  -31.6780 C   0  0  0  0  0  0  0  0  0  0  0  0
   -7.6260   22.0530  -31.7860 C   0  0  0  0  0  0  0  0  0  0  0  0
   -6.7930   23.0640  -31.4270 N   0  0  0  0  0  0  0  0  0  0  0  0
   -5.4390   22.9410  -31.5250 C   0  0  0  0  0  0  0  0  0  0  0  0
   -4.6090   24.0180  -31.1930 O   0  0  0  0  0  0  0  0  0  0  0  0
   -4.9600   24.9890  -30.2150 C   0  0  0  0  0  0  0  0  0  0  0  0
   -1.2483   19.7327  -27.1745 H   0  0  0  0  0  0  0  0  0  0  0  0
   -2.1267   19.4769  -28.7203 H   0  0  0  0  0  0  0  0  0  0  0  0
   -0.5292   20.2982  -28.7203 H   0  0  0  0  0  0  0  0  0  0  0  0
   -3.2326   21.3963  -28.2187 H   0  0  0  0  0  0  0  0  0  0  0  0
   -2.0233   21.8489  -26.9557 H   0  0  0  0  0  0  0  0  0  0  0  0
   -0.8820   23.3852  -27.1017 H   0  0  0  0  0  0  0  0  0  0  0  0
   -0.0306   23.9277  -28.5941 H   0  0  0  0  0  0  0  0  0  0  0  0
   -2.9719   24.5250  -28.3638 H   0  0  0  0  0  0  0  0  0  0  0  0
   -1.8283   25.4739  -27.3365 H   0  0  0  0  0  0  0  0  0  0  0  0
    0.3668   22.4651  -29.7418 H   0  0  0  0  0  0  0  0  0  0  0  0
   -0.4176   20.8589  -29.5050 H   0  0  0  0  0  0  0  0  0  0  0  0
   -0.5258   22.6978  -31.8187 H   0  0  0  0  0  0  0  0  0  0  0  0
   -0.9141   20.9416  -31.7111 H   0  0  0  0  0  0  0  0  0  0  0  0
   -2.8750   22.8550  -30.5330 H   0  0  0  0  0  0  0  0  0  0  0  0
   -7.4989   18.8682  -33.0500 H   0  0  0  0  0  0  0  0  0  0  0  0
   -9.9761   19.1320  -32.8536 H   0  0  0  0  0  0  0  0  0  0  0  0
  -10.9461   21.2584  -31.9773 H   0  0  0  0  0  0  0  0  0  0  0  0
   -9.4411   23.1363  -31.2930 H   0  0  0  0  0  0  0  0  0  0  0  0
   -4.8080   24.5686  -29.2099 H   0  0  0  0  0  0  0  0  0  0  0  0
   -4.3271   25.8800  -30.3393 H   0  0  0  0  0  0  0  0  0  0  0  0
   -6.0164   25.2694  -30.3393 H   0  0  0  0  0  0  0  0  0  0  0  0
  1  2  1  0
  2  3  1  0
  3  4  1  0
  4  5  1  0
  5  6  1  0
  3  7  1  0
  7  8  1  0
  8  9  1  0
  9 10  1  0
 10 11  2  0
 10 12  1  0
 12 13  2  0
 13 14  1  0
 14 15  2  0
 15 16  1  0
 16 17  2  0
 17 18  1  0
 18 19  2  0
 19 20  1  0
 20 21  2  0
 21 22  1  0
 22 23  1  0
 21 12  1  0
 19 14  1  0
  1 24  1  0
  1 25  1  0
  1 26  1  0
  2 27  1  0
  2 28  1  0
  4 29  1  0
  4 30  1  0
  5 31  1  0
  5 32  1  0
  7 33  1  0
  7 34  1  0
  8 35  1  0
  8 36  1  0
  9 37  1  0
 15 38  1  0
 16 39  1  0
 17 40  1  0
 18 41  1  0
 23 42  1  0
 23 43  1  0
 23 44  1  0
M  END
>  <UniqueID>  (32) 
30

>  <SMILES>  (32) 
CCN(CCF)CCNC(=O)c1nc2ccccc2nc1OC

>  <Energy>  (32) 
43.832004083996

>  <Genealogy>  (32) 
CCN(CCF)CCNC(=O)c1nc2ccccc2nc1OC (3D coordinates assigned)
CCN(CCF)CCNC(=O)c1nc2ccccc2nc1OC (optimized conformer: 43.832004083996 kcal/mol)

>  <smiles>  (32) 
CCN(CCF)CCNC(=O)c1nc2ccccc2nc1OC

>  <score_type>  (32) 
oracle

>  <origin>  (32) 
adg

>  <m_score__min__energy>  (32) 
-6.6900000000000004

>  <m_primary>  (32) 
energy

$$$$
32:0
     RDKit          3D

 45 47  0  0  0  0  0  0  0  0999 V2000
   -3.5693   24.0329  -27.3182 H   0  0  0  0  0  0  0  0  0  0  0  0
   -2.5320   24.3330  -27.5280 C   0  0  0  0  0  0  0  0  0  0  0  0
   -2.2180   24.7460  -28.9100 C   0  0  0  0  0  0  0  0  0  0  0  0
   -1.0560   24.6140  -29.3780 O   0  0  0  0  0  0  0  0  0  0  0  0
   -3.2680   25.2960  -29.7160 N   0  0  0  0  0  0  0  0  0  0  0  0
   -4.3660   24.5820  -30.3040 C   0  0  0  0  0  0  0  0  0  0  0  0
   -5.6580   25.0940  -30.1460 C   0  0  0  0  0  0  0  0  0  0  0  0
   -5.8090   26.0329  -29.5932 H   0  0  0  0  0  0  0  0  0  0  0  0
   -6.7590   24.4220  -30.6850 C   0  0  0  0  0  0  0  0  0  0  0  0
   -7.7680   24.8444  -30.5683 H   0  0  0  0  0  0  0  0  0  0  0  0
   -6.5850   23.2120  -31.3740 C   0  0  0  0  0  0  0  0  0  0  0  0
   -7.7770   22.4860  -31.9620 C   0  0  0  0  0  0  0  0  0  0  0  0
   -8.6708   22.7667  -31.3856 H   0  0  0  0  0  0  0  0  0  0  0  0
   -7.8405   22.7856  -33.0185 H   0  0  0  0  0  0  0  0  0  0  0  0
   -7.6570   21.0110  -31.9440 N   0  0  0  0  0  0  0  0  0  0  0  0
   -6.9500   20.4620  -33.1140 C   0  0  0  0  0  0  0  0  0  0  0  0
   -7.5163   20.7004  -34.0264 H   0  0  0  0  0  0  0  0  0  0  0  0
   -5.9459   20.9076  -33.1703 H   0  0  0  0  0  0  0  0  0  0  0  0
   -6.8170   18.9300  -32.9810 C   0  0  0  0  0  0  0  0  0  0  0  0
   -7.3683   18.4514  -33.8038 H   0  0  0  0  0  0  0  0  0  0  0  0
   -5.7481   18.6733  -33.0215 H   0  0  0  0  0  0  0  0  0  0  0  0
   -7.3370   18.4650  -31.7480 O   0  0  0  0  0  0  0  0  0  0  0  0
   -8.7110   18.7950  -31.6510 C   0  0  0  0  0  0  0  0  0  0  0  0
   -9.2539   18.3052  -32.4728 H   0  0  0  0  0  0  0  0  0  0  0  0
   -9.0780   18.4487  -30.6736 H   0  0  0  0  0  0  0  0  0  0  0  0
   -8.9410   20.3180  -31.7380 C   0  0  0  0  0  0  0  0  0  0  0  0
   -9.6126   20.5373  -32.5811 H   0  0  0  0  0  0  0  0  0  0  0  0
   -9.3939   20.6688  -30.7990 H   0  0  0  0  0  0  0  0  0  0  0  0
   -5.2900   22.6890  -31.5210 C   0  0  0  0  0  0  0  0  0  0  0  0
   -5.1405   21.7448  -32.0651 H   0  0  0  0  0  0  0  0  0  0  0  0
   -4.1890   23.3610  -30.9800 C   0  0  0  0  0  0  0  0  0  0  0  0
   -3.1809   22.9331  -31.0835 H   0  0  0  0  0  0  0  0  0  0  0  0
   -1.6650   24.2910  -26.5050 C   0  0  0  0  0  0  0  0  0  0  0  0
   -1.1998   23.3204  -26.2779 H   0  0  0  0  0  0  0  0  0  0  0  0
   -1.2830   25.4400  -25.6580 C   0  0  0  0  0  0  0  0  0  0  0  0
   -0.8450   25.2540  -24.3340 C   0  0  0  0  0  0  0  0  0  0  0  0
   -0.8179   24.2428  -23.9019 H   0  0  0  0  0  0  0  0  0  0  0  0
   -0.4440   26.3520  -23.5660 C   0  0  0  0  0  0  0  0  0  0  0  0
   -0.1195   26.2051  -22.5253 H   0  0  0  0  0  0  0  0  0  0  0  0
   -0.4550   27.6360  -24.1190 C   0  0  0  0  0  0  0  0  0  0  0  0
   -0.1464   28.4992  -23.5111 H   0  0  0  0  0  0  0  0  0  0  0  0
   -0.8580   27.8230  -25.4440 C   0  0  0  0  0  0  0  0  0  0  0  0
   -0.8584   28.8324  -25.8811 H   0  0  0  0  0  0  0  0  0  0  0  0
   -1.2610   26.7270  -26.2150 C   0  0  0  0  0  0  0  0  0  0  0  0
   -1.5619   26.8755  -27.2626 H   0  0  0  0  0  0  0  0  0  0  0  0
  1  2  1  0
  2  3  1  0
  3  4  2  0
  3  5  1  0
  5  6  1  0
  6  7  2  0
  7  8  1  0
  7  9  1  0
  9 10  1  0
  9 11  2  0
 11 12  1  0
 12 13  1  0
 12 14  1  0
 12 15  1  0
 15 16  1  0
 16 17  1  0
 16 18  1  0
 16 19  1  0
 19 20  1  0
 19 21  1  0
 19 22  1  0
 22 23  1  0
 23 24  1  0
 23 25  1  0
 23 26  1  0
 26 27  1  0
 26 28  1  0
 11 29  1  0
 29 30  1  0
 29 31  2  0
 31 32  1  0
  2 33  2  0
 33 34  1  0
 33 35  1  0
 35 36  2  0
 36 37  1  0
 36 38  1  0
 38 39  1  0
 38 40  2  0
 40 41  1  0
 40 42  1  0
 42 43  1  0
 42 44  2  0
 44 45  1  0
 31  6  1  0
 44 35  1  0
 26 15  1  0
M  CHG  1   5  -1
M  END
>  <UniqueID>  (33) 
31

>  <SMILES>  (33) 
O=C(/C=C\c1ccccc1)[N-]c1ccc(CN2CCOCC2)cc1

>  <Energy>  (33) 
69.20946431073571

>  <Genealogy>  (33) 
O=C(C=Cc1ccccc1)[N-]c1ccc(CN2CCOCC2)cc1 (protonated)
O=C(/C=C\c1ccccc1)[N-]c1ccc(CN2CCOCC2)cc1 (cis-trans isomerization)
O=C(/C=C\c1ccccc1)[N-]c1ccc(CN2CCOCC2)cc1 (3D coordinates assigned)
O=C(/C=C\c1ccccc1)[N-]c1ccc(CN2CCOCC2)cc1 (nonaromatic ring conformer: 69.20946431073571 kcal/mol)

>  <smiles>  (33) 
O=C(C=Cc1ccccc1)Nc1ccc(CN2CCOCC2)cc1

>  <score_type>  (33) 
oracle

>  <origin>  (33) 
adg

>  <m_score__min__energy>  (33) 
-10.65

>  <m_primary>  (33) 
energy

$$$$
33:0
     RDKit          3D

 32 34  0  0  0  0  0  0  0  0999 V2000
   -6.5010   17.7220  -31.2220 C   0  0  0  0  0  0  0  0  0  0  0  0
   -6.6010   17.1340  -32.6290 C   0  0  0  0  0  0  0  0  0  0  0  0
   -5.5370   17.7060  -33.5790 C   0  0  0  0  0  0  0  0  0  0  0  0
   -5.9660   18.9970  -34.3020 C   0  0  0  0  0  0  0  0  0  0  0  0
   -6.0090   20.1540  -33.3790 N   0  0  0  0  0  0  0  0  0  0  0  0
   -7.1620   20.6130  -32.7530 C   0  0  0  0  0  0  0  0  0  0  0  0
   -8.3780   20.0020  -32.9430 N   0  0  0  0  0  0  0  0  0  0  0  0
   -9.5140   20.4420  -32.3410 C   0  0  0  0  0  0  0  0  0  0  0  0
   -9.4870   21.5450  -31.4970 C   0  0  0  0  0  0  0  0  0  0  0  0
   -8.2840   22.1990  -31.2630 C   0  0  0  0  0  0  0  0  0  0  0  0
   -7.1000   21.7500  -31.8800 C   0  0  0  0  0  0  0  0  0  0  0  0
   -5.8520   22.3790  -31.6640 C   0  0  0  0  0  0  0  0  0  0  0  0
   -5.6690   23.6880  -30.6780 S   0  0  0  0  0  0  0  0  0  0  0  0
   -4.7780   21.8630  -32.3010 N   0  0  0  0  0  0  0  0  0  0  0  0
   -3.5280   22.2830  -32.2440 N   0  0  0  0  0  0  0  0  0  0  0  0
   -2.8410   21.4430  -33.0520 C   0  0  0  0  0  0  0  0  0  0  0  0
   -3.6270   20.4980  -33.6240 N   0  0  0  0  0  0  0  0  0  0  0  0
   -4.8380   20.8100  -33.1160 C   0  0  0  0  0  0  0  0  0  0  0  0
   -6.6371   16.9218  -30.4796 H   0  0  0  0  0  0  0  0  0  0  0  0
   -5.5115   18.1832  -31.0868 H   0  0  0  0  0  0  0  0  0  0  0  0
   -7.2824   18.4843  -31.0868 H   0  0  0  0  0  0  0  0  0  0  0  0
   -6.4696   16.0437  -32.5666 H   0  0  0  0  0  0  0  0  0  0  0  0
   -7.5892   17.3979  -33.0337 H   0  0  0  0  0  0  0  0  0  0  0  0
   -4.6318   17.9231  -32.9929 H   0  0  0  0  0  0  0  0  0  0  0  0
   -5.3679   16.9481  -34.3581 H   0  0  0  0  0  0  0  0  0  0  0  0
   -5.2475   19.2100  -35.1072 H   0  0  0  0  0  0  0  0  0  0  0  0
   -6.9775   18.8434  -34.7061 H   0  0  0  0  0  0  0  0  0  0  0  0
   -8.4910   19.1620  -33.5420 H   0  0  0  0  0  0  0  0  0  0  0  0
  -10.4646   19.9195  -32.5239 H   0  0  0  0  0  0  0  0  0  0  0  0
  -10.4118   21.8981  -31.0173 H   0  0  0  0  0  0  0  0  0  0  0  0
   -8.2559   23.0711  -30.5931 H   0  0  0  0  0  0  0  0  0  0  0  0
   -1.7576   21.5189  -33.2266 H   0  0  0  0  0  0  0  0  0  0  0  0
  1  2  1  0
  2  3  1  0
  3  4  1  0
  4  5  1  0
  5  6  1  0
  6  7  2  0
  7  8  1  0
  8  9  2  0
  9 10  1  0
 10 11  2  0
 11 12  1  0
 12 13  2  0
 12 14  1  0
 14 15  1  0
 15 16  2  0
 16 17  1  0
 17 18  2  0
 18  5  1  0
 11  6  1  0
 18 14  1  0
  1 19  1  0
  1 20  1  0
  1 21  1  0
  2 22  1  0
  2 23  1  0
  3 24  1  0
  3 25  1  0
  4 26  1  0
  4 27  1  0
  7 28  1  0
  8 29  1  0
  9 30  1  0
 10 31  1  0
 16 32  1  0
M  CHG  1   7   1
M  END
>  <UniqueID>  (34) 
32

>  <SMILES>  (34) 
CCCCn1c2[nH+]cccc2c(=S)n2ncnc12

>  <Energy>  (34) 
80.71960374384503

>  <Genealogy>  (34) 
CCCCn1c2[nH+]cccc2c(=S)n2ncnc12 (protonated)
CCCCn1c2[nH+]cccc2c(=S)n2ncnc12 (3D coordinates assigned)
CCCCn1c2[nH+]cccc2c(=S)n2ncnc12 (optimized conformer: 80.71960374384503 kcal/mol)

>  <smiles>  (34) 
CCCCn1c2ncccc2c(=S)n2ncnc12

>  <score_type>  (34) 
oracle

>  <origin>  (34) 
adg

>  <m_score__min__energy>  (34) 
-6.54

>  <m_primary>  (34) 
energy

$$$$
34:0
     RDKit          3D

 38 40  0  0  0  0  0  0  0  0999 V2000
   -2.2460   24.9220  -28.2470 C   0  0  0  0  0  0  0  0  0  0  0  0
   -2.7350   24.9400  -29.5840 O   0  0  0  0  0  0  0  0  0  0  0  0
   -3.9380   24.3460  -30.0000 C   0  0  0  0  0  0  0  0  0  0  0  0
   -4.9340   25.0760  -30.6770 C   0  0  0  0  0  0  0  0  0  0  0  0
   -6.1200   24.4560  -31.0740 C   0  0  0  0  0  0  0  0  0  0  0  0
   -6.3300   23.0990  -30.8090 C   0  0  0  0  0  0  0  0  0  0  0  0
   -7.8430   22.3290  -31.2790 S   0  0  0  0  0  0  0  0  0  0  0  0
   -8.7420   22.2170  -30.0800 O   0  0  0  0  0  0  0  0  0  0  0  0
   -8.5230   23.1670  -32.3260 O   0  0  0  0  0  0  0  0  0  0  0  0
   -7.5220   20.7500  -31.9160 N   0  0  0  0  0  0  0  0  0  0  0  0
   -8.4570   19.6280  -31.8750 C   0  0  0  0  0  0  0  0  0  0  0  0
   -7.7290   18.4470  -32.5670 C   0  0  0  0  0  0  0  0  0  0  0  0
   -6.4100   19.0300  -32.9480 C   0  0  0  0  0  0  0  0  0  0  0  0
   -5.3490   18.4050  -33.6050 C   0  0  0  0  0  0  0  0  0  0  0  0
   -4.1880   19.1520  -33.8640 C   0  0  0  0  0  0  0  0  0  0  0  0
   -4.1100   20.5010  -33.4650 C   0  0  0  0  0  0  0  0  0  0  0  0
   -5.1910   21.1080  -32.8040 C   0  0  0  0  0  0  0  0  0  0  0  0
   -6.3320   20.3390  -32.5610 C   0  0  0  0  0  0  0  0  0  0  0  0
   -5.3500   22.3660  -30.1300 C   0  0  0  0  0  0  0  0  0  0  0  0
   -4.1510   22.9790  -29.7290 C   0  0  0  0  0  0  0  0  0  0  0  0
   -3.1090   22.1830  -28.9950 C   0  0  0  0  0  0  0  0  0  0  0  0
   -3.0933   24.9532  -27.5462 H   0  0  0  0  0  0  0  0  0  0  0  0
   -1.6665   24.0019  -28.0809 H   0  0  0  0  0  0  0  0  0  0  0  0
   -1.6004   25.7970  -28.0809 H   0  0  0  0  0  0  0  0  0  0  0  0
   -4.7762   26.1427  -30.8946 H   0  0  0  0  0  0  0  0  0  0  0  0
   -6.8930   25.0375  -31.5977 H   0  0  0  0  0  0  0  0  0  0  0  0
   -8.7011   19.3705  -30.8338 H   0  0  0  0  0  0  0  0  0  0  0  0
   -9.4041   19.8712  -32.3788 H   0  0  0  0  0  0  0  0  0  0  0  0
   -7.6007   17.6029  -31.8735 H   0  0  0  0  0  0  0  0  0  0  0  0
   -8.2849   18.0440  -33.4264 H   0  0  0  0  0  0  0  0  0  0  0  0
   -5.4204   17.3514  -33.9130 H   0  0  0  0  0  0  0  0  0  0  0  0
   -3.3374   18.6825  -34.3797 H   0  0  0  0  0  0  0  0  0  0  0  0
   -3.1988   21.0815  -33.6719 H   0  0  0  0  0  0  0  0  0  0  0  0
   -5.1405   22.1600  -32.4864 H   0  0  0  0  0  0  0  0  0  0  0  0
   -5.5197   21.3020  -29.9086 H   0  0  0  0  0  0  0  0  0  0  0  0
   -3.2573   22.2963  -27.9109 H   0  0  0  0  0  0  0  0  0  0  0  0
   -3.1987   21.1213  -29.2684 H   0  0  0  0  0  0  0  0  0  0  0  0
   -2.1082   22.5487  -29.2684 H   0  0  0  0  0  0  0  0  0  0  0  0
  1  2  1  0
  2  3  1  0
  3  4  2  0
  4  5  1  0
  5  6  2  0
  6  7  1  0
  7  8  2  0
  7  9  2  0
  7 10  1  0
 10 11  1  0
 11 12  1  0
 12 13  1  0
 13 14  2  0
 14 15  1  0
 15 16  2  0
 16 17  1  0
 17 18  2  0
  6 19  1  0
 19 20  2  0
 20 21  1  0
 20  3  1  0
 18 10  1  0
 18 13  1  0
  1 22  1  0
  1 23  1  0
  1 24  1  0
  4 25  1  0
  5 26  1  0
 11 27  1  0
 11 28  1  0
 12 29  1  0
 12 30  1  0
 14 31  1  0
 15 32  1  0
 16 33  1  0
 17 34  1  0
 19 35  1  0
 21 36  1  0
 21 37  1  0
 21 38  1  0
M  END
>  <UniqueID>  (35) 
33

>  <SMILES>  (35) 
COc1ccc(S(=O)(=O)N2CCc3ccccc32)cc1C

>  <Energy>  (35) 
54.87617817800572

>  <Genealogy>  (35) 
COc1ccc(S(=O)(=O)N2CCc3ccccc32)cc1C (3D coordinates assigned)
COc1ccc(S(=O)(=O)N2CCc3ccccc32)cc1C (nonaromatic ring conformer: 54.87617817800572 kcal/mol)

>  <smiles>  (35) 
COc1ccc(S(=O)(=O)N2CCc3ccccc32)cc1C

>  <score_type>  (35) 
oracle

>  <origin>  (35) 
adg

>  <m_score__min__energy>  (35) 
-8.4299999999999997

>  <m_primary>  (35) 
energy

$$$$
35:0
     RDKit          3D

 36 38  0  0  0  0  0  0  0  0999 V2000
   -8.3160   21.9260  -30.1510 C   0  0  0  0  0  0  0  0  0  0  0  0
   -8.8240   22.2950  -31.4790 N   0  0  0  0  0  0  0  0  0  0  0  0
   -9.4850   21.1930  -32.2140 C   0  0  0  0  0  0  0  0  0  0  0  0
   -8.6620   19.9400  -32.3050 C   0  0  0  0  0  0  0  0  0  0  0  0
   -7.5760   19.7980  -33.0850 N   0  0  0  0  0  0  0  0  0  0  0  0
   -7.1970   18.5260  -32.8400 C   0  0  0  0  0  0  0  0  0  0  0  0
   -5.9970   17.8330  -33.4280 C   0  0  0  0  0  0  0  0  0  0  0  0
   -5.7120   18.1060  -34.8970 C   0  0  0  0  0  0  0  0  0  0  0  0
   -4.8400   18.7380  -33.8200 C   0  0  0  0  0  0  0  0  0  0  0  0
   -8.0270   17.9260  -31.9630 N   0  0  0  0  0  0  0  0  0  0  0  0
   -8.9170   18.8250  -31.6610 O   0  0  0  0  0  0  0  0  0  0  0  0
   -7.9130   23.1450  -32.2770 C   0  0  0  0  0  0  0  0  0  0  0  0
   -6.4460   22.8550  -32.0620 C   0  0  0  0  0  0  0  0  0  0  0  0
   -5.8080   21.8570  -32.7100 N   0  0  0  0  0  0  0  0  0  0  0  0
   -4.5380   21.9190  -32.2650 C   0  0  0  0  0  0  0  0  0  0  0  0
   -4.4160   22.9570  -31.3690 C   0  0  0  0  0  0  0  0  0  0  0  0
   -5.6130   23.5570  -31.2570 N   0  0  0  0  0  0  0  0  0  0  0  0
   -5.9030   24.7010  -30.3940 C   0  0  0  0  0  0  0  0  0  0  0  0
   -8.9478   22.3849  -29.3762 H   0  0  0  0  0  0  0  0  0  0  0  0
   -8.3377   20.8317  -30.0412 H   0  0  0  0  0  0  0  0  0  0  0  0
   -7.2821   22.2851  -30.0412 H   0  0  0  0  0  0  0  0  0  0  0  0
  -10.4275   20.9514  -31.7009 H   0  0  0  0  0  0  0  0  0  0  0  0
   -9.6421   21.5463  -33.2438 H   0  0  0  0  0  0  0  0  0  0  0  0
   -7.1390   20.5120  -33.7080 H   0  0  0  0  0  0  0  0  0  0  0  0
   -6.1081   16.9257  -32.8161 H   0  0  0  0  0  0  0  0  0  0  0  0
   -5.3055   17.3083  -35.5361 H   0  0  0  0  0  0  0  0  0  0  0  0
   -6.2988   18.4868  -35.7459 H   0  0  0  0  0  0  0  0  0  0  0  0
   -3.8034   18.3970  -33.6812 H   0  0  0  0  0  0  0  0  0  0  0  0
   -4.5357   19.7648  -33.5687 H   0  0  0  0  0  0  0  0  0  0  0  0
   -8.1423   22.9912  -33.3418 H   0  0  0  0  0  0  0  0  0  0  0  0
   -8.0810   24.1816  -31.9495 H   0  0  0  0  0  0  0  0  0  0  0  0
   -3.7244   21.2446  -32.5703 H   0  0  0  0  0  0  0  0  0  0  0  0
   -3.4975   23.2453  -30.8368 H   0  0  0  0  0  0  0  0  0  0  0  0
   -5.8253   24.3945  -29.3404 H   0  0  0  0  0  0  0  0  0  0  0  0
   -5.1803   25.5053  -30.5961 H   0  0  0  0  0  0  0  0  0  0  0  0
   -6.9215   25.0639  -30.5961 H   0  0  0  0  0  0  0  0  0  0  0  0
  1  2  1  0
  2  3  1  0
  3  4  1  0
  4  5  2  0
  5  6  1  0
  6  7  1  0
  7  8  1  0
  8  9  1  0
  6 10  2  0
 10 11  1  0
  2 12  1  0
 12 13  1  0
 13 14  2  0
 14 15  1  0
 15 16  2  0
 16 17  1  0
 17 18  1  0
 11  4  1  0
 17 13  1  0
  9  7  1  0
  1 19  1  0
  1 20  1  0
  1 21  1  0
  3 22  1  0
  3 23  1  0
  5 24  1  0
  7 25  1  0
  8 26  1  0
  8 27  1  0
  9 28  1  0
  9 29  1  0
 12 30  1  0
 12 31  1  0
 15 32  1  0
 16 33  1  0
 18 34  1  0
 18 35  1  0
 18 36  1  0
M  CHG  1   5   1
M  END
>  <UniqueID>  (36) 
34

>  <SMILES>  (36) 
CN(Cc1[nH+]c(C2CC2)no1)Cc1nccn1C

>  <Energy>  (36) 
369.9000703118187

>  <Genealogy>  (36) 
CN(Cc1[nH+]c(C2CC2)no1)Cc1nccn1C (protonated)
CN(Cc1[nH+]c(C2CC2)no1)Cc1nccn1C (3D coordinates assigned)
CN(Cc1[nH+]c(C2CC2)no1)Cc1nccn1C (nonaromatic ring conformer: 369.9000703118187 kcal/mol)

>  <smiles>  (36) 
CN(Cc1nc(C2CC2)no1)Cc1nccn1C

>  <score_type>  (36) 
oracle

>  <origin>  (36) 
adg

>  <m_score__min__energy>  (36) 
-5.8499999999999996

>  <m_primary>  (36) 
energy

$$$$
36:0
     RDKit          3D

 52 54  0  0  0  0  0  0  0  0999 V2000
   -7.6500   22.3040  -30.0780 C   0  0  0  0  0  0  0  0  0  0  0  0
   -6.9620   23.4050  -30.7710 N   0  0  0  0  0  0  0  0  0  0  0  0
   -7.4030   23.4490  -32.1770 C   0  0  0  0  0  0  0  0  0  0  0  0
   -7.2350   24.6900  -30.0870 C   0  0  0  0  0  0  0  0  0  0  0  0
   -5.9530   25.3050  -29.5100 C   0  0  0  0  0  0  0  0  0  0  0  0
   -4.9390   25.6560  -30.6060 C   0  0  0  0  0  0  0  0  0  0  0  0
   -3.7330   24.9120  -30.4350 O   0  0  0  0  0  0  0  0  0  0  0  0
   -3.5800   23.5370  -30.6780 C   0  0  0  0  0  0  0  0  0  0  0  0
   -3.0590   22.6470  -29.7200 C   0  0  0  0  0  0  0  0  0  0  0  0
   -2.9190   21.2920  -30.0240 C   0  0  0  0  0  0  0  0  0  0  0  0
   -3.3070   20.8070  -31.2730 C   0  0  0  0  0  0  0  0  0  0  0  0
   -3.8610   21.6720  -32.2330 C   0  0  0  0  0  0  0  0  0  0  0  0
   -4.2440   21.1750  -33.5350 N   0  0  0  0  0  0  0  0  0  0  0  0
   -4.6570   19.7860  -33.4650 C   0  0  0  0  0  0  0  0  0  0  0  0
   -3.7430   18.7910  -33.8300 C   0  0  0  0  0  0  0  0  0  0  0  0
   -4.1090   17.4510  -33.8080 C   0  0  0  0  0  0  0  0  0  0  0  0
   -5.3650   17.0660  -33.4330 N   0  0  0  0  0  0  0  0  0  0  0  0
   -5.6750   15.6260  -33.4400 C   0  0  0  0  0  0  0  0  0  0  0  0
   -6.3010   18.0090  -33.0610 C   0  0  0  0  0  0  0  0  0  0  0  0
   -7.6090   17.6320  -32.6690 C   0  0  0  0  0  0  0  0  0  0  0  0
   -8.5480   18.5900  -32.2920 C   0  0  0  0  0  0  0  0  0  0  0  0
   -8.2110   19.9390  -32.2940 C   0  0  0  0  0  0  0  0  0  0  0  0
   -6.9330   20.3410  -32.6740 C   0  0  0  0  0  0  0  0  0  0  0  0
   -5.9620   19.3950  -33.0670 C   0  0  0  0  0  0  0  0  0  0  0  0
   -3.9710   23.0420  -31.9280 C   0  0  0  0  0  0  0  0  0  0  0  0
   -7.5626   22.4438  -28.9904 H   0  0  0  0  0  0  0  0  0  0  0  0
   -8.7125   22.2986  -30.3628 H   0  0  0  0  0  0  0  0  0  0  0  0
   -7.1892   21.3467  -30.3628 H   0  0  0  0  0  0  0  0  0  0  0  0
   -8.4969   23.5581  -32.2149 H   0  0  0  0  0  0  0  0  0  0  0  0
   -6.9314   24.3046  -32.6826 H   0  0  0  0  0  0  0  0  0  0  0  0
   -7.1097   22.5171  -32.6826 H   0  0  0  0  0  0  0  0  0  0  0  0
   -7.6745   25.3931  -30.8099 H   0  0  0  0  0  0  0  0  0  0  0  0
   -7.9290   24.4971  -29.2557 H   0  0  0  0  0  0  0  0  0  0  0  0
   -6.2148   26.2220  -28.9618 H   0  0  0  0  0  0  0  0  0  0  0  0
   -5.4897   24.5616  -28.8447 H   0  0  0  0  0  0  0  0  0  0  0  0
   -5.3730   25.4192  -31.5886 H   0  0  0  0  0  0  0  0  0  0  0  0
   -4.7048   26.7288  -30.5405 H   0  0  0  0  0  0  0  0  0  0  0  0
   -2.7614   23.0204  -28.7290 H   0  0  0  0  0  0  0  0  0  0  0  0
   -2.5007   20.6033  -29.2751 H   0  0  0  0  0  0  0  0  0  0  0  0
   -3.1786   19.7402  -31.5085 H   0  0  0  0  0  0  0  0  0  0  0  0
   -3.4730   21.2800  -34.2350 H   0  0  0  0  0  0  0  0  0  0  0  0
   -5.0270   21.7730  -33.8890 H   0  0  0  0  0  0  0  0  0  0  0  0
   -2.7250   19.0726  -34.1373 H   0  0  0  0  0  0  0  0  0  0  0  0
   -3.3739   16.6858  -34.0979 H   0  0  0  0  0  0  0  0  0  0  0  0
   -5.7532   15.2627  -32.4047 H   0  0  0  0  0  0  0  0  0  0  0  0
   -6.6297   15.4590  -33.9603 H   0  0  0  0  0  0  0  0  0  0  0  0
   -4.8736   15.0809  -33.9603 H   0  0  0  0  0  0  0  0  0  0  0  0
   -7.8874   16.5678  -32.6621 H   0  0  0  0  0  0  0  0  0  0  0  0
   -9.5592   18.2780  -31.9918 H   0  0  0  0  0  0  0  0  0  0  0  0
   -8.9560   20.6908  -31.9946 H   0  0  0  0  0  0  0  0  0  0  0  0
   -6.6767   21.4107  -32.6678 H   0  0  0  0  0  0  0  0  0  0  0  0
   -4.3704   23.7344  -32.6836 H   0  0  0  0  0  0  0  0  0  0  0  0
  1  2  1  0
  2  3  1  0
  2  4  1  0
  4  5  1  0
  5  6  1  0
  6  7  1  0
  7  8  1  0
  8  9  2  0
  9 10  1  0
 10 11  2  0
 11 12  1  0
 12 13  1  0
 13 14  1  0
 14 15  2  0
 15 16  1  0
 16 17  2  0
 17 18  1  0
 17 19  1  0
 19 20  2  0
 20 21  1  0
 21 22  2  0
 22 23  1  0
 23 24  2  0
 12 25  2  0
 25  8  1  0
 24 14  1  0
 24 19  1  0
  1 26  1  0
  1 27  1  0
  1 28  1  0
  3 29  1  0
  3 30  1  0
  3 31  1  0
  4 32  1  0
  4 33  1  0
  5 34  1  0
  5 35  1  0
  6 36  1  0
  6 37  1  0
  9 38  1  0
 10 39  1  0
 11 40  1  0
 13 41  1  0
 13 42  1  0
 15 43  1  0
 16 44  1  0
 18 45  1  0
 18 46  1  0
 18 47  1  0
 20 48  1  0
 21 49  1  0
 22 50  1  0
 23 51  1  0
 25 52  1  0
M  CHG  2  13   1  17   1
M  END
>  <UniqueID>  (37) 
35

>  <SMILES>  (37) 
CN(C)CCCOc1cccc([NH2+]c2cc[n+](C)c3ccccc23)c1

>  <Energy>  (37) 
64.28897283921928

>  <Genealogy>  (37) 
CN(C)CCCOc1cccc([NH2+]c2cc[n+](C)c3ccccc23)c1 (protonated)
CN(C)CCCOc1cccc([NH2+]c2cc[n+](C)c3ccccc23)c1 (3D coordinates assigned)
CN(C)CCCOc1cccc([NH2+]c2cc[n+](C)c3ccccc23)c1 (optimized conformer: 64.28897283921928 kcal/mol)

>  <smiles>  (37) 
CN(C)CCCOc1cccc(Nc2cc[n+](C)c3ccccc23)c1

>  <score_type>  (37) 
oracle

>  <origin>  (37) 
adg

>  <m_score__min__energy>  (37) 
-7.46

>  <m_primary>  (37) 
energy

$$$$
37:0
     RDKit          3D

 81 82  0  0  0  0  0  0  0  0999 V2000
   -3.8190   18.6020  -26.3140 C   0  0  0  0  0  0  0  0  0  0  0  0
   -2.3710   19.0850  -26.2650 C   0  0  0  0  0  0  0  0  0  0  0  0
   -1.9560   19.7630  -27.5800 C   0  0  0  0  0  0  0  0  0  0  0  0
   -1.9200   21.3010  -27.4600 C   0  0  0  0  0  0  0  0  0  0  0  0
   -3.0290   21.9800  -28.2850 C   0  0  0  0  0  0  0  0  0  0  0  0
   -3.4590   23.3570  -27.7280 C   0  0  0  0  0  0  0  0  0  0  0  0
   -2.7250   24.5350  -28.3940 C   0  0  0  0  0  0  0  0  0  0  0  0
   -3.2930   24.7930  -29.7120 N   0  0  0  0  0  0  0  0  0  0  0  0
   -4.4570   24.4110  -30.1550 C   0  0  0  0  0  0  0  0  0  0  0  0
   -4.5060   23.4150  -31.1320 C   0  0  0  0  0  0  0  0  0  0  0  0
   -5.7260   23.0640  -31.7100 C   0  0  0  0  0  0  0  0  0  0  0  0
   -6.8810   23.6820  -31.3230 N   0  0  0  0  0  0  0  0  0  0  0  0
   -8.1320   23.4200  -32.0510 C   0  0  0  0  0  0  0  0  0  0  0  0
   -8.8350   22.1600  -31.5150 C   0  0  0  0  0  0  0  0  0  0  0  0
   -8.2370   20.8680  -32.0930 C   0  0  0  0  0  0  0  0  0  0  0  0
   -8.6420   19.6410  -31.2670 C   0  0  0  0  0  0  0  0  0  0  0  0
   -8.4810   18.3240  -32.0460 C   0  0  0  0  0  0  0  0  0  0  0  0
   -7.0630   17.7110  -31.9700 C   0  0  0  0  0  0  0  0  0  0  0  0
   -6.7260   16.7080  -33.0920 C   0  0  0  0  0  0  0  0  0  0  0  0
   -6.1310   17.3790  -34.3420 C   0  0  0  0  0  0  0  0  0  0  0  0
   -5.1980   18.4440  -33.9530 N   0  0  0  0  0  0  0  0  0  0  0  0
   -3.8830   18.1510  -33.7200 C   0  0  0  0  0  0  0  0  0  0  0  0
   -2.9890   19.1490  -33.3250 C   0  0  0  0  0  0  0  0  0  0  0  0
   -3.4450   20.4730  -33.1870 C   0  0  0  0  0  0  0  0  0  0  0  0
   -2.6690   21.4560  -32.8190 N   0  0  0  0  0  0  0  0  0  0  0  0
   -1.2380   21.4000  -32.5190 C   0  0  0  0  0  0  0  0  0  0  0  0
   -0.9680   21.7800  -31.0560 C   0  0  0  0  0  0  0  0  0  0  0  0
   -0.2090   20.6840  -30.2930 C   0  0  0  0  0  0  0  0  0  0  0  0
   -0.3590   19.3070  -30.9420 C   0  0  0  0  0  0  0  0  0  0  0  0
   -4.7900   20.7530  -33.4450 C   0  0  0  0  0  0  0  0  0  0  0  0
   -5.6530   19.7270  -33.8310 C   0  0  0  0  0  0  0  0  0  0  0  0
   -6.8650   24.6100  -30.3210 C   0  0  0  0  0  0  0  0  0  0  0  0
   -5.6620   24.9900  -29.7210 C   0  0  0  0  0  0  0  0  0  0  0  0
   -4.1982   18.4755  -25.2892 H   0  0  0  0  0  0  0  0  0  0  0  0
   -4.4351   19.3433  -26.8440 H   0  0  0  0  0  0  0  0  0  0  0  0
   -3.8667   17.6393  -26.8440 H   0  0  0  0  0  0  0  0  0  0  0  0
   -2.2631   19.8066  -25.4418 H   0  0  0  0  0  0  0  0  0  0  0  0
   -1.7218   18.2108  -26.1089 H   0  0  0  0  0  0  0  0  0  0  0  0
   -0.9540   19.4066  -27.8609 H   0  0  0  0  0  0  0  0  0  0  0  0
   -2.7038   19.5025  -28.3435 H   0  0  0  0  0  0  0  0  0  0  0  0
   -2.0476   21.5760  -26.4026 H   0  0  0  0  0  0  0  0  0  0  0  0
   -0.9516   21.6455  -27.8518 H   0  0  0  0  0  0  0  0  0  0  0  0
   -2.6622   22.1195  -29.3126 H   0  0  0  0  0  0  0  0  0  0  0  0
   -3.9112   21.3243  -28.2415 H   0  0  0  0  0  0  0  0  0  0  0  0
   -4.5396   23.4795  -27.8935 H   0  0  0  0  0  0  0  0  0  0  0  0
   -3.2012   23.3728  -26.6588 H   0  0  0  0  0  0  0  0  0  0  0  0
   -2.8335   25.4330  -27.7680 H   0  0  0  0  0  0  0  0  0  0  0  0
   -1.6597   24.2832  -28.5020 H   0  0  0  0  0  0  0  0  0  0  0  0
   -3.5823   22.9069  -31.4461 H   0  0  0  0  0  0  0  0  0  0  0  0
   -5.7582   22.2830  -32.4839 H   0  0  0  0  0  0  0  0  0  0  0  0
   -8.8035   24.2832  -31.9326 H   0  0  0  0  0  0  0  0  0  0  0  0
   -7.8902   23.2590  -33.1120 H   0  0  0  0  0  0  0  0  0  0  0  0
   -8.7341   22.1375  -30.4199 H   0  0  0  0  0  0  0  0  0  0  0  0
   -9.8907   22.2081  -31.8203 H   0  0  0  0  0  0  0  0  0  0  0  0
   -8.5961   20.7385  -33.1246 H   0  0  0  0  0  0  0  0  0  0  0  0
   -7.1407   20.9541  -32.0672 H   0  0  0  0  0  0  0  0  0  0  0  0
   -8.0104   19.5977  -30.3675 H   0  0  0  0  0  0  0  0  0  0  0  0
   -9.7063   19.7485  -31.0106 H   0  0  0  0  0  0  0  0  0  0  0  0
   -9.1950   17.5930  -31.6388 H   0  0  0  0  0  0  0  0  0  0  0  0
   -8.6675   18.5583  -33.1045 H   0  0  0  0  0  0  0  0  0  0  0  0
   -6.3331   18.5326  -32.0161 H   0  0  0  0  0  0  0  0  0  0  0  0
   -7.0231   17.1439  -31.0283 H   0  0  0  0  0  0  0  0  0  0  0  0
   -5.9972   15.9809  -32.7044 H   0  0  0  0  0  0  0  0  0  0  0  0
   -7.6672   16.2259  -33.3949 H   0  0  0  0  0  0  0  0  0  0  0  0
   -5.5942   16.6258  -34.9375 H   0  0  0  0  0  0  0  0  0  0  0  0
   -6.9468   17.8171  -34.9357 H   0  0  0  0  0  0  0  0  0  0  0  0
   -3.5252   17.1183  -33.8449 H   0  0  0  0  0  0  0  0  0  0  0  0
   -1.9363   18.9017  -33.1233 H   0  0  0  0  0  0  0  0  0  0  0  0
   -0.8723   20.3782  -32.6988 H   0  0  0  0  0  0  0  0  0  0  0  0
   -0.7149   22.1162  -33.1697 H   0  0  0  0  0  0  0  0  0  0  0  0
   -0.3693   22.7026  -31.0361 H   0  0  0  0  0  0  0  0  0  0  0  0
   -1.9411   21.9179  -30.5619 H   0  0  0  0  0  0  0  0  0  0  0  0
    0.8587   20.9472  -30.2669 H   0  0  0  0  0  0  0  0  0  0  0  0
   -0.6359   20.6247  -29.2809 H   0  0  0  0  0  0  0  0  0  0  0  0
   -0.4426   18.5395  -30.1584 H   0  0  0  0  0  0  0  0  0  0  0  0
   -1.2640   19.2929  -31.5671 H   0  0  0  0  0  0  0  0  0  0  0  0
    0.5217   19.0984  -31.5671 H   0  0  0  0  0  0  0  0  0  0  0  0
   -5.1676   21.7812  -33.3438 H   0  0  0  0  0  0  0  0  0  0  0  0
   -6.7093   19.9527  -34.0391 H   0  0  0  0  0  0  0  0  0  0  0  0
   -7.8088   25.0627  -29.9831 H   0  0  0  0  0  0  0  0  0  0  0  0
   -5.6578   25.7376  -28.9141 H   0  0  0  0  0  0  0  0  0  0  0  0
  1  2  1  0
  2  3  1  0
  3  4  1  0
  4  5  1  0
  5  6  1  0
  6  7  1  0
  7  8  1  0
  8  9  2  3
  9 10  1  0
 10 11  2  0
 11 12  1  0
 12 13  1  0
 13 14  1  0
 14 15  1  0
 15 16  1  0
 16 17  1  0
 17 18  1  0
 18 19  1  0
 19 20  1  0
 20 21  1  0
 21 22  1  0
 22 23  2  0
 23 24  1  0
 24 25  2  3
 25 26  1  0
 26 27  1  0
 27 28  1  0
 28 29  1  0
 24 30  1  0
 30 31  2  0
 12 32  1  0
 32 33  2  0
 33  9  1  0
 31 21  1  0
  1 34  1  0
  1 35  1  0
  1 36  1  0
  2 37  1  0
  2 38  1  0
  3 39  1  0
  3 40  1  0
  4 41  1  0
  4 42  1  0
  5 43  1  0
  5 44  1  0
  6 45  1  0
  6 46  1  0
  7 47  1  0
  7 48  1  0
 10 49  1  0
 11 50  1  0
 13 51  1  0
 13 52  1  0
 14 53  1  0
 14 54  1  0
 15 55  1  0
 15 56  1  0
 16 57  1  0
 16 58  1  0
 17 59  1  0
 17 60  1  0
 18 61  1  0
 18 62  1  0
 19 63  1  0
 19 64  1  0
 20 65  1  0
 20 66  1  0
 22 67  1  0
 23 68  1  0
 26 69  1  0
 26 70  1  0
 27 71  1  0
 27 72  1  0
 28 73  1  0
 28 74  1  0
 29 75  1  0
 29 76  1  0
 29 77  1  0
 30 78  1  0
 31 79  1  0
 32 80  1  0
 33 81  1  0
M  END
>  <UniqueID>  (38) 
36

>  <SMILES>  (38) 
CCCCCCCN=c1ccn(CCCCCCCCn2ccc(=NCCCC)cc2)cc1

>  <Energy>  (38) 
57.29276538107054

>  <Genealogy>  (38) 
CCCCCCCN=c1ccn(CCCCCCCCn2ccc(=NCCCC)cc2)cc1 (3D coordinates assigned)
CCCCCCCN=c1ccn(CCCCCCCCn2ccc(=NCCCC)cc2)cc1 (optimized conformer: 57.29276538107054 kcal/mol)

>  <smiles>  (38) 
CCCCCCCN=c1ccn(CCCCCCCCn2ccc(=NCCCC)cc2)cc1

>  <score_type>  (38) 
oracle

>  <origin>  (38) 
adg

>  <m_score__min__energy>  (38) 
-8.5299999999999994

>  <m_primary>  (38) 
energy

$$$$
38:0
     RDKit          3D

 40 41  0  0  0  0  0  0  0  0999 V2000
   -6.3590   25.4990  -29.4090 C   0  0  0  0  0  0  0  0  0  0  0  0
   -6.2920   24.9180  -30.8190 C   0  0  0  0  0  0  0  0  0  0  0  0
   -5.9740   23.4830  -30.7870 N   0  0  0  0  0  0  0  0  0  0  0  0
   -4.7160   23.0330  -30.1660 C   0  0  0  0  0  0  0  0  0  0  0  0
   -3.5040   23.7520  -30.7760 C   0  0  0  0  0  0  0  0  0  0  0  0
   -3.1470   24.8930  -30.0190 O   0  0  0  0  0  0  0  0  0  0  0  0
   -2.8770   24.5350  -28.6810 C   0  0  0  0  0  0  0  0  0  0  0  0
   -6.9180   22.5280  -31.3180 C   0  0  0  0  0  0  0  0  0  0  0  0
   -8.3010   22.7570  -31.2240 C   0  0  0  0  0  0  0  0  0  0  0  0
   -9.2070   21.8180  -31.7200 C   0  0  0  0  0  0  0  0  0  0  0  0
   -8.7470   20.6440  -32.3180 C   0  0  0  0  0  0  0  0  0  0  0  0
   -7.3680   20.3960  -32.4310 C   0  0  0  0  0  0  0  0  0  0  0  0
   -6.8750   19.1480  -33.0680 C   0  0  0  0  0  0  0  0  0  0  0  0
   -7.2180   17.8890  -32.5390 C   0  0  0  0  0  0  0  0  0  0  0  0
   -6.7520   16.7170  -33.1410 C   0  0  0  0  0  0  0  0  0  0  0  0
   -5.9390   16.7860  -34.2750 C   0  0  0  0  0  0  0  0  0  0  0  0
   -5.5920   18.0290  -34.8090 C   0  0  0  0  0  0  0  0  0  0  0  0
   -6.0550   19.2040  -34.2120 C   0  0  0  0  0  0  0  0  0  0  0  0
   -6.4610   21.3470  -31.9270 C   0  0  0  0  0  0  0  0  0  0  0  0
   -6.2654   24.6869  -28.6730 H   0  0  0  0  0  0  0  0  0  0  0  0
   -5.5377   26.2173  -29.2690 H   0  0  0  0  0  0  0  0  0  0  0  0
   -7.3222   26.0115  -29.2690 H   0  0  0  0  0  0  0  0  0  0  0  0
   -7.2651   25.0592  -31.3121 H   0  0  0  0  0  0  0  0  0  0  0  0
   -5.4976   25.4390  -31.3735 H   0  0  0  0  0  0  0  0  0  0  0  0
   -4.7530   23.2453  -29.0873 H   0  0  0  0  0  0  0  0  0  0  0  0
   -4.6064   21.9535  -30.3468 H   0  0  0  0  0  0  0  0  0  0  0  0
   -2.6511   23.0578  -30.8012 H   0  0  0  0  0  0  0  0  0  0  0  0
   -3.7703   24.0794  -31.7918 H   0  0  0  0  0  0  0  0  0  0  0  0
   -3.3990   25.2271  -28.0038 H   0  0  0  0  0  0  0  0  0  0  0  0
   -3.2279   23.5086  -28.4981 H   0  0  0  0  0  0  0  0  0  0  0  0
   -1.7937   24.5902  -28.4981 H   0  0  0  0  0  0  0  0  0  0  0  0
   -8.6719   23.6813  -30.7570 H   0  0  0  0  0  0  0  0  0  0  0  0
  -10.2881   22.0042  -31.6391 H   0  0  0  0  0  0  0  0  0  0  0  0
   -9.4681   19.9081  -32.7034 H   0  0  0  0  0  0  0  0  0  0  0  0
   -7.8571   17.8275  -31.6458 H   0  0  0  0  0  0  0  0  0  0  0  0
   -7.0260   15.7380  -32.7210 H   0  0  0  0  0  0  0  0  0  0  0  0
   -5.5726   15.8624  -34.7468 H   0  0  0  0  0  0  0  0  0  0  0  0
   -4.9523   18.0829  -35.7022 H   0  0  0  0  0  0  0  0  0  0  0  0
   -5.7774   20.1794  -34.6381 H   0  0  0  0  0  0  0  0  0  0  0  0
   -5.3797   21.1632  -32.0110 H   0  0  0  0  0  0  0  0  0  0  0  0
  1  2  1  0
  2  3  1  0
  3  4  1  0
  4  5  1  0
  5  6  1  0
  6  7  1  0
  3  8  1  0
  8  9  2  0
  9 10  1  0
 10 11  2  0
 11 12  1  0
 12 13  1  0
 13 14  2  0
 14 15  1  0
 15 16  2  0
 16 17  1  0
 17 18  2  0
 12 19  2  0
 19  8  1  0
 18 13  1  0
  1 20  1  0
  1 21  1  0
  1 22  1  0
  2 23  1  0
  2 24  1  0
  4 25  1  0
  4 26  1  0
  5 27  1  0
  5 28  1  0
  7 29  1  0
  7 30  1  0
  7 31  1  0
  9 32  1  0
 10 33  1  0
 11 34  1  0
 14 35  1  0
 15 36  1  0
 16 37  1  0
 17 38  1  0
 18 39  1  0
 19 40  1  0
M  END
>  <UniqueID>  (39) 
37

>  <SMILES>  (39) 
CCN(CCOC)c1cccc(-c2ccccc2)c1

>  <Energy>  (39) 
45.11252663172072

>  <Genealogy>  (39) 
CCN(CCOC)c1cccc(-c2ccccc2)c1 (3D coordinates assigned)
CCN(CCOC)c1cccc(-c2ccccc2)c1 (optimized conformer: 45.11252663172072 kcal/mol)

>  <smiles>  (39) 
CCN(CCOC)c1cccc(-c2ccccc2)c1

>  <score_type>  (39) 
oracle

>  <origin>  (39) 
adg

>  <m_score__min__energy>  (39) 
-7.6100000000000003

>  <m_primary>  (39) 
energy

$$$$
39:0
     RDKit          3D

 28 30  0  0  0  0  0  0  0  0999 V2000
   -3.8760   25.5270  -30.6630 O   0  0  0  0  0  0  0  0  0  0  0  0
   -3.5300   24.2620  -30.1900 C   0  0  0  0  0  0  0  0  0  0  0  0
   -2.6370   24.0950  -29.1370 C   0  0  0  0  0  0  0  0  0  0  0  0
   -2.4530   22.4510  -28.8770 S   0  0  0  0  0  0  0  0  0  0  0  0
   -3.5120   22.0140  -30.1050 C   0  0  0  0  0  0  0  0  0  0  0  0
   -3.8240   20.4470  -30.4540 S   0  0  0  0  0  0  0  0  0  0  0  0
   -4.0370   23.1080  -30.7330 N   0  0  0  0  0  0  0  0  0  0  0  0
   -4.9720   23.1330  -31.8880 C   0  0  1  0  0  0  0  0  0  0  0  0
   -4.4430   22.2940  -33.0660 C   0  0  0  0  0  0  0  0  0  0  0  0
   -4.8390   20.9310  -32.9730 O   0  0  0  0  0  0  0  0  0  0  0  0
   -6.1380   20.5700  -32.6220 C   0  0  0  0  0  0  0  0  0  0  0  0
   -6.6110   19.2930  -32.9420 C   0  0  0  0  0  0  0  0  0  0  0  0
   -7.9090   18.9170  -32.5850 C   0  0  0  0  0  0  0  0  0  0  0  0
   -8.7340   19.8130  -31.9010 C   0  0  0  0  0  0  0  0  0  0  0  0
   -8.2600   21.0850  -31.5650 C   0  0  0  0  0  0  0  0  0  0  0  0
   -6.9570   21.4710  -31.9180 C   0  0  0  0  0  0  0  0  0  0  0  0
   -6.4460   22.8310  -31.5000 C   0  0  0  0  0  0  0  0  0  0  0  0
   -4.1370   25.6740  -31.6310 H   0  0  0  0  0  0  0  0  0  0  0  0
   -2.1401   24.8995  -28.5750 H   0  0  0  0  0  0  0  0  0  0  0  0
   -5.0050   24.1719  -32.2479 H   0  0  0  0  0  0  0  0  0  0  0  0
   -4.8345   22.7138  -34.0044 H   0  0  0  0  0  0  0  0  0  0  0  0
   -3.3439   22.3297  -33.0405 H   0  0  0  0  0  0  0  0  0  0  0  0
   -5.9607   18.5839  -33.4752 H   0  0  0  0  0  0  0  0  0  0  0  0
   -8.2812   17.9145  -32.8429 H   0  0  0  0  0  0  0  0  0  0  0  0
   -9.7574   19.5177  -31.6264 H   0  0  0  0  0  0  0  0  0  0  0  0
   -8.9107   21.7861  -31.0219 H   0  0  0  0  0  0  0  0  0  0  0  0
   -7.0845   23.5934  -31.9701 H   0  0  0  0  0  0  0  0  0  0  0  0
   -6.4808   22.8450  -30.4006 H   0  0  0  0  0  0  0  0  0  0  0  0
  1  2  1  0
  2  3  2  0
  3  4  1  0
  4  5  1  0
  5  6  2  0
  5  7  1  0
  7  8  1  0
  8  9  1  0
  9 10  1  0
 10 11  1  0
 11 12  2  0
 12 13  1  0
 13 14  2  0
 14 15  1  0
 15 16  2  0
 16 17  1  0
  7  2  1  0
 17  8  1  0
 16 11  1  0
  1 18  1  0
  3 19  1  0
  8 20  1  6
  9 21  1  0
  9 22  1  0
 12 23  1  0
 13 24  1  0
 14 25  1  0
 15 26  1  0
 17 27  1  0
 17 28  1  0
M  END
>  <UniqueID>  (40) 
38

>  <SMILES>  (40) 
Oc1csc(=S)n1[C@H]1COc2ccccc2C1

>  <Energy>  (40) 
70.81835560986931

>  <Genealogy>  (40) 
Oc1csc(=S)n1[C@H]1COc2ccccc2C1 (chirality)
Oc1csc(=S)n1[C@H]1COc2ccccc2C1 (3D coordinates assigned)
Oc1csc(=S)n1[C@H]1COc2ccccc2C1 (nonaromatic ring conformer: 70.81835560986931 kcal/mol)

>  <smiles>  (40) 
Oc1csc(=S)n1C1COc2ccccc2C1

>  <score_type>  (40) 
oracle

>  <origin>  (40) 
adg

>  <m_score__min__energy>  (40) 
-7.4400000000000004

>  <m_primary>  (40) 
energy

$$$$
40:0
     RDKit          3D

 58 60  0  0  0  0  0  0  0  0999 V2000
   -5.9140   16.7900  -34.5720 C   0  0  0  0  0  0  0  0  0  0  0  0
   -5.5510   18.1530  -34.7600 O   0  0  0  0  0  0  0  0  0  0  0  0
   -4.9480   18.9610  -33.7820 C   0  0  0  0  0  0  0  0  0  0  0  0
   -3.5810   19.3000  -33.8390 C   0  0  0  0  0  0  0  0  0  0  0  0
   -3.0050   20.0880  -32.8400 C   0  0  0  0  0  0  0  0  0  0  0  0
   -3.7800   20.5440  -31.7740 C   0  0  0  0  0  0  0  0  0  0  0  0
   -5.1360   20.2200  -31.7070 C   0  0  0  0  0  0  0  0  0  0  0  0
   -5.7320   19.4370  -32.7090 C   0  0  0  0  0  0  0  0  0  0  0  0
   -7.1980   19.0950  -32.6220 C   0  0  0  0  0  0  0  0  0  0  0  0
   -8.0030   20.2030  -33.1360 N   0  0  0  0  0  0  0  0  0  0  0  0
   -8.8330   21.0210  -31.8390 S   0  0  0  0  0  0  0  0  0  0  0  0
   -8.9890   20.1020  -30.6580 O   0  0  0  0  0  0  0  0  0  0  0  0
  -10.2050   21.3970  -32.3240 O   0  0  0  0  0  0  0  0  0  0  0  0
   -8.0030   22.4870  -31.3650 N   0  0  0  0  0  0  0  0  0  0  0  0
   -7.5110   22.4470  -29.9640 C   0  0  0  0  0  0  0  0  0  0  0  0
   -6.0170   22.7870  -29.8180 C   0  0  0  0  0  0  0  0  0  0  0  0
   -5.6520   24.0810  -30.5710 C   0  0  0  0  0  0  0  0  0  0  0  0
   -4.1540   24.2000  -30.6480 C   0  0  0  0  0  0  0  0  0  0  0  0
   -3.5030   23.4440  -31.4210 O   0  0  0  0  0  0  0  0  0  0  0  0
   -3.4800   25.2120  -29.8920 N   0  0  0  0  0  0  0  0  0  0  0  0
   -2.4100   24.9370  -28.9410 C   0  0  0  0  0  0  0  0  0  0  0  0
   -2.9810   24.2700  -27.6870 C   0  0  0  0  0  0  0  0  0  0  0  0
   -2.4840   22.8550  -27.5660 C   0  0  0  0  0  0  0  0  0  0  0  0
   -1.3820   22.5600  -26.7450 C   0  0  0  0  0  0  0  0  0  0  0  0
   -0.9400   21.2400  -26.6090 C   0  0  0  0  0  0  0  0  0  0  0  0
   -1.6010   20.2070  -27.2800 C   0  0  0  0  0  0  0  0  0  0  0  0
   -2.7060   20.4920  -28.0870 C   0  0  0  0  0  0  0  0  0  0  0  0
   -3.1510   21.8110  -28.2270 C   0  0  0  0  0  0  0  0  0  0  0  0
   -6.3060   24.1610  -31.9760 C   0  0  0  0  0  0  0  0  0  0  0  0
   -6.9910   22.8500  -32.3710 C   0  0  0  0  0  0  0  0  0  0  0  0
   -5.9723   16.5712  -33.4956 H   0  0  0  0  0  0  0  0  0  0  0  0
   -6.8931   16.6037  -35.0376 H   0  0  0  0  0  0  0  0  0  0  0  0
   -5.1573   16.1414  -35.0376 H   0  0  0  0  0  0  0  0  0  0  0  0
   -2.9637   18.9415  -34.6759 H   0  0  0  0  0  0  0  0  0  0  0  0
   -1.9379   20.3495  -32.8941 H   0  0  0  0  0  0  0  0  0  0  0  0
   -3.3223   21.1594  -30.9855 H   0  0  0  0  0  0  0  0  0  0  0  0
   -5.7424   20.5806  -30.8631 H   0  0  0  0  0  0  0  0  0  0  0  0
   -7.3973   18.1927  -33.2188 H   0  0  0  0  0  0  0  0  0  0  0  0
   -7.4641   18.9137  -31.5702 H   0  0  0  0  0  0  0  0  0  0  0  0
   -8.7440   19.8010  -33.7570 H   0  0  0  0  0  0  0  0  0  0  0  0
   -8.0905   23.1712  -29.3726 H   0  0  0  0  0  0  0  0  0  0  0  0
   -7.6395   21.4136  -29.6097 H   0  0  0  0  0  0  0  0  0  0  0  0
   -5.7834   22.9172  -28.7510 H   0  0  0  0  0  0  0  0  0  0  0  0
   -5.4330   21.9614  -30.2508 H   0  0  0  0  0  0  0  0  0  0  0  0
   -6.0579   24.9343  -30.0079 H   0  0  0  0  0  0  0  0  0  0  0  0
   -1.6727   24.2663  -29.4064 H   0  0  0  0  0  0  0  0  0  0  0  0
   -1.9272   25.8839  -28.6577 H   0  0  0  0  0  0  0  0  0  0  0  0
   -2.6678   24.8401  -26.8000 H   0  0  0  0  0  0  0  0  0  0  0  0
   -4.0783   24.2549  -27.7621 H   0  0  0  0  0  0  0  0  0  0  0  0
   -0.8658   23.3694  -26.2080 H   0  0  0  0  0  0  0  0  0  0  0  0
   -0.0711   21.0144  -25.9732 H   0  0  0  0  0  0  0  0  0  0  0  0
   -1.2514   19.1696  -27.1728 H   0  0  0  0  0  0  0  0  0  0  0  0
   -3.2266   19.6780  -28.6128 H   0  0  0  0  0  0  0  0  0  0  0  0
   -4.0258   22.0308  -28.8566 H   0  0  0  0  0  0  0  0  0  0  0  0
   -7.0562   24.9654  -31.9722 H   0  0  0  0  0  0  0  0  0  0  0  0
   -5.5095   24.3596  -32.7082 H   0  0  0  0  0  0  0  0  0  0  0  0
   -7.4782   22.9741  -33.3494 H   0  0  0  0  0  0  0  0  0  0  0  0
   -6.2365   22.0516  -32.4282 H   0  0  0  0  0  0  0  0  0  0  0  0
  1  2  1  0
  2  3  1  0
  3  4  2  0
  4  5  1  0
  5  6  2  0
  6  7  1  0
  7  8  2  0
  8  9  1  0
  9 10  1  0
 10 11  1  0
 11 12  2  0
 11 13  2  0
 11 14  1  0
 14 15  1  0
 15 16  1  0
 16 17  1  0
 17 18  1  0
 18 19  2  0
 18 20  1  0
 20 21  1  0
 21 22  1  0
 22 23  1  0
 23 24  2  0
 24 25  1  0
 25 26  2  0
 26 27  1  0
 27 28  2  0
 17 29  1  0
 29 30  1  0
  8  3  1  0
 30 14  1  0
 28 23  1  0
  1 31  1  0
  1 32  1  0
  1 33  1  0
  4 34  1  0
  5 35  1  0
  6 36  1  0
  7 37  1  0
  9 38  1  0
  9 39  1  0
 10 40  1  0
 15 41  1  0
 15 42  1  0
 16 43  1  0
 16 44  1  0
 17 45  1  0
 21 46  1  0
 21 47  1  0
 22 48  1  0
 22 49  1  0
 24 50  1  0
 25 51  1  0
 26 52  1  0
 27 53  1  0
 28 54  1  0
 29 55  1  0
 29 56  1  0
 30 57  1  0
 30 58  1  0
M  CHG  1  20  -1
M  END
>  <UniqueID>  (41) 
39

>  <SMILES>  (41) 
COc1ccccc1CNS(=O)(=O)N1CCC(C(=O)[N-]CCc2ccccc2)CC1

>  <Energy>  (41) 
54.31624828320029

>  <Genealogy>  (41) 
COc1ccccc1CNS(=O)(=O)N1CCC(C(=O)[N-]CCc2ccccc2)CC1 (protonated)
COc1ccccc1CNS(=O)(=O)N1CCC(C(=O)[N-]CCc2ccccc2)CC1 (3D coordinates assigned)
COc1ccccc1CNS(=O)(=O)N1CCC(C(=O)[N-]CCc2ccccc2)CC1 (nonaromatic ring conformer: 54.31624828320029 kcal/mol)

>  <smiles>  (41) 
COc1ccccc1CNS(=O)(=O)N1CCC(C(=O)NCCc2ccccc2)CC1

>  <score_type>  (41) 
oracle

>  <origin>  (41) 
adg

>  <m_score__min__energy>  (41) 
-11.44

>  <m_primary>  (41) 
energy

$$$$
41:0
     RDKit          3D

 41 43  0  0  0  0  0  0  0  0999 V2000
   -3.7023   17.4466  -34.7435 H   0  0  0  0  0  0  0  0  0  0  0  0
   -4.6690   17.0660  -34.3820 C   0  0  0  0  0  0  0  0  0  0  0  0
   -5.0420   15.7910  -34.6590 N   0  0  0  0  0  0  0  0  0  0  0  0
   -6.2290   15.2990  -34.2240 C   0  0  0  0  0  0  0  0  0  0  0  0
   -6.5130   14.2633  -34.4620 H   0  0  0  0  0  0  0  0  0  0  0  0
   -7.0690   16.0810  -33.4950 N   0  0  0  0  0  0  0  0  0  0  0  0
   -7.9730   15.6720  -33.1700 H   0  0  0  0  0  0  0  0  0  0  0  0
   -6.7380   17.3690  -33.1850 C   0  0  0  0  0  0  0  0  0  0  0  0
   -5.5140   17.8980  -33.6360 C   0  0  0  0  0  0  0  0  0  0  0  0
   -5.1560   19.3020  -33.3490 C   0  0  0  0  0  0  0  0  0  0  0  0
   -4.0040   19.7330  -33.6330 O   0  0  0  0  0  0  0  0  0  0  0  0
   -6.1500   20.1770  -32.6770 C   0  0  0  0  0  0  0  0  0  0  0  0
   -6.0940   21.4810  -32.7040 N   0  0  0  0  0  0  0  0  0  0  0  0
   -5.2640   22.3380  -31.9070 C   0  0  0  0  0  0  0  0  0  0  0  0
   -5.7580   23.5810  -31.5090 C   0  0  0  0  0  0  0  0  0  0  0  0
   -6.7849   23.8678  -31.7794 H   0  0  0  0  0  0  0  0  0  0  0  0
   -4.9610   24.4740  -30.7660 C   0  0  0  0  0  0  0  0  0  0  0  0
   -5.4690   25.7140  -30.3490 O   0  0  0  0  0  0  0  0  0  0  0  0
   -6.4610   25.8960  -29.3440 C   0  0  0  0  0  0  0  0  0  0  0  0
   -5.9964   25.8108  -28.3506 H   0  0  0  0  0  0  0  0  0  0  0  0
   -6.9144   26.8923  -29.4525 H   0  0  0  0  0  0  0  0  0  0  0  0
   -7.2386   25.1255  -29.4525 H   0  0  0  0  0  0  0  0  0  0  0  0
   -3.6280   24.1070  -30.4430 C   0  0  0  0  0  0  0  0  0  0  0  0
   -2.7520   24.9200  -29.6980 O   0  0  0  0  0  0  0  0  0  0  0  0
   -2.2210   24.6390  -28.4080 C   0  0  0  0  0  0  0  0  0  0  0  0
   -2.9151   25.0063  -27.6378 H   0  0  0  0  0  0  0  0  0  0  0  0
   -2.0888   23.5529  -28.2945 H   0  0  0  0  0  0  0  0  0  0  0  0
   -1.2486   25.1406  -28.2945 H   0  0  0  0  0  0  0  0  0  0  0  0
   -3.1220   22.8700  -30.8800 C   0  0  0  0  0  0  0  0  0  0  0  0
   -1.7950   22.5440  -30.5530 O   0  0  0  0  0  0  0  0  0  0  0  0
   -1.0690   21.4540  -31.1140 C   0  0  0  0  0  0  0  0  0  0  0  0
   -0.6558   20.8336  -30.3051 H   0  0  0  0  0  0  0  0  0  0  0  0
   -1.7429   20.8455  -31.7350 H   0  0  0  0  0  0  0  0  0  0  0  0
   -0.2478   21.8413  -31.7350 H   0  0  0  0  0  0  0  0  0  0  0  0
   -3.9370   22.0000  -31.6230 C   0  0  0  0  0  0  0  0  0  0  0  0
   -3.5281   21.0449  -31.9844 H   0  0  0  0  0  0  0  0  0  0  0  0
   -7.1930   19.5270  -31.8100 C   0  0  0  0  0  0  0  0  0  0  0  0
   -6.7690   19.3600  -30.8088 H   0  0  0  0  0  0  0  0  0  0  0  0
   -8.0643   20.1970  -31.7661 H   0  0  0  0  0  0  0  0  0  0  0  0
   -7.6490   18.2070  -32.3710 C   0  0  0  0  0  0  0  0  0  0  0  0
   -8.8020   17.7890  -32.0850 O   0  0  0  0  0  0  0  0  0  0  0  0
  1  2  1  0
  2  3  2  0
  3  4  1  0
  4  5  1  0
  4  6  2  0
  6  7  1  0
  6  8  1  0
  8  9  2  0
  9 10  1  0
 10 11  2  0
 10 12  1  0
 12 13  2  0
 13 14  1  0
 14 15  2  0
 15 16  1  0
 15 17  1  0
 17 18  1  0
 18 19  1  0
 19 20  1  0
 19 21  1  0
 19 22  1  0
 17 23  2  0
 23 24  1  0
 24 25  1  0
 25 26  1  0
 25 27  1  0
 25 28  1  0
 23 29  1  0
 29 30  1  0
 30 31  1  0
 31 32  1  0
 31 33  1  0
 31 34  1  0
 29 35  2  0
 35 36  1  0
 12 37  1  0
 37 38  1  0
 37 39  1  0
 37 40  1  0
 40 41  2  0
  9  2  1  0
 35 14  1  0
 40  8  1  0
M  CHG  1   6   1
M  END
>  <UniqueID>  (42) 
40

>  <SMILES>  (42) 
COc1cc(/N=C2/CC(=O)c3[nH+]cncc3C2=O)cc(OC)c1OC

>  <Energy>  (42) 
57.24769613930029

>  <Genealogy>  (42) 
COc1cc(N=C2CC(=O)c3[nH+]cncc3C2=O)cc(OC)c1OC (protonated)
COc1cc(/N=C2/CC(=O)c3[nH+]cncc3C2=O)cc(OC)c1OC (cis-trans isomerization)
COc1cc(/N=C2/CC(=O)c3[nH+]cncc3C2=O)cc(OC)c1OC (3D coordinates assigned)
COc1cc(/N=C2/CC(=O)c3[nH+]cncc3C2=O)cc(OC)c1OC (nonaromatic ring conformer: 57.24769613930029 kcal/mol)

>  <smiles>  (42) 
COc1cc(N=C2CC(=O)c3ncncc3C2=O)cc(OC)c1OC

>  <score_type>  (42) 
oracle

>  <origin>  (42) 
adg

>  <m_score__min__energy>  (42) 
-7

>  <m_primary>  (42) 
energy

$$$$
42:0
     RDKit          3D

 40 42  0  0  0  0  0  0  0  0999 V2000
   -8.0841   23.8492  -32.6735 H   0  0  0  0  0  0  0  0  0  0  0  0
   -7.5040   23.1330  -32.0730 C   0  0  0  0  0  0  0  0  0  0  0  0
   -7.9640   21.8760  -31.9700 C   0  0  0  0  0  0  0  0  0  0  0  0
   -7.3350   20.7300  -32.5960 C   0  0  0  0  0  0  0  0  0  0  0  0
   -6.4170   20.7980  -33.4550 O   0  0  0  0  0  0  0  0  0  0  0  0
   -7.9850   19.5150  -32.1320 C   0  0  0  0  0  0  0  0  0  0  0  0
   -7.7010   18.2460  -32.4720 C   0  0  0  0  0  0  0  0  0  0  0  0
   -8.4805   17.4869  -32.3100 H   0  0  0  0  0  0  0  0  0  0  0  0
   -6.4180   17.7990  -33.0470 C   0  0  0  0  0  0  0  0  0  0  0  0
   -6.1200   18.1000  -34.3840 C   0  0  0  0  0  0  0  0  0  0  0  0
   -6.8244   18.6976  -34.9813 H   0  0  0  0  0  0  0  0  0  0  0  0
   -4.9300   17.6430  -34.9610 C   0  0  0  0  0  0  0  0  0  0  0  0
   -4.6929   17.8974  -36.0046 H   0  0  0  0  0  0  0  0  0  0  0  0
   -4.0410   16.8630  -34.2130 C   0  0  0  0  0  0  0  0  0  0  0  0
   -2.4200   16.2380  -35.0030 Br  0  0  0  0  0  0  0  0  0  0  0  0
   -4.3480   16.5340  -32.8890 C   0  0  0  0  0  0  0  0  0  0  0  0
   -3.6528   15.9158  -32.3020 H   0  0  0  0  0  0  0  0  0  0  0  0
   -5.5370   16.9890  -32.3090 C   0  0  0  0  0  0  0  0  0  0  0  0
   -5.7832   16.7124  -31.2732 H   0  0  0  0  0  0  0  0  0  0  0  0
   -9.1140   19.8730  -31.2140 C   0  0  0  0  0  0  0  0  0  0  0  0
   -8.9589   19.4209  -30.2233 H   0  0  0  0  0  0  0  0  0  0  0  0
  -10.0765   19.5012  -31.5954 H   0  0  0  0  0  0  0  0  0  0  0  0
   -9.1050   21.4140  -31.1080 C   0  0  0  0  0  0  0  0  0  0  0  0
   -8.9477   21.7255  -30.0648 H   0  0  0  0  0  0  0  0  0  0  0  0
  -10.0614   21.8483  -31.4346 H   0  0  0  0  0  0  0  0  0  0  0  0
   -6.2660   23.6100  -31.4280 C   0  0  0  0  0  0  0  0  0  0  0  0
   -5.0910   22.8410  -31.4400 C   0  0  0  0  0  0  0  0  0  0  0  0
   -5.0788   21.8693  -31.9554 H   0  0  0  0  0  0  0  0  0  0  0  0
   -3.9370   23.3030  -30.8010 C   0  0  0  0  0  0  0  0  0  0  0  0
   -3.0163   22.7017  -30.8300 H   0  0  0  0  0  0  0  0  0  0  0  0
   -3.9490   24.5360  -30.1200 C   0  0  0  0  0  0  0  0  0  0  0  0
   -2.8170   25.0440  -29.4650 O   0  0  0  0  0  0  0  0  0  0  0  0
   -2.2890   24.5210  -28.2500 C   0  0  0  0  0  0  0  0  0  0  0  0
   -2.7816   25.0090  -27.3961 H   0  0  0  0  0  0  0  0  0  0  0  0
   -2.4708   23.4370  -28.2078 H   0  0  0  0  0  0  0  0  0  0  0  0
   -1.2067   24.7132  -28.2078 H   0  0  0  0  0  0  0  0  0  0  0  0
   -5.1300   25.2840  -30.0850 C   0  0  0  0  0  0  0  0  0  0  0  0
   -5.1510   26.2447  -29.5497 H   0  0  0  0  0  0  0  0  0  0  0  0
   -6.2840   24.8220  -30.7240 C   0  0  0  0  0  0  0  0  0  0  0  0
   -7.2108   25.4123  -30.6742 H   0  0  0  0  0  0  0  0  0  0  0  0
  1  2  1  0
  2  3  2  3
  3  4  1  0
  4  5  2  0
  4  6  1  0
  6  7  2  0
  7  8  1  0
  7  9  1  0
  9 10  2  0
 10 11  1  0
 10 12  1  0
 12 13  1  0
 12 14  2  0
 14 15  1  0
 14 16  1  0
 16 17  1  0
 16 18  2  0
 18 19  1  0
  6 20  1  0
 20 21  1  0
 20 22  1  0
 20 23  1  0
 23 24  1  0
 23 25  1  0
  2 26  1  0
 26 27  2  0
 27 28  1  0
 27 29  1  0
 29 30  1  0
 29 31  2  0
 31 32  1  0
 32 33  1  0
 33 34  1  0
 33 35  1  0
 33 36  1  0
 31 37  1  0
 37 38  1  0
 37 39  2  0
 39 40  1  0
 23  3  1  0
 39 26  1  0
 18  9  1  0
M  END
>  <UniqueID>  (43) 
41

>  <SMILES>  (43) 
COc1ccc(C=C2CC/C(=C/c3ccc(Br)cc3)C2=O)cc1

>  <Energy>  (43) 
64.37094736617075

>  <Genealogy>  (43) 
COc1ccc(C=C2CC/C(=C/c3ccc(Br)cc3)C2=O)cc1 (cis-trans isomerization)
COc1ccc(C=C2CC/C(=C/c3ccc(Br)cc3)C2=O)cc1 (3D coordinates assigned)
COc1ccc(C=C2CC/C(=C/c3ccc(Br)cc3)C2=O)cc1 (nonaromatic ring conformer: 64.37094736617075 kcal/mol)

>  <smiles>  (43) 
COc1ccc(C=C2CCC(=Cc3ccc(Br)cc3)C2=O)cc1

>  <score_type>  (43) 
oracle

>  <origin>  (43) 
adg

>  <m_score__min__energy>  (43) 
-9.8300000000000001

>  <m_primary>  (43) 
energy

$$$$
43:0
     RDKit          3D

 38 40  0  0  0  0  0  0  0  0999 V2000
   -4.4200   17.3830  -34.6750 C   0  0  0  0  0  0  0  0  0  0  0  0
   -4.3090   16.2670  -33.6370 C   0  0  0  0  0  0  0  0  0  0  0  0
   -5.6540   15.5770  -33.3650 C   0  0  0  0  0  0  0  0  0  0  0  0
   -6.8410   16.3460  -33.9600 C   0  0  0  0  0  0  0  0  0  0  0  0
   -7.5520   17.0390  -32.9340 O   0  0  0  0  0  0  0  0  0  0  0  0
   -7.4280   18.4060  -32.6340 C   0  0  0  0  0  0  0  0  0  0  0  0
   -8.5810   19.1960  -32.6760 C   0  0  0  0  0  0  0  0  0  0  0  0
   -8.5220   20.5600  -32.3880 C   0  0  0  0  0  0  0  0  0  0  0  0
   -7.3030   21.1600  -32.0530 C   0  0  0  0  0  0  0  0  0  0  0  0
   -6.1240   20.3750  -32.0100 C   0  0  0  0  0  0  0  0  0  0  0  0
   -6.1960   19.0050  -32.3030 C   0  0  0  0  0  0  0  0  0  0  0  0
   -4.7770   20.9790  -31.6530 C   0  0  0  0  0  0  0  0  0  0  0  0
   -4.8740   22.4150  -31.3820 N   0  0  0  0  0  0  0  0  0  0  0  0
   -6.0000   23.1440  -31.4200 C   0  0  0  0  0  0  0  0  0  0  0  0
   -5.8270   24.4440  -31.0950 N   0  0  0  0  0  0  0  0  0  0  0  0
   -4.5020   24.5090  -30.8420 C   0  0  0  0  0  0  0  0  0  0  0  0
   -3.8510   25.6700  -30.4440 O   0  0  0  0  0  0  0  0  0  0  0  0
   -3.9070   23.2770  -31.0240 C   0  0  0  0  0  0  0  0  0  0  0  0
   -2.4770   22.9190  -30.7680 C   0  0  0  0  0  0  0  0  0  0  0  0
   -7.2540   22.5620  -31.7560 N   0  0  0  0  0  0  0  0  0  0  0  0
   -4.5164   18.3518  -34.1629 H   0  0  0  0  0  0  0  0  0  0  0  0
   -3.5180   17.3892  -35.3046 H   0  0  0  0  0  0  0  0  0  0  0  0
   -5.3055   17.2114  -35.3046 H   0  0  0  0  0  0  0  0  0  0  0  0
   -3.5950   15.5148  -34.0035 H   0  0  0  0  0  0  0  0  0  0  0  0
   -3.9712   16.7217  -32.6940 H   0  0  0  0  0  0  0  0  0  0  0  0
   -5.6293   14.5699  -33.8067 H   0  0  0  0  0  0  0  0  0  0  0  0
   -5.7945   15.5377  -32.2747 H   0  0  0  0  0  0  0  0  0  0  0  0
   -6.4688   17.0729  -34.6969 H   0  0  0  0  0  0  0  0  0  0  0  0
   -7.5220   15.6306  -34.4441 H   0  0  0  0  0  0  0  0  0  0  0  0
   -9.5454   18.7370  -32.9390 H   0  0  0  0  0  0  0  0  0  0  0  0
   -9.4387   21.1669  -32.4245 H   0  0  0  0  0  0  0  0  0  0  0  0
   -5.2826   18.3927  -32.2741 H   0  0  0  0  0  0  0  0  0  0  0  0
   -4.3877   20.4740  -30.7567 H   0  0  0  0  0  0  0  0  0  0  0  0
   -4.1040   20.8401  -32.5120 H   0  0  0  0  0  0  0  0  0  0  0  0
   -2.2987   22.8744  -29.6835 H   0  0  0  0  0  0  0  0  0  0  0  0
   -2.2586   21.9385  -31.2162 H   0  0  0  0  0  0  0  0  0  0  0  0
   -1.8224   23.6810  -31.2162 H   0  0  0  0  0  0  0  0  0  0  0  0
   -8.1170   23.1520  -31.7780 H   0  0  0  0  0  0  0  0  0  0  0  0
  1  2  1  0
  2  3  1  0
  3  4  1  0
  4  5  1  0
  5  6  1  0
  6  7  2  0
  7  8  1  0
  8  9  2  0
  9 10  1  0
 10 11  2  0
 10 12  1  0
 12 13  1  0
 13 14  1  0
 14 15  2  0
 15 16  1  0
 16 17  1  0
 16 18  2  0
 18 19  1  0
 14 20  1  0
 11  6  1  0
 18 13  1  0
 20  9  1  0
  1 21  1  0
  1 22  1  0
  1 23  1  0
  2 24  1  0
  2 25  1  0
  3 26  1  0
  3 27  1  0
  4 28  1  0
  4 29  1  0
  7 30  1  0
  8 31  1  0
 11 32  1  0
 12 33  1  0
 12 34  1  0
 19 35  1  0
 19 36  1  0
 19 37  1  0
 20 38  1  0
M  CHG  1  17  -1
M  END
>  <UniqueID>  (44) 
42

>  <SMILES>  (44) 
CCCCOc1ccc2c(c1)Cn1c(nc([O-])c1C)N2

>  <Energy>  (44) 
66.65897963804017

>  <Genealogy>  (44) 
CCCCOc1ccc2c(c1)Cn1c(nc([O-])c1C)N2 (protonated)
CCCCOc1ccc2c(c1)Cn1c(nc([O-])c1C)N2 (3D coordinates assigned)
CCCCOc1ccc2c(c1)Cn1c(nc([O-])c1C)N2 (nonaromatic ring conformer: 66.65897963804017 kcal/mol)

>  <smiles>  (44) 
CCCCOc1ccc2c(c1)Cn1c(nc(O)c1C)N2

>  <score_type>  (44) 
oracle

>  <origin>  (44) 
adg

>  <m_score__min__energy>  (44) 
-9.8000000000000007

>  <m_primary>  (44) 
energy

$$$$
44:0
     RDKit          3D

 43 43  0  0  0  0  0  0  0  0999 V2000
   -5.2905   16.1598  -30.7161 H   0  0  0  0  0  0  0  0  0  0  0  0
   -5.7500   16.7910  -31.4910 C   0  0  0  0  0  0  0  0  0  0  0  0
   -6.9200   17.5010  -31.2070 C   0  0  0  0  0  0  0  0  0  0  0  0
   -7.3767   17.4272  -30.2090 H   0  0  0  0  0  0  0  0  0  0  0  0
   -7.5150   18.3080  -32.1900 C   0  0  0  0  0  0  0  0  0  0  0  0
   -8.7730   19.0760  -31.8780 C   0  0  0  0  0  0  0  0  0  0  0  0
   -8.8212   19.2521  -30.7933 H   0  0  0  0  0  0  0  0  0  0  0  0
   -9.6293   18.4783  -32.2238 H   0  0  0  0  0  0  0  0  0  0  0  0
   -8.8180   20.4260  -32.6000 C   0  0  0  0  0  0  0  0  0  0  0  0
   -9.8539   20.6342  -32.9058 H   0  0  0  0  0  0  0  0  0  0  0  0
   -8.1561   20.3725  -33.4769 H   0  0  0  0  0  0  0  0  0  0  0  0
   -8.2320   21.7820  -31.5160 S   0  0  0  0  0  0  0  0  0  0  0  0
   -6.4530   21.3990  -31.6590 C   0  0  0  0  0  0  0  0  0  0  0  0
   -6.2979   20.6857  -32.4819 H   0  0  0  0  0  0  0  0  0  0  0  0
   -6.0991   20.9583  -30.7153 H   0  0  0  0  0  0  0  0  0  0  0  0
   -5.6700   22.6790  -31.9430 C   0  0  0  0  0  0  0  0  0  0  0  0
   -5.2802   23.0824  -30.9968 H   0  0  0  0  0  0  0  0  0  0  0  0
   -6.3418   23.4089  -32.4183 H   0  0  0  0  0  0  0  0  0  0  0  0
   -4.5520   22.4060  -32.8470 N   0  0  0  0  0  0  0  0  0  0  0  0
   -4.6340   22.7620  -33.8260 H   0  0  0  0  0  0  0  0  0  0  0  0
   -3.3880   21.6230  -32.5150 C   0  0  0  0  0  0  0  0  0  0  0  0
   -2.5370   21.2030  -33.5910 N   0  0  0  0  0  0  0  0  0  0  0  0
   -2.3990   21.8580  -34.3920 H   0  0  0  0  0  0  0  0  0  0  0  0
   -2.3180   19.8410  -33.8430 C   0  0  0  0  0  0  0  0  0  0  0  0
   -2.1370   18.7180  -34.0500 N   0  0  0  0  0  0  0  0  0  0  0  0
   -3.0850   21.3620  -31.2650 N   0  0  0  0  0  0  0  0  0  0  0  0
   -3.2870   20.4210  -30.8660 H   0  0  0  0  0  0  0  0  0  0  0  0
   -2.5160   22.3280  -30.3190 C   0  0  0  0  0  0  0  0  0  0  0  0
   -2.2351   23.2409  -30.8646 H   0  0  0  0  0  0  0  0  0  0  0  0
   -1.6348   21.8715  -29.8445 H   0  0  0  0  0  0  0  0  0  0  0  0
   -3.5230   22.6920  -29.2210 C   0  0  0  0  0  0  0  0  0  0  0  0
   -3.0474   22.5576  -28.2383 H   0  0  0  0  0  0  0  0  0  0  0  0
   -4.3998   22.0350  -29.3187 H   0  0  0  0  0  0  0  0  0  0  0  0
   -3.9840   24.1400  -29.3580 C   0  0  0  0  0  0  0  0  0  0  0  0
   -4.1230   24.5767  -28.3580 H   0  0  0  0  0  0  0  0  0  0  0  0
   -3.2248   24.7161  -29.9074 H   0  0  0  0  0  0  0  0  0  0  0  0
   -4.9365   24.1711  -29.9074 H   0  0  0  0  0  0  0  0  0  0  0  0
   -6.9340   18.3770  -33.4660 C   0  0  0  0  0  0  0  0  0  0  0  0
   -7.4060   18.9902  -34.2477 H   0  0  0  0  0  0  0  0  0  0  0  0
   -5.7590   17.6720  -33.7520 C   0  0  0  0  0  0  0  0  0  0  0  0
   -5.0520   17.8110  -35.3560 Cl  0  0  0  0  0  0  0  0  0  0  0  0
   -5.1610   16.8800  -32.7570 C   0  0  0  0  0  0  0  0  0  0  0  0
   -3.6650   16.0050  -33.0600 Cl  0  0  0  0  0  0  0  0  0  0  0  0
  1  2  1  0
  2  3  2  0
  3  4  1  0
  3  5  1  0
  5  6  1  0
  6  7  1  0
  6  8  1  0
  6  9  1  0
  9 10  1  0
  9 11  1  0
  9 12  1  0
 12 13  1  0
 13 14  1  0
 13 15  1  0
 13 16  1  0
 16 17  1  0
 16 18  1  0
 16 19  1  0
 19 20  1  0
 19 21  1  0
 21 22  1  0
 22 23  1  0
 22 24  1  0
 24 25  3  0
 21 26  2  0
 26 27  1  0
 26 28  1  0
 28 29  1  0
 28 30  1  0
 28 31  1  0
 31 32  1  0
 31 33  1  0
 31 34  1  0
 34 35  1  0
 34 36  1  0
 34 37  1  0
  5 38  2  0
 38 39  1  0
 38 40  1  0
 40 41  1  0
 40 42  2  0
 42 43  1  0
 42  2  1  0
M  CHG  1  26   1
M  END
>  <UniqueID>  (45) 
43

>  <SMILES>  (45) 
CCC/[NH+]=C(\NC#N)NCCSCCc1ccc(Cl)c(Cl)c1

>  <Energy>  (45) 
29.39731903321658

>  <Genealogy>  (45) 
CCC[NH+]=C(NC#N)NCCSCCc1ccc(Cl)c(Cl)c1 (protonated)
CCC/[NH+]=C(\NC#N)NCCSCCc1ccc(Cl)c(Cl)c1 (cis-trans isomerization)
CCC/[NH+]=C(\NC#N)NCCSCCc1ccc(Cl)c(Cl)c1 (3D coordinates assigned)
CCC/[NH+]=C(\NC#N)NCCSCCc1ccc(Cl)c(Cl)c1 (optimized conformer: 29.39731903321658 kcal/mol)

>  <smiles>  (45) 
CCCN=C(NC#N)NCCSCCc1ccc(Cl)c(Cl)c1

>  <score_type>  (45) 
oracle

>  <origin>  (45) 
adg

>  <m_score__min__energy>  (45) 
-6.6900000000000004

>  <m_primary>  (45) 
energy

$$$$
45:0
     RDKit          3D

 36 39  0  0  0  0  0  0  0  0999 V2000
   -0.3880   26.6260  -27.1490 C   0  0  0  0  0  0  0  0  0  0  0  0
   -0.6790   25.4370  -27.9380 N   0  0  0  0  0  0  0  0  0  0  0  0
   -1.8670   25.1290  -28.4870 C   0  0  0  0  0  0  0  0  0  0  0  0
   -1.7170   23.9590  -29.2130 C   0  0  0  0  0  0  0  0  0  0  0  0
   -2.7530   23.2330  -29.9930 C   0  0  0  0  0  0  0  0  0  0  0  0
   -2.5850   21.8760  -30.3200 C   0  0  0  0  0  0  0  0  0  0  0  0
   -3.5600   21.1940  -31.0540 C   0  0  0  0  0  0  0  0  0  0  0  0
   -4.7160   21.8570  -31.4890 C   0  0  0  0  0  0  0  0  0  0  0  0
   -5.7500   21.1220  -32.2490 C   0  0  0  0  0  0  0  0  0  0  0  0
   -5.5240   20.3290  -33.3670 C   0  0  0  0  0  0  0  0  0  0  0  0
   -6.6990   19.8030  -33.7770 N   0  0  0  0  0  0  0  0  0  0  0  0
   -7.6150   20.2900  -32.9190 C   0  0  0  0  0  0  0  0  0  0  0  0
   -8.9860   20.0480  -32.9560 C   0  0  0  0  0  0  0  0  0  0  0  0
   -9.7870   20.6830  -31.9940 C   0  0  0  0  0  0  0  0  0  0  0  0
   -9.2060   21.5410  -31.0410 C   0  0  0  0  0  0  0  0  0  0  0  0
   -7.8190   21.7500  -31.0520 C   0  0  0  0  0  0  0  0  0  0  0  0
   -7.0740   21.0940  -31.9840 N   0  0  0  0  0  0  0  0  0  0  0  0
   -4.8980   23.2050  -31.1490 C   0  0  0  0  0  0  0  0  0  0  0  0
   -3.9260   23.8890  -30.4140 C   0  0  0  0  0  0  0  0  0  0  0  0
   -0.3780   23.6230  -29.0600 C   0  0  0  0  0  0  0  0  0  0  0  0
    0.2310   24.5430  -28.2880 N   0  0  0  0  0  0  0  0  0  0  0  0
   -0.4483   26.3796  -26.0787 H   0  0  0  0  0  0  0  0  0  0  0  0
    0.6244   26.9847  -27.3862 H   0  0  0  0  0  0  0  0  0  0  0  0
   -1.1203   27.4118  -27.3862 H   0  0  0  0  0  0  0  0  0  0  0  0
   -2.7971   25.7062  -28.3784 H   0  0  0  0  0  0  0  0  0  0  0  0
   -1.6776   21.3457  -29.9952 H   0  0  0  0  0  0  0  0  0  0  0  0
   -3.4190   20.1293  -31.2919 H   0  0  0  0  0  0  0  0  0  0  0  0
   -4.5466   20.1572  -33.8416 H   0  0  0  0  0  0  0  0  0  0  0  0
   -6.8580   19.1670  -34.5890 H   0  0  0  0  0  0  0  0  0  0  0  0
   -9.4260   19.3822  -33.7130 H   0  0  0  0  0  0  0  0  0  0  0  0
  -10.8732   20.5095  -31.9847 H   0  0  0  0  0  0  0  0  0  0  0  0
   -9.8357   22.0443  -30.2925 H   0  0  0  0  0  0  0  0  0  0  0  0
   -7.3451   22.4269  -30.3259 H   0  0  0  0  0  0  0  0  0  0  0  0
   -5.8131   23.7283  -31.4633 H   0  0  0  0  0  0  0  0  0  0  0  0
   -4.0784   24.9489  -30.1621 H   0  0  0  0  0  0  0  0  0  0  0  0
    0.1097   22.7413  -29.5014 H   0  0  0  0  0  0  0  0  0  0  0  0
  1  2  1  0
  2  3  1  0
  3  4  2  0
  4  5  1  0
  5  6  2  0
  6  7  1  0
  7  8  2  0
  8  9  1  0
  9 10  2  0
 10 11  1  0
 11 12  2  0
 12 13  1  0
 13 14  2  0
 14 15  1  0
 15 16  2  0
 16 17  1  0
  8 18  1  0
 18 19  2  0
  4 20  1  0
 20 21  2  0
 21  2  1  0
 19  5  1  0
 17  9  1  0
 17 12  1  0
  1 22  1  0
  1 23  1  0
  1 24  1  0
  3 25  1  0
  6 26  1  0
  7 27  1  0
 10 28  1  0
 11 29  1  0
 13 30  1  0
 14 31  1  0
 15 32  1  0
 16 33  1  0
 18 34  1  0
 19 35  1  0
 20 36  1  0
M  CHG  1  11   1
M  END
>  <UniqueID>  (46) 
44

>  <SMILES>  (46) 
Cn1cc(-c2ccc(-c3c[nH+]c4ccccn34)cc2)cn1

>  <Energy>  (46) 
112.9202941681013

>  <Genealogy>  (46) 
Cn1cc(-c2ccc(-c3c[nH+]c4ccccn34)cc2)cn1 (protonated)
Cn1cc(-c2ccc(-c3c[nH+]c4ccccn34)cc2)cn1 (3D coordinates assigned)
Cn1cc(-c2ccc(-c3c[nH+]c4ccccn34)cc2)cn1 (optimized conformer: 112.9202941681013 kcal/mol)

>  <smiles>  (46) 
Cn1cc(-c2ccc(-c3cnc4ccccn34)cc2)cn1

>  <score_type>  (46) 
oracle

>  <origin>  (46) 
adg

>  <m_score__min__energy>  (46) 
-6.9699999999999998

>  <m_primary>  (46) 
energy

$$$$
46:0
     RDKit          3D

 46 49  0  0  0  0  0  0  0  0999 V2000
   -1.2340   24.8780  -28.2060 C   0  0  0  0  0  0  0  0  0  0  0  0
   -2.0430   25.2590  -29.3150 O   0  0  0  0  0  0  0  0  0  0  0  0
   -3.1500   24.5300  -29.7740 C   0  0  0  0  0  0  0  0  0  0  0  0
   -3.0220   23.4320  -30.6440 C   0  0  0  0  0  0  0  0  0  0  0  0
   -4.1570   22.7370  -31.0740 C   0  0  0  0  0  0  0  0  0  0  0  0
   -5.4390   23.1180  -30.6400 C   0  0  0  0  0  0  0  0  0  0  0  0
   -6.6340   22.3750  -31.1130 C   0  0  0  0  0  0  0  0  0  0  0  0
   -6.4690   21.1740  -31.5960 N   0  0  0  0  0  0  0  0  0  0  0  0
   -7.5460   20.4190  -32.0850 N   0  0  0  0  0  0  0  0  0  0  0  0
   -8.8360   20.6550  -31.8370 C   0  0  0  0  0  0  0  0  0  0  0  0
   -9.6320   19.7570  -32.4480 N   0  0  0  0  0  0  0  0  0  0  0  0
   -8.8140   18.9320  -33.0940 N   0  0  0  0  0  0  0  0  0  0  0  0
   -7.5410   19.3310  -32.8740 C   0  0  0  0  0  0  0  0  0  0  0  0
   -6.3420   18.6630  -33.4270 C   0  0  0  0  0  0  0  0  0  0  0  0
   -6.3860   17.3210  -33.8340 C   0  0  0  0  0  0  0  0  0  0  0  0
   -5.2500   16.7000  -34.3530 C   0  0  0  0  0  0  0  0  0  0  0  0
   -4.0400   17.4090  -34.4710 C   0  0  0  0  0  0  0  0  0  0  0  0
   -2.8770   16.8180  -34.9900 O   0  0  0  0  0  0  0  0  0  0  0  0
   -2.2010   15.7140  -34.3970 C   0  0  0  0  0  0  0  0  0  0  0  0
   -3.9810   18.7490  -34.0580 C   0  0  0  0  0  0  0  0  0  0  0  0
   -2.7600   19.4300  -34.1850 O   0  0  0  0  0  0  0  0  0  0  0  0
   -2.4440   20.6520  -33.5240 C   0  0  0  0  0  0  0  0  0  0  0  0
   -5.1330   19.3690  -33.5350 C   0  0  0  0  0  0  0  0  0  0  0  0
   -9.3690   21.9280  -30.7090 S   0  0  0  0  0  0  0  0  0  0  0  0
   -7.9980   23.0500  -31.1820 C   0  0  0  0  0  0  0  0  0  0  0  0
   -5.5600   24.2240  -29.7770 C   0  0  0  0  0  0  0  0  0  0  0  0
   -4.4250   24.9170  -29.3500 C   0  0  0  0  0  0  0  0  0  0  0  0
   -1.7562   25.1239  -27.2696 H   0  0  0  0  0  0  0  0  0  0  0  0
   -1.0433   23.7954  -28.2461 H   0  0  0  0  0  0  0  0  0  0  0  0
   -0.2779   25.4205  -28.2461 H   0  0  0  0  0  0  0  0  0  0  0  0
   -2.0251   23.1187  -30.9875 H   0  0  0  0  0  0  0  0  0  0  0  0
   -4.0456   21.8834  -31.7588 H   0  0  0  0  0  0  0  0  0  0  0  0
   -9.1320   18.1270  -33.6780 H   0  0  0  0  0  0  0  0  0  0  0  0
   -7.3242   16.7539  -33.7430 H   0  0  0  0  0  0  0  0  0  0  0  0
   -5.3002   15.6486  -34.6724 H   0  0  0  0  0  0  0  0  0  0  0  0
   -2.2525   15.7981  -33.3014 H   0  0  0  0  0  0  0  0  0  0  0  0
   -2.6801   14.7765  -34.7157 H   0  0  0  0  0  0  0  0  0  0  0  0
   -1.1482   15.7145  -34.7157 H   0  0  0  0  0  0  0  0  0  0  0  0
   -2.4831   20.5007  -32.4352 H   0  0  0  0  0  0  0  0  0  0  0  0
   -1.4329   20.9745  -33.8133 H   0  0  0  0  0  0  0  0  0  0  0  0
   -3.1720   21.4242  -33.8133 H   0  0  0  0  0  0  0  0  0  0  0  0
   -5.0848   20.4180  -33.2076 H   0  0  0  0  0  0  0  0  0  0  0  0
   -8.1670   23.3970  -32.2121 H   0  0  0  0  0  0  0  0  0  0  0  0
   -7.9913   23.8855  -30.4666 H   0  0  0  0  0  0  0  0  0  0  0  0
   -6.5557   24.5446  -29.4366 H   0  0  0  0  0  0  0  0  0  0  0  0
   -4.5354   25.7767  -28.6727 H   0  0  0  0  0  0  0  0  0  0  0  0
  1  2  1  0
  2  3  1  0
  3  4  2  0
  4  5  1  0
  5  6  2  0
  6  7  1  0
  7  8  2  0
  8  9  1  0
  9 10  1  0
 10 11  2  0
 11 12  1  0
 12 13  2  0
 13 14  1  0
 14 15  2  0
 15 16  1  0
 16 17  2  0
 17 18  1  0
 18 19  1  0
 17 20  1  0
 20 21  1  0
 21 22  1  0
 20 23  2  0
 10 24  1  0
 24 25  1  0
  6 26  1  0
 26 27  2  0
 27  3  1  0
 25  7  1  0
 13  9  1  0
 23 14  1  0
  1 28  1  0
  1 29  1  0
  1 30  1  0
  4 31  1  0
  5 32  1  0
 12 33  1  0
 15 34  1  0
 16 35  1  0
 19 36  1  0
 19 37  1  0
 19 38  1  0
 22 39  1  0
 22 40  1  0
 22 41  1  0
 23 42  1  0
 25 43  1  0
 25 44  1  0
 26 45  1  0
 27 46  1  0
M  CHG  1  12   1
M  END
>  <UniqueID>  (47) 
45

>  <SMILES>  (47) 
COc1ccc(C2=Nn3c(n[nH+]c3-c3ccc(OC)c(OC)c3)SC2)cc1

>  <Energy>  (47) 
99.32656002078483

>  <Genealogy>  (47) 
COc1ccc(C2=Nn3c(n[nH+]c3-c3ccc(OC)c(OC)c3)SC2)cc1 (protonated)
COc1ccc(C2=Nn3c(n[nH+]c3-c3ccc(OC)c(OC)c3)SC2)cc1 (3D coordinates assigned)
COc1ccc(C2=Nn3c(n[nH+]c3-c3ccc(OC)c(OC)c3)SC2)cc1 (nonaromatic ring conformer: 99.32656002078483 kcal/mol)

>  <smiles>  (47) 
COc1ccc(C2=Nn3c(nnc3-c3ccc(OC)c(OC)c3)SC2)cc1

>  <score_type>  (47) 
oracle

>  <origin>  (47) 
adg

>  <m_score__min__energy>  (47) 
-8.7200000000000006

>  <m_primary>  (47) 
energy

$$$$
