0:0
     RDKit          3D

 35 36  0  0  0  0  0  0  0  0999 V2000
   -6.4590   25.0750  -29.7120 C   0  0  0  0  0  0  0  0  0  0  0  0
   -5.3880   25.6660  -30.6210 C   0  0  0  0  0  0  0  0  0  0  0  0
   -4.3540   24.7240  -30.8430 O   0  0  0  0  0  0  0  0  0  0  0  0
   -4.8700   23.4120  -30.9720 C   0  0  0  0  0  0  0  0  0  0  0  0
   -5.5980   23.2570  -32.3110 C   0  0  0  0  0  0  0  0  0  0  0  0
   -6.0540   21.8620  -32.4950 N   0  0  0  0  0  0  0  0  0  0  0  0
   -7.3340   21.4640  -32.1510 C   0  0  0  0  0  0  0  0  0  0  0  0
   -8.3430   22.3880  -31.5110 C   0  0  0  0  0  0  0  0  0  0  0  0
   -9.4760   21.5930  -30.8680 C   0  0  0  0  0  0  0  0  0  0  0  0
   -7.7190   20.1750  -32.3420 N   0  0  0  0  0  0  0  0  0  0  0  0
   -6.8940   19.2550  -32.8910 C   0  0  0  0  0  0  0  0  0  0  0  0
   -7.3240   17.9770  -33.0670 N   0  0  0  0  0  0  0  0  0  0  0  0
   -6.5260   17.0250  -33.6200 C   0  0  0  0  0  0  0  0  0  0  0  0
   -5.2290   17.3480  -34.0260 C   0  0  0  0  0  0  0  0  0  0  0  0
   -4.7630   18.6540  -33.8560 C   0  0  0  0  0  0  0  0  0  0  0  0
   -5.6010   19.6250  -33.2800 C   0  0  0  0  0  0  0  0  0  0  0  0
   -5.1970   20.9540  -33.0760 C   0  0  0  0  0  0  0  0  0  0  0  0
   -4.0380   21.3100  -33.4340 O   0  0  0  0  0  0  0  0  0  0  0  0
   -6.1751   25.2317  -28.6609 H   0  0  0  0  0  0  0  0  0  0  0  0
   -7.4214   25.5697  -29.9095 H   0  0  0  0  0  0  0  0  0  0  0  0
   -6.5535   23.9970  -29.9095 H   0  0  0  0  0  0  0  0  0  0  0  0
   -5.8416   25.9401  -31.5849 H   0  0  0  0  0  0  0  0  0  0  0  0
   -4.9612   26.5569  -30.1371 H   0  0  0  0  0  0  0  0  0  0  0  0
   -4.0417   22.6898  -30.9234 H   0  0  0  0  0  0  0  0  0  0  0  0
   -5.5812   23.2249  -30.1540 H   0  0  0  0  0  0  0  0  0  0  0  0
   -6.4695   23.9279  -32.3289 H   0  0  0  0  0  0  0  0  0  0  0  0
   -4.9041   23.5144  -33.1248 H   0  0  0  0  0  0  0  0  0  0  0  0
   -7.8416   22.9899  -30.7388 H   0  0  0  0  0  0  0  0  0  0  0  0
   -8.7674   23.0393  -32.2893 H   0  0  0  0  0  0  0  0  0  0  0  0
   -9.3905   21.6530  -29.7730 H   0  0  0  0  0  0  0  0  0  0  0  0
  -10.4429   22.0117  -31.1838 H   0  0  0  0  0  0  0  0  0  0  0  0
   -9.4112   20.5413  -31.1838 H   0  0  0  0  0  0  0  0  0  0  0  0
   -6.9022   15.9993  -33.7478 H   0  0  0  0  0  0  0  0  0  0  0  0
   -4.5807   16.5813  -34.4753 H   0  0  0  0  0  0  0  0  0  0  0  0
   -3.7439   18.9218  -34.1717 H   0  0  0  0  0  0  0  0  0  0  0  0
  1  2  1  0
  2  3  1  0
  3  4  1  0
  4  5  1  0
  5  6  1  0
  6  7  1  0
  7  8  1  0
  8  9  1  0
  7 10  2  0
 10 11  1  0
 11 12  2  0
 12 13  1  0
 13 14  2  0
 14 15  1  0
 15 16  2  0
 16 17  1  0
 17 18  2  0
 17  6  1  0
 16 11  1  0
  1 19  1  0
  1 20  1  0
  1 21  1  0
  2 22  1  0
  2 23  1  0
  4 24  1  0
  4 25  1  0
  5 26  1  0
  5 27  1  0
  8 28  1  0
  8 29  1  0
  9 30  1  0
  9 31  1  0
  9 32  1  0
 13 33  1  0
 14 34  1  0
 15 35  1  0
M  END
>  <UniqueID>  (1) 
1

>  <SMILES>  (1) 
CCOCCn1c(CC)nc2ncccc2c1=O

>  <Energy>  (1) 
40.502533391100506

>  <Genealogy>  (1) 
CCOCCn1c(CC)nc2ncccc2c1=O (3D coordinates assigned)
CCOCCn1c(CC)nc2ncccc2c1=O (optimized conformer: 40.502533391100506 kcal/mol)

>  <smiles>  (1) 
CCOCCn1c(CC)nc2ncccc2c1=O

>  <score_type>  (1) 
oracle

>  <origin>  (1) 
adg

>  <m_score__min__energy>  (1) 
-6.7999999999999998

>  <m_primary>  (1) 
energy

$$$$
1:0
     RDKit          3D

 37 39  0  0  0  0  0  0  0  0999 V2000
   -1.1950   25.4530  -27.8240 C   0  0  0  0  0  0  0  0  0  0  0  0
   -1.7570   25.2470  -29.1170 O   0  0  0  0  0  0  0  0  0  0  0  0
   -2.5940   24.1720  -29.4550 C   0  0  0  0  0  0  0  0  0  0  0  0
   -2.3900   22.8740  -28.9510 C   0  0  0  0  0  0  0  0  0  0  0  0
   -3.2430   21.8320  -29.3210 C   0  0  0  0  0  0  0  0  0  0  0  0
   -4.3070   22.0720  -30.1920 C   0  0  0  0  0  0  0  0  0  0  0  0
   -4.5340   23.3620  -30.6950 C   0  0  0  0  0  0  0  0  0  0  0  0
   -5.6540   23.6000  -31.6760 C   0  0  0  0  0  0  0  0  0  0  0  0
   -5.7890   22.4540  -32.5730 N   0  0  0  0  0  0  0  0  0  0  0  0
   -6.7380   21.3970  -32.3400 C   0  0  0  0  0  0  0  0  0  0  0  0
   -7.9270   21.6760  -31.6450 C   0  0  0  0  0  0  0  0  0  0  0  0
   -8.8770   20.6780  -31.4260 C   0  0  0  0  0  0  0  0  0  0  0  0
   -8.6580   19.3850  -31.8980 C   0  0  0  0  0  0  0  0  0  0  0  0
   -7.4770   19.0750  -32.5860 C   0  0  0  0  0  0  0  0  0  0  0  0
   -7.2540   17.7660  -33.0440 C   0  0  0  0  0  0  0  0  0  0  0  0
   -6.0680   17.4460  -33.7060 C   0  0  0  0  0  0  0  0  0  0  0  0
   -5.0950   18.4230  -33.9120 C   0  0  0  0  0  0  0  0  0  0  0  0
   -5.3020   19.7310  -33.4660 C   0  0  0  0  0  0  0  0  0  0  0  0
   -6.5000   20.0820  -32.8090 C   0  0  0  0  0  0  0  0  0  0  0  0
   -3.6660   24.4090  -30.3300 C   0  0  0  0  0  0  0  0  0  0  0  0
   -3.8620   25.6890  -30.8380 O   0  0  0  0  0  0  0  0  0  0  0  0
   -1.9340   25.1821  -27.0556 H   0  0  0  0  0  0  0  0  0  0  0  0
   -0.2994   24.8247  -27.7091 H   0  0  0  0  0  0  0  0  0  0  0  0
   -0.9177   26.5112  -27.7091 H   0  0  0  0  0  0  0  0  0  0  0  0
   -1.5547   22.6792  -28.2623 H   0  0  0  0  0  0  0  0  0  0  0  0
   -3.0759   20.8194  -28.9250 H   0  0  0  0  0  0  0  0  0  0  0  0
   -4.9709   21.2456  -30.4856 H   0  0  0  0  0  0  0  0  0  0  0  0
   -6.5954   23.7437  -31.1254 H   0  0  0  0  0  0  0  0  0  0  0  0
   -5.4269   24.4973  -32.2704 H   0  0  0  0  0  0  0  0  0  0  0  0
   -5.1110   22.3660  -33.3630 H   0  0  0  0  0  0  0  0  0  0  0  0
   -8.1109   22.6933  -31.2692 H   0  0  0  0  0  0  0  0  0  0  0  0
   -9.8021   20.9124  -30.8789 H   0  0  0  0  0  0  0  0  0  0  0  0
   -9.4150   18.6048  -31.7299 H   0  0  0  0  0  0  0  0  0  0  0  0
   -8.0168   16.9906  -32.8803 H   0  0  0  0  0  0  0  0  0  0  0  0
   -5.9004   16.4203  -34.0662 H   0  0  0  0  0  0  0  0  0  0  0  0
   -4.1593   18.1628  -34.4284 H   0  0  0  0  0  0  0  0  0  0  0  0
   -4.5251   20.4926  -33.6284 H   0  0  0  0  0  0  0  0  0  0  0  0
  1  2  1  0
  2  3  1  0
  3  4  2  0
  4  5  1  0
  5  6  2  0
  6  7  1  0
  7  8  1  0
  8  9  1  0
  9 10  1  0
 10 11  2  0
 11 12  1  0
 12 13  2  0
 13 14  1  0
 14 15  2  0
 15 16  1  0
 16 17  2  0
 17 18  1  0
 18 19  2  0
  7 20  2  0
 20 21  1  0
 20  3  1  0
 19 10  1  0
 19 14  1  0
  1 22  1  0
  1 23  1  0
  1 24  1  0
  4 25  1  0
  5 26  1  0
  6 27  1  0
  8 28  1  0
  8 29  1  0
  9 30  1  0
 11 31  1  0
 12 32  1  0
 13 33  1  0
 15 34  1  0
 16 35  1  0
 17 36  1  0
 18 37  1  0
M  CHG  1  21  -1
M  END
>  <UniqueID>  (2) 
2

>  <SMILES>  (2) 
COc1cccc(CNc2cccc3ccccc23)c1[O-]

>  <Energy>  (2) 
45.269919643747095

>  <Genealogy>  (2) 
COc1cccc(CNc2cccc3ccccc23)c1[O-] (protonated)
COc1cccc(CNc2cccc3ccccc23)c1[O-] (3D coordinates assigned)
COc1cccc(CNc2cccc3ccccc23)c1[O-] (optimized conformer: 45.269919643747095 kcal/mol)

>  <smiles>  (2) 
COc1cccc(CNc2cccc3ccccc23)c1O

>  <score_type>  (2) 
oracle

>  <origin>  (2) 
adg

>  <m_score__min__energy>  (2) 
-12.33

>  <m_primary>  (2) 
energy

$$$$
2:0
     RDKit          3D

 46 47  0  0  0  0  0  0  0  0999 V2000
   -2.0060   21.1900  -33.5720 N   0  0  0  0  0  0  0  0  0  0  0  0
   -3.1940   21.5510  -32.8570 C   0  0  0  0  0  0  0  0  0  0  0  0
   -4.2150   22.2920  -33.5260 N   0  0  0  0  0  0  0  0  0  0  0  0
   -3.3680   21.2210  -31.6100 N   0  0  0  0  0  0  0  0  0  0  0  0
   -4.5140   21.5990  -30.7870 C   0  0  0  0  0  0  0  0  0  0  0  0
   -4.4890   23.1030  -30.5040 C   0  0  0  0  0  0  0  0  0  0  0  0
   -5.8940   23.6530  -30.2120 C   0  0  0  0  0  0  0  0  0  0  0  0
   -6.6270   24.1030  -31.4880 C   0  0  0  0  0  0  0  0  0  0  0  0
   -6.7510   23.0300  -32.4950 N   0  0  0  0  0  0  0  0  0  0  0  0
   -7.8400   22.1010  -32.1730 C   0  0  0  0  0  0  0  0  0  0  0  0
   -7.3830   20.6830  -32.3810 C   0  0  0  0  0  0  0  0  0  0  0  0
   -6.4790   20.3750  -33.4080 C   0  0  0  0  0  0  0  0  0  0  0  0
   -6.0820   19.0530  -33.6260 C   0  0  0  0  0  0  0  0  0  0  0  0
   -6.5910   18.0130  -32.8270 C   0  0  0  0  0  0  0  0  0  0  0  0
   -6.1690   16.6070  -33.0580 C   0  0  0  0  0  0  0  0  0  0  0  0
   -5.0950   16.0530  -32.3350 C   0  0  0  0  0  0  0  0  0  0  0  0
   -4.7010   14.7290  -32.5560 C   0  0  0  0  0  0  0  0  0  0  0  0
   -5.3720   13.9450  -33.4970 C   0  0  0  0  0  0  0  0  0  0  0  0
   -6.4390   14.4830  -34.2200 C   0  0  0  0  0  0  0  0  0  0  0  0
   -6.8380   15.8070  -34.0040 C   0  0  0  0  0  0  0  0  0  0  0  0
   -7.5090   18.3260  -31.8090 C   0  0  0  0  0  0  0  0  0  0  0  0
   -7.9060   19.6480  -31.5920 C   0  0  0  0  0  0  0  0  0  0  0  0
   -1.2310   20.6460  -33.1330 H   0  0  0  0  0  0  0  0  0  0  0  0
   -1.8950   21.4710  -34.5720 H   0  0  0  0  0  0  0  0  0  0  0  0
   -5.0880   22.5660  -33.0230 H   0  0  0  0  0  0  0  0  0  0  0  0
   -4.1010   22.5690  -34.5250 H   0  0  0  0  0  0  0  0  0  0  0  0
   -5.4428   21.3448  -31.3188 H   0  0  0  0  0  0  0  0  0  0  0  0
   -4.4660   21.0536  -29.8329 H   0  0  0  0  0  0  0  0  0  0  0  0
   -3.8451   23.2904  -29.6321 H   0  0  0  0  0  0  0  0  0  0  0  0
   -4.1019   23.6125  -31.3987 H   0  0  0  0  0  0  0  0  0  0  0  0
   -6.4868   22.8655  -29.7237 H   0  0  0  0  0  0  0  0  0  0  0  0
   -5.7801   24.5341  -29.5633 H   0  0  0  0  0  0  0  0  0  0  0  0
   -7.6364   24.4411  -31.2109 H   0  0  0  0  0  0  0  0  0  0  0  0
   -6.0316   24.9097  -31.9405 H   0  0  0  0  0  0  0  0  0  0  0  0
   -6.9060   23.4310  -33.4510 H   0  0  0  0  0  0  0  0  0  0  0  0
   -8.1374   22.2378  -31.1228 H   0  0  0  0  0  0  0  0  0  0  0  0
   -8.6966   22.3054  -32.8322 H   0  0  0  0  0  0  0  0  0  0  0  0
   -6.0804   21.1782  -34.0452 H   0  0  0  0  0  0  0  0  0  0  0  0
   -5.3658   18.8237  -34.4288 H   0  0  0  0  0  0  0  0  0  0  0  0
   -4.5627   16.6650  -31.5920 H   0  0  0  0  0  0  0  0  0  0  0  0
   -3.8606   14.3044  -31.9872 H   0  0  0  0  0  0  0  0  0  0  0  0
   -5.0603   12.9042  -33.6687 H   0  0  0  0  0  0  0  0  0  0  0  0
   -6.9670   13.8647  -34.9609 H   0  0  0  0  0  0  0  0  0  0  0  0
   -7.6791   16.2250  -34.5766 H   0  0  0  0  0  0  0  0  0  0  0  0
   -7.9182   17.5232  -31.1780 H   0  0  0  0  0  0  0  0  0  0  0  0
   -8.6322   19.8782  -30.7985 H   0  0  0  0  0  0  0  0  0  0  0  0
  1  2  1  0
  2  3  1  0
  2  4  2  3
  4  5  1  0
  5  6  1  0
  6  7  1  0
  7  8  1  0
  8  9  1  0
  9 10  1  0
 10 11  1  0
 11 12  2  0
 12 13  1  0
 13 14  2  0
 14 15  1  0
 15 16  2  0
 16 17  1  0
 17 18  2  0
 18 19  1  0
 19 20  2  0
 14 21  1  0
 21 22  2  0
 22 11  1  0
 20 15  1  0
  1 23  1  0
  1 24  1  0
  3 25  1  0
  3 26  1  0
  5 27  1  0
  5 28  1  0
  6 29  1  0
  6 30  1  0
  7 31  1  0
  7 32  1  0
  8 33  1  0
  8 34  1  0
  9 35  1  0
 10 36  1  0
 10 37  1  0
 12 38  1  0
 13 39  1  0
 16 40  1  0
 17 41  1  0
 18 42  1  0
 19 43  1  0
 20 44  1  0
 21 45  1  0
 22 46  1  0
M  END
>  <UniqueID>  (3) 
3

>  <SMILES>  (3) 
NC(N)=NCCCCNCc1ccc(-c2ccccc2)cc1

>  <Energy>  (3) 
43.88549678842134

>  <Genealogy>  (3) 
NC(N)=NCCCCNCc1ccc(-c2ccccc2)cc1 (3D coordinates assigned)
NC(N)=NCCCCNCc1ccc(-c2ccccc2)cc1 (optimized conformer: 43.88549678842134 kcal/mol)

>  <smiles>  (3) 
NC(N)=NCCCCNCc1ccc(-c2ccccc2)cc1

>  <score_type>  (3) 
oracle

>  <origin>  (3) 
adg

>  <m_score__min__energy>  (3) 
-8.5500000000000007

>  <m_primary>  (3) 
energy

$$$$
3:0
     RDKit          3D

 37 38  0  0  0  0  0  0  0  0999 V2000
   -3.1580   21.7720  -27.8630 C   0  0  0  0  0  0  0  0  0  0  0  0
   -4.0170   23.0340  -27.9440 C   0  0  0  0  0  0  0  0  0  0  0  0
   -3.3290   24.1620  -28.7260 C   0  0  0  0  0  0  0  0  0  0  0  0
   -3.6440   24.0930  -30.1920 C   0  0  0  0  0  0  0  0  0  0  0  0
   -3.8810   25.1590  -30.8240 O   0  0  0  0  0  0  0  0  0  0  0  0
   -3.6940   22.8280  -30.8660 N   0  0  0  0  0  0  0  0  0  0  0  0
   -4.3040   22.6750  -32.1830 C   0  0  0  0  0  0  0  0  0  0  0  0
   -5.4530   21.7130  -32.1060 C   0  0  0  0  0  0  0  0  0  0  0  0
   -5.2730   20.3710  -32.2230 N   0  0  0  0  0  0  0  0  0  0  0  0
   -6.5270   19.8900  -32.2020 C   0  0  0  0  0  0  0  0  0  0  0  0
   -6.9270   18.5600  -32.3090 C   0  0  0  0  0  0  0  0  0  0  0  0
   -8.3080   18.2860  -32.2920 C   0  0  0  0  0  0  0  0  0  0  0  0
   -9.2430   19.3400  -32.1760 C   0  0  0  0  0  0  0  0  0  0  0  0
   -8.8070   20.6740  -32.0730 C   0  0  0  0  0  0  0  0  0  0  0  0
   -7.4290   20.9070  -32.0860 C   0  0  0  0  0  0  0  0  0  0  0  0
   -6.7660   22.0750  -32.0210 N   0  0  0  0  0  0  0  0  0  0  0  0
   -7.3470   23.4200  -31.9600 C   0  0  0  0  0  0  0  0  0  0  0  0
   -6.9730   24.1090  -30.6520 C   0  0  0  0  0  0  0  0  0  0  0  0
   -2.9829   21.5147  -26.8079 H   0  0  0  0  0  0  0  0  0  0  0  0
   -3.6790   20.9412  -28.3614 H   0  0  0  0  0  0  0  0  0  0  0  0
   -2.1940   21.9520  -28.3614 H   0  0  0  0  0  0  0  0  0  0  0  0
   -4.9646   22.7847  -28.4440 H   0  0  0  0  0  0  0  0  0  0  0  0
   -4.1845   23.3918  -26.9174 H   0  0  0  0  0  0  0  0  0  0  0  0
   -3.6731   25.1299  -28.3326 H   0  0  0  0  0  0  0  0  0  0  0  0
   -2.2415   24.0508  -28.6032 H   0  0  0  0  0  0  0  0  0  0  0  0
   -3.3220   21.9770  -30.3880 H   0  0  0  0  0  0  0  0  0  0  0  0
   -4.6695   23.6523  -32.5312 H   0  0  0  0  0  0  0  0  0  0  0  0
   -3.5531   22.2861  -32.8865 H   0  0  0  0  0  0  0  0  0  0  0  0
   -6.1883   17.7504  -32.4037 H   0  0  0  0  0  0  0  0  0  0  0  0
   -8.6610   17.2471  -32.3693 H   0  0  0  0  0  0  0  0  0  0  0  0
  -10.3198   19.1156  -32.1662 H   0  0  0  0  0  0  0  0  0  0  0  0
   -9.5246   21.5031  -31.9855 H   0  0  0  0  0  0  0  0  0  0  0  0
   -6.9680   24.0158  -32.8034 H   0  0  0  0  0  0  0  0  0  0  0  0
   -8.4424   23.3353  -32.0149 H   0  0  0  0  0  0  0  0  0  0  0  0
   -7.3074   23.4929  -29.8043 H   0  0  0  0  0  0  0  0  0  0  0  0
   -5.8815   24.2371  -30.6041 H   0  0  0  0  0  0  0  0  0  0  0  0
   -7.4602   25.0940  -30.6041 H   0  0  0  0  0  0  0  0  0  0  0  0
  1  2  1  0
  2  3  1  0
  3  4  1  0
  4  5  2  0
  4  6  1  0
  6  7  1  0
  7  8  1  0
  8  9  2  0
  9 10  1  0
 10 11  2  0
 11 12  1  0
 12 13  2  0
 13 14  1  0
 14 15  2  0
 15 16  1  0
 16 17  1  0
 17 18  1  0
 16  8  1  0
 15 10  1  0
  1 19  1  0
  1 20  1  0
  1 21  1  0
  2 22  1  0
  2 23  1  0
  3 24  1  0
  3 25  1  0
  6 26  1  0
  7 27  1  0
  7 28  1  0
 11 29  1  0
 12 30  1  0
 13 31  1  0
 14 32  1  0
 17 33  1  0
 17 34  1  0
 18 35  1  0
 18 36  1  0
 18 37  1  0
M  END
>  <UniqueID>  (4) 
4

>  <SMILES>  (4) 
CCCC(=O)NCc1nc2ccccc2n1CC

>  <Energy>  (4) 
60.54190885105416

>  <Genealogy>  (4) 
CCCC(=O)NCc1nc2ccccc2n1CC (3D coordinates assigned)
CCCC(=O)NCc1nc2ccccc2n1CC (optimized conformer: 60.54190885105416 kcal/mol)

>  <smiles>  (4) 
CCCC(=O)NCc1nc2ccccc2n1CC

>  <score_type>  (4) 
oracle

>  <origin>  (4) 
adg

>  <m_score__min__energy>  (4) 
-7.1900000000000004

>  <m_primary>  (4) 
energy

$$$$
4:0
     RDKit          3D

 41 44  0  0  0  0  0  0  0  0999 V2000
   -1.6000   25.4630  -27.6860 C   0  0  0  0  0  0  0  0  0  0  0  0
   -2.2110   25.5900  -28.9670 O   0  0  0  0  0  0  0  0  0  0  0  0
   -2.8460   24.5420  -29.6480 C   0  0  0  0  0  0  0  0  0  0  0  0
   -4.1440   24.6610  -30.1780 C   0  0  0  0  0  0  0  0  0  0  0  0
   -4.7340   23.5860  -30.8480 C   0  0  0  0  0  0  0  0  0  0  0  0
   -4.0450   22.3710  -30.9930 C   0  0  0  0  0  0  0  0  0  0  0  0
   -4.6830   21.2470  -31.7150 C   0  0  0  0  0  0  0  0  0  0  0  0
   -5.7770   20.5930  -31.2500 N   0  0  0  0  0  0  0  0  0  0  0  0
   -6.0150   19.6540  -32.1910 C   0  0  0  0  0  0  0  0  0  0  0  0
   -7.0280   18.6980  -32.1440 C   0  0  0  0  0  0  0  0  0  0  0  0
   -7.0870   17.7570  -33.1840 C   0  0  0  0  0  0  0  0  0  0  0  0
   -6.1360   17.7850  -34.2220 C   0  0  0  0  0  0  0  0  0  0  0  0
   -5.1350   18.7660  -34.2160 C   0  0  0  0  0  0  0  0  0  0  0  0
   -5.1340   19.6770  -33.2070 N   0  0  0  0  0  0  0  0  0  0  0  0
   -4.2950   20.6900  -32.9280 C   0  0  0  0  0  0  0  0  0  0  0  0
   -3.0950   20.9860  -33.6560 N   0  0  0  0  0  0  0  0  0  0  0  0
   -1.7840   20.5840  -33.2240 C   0  0  0  0  0  0  0  0  0  0  0  0
   -0.6530   21.1590  -33.8250 C   0  0  0  0  0  0  0  0  0  0  0  0
    0.6320   20.7720  -33.4320 C   0  0  0  0  0  0  0  0  0  0  0  0
    0.7990   19.7990  -32.4430 C   0  0  0  0  0  0  0  0  0  0  0  0
    2.0450   19.4240  -32.0640 F   0  0  0  0  0  0  0  0  0  0  0  0
   -0.3200   19.2080  -31.8500 C   0  0  0  0  0  0  0  0  0  0  0  0
   -1.6070   19.5910  -32.2400 C   0  0  0  0  0  0  0  0  0  0  0  0
   -2.7420   22.2610  -30.4780 C   0  0  0  0  0  0  0  0  0  0  0  0
   -2.1530   23.3370  -29.8080 C   0  0  0  0  0  0  0  0  0  0  0  0
   -2.3556   25.6201  -26.9022 H   0  0  0  0  0  0  0  0  0  0  0  0
   -1.1691   24.4561  -27.5835 H   0  0  0  0  0  0  0  0  0  0  0  0
   -0.8036   26.2148  -27.5835 H   0  0  0  0  0  0  0  0  0  0  0  0
   -4.6971   25.6050  -30.0643 H   0  0  0  0  0  0  0  0  0  0  0  0
   -5.7463   23.6924  -31.2652 H   0  0  0  0  0  0  0  0  0  0  0  0
   -7.7565   18.6814  -31.3200 H   0  0  0  0  0  0  0  0  0  0  0  0
   -7.8797   16.9944  -33.1881 H   0  0  0  0  0  0  0  0  0  0  0  0
   -6.1784   17.0420  -35.0321 H   0  0  0  0  0  0  0  0  0  0  0  0
   -4.3707   18.7979  -35.0065 H   0  0  0  0  0  0  0  0  0  0  0  0
   -3.1940   21.4540  -34.5850 H   0  0  0  0  0  0  0  0  0  0  0  0
   -0.7785   21.9190  -34.6103 H   0  0  0  0  0  0  0  0  0  0  0  0
    1.5126   21.2342  -33.9020 H   0  0  0  0  0  0  0  0  0  0  0  0
   -0.1879   18.4394  -31.0743 H   0  0  0  0  0  0  0  0  0  0  0  0
   -2.4843   19.1155  -31.7771 H   0  0  0  0  0  0  0  0  0  0  0  0
   -2.1823   21.3223  -30.6030 H   0  0  0  0  0  0  0  0  0  0  0  0
   -1.1354   23.2356  -29.4028 H   0  0  0  0  0  0  0  0  0  0  0  0
  1  2  1  0
  2  3  1  0
  3  4  2  0
  4  5  1  0
  5  6  2  0
  6  7  1  0
  7  8  1  0
  8  9  2  0
  9 10  1  0
 10 11  2  0
 11 12  1  0
 12 13  2  0
 13 14  1  0
 14 15  1  0
 15 16  1  0
 16 17  1  0
 17 18  2  0
 18 19  1  0
 19 20  2  0
 20 21  1  0
 20 22  1  0
 22 23  2  0
  6 24  1  0
 24 25  2  0
 25  3  1  0
 15  7  2  0
 23 17  1  0
 14  9  1  0
  1 26  1  0
  1 27  1  0
  1 28  1  0
  4 29  1  0
  5 30  1  0
 10 31  1  0
 11 32  1  0
 12 33  1  0
 13 34  1  0
 16 35  1  0
 18 36  1  0
 19 37  1  0
 22 38  1  0
 23 39  1  0
 24 40  1  0
 25 41  1  0
M  END
>  <UniqueID>  (5) 
5

>  <SMILES>  (5) 
COc1ccc(-c2nc3ccccn3c2Nc2ccc(F)cc2)cc1

>  <Energy>  (5) 
89.64918989890883

>  <Genealogy>  (5) 
COc1ccc(-c2nc3ccccn3c2Nc2ccc(F)cc2)cc1 (3D coordinates assigned)
COc1ccc(-c2nc3ccccn3c2Nc2ccc(F)cc2)cc1 (optimized conformer: 89.64918989890883 kcal/mol)

>  <smiles>  (5) 
COc1ccc(-c2nc3ccccn3c2Nc2ccc(F)cc2)cc1

>  <score_type>  (5) 
oracle

>  <origin>  (5) 
adg

>  <m_score__min__energy>  (5) 
-7.8200000000000003

>  <m_primary>  (5) 
energy

$$$$
5:0
     RDKit          3D

 47 49  0  0  0  0  0  0  0  0999 V2000
   -4.6120   14.5870  -32.6350 C   0  0  0  0  0  0  0  0  0  0  0  0
   -4.1020   15.1640  -33.9560 C   0  0  0  0  0  0  0  0  0  0  0  0
   -5.0980   16.0720  -34.5680 N   0  0  0  0  0  0  0  0  0  0  0  0
   -6.3770   16.0610  -33.8150 C   0  0  0  0  0  0  0  0  0  0  0  0
   -6.4600   17.1740  -32.7620 C   0  0  0  0  0  0  0  0  0  0  0  0
   -6.2240   18.4890  -33.3750 N   0  0  0  0  0  0  0  0  0  0  0  0
   -6.6920   19.7010  -32.7460 C   0  0  0  0  0  0  0  0  0  0  0  0
   -8.0600   20.0090  -32.6740 C   0  0  0  0  0  0  0  0  0  0  0  0
   -8.4500   21.1980  -32.0540 C   0  0  0  0  0  0  0  0  0  0  0  0
   -9.8990   21.5560  -31.9440 C   0  0  0  0  0  0  0  0  0  0  0  0
   -7.5080   22.0240  -31.5280 N   0  0  0  0  0  0  0  0  0  0  0  0
   -6.1830   21.7220  -31.5950 C   0  0  0  0  0  0  0  0  0  0  0  0
   -5.1740   22.6390  -31.0120 C   0  0  0  0  0  0  0  0  0  0  0  0
   -5.5240   23.9550  -30.6540 C   0  0  0  0  0  0  0  0  0  0  0  0
   -4.5720   24.8190  -30.1050 C   0  0  0  0  0  0  0  0  0  0  0  0
   -3.2570   24.3920  -29.9010 C   0  0  0  0  0  0  0  0  0  0  0  0
   -2.3400   25.2970  -29.3460 O   0  0  0  0  0  0  0  0  0  0  0  0
   -1.6360   25.0840  -28.1270 C   0  0  0  0  0  0  0  0  0  0  0  0
   -2.8990   23.0780  -30.2560 C   0  0  0  0  0  0  0  0  0  0  0  0
   -3.8500   22.2120  -30.8050 C   0  0  0  0  0  0  0  0  0  0  0  0
   -5.7950   20.5680  -32.2020 N   0  0  0  0  0  0  0  0  0  0  0  0
   -5.5850   18.5430  -34.6950 C   0  0  0  0  0  0  0  0  0  0  0  0
   -4.5360   17.4300  -34.8020 C   0  0  0  0  0  0  0  0  0  0  0  0
   -4.1409   15.1200  -31.7959 H   0  0  0  0  0  0  0  0  0  0  0  0
   -5.7039   14.7078  -32.5794 H   0  0  0  0  0  0  0  0  0  0  0  0
   -4.3580   13.5182  -32.5794 H   0  0  0  0  0  0  0  0  0  0  0  0
   -3.1746   15.7246  -33.7675 H   0  0  0  0  0  0  0  0  0  0  0  0
   -3.9196   14.3308  -34.6507 H   0  0  0  0  0  0  0  0  0  0  0  0
   -7.2049   16.1898  -34.5277 H   0  0  0  0  0  0  0  0  0  0  0  0
   -6.4392   15.0995  -33.2843 H   0  0  0  0  0  0  0  0  0  0  0  0
   -7.4600   17.1636  -32.3039 H   0  0  0  0  0  0  0  0  0  0  0  0
   -5.6881   16.9964  -31.9987 H   0  0  0  0  0  0  0  0  0  0  0  0
   -8.8109   19.3262  -33.0982 H   0  0  0  0  0  0  0  0  0  0  0  0
  -10.1800   21.6254  -30.8828 H   0  0  0  0  0  0  0  0  0  0  0  0
  -10.0756   22.5248  -32.4342 H   0  0  0  0  0  0  0  0  0  0  0  0
  -10.5064   20.7809  -32.4342 H   0  0  0  0  0  0  0  0  0  0  0  0
   -6.5551   24.3062  -30.8076 H   0  0  0  0  0  0  0  0  0  0  0  0
   -4.8606   25.8445  -29.8310 H   0  0  0  0  0  0  0  0  0  0  0  0
   -2.3046   25.2863  -27.2773 H   0  0  0  0  0  0  0  0  0  0  0  0
   -1.2898   24.0409  -28.0809 H   0  0  0  0  0  0  0  0  0  0  0  0
   -0.7696   25.7602  -28.0809 H   0  0  0  0  0  0  0  0  0  0  0  0
   -1.8668   22.7307  -30.1010 H   0  0  0  0  0  0  0  0  0  0  0  0
   -3.5596   21.1866  -31.0777 H   0  0  0  0  0  0  0  0  0  0  0  0
   -6.3465   18.4053  -35.4767 H   0  0  0  0  0  0  0  0  0  0  0  0
   -5.0970   19.5201  -34.8260 H   0  0  0  0  0  0  0  0  0  0  0  0
   -4.0976   17.4582  -35.8105 H   0  0  0  0  0  0  0  0  0  0  0  0
   -3.7841   17.6124  -34.0201 H   0  0  0  0  0  0  0  0  0  0  0  0
  1  2  1  0
  2  3  1  0
  3  4  1  0
  4  5  1  0
  5  6  1  0
  6  7  1  0
  7  8  2  0
  8  9  1  0
  9 10  1  0
  9 11  2  0
 11 12  1  0
 12 13  1  0
 13 14  2  0
 14 15  1  0
 15 16  2  0
 16 17  1  0
 17 18  1  0
 16 19  1  0
 19 20  2  0
 12 21  2  0
  6 22  1  0
 22 23  1  0
 23  3  1  0
 21  7  1  0
 20 13  1  0
  1 24  1  0
  1 25  1  0
  1 26  1  0
  2 27  1  0
  2 28  1  0
  4 29  1  0
  4 30  1  0
  5 31  1  0
  5 32  1  0
  8 33  1  0
 10 34  1  0
 10 35  1  0
 10 36  1  0
 14 37  1  0
 15 38  1  0
 18 39  1  0
 18 40  1  0
 18 41  1  0
 19 42  1  0
 20 43  1  0
 22 44  1  0
 22 45  1  0
 23 46  1  0
 23 47  1  0
M  END
>  <UniqueID>  (6) 
6

>  <SMILES>  (6) 
CCN1CCN(c2cc(C)nc(-c3ccc(OC)cc3)n2)CC1

>  <Energy>  (6) 
55.58110197602405

>  <Genealogy>  (6) 
CCN1CCN(c2cc(C)nc(-c3ccc(OC)cc3)n2)CC1 (3D coordinates assigned)
CCN1CCN(c2cc(C)nc(-c3ccc(OC)cc3)n2)CC1 (nonaromatic ring conformer: 55.58110197602405 kcal/mol)

>  <smiles>  (6) 
CCN1CCN(c2cc(C)nc(-c3ccc(OC)cc3)n2)CC1

>  <score_type>  (6) 
oracle

>  <origin>  (6) 
adg

>  <m_score__min__energy>  (6) 
-8.1699999999999999

>  <m_primary>  (6) 
energy

$$$$
6:0
     RDKit          3D

 48 48  0  0  0  0  0  0  0  0999 V2000
   -7.3260   23.3430  -31.6080 C   0  0  0  0  0  0  0  0  0  0  0  0
   -5.9670   23.7000  -32.2040 C   0  0  0  0  0  0  0  0  0  0  0  0
   -5.0680   24.2280  -31.1530 N   0  0  0  0  0  0  0  0  0  0  0  0
   -5.4030   25.6300  -30.8140 C   0  0  0  0  0  0  0  0  0  0  0  0
   -6.2510   25.6800  -29.5470 C   0  0  0  0  0  0  0  0  0  0  0  0
   -5.0870   23.3640  -29.9510 C   0  0  0  0  0  0  0  0  0  0  0  0
   -3.7530   23.4750  -29.2030 C   0  0  0  0  0  0  0  0  0  0  0  0
   -2.7250   23.8810  -30.0870 O   0  0  0  0  0  0  0  0  0  0  0  0
   -1.6490   22.9600  -30.0800 C   0  0  0  0  0  0  0  0  0  0  0  0
   -1.8590   21.8930  -31.1560 C   0  0  0  0  0  0  0  0  0  0  0  0
   -3.1760   22.0670  -31.7820 N   0  0  0  0  0  0  0  0  0  0  0  0
   -3.1950   21.5300  -33.1490 C   0  0  0  0  0  0  0  0  0  0  0  0
   -3.6410   20.0650  -33.1440 C   0  0  0  0  0  0  0  0  0  0  0  0
   -4.9020   19.9190  -33.7980 O   0  0  0  0  0  0  0  0  0  0  0  0
   -6.1020   19.5370  -33.1770 C   0  0  0  0  0  0  0  0  0  0  0  0
   -6.1840   18.2460  -32.6370 C   0  0  0  0  0  0  0  0  0  0  0  0
   -7.3550   17.8100  -32.0100 C   0  0  0  0  0  0  0  0  0  0  0  0
   -8.4590   18.6620  -31.9200 C   0  0  0  0  0  0  0  0  0  0  0  0
   -8.3920   19.9510  -32.4560 C   0  0  0  0  0  0  0  0  0  0  0  0
   -9.4650   20.7770  -32.3650 F   0  0  0  0  0  0  0  0  0  0  0  0
   -7.2210   20.3900  -33.0840 C   0  0  0  0  0  0  0  0  0  0  0  0
   -7.2608   23.3601  -30.5101 H   0  0  0  0  0  0  0  0  0  0  0  0
   -8.0765   24.0745  -31.9422 H   0  0  0  0  0  0  0  0  0  0  0  0
   -7.6201   22.3371  -31.9422 H   0  0  0  0  0  0  0  0  0  0  0  0
   -5.5173   22.7994  -32.6474 H   0  0  0  0  0  0  0  0  0  0  0  0
   -6.1062   24.4708  -32.9763 H   0  0  0  0  0  0  0  0  0  0  0  0
   -4.4739   26.1960  -30.6514 H   0  0  0  0  0  0  0  0  0  0  0  0
   -5.9733   26.0724  -31.6441 H   0  0  0  0  0  0  0  0  0  0  0  0
   -5.5949   25.6413  -28.6649 H   0  0  0  0  0  0  0  0  0  0  0  0
   -6.8319   26.6140  -29.5312 H   0  0  0  0  0  0  0  0  0  0  0  0
   -6.9377   24.8208  -29.5312 H   0  0  0  0  0  0  0  0  0  0  0  0
   -5.9043   23.6819  -29.2870 H   0  0  0  0  0  0  0  0  0  0  0  0
   -5.2415   22.3196  -30.2599 H   0  0  0  0  0  0  0  0  0  0  0  0
   -3.8505   24.2157  -28.3956 H   0  0  0  0  0  0  0  0  0  0  0  0
   -3.4956   22.4912  -28.7837 H   0  0  0  0  0  0  0  0  0  0  0  0
   -0.7099   23.4970  -30.2794 H   0  0  0  0  0  0  0  0  0  0  0  0
   -1.6011   22.4719  -29.0954 H   0  0  0  0  0  0  0  0  0  0  0  0
   -1.0755   21.9885  -31.9222 H   0  0  0  0  0  0  0  0  0  0  0  0
   -1.8068   20.8965  -30.6930 H   0  0  0  0  0  0  0  0  0  0  0  0
   -3.3620   23.0970  -31.8430 H   0  0  0  0  0  0  0  0  0  0  0  0
   -3.8949   22.1193  -33.7596 H   0  0  0  0  0  0  0  0  0  0  0  0
   -2.1803   21.5914  -33.5693 H   0  0  0  0  0  0  0  0  0  0  0  0
   -2.8895   19.4570  -33.6689 H   0  0  0  0  0  0  0  0  0  0  0  0
   -3.7425   19.7298  -32.1012 H   0  0  0  0  0  0  0  0  0  0  0  0
   -5.3192   17.5699  -32.7072 H   0  0  0  0  0  0  0  0  0  0  0  0
   -7.4074   16.7958  -31.5873 H   0  0  0  0  0  0  0  0  0  0  0  0
   -9.3805   18.3182  -31.4274 H   0  0  0  0  0  0  0  0  0  0  0  0
   -7.1733   21.4044  -33.5067 H   0  0  0  0  0  0  0  0  0  0  0  0
  1  2  1  0
  2  3  1  0
  3  4  1  0
  4  5  1  0
  3  6  1  0
  6  7  1  0
  7  8  1  0
  8  9  1  0
  9 10  1  0
 10 11  1  0
 11 12  1  0
 12 13  1  0
 13 14  1  0
 14 15  1  0
 15 16  2  0
 16 17  1  0
 17 18  2  0
 18 19  1  0
 19 20  1  0
 19 21  2  0
 21 15  1  0
  1 22  1  0
  1 23  1  0
  1 24  1  0
  2 25  1  0
  2 26  1  0
  4 27  1  0
  4 28  1  0
  5 29  1  0
  5 30  1  0
  5 31  1  0
  6 32  1  0
  6 33  1  0
  7 34  1  0
  7 35  1  0
  9 36  1  0
  9 37  1  0
 10 38  1  0
 10 39  1  0
 11 40  1  0
 12 41  1  0
 12 42  1  0
 13 43  1  0
 13 44  1  0
 16 45  1  0
 17 46  1  0
 18 47  1  0
 21 48  1  0
M  END
>  <UniqueID>  (7) 
7

>  <SMILES>  (7) 
CCN(CC)CCOCCNCCOc1cccc(F)c1

>  <Energy>  (7) 
41.56666402982981

>  <Genealogy>  (7) 
CCN(CC)CCOCCNCCOc1cccc(F)c1 (3D coordinates assigned)
CCN(CC)CCOCCNCCOc1cccc(F)c1 (optimized conformer: 41.56666402982981 kcal/mol)

>  <smiles>  (7) 
CCN(CC)CCOCCNCCOc1cccc(F)c1

>  <score_type>  (7) 
oracle

>  <origin>  (7) 
adg

>  <m_score__min__energy>  (7) 
-7.0499999999999998

>  <m_primary>  (7) 
energy

$$$$
7:0
     RDKit          3D

 35 36  0  0  0  0  0  0  0  0999 V2000
   -9.8510   20.4190  -32.3630 C   0  0  0  0  0  0  0  0  0  0  0  0
   -8.7050   19.9940  -31.6330 O   0  0  0  0  0  0  0  0  0  0  0  0
   -7.4330   19.7870  -32.1940 C   0  0  0  0  0  0  0  0  0  0  0  0
   -7.0290   18.5260  -32.6730 C   0  0  0  0  0  0  0  0  0  0  0  0
   -5.7570   18.3520  -33.2210 C   0  0  0  0  0  0  0  0  0  0  0  0
   -4.8720   19.4350  -33.3130 C   0  0  0  0  0  0  0  0  0  0  0  0
   -3.4910   19.2350  -33.8650 C   0  0  0  0  0  0  0  0  0  0  0  0
   -5.2620   20.6880  -32.8230 C   0  0  0  0  0  0  0  0  0  0  0  0
   -6.5400   20.8720  -32.2720 C   0  0  0  0  0  0  0  0  0  0  0  0
   -7.0160   22.4570  -31.6540 S   0  0  0  0  0  0  0  0  0  0  0  0
   -8.3400   22.3200  -30.9550 O   0  0  0  0  0  0  0  0  0  0  0  0
   -7.1640   23.4360  -32.7860 O   0  0  0  0  0  0  0  0  0  0  0  0
   -5.8130   23.0390  -30.5280 N   0  0  0  0  0  0  0  0  0  0  0  0
   -4.4750   22.9760  -31.1440 C   0  0  0  0  0  0  0  0  0  0  0  0
   -3.5030   23.9300  -30.4300 C   0  0  0  0  0  0  0  0  0  0  0  0
   -3.8990   25.2960  -30.4630 O   0  0  0  0  0  0  0  0  0  0  0  0
   -5.2900   25.4850  -30.6790 C   0  0  0  0  0  0  0  0  0  0  0  0
   -6.1580   24.3910  -30.0320 C   0  0  0  0  0  0  0  0  0  0  0  0
  -10.6447   20.7134  -31.6606 H   0  0  0  0  0  0  0  0  0  0  0  0
   -9.5846   21.2781  -32.9962 H   0  0  0  0  0  0  0  0  0  0  0  0
  -10.2092   19.5939  -32.9962 H   0  0  0  0  0  0  0  0  0  0  0  0
   -7.7203   17.6724  -32.6150 H   0  0  0  0  0  0  0  0  0  0  0  0
   -5.4477   17.3602  -33.5824 H   0  0  0  0  0  0  0  0  0  0  0  0
   -2.7760   19.1315  -33.0355 H   0  0  0  0  0  0  0  0  0  0  0  0
   -3.4711   18.3246  -34.4821 H   0  0  0  0  0  0  0  0  0  0  0  0
   -3.2136   20.1023  -34.4821 H   0  0  0  0  0  0  0  0  0  0  0  0
   -4.5612   21.5346  -32.8703 H   0  0  0  0  0  0  0  0  0  0  0  0
   -4.0914   21.9477  -31.0701 H   0  0  0  0  0  0  0  0  0  0  0  0
   -4.5564   23.2779  -32.1986 H   0  0  0  0  0  0  0  0  0  0  0  0
   -3.4241   23.6187  -29.3779 H   0  0  0  0  0  0  0  0  0  0  0  0
   -2.5445   23.8651  -30.9659 H   0  0  0  0  0  0  0  0  0  0  0  0
   -5.5806   26.4578  -30.2557 H   0  0  0  0  0  0  0  0  0  0  0  0
   -5.4615   25.4391  -31.7646 H   0  0  0  0  0  0  0  0  0  0  0  0
   -6.0084   24.4178  -28.9426 H   0  0  0  0  0  0  0  0  0  0  0  0
   -7.2069   24.5909  -30.2963 H   0  0  0  0  0  0  0  0  0  0  0  0
  1  2  1  0
  2  3  1  0
  3  4  2  0
  4  5  1  0
  5  6  2  0
  6  7  1  0
  6  8  1  0
  8  9  2  0
  9 10  1  0
 10 11  2  0
 10 12  2  0
 10 13  1  0
 13 14  1  0
 14 15  1  0
 15 16  1  0
 16 17  1  0
 17 18  1  0
  9  3  1  0
 18 13  1  0
  1 19  1  0
  1 20  1  0
  1 21  1  0
  4 22  1  0
  5 23  1  0
  7 24  1  0
  7 25  1  0
  7 26  1  0
  8 27  1  0
 14 28  1  0
 14 29  1  0
 15 30  1  0
 15 31  1  0
 17 32  1  0
 17 33  1  0
 18 34  1  0
 18 35  1  0
M  END
>  <UniqueID>  (8) 
8

>  <SMILES>  (8) 
COc1ccc(C)cc1S(=O)(=O)N1CCOCC1

>  <Energy>  (8) 
45.04295895591002

>  <Genealogy>  (8) 
COc1ccc(C)cc1S(=O)(=O)N1CCOCC1 (3D coordinates assigned)
COc1ccc(C)cc1S(=O)(=O)N1CCOCC1 (nonaromatic ring conformer: 45.04295895591002 kcal/mol)

>  <smiles>  (8) 
COc1ccc(C)cc1S(=O)(=O)N1CCOCC1

>  <score_type>  (8) 
oracle

>  <origin>  (8) 
adg

>  <m_score__min__energy>  (8) 
-7.21

>  <m_primary>  (8) 
energy

$$$$
8:0
     RDKit          3D

 63 65  0  0  0  0  0  0  0  0999 V2000
   -2.9000   16.7440  -34.5890 C   0  0  0  0  0  0  0  0  0  0  0  0
   -2.9070   17.8120  -33.4880 C   0  0  0  0  0  0  0  0  0  0  0  0
   -4.0710   18.7370  -33.5270 N   0  0  0  0  0  0  0  0  0  0  0  0
   -3.6980   20.1540  -33.7810 C   0  0  0  0  0  0  0  0  0  0  0  0
   -2.3110   20.5200  -33.2360 C   0  0  0  0  0  0  0  0  0  0  0  0
   -5.0900   18.2800  -34.5110 C   0  0  0  0  0  0  0  0  0  0  0  0
   -6.2040   17.4490  -33.8570 C   0  0  0  0  0  0  0  0  0  0  0  0
   -5.7340   16.9240  -32.6350 O   0  0  0  0  0  0  0  0  0  0  0  0
   -6.5060   17.4150  -31.5540 C   0  0  0  0  0  0  0  0  0  0  0  0
   -7.2710   18.6710  -31.9810 C   0  0  0  0  0  0  0  0  0  0  0  0
   -6.3560   19.7590  -32.3010 N   0  0  0  0  0  0  0  0  0  0  0  0
   -6.6590   21.1440  -32.1090 C   0  0  0  0  0  0  0  0  0  0  0  0
   -7.6580   21.6470  -32.6850 O   0  0  0  0  0  0  0  0  0  0  0  0
   -5.8180   21.9740  -31.2170 C   0  0  0  0  0  0  0  0  0  0  0  0
   -6.2900   23.2010  -30.7290 C   0  0  0  0  0  0  0  0  0  0  0  0
   -5.5140   23.9630  -29.8470 C   0  0  0  0  0  0  0  0  0  0  0  0
   -4.2500   23.5110  -29.4330 C   0  0  0  0  0  0  0  0  0  0  0  0
   -3.4450   24.2940  -28.4600 C   0  0  0  0  0  0  0  0  0  0  0  0
   -3.9370   24.5350  -27.1620 C   0  0  0  0  0  0  0  0  0  0  0  0
   -3.1730   25.2510  -26.2370 C   0  0  0  0  0  0  0  0  0  0  0  0
   -1.9070   25.7470  -26.5870 C   0  0  0  0  0  0  0  0  0  0  0  0
   -1.0880   26.4810  -25.5960 C   0  0  0  0  0  0  0  0  0  0  0  0
   -0.5100   27.7210  -25.9230 C   0  0  0  0  0  0  0  0  0  0  0  0
    0.2710   28.4050  -24.9890 C   0  0  0  0  0  0  0  0  0  0  0  0
    0.4860   27.8640  -23.7200 C   0  0  0  0  0  0  0  0  0  0  0  0
   -0.0920   26.6400  -23.3790 C   0  0  0  0  0  0  0  0  0  0  0  0
   -0.8740   25.9480  -24.3110 C   0  0  0  0  0  0  0  0  0  0  0  0
   -1.4240   25.5270  -27.8850 C   0  0  0  0  0  0  0  0  0  0  0  0
   -2.1810   24.7980  -28.8090 C   0  0  0  0  0  0  0  0  0  0  0  0
   -3.7710   22.2890  -29.9420 C   0  0  0  0  0  0  0  0  0  0  0  0
   -4.5430   21.5330  -30.8220 C   0  0  0  0  0  0  0  0  0  0  0  0
   -2.8934   15.7443  -34.1301 H   0  0  0  0  0  0  0  0  0  0  0  0
   -3.7989   16.8550  -35.2132 H   0  0  0  0  0  0  0  0  0  0  0  0
   -2.0026   16.8668  -35.2132 H   0  0  0  0  0  0  0  0  0  0  0  0
   -2.9084   17.3003  -32.5143 H   0  0  0  0  0  0  0  0  0  0  0  0
   -2.0124   18.4313  -33.6501 H   0  0  0  0  0  0  0  0  0  0  0  0
   -4.4970   18.6940  -32.5690 H   0  0  0  0  0  0  0  0  0  0  0  0
   -3.7041   20.3280  -34.8671 H   0  0  0  0  0  0  0  0  0  0  0  0
   -4.4320   20.7845  -33.2579 H   0  0  0  0  0  0  0  0  0  0  0  0
   -2.3357   20.5135  -32.1363 H   0  0  0  0  0  0  0  0  0  0  0  0
   -1.5724   19.7860  -33.5905 H   0  0  0  0  0  0  0  0  0  0  0  0
   -2.0307   21.5229  -33.5905 H   0  0  0  0  0  0  0  0  0  0  0  0
   -5.5413   19.1625  -34.9880 H   0  0  0  0  0  0  0  0  0  0  0  0
   -4.5820   17.6396  -35.2471 H   0  0  0  0  0  0  0  0  0  0  0  0
   -7.0791   18.0888  -33.6703 H   0  0  0  0  0  0  0  0  0  0  0  0
   -6.4925   16.6254  -34.5266 H   0  0  0  0  0  0  0  0  0  0  0  0
   -7.2225   16.6424  -31.2382 H   0  0  0  0  0  0  0  0  0  0  0  0
   -5.8361   17.6681  -30.7190 H   0  0  0  0  0  0  0  0  0  0  0  0
   -7.8768   18.4381  -32.8691 H   0  0  0  0  0  0  0  0  0  0  0  0
   -7.9139   18.9890  -31.1470 H   0  0  0  0  0  0  0  0  0  0  0  0
   -7.2786   23.5681  -31.0418 H   0  0  0  0  0  0  0  0  0  0  0  0
   -5.8977   24.9244  -29.4749 H   0  0  0  0  0  0  0  0  0  0  0  0
   -4.9293   24.1569  -26.8749 H   0  0  0  0  0  0  0  0  0  0  0  0
   -3.5669   25.4277  -25.2253 H   0  0  0  0  0  0  0  0  0  0  0  0
   -0.6742   28.1546  -26.9205 H   0  0  0  0  0  0  0  0  0  0  0  0
    0.7187   29.3741  -25.2542 H   0  0  0  0  0  0  0  0  0  0  0  0
    1.1097   28.4012  -22.9903 H   0  0  0  0  0  0  0  0  0  0  0  0
    0.0675   26.2184  -22.3756 H   0  0  0  0  0  0  0  0  0  0  0  0
   -1.3239   24.9821  -24.0377 H   0  0  0  0  0  0  0  0  0  0  0  0
   -0.4436   25.9301  -28.1788 H   0  0  0  0  0  0  0  0  0  0  0  0
   -1.7825   24.6179  -29.8183 H   0  0  0  0  0  0  0  0  0  0  0  0
   -2.7766   21.9270  -29.6418 H   0  0  0  0  0  0  0  0  0  0  0  0
   -4.1509   20.5819  -31.2114 H   0  0  0  0  0  0  0  0  0  0  0  0
  1  2  1  0
  2  3  1  0
  3  4  1  0
  4  5  1  0
  3  6  1  0
  6  7  1  0
  7  8  1  0
  8  9  1  0
  9 10  1  0
 10 11  1  0
 11 12  1  0
 12 13  2  0
 12 14  1  0
 14 15  2  0
 15 16  1  0
 16 17  2  0
 17 18  1  0
 18 19  2  0
 19 20  1  0
 20 21  2  0
 21 22  1  0
 22 23  2  0
 23 24  1  0
 24 25  2  0
 25 26  1  0
 26 27  2  0
 21 28  1  0
 28 29  2  0
 17 30  1  0
 30 31  2  0
 31 14  1  0
 29 18  1  0
 27 22  1  0
  1 32  1  0
  1 33  1  0
  1 34  1  0
  2 35  1  0
  2 36  1  0
  3 37  1  0
  4 38  1  0
  4 39  1  0
  5 40  1  0
  5 41  1  0
  5 42  1  0
  6 43  1  0
  6 44  1  0
  7 45  1  0
  7 46  1  0
  9 47  1  0
  9 48  1  0
 10 49  1  0
 10 50  1  0
 15 51  1  0
 16 52  1  0
 19 53  1  0
 20 54  1  0
 23 55  1  0
 24 56  1  0
 25 57  1  0
 26 58  1  0
 27 59  1  0
 28 60  1  0
 29 61  1  0
 30 62  1  0
 31 63  1  0
M  CHG  2   3   1  11  -1
M  END
>  <UniqueID>  (9) 
9

>  <SMILES>  (9) 
CC[NH+](CC)CCOCC[N-]C(=O)c1ccc(-c2ccc(-c3ccccc3)cc2)cc1

>  <Energy>  (9) 
77.60609704570587

>  <Genealogy>  (9) 
CC[NH+](CC)CCOCC[N-]C(=O)c1ccc(-c2ccc(-c3ccccc3)cc2)cc1 (protonated)
CC[NH+](CC)CCOCC[N-]C(=O)c1ccc(-c2ccc(-c3ccccc3)cc2)cc1 (3D coordinates assigned)
CC[NH+](CC)CCOCC[N-]C(=O)c1ccc(-c2ccc(-c3ccccc3)cc2)cc1 (optimized conformer: 77.60609704570587 kcal/mol)

>  <smiles>  (9) 
CCN(CC)CCOCCNC(=O)c1ccc(-c2ccc(-c3ccccc3)cc2)cc1

>  <score_type>  (9) 
oracle

>  <origin>  (9) 
adg

>  <m_score__min__energy>  (9) 
-9.6099999999999994

>  <m_primary>  (9) 
energy

$$$$
9:0
     RDKit          3D

 40 42  0  0  0  0  0  0  0  0999 V2000
   -4.2280   22.9640  -27.9350 C   0  0  0  0  0  0  0  0  0  0  0  0
   -3.6930   24.2060  -28.6420 C   0  0  0  0  0  0  0  0  0  0  0  0
   -4.1540   24.2600  -30.0360 N   0  0  0  0  0  0  0  0  0  0  0  0
   -5.0650   25.3270  -30.4670 C   0  0  0  0  0  0  0  0  0  0  0  0
   -6.4020   25.2270  -29.7410 C   0  0  0  0  0  0  0  0  0  0  0  0
   -3.8380   23.2000  -30.9520 C   0  0  0  0  0  0  0  0  0  0  0  0
   -4.4590   22.5920  -32.0380 C   0  0  0  0  0  0  0  0  0  0  0  0
   -5.7160   22.6980  -32.7150 N   0  0  0  0  0  0  0  0  0  0  0  0
   -6.8720   21.9340  -32.3470 C   0  0  0  0  0  0  0  0  0  0  0  0
   -7.9190   22.5930  -31.6880 C   0  0  0  0  0  0  0  0  0  0  0  0
   -9.0290   21.8860  -31.2280 C   0  0  0  0  0  0  0  0  0  0  0  0
   -9.1170   20.5090  -31.4280 C   0  0  0  0  0  0  0  0  0  0  0  0
   -8.1060   19.8290  -32.1220 C   0  0  0  0  0  0  0  0  0  0  0  0
   -8.2080   18.4470  -32.3400 C   0  0  0  0  0  0  0  0  0  0  0  0
   -7.2210   17.7730  -33.0580 C   0  0  0  0  0  0  0  0  0  0  0  0
   -6.1320   18.4730  -33.5790 C   0  0  0  0  0  0  0  0  0  0  0  0
   -6.0150   19.8480  -33.3710 C   0  0  0  0  0  0  0  0  0  0  0  0
   -6.9790   20.5440  -32.6130 C   0  0  0  0  0  0  0  0  0  0  0  0
   -3.3610   21.7710  -32.1990 C   0  0  0  0  0  0  0  0  0  0  0  0
   -3.0440   20.8600  -33.0080 O   0  0  0  0  0  0  0  0  0  0  0  0
   -2.7680   22.3340  -31.0890 C   0  0  0  0  0  0  0  0  0  0  0  0
   -1.6900   22.1490  -30.4690 O   0  0  0  0  0  0  0  0  0  0  0  0
   -4.1665   23.1069  -26.8461 H   0  0  0  0  0  0  0  0  0  0  0  0
   -5.2765   22.8002  -28.2247 H   0  0  0  0  0  0  0  0  0  0  0  0
   -3.6267   22.0896  -28.2247 H   0  0  0  0  0  0  0  0  0  0  0  0
   -4.0471   25.1021  -28.1114 H   0  0  0  0  0  0  0  0  0  0  0  0
   -2.5938   24.1642  -28.6385 H   0  0  0  0  0  0  0  0  0  0  0  0
   -4.6072   26.3025  -30.2460 H   0  0  0  0  0  0  0  0  0  0  0  0
   -5.2430   25.2221  -31.5474 H   0  0  0  0  0  0  0  0  0  0  0  0
   -6.2311   25.2398  -28.6544 H   0  0  0  0  0  0  0  0  0  0  0  0
   -7.0367   26.0802  -30.0224 H   0  0  0  0  0  0  0  0  0  0  0  0
   -6.9028   24.2889  -30.0224 H   0  0  0  0  0  0  0  0  0  0  0  0
   -5.8240   23.4600  -33.4210 H   0  0  0  0  0  0  0  0  0  0  0  0
   -7.8642   23.6805  -31.5320 H   0  0  0  0  0  0  0  0  0  0  0  0
   -9.8385   22.4166  -30.7053 H   0  0  0  0  0  0  0  0  0  0  0  0
   -9.9834   19.9536  -31.0396 H   0  0  0  0  0  0  0  0  0  0  0  0
   -9.0708   17.8924  -31.9426 H   0  0  0  0  0  0  0  0  0  0  0  0
   -7.3009   16.6871  -33.2141 H   0  0  0  0  0  0  0  0  0  0  0  0
   -5.3627   17.9388  -34.1559 H   0  0  0  0  0  0  0  0  0  0  0  0
   -5.1629   20.3938  -33.8023 H   0  0  0  0  0  0  0  0  0  0  0  0
  1  2  1  0
  2  3  1  0
  3  4  1  0
  4  5  1  0
  3  6  1  0
  6  7  2  0
  7  8  1  0
  8  9  1  0
  9 10  2  0
 10 11  1  0
 11 12  2  0
 12 13  1  0
 13 14  2  0
 14 15  1  0
 15 16  2  0
 16 17  1  0
 17 18  2  0
  7 19  1  0
 19 20  2  0
 19 21  1  0
 21 22  2  0
 21  6  1  0
 18  9  1  0
 18 13  1  0
  1 23  1  0
  1 24  1  0
  1 25  1  0
  2 26  1  0
  2 27  1  0
  4 28  1  0
  4 29  1  0
  5 30  1  0
  5 31  1  0
  5 32  1  0
  8 33  1  0
 10 34  1  0
 11 35  1  0
 12 36  1  0
 14 37  1  0
 15 38  1  0
 16 39  1  0
 17 40  1  0
M  END
>  <UniqueID>  (10) 
10

>  <SMILES>  (10) 
CCN(CC)c1c(Nc2cccc3ccccc23)c(=O)c1=O

>  <Energy>  (10) 
36.275321545194345

>  <Genealogy>  (10) 
CCN(CC)c1c(Nc2cccc3ccccc23)c(=O)c1=O (3D coordinates assigned)
CCN(CC)c1c(Nc2cccc3ccccc23)c(=O)c1=O (optimized conformer: 36.275321545194345 kcal/mol)

>  <smiles>  (10) 
CCN(CC)c1c(Nc2cccc3ccccc23)c(=O)c1=O

>  <score_type>  (10) 
oracle

>  <origin>  (10) 
adg

>  <m_score__min__energy>  (10) 
-8.1400000000000006

>  <m_primary>  (10) 
energy

$$$$
10:0
     RDKit          3D

 38 41  0  0  0  0  0  0  0  0999 V2000
   -2.0860   22.0690  -30.4450 C   0  0  0  0  0  0  0  0  0  0  0  0
   -2.6640   23.4290  -30.0720 C   0  0  0  0  0  0  0  0  0  0  0  0
   -4.0370   23.5420  -30.5520 N   0  0  0  0  0  0  0  0  0  0  0  0
   -4.8790   22.5180  -30.7840 C   0  0  0  0  0  0  0  0  0  0  0  0
   -6.0580   23.0420  -31.2750 C   0  0  0  0  0  0  0  0  0  0  0  0
   -7.3010   22.3280  -31.6190 C   0  0  0  0  0  0  0  0  0  0  0  0
   -8.5800   22.8700  -31.5740 C   0  0  0  0  0  0  0  0  0  0  0  0
   -9.4740   21.9170  -31.9190 N   0  0  0  0  0  0  0  0  0  0  0  0
   -8.7300   20.8260  -32.1760 C   0  0  0  0  0  0  0  0  0  0  0  0
   -9.1940   19.5900  -32.6070 C   0  0  0  0  0  0  0  0  0  0  0  0
   -8.2750   18.6150  -32.8630 N   0  0  0  0  0  0  0  0  0  0  0  0
   -6.9290   18.8220  -32.7140 C   0  0  0  0  0  0  0  0  0  0  0  0
   -5.9810   17.7230  -33.0300 C   0  0  0  0  0  0  0  0  0  0  0  0
   -5.3250   17.7010  -34.2760 C   0  0  0  0  0  0  0  0  0  0  0  0
   -4.4340   16.6710  -34.5920 C   0  0  0  0  0  0  0  0  0  0  0  0
   -4.1920   15.6480  -33.6740 C   0  0  0  0  0  0  0  0  0  0  0  0
   -4.8450   15.6480  -32.4390 C   0  0  0  0  0  0  0  0  0  0  0  0
   -4.6200   14.6470  -31.5540 F   0  0  0  0  0  0  0  0  0  0  0  0
   -5.7380   16.6770  -32.1170 C   0  0  0  0  0  0  0  0  0  0  0  0
   -6.4790   20.0920  -32.2880 C   0  0  0  0  0  0  0  0  0  0  0  0
   -7.4140   21.0390  -32.0100 N   0  0  0  0  0  0  0  0  0  0  0  0
   -5.8600   24.4110  -31.3030 C   0  0  0  0  0  0  0  0  0  0  0  0
   -4.6150   24.6900  -30.8710 N   0  0  0  0  0  0  0  0  0  0  0  0
   -1.8477   21.5082  -29.5292 H   0  0  0  0  0  0  0  0  0  0  0  0
   -2.8232   21.5073  -31.0375 H   0  0  0  0  0  0  0  0  0  0  0  0
   -1.1700   22.2099  -31.0375 H   0  0  0  0  0  0  0  0  0  0  0  0
   -2.6512   23.5415  -28.9778 H   0  0  0  0  0  0  0  0  0  0  0  0
   -2.0550   24.2177  -30.5379 H   0  0  0  0  0  0  0  0  0  0  0  0
   -4.6656   21.4526  -30.6128 H   0  0  0  0  0  0  0  0  0  0  0  0
   -8.8251   23.9072  -31.3016 H   0  0  0  0  0  0  0  0  0  0  0  0
  -10.5110   22.0140  -31.9810 H   0  0  0  0  0  0  0  0  0  0  0  0
  -10.2700   19.4029  -32.7380 H   0  0  0  0  0  0  0  0  0  0  0  0
   -5.5152   18.5009  -35.0067 H   0  0  0  0  0  0  0  0  0  0  0  0
   -3.9228   16.6669  -35.5660 H   0  0  0  0  0  0  0  0  0  0  0  0
   -3.4868   14.8414  -33.9230 H   0  0  0  0  0  0  0  0  0  0  0  0
   -6.2533   16.6691  -31.1452 H   0  0  0  0  0  0  0  0  0  0  0  0
   -5.4053   20.3077  -32.1845 H   0  0  0  0  0  0  0  0  0  0  0  0
   -6.6027   25.1549  -31.6272 H   0  0  0  0  0  0  0  0  0  0  0  0
  1  2  1  0
  2  3  1  0
  3  4  1  0
  4  5  2  0
  5  6  1  0
  6  7  2  0
  7  8  1  0
  8  9  2  0
  9 10  1  0
 10 11  2  0
 11 12  1  0
 12 13  1  0
 13 14  2  0
 14 15  1  0
 15 16  2  0
 16 17  1  0
 17 18  1  0
 17 19  2  0
 12 20  2  0
 20 21  1  0
  5 22  1  0
 22 23  2  0
 23  3  1  0
 21  6  1  0
 21  9  1  0
 19 13  1  0
  1 24  1  0
  1 25  1  0
  1 26  1  0
  2 27  1  0
  2 28  1  0
  4 29  1  0
  7 30  1  0
  8 31  1  0
 10 32  1  0
 14 33  1  0
 15 34  1  0
 16 35  1  0
 19 36  1  0
 20 37  1  0
 22 38  1  0
M  CHG  1   8   1
M  END
>  <UniqueID>  (11) 
11

>  <SMILES>  (11) 
CCn1cc(-c2c[nH+]c3cnc(-c4cccc(F)c4)cn23)cn1

>  <Energy>  (11) 
113.47175728260487

>  <Genealogy>  (11) 
CCn1cc(-c2c[nH+]c3cnc(-c4cccc(F)c4)cn23)cn1 (protonated)
CCn1cc(-c2c[nH+]c3cnc(-c4cccc(F)c4)cn23)cn1 (3D coordinates assigned)
CCn1cc(-c2c[nH+]c3cnc(-c4cccc(F)c4)cn23)cn1 (optimized conformer: 113.47175728260487 kcal/mol)

>  <smiles>  (11) 
CCn1cc(-c2cnc3cnc(-c4cccc(F)c4)cn23)cn1

>  <score_type>  (11) 
oracle

>  <origin>  (11) 
adg

>  <m_score__min__energy>  (11) 
-7.3399999999999999

>  <m_primary>  (11) 
energy

$$$$
11:0
     RDKit          3D

 36 37  0  0  0  0  0  0  0  0999 V2000
   -3.0490   25.3090  -25.9700 C   0  0  0  0  0  0  0  0  0  0  0  0
   -4.1160   24.5580  -26.7760 C   0  0  0  0  0  0  0  0  0  0  0  0
   -3.7780   24.4790  -28.2230 N   0  0  0  0  0  0  0  0  0  0  0  0
   -2.3350   24.1580  -28.4010 C   0  0  0  0  0  0  0  0  0  0  0  0
   -2.1190   22.8320  -29.1410 C   0  0  0  0  0  0  0  0  0  0  0  0
   -4.6140   23.4480  -28.8890 C   0  0  0  0  0  0  0  0  0  0  0  0
   -5.0340   23.8700  -30.2780 C   0  0  0  0  0  0  0  0  0  0  0  0
   -4.5980   24.9530  -30.7530 O   0  0  0  0  0  0  0  0  0  0  0  0
   -5.9600   23.0860  -31.0440 N   0  0  0  0  0  0  0  0  0  0  0  0
   -7.2820   23.3510  -31.1710 C   0  0  0  0  0  0  0  0  0  0  0  0
   -7.8990   22.3900  -31.9650 C   0  0  0  0  0  0  0  0  0  0  0  0
   -6.8940   21.5260  -32.3380 C   0  0  0  0  0  0  0  0  0  0  0  0
   -6.9340   20.4030  -33.1620 C   0  0  0  0  0  0  0  0  0  0  0  0
   -5.7250   19.7300  -33.4160 C   0  0  0  0  0  0  0  0  0  0  0  0
   -5.7160   18.1870  -34.5400 Br  0  0  0  0  0  0  0  0  0  0  0  0
   -4.5160   20.2000  -32.8570 C   0  0  0  0  0  0  0  0  0  0  0  0
   -4.5060   21.3390  -32.0310 C   0  0  0  0  0  0  0  0  0  0  0  0
   -5.7260   21.9730  -31.7710 C   0  0  0  0  0  0  0  0  0  0  0  0
   -3.2396   25.1748  -24.8950 H   0  0  0  0  0  0  0  0  0  0  0  0
   -2.0541   24.9109  -26.2185 H   0  0  0  0  0  0  0  0  0  0  0  0
   -3.0880   26.3799  -26.2185 H   0  0  0  0  0  0  0  0  0  0  0  0
   -4.2068   23.5367  -26.3775 H   0  0  0  0  0  0  0  0  0  0  0  0
   -5.0618   25.1116  -26.6807 H   0  0  0  0  0  0  0  0  0  0  0  0
   -3.9730   25.4080  -28.6680 H   0  0  0  0  0  0  0  0  0  0  0  0
   -1.8617   24.9660  -28.9782 H   0  0  0  0  0  0  0  0  0  0  0  0
   -1.8866   24.0615  -27.4012 H   0  0  0  0  0  0  0  0  0  0  0  0
   -1.9869   22.0212  -28.4095 H   0  0  0  0  0  0  0  0  0  0  0  0
   -2.9940   22.6175  -29.7721 H   0  0  0  0  0  0  0  0  0  0  0  0
   -1.2211   22.9063  -29.7721 H   0  0  0  0  0  0  0  0  0  0  0  0
   -4.0364   22.5146  -28.9609 H   0  0  0  0  0  0  0  0  0  0  0  0
   -5.5239   23.3077  -28.2870 H   0  0  0  0  0  0  0  0  0  0  0  0
   -7.7964   24.2072  -30.7103 H   0  0  0  0  0  0  0  0  0  0  0  0
   -8.9633   22.3325  -32.2370 H   0  0  0  0  0  0  0  0  0  0  0  0
   -7.8807   20.0538  -33.5999 H   0  0  0  0  0  0  0  0  0  0  0  0
   -3.5749   19.6714  -33.0691 H   0  0  0  0  0  0  0  0  0  0  0  0
   -3.5672   21.7197  -31.6024 H   0  0  0  0  0  0  0  0  0  0  0  0
  1  2  1  0
  2  3  1  0
  3  4  1  0
  4  5  1  0
  3  6  1  0
  6  7  1  0
  7  8  2  0
  7  9  1  0
  9 10  1  0
 10 11  2  0
 11 12  1  0
 12 13  2  0
 13 14  1  0
 14 15  1  0
 14 16  2  0
 16 17  1  0
 17 18  2  0
 18  9  1  0
 18 12  1  0
  1 19  1  0
  1 20  1  0
  1 21  1  0
  2 22  1  0
  2 23  1  0
  3 24  1  0
  4 25  1  0
  4 26  1  0
  5 27  1  0
  5 28  1  0
  5 29  1  0
  6 30  1  0
  6 31  1  0
 10 32  1  0
 11 33  1  0
 13 34  1  0
 16 35  1  0
 17 36  1  0
M  CHG  1   3   1
M  END
>  <UniqueID>  (12) 
12

>  <SMILES>  (12) 
CC[NH+](CC)CC(=O)n1ccc2cc(Br)ccc21

>  <Energy>  (12) 
74.75245437043539

>  <Genealogy>  (12) 
CC[NH+](CC)CC(=O)n1ccc2cc(Br)ccc21 (protonated)
CC[NH+](CC)CC(=O)n1ccc2cc(Br)ccc21 (3D coordinates assigned)
CC[NH+](CC)CC(=O)n1ccc2cc(Br)ccc21 (optimized conformer: 74.75245437043539 kcal/mol)

>  <smiles>  (12) 
CCN(CC)CC(=O)n1ccc2cc(Br)ccc21

>  <score_type>  (12) 
oracle

>  <origin>  (12) 
adg

>  <m_score__min__energy>  (12) 
-6.6500000000000004

>  <m_primary>  (12) 
energy

$$$$
12:0
     RDKit          3D

 50 53  0  0  0  0  0  0  0  0999 V2000
   -9.4920   21.7760  -31.0190 C   0  0  0  0  0  0  0  0  0  0  0  0
   -7.9860   21.8060  -31.0540 C   0  0  0  0  0  0  0  0  0  0  0  0
   -7.2910   22.5740  -30.1070 C   0  0  0  0  0  0  0  0  0  0  0  0
   -5.8900   22.6330  -30.1150 C   0  0  0  0  0  0  0  0  0  0  0  0
   -5.2310   23.4000  -29.2010 N   0  0  0  0  0  0  0  0  0  0  0  0
   -3.8690   23.4840  -29.2070 C   0  0  0  0  0  0  0  0  0  0  0  0
   -3.1420   24.3310  -28.2280 C   0  0  0  0  0  0  0  0  0  0  0  0
   -1.9010   24.9140  -28.5470 C   0  0  0  0  0  0  0  0  0  0  0  0
   -1.2260   25.7030  -27.6090 C   0  0  0  0  0  0  0  0  0  0  0  0
   -1.7770   25.9110  -26.3430 C   0  0  0  0  0  0  0  0  0  0  0  0
   -3.0000   25.3260  -26.0090 C   0  0  0  0  0  0  0  0  0  0  0  0
   -3.6800   24.5380  -26.9430 C   0  0  0  0  0  0  0  0  0  0  0  0
   -3.1580   22.7610  -30.1120 N   0  0  0  0  0  0  0  0  0  0  0  0
   -3.7580   21.9640  -31.0340 C   0  0  0  0  0  0  0  0  0  0  0  0
   -2.9360   21.1990  -31.9280 N   0  0  0  0  0  0  0  0  0  0  0  0
   -1.7650   20.4800  -31.4150 C   0  0  0  0  0  0  0  0  0  0  0  0
   -0.5600   20.7810  -32.3090 C   0  0  0  0  0  0  0  0  0  0  0  0
   -0.7950   20.3860  -33.7210 N   0  0  0  0  0  0  0  0  0  0  0  0
    0.0350   21.1940  -34.6280 C   0  0  0  0  0  0  0  0  0  0  0  0
   -2.2200   20.3890  -34.1440 C   0  0  0  0  0  0  0  0  0  0  0  0
   -3.0740   21.4040  -33.3720 C   0  0  0  0  0  0  0  0  0  0  0  0
   -5.1650   21.8980  -31.0750 C   0  0  0  0  0  0  0  0  0  0  0  0
   -5.8580   21.1550  -32.0460 C   0  0  0  0  0  0  0  0  0  0  0  0
   -7.2620   21.1050  -32.0470 C   0  0  0  0  0  0  0  0  0  0  0  0
   -7.9700   20.2880  -33.0980 C   0  0  0  0  0  0  0  0  0  0  0  0
   -9.8344   21.7692  -29.9737 H   0  0  0  0  0  0  0  0  0  0  0  0
   -9.8884   22.6664  -31.5289 H   0  0  0  0  0  0  0  0  0  0  0  0
   -9.8527   20.8705  -31.5289 H   0  0  0  0  0  0  0  0  0  0  0  0
   -7.8532   23.1376  -29.3478 H   0  0  0  0  0  0  0  0  0  0  0  0
   -5.7810   23.9140  -28.4770 H   0  0  0  0  0  0  0  0  0  0  0  0
   -1.4589   24.7482  -29.5405 H   0  0  0  0  0  0  0  0  0  0  0  0
   -0.2599   26.1600  -27.8694 H   0  0  0  0  0  0  0  0  0  0  0  0
   -1.2475   26.5358  -25.6087 H   0  0  0  0  0  0  0  0  0  0  0  0
   -3.4296   25.4853  -25.0090 H   0  0  0  0  0  0  0  0  0  0  0  0
   -4.6413   24.0769  -26.6723 H   0  0  0  0  0  0  0  0  0  0  0  0
   -1.5522   20.8090  -30.3872 H   0  0  0  0  0  0  0  0  0  0  0  0
   -1.9653   19.3984  -31.4155 H   0  0  0  0  0  0  0  0  0  0  0  0
   -0.3536   21.8609  -32.2731 H   0  0  0  0  0  0  0  0  0  0  0  0
    0.2930   20.1970  -31.9330 H   0  0  0  0  0  0  0  0  0  0  0  0
    0.7000   21.8414  -34.0375 H   0  0  0  0  0  0  0  0  0  0  0  0
    0.6393   20.5288  -35.2623 H   0  0  0  0  0  0  0  0  0  0  0  0
   -0.6137   21.8159  -35.2623 H   0  0  0  0  0  0  0  0  0  0  0  0
   -2.2669   20.6347  -35.2152 H   0  0  0  0  0  0  0  0  0  0  0  0
   -2.6273   19.3892  -33.9330 H   0  0  0  0  0  0  0  0  0  0  0  0
   -2.7439   22.4221  -33.6261 H   0  0  0  0  0  0  0  0  0  0  0  0
   -4.1290   21.2661  -33.6513 H   0  0  0  0  0  0  0  0  0  0  0  0
   -5.2942   20.6059  -32.8146 H   0  0  0  0  0  0  0  0  0  0  0  0
   -8.6156   19.5430  -32.6100 H   0  0  0  0  0  0  0  0  0  0  0  0
   -8.5842   20.9507  -33.7254 H   0  0  0  0  0  0  0  0  0  0  0  0
   -7.2267   19.7743  -33.7254 H   0  0  0  0  0  0  0  0  0  0  0  0
  1  2  1  0
  2  3  2  0
  3  4  1  0
  4  5  2  0
  5  6  1  0
  6  7  1  0
  7  8  2  0
  8  9  1  0
  9 10  2  0
 10 11  1  0
 11 12  2  0
  6 13  2  0
 13 14  1  0
 14 15  1  0
 15 16  1  0
 16 17  1  0
 17 18  1  0
 18 19  1  0
 18 20  1  0
 20 21  1  0
 14 22  2  0
 22 23  1  0
 23 24  2  0
 24 25  1  0
 24  2  1  0
 22  4  1  0
 12  7  1  0
 21 15  1  0
  1 26  1  0
  1 27  1  0
  1 28  1  0
  3 29  1  0
  5 30  1  0
  8 31  1  0
  9 32  1  0
 10 33  1  0
 11 34  1  0
 12 35  1  0
 16 36  1  0
 16 37  1  0
 17 38  1  0
 17 39  1  0
 19 40  1  0
 19 41  1  0
 19 42  1  0
 20 43  1  0
 20 44  1  0
 21 45  1  0
 21 46  1  0
 23 47  1  0
 25 48  1  0
 25 49  1  0
 25 50  1  0
M  CHG  1   5   1
M  END
>  <UniqueID>  (13) 
13

>  <SMILES>  (13) 
Cc1cc2[nH+]c(-c3ccccc3)nc(N3CCN(C)CC3)c2cc1C

>  <Energy>  (13) 
72.8766724186115

>  <Genealogy>  (13) 
Cc1cc2[nH+]c(-c3ccccc3)nc(N3CCN(C)CC3)c2cc1C (protonated)
Cc1cc2[nH+]c(-c3ccccc3)nc(N3CCN(C)CC3)c2cc1C (3D coordinates assigned)
Cc1cc2[nH+]c(-c3ccccc3)nc(N3CCN(C)CC3)c2cc1C (nonaromatic ring conformer: 72.8766724186115 kcal/mol)

>  <smiles>  (13) 
Cc1cc2nc(-c3ccccc3)nc(N3CCN(C)CC3)c2cc1C

>  <score_type>  (13) 
oracle

>  <origin>  (13) 
adg

>  <m_score__min__energy>  (13) 
-7.6500000000000004

>  <m_primary>  (13) 
energy

$$$$
13:0
     RDKit          3D

 48 50  0  0  0  0  0  0  0  0999 V2000
   -9.3590   21.6140  -30.8340 C   0  0  0  0  0  0  0  0  0  0  0  0
   -8.3930   22.4690  -31.6370 C   0  0  0  0  0  0  0  0  0  0  0  0
   -7.4640   21.6240  -32.3100 O   0  0  0  0  0  0  0  0  0  0  0  0
   -6.1460   21.3890  -31.8870 C   0  0  0  0  0  0  0  0  0  0  0  0
   -5.4300   22.3210  -31.1110 C   0  0  0  0  0  0  0  0  0  0  0  0
   -4.1210   22.0420  -30.6840 C   0  0  0  0  0  0  0  0  0  0  0  0
   -3.3640   23.0280  -29.8700 C   0  0  0  0  0  0  0  0  0  0  0  0
   -2.5070   22.5870  -28.8530 C   0  0  0  0  0  0  0  0  0  0  0  0
   -1.7900   23.5170  -28.0960 C   0  0  0  0  0  0  0  0  0  0  0  0
   -0.9160   23.1140  -27.0750 C   0  0  0  0  0  0  0  0  0  0  0  0
   -0.2130   24.0760  -26.3410 C   0  0  0  0  0  0  0  0  0  0  0  0
   -0.3790   25.4360  -26.6230 C   0  0  0  0  0  0  0  0  0  0  0  0
   -1.2480   25.8420  -27.6400 C   0  0  0  0  0  0  0  0  0  0  0  0
   -1.9560   24.8870  -28.3800 C   0  0  0  0  0  0  0  0  0  0  0  0
   -2.7840   25.2760  -29.3450 O   0  0  0  0  0  0  0  0  0  0  0  0
   -3.4820   24.4190  -30.0840 C   0  0  0  0  0  0  0  0  0  0  0  0
   -4.2650   24.8690  -30.9640 O   0  0  0  0  0  0  0  0  0  0  0  0
   -3.5240   20.8260  -31.0520 C   0  0  0  0  0  0  0  0  0  0  0  0
   -4.2280   19.9000  -31.8240 C   0  0  0  0  0  0  0  0  0  0  0  0
   -5.5340   20.1760  -32.2460 C   0  0  0  0  0  0  0  0  0  0  0  0
   -6.2460   19.2160  -33.0390 N   0  0  0  0  0  0  0  0  0  0  0  0
   -6.1290   19.2270  -34.4990 C   0  0  0  0  0  0  0  0  0  0  0  0
   -5.3680   17.9980  -34.9830 C   0  0  0  0  0  0  0  0  0  0  0  0
   -7.3050   18.0760  -32.2660 S   0  0  0  0  0  0  0  0  0  0  0  0
   -8.9540   18.7410  -32.2030 C   0  0  0  0  0  0  0  0  0  0  0  0
   -7.3020   16.7860  -33.0370 O   0  0  0  0  0  0  0  0  0  0  0  0
   -6.8380   17.8090  -30.8620 O   0  0  0  0  0  0  0  0  0  0  0  0
   -9.1817   21.7709  -29.7598 H   0  0  0  0  0  0  0  0  0  0  0  0
  -10.3926   21.8986  -31.0805 H   0  0  0  0  0  0  0  0  0  0  0  0
   -9.2020   20.5535  -31.0805 H   0  0  0  0  0  0  0  0  0  0  0  0
   -8.9531   23.0611  -32.3757 H   0  0  0  0  0  0  0  0  0  0  0  0
   -7.8516   23.1472  -30.9610 H   0  0  0  0  0  0  0  0  0  0  0  0
   -5.9003   23.2768  -30.8366 H   0  0  0  0  0  0  0  0  0  0  0  0
   -2.3990   21.5111  -28.6511 H   0  0  0  0  0  0  0  0  0  0  0  0
   -0.7838   22.0450  -26.8522 H   0  0  0  0  0  0  0  0  0  0  0  0
    0.4722   23.7617  -25.5399 H   0  0  0  0  0  0  0  0  0  0  0  0
    0.1758   26.1881  -26.0429 H   0  0  0  0  0  0  0  0  0  0  0  0
   -1.3757   26.9124  -27.8591 H   0  0  0  0  0  0  0  0  0  0  0  0
   -2.4963   20.6016  -30.7305 H   0  0  0  0  0  0  0  0  0  0  0  0
   -3.7535   18.9475  -32.1025 H   0  0  0  0  0  0  0  0  0  0  0  0
   -7.1355   19.2275  -34.9428 H   0  0  0  0  0  0  0  0  0  0  0  0
   -5.5791   20.1292  -34.8050 H   0  0  0  0  0  0  0  0  0  0  0  0
   -5.0116   17.4224  -34.1160 H   0  0  0  0  0  0  0  0  0  0  0  0
   -6.0352   17.3695  -35.5911 H   0  0  0  0  0  0  0  0  0  0  0  0
   -4.5080   18.3152  -35.5911 H   0  0  0  0  0  0  0  0  0  0  0  0
   -9.2598   18.8643  -31.1536 H   0  0  0  0  0  0  0  0  0  0  0  0
   -8.9750   19.7179  -32.7082 H   0  0  0  0  0  0  0  0  0  0  0  0
   -9.6468   18.0520  -32.7082 H   0  0  0  0  0  0  0  0  0  0  0  0
  1  2  1  0
  2  3  1  0
  3  4  1  0
  4  5  2  0
  5  6  1  0
  6  7  1  0
  7  8  2  0
  8  9  1  0
  9 10  2  0
 10 11  1  0
 11 12  2  0
 12 13  1  0
 13 14  2  0
 14 15  1  0
 15 16  1  0
 16 17  2  0
  6 18  2  0
 18 19  1  0
 19 20  2  0
 20 21  1  0
 21 22  1  0
 22 23  1  0
 21 24  1  0
 24 25  1  0
 24 26  2  0
 24 27  2  0
 20  4  1  0
 16  7  1  0
 14  9  1  0
  1 28  1  0
  1 29  1  0
  1 30  1  0
  2 31  1  0
  2 32  1  0
  5 33  1  0
  8 34  1  0
 10 35  1  0
 11 36  1  0
 12 37  1  0
 13 38  1  0
 18 39  1  0
 19 40  1  0
 22 41  1  0
 22 42  1  0
 23 43  1  0
 23 44  1  0
 23 45  1  0
 25 46  1  0
 25 47  1  0
 25 48  1  0
M  END
>  <UniqueID>  (14) 
14

>  <SMILES>  (14) 
CCOc1cc(-c2cc3ccccc3oc2=O)ccc1N(CC)S(C)(=O)=O

>  <Energy>  (14) 
54.77418002878639

>  <Genealogy>  (14) 
CCOc1cc(-c2cc3ccccc3oc2=O)ccc1N(CC)S(C)(=O)=O (3D coordinates assigned)
CCOc1cc(-c2cc3ccccc3oc2=O)ccc1N(CC)S(C)(=O)=O (optimized conformer: 54.77418002878639 kcal/mol)

>  <smiles>  (14) 
CCOc1cc(-c2cc3ccccc3oc2=O)ccc1N(CC)S(C)(=O)=O

>  <score_type>  (14) 
oracle

>  <origin>  (14) 
adg

>  <m_score__min__energy>  (14) 
-9.2100000000000009

>  <m_primary>  (14) 
energy

$$$$
14:0
     RDKit          3D

 46 49  0  0  0  0  0  0  0  0999 V2000
   -5.5000   17.5880  -32.5850 C   0  0  0  0  0  0  0  0  0  0  0  0
   -5.7670   18.9530  -32.2840 O   0  0  0  0  0  0  0  0  0  0  0  0
   -7.0380   19.5460  -32.3240 C   0  0  0  0  0  0  0  0  0  0  0  0
   -8.1910   18.8060  -32.6600 C   0  0  0  0  0  0  0  0  0  0  0  0
   -9.4500   19.4120  -32.6460 C   0  0  0  0  0  0  0  0  0  0  0  0
   -9.5750   20.7560  -32.2960 C   0  0  0  0  0  0  0  0  0  0  0  0
   -8.4420   21.5030  -31.9700 C   0  0  0  0  0  0  0  0  0  0  0  0
   -7.1680   20.9130  -31.9970 C   0  0  0  0  0  0  0  0  0  0  0  0
   -6.0160   21.7080  -31.6680 N   0  0  0  0  0  0  0  0  0  0  0  0
   -4.7550   21.3180  -31.8380 N   0  0  0  0  0  0  0  0  0  0  0  0
   -3.9190   22.2820  -31.3800 C   0  0  0  0  0  0  0  0  0  0  0  0
   -4.7000   23.3100  -30.8930 C   0  0  0  0  0  0  0  0  0  0  0  0
   -4.4220   24.5160  -30.2670 C   0  0  0  0  0  0  0  0  0  0  0  0
   -3.1000   24.9270  -30.0640 O   0  0  0  0  0  0  0  0  0  0  0  0
   -2.3590   24.6370  -28.8800 C   0  0  0  0  0  0  0  0  0  0  0  0
   -2.9480   23.4280  -28.1600 C   0  0  0  0  0  0  0  0  0  0  0  0
   -2.5750   22.2390  -28.8500 O   0  0  0  0  0  0  0  0  0  0  0  0
   -2.2340   21.0320  -28.2210 C   0  0  0  0  0  0  0  0  0  0  0  0
   -0.9730   20.4780  -28.4810 C   0  0  0  0  0  0  0  0  0  0  0  0
   -0.5880   19.2770  -27.8780 C   0  0  0  0  0  0  0  0  0  0  0  0
   -1.4610   18.6190  -27.0080 C   0  0  0  0  0  0  0  0  0  0  0  0
   -2.7210   19.1620  -26.7410 C   0  0  0  0  0  0  0  0  0  0  0  0
   -3.1100   20.3620  -27.3430 C   0  0  0  0  0  0  0  0  0  0  0  0
   -5.4840   25.2750  -29.8600 N   0  0  0  0  0  0  0  0  0  0  0  0
   -6.7770   24.8580  -30.0500 C   0  0  0  0  0  0  0  0  0  0  0  0
   -7.0390   23.6630  -30.6610 N   0  0  0  0  0  0  0  0  0  0  0  0
   -5.9880   22.9200  -31.0850 C   0  0  0  0  0  0  0  0  0  0  0  0
   -5.3891   17.0210  -31.6489 H   0  0  0  0  0  0  0  0  0  0  0  0
   -6.3337   17.1715  -33.1694 H   0  0  0  0  0  0  0  0  0  0  0  0
   -4.5708   17.5163  -33.1694 H   0  0  0  0  0  0  0  0  0  0  0  0
   -8.0984   17.7449  -32.9348 H   0  0  0  0  0  0  0  0  0  0  0  0
  -10.3436   18.8281  -32.9114 H   0  0  0  0  0  0  0  0  0  0  0  0
  -10.5683   21.2283  -32.2768 H   0  0  0  0  0  0  0  0  0  0  0  0
   -8.5478   22.5615  -31.6899 H   0  0  0  0  0  0  0  0  0  0  0  0
   -4.4620   20.4090  -32.2600 H   0  0  0  0  0  0  0  0  0  0  0  0
   -2.8195   22.2504  -31.3940 H   0  0  0  0  0  0  0  0  0  0  0  0
   -1.3145   24.4230  -29.1507 H   0  0  0  0  0  0  0  0  0  0  0  0
   -2.4078   25.5074  -28.2092 H   0  0  0  0  0  0  0  0  0  0  0  0
   -2.5633   23.3908  -27.1301 H   0  0  0  0  0  0  0  0  0  0  0  0
   -4.0446   23.5116  -28.1379 H   0  0  0  0  0  0  0  0  0  0  0  0
   -0.2812   20.9920  -29.1646 H   0  0  0  0  0  0  0  0  0  0  0  0
    0.4034   18.8495  -28.0887 H   0  0  0  0  0  0  0  0  0  0  0  0
   -1.1570   17.6743  -26.5335 H   0  0  0  0  0  0  0  0  0  0  0  0
   -3.4079   18.6439  -26.0557 H   0  0  0  0  0  0  0  0  0  0  0  0
   -4.1030   20.7850  -27.1309 H   0  0  0  0  0  0  0  0  0  0  0  0
   -7.6098   25.4900  -29.7081 H   0  0  0  0  0  0  0  0  0  0  0  0
  1  2  1  0
  2  3  1  0
  3  4  2  0
  4  5  1  0
  5  6  2  0
  6  7  1  0
  7  8  2  0
  8  9  1  0
  9 10  1  0
 10 11  2  0
 11 12  1  0
 12 13  2  0
 13 14  1  0
 14 15  1  0
 15 16  1  0
 16 17  1  0
 17 18  1  0
 18 19  2  0
 19 20  1  0
 20 21  2  0
 21 22  1  0
 22 23  2  0
 13 24  1  0
 24 25  2  0
 25 26  1  0
 26 27  2  0
  8  3  1  0
 27  9  1  0
 27 12  1  0
 23 18  1  0
  1 28  1  0
  1 29  1  0
  1 30  1  0
  4 31  1  0
  5 32  1  0
  6 33  1  0
  7 34  1  0
 10 35  1  0
 11 36  1  0
 15 37  1  0
 15 38  1  0
 16 39  1  0
 16 40  1  0
 19 41  1  0
 20 42  1  0
 21 43  1  0
 22 44  1  0
 23 45  1  0
 25 46  1  0
M  CHG  1  10   1
M  END
>  <UniqueID>  (15) 
15

>  <SMILES>  (15) 
COc1ccccc1-n1[nH+]cc2c(OCCOc3ccccc3)ncnc21

>  <Energy>  (15) 
94.577726878567

>  <Genealogy>  (15) 
COc1ccccc1-n1[nH+]cc2c(OCCOc3ccccc3)ncnc21 (protonated)
COc1ccccc1-n1[nH+]cc2c(OCCOc3ccccc3)ncnc21 (3D coordinates assigned)
COc1ccccc1-n1[nH+]cc2c(OCCOc3ccccc3)ncnc21 (optimized conformer: 94.577726878567 kcal/mol)

>  <smiles>  (15) 
COc1ccccc1-n1ncc2c(OCCOc3ccccc3)ncnc21

>  <score_type>  (15) 
oracle

>  <origin>  (15) 
adg

>  <m_score__min__energy>  (15) 
-7.7400000000000002

>  <m_primary>  (15) 
energy

$$$$
15:0
     RDKit          3D

 41 43  0  0  0  0  0  0  0  0999 V2000
   -5.7070   16.5210  -31.4340 O   0  0  0  0  0  0  0  0  0  0  0  0
   -6.9070   17.0030  -32.5090 S   0  0  0  0  0  0  0  0  0  0  0  0
   -6.1860   17.7930  -33.9350 C   0  0  0  0  0  0  0  0  0  0  0  0
   -5.7710   19.2310  -33.5990 C   0  0  0  0  0  0  0  0  0  0  0  0
   -6.8120   19.9930  -32.8780 N   0  0  0  0  0  0  0  0  0  0  0  0
   -6.4730   21.2910  -32.3460 C   0  0  0  0  0  0  0  0  0  0  0  0
   -5.2000   21.8410  -32.5670 C   0  0  0  0  0  0  0  0  0  0  0  0
   -4.8670   23.0920  -32.0400 C   0  0  0  0  0  0  0  0  0  0  0  0
   -5.7970   23.8100  -31.2740 C   0  0  0  0  0  0  0  0  0  0  0  0
   -5.4450   25.1600  -30.7050 C   0  0  0  0  0  0  0  0  0  0  0  0
   -4.0130   25.2390  -30.4100 N   0  0  0  0  0  0  0  0  0  0  0  0
   -3.3080   24.3270  -29.5450 C   0  0  0  0  0  0  0  0  0  0  0  0
   -3.6100   24.3010  -28.1760 C   0  0  0  0  0  0  0  0  0  0  0  0
   -2.9400   23.4230  -27.3230 C   0  0  0  0  0  0  0  0  0  0  0  0
   -1.9660   22.5740  -27.8460 C   0  0  0  0  0  0  0  0  0  0  0  0
   -1.6740   22.6090  -29.1730 N   0  0  0  0  0  0  0  0  0  0  0  0
   -2.3120   23.4550  -30.0250 C   0  0  0  0  0  0  0  0  0  0  0  0
   -7.0740   23.2680  -31.0600 C   0  0  0  0  0  0  0  0  0  0  0  0
   -7.4080   22.0170  -31.5870 C   0  0  0  0  0  0  0  0  0  0  0  0
   -8.1380   19.4130  -32.6020 C   0  0  0  0  0  0  0  0  0  0  0  0
   -8.0080   18.1660  -31.7290 C   0  0  0  0  0  0  0  0  0  0  0  0
   -6.1930   16.2140  -30.6270 H   0  0  0  0  0  0  0  0  0  0  0  0
   -5.2994   17.2253  -34.2539 H   0  0  0  0  0  0  0  0  0  0  0  0
   -6.9313   17.8172  -34.7436 H   0  0  0  0  0  0  0  0  0  0  0  0
   -4.8685   19.1950  -32.9711 H   0  0  0  0  0  0  0  0  0  0  0  0
   -5.5953   19.7480  -34.5539 H   0  0  0  0  0  0  0  0  0  0  0  0
   -4.4595   21.2833  -33.1591 H   0  0  0  0  0  0  0  0  0  0  0  0
   -3.8694   23.5160  -32.2272 H   0  0  0  0  0  0  0  0  0  0  0  0
   -5.7068   25.9394  -31.4357 H   0  0  0  0  0  0  0  0  0  0  0  0
   -6.0075   25.3083  -29.7714 H   0  0  0  0  0  0  0  0  0  0  0  0
   -3.4840   26.0380  -30.8250 H   0  0  0  0  0  0  0  0  0  0  0  0
   -4.3789   24.9761  -27.7723 H   0  0  0  0  0  0  0  0  0  0  0  0
   -3.1780   23.4011  -26.2493 H   0  0  0  0  0  0  0  0  0  0  0  0
   -1.4333   21.8752  -27.1843 H   0  0  0  0  0  0  0  0  0  0  0  0
   -2.0491   23.4583  -31.0931 H   0  0  0  0  0  0  0  0  0  0  0  0
   -7.8160   23.8307  -30.4744 H   0  0  0  0  0  0  0  0  0  0  0  0
   -8.4089   21.5978  -31.4067 H   0  0  0  0  0  0  0  0  0  0  0  0
   -8.7566   20.1574  -32.0793 H   0  0  0  0  0  0  0  0  0  0  0  0
   -8.6073   19.1308  -33.5560 H   0  0  0  0  0  0  0  0  0  0  0  0
   -7.6052   18.4482  -30.7451 H   0  0  0  0  0  0  0  0  0  0  0  0
   -8.9981   17.7036  -31.6026 H   0  0  0  0  0  0  0  0  0  0  0  0
  1  2  1  0
  2  3  1  0
  3  4  1  0
  4  5  1  0
  5  6  1  0
  6  7  2  0
  7  8  1  0
  8  9  2  0
  9 10  1  0
 10 11  1  0
 11 12  1  0
 12 13  2  0
 13 14  1  0
 14 15  2  0
 15 16  1  0
 16 17  2  0
  9 18  1  0
 18 19  2  0
  5 20  1  0
 20 21  1  0
 21  2  1  0
 19  6  1  0
 17 12  1  0
  1 22  1  0
  3 23  1  0
  3 24  1  0
  4 25  1  0
  4 26  1  0
  7 27  1  0
  8 28  1  0
 10 29  1  0
 10 30  1  0
 11 31  1  0
 13 32  1  0
 14 33  1  0
 15 34  1  0
 17 35  1  0
 18 36  1  0
 19 37  1  0
 20 38  1  0
 20 39  1  0
 21 40  1  0
 21 41  1  0
M  CHG  1   2   1
M  END
>  <UniqueID>  (16) 
16

>  <SMILES>  (16) 
O[S+]1CCN(c2ccc(CNc3cccnc3)cc2)CC1

>  <Energy>  (16) 
42.77254991243242

>  <Genealogy>  (16) 
O[S+]1CCN(c2ccc(CNc3cccnc3)cc2)CC1 (protonated)
O[S+]1CCN(c2ccc(CNc3cccnc3)cc2)CC1 (3D coordinates assigned)
O[S+]1CCN(c2ccc(CNc3cccnc3)cc2)CC1 (nonaromatic ring conformer: 42.77254991243242 kcal/mol)

>  <smiles>  (16) 
[O-][S+]1CCN(c2ccc(CNc3cccnc3)cc2)CC1

>  <score_type>  (16) 
oracle

>  <origin>  (16) 
adg

>  <m_score__min__energy>  (16) 
-7.7000000000000002

>  <m_primary>  (16) 
energy

$$$$
16:0
     RDKit          3D

 64 67  0  0  0  0  0  0  0  0999 V2000
  -10.5534   22.6178  -32.0338 H   0  0  0  0  0  0  0  0  0  0  0  0
   -9.4810   22.3860  -31.9550 C   0  0  0  0  0  0  0  0  0  0  0  0
   -8.5300   23.3540  -32.2910 C   0  0  0  0  0  0  0  0  0  0  0  0
   -8.8549   24.3450  -32.6408 H   0  0  0  0  0  0  0  0  0  0  0  0
   -7.1660   23.0640  -32.1830 C   0  0  0  0  0  0  0  0  0  0  0  0
   -6.4207   23.8241  -32.4599 H   0  0  0  0  0  0  0  0  0  0  0  0
   -6.7440   21.8050  -31.7220 C   0  0  0  0  0  0  0  0  0  0  0  0
   -5.3050   21.4750  -31.6200 C   0  0  0  0  0  0  0  0  0  0  0  0
   -4.4030   22.3290  -31.0930 N   0  0  0  0  0  0  0  0  0  0  0  0
   -3.2740   21.5940  -31.1170 C   0  0  0  0  0  0  0  0  0  0  0  0
   -2.1360   22.0430  -30.6830 N   0  0  0  0  0  0  0  0  0  0  0  0
   -0.8870   21.2790  -30.6870 C   0  0  0  0  0  0  0  0  0  0  0  0
   -0.0863   21.9052  -31.1074 H   0  0  0  0  0  0  0  0  0  0  0  0
   -1.0374   20.3750  -31.2954 H   0  0  0  0  0  0  0  0  0  0  0  0
   -0.4850   20.8410  -29.2570 C   0  0  0  0  0  0  0  0  0  0  0  0
    0.3913   20.1852  -29.3664 H   0  0  0  0  0  0  0  0  0  0  0  0
   -0.0670   22.0360  -28.3760 C   0  0  0  0  0  0  0  0  0  0  0  0
    0.6888   22.6249  -28.9163 H   0  0  0  0  0  0  0  0  0  0  0  0
    0.3315   21.6323  -27.4335 H   0  0  0  0  0  0  0  0  0  0  0  0
   -1.2560   22.9590  -28.0250 C   0  0  0  0  0  0  0  0  0  0  0  0
   -1.2266   23.8369  -28.6872 H   0  0  0  0  0  0  0  0  0  0  0  0
   -1.1540   23.2417  -26.9668 H   0  0  0  0  0  0  0  0  0  0  0  0
   -2.5690   22.2910  -28.1830 N   0  0  0  0  0  0  0  0  0  0  0  0
   -3.6370   23.0750  -27.5270 C   0  0  0  0  0  0  0  0  0  0  0  0
   -3.2035   23.6586  -26.7014 H   0  0  0  0  0  0  0  0  0  0  0  0
   -4.4011   22.3845  -27.1406 H   0  0  0  0  0  0  0  0  0  0  0  0
   -4.2920   24.0310  -28.5330 C   0  0  0  0  0  0  0  0  0  0  0  0
   -4.7373   24.8759  -27.9873 H   0  0  0  0  0  0  0  0  0  0  0  0
   -5.0637   23.4772  -29.0877 H   0  0  0  0  0  0  0  0  0  0  0  0
   -3.2660   24.5690  -29.5360 C   0  0  0  0  0  0  0  0  0  0  0  0
   -2.7733   23.7249  -30.0407 H   0  0  0  0  0  0  0  0  0  0  0  0
   -2.5187   25.1714  -28.9987 H   0  0  0  0  0  0  0  0  0  0  0  0
   -3.9090   25.3810  -30.5010 O   0  0  0  0  0  0  0  0  0  0  0  0
   -5.3100   25.2860  -30.3720 C   0  0  0  0  0  0  0  0  0  0  0  0
   -5.5796   25.2677  -29.3057 H   0  0  0  0  0  0  0  0  0  0  0  0
   -5.7824   26.1542  -30.8548 H   0  0  0  0  0  0  0  0  0  0  0  0
   -5.6609   24.3620  -30.8548 H   0  0  0  0  0  0  0  0  0  0  0  0
   -2.5150   20.9080  -27.6690 C   0  0  0  0  0  0  0  0  0  0  0  0
   -3.5311   20.4870  -27.6519 H   0  0  0  0  0  0  0  0  0  0  0  0
   -2.0955   20.9196  -26.6522 H   0  0  0  0  0  0  0  0  0  0  0  0
   -1.6190   20.0380  -28.5720 C   0  0  0  0  0  0  0  0  0  0  0  0
   -2.2459   19.5821  -29.3524 H   0  0  0  0  0  0  0  0  0  0  0  0
   -1.1439   19.2807  -27.9310 H   0  0  0  0  0  0  0  0  0  0  0  0
   -3.4530   20.3590  -31.6270 N   0  0  0  0  0  0  0  0  0  0  0  0
   -4.7320   20.2920  -31.9480 N   0  0  0  0  0  0  0  0  0  0  0  0
   -5.3130   19.1620  -32.6180 C   0  0  0  0  0  0  0  0  0  0  0  0
   -5.2260   19.0270  -34.0140 C   0  0  0  0  0  0  0  0  0  0  0  0
   -4.7150   19.7994  -34.6076 H   0  0  0  0  0  0  0  0  0  0  0  0
   -5.7850   17.9170  -34.6520 C   0  0  0  0  0  0  0  0  0  0  0  0
   -5.7242   17.8294  -35.7468 H   0  0  0  0  0  0  0  0  0  0  0  0
   -6.4220   16.9150  -33.9100 C   0  0  0  0  0  0  0  0  0  0  0  0
   -6.9690   15.8220  -34.5980 O   0  0  0  0  0  0  0  0  0  0  0  0
   -6.6930   14.4590  -34.2920 C   0  0  0  0  0  0  0  0  0  0  0  0
   -6.6662   14.3265  -33.2003 H   0  0  0  0  0  0  0  0  0  0  0  0
   -7.4801   13.8206  -34.7196 H   0  0  0  0  0  0  0  0  0  0  0  0
   -5.7195   14.1771  -34.7196 H   0  0  0  0  0  0  0  0  0  0  0  0
   -6.4870   17.0360  -32.5090 C   0  0  0  0  0  0  0  0  0  0  0  0
   -6.9782   16.2521  -31.9138 H   0  0  0  0  0  0  0  0  0  0  0  0
   -5.9300   18.1480  -31.8710 C   0  0  0  0  0  0  0  0  0  0  0  0
   -5.9759   18.2284  -30.7749 H   0  0  0  0  0  0  0  0  0  0  0  0
   -7.7060   20.8310  -31.4090 C   0  0  0  0  0  0  0  0  0  0  0  0
   -7.3859   19.8328  -31.0757 H   0  0  0  0  0  0  0  0  0  0  0  0
   -9.0690   21.1240  -31.5190 C   0  0  0  0  0  0  0  0  0  0  0  0
   -9.8176   20.3601  -31.2620 H   0  0  0  0  0  0  0  0  0  0  0  0
  1  2  1  0
  2  3  2  0
  3  4  1  0
  3  5  1  0
  5  6  1  0
  5  7  2  0
  7  8  1  0
  8  9  2  0
  9 10  1  0
 10 11  2  0
 11 12  1  0
 12 13  1  0
 12 14  1  0
 12 15  1  0
 15 16  1  0
 15 17  1  0
 17 18  1  0
 17 19  1  0
 17 20  1  0
 20 21  1  0
 20 22  1  0
 20 23  1  0
 23 24  1  0
 24 25  1  0
 24 26  1  0
 24 27  1  0
 27 28  1  0
 27 29  1  0
 27 30  1  0
 30 31  1  0
 30 32  1  0
 30 33  1  0
 33 34  1  0
 34 35  1  0
 34 36  1  0
 34 37  1  0
 23 38  1  0
 38 39  1  0
 38 40  1  0
 38 41  1  0
 41 42  1  0
 41 43  1  0
 10 44  1  0
 44 45  1  0
 45 46  1  0
 46 47  2  0
 47 48  1  0
 47 49  1  0
 49 50  1  0
 49 51  2  0
 51 52  1  0
 52 53  1  0
 53 54  1  0
 53 55  1  0
 53 56  1  0
 51 57  1  0
 57 58  1  0
 57 59  2  0
 59 60  1  0
  7 61  1  0
 61 62  1  0
 61 63  2  0
 63 64  1  0
 63  2  1  0
 45  8  1  0
 59 46  1  0
 41 15  1  0
M  CHG  1  44  -1
M  END
>  <UniqueID>  (17) 
17

>  <SMILES>  (17) 
COCCCN1CCC(C/N=c2/nc(-c3ccccc3)n(-c3ccc(OC)cc3)[n-]2)CC1

>  <Energy>  (17) 
112.34065827663598

>  <Genealogy>  (17) 
COCCCN1CCC(CN=c2nc(-c3ccccc3)n(-c3ccc(OC)cc3)[n-]2)CC1 (protonated)
COCCCN1CCC(C/N=c2/nc(-c3ccccc3)n(-c3ccc(OC)cc3)[n-]2)CC1 (cis-trans isomerization)
COCCCN1CCC(C/N=c2/nc(-c3ccccc3)n(-c3ccc(OC)cc3)[n-]2)CC1 (3D coordinates assigned)
COCCCN1CCC(C/N=c2/nc(-c3ccccc3)n(-c3ccc(OC)cc3)[n-]2)CC1 (nonaromatic ring conformer: 112.34065827663598 kcal/mol)

>  <smiles>  (17) 
COCCCN1CCC(CN=c2nc(-c3ccccc3)n(-c3ccc(OC)cc3)[nH]2)CC1

>  <score_type>  (17) 
oracle

>  <origin>  (17) 
adg

>  <m_score__min__energy>  (17) 
-9.3300000000000001

>  <m_primary>  (17) 
energy

$$$$
17:0
     RDKit          3D

 58 62  0  0  0  0  0  0  0  0999 V2000
   -3.0180   14.2550  -32.8630 C   0  0  0  0  0  0  0  0  0  0  0  0
   -3.5010   14.0600  -34.3110 C   0  0  2  0  0  0  0  0  0  0  0  0
   -3.0080   12.7010  -34.8430 C   0  0  0  0  0  0  0  0  0  0  0  0
   -3.3110   12.5550  -36.2160 O   0  0  0  0  0  0  0  0  0  0  0  0
   -2.5720   13.4980  -36.9660 C   0  0  0  0  0  0  0  0  0  0  0  0
   -3.0380   14.9190  -36.6490 C   0  0  0  0  0  0  0  0  0  0  0  0
   -3.0360   15.1410  -35.2000 N   0  0  0  0  0  0  0  0  0  0  0  0
   -2.9230   16.4950  -34.7280 C   0  0  0  0  0  0  0  0  0  0  0  0
   -1.6940   17.0830  -34.7050 N   0  0  0  0  0  0  0  0  0  0  0  0
   -1.5240   18.3670  -34.2660 C   0  0  0  0  0  0  0  0  0  0  0  0
   -0.2090   18.9700  -34.2190 N   0  0  0  0  0  0  0  0  0  0  0  0
    0.6230   18.9450  -35.4270 C   0  0  0  0  0  0  0  0  0  0  0  0
    0.3230   20.1650  -36.3030 C   0  0  0  0  0  0  0  0  0  0  0  0
    0.9670   21.4370  -35.7380 C   0  0  0  0  0  0  0  0  0  0  0  0
    0.2360   21.8800  -34.6150 O   0  0  0  0  0  0  0  0  0  0  0  0
    0.6270   21.2700  -33.3890 C   0  0  0  0  0  0  0  0  0  0  0  0
    0.1410   19.8230  -33.0640 C   0  0  0  0  0  0  0  0  0  0  0  0
   -2.6080   19.0780  -33.8560 N   0  0  0  0  0  0  0  0  0  0  0  0
   -3.8540   18.5440  -33.8610 C   0  0  0  0  0  0  0  0  0  0  0  0
   -4.9100   19.2890  -33.4410 N   0  0  0  0  0  0  0  0  0  0  0  0
   -6.1810   18.8010  -33.4240 C   0  0  0  0  0  0  0  0  0  0  0  0
   -7.2810   19.6720  -32.9600 C   0  0  0  0  0  0  0  0  0  0  0  0
   -8.6030   19.3360  -32.7160 C   0  0  0  0  0  0  0  0  0  0  0  0
   -9.2700   20.4300  -32.2950 N   0  0  0  0  0  0  0  0  0  0  0  0
   -8.4140   21.4390  -32.2820 N   0  0  0  0  0  0  0  0  0  0  0  0
   -8.7460   22.7790  -31.8190 C   0  0  0  0  0  0  0  0  0  0  0  0
   -7.1950   21.0180  -32.6660 C   0  0  0  0  0  0  0  0  0  0  0  0
   -6.4170   17.4830  -33.8490 C   0  0  0  0  0  0  0  0  0  0  0  0
   -5.3500   16.6960  -34.2840 C   0  0  0  0  0  0  0  0  0  0  0  0
   -4.0490   17.2220  -34.2970 C   0  0  0  0  0  0  0  0  0  0  0  0
   -3.8078   13.9361  -32.1669 H   0  0  0  0  0  0  0  0  0  0  0  0
   -2.1142   13.6513  -32.6935 H   0  0  0  0  0  0  0  0  0  0  0  0
   -2.7867   15.3170  -32.6935 H   0  0  0  0  0  0  0  0  0  0  0  0
   -4.6007   14.0861  -34.3027 H   0  0  0  0  0  0  0  0  0  0  0  0
   -1.9186   12.6347  -34.7059 H   0  0  0  0  0  0  0  0  0  0  0  0
   -3.5158   11.9007  -34.2847 H   0  0  0  0  0  0  0  0  0  0  0  0
   -1.5050   13.4029  -36.7161 H   0  0  0  0  0  0  0  0  0  0  0  0
   -2.7300   13.3028  -38.0369 H   0  0  0  0  0  0  0  0  0  0  0  0
   -2.3587   15.6395  -37.1279 H   0  0  0  0  0  0  0  0  0  0  0  0
   -4.0603   15.0552  -37.0316 H   0  0  0  0  0  0  0  0  0  0  0  0
   -0.8800   16.5270  -35.0450 H   0  0  0  0  0  0  0  0  0  0  0  0
    1.6841   18.9581  -35.1374 H   0  0  0  0  0  0  0  0  0  0  0  0
    0.3998   18.0310  -35.9970 H   0  0  0  0  0  0  0  0  0  0  0  0
    0.7168   19.9842  -37.3140 H   0  0  0  0  0  0  0  0  0  0  0  0
   -0.7668   20.3122  -36.3268 H   0  0  0  0  0  0  0  0  0  0  0  0
    2.0030   21.2205  -35.4381 H   0  0  0  0  0  0  0  0  0  0  0  0
    0.9627   22.2216  -36.5089 H   0  0  0  0  0  0  0  0  0  0  0  0
    1.7267   21.2486  -33.3782 H   0  0  0  0  0  0  0  0  0  0  0  0
    0.1342   21.8872  -32.6234 H   0  0  0  0  0  0  0  0  0  0  0  0
    0.9438   19.3181  -32.5067 H   0  0  0  0  0  0  0  0  0  0  0  0
   -0.7957   19.9500  -32.5014 H   0  0  0  0  0  0  0  0  0  0  0  0
   -9.0397   18.3347  -32.8453 H   0  0  0  0  0  0  0  0  0  0  0  0
   -8.7503   22.7963  -30.7191 H   0  0  0  0  0  0  0  0  0  0  0  0
   -7.9975   23.4925  -32.1940 H   0  0  0  0  0  0  0  0  0  0  0  0
   -9.7410   23.0605  -32.1940 H   0  0  0  0  0  0  0  0  0  0  0  0
   -6.2888   21.6378  -32.7338 H   0  0  0  0  0  0  0  0  0  0  0  0
   -7.4378   17.0734  -33.8389 H   0  0  0  0  0  0  0  0  0  0  0  0
   -5.5287   15.6629  -34.6169 H   0  0  0  0  0  0  0  0  0  0  0  0
  1  2  1  0
  2  3  1  0
  3  4  1  0
  4  5  1  0
  5  6  1  0
  6  7  1  0
  7  8  1  0
  8  9  2  0
  9 10  1  0
 10 11  1  0
 11 12  1  0
 12 13  1  0
 13 14  1  0
 14 15  1  0
 15 16  1  0
 16 17  1  0
 10 18  2  0
 18 19  1  0
 19 20  2  0
 20 21  1  0
 21 22  1  0
 22 23  1  0
 23 24  2  0
 24 25  1  0
 25 26  1  0
 25 27  1  0
 21 28  2  0
 28 29  1  0
 29 30  2  0
  7  2  1  0
 30  8  1  0
 17 11  1  0
 30 19  1  0
 27 22  2  0
  1 31  1  0
  1 32  1  0
  1 33  1  0
  2 34  1  1
  3 35  1  0
  3 36  1  0
  5 37  1  0
  5 38  1  0
  6 39  1  0
  6 40  1  0
  9 41  1  0
 12 42  1  0
 12 43  1  0
 13 44  1  0
 13 45  1  0
 14 46  1  0
 14 47  1  0
 16 48  1  0
 16 49  1  0
 17 50  1  0
 17 51  1  0
 23 52  1  0
 26 53  1  0
 26 54  1  0
 26 55  1  0
 27 56  1  0
 28 57  1  0
 29 58  1  0
M  CHG  1   9   1
M  END
>  <UniqueID>  (18) 
18

>  <SMILES>  (18) 
C[C@@H]1COCCN1c1[nH+]c(N2CCCOCC2)nc2nc(-c3cnn(C)c3)ccc12

>  <Energy>  (18) 
117.96302827900989

>  <Genealogy>  (18) 
CC1COCCN1c1[nH+]c(N2CCCOCC2)nc2nc(-c3cnn(C)c3)ccc12 (protonated)
C[C@@H]1COCCN1c1[nH+]c(N2CCCOCC2)nc2nc(-c3cnn(C)c3)ccc12 (chirality)
C[C@@H]1COCCN1c1[nH+]c(N2CCCOCC2)nc2nc(-c3cnn(C)c3)ccc12 (3D coordinates assigned)
C[C@@H]1COCCN1c1[nH+]c(N2CCCOCC2)nc2nc(-c3cnn(C)c3)ccc12 (nonaromatic ring conformer: 117.96302827900989 kcal/mol)

>  <smiles>  (18) 
CC1COCCN1c1nc(N2CCCOCC2)nc2nc(-c3cnn(C)c3)ccc12

>  <score_type>  (18) 
oracle

>  <origin>  (18) 
adg

>  <m_score__min__energy>  (18) 
-5.7999999999999998

>  <m_primary>  (18) 
energy

$$$$
18:0
     RDKit          3D

 74 76  0  0  0  0  0  0  0  0999 V2000
   -2.4730   24.9140  -27.3620 C   0  0  0  0  0  0  0  0  0  0  0  0
   -2.1470   24.6440  -28.7900 C   0  0  0  0  0  0  0  0  0  0  0  0
   -0.9990   24.2220  -29.1020 O   0  0  0  0  0  0  0  0  0  0  0  0
   -3.1030   24.9060  -29.7750 O   0  0  0  0  0  0  0  0  0  0  0  0
   -4.4550   24.4700  -29.6680 C   0  0  0  0  0  0  0  0  0  0  0  0
   -4.5770   22.9930  -30.0630 C   0  0  0  0  0  0  0  0  0  0  0  0
   -3.2680   22.3380  -30.3440 N   0  0  2  0  0  0  0  0  0  0  0  0
   -2.8800   22.3780  -31.7810 C   0  0  0  0  0  0  0  0  0  0  0  0
   -3.2540   21.1110  -32.5810 C   0  0  0  0  0  0  0  0  0  0  0  0
   -4.4790   21.3230  -33.3550 N   0  0  0  0  0  0  0  0  0  0  0  0
   -5.6840   20.5820  -33.0960 C   0  0  0  0  0  0  0  0  0  0  0  0
   -6.8140   21.2180  -32.5560 C   0  0  0  0  0  0  0  0  0  0  0  0
   -6.8530   22.6210  -32.4120 C   0  0  0  0  0  0  0  0  0  0  0  0
   -7.9880   23.2510  -31.9080 C   0  0  0  0  0  0  0  0  0  0  0  0
   -9.1060   22.5010  -31.5590 C   0  0  0  0  0  0  0  0  0  0  0  0
   -9.0940   21.1140  -31.7030 C   0  0  0  0  0  0  0  0  0  0  0  0
   -7.9420   20.4390  -32.1810 C   0  0  0  0  0  0  0  0  0  0  0  0
   -7.9050   19.0620  -32.3060 N   0  0  0  0  0  0  0  0  0  0  0  0
   -8.9350   18.2300  -31.6450 C   0  0  0  0  0  0  0  0  0  0  0  0
   -6.8900   18.4610  -33.0260 C   0  0  0  0  0  0  0  0  0  0  0  0
   -6.9550   17.0980  -33.4150 C   0  0  0  0  0  0  0  0  0  0  0  0
   -5.8960   16.4920  -34.0900 C   0  0  0  0  0  0  0  0  0  0  0  0
   -4.7550   17.2220  -34.4040 C   0  0  0  0  0  0  0  0  0  0  0  0
   -4.6780   18.5710  -34.0680 C   0  0  0  0  0  0  0  0  0  0  0  0
   -5.7450   19.2110  -33.4020 C   0  0  0  0  0  0  0  0  0  0  0  0
   -3.2490   20.9410  -29.8160 C   0  0  0  0  0  0  0  0  0  0  0  0
   -2.7290   20.8560  -28.3680 C   0  0  0  0  0  0  0  0  0  0  0  0
   -1.8680   19.7490  -28.1860 O   0  0  0  0  0  0  0  0  0  0  0  0
   -0.8590   20.0270  -27.2320 C   0  0  0  0  0  0  0  0  0  0  0  0
   -1.2010   21.2920  -26.4420 C   0  0  0  0  0  0  0  0  0  0  0  0
   -0.2020   22.2790  -26.6240 O   0  0  0  0  0  0  0  0  0  0  0  0
   -0.1670   23.1890  -25.5390 C   0  0  0  0  0  0  0  0  0  0  0  0
    1.0950   24.0640  -25.5840 C   0  0  0  0  0  0  0  0  0  0  0  0
    1.0220   25.1530  -26.6580 C   0  0  0  0  0  0  0  0  0  0  0  0
    1.2200   24.5940  -27.9280 O   0  0  0  0  0  0  0  0  0  0  0  0
   -1.7875   24.3462  -26.7157 H   0  0  0  0  0  0  0  0  0  0  0  0
   -2.3633   25.9893  -27.1578 H   0  0  0  0  0  0  0  0  0  0  0  0
   -3.5090   24.6059  -27.1578 H   0  0  0  0  0  0  0  0  0  0  0  0
   -4.7947   24.5960  -28.6294 H   0  0  0  0  0  0  0  0  0  0  0  0
   -5.0772   25.0719  -30.3467 H   0  0  0  0  0  0  0  0  0  0  0  0
   -5.0661   22.4524  -29.2392 H   0  0  0  0  0  0  0  0  0  0  0  0
   -5.1613   22.9564  -30.9943 H   0  0  0  0  0  0  0  0  0  0  0  0
   -2.5310   22.8860  -29.8420 H   0  0  0  0  0  0  0  0  0  0  0  0
   -3.3801   23.2393  -32.2480 H   0  0  0  0  0  0  0  0  0  0  0  0
   -1.7828   22.4517  -31.8068 H   0  0  0  0  0  0  0  0  0  0  0  0
   -2.4319   20.8639  -33.2688 H   0  0  0  0  0  0  0  0  0  0  0  0
   -3.4244   20.2865  -31.8731 H   0  0  0  0  0  0  0  0  0  0  0  0
   -4.4460   21.9520  -34.1900 H   0  0  0  0  0  0  0  0  0  0  0  0
   -5.9786   23.2228  -32.7006 H   0  0  0  0  0  0  0  0  0  0  0  0
   -8.0003   24.3441  -31.7857 H   0  0  0  0  0  0  0  0  0  0  0  0
  -10.0029   23.0037  -31.1680 H   0  0  0  0  0  0  0  0  0  0  0  0
   -9.9918   20.5346  -31.4418 H   0  0  0  0  0  0  0  0  0  0  0  0
   -8.8299   18.3149  -30.5533 H   0  0  0  0  0  0  0  0  0  0  0  0
   -9.9347   18.5770  -31.9452 H   0  0  0  0  0  0  0  0  0  0  0  0
   -8.8060   17.1796  -31.9452 H   0  0  0  0  0  0  0  0  0  0  0  0
   -7.8548   16.5103  -33.1804 H   0  0  0  0  0  0  0  0  0  0  0  0
   -5.9635   15.4318  -34.3753 H   0  0  0  0  0  0  0  0  0  0  0  0
   -3.9136   16.7340  -34.9176 H   0  0  0  0  0  0  0  0  0  0  0  0
   -3.7751   19.1445  -34.3246 H   0  0  0  0  0  0  0  0  0  0  0  0
   -4.2730   20.5403  -29.8456 H   0  0  0  0  0  0  0  0  0  0  0  0
   -2.5636   20.3576  -30.4484 H   0  0  0  0  0  0  0  0  0  0  0  0
   -2.1783   21.7786  -28.1322 H   0  0  0  0  0  0  0  0  0  0  0  0
   -3.5938   20.7316  -27.6997 H   0  0  0  0  0  0  0  0  0  0  0  0
   -0.7742   19.1784  -26.5373 H   0  0  0  0  0  0  0  0  0  0  0  0
    0.0942   20.1835  -27.7583 H   0  0  0  0  0  0  0  0  0  0  0  0
   -2.1666   21.6863  -26.7914 H   0  0  0  0  0  0  0  0  0  0  0  0
   -1.2578   21.0380  -25.3732 H   0  0  0  0  0  0  0  0  0  0  0  0
   -1.0543   23.8374  -25.5865 H   0  0  0  0  0  0  0  0  0  0  0  0
   -0.1559   22.6120  -24.6025 H   0  0  0  0  0  0  0  0  0  0  0  0
    1.2246   24.5452  -24.6034 H   0  0  0  0  0  0  0  0  0  0  0  0
    1.9438   23.4098  -25.8319 H   0  0  0  0  0  0  0  0  0  0  0  0
    0.0328   25.6328  -26.6224 H   0  0  0  0  0  0  0  0  0  0  0  0
    1.8080   25.8986  -26.4674 H   0  0  0  0  0  0  0  0  0  0  0  0
    0.7310   23.7300  -27.9280 H   0  0  0  0  0  0  0  0  0  0  0  0
  1  2  1  0
  2  3  2  0
  2  4  1  0
  4  5  1  0
  5  6  1  0
  6  7  1  0
  7  8  1  0
  8  9  1  0
  9 10  1  0
 10 11  1  0
 11 12  2  0
 12 13  1  0
 13 14  2  0
 14 15  1  0
 15 16  2  0
 16 17  1  0
 17 18  2  0
 18 19  1  0
 18 20  1  0
 20 21  2  0
 21 22  1  0
 22 23  2  0
 23 24  1  0
 24 25  2  0
  7 26  1  0
 26 27  1  0
 27 28  1  0
 28 29  1  0
 29 30  1  0
 30 31  1  0
 31 32  1  0
 32 33  1  0
 33 34  1  0
 34 35  1  0
 25 11  1  0
 17 12  1  0
 25 20  1  0
  1 36  1  0
  1 37  1  0
  1 38  1  0
  5 39  1  0
  5 40  1  0
  6 41  1  0
  6 42  1  0
  7 43  1  1
  8 44  1  0
  8 45  1  0
  9 46  1  0
  9 47  1  0
 10 48  1  0
 13 49  1  0
 14 50  1  0
 15 51  1  0
 16 52  1  0
 19 53  1  0
 19 54  1  0
 19 55  1  0
 21 56  1  0
 22 57  1  0
 23 58  1  0
 24 59  1  0
 26 60  1  0
 26 61  1  0
 27 62  1  0
 27 63  1  0
 29 64  1  0
 29 65  1  0
 30 66  1  0
 30 67  1  0
 32 68  1  0
 32 69  1  0
 33 70  1  0
 33 71  1  0
 34 72  1  0
 34 73  1  0
 35 74  1  0
M  CHG  2   7   1  18   1
M  END
>  <UniqueID>  (19) 
19

>  <SMILES>  (19) 
CC(=O)OCC[N@H+](CCNc1c2ccccc2[n+](C)c2ccccc12)CCOCCOCCCO

>  <Energy>  (19) 
101.8921685001149

>  <Genealogy>  (19) 
CC(=O)OCC[NH+](CCNc1c2ccccc2[n+](C)c2ccccc12)CCOCCOCCCO (protonated)
CC(=O)OCC[N@H+](CCNc1c2ccccc2[n+](C)c2ccccc12)CCOCCOCCCO (chirality)
CC(=O)OCC[N@H+](CCNc1c2ccccc2[n+](C)c2ccccc12)CCOCCOCCCO (3D coordinates assigned)
CC(=O)OCC[N@H+](CCNc1c2ccccc2[n+](C)c2ccccc12)CCOCCOCCCO (optimized conformer: 101.8921685001149 kcal/mol)

>  <smiles>  (19) 
CC(=O)OCCN(CCNc1c2ccccc2[n+](C)c2ccccc12)CCOCCOCCCO

>  <score_type>  (19) 
oracle

>  <origin>  (19) 
adg

>  <m_score__min__energy>  (19) 
-7.5899999999999999

>  <m_primary>  (19) 
energy

$$$$
19:0
     RDKit          3D

 31 34  0  0  0  0  0  0  0  0999 V2000
   -3.9160   25.6520  -30.8450 N   0  0  0  0  0  0  0  0  0  0  0  0
   -4.9490   24.6640  -30.8680 C   0  0  0  0  0  0  0  0  0  0  0  0
   -6.1820   24.9200  -30.2470 C   0  0  0  0  0  0  0  0  0  0  0  0
   -7.1960   23.9570  -30.2660 C   0  0  0  0  0  0  0  0  0  0  0  0
   -6.9850   22.7280  -30.9070 C   0  0  0  0  0  0  0  0  0  0  0  0
   -7.9830   21.7460  -30.9400 C   0  0  0  0  0  0  0  0  0  0  0  0
   -7.7430   20.5270  -31.5890 C   0  0  0  0  0  0  0  0  0  0  0  0
   -8.7320   19.5340  -31.6310 C   0  0  0  0  0  0  0  0  0  0  0  0
   -8.4850   18.3240  -32.2790 C   0  0  0  0  0  0  0  0  0  0  0  0
   -7.2470   18.0850  -32.8930 C   0  0  0  0  0  0  0  0  0  0  0  0
   -7.0050   16.8640  -33.5430 C   0  0  0  0  0  0  0  0  0  0  0  0
   -5.7730   16.6240  -34.1550 C   0  0  0  0  0  0  0  0  0  0  0  0
   -4.7740   17.5980  -34.1250 C   0  0  0  0  0  0  0  0  0  0  0  0
   -4.9990   18.8190  -33.4830 C   0  0  0  0  0  0  0  0  0  0  0  0
   -6.2350   19.0790  -32.8590 C   0  0  0  0  0  0  0  0  0  0  0  0
   -6.4880   20.3040  -32.2030 C   0  0  0  0  0  0  0  0  0  0  0  0
   -5.5370   21.2780  -32.1540 N   0  0  0  0  0  0  0  0  0  0  0  0
   -5.7470   22.4670  -31.5310 C   0  0  0  0  0  0  0  0  0  0  0  0
   -4.7360   23.4360  -31.5090 C   0  0  0  0  0  0  0  0  0  0  0  0
   -3.8660   26.3560  -30.0760 H   0  0  0  0  0  0  0  0  0  0  0  0
   -3.1940   25.6870  -31.5990 H   0  0  0  0  0  0  0  0  0  0  0  0
   -6.3513   25.8830  -29.7429 H   0  0  0  0  0  0  0  0  0  0  0  0
   -8.1597   24.1639  -29.7777 H   0  0  0  0  0  0  0  0  0  0  0  0
   -8.9539   21.9311  -30.4572 H   0  0  0  0  0  0  0  0  0  0  0  0
   -9.7061   19.7099  -31.1512 H   0  0  0  0  0  0  0  0  0  0  0  0
   -9.2672   17.5512  -32.3087 H   0  0  0  0  0  0  0  0  0  0  0  0
   -7.7893   16.0932  -33.5702 H   0  0  0  0  0  0  0  0  0  0  0  0
   -5.5895   15.6651  -34.6618 H   0  0  0  0  0  0  0  0  0  0  0  0
   -3.8053   17.4040  -34.6087 H   0  0  0  0  0  0  0  0  0  0  0  0
   -4.2063   19.5814  -33.4649 H   0  0  0  0  0  0  0  0  0  0  0  0
   -3.7712   23.2325  -31.9966 H   0  0  0  0  0  0  0  0  0  0  0  0
  1  2  1  0
  2  3  2  0
  3  4  1  0
  4  5  2  0
  5  6  1  0
  6  7  2  0
  7  8  1  0
  8  9  2  0
  9 10  1  0
 10 11  2  0
 11 12  1  0
 12 13  2  0
 13 14  1  0
 14 15  2  0
 15 16  1  0
 16 17  2  0
 17 18  1  0
 18 19  2  0
 19  2  1  0
 18  5  1  0
 16  7  1  0
 15 10  1  0
  1 20  1  0
  1 21  1  0
  3 22  1  0
  4 23  1  0
  6 24  1  0
  8 25  1  0
  9 26  1  0
 11 27  1  0
 12 28  1  0
 13 29  1  0
 14 30  1  0
 19 31  1  0
M  END
>  <UniqueID>  (20) 
20

>  <SMILES>  (20) 
Nc1ccc2cc3ccc4ccccc4c3nc2c1

>  <Energy>  (20) 
44.80661962910366

>  <Genealogy>  (20) 
Nc1ccc2cc3ccc4ccccc4c3nc2c1 (3D coordinates assigned)
Nc1ccc2cc3ccc4ccccc4c3nc2c1 (optimized conformer: 44.80661962910366 kcal/mol)

>  <smiles>  (20) 
Nc1ccc2cc3ccc4ccccc4c3nc2c1

>  <score_type>  (20) 
oracle

>  <origin>  (20) 
adg

>  <m_score__min__energy>  (20) 
-9.5099999999999998

>  <m_primary>  (20) 
energy

$$$$
20:0
     RDKit          3D

 37 38  0  0  0  0  0  0  0  0999 V2000
   -6.8550   24.8930  -30.0880 C   0  0  0  0  0  0  0  0  0  0  0  0
   -5.5850   25.6030  -30.5300 C   0  0  0  0  0  0  0  0  0  0  0  0
   -4.6010   24.6370  -30.8910 O   0  0  0  0  0  0  0  0  0  0  0  0
   -4.0730   23.6680  -30.0210 C   0  0  0  0  0  0  0  0  0  0  0  0
   -4.1490   23.8140  -28.6210 C   0  0  0  0  0  0  0  0  0  0  0  0
   -3.5800   22.8590  -27.7770 C   0  0  0  0  0  0  0  0  0  0  0  0
   -2.9240   21.7520  -28.3150 C   0  0  0  0  0  0  0  0  0  0  0  0
   -2.8500   21.5860  -29.6980 C   0  0  0  0  0  0  0  0  0  0  0  0
   -3.4380   22.5270  -30.5620 C   0  0  0  0  0  0  0  0  0  0  0  0
   -3.3760   22.2990  -32.0610 C   0  0  0  0  0  0  0  0  0  0  0  0
   -4.7020   22.3710  -32.7070 N   0  0  0  0  0  0  0  0  0  0  0  0
   -5.3710   21.0650  -32.8610 C   0  0  0  0  0  0  0  0  0  0  0  0
   -6.8250   21.1100  -32.4670 C   0  0  0  0  0  0  0  0  0  0  0  0
   -7.6570   19.9990  -32.6750 C   0  0  0  0  0  0  0  0  0  0  0  0
   -9.0090   20.0840  -32.3370 C   0  0  0  0  0  0  0  0  0  0  0  0
   -9.5180   21.2660  -31.7970 C   0  0  0  0  0  0  0  0  0  0  0  0
   -8.6630   22.3540  -31.6090 C   0  0  0  0  0  0  0  0  0  0  0  0
   -7.3500   22.2560  -31.9510 N   0  0  0  0  0  0  0  0  0  0  0  0
   -6.8981   24.8689  -28.9891 H   0  0  0  0  0  0  0  0  0  0  0  0
   -7.7311   25.4322  -30.4776 H   0  0  0  0  0  0  0  0  0  0  0  0
   -6.8545   23.8643  -30.4776 H   0  0  0  0  0  0  0  0  0  0  0  0
   -5.8057   26.2431  -31.3970 H   0  0  0  0  0  0  0  0  0  0  0  0
   -5.2049   26.2221  -29.7040 H   0  0  0  0  0  0  0  0  0  0  0  0
   -4.6607   24.6873  -28.1904 H   0  0  0  0  0  0  0  0  0  0  0  0
   -3.6491   22.9796  -26.6858 H   0  0  0  0  0  0  0  0  0  0  0  0
   -2.4641   21.0084  -27.6474 H   0  0  0  0  0  0  0  0  0  0  0  0
   -2.3279   20.7126  -30.1159 H   0  0  0  0  0  0  0  0  0  0  0  0
   -2.7261   23.0666  -32.5065 H   0  0  0  0  0  0  0  0  0  0  0  0
   -2.9826   21.2850  -32.2254 H   0  0  0  0  0  0  0  0  0  0  0  0
   -4.6030   22.8070  -33.6530 H   0  0  0  0  0  0  0  0  0  0  0  0
   -5.3130   23.0070  -32.1420 H   0  0  0  0  0  0  0  0  0  0  0  0
   -5.3005   20.7548  -33.9140 H   0  0  0  0  0  0  0  0  0  0  0  0
   -4.8664   20.3508  -32.1937 H   0  0  0  0  0  0  0  0  0  0  0  0
   -7.2480   19.0705  -33.1001 H   0  0  0  0  0  0  0  0  0  0  0  0
   -9.6719   19.2207  -32.4961 H   0  0  0  0  0  0  0  0  0  0  0  0
  -10.5807   21.3398  -31.5226 H   0  0  0  0  0  0  0  0  0  0  0  0
   -9.0516   23.2912  -31.1839 H   0  0  0  0  0  0  0  0  0  0  0  0
  1  2  1  0
  2  3  1  0
  3  4  1  0
  4  5  2  0
  5  6  1  0
  6  7  2  0
  7  8  1  0
  8  9  2  0
  9 10  1  0
 10 11  1  0
 11 12  1  0
 12 13  1  0
 13 14  2  0
 14 15  1  0
 15 16  2  0
 16 17  1  0
 17 18  2  0
  9  4  1  0
 18 13  1  0
  1 19  1  0
  1 20  1  0
  1 21  1  0
  2 22  1  0
  2 23  1  0
  5 24  1  0
  6 25  1  0
  7 26  1  0
  8 27  1  0
 10 28  1  0
 10 29  1  0
 11 30  1  0
 11 31  1  0
 12 32  1  0
 12 33  1  0
 14 34  1  0
 15 35  1  0
 16 36  1  0
 17 37  1  0
M  CHG  1  11   1
M  END
>  <UniqueID>  (21) 
21

>  <SMILES>  (21) 
CCOc1ccccc1C[NH2+]Cc1ccccn1

>  <Energy>  (21) 
34.08641513448839

>  <Genealogy>  (21) 
CCOc1ccccc1C[NH2+]Cc1ccccn1 (protonated)
CCOc1ccccc1C[NH2+]Cc1ccccn1 (3D coordinates assigned)
CCOc1ccccc1C[NH2+]Cc1ccccn1 (optimized conformer: 34.08641513448839 kcal/mol)

>  <smiles>  (21) 
CCOc1ccccc1CNCc1ccccn1

>  <score_type>  (21) 
oracle

>  <origin>  (21) 
adg

>  <m_score__min__energy>  (21) 
-5.8899999999999997

>  <m_primary>  (21) 
energy

$$$$
21:0
     RDKit          3D

 46 48  0  0  0  0  0  0  0  0999 V2000
   -6.8780   24.8520  -29.9380 C   0  0  0  0  0  0  0  0  0  0  0  0
   -6.8440   24.2770  -31.2410 O   0  0  0  0  0  0  0  0  0  0  0  0
   -7.1300   22.9330  -31.5310 C   0  0  0  0  0  0  0  0  0  0  0  0
   -8.4290   22.4090  -31.3720 C   0  0  0  0  0  0  0  0  0  0  0  0
   -8.7030   21.0780  -31.6870 C   0  0  0  0  0  0  0  0  0  0  0  0
   -7.6910   20.2530  -32.1690 C   0  0  0  0  0  0  0  0  0  0  0  0
   -6.3980   20.7510  -32.3290 C   0  0  0  0  0  0  0  0  0  0  0  0
   -6.0920   22.0880  -31.9980 C   0  0  0  0  0  0  0  0  0  0  0  0
   -4.6830   22.6350  -32.2150 C   0  0  2  0  0  0  0  0  0  0  0  0
   -3.8540   21.6850  -33.1040 C   0  0  0  0  0  0  0  0  0  0  0  0
   -2.5020   21.4740  -32.5370 N   0  0  0  0  0  0  0  0  0  0  0  0
   -1.4980   21.1910  -33.5780 C   0  0  0  0  0  0  0  0  0  0  0  0
   -0.0990   21.0590  -32.9400 C   0  0  0  0  0  0  0  0  0  0  0  0
   -0.1500   21.0740  -31.5240 O   0  0  0  0  0  0  0  0  0  0  0  0
   -1.0550   20.0880  -31.0680 C   0  0  0  0  0  0  0  0  0  0  0  0
   -2.4950   20.4020  -31.5220 C   0  0  0  0  0  0  0  0  0  0  0  0
   -4.0000   22.9050  -30.9420 N   0  0  0  0  0  0  0  0  0  0  0  0
   -3.7850   24.2410  -30.4570 C   0  0  0  0  0  0  0  0  0  0  0  0
   -4.2610   25.2280  -31.0810 O   0  0  0  0  0  0  0  0  0  0  0  0
   -3.0040   24.4650  -29.2320 C   0  0  0  0  0  0  0  0  0  0  0  0
   -3.1950   23.8300  -28.0210 C   0  0  0  0  0  0  0  0  0  0  0  0
   -2.2450   24.3560  -27.1720 C   0  0  0  0  0  0  0  0  0  0  0  0
   -1.5340   25.2760  -27.9160 C   0  0  0  0  0  0  0  0  0  0  0  0
   -2.0100   25.3190  -29.1390 O   0  0  0  0  0  0  0  0  0  0  0  0
   -6.8308   24.0531  -29.1833 H   0  0  0  0  0  0  0  0  0  0  0  0
   -6.0182   25.5265  -29.8123 H   0  0  0  0  0  0  0  0  0  0  0  0
   -7.8113   25.4204  -29.8123 H   0  0  0  0  0  0  0  0  0  0  0  0
   -9.2348   23.0563  -30.9957 H   0  0  0  0  0  0  0  0  0  0  0  0
   -9.7199   20.6801  -31.5543 H   0  0  0  0  0  0  0  0  0  0  0  0
   -7.9114   19.2060  -32.4243 H   0  0  0  0  0  0  0  0  0  0  0  0
   -5.6069   20.0931  -32.7181 H   0  0  0  0  0  0  0  0  0  0  0  0
   -4.7795   23.5965  -32.7406 H   0  0  0  0  0  0  0  0  0  0  0  0
   -4.3700   20.7161  -33.1744 H   0  0  0  0  0  0  0  0  0  0  0  0
   -3.7497   22.1387  -34.1006 H   0  0  0  0  0  0  0  0  0  0  0  0
   -1.7563   20.2508  -34.0872 H   0  0  0  0  0  0  0  0  0  0  0  0
   -1.4874   22.0176  -34.3037 H   0  0  0  0  0  0  0  0  0  0  0  0
    0.3511   20.1103  -33.2677 H   0  0  0  0  0  0  0  0  0  0  0  0
    0.5014   21.9218  -33.2642 H   0  0  0  0  0  0  0  0  0  0  0  0
   -0.7556   19.1105  -31.4741 H   0  0  0  0  0  0  0  0  0  0  0  0
   -1.0310   20.0742  -29.9683 H   0  0  0  0  0  0  0  0  0  0  0  0
   -2.9435   19.4946  -31.9526 H   0  0  0  0  0  0  0  0  0  0  0  0
   -3.0746   20.7382  -30.6496 H   0  0  0  0  0  0  0  0  0  0  0  0
   -3.6880   22.1140  -30.3360 H   0  0  0  0  0  0  0  0  0  0  0  0
   -3.9481   23.0642  -27.7833 H   0  0  0  0  0  0  0  0  0  0  0  0
   -2.0857   24.0953  -26.1153 H   0  0  0  0  0  0  0  0  0  0  0  0
   -0.6956   25.8814  -27.5411 H   0  0  0  0  0  0  0  0  0  0  0  0
  1  2  1  0
  2  3  1  0
  3  4  2  0
  4  5  1  0
  5  6  2  0
  6  7  1  0
  7  8  2  0
  8  9  1  0
  9 10  1  0
 10 11  1  0
 11 12  1  0
 12 13  1  0
 13 14  1  0
 14 15  1  0
 15 16  1  0
  9 17  1  0
 17 18  1  0
 18 19  2  0
 18 20  1  0
 20 21  2  0
 21 22  1  0
 22 23  2  0
 23 24  1  0
  8  3  1  0
 16 11  1  0
 24 20  1  0
  1 25  1  0
  1 26  1  0
  1 27  1  0
  4 28  1  0
  5 29  1  0
  6 30  1  0
  7 31  1  0
  9 32  1  6
 10 33  1  0
 10 34  1  0
 12 35  1  0
 12 36  1  0
 13 37  1  0
 13 38  1  0
 15 39  1  0
 15 40  1  0
 16 41  1  0
 16 42  1  0
 17 43  1  0
 21 44  1  0
 22 45  1  0
 23 46  1  0
M  END
>  <UniqueID>  (22) 
22

>  <SMILES>  (22) 
COc1ccccc1[C@H](CN1CCOCC1)NC(=O)c1ccco1

>  <Energy>  (22) 
81.51795052546437

>  <Genealogy>  (22) 
COc1ccccc1[C@H](CN1CCOCC1)NC(=O)c1ccco1 (chirality)
COc1ccccc1[C@H](CN1CCOCC1)NC(=O)c1ccco1 (3D coordinates assigned)
COc1ccccc1[C@H](CN1CCOCC1)NC(=O)c1ccco1 (nonaromatic ring conformer: 81.51795052546437 kcal/mol)

>  <smiles>  (22) 
COc1ccccc1C(CN1CCOCC1)NC(=O)c1ccco1

>  <score_type>  (22) 
oracle

>  <origin>  (22) 
adg

>  <m_score__min__energy>  (22) 
-8.2699999999999996

>  <m_primary>  (22) 
energy

$$$$
22:0
     RDKit          3D

 61 64  0  0  0  0  0  0  0  0999 V2000
   -2.4700   19.1560  -26.6820 C   0  0  0  0  0  0  0  0  0  0  0  0
   -1.2360   19.4430  -27.5500 C   0  0  0  0  0  0  0  0  0  0  0  0
   -0.4770   20.6480  -27.1460 N   0  0  0  0  0  0  0  0  0  0  0  0
    0.2290   21.3330  -28.2550 C   0  0  0  0  0  0  0  0  0  0  0  0
   -0.3990   22.6980  -28.5770 C   0  0  0  0  0  0  0  0  0  0  0  0
   -0.3900   23.6050  -27.4010 N   0  0  0  0  0  0  0  0  0  0  0  0
   -1.4060   24.6730  -27.5300 C   0  0  0  0  0  0  0  0  0  0  0  0
   -2.2760   24.5030  -28.7890 C   0  0  0  0  0  0  0  0  0  0  0  0
   -3.5830   23.7370  -28.5300 C   0  0  0  0  0  0  0  0  0  0  0  0
   -4.2000   23.2990  -29.7850 N   0  0  0  0  0  0  0  0  0  0  0  0
   -5.4360   23.6540  -30.2130 C   0  0  0  0  0  0  0  0  0  0  0  0
   -5.6740   23.1350  -31.4800 C   0  0  0  0  0  0  0  0  0  0  0  0
   -6.8810   23.3880  -32.3310 C   0  0  0  0  0  0  0  0  0  0  0  0
   -8.1070   22.6830  -31.7450 C   0  0  0  0  0  0  0  0  0  0  0  0
   -8.0330   21.2000  -31.9910 C   0  0  0  0  0  0  0  0  0  0  0  0
   -8.8310   20.3170  -31.2460 C   0  0  0  0  0  0  0  0  0  0  0  0
   -8.7360   18.9360  -31.4530 C   0  0  0  0  0  0  0  0  0  0  0  0
   -7.8380   18.4310  -32.3970 C   0  0  0  0  0  0  0  0  0  0  0  0
   -7.0290   19.3030  -33.1330 C   0  0  0  0  0  0  0  0  0  0  0  0
   -7.1220   20.6830  -32.9280 C   0  0  0  0  0  0  0  0  0  0  0  0
   -4.5220   22.4590  -31.8350 C   0  0  0  0  0  0  0  0  0  0  0  0
   -4.1820   21.7910  -33.0120 C   0  0  0  0  0  0  0  0  0  0  0  0
   -2.9040   21.2120  -33.0920 C   0  0  0  0  0  0  0  0  0  0  0  0
   -2.0040   21.3150  -32.0110 C   0  0  0  0  0  0  0  0  0  0  0  0
   -2.3710   21.9990  -30.8380 C   0  0  0  0  0  0  0  0  0  0  0  0
   -3.6480   22.5710  -30.7810 C   0  0  0  0  0  0  0  0  0  0  0  0
   -0.5120   22.8920  -26.1020 C   0  0  0  0  0  0  0  0  0  0  0  0
   -1.2300   21.5450  -26.2430 C   0  0  0  0  0  0  0  0  0  0  0  0
   -2.1937   19.2203  -25.6192 H   0  0  0  0  0  0  0  0  0  0  0  0
   -3.2535   19.8959  -26.9025 H   0  0  0  0  0  0  0  0  0  0  0  0
   -2.8466   18.1463  -26.9025 H   0  0  0  0  0  0  0  0  0  0  0  0
   -0.5628   18.5751  -27.4903 H   0  0  0  0  0  0  0  0  0  0  0  0
   -1.6032   19.6280  -28.5702 H   0  0  0  0  0  0  0  0  0  0  0  0
    1.2802   21.4838  -27.9681 H   0  0  0  0  0  0  0  0  0  0  0  0
    0.1497   20.7010  -29.1518 H   0  0  0  0  0  0  0  0  0  0  0  0
    0.1707   23.1677  -29.3923 H   0  0  0  0  0  0  0  0  0  0  0  0
   -1.4461   22.5302  -28.8691 H   0  0  0  0  0  0  0  0  0  0  0  0
   -2.0576   24.6502  -26.6440 H   0  0  0  0  0  0  0  0  0  0  0  0
   -0.8760   25.6332  -27.6144 H   0  0  0  0  0  0  0  0  0  0  0  0
   -2.5280   25.5014  -29.1759 H   0  0  0  0  0  0  0  0  0  0  0  0
   -1.6914   23.9126  -29.5099 H   0  0  0  0  0  0  0  0  0  0  0  0
   -3.3646   22.8545  -27.9107 H   0  0  0  0  0  0  0  0  0  0  0  0
   -4.2839   24.4099  -28.0143 H   0  0  0  0  0  0  0  0  0  0  0  0
   -6.1486   24.2652  -29.6397 H   0  0  0  0  0  0  0  0  0  0  0  0
   -7.0724   24.4703  -32.3752 H   0  0  0  0  0  0  0  0  0  0  0  0
   -6.6932   22.9947  -33.3410 H   0  0  0  0  0  0  0  0  0  0  0  0
   -8.1470   22.8682  -30.6614 H   0  0  0  0  0  0  0  0  0  0  0  0
   -9.0103   23.0787  -32.2322 H   0  0  0  0  0  0  0  0  0  0  0  0
   -9.5332   20.7119  -30.4971 H   0  0  0  0  0  0  0  0  0  0  0  0
   -9.3683   18.2481  -30.8725 H   0  0  0  0  0  0  0  0  0  0  0  0
   -7.7672   17.3457  -32.5616 H   0  0  0  0  0  0  0  0  0  0  0  0
   -6.3199   18.9032  -33.8728 H   0  0  0  0  0  0  0  0  0  0  0  0
   -6.4796   21.3667  -33.5024 H   0  0  0  0  0  0  0  0  0  0  0  0
   -4.8912   21.7199  -33.8499 H   0  0  0  0  0  0  0  0  0  0  0  0
   -2.6036   20.6749  -34.0038 H   0  0  0  0  0  0  0  0  0  0  0  0
   -1.0068   20.8566  -32.0858 H   0  0  0  0  0  0  0  0  0  0  0  0
   -1.6752   22.0822  -29.9901 H   0  0  0  0  0  0  0  0  0  0  0  0
    0.4963   22.7150  -25.6996 H   0  0  0  0  0  0  0  0  0  0  0  0
   -1.1090   23.5226  -25.4268 H   0  0  0  0  0  0  0  0  0  0  0  0
   -1.3137   21.0741  -25.2524 H   0  0  0  0  0  0  0  0  0  0  0  0
   -2.2302   21.7180  -26.6668 H   0  0  0  0  0  0  0  0  0  0  0  0
  1  2  1  0
  2  3  1  0
  3  4  1  0
  4  5  1  0
  5  6  1  0
  6  7  1  0
  7  8  1  0
  8  9  1  0
  9 10  1  0
 10 11  1  0
 11 12  2  0
 12 13  1  0
 13 14  1  0
 14 15  1  0
 15 16  2  0
 16 17  1  0
 17 18  2  0
 18 19  1  0
 19 20  2  0
 12 21  1  0
 21 22  2  0
 22 23  1  0
 23 24  2  0
 24 25  1  0
 25 26  2  0
  6 27  1  0
 27 28  1  0
 28  3  1  0
 26 10  1  0
 20 15  1  0
 26 21  1  0
  1 29  1  0
  1 30  1  0
  1 31  1  0
  2 32  1  0
  2 33  1  0
  4 34  1  0
  4 35  1  0
  5 36  1  0
  5 37  1  0
  7 38  1  0
  7 39  1  0
  8 40  1  0
  8 41  1  0
  9 42  1  0
  9 43  1  0
 11 44  1  0
 13 45  1  0
 13 46  1  0
 14 47  1  0
 14 48  1  0
 16 49  1  0
 17 50  1  0
 18 51  1  0
 19 52  1  0
 20 53  1  0
 22 54  1  0
 23 55  1  0
 24 56  1  0
 25 57  1  0
 27 58  1  0
 27 59  1  0
 28 60  1  0
 28 61  1  0
M  END
>  <UniqueID>  (23) 
23

>  <SMILES>  (23) 
CCN1CCN(CCCn2cc(CCc3ccccc3)c3ccccc32)CC1

>  <Energy>  (23) 
102.07159423688627

>  <Genealogy>  (23) 
CCN1CCN(CCCn2cc(CCc3ccccc3)c3ccccc32)CC1 (3D coordinates assigned)
CCN1CCN(CCCn2cc(CCc3ccccc3)c3ccccc32)CC1 (nonaromatic ring conformer: 102.07159423688627 kcal/mol)

>  <smiles>  (23) 
CCN1CCN(CCCn2cc(CCc3ccccc3)c3ccccc32)CC1

>  <score_type>  (23) 
oracle

>  <origin>  (23) 
adg

>  <m_score__min__energy>  (23) 
-9.0600000000000005

>  <m_primary>  (23) 
energy

$$$$
23:0
     RDKit          3D

 42 44  0  0  0  0  0  0  0  0999 V2000
   -1.8960   24.5520  -29.0520 C   0  0  0  0  0  0  0  0  0  0  0  0
   -3.1430   24.9290  -29.5900 O   0  0  0  0  0  0  0  0  0  0  0  0
   -4.1800   24.3890  -28.7970 C   0  0  0  0  0  0  0  0  0  0  0  0
   -5.5350   24.7520  -29.3990 C   0  0  0  0  0  0  0  0  0  0  0  0
   -5.4480   24.9870  -31.2110 S   0  0  0  0  0  0  0  0  0  0  0  0
   -6.3720   23.5000  -31.6230 C   0  0  0  0  0  0  0  0  0  0  0  0
   -7.7150   23.4560  -31.6590 N   0  0  0  0  0  0  0  0  0  0  0  0
   -8.0510   22.2160  -31.9800 N   0  0  0  0  0  0  0  0  0  0  0  0
   -6.9090   21.5180  -32.1380 C   0  0  0  0  0  0  0  0  0  0  0  0
   -6.8820   20.1070  -32.5830 C   0  0  0  0  0  0  0  0  0  0  0  0
   -7.6660   19.1400  -31.9320 C   0  0  0  0  0  0  0  0  0  0  0  0
   -7.6410   17.8190  -32.3820 C   0  0  0  0  0  0  0  0  0  0  0  0
   -6.8450   17.4710  -33.4740 C   0  0  0  0  0  0  0  0  0  0  0  0
   -6.0860   18.4560  -34.1060 C   0  0  0  0  0  0  0  0  0  0  0  0
   -6.1240   19.7390  -33.6530 N   0  0  0  0  0  0  0  0  0  0  0  0
   -5.8270   22.3020  -31.9210 N   0  0  0  0  0  0  0  0  0  0  0  0
   -4.4340   21.9490  -31.9230 C   0  0  0  0  0  0  0  0  0  0  0  0
   -3.7490   21.7580  -30.7140 C   0  0  0  0  0  0  0  0  0  0  0  0
   -2.3890   21.4380  -30.7120 C   0  0  0  0  0  0  0  0  0  0  0  0
   -1.6880   21.3160  -31.9270 C   0  0  0  0  0  0  0  0  0  0  0  0
   -0.3200   21.0110  -31.9790 O   0  0  0  0  0  0  0  0  0  0  0  0
    0.3320   20.4400  -33.1080 C   0  0  0  0  0  0  0  0  0  0  0  0
   -2.3740   21.5060  -33.1330 C   0  0  0  0  0  0  0  0  0  0  0  0
   -3.7360   21.8200  -33.1330 C   0  0  0  0  0  0  0  0  0  0  0  0
   -1.9505   24.5685  -27.9535 H   0  0  0  0  0  0  0  0  0  0  0  0
   -1.6420   23.5369  -29.3913 H   0  0  0  0  0  0  0  0  0  0  0  0
   -1.1222   25.2564  -29.3913 H   0  0  0  0  0  0  0  0  0  0  0  0
   -4.0787   23.2943  -28.7596 H   0  0  0  0  0  0  0  0  0  0  0  0
   -4.1122   24.8029  -27.7801 H   0  0  0  0  0  0  0  0  0  0  0  0
   -6.2474   23.9427  -29.1809 H   0  0  0  0  0  0  0  0  0  0  0  0
   -5.8587   25.7031  -28.9511 H   0  0  0  0  0  0  0  0  0  0  0  0
   -8.2946   19.4217  -31.0744 H   0  0  0  0  0  0  0  0  0  0  0  0
   -8.2479   17.0534  -31.8766 H   0  0  0  0  0  0  0  0  0  0  0  0
   -6.8164   16.4314  -33.8325 H   0  0  0  0  0  0  0  0  0  0  0  0
   -5.4570   18.1960  -34.9701 H   0  0  0  0  0  0  0  0  0  0  0  0
   -4.2868   21.8610  -29.7600 H   0  0  0  0  0  0  0  0  0  0  0  0
   -1.8642   21.2809  -29.7581 H   0  0  0  0  0  0  0  0  0  0  0  0
    1.1188   19.7509  -32.7673 H   0  0  0  0  0  0  0  0  0  0  0  0
   -0.4012   19.8882  -33.7146 H   0  0  0  0  0  0  0  0  0  0  0  0
    0.7823   21.2396  -33.7146 H   0  0  0  0  0  0  0  0  0  0  0  0
   -1.8367   21.4074  -34.0878 H   0  0  0  0  0  0  0  0  0  0  0  0
   -4.2635   21.9668  -34.0871 H   0  0  0  0  0  0  0  0  0  0  0  0
  1  2  1  0
  2  3  1  0
  3  4  1  0
  4  5  1  0
  5  6  1  0
  6  7  2  0
  7  8  1  0
  8  9  2  0
  9 10  1  0
 10 11  2  0
 11 12  1  0
 12 13  2  0
 13 14  1  0
 14 15  2  0
  9 16  1  0
 16 17  1  0
 17 18  2  0
 18 19  1  0
 19 20  2  0
 20 21  1  0
 21 22  1  0
 20 23  1  0
 23 24  2  0
 16  6  1  0
 24 17  1  0
 15 10  1  0
  1 25  1  0
  1 26  1  0
  1 27  1  0
  3 28  1  0
  3 29  1  0
  4 30  1  0
  4 31  1  0
 11 32  1  0
 12 33  1  0
 13 34  1  0
 14 35  1  0
 18 36  1  0
 19 37  1  0
 22 38  1  0
 22 39  1  0
 22 40  1  0
 23 41  1  0
 24 42  1  0
M  END
>  <UniqueID>  (24) 
24

>  <SMILES>  (24) 
COCCSc1nnc(-c2ccccn2)n1-c1ccc(OC)cc1

>  <Energy>  (24) 
79.70544328284673

>  <Genealogy>  (24) 
COCCSc1nnc(-c2ccccn2)n1-c1ccc(OC)cc1 (3D coordinates assigned)
COCCSc1nnc(-c2ccccn2)n1-c1ccc(OC)cc1 (optimized conformer: 79.70544328284673 kcal/mol)

>  <smiles>  (24) 
COCCSc1nnc(-c2ccccn2)n1-c1ccc(OC)cc1

>  <score_type>  (24) 
oracle

>  <origin>  (24) 
adg

>  <m_score__min__energy>  (24) 
-7.46

>  <m_primary>  (24) 
energy

$$$$
24:0
     RDKit          3D

 29 30  0  0  0  0  0  0  0  0999 V2000
   -6.4930   17.4340  -31.9490 C   0  0  0  0  0  0  0  0  0  0  0  0
   -6.2840   17.5470  -33.4560 C   0  0  0  0  0  0  0  0  0  0  0  0
   -6.0500   19.0010  -33.8730 C   0  0  0  0  0  0  0  0  0  0  0  0
   -6.8790   19.9240  -33.0370 C   0  0  0  0  0  0  0  0  0  0  0  0
   -6.3660   20.7720  -32.1190 N   0  0  0  0  0  0  0  0  0  0  0  0
   -7.4790   21.4110  -31.6960 C   0  0  0  0  0  0  0  0  0  0  0  0
   -7.4860   22.4570  -30.6290 C   0  0  0  0  0  0  0  0  0  0  0  0
   -7.1430   23.8240  -31.2200 C   0  0  0  0  0  0  0  0  0  0  0  0
   -5.7020   24.1510  -30.9830 C   0  0  0  0  0  0  0  0  0  0  0  0
   -5.1930   25.3890  -30.6690 C   0  0  0  0  0  0  0  0  0  0  0  0
   -3.8700   25.2750  -30.4690 N   0  0  0  0  0  0  0  0  0  0  0  0
   -3.6180   23.9630  -30.6620 C   0  0  0  0  0  0  0  0  0  0  0  0
   -4.7150   23.2390  -30.9710 N   0  0  0  0  0  0  0  0  0  0  0  0
   -8.5550   20.9820  -32.3130 O   0  0  0  0  0  0  0  0  0  0  0  0
   -8.2110   20.0620  -33.1590 N   0  0  0  0  0  0  0  0  0  0  0  0
   -5.6421   17.8941  -31.4253 H   0  0  0  0  0  0  0  0  0  0  0  0
   -7.4210   17.9533  -31.6676 H   0  0  0  0  0  0  0  0  0  0  0  0
   -6.5666   16.3732  -31.6676 H   0  0  0  0  0  0  0  0  0  0  0  0
   -5.4088   16.9457  -33.7433 H   0  0  0  0  0  0  0  0  0  0  0  0
   -7.1888   17.1799  -33.9624 H   0  0  0  0  0  0  0  0  0  0  0  0
   -4.9865   19.2492  -33.7408 H   0  0  0  0  0  0  0  0  0  0  0  0
   -6.3380   19.1201  -34.9279 H   0  0  0  0  0  0  0  0  0  0  0  0
   -8.4851   22.5006  -30.1709 H   0  0  0  0  0  0  0  0  0  0  0  0
   -6.7330   22.1974  -29.8703 H   0  0  0  0  0  0  0  0  0  0  0  0
   -7.3376   23.8095  -32.3026 H   0  0  0  0  0  0  0  0  0  0  0  0
   -7.7660   24.5886  -30.7329 H   0  0  0  0  0  0  0  0  0  0  0  0
   -5.7741   26.3200  -30.5939 H   0  0  0  0  0  0  0  0  0  0  0  0
   -2.6128   23.5246  -30.5756 H   0  0  0  0  0  0  0  0  0  0  0  0
   -8.8550   19.5490  -33.8000 H   0  0  0  0  0  0  0  0  0  0  0  0
  1  2  1  0
  2  3  1  0
  3  4  1  0
  4  5  1  0
  5  6  2  0
  6  7  1  0
  7  8  1  0
  8  9  1  0
  9 10  2  0
 10 11  1  0
 11 12  1  0
 12 13  2  0
  6 14  1  0
 14 15  1  0
 15  4  2  0
 13  9  1  0
  1 16  1  0
  1 17  1  0
  1 18  1  0
  2 19  1  0
  2 20  1  0
  3 21  1  0
  3 22  1  0
  7 23  1  0
  7 24  1  0
  8 25  1  0
  8 26  1  0
 10 27  1  0
 12 28  1  0
 15 29  1  0
M  CHG  2  11  -1  15   1
M  END
>  <UniqueID>  (25) 
25

>  <SMILES>  (25) 
CCCc1nc(CCc2c[n-]cn2)o[nH+]1

>  <Energy>  (25) 
79.28316236480664

>  <Genealogy>  (25) 
CCCc1nc(CCc2c[n-]cn2)o[nH+]1 (protonated)
CCCc1nc(CCc2c[n-]cn2)o[nH+]1 (3D coordinates assigned)
CCCc1nc(CCc2c[n-]cn2)o[nH+]1 (optimized conformer: 79.28316236480664 kcal/mol)

>  <smiles>  (25) 
CCCc1noc(CCc2c[nH]cn2)n1

>  <score_type>  (25) 
oracle

>  <origin>  (25) 
adg

>  <m_score__min__energy>  (25) 
-7.2400000000000002

>  <m_primary>  (25) 
energy

$$$$
25:0
     RDKit          3D

 32 34  0  0  0  0  0  0  0  0999 V2000
   -9.4570   18.1510  -31.9420 O   0  0  0  0  0  0  0  0  0  0  0  0
   -8.5180   18.9490  -32.2030 C   0  0  0  0  0  0  0  0  0  0  0  0
   -8.7110   20.3910  -31.9730 C   0  0  0  0  0  0  0  0  0  0  0  0
   -7.7300   21.2780  -32.2160 C   0  0  0  0  0  0  0  0  0  0  0  0
   -7.9490   22.7290  -32.0010 C   0  0  0  0  0  0  0  0  0  0  0  0
   -7.6140   23.4080  -30.8910 C   0  0  0  0  0  0  0  0  0  0  0  0
   -6.2320   23.6960  -30.4490 C   0  0  0  0  0  0  0  0  0  0  0  0
   -5.6060   22.8210  -29.5480 C   0  0  0  0  0  0  0  0  0  0  0  0
   -4.3080   23.0790  -29.0970 C   0  0  0  0  0  0  0  0  0  0  0  0
   -3.6310   24.2250  -29.5280 C   0  0  0  0  0  0  0  0  0  0  0  0
   -2.0020   24.5470  -28.9620 Cl  0  0  0  0  0  0  0  0  0  0  0  0
   -4.2570   25.1170  -30.4030 C   0  0  0  0  0  0  0  0  0  0  0  0
   -5.5550   24.8610  -30.8560 C   0  0  0  0  0  0  0  0  0  0  0  0
   -6.4380   20.8200  -32.7830 C   0  0  0  0  0  0  0  0  0  0  0  0
   -5.5350   21.6600  -33.0450 O   0  0  0  0  0  0  0  0  0  0  0  0
   -6.2070   19.3770  -33.0290 C   0  0  0  0  0  0  0  0  0  0  0  0
   -4.9810   18.9150  -33.5420 C   0  0  0  0  0  0  0  0  0  0  0  0
   -4.7810   17.5490  -33.7630 C   0  0  0  0  0  0  0  0  0  0  0  0
   -5.7960   16.6360  -33.4750 C   0  0  0  0  0  0  0  0  0  0  0  0
   -7.0180   17.0820  -32.9650 C   0  0  0  0  0  0  0  0  0  0  0  0
   -7.2310   18.4530  -32.7390 C   0  0  0  0  0  0  0  0  0  0  0  0
   -9.6791   20.7503  -31.5940 H   0  0  0  0  0  0  0  0  0  0  0  0
   -8.4240   23.2949  -32.8159 H   0  0  0  0  0  0  0  0  0  0  0  0
   -8.4342   23.7800  -30.2595 H   0  0  0  0  0  0  0  0  0  0  0  0
   -6.1398   21.9266  -29.1944 H   0  0  0  0  0  0  0  0  0  0  0  0
   -3.8186   22.3803  -28.4026 H   0  0  0  0  0  0  0  0  0  0  0  0
   -3.7278   26.0220  -30.7359 H   0  0  0  0  0  0  0  0  0  0  0  0
   -6.0491   25.5731  -31.5333 H   0  0  0  0  0  0  0  0  0  0  0  0
   -4.1774   19.6307  -33.7699 H   0  0  0  0  0  0  0  0  0  0  0  0
   -3.8209   17.1931  -34.1650 H   0  0  0  0  0  0  0  0  0  0  0  0
   -5.6337   15.5622  -33.6499 H   0  0  0  0  0  0  0  0  0  0  0  0
   -7.8154   16.3585  -32.7398 H   0  0  0  0  0  0  0  0  0  0  0  0
  1  2  2  0
  2  3  1  0
  3  4  2  0
  4  5  1  0
  5  6  2  3
  6  7  1  0
  7  8  2  0
  8  9  1  0
  9 10  2  0
 10 11  1  0
 10 12  1  0
 12 13  2  0
  4 14  1  0
 14 15  2  0
 14 16  1  0
 16 17  2  0
 17 18  1  0
 18 19  2  0
 19 20  1  0
 20 21  2  0
 21  2  1  0
 13  7  1  0
 21 16  1  0
  3 22  1  0
  5 23  1  0
  6 24  1  0
  8 25  1  0
  9 26  1  0
 12 27  1  0
 13 28  1  0
 17 29  1  0
 18 30  1  0
 19 31  1  0
 20 32  1  0
M  END
>  <UniqueID>  (26) 
26

>  <SMILES>  (26) 
O=C1C=C(C=Cc2ccc(Cl)cc2)C(=O)c2ccccc21

>  <Energy>  (26) 
46.04571896295912

>  <Genealogy>  (26) 
O=C1C=C(C=Cc2ccc(Cl)cc2)C(=O)c2ccccc21 (3D coordinates assigned)
O=C1C=C(C=Cc2ccc(Cl)cc2)C(=O)c2ccccc21 (nonaromatic ring conformer: 46.04571896295912 kcal/mol)

>  <smiles>  (26) 
O=C1C=C(C=Cc2ccc(Cl)cc2)C(=O)c2ccccc21

>  <score_type>  (26) 
oracle

>  <origin>  (26) 
adg

>  <m_score__min__energy>  (26) 
-9.1199999999999992

>  <m_primary>  (26) 
energy

$$$$
26:0
     RDKit          3D

 42 43  0  0  0  0  0  0  0  0999 V2000
    0.8510   25.6670  -37.2630 C   0  0  0  0  0  0  0  0  0  0  0  0
    1.7450   24.6130  -37.5470 O   0  0  0  0  0  0  0  0  0  0  0  0
    2.7170   24.5020  -36.5250 C   0  0  0  0  0  0  0  0  0  0  0  0
    3.2550   23.0680  -36.4620 C   0  0  0  0  0  0  0  0  0  0  0  0
    2.5820   22.3120  -35.4120 N   0  0  0  0  0  0  0  0  0  0  0  0
    1.1620   22.1480  -35.3380 C   0  0  0  0  0  0  0  0  0  0  0  0
    0.3910   23.0800  -35.6890 O   0  0  0  0  0  0  0  0  0  0  0  0
    0.5890   20.8520  -34.8570 C   0  0  0  0  0  0  0  0  0  0  0  0
   -0.8400   21.0000  -34.5880 N   0  0  0  0  0  0  0  0  0  0  0  0
   -1.6160   19.9600  -33.9670 C   0  0  0  0  0  0  0  0  0  0  0  0
   -1.0850   18.8380  -33.7410 O   0  0  0  0  0  0  0  0  0  0  0  0
   -3.0340   20.1800  -33.6010 C   0  0  0  0  0  0  0  0  0  0  0  0
   -3.4550   21.3940  -33.0300 C   0  0  0  0  0  0  0  0  0  0  0  0
   -4.7950   21.5860  -32.6800 C   0  0  0  0  0  0  0  0  0  0  0  0
   -5.7440   20.5700  -32.8920 C   0  0  0  0  0  0  0  0  0  0  0  0
   -7.1680   20.7780  -32.5220 C   0  0  0  0  0  0  0  0  0  0  0  0
   -7.5960   22.0080  -31.9840 C   0  0  0  0  0  0  0  0  0  0  0  0
   -8.9350   22.1990  -31.6290 C   0  0  0  0  0  0  0  0  0  0  0  0
   -9.8610   21.1690  -31.8070 C   0  0  0  0  0  0  0  0  0  0  0  0
   -9.4510   19.9460  -32.3420 C   0  0  0  0  0  0  0  0  0  0  0  0
   -8.1130   19.7480  -32.6980 C   0  0  0  0  0  0  0  0  0  0  0  0
   -5.3190   19.3540  -33.4540 C   0  0  0  0  0  0  0  0  0  0  0  0
   -3.9790   19.1590  -33.7990 C   0  0  0  0  0  0  0  0  0  0  0  0
    0.7537   25.7817  -36.1733 H   0  0  0  0  0  0  0  0  0  0  0  0
    1.2361   26.6015  -37.6971 H   0  0  0  0  0  0  0  0  0  0  0  0
   -0.1338   25.4395  -37.6971 H   0  0  0  0  0  0  0  0  0  0  0  0
    3.5467   25.1928  -36.7357 H   0  0  0  0  0  0  0  0  0  0  0  0
    2.2544   24.7553  -35.5597 H   0  0  0  0  0  0  0  0  0  0  0  0
    3.0825   22.5745  -37.4298 H   0  0  0  0  0  0  0  0  0  0  0  0
    4.3315   23.1030  -36.2388 H   0  0  0  0  0  0  0  0  0  0  0  0
    0.7355   20.0816  -35.6283 H   0  0  0  0  0  0  0  0  0  0  0  0
    1.0999   20.5565  -33.9287 H   0  0  0  0  0  0  0  0  0  0  0  0
   -1.3070   21.8770  -34.9090 H   0  0  0  0  0  0  0  0  0  0  0  0
   -2.7249   22.1985  -32.8574 H   0  0  0  0  0  0  0  0  0  0  0  0
   -5.1100   22.5411  -32.2345 H   0  0  0  0  0  0  0  0  0  0  0  0
   -6.8717   22.8237  -31.8423 H   0  0  0  0  0  0  0  0  0  0  0  0
   -9.2595   23.1624  -31.2088 H   0  0  0  0  0  0  0  0  0  0  0  0
  -10.9135   21.3210  -31.5258 H   0  0  0  0  0  0  0  0  0  0  0  0
  -10.1821   19.1364  -32.4838 H   0  0  0  0  0  0  0  0  0  0  0  0
   -7.7965   18.7819  -33.1181 H   0  0  0  0  0  0  0  0  0  0  0  0
   -6.0481   18.5481  -33.6239 H   0  0  0  0  0  0  0  0  0  0  0  0
   -3.6611   18.1979  -34.2293 H   0  0  0  0  0  0  0  0  0  0  0  0
  1  2  1  0
  2  3  1  0
  3  4  1  0
  4  5  1  0
  5  6  1  0
  6  7  2  0
  6  8  1  0
  8  9  1  0
  9 10  1  0
 10 11  2  0
 10 12  1  0
 12 13  2  0
 13 14  1  0
 14 15  2  0
 15 16  1  0
 16 17  2  0
 17 18  1  0
 18 19  2  0
 19 20  1  0
 20 21  2  0
 15 22  1  0
 22 23  2  0
 23 12  1  0
 21 16  1  0
  1 24  1  0
  1 25  1  0
  1 26  1  0
  3 27  1  0
  3 28  1  0
  4 29  1  0
  4 30  1  0
  8 31  1  0
  8 32  1  0
  9 33  1  0
 13 34  1  0
 14 35  1  0
 17 36  1  0
 18 37  1  0
 19 38  1  0
 20 39  1  0
 21 40  1  0
 22 41  1  0
 23 42  1  0
M  CHG  1   5  -1
M  END
>  <UniqueID>  (27) 
27

>  <SMILES>  (27) 
COCC[N-]C(=O)CNC(=O)c1ccc(-c2ccccc2)cc1

>  <Energy>  (27) 
45.110415765160134

>  <Genealogy>  (27) 
COCC[N-]C(=O)CNC(=O)c1ccc(-c2ccccc2)cc1 (protonated)
COCC[N-]C(=O)CNC(=O)c1ccc(-c2ccccc2)cc1 (3D coordinates assigned)
COCC[N-]C(=O)CNC(=O)c1ccc(-c2ccccc2)cc1 (optimized conformer: 45.110415765160134 kcal/mol)

>  <smiles>  (27) 
COCCNC(=O)CNC(=O)c1ccc(-c2ccccc2)cc1

>  <score_type>  (27) 
oracle

>  <origin>  (27) 
adg

>  <m_score__min__energy>  (27) 
-8.6600000000000001

>  <m_primary>  (27) 
energy

$$$$
27:0
     RDKit          3D

 56 58  0  0  0  0  0  0  0  0999 V2000
   -5.2520   25.6650  -30.5620 C   0  0  0  0  0  0  0  0  0  0  0  0
   -3.8950   25.2450  -30.4630 O   0  0  0  0  0  0  0  0  0  0  0  0
   -3.4770   24.0500  -29.8580 C   0  0  0  0  0  0  0  0  0  0  0  0
   -4.2410   23.5390  -28.8020 C   0  0  0  0  0  0  0  0  0  0  0  0
   -3.8720   22.3490  -28.1710 C   0  0  0  0  0  0  0  0  0  0  0  0
   -2.7320   21.6580  -28.5900 C   0  0  0  0  0  0  0  0  0  0  0  0
   -1.9510   22.1570  -29.6420 C   0  0  0  0  0  0  0  0  0  0  0  0
   -0.7500   21.3820  -30.1140 C   0  0  0  0  0  0  0  0  0  0  0  0
   -0.9010   21.0240  -31.5440 N   0  0  0  0  0  0  0  0  0  0  0  0
    0.2810   20.2840  -32.0580 C   0  0  0  0  0  0  0  0  0  0  0  0
   -0.0440   19.6540  -33.4170 C   0  0  0  0  0  0  0  0  0  0  0  0
    0.3780   20.5610  -34.5850 C   0  0  0  0  0  0  0  0  0  0  0  0
   -0.1050   21.9280  -34.3940 N   0  0  0  0  0  0  0  0  0  0  0  0
   -2.1540   20.2750  -31.7740 C   0  0  0  0  0  0  0  0  0  0  0  0
   -3.0520   21.0300  -32.7200 C   0  0  0  0  0  0  0  0  0  0  0  0
   -2.5320   21.8970  -33.4760 O   0  0  0  0  0  0  0  0  0  0  0  0
   -4.4740   20.7910  -32.7820 N   0  0  0  0  0  0  0  0  0  0  0  0
   -4.9840   19.4470  -33.1080 C   0  0  0  0  0  0  0  0  0  0  0  0
   -6.3850   19.5020  -33.7200 C   0  0  0  0  0  0  0  0  0  0  0  0
   -7.2950   20.3160  -32.8500 C   0  0  0  0  0  0  0  0  0  0  0  0
   -8.6370   19.9500  -32.6710 C   0  0  0  0  0  0  0  0  0  0  0  0
   -9.4810   20.7410  -31.8860 C   0  0  0  0  0  0  0  0  0  0  0  0
   -8.9920   21.9060  -31.2900 C   0  0  0  0  0  0  0  0  0  0  0  0
   -7.6590   22.2840  -31.4780 C   0  0  0  0  0  0  0  0  0  0  0  0
   -6.8010   21.4860  -32.2510 C   0  0  0  0  0  0  0  0  0  0  0  0
   -5.3780   21.9230  -32.5010 C   0  0  0  0  0  0  0  0  0  0  0  0
   -2.3270   23.3530  -30.2770 C   0  0  0  0  0  0  0  0  0  0  0  0
   -5.6703   25.7945  -29.5529 H   0  0  0  0  0  0  0  0  0  0  0  0
   -5.3014   26.6205  -31.1048 H   0  0  0  0  0  0  0  0  0  0  0  0
   -5.8325   24.9045  -31.1048 H   0  0  0  0  0  0  0  0  0  0  0  0
   -5.1388   24.0789  -28.4667 H   0  0  0  0  0  0  0  0  0  0  0  0
   -4.4796   21.9551  -27.3430 H   0  0  0  0  0  0  0  0  0  0  0  0
   -2.4464   20.7193  -28.0927 H   0  0  0  0  0  0  0  0  0  0  0  0
    0.1526   21.9978  -29.9871 H   0  0  0  0  0  0  0  0  0  0  0  0
   -0.6623   20.4599  -29.5207 H   0  0  0  0  0  0  0  0  0  0  0  0
    1.1251   20.9801  -32.1719 H   0  0  0  0  0  0  0  0  0  0  0  0
    0.5462   19.4886  -31.3459 H   0  0  0  0  0  0  0  0  0  0  0  0
    0.4885   18.6951  -33.5010 H   0  0  0  0  0  0  0  0  0  0  0  0
   -1.1329   19.5091  -33.4740 H   0  0  0  0  0  0  0  0  0  0  0  0
    1.4760   20.5742  -34.6505 H   0  0  0  0  0  0  0  0  0  0  0  0
   -0.0610   20.1627  -35.5116 H   0  0  0  0  0  0  0  0  0  0  0  0
   -0.9620   22.0670  -34.9760 H   0  0  0  0  0  0  0  0  0  0  0  0
   -0.3750   22.0550  -33.3920 H   0  0  0  0  0  0  0  0  0  0  0  0
   -1.9146   19.2929  -32.2078 H   0  0  0  0  0  0  0  0  0  0  0  0
   -2.6747   20.1475  -30.8134 H   0  0  0  0  0  0  0  0  0  0  0  0
   -4.3002   18.9718  -33.8268 H   0  0  0  0  0  0  0  0  0  0  0  0
   -5.0421   18.8684  -32.1743 H   0  0  0  0  0  0  0  0  0  0  0  0
   -6.3285   19.9614  -34.7179 H   0  0  0  0  0  0  0  0  0  0  0  0
   -6.7832   18.4798  -33.8009 H   0  0  0  0  0  0  0  0  0  0  0  0
   -9.0261   19.0390  -33.1491 H   0  0  0  0  0  0  0  0  0  0  0  0
  -10.5303   20.4460  -31.7376 H   0  0  0  0  0  0  0  0  0  0  0  0
   -9.6568   22.5271  -30.6717 H   0  0  0  0  0  0  0  0  0  0  0  0
   -7.2815   23.2095  -31.0188 H   0  0  0  0  0  0  0  0  0  0  0  0
   -5.3661   22.6051  -33.3639 H   0  0  0  0  0  0  0  0  0  0  0  0
   -5.0171   22.4163  -31.5865 H   0  0  0  0  0  0  0  0  0  0  0  0
   -1.7200   23.7468  -31.1055 H   0  0  0  0  0  0  0  0  0  0  0  0
  1  2  1  0
  2  3  1  0
  3  4  2  0
  4  5  1  0
  5  6  2  0
  6  7  1  0
  7  8  1  0
  8  9  1  0
  9 10  1  0
 10 11  1  0
 11 12  1  0
 12 13  1  0
  9 14  1  0
 14 15  1  0
 15 16  2  0
 15 17  1  0
 17 18  1  0
 18 19  1  0
 19 20  1  0
 20 21  2  0
 21 22  1  0
 22 23  2  0
 23 24  1  0
 24 25  2  0
 25 26  1  0
  7 27  2  0
 27  3  1  0
 26 17  1  0
 25 20  1  0
  1 28  1  0
  1 29  1  0
  1 30  1  0
  4 31  1  0
  5 32  1  0
  6 33  1  0
  8 34  1  0
  8 35  1  0
 10 36  1  0
 10 37  1  0
 11 38  1  0
 11 39  1  0
 12 40  1  0
 12 41  1  0
 13 42  1  0
 13 43  1  0
 14 44  1  0
 14 45  1  0
 18 46  1  0
 18 47  1  0
 19 48  1  0
 19 49  1  0
 21 50  1  0
 22 51  1  0
 23 52  1  0
 24 53  1  0
 26 54  1  0
 26 55  1  0
 27 56  1  0
M  END
>  <UniqueID>  (28) 
28

>  <SMILES>  (28) 
COc1cccc(CN(CCCN)CC(=O)N2CCc3ccccc3C2)c1

>  <Energy>  (28) 
56.914172482900405

>  <Genealogy>  (28) 
COc1cccc(CN(CCCN)CC(=O)N2CCc3ccccc3C2)c1 (3D coordinates assigned)
COc1cccc(CN(CCCN)CC(=O)N2CCc3ccccc3C2)c1 (nonaromatic ring conformer: 56.914172482900405 kcal/mol)

>  <smiles>  (28) 
COc1cccc(CN(CCCN)CC(=O)N2CCc3ccccc3C2)c1

>  <score_type>  (28) 
oracle

>  <origin>  (28) 
adg

>  <m_score__min__energy>  (28) 
-9.3699999999999992

>  <m_primary>  (28) 
energy

$$$$
28:0
     RDKit          3D

 54 57  0  0  1  0  0  0  0  0999 V2000
   -9.3530   19.8300  -32.5130 C   0  0  0  0  0  0  0  0  0  0  0  0
   -9.1340   20.6970  -31.3210 C   0  0  0  0  0  0  0  0  0  0  0  0
   -7.9250   21.4550  -31.3310 N   0  0  0  0  0  0  0  0  0  0  0  0
   -7.5300   22.0600  -32.5330 C   0  0  0  0  0  0  0  0  0  0  0  0
   -7.0530   23.4590  -32.5030 C   0  0  0  0  0  0  0  0  0  0  0  0
   -6.6780   23.9810  -31.2610 N   0  0  0  0  0  0  0  0  0  0  0  0
   -5.8470   25.1070  -31.1750 C   0  0  0  0  0  0  0  0  0  0  0  0
   -4.8130   25.0940  -30.0700 C   0  0  0  0  0  0  0  0  0  0  0  0
   -3.6290   24.4230  -30.5260 N   0  0  0  0  0  0  0  0  0  0  0  0
   -3.4030   23.1810  -30.5770 C   0  0  0  0  0  0  0  0  0  0  0  0
   -4.2210   22.3960  -31.2810 N   0  0  0  0  0  0  0  0  0  0  0  0
   -3.9810   21.0930  -31.3250 C   0  0  0  0  0  0  0  0  0  0  0  0
   -4.8210   20.1540  -32.0700 C   0  0  0  0  0  0  0  0  0  0  0  0
   -5.5530   19.1860  -31.3850 C   0  0  0  0  0  0  0  0  0  0  0  0
   -6.3360   18.3110  -32.1010 C   0  0  0  0  0  0  0  0  0  0  0  0
   -6.4540   18.3190  -33.4690 C   0  0  0  0  0  0  0  0  0  0  0  0
   -5.7190   19.2900  -34.1590 C   0  0  0  0  0  0  0  0  0  0  0  0
   -4.9410   20.1580  -33.4340 C   0  0  0  0  0  0  0  0  0  0  0  0
   -2.9270   20.5900  -30.6640 N   0  0  0  0  0  0  0  0  0  0  0  0
   -2.0890   21.3390  -29.9510 C   0  0  0  0  0  0  0  0  0  0  0  0
   -1.0050   20.8240  -29.2710 C   0  0  0  0  0  0  0  0  0  0  0  0
   -0.1840   21.6790  -28.5540 C   0  0  0  0  0  0  0  0  0  0  0  0
   -0.4170   23.0460  -28.4960 C   0  0  0  0  0  0  0  0  0  0  0  0
   -1.5030   23.5410  -29.1810 C   0  0  0  0  0  0  0  0  0  0  0  0
   -2.3120   22.6870  -29.8900 C   0  0  0  0  0  0  0  0  0  0  0  0
   -7.2560   23.4610  -30.0820 C   0  0  0  0  0  0  0  0  0  0  0  0
   -7.5000   21.9780  -30.1010 C   0  0  0  0  0  0  0  0  0  0  0  0
   -9.6101   18.8123  -32.1839 H   0  0  0  0  0  0  0  0  0  0  0  0
  -10.1761   20.2388  -33.1175 H   0  0  0  0  0  0  0  0  0  0  0  0
   -8.4345   19.7989  -33.1175 H   0  0  0  0  0  0  0  0  0  0  0  0
   -9.9761   21.4016  -31.2542 H   0  0  0  0  0  0  0  0  0  0  0  0
   -9.0587   20.0164  -30.4601 H   0  0  0  0  0  0  0  0  0  0  0  0
   -6.7154   21.4495  -32.9498 H   0  0  0  0  0  0  0  0  0  0  0  0
   -8.4566   22.1075  -33.1240 H   0  0  0  0  0  0  0  0  0  0  0  0
   -6.1784   23.5245  -33.1669 H   0  0  0  0  0  0  0  0  0  0  0  0
   -7.9204   24.0605  -32.8125 H   0  0  0  0  0  0  0  0  0  0  0  0
   -5.3136   25.2038  -32.1321 H   0  0  0  0  0  0  0  0  0  0  0  0
   -6.5160   25.9482  -30.9410 H   0  0  0  0  0  0  0  0  0  0  0  0
   -4.5630   26.1281  -29.7905 H   0  0  0  0  0  0  0  0  0  0  0  0
   -5.2193   24.5641  -29.1959 H   0  0  0  0  0  0  0  0  0  0  0  0
   -5.0100   22.8240  -31.7710 H   0  0  0  0  0  0  0  0  0  0  0  0
   -5.5052   19.1227  -30.2879 H   0  0  0  0  0  0  0  0  0  0  0  0
   -6.9054   17.5547  -31.5407 H   0  0  0  0  0  0  0  0  0  0  0  0
   -7.0949   17.5975  -33.9969 H   0  0  0  0  0  0  0  0  0  0  0  0
   -5.7637   19.3560  -35.2561 H   0  0  0  0  0  0  0  0  0  0  0  0
   -4.3701   20.9150  -33.9917 H   0  0  0  0  0  0  0  0  0  0  0  0
   -0.7945   19.7447  -29.2978 H   0  0  0  0  0  0  0  0  0  0  0  0
    0.6789   21.2618  -28.0142 H   0  0  0  0  0  0  0  0  0  0  0  0
    0.2443   23.7115  -27.9217 H   0  0  0  0  0  0  0  0  0  0  0  0
   -1.7228   24.6186  -29.1608 H   0  0  0  0  0  0  0  0  0  0  0  0
   -6.5821   23.6862  -29.2423 H   0  0  0  0  0  0  0  0  0  0  0  0
   -8.2434   23.9362  -29.9854 H   0  0  0  0  0  0  0  0  0  0  0  0
   -6.5611   21.4758  -29.8247 H   0  0  0  0  0  0  0  0  0  0  0  0
   -8.3225   21.7966  -29.3935 H   0  0  0  0  0  0  0  0  0  0  0  0
  1  2  1  0
  2  3  1  0
  3  4  1  0
  4  5  1  0
  5  6  1  0
  6  7  1  0
  7  8  1  0
  8  9  1  0
  9 10  2  0
 10 11  1  0
 11 12  1  0
 12 13  1  0
 13 14  2  0
 14 15  1  0
 15 16  2  0
 16 17  1  0
 17 18  2  0
 12 19  2  0
 19 20  1  0
 20 21  2  0
 21 22  1  0
 22 23  2  0
 23 24  1  0
 24 25  2  0
  6 26  1  0
 26 27  1  0
 27  3  1  0
 25 10  1  0
 18 13  1  0
 25 20  1  0
  1 28  1  0
  1 29  1  0
  1 30  1  0
  2 31  1  0
  2 32  1  0
  4 33  1  0
  4 34  1  0
  5 35  1  0
  5 36  1  0
  7 37  1  0
  7 38  1  0
  8 39  1  0
  8 40  1  0
 11 41  1  0
 14 42  1  0
 15 43  1  0
 16 44  1  0
 17 45  1  0
 18 46  1  0
 21 47  1  0
 22 48  1  0
 23 49  1  0
 24 50  1  0
 26 51  1  0
 26 52  1  0
 27 53  1  0
 27 54  1  0
M  END
>  <smiles>  (29) 
CCN1CCN(CCN=c2[nH]c(-c3ccccc3)nc3ccccc23)CC1

>  <score_type>  (29) 
oracle

>  <origin>  (29) 
adg

>  <m_score__min__energy>  (29) 
-9.6899999999999995

>  <m_primary>  (29) 
energy

$$$$
29:0
     RDKit          3D

 36 38  0  0  0  0  0  0  0  0999 V2000
   -5.3660   25.1890  -30.7500 C   0  0  0  0  0  0  0  0  0  0  0  0
   -6.1550   23.9380  -30.9960 C   0  0  0  0  0  0  0  0  0  0  0  0
   -7.0710   23.4800  -30.0360 C   0  0  0  0  0  0  0  0  0  0  0  0
   -7.8360   22.3360  -30.2820 C   0  0  0  0  0  0  0  0  0  0  0  0
   -7.7100   21.6450  -31.4980 C   0  0  0  0  0  0  0  0  0  0  0  0
   -8.5340   20.4100  -31.7550 C   0  0  0  0  0  0  0  0  0  0  0  0
   -8.1050   19.7500  -32.9890 N   0  0  0  0  0  0  0  0  0  0  0  0
   -7.0400   18.7820  -33.0650 C   0  0  0  0  0  0  0  0  0  0  0  0
   -6.1840   18.7890  -34.2020 C   0  0  0  0  0  0  0  0  0  0  0  0
   -5.1270   17.8670  -34.3210 C   0  0  0  0  0  0  0  0  0  0  0  0
   -4.9590   16.9540  -33.2850 C   0  0  0  0  0  0  0  0  0  0  0  0
   -5.7750   16.9330  -32.1980 C   0  0  0  0  0  0  0  0  0  0  0  0
   -6.8310   17.8230  -32.0400 C   0  0  0  0  0  0  0  0  0  0  0  0
   -5.3660   15.9410  -31.3880 N   0  0  0  0  0  0  0  0  0  0  0  0
   -4.3180   15.3670  -31.9740 N   0  0  0  0  0  0  0  0  0  0  0  0
   -4.0540   15.9710  -33.1290 N   0  0  0  0  0  0  0  0  0  0  0  0
   -2.9830   15.5930  -34.0410 C   0  0  0  0  0  0  0  0  0  0  0  0
   -6.7960   22.1070  -32.4580 C   0  0  0  0  0  0  0  0  0  0  0  0
   -6.0320   23.2520  -32.2130 C   0  0  0  0  0  0  0  0  0  0  0  0
   -5.2638   25.3510  -29.6668 H   0  0  0  0  0  0  0  0  0  0  0  0
   -4.3680   25.0878  -31.2014 H   0  0  0  0  0  0  0  0  0  0  0  0
   -5.8873   26.0460  -31.2014 H   0  0  0  0  0  0  0  0  0  0  0  0
   -7.1873   24.0232  -29.0866 H   0  0  0  0  0  0  0  0  0  0  0  0
   -8.5408   21.9750  -29.5185 H   0  0  0  0  0  0  0  0  0  0  0  0
   -8.4135   19.7135  -30.9122 H   0  0  0  0  0  0  0  0  0  0  0  0
   -9.5889   20.7038  -31.8591 H   0  0  0  0  0  0  0  0  0  0  0  0
   -8.5800   20.0380  -33.8740 H   0  0  0  0  0  0  0  0  0  0  0  0
   -6.3511   19.5268  -35.0006 H   0  0  0  0  0  0  0  0  0  0  0  0
   -4.4615   17.8684  -35.1968 H   0  0  0  0  0  0  0  0  0  0  0  0
   -7.4807   17.7854  -31.1532 H   0  0  0  0  0  0  0  0  0  0  0  0
   -5.7770   15.6540  -30.4720 H   0  0  0  0  0  0  0  0  0  0  0  0
   -2.1011   15.2817  -33.4619 H   0  0  0  0  0  0  0  0  0  0  0  0
   -3.3185   14.7590  -34.6749 H   0  0  0  0  0  0  0  0  0  0  0  0
   -2.7206   16.4528  -34.6749 H   0  0  0  0  0  0  0  0  0  0  0  0
   -6.6802   21.5652  -33.4083 H   0  0  0  0  0  0  0  0  0  0  0  0
   -5.3311   23.6165  -32.9784 H   0  0  0  0  0  0  0  0  0  0  0  0
  1  2  1  0
  2  3  2  0
  3  4  1  0
  4  5  2  0
  5  6  1  0
  6  7  1  0
  7  8  1  0
  8  9  2  0
  9 10  1  0
 10 11  2  0
 11 12  1  0
 12 13  2  0
 12 14  1  0
 14 15  2  0
 15 16  1  0
 16 17  1  0
  5 18  1  0
 18 19  2  0
 19  2  1  0
 13  8  1  0
 16 11  1  0
  1 20  1  0
  1 21  1  0
  1 22  1  0
  3 23  1  0
  4 24  1  0
  6 25  1  0
  6 26  1  0
  7 27  1  0
  9 28  1  0
 10 29  1  0
 13 30  1  0
 14 31  1  0
 17 32  1  0
 17 33  1  0
 17 34  1  0
 18 35  1  0
 19 36  1  0
M  CHG  1  14   1
M  END
>  <UniqueID>  (30) 
29

>  <SMILES>  (30) 
Cc1ccc(CNc2ccc3c(c2)[nH+]nn3C)cc1

>  <Energy>  (30) 
80.91412486611033

>  <Genealogy>  (30) 
Cc1ccc(CNc2ccc3c(c2)[nH+]nn3C)cc1 (protonated)
Cc1ccc(CNc2ccc3c(c2)[nH+]nn3C)cc1 (3D coordinates assigned)
Cc1ccc(CNc2ccc3c(c2)[nH+]nn3C)cc1 (optimized conformer: 80.91412486611033 kcal/mol)

>  <smiles>  (30) 
Cc1ccc(CNc2ccc3c(c2)nnn3C)cc1

>  <score_type>  (30) 
oracle

>  <origin>  (30) 
adg

>  <m_score__min__energy>  (30) 
-7.46

>  <m_primary>  (30) 
energy

$$$$
30:0
     RDKit          3D

 51 53  0  0  0  0  0  0  0  0999 V2000
   -0.6010   21.0660  -30.1260 C   0  0  0  0  0  0  0  0  0  0  0  0
   -0.2790   20.8270  -28.6520 C   0  0  0  0  0  0  0  0  0  0  0  0
   -1.1490   21.6490  -27.7820 N   0  0  0  0  0  0  0  0  0  0  0  0
   -1.6150   20.8600  -26.6180 C   0  0  0  0  0  0  0  0  0  0  0  0
   -2.4380   19.6480  -27.0580 C   0  0  0  0  0  0  0  0  0  0  0  0
   -0.4800   22.9090  -27.3630 C   0  0  0  0  0  0  0  0  0  0  0  0
   -1.4690   24.0730  -27.4880 C   0  0  0  0  0  0  0  0  0  0  0  0
   -1.2580   24.8730  -28.7810 C   0  0  0  0  0  0  0  0  0  0  0  0
   -2.5020   25.3010  -29.3380 O   0  0  0  0  0  0  0  0  0  0  0  0
   -3.4800   24.4620  -29.8930 C   0  0  0  0  0  0  0  0  0  0  0  0
   -3.2430   23.1070  -30.1860 C   0  0  0  0  0  0  0  0  0  0  0  0
   -4.2610   22.3100  -30.7200 C   0  0  0  0  0  0  0  0  0  0  0  0
   -5.5300   22.8530  -30.9870 C   0  0  0  0  0  0  0  0  0  0  0  0
   -6.6020   21.9850  -31.5380 C   0  0  0  0  0  0  0  0  0  0  0  0
   -7.9590   22.3370  -31.4530 C   0  0  0  0  0  0  0  0  0  0  0  0
   -8.9100   21.4750  -31.9950 C   0  0  0  0  0  0  0  0  0  0  0  0
   -8.5190   20.3230  -32.5980 N   0  0  0  0  0  0  0  0  0  0  0  0
   -7.2040   19.9920  -32.6870 C   0  0  0  0  0  0  0  0  0  0  0  0
   -6.8000   18.7430  -33.3480 C   0  0  0  0  0  0  0  0  0  0  0  0
   -6.0210   18.6420  -34.4970 C   0  0  0  0  0  0  0  0  0  0  0  0
   -5.7970   17.3200  -34.8990 C   0  0  0  0  0  0  0  0  0  0  0  0
   -6.3980   16.3880  -34.0660 C   0  0  0  0  0  0  0  0  0  0  0  0
   -6.3310   14.6500  -34.2600 Cl  0  0  0  0  0  0  0  0  0  0  0  0
   -7.2080   17.1920  -32.8320 S   0  0  0  0  0  0  0  0  0  0  0  0
   -6.2640   20.8220  -32.1600 N   0  0  0  0  0  0  0  0  0  0  0  0
   -5.7590   24.2110  -30.6970 C   0  0  0  0  0  0  0  0  0  0  0  0
   -4.7400   25.0040  -30.1620 C   0  0  0  0  0  0  0  0  0  0  0  0
   -1.4818   21.7198  -30.2076 H   0  0  0  0  0  0  0  0  0  0  0  0
    0.2588   21.5463  -30.6159 H   0  0  0  0  0  0  0  0  0  0  0  0
   -0.8118   20.1040  -30.6159 H   0  0  0  0  0  0  0  0  0  0  0  0
   -0.4356   19.7639  -28.4168 H   0  0  0  0  0  0  0  0  0  0  0  0
    0.7683   21.1102  -28.4704 H   0  0  0  0  0  0  0  0  0  0  0  0
   -0.7406   20.5112  -26.0490 H   0  0  0  0  0  0  0  0  0  0  0  0
   -2.2537   21.5047  -25.9964 H   0  0  0  0  0  0  0  0  0  0  0  0
   -2.8029   19.1107  -26.1702 H   0  0  0  0  0  0  0  0  0  0  0  0
   -3.2945   19.9854  -27.6601 H   0  0  0  0  0  0  0  0  0  0  0  0
   -1.8085   18.9763  -27.6601 H   0  0  0  0  0  0  0  0  0  0  0  0
   -0.1484   22.8191  -26.3180 H   0  0  0  0  0  0  0  0  0  0  0  0
    0.3919   23.0953  -28.0073 H   0  0  0  0  0  0  0  0  0  0  0  0
   -2.4928   23.6708  -27.4827 H   0  0  0  0  0  0  0  0  0  0  0  0
   -1.3027   24.7518  -26.6385 H   0  0  0  0  0  0  0  0  0  0  0  0
   -0.6425   25.7571  -28.5585 H   0  0  0  0  0  0  0  0  0  0  0  0
   -0.7566   24.2224  -29.5127 H   0  0  0  0  0  0  0  0  0  0  0  0
   -2.2513   22.6714  -29.9941 H   0  0  0  0  0  0  0  0  0  0  0  0
   -4.0668   21.2484  -30.9330 H   0  0  0  0  0  0  0  0  0  0  0  0
   -8.2652   23.2755  -30.9677 H   0  0  0  0  0  0  0  0  0  0  0  0
   -9.9788   21.7280  -31.9343 H   0  0  0  0  0  0  0  0  0  0  0  0
   -5.6213   19.5140  -35.0354 H   0  0  0  0  0  0  0  0  0  0  0  0
   -5.2047   17.0480  -35.7852 H   0  0  0  0  0  0  0  0  0  0  0  0
   -6.7476   24.6517  -30.8929 H   0  0  0  0  0  0  0  0  0  0  0  0
   -4.9317   26.0663  -29.9503 H   0  0  0  0  0  0  0  0  0  0  0  0
  1  2  1  0
  2  3  1  0
  3  4  1  0
  4  5  1  0
  3  6  1  0
  6  7  1  0
  7  8  1  0
  8  9  1  0
  9 10  1  0
 10 11  2  0
 11 12  1  0
 12 13  2  0
 13 14  1  0
 14 15  2  0
 15 16  1  0
 16 17  2  0
 17 18  1  0
 18 19  1  0
 19 20  2  0
 20 21  1  0
 21 22  2  0
 22 23  1  0
 22 24  1  0
 18 25  2  0
 13 26  1  0
 26 27  2  0
 27 10  1  0
 25 14  1  0
 24 19  1  0
  1 28  1  0
  1 29  1  0
  1 30  1  0
  2 31  1  0
  2 32  1  0
  4 33  1  0
  4 34  1  0
  5 35  1  0
  5 36  1  0
  5 37  1  0
  6 38  1  0
  6 39  1  0
  7 40  1  0
  7 41  1  0
  8 42  1  0
  8 43  1  0
 11 44  1  0
 12 45  1  0
 15 46  1  0
 16 47  1  0
 20 48  1  0
 21 49  1  0
 26 50  1  0
 27 51  1  0
M  END
>  <UniqueID>  (31) 
30

>  <SMILES>  (31) 
CCN(CC)CCCOc1ccc(-c2ccnc(-c3ccc(Cl)s3)n2)cc1

>  <Energy>  (31) 
79.23305567913393

>  <Genealogy>  (31) 
CCN(CC)CCCOc1ccc(-c2ccnc(-c3ccc(Cl)s3)n2)cc1 (3D coordinates assigned)
CCN(CC)CCCOc1ccc(-c2ccnc(-c3ccc(Cl)s3)n2)cc1 (optimized conformer: 79.23305567913393 kcal/mol)

>  <smiles>  (31) 
CCN(CC)CCCOc1ccc(-c2ccnc(-c3ccc(Cl)s3)n2)cc1

>  <score_type>  (31) 
oracle

>  <origin>  (31) 
adg

>  <m_score__min__energy>  (31) 
-9.0099999999999998

>  <m_primary>  (31) 
energy

$$$$
31:0
     RDKit          3D

 48 50  0  0  0  0  0  0  0  0999 V2000
   -7.6100   22.5610  -30.1230 C   0  0  0  0  0  0  0  0  0  0  0  0
   -7.9590   22.0070  -31.3860 O   0  0  0  0  0  0  0  0  0  0  0  0
   -7.9400   20.6360  -31.6870 C   0  0  0  0  0  0  0  0  0  0  0  0
   -9.1220   19.8690  -31.7480 C   0  0  0  0  0  0  0  0  0  0  0  0
   -9.0620   18.5000  -32.0260 C   0  0  0  0  0  0  0  0  0  0  0  0
   -7.8300   17.8830  -32.2440 C   0  0  0  0  0  0  0  0  0  0  0  0
   -6.6530   18.6330  -32.1910 C   0  0  0  0  0  0  0  0  0  0  0  0
   -6.7010   20.0080  -31.9200 C   0  0  0  0  0  0  0  0  0  0  0  0
   -5.4820   20.7640  -31.8810 N   0  0  0  0  0  0  0  0  0  0  0  0
   -4.4200   20.3710  -30.9450 C   0  0  0  0  0  0  0  0  0  0  0  0
   -3.2190   21.3210  -31.0260 C   0  0  0  0  0  0  0  0  0  0  0  0
   -3.6650   22.7250  -31.0250 N   0  0  0  0  0  0  0  0  0  0  0  0
   -2.9400   23.7560  -30.3180 C   0  0  0  0  0  0  0  0  0  0  0  0
   -3.4420   24.9090  -30.2080 O   0  0  0  0  0  0  0  0  0  0  0  0
   -1.6020   23.5030  -29.6760 C   0  0  0  0  0  0  0  0  0  0  0  0
   -1.3620   24.4490  -28.5830 N   0  0  0  0  0  0  0  0  0  0  0  0
   -1.0610   25.7260  -28.7730 N   0  0  0  0  0  0  0  0  0  0  0  0
   -0.8560   26.2820  -27.5620 C   0  0  0  0  0  0  0  0  0  0  0  0
   -0.4880   27.7130  -27.3540 C   0  0  0  0  0  0  0  0  0  0  0  0
   -1.0110   25.3260  -26.5750 C   0  0  0  0  0  0  0  0  0  0  0  0
   -0.8220   25.5700  -24.6880 Br  0  0  0  0  0  0  0  0  0  0  0  0
   -1.3180   24.1660  -27.2610 C   0  0  0  0  0  0  0  0  0  0  0  0
   -1.5900   22.8220  -26.6570 C   0  0  0  0  0  0  0  0  0  0  0  0
   -4.8210   23.1240  -31.8480 C   0  0  0  0  0  0  0  0  0  0  0  0
   -5.3390   21.9660  -32.7050 C   0  0  0  0  0  0  0  0  0  0  0  0
   -8.0108   21.9248  -29.3202 H   0  0  0  0  0  0  0  0  0  0  0  0
   -6.5147   22.6146  -30.0361 H   0  0  0  0  0  0  0  0  0  0  0  0
   -8.0346   23.5720  -30.0361 H   0  0  0  0  0  0  0  0  0  0  0  0
  -10.0961   20.3503  -31.5760 H   0  0  0  0  0  0  0  0  0  0  0  0
   -9.9881   17.9083  -32.0729 H   0  0  0  0  0  0  0  0  0  0  0  0
   -7.7855   16.8049  -32.4578 H   0  0  0  0  0  0  0  0  0  0  0  0
   -5.6834   18.1426  -32.3627 H   0  0  0  0  0  0  0  0  0  0  0  0
   -4.8215   20.3890  -29.9210 H   0  0  0  0  0  0  0  0  0  0  0  0
   -4.0792   19.3604  -31.2145 H   0  0  0  0  0  0  0  0  0  0  0  0
   -2.5638   21.1496  -30.1592 H   0  0  0  0  0  0  0  0  0  0  0  0
   -2.6742   21.1235  -31.9610 H   0  0  0  0  0  0  0  0  0  0  0  0
   -1.5815   22.4781  -29.2769 H   0  0  0  0  0  0  0  0  0  0  0  0
   -0.8165   23.6343  -30.4347 H   0  0  0  0  0  0  0  0  0  0  0  0
   -0.4336   27.9246  -26.2759 H   0  0  0  0  0  0  0  0  0  0  0  0
    0.4903   27.9110  -27.8164 H   0  0  0  0  0  0  0  0  0  0  0  0
   -1.2494   28.3583  -27.8164 H   0  0  0  0  0  0  0  0  0  0  0  0
   -1.5736   22.9029  -25.5601 H   0  0  0  0  0  0  0  0  0  0  0  0
   -2.5783   22.4664  -26.9837 H   0  0  0  0  0  0  0  0  0  0  0  0
   -0.8177   22.1101  -26.9837 H   0  0  0  0  0  0  0  0  0  0  0  0
   -5.6294   23.4645  -31.1843 H   0  0  0  0  0  0  0  0  0  0  0  0
   -4.4966   23.9293  -32.5235 H   0  0  0  0  0  0  0  0  0  0  0  0
   -6.3170   22.2356  -33.1304 H   0  0  0  0  0  0  0  0  0  0  0  0
   -4.6238   21.7668  -33.5167 H   0  0  0  0  0  0  0  0  0  0  0  0
  1  2  1  0
  2  3  1  0
  3  4  2  0
  4  5  1  0
  5  6  2  0
  6  7  1  0
  7  8  2  0
  8  9  1  0
  9 10  1  0
 10 11  1  0
 11 12  1  0
 12 13  1  0
 13 14  2  0
 13 15  1  0
 15 16  1  0
 16 17  1  0
 17 18  2  0
 18 19  1  0
 18 20  1  0
 20 21  1  0
 20 22  2  0
 22 23  1  0
 12 24  1  0
 24 25  1  0
  8  3  1  0
 25  9  1  0
 22 16  1  0
  1 26  1  0
  1 27  1  0
  1 28  1  0
  4 29  1  0
  5 30  1  0
  6 31  1  0
  7 32  1  0
 10 33  1  0
 10 34  1  0
 11 35  1  0
 11 36  1  0
 15 37  1  0
 15 38  1  0
 19 39  1  0
 19 40  1  0
 19 41  1  0
 23 42  1  0
 23 43  1  0
 23 44  1  0
 24 45  1  0
 24 46  1  0
 25 47  1  0
 25 48  1  0
M  END
>  <UniqueID>  (32) 
31

>  <SMILES>  (32) 
COc1ccccc1N1CCN(C(=O)Cn2nc(C)c(Br)c2C)CC1

>  <Energy>  (32) 
81.52112368096874

>  <Genealogy>  (32) 
COc1ccccc1N1CCN(C(=O)Cn2nc(C)c(Br)c2C)CC1 (3D coordinates assigned)
COc1ccccc1N1CCN(C(=O)Cn2nc(C)c(Br)c2C)CC1 (nonaromatic ring conformer: 81.52112368096874 kcal/mol)

>  <smiles>  (32) 
COc1ccccc1N1CCN(C(=O)Cn2nc(C)c(Br)c2C)CC1

>  <score_type>  (32) 
oracle

>  <origin>  (32) 
adg

>  <m_score__min__energy>  (32) 
-8.2200000000000006

>  <m_primary>  (32) 
energy

$$$$
32:0
     RDKit          3D

 38 40  0  0  0  0  0  0  0  0999 V2000
   -5.7400   25.3080  -30.0510 C   0  0  0  0  0  0  0  0  0  0  0  0
   -5.3510   24.6220  -31.2350 O   0  0  0  0  0  0  0  0  0  0  0  0
   -6.1250   23.6100  -31.8080 C   0  0  0  0  0  0  0  0  0  0  0  0
   -6.7150   23.8060  -32.9090 O   0  0  0  0  0  0  0  0  0  0  0  0
   -6.2370   22.2840  -31.0970 C   0  0  1  0  0  0  0  0  0  0  0  0
   -7.5650   22.1600  -30.3180 C   0  0  0  0  0  0  0  0  0  0  0  0
   -8.7880   21.8380  -31.2030 C   0  0  1  0  0  0  0  0  0  0  0  0
   -9.2980   23.0560  -31.9830 C   0  0  0  0  0  0  0  0  0  0  0  0
   -8.4990   20.6970  -32.1430 C   0  0  0  0  0  0  0  0  0  0  0  0
   -9.4640   20.0230  -32.5990 O   0  0  0  0  0  0  0  0  0  0  0  0
   -7.1120   20.3830  -32.5570 C   0  0  0  0  0  0  0  0  0  0  0  0
   -6.8470   19.3440  -33.4600 C   0  0  0  0  0  0  0  0  0  0  0  0
   -5.5340   19.0500  -33.8290 C   0  0  0  0  0  0  0  0  0  0  0  0
   -4.4750   19.7980  -33.2880 C   0  0  0  0  0  0  0  0  0  0  0  0
   -3.0610   19.5330  -33.6570 C   0  0  0  0  0  0  0  0  0  0  0  0
   -2.0840   20.5450  -33.6220 C   0  0  0  0  0  0  0  0  0  0  0  0
   -0.7660   20.2600  -33.9820 C   0  0  0  0  0  0  0  0  0  0  0  0
   -0.4280   18.9680  -34.3820 C   0  0  0  0  0  0  0  0  0  0  0  0
   -1.3800   17.9990  -34.4220 N   0  0  0  0  0  0  0  0  0  0  0  0
   -2.6710   18.2490  -34.0780 C   0  0  0  0  0  0  0  0  0  0  0  0
   -4.7590   20.8080  -32.4210 N   0  0  0  0  0  0  0  0  0  0  0  0
   -6.0270   21.1160  -32.0340 C   0  0  0  0  0  0  0  0  0  0  0  0
   -5.4145   24.7340  -29.1709 H   0  0  0  0  0  0  0  0  0  0  0  0
   -5.2719   26.3033  -30.0333 H   0  0  0  0  0  0  0  0  0  0  0  0
   -6.8344   25.4172  -30.0333 H   0  0  0  0  0  0  0  0  0  0  0  0
   -5.4226   22.2511  -30.3583 H   0  0  0  0  0  0  0  0  0  0  0  0
   -7.4556   21.3566  -29.5747 H   0  0  0  0  0  0  0  0  0  0  0  0
   -7.7558   23.1412  -29.8588 H   0  0  0  0  0  0  0  0  0  0  0  0
   -9.5906   21.5358  -30.5141 H   0  0  0  0  0  0  0  0  0  0  0  0
   -9.6237   23.8337  -31.2765 H   0  0  0  0  0  0  0  0  0  0  0  0
   -8.4896   23.4508  -32.6160 H   0  0  0  0  0  0  0  0  0  0  0  0
  -10.1465   22.7571  -32.6160 H   0  0  0  0  0  0  0  0  0  0  0  0
   -7.6780   18.7579  -33.8795 H   0  0  0  0  0  0  0  0  0  0  0  0
   -5.3289   18.2363  -34.5402 H   0  0  0  0  0  0  0  0  0  0  0  0
   -2.3597   21.5632  -33.3102 H   0  0  0  0  0  0  0  0  0  0  0  0
    0.0001   21.0487  -33.9504 H   0  0  0  0  0  0  0  0  0  0  0  0
    0.6087   18.7330  -34.6651 H   0  0  0  0  0  0  0  0  0  0  0  0
   -3.4160   17.4413  -34.1292 H   0  0  0  0  0  0  0  0  0  0  0  0
  1  2  1  0
  2  3  1  0
  3  4  2  0
  3  5  1  0
  5  6  1  0
  6  7  1  0
  7  8  1  0
  7  9  1  0
  9 10  2  0
  9 11  1  0
 11 12  2  0
 12 13  1  0
 13 14  2  0
 14 15  1  0
 15 16  2  0
 16 17  1  0
 17 18  2  0
 18 19  1  0
 19 20  2  0
 14 21  1  0
 21 22  2  0
 22  5  1  0
 22 11  1  0
 20 15  1  0
  1 23  1  0
  1 24  1  0
  1 25  1  0
  5 26  1  1
  6 27  1  0
  6 28  1  0
  7 29  1  1
  8 30  1  0
  8 31  1  0
  8 32  1  0
 12 33  1  0
 13 34  1  0
 16 35  1  0
 17 36  1  0
 18 37  1  0
 20 38  1  0
M  END
>  <UniqueID>  (33) 
32

>  <SMILES>  (33) 
COC(=O)[C@H]1C[C@@H](C)C(=O)c2ccc(-c3cccnc3)nc21

>  <Energy>  (33) 
43.54714229346767

>  <Genealogy>  (33) 
COC(=O)[C@H]1C[C@@H](C)C(=O)c2ccc(-c3cccnc3)nc21 (chirality)
COC(=O)[C@H]1C[C@@H](C)C(=O)c2ccc(-c3cccnc3)nc21 (3D coordinates assigned)
COC(=O)[C@H]1C[C@@H](C)C(=O)c2ccc(-c3cccnc3)nc21 (nonaromatic ring conformer: 43.54714229346767 kcal/mol)

>  <smiles>  (33) 
COC(=O)C1CC(C)C(=O)c2ccc(-c3cccnc3)nc21

>  <score_type>  (33) 
oracle

>  <origin>  (33) 
adg

>  <m_score__min__energy>  (33) 
-7.9400000000000004

>  <m_primary>  (33) 
energy

$$$$
33:0
     RDKit          3D

 55 57  0  0  0  0  0  0  0  0999 V2000
   -6.1400   17.1910  -31.2060 C   0  0  0  0  0  0  0  0  0  0  0  0
   -6.1600   17.0620  -32.7290 C   0  0  0  0  0  0  0  0  0  0  0  0
   -4.8310   17.3500  -33.3190 N   0  0  0  0  0  0  0  0  0  0  0  0
   -4.2500   16.1540  -33.9820 C   0  0  0  0  0  0  0  0  0  0  0  0
   -3.5930   16.5600  -35.2970 C   0  0  0  0  0  0  0  0  0  0  0  0
   -4.9300   18.4990  -34.2500 C   0  0  0  0  0  0  0  0  0  0  0  0
   -4.2960   19.7740  -33.6550 C   0  0  0  0  0  0  0  0  0  0  0  0
   -4.5670   19.9070  -32.2220 N   0  0  0  0  0  0  0  0  0  0  0  0
   -5.2380   21.0730  -31.7180 C   0  0  0  0  0  0  0  0  0  0  0  0
   -6.6400   21.1290  -31.7050 C   0  0  0  0  0  0  0  0  0  0  0  0
   -7.4090   20.0530  -32.1990 C   0  0  0  0  0  0  0  0  0  0  0  0
   -8.7980   20.0810  -32.1300 C   0  0  0  0  0  0  0  0  0  0  0  0
   -9.4440   21.1720  -31.5570 C   0  0  0  0  0  0  0  0  0  0  0  0
   -8.7060   22.2540  -31.0810 C   0  0  0  0  0  0  0  0  0  0  0  0
   -7.2910   22.2760  -31.1780 C   0  0  0  0  0  0  0  0  0  0  0  0
   -6.5470   23.3660  -30.7610 N   0  0  0  0  0  0  0  0  0  0  0  0
   -7.2180   24.6540  -30.4770 C   0  0  0  0  0  0  0  0  0  0  0  0
   -5.1730   23.2620  -30.6420 C   0  0  0  0  0  0  0  0  0  0  0  0
   -4.4000   24.2550  -29.9870 C   0  0  0  0  0  0  0  0  0  0  0  0
   -3.0060   24.1680  -29.9150 C   0  0  0  0  0  0  0  0  0  0  0  0
   -2.2840   25.2210  -29.2600 N   0  0  0  0  0  0  0  0  0  0  0  0
   -1.2700   25.0650  -28.2590 C   0  0  0  0  0  0  0  0  0  0  0  0
   -1.6340   25.2050  -26.8190 C   0  0  0  0  0  0  0  0  0  0  0  0
   -0.1000   24.7170  -28.5720 O   0  0  0  0  0  0  0  0  0  0  0  0
   -2.3530   23.0940  -30.5310 C   0  0  0  0  0  0  0  0  0  0  0  0
   -3.0890   22.0830  -31.1400 C   0  0  0  0  0  0  0  0  0  0  0  0
   -4.4960   22.1320  -31.1690 C   0  0  0  0  0  0  0  0  0  0  0  0
   -6.2935   16.2008  -30.7521 H   0  0  0  0  0  0  0  0  0  0  0  0
   -5.1685   17.5949  -30.8850 H   0  0  0  0  0  0  0  0  0  0  0  0
   -6.9436   17.8701  -30.8850 H   0  0  0  0  0  0  0  0  0  0  0  0
   -6.4546   16.0365  -32.9965 H   0  0  0  0  0  0  0  0  0  0  0  0
   -6.8786   17.7938  -33.1266 H   0  0  0  0  0  0  0  0  0  0  0  0
   -3.4959   15.7007  -33.3218 H   0  0  0  0  0  0  0  0  0  0  0  0
   -5.0501   15.4269  -34.1852 H   0  0  0  0  0  0  0  0  0  0  0  0
   -2.6743   17.1277  -35.0880 H   0  0  0  0  0  0  0  0  0  0  0  0
   -3.3433   15.6585  -35.8758 H   0  0  0  0  0  0  0  0  0  0  0  0
   -4.2875   17.1866  -35.8758 H   0  0  0  0  0  0  0  0  0  0  0  0
   -4.4095   18.2455  -35.1853 H   0  0  0  0  0  0  0  0  0  0  0  0
   -5.9958   18.7002  -34.4332 H   0  0  0  0  0  0  0  0  0  0  0  0
   -3.2074   19.7333  -33.8078 H   0  0  0  0  0  0  0  0  0  0  0  0
   -4.7386   20.6421  -34.1654 H   0  0  0  0  0  0  0  0  0  0  0  0
   -4.1890   19.2230  -31.5290 H   0  0  0  0  0  0  0  0  0  0  0  0
   -6.9040   19.1827  -32.6435 H   0  0  0  0  0  0  0  0  0  0  0  0
   -9.3856   19.2408  -32.5284 H   0  0  0  0  0  0  0  0  0  0  0  0
  -10.5412   21.1805  -31.4794 H   0  0  0  0  0  0  0  0  0  0  0  0
   -9.2297   23.1056  -30.6222 H   0  0  0  0  0  0  0  0  0  0  0  0
   -7.2923   24.7966  -29.3888 H   0  0  0  0  0  0  0  0  0  0  0  0
   -6.6337   25.4764  -30.9155 H   0  0  0  0  0  0  0  0  0  0  0  0
   -8.2268   24.6464  -30.9155 H   0  0  0  0  0  0  0  0  0  0  0  0
   -4.9091   25.1136  -29.5248 H   0  0  0  0  0  0  0  0  0  0  0  0
   -0.7892   24.8801  -26.1940 H   0  0  0  0  0  0  0  0  0  0  0  0
   -1.8682   26.2574  -26.6006 H   0  0  0  0  0  0  0  0  0  0  0  0
   -2.5130   24.5808  -26.6006 H   0  0  0  0  0  0  0  0  0  0  0  0
   -1.2539   23.0494  -30.5335 H   0  0  0  0  0  0  0  0  0  0  0  0
   -2.5654   21.2346  -31.6048 H   0  0  0  0  0  0  0  0  0  0  0  0
  1  2  1  0
  2  3  1  0
  3  4  1  0
  4  5  1  0
  3  6  1  0
  6  7  1  0
  7  8  1  0
  8  9  1  0
  9 10  2  0
 10 11  1  0
 11 12  2  0
 12 13  1  0
 13 14  2  0
 14 15  1  0
 15 16  2  0
 16 17  1  0
 16 18  1  0
 18 19  2  0
 19 20  1  0
 20 21  1  0
 21 22  1  0
 22 23  1  0
 22 24  2  0
 20 25  2  0
 25 26  1  0
 26 27  2  0
 27  9  1  0
 15 10  1  0
 27 18  1  0
  1 28  1  0
  1 29  1  0
  1 30  1  0
  2 31  1  0
  2 32  1  0
  4 33  1  0
  4 34  1  0
  5 35  1  0
  5 36  1  0
  5 37  1  0
  6 38  1  0
  6 39  1  0
  7 40  1  0
  7 41  1  0
  8 42  1  0
 11 43  1  0
 12 44  1  0
 13 45  1  0
 14 46  1  0
 17 47  1  0
 17 48  1  0
 17 49  1  0
 19 50  1  0
 23 51  1  0
 23 52  1  0
 23 53  1  0
 25 54  1  0
 26 55  1  0
M  CHG  2  16   1  21  -1
M  END
>  <UniqueID>  (34) 
33

>  <SMILES>  (34) 
CCN(CC)CCNc1c2ccccc2[n+](C)c2cc([N-]C(C)=O)ccc12

>  <Energy>  (34) 
85.01019937212573

>  <Genealogy>  (34) 
CCN(CC)CCNc1c2ccccc2[n+](C)c2cc([N-]C(C)=O)ccc12 (protonated)
CCN(CC)CCNc1c2ccccc2[n+](C)c2cc([N-]C(C)=O)ccc12 (3D coordinates assigned)
CCN(CC)CCNc1c2ccccc2[n+](C)c2cc([N-]C(C)=O)ccc12 (optimized conformer: 85.01019937212573 kcal/mol)

>  <smiles>  (34) 
CCN(CC)CCNc1c2ccccc2[n+](C)c2cc(NC(C)=O)ccc12

>  <score_type>  (34) 
oracle

>  <origin>  (34) 
adg

>  <m_score__min__energy>  (34) 
-9.3000000000000007

>  <m_primary>  (34) 
energy

$$$$
34:0
     RDKit          3D

 56 58  0  0  0  0  0  0  0  0999 V2000
   -5.1920   25.4140  -30.6420 C   0  0  0  0  0  0  0  0  0  0  0  0
   -3.7990   25.1820  -30.4330 O   0  0  0  0  0  0  0  0  0  0  0  0
   -3.2800   24.1480  -29.6400 C   0  0  0  0  0  0  0  0  0  0  0  0
   -3.7980   23.8440  -28.3650 C   0  0  0  0  0  0  0  0  0  0  0  0
   -3.2580   22.7910  -27.6190 C   0  0  0  0  0  0  0  0  0  0  0  0
   -2.1970   22.0390  -28.1340 C   0  0  0  0  0  0  0  0  0  0  0  0
   -1.6590   22.3340  -29.3930 C   0  0  0  0  0  0  0  0  0  0  0  0
   -0.5900   21.5460  -29.8570 O   0  0  0  0  0  0  0  0  0  0  0  0
   -0.6980   20.2330  -30.4170 C   0  0  0  0  0  0  0  0  0  0  0  0
   -0.4600   20.2470  -31.9400 C   0  0  2  0  0  0  0  0  0  0  0  0
    0.5230   21.2030  -32.2450 O   0  0  0  0  0  0  0  0  0  0  0  0
   -1.7750   20.5280  -32.7090 C   0  0  0  0  0  0  0  0  0  0  0  0
   -3.0030   19.8860  -32.1660 N   0  0  0  0  0  0  0  0  0  0  0  0
   -3.6620   20.6200  -31.0500 C   0  0  0  0  0  0  0  0  0  0  0  0
   -4.8380   21.5050  -31.4780 C   0  0  0  0  0  0  0  0  0  0  0  0
   -5.7230   20.7590  -32.3560 N   0  0  0  0  0  0  0  0  0  0  0  0
   -7.1550   20.8550  -32.2300 C   0  0  0  0  0  0  0  0  0  0  0  0
   -7.7340   22.0860  -31.8780 C   0  0  0  0  0  0  0  0  0  0  0  0
   -9.1210   22.2100  -31.7660 C   0  0  0  0  0  0  0  0  0  0  0  0
   -9.9430   21.1080  -32.0000 C   0  0  0  0  0  0  0  0  0  0  0  0
   -9.3800   19.8730  -32.3410 C   0  0  0  0  0  0  0  0  0  0  0  0
   -7.9810   19.7320  -32.4540 C   0  0  0  0  0  0  0  0  0  0  0  0
   -7.3840   18.4970  -32.7700 O   0  0  0  0  0  0  0  0  0  0  0  0
   -6.8230   17.6020  -31.8140 C   0  0  0  0  0  0  0  0  0  0  0  0
   -5.1340   20.1730  -33.5580 C   0  0  0  0  0  0  0  0  0  0  0  0
   -3.9180   19.3040  -33.1930 C   0  0  0  0  0  0  0  0  0  0  0  0
   -2.2110   23.3920  -30.1460 C   0  0  0  0  0  0  0  0  0  0  0  0
   -5.6996   25.4985  -29.6698 H   0  0  0  0  0  0  0  0  0  0  0  0
   -5.3274   26.3471  -31.2086 H   0  0  0  0  0  0  0  0  0  0  0  0
   -5.6225   24.5752  -31.2086 H   0  0  0  0  0  0  0  0  0  0  0  0
   -4.6293   24.4365  -27.9553 H   0  0  0  0  0  0  0  0  0  0  0  0
   -3.6683   22.5541  -26.6262 H   0  0  0  0  0  0  0  0  0  0  0  0
   -1.7813   21.2083  -27.5448 H   0  0  0  0  0  0  0  0  0  0  0  0
    0.0505   19.5801  -29.9443 H   0  0  0  0  0  0  0  0  0  0  0  0
   -1.7161   19.8608  -30.2302 H   0  0  0  0  0  0  0  0  0  0  0  0
   -0.1071   19.2552  -32.2591 H   0  0  0  0  0  0  0  0  0  0  0  0
    0.5860   21.8340  -31.4810 H   0  0  0  0  0  0  0  0  0  0  0  0
   -1.9374   21.6159  -32.7101 H   0  0  0  0  0  0  0  0  0  0  0  0
   -1.6312   20.0910  -33.7082 H   0  0  0  0  0  0  0  0  0  0  0  0
   -2.6020   19.0390  -31.6920 H   0  0  0  0  0  0  0  0  0  0  0  0
   -4.0342   19.8810  -30.3252 H   0  0  0  0  0  0  0  0  0  0  0  0
   -2.9020   21.2930  -30.6264 H   0  0  0  0  0  0  0  0  0  0  0  0
   -5.3955   21.8275  -30.5863 H   0  0  0  0  0  0  0  0  0  0  0  0
   -4.4532   22.3852  -32.0138 H   0  0  0  0  0  0  0  0  0  0  0  0
   -7.0907   22.9581  -31.6893 H   0  0  0  0  0  0  0  0  0  0  0  0
   -9.5654   23.1784  -31.4928 H   0  0  0  0  0  0  0  0  0  0  0  0
  -11.0351   21.2096  -31.9164 H   0  0  0  0  0  0  0  0  0  0  0  0
  -10.0328   19.0064  -32.5221 H   0  0  0  0  0  0  0  0  0  0  0  0
   -7.0482   17.9613  -30.7990 H   0  0  0  0  0  0  0  0  0  0  0  0
   -7.2548   16.5998  -31.9524 H   0  0  0  0  0  0  0  0  0  0  0  0
   -5.7328   17.5538  -31.9524 H   0  0  0  0  0  0  0  0  0  0  0  0
   -5.8864   19.5492  -34.0627 H   0  0  0  0  0  0  0  0  0  0  0  0
   -4.8049   20.9837  -34.2246 H   0  0  0  0  0  0  0  0  0  0  0  0
   -4.2902   18.3421  -32.8106 H   0  0  0  0  0  0  0  0  0  0  0  0
   -3.3228   19.2117  -34.1134 H   0  0  0  0  0  0  0  0  0  0  0  0
   -1.7997   23.6265  -31.1389 H   0  0  0  0  0  0  0  0  0  0  0  0
  1  2  1  0
  2  3  1  0
  3  4  2  0
  4  5  1  0
  5  6  2  0
  6  7  1  0
  7  8  1  0
  8  9  1  0
  9 10  1  0
 10 11  1  0
 10 12  1  0
 12 13  1  0
 13 14  1  0
 14 15  1  0
 15 16  1  0
 16 17  1  0
 17 18  2  0
 18 19  1  0
 19 20  2  0
 20 21  1  0
 21 22  2  0
 22 23  1  0
 23 24  1  0
 16 25  1  0
 25 26  1  0
  7 27  2  0
 27  3  1  0
 26 13  1  0
 22 17  1  0
  1 28  1  0
  1 29  1  0
  1 30  1  0
  4 31  1  0
  5 32  1  0
  6 33  1  0
  9 34  1  0
  9 35  1  0
 10 36  1  6
 11 37  1  0
 12 38  1  0
 12 39  1  0
 13 40  1  0
 14 41  1  0
 14 42  1  0
 15 43  1  0
 15 44  1  0
 18 45  1  0
 19 46  1  0
 20 47  1  0
 21 48  1  0
 24 49  1  0
 24 50  1  0
 24 51  1  0
 25 52  1  0
 25 53  1  0
 26 54  1  0
 26 55  1  0
 27 56  1  0
M  CHG  1  13   1
M  END
>  <UniqueID>  (35) 
34

>  <SMILES>  (35) 
COc1cccc(OC[C@H](O)C[NH+]2CCN(c3ccccc3OC)CC2)c1

>  <Energy>  (35) 
74.1166124757032

>  <Genealogy>  (35) 
COc1cccc(OCC(O)C[NH+]2CCN(c3ccccc3OC)CC2)c1 (protonated)
COc1cccc(OC[C@H](O)C[NH+]2CCN(c3ccccc3OC)CC2)c1 (chirality)
COc1cccc(OC[C@H](O)C[NH+]2CCN(c3ccccc3OC)CC2)c1 (3D coordinates assigned)
COc1cccc(OC[C@H](O)C[NH+]2CCN(c3ccccc3OC)CC2)c1 (nonaromatic ring conformer: 74.1166124757032 kcal/mol)

>  <smiles>  (35) 
COc1cccc(OCC(O)CN2CCN(c3ccccc3OC)CC2)c1

>  <score_type>  (35) 
oracle

>  <origin>  (35) 
adg

>  <m_score__min__energy>  (35) 
-7.0099999999999998

>  <m_primary>  (35) 
energy

$$$$
35:0
     RDKit          3D

 50 53  0  0  0  0  0  0  0  0999 V2000
   -5.0190   16.6750  -32.3980 C   0  0  0  0  0  0  0  0  0  0  0  0
   -6.1400   17.0640  -33.2720 N   0  0  0  0  0  0  0  0  0  0  0  0
   -7.2770   17.6050  -32.4980 C   0  0  0  0  0  0  0  0  0  0  0  0
   -6.9420   18.9650  -31.8650 C   0  0  0  0  0  0  0  0  0  0  0  0
   -6.1630   19.7930  -32.7890 N   0  0  0  0  0  0  0  0  0  0  0  0
   -5.7730   21.1060  -32.3630 C   0  0  0  0  0  0  0  0  0  0  0  0
   -6.6680   21.8820  -31.6930 N   0  0  0  0  0  0  0  0  0  0  0  0
   -6.3110   23.0820  -31.1640 C   0  0  0  0  0  0  0  0  0  0  0  0
   -7.2460   23.8650  -30.4810 C   0  0  0  0  0  0  0  0  0  0  0  0
   -6.8500   25.0830  -29.9140 C   0  0  0  0  0  0  0  0  0  0  0  0
   -5.5250   25.5180  -30.0370 C   0  0  0  0  0  0  0  0  0  0  0  0
   -4.5900   24.7400  -30.7250 C   0  0  0  0  0  0  0  0  0  0  0  0
   -4.9780   23.5200  -31.2860 C   0  0  0  0  0  0  0  0  0  0  0  0
   -4.0810   22.7420  -31.9430 N   0  0  0  0  0  0  0  0  0  0  0  0
   -4.4420   21.5560  -32.5000 C   0  0  0  0  0  0  0  0  0  0  0  0
   -3.1940   20.5630  -33.3300 S   0  0  0  0  0  0  0  0  0  0  0  0
   -1.7620   21.5560  -32.7740 C   0  0  0  0  0  0  0  0  0  0  0  0
   -1.3970   21.2510  -31.3580 C   0  0  0  0  0  0  0  0  0  0  0  0
   -1.2840   20.0540  -30.9870 O   0  0  0  0  0  0  0  0  0  0  0  0
   -1.1150   22.3220  -30.4510 N   0  0  0  0  0  0  0  0  0  0  0  0
   -2.0150   22.7810  -29.4360 C   0  0  0  0  0  0  0  0  0  0  0  0
   -3.0640   21.9670  -28.9760 C   0  0  0  0  0  0  0  0  0  0  0  0
   -3.9190   22.4260  -27.9710 C   0  0  0  0  0  0  0  0  0  0  0  0
   -3.7400   23.7030  -27.4310 C   0  0  0  0  0  0  0  0  0  0  0  0
   -2.7210   24.5310  -27.9120 C   0  0  0  0  0  0  0  0  0  0  0  0
   -1.8650   24.0770  -28.9200 C   0  0  0  0  0  0  0  0  0  0  0  0
   -0.8650   24.8810  -29.3640 F   0  0  0  0  0  0  0  0  0  0  0  0
   -6.1110   19.4310  -34.2050 C   0  0  0  0  0  0  0  0  0  0  0  0
   -5.6990   17.9550  -34.3780 C   0  0  0  0  0  0  0  0  0  0  0  0
   -5.3212   16.7799  -31.3455 H   0  0  0  0  0  0  0  0  0  0  0  0
   -4.7440   15.6289  -32.5981 H   0  0  0  0  0  0  0  0  0  0  0  0
   -4.1551   17.3259  -32.5981 H   0  0  0  0  0  0  0  0  0  0  0  0
   -8.1388   17.7280  -33.1704 H   0  0  0  0  0  0  0  0  0  0  0  0
   -7.5055   16.8978  -31.6870 H   0  0  0  0  0  0  0  0  0  0  0  0
   -7.8778   19.4865  -31.6153 H   0  0  0  0  0  0  0  0  0  0  0  0
   -6.3446   18.7931  -30.9575 H   0  0  0  0  0  0  0  0  0  0  0  0
   -8.2884   23.5261  -30.3892 H   0  0  0  0  0  0  0  0  0  0  0  0
   -7.5817   25.6991  -29.3709 H   0  0  0  0  0  0  0  0  0  0  0  0
   -5.2188   26.4756  -29.5905 H   0  0  0  0  0  0  0  0  0  0  0  0
   -3.5509   25.0870  -30.8248 H   0  0  0  0  0  0  0  0  0  0  0  0
   -0.9005   21.3329  -33.4206 H   0  0  0  0  0  0  0  0  0  0  0  0
   -2.0360   22.6195  -32.8369 H   0  0  0  0  0  0  0  0  0  0  0  0
   -3.2123   20.9663  -29.4081 H   0  0  0  0  0  0  0  0  0  0  0  0
   -4.7328   21.7828  -27.6047 H   0  0  0  0  0  0  0  0  0  0  0  0
   -4.4016   24.0569  -26.6267 H   0  0  0  0  0  0  0  0  0  0  0  0
   -2.5926   25.5414  -27.4966 H   0  0  0  0  0  0  0  0  0  0  0  0
   -7.1041   19.5831  -34.6528 H   0  0  0  0  0  0  0  0  0  0  0  0
   -5.3646   20.0663  -34.7042 H   0  0  0  0  0  0  0  0  0  0  0  0
   -6.1366   17.5826  -35.3160 H   0  0  0  0  0  0  0  0  0  0  0  0
   -4.5992   17.9328  -34.3816 H   0  0  0  0  0  0  0  0  0  0  0  0
  1  2  1  0
  2  3  1  0
  3  4  1  0
  4  5  1  0
  5  6  1  0
  6  7  2  0
  7  8  1  0
  8  9  2  0
  9 10  1  0
 10 11  2  0
 11 12  1  0
 12 13  2  0
 13 14  1  0
 14 15  2  0
 15 16  1  0
 16 17  1  0
 17 18  1  0
 18 19  2  0
 18 20  1  0
 20 21  1  0
 21 22  2  0
 22 23  1  0
 23 24  2  0
 24 25  1  0
 25 26  2  0
 26 27  1  0
  5 28  1  0
 28 29  1  0
 29  2  1  0
 15  6  1  0
 26 21  1  0
 13  8  1  0
  1 30  1  0
  1 31  1  0
  1 32  1  0
  3 33  1  0
  3 34  1  0
  4 35  1  0
  4 36  1  0
  9 37  1  0
 10 38  1  0
 11 39  1  0
 12 40  1  0
 17 41  1  0
 17 42  1  0
 22 43  1  0
 23 44  1  0
 24 45  1  0
 25 46  1  0
 28 47  1  0
 28 48  1  0
 29 49  1  0
 29 50  1  0
M  CHG  1  20  -1
M  END
>  <UniqueID>  (36) 
35

>  <SMILES>  (36) 
CN1CCN(c2nc3ccccc3nc2SCC(=O)[N-]c2ccccc2F)CC1

>  <Energy>  (36) 
68.53148047265522

>  <Genealogy>  (36) 
CN1CCN(c2nc3ccccc3nc2SCC(=O)[N-]c2ccccc2F)CC1 (protonated)
CN1CCN(c2nc3ccccc3nc2SCC(=O)[N-]c2ccccc2F)CC1 (3D coordinates assigned)
CN1CCN(c2nc3ccccc3nc2SCC(=O)[N-]c2ccccc2F)CC1 (nonaromatic ring conformer: 68.53148047265522 kcal/mol)

>  <smiles>  (36) 
CN1CCN(c2nc3ccccc3nc2SCC(=O)Nc2ccccc2F)CC1

>  <score_type>  (36) 
oracle

>  <origin>  (36) 
adg

>  <m_score__min__energy>  (36) 
-10.66

>  <m_primary>  (36) 
energy

$$$$
36:0
     RDKit          3D

 42 43  0  0  0  0  0  0  0  0999 V2000
   -2.0740   21.3250  -31.4340 C   0  0  0  0  0  0  0  0  0  0  0  0
   -2.4440   20.7340  -30.0740 C   0  0  0  0  0  0  0  0  0  0  0  0
   -2.9470   21.7540  -29.1410 N   0  0  0  0  0  0  0  0  0  0  0  0
   -3.1600   21.4090  -27.7250 C   0  0  0  0  0  0  0  0  0  0  0  0
   -2.6160   20.0200  -27.4210 C   0  0  0  0  0  0  0  0  0  0  0  0
   -3.7180   22.8350  -29.6970 C   0  0  0  0  0  0  0  0  0  0  0  0
   -5.0000   22.5640  -30.2000 C   0  0  0  0  0  0  0  0  0  0  0  0
   -5.7630   23.5690  -30.7920 C   0  0  0  0  0  0  0  0  0  0  0  0
   -7.0360   23.2540  -31.2910 O   0  0  0  0  0  0  0  0  0  0  0  0
   -7.4340   21.9960  -31.7670 C   0  0  0  0  0  0  0  0  0  0  0  0
   -8.6910   21.5040  -31.3940 C   0  0  0  0  0  0  0  0  0  0  0  0
   -9.1310   20.2610  -31.8610 C   0  0  0  0  0  0  0  0  0  0  0  0
   -8.3200   19.5070  -32.7150 C   0  0  0  0  0  0  0  0  0  0  0  0
   -7.0730   20.0000  -33.1080 C   0  0  0  0  0  0  0  0  0  0  0  0
   -6.6310   21.2420  -32.6430 C   0  0  0  0  0  0  0  0  0  0  0  0
   -5.2070   24.8490  -30.9150 C   0  0  0  0  0  0  0  0  0  0  0  0
   -3.9610   25.0990  -30.4370 N   0  0  0  0  0  0  0  0  0  0  0  0
   -3.2010   24.1470  -29.8270 C   0  0  0  0  0  0  0  0  0  0  0  0
   -1.8680   24.5490  -29.3300 C   0  0  0  0  0  0  0  0  0  0  0  0
   -0.9500   23.6860  -29.2710 O   0  0  0  0  0  0  0  0  0  0  0  0
   -1.6050   25.8680  -28.9600 O   0  0  0  0  0  0  0  0  0  0  0  0
   -0.9260   26.2090  -27.7580 C   0  0  0  0  0  0  0  0  0  0  0  0
   -1.4955   22.2490  -31.2871 H   0  0  0  0  0  0  0  0  0  0  0  0
   -1.4688   20.5991  -31.9969 H   0  0  0  0  0  0  0  0  0  0  0  0
   -2.9914   21.5523  -31.9969 H   0  0  0  0  0  0  0  0  0  0  0  0
   -3.2240   19.9722  -30.2196 H   0  0  0  0  0  0  0  0  0  0  0  0
   -1.5335   20.2978  -29.6373 H   0  0  0  0  0  0  0  0  0  0  0  0
   -2.6430   22.1455  -27.0923 H   0  0  0  0  0  0  0  0  0  0  0  0
   -4.2402   21.4185  -27.5177 H   0  0  0  0  0  0  0  0  0  0  0  0
   -2.5605   19.8783  -26.3316 H   0  0  0  0  0  0  0  0  0  0  0  0
   -3.2835   19.2615  -27.8559 H   0  0  0  0  0  0  0  0  0  0  0  0
   -1.6109   19.9166  -27.8559 H   0  0  0  0  0  0  0  0  0  0  0  0
   -5.4079   21.5451  -30.1260 H   0  0  0  0  0  0  0  0  0  0  0  0
   -9.3359   22.0983  -30.7301 H   0  0  0  0  0  0  0  0  0  0  0  0
  -10.1155   19.8764  -31.5563 H   0  0  0  0  0  0  0  0  0  0  0  0
   -8.6634   18.5267  -33.0771 H   0  0  0  0  0  0  0  0  0  0  0  0
   -6.4378   19.4096  -33.7847 H   0  0  0  0  0  0  0  0  0  0  0  0
   -5.6530   21.6310  -32.9626 H   0  0  0  0  0  0  0  0  0  0  0  0
   -5.7808   25.6527  -31.3996 H   0  0  0  0  0  0  0  0  0  0  0  0
   -1.5343   25.9035  -26.8939 H   0  0  0  0  0  0  0  0  0  0  0  0
    0.0439   25.6910  -27.7251 H   0  0  0  0  0  0  0  0  0  0  0  0
   -0.7623   27.2963  -27.7251 H   0  0  0  0  0  0  0  0  0  0  0  0
  1  2  1  0
  2  3  1  0
  3  4  1  0
  4  5  1  0
  3  6  1  0
  6  7  2  0
  7  8  1  0
  8  9  1  0
  9 10  1  0
 10 11  2  0
 11 12  1  0
 12 13  2  0
 13 14  1  0
 14 15  2  0
  8 16  2  0
 16 17  1  0
 17 18  2  0
 18 19  1  0
 19 20  2  0
 19 21  1  0
 21 22  1  0
 18  6  1  0
 15 10  1  0
  1 23  1  0
  1 24  1  0
  1 25  1  0
  2 26  1  0
  2 27  1  0
  4 28  1  0
  4 29  1  0
  5 30  1  0
  5 31  1  0
  5 32  1  0
  7 33  1  0
 11 34  1  0
 12 35  1  0
 13 36  1  0
 14 37  1  0
 15 38  1  0
 16 39  1  0
 22 40  1  0
 22 41  1  0
 22 42  1  0
M  END
>  <UniqueID>  (37) 
36

>  <SMILES>  (37) 
CCN(CC)c1cc(Oc2ccccc2)cnc1C(=O)OC

>  <Energy>  (37) 
48.586606768513306

>  <Genealogy>  (37) 
CCN(CC)c1cc(Oc2ccccc2)cnc1C(=O)OC (3D coordinates assigned)
CCN(CC)c1cc(Oc2ccccc2)cnc1C(=O)OC (optimized conformer: 48.586606768513306 kcal/mol)

>  <smiles>  (37) 
CCN(CC)c1cc(Oc2ccccc2)cnc1C(=O)OC

>  <score_type>  (37) 
oracle

>  <origin>  (37) 
adg

>  <m_score__min__energy>  (37) 
-7.0300000000000002

>  <m_primary>  (37) 
energy

$$$$
37:0
     RDKit          3D

 57 60  0  0  0  0  0  0  0  0999 V2000
   -0.4480   22.4410  -24.0500 C   0  0  0  0  0  0  0  0  0  0  0  0
    0.3380   23.6440  -24.3260 N   0  0  0  0  0  0  0  0  0  0  0  0
   -0.5460   24.8050  -24.4760 C   0  0  0  0  0  0  0  0  0  0  0  0
   -0.2920   25.4820  -25.8240 C   0  0  0  0  0  0  0  0  0  0  0  0
   -1.3820   25.1370  -26.8050 C   0  0  0  0  0  0  0  0  0  0  0  0
   -1.0890   25.0000  -28.1710 C   0  0  0  0  0  0  0  0  0  0  0  0
   -2.0940   24.6450  -29.0750 C   0  0  0  0  0  0  0  0  0  0  0  0
   -3.3990   24.4010  -28.6230 C   0  0  0  0  0  0  0  0  0  0  0  0
   -4.4670   24.0390  -29.5770 C   0  0  0  0  0  0  0  0  0  0  0  0
   -5.4490   24.9140  -30.0050 C   0  0  0  0  0  0  0  0  0  0  0  0
   -6.2680   24.2030  -30.8530 C   0  0  0  0  0  0  0  0  0  0  0  0
   -5.7550   22.9220  -30.9130 C   0  0  0  0  0  0  0  0  0  0  0  0
   -6.3880   21.8100  -31.6470 C   0  0  0  0  0  0  0  0  0  0  0  0
   -7.7070   21.4260  -31.3620 C   0  0  0  0  0  0  0  0  0  0  0  0
   -8.3090   20.3900  -32.0830 C   0  0  0  0  0  0  0  0  0  0  0  0
   -7.5970   19.7300  -33.0900 C   0  0  0  0  0  0  0  0  0  0  0  0
   -6.2770   20.0980  -33.3670 C   0  0  0  0  0  0  0  0  0  0  0  0
   -5.6700   21.1290  -32.6450 C   0  0  0  0  0  0  0  0  0  0  0  0
   -4.6540   22.8130  -30.1270 N   0  0  0  0  0  0  0  0  0  0  0  0
   -4.0010   21.5590  -29.7240 C   0  0  0  0  0  0  0  0  0  0  0  0
   -2.6480   21.4430  -30.3780 C   0  0  0  0  0  0  0  0  0  0  0  0
   -1.4930   21.3520  -29.5870 C   0  0  0  0  0  0  0  0  0  0  0  0
   -0.2400   21.1960  -30.1850 C   0  0  0  0  0  0  0  0  0  0  0  0
   -0.1320   21.1150  -31.5760 C   0  0  0  0  0  0  0  0  0  0  0  0
   -1.2800   21.1850  -32.3790 C   0  0  0  0  0  0  0  0  0  0  0  0
   -1.1680   21.1200  -33.8720 C   0  0  0  0  0  0  0  0  0  0  0  0
   -2.5330   21.3730  -31.7760 C   0  0  0  0  0  0  0  0  0  0  0  0
   -3.6940   24.5450  -27.2590 C   0  0  0  0  0  0  0  0  0  0  0  0
   -2.6900   24.9000  -26.3540 C   0  0  0  0  0  0  0  0  0  0  0  0
   -0.5380   22.3033  -22.9624 H   0  0  0  0  0  0  0  0  0  0  0  0
   -1.4503   22.5489  -24.4901 H   0  0  0  0  0  0  0  0  0  0  0  0
    0.0534   21.5664  -24.4901 H   0  0  0  0  0  0  0  0  0  0  0  0
    0.9550   23.8090  -23.4960 H   0  0  0  0  0  0  0  0  0  0  0  0
   -1.5939   24.4744  -24.4256 H   0  0  0  0  0  0  0  0  0  0  0  0
   -0.3429   25.5218  -23.6667 H   0  0  0  0  0  0  0  0  0  0  0  0
   -0.2659   26.5724  -25.6815 H   0  0  0  0  0  0  0  0  0  0  0  0
    0.6695   25.1270  -26.2233 H   0  0  0  0  0  0  0  0  0  0  0  0
   -0.0642   25.1728  -28.5314 H   0  0  0  0  0  0  0  0  0  0  0  0
   -1.8603   24.5565  -30.1462 H   0  0  0  0  0  0  0  0  0  0  0  0
   -5.5550   25.9719  -29.7228 H   0  0  0  0  0  0  0  0  0  0  0  0
   -7.1567   24.5810  -31.3796 H   0  0  0  0  0  0  0  0  0  0  0  0
   -8.2691   21.9413  -30.5692 H   0  0  0  0  0  0  0  0  0  0  0  0
   -9.3441   20.0936  -31.8579 H   0  0  0  0  0  0  0  0  0  0  0  0
   -8.0752   18.9222  -33.6634 H   0  0  0  0  0  0  0  0  0  0  0  0
   -5.7151   19.5749  -34.1548 H   0  0  0  0  0  0  0  0  0  0  0  0
   -4.6276   21.4083  -32.8583 H   0  0  0  0  0  0  0  0  0  0  0  0
   -3.8783   21.5482  -28.6309 H   0  0  0  0  0  0  0  0  0  0  0  0
   -4.6263   20.7110  -30.0402 H   0  0  0  0  0  0  0  0  0  0  0  0
   -1.5742   21.4037  -28.4912 H   0  0  0  0  0  0  0  0  0  0  0  0
    0.6631   21.1368  -29.5598 H   0  0  0  0  0  0  0  0  0  0  0  0
    0.8569   20.9959  -32.0429 H   0  0  0  0  0  0  0  0  0  0  0  0
   -0.2470   20.5855  -34.1477 H   0  0  0  0  0  0  0  0  0  0  0  0
   -2.0382   20.5866  -34.2821 H   0  0  0  0  0  0  0  0  0  0  0  0
   -1.1366   22.1402  -34.2821 H   0  0  0  0  0  0  0  0  0  0  0  0
   -3.4320   21.4663  -32.4030 H   0  0  0  0  0  0  0  0  0  0  0  0
   -4.7203   24.3777  -26.9002 H   0  0  0  0  0  0  0  0  0  0  0  0
   -2.9257   24.9941  -25.2837 H   0  0  0  0  0  0  0  0  0  0  0  0
  1  2  1  0
  2  3  1  0
  3  4  1  0
  4  5  1  0
  5  6  2  0
  6  7  1  0
  7  8  2  0
  8  9  1  0
  9 10  2  0
 10 11  1  0
 11 12  2  0
 12 13  1  0
 13 14  2  0
 14 15  1  0
 15 16  2  0
 16 17  1  0
 17 18  2  0
 12 19  1  0
 19 20  1  0
 20 21  1  0
 21 22  2  0
 22 23  1  0
 23 24  2  0
 24 25  1  0
 25 26  1  0
 25 27  2  0
  8 28  1  0
 28 29  2  0
 29  5  1  0
 19  9  1  0
 27 21  1  0
 18 13  1  0
  1 30  1  0
  1 31  1  0
  1 32  1  0
  2 33  1  0
  3 34  1  0
  3 35  1  0
  4 36  1  0
  4 37  1  0
  6 38  1  0
  7 39  1  0
 10 40  1  0
 11 41  1  0
 14 42  1  0
 15 43  1  0
 16 44  1  0
 17 45  1  0
 18 46  1  0
 20 47  1  0
 20 48  1  0
 22 49  1  0
 23 50  1  0
 24 51  1  0
 26 52  1  0
 26 53  1  0
 26 54  1  0
 27 55  1  0
 28 56  1  0
 29 57  1  0
M  END
>  <UniqueID>  (38) 
37

>  <SMILES>  (38) 
CNCCc1ccc(-c2ccc(-c3ccccc3)n2Cc2cccc(C)c2)cc1

>  <Energy>  (38) 
89.49925087337071

>  <Genealogy>  (38) 
CNCCc1ccc(-c2ccc(-c3ccccc3)n2Cc2cccc(C)c2)cc1 (3D coordinates assigned)
CNCCc1ccc(-c2ccc(-c3ccccc3)n2Cc2cccc(C)c2)cc1 (optimized conformer: 89.49925087337071 kcal/mol)

>  <smiles>  (38) 
CNCCc1ccc(-c2ccc(-c3ccccc3)n2Cc2cccc(C)c2)cc1

>  <score_type>  (38) 
oracle

>  <origin>  (38) 
adg

>  <m_score__min__energy>  (38) 
-9.2200000000000006

>  <m_primary>  (38) 
energy

$$$$
38:0
     RDKit          3D

 44 46  0  0  0  0  0  0  0  0999 V2000
   -1.6650   25.1740  -28.0830 C   0  0  0  0  0  0  0  0  0  0  0  0
   -2.3210   25.0810  -29.3440 O   0  0  0  0  0  0  0  0  0  0  0  0
   -2.8440   23.8960  -29.8830 C   0  0  0  0  0  0  0  0  0  0  0  0
   -2.2310   22.6480  -29.6780 C   0  0  0  0  0  0  0  0  0  0  0  0
   -2.7790   21.4880  -30.2290 C   0  0  0  0  0  0  0  0  0  0  0  0
   -3.9560   21.5430  -30.9980 C   0  0  0  0  0  0  0  0  0  0  0  0
   -4.5620   20.3200  -31.6110 C   0  0  0  0  0  0  0  0  0  0  0  0
   -5.0210   19.4280  -30.8410 O   0  0  0  0  0  0  0  0  0  0  0  0
   -4.6540   20.1360  -33.0540 N   0  0  1  0  0  0  0  0  0  0  0  0
   -3.7210   19.0790  -33.5420 C   0  0  0  0  0  0  0  0  0  0  0  0
   -4.3780   17.6860  -33.6770 C   0  0  0  0  0  0  0  0  0  0  0  0
   -5.7210   17.7060  -34.3200 N   0  0  0  0  0  0  0  0  0  0  0  0
   -6.7710   17.1600  -33.4320 C   0  0  0  0  0  0  0  0  0  0  0  0
   -7.0150   18.0460  -32.1930 C   0  0  0  0  0  0  0  0  0  0  0  0
   -7.1340   19.5350  -32.5580 C   0  0  0  0  0  0  0  0  0  0  0  0
   -6.0590   20.0080  -33.5810 C   0  0  2  0  0  0  0  0  0  0  0  0
   -6.1120   19.0510  -34.7800 C   0  0  0  0  0  0  0  0  0  0  0  0
   -4.5640   22.7970  -31.2010 C   0  0  0  0  0  0  0  0  0  0  0  0
   -4.0150   23.9710  -30.6480 C   0  0  0  0  0  0  0  0  0  0  0  0
   -4.6060   25.2310  -30.8360 O   0  0  0  0  0  0  0  0  0  0  0  0
   -5.7410   25.7070  -30.1210 C   0  0  0  0  0  0  0  0  0  0  0  0
   -2.4051   25.0691  -27.2760 H   0  0  0  0  0  0  0  0  0  0  0  0
   -0.9156   24.3731  -27.9996 H   0  0  0  0  0  0  0  0  0  0  0  0
   -1.1677   26.1516  -27.9996 H   0  0  0  0  0  0  0  0  0  0  0  0
   -1.3112   22.5845  -29.0780 H   0  0  0  0  0  0  0  0  0  0  0  0
   -2.2848   20.5199  -30.0599 H   0  0  0  0  0  0  0  0  0  0  0  0
   -4.2610   21.0110  -33.4730 H   0  0  0  0  0  0  0  0  0  0  0  0
   -3.3398   19.3805  -34.5288 H   0  0  0  0  0  0  0  0  0  0  0  0
   -2.9200   18.9861  -32.7938 H   0  0  0  0  0  0  0  0  0  0  0  0
   -3.7154   17.0488  -34.2811 H   0  0  0  0  0  0  0  0  0  0  0  0
   -4.5213   17.3030  -32.6558 H   0  0  0  0  0  0  0  0  0  0  0  0
   -7.7093   17.0827  -34.0009 H   0  0  0  0  0  0  0  0  0  0  0  0
   -6.4311   16.1756  -33.0778 H   0  0  0  0  0  0  0  0  0  0  0  0
   -7.9477   17.7250  -31.7061 H   0  0  0  0  0  0  0  0  0  0  0  0
   -6.1522   17.9311  -31.5205 H   0  0  0  0  0  0  0  0  0  0  0  0
   -8.1295   19.7092  -32.9924 H   0  0  0  0  0  0  0  0  0  0  0  0
   -6.9780   20.1099  -31.6333 H   0  0  0  0  0  0  0  0  0  0  0  0
   -6.3145   21.0415  -33.8579 H   0  0  0  0  0  0  0  0  0  0  0  0
   -7.1335   19.0219  -35.1872 H   0  0  0  0  0  0  0  0  0  0  0  0
   -5.4262   19.3948  -35.5684 H   0  0  0  0  0  0  0  0  0  0  0  0
   -5.4833   22.8611  -31.8016 H   0  0  0  0  0  0  0  0  0  0  0  0
   -5.5530   25.6281  -29.0401 H   0  0  0  0  0  0  0  0  0  0  0  0
   -5.9262   26.7586  -30.3852 H   0  0  0  0  0  0  0  0  0  0  0  0
   -6.6209   25.1021  -30.3852 H   0  0  0  0  0  0  0  0  0  0  0  0
  1  2  1  0
  2  3  1  0
  3  4  2  0
  4  5  1  0
  5  6  2  0
  6  7  1  0
  7  8  2  0
  7  9  1  0
  9 10  1  0
 10 11  1  0
 12 11  1  0
 12 13  1  0
 13 14  1  0
 14 15  1  0
 15 16  1  0
 16 17  1  0
  6 18  1  0
 18 19  2  0
 19 20  1  0
 20 21  1  0
 19  3  1  0
 16  9  1  0
 17 12  1  0
  1 22  1  0
  1 23  1  0
  1 24  1  0
  4 25  1  0
  5 26  1  0
  9 27  1  6
 10 28  1  0
 10 29  1  0
 11 30  1  0
 11 31  1  0
 13 32  1  0
 13 33  1  0
 14 34  1  0
 14 35  1  0
 15 36  1  0
 15 37  1  0
 16 38  1  6
 17 39  1  0
 17 40  1  0
 18 41  1  0
 21 42  1  0
 21 43  1  0
 21 44  1  0
M  CHG  1   9   1
M  END
>  <UniqueID>  (39) 
38

>  <SMILES>  (39) 
COc1ccc(C(=O)[N@H+]2CC[N@@]3CCCC2C3)cc1OC

>  <Energy>  (39) 
72.55192156167202

>  <Genealogy>  (39) 
COc1ccc(C(=O)[NH+]2CCN3CCCC2C3)cc1OC (protonated)
COc1ccc(C(=O)[N@H+]2CC[N@@]3CCCC2C3)cc1OC (chirality)
COc1ccc(C(=O)[N@H+]2CC[N@@]3CCCC2C3)cc1OC (3D coordinates assigned)
COc1ccc(C(=O)[N@H+]2CC[N@@]3CCCC2C3)cc1OC (nonaromatic ring conformer: 72.55192156167202 kcal/mol)

>  <smiles>  (39) 
COc1ccc(C(=O)N2CCN3CCCC2C3)cc1OC

>  <score_type>  (39) 
oracle

>  <origin>  (39) 
adg

>  <m_score__min__energy>  (39) 
-6.9500000000000002

>  <m_primary>  (39) 
energy

$$$$
39:0
     RDKit          3D

 52 54  0  0  0  0  0  0  0  0999 V2000
   -0.6333   22.1950  -31.1299 H   0  0  0  0  0  0  0  0  0  0  0  0
   -1.3460   21.5570  -31.6730 C   0  0  0  0  0  0  0  0  0  0  0  0
   -1.2710   21.4530  -33.0650 C   0  0  0  0  0  0  0  0  0  0  0  0
   -0.4972   22.0071  -33.6166 H   0  0  0  0  0  0  0  0  0  0  0  0
   -2.1790   20.6450  -33.7570 C   0  0  0  0  0  0  0  0  0  0  0  0
   -2.1113   20.5581  -34.8515 H   0  0  0  0  0  0  0  0  0  0  0  0
   -3.1770   19.9440  -33.0600 C   0  0  0  0  0  0  0  0  0  0  0  0
   -4.1270   19.0420  -33.7990 C   0  0  0  0  0  0  0  0  0  0  0  0
   -3.8544   17.9932  -33.6100 H   0  0  0  0  0  0  0  0  0  0  0  0
   -4.0634   19.2568  -34.8760 H   0  0  0  0  0  0  0  0  0  0  0  0
   -5.5370   19.2820  -33.3310 C   0  0  0  0  0  0  0  0  0  0  0  0
   -6.4040   18.2020  -33.1450 C   0  0  0  0  0  0  0  0  0  0  0  0
   -6.0466   17.1755  -33.3137 H   0  0  0  0  0  0  0  0  0  0  0  0
   -7.7180   18.4230  -32.7470 C   0  0  0  0  0  0  0  0  0  0  0  0
   -8.4096   17.5728  -32.6534 H   0  0  0  0  0  0  0  0  0  0  0  0
   -8.1690   19.7200  -32.4640 C   0  0  0  0  0  0  0  0  0  0  0  0
   -7.2660   20.8240  -32.5140 C   0  0  0  0  0  0  0  0  0  0  0  0
   -5.9750   20.5840  -33.0370 C   0  0  0  0  0  0  0  0  0  0  0  0
   -5.2999   21.4335  -33.2174 H   0  0  0  0  0  0  0  0  0  0  0  0
   -7.7570   22.1100  -32.1200 C   0  0  0  0  0  0  0  0  0  0  0  0
   -7.0360   23.1650  -31.8310 N   0  0  0  0  0  0  0  0  0  0  0  0
   -5.7340   23.6630  -32.2750 C   0  0  0  0  0  0  0  0  0  0  0  0
   -5.7985   24.7517  -32.4181 H   0  0  0  0  0  0  0  0  0  0  0  0
   -5.4758   23.1566  -33.2168 H   0  0  0  0  0  0  0  0  0  0  0  0
   -4.6310   23.3600  -31.2500 C   0  0  0  0  0  0  0  0  0  0  0  0
   -3.7555   22.9566  -31.7798 H   0  0  0  0  0  0  0  0  0  0  0  0
   -5.0301   22.6327  -30.5277 H   0  0  0  0  0  0  0  0  0  0  0  0
   -4.2190   24.5730  -30.4980 N   0  0  0  0  0  0  0  0  0  0  0  0
   -3.8460   24.2320  -29.1040 C   0  0  0  0  0  0  0  0  0  0  0  0
   -4.3833   24.8984  -28.4132 H   0  0  0  0  0  0  0  0  0  0  0  0
   -2.7594   24.3576  -28.9880 H   0  0  0  0  0  0  0  0  0  0  0  0
   -4.2090   22.7840  -28.7870 C   0  0  0  0  0  0  0  0  0  0  0  0
   -4.2438   22.6451  -27.6964 H   0  0  0  0  0  0  0  0  0  0  0  0
   -5.1936   22.5500  -29.2181 H   0  0  0  0  0  0  0  0  0  0  0  0
   -3.4512   22.1132  -29.2181 H   0  0  0  0  0  0  0  0  0  0  0  0
   -5.2870   25.6020  -30.5120 C   0  0  0  0  0  0  0  0  0  0  0  0
   -4.8366   26.5934  -30.3560 H   0  0  0  0  0  0  0  0  0  0  0  0
   -5.8013   25.5680  -31.4838 H   0  0  0  0  0  0  0  0  0  0  0  0
   -6.3040   25.3320  -29.4050 C   0  0  0  0  0  0  0  0  0  0  0  0
   -5.8216   25.4601  -28.4247 H   0  0  0  0  0  0  0  0  0  0  0  0
   -7.1419   26.0388  -29.4965 H   0  0  0  0  0  0  0  0  0  0  0  0
   -6.6810   24.3027  -29.4965 H   0  0  0  0  0  0  0  0  0  0  0  0
   -9.1350   22.2580  -31.9120 C   0  0  0  0  0  0  0  0  0  0  0  0
   -9.5518   23.2591  -31.7274 H   0  0  0  0  0  0  0  0  0  0  0  0
   -9.9810   21.1570  -31.9360 C   0  0  0  0  0  0  0  0  0  0  0  0
  -11.0596   21.2916  -31.7675 H   0  0  0  0  0  0  0  0  0  0  0  0
   -9.4840   19.9180  -32.1660 N   0  0  0  0  0  0  0  0  0  0  0  0
  -10.1470   19.1100  -32.1430 H   0  0  0  0  0  0  0  0  0  0  0  0
   -3.2370   20.0430  -31.6590 C   0  0  0  0  0  0  0  0  0  0  0  0
   -4.0030   19.4832  -31.1023 H   0  0  0  0  0  0  0  0  0  0  0  0
   -2.3270   20.8500  -30.9710 C   0  0  0  0  0  0  0  0  0  0  0  0
   -2.3825   20.9292  -29.8753 H   0  0  0  0  0  0  0  0  0  0  0  0
  1  2  1  0
  2  3  2  0
  3  4  1  0
  3  5  1  0
  5  6  1  0
  5  7  2  0
  7  8  1  0
  8  9  1  0
  8 10  1  0
  8 11  1  0
 11 12  2  0
 12 13  1  0
 12 14  1  0
 14 15  1  0
 14 16  2  0
 16 17  1  0
 17 18  2  0
 18 19  1  0
 17 20  1  0
 20 21  2  0
 21 22  1  0
 22 23  1  0
 22 24  1  0
 22 25  1  0
 25 26  1  0
 25 27  1  0
 25 28  1  0
 28 29  1  0
 29 30  1  0
 29 31  1  0
 29 32  1  0
 32 33  1  0
 32 34  1  0
 32 35  1  0
 28 36  1  0
 36 37  1  0
 36 38  1  0
 36 39  1  0
 39 40  1  0
 39 41  1  0
 39 42  1  0
 20 43  1  0
 43 44  1  0
 43 45  2  0
 45 46  1  0
 45 47  1  0
 47 48  1  0
  7 49  1  0
 49 50  1  0
 49 51  2  0
 51 52  1  0
 51  2  1  0
 18 11  1  0
 47 16  1  0
M  END
>  <UniqueID>  (40) 
39

>  <SMILES>  (40) 
CCN(CC)CC/N=c1/cc[nH]c2ccc(Cc3ccccc3)cc12

>  <Energy>  (40) 
70.90811960481692

>  <Genealogy>  (40) 
CCN(CC)CC/N=c1/cc[nH]c2ccc(Cc3ccccc3)cc12 (cis-trans isomerization)
CCN(CC)CC/N=c1/cc[nH]c2ccc(Cc3ccccc3)cc12 (3D coordinates assigned)
CCN(CC)CC/N=c1/cc[nH]c2ccc(Cc3ccccc3)cc12 (optimized conformer: 70.90811960481692 kcal/mol)

>  <smiles>  (40) 
CCN(CC)CCN=c1cc[nH]c2ccc(Cc3ccccc3)cc12

>  <score_type>  (40) 
oracle

>  <origin>  (40) 
adg

>  <m_score__min__energy>  (40) 
-8.2699999999999996

>  <m_primary>  (40) 
energy

$$$$
40:0
     RDKit          3D

 45 48  0  0  0  0  0  0  0  0999 V2000
    1.7820   19.9000  -33.5830 C   0  0  0  0  0  0  0  0  0  0  0  0
    0.7290   20.6330  -34.2000 O   0  0  0  0  0  0  0  0  0  0  0  0
   -0.6300   20.4750  -33.8960 C   0  0  0  0  0  0  0  0  0  0  0  0
   -1.3330   19.2850  -34.1680 C   0  0  0  0  0  0  0  0  0  0  0  0
   -2.6870   19.1760  -33.8440 C   0  0  0  0  0  0  0  0  0  0  0  0
   -3.3570   20.2420  -33.2290 C   0  0  0  0  0  0  0  0  0  0  0  0
   -4.7830   20.1090  -32.8830 C   0  0  0  0  0  0  0  0  0  0  0  0
   -5.3590   18.9190  -32.5890 N   0  0  0  0  0  0  0  0  0  0  0  0
   -6.6300   19.2490  -32.2790 C   0  0  0  0  0  0  0  0  0  0  0  0
   -7.6240   18.3540  -31.8880 C   0  0  0  0  0  0  0  0  0  0  0  0
   -8.8860   18.8780  -31.5680 C   0  0  0  0  0  0  0  0  0  0  0  0
   -9.1190   20.2620  -31.6430 C   0  0  0  0  0  0  0  0  0  0  0  0
   -8.0820   21.1190  -32.0400 C   0  0  0  0  0  0  0  0  0  0  0  0
   -6.8740   20.5720  -32.3450 N   0  0  0  0  0  0  0  0  0  0  0  0
   -5.7150   21.1350  -32.7330 C   0  0  0  0  0  0  0  0  0  0  0  0
   -5.4420   22.5520  -32.7210 N   0  0  0  0  0  0  0  0  0  0  0  0
   -5.1570   22.9840  -31.3750 C   0  0  0  0  0  0  0  0  0  0  0  0
   -5.5320   24.2680  -30.9410 C   0  0  0  0  0  0  0  0  0  0  0  0
   -5.2230   24.6990  -29.6490 C   0  0  0  0  0  0  0  0  0  0  0  0
   -4.5240   23.8580  -28.7710 C   0  0  0  0  0  0  0  0  0  0  0  0
   -4.2260   24.3120  -27.3730 C   0  0  0  0  0  0  0  0  0  0  0  0
   -4.1650   22.5690  -29.1910 C   0  0  0  0  0  0  0  0  0  0  0  0
   -4.4720   22.1380  -30.4860 C   0  0  0  0  0  0  0  0  0  0  0  0
   -2.6640   21.4360  -32.9760 C   0  0  0  0  0  0  0  0  0  0  0  0
   -1.3090   21.5460  -33.3020 C   0  0  0  0  0  0  0  0  0  0  0  0
    1.6843   19.9680  -32.4895 H   0  0  0  0  0  0  0  0  0  0  0  0
    1.7245   18.8457  -33.8914 H   0  0  0  0  0  0  0  0  0  0  0  0
    2.7508   20.3200  -33.8914 H   0  0  0  0  0  0  0  0  0  0  0  0
   -0.8128   18.4373  -34.6380 H   0  0  0  0  0  0  0  0  0  0  0  0
   -3.2309   18.2477  -34.0730 H   0  0  0  0  0  0  0  0  0  0  0  0
   -7.4262   17.2734  -31.8321 H   0  0  0  0  0  0  0  0  0  0  0  0
   -9.6965   18.2024  -31.2571 H   0  0  0  0  0  0  0  0  0  0  0  0
  -10.1089   20.6707  -31.3918 H   0  0  0  0  0  0  0  0  0  0  0  0
   -8.2413   22.2056  -32.1032 H   0  0  0  0  0  0  0  0  0  0  0  0
   -6.2570   23.0850  -33.0980 H   0  0  0  0  0  0  0  0  0  0  0  0
   -4.6370   22.7610  -33.3530 H   0  0  0  0  0  0  0  0  0  0  0  0
   -6.0732   24.9385  -31.6248 H   0  0  0  0  0  0  0  0  0  0  0  0
   -5.5292   25.7025  -29.3186 H   0  0  0  0  0  0  0  0  0  0  0  0
   -4.6836   23.6148  -26.6557 H   0  0  0  0  0  0  0  0  0  0  0  0
   -3.1371   24.3342  -27.2190 H   0  0  0  0  0  0  0  0  0  0  0  0
   -4.6388   25.3199  -27.2190 H   0  0  0  0  0  0  0  0  0  0  0  0
   -3.6398   21.8940  -28.4992 H   0  0  0  0  0  0  0  0  0  0  0  0
   -4.1752   21.1298  -30.8108 H   0  0  0  0  0  0  0  0  0  0  0  0
   -3.1889   22.2882  -32.5196 H   0  0  0  0  0  0  0  0  0  0  0  0
   -0.7715   22.4820  -33.0900 H   0  0  0  0  0  0  0  0  0  0  0  0
  1  2  1  0
  2  3  1  0
  3  4  2  0
  4  5  1  0
  5  6  2  0
  6  7  1  0
  7  8  1  0
  8  9  2  0
  9 10  1  0
 10 11  2  0
 11 12  1  0
 12 13  2  0
 13 14  1  0
 14 15  1  0
 15 16  1  0
 16 17  1  0
 17 18  2  0
 18 19  1  0
 19 20  2  0
 20 21  1  0
 20 22  1  0
 22 23  2  0
  6 24  1  0
 24 25  2  0
 25  3  1  0
 15  7  2  0
 23 17  1  0
 14  9  1  0
  1 26  1  0
  1 27  1  0
  1 28  1  0
  4 29  1  0
  5 30  1  0
 10 31  1  0
 11 32  1  0
 12 33  1  0
 13 34  1  0
 16 35  1  0
 16 36  1  0
 18 37  1  0
 19 38  1  0
 21 39  1  0
 21 40  1  0
 21 41  1  0
 22 42  1  0
 23 43  1  0
 24 44  1  0
 25 45  1  0
M  CHG  1  16   1
M  END
>  <UniqueID>  (41) 
40

>  <SMILES>  (41) 
COc1ccc(-c2nc3ccccn3c2[NH2+]c2ccc(C)cc2)cc1

>  <Energy>  (41) 
89.63479777507243

>  <Genealogy>  (41) 
COc1ccc(-c2nc3ccccn3c2[NH2+]c2ccc(C)cc2)cc1 (protonated)
COc1ccc(-c2nc3ccccn3c2[NH2+]c2ccc(C)cc2)cc1 (3D coordinates assigned)
COc1ccc(-c2nc3ccccn3c2[NH2+]c2ccc(C)cc2)cc1 (optimized conformer: 89.63479777507243 kcal/mol)

>  <smiles>  (41) 
COc1ccc(-c2nc3ccccn3c2Nc2ccc(C)cc2)cc1

>  <score_type>  (41) 
oracle

>  <origin>  (41) 
adg

>  <m_score__min__energy>  (41) 
-7.8300000000000001

>  <m_primary>  (41) 
energy

$$$$
41:0
     RDKit          3D

 40 41  0  0  0  0  0  0  0  0999 V2000
   -6.8070   14.7970  -34.2300 C   0  0  0  0  0  0  0  0  0  0  0  0
   -6.7940   16.3180  -34.0750 C   0  0  0  0  0  0  0  0  0  0  0  0
   -5.6810   16.7580  -33.2020 N   0  0  0  0  0  0  0  0  0  0  0  0
   -4.9990   17.9660  -33.7380 C   0  0  0  0  0  0  0  0  0  0  0  0
   -5.7430   18.4730  -34.9680 C   0  0  0  0  0  0  0  0  0  0  0  0
   -6.1590   16.9670  -31.8160 C   0  0  0  0  0  0  0  0  0  0  0  0
   -6.5940   18.4250  -31.5860 C   0  0  0  0  0  0  0  0  0  0  0  0
   -7.9590   18.7450  -32.2170 C   0  0  0  0  0  0  0  0  0  0  0  0
   -7.9450   20.0420  -32.8950 N   0  0  0  0  0  0  0  0  0  0  0  0
   -7.4140   21.2530  -32.3260 C   0  0  0  0  0  0  0  0  0  0  0  0
   -8.2090   22.1760  -31.6030 C   0  0  0  0  0  0  0  0  0  0  0  0
   -7.6390   23.3540  -31.0670 C   0  0  0  0  0  0  0  0  0  0  0  0
   -6.2640   23.6420  -31.2420 C   0  0  0  0  0  0  0  0  0  0  0  0
   -5.6730   24.8370  -30.7000 N   0  0  0  0  0  0  0  0  0  0  0  0
   -6.3750   25.6690  -30.0900 O   0  0  0  0  0  0  0  0  0  0  0  0
   -4.3270   25.0840  -30.8440 O   0  0  0  0  0  0  0  0  0  0  0  0
   -5.5170   22.7070  -31.9680 C   0  0  0  0  0  0  0  0  0  0  0  0
   -4.2120   22.7200  -32.2830 N   0  0  0  0  0  0  0  0  0  0  0  0
   -4.0250   21.6170  -32.9630 O   0  0  0  0  0  0  0  0  0  0  0  0
   -5.1020   20.8880  -33.1140 N   0  0  0  0  0  0  0  0  0  0  0  0
   -6.0650   21.5770  -32.4830 C   0  0  0  0  0  0  0  0  0  0  0  0
   -6.8110   14.3271  -33.2354 H   0  0  0  0  0  0  0  0  0  0  0  0
   -7.7078   14.4925  -34.7830 H   0  0  0  0  0  0  0  0  0  0  0  0
   -5.9116   14.4771  -34.7830 H   0  0  0  0  0  0  0  0  0  0  0  0
   -6.6757   16.7787  -35.0668 H   0  0  0  0  0  0  0  0  0  0  0  0
   -7.7427   16.6292  -33.6134 H   0  0  0  0  0  0  0  0  0  0  0  0
   -4.9878   18.7514  -32.9680 H   0  0  0  0  0  0  0  0  0  0  0  0
   -3.9669   17.7077  -34.0174 H   0  0  0  0  0  0  0  0  0  0  0  0
   -6.6135   19.0662  -34.6513 H   0  0  0  0  0  0  0  0  0  0  0  0
   -5.0704   19.1015  -35.5702 H   0  0  0  0  0  0  0  0  0  0  0  0
   -6.0820   17.6171  -35.5702 H   0  0  0  0  0  0  0  0  0  0  0  0
   -7.0166   16.3040  -31.6294 H   0  0  0  0  0  0  0  0  0  0  0  0
   -5.3325   16.7395  -31.1267 H   0  0  0  0  0  0  0  0  0  0  0  0
   -6.6560   18.6068  -30.5029 H   0  0  0  0  0  0  0  0  0  0  0  0
   -5.8465   19.0737  -32.0660 H   0  0  0  0  0  0  0  0  0  0  0  0
   -8.2072   17.9618  -32.9485 H   0  0  0  0  0  0  0  0  0  0  0  0
   -8.7102   18.7829  -31.4143 H   0  0  0  0  0  0  0  0  0  0  0  0
   -8.3340   20.0740  -33.8650 H   0  0  0  0  0  0  0  0  0  0  0  0
   -9.2805   21.9744  -31.4570 H   0  0  0  0  0  0  0  0  0  0  0  0
   -8.2730   24.0565  -30.5061 H   0  0  0  0  0  0  0  0  0  0  0  0
  1  2  1  0
  2  3  1  0
  3  4  1  0
  4  5  1  0
  3  6  1  0
  6  7  1  0
  7  8  1  0
  8  9  1  0
  9 10  1  0
 10 11  2  0
 11 12  1  0
 12 13  2  0
 13 14  1  0
 14 15  2  0
 14 16  1  0
 13 17  1  0
 17 18  2  0
 18 19  1  0
 19 20  1  0
 20 21  2  0
 21 10  1  0
 21 17  1  0
  1 22  1  0
  1 23  1  0
  1 24  1  0
  2 25  1  0
  2 26  1  0
  4 27  1  0
  4 28  1  0
  5 29  1  0
  5 30  1  0
  5 31  1  0
  6 32  1  0
  6 33  1  0
  7 34  1  0
  7 35  1  0
  8 36  1  0
  8 37  1  0
  9 38  1  0
 11 39  1  0
 12 40  1  0
M  CHG  2  14   1  16  -1
M  END
>  <UniqueID>  (42) 
41

>  <SMILES>  (42) 
CCN(CC)CCCNc1ccc([N+](=O)[O-])c2nonc12

>  <Energy>  (42) 
79.64372588377674

>  <Genealogy>  (42) 
CCN(CC)CCCNc1ccc([N+](=O)[O-])c2nonc12 (3D coordinates assigned)
CCN(CC)CCCNc1ccc([N+](=O)[O-])c2nonc12 (optimized conformer: 79.64372588377674 kcal/mol)

>  <smiles>  (42) 
CCN(CC)CCCNc1ccc([N+](=O)[O-])c2nonc12

>  <score_type>  (42) 
oracle

>  <origin>  (42) 
adg

>  <m_score__min__energy>  (42) 
-7.96

>  <m_primary>  (42) 
energy

$$$$
42:0
     RDKit          3D

 39 40  0  0  0  0  0  0  0  0999 V2000
   -2.3490   24.8590  -26.9510 C   0  0  0  0  0  0  0  0  0  0  0  0
   -1.7270   24.9900  -28.3360 C   0  0  0  0  0  0  0  0  0  0  0  0
   -2.7400   25.1560  -29.3100 O   0  0  0  0  0  0  0  0  0  0  0  0
   -3.9230   24.4930  -28.9190 C   0  0  0  0  0  0  0  0  0  0  0  0
   -5.0330   24.7050  -29.9630 C   0  0  0  0  0  0  0  0  0  0  0  0
   -4.8440   23.9610  -31.2280 N   0  0  0  0  0  0  0  0  0  0  0  0
   -4.2660   22.6050  -31.0650 C   0  0  0  0  0  0  0  0  0  0  0  0
   -4.7150   21.6370  -32.1620 C   0  0  0  0  0  0  0  0  0  0  0  0
   -6.1740   21.6590  -32.2520 N   0  0  0  0  0  0  0  0  0  0  0  0
   -6.9190   20.4390  -32.1480 C   0  0  0  0  0  0  0  0  0  0  0  0
   -8.0570   20.3970  -31.3300 C   0  0  0  0  0  0  0  0  0  0  0  0
   -8.8050   19.2240  -31.2260 C   0  0  0  0  0  0  0  0  0  0  0  0
   -8.4200   18.0840  -31.9330 C   0  0  0  0  0  0  0  0  0  0  0  0
   -7.2810   18.1080  -32.7460 C   0  0  0  0  0  0  0  0  0  0  0  0
   -6.8270   16.6460  -33.6100 Cl  0  0  0  0  0  0  0  0  0  0  0  0
   -6.5220   19.2880  -32.8560 C   0  0  0  0  0  0  0  0  0  0  0  0
   -5.0650   19.3200  -33.8480 Cl  0  0  0  0  0  0  0  0  0  0  0  0
   -6.8900   22.9370  -32.2720 C   0  0  0  0  0  0  0  0  0  0  0  0
   -5.9140   24.1250  -32.2410 C   0  0  0  0  0  0  0  0  0  0  0  0
   -1.5763   25.0217  -26.1852 H   0  0  0  0  0  0  0  0  0  0  0  0
   -3.1449   25.6092  -26.8340 H   0  0  0  0  0  0  0  0  0  0  0  0
   -2.7747   23.8515  -26.8340 H   0  0  0  0  0  0  0  0  0  0  0  0
   -1.0587   25.8635  -28.3536 H   0  0  0  0  0  0  0  0  0  0  0  0
   -1.1560   24.0774  -28.5622 H   0  0  0  0  0  0  0  0  0  0  0  0
   -3.7189   23.4165  -28.8219 H   0  0  0  0  0  0  0  0  0  0  0  0
   -4.2587   24.9051  -27.9559 H   0  0  0  0  0  0  0  0  0  0  0  0
   -5.9871   24.3866  -29.5178 H   0  0  0  0  0  0  0  0  0  0  0  0
   -5.0121   25.7731  -30.2253 H   0  0  0  0  0  0  0  0  0  0  0  0
   -3.1692   22.6841  -31.0925 H   0  0  0  0  0  0  0  0  0  0  0  0
   -4.6205   22.2056  -30.1033 H   0  0  0  0  0  0  0  0  0  0  0  0
   -4.2819   21.9452  -33.1250 H   0  0  0  0  0  0  0  0  0  0  0  0
   -4.3740   20.6194  -31.9205 H   0  0  0  0  0  0  0  0  0  0  0  0
   -8.3612   21.2924  -30.7681 H   0  0  0  0  0  0  0  0  0  0  0  0
   -9.6993   19.1976  -30.5860 H   0  0  0  0  0  0  0  0  0  0  0  0
   -9.0146   17.1622  -31.8509 H   0  0  0  0  0  0  0  0  0  0  0  0
   -7.4952   22.9943  -33.1888 H   0  0  0  0  0  0  0  0  0  0  0  0
   -7.5301   22.9903  -31.3790 H   0  0  0  0  0  0  0  0  0  0  0  0
   -5.4477   24.2232  -33.2324 H   0  0  0  0  0  0  0  0  0  0  0  0
   -6.4912   25.0219  -31.9719 H   0  0  0  0  0  0  0  0  0  0  0  0
  1  2  1  0
  2  3  1  0
  3  4  1  0
  4  5  1  0
  5  6  1  0
  6  7  1  0
  7  8  1  0
  8  9  1  0
  9 10  1  0
 10 11  2  0
 11 12  1  0
 12 13  2  0
 13 14  1  0
 14 15  1  0
 14 16  2  0
 16 17  1  0
  9 18  1  0
 18 19  1  0
 19  6  1  0
 16 10  1  0
  1 20  1  0
  1 21  1  0
  1 22  1  0
  2 23  1  0
  2 24  1  0
  4 25  1  0
  4 26  1  0
  5 27  1  0
  5 28  1  0
  7 29  1  0
  7 30  1  0
  8 31  1  0
  8 32  1  0
 11 33  1  0
 12 34  1  0
 13 35  1  0
 18 36  1  0
 18 37  1  0
 19 38  1  0
 19 39  1  0
M  END
>  <UniqueID>  (43) 
42

>  <SMILES>  (43) 
CCOCCN1CCN(c2cccc(Cl)c2Cl)CC1

>  <Energy>  (43) 
53.57627440500545

>  <Genealogy>  (43) 
CCOCCN1CCN(c2cccc(Cl)c2Cl)CC1 (3D coordinates assigned)
CCOCCN1CCN(c2cccc(Cl)c2Cl)CC1 (nonaromatic ring conformer: 53.57627440500545 kcal/mol)

>  <smiles>  (43) 
CCOCCN1CCN(c2cccc(Cl)c2Cl)CC1

>  <score_type>  (43) 
oracle

>  <origin>  (43) 
adg

>  <m_score__min__energy>  (43) 
-7.8799999999999999

>  <m_primary>  (43) 
energy

$$$$
43:0
     RDKit          3D

 47 49  0  0  0  0  0  0  0  0999 V2000
   -4.2170   25.6710  -30.8560 O   0  0  0  0  0  0  0  0  0  0  0  0
   -4.2290   24.4770  -30.4540 C   0  0  0  0  0  0  0  0  0  0  0  0
   -5.3810   23.9870  -29.6190 C   0  0  0  0  0  0  0  0  0  0  0  0
   -6.6290   24.2670  -30.2490 O   0  0  0  0  0  0  0  0  0  0  0  0
   -6.9650   23.8030  -31.5260 C   0  0  0  0  0  0  0  0  0  0  0  0
   -6.1190   23.8220  -32.4620 O   0  0  0  0  0  0  0  0  0  0  0  0
   -8.3260   23.2310  -31.7660 C   0  0  0  0  0  0  0  0  0  0  0  0
   -8.4940   21.9150  -31.0040 C   0  0  0  0  0  0  0  0  0  0  0  0
   -9.0830   20.8270  -31.9060 C   0  0  0  0  0  0  0  0  0  0  0  0
   -8.0560   19.8500  -32.2560 N   0  0  0  0  0  0  0  0  0  0  0  0
   -8.2350   18.4350  -32.3620 C   0  0  0  0  0  0  0  0  0  0  0  0
   -9.2310   17.8100  -31.9090 O   0  0  0  0  0  0  0  0  0  0  0  0
   -7.1210   17.8420  -33.0940 C   0  0  0  0  0  0  0  0  0  0  0  0
   -6.8590   16.5170  -33.4370 C   0  0  0  0  0  0  0  0  0  0  0  0
   -5.6930   16.2450  -34.1750 C   0  0  0  0  0  0  0  0  0  0  0  0
   -4.8250   17.2930  -34.5540 C   0  0  0  0  0  0  0  0  0  0  0  0
   -5.1140   18.6230  -34.1990 C   0  0  0  0  0  0  0  0  0  0  0  0
   -6.2740   18.8650  -33.4640 C   0  0  0  0  0  0  0  0  0  0  0  0
   -6.8450   20.1130  -32.9690 C   0  0  0  0  0  0  0  0  0  0  0  0
   -6.3700   21.2640  -33.1610 O   0  0  0  0  0  0  0  0  0  0  0  0
   -3.1060   23.6390  -30.7480 N   0  0  0  0  0  0  0  0  0  0  0  0
   -3.0590   22.2070  -30.4800 C   0  0  0  0  0  0  0  0  0  0  0  0
   -2.3970   21.5080  -31.6310 C   0  0  0  0  0  0  0  0  0  0  0  0
   -1.0130   21.2660  -31.6110 C   0  0  0  0  0  0  0  0  0  0  0  0
   -0.3910   20.6450  -32.7000 C   0  0  0  0  0  0  0  0  0  0  0  0
   -1.1440   20.2730  -33.8170 C   0  0  0  0  0  0  0  0  0  0  0  0
   -2.5180   20.5250  -33.8510 C   0  0  0  0  0  0  0  0  0  0  0  0
   -3.1430   21.1450  -32.7650 C   0  0  0  0  0  0  0  0  0  0  0  0
   -5.2857   22.9002  -29.4783 H   0  0  0  0  0  0  0  0  0  0  0  0
   -5.3552   24.5067  -28.6499 H   0  0  0  0  0  0  0  0  0  0  0  0
   -9.0862   23.9481  -31.4226 H   0  0  0  0  0  0  0  0  0  0  0  0
   -8.4469   23.0379  -32.8421 H   0  0  0  0  0  0  0  0  0  0  0  0
   -7.5111   21.5843  -30.6371 H   0  0  0  0  0  0  0  0  0  0  0  0
   -9.1837   22.0834  -30.1638 H   0  0  0  0  0  0  0  0  0  0  0  0
   -9.9016   20.3190  -31.3751 H   0  0  0  0  0  0  0  0  0  0  0  0
   -9.4637   21.2924  -32.8271 H   0  0  0  0  0  0  0  0  0  0  0  0
   -7.5432   15.7086  -33.1397 H   0  0  0  0  0  0  0  0  0  0  0  0
   -5.4554   15.2092  -34.4590 H   0  0  0  0  0  0  0  0  0  0  0  0
   -3.9162   17.0673  -35.1311 H   0  0  0  0  0  0  0  0  0  0  0  0
   -4.4459   19.4463  -34.4920 H   0  0  0  0  0  0  0  0  0  0  0  0
   -2.4848   22.0241  -29.5598 H   0  0  0  0  0  0  0  0  0  0  0  0
   -4.0818   21.8221  -30.3544 H   0  0  0  0  0  0  0  0  0  0  0  0
   -0.4166   21.5656  -30.7366 H   0  0  0  0  0  0  0  0  0  0  0  0
    0.6912   20.4496  -32.6768 H   0  0  0  0  0  0  0  0  0  0  0  0
   -0.6544   19.7812  -34.6705 H   0  0  0  0  0  0  0  0  0  0  0  0
   -3.1083   20.2353  -34.7329 H   0  0  0  0  0  0  0  0  0  0  0  0
   -4.2233   21.3495  -32.7984 H   0  0  0  0  0  0  0  0  0  0  0  0
  1  2  2  0
  2  3  1  0
  3  4  1  0
  4  5  1  0
  5  6  2  0
  5  7  1  0
  7  8  1  0
  8  9  1  0
  9 10  1  0
 10 11  1  0
 11 12  2  0
 11 13  1  0
 13 14  2  0
 14 15  1  0
 15 16  2  0
 16 17  1  0
 17 18  2  0
 18 19  1  0
 19 20  2  0
  2 21  1  0
 21 22  1  0
 22 23  1  0
 23 24  2  0
 24 25  1  0
 25 26  2  0
 26 27  1  0
 27 28  2  0
 19 10  1  0
 28 23  1  0
 18 13  1  0
  3 29  1  0
  3 30  1  0
  7 31  1  0
  7 32  1  0
  8 33  1  0
  8 34  1  0
  9 35  1  0
  9 36  1  0
 14 37  1  0
 15 38  1  0
 16 39  1  0
 17 40  1  0
 22 41  1  0
 22 42  1  0
 24 43  1  0
 25 44  1  0
 26 45  1  0
 27 46  1  0
 28 47  1  0
M  CHG  1  21  -1
M  END
>  <UniqueID>  (44) 
43

>  <SMILES>  (44) 
O=C(COC(=O)CCCN1C(=O)c2ccccc2C1=O)[N-]Cc1ccccc1

>  <Energy>  (44) 
70.30158512146421

>  <Genealogy>  (44) 
O=C(COC(=O)CCCN1C(=O)c2ccccc2C1=O)[N-]Cc1ccccc1 (protonated)
O=C(COC(=O)CCCN1C(=O)c2ccccc2C1=O)[N-]Cc1ccccc1 (3D coordinates assigned)
O=C(COC(=O)CCCN1C(=O)c2ccccc2C1=O)[N-]Cc1ccccc1 (nonaromatic ring conformer: 70.30158512146421 kcal/mol)

>  <smiles>  (44) 
O=C(COC(=O)CCCN1C(=O)c2ccccc2C1=O)NCc1ccccc1

>  <score_type>  (44) 
oracle

>  <origin>  (44) 
adg

>  <m_score__min__energy>  (44) 
-11.02

>  <m_primary>  (44) 
energy

$$$$
44:0
     RDKit          3D

 36 38  0  0  0  0  0  0  0  0999 V2000
   -6.4630   25.6540  -29.3310 C   0  0  0  0  0  0  0  0  0  0  0  0
   -5.6870   25.6600  -30.6430 C   0  0  0  0  0  0  0  0  0  0  0  0
   -5.4010   24.2920  -31.0690 N   0  0  0  0  0  0  0  0  0  0  0  0
   -4.1720   23.8080  -31.2170 N   0  0  0  0  0  0  0  0  0  0  0  0
   -4.2680   22.5380  -31.6810 C   0  0  0  0  0  0  0  0  0  0  0  0
   -5.6040   22.2330  -31.8340 C   0  0  0  0  0  0  0  0  0  0  0  0
   -6.2480   21.0900  -32.2960 C   0  0  0  0  0  0  0  0  0  0  0  0
   -7.6620   21.1100  -32.3620 C   0  0  0  0  0  0  0  0  0  0  0  0
   -8.3790   19.9700  -32.8840 N   0  0  0  0  0  0  0  0  0  0  0  0
   -8.1550   18.7710  -32.0580 C   0  0  0  0  0  0  0  0  0  0  0  0
   -6.9630   17.9760  -32.5350 C   0  0  0  0  0  0  0  0  0  0  0  0
   -6.5000   18.1030  -33.8530 C   0  0  0  0  0  0  0  0  0  0  0  0
   -5.3690   17.3960  -34.2650 C   0  0  0  0  0  0  0  0  0  0  0  0
   -4.7070   16.5710  -33.3540 C   0  0  0  0  0  0  0  0  0  0  0  0
   -5.1620   16.4640  -32.0780 N   0  0  0  0  0  0  0  0  0  0  0  0
   -6.2620   17.1430  -31.6520 C   0  0  0  0  0  0  0  0  0  0  0  0
   -8.3670   22.2780  -31.9640 C   0  0  0  0  0  0  0  0  0  0  0  0
   -7.6780   23.4140  -31.5010 C   0  0  0  0  0  0  0  0  0  0  0  0
   -6.2850   23.3500  -31.4490 C   0  0  0  0  0  0  0  0  0  0  0  0
   -5.7571   25.6595  -28.4874 H   0  0  0  0  0  0  0  0  0  0  0  0
   -7.1029   26.5472  -29.2794 H   0  0  0  0  0  0  0  0  0  0  0  0
   -7.0890   24.7510  -29.2794 H   0  0  0  0  0  0  0  0  0  0  0  0
   -6.2857   26.1633  -31.4165 H   0  0  0  0  0  0  0  0  0  0  0  0
   -4.7372   26.1946  -30.4946 H   0  0  0  0  0  0  0  0  0  0  0  0
   -3.4247   21.8659  -31.8982 H   0  0  0  0  0  0  0  0  0  0  0  0
   -5.6775   20.2000  -32.6000 H   0  0  0  0  0  0  0  0  0  0  0  0
   -9.4040   20.1750  -32.9440 H   0  0  0  0  0  0  0  0  0  0  0  0
   -8.0450   19.7750  -33.8560 H   0  0  0  0  0  0  0  0  0  0  0  0
   -7.9817   19.0828  -31.0174 H   0  0  0  0  0  0  0  0  0  0  0  0
   -9.0462   18.1309  -32.1358 H   0  0  0  0  0  0  0  0  0  0  0  0
   -7.0275   18.7590  -34.5611 H   0  0  0  0  0  0  0  0  0  0  0  0
   -5.0027   17.4881  -35.2981 H   0  0  0  0  0  0  0  0  0  0  0  0
   -3.8166   16.0072  -33.6692 H   0  0  0  0  0  0  0  0  0  0  0  0
   -6.6021   17.0377  -30.6112 H   0  0  0  0  0  0  0  0  0  0  0  0
   -9.4655   22.2941  -32.0186 H   0  0  0  0  0  0  0  0  0  0  0  0
   -8.2183   24.3206  -31.1910 H   0  0  0  0  0  0  0  0  0  0  0  0
  1  2  1  0
  2  3  1  0
  3  4  1  0
  4  5  2  0
  5  6  1  0
  6  7  2  0
  7  8  1  0
  8  9  1  0
  9 10  1  0
 10 11  1  0
 11 12  2  0
 12 13  1  0
 13 14  2  0
 14 15  1  0
 15 16  2  0
  8 17  2  0
 17 18  1  0
 18 19  2  0
 19  3  1  0
 19  6  1  0
 16 11  1  0
  1 20  1  0
  1 21  1  0
  1 22  1  0
  2 23  1  0
  2 24  1  0
  5 25  1  0
  7 26  1  0
  9 27  1  0
  9 28  1  0
 10 29  1  0
 10 30  1  0
 12 31  1  0
 13 32  1  0
 14 33  1  0
 16 34  1  0
 17 35  1  0
 18 36  1  0
M  CHG  1   9   1
M  END
>  <UniqueID>  (45) 
44

>  <SMILES>  (45) 
CCn1ncc2cc([NH2+]Cc3cccnc3)ccc21

>  <Energy>  (45) 
73.98610559494495

>  <Genealogy>  (45) 
CCn1ncc2cc([NH2+]Cc3cccnc3)ccc21 (protonated)
CCn1ncc2cc([NH2+]Cc3cccnc3)ccc21 (3D coordinates assigned)
CCn1ncc2cc([NH2+]Cc3cccnc3)ccc21 (optimized conformer: 73.98610559494495 kcal/mol)

>  <smiles>  (45) 
CCn1ncc2cc(NCc3cccnc3)ccc21

>  <score_type>  (45) 
oracle

>  <origin>  (45) 
adg

>  <m_score__min__energy>  (45) 
-7.1600000000000001

>  <m_primary>  (45) 
energy

$$$$
45:0
     RDKit          3D

 33 34  0  0  0  0  0  0  0  0999 V2000
   -8.8890   18.4060  -31.6000 C   0  0  0  0  0  0  0  0  0  0  0  0
   -9.4780   19.7170  -32.1040 C   0  0  0  0  0  0  0  0  0  0  0  0
   -9.1100   20.7780  -31.2420 O   0  0  0  0  0  0  0  0  0  0  0  0
   -8.7730   21.9480  -31.9640 C   0  0  0  0  0  0  0  0  0  0  0  0
   -7.3220   22.2230  -31.8720 N   0  0  0  0  0  0  0  0  0  0  0  0
   -6.9870   23.3880  -31.2320 C   0  0  0  0  0  0  0  0  0  0  0  0
   -5.6560   23.7970  -31.0750 C   0  0  0  0  0  0  0  0  0  0  0  0
   -5.3410   25.0740  -30.3690 C   0  0  0  0  0  0  0  0  0  0  0  0
   -6.2820   25.6740  -29.3680 C   0  0  0  0  0  0  0  0  0  0  0  0
   -4.2470   25.6610  -30.5840 O   0  0  0  0  0  0  0  0  0  0  0  0
   -4.6400   22.9780  -31.5940 C   0  0  0  0  0  0  0  0  0  0  0  0
   -3.4310   23.3230  -31.4820 O   0  0  0  0  0  0  0  0  0  0  0  0
   -4.9690   21.7820  -32.2560 C   0  0  0  0  0  0  0  0  0  0  0  0
   -3.9530   20.9580  -32.7850 C   0  0  0  0  0  0  0  0  0  0  0  0
   -4.2720   19.7790  -33.4510 C   0  0  0  0  0  0  0  0  0  0  0  0
   -5.6010   19.4040  -33.6030 C   0  0  0  0  0  0  0  0  0  0  0  0
   -6.6250   20.2010  -33.0880 C   0  0  0  0  0  0  0  0  0  0  0  0
   -6.3360   21.4080  -32.3980 C   0  0  0  0  0  0  0  0  0  0  0  0
   -8.8878   18.4034  -30.5000 H   0  0  0  0  0  0  0  0  0  0  0  0
   -9.4961   17.5658  -31.9680 H   0  0  0  0  0  0  0  0  0  0  0  0
   -7.8576   18.3019  -31.9680 H   0  0  0  0  0  0  0  0  0  0  0  0
   -9.0980   19.9216  -33.1158 H   0  0  0  0  0  0  0  0  0  0  0  0
  -10.5747   19.6345  -32.1261 H   0  0  0  0  0  0  0  0  0  0  0  0
   -9.0479   21.8115  -33.0203 H   0  0  0  0  0  0  0  0  0  0  0  0
   -9.3210   22.7986  -31.5324 H   0  0  0  0  0  0  0  0  0  0  0  0
   -7.7896   24.0228  -30.8283 H   0  0  0  0  0  0  0  0  0  0  0  0
   -5.9283   25.4485  -28.3511 H   0  0  0  0  0  0  0  0  0  0  0  0
   -6.3212   26.7642  -29.5092 H   0  0  0  0  0  0  0  0  0  0  0  0
   -7.2870   25.2496  -29.5092 H   0  0  0  0  0  0  0  0  0  0  0  0
   -2.8989   21.2506  -32.6697 H   0  0  0  0  0  0  0  0  0  0  0  0
   -3.4715   19.1434  -33.8575 H   0  0  0  0  0  0  0  0  0  0  0  0
   -5.8483   18.4723  -34.1330 H   0  0  0  0  0  0  0  0  0  0  0  0
   -7.6718   19.8892  -33.2187 H   0  0  0  0  0  0  0  0  0  0  0  0
  1  2  1  0
  2  3  1  0
  3  4  1  0
  4  5  1  0
  5  6  1  0
  6  7  2  0
  7  8  1  0
  8  9  1  0
  8 10  2  0
  7 11  1  0
 11 12  2  0
 11 13  1  0
 13 14  2  0
 14 15  1  0
 15 16  2  0
 16 17  1  0
 17 18  2  0
 18  5  1  0
 18 13  1  0
  1 19  1  0
  1 20  1  0
  1 21  1  0
  2 22  1  0
  2 23  1  0
  4 24  1  0
  4 25  1  0
  6 26  1  0
  9 27  1  0
  9 28  1  0
  9 29  1  0
 14 30  1  0
 15 31  1  0
 16 32  1  0
 17 33  1  0
M  END
>  <UniqueID>  (46) 
45

>  <SMILES>  (46) 
CCOCn1cc(C(C)=O)c(=O)c2ccccc21

>  <Energy>  (46) 
48.18058907088012

>  <Genealogy>  (46) 
CCOCn1cc(C(C)=O)c(=O)c2ccccc21 (3D coordinates assigned)
CCOCn1cc(C(C)=O)c(=O)c2ccccc21 (optimized conformer: 48.18058907088012 kcal/mol)

>  <smiles>  (46) 
CCOCn1cc(C(C)=O)c(=O)c2ccccc21

>  <score_type>  (46) 
oracle

>  <origin>  (46) 
adg

>  <m_score__min__energy>  (46) 
-7.7199999999999998

>  <m_primary>  (46) 
energy

$$$$
46:0
     RDKit          3D

 40 43  0  0  0  0  0  0  0  0999 V2000
   -2.8630   13.7440  -32.8740 C   0  0  0  0  0  0  0  0  0  0  0  0
   -3.4380   14.1620  -34.1550 N   0  0  0  0  0  0  0  0  0  0  0  0
   -4.4880   15.1250  -33.9380 C   0  0  0  0  0  0  0  0  0  0  0  0
   -5.8360   14.7590  -34.1110 C   0  0  0  0  0  0  0  0  0  0  0  0
   -6.8600   15.6820  -33.8770 C   0  0  0  0  0  0  0  0  0  0  0  0
   -6.5470   16.9770  -33.4550 C   0  0  0  0  0  0  0  0  0  0  0  0
   -7.5300   17.8870  -33.2250 N   0  0  0  0  0  0  0  0  0  0  0  0
   -7.2390   19.1470  -32.8000 C   0  0  0  0  0  0  0  0  0  0  0  0
   -5.8960   19.5250  -32.6210 C   0  0  0  0  0  0  0  0  0  0  0  0
   -4.9120   18.6150  -32.8580 N   0  0  0  0  0  0  0  0  0  0  0  0
   -5.2020   17.3520  -33.2680 C   0  0  0  0  0  0  0  0  0  0  0  0
   -4.1790   16.4280  -33.5050 C   0  0  0  0  0  0  0  0  0  0  0  0
   -5.5730   20.8950  -32.1630 C   0  0  0  0  0  0  0  0  0  0  0  0
   -4.2590   21.3880  -32.2140 C   0  0  0  0  0  0  0  0  0  0  0  0
   -3.9750   22.6880  -31.7850 C   0  0  0  0  0  0  0  0  0  0  0  0
   -5.0010   23.5140  -31.2910 C   0  0  0  0  0  0  0  0  0  0  0  0
   -4.7640   24.8220  -30.8440 O   0  0  0  0  0  0  0  0  0  0  0  0
   -5.7150   25.6190  -30.1460 C   0  0  0  0  0  0  0  0  0  0  0  0
   -6.3100   23.0200  -31.2360 C   0  0  0  0  0  0  0  0  0  0  0  0
   -6.6080   21.7230  -31.6810 C   0  0  0  0  0  0  0  0  0  0  0  0
   -8.0070   21.1740  -31.5320 C   0  0  0  0  0  0  0  0  0  0  0  0
   -8.3410   20.1570  -32.6330 C   0  0  0  0  0  0  0  0  0  0  0  0
   -3.4526   14.1726  -32.0502 H   0  0  0  0  0  0  0  0  0  0  0  0
   -2.8805   12.6463  -32.8050 H   0  0  0  0  0  0  0  0  0  0  0  0
   -1.8242   14.0992  -32.8050 H   0  0  0  0  0  0  0  0  0  0  0  0
   -2.6840   14.5770  -34.7520 H   0  0  0  0  0  0  0  0  0  0  0  0
   -3.8170   13.3220  -34.6520 H   0  0  0  0  0  0  0  0  0  0  0  0
   -6.0863   13.7375  -34.4333 H   0  0  0  0  0  0  0  0  0  0  0  0
   -7.9100   15.3893  -34.0248 H   0  0  0  0  0  0  0  0  0  0  0  0
   -3.1297   16.7207  -33.3525 H   0  0  0  0  0  0  0  0  0  0  0  0
   -3.4489   20.7479  -32.5935 H   0  0  0  0  0  0  0  0  0  0  0  0
   -2.9435   23.0670  -31.8340 H   0  0  0  0  0  0  0  0  0  0  0  0
   -5.5702   25.4977  -29.0623 H   0  0  0  0  0  0  0  0  0  0  0  0
   -5.5779   26.6759  -30.4182 H   0  0  0  0  0  0  0  0  0  0  0  0
   -6.7317   25.2992  -30.4182 H   0  0  0  0  0  0  0  0  0  0  0  0
   -7.1146   23.6564  -30.8391 H   0  0  0  0  0  0  0  0  0  0  0  0
   -8.0932   20.6800  -30.5530 H   0  0  0  0  0  0  0  0  0  0  0  0
   -8.7140   22.0126  -31.6154 H   0  0  0  0  0  0  0  0  0  0  0  0
   -9.2700   19.6321  -32.3655 H   0  0  0  0  0  0  0  0  0  0  0  0
   -8.4591   20.7005  -33.5820 H   0  0  0  0  0  0  0  0  0  0  0  0
  1  2  1  0
  2  3  1  0
  3  4  2  0
  4  5  1  0
  5  6  2  0
  6  7  1  0
  7  8  2  0
  8  9  1  0
  9 10  2  0
 10 11  1  0
 11 12  2  0
  9 13  1  0
 13 14  2  0
 14 15  1  0
 15 16  2  0
 16 17  1  0
 17 18  1  0
 16 19  1  0
 19 20  2  0
 20 21  1  0
 21 22  1  0
 12  3  1  0
 20 13  1  0
 11  6  1  0
 22  8  1  0
  1 23  1  0
  1 24  1  0
  1 25  1  0
  2 26  1  0
  2 27  1  0
  4 28  1  0
  5 29  1  0
 12 30  1  0
 14 31  1  0
 15 32  1  0
 18 33  1  0
 18 34  1  0
 18 35  1  0
 19 36  1  0
 21 37  1  0
 21 38  1  0
 22 39  1  0
 22 40  1  0
M  CHG  1   2   1
M  END
>  <UniqueID>  (47) 
46

>  <SMILES>  (47) 
C[NH2+]c1ccc2nc3c(nc2c1)-c1ccc(OC)cc1CC3

>  <Energy>  (47) 
49.70070539963205

>  <Genealogy>  (47) 
C[NH2+]c1ccc2nc3c(nc2c1)-c1ccc(OC)cc1CC3 (protonated)
C[NH2+]c1ccc2nc3c(nc2c1)-c1ccc(OC)cc1CC3 (3D coordinates assigned)
C[NH2+]c1ccc2nc3c(nc2c1)-c1ccc(OC)cc1CC3 (nonaromatic ring conformer: 49.70070539963205 kcal/mol)

>  <smiles>  (47) 
CNc1ccc2nc3c(nc2c1)-c1ccc(OC)cc1CC3

>  <score_type>  (47) 
oracle

>  <origin>  (47) 
adg

>  <m_score__min__energy>  (47) 
-7.4900000000000002

>  <m_primary>  (47) 
energy

$$$$
47:0
     RDKit          3D

 37 38  0  0  0  0  0  0  0  0999 V2000
   -2.2980   24.2360  -29.3360 C   0  0  0  0  0  0  0  0  0  0  0  0
   -3.1700   24.8290  -30.2930 O   0  0  0  0  0  0  0  0  0  0  0  0
   -4.5420   24.5470  -30.4060 C   0  0  0  0  0  0  0  0  0  0  0  0
   -5.5140   25.3060  -29.7220 C   0  0  0  0  0  0  0  0  0  0  0  0
   -6.8710   25.0130  -29.8680 C   0  0  0  0  0  0  0  0  0  0  0  0
   -7.2770   23.9690  -30.6980 C   0  0  0  0  0  0  0  0  0  0  0  0
   -6.3270   23.2080  -31.3810 C   0  0  0  0  0  0  0  0  0  0  0  0
   -4.9560   23.4770  -31.2280 C   0  0  0  0  0  0  0  0  0  0  0  0
   -3.9520   22.6650  -32.0060 C   0  0  0  0  0  0  0  0  0  0  0  0
   -4.6280   21.9590  -33.0990 N   0  0  0  0  0  0  0  0  0  0  0  0
   -4.3240   20.5260  -33.0470 C   0  0  0  0  0  0  0  0  0  0  0  0
   -5.6030   19.7400  -33.0600 C   0  0  0  0  0  0  0  0  0  0  0  0
   -6.7220   20.0090  -32.3010 C   0  0  0  0  0  0  0  0  0  0  0  0
   -7.5900   18.9760  -32.6020 C   0  0  0  0  0  0  0  0  0  0  0  0
   -8.9310   18.7560  -31.9850 C   0  0  0  0  0  0  0  0  0  0  0  0
   -7.0110   18.1200  -33.4670 N   0  0  0  0  0  0  0  0  0  0  0  0
   -5.8060   18.5940  -33.7440 N   0  0  0  0  0  0  0  0  0  0  0  0
   -4.8600   17.9270  -34.6310 C   0  0  0  0  0  0  0  0  0  0  0  0
   -2.6498   24.4752  -28.3216 H   0  0  0  0  0  0  0  0  0  0  0  0
   -2.2904   23.1447  -29.4736 H   0  0  0  0  0  0  0  0  0  0  0  0
   -1.2803   24.6300  -29.4736 H   0  0  0  0  0  0  0  0  0  0  0  0
   -5.2009   26.1342  -29.0693 H   0  0  0  0  0  0  0  0  0  0  0  0
   -7.6219   25.6074  -29.3268 H   0  0  0  0  0  0  0  0  0  0  0  0
   -8.3475   23.7447  -30.8148 H   0  0  0  0  0  0  0  0  0  0  0  0
   -6.6534   22.3926  -32.0432 H   0  0  0  0  0  0  0  0  0  0  0  0
   -3.1845   23.3340  -32.4223 H   0  0  0  0  0  0  0  0  0  0  0  0
   -3.4790   21.9318  -31.3362 H   0  0  0  0  0  0  0  0  0  0  0  0
   -4.2540   22.3320  -34.0050 H   0  0  0  0  0  0  0  0  0  0  0  0
   -3.7149   20.2489  -33.9201 H   0  0  0  0  0  0  0  0  0  0  0  0
   -3.7674   20.3035  -32.1247 H   0  0  0  0  0  0  0  0  0  0  0  0
   -6.8864   20.8520  -31.6137 H   0  0  0  0  0  0  0  0  0  0  0  0
   -8.8374   18.7714  -30.8891 H   0  0  0  0  0  0  0  0  0  0  0  0
   -9.6174   19.5535  -32.3056 H   0  0  0  0  0  0  0  0  0  0  0  0
   -9.3266   17.7809  -32.3056 H   0  0  0  0  0  0  0  0  0  0  0  0
   -4.1066   17.3958  -34.0308 H   0  0  0  0  0  0  0  0  0  0  0  0
   -5.3975   17.2070  -35.2656 H   0  0  0  0  0  0  0  0  0  0  0  0
   -4.3624   18.6751  -35.2656 H   0  0  0  0  0  0  0  0  0  0  0  0
  1  2  1  0
  2  3  1  0
  3  4  2  0
  4  5  1  0
  5  6  2  0
  6  7  1  0
  7  8  2  0
  8  9  1  0
  9 10  1  0
 10 11  1  0
 11 12  1  0
 12 13  2  0
 13 14  1  0
 14 15  1  0
 14 16  2  0
 16 17  1  0
 17 18  1  0
  8  3  1  0
 17 12  1  0
  1 19  1  0
  1 20  1  0
  1 21  1  0
  4 22  1  0
  5 23  1  0
  6 24  1  0
  7 25  1  0
  9 26  1  0
  9 27  1  0
 10 28  1  0
 11 29  1  0
 11 30  1  0
 13 31  1  0
 15 32  1  0
 15 33  1  0
 15 34  1  0
 18 35  1  0
 18 36  1  0
 18 37  1  0
M  END
>  <UniqueID>  (48) 
47

>  <SMILES>  (48) 
COc1ccccc1CNCc1cc(C)nn1C

>  <Energy>  (48) 
61.10401637215022

>  <Genealogy>  (48) 
COc1ccccc1CNCc1cc(C)nn1C (3D coordinates assigned)
COc1ccccc1CNCc1cc(C)nn1C (optimized conformer: 61.10401637215022 kcal/mol)

>  <smiles>  (48) 
COc1ccccc1CNCc1cc(C)nn1C

>  <score_type>  (48) 
oracle

>  <origin>  (48) 
adg

>  <m_score__min__energy>  (48) 
-7.1799999999999997

>  <m_primary>  (48) 
energy

$$$$
48:0
     RDKit          3D

 44 46  0  0  0  0  0  0  0  0999 V2000
   -5.2640   25.8170  -30.4310 C   0  0  0  0  0  0  0  0  0  0  0  0
   -3.9410   25.2910  -30.4610 O   0  0  0  0  0  0  0  0  0  0  0  0
   -3.6170   23.9510  -30.2030 C   0  0  0  0  0  0  0  0  0  0  0  0
   -3.7490   23.4760  -28.8930 C   0  0  0  0  0  0  0  0  0  0  0  0
   -3.4650   22.1430  -28.5910 C   0  0  0  0  0  0  0  0  0  0  0  0
   -3.0460   21.2700  -29.5970 C   0  0  0  0  0  0  0  0  0  0  0  0
   -2.8940   21.7290  -30.9140 C   0  0  0  0  0  0  0  0  0  0  0  0
   -2.4920   20.7640  -32.0090 C   0  0  0  0  0  0  0  0  0  0  0  0
   -3.6600   20.0400  -32.5440 N   0  0  0  0  0  0  0  0  0  0  0  0
   -3.3490   18.6220  -32.8130 C   0  0  0  0  0  0  0  0  0  0  0  0
   -4.3850   17.9780  -33.7470 C   0  0  0  0  0  0  0  0  0  0  0  0
   -5.4790   18.8600  -34.0160 O   0  0  0  0  0  0  0  0  0  0  0  0
   -6.5430   19.1710  -33.1480 C   0  0  0  0  0  0  0  0  0  0  0  0
   -7.4710   18.1520  -32.8900 C   0  0  0  0  0  0  0  0  0  0  0  0
   -8.5340   18.3550  -32.0100 C   0  0  0  0  0  0  0  0  0  0  0  0
   -8.6960   19.5840  -31.3740 C   0  0  0  0  0  0  0  0  0  0  0  0
   -7.8000   20.6300  -31.6330 C   0  0  0  0  0  0  0  0  0  0  0  0
   -7.9590   21.8780  -31.0170 C   0  0  0  0  0  0  0  0  0  0  0  0
   -7.0740   22.9150  -31.3130 C   0  0  0  0  0  0  0  0  0  0  0  0
   -6.0410   22.6950  -32.2230 C   0  0  0  0  0  0  0  0  0  0  0  0
   -5.8920   21.4770  -32.8060 N   0  0  0  0  0  0  0  0  0  0  0  0
   -6.7230   20.4340  -32.5330 C   0  0  0  0  0  0  0  0  0  0  0  0
   -3.1760   23.0730  -31.2120 C   0  0  0  0  0  0  0  0  0  0  0  0
   -5.5843   25.9444  -29.3864 H   0  0  0  0  0  0  0  0  0  0  0  0
   -5.2830   26.7911  -30.9417 H   0  0  0  0  0  0  0  0  0  0  0  0
   -5.9466   25.1219  -30.9417 H   0  0  0  0  0  0  0  0  0  0  0  0
   -4.0790   24.1581  -28.0956 H   0  0  0  0  0  0  0  0  0  0  0  0
   -3.5715   21.7796  -27.5583 H   0  0  0  0  0  0  0  0  0  0  0  0
   -2.8342   20.2179  -29.3559 H   0  0  0  0  0  0  0  0  0  0  0  0
   -2.0155   21.3271  -32.8250 H   0  0  0  0  0  0  0  0  0  0  0  0
   -1.7942   20.0282  -31.5828 H   0  0  0  0  0  0  0  0  0  0  0  0
   -4.0010   20.5250  -33.4060 H   0  0  0  0  0  0  0  0  0  0  0  0
   -4.4290   20.0800  -31.8350 H   0  0  0  0  0  0  0  0  0  0  0  0
   -2.3569   18.5582  -33.2837 H   0  0  0  0  0  0  0  0  0  0  0  0
   -3.3680   18.0802  -31.8559 H   0  0  0  0  0  0  0  0  0  0  0  0
   -3.8951   17.7184  -34.6970 H   0  0  0  0  0  0  0  0  0  0  0  0
   -4.7832   17.0814  -33.2494 H   0  0  0  0  0  0  0  0  0  0  0  0
   -7.3590   17.1781  -33.3890 H   0  0  0  0  0  0  0  0  0  0  0  0
   -9.2480   17.5407  -31.8172 H   0  0  0  0  0  0  0  0  0  0  0  0
   -9.5269   19.7332  -30.6688 H   0  0  0  0  0  0  0  0  0  0  0  0
   -8.7792   22.0399  -30.3021 H   0  0  0  0  0  0  0  0  0  0  0  0
   -7.1902   23.8977  -30.8326 H   0  0  0  0  0  0  0  0  0  0  0  0
   -5.3446   23.5100  -32.4697 H   0  0  0  0  0  0  0  0  0  0  0  0
   -3.0514   23.4420  -32.2408 H   0  0  0  0  0  0  0  0  0  0  0  0
  1  2  1  0
  2  3  1  0
  3  4  2  0
  4  5  1  0
  5  6  2  0
  6  7  1  0
  7  8  1  0
  8  9  1  0
  9 10  1  0
 10 11  1  0
 11 12  1  0
 12 13  1  0
 13 14  2  0
 14 15  1  0
 15 16  2  0
 16 17  1  0
 17 18  2  0
 18 19  1  0
 19 20  2  0
 20 21  1  0
 21 22  2  0
  7 23  2  0
 23  3  1  0
 22 13  1  0
 22 17  1  0
  1 24  1  0
  1 25  1  0
  1 26  1  0
  4 27  1  0
  5 28  1  0
  6 29  1  0
  8 30  1  0
  8 31  1  0
  9 32  1  0
  9 33  1  0
 10 34  1  0
 10 35  1  0
 11 36  1  0
 11 37  1  0
 14 38  1  0
 15 39  1  0
 16 40  1  0
 18 41  1  0
 19 42  1  0
 20 43  1  0
 23 44  1  0
M  CHG  1   9   1
M  END
>  <UniqueID>  (49) 
48

>  <SMILES>  (49) 
COc1cccc(C[NH2+]CCOc2cccc3cccnc23)c1

>  <Energy>  (49) 
46.01300588701196

>  <Genealogy>  (49) 
COc1cccc(C[NH2+]CCOc2cccc3cccnc23)c1 (protonated)
COc1cccc(C[NH2+]CCOc2cccc3cccnc23)c1 (3D coordinates assigned)
COc1cccc(C[NH2+]CCOc2cccc3cccnc23)c1 (optimized conformer: 46.01300588701196 kcal/mol)

>  <smiles>  (49) 
COc1cccc(CNCCOc2cccc3cccnc23)c1

>  <score_type>  (49) 
oracle

>  <origin>  (49) 
adg

>  <m_score__min__energy>  (49) 
-6.9800000000000004

>  <m_primary>  (49) 
energy

$$$$
