0:0
     RDKit          3D

 61 64  0  0  0  0  0  0  0  0999 V2000
   -4.5270   13.9610  -31.7510 C   0  0  0  0  0  0  0  0  0  0  0  0
   -3.8480   15.0050  -32.4420 O   0  0  0  0  0  0  0  0  0  0  0  0
   -4.4870   16.0520  -33.1240 C   0  0  0  0  0  0  0  0  0  0  0  0
   -3.9790   16.4380  -34.3710 C   0  0  0  0  0  0  0  0  0  0  0  0
   -4.5790   17.4720  -35.0890 C   0  0  0  0  0  0  0  0  0  0  0  0
   -5.6930   18.1340  -34.5710 C   0  0  0  0  0  0  0  0  0  0  0  0
   -6.2220   17.7670  -33.3190 C   0  0  0  0  0  0  0  0  0  0  0  0
   -7.4020   18.4630  -32.7530 C   0  0  0  0  0  0  0  0  0  0  0  0
   -7.7840   19.7770  -32.9460 C   0  0  0  0  0  0  0  0  0  0  0  0
   -8.9060   19.9500  -32.2280 N   0  0  0  0  0  0  0  0  0  0  0  0
   -9.6490   21.1940  -32.0580 C   0  0  0  0  0  0  0  0  0  0  0  0
   -8.9710   22.0700  -30.9990 C   0  0  0  0  0  0  0  0  0  0  0  0
   -7.9620   23.0590  -31.6190 C   0  0  0  0  0  0  0  0  0  0  0  0
   -7.0240   23.7120  -30.5900 C   0  0  0  0  0  0  0  0  0  0  0  0
   -5.9000   24.5280  -31.2420 C   0  0  0  0  0  0  0  0  0  0  0  0
   -4.9960   25.2210  -30.2150 C   0  0  0  0  0  0  0  0  0  0  0  0
   -3.6160   24.9460  -30.4690 O   0  0  0  0  0  0  0  0  0  0  0  0
   -2.7160   24.2820  -29.6160 C   0  0  0  0  0  0  0  0  0  0  0  0
   -2.0420   24.9410  -28.5650 C   0  0  0  0  0  0  0  0  0  0  0  0
   -1.1900   24.2330  -27.7160 C   0  0  0  0  0  0  0  0  0  0  0  0
   -0.9980   22.8650  -27.8970 C   0  0  0  0  0  0  0  0  0  0  0  0
   -1.6500   22.1990  -28.9350 C   0  0  0  0  0  0  0  0  0  0  0  0
   -2.5030   22.8980  -29.8060 C   0  0  0  0  0  0  0  0  0  0  0  0
   -3.1510   22.1720  -30.9260 C   0  0  0  0  0  0  0  0  0  0  0  0
   -4.4660   21.6890  -30.7970 C   0  0  0  0  0  0  0  0  0  0  0  0
   -5.0770   21.0130  -31.8580 C   0  0  0  0  0  0  0  0  0  0  0  0
   -4.3850   20.8180  -33.0550 C   0  0  0  0  0  0  0  0  0  0  0  0
   -3.0810   21.3030  -33.1960 C   0  0  0  0  0  0  0  0  0  0  0  0
   -2.4660   21.9800  -32.1390 C   0  0  0  0  0  0  0  0  0  0  0  0
   -9.1940   18.8140  -31.6120 N   0  0  0  0  0  0  0  0  0  0  0  0
   -8.2970   17.8880  -31.9190 N   0  0  0  0  0  0  0  0  0  0  0  0
   -5.6110   16.7210  -32.6030 C   0  0  0  0  0  0  0  0  0  0  0  0
   -4.4275   14.1140  -30.6663 H   0  0  0  0  0  0  0  0  0  0  0  0
   -5.5919   13.9710  -32.0265 H   0  0  0  0  0  0  0  0  0  0  0  0
   -4.0861   12.9916  -32.0265 H   0  0  0  0  0  0  0  0  0  0  0  0
   -3.1009   15.9221  -34.7867 H   0  0  0  0  0  0  0  0  0  0  0  0
   -4.1725   17.7670  -36.0677 H   0  0  0  0  0  0  0  0  0  0  0  0
   -6.1607   18.9478  -35.1446 H   0  0  0  0  0  0  0  0  0  0  0  0
   -7.2722   20.5299  -33.5634 H   0  0  0  0  0  0  0  0  0  0  0  0
   -9.6765   21.7354  -33.0151 H   0  0  0  0  0  0  0  0  0  0  0  0
  -10.6731   20.9607  -31.7313 H   0  0  0  0  0  0  0  0  0  0  0  0
   -9.7440   22.6414  -30.4642 H   0  0  0  0  0  0  0  0  0  0  0  0
   -8.4184   21.4076  -30.3165 H   0  0  0  0  0  0  0  0  0  0  0  0
   -7.3483   22.5150  -32.3521 H   0  0  0  0  0  0  0  0  0  0  0  0
   -8.5472   23.8686  -32.0796 H   0  0  0  0  0  0  0  0  0  0  0  0
   -7.6171   24.3807  -29.9489 H   0  0  0  0  0  0  0  0  0  0  0  0
   -6.5530   22.9033  -30.0120 H   0  0  0  0  0  0  0  0  0  0  0  0
   -5.2839   23.8519  -31.8530 H   0  0  0  0  0  0  0  0  0  0  0  0
   -6.3714   25.3131  -31.8514 H   0  0  0  0  0  0  0  0  0  0  0  0
   -5.1606   26.3073  -30.2679 H   0  0  0  0  0  0  0  0  0  0  0  0
   -5.2484   24.8376  -29.2153 H   0  0  0  0  0  0  0  0  0  0  0  0
   -2.1895   26.0206  -28.4141 H   0  0  0  0  0  0  0  0  0  0  0  0
   -0.6684   24.7568  -26.9014 H   0  0  0  0  0  0  0  0  0  0  0  0
   -0.3316   22.3095  -27.2207 H   0  0  0  0  0  0  0  0  0  0  0  0
   -1.4953   21.1187  -29.0727 H   0  0  0  0  0  0  0  0  0  0  0  0
   -5.0163   21.8438  -29.8572 H   0  0  0  0  0  0  0  0  0  0  0  0
   -6.1041   20.6344  -31.7494 H   0  0  0  0  0  0  0  0  0  0  0  0
   -4.8657   20.2828  -33.8872 H   0  0  0  0  0  0  0  0  0  0  0  0
   -2.5381   21.1514  -34.1406 H   0  0  0  0  0  0  0  0  0  0  0  0
   -1.4420   22.3642  -32.2565 H   0  0  0  0  0  0  0  0  0  0  0  0
   -6.0162   16.4225  -31.6249 H   0  0  0  0  0  0  0  0  0  0  0  0
  1  2  1  0
  2  3  1  0
  3  4  2  0
  4  5  1  0
  5  6  2  0
  6  7  1  0
  7  8  1  0
  8  9  2  0
  9 10  1  0
 10 11  1  0
 11 12  1  0
 12 13  1  0
 13 14  1  0
 14 15  1  0
 15 16  1  0
 16 17  1  0
 17 18  1  0
 18 19  2  0
 19 20  1  0
 20 21  2  0
 21 22  1  0
 22 23  2  0
 23 24  1  0
 24 25  2  0
 25 26  1  0
 26 27  2  0
 27 28  1  0
 28 29  2  0
 10 30  1  0
 30 31  2  0
  7 32  2  0
 32  3  1  0
 31  8  1  0
 23 18  1  0
 29 24  1  0
  1 33  1  0
  1 34  1  0
  1 35  1  0
  4 36  1  0
  5 37  1  0
  6 38  1  0
  9 39  1  0
 11 40  1  0
 11 41  1  0
 12 42  1  0
 12 43  1  0
 13 44  1  0
 13 45  1  0
 14 46  1  0
 14 47  1  0
 15 48  1  0
 15 49  1  0
 16 50  1  0
 16 51  1  0
 19 52  1  0
 20 53  1  0
 21 54  1  0
 22 55  1  0
 25 56  1  0
 26 57  1  0
 27 58  1  0
 28 59  1  0
 29 60  1  0
 32 61  1  0
M  END
>  <UniqueID>  (1) 
1

>  <SMILES>  (1) 
COc1cccc(-c2cn(CCCCCCOc3ccccc3-c3ccccc3)nn2)c1

>  <Energy>  (1) 
101.41458837700748

>  <Genealogy>  (1) 
COc1cccc(-c2cn(CCCCCCOc3ccccc3-c3ccccc3)nn2)c1 (3D coordinates assigned)
COc1cccc(-c2cn(CCCCCCOc3ccccc3-c3ccccc3)nn2)c1 (optimized conformer: 101.41458837700748 kcal/mol)

>  <smiles>  (1) 
COc1cccc(-c2cn(CCCCCCOc3ccccc3-c3ccccc3)nn2)c1

>  <score_type>  (1) 
oracle

>  <origin>  (1) 
adg

>  <m_score__min__energy>  (1) 
-10.460000000000001

>  <m_primary>  (1) 
energy

$$$$
1:0
     RDKit          3D

 47 50  0  0  0  0  0  0  0  0999 V2000
   -0.5320   20.4000  -33.1830 C   0  0  0  0  0  0  0  0  0  0  0  0
   -1.9870   20.6950  -32.9940 C   0  0  0  0  0  0  0  0  0  0  0  0
   -2.4300   21.7250  -32.3180 O   0  0  0  0  0  0  0  0  0  0  0  0
   -3.7440   21.6710  -32.3460 C   0  0  0  0  0  0  0  0  0  0  0  0
   -4.6180   22.6460  -31.6650 C   0  0  0  0  0  0  0  0  0  0  0  0
   -4.3190   23.0910  -30.3650 C   0  0  0  0  0  0  0  0  0  0  0  0
   -5.1420   24.0290  -29.7340 C   0  0  0  0  0  0  0  0  0  0  0  0
   -6.2660   24.5310  -30.3930 C   0  0  0  0  0  0  0  0  0  0  0  0
   -6.5700   24.0960  -31.6850 C   0  0  0  0  0  0  0  0  0  0  0  0
   -5.7500   23.1590  -32.3220 C   0  0  0  0  0  0  0  0  0  0  0  0
   -4.2050   20.6110  -33.0450 N   0  0  0  0  0  0  0  0  0  0  0  0
   -3.0850   19.9770  -33.4410 C   0  0  0  0  0  0  0  0  0  0  0  0
   -3.1020   18.6780  -34.2090 C   0  0  0  0  0  0  0  0  0  0  0  0
   -4.3800   17.9430  -34.0840 N   0  0  0  0  0  0  0  0  0  0  0  0
   -4.7370   17.6030  -32.6860 C   0  0  0  0  0  0  0  0  0  0  0  0
   -6.2450   17.4630  -32.4840 C   0  0  0  0  0  0  0  0  0  0  0  0
   -6.8870   18.7110  -32.9040 N   0  0  0  0  0  0  0  0  0  0  0  0
   -7.8570   19.3570  -32.0560 C   0  0  0  0  0  0  0  0  0  0  0  0
   -8.5020   18.6840  -31.2070 O   0  0  0  0  0  0  0  0  0  0  0  0
   -8.1440   20.8270  -32.1900 C   0  0  0  0  0  0  0  0  0  0  0  0
   -8.5570   21.5110  -30.8930 C   0  0  0  0  0  0  0  0  0  0  0  0
   -9.5970   21.2210  -31.9600 C   0  0  0  0  0  0  0  0  0  0  0  0
   -6.4960   19.3190  -34.1800 C   0  0  0  0  0  0  0  0  0  0  0  0
   -5.4780   18.4530  -34.9430 C   0  0  0  0  0  0  0  0  0  0  0  0
   -0.0472   20.3017  -32.2005 H   0  0  0  0  0  0  0  0  0  0  0  0
   -0.4182   19.4605  -33.7437 H   0  0  0  0  0  0  0  0  0  0  0  0
   -0.0612   21.2210  -33.7437 H   0  0  0  0  0  0  0  0  0  0  0  0
   -3.4339   22.6995  -29.8422 H   0  0  0  0  0  0  0  0  0  0  0  0
   -4.9035   24.3721  -28.7165 H   0  0  0  0  0  0  0  0  0  0  0  0
   -6.9119   25.2689  -29.8947 H   0  0  0  0  0  0  0  0  0  0  0  0
   -7.4564   24.4913  -32.2027 H   0  0  0  0  0  0  0  0  0  0  0  0
   -5.9917   22.8222  -33.3409 H   0  0  0  0  0  0  0  0  0  0  0  0
   -2.9282   18.8985  -35.2726 H   0  0  0  0  0  0  0  0  0  0  0  0
   -2.3142   18.0378  -33.7853 H   0  0  0  0  0  0  0  0  0  0  0  0
   -4.2557   16.6500  -32.4210 H   0  0  0  0  0  0  0  0  0  0  0  0
   -4.3888   18.4249  -32.0431 H   0  0  0  0  0  0  0  0  0  0  0  0
   -6.6248   16.6277  -33.0906 H   0  0  0  0  0  0  0  0  0  0  0  0
   -6.4669   17.2621  -31.4255 H   0  0  0  0  0  0  0  0  0  0  0  0
   -7.3993   21.0213  -32.9759 H   0  0  0  0  0  0  0  0  0  0  0  0
   -8.5636   20.9440  -29.9504 H   0  0  0  0  0  0  0  0  0  0  0  0
   -8.2301   22.4102  -30.3503 H   0  0  0  0  0  0  0  0  0  0  0  0
  -10.3569   20.4440  -31.7901 H   0  0  0  0  0  0  0  0  0  0  0  0
  -10.3351   21.8234  -32.5098 H   0  0  0  0  0  0  0  0  0  0  0  0
   -7.3935   19.4445  -34.8035 H   0  0  0  0  0  0  0  0  0  0  0  0
   -6.0232   20.2884  -33.9638 H   0  0  0  0  0  0  0  0  0  0  0  0
   -6.0082   17.5934  -35.3789 H   0  0  0  0  0  0  0  0  0  0  0  0
   -5.0196   19.0912  -35.7128 H   0  0  0  0  0  0  0  0  0  0  0  0
  1  2  1  0
  2  3  1  0
  3  4  1  0
  4  5  1  0
  5  6  2  0
  6  7  1  0
  7  8  2  0
  8  9  1  0
  9 10  2  0
  4 11  2  0
 11 12  1  0
 12 13  1  0
 13 14  1  0
 14 15  1  0
 15 16  1  0
 16 17  1  0
 17 18  1  0
 18 19  2  0
 18 20  1  0
 20 21  1  0
 21 22  1  0
 17 23  1  0
 23 24  1  0
 12  2  2  0
 24 14  1  0
 10  5  1  0
 22 20  1  0
  1 25  1  0
  1 26  1  0
  1 27  1  0
  6 28  1  0
  7 29  1  0
  8 30  1  0
  9 31  1  0
 10 32  1  0
 13 33  1  0
 13 34  1  0
 15 35  1  0
 15 36  1  0
 16 37  1  0
 16 38  1  0
 20 39  1  0
 21 40  1  0
 21 41  1  0
 22 42  1  0
 22 43  1  0
 23 44  1  0
 23 45  1  0
 24 46  1  0
 24 47  1  0
M  END
>  <UniqueID>  (2) 
2

>  <SMILES>  (2) 
Cc1oc(-c2ccccc2)nc1CN1CCN(C(=O)C2CC2)CC1

>  <Energy>  (2) 
348.7138611970187

>  <Genealogy>  (2) 
Cc1oc(-c2ccccc2)nc1CN1CCN(C(=O)C2CC2)CC1 (3D coordinates assigned)
Cc1oc(-c2ccccc2)nc1CN1CCN(C(=O)C2CC2)CC1 (nonaromatic ring conformer: 348.7138611970187 kcal/mol)

>  <smiles>  (2) 
Cc1oc(-c2ccccc2)nc1CN1CCN(C(=O)C2CC2)CC1

>  <score_type>  (2) 
oracle

>  <origin>  (2) 
adg

>  <m_score__min__energy>  (2) 
-8.4000000000000004

>  <m_primary>  (2) 
energy

$$$$
2:0
     RDKit          3D

 30 30  0  0  0  0  0  0  0  0999 V2000
   -8.7560   19.5820  -32.3150 C   0  0  0  0  0  0  0  0  0  0  0  0
   -7.7670   20.1770  -33.1240 O   0  0  0  0  0  0  0  0  0  0  0  0
   -6.7540   19.2330  -33.3950 C   0  0  0  0  0  0  0  0  0  0  0  0
   -5.4030   19.8190  -32.9890 C   0  0  0  0  0  0  0  0  0  0  0  0
   -5.5270   21.1950  -32.6780 O   0  0  0  0  0  0  0  0  0  0  0  0
   -5.5570   21.4270  -31.2770 C   0  0  1  0  0  0  0  0  0  0  0  0
   -4.1400   21.6900  -30.8170 C   0  0  0  0  0  0  0  0  0  0  0  0
   -3.6680   22.9130  -30.5240 C   0  0  0  0  0  0  0  0  0  0  0  0
   -4.5620   24.1310  -30.4320 C   0  0  1  0  0  0  0  0  0  0  0  0
   -3.8710   25.2970  -30.8020 O   0  0  0  0  0  0  0  0  0  0  0  0
   -5.8690   23.9730  -31.2430 C   0  0  1  0  0  0  0  0  0  0  0  0
   -5.6760   24.1690  -32.6250 O   0  0  0  0  0  0  0  0  0  0  0  0
   -6.5120   22.6030  -30.9510 C   0  0  1  0  0  0  0  0  0  0  0  0
   -7.7100   22.4840  -31.6740 O   0  0  0  0  0  0  0  0  0  0  0  0
   -8.5032   19.7341  -31.2553 H   0  0  0  0  0  0  0  0  0  0  0  0
   -9.7313   20.0434  -32.5292 H   0  0  0  0  0  0  0  0  0  0  0  0
   -8.8053   18.5042  -32.5292 H   0  0  0  0  0  0  0  0  0  0  0  0
   -6.9441   18.3138  -32.8215 H   0  0  0  0  0  0  0  0  0  0  0  0
   -6.7470   18.9950  -34.4689 H   0  0  0  0  0  0  0  0  0  0  0  0
   -5.0271   19.2817  -32.1058 H   0  0  0  0  0  0  0  0  0  0  0  0
   -4.7026   19.7084  -33.8299 H   0  0  0  0  0  0  0  0  0  0  0  0
   -5.9462   20.5500  -30.7391 H   0  0  0  0  0  0  0  0  0  0  0  0
   -3.4585   20.8323  -30.7169 H   0  0  0  0  0  0  0  0  0  0  0  0
   -2.5896   23.0341  -30.3439 H   0  0  0  0  0  0  0  0  0  0  0  0
   -4.8570   24.2267  -29.3766 H   0  0  0  0  0  0  0  0  0  0  0  0
   -4.2550   25.6220  -31.6580 H   0  0  0  0  0  0  0  0  0  0  0  0
   -6.5597   24.7646  -30.9169 H   0  0  0  0  0  0  0  0  0  0  0  0
   -5.9560   23.3440  -33.1000 H   0  0  0  0  0  0  0  0  0  0  0  0
   -6.7246   22.5497  -29.8731 H   0  0  0  0  0  0  0  0  0  0  0  0
   -7.4610   22.2330  -32.6010 H   0  0  0  0  0  0  0  0  0  0  0  0
  1  2  1  0
  2  3  1  0
  3  4  1  0
  4  5  1  0
  5  6  1  0
  6  7  1  0
  7  8  2  0
  8  9  1  0
  9 10  1  0
  9 11  1  0
 11 12  1  0
 11 13  1  0
 13 14  1  0
 13  6  1  0
  1 15  1  0
  1 16  1  0
  1 17  1  0
  3 18  1  0
  3 19  1  0
  4 20  1  0
  4 21  1  0
  6 22  1  1
  7 23  1  0
  8 24  1  0
  9 25  1  1
 10 26  1  0
 11 27  1  1
 12 28  1  0
 13 29  1  1
 14 30  1  0
M  END
>  <UniqueID>  (3) 
3

>  <SMILES>  (3) 
COCCO[C@H]1C=C[C@@H](O)C(O)C1O

>  <Energy>  (3) 
33.45918125195764

>  <Genealogy>  (3) 
COCCO[C@H]1C=C[C@@H](O)C(O)C1O (chirality)
COCCO[C@H]1C=C[C@@H](O)C(O)C1O (3D coordinates assigned)
COCCO[C@H]1C=C[C@@H](O)C(O)C1O (nonaromatic ring conformer: 33.45918125195764 kcal/mol)

>  <smiles>  (3) 
COCCOC1C=CC(O)C(O)C1O

>  <score_type>  (3) 
oracle

>  <origin>  (3) 
adg

>  <m_score__min__energy>  (3) 
-5.0800000000000001

>  <m_primary>  (3) 
energy

$$$$
3:0
     RDKit          3D

 47 50  0  0  0  0  0  0  0  0999 V2000
   -4.2480   22.5180  -27.8090 C   0  0  0  0  0  0  0  0  0  0  0  0
   -2.9770   23.3060  -27.9480 C   0  0  0  0  0  0  0  0  0  0  0  0
   -1.8970   22.9060  -27.2210 N   0  0  0  0  0  0  0  0  0  0  0  0
   -0.6890   23.5170  -27.3150 C   0  0  0  0  0  0  0  0  0  0  0  0
   -0.5150   24.5800  -28.1960 C   0  0  0  0  0  0  0  0  0  0  0  0
   -1.5920   25.0140  -28.9650 C   0  0  0  0  0  0  0  0  0  0  0  0
   -2.8540   24.4060  -28.8400 C   0  0  0  0  0  0  0  0  0  0  0  0
   -4.0270   24.9210  -29.6680 C   0  0  0  0  0  0  0  0  0  0  0  0
   -4.2670   24.1970  -30.9440 N   0  0  0  0  0  0  0  0  0  0  0  0
   -5.6890   24.1570  -31.3550 C   0  0  0  0  0  0  0  0  0  0  0  0
   -5.9520   22.7430  -31.8510 C   0  0  2  0  0  0  0  0  0  0  0  0
   -7.3740   22.1820  -31.6770 C   0  0  0  0  0  0  0  0  0  0  0  0
   -7.3710   20.6310  -31.6070 C   0  0  0  0  0  0  0  0  0  0  0  0
   -6.1330   20.0410  -32.1690 N   0  0  0  0  0  0  0  0  0  0  0  0
   -6.1890   18.8510  -32.9740 C   0  0  0  0  0  0  0  0  0  0  0  0
   -5.6630   18.8600  -34.2310 N   0  0  0  0  0  0  0  0  0  0  0  0
   -5.7100   17.7590  -35.0230 C   0  0  0  0  0  0  0  0  0  0  0  0
   -6.3120   16.5930  -34.5550 C   0  0  0  0  0  0  0  0  0  0  0  0
   -6.8620   16.5990  -33.2760 C   0  0  0  0  0  0  0  0  0  0  0  0
   -6.7990   17.7200  -32.5090 N   0  0  0  0  0  0  0  0  0  0  0  0
   -4.8090   20.5500  -31.7510 C   0  0  0  0  0  0  0  0  0  0  0  0
   -4.9630   21.9160  -31.0720 C   0  0  1  0  0  0  0  0  0  0  0  0
   -3.7440   22.8160  -31.0240 C   0  0  0  0  0  0  0  0  0  0  0  0
   -4.4767   22.3762  -26.7424 H   0  0  0  0  0  0  0  0  0  0  0  0
   -5.0723   23.0637  -28.2914 H   0  0  0  0  0  0  0  0  0  0  0  0
   -4.1258   21.5370  -28.2914 H   0  0  0  0  0  0  0  0  0  0  0  0
    0.1519   23.1723  -26.6953 H   0  0  0  0  0  0  0  0  0  0  0  0
    0.4643   25.0731  -28.2842 H   0  0  0  0  0  0  0  0  0  0  0  0
   -1.4542   25.8407  -29.6774 H   0  0  0  0  0  0  0  0  0  0  0  0
   -4.9370   24.8415  -29.0552 H   0  0  0  0  0  0  0  0  0  0  0  0
   -3.7738   25.9546  -29.9464 H   0  0  0  0  0  0  0  0  0  0  0  0
   -5.8730   24.8833  -32.1604 H   0  0  0  0  0  0  0  0  0  0  0  0
   -6.3539   24.4166  -30.5181 H   0  0  0  0  0  0  0  0  0  0  0  0
   -5.8435   22.7250  -32.9455 H   0  0  0  0  0  0  0  0  0  0  0  0
   -7.9902   22.4998  -32.5310 H   0  0  0  0  0  0  0  0  0  0  0  0
   -7.7835   22.5686  -30.7321 H   0  0  0  0  0  0  0  0  0  0  0  0
   -8.2328   20.2504  -32.1749 H   0  0  0  0  0  0  0  0  0  0  0  0
   -7.4273   20.3437  -30.5467 H   0  0  0  0  0  0  0  0  0  0  0  0
   -5.2737   17.7871  -36.0324 H   0  0  0  0  0  0  0  0  0  0  0  0
   -6.3518   15.6894  -35.1810 H   0  0  0  0  0  0  0  0  0  0  0  0
   -7.3492   15.6938  -32.8846 H   0  0  0  0  0  0  0  0  0  0  0  0
   -7.2570   17.7090  -31.5710 H   0  0  0  0  0  0  0  0  0  0  0  0
   -4.1628   20.6534  -32.6351 H   0  0  0  0  0  0  0  0  0  0  0  0
   -4.3580   19.8421  -31.0400 H   0  0  0  0  0  0  0  0  0  0  0  0
   -5.2376   21.6372  -30.0439 H   0  0  0  0  0  0  0  0  0  0  0  0
   -3.1372   22.6881  -31.9325 H   0  0  0  0  0  0  0  0  0  0  0  0
   -3.0974   22.5772  -30.1668 H   0  0  0  0  0  0  0  0  0  0  0  0
  1  2  1  0
  2  3  2  0
  3  4  1  0
  4  5  2  0
  5  6  1  0
  6  7  2  0
  7  8  1  0
  8  9  1  0
  9 10  1  0
 10 11  1  0
 11 12  1  0
 12 13  1  0
 13 14  1  0
 14 15  1  0
 15 16  2  0
 16 17  1  0
 17 18  2  0
 18 19  1  0
 19 20  2  0
 14 21  1  0
 21 22  1  0
 22 23  1  0
  7  2  1  0
 23  9  1  0
 22 11  1  0
 20 15  1  0
  1 24  1  0
  1 25  1  0
  1 26  1  0
  4 27  1  0
  5 28  1  0
  6 29  1  0
  8 30  1  0
  8 31  1  0
 10 32  1  0
 10 33  1  0
 11 34  1  6
 12 35  1  0
 12 36  1  0
 13 37  1  0
 13 38  1  0
 17 39  1  0
 18 40  1  0
 19 41  1  0
 20 42  1  0
 21 43  1  0
 21 44  1  0
 22 45  1  1
 23 46  1  0
 23 47  1  0
M  CHG  1  20   1
M  END
>  <UniqueID>  (4) 
4

>  <SMILES>  (4) 
Cc1ncccc1CN1C[C@@H]2CN(c3nccc[nH+]3)CC[C@H]2C1

>  <Energy>  (4) 
72.83617741417696

>  <Genealogy>  (4) 
Cc1ncccc1CN1CC2CCN(c3nccc[nH+]3)CC2C1 (protonated)
Cc1ncccc1CN1C[C@@H]2CN(c3nccc[nH+]3)CC[C@H]2C1 (chirality)
Cc1ncccc1CN1C[C@@H]2CN(c3nccc[nH+]3)CC[C@H]2C1 (3D coordinates assigned)
Cc1ncccc1CN1C[C@@H]2CN(c3nccc[nH+]3)CC[C@H]2C1 (nonaromatic ring conformer: 72.83617741417696 kcal/mol)

>  <smiles>  (4) 
Cc1ncccc1CN1CC2CCN(c3ncccn3)CC2C1

>  <score_type>  (4) 
oracle

>  <origin>  (4) 
adg

>  <m_score__min__energy>  (4) 
-7.6699999999999999

>  <m_primary>  (4) 
energy

$$$$
4:0
     RDKit          3D

 54 57  0  0  0  0  0  0  0  0999 V2000
   -6.6540   17.6610  -32.7240 C   0  0  0  0  0  0  0  0  0  0  0  0
   -7.3440   18.9630  -32.4490 C   0  0  0  0  0  0  0  0  0  0  0  0
   -8.7540   19.0140  -32.3360 C   0  0  0  0  0  0  0  0  0  0  0  0
   -9.4070   20.2310  -32.0900 C   0  0  0  0  0  0  0  0  0  0  0  0
   -8.6260   21.3760  -31.9440 C   0  0  0  0  0  0  0  0  0  0  0  0
   -9.0660   22.6320  -31.7630 N   0  0  0  0  0  0  0  0  0  0  0  0
   -7.9640   23.4130  -31.7280 C   0  0  0  0  0  0  0  0  0  0  0  0
   -6.8120   22.6470  -31.8730 C   0  0  0  0  0  0  0  0  0  0  0  0
   -5.4370   23.1900  -31.9070 C   0  0  0  0  0  0  0  0  0  0  0  0
   -4.6110   22.7110  -32.7280 O   0  0  0  0  0  0  0  0  0  0  0  0
   -4.9920   24.3140  -31.0090 C   0  0  0  0  0  0  0  0  0  0  0  0
   -4.1060   23.9190  -29.8790 N   0  0  0  0  0  0  0  0  0  0  0  0
   -3.0580   22.9760  -30.3180 C   0  0  0  0  0  0  0  0  0  0  0  0
   -2.0970   22.6010  -29.1640 C   0  0  0  0  0  0  0  0  0  0  0  0
   -2.2720   23.4950  -27.9150 C   0  0  0  0  0  0  0  0  0  0  0  0
   -1.7460   24.9110  -28.1300 C   0  0  0  0  0  0  0  0  0  0  0  0
   -1.6190   25.3420  -29.3120 O   0  0  0  0  0  0  0  0  0  0  0  0
   -1.3910   25.7860  -27.0310 N   0  0  0  0  0  0  0  0  0  0  0  0
   -1.7300   25.4780  -25.6290 C   0  0  0  0  0  0  0  0  0  0  0  0
   -0.7100   26.0890  -24.6360 C   0  0  0  0  0  0  0  0  0  0  0  0
    0.1890   27.0210  -25.2140 O   0  0  0  0  0  0  0  0  0  0  0  0
   -0.5000   27.8840  -26.0880 C   0  0  0  0  0  0  0  0  0  0  0  0
   -0.8530   27.1160  -27.3560 C   0  0  0  0  0  0  0  0  0  0  0  0
   -3.7550   23.5010  -27.4650 C   0  0  0  0  0  0  0  0  0  0  0  0
   -4.7500   23.4350  -28.6420 C   0  0  0  0  0  0  0  0  0  0  0  0
   -7.2550   21.3360  -32.0180 C   0  0  0  0  0  0  0  0  0  0  0  0
   -6.5820   20.1350  -32.2670 C   0  0  0  0  0  0  0  0  0  0  0  0
   -6.3961   17.1744  -31.7718 H   0  0  0  0  0  0  0  0  0  0  0  0
   -7.3234   17.0060  -33.3010 H   0  0  0  0  0  0  0  0  0  0  0  0
   -5.7362   17.8471  -33.3010 H   0  0  0  0  0  0  0  0  0  0  0  0
   -9.3430   18.0911  -32.4420 H   0  0  0  0  0  0  0  0  0  0  0  0
  -10.5033   20.2801  -32.0146 H   0  0  0  0  0  0  0  0  0  0  0  0
  -10.0580   22.9470  -31.6830 H   0  0  0  0  0  0  0  0  0  0  0  0
   -7.9762   24.5057  -31.6020 H   0  0  0  0  0  0  0  0  0  0  0  0
   -4.4493   25.0458  -31.6254 H   0  0  0  0  0  0  0  0  0  0  0  0
   -5.9078   24.7141  -30.5493 H   0  0  0  0  0  0  0  0  0  0  0  0
   -3.5384   22.0600  -30.6923 H   0  0  0  0  0  0  0  0  0  0  0  0
   -2.4680   23.4659  -31.1066 H   0  0  0  0  0  0  0  0  0  0  0  0
   -2.2863   21.5563  -28.8762 H   0  0  0  0  0  0  0  0  0  0  0  0
   -1.0704   22.7473  -29.5311 H   0  0  0  0  0  0  0  0  0  0  0  0
   -1.6613   23.0621  -27.1090 H   0  0  0  0  0  0  0  0  0  0  0  0
   -2.7279   25.8845  -25.4077 H   0  0  0  0  0  0  0  0  0  0  0  0
   -1.7088   24.3850  -25.5073 H   0  0  0  0  0  0  0  0  0  0  0  0
   -1.2703   26.6009  -23.8397 H   0  0  0  0  0  0  0  0  0  0  0  0
   -0.0980   25.2542  -24.2637 H   0  0  0  0  0  0  0  0  0  0  0  0
   -1.4205   28.2429  -25.6043 H   0  0  0  0  0  0  0  0  0  0  0  0
    0.1332   28.7482  -26.3375 H   0  0  0  0  0  0  0  0  0  0  0  0
   -1.6082   27.6818  -27.9214 H   0  0  0  0  0  0  0  0  0  0  0  0
    0.0602   26.9889  -27.9559 H   0  0  0  0  0  0  0  0  0  0  0  0
   -3.9259   22.6309  -26.8141 H   0  0  0  0  0  0  0  0  0  0  0  0
   -3.9327   24.4517  -26.9411 H   0  0  0  0  0  0  0  0  0  0  0  0
   -5.0759   22.3941  -28.7849 H   0  0  0  0  0  0  0  0  0  0  0  0
   -5.6181   24.0715  -28.4155 H   0  0  0  0  0  0  0  0  0  0  0  0
   -5.4836   20.1059  -32.3195 H   0  0  0  0  0  0  0  0  0  0  0  0
  1  2  1  0
  2  3  2  0
  3  4  1  0
  4  5  2  0
  5  6  1  0
  6  7  1  0
  7  8  2  0
  8  9  1  0
  9 10  2  0
  9 11  1  0
 11 12  1  0
 12 13  1  0
 13 14  1  0
 14 15  1  0
 15 16  1  0
 16 17  2  0
 16 18  1  0
 18 19  1  0
 19 20  1  0
 20 21  1  0
 21 22  1  0
 22 23  1  0
 15 24  1  0
 24 25  1  0
  8 26  1  0
 26 27  2  0
 27  2  1  0
 26  5  1  0
 25 12  1  0
 23 18  1  0
  1 28  1  0
  1 29  1  0
  1 30  1  0
  3 31  1  0
  4 32  1  0
  6 33  1  0
  7 34  1  0
 11 35  1  0
 11 36  1  0
 13 37  1  0
 13 38  1  0
 14 39  1  0
 14 40  1  0
 15 41  1  0
 19 42  1  0
 19 43  1  0
 20 44  1  0
 20 45  1  0
 22 46  1  0
 22 47  1  0
 23 48  1  0
 23 49  1  0
 24 50  1  0
 24 51  1  0
 25 52  1  0
 25 53  1  0
 27 54  1  0
M  END
>  <UniqueID>  (5) 
5

>  <SMILES>  (5) 
Cc1ccc2[nH]cc(C(=O)CN3CCC(C(=O)N4CCOCC4)CC3)c2c1

>  <Energy>  (5) 
112.46190433349452

>  <Genealogy>  (5) 
Cc1ccc2[nH]cc(C(=O)CN3CCC(C(=O)N4CCOCC4)CC3)c2c1 (3D coordinates assigned)
Cc1ccc2[nH]cc(C(=O)CN3CCC(C(=O)N4CCOCC4)CC3)c2c1 (nonaromatic ring conformer: 112.46190433349452 kcal/mol)

>  <smiles>  (5) 
Cc1ccc2[nH]cc(C(=O)CN3CCC(C(=O)N4CCOCC4)CC3)c2c1

>  <score_type>  (5) 
oracle

>  <origin>  (5) 
adg

>  <m_score__min__energy>  (5) 
-9.4700000000000006

>  <m_primary>  (5) 
energy

$$$$
5:0
     RDKit          3D

 55 58  0  0  0  0  0  0  0  0999 V2000
   -6.4860   17.4270  -30.7980 C   0  0  0  0  0  0  0  0  0  0  0  0
   -5.6220   17.0250  -31.9910 C   0  0  0  0  0  0  0  0  0  0  0  0
   -6.2850   17.3530  -33.2760 N   0  0  0  0  0  0  0  0  0  0  0  0
   -5.3680   17.8950  -34.2990 C   0  0  0  0  0  0  0  0  0  0  0  0
   -4.7680   19.2590  -33.9140 C   0  0  0  0  0  0  0  0  0  0  0  0
   -5.7100   20.1560  -33.1270 C   0  0  0  0  0  0  0  0  0  0  0  0
   -6.9670   19.6630  -32.7090 C   0  0  0  0  0  0  0  0  0  0  0  0
   -7.8240   20.4740  -31.9600 C   0  0  0  0  0  0  0  0  0  0  0  0
   -7.4080   21.7270  -31.5280 C   0  0  0  0  0  0  0  0  0  0  0  0
   -6.1350   22.2110  -31.8530 C   0  0  0  0  0  0  0  0  0  0  0  0
   -5.6620   23.4090  -31.2100 N   0  0  0  0  0  0  0  0  0  0  0  0
   -6.4180   24.3710  -30.6400 C   0  0  0  0  0  0  0  0  0  0  0  0
   -5.5870   25.2590  -29.9860 C   0  0  0  0  0  0  0  0  0  0  0  0
   -4.3230   24.7490  -30.1960 C   0  0  0  0  0  0  0  0  0  0  0  0
   -3.1400   25.2840  -29.6750 O   0  0  0  0  0  0  0  0  0  0  0  0
   -2.2420   24.5370  -28.8500 C   0  0  0  0  0  0  0  0  0  0  0  0
   -2.1830   23.0930  -29.2810 C   0  0  0  0  0  0  0  0  0  0  0  0
   -2.9700   22.1320  -28.6300 C   0  0  0  0  0  0  0  0  0  0  0  0
   -2.9840   20.8100  -29.0840 C   0  0  0  0  0  0  0  0  0  0  0  0
   -2.2250   20.4420  -30.2000 C   0  0  0  0  0  0  0  0  0  0  0  0
   -1.4330   21.3970  -30.8640 C   0  0  0  0  0  0  0  0  0  0  0  0
   -0.6730   21.0860  -32.0020 O   0  0  0  0  0  0  0  0  0  0  0  0
   -1.0980   20.2040  -33.0370 C   0  0  0  0  0  0  0  0  0  0  0  0
   -1.4040   22.7120  -30.3860 C   0  0  0  0  0  0  0  0  0  0  0  0
   -4.3870   23.6290  -30.9360 N   0  0  0  0  0  0  0  0  0  0  0  0
   -5.2970   21.4520  -32.7130 C   0  0  0  0  0  0  0  0  0  0  0  0
   -3.9530   22.0030  -33.1400 C   0  0  0  0  0  0  0  0  0  0  0  0
   -7.4210   18.2740  -33.0900 C   0  0  0  0  0  0  0  0  0  0  0  0
   -5.9588   17.1817  -29.8643 H   0  0  0  0  0  0  0  0  0  0  0  0
   -6.6819   18.5088  -30.8351 H   0  0  0  0  0  0  0  0  0  0  0  0
   -7.4397   16.8801  -30.8351 H   0  0  0  0  0  0  0  0  0  0  0  0
   -4.6637   17.5622  -31.9357 H   0  0  0  0  0  0  0  0  0  0  0  0
   -5.4634   15.9372  -31.9518 H   0  0  0  0  0  0  0  0  0  0  0  0
   -4.5451   17.1798  -34.4450 H   0  0  0  0  0  0  0  0  0  0  0  0
   -5.9544   18.0435  -35.2178 H   0  0  0  0  0  0  0  0  0  0  0  0
   -3.8709   19.0808  -33.3030 H   0  0  0  0  0  0  0  0  0  0  0  0
   -4.5463   19.7831  -34.8554 H   0  0  0  0  0  0  0  0  0  0  0  0
   -8.8345   20.1178  -31.7109 H   0  0  0  0  0  0  0  0  0  0  0  0
   -8.0868   22.3464  -30.9234 H   0  0  0  0  0  0  0  0  0  0  0  0
   -7.5150   24.4368  -30.6884 H   0  0  0  0  0  0  0  0  0  0  0  0
   -5.8681   26.1637  -29.4270 H   0  0  0  0  0  0  0  0  0  0  0  0
   -1.2361   24.9757  -28.9249 H   0  0  0  0  0  0  0  0  0  0  0  0
   -2.6050   24.5775  -27.8124 H   0  0  0  0  0  0  0  0  0  0  0  0
   -3.5781   22.4194  -27.7596 H   0  0  0  0  0  0  0  0  0  0  0  0
   -3.5933   20.0572  -28.5624 H   0  0  0  0  0  0  0  0  0  0  0  0
   -2.2474   19.4027  -30.5597 H   0  0  0  0  0  0  0  0  0  0  0  0
   -1.5344   19.2983  -32.5907 H   0  0  0  0  0  0  0  0  0  0  0  0
   -1.8530   20.7062  -33.6597 H   0  0  0  0  0  0  0  0  0  0  0  0
   -0.2347   19.9265  -33.6597 H   0  0  0  0  0  0  0  0  0  0  0  0
   -0.7634   23.4563  -30.8817 H   0  0  0  0  0  0  0  0  0  0  0  0
   -3.3569   22.2474  -32.2484 H   0  0  0  0  0  0  0  0  0  0  0  0
   -3.4221   21.2499  -33.7409 H   0  0  0  0  0  0  0  0  0  0  0  0
   -4.1035   22.9120  -33.7409 H   0  0  0  0  0  0  0  0  0  0  0  0
   -8.0697   17.8814  -32.2931 H   0  0  0  0  0  0  0  0  0  0  0  0
   -7.9618   18.3435  -34.0453 H   0  0  0  0  0  0  0  0  0  0  0  0
  1  2  1  0
  2  3  1  0
  3  4  1  0
  4  5  1  0
  5  6  1  0
  6  7  2  0
  7  8  1  0
  8  9  2  0
  9 10  1  0
 10 11  1  0
 11 12  1  0
 12 13  2  0
 13 14  1  0
 14 15  1  0
 15 16  1  0
 16 17  1  0
 17 18  2  0
 18 19  1  0
 19 20  2  0
 20 21  1  0
 21 22  1  0
 22 23  1  0
 21 24  2  0
 14 25  2  0
 10 26  2  0
 26 27  1  0
  7 28  1  0
 28  3  1  0
 26  6  1  0
 25 11  1  0
 24 17  1  0
  1 29  1  0
  1 30  1  0
  1 31  1  0
  2 32  1  0
  2 33  1  0
  4 34  1  0
  4 35  1  0
  5 36  1  0
  5 37  1  0
  8 38  1  0
  9 39  1  0
 12 40  1  0
 13 41  1  0
 16 42  1  0
 16 43  1  0
 18 44  1  0
 19 45  1  0
 20 46  1  0
 23 47  1  0
 23 48  1  0
 23 49  1  0
 24 50  1  0
 27 51  1  0
 27 52  1  0
 27 53  1  0
 28 54  1  0
 28 55  1  0
M  END
>  <UniqueID>  (6) 
6

>  <SMILES>  (6) 
CCN1CCc2c(ccc(-n3ccc(OCc4cccc(OC)c4)n3)c2C)C1

>  <Energy>  (6) 
97.47375605833061

>  <Genealogy>  (6) 
CCN1CCc2c(ccc(-n3ccc(OCc4cccc(OC)c4)n3)c2C)C1 (3D coordinates assigned)
CCN1CCc2c(ccc(-n3ccc(OCc4cccc(OC)c4)n3)c2C)C1 (nonaromatic ring conformer: 97.47375605833061 kcal/mol)

>  <smiles>  (6) 
CCN1CCc2c(ccc(-n3ccc(OCc4cccc(OC)c4)n3)c2C)C1

>  <score_type>  (6) 
oracle

>  <origin>  (6) 
adg

>  <m_score__min__energy>  (6) 
-10.1

>  <m_primary>  (6) 
energy

$$$$
6:0
     RDKit          3D

 37 39  0  0  0  0  0  0  0  0999 V2000
   -2.8650   19.2460  -26.6550 C   0  0  0  0  0  0  0  0  0  0  0  0
   -2.2590   20.0930  -27.6280 O   0  0  0  0  0  0  0  0  0  0  0  0
   -2.9070   21.1660  -28.2560 C   0  0  0  0  0  0  0  0  0  0  0  0
   -3.5790   22.1710  -27.5330 C   0  0  0  0  0  0  0  0  0  0  0  0
   -4.2130   23.2180  -28.2080 C   0  0  0  0  0  0  0  0  0  0  0  0
   -4.1870   23.2760  -29.6060 C   0  0  0  0  0  0  0  0  0  0  0  0
   -5.0130   24.5860  -30.4460 S   0  0  0  0  0  0  0  0  0  0  0  0
   -4.0410   25.6650  -30.8370 O   0  0  0  0  0  0  0  0  0  0  0  0
   -6.0490   25.1700  -29.5280 O   0  0  0  0  0  0  0  0  0  0  0  0
   -5.7880   23.9780  -31.8750 N   0  0  0  0  0  0  0  0  0  0  0  0
   -6.6240   22.8070  -31.8970 C   0  0  0  0  0  0  0  0  0  0  0  0
   -8.0050   22.9510  -31.6910 C   0  0  0  0  0  0  0  0  0  0  0  0
   -8.8470   21.8360  -31.6910 C   0  0  0  0  0  0  0  0  0  0  0  0
   -8.3220   20.5550  -31.9020 C   0  0  0  0  0  0  0  0  0  0  0  0
   -9.1590   19.4270  -31.9000 C   0  0  0  0  0  0  0  0  0  0  0  0
   -8.6220   18.1550  -32.1140 C   0  0  0  0  0  0  0  0  0  0  0  0
   -7.2500   17.9980  -32.3300 C   0  0  0  0  0  0  0  0  0  0  0  0
   -6.4070   19.1120  -32.3360 C   0  0  0  0  0  0  0  0  0  0  0  0
   -6.9330   20.3960  -32.1210 C   0  0  0  0  0  0  0  0  0  0  0  0
   -6.0950   21.5220  -32.1240 C   0  0  0  0  0  0  0  0  0  0  0  0
   -3.5150   22.2810  -30.3270 C   0  0  0  0  0  0  0  0  0  0  0  0
   -2.8810   21.2330  -29.6540 C   0  0  0  0  0  0  0  0  0  0  0  0
   -2.6089   19.6039  -25.6469 H   0  0  0  0  0  0  0  0  0  0  0  0
   -3.9573   19.2628  -26.7836 H   0  0  0  0  0  0  0  0  0  0  0  0
   -2.4964   18.2176  -26.7836 H   0  0  0  0  0  0  0  0  0  0  0  0
   -3.6049   22.1317  -26.4340 H   0  0  0  0  0  0  0  0  0  0  0  0
   -4.7350   24.0003  -27.6375 H   0  0  0  0  0  0  0  0  0  0  0  0
   -5.7090   24.5610  -32.7390 H   0  0  0  0  0  0  0  0  0  0  0  0
   -8.4290   23.9528  -31.5278 H   0  0  0  0  0  0  0  0  0  0  0  0
   -9.9267   21.9649  -31.5246 H   0  0  0  0  0  0  0  0  0  0  0  0
  -10.2393   19.5453  -31.7296 H   0  0  0  0  0  0  0  0  0  0  0  0
   -9.2811   17.2743  -32.1125 H   0  0  0  0  0  0  0  0  0  0  0  0
   -6.8326   16.9939  -32.4958 H   0  0  0  0  0  0  0  0  0  0  0  0
   -5.3285   18.9829  -32.5096 H   0  0  0  0  0  0  0  0  0  0  0  0
   -5.0169   21.3996  -32.3050 H   0  0  0  0  0  0  0  0  0  0  0  0
   -3.4861   22.3245  -31.4258 H   0  0  0  0  0  0  0  0  0  0  0  0
   -2.3571   20.4542  -30.2277 H   0  0  0  0  0  0  0  0  0  0  0  0
  1  2  1  0
  2  3  1  0
  3  4  2  0
  4  5  1  0
  5  6  2  0
  6  7  1  0
  7  8  2  0
  7  9  2  0
  7 10  1  0
 10 11  1  0
 11 12  2  0
 12 13  1  0
 13 14  2  0
 14 15  1  0
 15 16  2  0
 16 17  1  0
 17 18  2  0
 18 19  1  0
 19 20  2  0
  6 21  1  0
 21 22  2  0
 22  3  1  0
 20 11  1  0
 19 14  1  0
  1 23  1  0
  1 24  1  0
  1 25  1  0
  4 26  1  0
  5 27  1  0
 10 28  1  0
 12 29  1  0
 13 30  1  0
 15 31  1  0
 16 32  1  0
 17 33  1  0
 18 34  1  0
 20 35  1  0
 21 36  1  0
 22 37  1  0
M  END
>  <UniqueID>  (7) 
7

>  <SMILES>  (7) 
COc1ccc(S(=O)(=O)Nc2ccc3ccccc3c2)cc1

>  <Energy>  (7) 
44.324814018355625

>  <Genealogy>  (7) 
COc1ccc(S(=O)(=O)Nc2ccc3ccccc3c2)cc1 (3D coordinates assigned)
COc1ccc(S(=O)(=O)Nc2ccc3ccccc3c2)cc1 (optimized conformer: 44.324814018355625 kcal/mol)

>  <smiles>  (7) 
COc1ccc(S(=O)(=O)Nc2ccc3ccccc3c2)cc1

>  <score_type>  (7) 
oracle

>  <origin>  (7) 
adg

>  <m_score__min__energy>  (7) 
-8.7699999999999996

>  <m_primary>  (7) 
energy

$$$$
7:0
     RDKit          3D

 38 41  0  0  0  0  0  0  0  0999 V2000
   -5.8320   14.1550  -34.7800 F   0  0  0  0  0  0  0  0  0  0  0  0
   -5.7180   15.3830  -34.2150 C   0  0  0  0  0  0  0  0  0  0  0  0
   -4.4600   15.9720  -34.0690 C   0  0  0  0  0  0  0  0  0  0  0  0
   -4.3400   17.2360  -33.4850 C   0  0  0  0  0  0  0  0  0  0  0  0
   -5.4840   17.9290  -33.0530 C   0  0  0  0  0  0  0  0  0  0  0  0
   -5.3460   19.2560  -32.4170 C   0  0  0  0  0  0  0  0  0  0  0  0
   -4.1560   19.8300  -31.9900 C   0  0  0  0  0  0  0  0  0  0  0  0
   -4.4250   21.0250  -31.4210 N   0  0  0  0  0  0  0  0  0  0  0  0
   -5.7600   21.1720  -31.5290 C   0  0  0  0  0  0  0  0  0  0  0  0
   -6.5400   22.2530  -31.0870 C   0  0  0  0  0  0  0  0  0  0  0  0
   -5.9740   23.4190  -30.4650 N   0  0  0  0  0  0  0  0  0  0  0  0
   -5.0350   23.2980  -29.3420 C   0  0  0  0  0  0  0  0  0  0  0  0
   -3.8350   24.2640  -29.5010 C   0  0  0  0  0  0  0  0  0  0  0  0
   -4.0090   25.2610  -30.4960 O   0  0  0  0  0  0  0  0  0  0  0  0
   -5.3180   25.7850  -30.4530 C   0  0  0  0  0  0  0  0  0  0  0  0
   -6.2870   24.7440  -31.0100 C   0  0  0  0  0  0  0  0  0  0  0  0
   -7.8910   22.1750  -31.2790 N   0  0  0  0  0  0  0  0  0  0  0  0
   -8.4770   21.1080  -31.8970 C   0  0  0  0  0  0  0  0  0  0  0  0
   -7.6830   20.0460  -32.3480 C   0  0  0  0  0  0  0  0  0  0  0  0
   -6.3450   20.1140  -32.1200 N   0  0  0  0  0  0  0  0  0  0  0  0
   -6.7440   17.3210  -33.1840 C   0  0  0  0  0  0  0  0  0  0  0  0
   -6.8600   16.0560  -33.7680 C   0  0  0  0  0  0  0  0  0  0  0  0
   -3.5615   15.4397  -34.4145 H   0  0  0  0  0  0  0  0  0  0  0  0
   -3.3458   17.6906  -33.3629 H   0  0  0  0  0  0  0  0  0  0  0  0
   -3.1563   19.3838  -32.0977 H   0  0  0  0  0  0  0  0  0  0  0  0
   -3.7310   21.6630  -30.9770 H   0  0  0  0  0  0  0  0  0  0  0  0
   -5.5634   23.5349  -28.4068 H   0  0  0  0  0  0  0  0  0  0  0  0
   -4.6495   22.2679  -29.3230 H   0  0  0  0  0  0  0  0  0  0  0  0
   -3.6685   24.7665  -28.5367 H   0  0  0  0  0  0  0  0  0  0  0  0
   -2.9797   23.6501  -29.8199 H   0  0  0  0  0  0  0  0  0  0  0  0
   -5.5873   26.0207  -29.4128 H   0  0  0  0  0  0  0  0  0  0  0  0
   -5.3714   26.7036  -31.0558 H   0  0  0  0  0  0  0  0  0  0  0  0
   -7.3150   25.0183  -30.7309 H   0  0  0  0  0  0  0  0  0  0  0  0
   -6.1910   24.7137  -32.1054 H   0  0  0  0  0  0  0  0  0  0  0  0
   -9.5674   21.0825  -32.0400 H   0  0  0  0  0  0  0  0  0  0  0  0
   -8.1276   19.1855  -32.8694 H   0  0  0  0  0  0  0  0  0  0  0  0
   -7.6435   17.8428  -32.8253 H   0  0  0  0  0  0  0  0  0  0  0  0
   -7.8503   15.5895  -33.8761 H   0  0  0  0  0  0  0  0  0  0  0  0
  1  2  1  0
  2  3  2  0
  3  4  1  0
  4  5  2  0
  5  6  1  0
  6  7  2  0
  7  8  1  0
  8  9  2  0
  9 10  1  0
 10 11  1  0
 11 12  1  0
 12 13  1  0
 13 14  1  0
 14 15  1  0
 15 16  1  0
 10 17  2  0
 17 18  1  0
 18 19  2  0
 19 20  1  0
  5 21  1  0
 21 22  2  0
 22  2  1  0
 20  6  1  0
 20  9  1  0
 16 11  1  0
  3 23  1  0
  4 24  1  0
  7 25  1  0
  8 26  1  0
 12 27  1  0
 12 28  1  0
 13 29  1  0
 13 30  1  0
 15 31  1  0
 15 32  1  0
 16 33  1  0
 16 34  1  0
 18 35  1  0
 19 36  1  0
 21 37  1  0
 22 38  1  0
M  CHG  1   8   1
M  END
>  <UniqueID>  (8) 
8

>  <SMILES>  (8) 
Fc1ccc(-c2c[nH+]c3c(N4CCOCC4)nccn23)cc1

>  <Energy>  (8) 
96.1133361786225

>  <Genealogy>  (8) 
Fc1ccc(-c2c[nH+]c3c(N4CCOCC4)nccn23)cc1 (protonated)
Fc1ccc(-c2c[nH+]c3c(N4CCOCC4)nccn23)cc1 (3D coordinates assigned)
Fc1ccc(-c2c[nH+]c3c(N4CCOCC4)nccn23)cc1 (nonaromatic ring conformer: 96.1133361786225 kcal/mol)

>  <smiles>  (8) 
Fc1ccc(-c2cnc3c(N4CCOCC4)nccn23)cc1

>  <score_type>  (8) 
oracle

>  <origin>  (8) 
adg

>  <m_score__min__energy>  (8) 
-6.8499999999999996

>  <m_primary>  (8) 
energy

$$$$
8:0
     RDKit          3D

 51 54  0  0  0  0  0  0  0  0999 V2000
   -6.5100   25.6570  -29.4310 C   0  0  0  0  0  0  0  0  0  0  0  0
   -5.3630   24.6940  -29.1480 C   0  0  0  0  0  0  0  0  0  0  0  0
   -5.0570   23.8650  -30.3410 N   0  0  0  0  0  0  0  0  0  0  0  0
   -3.5860   23.7830  -30.5340 C   0  0  0  0  0  0  0  0  0  0  0  0
   -3.0170   22.5910  -29.7690 C   0  0  0  0  0  0  0  0  0  0  0  0
   -5.7200   24.4220  -31.5470 C   0  0  0  0  0  0  0  0  0  0  0  0
   -6.7130   23.4210  -32.1720 C   0  0  0  0  0  0  0  0  0  0  0  0
   -6.8250   22.1760  -31.4050 N   0  0  0  0  0  0  0  0  0  0  0  0
   -7.2050   20.9160  -31.9800 C   0  0  0  0  0  0  0  0  0  0  0  0
   -8.5610   20.5170  -31.9590 C   0  0  0  0  0  0  0  0  0  0  0  0
   -9.8000   21.5480  -31.2560 Cl  0  0  0  0  0  0  0  0  0  0  0  0
   -8.9320   19.2590  -32.4690 C   0  0  0  0  0  0  0  0  0  0  0  0
   -7.9970   18.4220  -32.9980 N   0  0  0  0  0  0  0  0  0  0  0  0
   -6.7010   18.8100  -33.0520 C   0  0  0  0  0  0  0  0  0  0  0  0
   -5.4330   17.9350  -33.7400 S   0  0  0  0  0  0  0  0  0  0  0  0
   -4.3140   19.1720  -33.4840 C   0  0  0  0  0  0  0  0  0  0  0  0
   -2.9700   19.2240  -33.8330 C   0  0  0  0  0  0  0  0  0  0  0  0
   -2.4160   18.2230  -34.3670 O   0  0  0  0  0  0  0  0  0  0  0  0
   -2.2640   20.3750  -33.5750 N   0  0  0  0  0  0  0  0  0  0  0  0
   -0.8690   20.4830  -33.9180 C   0  0  0  0  0  0  0  0  0  0  0  0
   -0.4720   21.1450  -35.0930 C   0  0  0  0  0  0  0  0  0  0  0  0
    0.8850   21.2580  -35.4160 C   0  0  0  0  0  0  0  0  0  0  0  0
    1.8530   20.7130  -34.5690 C   0  0  0  0  0  0  0  0  0  0  0  0
    1.4680   20.0570  -33.3960 C   0  0  0  0  0  0  0  0  0  0  0  0
    0.1130   19.9440  -33.0690 C   0  0  0  0  0  0  0  0  0  0  0  0
   -2.8910   21.4480  -32.9880 C   0  0  0  0  0  0  0  0  0  0  0  0
   -4.2110   21.3900  -32.6490 N   0  0  0  0  0  0  0  0  0  0  0  0
   -4.9160   20.2560  -32.8710 C   0  0  0  0  0  0  0  0  0  0  0  0
   -6.2750   20.0520  -32.5900 C   0  0  0  0  0  0  0  0  0  0  0  0
   -6.9334   26.0125  -28.4800 H   0  0  0  0  0  0  0  0  0  0  0  0
   -6.1347   26.5146  -30.0086 H   0  0  0  0  0  0  0  0  0  0  0  0
   -7.2897   25.1389  -30.0086 H   0  0  0  0  0  0  0  0  0  0  0  0
   -4.4683   25.2715  -28.8723 H   0  0  0  0  0  0  0  0  0  0  0  0
   -5.6604   24.0273  -28.3252 H   0  0  0  0  0  0  0  0  0  0  0  0
   -3.3666   23.6648  -31.6054 H   0  0  0  0  0  0  0  0  0  0  0  0
   -3.1233   24.7058  -30.1542 H   0  0  0  0  0  0  0  0  0  0  0  0
   -3.1042   22.7737  -28.6878 H   0  0  0  0  0  0  0  0  0  0  0  0
   -3.5789   21.6832  -30.0339 H   0  0  0  0  0  0  0  0  0  0  0  0
   -1.9578   22.4570  -30.0339 H   0  0  0  0  0  0  0  0  0  0  0  0
   -6.2657   25.3341  -31.2635 H   0  0  0  0  0  0  0  0  0  0  0  0
   -4.9419   24.6409  -32.2931 H   0  0  0  0  0  0  0  0  0  0  0  0
   -7.7049   23.8941  -32.2206 H   0  0  0  0  0  0  0  0  0  0  0  0
   -6.3351   23.1607  -33.1717 H   0  0  0  0  0  0  0  0  0  0  0  0
   -6.3810   22.1570  -30.4590 H   0  0  0  0  0  0  0  0  0  0  0  0
   -9.9870   18.9489  -32.4401 H   0  0  0  0  0  0  0  0  0  0  0  0
   -1.2316   21.5762  -35.7616 H   0  0  0  0  0  0  0  0  0  0  0  0
    1.1895   21.7762  -36.3373 H   0  0  0  0  0  0  0  0  0  0  0  0
    2.9192   20.8001  -34.8252 H   0  0  0  0  0  0  0  0  0  0  0  0
    2.2316   19.6293  -32.7296 H   0  0  0  0  0  0  0  0  0  0  0  0
   -0.1857   19.4309  -32.1430 H   0  0  0  0  0  0  0  0  0  0  0  0
   -2.3201   22.3669  -32.7887 H   0  0  0  0  0  0  0  0  0  0  0  0
  1  2  1  0
  2  3  1  0
  3  4  1  0
  4  5  1  0
  3  6  1  0
  6  7  1  0
  7  8  1  0
  8  9  1  0
  9 10  2  0
 10 11  1  0
 10 12  1  0
 12 13  2  0
 13 14  1  0
 14 15  1  0
 15 16  1  0
 16 17  1  0
 17 18  2  0
 17 19  1  0
 19 20  1  0
 20 21  2  0
 21 22  1  0
 22 23  2  0
 23 24  1  0
 24 25  2  0
 19 26  1  0
 26 27  2  0
 27 28  1  0
 28 29  1  0
 29  9  1  0
 29 14  2  0
 28 16  2  0
 25 20  1  0
  1 30  1  0
  1 31  1  0
  1 32  1  0
  2 33  1  0
  2 34  1  0
  4 35  1  0
  4 36  1  0
  5 37  1  0
  5 38  1  0
  5 39  1  0
  6 40  1  0
  6 41  1  0
  7 42  1  0
  7 43  1  0
  8 44  1  0
 12 45  1  0
 21 46  1  0
 22 47  1  0
 23 48  1  0
 24 49  1  0
 25 50  1  0
 26 51  1  0
M  END
>  <UniqueID>  (9) 
9

>  <SMILES>  (9) 
CCN(CC)CCNc1c(Cl)cnc2sc3c(=O)n(-c4ccccc4)cnc3c12

>  <Energy>  (9) 
104.7989477136548

>  <Genealogy>  (9) 
CCN(CC)CCNc1c(Cl)cnc2sc3c(=O)n(-c4ccccc4)cnc3c12 (3D coordinates assigned)
CCN(CC)CCNc1c(Cl)cnc2sc3c(=O)n(-c4ccccc4)cnc3c12 (optimized conformer: 104.7989477136548 kcal/mol)

>  <smiles>  (9) 
CCN(CC)CCNc1c(Cl)cnc2sc3c(=O)n(-c4ccccc4)cnc3c12

>  <score_type>  (9) 
oracle

>  <origin>  (9) 
adg

>  <m_score__min__energy>  (9) 
-8.6600000000000001

>  <m_primary>  (9) 
energy

$$$$
9:0
     RDKit          3D

 30 29  0  0  0  0  0  0  0  0999 V2000
   -0.1090   23.8490  -24.4640 C   0  0  0  0  0  0  0  0  0  0  0  0
   -0.2650   25.2410  -24.6590 O   0  0  0  0  0  0  0  0  0  0  0  0
    0.4390   25.9400  -23.7080 N   0  0  2  0  0  0  0  0  0  0  0  0
   -0.5040   26.7880  -22.9670 C   0  0  0  0  0  0  0  0  0  0  0  0
    1.5430   26.7030  -24.3440 C   0  0  0  0  0  0  0  0  0  0  0  0
    1.8860   28.1210  -23.7680 C   0  0  0  0  0  0  0  0  0  0  0  0
    3.0360   28.2540  -22.8080 N   0  0  0  0  0  0  0  0  0  0  0  0
    3.7560   26.9760  -22.5900 C   0  0  0  0  0  0  0  0  0  0  0  0
    2.4920   28.6940  -21.4970 C   0  0  0  0  0  0  0  0  0  0  0  0
    3.9930   29.2950  -23.2540 C   0  0  0  0  0  0  0  0  0  0  0  0
   -0.0845   23.6302  -23.3863 H   0  0  0  0  0  0  0  0  0  0  0  0
   -0.9531   23.3170  -24.9270 H   0  0  0  0  0  0  0  0  0  0  0  0
    0.8320   23.5171  -24.9270 H   0  0  0  0  0  0  0  0  0  0  0  0
    0.8720   25.3120  -22.9820 H   0  0  0  0  0  0  0  0  0  0  0  0
   -0.3504   26.6498  -21.8866 H   0  0  0  0  0  0  0  0  0  0  0  0
   -0.3334   27.8424  -23.2297 H   0  0  0  0  0  0  0  0  0  0  0  0
   -1.5345   26.5068  -23.2297 H   0  0  0  0  0  0  0  0  0  0  0  0
    2.4525   26.0893  -24.2651 H   0  0  0  0  0  0  0  0  0  0  0  0
    1.1870   26.9006  -25.3659 H   0  0  0  0  0  0  0  0  0  0  0  0
    2.1036   28.7744  -24.6257 H   0  0  0  0  0  0  0  0  0  0  0  0
    1.0043   28.3837  -23.1650 H   0  0  0  0  0  0  0  0  0  0  0  0
    3.8592   26.7928  -21.5103 H   0  0  0  0  0  0  0  0  0  0  0  0
    3.1889   26.1527  -23.0490 H   0  0  0  0  0  0  0  0  0  0  0  0
    4.7539   27.0344  -23.0490 H   0  0  0  0  0  0  0  0  0  0  0  0
    3.0692   28.2272  -20.6852 H   0  0  0  0  0  0  0  0  0  0  0  0
    2.5669   29.7886  -21.4177 H   0  0  0  0  0  0  0  0  0  0  0  0
    1.4373   28.3919  -21.4177 H   0  0  0  0  0  0  0  0  0  0  0  0
    4.4408   29.7821  -22.3752 H   0  0  0  0  0  0  0  0  0  0  0  0
    4.7853   28.8298  -23.8588 H   0  0  0  0  0  0  0  0  0  0  0  0
    3.4629   30.0455  -23.8588 H   0  0  0  0  0  0  0  0  0  0  0  0
  1  2  1  0
  2  3  1  0
  3  4  1  0
  3  5  1  0
  5  6  1  0
  6  7  1  0
  7  8  1  0
  7  9  1  0
  7 10  1  0
  1 11  1  0
  1 12  1  0
  1 13  1  0
  3 14  1  1
  4 15  1  0
  4 16  1  0
  4 17  1  0
  5 18  1  0
  5 19  1  0
  6 20  1  0
  6 21  1  0
  8 22  1  0
  8 23  1  0
  8 24  1  0
  9 25  1  0
  9 26  1  0
  9 27  1  0
 10 28  1  0
 10 29  1  0
 10 30  1  0
M  CHG  2   3   1   7   1
M  END
>  <UniqueID>  (10) 
10

>  <SMILES>  (10) 
CO[N@H+](C)CC[N+](C)(C)C

>  <Energy>  (10) 
47.0709561052388

>  <Genealogy>  (10) 
CO[NH+](C)CC[N+](C)(C)C (protonated)
CO[N@H+](C)CC[N+](C)(C)C (chirality)
CO[N@H+](C)CC[N+](C)(C)C (3D coordinates assigned)
CO[N@H+](C)CC[N+](C)(C)C (optimized conformer: 47.0709561052388 kcal/mol)

>  <smiles>  (10) 
CON(C)CC[N+](C)(C)C

>  <score_type>  (10) 
oracle

>  <origin>  (10) 
adg

>  <m_score__min__energy>  (10) 
-2.75

>  <m_primary>  (10) 
energy

$$$$
10:0
     RDKit          3D

 46 49  0  0  0  0  0  0  0  0999 V2000
   -4.1510   17.4630  -33.2890 C   0  0  0  0  0  0  0  0  0  0  0  0
   -5.4250   17.9420  -33.8470 N   0  0  0  0  0  0  0  0  0  0  0  0
   -6.5240   16.9780  -33.5900 C   0  0  0  0  0  0  0  0  0  0  0  0
   -7.4340   17.4270  -32.4380 C   0  0  0  0  0  0  0  0  0  0  0  0
   -8.0740   18.7280  -32.7360 N   0  0  0  0  0  0  0  0  0  0  0  0
   -8.5850   19.3480  -31.4960 C   0  0  0  0  0  0  0  0  0  0  0  0
   -8.2980   20.8280  -31.4890 C   0  0  0  0  0  0  0  0  0  0  0  0
   -9.2430   21.7250  -31.9980 C   0  0  0  0  0  0  0  0  0  0  0  0
   -8.9720   23.0920  -31.9810 C   0  0  0  0  0  0  0  0  0  0  0  0
   -7.7940   23.5470  -31.4770 N   0  0  0  0  0  0  0  0  0  0  0  0
   -6.8450   22.7070  -30.9770 C   0  0  0  0  0  0  0  0  0  0  0  0
   -5.5850   23.2780  -30.4350 C   0  0  0  0  0  0  0  0  0  0  0  0
   -5.0000   24.4340  -30.9880 C   0  0  0  0  0  0  0  0  0  0  0  0
   -3.8500   24.9400  -30.4700 N   0  0  0  0  0  0  0  0  0  0  0  0
   -3.2250   24.3660  -29.4100 C   0  0  0  0  0  0  0  0  0  0  0  0
   -2.0390   24.9160  -28.9090 C   0  0  0  0  0  0  0  0  0  0  0  0
   -1.4010   24.3230  -27.8140 C   0  0  0  0  0  0  0  0  0  0  0  0
   -1.9440   23.1820  -27.2160 C   0  0  0  0  0  0  0  0  0  0  0  0
   -3.1290   22.6250  -27.7110 C   0  0  0  0  0  0  0  0  0  0  0  0
   -3.7750   23.2130  -28.8100 C   0  0  0  0  0  0  0  0  0  0  0  0
   -4.9600   22.6780  -29.3290 C   0  0  0  0  0  0  0  0  0  0  0  0
   -7.0920   21.3210  -30.9700 C   0  0  0  0  0  0  0  0  0  0  0  0
   -7.2030   19.6530  -33.5080 C   0  0  0  0  0  0  0  0  0  0  0  0
   -5.7130   19.3120  -33.3640 C   0  0  0  0  0  0  0  0  0  0  0  0
   -4.2017   17.4821  -32.1903 H   0  0  0  0  0  0  0  0  0  0  0  0
   -3.9654   16.4337  -33.6297 H   0  0  0  0  0  0  0  0  0  0  0  0
   -3.3332   18.1151  -33.6297 H   0  0  0  0  0  0  0  0  0  0  0  0
   -7.1303   16.8809  -34.5027 H   0  0  0  0  0  0  0  0  0  0  0  0
   -6.0699   16.0172  -33.3058 H   0  0  0  0  0  0  0  0  0  0  0  0
   -8.2165   16.6696  -32.2830 H   0  0  0  0  0  0  0  0  0  0  0  0
   -6.8191   17.5410  -31.5331 H   0  0  0  0  0  0  0  0  0  0  0  0
   -9.6717   19.1896  -31.4332 H   0  0  0  0  0  0  0  0  0  0  0  0
   -8.0839   18.8842  -30.6335 H   0  0  0  0  0  0  0  0  0  0  0  0
  -10.1935   21.3540  -32.4089 H   0  0  0  0  0  0  0  0  0  0  0  0
   -9.7120   23.8037  -32.3758 H   0  0  0  0  0  0  0  0  0  0  0  0
   -5.4775   24.9308  -31.8454 H   0  0  0  0  0  0  0  0  0  0  0  0
   -1.6088   25.8142  -29.3761 H   0  0  0  0  0  0  0  0  0  0  0  0
   -0.4688   24.7561  -27.4223 H   0  0  0  0  0  0  0  0  0  0  0  0
   -1.4389   22.7208  -26.3545 H   0  0  0  0  0  0  0  0  0  0  0  0
   -3.5539   21.7268  -27.2390 H   0  0  0  0  0  0  0  0  0  0  0  0
   -5.4041   21.7832  -28.8685 H   0  0  0  0  0  0  0  0  0  0  0  0
   -6.3427   20.6281  -30.5595 H   0  0  0  0  0  0  0  0  0  0  0  0
   -7.4780   19.5921  -34.5713 H   0  0  0  0  0  0  0  0  0  0  0  0
   -7.3547   20.6670  -33.1095 H   0  0  0  0  0  0  0  0  0  0  0  0
   -5.1226   20.0305  -33.9516 H   0  0  0  0  0  0  0  0  0  0  0  0
   -5.4457   19.3676  -32.2984 H   0  0  0  0  0  0  0  0  0  0  0  0
  1  2  1  0
  2  3  1  0
  3  4  1  0
  4  5  1  0
  5  6  1  0
  6  7  1  0
  7  8  2  0
  8  9  1  0
  9 10  2  0
 10 11  1  0
 11 12  1  0
 12 13  2  0
 13 14  1  0
 14 15  2  0
 15 16  1  0
 16 17  2  0
 17 18  1  0
 18 19  2  0
 19 20  1  0
 20 21  2  0
 11 22  2  0
  5 23  1  0
 23 24  1  0
 24  2  1  0
 22  7  1  0
 21 12  1  0
 20 15  1  0
  1 25  1  0
  1 26  1  0
  1 27  1  0
  3 28  1  0
  3 29  1  0
  4 30  1  0
  4 31  1  0
  6 32  1  0
  6 33  1  0
  8 34  1  0
  9 35  1  0
 13 36  1  0
 16 37  1  0
 17 38  1  0
 18 39  1  0
 19 40  1  0
 21 41  1  0
 22 42  1  0
 23 43  1  0
 23 44  1  0
 24 45  1  0
 24 46  1  0
M  END
>  <UniqueID>  (11) 
11

>  <SMILES>  (11) 
CN1CCN(Cc2ccnc(-c3cnc4ccccc4c3)c2)CC1

>  <Energy>  (11) 
69.06880228961461

>  <Genealogy>  (11) 
CN1CCN(Cc2ccnc(-c3cnc4ccccc4c3)c2)CC1 (3D coordinates assigned)
CN1CCN(Cc2ccnc(-c3cnc4ccccc4c3)c2)CC1 (nonaromatic ring conformer: 69.06880228961461 kcal/mol)

>  <smiles>  (11) 
CN1CCN(Cc2ccnc(-c3cnc4ccccc4c3)c2)CC1

>  <score_type>  (11) 
oracle

>  <origin>  (11) 
adg

>  <m_score__min__energy>  (11) 
-9

>  <m_primary>  (11) 
energy

$$$$
11:0
     RDKit          3D

 35 36  0  0  0  0  0  0  0  0999 V2000
   -4.2540   23.7950  -31.3500 O   0  0  0  0  0  0  0  0  0  0  0  0
   -4.4290   24.5280  -30.3400 C   0  0  0  0  0  0  0  0  0  0  0  0
   -5.7880   24.6350  -29.7250 C   0  0  0  0  0  0  0  0  0  0  0  0
   -6.8660   24.2670  -30.7480 C   0  0  0  0  0  0  0  0  0  0  0  0
   -6.7820   22.8530  -31.1120 N   0  0  0  0  0  0  0  0  0  0  0  0
   -7.9450   22.1210  -31.5230 C   0  0  0  0  0  0  0  0  0  0  0  0
   -9.0650   22.7000  -31.5730 O   0  0  0  0  0  0  0  0  0  0  0  0
   -7.8690   20.6970  -31.8930 C   0  0  0  0  0  0  0  0  0  0  0  0
   -8.9210   19.8000  -31.9820 C   0  0  0  0  0  0  0  0  0  0  0  0
   -8.3560   18.6010  -32.3590 C   0  0  0  0  0  0  0  0  0  0  0  0
   -7.0020   18.8350  -32.4790 C   0  0  0  0  0  0  0  0  0  0  0  0
   -6.7440   20.0910  -32.1960 O   0  0  0  0  0  0  0  0  0  0  0  0
   -3.3270   25.2160  -29.7400 N   0  0  0  0  0  0  0  0  0  0  0  0
   -2.2070   24.5380  -29.0990 C   0  0  0  0  0  0  0  0  0  0  0  0
   -1.8000   25.2700  -27.8430 C   0  0  0  0  0  0  0  0  0  0  0  0
   -0.5420   25.8930  -27.7800 C   0  0  0  0  0  0  0  0  0  0  0  0
   -0.1380   26.5570  -26.6190 C   0  0  0  0  0  0  0  0  0  0  0  0
   -0.9830   26.6030  -25.5090 C   0  0  0  0  0  0  0  0  0  0  0  0
   -2.2340   25.9840  -25.5560 C   0  0  0  0  0  0  0  0  0  0  0  0
   -2.6490   25.3150  -26.7150 C   0  0  0  0  0  0  0  0  0  0  0  0
   -4.2320   24.5450  -26.7160 Cl  0  0  0  0  0  0  0  0  0  0  0  0
   -5.8529   23.9494  -28.8672 H   0  0  0  0  0  0  0  0  0  0  0  0
   -5.9494   25.6712  -29.3930 H   0  0  0  0  0  0  0  0  0  0  0  0
   -7.8568   24.4687  -30.3149 H   0  0  0  0  0  0  0  0  0  0  0  0
   -6.7110   24.8719  -31.6536 H   0  0  0  0  0  0  0  0  0  0  0  0
   -5.8570   22.3690  -31.0720 H   0  0  0  0  0  0  0  0  0  0  0  0
   -9.9853   20.0026  -31.7915 H   0  0  0  0  0  0  0  0  0  0  0  0
   -8.8795   17.6488  -32.5299 H   0  0  0  0  0  0  0  0  0  0  0  0
   -6.2523   18.0837  -32.7679 H   0  0  0  0  0  0  0  0  0  0  0  0
   -2.5046   23.5112  -28.8401 H   0  0  0  0  0  0  0  0  0  0  0  0
   -1.3548   24.5197  -29.7943 H   0  0  0  0  0  0  0  0  0  0  0  0
    0.1293   25.8577  -28.6507 H   0  0  0  0  0  0  0  0  0  0  0  0
    0.8474   27.0442  -26.5796 H   0  0  0  0  0  0  0  0  0  0  0  0
   -0.6633   27.1273  -24.5964 H   0  0  0  0  0  0  0  0  0  0  0  0
   -2.8967   26.0219  -24.6789 H   0  0  0  0  0  0  0  0  0  0  0  0
  1  2  2  0
  2  3  1  0
  3  4  1  0
  4  5  1  0
  5  6  1  0
  6  7  2  0
  6  8  1  0
  8  9  2  0
  9 10  1  0
 10 11  2  0
 11 12  1  0
  2 13  1  0
 13 14  1  0
 14 15  1  0
 15 16  2  0
 16 17  1  0
 17 18  2  0
 18 19  1  0
 19 20  2  0
 20 21  1  0
 12  8  1  0
 20 15  1  0
  3 22  1  0
  3 23  1  0
  4 24  1  0
  4 25  1  0
  5 26  1  0
  9 27  1  0
 10 28  1  0
 11 29  1  0
 14 30  1  0
 14 31  1  0
 16 32  1  0
 17 33  1  0
 18 34  1  0
 19 35  1  0
M  CHG  1  13  -1
M  END
>  <UniqueID>  (12) 
12

>  <SMILES>  (12) 
O=C(CCNC(=O)c1ccco1)[N-]Cc1ccccc1Cl

>  <Energy>  (12) 
53.32617465697172

>  <Genealogy>  (12) 
O=C(CCNC(=O)c1ccco1)[N-]Cc1ccccc1Cl (protonated)
O=C(CCNC(=O)c1ccco1)[N-]Cc1ccccc1Cl (3D coordinates assigned)
O=C(CCNC(=O)c1ccco1)[N-]Cc1ccccc1Cl (optimized conformer: 53.32617465697172 kcal/mol)

>  <smiles>  (12) 
O=C(CCNC(=O)c1ccco1)NCc1ccccc1Cl

>  <score_type>  (12) 
oracle

>  <origin>  (12) 
adg

>  <m_score__min__energy>  (12) 
-8.7300000000000004

>  <m_primary>  (12) 
energy

$$$$
12:0
     RDKit          3D

 32 32  0  0  0  0  0  0  0  0999 V2000
   -3.0090   22.8770  -27.4880 C   0  0  0  0  0  0  0  0  0  0  0  0
   -3.6380   24.2250  -27.1250 C   0  0  0  0  0  0  0  0  0  0  0  0
   -4.7740   24.5780  -28.0000 N   0  0  0  0  0  0  0  0  0  0  0  0
   -4.9700   23.6480  -29.1270 C   0  0  0  0  0  0  0  0  0  0  0  0
   -4.5380   24.2470  -30.4340 C   0  0  0  0  0  0  0  0  0  0  0  0
   -3.8800   25.3230  -30.4420 O   0  0  0  0  0  0  0  0  0  0  0  0
   -4.8480   23.5760  -31.6590 N   0  0  0  0  0  0  0  0  0  0  0  0
   -6.2030   23.2350  -32.0730 C   0  0  0  0  0  0  0  0  0  0  0  0
   -6.3040   21.7650  -32.3760 C   0  0  0  0  0  0  0  0  0  0  0  0
   -5.1600   21.0490  -32.7540 C   0  0  0  0  0  0  0  0  0  0  0  0
   -5.2410   19.6820  -33.0190 C   0  0  0  0  0  0  0  0  0  0  0  0
   -6.4610   19.0050  -32.9000 C   0  0  0  0  0  0  0  0  0  0  0  0
   -6.4910   17.1470  -33.3780 Br  0  0  0  0  0  0  0  0  0  0  0  0
   -7.6200   19.7080  -32.4980 C   0  0  0  0  0  0  0  0  0  0  0  0
   -8.8860   19.0440  -32.3400 N   0  0  0  0  0  0  0  0  0  0  0  0
   -9.8540   19.3620  -33.0600 O   0  0  0  0  0  0  0  0  0  0  0  0
   -9.1010   18.1900  -31.2830 O   0  0  0  0  0  0  0  0  0  0  0  0
   -7.5270   21.0900  -32.2490 C   0  0  0  0  0  0  0  0  0  0  0  0
   -2.7544   22.3314  -26.5674 H   0  0  0  0  0  0  0  0  0  0  0  0
   -3.7243   22.2858  -28.0787 H   0  0  0  0  0  0  0  0  0  0  0  0
   -2.0965   23.0454  -28.0787 H   0  0  0  0  0  0  0  0  0  0  0  0
   -3.9956   24.1780  -26.0858 H   0  0  0  0  0  0  0  0  0  0  0  0
   -2.8659   24.9976  -27.2550 H   0  0  0  0  0  0  0  0  0  0  0  0
   -5.6520   24.6080  -27.4310 H   0  0  0  0  0  0  0  0  0  0  0  0
   -4.6160   25.5420  -28.3780 H   0  0  0  0  0  0  0  0  0  0  0  0
   -4.3813   22.7374  -28.9422 H   0  0  0  0  0  0  0  0  0  0  0  0
   -6.0441   23.4210  -29.1965 H   0  0  0  0  0  0  0  0  0  0  0  0
   -6.9037   23.4873  -31.2635 H   0  0  0  0  0  0  0  0  0  0  0  0
   -6.4531   23.8045  -32.9803 H   0  0  0  0  0  0  0  0  0  0  0  0
   -4.1939   21.5675  -32.8421 H   0  0  0  0  0  0  0  0  0  0  0  0
   -4.3390   19.1312  -33.3240 H   0  0  0  0  0  0  0  0  0  0  0  0
   -8.4262   21.6488  -31.9505 H   0  0  0  0  0  0  0  0  0  0  0  0
  1  2  1  0
  2  3  1  0
  3  4  1  0
  4  5  1  0
  5  6  2  0
  5  7  1  0
  7  8  1  0
  8  9  1  0
  9 10  2  0
 10 11  1  0
 11 12  2  0
 12 13  1  0
 12 14  1  0
 14 15  1  0
 15 16  2  0
 15 17  1  0
 14 18  2  0
 18  9  1  0
  1 19  1  0
  1 20  1  0
  1 21  1  0
  2 22  1  0
  2 23  1  0
  3 24  1  0
  3 25  1  0
  4 26  1  0
  4 27  1  0
  8 28  1  0
  8 29  1  0
 10 30  1  0
 11 31  1  0
 18 32  1  0
M  CHG  4   3   1   7  -1  15   1  17  -1
M  END
>  <UniqueID>  (13) 
13

>  <SMILES>  (13) 
CC[NH2+]CC(=O)[N-]Cc1ccc(Br)c([N+](=O)[O-])c1

>  <Energy>  (13) 
30.81658131839048

>  <Genealogy>  (13) 
CC[NH2+]CC(=O)[N-]Cc1ccc(Br)c([N+](=O)[O-])c1 (protonated)
CC[NH2+]CC(=O)[N-]Cc1ccc(Br)c([N+](=O)[O-])c1 (3D coordinates assigned)
CC[NH2+]CC(=O)[N-]Cc1ccc(Br)c([N+](=O)[O-])c1 (optimized conformer: 30.81658131839048 kcal/mol)

>  <smiles>  (13) 
CCNCC(=O)NCc1ccc(Br)c([N+](=O)[O-])c1

>  <score_type>  (13) 
oracle

>  <origin>  (13) 
adg

>  <m_score__min__energy>  (13) 
-8.8800000000000008

>  <m_primary>  (13) 
energy

$$$$
13:0
     RDKit          3D

 47 49  0  0  0  0  0  0  0  0999 V2000
   -3.9020   25.3070  -30.7440 O   0  0  0  0  0  0  0  0  0  0  0  0
   -4.3830   24.1690  -30.4930 C   0  0  0  0  0  0  0  0  0  0  0  0
   -3.4920   23.0760  -30.2190 N   0  0  0  0  0  0  0  0  0  0  0  0
   -2.1040   23.2890  -29.8150 C   0  0  0  0  0  0  0  0  0  0  0  0
   -1.3160   22.0100  -29.9600 C   0  0  0  0  0  0  0  0  0  0  0  0
   -0.9150   21.5830  -31.2390 C   0  0  0  0  0  0  0  0  0  0  0  0
   -0.1350   20.4330  -31.3920 C   0  0  0  0  0  0  0  0  0  0  0  0
    0.2530   19.6980  -30.2710 C   0  0  0  0  0  0  0  0  0  0  0  0
   -0.1360   20.1110  -28.9950 C   0  0  0  0  0  0  0  0  0  0  0  0
   -0.9150   21.2630  -28.8300 C   0  0  0  0  0  0  0  0  0  0  0  0
   -1.3490   21.7520  -27.1960 Cl  0  0  0  0  0  0  0  0  0  0  0  0
   -5.8820   23.9390  -30.5670 C   0  0  1  0  0  0  0  0  0  0  0  0
   -6.4340   24.2470  -31.9810 C   0  0  0  0  0  0  0  0  0  0  0  0
   -7.6750   23.4170  -32.2930 C   0  0  0  0  0  0  0  0  0  0  0  0
   -7.3350   21.9190  -32.2630 C   0  0  0  0  0  0  0  0  0  0  0  0
   -6.4480   21.5240  -31.1400 N   0  0  0  0  0  0  0  0  0  0  0  0
   -4.9020   20.9180  -31.6930 S   0  0  0  0  0  0  0  0  0  0  0  0
   -4.0630   20.4830  -30.5250 O   0  0  0  0  0  0  0  0  0  0  0  0
   -4.1770   21.9880  -32.4570 O   0  0  0  0  0  0  0  0  0  0  0  0
   -5.1550   19.5280  -32.7440 C   0  0  0  0  0  0  0  0  0  0  0  0
   -4.2380   19.2480  -33.7670 C   0  0  0  0  0  0  0  0  0  0  0  0
   -4.4340   18.1460  -34.6030 C   0  0  0  0  0  0  0  0  0  0  0  0
   -5.5480   17.3200  -34.4240 C   0  0  0  0  0  0  0  0  0  0  0  0
   -6.4690   17.5990  -33.4090 C   0  0  0  0  0  0  0  0  0  0  0  0
   -7.5490   16.7980  -33.2340 F   0  0  0  0  0  0  0  0  0  0  0  0
   -6.2750   18.7030  -32.5710 C   0  0  0  0  0  0  0  0  0  0  0  0
   -6.3180   22.5290  -30.0650 C   0  0  0  0  0  0  0  0  0  0  0  0
   -3.8470   22.0950  -30.2730 H   0  0  0  0  0  0  0  0  0  0  0  0
   -1.6556   24.0660  -30.4515 H   0  0  0  0  0  0  0  0  0  0  0  0
   -2.0817   23.6065  -28.7621 H   0  0  0  0  0  0  0  0  0  0  0  0
   -1.2177   22.1588  -32.1261 H   0  0  0  0  0  0  0  0  0  0  0  0
    0.1731   20.1073  -32.3965 H   0  0  0  0  0  0  0  0  0  0  0  0
    0.8657   18.7926  -30.3926 H   0  0  0  0  0  0  0  0  0  0  0  0
    0.1713   19.5280  -28.1143 H   0  0  0  0  0  0  0  0  0  0  0  0
   -6.3359   24.6552  -29.8663 H   0  0  0  0  0  0  0  0  0  0  0  0
   -6.6949   25.3141  -32.0376 H   0  0  0  0  0  0  0  0  0  0  0  0
   -5.6565   23.9928  -32.7165 H   0  0  0  0  0  0  0  0  0  0  0  0
   -8.4511   23.6282  -31.5426 H   0  0  0  0  0  0  0  0  0  0  0  0
   -8.0398   23.6814  -33.2965 H   0  0  0  0  0  0  0  0  0  0  0  0
   -8.2742   21.3527  -32.1778 H   0  0  0  0  0  0  0  0  0  0  0  0
   -6.7899   21.6975  -33.1924 H   0  0  0  0  0  0  0  0  0  0  0  0
   -3.3621   19.8976  -33.9117 H   0  0  0  0  0  0  0  0  0  0  0  0
   -3.7112   17.9278  -35.4030 H   0  0  0  0  0  0  0  0  0  0  0  0
   -5.7000   16.4511  -35.0812 H   0  0  0  0  0  0  0  0  0  0  0  0
   -7.0022   18.9236  -31.7757 H   0  0  0  0  0  0  0  0  0  0  0  0
   -7.2916   22.6262  -29.5623 H   0  0  0  0  0  0  0  0  0  0  0  0
   -5.5270   22.1724  -29.3889 H   0  0  0  0  0  0  0  0  0  0  0  0
  1  2  2  0
  2  3  1  0
  3  4  1  0
  4  5  1  0
  5  6  2  0
  6  7  1  0
  7  8  2  0
  8  9  1  0
  9 10  2  0
 10 11  1  0
  2 12  1  0
 12 13  1  0
 13 14  1  0
 14 15  1  0
 15 16  1  0
 16 17  1  0
 17 18  2  0
 17 19  2  0
 17 20  1  0
 20 21  2  0
 21 22  1  0
 22 23  2  0
 23 24  1  0
 24 25  1  0
 24 26  2  0
 16 27  1  0
 10  5  1  0
 27 12  1  0
 26 20  1  0
  3 28  1  0
  4 29  1  0
  4 30  1  0
  6 31  1  0
  7 32  1  0
  8 33  1  0
  9 34  1  0
 12 35  1  1
 13 36  1  0
 13 37  1  0
 14 38  1  0
 14 39  1  0
 15 40  1  0
 15 41  1  0
 21 42  1  0
 22 43  1  0
 23 44  1  0
 26 45  1  0
 27 46  1  0
 27 47  1  0
M  END
>  <UniqueID>  (14) 
14

>  <SMILES>  (14) 
O=C(NCc1ccccc1Cl)[C@H]1CCCN(S(=O)(=O)c2cccc(F)c2)C1

>  <Energy>  (14) 
54.85941779299982

>  <Genealogy>  (14) 
O=C(NCc1ccccc1Cl)[C@H]1CCCN(S(=O)(=O)c2cccc(F)c2)C1 (chirality)
O=C(NCc1ccccc1Cl)[C@H]1CCCN(S(=O)(=O)c2cccc(F)c2)C1 (3D coordinates assigned)
O=C(NCc1ccccc1Cl)[C@H]1CCCN(S(=O)(=O)c2cccc(F)c2)C1 (nonaromatic ring conformer: 54.85941779299982 kcal/mol)

>  <smiles>  (14) 
O=C(NCc1ccccc1Cl)C1CCCN(S(=O)(=O)c2cccc(F)c2)C1

>  <score_type>  (14) 
oracle

>  <origin>  (14) 
adg

>  <m_score__min__energy>  (14) 
-9.0299999999999994

>  <m_primary>  (14) 
energy

$$$$
14:0
     RDKit          3D

 57 60  0  0  0  0  0  0  0  0999 V2000
   -9.9050   21.3930  -32.0090 C   0  0  0  0  0  0  0  0  0  0  0  0
   -9.3510   20.2160  -31.4300 O   0  0  0  0  0  0  0  0  0  0  0  0
   -8.2410   19.5240  -31.9390 C   0  0  0  0  0  0  0  0  0  0  0  0
   -8.3160   18.1690  -32.3210 C   0  0  0  0  0  0  0  0  0  0  0  0
   -7.1940   17.5200  -32.8430 C   0  0  0  0  0  0  0  0  0  0  0  0
   -5.9900   18.2100  -32.9930 C   0  0  0  0  0  0  0  0  0  0  0  0
   -5.9040   19.5530  -32.6180 C   0  0  0  0  0  0  0  0  0  0  0  0
   -7.0220   20.2120  -32.0860 C   0  0  0  0  0  0  0  0  0  0  0  0
   -6.9110   21.5890  -31.6980 N   0  0  0  0  0  0  0  0  0  0  0  0
   -6.3850   22.5770  -32.6470 C   0  0  0  0  0  0  0  0  0  0  0  0
   -5.2560   23.3840  -31.9930 C   0  0  0  0  0  0  0  0  0  0  0  0
   -5.5840   23.7550  -30.6080 N   0  0  0  0  0  0  0  0  0  0  0  0
   -4.5960   24.4510  -29.8260 C   0  0  0  0  0  0  0  0  0  0  0  0
   -3.8300   25.2810  -30.3920 O   0  0  0  0  0  0  0  0  0  0  0  0
   -4.4670   24.2170  -28.3420 C   0  0  0  0  0  0  0  0  0  0  0  0
   -3.0550   24.5390  -27.8310 C   0  0  0  0  0  0  0  0  0  0  0  0
   -2.0000   23.9070  -28.6970 C   0  0  0  0  0  0  0  0  0  0  0  0
   -1.2100   24.6440  -29.3480 O   0  0  0  0  0  0  0  0  0  0  0  0
   -1.8360   22.4760  -28.7390 N   0  0  0  0  0  0  0  0  0  0  0  0
   -1.6730   21.7170  -27.4900 C   0  0  0  0  0  0  0  0  0  0  0  0
   -0.5540   20.6850  -27.6480 C   0  0  0  0  0  0  0  0  0  0  0  0
   -0.7670   19.8930  -28.8160 O   0  0  0  0  0  0  0  0  0  0  0  0
   -1.2650   20.4490  -30.0000 C   0  0  0  0  0  0  0  0  0  0  0  0
   -1.2530   19.6990  -31.1810 C   0  0  0  0  0  0  0  0  0  0  0  0
   -1.7650   20.2430  -32.3620 C   0  0  0  0  0  0  0  0  0  0  0  0
   -2.3050   21.5320  -32.3610 C   0  0  0  0  0  0  0  0  0  0  0  0
   -2.3290   22.2840  -31.1820 C   0  0  0  0  0  0  0  0  0  0  0  0
   -1.7960   21.7520  -29.9920 C   0  0  0  0  0  0  0  0  0  0  0  0
   -6.9180   23.4510  -30.0670 C   0  0  0  0  0  0  0  0  0  0  0  0
   -7.2530   21.9800  -30.3220 C   0  0  0  0  0  0  0  0  0  0  0  0
  -10.2273   22.0776  -31.2106 H   0  0  0  0  0  0  0  0  0  0  0  0
   -9.1452   21.8878  -32.6318 H   0  0  0  0  0  0  0  0  0  0  0  0
  -10.7705   21.1228  -32.6318 H   0  0  0  0  0  0  0  0  0  0  0  0
   -9.2624   17.6200  -32.2076 H   0  0  0  0  0  0  0  0  0  0  0  0
   -7.2598   16.4620  -33.1366 H   0  0  0  0  0  0  0  0  0  0  0  0
   -5.1093   17.6966  -33.4063 H   0  0  0  0  0  0  0  0  0  0  0  0
   -4.9553   20.0960  -32.7405 H   0  0  0  0  0  0  0  0  0  0  0  0
   -5.9945   22.0576  -33.5345 H   0  0  0  0  0  0  0  0  0  0  0  0
   -7.1943   23.2615  -32.9411 H   0  0  0  0  0  0  0  0  0  0  0  0
   -4.3386   22.7771  -31.9917 H   0  0  0  0  0  0  0  0  0  0  0  0
   -5.1161   24.3089  -32.5717 H   0  0  0  0  0  0  0  0  0  0  0  0
   -5.1899   24.8586  -27.8169 H   0  0  0  0  0  0  0  0  0  0  0  0
   -4.6653   23.1528  -28.1467 H   0  0  0  0  0  0  0  0  0  0  0  0
   -2.9137   25.6299  -27.8335 H   0  0  0  0  0  0  0  0  0  0  0  0
   -2.9549   24.1345  -26.8130 H   0  0  0  0  0  0  0  0  0  0  0  0
   -1.4181   22.4089  -26.6737 H   0  0  0  0  0  0  0  0  0  0  0  0
   -2.6141   21.1971  -27.2575 H   0  0  0  0  0  0  0  0  0  0  0  0
    0.4104   21.2069  -27.7352 H   0  0  0  0  0  0  0  0  0  0  0  0
   -0.5499   20.0264  -26.7670 H   0  0  0  0  0  0  0  0  0  0  0  0
   -0.8399   18.6795  -31.1799 H   0  0  0  0  0  0  0  0  0  0  0  0
   -1.7430   19.6566  -33.2924 H   0  0  0  0  0  0  0  0  0  0  0  0
   -2.7124   21.9565  -33.2904 H   0  0  0  0  0  0  0  0  0  0  0  0
   -2.7654   23.2937  -31.1842 H   0  0  0  0  0  0  0  0  0  0  0  0
   -6.9271   23.6461  -28.9845 H   0  0  0  0  0  0  0  0  0  0  0  0
   -7.6664   24.0870  -30.5624 H   0  0  0  0  0  0  0  0  0  0  0  0
   -6.6831   21.3548  -29.6189 H   0  0  0  0  0  0  0  0  0  0  0  0
   -8.3342   21.8381  -30.1774 H   0  0  0  0  0  0  0  0  0  0  0  0
  1  2  1  0
  2  3  1  0
  3  4  2  0
  4  5  1  0
  5  6  2  0
  6  7  1  0
  7  8  2  0
  8  9  1  0
  9 10  1  0
 10 11  1  0
 11 12  1  0
 12 13  1  0
 13 14  2  0
 13 15  1  0
 15 16  1  0
 16 17  1  0
 17 18  2  0
 17 19  1  0
 19 20  1  0
 20 21  1  0
 21 22  1  0
 22 23  1  0
 23 24  2  0
 24 25  1  0
 25 26  2  0
 26 27  1  0
 27 28  2  0
 12 29  1  0
 29 30  1  0
  8  3  1  0
 30  9  1  0
 28 19  1  0
 28 23  1  0
  1 31  1  0
  1 32  1  0
  1 33  1  0
  4 34  1  0
  5 35  1  0
  6 36  1  0
  7 37  1  0
 10 38  1  0
 10 39  1  0
 11 40  1  0
 11 41  1  0
 15 42  1  0
 15 43  1  0
 16 44  1  0
 16 45  1  0
 20 46  1  0
 20 47  1  0
 21 48  1  0
 21 49  1  0
 24 50  1  0
 25 51  1  0
 26 52  1  0
 27 53  1  0
 29 54  1  0
 29 55  1  0
 30 56  1  0
 30 57  1  0
M  END
>  <UniqueID>  (15) 
15

>  <SMILES>  (15) 
COc1ccccc1N1CCN(C(=O)CCC(=O)N2CCOc3ccccc32)CC1

>  <Energy>  (15) 
70.556201941038

>  <Genealogy>  (15) 
COc1ccccc1N1CCN(C(=O)CCC(=O)N2CCOc3ccccc32)CC1 (3D coordinates assigned)
COc1ccccc1N1CCN(C(=O)CCC(=O)N2CCOc3ccccc32)CC1 (nonaromatic ring conformer: 70.556201941038 kcal/mol)

>  <smiles>  (15) 
COc1ccccc1N1CCN(C(=O)CCC(=O)N2CCOc3ccccc32)CC1

>  <score_type>  (15) 
oracle

>  <origin>  (15) 
adg

>  <m_score__min__energy>  (15) 
-9.9199999999999999

>  <m_primary>  (15) 
energy

$$$$
15:0
     RDKit          3D

 50 53  0  0  0  0  0  0  0  0999 V2000
   -2.7060   22.6870  -30.7660 C   0  0  0  0  0  0  0  0  0  0  0  0
   -4.0860   23.3120  -30.7320 C   0  0  0  0  0  0  0  0  0  0  0  0
   -4.2360   24.6010  -30.1610 C   0  0  0  0  0  0  0  0  0  0  0  0
   -3.1090   25.2540  -29.6310 O   0  0  0  0  0  0  0  0  0  0  0  0
   -2.4440   24.8910  -28.4250 C   0  0  0  0  0  0  0  0  0  0  0  0
   -1.1970   25.7550  -28.2550 C   0  0  0  0  0  0  0  0  0  0  0  0
    0.0150   24.9030  -28.2400 N   0  0  0  0  0  0  0  0  0  0  0  0
    0.8030   25.0790  -27.0050 C   0  0  0  0  0  0  0  0  0  0  0  0
    0.0870   24.4670  -25.7770 C   0  0  0  0  0  0  0  0  0  0  0  0
   -0.9510   23.5670  -26.1280 O   0  0  0  0  0  0  0  0  0  0  0  0
   -0.5120   22.6970  -27.1490 C   0  0  0  0  0  0  0  0  0  0  0  0
   -0.2970   23.4700  -28.4670 C   0  0  0  0  0  0  0  0  0  0  0  0
   -5.5020   25.2070  -30.1290 C   0  0  0  0  0  0  0  0  0  0  0  0
   -6.6130   24.5580  -30.6510 C   0  0  0  0  0  0  0  0  0  0  0  0
   -6.4930   23.2900  -31.2130 C   0  0  0  0  0  0  0  0  0  0  0  0
   -7.5840   22.7090  -31.6960 O   0  0  0  0  0  0  0  0  0  0  0  0
   -7.5770   21.5080  -32.2510 C   0  0  0  0  0  0  0  0  0  0  0  0
   -6.3910   20.7750  -32.3560 C   0  0  0  0  0  0  0  0  0  0  0  0
   -6.4100   19.4330  -32.9910 C   0  0  0  0  0  0  0  0  0  0  0  0
   -5.7120   19.1970  -34.1890 C   0  0  0  0  0  0  0  0  0  0  0  0
   -5.7420   17.9320  -34.7860 C   0  0  0  0  0  0  0  0  0  0  0  0
   -6.4710   16.8950  -34.1970 C   0  0  0  0  0  0  0  0  0  0  0  0
   -7.1720   17.1210  -33.0110 C   0  0  0  0  0  0  0  0  0  0  0  0
   -7.1460   18.3840  -32.4100 C   0  0  0  0  0  0  0  0  0  0  0  0
   -5.2070   21.3400  -31.8450 C   0  0  0  0  0  0  0  0  0  0  0  0
   -4.1420   20.6670  -31.8920 O   0  0  0  0  0  0  0  0  0  0  0  0
   -5.2340   22.6380  -31.2640 C   0  0  0  0  0  0  0  0  0  0  0  0
   -2.3509   22.5262  -29.7374 H   0  0  0  0  0  0  0  0  0  0  0  0
   -2.7532   21.7224  -31.2926 H   0  0  0  0  0  0  0  0  0  0  0  0
   -2.0121   23.3587  -31.2926 H   0  0  0  0  0  0  0  0  0  0  0  0
   -3.1194   25.0491  -27.5713 H   0  0  0  0  0  0  0  0  0  0  0  0
   -2.1538   23.8309  -28.4697 H   0  0  0  0  0  0  0  0  0  0  0  0
   -1.1309   26.4668  -29.0910 H   0  0  0  0  0  0  0  0  0  0  0  0
   -1.2647   26.3012  -27.3026 H   0  0  0  0  0  0  0  0  0  0  0  0
    1.7783   24.5862  -27.1312 H   0  0  0  0  0  0  0  0  0  0  0  0
    0.9263   26.1576  -26.8277 H   0  0  0  0  0  0  0  0  0  0  0  0
    0.8299   23.9257  -25.1728 H   0  0  0  0  0  0  0  0  0  0  0  0
   -0.3732   25.2961  -25.2196 H   0  0  0  0  0  0  0  0  0  0  0  0
    0.4369   22.2317  -26.8440 H   0  0  0  0  0  0  0  0  0  0  0  0
   -1.2794   21.9259  -27.3116 H   0  0  0  0  0  0  0  0  0  0  0  0
    0.5387   23.0092  -29.0141 H   0  0  0  0  0  0  0  0  0  0  0  0
   -1.2335   23.4184  -29.0418 H   0  0  0  0  0  0  0  0  0  0  0  0
   -5.6151   26.2072  -29.6854 H   0  0  0  0  0  0  0  0  0  0  0  0
   -7.5964   25.0500  -30.6202 H   0  0  0  0  0  0  0  0  0  0  0  0
   -8.5155   21.0811  -32.6344 H   0  0  0  0  0  0  0  0  0  0  0  0
   -5.1399   20.0107  -34.6587 H   0  0  0  0  0  0  0  0  0  0  0  0
   -5.1907   17.7531  -35.7209 H   0  0  0  0  0  0  0  0  0  0  0  0
   -6.4924   15.9011  -34.6678 H   0  0  0  0  0  0  0  0  0  0  0  0
   -7.7458   16.3045  -32.5483 H   0  0  0  0  0  0  0  0  0  0  0  0
   -7.7040   18.5579  -31.4781 H   0  0  0  0  0  0  0  0  0  0  0  0
  1  2  1  0
  2  3  2  0
  3  4  1  0
  4  5  1  0
  5  6  1  0
  6  7  1  0
  7  8  1  0
  8  9  1  0
  9 10  1  0
 10 11  1  0
 11 12  1  0
  3 13  1  0
 13 14  2  0
 14 15  1  0
 15 16  1  0
 16 17  1  0
 17 18  2  0
 18 19  1  0
 19 20  2  0
 20 21  1  0
 21 22  2  0
 22 23  1  0
 23 24  2  0
 18 25  1  0
 25 26  2  0
 25 27  1  0
 27  2  1  0
 12  7  1  0
 27 15  2  0
 24 19  1  0
  1 28  1  0
  1 29  1  0
  1 30  1  0
  5 31  1  0
  5 32  1  0
  6 33  1  0
  6 34  1  0
  8 35  1  0
  8 36  1  0
  9 37  1  0
  9 38  1  0
 11 39  1  0
 11 40  1  0
 12 41  1  0
 12 42  1  0
 13 43  1  0
 14 44  1  0
 17 45  1  0
 20 46  1  0
 21 47  1  0
 22 48  1  0
 23 49  1  0
 24 50  1  0
M  END
>  <UniqueID>  (16) 
16

>  <SMILES>  (16) 
Cc1c(OCCN2CCOCC2)ccc2occ(-c3ccccc3)c(=O)c12

>  <Energy>  (16) 
81.39024781575334

>  <Genealogy>  (16) 
Cc1c(OCCN2CCOCC2)ccc2occ(-c3ccccc3)c(=O)c12 (3D coordinates assigned)
Cc1c(OCCN2CCOCC2)ccc2occ(-c3ccccc3)c(=O)c12 (nonaromatic ring conformer: 81.39024781575334 kcal/mol)

>  <smiles>  (16) 
Cc1c(OCCN2CCOCC2)ccc2occ(-c3ccccc3)c(=O)c12

>  <score_type>  (16) 
oracle

>  <origin>  (16) 
adg

>  <m_score__min__energy>  (16) 
-9.2599999999999998

>  <m_primary>  (16) 
energy

$$$$
16:0
     RDKit          3D

 43 44  0  0  0  0  0  0  0  0999 V2000
  -10.0290   22.1146  -31.2020 H   0  0  0  0  0  0  0  0  0  0  0  0
   -9.0060   21.9790  -31.5830 C   0  0  0  0  0  0  0  0  0  0  0  0
   -8.3790   20.5720  -32.2630 S   0  0  0  0  0  0  0  0  0  0  0  0
   -6.8570   21.2370  -32.5340 C   0  0  0  0  0  0  0  0  0  0  0  0
   -5.7120   20.5180  -33.1410 C   0  0  0  0  0  0  0  0  0  0  0  0
   -4.6140   21.1480  -33.4360 N   0  0  0  0  0  0  0  0  0  0  0  0
   -4.2140   22.2890  -32.7780 O   0  0  0  0  0  0  0  0  0  0  0  0
   -3.2010   22.2310  -31.7870 C   0  0  0  0  0  0  0  0  0  0  0  0
   -2.2128   22.2643  -32.2689 H   0  0  0  0  0  0  0  0  0  0  0  0
   -3.2960   21.2955  -31.2162 H   0  0  0  0  0  0  0  0  0  0  0  0
   -3.3510   23.4310  -30.8390 C   0  0  0  0  0  0  0  0  0  0  0  0
   -2.8336   24.2919  -31.2874 H   0  0  0  0  0  0  0  0  0  0  0  0
   -2.9170   23.1288  -29.8745 H   0  0  0  0  0  0  0  0  0  0  0  0
   -4.7580   23.8210  -30.5710 N   0  0  0  0  0  0  0  0  0  0  0  0
   -4.9410   25.2900  -30.5680 C   0  0  0  0  0  0  0  0  0  0  0  0
   -5.0814   25.6405  -31.6012 H   0  0  0  0  0  0  0  0  0  0  0  0
   -4.0494   25.7611  -30.1285 H   0  0  0  0  0  0  0  0  0  0  0  0
   -6.1640   25.6690  -29.7370 C   0  0  0  0  0  0  0  0  0  0  0  0
   -5.9185   25.5929  -28.6675 H   0  0  0  0  0  0  0  0  0  0  0  0
   -6.4616   26.7015  -29.9723 H   0  0  0  0  0  0  0  0  0  0  0  0
   -6.9933   24.9857  -29.9723 H   0  0  0  0  0  0  0  0  0  0  0  0
   -5.3370   23.1980  -29.3560 C   0  0  0  0  0  0  0  0  0  0  0  0
   -6.1105   23.8654  -28.9483 H   0  0  0  0  0  0  0  0  0  0  0  0
   -5.7633   22.2251  -29.6418 H   0  0  0  0  0  0  0  0  0  0  0  0
   -4.2780   22.9540  -28.2810 C   0  0  0  0  0  0  0  0  0  0  0  0
   -4.7347   23.0592  -27.2858 H   0  0  0  0  0  0  0  0  0  0  0  0
   -3.8703   21.9384  -28.3918 H   0  0  0  0  0  0  0  0  0  0  0  0
   -3.4670   23.6888  -28.3918 H   0  0  0  0  0  0  0  0  0  0  0  0
   -5.7870   19.0560  -33.3890 C   0  0  0  0  0  0  0  0  0  0  0  0
   -5.6490   18.5470  -34.6950 C   0  0  0  0  0  0  0  0  0  0  0  0
   -5.4793   19.2373  -35.5345 H   0  0  0  0  0  0  0  0  0  0  0  0
   -5.7260   17.1710  -34.9330 C   0  0  0  0  0  0  0  0  0  0  0  0
   -5.6100   16.7834  -35.9559 H   0  0  0  0  0  0  0  0  0  0  0  0
   -5.9500   16.2880  -33.8740 C   0  0  0  0  0  0  0  0  0  0  0  0
   -6.0580   14.4090  -34.2030 Br  0  0  0  0  0  0  0  0  0  0  0  0
   -6.1010   16.7800  -32.5750 C   0  0  0  0  0  0  0  0  0  0  0  0
   -6.2814   16.0849  -31.7418 H   0  0  0  0  0  0  0  0  0  0  0  0
   -6.0230   18.1550  -32.3330 C   0  0  0  0  0  0  0  0  0  0  0  0
   -6.1471   18.5361  -31.3086 H   0  0  0  0  0  0  0  0  0  0  0  0
   -6.8180   22.5220  -32.1150 N   0  0  0  0  0  0  0  0  0  0  0  0
   -5.9850   23.1460  -32.2040 H   0  0  0  0  0  0  0  0  0  0  0  0
   -8.0000   22.9390  -31.5890 C   0  0  0  0  0  0  0  0  0  0  0  0
   -8.1491   23.9565  -31.1985 H   0  0  0  0  0  0  0  0  0  0  0  0
  1  2  1  0
  2  3  1  0
  3  4  1  0
  4  5  1  0
  5  6  2  0
  6  7  1  0
  7  8  1  0
  8  9  1  0
  8 10  1  0
  8 11  1  0
 11 12  1  0
 11 13  1  0
 11 14  1  0
 14 15  1  0
 15 16  1  0
 15 17  1  0
 15 18  1  0
 18 19  1  0
 18 20  1  0
 18 21  1  0
 14 22  1  0
 22 23  1  0
 22 24  1  0
 22 25  1  0
 25 26  1  0
 25 27  1  0
 25 28  1  0
  5 29  1  0
 29 30  2  0
 30 31  1  0
 30 32  1  0
 32 33  1  0
 32 34  2  0
 34 35  1  0
 34 36  1  0
 36 37  1  0
 36 38  2  0
 38 39  1  0
  4 40  2  0
 40 41  1  0
 40 42  1  0
 42 43  1  0
 42  2  2  0
 38 29  1  0
M  CHG  1  40   1
M  END
>  <UniqueID>  (17) 
17

>  <SMILES>  (17) 
CCN(CC)CCO/N=C(/c1ccc(Br)cc1)c1[nH+]ccs1

>  <Energy>  (17) 
74.7606327348509

>  <Genealogy>  (17) 
CCN(CC)CCON=C(c1ccc(Br)cc1)c1[nH+]ccs1 (protonated)
CCN(CC)CCO/N=C(/c1ccc(Br)cc1)c1[nH+]ccs1 (cis-trans isomerization)
CCN(CC)CCO/N=C(/c1ccc(Br)cc1)c1[nH+]ccs1 (3D coordinates assigned)
CCN(CC)CCO/N=C(/c1ccc(Br)cc1)c1[nH+]ccs1 (optimized conformer: 74.7606327348509 kcal/mol)

>  <smiles>  (17) 
CCN(CC)CCON=C(c1ccc(Br)cc1)c1nccs1

>  <score_type>  (17) 
oracle

>  <origin>  (17) 
adg

>  <m_score__min__energy>  (17) 
-6.1799999999999997

>  <m_primary>  (17) 
energy

$$$$
17:0
     RDKit          3D

 60 64  0  0  0  0  0  0  0  0999 V2000
   -3.2920   20.9960  -28.9560 C   0  0  0  0  0  0  0  0  0  0  0  0
   -3.4750   22.4450  -29.3640 C   0  0  0  0  0  0  0  0  0  0  0  0
   -2.5820   23.4500  -28.9020 C   0  0  0  0  0  0  0  0  0  0  0  0
   -1.4940   23.1480  -27.9430 C   0  0  0  0  0  0  0  0  0  0  0  0
   -0.5510   22.1520  -28.2360 C   0  0  0  0  0  0  0  0  0  0  0  0
    0.4830   21.8780  -27.3380 C   0  0  0  0  0  0  0  0  0  0  0  0
    0.5860   22.5990  -26.1450 C   0  0  0  0  0  0  0  0  0  0  0  0
   -0.3480   23.6000  -25.8400 C   0  0  0  0  0  0  0  0  0  0  0  0
   -0.2110   24.3940  -24.5670 C   0  0  0  0  0  0  0  0  0  0  0  0
   -0.9080   25.6930  -24.6890 N   0  0  0  0  0  0  0  0  0  0  0  0
   -0.3630   26.5190  -25.7860 C   0  0  0  0  0  0  0  0  0  0  0  0
    0.9610   27.1880  -25.3880 C   0  0  0  0  0  0  0  0  0  0  0  0
    0.7870   27.9810  -24.2310 O   0  0  0  0  0  0  0  0  0  0  0  0
    0.4110   27.1600  -23.1450 C   0  0  0  0  0  0  0  0  0  0  0  0
   -0.9310   26.4580  -23.4220 C   0  0  0  0  0  0  0  0  0  0  0  0
   -1.3870   23.8740  -26.7450 C   0  0  0  0  0  0  0  0  0  0  0  0
   -2.7460   24.7730  -29.3510 C   0  0  0  0  0  0  0  0  0  0  0  0
   -1.9640   25.6830  -28.9660 O   0  0  0  0  0  0  0  0  0  0  0  0
   -3.7560   25.0890  -30.1960 N   0  0  0  0  0  0  0  0  0  0  0  0
   -4.6490   24.1680  -30.6350 C   0  0  0  0  0  0  0  0  0  0  0  0
   -5.6760   24.5670  -31.4950 C   0  0  0  0  0  0  0  0  0  0  0  0
   -6.6150   23.6420  -31.9480 C   0  0  0  0  0  0  0  0  0  0  0  0
   -6.5440   22.3030  -31.5400 C   0  0  0  0  0  0  0  0  0  0  0  0
   -7.5150   21.3490  -32.0090 N   0  0  0  0  0  0  0  0  0  0  0  0
   -8.9410   21.6420  -31.8330 C   0  0  0  0  0  0  0  0  0  0  0  0
   -7.0870   20.1910  -32.7630 C   0  0  0  0  0  0  0  0  0  0  0  0
   -6.1270   20.2870  -33.5760 O   0  0  0  0  0  0  0  0  0  0  0  0
   -7.7380   18.8470  -32.5690 C   0  0  0  0  0  0  0  0  0  0  0  0
   -6.9170   17.6700  -33.0750 C   0  0  0  0  0  0  0  0  0  0  0  0
   -7.0410   17.9190  -31.5830 C   0  0  0  0  0  0  0  0  0  0  0  0
   -5.5080   21.8950  -30.6840 C   0  0  0  0  0  0  0  0  0  0  0  0
   -4.5420   22.8180  -30.2240 C   0  0  0  0  0  0  0  0  0  0  0  0
   -3.2827   20.9225  -27.8585 H   0  0  0  0  0  0  0  0  0  0  0  0
   -4.1213   20.3947  -29.3568 H   0  0  0  0  0  0  0  0  0  0  0  0
   -2.3392   20.6198  -29.3568 H   0  0  0  0  0  0  0  0  0  0  0  0
   -0.6260   21.5851  -29.1757 H   0  0  0  0  0  0  0  0  0  0  0  0
    1.2179   21.0931  -27.5701 H   0  0  0  0  0  0  0  0  0  0  0  0
    1.4033   22.3804  -25.4420 H   0  0  0  0  0  0  0  0  0  0  0  0
   -0.6510   23.8238  -23.7356 H   0  0  0  0  0  0  0  0  0  0  0  0
    0.8564   24.5795  -24.3766 H   0  0  0  0  0  0  0  0  0  0  0  0
   -0.1893   25.8779  -26.6628 H   0  0  0  0  0  0  0  0  0  0  0  0
   -1.0922   27.3101  -26.0151 H   0  0  0  0  0  0  0  0  0  0  0  0
    1.7124   26.4108  -25.1845 H   0  0  0  0  0  0  0  0  0  0  0  0
    1.2961   27.8326  -26.2139 H   0  0  0  0  0  0  0  0  0  0  0  0
    1.1885   26.3988  -22.9836 H   0  0  0  0  0  0  0  0  0  0  0  0
    0.2981   27.7914  -22.2513 H   0  0  0  0  0  0  0  0  0  0  0  0
   -1.1472   25.7667  -22.5941 H   0  0  0  0  0  0  0  0  0  0  0  0
   -1.7072   27.2327  -23.5081 H   0  0  0  0  0  0  0  0  0  0  0  0
   -2.1203   24.6608  -26.5145 H   0  0  0  0  0  0  0  0  0  0  0  0
   -5.7435   25.6169  -31.8161 H   0  0  0  0  0  0  0  0  0  0  0  0
   -7.4161   23.9646  -32.6294 H   0  0  0  0  0  0  0  0  0  0  0  0
   -9.1756   21.6902  -30.7594 H   0  0  0  0  0  0  0  0  0  0  0  0
   -9.1778   22.6076  -32.3038 H   0  0  0  0  0  0  0  0  0  0  0  0
   -9.5393   20.8480  -32.3038 H   0  0  0  0  0  0  0  0  0  0  0  0
   -8.7707   19.2013  -32.7034 H   0  0  0  0  0  0  0  0  0  0  0  0
   -7.4200   16.8048  -33.5315 H   0  0  0  0  0  0  0  0  0  0  0  0
   -6.0775   17.5524  -33.7760 H   0  0  0  0  0  0  0  0  0  0  0  0
   -7.6341   17.2345  -30.9587 H   0  0  0  0  0  0  0  0  0  0  0  0
   -6.3290   18.0567  -30.7559 H   0  0  0  0  0  0  0  0  0  0  0  0
   -5.4478   20.8432  -30.3675 H   0  0  0  0  0  0  0  0  0  0  0  0
  1  2  1  0
  2  3  2  0
  3  4  1  0
  4  5  2  0
  5  6  1  0
  6  7  2  0
  7  8  1  0
  8  9  1  0
  9 10  1  0
 10 11  1  0
 11 12  1  0
 12 13  1  0
 13 14  1  0
 14 15  1  0
  8 16  2  0
  3 17  1  0
 17 18  2  0
 17 19  1  0
 19 20  1  0
 20 21  2  0
 21 22  1  0
 22 23  2  0
 23 24  1  0
 24 25  1  0
 24 26  1  0
 26 27  2  0
 26 28  1  0
 28 29  1  0
 29 30  1  0
 23 31  1  0
 31 32  2  0
 32  2  1  0
 16  4  1  0
 32 20  1  0
 15 10  1  0
 30 28  1  0
  1 33  1  0
  1 34  1  0
  1 35  1  0
  5 36  1  0
  6 37  1  0
  7 38  1  0
  9 39  1  0
  9 40  1  0
 11 41  1  0
 11 42  1  0
 12 43  1  0
 12 44  1  0
 14 45  1  0
 14 46  1  0
 15 47  1  0
 15 48  1  0
 16 49  1  0
 21 50  1  0
 22 51  1  0
 25 52  1  0
 25 53  1  0
 25 54  1  0
 28 55  1  0
 29 56  1  0
 29 57  1  0
 30 58  1  0
 30 59  1  0
 31 60  1  0
M  CHG  1  19  -1
M  END
>  <UniqueID>  (18) 
18

>  <SMILES>  (18) 
Cc1c(-c2cccc(CN3CCOCC3)c2)c(=O)[n-]c2ccc(N(C)C(=O)C3CC3)cc12

>  <Energy>  (18) 
352.8828260535283

>  <Genealogy>  (18) 
Cc1c(-c2cccc(CN3CCOCC3)c2)c(=O)[n-]c2ccc(N(C)C(=O)C3CC3)cc12 (protonated)
Cc1c(-c2cccc(CN3CCOCC3)c2)c(=O)[n-]c2ccc(N(C)C(=O)C3CC3)cc12 (3D coordinates assigned)
Cc1c(-c2cccc(CN3CCOCC3)c2)c(=O)[n-]c2ccc(N(C)C(=O)C3CC3)cc12 (nonaromatic ring conformer: 352.8828260535283 kcal/mol)

>  <smiles>  (18) 
Cc1c(-c2cccc(CN3CCOCC3)c2)c(=O)[nH]c2ccc(N(C)C(=O)C3CC3)cc12

>  <score_type>  (18) 
oracle

>  <origin>  (18) 
adg

>  <m_score__min__energy>  (18) 
-11.42

>  <m_primary>  (18) 
energy

$$$$
18:0
     RDKit          3D

 63 66  0  0  0  0  0  0  0  0999 V2000
   -1.7010   25.0580  -28.1510 C   0  0  0  0  0  0  0  0  0  0  0  0
   -2.4290   25.2920  -29.3520 O   0  0  0  0  0  0  0  0  0  0  0  0
   -3.4600   24.4690  -29.8270 C   0  0  0  0  0  0  0  0  0  0  0  0
   -3.3530   23.0650  -29.8510 C   0  0  0  0  0  0  0  0  0  0  0  0
   -4.4140   22.2860  -30.3210 C   0  0  0  0  0  0  0  0  0  0  0  0
   -5.5960   22.8900  -30.7820 C   0  0  0  0  0  0  0  0  0  0  0  0
   -6.7230   22.0550  -31.2710 C   0  0  0  0  0  0  0  0  0  0  0  0
   -8.0160   22.2430  -30.7730 C   0  0  0  0  0  0  0  0  0  0  0  0
   -9.0430   21.4180  -31.2130 C   0  0  0  0  0  0  0  0  0  0  0  0
   -8.7640   20.4010  -32.1220 C   0  0  0  0  0  0  0  0  0  0  0  0
   -9.6950   19.6350  -32.4900 O   0  0  0  0  0  0  0  0  0  0  0  0
   -7.4830   20.2360  -32.5870 N   0  0  0  0  0  0  0  0  0  0  0  0
   -7.1260   19.0940  -33.4500 C   0  0  0  0  0  0  0  0  0  0  0  0
   -7.3010   17.7640  -32.6980 C   0  0  0  0  0  0  0  0  0  0  0  0
   -5.9510   17.0920  -32.3990 C   0  0  0  0  0  0  0  0  0  0  0  0
   -5.4230   16.3460  -33.5680 N   0  0  0  0  0  0  0  0  0  0  0  0
   -4.1970   15.6110  -33.2330 C   0  0  0  0  0  0  0  0  0  0  0  0
   -3.0440   16.5430  -32.8190 C   0  0  0  0  0  0  0  0  0  0  0  0
   -2.9990   17.8530  -33.5170 N   0  0  0  0  0  0  0  0  0  0  0  0
   -1.9500   18.8140  -33.1280 C   0  0  0  0  0  0  0  0  0  0  0  0
   -0.6000   18.3790  -33.0250 C   0  0  0  0  0  0  0  0  0  0  0  0
    0.4220   19.2380  -32.6270 C   0  0  0  0  0  0  0  0  0  0  0  0
    0.1440   20.5590  -32.3180 C   0  0  0  0  0  0  0  0  0  0  0  0
   -1.1580   21.0350  -32.4170 C   0  0  0  0  0  0  0  0  0  0  0  0
   -2.2160   20.1930  -32.8260 C   0  0  0  0  0  0  0  0  0  0  0  0
   -3.5120   20.7200  -32.9400 O   0  0  0  0  0  0  0  0  0  0  0  0
   -3.8390   22.0100  -33.4470 C   0  0  0  0  0  0  0  0  0  0  0  0
   -4.0570   18.2480  -34.4750 C   0  0  0  0  0  0  0  0  0  0  0  0
   -5.1340   17.1850  -34.7400 C   0  0  0  0  0  0  0  0  0  0  0  0
   -6.5060   21.0630  -32.1850 N   0  0  0  0  0  0  0  0  0  0  0  0
   -5.6930   24.2930  -30.7640 C   0  0  0  0  0  0  0  0  0  0  0  0
   -4.6340   25.0710  -30.2900 C   0  0  0  0  0  0  0  0  0  0  0  0
   -2.3464   25.2654  -27.2847 H   0  0  0  0  0  0  0  0  0  0  0  0
   -1.3719   24.0088  -28.1202 H   0  0  0  0  0  0  0  0  0  0  0  0
   -0.8223   25.7189  -28.1202 H   0  0  0  0  0  0  0  0  0  0  0  0
   -2.4309   22.5796  -29.4985 H   0  0  0  0  0  0  0  0  0  0  0  0
   -4.3229   21.1898  -30.3301 H   0  0  0  0  0  0  0  0  0  0  0  0
   -8.2180   23.0373  -30.0393 H   0  0  0  0  0  0  0  0  0  0  0  0
  -10.0692   21.5670  -30.8460 H   0  0  0  0  0  0  0  0  0  0  0  0
   -7.7769   19.0950  -34.3367 H   0  0  0  0  0  0  0  0  0  0  0  0
   -6.0719   19.1939  -33.7480 H   0  0  0  0  0  0  0  0  0  0  0  0
   -7.8196   17.9585  -31.7476 H   0  0  0  0  0  0  0  0  0  0  0  0
   -7.8851   17.0855  -33.3371 H   0  0  0  0  0  0  0  0  0  0  0  0
   -5.2242   17.8680  -32.1167 H   0  0  0  0  0  0  0  0  0  0  0  0
   -6.1068   16.3719  -31.5822 H   0  0  0  0  0  0  0  0  0  0  0  0
   -4.4131   14.9260  -32.3999 H   0  0  0  0  0  0  0  0  0  0  0  0
   -3.8783   15.0656  -34.1335 H   0  0  0  0  0  0  0  0  0  0  0  0
   -3.1356   16.7368  -31.7401 H   0  0  0  0  0  0  0  0  0  0  0  0
   -2.1176   16.0199  -33.0984 H   0  0  0  0  0  0  0  0  0  0  0  0
   -0.3557   17.3340  -33.2666 H   0  0  0  0  0  0  0  0  0  0  0  0
    1.4546   18.8652  -32.5579 H   0  0  0  0  0  0  0  0  0  0  0  0
    0.9528   21.2308  -31.9946 H   0  0  0  0  0  0  0  0  0  0  0  0
   -1.3685   22.0866  -32.1724 H   0  0  0  0  0  0  0  0  0  0  0  0
   -4.0139   22.7000  -32.6084 H   0  0  0  0  0  0  0  0  0  0  0  0
   -3.0072   22.3839  -34.0621 H   0  0  0  0  0  0  0  0  0  0  0  0
   -4.7484   21.9425  -34.0621 H   0  0  0  0  0  0  0  0  0  0  0  0
   -4.5554   19.1453  -34.0796 H   0  0  0  0  0  0  0  0  0  0  0  0
   -3.5496   18.4128  -35.4370 H   0  0  0  0  0  0  0  0  0  0  0  0
   -6.0609   17.6946  -35.0418 H   0  0  0  0  0  0  0  0  0  0  0  0
   -4.7502   16.5217  -35.5291 H   0  0  0  0  0  0  0  0  0  0  0  0
   -5.5430   20.9410  -32.5750 H   0  0  0  0  0  0  0  0  0  0  0  0
   -6.6098   24.7814  -31.1259 H   0  0  0  0  0  0  0  0  0  0  0  0
   -4.7245   26.1672  -30.2809 H   0  0  0  0  0  0  0  0  0  0  0  0
  1  2  1  0
  2  3  1  0
  3  4  2  0
  4  5  1  0
  5  6  2  0
  6  7  1  0
  7  8  1  0
  8  9  2  0
  9 10  1  0
 10 11  2  0
 10 12  1  0
 12 13  1  0
 13 14  1  0
 14 15  1  0
 15 16  1  0
 16 17  1  0
 17 18  1  0
 18 19  1  0
 19 20  1  0
 20 21  2  0
 21 22  1  0
 22 23  2  0
 23 24  1  0
 24 25  2  0
 25 26  1  0
 26 27  1  0
 19 28  1  0
 28 29  1  0
 12 30  1  0
  6 31  1  0
 31 32  2  0
 32  3  1  0
 30  7  2  0
 29 16  1  0
 25 20  1  0
  1 33  1  0
  1 34  1  0
  1 35  1  0
  4 36  1  0
  5 37  1  0
  8 38  1  0
  9 39  1  0
 13 40  1  0
 13 41  1  0
 14 42  1  0
 14 43  1  0
 15 44  1  0
 15 45  1  0
 17 46  1  0
 17 47  1  0
 18 48  1  0
 18 49  1  0
 21 50  1  0
 22 51  1  0
 23 52  1  0
 24 53  1  0
 27 54  1  0
 27 55  1  0
 27 56  1  0
 28 57  1  0
 28 58  1  0
 29 59  1  0
 29 60  1  0
 30 61  1  0
 31 62  1  0
 32 63  1  0
M  CHG  1  30   1
M  END
>  <UniqueID>  (19) 
19

>  <SMILES>  (19) 
COc1ccc(-c2ccc(=O)n(CCCN3CCN(c4ccccc4OC)CC3)[nH+]2)cc1

>  <Energy>  (19) 
82.7705448573742

>  <Genealogy>  (19) 
COc1ccc(-c2ccc(=O)n(CCCN3CCN(c4ccccc4OC)CC3)[nH+]2)cc1 (protonated)
COc1ccc(-c2ccc(=O)n(CCCN3CCN(c4ccccc4OC)CC3)[nH+]2)cc1 (3D coordinates assigned)
COc1ccc(-c2ccc(=O)n(CCCN3CCN(c4ccccc4OC)CC3)[nH+]2)cc1 (nonaromatic ring conformer: 82.7705448573742 kcal/mol)

>  <smiles>  (19) 
COc1ccc(-c2ccc(=O)n(CCCN3CCN(c4ccccc4OC)CC3)n2)cc1

>  <score_type>  (19) 
oracle

>  <origin>  (19) 
adg

>  <m_score__min__energy>  (19) 
-8.8300000000000001

>  <m_primary>  (19) 
energy

$$$$
19:0
     RDKit          3D

 43 45  0  0  0  0  0  0  0  0999 V2000
   -6.7100   18.8080  -33.0620 C   0  0  0  0  0  0  0  0  0  0  0  0
   -7.4520   20.0340  -32.6040 C   0  0  0  0  0  0  0  0  0  0  0  0
   -8.8300   19.9540  -32.3540 C   0  0  0  0  0  0  0  0  0  0  0  0
   -9.5370   21.0760  -31.9260 C   0  0  0  0  0  0  0  0  0  0  0  0
   -8.8790   22.2920  -31.7450 C   0  0  0  0  0  0  0  0  0  0  0  0
   -7.5000   22.4030  -31.9900 C   0  0  0  0  0  0  0  0  0  0  0  0
   -6.8260   23.7510  -31.8080 C   0  0  0  0  0  0  0  0  0  0  0  0
   -6.4670   24.0110  -30.3900 N   0  0  0  0  0  0  0  0  0  0  0  0
   -6.0040   22.7640  -29.7120 C   0  0  0  0  0  0  0  0  0  0  0  0
   -4.9640   23.0310  -28.6210 C   0  0  0  0  0  0  0  0  0  0  0  0
   -3.8140   23.7090  -29.2230 N   0  0  0  0  0  0  0  0  0  0  0  0
   -2.4770   23.3860  -28.8130 C   0  0  0  0  0  0  0  0  0  0  0  0
   -2.1370   22.0600  -28.5050 C   0  0  0  0  0  0  0  0  0  0  0  0
   -0.8360   21.7410  -28.1040 C   0  0  0  0  0  0  0  0  0  0  0  0
    0.1320   22.7440  -28.0050 C   0  0  0  0  0  0  0  0  0  0  0  0
   -0.2010   24.0690  -28.3040 C   0  0  0  0  0  0  0  0  0  0  0  0
   -1.5010   24.3930  -28.7060 C   0  0  0  0  0  0  0  0  0  0  0  0
   -1.8160   25.6860  -28.9660 F   0  0  0  0  0  0  0  0  0  0  0  0
   -4.0380   24.7020  -30.2780 C   0  0  0  0  0  0  0  0  0  0  0  0
   -5.5080   25.1490  -30.2910 C   0  0  0  0  0  0  0  0  0  0  0  0
   -6.7800   21.2630  -32.4200 C   0  0  0  0  0  0  0  0  0  0  0  0
   -5.0370   21.3610  -32.7170 Cl  0  0  0  0  0  0  0  0  0  0  0  0
   -6.3657   18.2391  -32.1858 H   0  0  0  0  0  0  0  0  0  0  0  0
   -7.3793   18.1792  -33.6676 H   0  0  0  0  0  0  0  0  0  0  0  0
   -5.8425   19.1093  -33.6676 H   0  0  0  0  0  0  0  0  0  0  0  0
   -9.3563   18.9987  -32.4968 H   0  0  0  0  0  0  0  0  0  0  0  0
  -10.6170   21.0022  -31.7304 H   0  0  0  0  0  0  0  0  0  0  0  0
   -9.4449   23.1727  -31.4072 H   0  0  0  0  0  0  0  0  0  0  0  0
   -5.9093   23.7738  -32.4156 H   0  0  0  0  0  0  0  0  0  0  0  0
   -7.5355   24.5294  -32.1253 H   0  0  0  0  0  0  0  0  0  0  0  0
   -7.3380   24.3230  -29.8980 H   0  0  0  0  0  0  0  0  0  0  0  0
   -6.8736   22.2694  -29.2547 H   0  0  0  0  0  0  0  0  0  0  0  0
   -5.5275   22.1306  -30.4748 H   0  0  0  0  0  0  0  0  0  0  0  0
   -5.4027   23.6694  -27.8400 H   0  0  0  0  0  0  0  0  0  0  0  0
   -4.6437   22.0809  -28.1685 H   0  0  0  0  0  0  0  0  0  0  0  0
   -2.8970   21.2682  -28.5793 H   0  0  0  0  0  0  0  0  0  0  0  0
   -0.5742   20.6994  -27.8662 H   0  0  0  0  0  0  0  0  0  0  0  0
    1.1558   22.4914  -27.6919 H   0  0  0  0  0  0  0  0  0  0  0  0
    0.5611   24.8581  -28.2229 H   0  0  0  0  0  0  0  0  0  0  0  0
   -3.3953   25.5758  -30.0954 H   0  0  0  0  0  0  0  0  0  0  0  0
   -3.7945   24.2496  -31.2507 H   0  0  0  0  0  0  0  0  0  0  0  0
   -5.7141   25.7001  -29.3616 H   0  0  0  0  0  0  0  0  0  0  0  0
   -5.6513   25.7760  -31.1834 H   0  0  0  0  0  0  0  0  0  0  0  0
  1  2  1  0
  2  3  2  0
  3  4  1  0
  4  5  2  0
  5  6  1  0
  6  7  1  0
  7  8  1  0
  8  9  1  0
  9 10  1  0
 10 11  1  0
 11 12  1  0
 12 13  2  0
 13 14  1  0
 14 15  2  0
 15 16  1  0
 16 17  2  0
 17 18  1  0
 11 19  1  0
 19 20  1  0
  6 21  2  0
 21 22  1  0
 21  2  1  0
 20  8  1  0
 17 12  1  0
  1 23  1  0
  1 24  1  0
  1 25  1  0
  3 26  1  0
  4 27  1  0
  5 28  1  0
  7 29  1  0
  7 30  1  0
  8 31  1  0
  9 32  1  0
  9 33  1  0
 10 34  1  0
 10 35  1  0
 13 36  1  0
 14 37  1  0
 15 38  1  0
 16 39  1  0
 19 40  1  0
 19 41  1  0
 20 42  1  0
 20 43  1  0
M  CHG  1   8   1
M  END
>  <UniqueID>  (20) 
20

>  <SMILES>  (20) 
Cc1cccc(C[NH+]2CCN(c3ccccc3F)CC2)c1Cl

>  <Energy>  (20) 
60.50644460417972

>  <Genealogy>  (20) 
Cc1cccc(C[NH+]2CCN(c3ccccc3F)CC2)c1Cl (protonated)
Cc1cccc(C[NH+]2CCN(c3ccccc3F)CC2)c1Cl (3D coordinates assigned)
Cc1cccc(C[NH+]2CCN(c3ccccc3F)CC2)c1Cl (nonaromatic ring conformer: 60.50644460417972 kcal/mol)

>  <smiles>  (20) 
Cc1cccc(CN2CCN(c3ccccc3F)CC2)c1Cl

>  <score_type>  (20) 
oracle

>  <origin>  (20) 
adg

>  <m_score__min__energy>  (20) 
-7.0499999999999998

>  <m_primary>  (20) 
energy

$$$$
20:0
     RDKit          3D

 31 32  0  0  0  0  0  0  0  0999 V2000
   -5.0970   15.2080  -33.7300 F   0  0  0  0  0  0  0  0  0  0  0  0
   -6.0070   16.1940  -34.0650 C   0  0  0  0  0  0  0  0  0  0  0  0
   -7.1640   15.6060  -34.5390 F   0  0  0  0  0  0  0  0  0  0  0  0
   -5.4580   16.9610  -35.0780 F   0  0  0  0  0  0  0  0  0  0  0  0
   -6.2940   17.1010  -32.8540 C   0  0  0  0  0  0  0  0  0  0  0  0
   -6.8840   18.4150  -33.2000 N   0  0  0  0  0  0  0  0  0  0  0  0
   -8.2820   18.6130  -32.7280 C   0  0  0  0  0  0  0  0  0  0  0  0
   -8.7580   20.0750  -32.6240 C   0  0  0  0  0  0  0  0  0  0  0  0
   -8.2370   20.7860  -31.3680 C   0  0  0  0  0  0  0  0  0  0  0  0
   -6.8350   21.1810  -31.5390 N   0  0  0  0  0  0  0  0  0  0  0  0
   -6.4190   22.5410  -31.2910 C   0  0  0  0  0  0  0  0  0  0  0  0
   -5.9510   23.3830  -32.2420 N   0  0  0  0  0  0  0  0  0  0  0  0
   -5.6400   24.5940  -31.7840 N   0  0  0  0  0  0  0  0  0  0  0  0
   -5.8610   24.7420  -30.4590 C   0  0  0  0  0  0  0  0  0  0  0  0
   -6.4670   23.3180  -29.7930 S   0  0  0  0  0  0  0  0  0  0  0  0
   -5.8390   20.1190  -31.7110 C   0  0  0  0  0  0  0  0  0  0  0  0
   -5.9320   19.5430  -33.1280 C   0  0  0  0  0  0  0  0  0  0  0  0
   -6.9933   16.5745  -32.1879 H   0  0  0  0  0  0  0  0  0  0  0  0
   -5.3234   17.3078  -32.3795 H   0  0  0  0  0  0  0  0  0  0  0  0
   -8.9508   18.0900  -33.4274 H   0  0  0  0  0  0  0  0  0  0  0  0
   -8.3077   18.2185  -31.7015 H   0  0  0  0  0  0  0  0  0  0  0  0
   -8.4039   20.6230  -33.5096 H   0  0  0  0  0  0  0  0  0  0  0  0
   -9.8562   20.0605  -32.5628 H   0  0  0  0  0  0  0  0  0  0  0  0
   -8.8450   21.6839  -31.1831 H   0  0  0  0  0  0  0  0  0  0  0  0
   -8.3078   20.0945  -30.5155 H   0  0  0  0  0  0  0  0  0  0  0  0
   -5.8150   23.1280  -33.2440 H   0  0  0  0  0  0  0  0  0  0  0  0
   -5.6712   25.6658  -29.8928 H   0  0  0  0  0  0  0  0  0  0  0  0
   -4.8326   20.5331  -31.5507 H   0  0  0  0  0  0  0  0  0  0  0  0
   -6.0320   19.3191  -30.9810 H   0  0  0  0  0  0  0  0  0  0  0  0
   -6.2665   20.3357  -33.8134 H   0  0  0  0  0  0  0  0  0  0  0  0
   -4.9369   19.1695  -33.4115 H   0  0  0  0  0  0  0  0  0  0  0  0
  1  2  1  0
  2  3  1  0
  2  4  1  0
  2  5  1  0
  5  6  1  0
  6  7  1  0
  7  8  1  0
  8  9  1  0
  9 10  1  0
 10 11  1  0
 11 12  2  0
 12 13  1  0
 13 14  2  0
 14 15  1  0
 10 16  1  0
 16 17  1  0
 17  6  1  0
 15 11  1  0
  5 18  1  0
  5 19  1  0
  7 20  1  0
  7 21  1  0
  8 22  1  0
  8 23  1  0
  9 24  1  0
  9 25  1  0
 12 26  1  0
 14 27  1  0
 16 28  1  0
 16 29  1  0
 17 30  1  0
 17 31  1  0
M  CHG  1  12   1
M  END
>  <UniqueID>  (21) 
21

>  <SMILES>  (21) 
FC(F)(F)CN1CCCN(c2[nH+]ncs2)CC1

>  <Energy>  (21) 
77.9466344928993

>  <Genealogy>  (21) 
FC(F)(F)CN1CCCN(c2[nH+]ncs2)CC1 (protonated)
FC(F)(F)CN1CCCN(c2[nH+]ncs2)CC1 (3D coordinates assigned)
FC(F)(F)CN1CCCN(c2[nH+]ncs2)CC1 (nonaromatic ring conformer: 77.9466344928993 kcal/mol)

>  <smiles>  (21) 
FC(F)(F)CN1CCCN(c2nncs2)CC1

>  <score_type>  (21) 
oracle

>  <origin>  (21) 
adg

>  <m_score__min__energy>  (21) 
-3.5

>  <m_primary>  (21) 
energy

$$$$
21:0
     RDKit          3D

 42 44  0  0  0  0  0  0  0  0999 V2000
   -7.2852   17.0400  -31.1536 H   0  0  0  0  0  0  0  0  0  0  0  0
   -7.2150   17.8210  -31.9250 C   0  0  0  0  0  0  0  0  0  0  0  0
   -6.3780   17.8155  -32.6387 H   0  0  0  0  0  0  0  0  0  0  0  0
   -8.1460   18.7760  -31.9950 C   0  0  0  0  0  0  0  0  0  0  0  0
   -8.9762   18.7666  -31.2734 H   0  0  0  0  0  0  0  0  0  0  0  0
   -8.0920   19.8640  -33.0320 C   0  0  0  0  0  0  0  0  0  0  0  0
   -7.6373   19.4677  -33.9519 H   0  0  0  0  0  0  0  0  0  0  0  0
   -9.1138   20.2139  -33.2404 H   0  0  0  0  0  0  0  0  0  0  0  0
   -7.2880   20.9920  -32.5390 N   0  0  0  0  0  0  0  0  0  0  0  0
   -7.7640   22.0850  -31.8980 C   0  0  0  0  0  0  0  0  0  0  0  0
   -9.2130   22.3660  -31.6330 C   0  0  0  0  0  0  0  0  0  0  0  0
   -9.3874   22.3998  -30.5474 H   0  0  0  0  0  0  0  0  0  0  0  0
   -9.4863   23.3339  -32.0786 H   0  0  0  0  0  0  0  0  0  0  0  0
   -9.8282   21.5704  -32.0786 H   0  0  0  0  0  0  0  0  0  0  0  0
   -6.7310   22.9300  -31.5470 C   0  0  0  0  0  0  0  0  0  0  0  0
   -6.8201   23.8975  -31.0313 H   0  0  0  0  0  0  0  0  0  0  0  0
   -5.5580   22.3220  -31.9710 C   0  0  0  0  0  0  0  0  0  0  0  0
   -4.3140   22.8260  -31.8570 C   0  0  0  0  0  0  0  0  0  0  0  0
   -3.7139   22.9357  -32.7723 H   0  0  0  0  0  0  0  0  0  0  0  0
   -3.7100   23.2390  -30.5780 C   0  0  0  0  0  0  0  0  0  0  0  0
   -3.3010   22.1770  -29.3360 S   0  0  0  0  0  0  0  0  0  0  0  0
   -2.8300   23.4170  -28.2890 C   0  0  0  0  0  0  0  0  0  0  0  0
   -2.4140   23.2750  -27.0620 N   0  0  0  0  0  0  0  0  0  0  0  0
   -1.7310   24.2600  -26.2730 C   0  0  0  0  0  0  0  0  0  0  0  0
   -2.3070   25.5140  -25.9940 C   0  0  0  0  0  0  0  0  0  0  0  0
   -3.2907   25.7709  -26.4139 H   0  0  0  0  0  0  0  0  0  0  0  0
   -1.6330   26.4340  -25.1850 C   0  0  0  0  0  0  0  0  0  0  0  0
   -2.0805   27.4182  -24.9821 H   0  0  0  0  0  0  0  0  0  0  0  0
   -0.3920   26.1050  -24.6340 C   0  0  0  0  0  0  0  0  0  0  0  0
    0.5260   27.3620  -23.5270 Br  0  0  0  0  0  0  0  0  0  0  0  0
    0.1690   24.8480  -24.8800 C   0  0  0  0  0  0  0  0  0  0  0  0
    1.1413   24.5847  -24.4381 H   0  0  0  0  0  0  0  0  0  0  0  0
   -0.5040   23.9250  -25.6870 C   0  0  0  0  0  0  0  0  0  0  0  0
   -0.0673   22.9308  -25.8623 H   0  0  0  0  0  0  0  0  0  0  0  0
   -3.0170   24.6300  -28.8520 N   0  0  0  0  0  0  0  0  0  0  0  0
   -2.8280   25.5350  -28.3660 H   0  0  0  0  0  0  0  0  0  0  0  0
   -3.5170   24.5410  -30.1120 C   0  0  0  0  0  0  0  0  0  0  0  0
   -3.8490   25.6740  -30.8470 O   0  0  0  0  0  0  0  0  0  0  0  0
   -5.9360   21.1230  -32.5810 C   0  0  0  0  0  0  0  0  0  0  0  0
   -5.1070   20.2120  -33.1170 C   0  0  0  0  0  0  0  0  0  0  0  0
   -5.5152   19.2984  -33.5740 H   0  0  0  0  0  0  0  0  0  0  0  0
   -4.0200   20.3796  -33.0989 H   0  0  0  0  0  0  0  0  0  0  0  0
  1  2  1  0
  2  3  1  0
  2  4  2  0
  4  5  1  0
  4  6  1  0
  6  7  1  0
  6  8  1  0
  6  9  1  0
  9 10  1  0
 10 11  1  0
 11 12  1  0
 11 13  1  0
 11 14  1  0
 10 15  2  0
 15 16  1  0
 15 17  1  0
 17 18  2  0
 18 19  1  0
 18 20  1  0
 20 21  1  0
 21 22  1  0
 22 23  2  3
 23 24  1  0
 24 25  2  0
 25 26  1  0
 25 27  1  0
 27 28  1  0
 27 29  2  0
 29 30  1  0
 29 31  1  0
 31 32  1  0
 31 33  2  0
 33 34  1  0
 22 35  1  0
 35 36  1  0
 35 37  1  0
 37 38  1  0
 17 39  1  0
 39 40  2  0
 40 41  1  0
 40 42  1  0
 39  9  1  0
 37 20  2  0
 33 24  1  0
M  CHG  1  38  -1
M  END
>  <UniqueID>  (22) 
22

>  <SMILES>  (22) 
C=CCn1c(C)c/c(=C\c2sc(=Nc3ccc(Br)cc3)[nH]c2[O-])c1=C

>  <Energy>  (22) 
114.313582046513

>  <Genealogy>  (22) 
C=CCn1c(C)cc(=Cc2sc(=Nc3ccc(Br)cc3)[nH]c2[O-])c1=C (protonated)
C=CCn1c(C)c/c(=C\c2sc(=Nc3ccc(Br)cc3)[nH]c2[O-])c1=C (cis-trans isomerization)
C=CCn1c(C)c/c(=C\c2sc(=Nc3ccc(Br)cc3)[nH]c2[O-])c1=C (3D coordinates assigned)
C=CCn1c(C)c/c(=C\c2sc(=Nc3ccc(Br)cc3)[nH]c2[O-])c1=C (optimized conformer: 114.313582046513 kcal/mol)

>  <smiles>  (22) 
C=CCn1c(C)cc(=Cc2sc(=Nc3ccc(Br)cc3)[nH]c2O)c1=C

>  <score_type>  (22) 
oracle

>  <origin>  (22) 
adg

>  <m_score__min__energy>  (22) 
-11.98

>  <m_primary>  (22) 
energy

$$$$
22:0
     RDKit          3D

 70 71  0  0  0  0  0  0  0  0999 V2000
   -0.0300   21.1310  -33.6200 C   0  0  0  0  0  0  0  0  0  0  0  0
    0.0510   20.2530  -32.3720 C   0  0  0  0  0  0  0  0  0  0  0  0
   -0.4620   20.9300  -31.1530 N   0  0  0  0  0  0  0  0  0  0  0  0
    0.1400   20.2810  -29.9610 C   0  0  0  0  0  0  0  0  0  0  0  0
   -0.8900   20.0770  -28.8560 C   0  0  0  0  0  0  0  0  0  0  0  0
   -1.9480   20.8820  -31.0800 C   0  0  0  0  0  0  0  0  0  0  0  0
   -2.6090   22.0530  -31.8440 C   0  0  0  0  0  0  0  0  0  0  0  0
   -4.0720   22.1720  -31.6030 N   0  0  2  0  0  0  0  0  0  0  0  0
   -4.3980   22.2810  -30.1570 C   0  0  0  0  0  0  0  0  0  0  0  0
   -3.4670   23.1930  -29.3760 C   0  0  0  0  0  0  0  0  0  0  0  0
   -2.8430   22.7200  -28.2120 C   0  0  0  0  0  0  0  0  0  0  0  0
   -1.9510   23.5340  -27.5050 C   0  0  0  0  0  0  0  0  0  0  0  0
   -1.2840   23.0540  -26.3690 C   0  0  0  0  0  0  0  0  0  0  0  0
   -0.3880   23.8790  -25.6760 C   0  0  0  0  0  0  0  0  0  0  0  0
    0.3710   23.3450  -24.4980 C   0  0  0  0  0  0  0  0  0  0  0  0
   -0.1460   25.1820  -26.1350 C   0  0  0  0  0  0  0  0  0  0  0  0
   -0.8150   25.6800  -27.2640 C   0  0  0  0  0  0  0  0  0  0  0  0
   -0.5360   27.0770  -27.7470 C   0  0  0  0  0  0  0  0  0  0  0  0
   -1.7150   24.8490  -27.9580 C   0  0  0  0  0  0  0  0  0  0  0  0
   -2.3570   25.2990  -29.0690 N   0  0  0  0  0  0  0  0  0  0  0  0
   -3.2180   24.5220  -29.7770 C   0  0  0  0  0  0  0  0  0  0  0  0
   -3.7910   25.0080  -30.7880 O   0  0  0  0  0  0  0  0  0  0  0  0
   -4.8890   21.1480  -32.2410 C   0  0  0  0  0  0  0  0  0  0  0  0
   -4.3080   20.2150  -33.4760 S   0  0  0  0  0  0  0  0  0  0  0  0
   -6.1620   20.8180  -31.6490 N   0  0  0  0  0  0  0  0  0  0  0  0
   -6.8360   19.5360  -31.8720 C   0  0  0  0  0  0  0  0  0  0  0  0
   -8.0120   19.6700  -32.8540 C   0  0  0  0  0  0  0  0  0  0  0  0
   -9.1650   20.5210  -32.2980 C   0  0  0  0  0  0  0  0  0  0  0  0
   -8.6880   21.5430  -31.3440 N   0  0  0  0  0  0  0  0  0  0  0  0
   -9.5070   21.5510  -30.1200 C   0  0  0  0  0  0  0  0  0  0  0  0
   -8.7400   22.8750  -31.9690 C   0  0  0  0  0  0  0  0  0  0  0  0
   -0.1272   22.1851  -33.3210 H   0  0  0  0  0  0  0  0  0  0  0  0
    0.8838   21.0025  -34.2187 H   0  0  0  0  0  0  0  0  0  0  0  0
   -0.9049   20.8375  -34.2187 H   0  0  0  0  0  0  0  0  0  0  0  0
   -0.5428   19.3432  -32.5441 H   0  0  0  0  0  0  0  0  0  0  0  0
    1.1127   20.0231  -32.1992 H   0  0  0  0  0  0  0  0  0  0  0  0
    0.5479   19.3025  -30.2545 H   0  0  0  0  0  0  0  0  0  0  0  0
    0.9346   20.9367  -29.5754 H   0  0  0  0  0  0  0  0  0  0  0  0
   -0.4003   20.1740  -27.8758 H   0  0  0  0  0  0  0  0  0  0  0  0
   -1.6810   20.8359  -28.9474 H   0  0  0  0  0  0  0  0  0  0  0  0
   -1.3320   19.0739  -28.9474 H   0  0  0  0  0  0  0  0  0  0  0  0
   -2.2936   19.9337  -31.5174 H   0  0  0  0  0  0  0  0  0  0  0  0
   -2.2367   20.9637  -30.0217 H   0  0  0  0  0  0  0  0  0  0  0  0
   -2.1273   22.9901  -31.5280 H   0  0  0  0  0  0  0  0  0  0  0  0
   -2.4744   21.8541  -32.9175 H   0  0  0  0  0  0  0  0  0  0  0  0
   -4.3660   23.0890  -32.0150 H   0  0  0  0  0  0  0  0  0  0  0  0
   -5.4222   22.6710  -30.0627 H   0  0  0  0  0  0  0  0  0  0  0  0
   -4.2848   21.2734  -29.7305 H   0  0  0  0  0  0  0  0  0  0  0  0
   -3.0563   21.7025  -27.8527 H   0  0  0  0  0  0  0  0  0  0  0  0
   -1.4646   22.0264  -26.0206 H   0  0  0  0  0  0  0  0  0  0  0  0
   -0.1097   23.6832  -23.5682 H   0  0  0  0  0  0  0  0  0  0  0  0
    0.3729   22.2455  -24.5309 H   0  0  0  0  0  0  0  0  0  0  0  0
    1.4065   23.7146  -24.5309 H   0  0  0  0  0  0  0  0  0  0  0  0
    0.5758   25.8205  -25.6046 H   0  0  0  0  0  0  0  0  0  0  0  0
   -0.4028   27.7441  -26.8826 H   0  0  0  0  0  0  0  0  0  0  0  0
    0.3802   27.0784  -28.3558 H   0  0  0  0  0  0  0  0  0  0  0  0
   -1.3814   27.4301  -28.3558 H   0  0  0  0  0  0  0  0  0  0  0  0
   -6.5520   21.4850  -30.9460 H   0  0  0  0  0  0  0  0  0  0  0  0
   -6.1098   18.8190  -32.2825 H   0  0  0  0  0  0  0  0  0  0  0  0
   -7.2348   19.1881  -30.9077 H   0  0  0  0  0  0  0  0  0  0  0  0
   -7.6447   20.1388  -33.7788 H   0  0  0  0  0  0  0  0  0  0  0  0
   -8.4066   18.6592  -33.0346 H   0  0  0  0  0  0  0  0  0  0  0  0
   -9.6703   21.0249  -33.1351 H   0  0  0  0  0  0  0  0  0  0  0  0
   -9.8541   19.8514  -31.7624 H   0  0  0  0  0  0  0  0  0  0  0  0
   -8.8490   21.5446  -29.2385 H   0  0  0  0  0  0  0  0  0  0  0  0
  -10.1331   22.4553  -30.1036 H   0  0  0  0  0  0  0  0  0  0  0  0
  -10.1506   20.6591  -30.1036 H   0  0  0  0  0  0  0  0  0  0  0  0
   -8.7701   23.6467  -31.1857 H   0  0  0  0  0  0  0  0  0  0  0  0
   -7.8469   23.0218  -32.5942 H   0  0  0  0  0  0  0  0  0  0  0  0
   -9.6418   22.9517  -32.5942 H   0  0  0  0  0  0  0  0  0  0  0  0
  1  2  1  0
  2  3  1  0
  3  4  1  0
  4  5  1  0
  3  6  1  0
  6  7  1  0
  7  8  1  0
  8  9  1  0
  9 10  1  0
 10 11  2  0
 11 12  1  0
 12 13  2  0
 13 14  1  0
 14 15  1  0
 14 16  2  0
 16 17  1  0
 17 18  1  0
 17 19  2  0
 19 20  1  0
 20 21  1  0
 21 22  2  0
  8 23  1  0
 23 24  2  0
 23 25  1  0
 25 26  1  0
 26 27  1  0
 27 28  1  0
 28 29  1  0
 29 30  1  0
 29 31  1  0
 21 10  1  0
 19 12  1  0
  1 32  1  0
  1 33  1  0
  1 34  1  0
  2 35  1  0
  2 36  1  0
  4 37  1  0
  4 38  1  0
  5 39  1  0
  5 40  1  0
  5 41  1  0
  6 42  1  0
  6 43  1  0
  7 44  1  0
  7 45  1  0
  8 46  1  6
  9 47  1  0
  9 48  1  0
 11 49  1  0
 13 50  1  0
 15 51  1  0
 15 52  1  0
 15 53  1  0
 16 54  1  0
 18 55  1  0
 18 56  1  0
 18 57  1  0
 25 58  1  0
 26 59  1  0
 26 60  1  0
 27 61  1  0
 27 62  1  0
 28 63  1  0
 28 64  1  0
 30 65  1  0
 30 66  1  0
 30 67  1  0
 31 68  1  0
 31 69  1  0
 31 70  1  0
M  CHG  2   8   1  20  -1
M  END
>  <UniqueID>  (23) 
23

>  <SMILES>  (23) 
CCN(CC)CC[N@H+](Cc1cc2cc(C)cc(C)c2[n-]c1=O)C(=S)NCCCN(C)C

>  <Energy>  (23) 
74.47852128692122

>  <Genealogy>  (23) 
CCN(CC)CC[NH+](Cc1cc2cc(C)cc(C)c2[n-]c1=O)C(=S)NCCCN(C)C (protonated)
CCN(CC)CC[N@H+](Cc1cc2cc(C)cc(C)c2[n-]c1=O)C(=S)NCCCN(C)C (chirality)
CCN(CC)CC[N@H+](Cc1cc2cc(C)cc(C)c2[n-]c1=O)C(=S)NCCCN(C)C (3D coordinates assigned)
CCN(CC)CC[N@H+](Cc1cc2cc(C)cc(C)c2[n-]c1=O)C(=S)NCCCN(C)C (optimized conformer: 74.47852128692122 kcal/mol)

>  <smiles>  (23) 
CCN(CC)CCN(Cc1cc2cc(C)cc(C)c2[nH]c1=O)C(=S)NCCCN(C)C

>  <score_type>  (23) 
oracle

>  <origin>  (23) 
adg

>  <m_score__min__energy>  (23) 
-9.3900000000000006

>  <m_primary>  (23) 
energy

$$$$
23:0
     RDKit          3D

 62 63  0  0  0  0  0  0  0  0999 V2000
    0.2520   18.8210  -28.0490 C   0  0  0  0  0  0  0  0  0  0  0  0
   -0.2850   20.2110  -28.3850 C   0  0  0  0  0  0  0  0  0  0  0  0
   -1.7320   20.3060  -28.0670 N   0  0  0  0  0  0  0  0  0  0  0  0
   -1.9930   20.0050  -26.6400 C   0  0  0  0  0  0  0  0  0  0  0  0
   -3.0590   18.9210  -26.4920 C   0  0  0  0  0  0  0  0  0  0  0  0
   -2.2910   21.6320  -28.4490 C   0  0  0  0  0  0  0  0  0  0  0  0
   -1.2440   22.7370  -28.2420 C   0  0  0  0  0  0  0  0  0  0  0  0
   -1.2680   23.8200  -29.3320 C   0  0  0  0  0  0  0  0  0  0  0  0
   -2.1170   24.9620  -28.9370 N   0  0  0  0  0  0  0  0  0  0  0  0
   -3.5130   24.5510  -28.7380 C   0  0  0  0  0  0  0  0  0  0  0  0
   -4.3630   24.9080  -29.9200 C   0  0  0  0  0  0  0  0  0  0  0  0
   -3.8800   25.6180  -30.8410 O   0  0  0  0  0  0  0  0  0  0  0  0
   -5.7040   24.4050  -29.9910 N   0  0  0  0  0  0  0  0  0  0  0  0
   -6.1740   23.2300  -30.6720 C   0  0  0  0  0  0  0  0  0  0  0  0
   -7.5510   23.0070  -30.7330 C   0  0  0  0  0  0  0  0  0  0  0  0
   -8.0610   21.9070  -31.4240 C   0  0  0  0  0  0  0  0  0  0  0  0
   -7.2020   21.0180  -32.0900 C   0  0  0  0  0  0  0  0  0  0  0  0
   -7.7980   19.8470  -32.8270 C   0  0  0  0  0  0  0  0  0  0  0  0
   -5.8020   21.2300  -32.0310 C   0  0  0  0  0  0  0  0  0  0  0  0
   -4.6580   20.1720  -32.8770 S   0  0  0  0  0  0  0  0  0  0  0  0
   -4.3200   18.9850  -32.0150 O   0  0  0  0  0  0  0  0  0  0  0  0
   -5.3040   19.6970  -34.1510 O   0  0  0  0  0  0  0  0  0  0  0  0
   -3.1840   21.0360  -33.2540 N   0  0  0  0  0  0  0  0  0  0  0  0
   -2.3160   20.2000  -34.1080 C   0  0  0  0  0  0  0  0  0  0  0  0
   -0.8460   20.6370  -33.9960 C   0  0  0  0  0  0  0  0  0  0  0  0
   -0.3160   20.5690  -32.6750 O   0  0  0  0  0  0  0  0  0  0  0  0
   -1.3060   20.6210  -31.6570 C   0  0  0  0  0  0  0  0  0  0  0  0
   -2.5090   21.5060  -32.0260 C   0  0  0  0  0  0  0  0  0  0  0  0
   -5.3050   22.3460  -31.3360 C   0  0  0  0  0  0  0  0  0  0  0  0
    0.2987   18.7001  -26.9567 H   0  0  0  0  0  0  0  0  0  0  0  0
   -0.4158   18.0573  -28.4742 H   0  0  0  0  0  0  0  0  0  0  0  0
    1.2598   18.7046  -28.4742 H   0  0  0  0  0  0  0  0  0  0  0  0
    0.2638   20.9618  -27.7975 H   0  0  0  0  0  0  0  0  0  0  0  0
   -0.1469   20.3927  -29.4611 H   0  0  0  0  0  0  0  0  0  0  0  0
   -1.0609   19.6586  -26.1697 H   0  0  0  0  0  0  0  0  0  0  0  0
   -2.3562   20.9209  -26.1508 H   0  0  0  0  0  0  0  0  0  0  0  0
   -3.2444   18.7324  -25.4243 H   0  0  0  0  0  0  0  0  0  0  0  0
   -3.9905   19.2547  -26.9726 H   0  0  0  0  0  0  0  0  0  0  0  0
   -2.7097   17.9952  -26.9726 H   0  0  0  0  0  0  0  0  0  0  0  0
   -2.5878   21.6083  -29.5079 H   0  0  0  0  0  0  0  0  0  0  0  0
   -3.1642   21.8460  -27.8152 H   0  0  0  0  0  0  0  0  0  0  0  0
   -1.4328   23.2172  -27.2705 H   0  0  0  0  0  0  0  0  0  0  0  0
   -0.2554   22.2567  -28.2865 H   0  0  0  0  0  0  0  0  0  0  0  0
   -0.2423   24.1787  -29.5030 H   0  0  0  0  0  0  0  0  0  0  0  0
   -1.6849   23.3792  -30.2495 H   0  0  0  0  0  0  0  0  0  0  0  0
   -2.1140   25.6590  -29.7220 H   0  0  0  0  0  0  0  0  0  0  0  0
   -3.5474   23.4617  -28.5886 H   0  0  0  0  0  0  0  0  0  0  0  0
   -3.9067   25.0789  -27.8569 H   0  0  0  0  0  0  0  0  0  0  0  0
   -8.2393   23.7039  -30.2324 H   0  0  0  0  0  0  0  0  0  0  0  0
   -9.1472   21.7346  -31.4472 H   0  0  0  0  0  0  0  0  0  0  0  0
   -8.1732   19.1098  -32.1019 H   0  0  0  0  0  0  0  0  0  0  0  0
   -8.6284   20.1955  -33.4586 H   0  0  0  0  0  0  0  0  0  0  0  0
   -7.0276   19.3807  -33.4586 H   0  0  0  0  0  0  0  0  0  0  0  0
   -2.4041   19.1501  -33.7918 H   0  0  0  0  0  0  0  0  0  0  0  0
   -2.6371   20.3161  -35.1537 H   0  0  0  0  0  0  0  0  0  0  0  0
   -0.2419   19.9852  -34.6442 H   0  0  0  0  0  0  0  0  0  0  0  0
   -0.8062   21.6937  -34.2988 H   0  0  0  0  0  0  0  0  0  0  0  0
   -1.6681   19.5995  -31.4690 H   0  0  0  0  0  0  0  0  0  0  0  0
   -0.8359   21.0633  -30.7663 H   0  0  0  0  0  0  0  0  0  0  0  0
   -3.2302   21.4898  -31.1956 H   0  0  0  0  0  0  0  0  0  0  0  0
   -2.1382   22.5252  -32.2100 H   0  0  0  0  0  0  0  0  0  0  0  0
   -4.2209   22.5305  -31.3111 H   0  0  0  0  0  0  0  0  0  0  0  0
  1  2  1  0
  2  3  1  0
  3  4  1  0
  4  5  1  0
  3  6  1  0
  6  7  1  0
  7  8  1  0
  8  9  1  0
  9 10  1  0
 10 11  1  0
 11 12  2  0
 11 13  1  0
 13 14  1  0
 14 15  2  0
 15 16  1  0
 16 17  2  0
 17 18  1  0
 17 19  1  0
 19 20  1  0
 20 21  2  0
 20 22  2  0
 20 23  1  0
 23 24  1  0
 24 25  1  0
 25 26  1  0
 26 27  1  0
 27 28  1  0
 19 29  2  0
 29 14  1  0
 28 23  1  0
  1 30  1  0
  1 31  1  0
  1 32  1  0
  2 33  1  0
  2 34  1  0
  4 35  1  0
  4 36  1  0
  5 37  1  0
  5 38  1  0
  5 39  1  0
  6 40  1  0
  6 41  1  0
  7 42  1  0
  7 43  1  0
  8 44  1  0
  8 45  1  0
  9 46  1  0
 10 47  1  0
 10 48  1  0
 15 49  1  0
 16 50  1  0
 18 51  1  0
 18 52  1  0
 18 53  1  0
 24 54  1  0
 24 55  1  0
 25 56  1  0
 25 57  1  0
 27 58  1  0
 27 59  1  0
 28 60  1  0
 28 61  1  0
 29 62  1  0
M  CHG  1  13  -1
M  END
>  <UniqueID>  (24) 
24

>  <SMILES>  (24) 
CCN(CC)CCCNCC(=O)[N-]c1ccc(C)c(S(=O)(=O)N2CCOCC2)c1

>  <Energy>  (24) 
68.98938769836738

>  <Genealogy>  (24) 
CCN(CC)CCCNCC(=O)[N-]c1ccc(C)c(S(=O)(=O)N2CCOCC2)c1 (protonated)
CCN(CC)CCCNCC(=O)[N-]c1ccc(C)c(S(=O)(=O)N2CCOCC2)c1 (3D coordinates assigned)
CCN(CC)CCCNCC(=O)[N-]c1ccc(C)c(S(=O)(=O)N2CCOCC2)c1 (nonaromatic ring conformer: 68.98938769836738 kcal/mol)

>  <smiles>  (24) 
CCN(CC)CCCNCC(=O)Nc1ccc(C)c(S(=O)(=O)N2CCOCC2)c1

>  <score_type>  (24) 
oracle

>  <origin>  (24) 
adg

>  <m_score__min__energy>  (24) 
-10.56

>  <m_primary>  (24) 
energy

$$$$
24:0
     RDKit          3D

 42 43  0  0  0  0  0  0  0  0999 V2000
   -6.0850   25.5980  -29.5500 C   0  0  0  0  0  0  0  0  0  0  0  0
   -5.3150   25.1590  -30.7890 C   0  0  0  0  0  0  0  0  0  0  0  0
   -3.8730   25.2840  -30.5620 N   0  0  0  0  0  0  0  0  0  0  0  0
   -3.1980   23.7920  -29.9780 S   0  0  0  0  0  0  0  0  0  0  0  0
   -1.7390   23.9990  -29.6770 O   0  0  0  0  0  0  0  0  0  0  0  0
   -3.8910   23.3920  -28.7060 O   0  0  0  0  0  0  0  0  0  0  0  0
   -3.3990   22.5070  -31.1840 C   0  0  0  0  0  0  0  0  0  0  0  0
   -4.4010   22.6630  -32.1560 C   0  0  0  0  0  0  0  0  0  0  0  0
   -4.6520   21.6600  -33.0920 C   0  0  0  0  0  0  0  0  0  0  0  0
   -3.9070   20.4850  -33.0700 C   0  0  0  0  0  0  0  0  0  0  0  0
   -2.9010   20.3110  -32.1190 C   0  0  0  0  0  0  0  0  0  0  0  0
   -2.6250   21.3120  -31.1660 C   0  0  0  0  0  0  0  0  0  0  0  0
   -1.5130   21.0930  -30.2010 C   0  0  0  0  0  0  0  0  0  0  0  0
   -0.3760   20.7640  -30.6370 O   0  0  0  0  0  0  0  0  0  0  0  0
   -1.7230   21.2000  -28.7690 N   0  0  2  0  0  0  0  0  0  0  0  0
   -0.4420   21.0030  -28.0280 C   0  0  0  0  0  0  0  0  0  0  0  0
   -0.2850   19.5810  -27.4690 C   0  0  0  0  0  0  0  0  0  0  0  0
   -1.4250   19.2380  -26.4940 C   0  0  0  0  0  0  0  0  0  0  0  0
   -2.7420   19.9670  -26.8390 C   0  0  2  0  0  0  0  0  0  0  0  0
   -3.8910   19.1700  -26.4040 N   0  0  0  0  0  0  0  0  0  0  0  0
   -2.8130   20.2770  -28.3480 C   0  0  0  0  0  0  0  0  0  0  0  0
   -5.5376   25.2859  -28.6484 H   0  0  0  0  0  0  0  0  0  0  0  0
   -6.1919   26.6928  -29.5535 H   0  0  0  0  0  0  0  0  0  0  0  0
   -7.0816   25.1323  -29.5535 H   0  0  0  0  0  0  0  0  0  0  0  0
   -5.5574   24.1099  -31.0141 H   0  0  0  0  0  0  0  0  0  0  0  0
   -5.6012   25.8016  -31.6347 H   0  0  0  0  0  0  0  0  0  0  0  0
   -4.9954   23.5883  -32.1792 H   0  0  0  0  0  0  0  0  0  0  0  0
   -5.4392   21.7978  -33.8479 H   0  0  0  0  0  0  0  0  0  0  0  0
   -4.1116   19.6916  -33.8039 H   0  0  0  0  0  0  0  0  0  0  0  0
   -2.3153   19.3799  -32.1130 H   0  0  0  0  0  0  0  0  0  0  0  0
   -2.0370   22.1760  -28.5520 H   0  0  0  0  0  0  0  0  0  0  0  0
    0.3942   21.2045  -28.7137 H   0  0  0  0  0  0  0  0  0  0  0  0
   -0.4469   21.6944  -27.1724 H   0  0  0  0  0  0  0  0  0  0  0  0
   -0.2982   18.8640  -28.3031 H   0  0  0  0  0  0  0  0  0  0  0  0
    0.6688   19.5240  -26.9240 H   0  0  0  0  0  0  0  0  0  0  0  0
   -1.6035   18.1531  -26.5286 H   0  0  0  0  0  0  0  0  0  0  0  0
   -1.1154   19.5669  -25.4910 H   0  0  0  0  0  0  0  0  0  0  0  0
   -2.7681   20.9257  -26.3003 H   0  0  0  0  0  0  0  0  0  0  0  0
   -3.7050   18.8170  -25.4370 H   0  0  0  0  0  0  0  0  0  0  0  0
   -4.7380   19.7810  -26.3550 H   0  0  0  0  0  0  0  0  0  0  0  0
   -2.7215   19.3362  -28.9106 H   0  0  0  0  0  0  0  0  0  0  0  0
   -3.7768   20.7654  -28.5543 H   0  0  0  0  0  0  0  0  0  0  0  0
  1  2  1  0
  2  3  1  0
  3  4  1  0
  4  5  2  0
  4  6  2  0
  4  7  1  0
  7  8  2  0
  8  9  1  0
  9 10  2  0
 10 11  1  0
 11 12  2  0
 12 13  1  0
 13 14  2  0
 13 15  1  0
 15 16  1  0
 16 17  1  0
 17 18  1  0
 18 19  1  0
 19 20  1  0
 19 21  1  0
 12  7  1  0
 21 15  1  0
  1 22  1  0
  1 23  1  0
  1 24  1  0
  2 25  1  0
  2 26  1  0
  8 27  1  0
  9 28  1  0
 10 29  1  0
 11 30  1  0
 15 31  1  6
 16 32  1  0
 16 33  1  0
 17 34  1  0
 17 35  1  0
 18 36  1  0
 18 37  1  0
 19 38  1  1
 20 39  1  0
 20 40  1  0
 21 41  1  0
 21 42  1  0
M  CHG  2   3  -1  15   1
M  END
>  <UniqueID>  (25) 
25

>  <SMILES>  (25) 
CC[N-]S(=O)(=O)c1ccccc1C(=O)[N@@H+]1CCC[C@H](N)C1

>  <Energy>  (25) 
53.08499254751729

>  <Genealogy>  (25) 
CC[N-]S(=O)(=O)c1ccccc1C(=O)[NH+]1CCCC(N)C1 (protonated)
CC[N-]S(=O)(=O)c1ccccc1C(=O)[N@@H+]1CCC[C@H](N)C1 (chirality)
CC[N-]S(=O)(=O)c1ccccc1C(=O)[N@@H+]1CCC[C@H](N)C1 (3D coordinates assigned)
CC[N-]S(=O)(=O)c1ccccc1C(=O)[N@@H+]1CCC[C@H](N)C1 (nonaromatic ring conformer: 53.08499254751729 kcal/mol)

>  <smiles>  (25) 
CCNS(=O)(=O)c1ccccc1C(=O)N1CCCC(N)C1

>  <score_type>  (25) 
oracle

>  <origin>  (25) 
adg

>  <m_score__min__energy>  (25) 
-7.4500000000000002

>  <m_primary>  (25) 
energy

$$$$
25:0
     RDKit          3D

 47 50  0  0  0  0  0  0  0  0999 V2000
   -4.1840   22.1950  -32.6990 C   0  0  0  0  0  0  0  0  0  0  0  0
   -3.7540   20.8380  -32.6820 O   0  0  0  0  0  0  0  0  0  0  0  0
   -2.5630   20.3510  -33.2450 C   0  0  0  0  0  0  0  0  0  0  0  0
   -1.4120   21.1690  -33.2470 C   0  0  0  0  0  0  0  0  0  0  0  0
   -0.2210   20.7340  -33.8160 C   0  0  0  0  0  0  0  0  0  0  0  0
   -0.1520   19.4790  -34.3980 C   0  0  0  0  0  0  0  0  0  0  0  0
   -1.2670   18.6460  -34.4080 C   0  0  0  0  0  0  0  0  0  0  0  0
   -2.5040   19.0380  -33.8250 C   0  0  0  0  0  0  0  0  0  0  0  0
   -3.6510   18.1110  -33.8470 N   0  0  0  0  0  0  0  0  0  0  0  0
   -4.9670   18.6310  -34.2920 C   0  0  0  0  0  0  0  0  0  0  0  0
   -6.1120   17.6050  -34.3420 C   0  0  0  0  0  0  0  0  0  0  0  0
   -6.0080   16.5700  -33.3060 N   0  0  0  0  0  0  0  0  0  0  0  0
   -6.1860   17.1260  -31.9410 C   0  0  0  0  0  0  0  0  0  0  0  0
   -6.8900   18.4540  -31.9690 C   0  0  0  0  0  0  0  0  0  0  0  0
   -8.2720   18.6240  -32.0690 C   0  0  0  0  0  0  0  0  0  0  0  0
   -8.4630   19.9870  -32.0020 C   0  0  0  0  0  0  0  0  0  0  0  0
   -9.6190   20.7590  -32.0410 C   0  0  0  0  0  0  0  0  0  0  0  0
   -9.4680   22.1530  -31.9360 C   0  0  0  0  0  0  0  0  0  0  0  0
   -8.1760   22.7120  -31.7960 C   0  0  0  0  0  0  0  0  0  0  0  0
   -7.0710   21.9070  -31.7600 N   0  0  0  0  0  0  0  0  0  0  0  0
   -7.2330   20.5640  -31.8650 C   0  0  0  0  0  0  0  0  0  0  0  0
   -6.2570   19.6450  -31.8400 N   0  0  0  0  0  0  0  0  0  0  0  0
   -4.7460   15.8410  -33.5010 C   0  0  0  0  0  0  0  0  0  0  0  0
   -3.5080   16.7320  -33.3310 C   0  0  0  0  0  0  0  0  0  0  0  0
   -4.2985   22.5563  -31.6664 H   0  0  0  0  0  0  0  0  0  0  0  0
   -3.4367   22.8099  -33.2219 H   0  0  0  0  0  0  0  0  0  0  0  0
   -5.1491   22.2673  -33.2219 H   0  0  0  0  0  0  0  0  0  0  0  0
   -1.4589   22.1685  -32.7900 H   0  0  0  0  0  0  0  0  0  0  0  0
    0.6654   21.3853  -33.8042 H   0  0  0  0  0  0  0  0  0  0  0  0
    0.7891   19.1388  -34.8548 H   0  0  0  0  0  0  0  0  0  0  0  0
   -1.1894   17.6557  -34.8805 H   0  0  0  0  0  0  0  0  0  0  0  0
   -5.2635   19.4337  -33.6009 H   0  0  0  0  0  0  0  0  0  0  0  0
   -4.8201   18.9644  -35.3299 H   0  0  0  0  0  0  0  0  0  0  0  0
   -7.0649   18.1381  -34.2089 H   0  0  0  0  0  0  0  0  0  0  0  0
   -6.0540   17.0983  -35.3166 H   0  0  0  0  0  0  0  0  0  0  0  0
   -6.7900   15.8920  -33.4790 H   0  0  0  0  0  0  0  0  0  0  0  0
   -6.7808   16.4197  -31.3432 H   0  0  0  0  0  0  0  0  0  0  0  0
   -5.1899   17.2752  -31.4989 H   0  0  0  0  0  0  0  0  0  0  0  0
   -9.0388   17.8428  -32.1773 H   0  0  0  0  0  0  0  0  0  0  0  0
  -10.6117   20.2977  -32.1496 H   0  0  0  0  0  0  0  0  0  0  0  0
  -10.3520   22.8071  -31.9626 H   0  0  0  0  0  0  0  0  0  0  0  0
   -8.0592   23.8028  -31.7155 H   0  0  0  0  0  0  0  0  0  0  0  0
   -5.2320   19.8140  -31.7350 H   0  0  0  0  0  0  0  0  0  0  0  0
   -4.6948   15.0252  -32.7649 H   0  0  0  0  0  0  0  0  0  0  0  0
   -4.7403   15.4622  -34.5337 H   0  0  0  0  0  0  0  0  0  0  0  0
   -3.2765   16.7923  -32.2573 H   0  0  0  0  0  0  0  0  0  0  0  0
   -2.7099   16.2638  -33.9259 H   0  0  0  0  0  0  0  0  0  0  0  0
  1  2  1  0
  2  3  1  0
  3  4  2  0
  4  5  1  0
  5  6  2  0
  6  7  1  0
  7  8  2  0
  8  9  1  0
  9 10  1  0
 10 11  1  0
 11 12  1  0
 12 13  1  0
 13 14  1  0
 14 15  2  0
 15 16  1  0
 16 17  2  0
 17 18  1  0
 18 19  2  0
 19 20  1  0
 20 21  2  0
 21 22  1  0
 12 23  1  0
 23 24  1  0
  8  3  1  0
 24  9  1  0
 22 14  1  0
 21 16  1  0
  1 25  1  0
  1 26  1  0
  1 27  1  0
  4 28  1  0
  5 29  1  0
  6 30  1  0
  7 31  1  0
 10 32  1  0
 10 33  1  0
 11 34  1  0
 11 35  1  0
 12 36  1  0
 13 37  1  0
 13 38  1  0
 15 39  1  0
 17 40  1  0
 18 41  1  0
 19 42  1  0
 22 43  1  0
 23 44  1  0
 23 45  1  0
 24 46  1  0
 24 47  1  0
M  CHG  1  12   1
M  END
>  <UniqueID>  (26) 
26

>  <SMILES>  (26) 
COc1ccccc1N1CC[NH+](Cc2cc3cccnc3[nH]2)CC1

>  <Energy>  (26) 
101.18441480745655

>  <Genealogy>  (26) 
COc1ccccc1N1CC[NH+](Cc2cc3cccnc3[nH]2)CC1 (protonated)
COc1ccccc1N1CC[NH+](Cc2cc3cccnc3[nH]2)CC1 (3D coordinates assigned)
COc1ccccc1N1CC[NH+](Cc2cc3cccnc3[nH]2)CC1 (nonaromatic ring conformer: 101.18441480745655 kcal/mol)

>  <smiles>  (26) 
COc1ccccc1N1CCN(Cc2cc3cccnc3[nH]2)CC1

>  <score_type>  (26) 
oracle

>  <origin>  (26) 
adg

>  <m_score__min__energy>  (26) 
-7.3099999999999996

>  <m_primary>  (26) 
energy

$$$$
26:0
     RDKit          3D

 41 44  0  0  0  0  0  0  0  0999 V2000
   -7.2500   23.8220  -32.9390 O   0  0  0  0  0  0  0  0  0  0  0  0
   -6.7600   22.9510  -32.1680 C   0  0  0  0  0  0  0  0  0  0  0  0
   -5.5830   23.3070  -31.3390 C   0  0  0  0  0  0  0  0  0  0  0  0
   -5.6800   24.2720  -30.3230 C   0  0  0  0  0  0  0  0  0  0  0  0
   -4.5610   24.6070  -29.5540 C   0  0  0  0  0  0  0  0  0  0  0  0
   -3.3190   23.9940  -29.7910 C   0  0  0  0  0  0  0  0  0  0  0  0
   -2.1660   24.3390  -28.9970 N   0  0  0  0  0  0  0  0  0  0  0  0
   -2.1540   24.9230  -27.7830 C   0  0  0  0  0  0  0  0  0  0  0  0
   -0.8430   25.0690  -27.3910 C   0  0  0  0  0  0  0  0  0  0  0  0
   -0.0280   24.5850  -28.3480 N   0  0  0  0  0  0  0  0  0  0  0  0
   -0.8660   24.1470  -29.3100 C   0  0  0  0  0  0  0  0  0  0  0  0
   -3.2200   23.0410  -30.8210 C   0  0  0  0  0  0  0  0  0  0  0  0
   -4.3390   22.7050  -31.5890 C   0  0  0  0  0  0  0  0  0  0  0  0
   -7.3800   21.6050  -32.1200 C   0  0  0  0  0  0  0  0  0  0  0  0
   -8.7060   21.4570  -31.7030 C   0  0  0  0  0  0  0  0  0  0  0  0
   -9.2670   20.1890  -31.6540 C   0  0  0  0  0  0  0  0  0  0  0  0
   -8.5040   19.0870  -32.0310 C   0  0  0  0  0  0  0  0  0  0  0  0
   -9.0040   17.9320  -31.9530 O   0  0  0  0  0  0  0  0  0  0  0  0
   -7.2170   19.2700  -32.4680 N   0  0  0  0  0  0  0  0  0  0  0  0
   -6.4080   18.1470  -32.8680 C   0  0  0  0  0  0  0  0  0  0  0  0
   -6.0910   17.1480  -31.9330 C   0  0  0  0  0  0  0  0  0  0  0  0
   -5.2950   16.0610  -32.3050 C   0  0  0  0  0  0  0  0  0  0  0  0
   -4.8010   15.9680  -33.6090 C   0  0  0  0  0  0  0  0  0  0  0  0
   -5.1000   16.9640  -34.5430 C   0  0  0  0  0  0  0  0  0  0  0  0
   -5.8970   18.0540  -34.1760 C   0  0  0  0  0  0  0  0  0  0  0  0
   -6.1480   19.0300  -35.0850 F   0  0  0  0  0  0  0  0  0  0  0  0
   -6.6800   20.4990  -32.5070 N   0  0  0  0  0  0  0  0  0  0  0  0
   -6.6430   24.7677  -30.1308 H   0  0  0  0  0  0  0  0  0  0  0  0
   -4.6540   25.3579  -28.7556 H   0  0  0  0  0  0  0  0  0  0  0  0
   -3.0385   25.2298  -27.2055 H   0  0  0  0  0  0  0  0  0  0  0  0
   -0.5112   25.5132  -26.4410 H   0  0  0  0  0  0  0  0  0  0  0  0
   -0.5273   23.6834  -30.2483 H   0  0  0  0  0  0  0  0  0  0  0  0
   -2.2538   22.5559  -31.0240 H   0  0  0  0  0  0  0  0  0  0  0  0
   -4.2443   21.9631  -32.3956 H   0  0  0  0  0  0  0  0  0  0  0  0
   -9.2993   22.3378  -31.4163 H   0  0  0  0  0  0  0  0  0  0  0  0
  -10.3065   20.0553  -31.3199 H   0  0  0  0  0  0  0  0  0  0  0  0
   -6.4709   17.2214  -30.9033 H   0  0  0  0  0  0  0  0  0  0  0  0
   -5.0570   15.2776  -31.5704 H   0  0  0  0  0  0  0  0  0  0  0  0
   -4.1766   15.1106  -33.9005 H   0  0  0  0  0  0  0  0  0  0  0  0
   -4.7081   16.8908  -35.5682 H   0  0  0  0  0  0  0  0  0  0  0  0
   -5.7070   20.6170  -32.8710 H   0  0  0  0  0  0  0  0  0  0  0  0
  1  2  2  0
  2  3  1  0
  3  4  2  0
  4  5  1  0
  5  6  2  0
  6  7  1  0
  7  8  1  0
  8  9  2  0
  9 10  1  0
 10 11  2  0
  6 12  1  0
 12 13  2  0
  2 14  1  0
 14 15  1  0
 15 16  2  0
 16 17  1  0
 17 18  2  0
 17 19  1  0
 19 20  1  0
 20 21  2  0
 21 22  1  0
 22 23  2  0
 23 24  1  0
 24 25  2  0
 25 26  1  0
 19 27  1  0
 13  3  1  0
 27 14  2  0
 11  7  1  0
 25 20  1  0
  4 28  1  0
  5 29  1  0
  8 30  1  0
  9 31  1  0
 11 32  1  0
 12 33  1  0
 13 34  1  0
 15 35  1  0
 16 36  1  0
 21 37  1  0
 22 38  1  0
 23 39  1  0
 24 40  1  0
 27 41  1  0
M  CHG  1  27   1
M  END
>  <UniqueID>  (27) 
27

>  <SMILES>  (27) 
O=C(c1ccc(-n2ccnc2)cc1)c1ccc(=O)n(-c2ccccc2F)[nH+]1

>  <Energy>  (27) 
92.77895669046005

>  <Genealogy>  (27) 
O=C(c1ccc(-n2ccnc2)cc1)c1ccc(=O)n(-c2ccccc2F)[nH+]1 (protonated)
O=C(c1ccc(-n2ccnc2)cc1)c1ccc(=O)n(-c2ccccc2F)[nH+]1 (3D coordinates assigned)
O=C(c1ccc(-n2ccnc2)cc1)c1ccc(=O)n(-c2ccccc2F)[nH+]1 (optimized conformer: 92.77895669046005 kcal/mol)

>  <smiles>  (27) 
O=C(c1ccc(-n2ccnc2)cc1)c1ccc(=O)n(-c2ccccc2F)n1

>  <score_type>  (27) 
oracle

>  <origin>  (27) 
adg

>  <m_score__min__energy>  (27) 
-8.7899999999999991

>  <m_primary>  (27) 
energy

$$$$
27:0
     RDKit          3D

 50 53  0  0  0  0  0  0  0  0999 V2000
   -2.5760   24.7780  -29.0060 C   0  0  0  0  0  0  0  0  0  0  0  0
   -3.4920   25.2990  -29.9620 O   0  0  0  0  0  0  0  0  0  0  0  0
   -4.6900   24.6690  -30.3300 C   0  0  0  0  0  0  0  0  0  0  0  0
   -5.9640   25.1520  -29.9530 C   0  0  0  0  0  0  0  0  0  0  0  0
   -7.1300   24.4750  -30.3540 C   0  0  0  0  0  0  0  0  0  0  0  0
   -7.0280   23.3160  -31.1330 C   0  0  0  0  0  0  0  0  0  0  0  0
   -5.7880   22.8800  -31.4750 N   0  0  0  0  0  0  0  0  0  0  0  0
   -4.6480   23.5090  -31.1040 C   0  0  0  0  0  0  0  0  0  0  0  0
   -3.5190   22.9070  -31.5560 N   0  0  0  0  0  0  0  0  0  0  0  0
   -4.0120   21.8510  -32.2420 C   0  0  0  0  0  0  0  0  0  0  0  0
   -5.3700   21.8280  -32.1990 C   0  0  0  0  0  0  0  0  0  0  0  0
   -6.0790   20.8250  -32.8460 C   0  0  0  0  0  0  0  0  0  0  0  0
   -7.3390   20.8010  -32.8070 O   0  0  0  0  0  0  0  0  0  0  0  0
   -5.3700   19.8630  -33.5290 N   0  0  0  0  0  0  0  0  0  0  0  0
   -6.0990   18.7730  -34.2140 C   0  0  0  0  0  0  0  0  0  0  0  0
   -6.3260   17.5660  -33.2770 C   0  0  0  0  0  0  0  0  0  0  0  0
   -6.5000   16.2610  -34.0660 C   0  0  0  0  0  0  0  0  0  0  0  0
   -7.5520   17.8100  -32.3870 C   0  0  0  0  0  0  0  0  0  0  0  0
   -3.9830   19.9070  -33.5600 C   0  0  0  0  0  0  0  0  0  0  0  0
   -3.3420   19.0170  -34.1860 O   0  0  0  0  0  0  0  0  0  0  0  0
   -3.2920   20.9080  -32.9080 N   0  0  0  0  0  0  0  0  0  0  0  0
   -1.8220   20.9960  -32.9620 C   0  0  0  0  0  0  0  0  0  0  0  0
   -1.2320   20.7550  -31.5970 C   0  0  0  0  0  0  0  0  0  0  0  0
   -0.9510   19.4470  -31.1650 C   0  0  0  0  0  0  0  0  0  0  0  0
   -0.4380   19.2230  -29.8830 C   0  0  0  0  0  0  0  0  0  0  0  0
   -0.2070   20.3000  -29.0230 C   0  0  0  0  0  0  0  0  0  0  0  0
   -0.4880   21.6030  -29.4430 C   0  0  0  0  0  0  0  0  0  0  0  0
   -1.0010   21.8310  -30.7240 C   0  0  0  0  0  0  0  0  0  0  0  0
   -2.9456   24.9882  -27.9915 H   0  0  0  0  0  0  0  0  0  0  0  0
   -2.4811   23.6908  -29.1437 H   0  0  0  0  0  0  0  0  0  0  0  0
   -1.5930   25.2522  -29.1437 H   0  0  0  0  0  0  0  0  0  0  0  0
   -6.0440   26.0632  -29.3421 H   0  0  0  0  0  0  0  0  0  0  0  0
   -8.1186   24.8548  -30.0566 H   0  0  0  0  0  0  0  0  0  0  0  0
   -7.9276   22.7734  -31.4591 H   0  0  0  0  0  0  0  0  0  0  0  0
   -7.0751   19.1525  -34.5506 H   0  0  0  0  0  0  0  0  0  0  0  0
   -5.4931   18.4369  -35.0684 H   0  0  0  0  0  0  0  0  0  0  0  0
   -5.4317   17.4607  -32.6453 H   0  0  0  0  0  0  0  0  0  0  0  0
   -6.6120   15.4208  -33.3649 H   0  0  0  0  0  0  0  0  0  0  0  0
   -7.3966   16.3322  -34.6993 H   0  0  0  0  0  0  0  0  0  0  0  0
   -5.6161   16.0948  -34.6993 H   0  0  0  0  0  0  0  0  0  0  0  0
   -7.2550   17.7509  -31.3295 H   0  0  0  0  0  0  0  0  0  0  0  0
   -7.9646   18.8079  -32.5968 H   0  0  0  0  0  0  0  0  0  0  0  0
   -8.3152   17.0461  -32.5968 H   0  0  0  0  0  0  0  0  0  0  0  0
   -1.4388   20.2385  -33.6616 H   0  0  0  0  0  0  0  0  0  0  0  0
   -1.5366   22.0025  -33.3019 H   0  0  0  0  0  0  0  0  0  0  0  0
   -1.1352   18.5964  -31.8377 H   0  0  0  0  0  0  0  0  0  0  0  0
   -0.2162   18.1979  -29.5515 H   0  0  0  0  0  0  0  0  0  0  0  0
    0.1961   20.1221  -28.0151 H   0  0  0  0  0  0  0  0  0  0  0  0
   -0.3055   22.4501  -28.7654 H   0  0  0  0  0  0  0  0  0  0  0  0
   -1.2246   22.8577  -31.0494 H   0  0  0  0  0  0  0  0  0  0  0  0
  1  2  1  0
  2  3  1  0
  3  4  2  0
  4  5  1  0
  5  6  2  0
  6  7  1  0
  7  8  1  0
  8  9  2  0
  9 10  1  0
 10 11  2  0
 11 12  1  0
 12 13  2  0
 12 14  1  0
 14 15  1  0
 15 16  1  0
 16 17  1  0
 16 18  1  0
 14 19  1  0
 19 20  2  0
 19 21  1  0
 21 22  1  0
 22 23  1  0
 23 24  2  0
 24 25  1  0
 25 26  2  0
 26 27  1  0
 27 28  2  0
  8  3  1  0
 21 10  1  0
 28 23  1  0
 11  7  1  0
  1 29  1  0
  1 30  1  0
  1 31  1  0
  4 32  1  0
  5 33  1  0
  6 34  1  0
 15 35  1  0
 15 36  1  0
 16 37  1  0
 17 38  1  0
 17 39  1  0
 17 40  1  0
 18 41  1  0
 18 42  1  0
 18 43  1  0
 22 44  1  0
 22 45  1  0
 24 46  1  0
 25 47  1  0
 26 48  1  0
 27 49  1  0
 28 50  1  0
M  END
>  <UniqueID>  (28) 
28

>  <SMILES>  (28) 
COc1cccn2c1nc1c2c(=O)n(CC(C)C)c(=O)n1Cc1ccccc1

>  <Energy>  (28) 
98.140560326908

>  <Genealogy>  (28) 
COc1cccn2c1nc1c2c(=O)n(CC(C)C)c(=O)n1Cc1ccccc1 (3D coordinates assigned)
COc1cccn2c1nc1c2c(=O)n(CC(C)C)c(=O)n1Cc1ccccc1 (optimized conformer: 98.140560326908 kcal/mol)

>  <smiles>  (28) 
COc1cccn2c1nc1c2c(=O)n(CC(C)C)c(=O)n1Cc1ccccc1

>  <score_type>  (28) 
oracle

>  <origin>  (28) 
adg

>  <m_score__min__energy>  (28) 
-8.7599999999999998

>  <m_primary>  (28) 
energy

$$$$
28:0
     RDKit          3D

 39 41  0  0  0  0  0  0  0  0999 V2000
   -6.0390   20.6690  -32.7300 C   0  0  0  0  0  0  0  0  0  0  0  0
   -4.6710   20.6240  -32.3350 O   0  0  0  0  0  0  0  0  0  0  0  0
   -4.0460   21.5890  -31.5320 C   0  0  0  0  0  0  0  0  0  0  0  0
   -2.9640   21.2810  -30.6870 C   0  0  0  0  0  0  0  0  0  0  0  0
   -2.3730   22.2790  -29.8970 C   0  0  0  0  0  0  0  0  0  0  0  0
   -1.1870   21.9540  -29.0330 C   0  0  0  0  0  0  0  0  0  0  0  0
   -0.6980   23.1670  -28.3890 N   0  0  0  0  0  0  0  0  0  0  0  0
   -1.0290   23.6150  -27.1660 C   0  0  0  0  0  0  0  0  0  0  0  0
   -0.2580   24.7430  -26.9490 C   0  0  0  0  0  0  0  0  0  0  0  0
   -0.2380   25.6110  -25.7490 C   0  0  0  0  0  0  0  0  0  0  0  0
   -0.8770   26.8610  -25.7690 C   0  0  0  0  0  0  0  0  0  0  0  0
   -0.8570   27.6790  -24.6400 C   0  0  0  0  0  0  0  0  0  0  0  0
   -0.1970   27.2430  -23.4910 C   0  0  0  0  0  0  0  0  0  0  0  0
    0.4210   26.0310  -23.4780 N   0  0  0  0  0  0  0  0  0  0  0  0
    0.4160   25.2160  -24.5670 C   0  0  0  0  0  0  0  0  0  0  0  0
    0.5180   24.9330  -28.0390 N   0  0  0  0  0  0  0  0  0  0  0  0
    0.2350   23.9590  -28.8920 N   0  0  0  0  0  0  0  0  0  0  0  0
   -2.8500   23.5960  -29.9760 C   0  0  0  0  0  0  0  0  0  0  0  0
   -3.9260   23.9170  -30.8100 C   0  0  0  0  0  0  0  0  0  0  0  0
   -4.3670   25.2480  -30.8430 O   0  0  0  0  0  0  0  0  0  0  0  0
   -5.6630   25.6770  -30.4360 C   0  0  0  0  0  0  0  0  0  0  0  0
   -4.5220   22.9040  -31.5850 C   0  0  0  0  0  0  0  0  0  0  0  0
   -6.6785   20.6900  -31.8352 H   0  0  0  0  0  0  0  0  0  0  0  0
   -6.2179   21.5735  -33.3299 H   0  0  0  0  0  0  0  0  0  0  0  0
   -6.2769   19.7782  -33.3299 H   0  0  0  0  0  0  0  0  0  0  0  0
   -2.5789   20.2515  -30.6453 H   0  0  0  0  0  0  0  0  0  0  0  0
   -1.4843   21.2264  -28.2634 H   0  0  0  0  0  0  0  0  0  0  0  0
   -0.3885   21.5273  -29.6578 H   0  0  0  0  0  0  0  0  0  0  0  0
   -1.7643   23.1740  -26.4769 H   0  0  0  0  0  0  0  0  0  0  0  0
   -1.3956   27.1964  -26.6792 H   0  0  0  0  0  0  0  0  0  0  0  0
   -1.3569   28.6587  -24.6552 H   0  0  0  0  0  0  0  0  0  0  0  0
   -0.1762   27.8799  -22.5944 H   0  0  0  0  0  0  0  0  0  0  0  0
    0.9120   25.7200  -22.6100 H   0  0  0  0  0  0  0  0  0  0  0  0
    0.9261   24.2424  -24.5236 H   0  0  0  0  0  0  0  0  0  0  0  0
   -2.3727   24.3845  -29.3757 H   0  0  0  0  0  0  0  0  0  0  0  0
   -5.7153   25.6943  -29.3374 H   0  0  0  0  0  0  0  0  0  0  0  0
   -5.8550   26.6866  -30.8282 H   0  0  0  0  0  0  0  0  0  0  0  0
   -6.4195   24.9813  -30.8282 H   0  0  0  0  0  0  0  0  0  0  0  0
   -5.3714   23.1489  -32.2396 H   0  0  0  0  0  0  0  0  0  0  0  0
  1  2  1  0
  2  3  1  0
  3  4  2  0
  4  5  1  0
  5  6  1  0
  6  7  1  0
  7  8  1  0
  8  9  2  0
  9 10  1  0
 10 11  2  0
 11 12  1  0
 12 13  2  0
 13 14  1  0
 14 15  2  0
  9 16  1  0
 16 17  2  0
  5 18  2  0
 18 19  1  0
 19 20  1  0
 20 21  1  0
 19 22  2  0
 22  3  1  0
 17  7  1  0
 15 10  1  0
  1 23  1  0
  1 24  1  0
  1 25  1  0
  4 26  1  0
  6 27  1  0
  6 28  1  0
  8 29  1  0
 11 30  1  0
 12 31  1  0
 13 32  1  0
 14 33  1  0
 15 34  1  0
 18 35  1  0
 21 36  1  0
 21 37  1  0
 21 38  1  0
 22 39  1  0
M  CHG  1  14   1
M  END
>  <UniqueID>  (29) 
29

>  <SMILES>  (29) 
COc1cc(Cn2cc(-c3ccc[nH+]c3)nn2)cc(OC)c1

>  <Energy>  (29) 
74.22739272583414

>  <Genealogy>  (29) 
COc1cc(Cn2cc(-c3ccc[nH+]c3)nn2)cc(OC)c1 (protonated)
COc1cc(Cn2cc(-c3ccc[nH+]c3)nn2)cc(OC)c1 (3D coordinates assigned)
COc1cc(Cn2cc(-c3ccc[nH+]c3)nn2)cc(OC)c1 (optimized conformer: 74.22739272583414 kcal/mol)

>  <smiles>  (29) 
COc1cc(Cn2cc(-c3cccnc3)nn2)cc(OC)c1

>  <score_type>  (29) 
oracle

>  <origin>  (29) 
adg

>  <m_score__min__energy>  (29) 
-7.79

>  <m_primary>  (29) 
energy

$$$$
29:0
     RDKit          3D

 53 56  0  0  0  0  0  0  0  0999 V2000
   -2.2000   19.0890  -26.6850 C   0  0  0  0  0  0  0  0  0  0  0  0
   -2.0250   20.4510  -27.2960 C   0  0  0  0  0  0  0  0  0  0  0  0
   -0.7510   20.9130  -27.6590 C   0  0  0  0  0  0  0  0  0  0  0  0
   -0.6000   22.1640  -28.2710 C   0  0  0  0  0  0  0  0  0  0  0  0
   -1.7260   22.9560  -28.5580 C   0  0  0  0  0  0  0  0  0  0  0  0
   -1.5750   24.2950  -29.2400 C   0  0  0  0  0  0  0  0  0  0  0  0
   -2.8680   24.9540  -29.4380 N   0  0  0  0  0  0  0  0  0  0  0  0
   -3.8450   24.6720  -30.4530 C   0  0  0  0  0  0  0  0  0  0  0  0
   -4.6050   25.6070  -30.8220 O   0  0  0  0  0  0  0  0  0  0  0  0
   -3.9690   23.3460  -31.1010 C   0  0  0  0  0  0  0  0  0  0  0  0
   -5.2180   22.7180  -31.2060 C   0  0  0  0  0  0  0  0  0  0  0  0
   -5.3240   21.4720  -31.8480 C   0  0  0  0  0  0  0  0  0  0  0  0
   -6.6400   20.8020  -31.9850 C   0  0  0  0  0  0  0  0  0  0  0  0
   -7.8330   21.5300  -31.8150 C   0  0  0  0  0  0  0  0  0  0  0  0
   -9.0740   20.9010  -31.9580 C   0  0  0  0  0  0  0  0  0  0  0  0
   -9.1370   19.5420  -32.2700 C   0  0  0  0  0  0  0  0  0  0  0  0
   -7.9610   18.8070  -32.4400 C   0  0  0  0  0  0  0  0  0  0  0  0
   -6.7180   19.4320  -32.3000 C   0  0  0  0  0  0  0  0  0  0  0  0
   -4.1650   20.8790  -32.3740 C   0  0  0  0  0  0  0  0  0  0  0  0
   -2.9330   21.5400  -32.2630 C   0  0  0  0  0  0  0  0  0  0  0  0
   -1.7340   20.9880  -32.8240 N   0  0  0  0  0  0  0  0  0  0  0  0
   -1.4320   21.0990  -34.1100 N   0  0  0  0  0  0  0  0  0  0  0  0
   -0.2910   20.4120  -34.3220 C   0  0  0  0  0  0  0  0  0  0  0  0
    0.3360   20.2340  -35.6650 C   0  0  0  0  0  0  0  0  0  0  0  0
    0.1260   19.8120  -33.1490 C   0  0  0  0  0  0  0  0  0  0  0  0
   -0.8210   20.1910  -32.2180 C   0  0  0  0  0  0  0  0  0  0  0  0
   -0.8600   19.7270  -30.7930 C   0  0  0  0  0  0  0  0  0  0  0  0
   -2.8700   22.7310  -31.6110 N   0  0  0  0  0  0  0  0  0  0  0  0
   -2.9990   22.4990  -28.1750 C   0  0  0  0  0  0  0  0  0  0  0  0
   -3.1480   21.2500  -27.5630 C   0  0  0  0  0  0  0  0  0  0  0  0
   -2.1890   19.1749  -25.5884 H   0  0  0  0  0  0  0  0  0  0  0  0
   -3.1604   18.6621  -27.0097 H   0  0  0  0  0  0  0  0  0  0  0  0
   -1.3787   18.4332  -27.0097 H   0  0  0  0  0  0  0  0  0  0  0  0
    0.1338   20.2898  -27.4621 H   0  0  0  0  0  0  0  0  0  0  0  0
    0.4052   22.5289  -28.5286 H   0  0  0  0  0  0  0  0  0  0  0  0
   -0.9376   24.9411  -28.6185 H   0  0  0  0  0  0  0  0  0  0  0  0
   -1.1227   24.1260  -30.2284 H   0  0  0  0  0  0  0  0  0  0  0  0
   -6.1137   23.1996  -30.7866 H   0  0  0  0  0  0  0  0  0  0  0  0
   -7.7888   22.6010  -31.5680 H   0  0  0  0  0  0  0  0  0  0  0  0
  -10.0011   21.4778  -31.8245 H   0  0  0  0  0  0  0  0  0  0  0  0
  -10.1139   19.0490  -32.3822 H   0  0  0  0  0  0  0  0  0  0  0  0
   -8.0130   17.7357  -32.6842 H   0  0  0  0  0  0  0  0  0  0  0  0
   -5.7950   18.8494  -32.4369 H   0  0  0  0  0  0  0  0  0  0  0  0
   -4.2231   19.8996  -32.8713 H   0  0  0  0  0  0  0  0  0  0  0  0
    1.3876   19.9355  -35.5421 H   0  0  0  0  0  0  0  0  0  0  0  0
   -0.2041   19.4537  -36.2213 H   0  0  0  0  0  0  0  0  0  0  0  0
    0.2865   21.1817  -36.2213 H   0  0  0  0  0  0  0  0  0  0  0  0
    1.0106   19.1772  -32.9925 H   0  0  0  0  0  0  0  0  0  0  0  0
   -0.7870   20.5958  -30.1223 H   0  0  0  0  0  0  0  0  0  0  0  0
   -1.8058   19.1976  -30.6055 H   0  0  0  0  0  0  0  0  0  0  0  0
   -0.0158   19.0471  -30.6055 H   0  0  0  0  0  0  0  0  0  0  0  0
   -3.8832   23.1273  -28.3576 H   0  0  0  0  0  0  0  0  0  0  0  0
   -4.1513   20.8917  -27.2893 H   0  0  0  0  0  0  0  0  0  0  0  0
  1  2  1  0
  2  3  2  0
  3  4  1  0
  4  5  2  0
  5  6  1  0
  6  7  1  0
  7  8  1  0
  8  9  2  0
  8 10  1  0
 10 11  2  0
 11 12  1  0
 12 13  1  0
 13 14  2  0
 14 15  1  0
 15 16  2  0
 16 17  1  0
 17 18  2  0
 12 19  2  0
 19 20  1  0
 20 21  1  0
 21 22  1  0
 22 23  2  0
 23 24  1  0
 23 25  1  0
 25 26  2  0
 26 27  1  0
 20 28  2  0
  5 29  1  0
 29 30  2  0
 30  2  1  0
 28 10  1  0
 18 13  1  0
 26 21  1  0
  1 31  1  0
  1 32  1  0
  1 33  1  0
  3 34  1  0
  4 35  1  0
  6 36  1  0
  6 37  1  0
 11 38  1  0
 14 39  1  0
 15 40  1  0
 16 41  1  0
 17 42  1  0
 18 43  1  0
 19 44  1  0
 24 45  1  0
 24 46  1  0
 24 47  1  0
 25 48  1  0
 27 49  1  0
 27 50  1  0
 27 51  1  0
 29 52  1  0
 30 53  1  0
M  CHG  1   7  -1
M  END
>  <UniqueID>  (30) 
30

>  <SMILES>  (30) 
Cc1ccc(C[N-]C(=O)c2cc(-c3ccccc3)cc(-n3nc(C)cc3C)n2)cc1

>  <Energy>  (30) 
92.9240430230335

>  <Genealogy>  (30) 
Cc1ccc(C[N-]C(=O)c2cc(-c3ccccc3)cc(-n3nc(C)cc3C)n2)cc1 (protonated)
Cc1ccc(C[N-]C(=O)c2cc(-c3ccccc3)cc(-n3nc(C)cc3C)n2)cc1 (3D coordinates assigned)
Cc1ccc(C[N-]C(=O)c2cc(-c3ccccc3)cc(-n3nc(C)cc3C)n2)cc1 (optimized conformer: 92.9240430230335 kcal/mol)

>  <smiles>  (30) 
Cc1ccc(CNC(=O)c2cc(-c3ccccc3)cc(-n3nc(C)cc3C)n2)cc1

>  <score_type>  (30) 
oracle

>  <origin>  (30) 
adg

>  <m_score__min__energy>  (30) 
-11.529999999999999

>  <m_primary>  (30) 
energy

$$$$
30:0
     RDKit          3D

 44 46  0  0  0  0  0  0  0  0999 V2000
   -4.2080   23.9410  -31.7190 H   0  0  0  0  0  0  0  0  0  0  0  0
   -4.1550   24.5170  -30.8500 N   0  0  0  0  0  0  0  0  0  0  0  0
   -3.3340   24.2340  -29.8880 C   0  0  0  0  0  0  0  0  0  0  0  0
   -2.6660   25.2730  -29.2410 O   0  0  0  0  0  0  0  0  0  0  0  0
   -1.9290   25.0800  -28.0710 C   0  0  0  0  0  0  0  0  0  0  0  0
   -1.2370   26.1680  -27.5250 C   0  0  0  0  0  0  0  0  0  0  0  0
   -1.2186   27.1273  -28.0629 H   0  0  0  0  0  0  0  0  0  0  0  0
   -0.5650   26.0460  -26.2950 C   0  0  0  0  0  0  0  0  0  0  0  0
    0.1600   27.1430  -25.7060 N   0  0  0  0  0  0  0  0  0  0  0  0
    0.8270   26.9370  -24.9270 H   0  0  0  0  0  0  0  0  0  0  0  0
    0.0410   28.5430  -26.1220 C   0  0  0  0  0  0  0  0  0  0  0  0
    0.7513   28.7354  -26.9396 H   0  0  0  0  0  0  0  0  0  0  0  0
   -0.9926   28.7196  -26.4545 H   0  0  0  0  0  0  0  0  0  0  0  0
    0.3460   29.4990  -24.9590 C   0  0  0  0  0  0  0  0  0  0  0  0
    1.2415   30.0873  -25.2081 H   0  0  0  0  0  0  0  0  0  0  0  0
   -0.5293   30.1494  -24.8147 H   0  0  0  0  0  0  0  0  0  0  0  0
    0.5860   28.7800  -23.7090 N   0  0  0  0  0  0  0  0  0  0  0  0
    0.6760   29.4700  -22.9300 H   0  0  0  0  0  0  0  0  0  0  0  0
   -0.2370   28.1680  -23.5040 H   0  0  0  0  0  0  0  0  0  0  0  0
   -0.6110   24.8190  -25.6180 C   0  0  0  0  0  0  0  0  0  0  0  0
   -0.1007   24.7120  -24.6494 H   0  0  0  0  0  0  0  0  0  0  0  0
   -1.2980   23.7320  -26.1610 C   0  0  0  0  0  0  0  0  0  0  0  0
   -1.3618   22.7903  -25.5961 H   0  0  0  0  0  0  0  0  0  0  0  0
   -1.9100   23.8300  -27.4250 C   0  0  0  0  0  0  0  0  0  0  0  0
   -2.7050   22.6670  -28.0010 C   0  0  2  0  0  0  0  0  0  0  0  0
   -3.6594   22.7473  -27.4600 H   0  0  0  0  0  0  0  0  0  0  0  0
   -2.1570   21.2720  -27.6640 C   0  0  0  0  0  0  0  0  0  0  0  0
   -3.0950   20.3010  -27.2560 C   0  0  0  0  0  0  0  0  0  0  0  0
   -4.1572   20.5760  -27.1777 H   0  0  0  0  0  0  0  0  0  0  0  0
   -2.7010   18.9990  -26.9500 C   0  0  0  0  0  0  0  0  0  0  0  0
   -3.4496   18.2596  -26.6291 H   0  0  0  0  0  0  0  0  0  0  0  0
   -1.3630   18.6340  -27.0500 C   0  0  0  0  0  0  0  0  0  0  0  0
   -1.0529   17.6092  -26.7978 H   0  0  0  0  0  0  0  0  0  0  0  0
   -0.4150   19.5640  -27.4690 C   0  0  0  0  0  0  0  0  0  0  0  0
    0.6413   19.2656  -27.5407 H   0  0  0  0  0  0  0  0  0  0  0  0
   -0.7870   20.8790  -27.8020 C   0  0  0  0  0  0  0  0  0  0  0  0
    0.3250   21.8110  -28.2190 C   0  0  0  0  0  0  0  0  0  0  0  0
    0.8146   22.2214  -27.3235 H   0  0  0  0  0  0  0  0  0  0  0  0
    1.0622   21.2570  -28.8187 H   0  0  0  0  0  0  0  0  0  0  0  0
   -0.0916   22.6337  -28.8187 H   0  0  0  0  0  0  0  0  0  0  0  0
   -3.0480   22.8050  -29.5160 C   0  0  2  0  0  0  0  0  0  0  0  0
   -3.9440   22.1821  -29.6542 H   0  0  0  0  0  0  0  0  0  0  0  0
   -1.9970   22.2980  -30.4130 C   0  0  0  0  0  0  0  0  0  0  0  0
   -1.1690   21.8900  -31.1120 N   0  0  0  0  0  0  0  0  0  0  0  0
  1  2  1  0
  2  3  2  0
  3  4  1  0
  4  5  1  0
  5  6  2  0
  6  7  1  0
  6  8  1  0
  8  9  1  0
  9 10  1  0
  9 11  1  0
 11 12  1  0
 11 13  1  0
 11 14  1  0
 14 15  1  0
 14 16  1  0
 14 17  1  0
 17 18  1  0
 17 19  1  0
  8 20  2  0
 20 21  1  0
 20 22  1  0
 22 23  1  0
 22 24  2  0
 24 25  1  0
 25 26  1  1
 25 27  1  0
 27 28  2  0
 28 29  1  0
 28 30  1  0
 30 31  1  0
 30 32  2  0
 32 33  1  0
 32 34  1  0
 34 35  1  0
 34 36  2  0
 36 37  1  0
 37 38  1  0
 37 39  1  0
 37 40  1  0
 25 41  1  0
 41 42  1  1
 41 43  1  0
 43 44  3  0
 41  3  1  0
 24  5  1  0
 36 27  1  0
M  END
>  <UniqueID>  (31) 
31

>  <SMILES>  (31) 
[H]/N=C1/Oc2cc(NCCN)ccc2[C@H](c2ccccc2C)[C@@H]1C#N

>  <Energy>  (31) 
53.49830413078799

>  <Genealogy>  (31) 
Cc1ccccc1[C@H]1c2ccc(NCCN)cc2OC(=N)[C@H]1C#N (chirality)
[H]/N=C1/Oc2cc(NCCN)ccc2[C@H](c2ccccc2C)[C@@H]1C#N (cis-trans isomerization)
[H]/N=C1/Oc2cc(NCCN)ccc2[C@H](c2ccccc2C)[C@@H]1C#N (3D coordinates assigned)
[H]/N=C1/Oc2cc(NCCN)ccc2[C@H](c2ccccc2C)[C@@H]1C#N (nonaromatic ring conformer: 53.49830413078799 kcal/mol)

>  <smiles>  (31) 
Cc1ccccc1C1c2ccc(NCCN)cc2OC(=N)C1C#N

>  <score_type>  (31) 
oracle

>  <origin>  (31) 
adg

>  <m_score__min__energy>  (31) 
-7.6799999999999997

>  <m_primary>  (31) 
energy

$$$$
31:0
     RDKit          3D

 47 49  0  0  0  0  0  0  0  0999 V2000
   -5.6580   25.3480  -30.0500 C   0  0  0  0  0  0  0  0  0  0  0  0
   -4.3060   24.9980  -30.3280 O   0  0  0  0  0  0  0  0  0  0  0  0
   -3.8970   23.7580  -30.8410 C   0  0  0  0  0  0  0  0  0  0  0  0
   -4.6900   23.0140  -31.7340 C   0  0  0  0  0  0  0  0  0  0  0  0
   -4.2410   21.7820  -32.2180 C   0  0  0  0  0  0  0  0  0  0  0  0
   -2.9940   21.2700  -31.8230 C   0  0  0  0  0  0  0  0  0  0  0  0
   -2.5410   19.9640  -32.3510 C   0  0  0  0  0  0  0  0  0  0  0  0
   -1.2730   19.6190  -32.7920 C   0  0  0  0  0  0  0  0  0  0  0  0
   -1.3090   18.3360  -33.1900 N   0  0  0  0  0  0  0  0  0  0  0  0
   -2.5800   17.9440  -32.9790 C   0  0  0  0  0  0  0  0  0  0  0  0
   -3.1010   16.5790  -33.3060 C   0  0  0  0  0  0  0  0  0  0  0  0
   -4.4380   16.6620  -33.9320 N   0  0  0  0  0  0  0  0  0  0  0  0
   -5.5120   16.3660  -32.9520 C   0  0  0  0  0  0  0  0  0  0  0  0
   -6.1520   17.6440  -32.3880 C   0  0  0  0  0  0  0  0  0  0  0  0
   -6.7810   18.4640  -33.4550 N   0  0  0  0  0  0  0  0  0  0  0  0
   -6.8840   19.8890  -33.0630 C   0  0  0  0  0  0  0  0  0  0  0  0
   -8.2270   20.2030  -32.3870 C   0  0  0  0  0  0  0  0  0  0  0  0
   -9.2760   19.4820  -32.9770 O   0  0  0  0  0  0  0  0  0  0  0  0
   -6.1160   18.3100  -34.7740 C   0  0  0  0  0  0  0  0  0  0  0  0
   -4.6280   17.9580  -34.6320 C   0  0  0  0  0  0  0  0  0  0  0  0
   -3.3170   18.9110  -32.4810 O   0  0  0  0  0  0  0  0  0  0  0  0
   -2.2050   22.0160  -30.9310 C   0  0  0  0  0  0  0  0  0  0  0  0
   -2.6540   23.2490  -30.4460 C   0  0  0  0  0  0  0  0  0  0  0  0
   -1.8760   23.9520  -29.5860 F   0  0  0  0  0  0  0  0  0  0  0  0
   -5.8101   25.3874  -28.9613 H   0  0  0  0  0  0  0  0  0  0  0  0
   -5.8791   26.3330  -30.4870 H   0  0  0  0  0  0  0  0  0  0  0  0
   -6.3292   24.5940  -30.4870 H   0  0  0  0  0  0  0  0  0  0  0  0
   -5.6680   23.4038  -32.0527 H   0  0  0  0  0  0  0  0  0  0  0  0
   -4.8699   21.2081  -32.9146 H   0  0  0  0  0  0  0  0  0  0  0  0
   -0.3930   20.2787  -32.8125 H   0  0  0  0  0  0  0  0  0  0  0  0
   -0.5240   17.7730  -33.5840 H   0  0  0  0  0  0  0  0  0  0  0  0
   -2.4070   16.0856  -34.0024 H   0  0  0  0  0  0  0  0  0  0  0  0
   -3.1841   16.0012  -32.3736 H   0  0  0  0  0  0  0  0  0  0  0  0
   -6.2910   15.7697  -33.4496 H   0  0  0  0  0  0  0  0  0  0  0  0
   -5.0611   15.8158  -32.1130 H   0  0  0  0  0  0  0  0  0  0  0  0
   -6.9222   17.3626  -31.6547 H   0  0  0  0  0  0  0  0  0  0  0  0
   -5.3590   18.2445  -31.9184 H   0  0  0  0  0  0  0  0  0  0  0  0
   -6.0697   20.1245  -32.3620 H   0  0  0  0  0  0  0  0  0  0  0  0
   -6.8115   20.4990  -33.9755 H   0  0  0  0  0  0  0  0  0  0  0  0
   -8.1631   19.9356  -31.3219 H   0  0  0  0  0  0  0  0  0  0  0  0
   -8.4333   21.2768  -32.5072 H   0  0  0  0  0  0  0  0  0  0  0  0
   -8.8750   18.9550  -33.7180 H   0  0  0  0  0  0  0  0  0  0  0  0
   -6.6188   17.5073  -35.3333 H   0  0  0  0  0  0  0  0  0  0  0  0
   -6.1881   19.2710  -35.3044 H   0  0  0  0  0  0  0  0  0  0  0  0
   -4.1795   17.8917  -35.6342 H   0  0  0  0  0  0  0  0  0  0  0  0
   -4.1431   18.7455  -34.0364 H   0  0  0  0  0  0  0  0  0  0  0  0
   -1.2267   21.6274  -30.6116 H   0  0  0  0  0  0  0  0  0  0  0  0
  1  2  1  0
  2  3  1  0
  3  4  2  0
  4  5  1  0
  5  6  2  0
  6  7  1  0
  7  8  2  0
  8  9  1  0
  9 10  2  0
 10 11  1  0
 11 12  1  0
 12 13  1  0
 13 14  1  0
 14 15  1  0
 15 16  1  0
 16 17  1  0
 17 18  1  0
 15 19  1  0
 19 20  1  0
 10 21  1  0
  6 22  1  0
 22 23  2  0
 23 24  1  0
 23  3  1  0
 21  7  1  0
 20 12  1  0
  1 25  1  0
  1 26  1  0
  1 27  1  0
  4 28  1  0
  5 29  1  0
  8 30  1  0
  9 31  1  0
 11 32  1  0
 11 33  1  0
 13 34  1  0
 13 35  1  0
 14 36  1  0
 14 37  1  0
 16 38  1  0
 16 39  1  0
 17 40  1  0
 17 41  1  0
 18 42  1  0
 19 43  1  0
 19 44  1  0
 20 45  1  0
 20 46  1  0
 22 47  1  0
M  CHG  1   9   1
M  END
>  <UniqueID>  (32) 
32

>  <SMILES>  (32) 
COc1ccc(-c2c[nH+]c(CN3CCN(CCO)CC3)o2)cc1F

>  <Energy>  (32) 
91.20236237864488

>  <Genealogy>  (32) 
COc1ccc(-c2c[nH+]c(CN3CCN(CCO)CC3)o2)cc1F (protonated)
COc1ccc(-c2c[nH+]c(CN3CCN(CCO)CC3)o2)cc1F (3D coordinates assigned)
COc1ccc(-c2c[nH+]c(CN3CCN(CCO)CC3)o2)cc1F (nonaromatic ring conformer: 91.20236237864488 kcal/mol)

>  <smiles>  (32) 
COc1ccc(-c2cnc(CN3CCN(CCO)CC3)o2)cc1F

>  <score_type>  (32) 
oracle

>  <origin>  (32) 
adg

>  <m_score__min__energy>  (32) 
-7.0700000000000003

>  <m_primary>  (32) 
energy

$$$$
32:0
     RDKit          3D

 53 55  0  0  0  0  0  0  0  0999 V2000
   -5.1890   15.0890  -33.3230 C   0  0  0  0  0  0  0  0  0  0  0  0
   -6.3660   15.8810  -33.4700 O   0  0  0  0  0  0  0  0  0  0  0  0
   -6.4320   17.2550  -33.2010 C   0  0  0  0  0  0  0  0  0  0  0  0
   -6.1180   18.2310  -34.1670 C   0  0  0  0  0  0  0  0  0  0  0  0
   -6.2010   19.5890  -33.8500 C   0  0  0  0  0  0  0  0  0  0  0  0
   -6.6080   19.9890  -32.5680 C   0  0  0  0  0  0  0  0  0  0  0  0
   -6.7170   21.3880  -32.2530 N   0  0  0  0  0  0  0  0  0  0  0  0
   -5.5040   22.1920  -32.4890 C   0  0  0  0  0  0  0  0  0  0  0  0
   -5.7360   23.7020  -32.3400 C   0  0  0  0  0  0  0  0  0  0  0  0
   -6.6120   24.0450  -31.2070 N   0  0  0  0  0  0  0  0  0  0  0  0
   -5.9920   23.8040  -29.8880 C   0  0  0  0  0  0  0  0  0  0  0  0
   -4.5440   24.2220  -29.9080 C   0  0  0  0  0  0  0  0  0  0  0  0
   -4.2480   25.2840  -30.5220 O   0  0  0  0  0  0  0  0  0  0  0  0
   -3.5060   23.4640  -29.2410 N   0  0  0  0  0  0  0  0  0  0  0  0
   -3.8440   22.4350  -28.2430 C   0  0  0  0  0  0  0  0  0  0  0  0
   -2.6000   21.9250  -27.5000 C   0  0  0  0  0  0  0  0  0  0  0  0
   -1.7120   23.1000  -27.0700 C   0  0  0  0  0  0  0  0  0  0  0  0
   -1.3060   24.0050  -28.2520 C   0  0  0  0  0  0  0  0  0  0  0  0
   -2.0870   23.7210  -29.5410 C   0  0  0  0  0  0  0  0  0  0  0  0
   -7.9180   23.3840  -31.3550 C   0  0  0  0  0  0  0  0  0  0  0  0
   -7.8020   21.8480  -31.3620 C   0  0  1  0  0  0  0  0  0  0  0  0
   -9.1540   21.2500  -31.7820 C   0  0  0  0  0  0  0  0  0  0  0  0
   -6.9140   19.0180  -31.6050 C   0  0  0  0  0  0  0  0  0  0  0  0
   -6.8310   17.6600  -31.9240 C   0  0  0  0  0  0  0  0  0  0  0  0
   -4.9751   14.9451  -32.2536 H   0  0  0  0  0  0  0  0  0  0  0  0
   -5.3435   14.1104  -33.8010 H   0  0  0  0  0  0  0  0  0  0  0  0
   -4.3407   15.6007  -33.8010 H   0  0  0  0  0  0  0  0  0  0  0  0
   -5.8060   17.9224  -35.1757 H   0  0  0  0  0  0  0  0  0  0  0  0
   -5.9469   20.3460  -34.6066 H   0  0  0  0  0  0  0  0  0  0  0  0
   -4.7351   21.8841  -31.7651 H   0  0  0  0  0  0  0  0  0  0  0  0
   -5.1918   22.0120  -33.5283 H   0  0  0  0  0  0  0  0  0  0  0  0
   -4.7627   24.1922  -32.1904 H   0  0  0  0  0  0  0  0  0  0  0  0
   -6.2362   24.0480  -33.2566 H   0  0  0  0  0  0  0  0  0  0  0  0
   -6.5274   24.3859  -29.1233 H   0  0  0  0  0  0  0  0  0  0  0  0
   -6.0521   22.7308  -29.6544 H   0  0  0  0  0  0  0  0  0  0  0  0
   -4.5432   22.8658  -27.5112 H   0  0  0  0  0  0  0  0  0  0  0  0
   -4.2972   21.5837  -28.7721 H   0  0  0  0  0  0  0  0  0  0  0  0
   -2.9157   21.3643  -26.6078 H   0  0  0  0  0  0  0  0  0  0  0  0
   -2.0254   21.2727  -28.1740 H   0  0  0  0  0  0  0  0  0  0  0  0
   -2.2624   23.7064  -26.3357 H   0  0  0  0  0  0  0  0  0  0  0  0
   -0.7899   22.6797  -26.6421 H   0  0  0  0  0  0  0  0  0  0  0  0
   -1.4802   25.0522  -27.9637 H   0  0  0  0  0  0  0  0  0  0  0  0
   -0.2466   23.7998  -28.4656 H   0  0  0  0  0  0  0  0  0  0  0  0
   -2.0106   24.5914  -30.2093 H   0  0  0  0  0  0  0  0  0  0  0  0
   -1.6599   22.8307  -30.0257 H   0  0  0  0  0  0  0  0  0  0  0  0
   -8.5634   23.6856  -30.5169 H   0  0  0  0  0  0  0  0  0  0  0  0
   -8.3420   23.6925  -32.3220 H   0  0  0  0  0  0  0  0  0  0  0  0
   -7.5457   21.5034  -30.3493 H   0  0  0  0  0  0  0  0  0  0  0  0
   -9.7358   20.9927  -30.8846 H   0  0  0  0  0  0  0  0  0  0  0  0
   -9.7103   21.9860  -32.3810 H   0  0  0  0  0  0  0  0  0  0  0  0
   -8.9837   20.3433  -32.3810 H   0  0  0  0  0  0  0  0  0  0  0  0
   -7.2206   19.3259  -30.5944 H   0  0  0  0  0  0  0  0  0  0  0  0
   -7.0814   16.9044  -31.1648 H   0  0  0  0  0  0  0  0  0  0  0  0
  1  2  1  0
  2  3  1  0
  3  4  2  0
  4  5  1  0
  5  6  2  0
  6  7  1  0
  7  8  1  0
  8  9  1  0
  9 10  1  0
 10 11  1  0
 11 12  1  0
 12 13  2  0
 12 14  1  0
 14 15  1  0
 15 16  1  0
 16 17  1  0
 17 18  1  0
 18 19  1  0
 10 20  1  0
 20 21  1  0
 21 22  1  0
  6 23  1  0
 23 24  2  0
 24  3  1  0
 21  7  1  0
 19 14  1  0
  1 25  1  0
  1 26  1  0
  1 27  1  0
  4 28  1  0
  5 29  1  0
  8 30  1  0
  8 31  1  0
  9 32  1  0
  9 33  1  0
 11 34  1  0
 11 35  1  0
 15 36  1  0
 15 37  1  0
 16 38  1  0
 16 39  1  0
 17 40  1  0
 17 41  1  0
 18 42  1  0
 18 43  1  0
 19 44  1  0
 19 45  1  0
 20 46  1  0
 20 47  1  0
 21 48  1  1
 22 49  1  0
 22 50  1  0
 22 51  1  0
 23 52  1  0
 24 53  1  0
M  END
>  <UniqueID>  (33) 
33

>  <SMILES>  (33) 
COc1ccc(N2CCN(CC(=O)N3CCCCC3)C[C@H]2C)cc1

>  <Energy>  (33) 
63.14356230351906

>  <Genealogy>  (33) 
COc1ccc(N2CCN(CC(=O)N3CCCCC3)C[C@H]2C)cc1 (chirality)
COc1ccc(N2CCN(CC(=O)N3CCCCC3)C[C@H]2C)cc1 (3D coordinates assigned)
COc1ccc(N2CCN(CC(=O)N3CCCCC3)C[C@H]2C)cc1 (nonaromatic ring conformer: 63.14356230351906 kcal/mol)

>  <smiles>  (33) 
COc1ccc(N2CCN(CC(=O)N3CCCCC3)CC2C)cc1

>  <score_type>  (33) 
oracle

>  <origin>  (33) 
adg

>  <m_score__min__energy>  (33) 
-8.6400000000000006

>  <m_primary>  (33) 
energy

$$$$
33:0
     RDKit          3D

 39 42  0  0  0  0  0  0  0  0999 V2000
    0.1850   17.9010  -27.8430 C   0  0  0  0  0  0  0  0  0  0  0  0
   -1.0590   18.4520  -27.4240 O   0  0  0  0  0  0  0  0  0  0  0  0
   -1.6200   19.6280  -27.9450 C   0  0  0  0  0  0  0  0  0  0  0  0
   -1.1770   20.0790  -29.1930 C   0  0  0  0  0  0  0  0  0  0  0  0
   -1.7050   21.2450  -29.7540 C   0  0  0  0  0  0  0  0  0  0  0  0
   -2.6920   21.9760  -29.0750 C   0  0  0  0  0  0  0  0  0  0  0  0
   -3.2520   23.2070  -29.6710 C   0  0  0  0  0  0  0  0  0  0  0  0
   -4.2450   23.3300  -30.6360 C   0  0  0  0  0  0  0  0  0  0  0  0
   -5.1010   22.2660  -31.2020 C   0  0  0  0  0  0  0  0  0  0  0  0
   -4.5390   21.1150  -31.7860 C   0  0  0  0  0  0  0  0  0  0  0  0
   -5.3590   20.1110  -32.3110 C   0  0  0  0  0  0  0  0  0  0  0  0
   -6.7480   20.2400  -32.2450 C   0  0  0  0  0  0  0  0  0  0  0  0
   -7.5590   19.2730  -32.7500 N   0  0  0  0  0  0  0  0  0  0  0  0
   -8.9120   19.3880  -32.6860 C   0  0  0  0  0  0  0  0  0  0  0  0
   -9.4820   20.5180  -32.0900 C   0  0  0  0  0  0  0  0  0  0  0  0
   -8.6750   21.4870  -31.5830 N   0  0  0  0  0  0  0  0  0  0  0  0
   -7.3210   21.3780  -31.6440 C   0  0  0  0  0  0  0  0  0  0  0  0
   -6.5010   22.3810  -31.1200 C   0  0  0  0  0  0  0  0  0  0  0  0
   -4.3600   24.6280  -30.9850 N   0  0  0  0  0  0  0  0  0  0  0  0
   -3.4910   25.2970  -30.2840 O   0  0  0  0  0  0  0  0  0  0  0  0
   -2.8030   24.5050  -29.4950 C   0  0  0  0  0  0  0  0  0  0  0  0
   -1.7180   24.9760  -28.5820 C   0  0  0  0  0  0  0  0  0  0  0  0
   -3.1350   21.5280  -27.8220 C   0  0  0  0  0  0  0  0  0  0  0  0
   -2.6070   20.3620  -27.2600 C   0  0  0  0  0  0  0  0  0  0  0  0
    0.7845   17.6355  -26.9598 H   0  0  0  0  0  0  0  0  0  0  0  0
    0.0021   16.9997  -28.4465 H   0  0  0  0  0  0  0  0  0  0  0  0
    0.7296   18.6421  -28.4465 H   0  0  0  0  0  0  0  0  0  0  0  0
   -0.4073   19.5116  -29.7368 H   0  0  0  0  0  0  0  0  0  0  0  0
   -1.3448   21.5919  -30.7337 H   0  0  0  0  0  0  0  0  0  0  0  0
   -3.4455   21.0043  -31.8298 H   0  0  0  0  0  0  0  0  0  0  0  0
   -4.9103   19.2205  -32.7755 H   0  0  0  0  0  0  0  0  0  0  0  0
   -9.5547   18.5973  -33.1003 H   0  0  0  0  0  0  0  0  0  0  0  0
  -10.5756   20.6216  -32.0321 H   0  0  0  0  0  0  0  0  0  0  0  0
   -6.9515   23.2633  -30.6419 H   0  0  0  0  0  0  0  0  0  0  0  0
   -2.0330   24.8392  -27.5370 H   0  0  0  0  0  0  0  0  0  0  0  0
   -0.8035   24.3939  -28.7684 H   0  0  0  0  0  0  0  0  0  0  0  0
   -1.5187   26.0416  -28.7684 H   0  0  0  0  0  0  0  0  0  0  0  0
   -3.9028   22.0977  -27.2780 H   0  0  0  0  0  0  0  0  0  0  0  0
   -2.9641   20.0166  -26.2786 H   0  0  0  0  0  0  0  0  0  0  0  0
  1  2  1  0
  2  3  1  0
  3  4  2  0
  4  5  1  0
  5  6  2  0
  6  7  1  0
  7  8  1  0
  8  9  1  0
  9 10  2  0
 10 11  1  0
 11 12  2  0
 12 13  1  0
 13 14  2  0
 14 15  1  0
 15 16  2  0
 16 17  1  0
 17 18  2  0
  8 19  2  0
 19 20  1  0
 20 21  1  0
 21 22  1  0
  6 23  1  0
 23 24  2  0
 24  3  1  0
 21  7  2  0
 18  9  1  0
 17 12  1  0
  1 25  1  0
  1 26  1  0
  1 27  1  0
  4 28  1  0
  5 29  1  0
 10 30  1  0
 11 31  1  0
 14 32  1  0
 15 33  1  0
 18 34  1  0
 22 35  1  0
 22 36  1  0
 22 37  1  0
 23 38  1  0
 24 39  1  0
M  END
>  <UniqueID>  (34) 
34

>  <SMILES>  (34) 
COc1ccc(-c2c(-c3ccc4nccnc4c3)noc2C)cc1

>  <Energy>  (34) 
85.03949894838323

>  <Genealogy>  (34) 
COc1ccc(-c2c(-c3ccc4nccnc4c3)noc2C)cc1 (3D coordinates assigned)
COc1ccc(-c2c(-c3ccc4nccnc4c3)noc2C)cc1 (optimized conformer: 85.03949894838323 kcal/mol)

>  <smiles>  (34) 
COc1ccc(-c2c(-c3ccc4nccnc4c3)noc2C)cc1

>  <score_type>  (34) 
oracle

>  <origin>  (34) 
adg

>  <m_score__min__energy>  (34) 
-8.7899999999999991

>  <m_primary>  (34) 
energy

$$$$
34:0
     RDKit          3D

 39 41  0  0  0  0  0  0  0  0999 V2000
   -4.8510   18.2070  -34.5830 C   0  0  0  0  0  0  0  0  0  0  0  0
   -5.5580   19.2900  -33.9900 O   0  0  0  0  0  0  0  0  0  0  0  0
   -6.6310   19.1460  -33.0950 C   0  0  0  0  0  0  0  0  0  0  0  0
   -7.3180   17.9240  -32.9440 C   0  0  0  0  0  0  0  0  0  0  0  0
   -8.3690   17.8130  -32.0300 C   0  0  0  0  0  0  0  0  0  0  0  0
   -8.7490   18.9130  -31.2610 C   0  0  0  0  0  0  0  0  0  0  0  0
   -8.0780   20.1300  -31.4020 C   0  0  0  0  0  0  0  0  0  0  0  0
   -7.0200   20.2540  -32.3170 C   0  0  0  0  0  0  0  0  0  0  0  0
   -6.3610   21.5190  -32.4690 N   0  0  0  0  0  0  0  0  0  0  0  0
   -4.9040   21.5750  -32.6050 C   0  0  0  0  0  0  0  0  0  0  0  0
   -4.3200   22.4560  -31.4970 C   0  0  0  0  0  0  0  0  0  0  0  0
   -5.0520   23.7310  -31.3630 N   0  0  0  0  0  0  0  0  0  0  0  0
   -4.5650   24.7830  -30.4940 C   0  0  0  0  0  0  0  0  0  0  0  0
   -5.0310   25.9540  -30.6150 O   0  0  0  0  0  0  0  0  0  0  0  0
   -3.5330   24.5550  -29.4520 C   0  0  0  0  0  0  0  0  0  0  0  0
   -3.6240   23.6180  -28.4360 C   0  0  0  0  0  0  0  0  0  0  0  0
   -2.4620   23.7460  -27.7030 C   0  0  0  0  0  0  0  0  0  0  0  0
   -1.7380   24.7570  -28.3070 C   0  0  0  0  0  0  0  0  0  0  0  0
   -2.4000   25.2130  -29.3460 O   0  0  0  0  0  0  0  0  0  0  0  0
   -6.2180   23.9860  -32.2270 C   0  0  0  0  0  0  0  0  0  0  0  0
   -7.1300   22.7540  -32.2820 C   0  0  0  0  0  0  0  0  0  0  0  0
   -4.4325   17.5660  -33.7931 H   0  0  0  0  0  0  0  0  0  0  0  0
   -5.5390   17.6179  -35.2072 H   0  0  0  0  0  0  0  0  0  0  0  0
   -4.0349   18.5998  -35.2072 H   0  0  0  0  0  0  0  0  0  0  0  0
   -7.0250   17.0533  -33.5490 H   0  0  0  0  0  0  0  0  0  0  0  0
   -8.8983   16.8554  -31.9165 H   0  0  0  0  0  0  0  0  0  0  0  0
   -9.5775   18.8220  -30.5432 H   0  0  0  0  0  0  0  0  0  0  0  0
   -8.3798   20.9952  -30.7935 H   0  0  0  0  0  0  0  0  0  0  0  0
   -4.4890   20.5596  -32.5228 H   0  0  0  0  0  0  0  0  0  0  0  0
   -4.6439   21.9998  -33.5858 H   0  0  0  0  0  0  0  0  0  0  0  0
   -4.3768   21.9115  -30.5429 H   0  0  0  0  0  0  0  0  0  0  0  0
   -3.2775   22.6879  -31.7603 H   0  0  0  0  0  0  0  0  0  0  0  0
   -4.4514   22.9169  -28.2516 H   0  0  0  0  0  0  0  0  0  0  0  0
   -2.1708   23.1620  -26.8175 H   0  0  0  0  0  0  0  0  0  0  0  0
   -0.7574   25.1236  -27.9692 H   0  0  0  0  0  0  0  0  0  0  0  0
   -6.7858   24.8383  -31.8254 H   0  0  0  0  0  0  0  0  0  0  0  0
   -5.8632   24.2098  -33.2439 H   0  0  0  0  0  0  0  0  0  0  0  0
   -7.6928   22.6845  -31.3394 H   0  0  0  0  0  0  0  0  0  0  0  0
   -7.8100   22.8682  -33.1390 H   0  0  0  0  0  0  0  0  0  0  0  0
  1  2  1  0
  2  3  1  0
  3  4  2  0
  4  5  1  0
  5  6  2  0
  6  7  1  0
  7  8  2  0
  8  9  1  0
  9 10  1  0
 10 11  1  0
 11 12  1  0
 12 13  1  0
 13 14  2  0
 13 15  1  0
 15 16  2  0
 16 17  1  0
 17 18  2  0
 18 19  1  0
 12 20  1  0
 20 21  1  0
  8  3  1  0
 21  9  1  0
 19 15  1  0
  1 22  1  0
  1 23  1  0
  1 24  1  0
  4 25  1  0
  5 26  1  0
  6 27  1  0
  7 28  1  0
 10 29  1  0
 10 30  1  0
 11 31  1  0
 11 32  1  0
 16 33  1  0
 17 34  1  0
 18 35  1  0
 20 36  1  0
 20 37  1  0
 21 38  1  0
 21 39  1  0
M  END
>  <UniqueID>  (35) 
35

>  <SMILES>  (35) 
COc1ccccc1N1CCN(C(=O)c2ccco2)CC1

>  <Energy>  (35) 
73.13459255168442

>  <Genealogy>  (35) 
COc1ccccc1N1CCN(C(=O)c2ccco2)CC1 (3D coordinates assigned)
COc1ccccc1N1CCN(C(=O)c2ccco2)CC1 (nonaromatic ring conformer: 73.13459255168442 kcal/mol)

>  <smiles>  (35) 
COc1ccccc1N1CCN(C(=O)c2ccco2)CC1

>  <score_type>  (35) 
oracle

>  <origin>  (35) 
adg

>  <m_score__min__energy>  (35) 
-7.8300000000000001

>  <m_primary>  (35) 
energy

$$$$
35:0
     RDKit          3D

 44 46  0  0  0  0  0  0  0  0999 V2000
   -0.3720   23.9620  -29.1360 H   0  0  0  0  0  0  0  0  0  0  0  0
    0.1070   24.6310  -28.5800 O   0  0  0  0  0  0  0  0  0  0  0  0
   -0.6800   24.8430  -27.4410 C   0  0  0  0  0  0  0  0  0  0  0  0
   -0.3727   25.7818  -26.9571 H   0  0  0  0  0  0  0  0  0  0  0  0
   -0.5420   23.9997  -26.7483 H   0  0  0  0  0  0  0  0  0  0  0  0
   -2.1580   24.9340  -27.8270 C   0  0  0  0  0  0  0  0  0  0  0  0
   -2.5673   25.8868  -27.4601 H   0  0  0  0  0  0  0  0  0  0  0  0
   -2.6908   24.0850  -27.3740 H   0  0  0  0  0  0  0  0  0  0  0  0
   -2.3230   24.8700  -29.2440 O   0  0  0  0  0  0  0  0  0  0  0  0
   -2.7860   23.7820  -30.0130 C   0  0  0  0  0  0  0  0  0  0  0  0
   -3.8930   24.0300  -30.8430 C   0  0  0  0  0  0  0  0  0  0  0  0
   -4.4430   25.3220  -30.8470 O   0  0  0  0  0  0  0  0  0  0  0  0
   -5.7430   25.6500  -30.3660 C   0  0  0  0  0  0  0  0  0  0  0  0
   -5.7381   25.6488  -29.2660 H   0  0  0  0  0  0  0  0  0  0  0  0
   -6.0277   26.6481  -30.7303 H   0  0  0  0  0  0  0  0  0  0  0  0
   -6.4671   24.9064  -30.7303 H   0  0  0  0  0  0  0  0  0  0  0  0
   -4.4120   23.0020  -31.6480 C   0  0  0  0  0  0  0  0  0  0  0  0
   -5.2644   23.2079  -32.3121 H   0  0  0  0  0  0  0  0  0  0  0  0
   -3.8550   21.7190  -31.6130 C   0  0  0  0  0  0  0  0  0  0  0  0
   -4.3670   20.6340  -32.4770 C   0  0  0  0  0  0  0  0  0  0  0  0
   -3.7595   20.3337  -33.3435 H   0  0  0  0  0  0  0  0  0  0  0  0
   -5.5260   19.9940  -32.2690 C   0  0  0  0  0  0  0  0  0  0  0  0
   -5.7710   18.5410  -32.2240 C   0  0  0  0  0  0  0  0  0  0  0  0
   -4.9980   17.7638  -32.3157 H   0  0  0  0  0  0  0  0  0  0  0  0
   -7.0740   18.3140  -32.0550 C   0  0  0  0  0  0  0  0  0  0  0  0
   -7.5497   17.3251  -31.9790 H   0  0  0  0  0  0  0  0  0  0  0  0
   -7.7620   19.5980  -31.9880 C   0  0  0  0  0  0  0  0  0  0  0  0
   -9.1200   19.8640  -31.8270 C   0  0  0  0  0  0  0  0  0  0  0  0
   -9.8473   19.0454  -31.7222 H   0  0  0  0  0  0  0  0  0  0  0  0
   -9.5360   21.2070  -31.8020 C   0  0  0  0  0  0  0  0  0  0  0  0
  -10.6020   21.4479  -31.6767 H   0  0  0  0  0  0  0  0  0  0  0  0
   -8.5920   22.2470  -31.9370 C   0  0  0  0  0  0  0  0  0  0  0  0
   -8.9264   23.2947  -31.9152 H   0  0  0  0  0  0  0  0  0  0  0  0
   -7.2280   21.9530  -32.0990 C   0  0  0  0  0  0  0  0  0  0  0  0
   -6.4851   22.7573  -32.2048 H   0  0  0  0  0  0  0  0  0  0  0  0
   -6.8410   20.6110  -32.1220 C   0  0  0  0  0  0  0  0  0  0  0  0
   -2.7450   21.4740  -30.8000 C   0  0  0  0  0  0  0  0  0  0  0  0
   -2.2826   20.4759  -30.8007 H   0  0  0  0  0  0  0  0  0  0  0  0
   -2.2090   22.4870  -29.9790 C   0  0  0  0  0  0  0  0  0  0  0  0
   -1.1300   22.2200  -29.1230 O   0  0  0  0  0  0  0  0  0  0  0  0
   -1.0330   21.0990  -28.2510 C   0  0  0  0  0  0  0  0  0  0  0  0
   -1.0628   21.4432  -27.2067 H   0  0  0  0  0  0  0  0  0  0  0  0
   -1.8754   20.4164  -28.4363 H   0  0  0  0  0  0  0  0  0  0  0  0
   -0.0858   20.5712  -28.4363 H   0  0  0  0  0  0  0  0  0  0  0  0
  1  2  1  0
  2  3  1  0
  3  4  1  0
  3  5  1  0
  3  6  1  0
  6  7  1  0
  6  8  1  0
  6  9  1  0
  9 10  1  0
 10 11  2  0
 11 12  1  0
 12 13  1  0
 13 14  1  0
 13 15  1  0
 13 16  1  0
 11 17  1  0
 17 18  1  0
 17 19  2  0
 19 20  1  0
 20 21  1  0
 20 22  2  0
 22 23  1  0
 23 24  1  0
 23 25  2  0
 25 26  1  0
 25 27  1  0
 27 28  2  0
 28 29  1  0
 28 30  1  0
 30 31  1  0
 30 32  2  0
 32 33  1  0
 32 34  1  0
 34 35  1  0
 34 36  2  0
 19 37  1  0
 37 38  1  0
 37 39  2  0
 39 40  1  0
 40 41  1  0
 41 42  1  0
 41 43  1  0
 41 44  1  0
 39 10  1  0
 36 22  1  0
 36 27  1  0
M  END
>  <UniqueID>  (36) 
36

>  <SMILES>  (36) 
COc1cc(/C=C2\C=Cc3ccccc32)cc(OC)c1OCCO

>  <Energy>  (36) 
78.91437590182129

>  <Genealogy>  (36) 
COc1cc(/C=C2\C=Cc3ccccc32)cc(OC)c1OCCO (cis-trans isomerization)
COc1cc(/C=C2\C=Cc3ccccc32)cc(OC)c1OCCO (3D coordinates assigned)
COc1cc(/C=C2\C=Cc3ccccc32)cc(OC)c1OCCO (nonaromatic ring conformer: 78.91437590182129 kcal/mol)

>  <smiles>  (36) 
COc1cc(C=C2C=Cc3ccccc32)cc(OC)c1OCCO

>  <score_type>  (36) 
oracle

>  <origin>  (36) 
adg

>  <m_score__min__energy>  (36) 
-9.2699999999999996

>  <m_primary>  (36) 
energy

$$$$
36:0
     RDKit          3D

 48 50  0  0  0  0  0  0  0  0999 V2000
   -3.7544   25.3949  -30.1224 H   0  0  0  0  0  0  0  0  0  0  0  0
   -4.5320   24.6860  -30.4430 C   0  0  0  0  0  0  0  0  0  0  0  0
   -5.8730   25.0610  -30.4150 C   0  0  0  0  0  0  0  0  0  0  0  0
   -6.1520   26.0679  -30.0711 H   0  0  0  0  0  0  0  0  0  0  0  0
   -6.8660   24.1660  -30.8210 C   0  0  0  0  0  0  0  0  0  0  0  0
   -7.9212   24.4752  -30.7909 H   0  0  0  0  0  0  0  0  0  0  0  0
   -6.5300   22.8620  -31.2720 C   0  0  0  0  0  0  0  0  0  0  0  0
   -5.1630   22.5040  -31.2880 C   0  0  0  0  0  0  0  0  0  0  0  0
   -4.7830   21.2870  -31.7310 N   0  0  0  0  0  0  0  0  0  0  0  0
   -5.6400   20.3270  -32.1530 C   0  0  0  0  0  0  0  0  0  0  0  0
   -5.0750   19.2690  -32.6790 N   0  0  0  0  0  0  0  0  0  0  0  0
   -4.5470   18.9790  -34.0060 C   0  0  0  0  0  0  0  0  0  0  0  0
   -4.2165   19.9135  -34.4830 H   0  0  0  0  0  0  0  0  0  0  0  0
   -5.3305   18.5143  -34.6225 H   0  0  0  0  0  0  0  0  0  0  0  0
   -3.3600   18.0230  -33.8760 C   0  0  0  0  0  0  0  0  0  0  0  0
   -3.1278   17.6184  -34.8722 H   0  0  0  0  0  0  0  0  0  0  0  0
   -3.6535   17.2366  -33.1651 H   0  0  0  0  0  0  0  0  0  0  0  0
   -2.0880   18.6950  -33.3120 C   0  0  0  0  0  0  0  0  0  0  0  0
   -1.3954   18.8832  -34.1456 H   0  0  0  0  0  0  0  0  0  0  0  0
   -1.6653   18.0085  -32.5636 H   0  0  0  0  0  0  0  0  0  0  0  0
   -2.3540   19.9910  -32.6170 N   0  0  0  0  0  0  0  0  0  0  0  0
   -3.3850   20.0330  -32.4280 H   0  0  0  0  0  0  0  0  0  0  0  0
   -2.0990   21.1850  -33.4710 C   0  0  0  0  0  0  0  0  0  0  0  0
   -2.1188   22.0749  -32.8247 H   0  0  0  0  0  0  0  0  0  0  0  0
   -2.8846   21.1800  -34.2410 H   0  0  0  0  0  0  0  0  0  0  0  0
   -0.7660   21.1800  -34.2280 C   0  0  0  0  0  0  0  0  0  0  0  0
    0.0650   21.1769  -33.5072 H   0  0  0  0  0  0  0  0  0  0  0  0
   -0.7066   20.2816  -34.8600 H   0  0  0  0  0  0  0  0  0  0  0  0
   -0.6999   22.0779  -34.8600 H   0  0  0  0  0  0  0  0  0  0  0  0
   -1.7460   20.1020  -31.2580 C   0  0  0  0  0  0  0  0  0  0  0  0
   -2.4725   19.7120  -30.5299 H   0  0  0  0  0  0  0  0  0  0  0  0
   -0.8074   19.5301  -31.3021 H   0  0  0  0  0  0  0  0  0  0  0  0
   -1.3500   21.5260  -30.8160 C   0  0  0  0  0  0  0  0  0  0  0  0
   -1.3355   21.5782  -29.7173 H   0  0  0  0  0  0  0  0  0  0  0  0
   -0.3508   21.7670  -31.2078 H   0  0  0  0  0  0  0  0  0  0  0  0
   -2.0814   22.2482  -31.2078 H   0  0  0  0  0  0  0  0  0  0  0  0
   -7.0510   20.5780  -32.0660 C   0  0  0  0  0  0  0  0  0  0  0  0
   -8.0430   19.5910  -32.2910 C   0  0  0  0  0  0  0  0  0  0  0  0
   -7.7340   18.5532  -32.4844 H   0  0  0  0  0  0  0  0  0  0  0  0
   -9.3980   19.9040  -32.2730 C   0  0  0  0  0  0  0  0  0  0  0  0
  -10.1438   19.1216  -32.4772 H   0  0  0  0  0  0  0  0  0  0  0  0
   -9.8120   21.1970  -31.9990 C   0  0  0  0  0  0  0  0  0  0  0  0
  -10.8827   21.4479  -32.0252 H   0  0  0  0  0  0  0  0  0  0  0  0
   -8.8770   22.1780  -31.6910 C   0  0  0  0  0  0  0  0  0  0  0  0
   -9.2204   23.1956  -31.4530 H   0  0  0  0  0  0  0  0  0  0  0  0
   -7.4880   21.8910  -31.6780 C   0  0  0  0  0  0  0  0  0  0  0  0
   -4.1780   23.4110  -30.8780 C   0  0  0  0  0  0  0  0  0  0  0  0
   -3.1188   23.1149  -30.8996 H   0  0  0  0  0  0  0  0  0  0  0  0
  1  2  1  0
  2  3  2  0
  3  4  1  0
  3  5  1  0
  5  6  1  0
  5  7  2  0
  7  8  1  0
  8  9  1  0
  9 10  1  0
 10 11  2  0
 11 12  1  0
 12 13  1  0
 12 14  1  0
 12 15  1  0
 15 16  1  0
 15 17  1  0
 15 18  1  0
 18 19  1  0
 18 20  1  0
 18 21  1  0
 21 22  1  0
 21 23  1  0
 23 24  1  0
 23 25  1  0
 23 26  1  0
 26 27  1  0
 26 28  1  0
 26 29  1  0
 21 30  1  0
 30 31  1  0
 30 32  1  0
 30 33  1  0
 33 34  1  0
 33 35  1  0
 33 36  1  0
 10 37  1  0
 37 38  2  0
 38 39  1  0
 38 40  1  0
 40 41  1  0
 40 42  2  0
 42 43  1  0
 42 44  1  0
 44 45  1  0
 44 46  2  0
  8 47  2  0
 47 48  1  0
 47  2  1  0
 46  7  1  0
 46 37  1  0
M  CHG  2   9  -1  21   1
M  END
>  <UniqueID>  (37) 
37

>  <SMILES>  (37) 
CC[NH+](CC)CCC/N=c1/[n-]c2ccccc2c2ccccc12

>  <Energy>  (37) 
86.18016171491419

>  <Genealogy>  (37) 
CC[NH+](CC)CCCN=c1[n-]c2ccccc2c2ccccc12 (protonated)
CC[NH+](CC)CCC/N=c1/[n-]c2ccccc2c2ccccc12 (cis-trans isomerization)
CC[NH+](CC)CCC/N=c1/[n-]c2ccccc2c2ccccc12 (3D coordinates assigned)
CC[NH+](CC)CCC/N=c1/[n-]c2ccccc2c2ccccc12 (optimized conformer: 86.18016171491419 kcal/mol)

>  <smiles>  (37) 
CCN(CC)CCCN=c1[nH]c2ccccc2c2ccccc12

>  <score_type>  (37) 
oracle

>  <origin>  (37) 
adg

>  <m_score__min__energy>  (37) 
-8.6999999999999993

>  <m_primary>  (37) 
energy

$$$$
37:0
     RDKit          3D

 41 42  0  0  0  0  0  0  0  0999 V2000
   -2.3180   24.7950  -28.6070 C   0  0  0  0  0  0  0  0  0  0  0  0
   -3.1080   25.2830  -29.6860 O   0  0  0  0  0  0  0  0  0  0  0  0
   -4.1650   24.5740  -30.2760 C   0  0  0  0  0  0  0  0  0  0  0  0
   -3.9910   23.3100  -30.8660 C   0  0  0  0  0  0  0  0  0  0  0  0
   -5.0770   22.6470  -31.4440 C   0  0  0  0  0  0  0  0  0  0  0  0
   -6.3500   23.2300  -31.4520 C   0  0  0  0  0  0  0  0  0  0  0  0
   -7.3910   22.5170  -32.0720 O   0  0  0  0  0  0  0  0  0  0  0  0
   -8.7890   22.8040  -31.9950 C   0  0  0  0  0  0  0  0  0  0  0  0
   -9.5550   21.7030  -31.2460 C   0  0  0  0  0  0  0  0  0  0  0  0
   -9.1680   20.2700  -31.6730 C   0  0  0  0  0  0  0  0  0  0  0  0
   -7.7070   20.0670  -31.7250 N   0  0  0  0  0  0  0  0  0  0  0  0
   -7.3430   18.6510  -31.5490 C   0  0  0  0  0  0  0  0  0  0  0  0
   -6.5540   18.1630  -32.7310 C   0  0  0  0  0  0  0  0  0  0  0  0
   -6.0280   16.8620  -32.7530 C   0  0  0  0  0  0  0  0  0  0  0  0
   -5.3400   16.4220  -33.8850 C   0  0  0  0  0  0  0  0  0  0  0  0
   -5.1900   17.2720  -34.9820 C   0  0  0  0  0  0  0  0  0  0  0  0
   -5.7380   18.5560  -34.9310 C   0  0  0  0  0  0  0  0  0  0  0  0
   -6.4060   18.9680  -33.8200 N   0  0  0  0  0  0  0  0  0  0  0  0
   -6.5250   24.4920  -30.8510 C   0  0  0  0  0  0  0  0  0  0  0  0
   -5.4380   25.1540  -30.2730 C   0  0  0  0  0  0  0  0  0  0  0  0
   -2.7833   25.0824  -27.6526 H   0  0  0  0  0  0  0  0  0  0  0  0
   -2.2521   23.6986  -28.6673 H   0  0  0  0  0  0  0  0  0  0  0  0
   -1.3081   25.2269  -28.6673 H   0  0  0  0  0  0  0  0  0  0  0  0
   -2.9961   22.8409  -30.8728 H   0  0  0  0  0  0  0  0  0  0  0  0
   -4.9300   21.6558  -31.8978 H   0  0  0  0  0  0  0  0  0  0  0  0
   -8.9283   23.7582  -31.4658 H   0  0  0  0  0  0  0  0  0  0  0  0
   -9.1844   22.8600  -33.0200 H   0  0  0  0  0  0  0  0  0  0  0  0
   -9.3522   21.8105  -30.1702 H   0  0  0  0  0  0  0  0  0  0  0  0
  -10.6198   21.8323  -31.4900 H   0  0  0  0  0  0  0  0  0  0  0  0
   -9.5967   19.5596  -30.9508 H   0  0  0  0  0  0  0  0  0  0  0  0
   -9.5628   20.1069  -32.6867 H   0  0  0  0  0  0  0  0  0  0  0  0
   -7.3620   20.3860  -32.6610 H   0  0  0  0  0  0  0  0  0  0  0  0
   -7.2290   20.6380  -30.9920 H   0  0  0  0  0  0  0  0  0  0  0  0
   -6.7357   18.5432  -30.6382 H   0  0  0  0  0  0  0  0  0  0  0  0
   -8.2628   18.0539  -31.4624 H   0  0  0  0  0  0  0  0  0  0  0  0
   -6.1566   16.1959  -31.8871 H   0  0  0  0  0  0  0  0  0  0  0  0
   -4.9167   15.4071  -33.9125 H   0  0  0  0  0  0  0  0  0  0  0  0
   -4.6463   16.9345  -35.8767 H   0  0  0  0  0  0  0  0  0  0  0  0
   -5.6292   19.2344  -35.7900 H   0  0  0  0  0  0  0  0  0  0  0  0
   -7.5211   24.9584  -30.8365 H   0  0  0  0  0  0  0  0  0  0  0  0
   -5.5851   26.1414  -29.8110 H   0  0  0  0  0  0  0  0  0  0  0  0
  1  2  1  0
  2  3  1  0
  3  4  2  0
  4  5  1  0
  5  6  2  0
  6  7  1  0
  7  8  1  0
  8  9  1  0
  9 10  1  0
 10 11  1  0
 11 12  1  0
 12 13  1  0
 13 14  2  0
 14 15  1  0
 15 16  2  0
 16 17  1  0
 17 18  2  0
  6 19  1  0
 19 20  2  0
 20  3  1  0
 18 13  1  0
  1 21  1  0
  1 22  1  0
  1 23  1  0
  4 24  1  0
  5 25  1  0
  8 26  1  0
  8 27  1  0
  9 28  1  0
  9 29  1  0
 10 30  1  0
 10 31  1  0
 11 32  1  0
 11 33  1  0
 12 34  1  0
 12 35  1  0
 14 36  1  0
 15 37  1  0
 16 38  1  0
 17 39  1  0
 19 40  1  0
 20 41  1  0
M  CHG  1  11   1
M  END
>  <UniqueID>  (38) 
38

>  <SMILES>  (38) 
COc1ccc(OCCC[NH2+]Cc2ccccn2)cc1

>  <Energy>  (38) 
41.57458080856691

>  <Genealogy>  (38) 
COc1ccc(OCCC[NH2+]Cc2ccccn2)cc1 (protonated)
COc1ccc(OCCC[NH2+]Cc2ccccn2)cc1 (3D coordinates assigned)
COc1ccc(OCCC[NH2+]Cc2ccccn2)cc1 (optimized conformer: 41.57458080856691 kcal/mol)

>  <smiles>  (38) 
COc1ccc(OCCCNCc2ccccn2)cc1

>  <score_type>  (38) 
oracle

>  <origin>  (38) 
adg

>  <m_score__min__energy>  (38) 
-6.04

>  <m_primary>  (38) 
energy

$$$$
38:0
     RDKit          3D

 48 48  0  0  0  0  0  0  0  0999 V2000
   -2.1220   22.7460  -29.9190 C   0  0  0  0  0  0  0  0  0  0  0  0
   -2.7300   24.0620  -29.4100 C   0  0  0  0  0  0  0  0  0  0  0  0
   -3.6420   23.7670  -28.2110 C   0  0  0  0  0  0  0  0  0  0  0  0
   -3.5030   24.7220  -30.4810 N   0  0  0  0  0  0  0  0  0  0  0  0
   -4.9030   24.9410  -30.0840 C   0  0  0  0  0  0  0  0  0  0  0  0
   -5.8450   24.6850  -31.2650 C   0  0  0  0  0  0  0  0  0  0  0  0
   -5.8000   23.2480  -31.7180 C   0  0  0  0  0  0  0  0  0  0  0  0
   -6.9580   22.4590  -31.6740 C   0  0  0  0  0  0  0  0  0  0  0  0
   -6.9290   21.1330  -32.1190 C   0  0  0  0  0  0  0  0  0  0  0  0
   -8.5300   20.0910  -32.0180 Br  0  0  0  0  0  0  0  0  0  0  0  0
   -5.7440   20.5880  -32.6380 C   0  0  0  0  0  0  0  0  0  0  0  0
   -5.7360   19.2660  -33.0950 O   0  0  0  0  0  0  0  0  0  0  0  0
   -6.0650   18.9120  -34.4390 C   0  0  0  0  0  0  0  0  0  0  0  0
   -6.0770   17.3900  -34.6050 C   0  0  0  0  0  0  0  0  0  0  0  0
   -4.6560   16.7990  -34.5140 C   0  0  0  0  0  0  0  0  0  0  0  0
   -4.1230   16.8160  -33.1300 N   0  0  0  0  0  0  0  0  0  0  0  0
   -2.7020   16.4230  -33.0870 C   0  0  0  0  0  0  0  0  0  0  0  0
   -4.9100   15.9060  -32.2800 C   0  0  0  0  0  0  0  0  0  0  0  0
   -4.5730   21.3730  -32.6640 C   0  0  0  0  0  0  0  0  0  0  0  0
   -2.8880   20.6470  -33.2170 Br  0  0  0  0  0  0  0  0  0  0  0  0
   -4.6100   22.6970  -32.2140 C   0  0  0  0  0  0  0  0  0  0  0  0
   -1.8328   22.1200  -29.0619 H   0  0  0  0  0  0  0  0  0  0  0  0
   -2.8643   22.2112  -30.5297 H   0  0  0  0  0  0  0  0  0  0  0  0
   -1.2336   22.9646  -30.5297 H   0  0  0  0  0  0  0  0  0  0  0  0
   -1.9192   24.7378  -29.1005 H   0  0  0  0  0  0  0  0  0  0  0  0
   -3.0891   23.9458  -27.2770 H   0  0  0  0  0  0  0  0  0  0  0  0
   -4.5216   24.4264  -28.2484 H   0  0  0  0  0  0  0  0  0  0  0  0
   -3.9688   22.7173  -28.2484 H   0  0  0  0  0  0  0  0  0  0  0  0
   -3.0910   25.6690  -30.6620 H   0  0  0  0  0  0  0  0  0  0  0  0
   -5.1576   24.2544  -29.2631 H   0  0  0  0  0  0  0  0  0  0  0  0
   -5.0197   25.9848  -29.7572 H   0  0  0  0  0  0  0  0  0  0  0  0
   -6.8730   24.9297  -30.9595 H   0  0  0  0  0  0  0  0  0  0  0  0
   -5.5197   25.3175  -32.1041 H   0  0  0  0  0  0  0  0  0  0  0  0
   -7.8954   22.8853  -31.2871 H   0  0  0  0  0  0  0  0  0  0  0  0
   -7.0602   19.3108  -34.6851 H   0  0  0  0  0  0  0  0  0  0  0  0
   -5.3082   19.3376  -35.1144 H   0  0  0  0  0  0  0  0  0  0  0  0
   -6.6987   16.9491  -33.8118 H   0  0  0  0  0  0  0  0  0  0  0  0
   -6.4848   17.1551  -35.5993 H   0  0  0  0  0  0  0  0  0  0  0  0
   -4.6831   15.7583  -34.8692 H   0  0  0  0  0  0  0  0  0  0  0  0
   -3.9944   17.4204  -35.1354 H   0  0  0  0  0  0  0  0  0  0  0  0
   -4.2160   17.7820  -32.7320 H   0  0  0  0  0  0  0  0  0  0  0  0
   -2.3779   16.3334  -32.0397 H   0  0  0  0  0  0  0  0  0  0  0  0
   -2.5736   15.4556  -33.5946 H   0  0  0  0  0  0  0  0  0  0  0  0
   -2.0948   17.1869  -33.5946 H   0  0  0  0  0  0  0  0  0  0  0  0
   -4.7144   16.1321  -31.2214 H   0  0  0  0  0  0  0  0  0  0  0  0
   -5.9810   16.0407  -32.4919 H   0  0  0  0  0  0  0  0  0  0  0  0
   -4.6223   14.8657  -32.4919 H   0  0  0  0  0  0  0  0  0  0  0  0
   -3.6979   23.3109  -32.2496 H   0  0  0  0  0  0  0  0  0  0  0  0
  1  2  1  0
  2  3  1  0
  2  4  1  0
  4  5  1  0
  5  6  1  0
  6  7  1  0
  7  8  2  0
  8  9  1  0
  9 10  1  0
  9 11  2  0
 11 12  1  0
 12 13  1  0
 13 14  1  0
 14 15  1  0
 15 16  1  0
 16 17  1  0
 16 18  1  0
 11 19  1  0
 19 20  1  0
 19 21  2  0
 21  7  1  0
  1 22  1  0
  1 23  1  0
  1 24  1  0
  2 25  1  0
  3 26  1  0
  3 27  1  0
  3 28  1  0
  4 29  1  0
  5 30  1  0
  5 31  1  0
  6 32  1  0
  6 33  1  0
  8 34  1  0
 13 35  1  0
 13 36  1  0
 14 37  1  0
 14 38  1  0
 15 39  1  0
 15 40  1  0
 16 41  1  0
 17 42  1  0
 17 43  1  0
 17 44  1  0
 18 45  1  0
 18 46  1  0
 18 47  1  0
 21 48  1  0
M  CHG  1  16   1
M  END
>  <UniqueID>  (39) 
39

>  <SMILES>  (39) 
CC(C)NCCc1cc(Br)c(OCCC[NH+](C)C)c(Br)c1

>  <Energy>  (39) 
43.39456777989601

>  <Genealogy>  (39) 
CC(C)NCCc1cc(Br)c(OCCC[NH+](C)C)c(Br)c1 (protonated)
CC(C)NCCc1cc(Br)c(OCCC[NH+](C)C)c(Br)c1 (3D coordinates assigned)
CC(C)NCCc1cc(Br)c(OCCC[NH+](C)C)c(Br)c1 (optimized conformer: 43.39456777989601 kcal/mol)

>  <smiles>  (39) 
CC(C)NCCc1cc(Br)c(OCCCN(C)C)c(Br)c1

>  <score_type>  (39) 
oracle

>  <origin>  (39) 
adg

>  <m_score__min__energy>  (39) 
-7.9000000000000004

>  <m_primary>  (39) 
energy

$$$$
39:0
     RDKit          3D

 42 44  0  0  0  0  0  0  0  0999 V2000
   -9.9630   24.3030  -32.0020 H   0  0  0  0  0  0  0  0  0  0  0  0
   -9.4960   23.4660  -32.3390 O   0  0  0  0  0  0  0  0  0  0  0  0
   -8.1660   23.5060  -32.6990 N   0  0  0  0  0  0  0  0  0  0  0  0
   -7.8840   24.1360  -33.4830 H   0  0  0  0  0  0  0  0  0  0  0  0
   -7.2860   22.7850  -32.0620 C   0  0  0  0  0  0  0  0  0  0  0  0
   -6.1520   23.4190  -31.3410 C   0  0  0  0  0  0  0  0  0  0  0  0
   -4.8170   23.1260  -31.6640 C   0  0  0  0  0  0  0  0  0  0  0  0
   -4.5930   22.4011  -32.4605 H   0  0  0  0  0  0  0  0  0  0  0  0
   -3.8000   23.7340  -30.9970 N   0  0  0  0  0  0  0  0  0  0  0  0
   -4.0210   24.6420  -30.0110 C   0  0  0  0  0  0  0  0  0  0  0  0
   -2.9210   25.2340  -29.3750 O   0  0  0  0  0  0  0  0  0  0  0  0
   -2.2430   24.7040  -28.2660 C   0  0  0  0  0  0  0  0  0  0  0  0
   -1.6400   25.5840  -27.3600 C   0  0  0  0  0  0  0  0  0  0  0  0
   -1.6853   26.6685  -27.5383 H   0  0  0  0  0  0  0  0  0  0  0  0
   -0.9800   25.0920  -26.2290 C   0  0  0  0  0  0  0  0  0  0  0  0
   -0.5031   25.7899  -25.5251 H   0  0  0  0  0  0  0  0  0  0  0  0
   -0.9250   23.7150  -25.9910 C   0  0  0  0  0  0  0  0  0  0  0  0
   -0.1050   23.1010  -24.5650 Cl  0  0  0  0  0  0  0  0  0  0  0  0
   -1.5340   22.8300  -26.8840 C   0  0  0  0  0  0  0  0  0  0  0  0
   -1.4918   21.7467  -26.6977 H   0  0  0  0  0  0  0  0  0  0  0  0
   -2.1970   23.3180  -28.0140 C   0  0  0  0  0  0  0  0  0  0  0  0
   -2.6843   22.6180  -28.7087 H   0  0  0  0  0  0  0  0  0  0  0  0
   -5.3370   24.9300  -29.6260 C   0  0  0  0  0  0  0  0  0  0  0  0
   -5.5322   25.6359  -28.8053 H   0  0  0  0  0  0  0  0  0  0  0  0
   -6.3980   24.3150  -30.2910 C   0  0  0  0  0  0  0  0  0  0  0  0
   -7.4331   24.5342  -29.9900 H   0  0  0  0  0  0  0  0  0  0  0  0
   -7.4260   21.3560  -32.0350 N   0  0  0  0  0  0  0  0  0  0  0  0
   -8.4330   20.7340  -31.1670 C   0  0  0  0  0  0  0  0  0  0  0  0
   -7.9539   20.3913  -30.2380 H   0  0  0  0  0  0  0  0  0  0  0  0
   -9.2145   21.4705  -30.9287 H   0  0  0  0  0  0  0  0  0  0  0  0
   -9.0630   19.5400  -31.8850 C   0  0  0  0  0  0  0  0  0  0  0  0
   -9.7510   19.0349  -31.1911 H   0  0  0  0  0  0  0  0  0  0  0  0
   -9.5893   19.9245  -32.7711 H   0  0  0  0  0  0  0  0  0  0  0  0
   -8.0120   18.5160  -32.3730 C   0  0  0  0  0  0  0  0  0  0  0  0
   -8.0297   17.6525  -31.6918 H   0  0  0  0  0  0  0  0  0  0  0  0
   -8.2850   18.2509  -33.4051 H   0  0  0  0  0  0  0  0  0  0  0  0
   -6.5680   19.0640  -32.4230 C   0  0  0  0  0  0  0  0  0  0  0  0
   -6.1197   18.9716  -31.4228 H   0  0  0  0  0  0  0  0  0  0  0  0
   -6.0109   18.4775  -33.1685 H   0  0  0  0  0  0  0  0  0  0  0  0
   -6.5190   20.5340  -32.8510 C   0  0  0  0  0  0  0  0  0  0  0  0
   -5.4914   20.9081  -32.7326 H   0  0  0  0  0  0  0  0  0  0  0  0
   -6.8377   20.6018  -33.9016 H   0  0  0  0  0  0  0  0  0  0  0  0
  1  2  1  0
  2  3  1  0
  3  4  1  0
  3  5  2  0
  5  6  1  0
  6  7  2  0
  7  8  1  0
  7  9  1  0
  9 10  2  0
 10 11  1  0
 11 12  1  0
 12 13  2  0
 13 14  1  0
 13 15  1  0
 15 16  1  0
 15 17  2  0
 17 18  1  0
 17 19  1  0
 19 20  1  0
 19 21  2  0
 21 22  1  0
 10 23  1  0
 23 24  1  0
 23 25  2  0
 25 26  1  0
  5 27  1  0
 27 28  1  0
 28 29  1  0
 28 30  1  0
 28 31  1  0
 31 32  1  0
 31 33  1  0
 31 34  1  0
 34 35  1  0
 34 36  1  0
 34 37  1  0
 37 38  1  0
 37 39  1  0
 37 40  1  0
 40 41  1  0
 40 42  1  0
 25  6  1  0
 40 27  1  0
 21 12  1  0
M  CHG  1   3   1
M  END
>  <UniqueID>  (40) 
40

>  <SMILES>  (40) 
O/[NH+]=C(/c1ccc(Oc2ccc(Cl)cc2)nc1)N1CCCCC1

>  <Energy>  (40) 
58.62875121832255

>  <Genealogy>  (40) 
O[NH+]=C(c1ccc(Oc2ccc(Cl)cc2)nc1)N1CCCCC1 (protonated)
O/[NH+]=C(/c1ccc(Oc2ccc(Cl)cc2)nc1)N1CCCCC1 (cis-trans isomerization)
O/[NH+]=C(/c1ccc(Oc2ccc(Cl)cc2)nc1)N1CCCCC1 (3D coordinates assigned)
O/[NH+]=C(/c1ccc(Oc2ccc(Cl)cc2)nc1)N1CCCCC1 (nonaromatic ring conformer: 58.62875121832255 kcal/mol)

>  <smiles>  (40) 
ON=C(c1ccc(Oc2ccc(Cl)cc2)nc1)N1CCCCC1

>  <score_type>  (40) 
oracle

>  <origin>  (40) 
adg

>  <m_score__min__energy>  (40) 
-8.1699999999999999

>  <m_primary>  (40) 
energy

$$$$
40:0
     RDKit          3D

 46 47  0  0  0  0  0  0  0  0999 V2000
   -2.6170   24.6130  -27.2730 C   0  0  0  0  0  0  0  0  0  0  0  0
   -2.1290   24.1710  -28.6480 C   0  0  0  0  0  0  0  0  0  0  0  0
   -2.8050   24.9260  -29.6990 N   0  0  0  0  0  0  0  0  0  0  0  0
   -4.1790   24.7910  -30.0880 C   0  0  0  0  0  0  0  0  0  0  0  0
   -4.6190   25.5370  -31.0020 O   0  0  0  0  0  0  0  0  0  0  0  0
   -5.1190   23.7950  -29.4410 C   0  0  0  0  0  0  0  0  0  0  0  0
   -5.8130   22.9030  -30.4020 N   0  0  0  0  0  0  0  0  0  0  0  0
   -5.0320   22.6770  -31.6360 C   0  0  0  0  0  0  0  0  0  0  0  0
   -5.6890   21.5870  -32.5140 C   0  0  0  0  0  0  0  0  0  0  0  0
   -7.0820   21.2990  -32.0970 N   0  0  0  0  0  0  0  0  0  0  0  0
   -7.7810   20.4380  -33.0800 C   0  0  0  0  0  0  0  0  0  0  0  0
   -7.7960   18.9700  -32.6040 C   0  0  2  0  0  0  0  0  0  0  0  0
   -7.6630   18.8640  -31.2080 O   0  0  0  0  0  0  0  0  0  0  0  0
   -6.7240   18.1490  -33.2970 C   0  0  0  0  0  0  0  0  0  0  0  0
   -6.0010   18.6950  -34.3740 C   0  0  0  0  0  0  0  0  0  0  0  0
   -5.0100   17.9470  -35.0130 C   0  0  0  0  0  0  0  0  0  0  0  0
   -4.7290   16.6460  -34.5880 C   0  0  0  0  0  0  0  0  0  0  0  0
   -3.7670   15.9210  -35.2100 F   0  0  0  0  0  0  0  0  0  0  0  0
   -5.4380   16.0930  -33.5190 C   0  0  0  0  0  0  0  0  0  0  0  0
   -6.4290   16.8390  -32.8740 C   0  0  0  0  0  0  0  0  0  0  0  0
   -7.8180   22.5580  -31.8720 C   0  0  0  0  0  0  0  0  0  0  0  0
   -7.1800   23.3720  -30.7270 C   0  0  0  0  0  0  0  0  0  0  0  0
   -2.0411   24.0914  -26.4944 H   0  0  0  0  0  0  0  0  0  0  0  0
   -2.4781   25.6990  -27.1662 H   0  0  0  0  0  0  0  0  0  0  0  0
   -3.6839   24.3676  -27.1662 H   0  0  0  0  0  0  0  0  0  0  0  0
   -1.0448   24.3427  -28.7195 H   0  0  0  0  0  0  0  0  0  0  0  0
   -2.3537   23.1021  -28.7779 H   0  0  0  0  0  0  0  0  0  0  0  0
   -4.5362   23.1698  -28.7486 H   0  0  0  0  0  0  0  0  0  0  0  0
   -5.8990   24.3802  -28.9320 H   0  0  0  0  0  0  0  0  0  0  0  0
   -5.9040   21.9780  -29.9150 H   0  0  0  0  0  0  0  0  0  0  0  0
   -4.9805   23.6161  -32.2065 H   0  0  0  0  0  0  0  0  0  0  0  0
   -4.0226   22.3411  -31.3561 H   0  0  0  0  0  0  0  0  0  0  0  0
   -5.6954   21.9298  -33.5592 H   0  0  0  0  0  0  0  0  0  0  0  0
   -5.1037   20.6626  -32.4005 H   0  0  0  0  0  0  0  0  0  0  0  0
   -8.8164   20.7904  -33.1972 H   0  0  0  0  0  0  0  0  0  0  0  0
   -7.2486   20.4933  -34.0410 H   0  0  0  0  0  0  0  0  0  0  0  0
   -8.7801   18.5635  -32.8803 H   0  0  0  0  0  0  0  0  0  0  0  0
   -7.1580   19.6560  -30.8870 H   0  0  0  0  0  0  0  0  0  0  0  0
   -6.2181   19.7181  -34.7148 H   0  0  0  0  0  0  0  0  0  0  0  0
   -4.4493   18.3830  -35.8529 H   0  0  0  0  0  0  0  0  0  0  0  0
   -5.2163   15.0689  -33.1841 H   0  0  0  0  0  0  0  0  0  0  0  0
   -6.9818   16.3996  -32.0306 H   0  0  0  0  0  0  0  0  0  0  0  0
   -7.7975   23.1569  -32.7944 H   0  0  0  0  0  0  0  0  0  0  0  0
   -8.8543   22.3144  -31.5949 H   0  0  0  0  0  0  0  0  0  0  0  0
   -7.1297   24.4286  -31.0287 H   0  0  0  0  0  0  0  0  0  0  0  0
   -7.8042   23.2411  -29.8308 H   0  0  0  0  0  0  0  0  0  0  0  0
  1  2  1  0
  2  3  1  0
  3  4  1  0
  4  5  2  0
  4  6  1  0
  6  7  1  0
  7  8  1  0
  8  9  1  0
  9 10  1  0
 10 11  1  0
 11 12  1  0
 12 13  1  0
 12 14  1  0
 14 15  2  0
 15 16  1  0
 16 17  2  0
 17 18  1  0
 17 19  1  0
 19 20  2  0
 10 21  1  0
 21 22  1  0
 22  7  1  0
 20 14  1  0
  1 23  1  0
  1 24  1  0
  1 25  1  0
  2 26  1  0
  2 27  1  0
  6 28  1  0
  6 29  1  0
  7 30  1  0
  8 31  1  0
  8 32  1  0
  9 33  1  0
  9 34  1  0
 11 35  1  0
 11 36  1  0
 12 37  1  6
 13 38  1  0
 15 39  1  0
 16 40  1  0
 19 41  1  0
 20 42  1  0
 21 43  1  0
 21 44  1  0
 22 45  1  0
 22 46  1  0
M  CHG  2   3  -1   7   1
M  END
>  <UniqueID>  (41) 
41

>  <SMILES>  (41) 
CC[N-]C(=O)C[NH+]1CCN(C[C@H](O)c2ccc(F)cc2)CC1

>  <Energy>  (41) 
55.74714427070852

>  <Genealogy>  (41) 
CC[N-]C(=O)C[NH+]1CCN(CC(O)c2ccc(F)cc2)CC1 (protonated)
CC[N-]C(=O)C[NH+]1CCN(C[C@H](O)c2ccc(F)cc2)CC1 (chirality)
CC[N-]C(=O)C[NH+]1CCN(C[C@H](O)c2ccc(F)cc2)CC1 (3D coordinates assigned)
CC[N-]C(=O)C[NH+]1CCN(C[C@H](O)c2ccc(F)cc2)CC1 (nonaromatic ring conformer: 55.74714427070852 kcal/mol)

>  <smiles>  (41) 
CCNC(=O)CN1CCN(CC(O)c2ccc(F)cc2)CC1

>  <score_type>  (41) 
oracle

>  <origin>  (41) 
adg

>  <m_score__min__energy>  (41) 
-8

>  <m_primary>  (41) 
energy

$$$$
41:0
     RDKit          3D

 47 50  0  0  0  0  0  0  0  0999 V2000
   -5.3310   25.6210  -30.4940 C   0  0  0  0  0  0  0  0  0  0  0  0
   -3.9200   25.4310  -30.5380 O   0  0  0  0  0  0  0  0  0  0  0  0
   -3.2760   24.2000  -30.3290 C   0  0  0  0  0  0  0  0  0  0  0  0
   -3.6040   23.0510  -31.0740 C   0  0  0  0  0  0  0  0  0  0  0  0
   -2.9440   21.8330  -30.8380 C   0  0  0  0  0  0  0  0  0  0  0  0
   -3.2730   20.6040  -31.6540 C   0  0  2  0  0  0  0  0  0  0  0  0
   -3.4270   20.9220  -33.1560 C   0  0  0  0  0  0  0  0  0  0  0  0
   -4.7940   20.5330  -33.4730 N   0  0  0  0  0  0  0  0  0  0  0  0
   -5.3640   20.0810  -32.4090 C   0  0  0  0  0  0  0  0  0  0  0  0
   -6.7560   19.6080  -32.3720 C   0  0  0  0  0  0  0  0  0  0  0  0
   -7.8300   20.4720  -32.6400 C   0  0  0  0  0  0  0  0  0  0  0  0
   -9.1360   19.9780  -32.5890 C   0  0  0  0  0  0  0  0  0  0  0  0
   -9.3600   18.6370  -32.2730 C   0  0  0  0  0  0  0  0  0  0  0  0
   -8.2690   17.8070  -32.0120 C   0  0  0  0  0  0  0  0  0  0  0  0
   -7.0060   18.3040  -32.0660 N   0  0  0  0  0  0  0  0  0  0  0  0
   -4.5450   20.0900  -31.2960 O   0  0  0  0  0  0  0  0  0  0  0  0
   -1.9360   21.7780  -29.8650 C   0  0  0  0  0  0  0  0  0  0  0  0
   -1.6070   22.9130  -29.1230 C   0  0  0  0  0  0  0  0  0  0  0  0
   -2.2740   24.1320  -29.3500 C   0  0  0  0  0  0  0  0  0  0  0  0
   -1.9710   25.2990  -28.6270 O   0  0  0  0  0  0  0  0  0  0  0  0
   -0.6680   25.6820  -28.1820 C   0  0  0  0  0  0  0  0  0  0  0  0
   -0.7450   26.4000  -26.8600 C   0  0  0  0  0  0  0  0  0  0  0  0
   -1.2680   25.7460  -25.7320 C   0  0  0  0  0  0  0  0  0  0  0  0
   -1.3340   26.4070  -24.5020 C   0  0  0  0  0  0  0  0  0  0  0  0
   -0.8680   27.7200  -24.3860 C   0  0  0  0  0  0  0  0  0  0  0  0
   -0.3340   28.3730  -25.5000 C   0  0  0  0  0  0  0  0  0  0  0  0
   -0.2670   27.7150  -26.7330 C   0  0  0  0  0  0  0  0  0  0  0  0
   -5.6625   25.6656  -29.4461 H   0  0  0  0  0  0  0  0  0  0  0  0
   -5.5902   26.5622  -31.0010 H   0  0  0  0  0  0  0  0  0  0  0  0
   -5.8299   24.7819  -31.0010 H   0  0  0  0  0  0  0  0  0  0  0  0
   -4.3839   23.1073  -31.8477 H   0  0  0  0  0  0  0  0  0  0  0  0
   -2.4448   19.9061  -31.4616 H   0  0  0  0  0  0  0  0  0  0  0  0
   -3.2747   21.9951  -33.3438 H   0  0  0  0  0  0  0  0  0  0  0  0
   -2.6874   20.3916  -33.7737 H   0  0  0  0  0  0  0  0  0  0  0  0
   -7.6449   21.5276  -32.8877 H   0  0  0  0  0  0  0  0  0  0  0  0
   -9.9859   20.6445  -32.7975 H   0  0  0  0  0  0  0  0  0  0  0  0
  -10.3846   18.2391  -32.2302 H   0  0  0  0  0  0  0  0  0  0  0  0
   -8.4321   16.7483  -31.7621 H   0  0  0  0  0  0  0  0  0  0  0  0
   -1.4010   20.8338  -29.6854 H   0  0  0  0  0  0  0  0  0  0  0  0
   -0.8212   22.8550  -28.3555 H   0  0  0  0  0  0  0  0  0  0  0  0
   -0.0465   24.7816  -28.0679 H   0  0  0  0  0  0  0  0  0  0  0  0
   -0.2257   26.3600  -28.9268 H   0  0  0  0  0  0  0  0  0  0  0  0
   -1.6270   24.7097  -25.8170 H   0  0  0  0  0  0  0  0  0  0  0  0
   -1.7531   25.8934  -23.6242 H   0  0  0  0  0  0  0  0  0  0  0  0
   -0.9217   28.2391  -23.4177 H   0  0  0  0  0  0  0  0  0  0  0  0
    0.0341   29.4054  -25.4075 H   0  0  0  0  0  0  0  0  0  0  0  0
    0.1614   28.2291  -27.6060 H   0  0  0  0  0  0  0  0  0  0  0  0
  1  2  1  0
  2  3  1  0
  3  4  2  0
  4  5  1  0
  5  6  1  0
  6  7  1  0
  7  8  1  0
  8  9  2  0
  9 10  1  0
 10 11  2  0
 11 12  1  0
 12 13  2  0
 13 14  1  0
 14 15  2  0
  9 16  1  0
  5 17  2  0
 17 18  1  0
 18 19  2  0
 19 20  1  0
 20 21  1  0
 21 22  1  0
 22 23  2  0
 23 24  1  0
 24 25  2  0
 25 26  1  0
 26 27  2  0
 19  3  1  0
 27 22  1  0
 16  6  1  0
 15 10  1  0
  1 28  1  0
  1 29  1  0
  1 30  1  0
  4 31  1  0
  6 32  1  6
  7 33  1  0
  7 34  1  0
 11 35  1  0
 12 36  1  0
 13 37  1  0
 14 38  1  0
 17 39  1  0
 18 40  1  0
 21 41  1  0
 21 42  1  0
 23 43  1  0
 24 44  1  0
 25 45  1  0
 26 46  1  0
 27 47  1  0
M  END
>  <UniqueID>  (42) 
42

>  <SMILES>  (42) 
COc1cc([C@@H]2CN=C(c3ccccn3)O2)ccc1OCc1ccccc1

>  <Energy>  (42) 
64.67968321008756

>  <Genealogy>  (42) 
COc1cc([C@@H]2CN=C(c3ccccn3)O2)ccc1OCc1ccccc1 (chirality)
COc1cc([C@@H]2CN=C(c3ccccn3)O2)ccc1OCc1ccccc1 (3D coordinates assigned)
COc1cc([C@@H]2CN=C(c3ccccn3)O2)ccc1OCc1ccccc1 (nonaromatic ring conformer: 64.67968321008756 kcal/mol)

>  <smiles>  (42) 
COc1cc(C2CN=C(c3ccccn3)O2)ccc1OCc1ccccc1

>  <score_type>  (42) 
oracle

>  <origin>  (42) 
adg

>  <m_score__min__energy>  (42) 
-8.9800000000000004

>  <m_primary>  (42) 
energy

$$$$
42:0
     RDKit          3D

 38 40  0  0  0  0  0  0  0  0999 V2000
   -1.9950   25.6720  -29.6650 H   0  0  0  0  0  0  0  0  0  0  0  0
   -1.5020   26.2240  -28.9780 O   0  0  0  0  0  0  0  0  0  0  0  0
   -1.2290   25.7750  -27.6840 C   0  0  0  0  0  0  0  0  0  0  0  0
   -1.3260   26.7000  -26.6370 C   0  0  0  0  0  0  0  0  0  0  0  0
   -1.5475   27.7542  -26.8598 H   0  0  0  0  0  0  0  0  0  0  0  0
   -1.1440   26.2960  -25.3120 C   0  0  0  0  0  0  0  0  0  0  0  0
   -1.2232   27.0306  -24.4971 H   0  0  0  0  0  0  0  0  0  0  0  0
   -0.8620   24.9620  -25.0230 C   0  0  0  0  0  0  0  0  0  0  0  0
   -0.7337   24.6419  -23.9785 H   0  0  0  0  0  0  0  0  0  0  0  0
   -0.7420   24.0310  -26.0570 C   0  0  0  0  0  0  0  0  0  0  0  0
   -0.5211   22.9797  -25.8205 H   0  0  0  0  0  0  0  0  0  0  0  0
   -0.9010   24.4250  -27.3990 C   0  0  0  0  0  0  0  0  0  0  0  0
   -0.6800   23.4200  -28.4600 C   0  0  0  0  0  0  0  0  0  0  0  0
   -0.0460   22.3610  -28.1990 O   0  0  0  0  0  0  0  0  0  0  0  0
   -1.1240   23.6710  -29.7950 N   0  0  0  0  0  0  0  0  0  0  0  0
   -1.7030   22.7700  -30.4800 N   0  0  0  0  0  0  0  0  0  0  0  0
   -3.0530   22.9260  -30.9230 C   0  0  0  0  0  0  0  0  0  0  0  0
   -3.8500   24.0600  -30.8470 C   0  0  0  0  0  0  0  0  0  0  0  0
   -3.4630   25.2830  -30.3100 O   0  0  0  0  0  0  0  0  0  0  0  0
   -5.0800   23.8170  -31.3610 N   0  0  0  0  0  0  0  0  0  0  0  0
   -6.1990   24.7630  -31.3990 C   0  0  0  0  0  0  0  0  0  0  0  0
   -6.9569   24.3989  -32.1082 H   0  0  0  0  0  0  0  0  0  0  0  0
   -5.8229   25.7464  -31.7176 H   0  0  0  0  0  0  0  0  0  0  0  0
   -6.8200   24.8980  -30.0380 C   0  0  0  0  0  0  0  0  0  0  0  0
   -7.7160   24.3069  -29.7977 H   0  0  0  0  0  0  0  0  0  0  0  0
   -6.3140   25.7160  -29.1120 C   0  0  0  0  0  0  0  0  0  0  0  0
   -6.7927   25.7920  -28.1245 H   0  0  0  0  0  0  0  0  0  0  0  0
   -5.4184   26.3140  -29.3366 H   0  0  0  0  0  0  0  0  0  0  0  0
   -5.0650   22.5200  -31.7510 C   0  0  0  0  0  0  0  0  0  0  0  0
   -6.0990   21.7750  -32.3280 C   0  0  0  0  0  0  0  0  0  0  0  0
   -7.0808   22.2290  -32.5279 H   0  0  0  0  0  0  0  0  0  0  0  0
   -5.8460   20.4280  -32.6450 C   0  0  0  0  0  0  0  0  0  0  0  0
   -6.6393   19.8169  -33.1002 H   0  0  0  0  0  0  0  0  0  0  0  0
   -4.5820   19.8530  -32.3840 C   0  0  0  0  0  0  0  0  0  0  0  0
   -4.3979   18.7987  -32.6380 H   0  0  0  0  0  0  0  0  0  0  0  0
   -3.5590   20.6200  -31.8020 C   0  0  0  0  0  0  0  0  0  0  0  0
   -2.5713   20.1836  -31.5924 H   0  0  0  0  0  0  0  0  0  0  0  0
   -3.8360   21.9510  -31.4990 C   0  0  0  0  0  0  0  0  0  0  0  0
  1  2  1  0
  2  3  1  0
  3  4  2  0
  4  5  1  0
  4  6  1  0
  6  7  1  0
  6  8  2  0
  8  9  1  0
  8 10  1  0
 10 11  1  0
 10 12  2  0
 12 13  1  0
 13 14  2  0
 13 15  1  0
 15 16  2  0
 16 17  1  0
 17 18  2  0
 18 19  1  0
 18 20  1  0
 20 21  1  0
 21 22  1  0
 21 23  1  0
 21 24  1  0
 24 25  1  0
 24 26  2  0
 26 27  1  0
 26 28  1  0
 20 29  1  0
 29 30  2  0
 30 31  1  0
 30 32  1  0
 32 33  1  0
 32 34  2  0
 34 35  1  0
 34 36  1  0
 36 37  1  0
 36 38  2  0
 12  3  1  0
 38 17  1  0
 38 29  1  0
M  CHG  1  19  -1
M  END
>  <UniqueID>  (43) 
43

>  <SMILES>  (43) 
C=CCn1c([O-])c(/N=N/C(=O)c2ccccc2O)c2ccccc21

>  <Energy>  (43) 
78.122417416202

>  <Genealogy>  (43) 
C=CCn1c([O-])c(N=NC(=O)c2ccccc2O)c2ccccc21 (protonated)
C=CCn1c([O-])c(/N=N/C(=O)c2ccccc2O)c2ccccc21 (cis-trans isomerization)
C=CCn1c([O-])c(/N=N/C(=O)c2ccccc2O)c2ccccc21 (3D coordinates assigned)
C=CCn1c([O-])c(/N=N/C(=O)c2ccccc2O)c2ccccc21 (optimized conformer: 78.122417416202 kcal/mol)

>  <smiles>  (43) 
C=CCn1c(O)c(N=NC(=O)c2ccccc2O)c2ccccc21

>  <score_type>  (43) 
oracle

>  <origin>  (43) 
adg

>  <m_score__min__energy>  (43) 
-10.76

>  <m_primary>  (43) 
energy

$$$$
43:0
     RDKit          3D

 59 63  0  0  1  0  0  0  0  0999 V2000
   -2.0270   25.2480  -27.6270 C   0  0  0  0  0  0  0  0  0  0  0  0
   -2.3520   25.2960  -28.9900 O   0  0  0  0  0  0  0  0  0  0  0  0
   -2.4150   24.1370  -29.7170 C   0  0  0  0  0  0  0  0  0  0  0  0
   -1.4470   23.1660  -29.5940 C   0  0  0  0  0  0  0  0  0  0  0  0
   -1.4930   21.9910  -30.3210 C   0  0  0  0  0  0  0  0  0  0  0  0
   -2.5230   21.7510  -31.2010 C   0  0  0  0  0  0  0  0  0  0  0  0
   -2.5270   20.4930  -31.9560 C   0  0  0  0  0  0  0  0  0  0  0  0
   -2.8370   20.8410  -33.4590 C   0  0  0  0  0  0  0  0  0  0  0  0
   -2.9040   19.5010  -33.9170 N   0  0  0  0  0  0  0  0  0  0  0  0
   -3.9300   18.7720  -33.7150 C   0  0  0  0  0  0  0  0  0  0  0  0
   -5.0520   19.4350  -33.3500 N   0  0  0  0  0  0  0  0  0  0  0  0
   -6.1750   18.7320  -33.1620 C   0  0  0  0  0  0  0  0  0  0  0  0
   -7.3610   19.4190  -32.7840 N   0  0  0  0  0  0  0  0  0  0  0  0
   -8.5600   18.8760  -32.6780 N   0  0  0  0  0  0  0  0  0  0  0  0
   -9.4950   19.7420  -32.3090 C   0  0  0  0  0  0  0  0  0  0  0  0
   -8.8530   20.9720  -32.1570 C   0  0  0  0  0  0  0  0  0  0  0  0
   -9.2800   22.2380  -31.7950 C   0  0  0  0  0  0  0  0  0  0  0  0
   -8.3320   23.2330  -31.7530 C   0  0  0  0  0  0  0  0  0  0  0  0
   -7.0020   23.0470  -32.0440 C   0  0  0  0  0  0  0  0  0  0  0  0
   -6.5890   21.7600  -32.4070 C   0  0  0  0  0  0  0  0  0  0  0  0
   -7.5150   20.7170  -32.4650 C   0  0  0  0  0  0  0  0  0  0  0  0
   -6.2060   17.4010  -33.3290 N   0  0  0  0  0  0  0  0  0  0  0  0
   -5.0910   16.7370  -33.6910 C   0  0  0  0  0  0  0  0  0  0  0  0
   -3.8680   17.4190  -33.9040 C   0  0  0  0  0  0  0  0  0  0  0  0
   -2.7300   16.6150  -34.2580 C   0  0  0  0  0  0  0  0  0  0  0  0
   -3.0850   15.5760  -35.3410 C   0  0  0  0  0  0  0  0  0  0  0  0
   -4.1550   14.6990  -34.8040 C   0  0  0  0  0  0  0  0  0  0  0  0
   -5.1620   15.2670  -33.8920 C   0  0  0  0  0  0  0  0  0  0  0  0
   -3.4870   22.7320  -31.3150 C   0  0  0  0  0  0  0  0  0  0  0  0
   -3.4690   23.9090  -30.6090 C   0  0  0  0  0  0  0  0  0  0  0  0
   -4.4140   24.9060  -30.6980 O   0  0  0  0  0  0  0  0  0  0  0  0
   -5.5380   25.0600  -29.8780 C   0  0  0  0  0  0  0  0  0  0  0  0
   -2.9394   25.3828  -27.0275 H   0  0  0  0  0  0  0  0  0  0  0  0
   -1.5745   24.2733  -27.3920 H   0  0  0  0  0  0  0  0  0  0  0  0
   -1.3121   26.0503  -27.3920 H   0  0  0  0  0  0  0  0  0  0  0  0
   -0.6122   23.3298  -28.8967 H   0  0  0  0  0  0  0  0  0  0  0  0
   -0.6985   21.2408  -30.1947 H   0  0  0  0  0  0  0  0  0  0  0  0
   -1.5436   20.0061  -31.8789 H   0  0  0  0  0  0  0  0  0  0  0  0
   -3.2849   19.8041  -31.5548 H   0  0  0  0  0  0  0  0  0  0  0  0
   -3.7885   21.3791  -33.5820 H   0  0  0  0  0  0  0  0  0  0  0  0
   -2.1307   21.5097  -33.9728 H   0  0  0  0  0  0  0  0  0  0  0  0
  -10.5636   19.5323  -32.1537 H   0  0  0  0  0  0  0  0  0  0  0  0
  -10.3335   22.4396  -31.5512 H   0  0  0  0  0  0  0  0  0  0  0  0
   -8.6596   24.2437  -31.4679 H   0  0  0  0  0  0  0  0  0  0  0  0
   -6.2865   23.8810  -31.9934 H   0  0  0  0  0  0  0  0  0  0  0  0
   -5.5325   21.5699  -32.6471 H   0  0  0  0  0  0  0  0  0  0  0  0
   -7.0890   16.8660  -33.1800 H   0  0  0  0  0  0  0  0  0  0  0  0
   -1.9340   17.2712  -34.6398 H   0  0  0  0  0  0  0  0  0  0  0  0
   -2.3964   16.0755  -33.3593 H   0  0  0  0  0  0  0  0  0  0  0  0
   -3.4420   16.0883  -36.2466 H   0  0  0  0  0  0  0  0  0  0  0  0
   -2.1985   14.9797  -35.6028 H   0  0  0  0  0  0  0  0  0  0  0  0
   -4.6990   14.2903  -35.6683 H   0  0  0  0  0  0  0  0  0  0  0  0
   -3.6107   13.9789  -34.1754 H   0  0  0  0  0  0  0  0  0  0  0  0
   -6.1569   15.0286  -34.2960 H   0  0  0  0  0  0  0  0  0  0  0  0
   -4.9621   14.8192  -32.9074 H   0  0  0  0  0  0  0  0  0  0  0  0
   -4.3194   22.5604  -32.0133 H   0  0  0  0  0  0  0  0  0  0  0  0
   -5.2305   25.0179  -28.8227 H   0  0  0  0  0  0  0  0  0  0  0  0
   -6.0115   26.0314  -30.0835 H   0  0  0  0  0  0  0  0  0  0  0  0
   -6.2553   24.2517  -30.0835 H   0  0  0  0  0  0  0  0  0  0  0  0
  1  2  1  0
  2  3  1  0
  3  4  2  0
  4  5  1  0
  5  6  2  0
  6  7  1  0
  7  8  1  0
  8  9  1  0
  9 10  2  0
 10 11  1  0
 11 12  2  0
 12 13  1  0
 13 14  1  0
 14 15  2  0
 15 16  1  0
 16 17  2  0
 17 18  1  0
 18 19  2  0
 19 20  1  0
 20 21  2  0
 12 22  1  0
 22 23  1  0
 23 24  2  0
 24 25  1  0
 25 26  1  0
 26 27  1  0
 27 28  1  0
  6 29  1  0
 29 30  2  0
 30 31  1  0
 31 32  1  0
 30  3  1  0
 24 10  1  0
 21 13  1  0
 28 23  1  0
 21 16  1  0
  1 33  1  0
  1 34  1  0
  1 35  1  0
  4 36  1  0
  5 37  1  0
  7 38  1  0
  7 39  1  0
  8 40  1  0
  8 41  1  0
 15 42  1  0
 17 43  1  0
 18 44  1  0
 19 45  1  0
 20 46  1  0
 22 47  1  0
 25 48  1  0
 25 49  1  0
 26 50  1  0
 26 51  1  0
 27 52  1  0
 27 53  1  0
 28 54  1  0
 28 55  1  0
 29 56  1  0
 32 57  1  0
 32 58  1  0
 32 59  1  0
M  END
>  <smiles>  (44) 
COc1ccc(CCN=c2nc(-n3ncc4ccccc43)[nH]c3c2CCCC3)cc1OC

>  <score_type>  (44) 
oracle

>  <origin>  (44) 
adg

>  <m_score__min__energy>  (44) 
-10.74

>  <m_primary>  (44) 
energy

$$$$
44:0
     RDKit          3D

 50 52  0  0  0  0  0  0  0  0999 V2000
   -3.9580   14.1150  -32.3910 C   0  0  0  0  0  0  0  0  0  0  0  0
   -4.1190   15.3340  -33.1090 O   0  0  0  0  0  0  0  0  0  0  0  0
   -5.1610   16.2470  -32.8930 C   0  0  0  0  0  0  0  0  0  0  0  0
   -5.8490   16.8720  -33.9510 C   0  0  0  0  0  0  0  0  0  0  0  0
   -6.8810   17.7770  -33.6820 C   0  0  0  0  0  0  0  0  0  0  0  0
   -7.2390   18.0680  -32.3600 C   0  0  0  0  0  0  0  0  0  0  0  0
   -8.5340   19.2190  -32.0410 S   0  0  0  0  0  0  0  0  0  0  0  0
   -8.7890   19.3110  -30.5610 O   0  0  0  0  0  0  0  0  0  0  0  0
   -9.7870   18.7300  -32.7120 O   0  0  0  0  0  0  0  0  0  0  0  0
   -8.1020   20.7930  -32.6690 N   0  0  0  0  0  0  0  0  0  0  0  0
   -8.7530   21.8520  -31.8610 C   0  0  0  0  0  0  0  0  0  0  0  0
   -7.9840   23.1750  -31.9600 C   0  0  0  0  0  0  0  0  0  0  0  0
   -6.6290   23.0450  -31.3780 N   0  0  0  0  0  0  0  0  0  0  0  0
   -5.7490   24.1230  -31.8710 C   0  0  0  0  0  0  0  0  0  0  0  0
   -5.2570   24.9700  -30.7350 C   0  0  0  0  0  0  0  0  0  0  0  0
   -6.0870   25.5240  -29.9670 O   0  0  0  0  0  0  0  0  0  0  0  0
   -3.8510   25.0640  -30.4750 N   0  0  0  0  0  0  0  0  0  0  0  0
   -3.1150   24.2330  -29.5680 C   0  0  0  0  0  0  0  0  0  0  0  0
   -3.4340   22.8710  -29.4930 C   0  0  0  0  0  0  0  0  0  0  0  0
   -2.7220   22.0220  -28.6420 C   0  0  0  0  0  0  0  0  0  0  0  0
   -1.6770   22.5280  -27.8660 C   0  0  0  0  0  0  0  0  0  0  0  0
   -1.3310   23.8790  -27.9530 C   0  0  0  0  0  0  0  0  0  0  0  0
   -2.0380   24.7320  -28.8070 C   0  0  0  0  0  0  0  0  0  0  0  0
   -1.6250   26.0170  -28.9380 F   0  0  0  0  0  0  0  0  0  0  0  0
   -6.0300   21.6970  -31.5650 C   0  0  0  0  0  0  0  0  0  0  0  0
   -6.6270   20.9440  -32.7670 C   0  0  0  0  0  0  0  0  0  0  0  0
   -6.5560   17.4470  -31.3070 C   0  0  0  0  0  0  0  0  0  0  0  0
   -5.5240   16.5420  -31.5740 C   0  0  0  0  0  0  0  0  0  0  0  0
   -3.9850   14.3196  -31.3105 H   0  0  0  0  0  0  0  0  0  0  0  0
   -4.7727   13.4243  -32.6539 H   0  0  0  0  0  0  0  0  0  0  0  0
   -2.9919   13.6595  -32.6539 H   0  0  0  0  0  0  0  0  0  0  0  0
   -5.5739   16.6478  -34.9922 H   0  0  0  0  0  0  0  0  0  0  0  0
   -7.4139   18.2624  -34.5129 H   0  0  0  0  0  0  0  0  0  0  0  0
   -8.4930   20.8430  -33.6390 H   0  0  0  0  0  0  0  0  0  0  0  0
   -9.7786   22.0045  -32.2284 H   0  0  0  0  0  0  0  0  0  0  0  0
   -8.7622   21.5318  -30.8087 H   0  0  0  0  0  0  0  0  0  0  0  0
   -7.8951   23.4612  -33.0184 H   0  0  0  0  0  0  0  0  0  0  0  0
   -8.5348   23.9438  -31.3982 H   0  0  0  0  0  0  0  0  0  0  0  0
   -4.8867   23.6766  -32.3879 H   0  0  0  0  0  0  0  0  0  0  0  0
   -6.3226   24.7583  -32.5619 H   0  0  0  0  0  0  0  0  0  0  0  0
   -4.2511   22.4670  -30.1087 H   0  0  0  0  0  0  0  0  0  0  0  0
   -2.9844   20.9554  -28.5832 H   0  0  0  0  0  0  0  0  0  0  0  0
   -1.1257   21.8623  -27.1856 H   0  0  0  0  0  0  0  0  0  0  0  0
   -0.5006   24.2727  -27.3485 H   0  0  0  0  0  0  0  0  0  0  0  0
   -4.9476   21.8117  -31.7238 H   0  0  0  0  0  0  0  0  0  0  0  0
   -6.2482   21.1080  -30.6620 H   0  0  0  0  0  0  0  0  0  0  0  0
   -6.3898   21.5011  -33.6853 H   0  0  0  0  0  0  0  0  0  0  0  0
   -6.1882   19.9354  -32.7807 H   0  0  0  0  0  0  0  0  0  0  0  0
   -6.8322   17.6719  -30.2663 H   0  0  0  0  0  0  0  0  0  0  0  0
   -4.9933   16.0582  -30.7408 H   0  0  0  0  0  0  0  0  0  0  0  0
  1  2  1  0
  2  3  1  0
  3  4  2  0
  4  5  1  0
  5  6  2  0
  6  7  1  0
  7  8  2  0
  7  9  2  0
  7 10  1  0
 10 11  1  0
 11 12  1  0
 12 13  1  0
 13 14  1  0
 14 15  1  0
 15 16  2  0
 15 17  1  0
 17 18  1  0
 18 19  2  0
 19 20  1  0
 20 21  2  0
 21 22  1  0
 22 23  2  0
 23 24  1  0
 13 25  1  0
 25 26  1  0
  6 27  1  0
 27 28  2  0
 28  3  1  0
 26 10  1  0
 23 18  1  0
  1 29  1  0
  1 30  1  0
  1 31  1  0
  4 32  1  0
  5 33  1  0
 10 34  1  0
 11 35  1  0
 11 36  1  0
 12 37  1  0
 12 38  1  0
 14 39  1  0
 14 40  1  0
 19 41  1  0
 20 42  1  0
 21 43  1  0
 22 44  1  0
 25 45  1  0
 25 46  1  0
 26 47  1  0
 26 48  1  0
 27 49  1  0
 28 50  1  0
M  CHG  2  10   1  17  -1
M  END
>  <UniqueID>  (45) 
44

>  <SMILES>  (45) 
COc1ccc(S(=O)(=O)[NH+]2CCN(CC(=O)[N-]c3ccccc3F)CC2)cc1

>  <Energy>  (45) 
65.81219293737519

>  <Genealogy>  (45) 
COc1ccc(S(=O)(=O)[NH+]2CCN(CC(=O)[N-]c3ccccc3F)CC2)cc1 (protonated)
COc1ccc(S(=O)(=O)[NH+]2CCN(CC(=O)[N-]c3ccccc3F)CC2)cc1 (3D coordinates assigned)
COc1ccc(S(=O)(=O)[NH+]2CCN(CC(=O)[N-]c3ccccc3F)CC2)cc1 (nonaromatic ring conformer: 65.81219293737519 kcal/mol)

>  <smiles>  (45) 
COc1ccc(S(=O)(=O)N2CCN(CC(=O)Nc3ccccc3F)CC2)cc1

>  <score_type>  (45) 
oracle

>  <origin>  (45) 
adg

>  <m_score__min__energy>  (45) 
-9.9299999999999997

>  <m_primary>  (45) 
energy

$$$$
45:0
     RDKit          3D

 37 39  0  0  0  0  0  0  0  0999 V2000
   -0.9913   21.3992  -26.8274 H   0  0  0  0  0  0  0  0  0  0  0  0
   -1.6680   21.9540  -27.4940 C   0  0  0  0  0  0  0  0  0  0  0  0
   -1.3870   23.2830  -27.8140 C   0  0  0  0  0  0  0  0  0  0  0  0
   -0.4878   23.7648  -27.4026 H   0  0  0  0  0  0  0  0  0  0  0  0
   -2.2450   24.0120  -28.6590 C   0  0  0  0  0  0  0  0  0  0  0  0
   -1.9830   25.3470  -29.0060 O   0  0  0  0  0  0  0  0  0  0  0  0
   -1.2170   26.2530  -28.2190 C   0  0  0  0  0  0  0  0  0  0  0  0
   -1.3899   26.0485  -27.1521 H   0  0  0  0  0  0  0  0  0  0  0  0
   -0.1488   26.1253  -28.4484 H   0  0  0  0  0  0  0  0  0  0  0  0
   -1.5205   27.2851  -28.4484 H   0  0  0  0  0  0  0  0  0  0  0  0
   -3.3960   23.3850  -29.1750 C   0  0  0  0  0  0  0  0  0  0  0  0
   -4.5060   24.2710  -30.2270 S   0  0  0  0  0  0  0  0  0  0  0  0
   -5.8270   24.4750  -29.5370 O   0  0  0  0  0  0  0  0  0  0  0  0
   -3.9070   25.6090  -30.5520 O   0  0  0  0  0  0  0  0  0  0  0  0
   -4.7820   23.4060  -31.7030 N   0  0  0  0  0  0  0  0  0  0  0  0
   -5.7540   22.5570  -31.8420 C   0  0  0  0  0  0  0  0  0  0  0  0
   -5.6370   21.3990  -32.4730 O   0  0  0  0  0  0  0  0  0  0  0  0
   -6.8260   20.8490  -32.4130 C   0  0  0  0  0  0  0  0  0  0  0  0
   -7.2490   19.6270  -32.9270 C   0  0  0  0  0  0  0  0  0  0  0  0
   -6.5571   18.9658  -33.4693 H   0  0  0  0  0  0  0  0  0  0  0  0
   -8.5950   19.2690  -32.7270 C   0  0  0  0  0  0  0  0  0  0  0  0
   -8.9691   18.3112  -33.1178 H   0  0  0  0  0  0  0  0  0  0  0  0
   -9.4720   20.1330  -32.0260 C   0  0  0  0  0  0  0  0  0  0  0  0
  -10.5221   19.8417  -31.8761 H   0  0  0  0  0  0  0  0  0  0  0  0
   -9.0080   21.3620  -31.5200 C   0  0  0  0  0  0  0  0  0  0  0  0
   -9.6768   22.0437  -30.9740 H   0  0  0  0  0  0  0  0  0  0  0  0
   -7.6700   21.6820  -31.7370 C   0  0  0  0  0  0  0  0  0  0  0  0
   -7.0010   22.7830  -31.3620 N   0  0  0  0  0  0  0  0  0  0  0  0
   -7.3560   23.6120  -30.8360 H   0  0  0  0  0  0  0  0  0  0  0  0
   -3.6580   22.0410  -28.8630 C   0  0  0  0  0  0  0  0  0  0  0  0
   -4.5432   21.5458  -29.2886 H   0  0  0  0  0  0  0  0  0  0  0  0
   -2.8000   21.3220  -28.0120 C   0  0  0  0  0  0  0  0  0  0  0  0
   -3.0370   19.9850  -27.6590 O   0  0  0  0  0  0  0  0  0  0  0  0
   -2.4620   19.3390  -26.5270 C   0  0  0  0  0  0  0  0  0  0  0  0
   -2.8619   19.7883  -25.6060 H   0  0  0  0  0  0  0  0  0  0  0  0
   -2.7109   18.2678  -26.5504 H   0  0  0  0  0  0  0  0  0  0  0  0
   -1.3692   19.4621  -26.5504 H   0  0  0  0  0  0  0  0  0  0  0  0
  1  2  1  0
  2  3  2  0
  3  4  1  0
  3  5  1  0
  5  6  1  0
  6  7  1  0
  7  8  1  0
  7  9  1  0
  7 10  1  0
  5 11  2  0
 11 12  1  0
 12 13  2  0
 12 14  2  0
 12 15  1  0
 15 16  2  0
 16 17  1  0
 17 18  1  0
 18 19  2  0
 19 20  1  0
 19 21  1  0
 21 22  1  0
 21 23  2  0
 23 24  1  0
 23 25  1  0
 25 26  1  0
 25 27  2  0
 27 28  1  0
 28 29  1  0
 11 30  1  0
 30 31  1  0
 30 32  2  0
 32 33  1  0
 33 34  1  0
 34 35  1  0
 34 36  1  0
 34 37  1  0
 32  2  1  0
 28 16  1  0
 27 18  1  0
M  END
>  <UniqueID>  (46) 
45

>  <SMILES>  (46) 
COc1ccc(OC)c(S(=O)(=O)/N=c2/[nH]c3ccccc3o2)c1

>  <Energy>  (46) 
80.4404822673079

>  <Genealogy>  (46) 
COc1ccc(OC)c(S(=O)(=O)/N=c2/[nH]c3ccccc3o2)c1 (cis-trans isomerization)
COc1ccc(OC)c(S(=O)(=O)/N=c2/[nH]c3ccccc3o2)c1 (3D coordinates assigned)
COc1ccc(OC)c(S(=O)(=O)/N=c2/[nH]c3ccccc3o2)c1 (optimized conformer: 80.4404822673079 kcal/mol)

>  <smiles>  (46) 
COc1ccc(OC)c(S(=O)(=O)N=c2[nH]c3ccccc3o2)c1

>  <score_type>  (46) 
oracle

>  <origin>  (46) 
adg

>  <m_score__min__energy>  (46) 
-7.9800000000000004

>  <m_primary>  (46) 
energy

$$$$
46:0
     RDKit          3D

 40 41  0  0  0  0  0  0  0  0999 V2000
   -2.3980   21.4650  -33.0660 C   0  0  0  0  0  0  0  0  0  0  0  0
   -3.4820   20.7810  -32.3300 N   0  0  0  0  0  0  0  0  0  0  0  0
   -3.5770   21.3010  -30.9470 C   0  0  0  0  0  0  0  0  0  0  0  0
   -2.8650   22.6560  -30.8330 C   0  0  0  0  0  0  0  0  0  0  0  0
   -3.3960   23.4610  -29.6480 C   0  0  0  0  0  0  0  0  0  0  0  0
   -4.3720   24.8790  -30.2490 S   0  0  0  0  0  0  0  0  0  0  0  0
   -5.7810   23.8680  -30.7080 C   0  0  0  0  0  0  0  0  0  0  0  0
   -6.4530   23.1180  -29.7340 C   0  0  0  0  0  0  0  0  0  0  0  0
   -7.5510   22.3310  -30.0910 C   0  0  0  0  0  0  0  0  0  0  0  0
   -7.9840   22.2940  -31.4220 C   0  0  0  0  0  0  0  0  0  0  0  0
   -9.4850   21.2180  -31.9100 Br  0  0  0  0  0  0  0  0  0  0  0  0
   -7.3150   23.0450  -32.3950 C   0  0  0  0  0  0  0  0  0  0  0  0
   -6.2160   23.8330  -32.0380 C   0  0  0  0  0  0  0  0  0  0  0  0
   -4.7690   20.9490  -33.0420 C   0  0  0  0  0  0  0  0  0  0  0  0
   -5.6100   19.7020  -32.9340 C   0  0  0  0  0  0  0  0  0  0  0  0
   -5.6820   18.8080  -34.0140 C   0  0  0  0  0  0  0  0  0  0  0  0
   -6.4720   17.6570  -33.9230 C   0  0  0  0  0  0  0  0  0  0  0  0
   -7.1970   17.3950  -32.7580 C   0  0  0  0  0  0  0  0  0  0  0  0
   -7.1340   18.2830  -31.6800 C   0  0  0  0  0  0  0  0  0  0  0  0
   -6.3440   19.4340  -31.7660 C   0  0  0  0  0  0  0  0  0  0  0  0
   -1.6923   21.9103  -32.3492 H   0  0  0  0  0  0  0  0  0  0  0  0
   -1.8682   20.7373  -33.6983 H   0  0  0  0  0  0  0  0  0  0  0  0
   -2.8267   22.2565  -33.6983 H   0  0  0  0  0  0  0  0  0  0  0  0
   -4.6365   21.4249  -30.6787 H   0  0  0  0  0  0  0  0  0  0  0  0
   -3.0944   20.5865  -30.2639 H   0  0  0  0  0  0  0  0  0  0  0  0
   -1.7871   22.4846  -30.6962 H   0  0  0  0  0  0  0  0  0  0  0  0
   -3.0530   23.2269  -31.7543 H   0  0  0  0  0  0  0  0  0  0  0  0
   -4.0342   22.8164  -29.0258 H   0  0  0  0  0  0  0  0  0  0  0  0
   -2.5484   23.8310  -29.0524 H   0  0  0  0  0  0  0  0  0  0  0  0
   -6.1160   23.1487  -28.6874 H   0  0  0  0  0  0  0  0  0  0  0  0
   -8.0756   21.7401  -29.3258 H   0  0  0  0  0  0  0  0  0  0  0  0
   -7.6536   23.0156  -33.4412 H   0  0  0  0  0  0  0  0  0  0  0  0
   -5.6931   24.4257  -32.8030 H   0  0  0  0  0  0  0  0  0  0  0  0
   -5.3180   21.7932  -32.5994 H   0  0  0  0  0  0  0  0  0  0  0  0
   -4.5604   21.1415  -34.1047 H   0  0  0  0  0  0  0  0  0  0  0  0
   -5.1156   19.0131  -34.9344 H   0  0  0  0  0  0  0  0  0  0  0  0
   -6.5224   16.9572  -34.7702 H   0  0  0  0  0  0  0  0  0  0  0  0
   -7.8178   16.4895  -32.6888 H   0  0  0  0  0  0  0  0  0  0  0  0
   -7.7062   18.0763  -30.7635 H   0  0  0  0  0  0  0  0  0  0  0  0
   -6.2971   20.1316  -30.9168 H   0  0  0  0  0  0  0  0  0  0  0  0
  1  2  1  0
  2  3  1  0
  3  4  1  0
  4  5  1  0
  5  6  1  0
  6  7  1  0
  7  8  2  0
  8  9  1  0
  9 10  2  0
 10 11  1  0
 10 12  1  0
 12 13  2  0
  2 14  1  0
 14 15  1  0
 15 16  2  0
 16 17  1  0
 17 18  2  0
 18 19  1  0
 19 20  2  0
 13  7  1  0
 20 15  1  0
  1 21  1  0
  1 22  1  0
  1 23  1  0
  3 24  1  0
  3 25  1  0
  4 26  1  0
  4 27  1  0
  5 28  1  0
  5 29  1  0
  8 30  1  0
  9 31  1  0
 12 32  1  0
 13 33  1  0
 14 34  1  0
 14 35  1  0
 16 36  1  0
 17 37  1  0
 18 38  1  0
 19 39  1  0
 20 40  1  0
M  END
>  <UniqueID>  (47) 
46

>  <SMILES>  (47) 
CN(CCCSc1ccc(Br)cc1)Cc1ccccc1

>  <Energy>  (47) 
33.82855579473575

>  <Genealogy>  (47) 
CN(CCCSc1ccc(Br)cc1)Cc1ccccc1 (3D coordinates assigned)
CN(CCCSc1ccc(Br)cc1)Cc1ccccc1 (optimized conformer: 33.82855579473575 kcal/mol)

>  <smiles>  (47) 
CN(CCCSc1ccc(Br)cc1)Cc1ccccc1

>  <score_type>  (47) 
oracle

>  <origin>  (47) 
adg

>  <m_score__min__energy>  (47) 
-8.2699999999999996

>  <m_primary>  (47) 
energy

$$$$
47:0
     RDKit          3D

 34 36  0  0  0  0  0  0  0  0999 V2000
   -0.7830   21.1350  -27.2160 F   0  0  0  0  0  0  0  0  0  0  0  0
   -0.7260   21.9400  -28.3410 C   0  0  0  0  0  0  0  0  0  0  0  0
   -0.5440   21.1400  -29.4540 F   0  0  0  0  0  0  0  0  0  0  0  0
    0.3440   22.8070  -28.2240 F   0  0  0  0  0  0  0  0  0  0  0  0
   -1.9910   22.7290  -28.4750 C   0  0  0  0  0  0  0  0  0  0  0  0
   -2.0400   23.7970  -29.3140 N   0  0  0  0  0  0  0  0  0  0  0  0
   -3.1640   24.5530  -29.4230 C   0  0  0  0  0  0  0  0  0  0  0  0
   -4.2940   24.2460  -28.6520 C   0  0  0  0  0  0  0  0  0  0  0  0
   -5.5110   25.0120  -28.7740 N   0  0  0  0  0  0  0  0  0  0  0  0
   -5.9450   25.1100  -30.1780 C   0  0  0  0  0  0  0  0  0  0  0  0
   -6.1680   23.7500  -30.7920 C   0  0  0  0  0  0  0  0  0  0  0  0
   -7.1230   22.8690  -30.2710 C   0  0  0  0  0  0  0  0  0  0  0  0
   -7.2760   21.6350  -30.8140 N   0  0  0  0  0  0  0  0  0  0  0  0
   -6.5150   21.2260  -31.8640 C   0  0  0  0  0  0  0  0  0  0  0  0
   -6.7000   19.8790  -32.4370 C   0  0  0  0  0  0  0  0  0  0  0  0
   -7.6630   18.9650  -31.9740 C   0  0  0  0  0  0  0  0  0  0  0  0
   -7.6600   17.7580  -32.6580 C   0  0  0  0  0  0  0  0  0  0  0  0
   -6.4660   17.8280  -33.8360 S   0  0  0  0  0  0  0  0  0  0  0  0
   -5.9380   19.3850  -33.4930 C   0  0  0  0  0  0  0  0  0  0  0  0
   -5.5760   22.0660  -32.3800 N   0  0  0  0  0  0  0  0  0  0  0  0
   -5.3880   23.3090  -31.8670 C   0  0  0  0  0  0  0  0  0  0  0  0
   -4.2160   23.1470  -27.7850 C   0  0  0  0  0  0  0  0  0  0  0  0
   -3.0720   22.4210  -27.7090 N   0  0  0  0  0  0  0  0  0  0  0  0
   -3.1872   25.4064  -30.1166 H   0  0  0  0  0  0  0  0  0  0  0  0
   -6.2660   24.5410  -28.2220 H   0  0  0  0  0  0  0  0  0  0  0  0
   -5.3850   25.9700  -28.3720 H   0  0  0  0  0  0  0  0  0  0  0  0
   -6.8857   25.6786  -30.2210 H   0  0  0  0  0  0  0  0  0  0  0  0
   -5.1508   25.6157  -30.7468 H   0  0  0  0  0  0  0  0  0  0  0  0
   -7.7496   23.1772  -29.4211 H   0  0  0  0  0  0  0  0  0  0  0  0
   -8.3539   19.1862  -31.1471 H   0  0  0  0  0  0  0  0  0  0  0  0
   -8.3246   16.9035  -32.4624 H   0  0  0  0  0  0  0  0  0  0  0  0
   -5.1303   19.9216  -34.0124 H   0  0  0  0  0  0  0  0  0  0  0  0
   -4.6214   23.9704  -32.2970 H   0  0  0  0  0  0  0  0  0  0  0  0
   -5.0829   22.8730  -27.1658 H   0  0  0  0  0  0  0  0  0  0  0  0
  1  2  1  0
  2  3  1  0
  2  4  1  0
  2  5  1  0
  5  6  2  0
  6  7  1  0
  7  8  2  0
  8  9  1  0
  9 10  1  0
 10 11  1  0
 11 12  2  0
 12 13  1  0
 13 14  2  0
 14 15  1  0
 15 16  1  0
 16 17  2  0
 17 18  1  0
 18 19  1  0
 14 20  1  0
 20 21  2  0
  8 22  1  0
 22 23  2  0
 23  5  1  0
 21 11  1  0
 19 15  2  0
  7 24  1  0
  9 25  1  0
  9 26  1  0
 10 27  1  0
 10 28  1  0
 12 29  1  0
 16 30  1  0
 17 31  1  0
 19 32  1  0
 21 33  1  0
 22 34  1  0
M  CHG  1   9   1
M  END
>  <UniqueID>  (48) 
47

>  <SMILES>  (48) 
FC(F)(F)c1ncc([NH2+]Cc2cnc(-c3ccsc3)nc2)cn1

>  <Energy>  (48) 
63.53940332182365

>  <Genealogy>  (48) 
FC(F)(F)c1ncc([NH2+]Cc2cnc(-c3ccsc3)nc2)cn1 (protonated)
FC(F)(F)c1ncc([NH2+]Cc2cnc(-c3ccsc3)nc2)cn1 (3D coordinates assigned)
FC(F)(F)c1ncc([NH2+]Cc2cnc(-c3ccsc3)nc2)cn1 (optimized conformer: 63.53940332182365 kcal/mol)

>  <smiles>  (48) 
FC(F)(F)c1ncc(NCc2cnc(-c3ccsc3)nc2)cn1

>  <score_type>  (48) 
oracle

>  <origin>  (48) 
adg

>  <m_score__min__energy>  (48) 
-6.2400000000000002

>  <m_primary>  (48) 
energy

$$$$
