0:0
     RDKit          3D

 35 36  0  0  0  0  0  0  0  0999 V2000
   -6.4940   17.3700  -33.6860 C   0  0  0  0  0  0  0  0  0  0  0  0
   -7.6130   17.7480  -32.7200 C   0  0  0  0  0  0  0  0  0  0  0  0
   -7.5890   19.2240  -32.4290 C   0  0  0  0  0  0  0  0  0  0  0  0
   -6.5620   20.0320  -32.9420 C   0  0  0  0  0  0  0  0  0  0  0  0
   -6.5200   21.3960  -32.6450 C   0  0  0  0  0  0  0  0  0  0  0  0
   -7.5010   21.9720  -31.8200 C   0  0  0  0  0  0  0  0  0  0  0  0
   -7.4460   23.4440  -31.4780 C   0  0  0  0  0  0  0  0  0  0  0  0
   -6.9650   23.6830  -30.0920 N   0  0  0  0  0  0  0  0  0  0  0  0
   -6.8320   25.1350  -29.8050 C   0  0  0  0  0  0  0  0  0  0  0  0
   -5.4150   25.6740  -30.0950 C   0  0  0  0  0  0  0  0  0  0  0  0
   -4.7690   24.8880  -31.0720 O   0  0  0  0  0  0  0  0  0  0  0  0
   -4.4990   23.5960  -30.5570 C   0  0  0  0  0  0  0  0  0  0  0  0
   -5.6960   22.9800  -29.7940 C   0  0  0  0  0  0  0  0  0  0  0  0
   -8.5200   21.1620  -31.2960 C   0  0  0  0  0  0  0  0  0  0  0  0
   -8.5620   19.7980  -31.5940 C   0  0  0  0  0  0  0  0  0  0  0  0
   -5.6031   17.0690  -33.1153 H   0  0  0  0  0  0  0  0  0  0  0  0
   -6.8236   16.5333  -34.3195 H   0  0  0  0  0  0  0  0  0  0  0  0
   -6.2487   18.2351  -34.3195 H   0  0  0  0  0  0  0  0  0  0  0  0
   -8.5819   17.4843  -33.1690 H   0  0  0  0  0  0  0  0  0  0  0  0
   -7.4668   17.1996  -31.7778 H   0  0  0  0  0  0  0  0  0  0  0  0
   -5.7854   19.5879  -33.5820 H   0  0  0  0  0  0  0  0  0  0  0  0
   -5.7157   22.0221  -33.0586 H   0  0  0  0  0  0  0  0  0  0  0  0
   -6.7640   23.9453  -32.1806 H   0  0  0  0  0  0  0  0  0  0  0  0
   -8.4672   23.8458  -31.5540 H   0  0  0  0  0  0  0  0  0  0  0  0
   -7.6920   23.3060  -29.4370 H   0  0  0  0  0  0  0  0  0  0  0  0
   -7.5518   25.6842  -30.4297 H   0  0  0  0  0  0  0  0  0  0  0  0
   -7.0289   25.2803  -28.7326 H   0  0  0  0  0  0  0  0  0  0  0  0
   -5.4906   26.7097  -30.4579 H   0  0  0  0  0  0  0  0  0  0  0  0
   -4.8267   25.6350  -29.1664 H   0  0  0  0  0  0  0  0  0  0  0  0
   -4.2405   22.9327  -31.3956 H   0  0  0  0  0  0  0  0  0  0  0  0
   -3.6717   23.6972  -29.8391 H   0  0  0  0  0  0  0  0  0  0  0  0
   -5.7978   21.9243  -30.0858 H   0  0  0  0  0  0  0  0  0  0  0  0
   -5.4985   23.0776  -28.7163 H   0  0  0  0  0  0  0  0  0  0  0  0
   -9.2902   21.6038  -30.6467 H   0  0  0  0  0  0  0  0  0  0  0  0
   -9.3610   19.1702  -31.1727 H   0  0  0  0  0  0  0  0  0  0  0  0
  1  2  1  0
  2  3  1  0
  3  4  2  0
  4  5  1  0
  5  6  2  0
  6  7  1  0
  7  8  1  0
  8  9  1  0
  9 10  1  0
 10 11  1  0
 11 12  1  0
 12 13  1  0
  6 14  1  0
 14 15  2  0
 15  3  1  0
 13  8  1  0
  1 16  1  0
  1 17  1  0
  1 18  1  0
  2 19  1  0
  2 20  1  0
  4 21  1  0
  5 22  1  0
  7 23  1  0
  7 24  1  0
  8 25  1  0
  9 26  1  0
  9 27  1  0
 10 28  1  0
 10 29  1  0
 12 30  1  0
 12 31  1  0
 13 32  1  0
 13 33  1  0
 14 34  1  0
 15 35  1  0
M  CHG  1   8   1
M  END
>  <UniqueID>  (1) 
1

>  <SMILES>  (1) 
CCc1ccc(C[NH+]2CCOCC2)cc1

>  <Energy>  (1) 
43.27319738764761

>  <Genealogy>  (1) 
CCc1ccc(C[NH+]2CCOCC2)cc1 (protonated)
CCc1ccc(C[NH+]2CCOCC2)cc1 (3D coordinates assigned)
CCc1ccc(C[NH+]2CCOCC2)cc1 (nonaromatic ring conformer: 43.27319738764761 kcal/mol)

>  <smiles>  (1) 
CCc1ccc(CN2CCOCC2)cc1

>  <score_type>  (1) 
oracle

>  <origin>  (1) 
adg

>  <m_score__min__energy>  (1) 
-6.0899999999999999

>  <m_primary>  (1) 
energy

$$$$
1:0
     RDKit          3D

 46 48  0  0  0  0  0  0  0  0999 V2000
   -9.8530   21.6660  -31.2380 C   0  0  0  0  0  0  0  0  0  0  0  0
   -8.5990   21.0910  -31.8250 C   0  0  0  0  0  0  0  0  0  0  0  0
   -7.5500   21.9350  -32.2060 C   0  0  0  0  0  0  0  0  0  0  0  0
   -6.3700   21.4010  -32.7260 C   0  0  0  0  0  0  0  0  0  0  0  0
   -6.2210   20.0110  -32.8980 C   0  0  0  0  0  0  0  0  0  0  0  0
   -4.9320   19.4750  -33.5030 C   0  0  0  0  0  0  0  0  0  0  0  0
   -3.8990   19.1750  -32.4820 N   0  0  0  0  0  0  0  0  0  0  0  0
   -2.5940   19.8470  -32.7030 C   0  0  0  0  0  0  0  0  0  0  0  0
   -2.7240   21.1880  -33.4550 C   0  0  0  0  0  0  0  0  0  0  0  0
   -3.3830   22.2610  -32.5780 C   0  0  0  0  0  0  0  0  0  0  0  0
   -2.7720   22.3940  -31.2240 N   0  0  0  0  0  0  0  0  0  0  0  0
   -3.7570   22.2660  -30.1290 C   0  0  0  0  0  0  0  0  0  0  0  0
   -4.7310   23.4110  -30.1470 C   0  0  0  0  0  0  0  0  0  0  0  0
   -6.0820   23.2750  -29.7900 C   0  0  0  0  0  0  0  0  0  0  0  0
   -6.7910   24.4660  -29.8410 C   0  0  0  0  0  0  0  0  0  0  0  0
   -5.7350   25.6820  -30.3220 S   0  0  0  0  0  0  0  0  0  0  0  0
   -4.3710   24.7150  -30.4760 C   0  0  0  0  0  0  0  0  0  0  0  0
   -1.5890   21.5330  -31.0040 C   0  0  0  0  0  0  0  0  0  0  0  0
   -1.8590   20.0530  -31.3460 C   0  0  0  0  0  0  0  0  0  0  0  0
   -7.2540   19.1570  -32.4400 C   0  0  0  0  0  0  0  0  0  0  0  0
   -7.1170   17.4000  -32.4780 Cl  0  0  0  0  0  0  0  0  0  0  0  0
   -8.4330   19.7040  -31.9180 C   0  0  0  0  0  0  0  0  0  0  0  0
   -9.7906   21.6374  -30.1401 H   0  0  0  0  0  0  0  0  0  0  0  0
   -9.9699   22.7077  -31.5716 H   0  0  0  0  0  0  0  0  0  0  0  0
  -10.7186   21.0748  -31.5716 H   0  0  0  0  0  0  0  0  0  0  0  0
   -7.6558   23.0243  -32.0952 H   0  0  0  0  0  0  0  0  0  0  0  0
   -5.5460   22.0742  -33.0050 H   0  0  0  0  0  0  0  0  0  0  0  0
   -5.1602   18.5508  -34.0542 H   0  0  0  0  0  0  0  0  0  0  0  0
   -4.5271   20.2552  -34.1643 H   0  0  0  0  0  0  0  0  0  0  0  0
   -4.2430   19.3720  -31.5180 H   0  0  0  0  0  0  0  0  0  0  0  0
   -3.7270   18.1420  -32.5240 H   0  0  0  0  0  0  0  0  0  0  0  0
   -1.9996   19.1831  -33.3479 H   0  0  0  0  0  0  0  0  0  0  0  0
   -1.7213   21.5322  -33.7486 H   0  0  0  0  0  0  0  0  0  0  0  0
   -3.3570   21.0281  -34.3403 H   0  0  0  0  0  0  0  0  0  0  0  0
   -3.2980   23.2293  -33.0929 H   0  0  0  0  0  0  0  0  0  0  0  0
   -4.4282   21.9528  -32.4277 H   0  0  0  0  0  0  0  0  0  0  0  0
   -4.3087   21.3220  -30.2494 H   0  0  0  0  0  0  0  0  0  0  0  0
   -3.2192   22.2771  -29.1695 H   0  0  0  0  0  0  0  0  0  0  0  0
   -6.5347   22.3160  -29.4979 H   0  0  0  0  0  0  0  0  0  0  0  0
   -7.8584   24.5927  -29.6074 H   0  0  0  0  0  0  0  0  0  0  0  0
   -3.3699   25.0522  -30.7826 H   0  0  0  0  0  0  0  0  0  0  0  0
   -0.7664   21.8963  -31.6375 H   0  0  0  0  0  0  0  0  0  0  0  0
   -1.3330   21.5861  -29.9355 H   0  0  0  0  0  0  0  0  0  0  0  0
   -0.8947   19.5255  -31.3900 H   0  0  0  0  0  0  0  0  0  0  0  0
   -2.5191   19.6573  -30.5601 H   0  0  0  0  0  0  0  0  0  0  0  0
   -9.2378   19.0361  -31.5772 H   0  0  0  0  0  0  0  0  0  0  0  0
  1  2  1  0
  2  3  2  0
  3  4  1  0
  4  5  2  0
  5  6  1  0
  6  7  1  0
  7  8  1  0
  8  9  1  0
  9 10  1  0
 10 11  1  0
 11 12  1  0
 12 13  1  0
 13 14  1  0
 14 15  2  0
 15 16  1  0
 16 17  1  0
 11 18  1  0
 18 19  1  0
  5 20  1  0
 20 21  1  0
 20 22  2  0
 22  2  1  0
 19  8  1  0
 17 13  2  0
  1 23  1  0
  1 24  1  0
  1 25  1  0
  3 26  1  0
  4 27  1  0
  6 28  1  0
  6 29  1  0
  7 30  1  0
  7 31  1  0
  8 32  1  0
  9 33  1  0
  9 34  1  0
 10 35  1  0
 10 36  1  0
 12 37  1  0
 12 38  1  0
 14 39  1  0
 15 40  1  0
 17 41  1  0
 18 42  1  0
 18 43  1  0
 19 44  1  0
 19 45  1  0
 22 46  1  0
M  CHG  1   7   1
M  END
>  <UniqueID>  (2) 
2

>  <SMILES>  (2) 
Cc1ccc(C[NH2+]C2CCN(Cc3ccsc3)CC2)c(Cl)c1

>  <Energy>  (2) 
86.63183250048489

>  <Genealogy>  (2) 
Cc1ccc(C[NH2+]C2CCN(Cc3ccsc3)CC2)c(Cl)c1 (protonated)
Cc1ccc(C[NH2+]C2CCN(Cc3ccsc3)CC2)c(Cl)c1 (3D coordinates assigned)
Cc1ccc(C[NH2+]C2CCN(Cc3ccsc3)CC2)c(Cl)c1 (nonaromatic ring conformer: 86.63183250048489 kcal/mol)

>  <smiles>  (2) 
Cc1ccc(CNC2CCN(Cc3ccsc3)CC2)c(Cl)c1

>  <score_type>  (2) 
oracle

>  <origin>  (2) 
adg

>  <m_score__min__energy>  (2) 
-7.79

>  <m_primary>  (2) 
energy

$$$$
3:0
     RDKit          3D

 46 49  0  0  0  0  0  0  0  0999 V2000
   -2.3630   20.8950  -34.0920 N   0  0  0  0  0  0  0  0  0  0  0  0
   -3.5720   20.3980  -33.4390 C   0  0  0  0  0  0  0  0  0  0  0  0
   -3.8660   21.2170  -32.2080 C   0  0  0  0  0  0  0  0  0  0  0  0
   -2.8320   21.9370  -31.5890 C   0  0  0  0  0  0  0  0  0  0  0  0
   -3.0810   22.6620  -30.4170 C   0  0  0  0  0  0  0  0  0  0  0  0
   -2.0640   23.3940  -29.7850 C   0  0  0  0  0  0  0  0  0  0  0  0
   -2.3350   24.1180  -28.6060 C   0  0  0  0  0  0  0  0  0  0  0  0
   -1.2610   24.8970  -27.9380 C   0  0  0  0  0  0  0  0  0  0  0  0
   -1.5730   26.0060  -27.1300 C   0  0  0  0  0  0  0  0  0  0  0  0
   -0.5540   26.7290  -26.5090 C   0  0  0  0  0  0  0  0  0  0  0  0
    0.7740   26.3420  -26.6980 C   0  0  0  0  0  0  0  0  0  0  0  0
    1.0660   25.2690  -27.4820 N   0  0  0  0  0  0  0  0  0  0  0  0
    0.0920   24.5460  -28.0960 C   0  0  0  0  0  0  0  0  0  0  0  0
   -3.6390   24.0940  -28.0710 C   0  0  0  0  0  0  0  0  0  0  0  0
   -4.6510   23.3610  -28.6960 C   0  0  0  0  0  0  0  0  0  0  0  0
   -4.3780   22.6440  -29.8650 C   0  0  0  0  0  0  0  0  0  0  0  0
   -5.3620   21.9260  -30.4670 N   0  0  0  0  0  0  0  0  0  0  0  0
   -5.1470   21.2200  -31.6100 C   0  0  0  0  0  0  0  0  0  0  0  0
   -6.2330   20.4720  -32.1760 N   0  0  0  0  0  0  0  0  0  0  0  0
   -6.2240   19.0090  -32.0490 C   0  0  0  0  0  0  0  0  0  0  0  0
   -7.4570   18.3870  -32.7170 C   0  0  0  0  0  0  0  0  0  0  0  0
   -8.7670   19.0310  -32.2190 C   0  0  0  0  0  0  0  0  0  0  0  0
   -8.6740   20.5580  -32.0030 C   0  0  0  0  0  0  0  0  0  0  0  0
   -7.4320   21.1720  -32.6550 C   0  0  0  0  0  0  0  0  0  0  0  0
   -2.3620   20.5370  -35.0750 H   0  0  0  0  0  0  0  0  0  0  0  0
   -2.4340   21.9390  -34.1550 H   0  0  0  0  0  0  0  0  0  0  0  0
   -4.4194   20.4715  -34.1365 H   0  0  0  0  0  0  0  0  0  0  0  0
   -3.4196   19.3485  -33.1469 H   0  0  0  0  0  0  0  0  0  0  0  0
   -1.8226   21.9317  -32.0261 H   0  0  0  0  0  0  0  0  0  0  0  0
   -1.0502   23.4029  -30.2117 H   0  0  0  0  0  0  0  0  0  0  0  0
   -2.6224   26.3035  -26.9877 H   0  0  0  0  0  0  0  0  0  0  0  0
   -0.7948   27.5960  -25.8763 H   0  0  0  0  0  0  0  0  0  0  0  0
    1.5849   26.9050  -26.2127 H   0  0  0  0  0  0  0  0  0  0  0  0
    0.3635   23.6817  -28.7199 H   0  0  0  0  0  0  0  0  0  0  0  0
   -3.8618   24.6576  -27.1530 H   0  0  0  0  0  0  0  0  0  0  0  0
   -5.6641   23.3479  -28.2678 H   0  0  0  0  0  0  0  0  0  0  0  0
   -5.3173   18.6126  -32.5294 H   0  0  0  0  0  0  0  0  0  0  0  0
   -6.2401   18.7519  -30.9796 H   0  0  0  0  0  0  0  0  0  0  0  0
   -7.3819   18.5295  -33.8051 H   0  0  0  0  0  0  0  0  0  0  0  0
   -7.4825   17.3182  -32.4579 H   0  0  0  0  0  0  0  0  0  0  0  0
   -9.5536   18.8341  -32.9623 H   0  0  0  0  0  0  0  0  0  0  0  0
   -8.9889   18.5838  -31.2388 H   0  0  0  0  0  0  0  0  0  0  0  0
   -9.5684   21.0298  -32.4358 H   0  0  0  0  0  0  0  0  0  0  0  0
   -8.6037   20.7369  -30.9199 H   0  0  0  0  0  0  0  0  0  0  0  0
   -7.5036   21.0714  -33.7480 H   0  0  0  0  0  0  0  0  0  0  0  0
   -7.3662   22.2374  -32.3892 H   0  0  0  0  0  0  0  0  0  0  0  0
  1  2  1  0
  2  3  1  0
  3  4  2  0
  4  5  1  0
  5  6  2  0
  6  7  1  0
  7  8  1  0
  8  9  2  0
  9 10  1  0
 10 11  2  0
 11 12  1  0
 12 13  2  0
  7 14  2  0
 14 15  1  0
 15 16  2  0
 16 17  1  0
 17 18  2  0
 18 19  1  0
 19 20  1  0
 20 21  1  0
 21 22  1  0
 22 23  1  0
 23 24  1  0
 18  3  1  0
 24 19  1  0
 16  5  1  0
 13  8  1  0
  1 25  1  0
  1 26  1  0
  2 27  1  0
  2 28  1  0
  4 29  1  0
  6 30  1  0
  9 31  1  0
 10 32  1  0
 11 33  1  0
 13 34  1  0
 14 35  1  0
 15 36  1  0
 20 37  1  0
 20 38  1  0
 21 39  1  0
 21 40  1  0
 22 41  1  0
 22 42  1  0
 23 43  1  0
 23 44  1  0
 24 45  1  0
 24 46  1  0
M  END
>  <UniqueID>  (3) 
3

>  <SMILES>  (3) 
NCc1cc2cc(-c3cccnc3)ccc2nc1N1CCCCC1

>  <Energy>  (3) 
63.390629018500086

>  <Genealogy>  (3) 
NCc1cc2cc(-c3cccnc3)ccc2nc1N1CCCCC1 (3D coordinates assigned)
NCc1cc2cc(-c3cccnc3)ccc2nc1N1CCCCC1 (nonaromatic ring conformer: 63.390629018500086 kcal/mol)

>  <smiles>  (3) 
NCc1cc2cc(-c3cccnc3)ccc2nc1N1CCCCC1

>  <score_type>  (3) 
oracle

>  <origin>  (3) 
adg

>  <m_score__min__energy>  (3) 
-8.0500000000000007

>  <m_primary>  (3) 
energy

$$$$
4:0
     RDKit          3D

 38 40  0  0  0  0  0  0  0  0999 V2000
   -9.0890   18.6130  -31.6600 C   0  0  0  0  0  0  0  0  0  0  0  0
   -7.7560   18.6160  -32.3250 C   0  0  0  0  0  0  0  0  0  0  0  0
   -6.9980   19.7240  -32.4730 N   0  0  0  0  0  0  0  0  0  0  0  0
   -5.8570   19.4690  -33.1710 C   0  0  0  0  0  0  0  0  0  0  0  0
   -4.8440   20.5490  -33.4620 C   0  0  0  0  0  0  0  0  0  0  0  0
   -4.6500   21.5130  -32.3500 N   0  0  0  0  0  0  0  0  0  0  0  0
   -5.7640   22.4930  -32.2540 C   0  0  0  0  0  0  0  0  0  0  0  0
   -5.8200   23.2090  -30.8880 C   0  0  0  0  0  0  0  0  0  0  0  0
   -4.5130   23.1660  -30.2240 N   0  0  0  0  0  0  0  0  0  0  0  0
   -3.7730   24.3820  -30.0010 C   0  0  0  0  0  0  0  0  0  0  0  0
   -3.8750   25.3330  -30.8240 O   0  0  0  0  0  0  0  0  0  0  0  0
   -2.8790   24.5440  -28.8400 C   0  0  0  0  0  0  0  0  0  0  0  0
   -3.1960   24.3100  -27.5060 C   0  0  0  0  0  0  0  0  0  0  0  0
   -2.1440   24.5990  -26.6280 C   0  0  0  0  0  0  0  0  0  0  0  0
   -1.0030   25.0750  -27.2600 C   0  0  0  0  0  0  0  0  0  0  0  0
   -1.3060   25.1360  -28.9130 S   0  0  0  0  0  0  0  0  0  0  0  0
   -3.8740   21.8580  -30.0250 C   0  0  0  0  0  0  0  0  0  0  0  0
   -4.3890   20.8410  -31.0570 C   0  0  0  0  0  0  0  0  0  0  0  0
   -5.7150   18.1530  -33.6060 C   0  0  0  0  0  0  0  0  0  0  0  0
   -7.0610   17.2890  -33.0880 S   0  0  0  0  0  0  0  0  0  0  0  0
   -8.9541   18.6133  -30.5683 H   0  0  0  0  0  0  0  0  0  0  0  0
   -9.6506   19.5099  -31.9603 H   0  0  0  0  0  0  0  0  0  0  0  0
   -9.6466   17.7136  -31.9603 H   0  0  0  0  0  0  0  0  0  0  0  0
   -3.8778   20.0682  -33.6750 H   0  0  0  0  0  0  0  0  0  0  0  0
   -5.2298   21.1239  -34.3168 H   0  0  0  0  0  0  0  0  0  0  0  0
   -3.7860   22.0550  -32.5960 H   0  0  0  0  0  0  0  0  0  0  0  0
   -5.6341   23.2498  -33.0416 H   0  0  0  0  0  0  0  0  0  0  0  0
   -6.7046   21.9351  -32.3723 H   0  0  0  0  0  0  0  0  0  0  0  0
   -6.1118   24.2583  -31.0424 H   0  0  0  0  0  0  0  0  0  0  0  0
   -6.5563   22.6968  -30.2511 H   0  0  0  0  0  0  0  0  0  0  0  0
   -4.1754   23.9353  -27.1738 H   0  0  0  0  0  0  0  0  0  0  0  0
   -2.2150   24.4617  -25.5389 H   0  0  0  0  0  0  0  0  0  0  0  0
   -0.0636   25.3624  -26.7651 H   0  0  0  0  0  0  0  0  0  0  0  0
   -2.7852   21.9669  -30.1371 H   0  0  0  0  0  0  0  0  0  0  0  0
   -4.1183   21.4940  -29.0162 H   0  0  0  0  0  0  0  0  0  0  0  0
   -3.6327   20.0554  -31.2018 H   0  0  0  0  0  0  0  0  0  0  0  0
   -5.3252   20.3971  -30.6875 H   0  0  0  0  0  0  0  0  0  0  0  0
   -4.8714   17.7505  -34.1859 H   0  0  0  0  0  0  0  0  0  0  0  0
  1  2  1  0
  2  3  2  0
  3  4  1  0
  4  5  1  0
  5  6  1  0
  6  7  1  0
  7  8  1  0
  8  9  1  0
  9 10  1  0
 10 11  2  0
 10 12  1  0
 12 13  2  0
 13 14  1  0
 14 15  2  0
 15 16  1  0
  9 17  1  0
 17 18  1  0
  4 19  2  0
 19 20  1  0
 20  2  1  0
 18  6  1  0
 16 12  1  0
  1 21  1  0
  1 22  1  0
  1 23  1  0
  5 24  1  0
  5 25  1  0
  6 26  1  0
  7 27  1  0
  7 28  1  0
  8 29  1  0
  8 30  1  0
 13 31  1  0
 14 32  1  0
 15 33  1  0
 17 34  1  0
 17 35  1  0
 18 36  1  0
 18 37  1  0
 19 38  1  0
M  CHG  1   6   1
M  END
>  <UniqueID>  (4) 
4

>  <SMILES>  (4) 
Cc1nc(C[NH+]2CCN(C(=O)c3cccs3)CC2)cs1

>  <Energy>  (4) 
104.88040600823136

>  <Genealogy>  (4) 
Cc1nc(C[NH+]2CCN(C(=O)c3cccs3)CC2)cs1 (protonated)
Cc1nc(C[NH+]2CCN(C(=O)c3cccs3)CC2)cs1 (3D coordinates assigned)
Cc1nc(C[NH+]2CCN(C(=O)c3cccs3)CC2)cs1 (nonaromatic ring conformer: 104.88040600823136 kcal/mol)

>  <smiles>  (4) 
Cc1nc(CN2CCN(C(=O)c3cccs3)CC2)cs1

>  <score_type>  (4) 
oracle

>  <origin>  (4) 
adg

>  <m_score__min__energy>  (4) 
-6.8099999999999996

>  <m_primary>  (4) 
energy

$$$$
5:0
     RDKit          3D

 42 43  0  0  0  0  0  0  0  0999 V2000
   -3.6090   22.3320  -28.8730 C   0  0  0  0  0  0  0  0  0  0  0  0
   -3.5840   21.5630  -30.1910 C   0  0  0  0  0  0  0  0  0  0  0  0
   -4.2430   22.3370  -31.2480 N   0  0  0  0  0  0  0  0  0  0  0  0
   -4.2210   21.8880  -32.6450 C   0  0  0  0  0  0  0  0  0  0  0  0
   -3.1990   20.7730  -32.8390 C   0  0  0  0  0  0  0  0  0  0  0  0
   -5.0270   23.4830  -30.8860 C   0  0  0  0  0  0  0  0  0  0  0  0
   -4.5570   24.6790  -30.9090 N   0  0  0  0  0  0  0  0  0  0  0  0
   -5.5440   25.6200  -30.3950 C   0  0  0  0  0  0  0  0  0  0  0  0
   -6.7700   24.7520  -30.0490 C   0  0  0  0  0  0  0  0  0  0  0  0
   -6.3390   23.3970  -30.3580 N   0  0  0  0  0  0  0  0  0  0  0  0
   -7.2040   22.2190  -30.3770 C   0  0  0  0  0  0  0  0  0  0  0  0
   -7.8010   22.0120  -31.7720 C   0  0  0  0  0  0  0  0  0  0  0  0
   -7.6700   20.5750  -32.1970 C   0  0  0  0  0  0  0  0  0  0  0  0
   -8.4710   19.5840  -31.6060 C   0  0  0  0  0  0  0  0  0  0  0  0
   -8.3220   18.2450  -31.9790 C   0  0  0  0  0  0  0  0  0  0  0  0
   -7.3670   17.8850  -32.9340 C   0  0  0  0  0  0  0  0  0  0  0  0
   -7.2230   16.5850  -33.2920 F   0  0  0  0  0  0  0  0  0  0  0  0
   -6.5560   18.8640  -33.5150 C   0  0  0  0  0  0  0  0  0  0  0  0
   -6.7020   20.2050  -33.1450 C   0  0  0  0  0  0  0  0  0  0  0  0
   -3.5859   21.6216  -28.0335 H   0  0  0  0  0  0  0  0  0  0  0  0
   -2.7319   22.9935  -28.8178 H   0  0  0  0  0  0  0  0  0  0  0  0
   -4.5272   22.9352  -28.8178 H   0  0  0  0  0  0  0  0  0  0  0  0
   -2.5398   21.3720  -30.4793 H   0  0  0  0  0  0  0  0  0  0  0  0
   -4.1201   20.6116  -30.0588 H   0  0  0  0  0  0  0  0  0  0  0  0
   -5.2186   21.5147  -32.9196 H   0  0  0  0  0  0  0  0  0  0  0  0
   -3.9411   22.7382  -33.2844 H   0  0  0  0  0  0  0  0  0  0  0  0
   -2.8641   20.4076  -31.8570 H   0  0  0  0  0  0  0  0  0  0  0  0
   -3.6599   19.9467  -33.4000 H   0  0  0  0  0  0  0  0  0  0  0  0
   -2.3357   21.1604  -33.4000 H   0  0  0  0  0  0  0  0  0  0  0  0
   -3.5930   24.9320  -31.2210 H   0  0  0  0  0  0  0  0  0  0  0  0
   -5.1636   26.1293  -29.4973 H   0  0  0  0  0  0  0  0  0  0  0  0
   -5.7849   26.4090  -31.1227 H   0  0  0  0  0  0  0  0  0  0  0  0
   -7.0286   24.8470  -28.9841 H   0  0  0  0  0  0  0  0  0  0  0  0
   -7.6702   25.0482  -30.6075 H   0  0  0  0  0  0  0  0  0  0  0  0
   -6.6140   21.3326  -30.1010 H   0  0  0  0  0  0  0  0  0  0  0  0
   -8.0236   22.3689  -29.6588 H   0  0  0  0  0  0  0  0  0  0  0  0
   -8.8657   22.2879  -31.7540 H   0  0  0  0  0  0  0  0  0  0  0  0
   -7.2557   22.6443  -32.4881 H   0  0  0  0  0  0  0  0  0  0  0  0
   -9.2176   19.8623  -30.8476 H   0  0  0  0  0  0  0  0  0  0  0  0
   -8.9575   17.4733  -31.5201 H   0  0  0  0  0  0  0  0  0  0  0  0
   -5.8022   18.5796  -34.2639 H   0  0  0  0  0  0  0  0  0  0  0  0
   -6.0567   20.9721  -33.5979 H   0  0  0  0  0  0  0  0  0  0  0  0
  1  2  1  0
  2  3  1  0
  3  4  1  0
  4  5  1  0
  3  6  1  0
  6  7  2  0
  7  8  1  0
  8  9  1  0
  9 10  1  0
 10 11  1  0
 11 12  1  0
 12 13  1  0
 13 14  2  0
 14 15  1  0
 15 16  2  0
 16 17  1  0
 16 18  1  0
 18 19  2  0
 10  6  1  0
 19 13  1  0
  1 20  1  0
  1 21  1  0
  1 22  1  0
  2 23  1  0
  2 24  1  0
  4 25  1  0
  4 26  1  0
  5 27  1  0
  5 28  1  0
  5 29  1  0
  7 30  1  0
  8 31  1  0
  8 32  1  0
  9 33  1  0
  9 34  1  0
 11 35  1  0
 11 36  1  0
 12 37  1  0
 12 38  1  0
 14 39  1  0
 15 40  1  0
 18 41  1  0
 19 42  1  0
M  CHG  1   7   1
M  END
>  <UniqueID>  (5) 
5

>  <SMILES>  (5) 
CCN(CC)C1=[NH+]CCN1CCc1ccc(F)cc1

>  <Energy>  (5) 
45.50685121309529

>  <Genealogy>  (5) 
CCN(CC)C1=[NH+]CCN1CCc1ccc(F)cc1 (protonated)
CCN(CC)C1=[NH+]CCN1CCc1ccc(F)cc1 (3D coordinates assigned)
CCN(CC)C1=[NH+]CCN1CCc1ccc(F)cc1 (nonaromatic ring conformer: 45.50685121309529 kcal/mol)

>  <smiles>  (5) 
CCN(CC)C1=NCCN1CCc1ccc(F)cc1

>  <score_type>  (5) 
oracle

>  <origin>  (5) 
adg

>  <m_score__min__energy>  (5) 
-6.1200000000000001

>  <m_primary>  (5) 
energy

$$$$
6:0
     RDKit          3D

 31 32  0  0  0  0  0  0  0  0999 V2000
   -2.6795   25.1950  -28.9236 H   0  0  0  0  0  0  0  0  0  0  0  0
   -3.1800   24.5560  -29.6660 C   0  0  0  0  0  0  0  0  0  0  0  0
   -4.2960   24.9990  -30.2950 N   0  0  0  0  0  0  0  0  0  0  0  0
   -4.9420   24.2430  -31.2180 C   0  0  0  0  0  0  0  0  0  0  0  0
   -5.8471   24.6335  -31.7061 H   0  0  0  0  0  0  0  0  0  0  0  0
   -4.4640   22.9640  -31.5560 C   0  0  0  0  0  0  0  0  0  0  0  0
   -5.1900   22.1560  -32.5120 N   0  0  0  0  0  0  0  0  0  0  0  0
   -5.1150   22.5710  -33.4700 H   0  0  0  0  0  0  0  0  0  0  0  0
   -4.7670   21.2010  -32.5740 H   0  0  0  0  0  0  0  0  0  0  0  0
   -6.5810   22.0800  -32.1340 C   0  0  0  0  0  0  0  0  0  0  0  0
   -7.4420   23.1720  -32.3480 C   0  0  0  0  0  0  0  0  0  0  0  0
   -7.0484   24.1011  -32.7861 H   0  0  0  0  0  0  0  0  0  0  0  0
   -8.7950   23.0830  -32.0070 C   0  0  0  0  0  0  0  0  0  0  0  0
   -9.4623   23.9402  -32.1798 H   0  0  0  0  0  0  0  0  0  0  0  0
   -9.3010   21.9070  -31.4470 C   0  0  0  0  0  0  0  0  0  0  0  0
  -10.3653   21.8394  -31.1772 H   0  0  0  0  0  0  0  0  0  0  0  0
   -8.4540   20.8170  -31.2300 C   0  0  0  0  0  0  0  0  0  0  0  0
   -8.8530   19.8908  -30.7906 H   0  0  0  0  0  0  0  0  0  0  0  0
   -7.1010   20.9010  -31.5700 C   0  0  0  0  0  0  0  0  0  0  0  0
   -6.4389   20.0401  -31.3955 H   0  0  0  0  0  0  0  0  0  0  0  0
   -3.3020   22.4770  -30.9090 C   0  0  0  0  0  0  0  0  0  0  0  0
   -2.8630   21.2880  -31.2160 N   0  0  0  0  0  0  0  0  0  0  0  0
   -2.7130   20.5710  -32.7930 S   0  0  0  0  0  0  0  0  0  0  0  0
   -3.1350   21.5440  -33.8580 O   0  0  0  0  0  0  0  0  0  0  0  0
   -3.6220   19.3760  -32.8560 O   0  0  0  0  0  0  0  0  0  0  0  0
   -1.0390   20.0190  -33.0660 C   0  0  0  0  0  0  0  0  0  0  0  0
   -0.1590   20.9710  -32.5860 F   0  0  0  0  0  0  0  0  0  0  0  0
   -0.8330   18.8280  -32.3970 F   0  0  0  0  0  0  0  0  0  0  0  0
   -0.8130   19.8290  -34.4140 F   0  0  0  0  0  0  0  0  0  0  0  0
   -2.6640   23.2940  -29.9560 C   0  0  0  0  0  0  0  0  0  0  0  0
   -1.7599   22.9369  -29.4412 H   0  0  0  0  0  0  0  0  0  0  0  0
  1  2  1  0
  2  3  1  0
  3  4  1  0
  4  5  1  0
  4  6  2  0
  6  7  1  0
  7  8  1  0
  7  9  1  0
  7 10  1  0
 10 11  2  0
 11 12  1  0
 11 13  1  0
 13 14  1  0
 13 15  2  0
 15 16  1  0
 15 17  1  0
 17 18  1  0
 17 19  2  0
 19 20  1  0
  6 21  1  0
 21 22  2  0
 22 23  1  0
 23 24  2  0
 23 25  2  0
 23 26  1  0
 26 27  1  0
 26 28  1  0
 26 29  1  0
 21 30  1  0
 30 31  1  0
 30  2  2  0
 19 10  1  0
M  CHG  2   3  -1   7   1
M  END
>  <UniqueID>  (6) 
6

>  <SMILES>  (6) 
O=S(=O)(/N=c1\cc[n-]cc1[NH2+]c1ccccc1)C(F)(F)F

>  <Energy>  (6) 
37.02757317017938

>  <Genealogy>  (6) 
O=S(=O)(N=c1cc[n-]cc1[NH2+]c1ccccc1)C(F)(F)F (protonated)
O=S(=O)(/N=c1\cc[n-]cc1[NH2+]c1ccccc1)C(F)(F)F (cis-trans isomerization)
O=S(=O)(/N=c1\cc[n-]cc1[NH2+]c1ccccc1)C(F)(F)F (3D coordinates assigned)
O=S(=O)(/N=c1\cc[n-]cc1[NH2+]c1ccccc1)C(F)(F)F (optimized conformer: 37.02757317017938 kcal/mol)

>  <smiles>  (6) 
O=S(=O)(N=c1cc[nH]cc1Nc1ccccc1)C(F)(F)F

>  <score_type>  (6) 
oracle

>  <origin>  (6) 
adg

>  <m_score__min__energy>  (6) 
-6.4100000000000001

>  <m_primary>  (6) 
energy

$$$$
7:0
     RDKit          3D

 40 41  0  0  0  0  0  0  0  0999 V2000
   -9.4920   22.2730  -32.0710 C   0  0  0  0  0  0  0  0  0  0  0  0
   -8.8760   21.2180  -31.1500 C   0  0  0  0  0  0  0  0  0  0  0  0
   -7.7560   20.4470  -31.8420 C   0  0  0  0  0  0  0  0  0  0  0  0
   -7.8600   19.0350  -31.9820 C   0  0  0  0  0  0  0  0  0  0  0  0
   -9.1030   18.2690  -31.5950 C   0  0  0  0  0  0  0  0  0  0  0  0
   -6.8030   18.3280  -32.5620 C   0  0  0  0  0  0  0  0  0  0  0  0
   -5.7000   18.9750  -32.9970 N   0  0  0  0  0  0  0  0  0  0  0  0
   -5.5520   20.3200  -32.9080 C   0  0  0  0  0  0  0  0  0  0  0  0
   -4.2900   20.9100  -33.4690 C   0  0  0  0  0  0  0  0  0  0  0  0
   -6.5850   21.1080  -32.3320 C   0  0  0  0  0  0  0  0  0  0  0  0
   -6.4620   22.6290  -32.2930 C   0  0  0  0  0  0  0  0  0  0  0  0
   -5.7650   23.0830  -31.0720 N   0  0  0  0  0  0  0  0  0  0  0  0
   -4.2970   23.1040  -31.2600 C   0  0  0  0  0  0  0  0  0  0  0  0
   -3.6190   23.8850  -30.1280 C   0  0  0  0  0  0  0  0  0  0  0  0
   -4.0430   25.2980  -30.0960 N   0  0  0  0  0  0  0  0  0  0  0  0
   -5.3490   25.5450  -30.7340 C   0  0  0  0  0  0  0  0  0  0  0  0
   -6.3140   24.3630  -30.5520 C   0  0  0  0  0  0  0  0  0  0  0  0
   -9.9544   23.0650  -31.4636 H   0  0  0  0  0  0  0  0  0  0  0  0
   -8.7066   22.7091  -32.7058 H   0  0  0  0  0  0  0  0  0  0  0  0
  -10.2578   21.8034  -32.7058 H   0  0  0  0  0  0  0  0  0  0  0  0
   -8.4670   21.7177  -30.2595 H   0  0  0  0  0  0  0  0  0  0  0  0
   -9.6644   20.5022  -30.8742 H   0  0  0  0  0  0  0  0  0  0  0  0
   -9.1785   18.2225  -30.4986 H   0  0  0  0  0  0  0  0  0  0  0  0
   -9.9890   18.7780  -32.0023 H   0  0  0  0  0  0  0  0  0  0  0  0
   -9.0466   17.2487  -32.0023 H   0  0  0  0  0  0  0  0  0  0  0  0
   -6.8700   17.2349  -32.6651 H   0  0  0  0  0  0  0  0  0  0  0  0
   -3.6309   21.2181  -32.6439 H   0  0  0  0  0  0  0  0  0  0  0  0
   -3.7770   20.1584  -34.0870 H   0  0  0  0  0  0  0  0  0  0  0  0
   -4.5377   21.7856  -34.0870 H   0  0  0  0  0  0  0  0  0  0  0  0
   -5.8956   22.9648  -33.1741 H   0  0  0  0  0  0  0  0  0  0  0  0
   -7.4749   23.0580  -32.2929 H   0  0  0  0  0  0  0  0  0  0  0  0
   -3.9183   22.0713  -31.2640 H   0  0  0  0  0  0  0  0  0  0  0  0
   -4.0690   23.5966  -32.2167 H   0  0  0  0  0  0  0  0  0  0  0  0
   -3.8788   23.4151  -29.1680 H   0  0  0  0  0  0  0  0  0  0  0  0
   -2.5334   23.8614  -30.3036 H   0  0  0  0  0  0  0  0  0  0  0  0
   -4.1020   25.5980  -29.0950 H   0  0  0  0  0  0  0  0  0  0  0  0
   -5.7990   26.4427  -30.2849 H   0  0  0  0  0  0  0  0  0  0  0  0
   -5.1790   25.6806  -31.8123 H   0  0  0  0  0  0  0  0  0  0  0  0
   -6.5252   24.2442  -29.4790 H   0  0  0  0  0  0  0  0  0  0  0  0
   -7.2249   24.5890  -31.1258 H   0  0  0  0  0  0  0  0  0  0  0  0
  1  2  1  0
  2  3  1  0
  3  4  2  0
  4  5  1  0
  4  6  1  0
  6  7  2  0
  7  8  1  0
  8  9  1  0
  8 10  2  0
 10 11  1  0
 11 12  1  0
 12 13  1  0
 13 14  1  0
 14 15  1  0
 15 16  1  0
 16 17  1  0
 10  3  1  0
 17 12  1  0
  1 18  1  0
  1 19  1  0
  1 20  1  0
  2 21  1  0
  2 22  1  0
  5 23  1  0
  5 24  1  0
  5 25  1  0
  6 26  1  0
  9 27  1  0
  9 28  1  0
  9 29  1  0
 11 30  1  0
 11 31  1  0
 13 32  1  0
 13 33  1  0
 14 34  1  0
 14 35  1  0
 15 36  1  0
 16 37  1  0
 16 38  1  0
 17 39  1  0
 17 40  1  0
M  END
>  <UniqueID>  (7) 
7

>  <SMILES>  (7) 
CCc1c(C)cnc(C)c1CN1CCNCC1

>  <Energy>  (7) 
52.99188500220162

>  <Genealogy>  (7) 
CCc1c(C)cnc(C)c1CN1CCNCC1 (3D coordinates assigned)
CCc1c(C)cnc(C)c1CN1CCNCC1 (nonaromatic ring conformer: 52.99188500220162 kcal/mol)

>  <smiles>  (7) 
CCc1c(C)cnc(C)c1CN1CCNCC1

>  <score_type>  (7) 
oracle

>  <origin>  (7) 
adg

>  <m_score__min__energy>  (7) 
-7.8499999999999996

>  <m_primary>  (7) 
energy

$$$$
8:0
     RDKit          3D

 51 54  0  0  0  0  0  0  0  0999 V2000
    0.2402   18.6123  -34.5994 H   0  0  0  0  0  0  0  0  0  0  0  0
   -0.6300   19.1660  -34.2170 C   0  0  0  0  0  0  0  0  0  0  0  0
   -0.4060   20.3730  -33.6630 C   0  0  0  0  0  0  0  0  0  0  0  0
    0.0950   21.4800  -34.4470 C   0  0  0  0  0  0  0  0  0  0  0  0
    0.4950   22.3670  -35.0750 N   0  0  0  0  0  0  0  0  0  0  0  0
   -0.7380   20.6160  -32.2400 C   0  0  0  0  0  0  0  0  0  0  0  0
   -1.6640   21.5080  -31.8230 N   0  0  0  0  0  0  0  0  0  0  0  0
   -1.7920   21.5440  -30.4660 C   0  0  0  0  0  0  0  0  0  0  0  0
   -2.7620   22.4570  -29.8050 C   0  0  0  0  0  0  0  0  0  0  0  0
   -3.1530   23.6470  -30.4500 C   0  0  0  0  0  0  0  0  0  0  0  0
   -2.7384   23.8923  -31.4389 H   0  0  0  0  0  0  0  0  0  0  0  0
   -4.0630   24.5190  -29.8450 C   0  0  0  0  0  0  0  0  0  0  0  0
   -4.3635   25.4432  -30.3604 H   0  0  0  0  0  0  0  0  0  0  0  0
   -4.5910   24.2190  -28.5880 C   0  0  0  0  0  0  0  0  0  0  0  0
   -5.3079   24.9053  -28.1136 H   0  0  0  0  0  0  0  0  0  0  0  0
   -4.2080   23.0470  -27.9340 C   0  0  0  0  0  0  0  0  0  0  0  0
   -4.6227   22.8126  -26.9425 H   0  0  0  0  0  0  0  0  0  0  0  0
   -3.2990   22.1690  -28.5340 C   0  0  0  0  0  0  0  0  0  0  0  0
   -3.0015   21.2483  -28.0107 H   0  0  0  0  0  0  0  0  0  0  0  0
   -0.9520   20.6550  -29.7860 C   0  0  0  0  0  0  0  0  0  0  0  0
   -0.8971   20.5234  -28.6953 H   0  0  0  0  0  0  0  0  0  0  0  0
   -0.0420   19.8240  -30.9280 S   0  0  0  0  0  0  0  0  0  0  0  0
   -1.9610   18.5280  -34.3500 C   0  0  0  0  0  0  0  0  0  0  0  0
   -3.1070   19.2790  -34.0540 C   0  0  0  0  0  0  0  0  0  0  0  0
   -3.0074   20.3334  -33.7568 H   0  0  0  0  0  0  0  0  0  0  0  0
   -4.3760   18.6970  -34.1340 C   0  0  0  0  0  0  0  0  0  0  0  0
   -5.2699   19.3014  -33.9201 H   0  0  0  0  0  0  0  0  0  0  0  0
   -4.5150   17.3410  -34.4870 C   0  0  0  0  0  0  0  0  0  0  0  0
   -5.7640   16.7020  -34.5690 O   0  0  0  0  0  0  0  0  0  0  0  0
   -6.6510   16.4860  -33.4710 C   0  0  0  0  0  0  0  0  0  0  0  0
   -7.6135   16.1138  -33.8520 H   0  0  0  0  0  0  0  0  0  0  0  0
   -6.1993   15.7488  -32.7909 H   0  0  0  0  0  0  0  0  0  0  0  0
   -6.8800   17.7610  -32.7170 C   0  0  0  0  0  0  0  0  0  0  0  0
   -6.7760   17.7660  -31.4610 O   0  0  0  0  0  0  0  0  0  0  0  0
   -7.1560   18.9760  -33.4290 N   0  0  0  0  0  0  0  0  0  0  0  0
   -6.8470   19.0400  -34.4250 H   0  0  0  0  0  0  0  0  0  0  0  0
   -7.8080   20.1150  -32.8420 C   0  0  0  0  0  0  0  0  0  0  0  0
   -9.1800   20.0490  -32.5500 C   0  0  0  0  0  0  0  0  0  0  0  0
   -9.7479   19.1388  -32.7930 H   0  0  0  0  0  0  0  0  0  0  0  0
   -9.8280   21.1340  -31.9520 C   0  0  0  0  0  0  0  0  0  0  0  0
  -10.9056   21.0799  -31.7378 H   0  0  0  0  0  0  0  0  0  0  0  0
   -9.1090   22.2870  -31.6260 C   0  0  0  0  0  0  0  0  0  0  0  0
   -9.6220   23.1420  -31.1615 H   0  0  0  0  0  0  0  0  0  0  0  0
   -7.7380   22.3540  -31.8900 C   0  0  0  0  0  0  0  0  0  0  0  0
   -6.8310   23.7920  -31.4540 Cl  0  0  0  0  0  0  0  0  0  0  0  0
   -7.0860   21.2720  -32.4910 C   0  0  0  0  0  0  0  0  0  0  0  0
   -6.0055   21.3252  -32.6901 H   0  0  0  0  0  0  0  0  0  0  0  0
   -3.3680   16.5880  -34.7620 C   0  0  0  0  0  0  0  0  0  0  0  0
   -3.4655   15.5289  -35.0428 H   0  0  0  0  0  0  0  0  0  0  0  0
   -2.0990   17.1700  -34.6830 C   0  0  0  0  0  0  0  0  0  0  0  0
   -1.2045   16.5617  -34.8825 H   0  0  0  0  0  0  0  0  0  0  0  0
  1  2  1  0
  2  3  2  0
  3  4  1  0
  4  5  3  0
  3  6  1  0
  6  7  2  0
  7  8  1  0
  8  9  1  0
  9 10  2  0
 10 11  1  0
 10 12  1  0
 12 13  1  0
 12 14  2  0
 14 15  1  0
 14 16  1  0
 16 17  1  0
 16 18  2  0
 18 19  1  0
  8 20  2  0
 20 21  1  0
 20 22  1  0
  2 23  1  0
 23 24  2  0
 24 25  1  0
 24 26  1  0
 26 27  1  0
 26 28  2  0
 28 29  1  0
 29 30  1  0
 30 31  1  0
 30 32  1  0
 30 33  1  0
 33 34  2  0
 33 35  1  0
 35 36  1  0
 35 37  1  0
 37 38  2  0
 38 39  1  0
 38 40  1  0
 40 41  1  0
 40 42  2  0
 42 43  1  0
 42 44  1  0
 44 45  1  0
 44 46  2  0
 46 47  1  0
 28 48  1  0
 48 49  1  0
 48 50  2  0
 50 51  1  0
 22  6  1  0
 50 23  1  0
 18  9  1  0
 46 37  1  0
M  END
>  <UniqueID>  (8) 
8

>  <SMILES>  (8) 
N#C/C(=C\c1ccc(OCC(=O)Nc2cccc(Cl)c2)cc1)c1nc(-c2ccccc2)cs1

>  <Energy>  (8) 
94.83421981671302

>  <Genealogy>  (8) 
N#C/C(=C\c1ccc(OCC(=O)Nc2cccc(Cl)c2)cc1)c1nc(-c2ccccc2)cs1 (cis-trans isomerization)
N#C/C(=C\c1ccc(OCC(=O)Nc2cccc(Cl)c2)cc1)c1nc(-c2ccccc2)cs1 (3D coordinates assigned)
N#C/C(=C\c1ccc(OCC(=O)Nc2cccc(Cl)c2)cc1)c1nc(-c2ccccc2)cs1 (optimized conformer: 94.83421981671302 kcal/mol)

>  <smiles>  (8) 
N#CC(=Cc1ccc(OCC(=O)Nc2cccc(Cl)c2)cc1)c1nc(-c2ccccc2)cs1

>  <score_type>  (8) 
oracle

>  <origin>  (8) 
adg

>  <m_score__min__energy>  (8) 
-10.65

>  <m_primary>  (8) 
energy

$$$$
9:0
     RDKit          3D

 33 35  0  0  0  0  0  0  0  0999 V2000
   -0.9070   21.9810  -26.1690 C   0  0  0  0  0  0  0  0  0  0  0  0
   -1.6760   22.6060  -27.2950 C   0  0  0  0  0  0  0  0  0  0  0  0
   -2.8300   21.9850  -27.7920 C   0  0  0  0  0  0  0  0  0  0  0  0
   -3.5680   22.5850  -28.8150 C   0  0  0  0  0  0  0  0  0  0  0  0
   -3.1670   23.8190  -29.3570 C   0  0  0  0  0  0  0  0  0  0  0  0
   -3.9610   24.4430  -30.4440 C   0  0  0  0  0  0  0  0  0  0  0  0
   -4.3180   25.6460  -30.3380 O   0  0  0  0  0  0  0  0  0  0  0  0
   -4.3960   23.6980  -31.5900 N   0  0  0  0  0  0  0  0  0  0  0  0
   -5.5670   22.8720  -31.6700 C   0  0  0  0  0  0  0  0  0  0  0  0
   -6.8270   23.4670  -31.5210 C   0  0  0  0  0  0  0  0  0  0  0  0
   -7.9900   22.6940  -31.6050 C   0  0  0  0  0  0  0  0  0  0  0  0
   -7.9010   21.3190  -31.8430 C   0  0  0  0  0  0  0  0  0  0  0  0
   -6.6450   20.7230  -32.0240 C   0  0  0  0  0  0  0  0  0  0  0  0
   -5.4820   21.4960  -31.9490 C   0  0  0  0  0  0  0  0  0  0  0  0
   -6.5720   19.3330  -32.3390 N   0  0  0  0  0  0  0  0  0  0  0  0
   -7.7580   18.5380  -32.3570 C   0  0  0  0  0  0  0  0  0  0  0  0
   -7.7020   17.3360  -32.7260 O   0  0  0  0  0  0  0  0  0  0  0  0
   -9.0540   19.1140  -31.8570 C   0  0  0  0  0  0  0  0  0  0  0  0
   -9.0630   20.5430  -31.9320 O   0  0  0  0  0  0  0  0  0  0  0  0
   -2.0210   24.4540  -28.8370 C   0  0  0  0  0  0  0  0  0  0  0  0
   -1.5930   25.6760  -29.3440 O   0  0  0  0  0  0  0  0  0  0  0  0
   -1.2880   23.8500  -27.8100 C   0  0  0  0  0  0  0  0  0  0  0  0
   -1.3232   22.3192  -25.2086 H   0  0  0  0  0  0  0  0  0  0  0  0
   -0.9834   20.8857  -26.2363 H   0  0  0  0  0  0  0  0  0  0  0  0
    0.1495   22.2797  -26.2363 H   0  0  0  0  0  0  0  0  0  0  0  0
   -3.1560   21.0209  -27.3746 H   0  0  0  0  0  0  0  0  0  0  0  0
   -4.4706   22.0879  -29.1999 H   0  0  0  0  0  0  0  0  0  0  0  0
   -6.9021   24.5489  -31.3368 H   0  0  0  0  0  0  0  0  0  0  0  0
   -8.9751   23.1682  -31.4837 H   0  0  0  0  0  0  0  0  0  0  0  0
   -4.4996   21.0274  -32.1084 H   0  0  0  0  0  0  0  0  0  0  0  0
   -9.8787   18.7199  -32.4690 H   0  0  0  0  0  0  0  0  0  0  0  0
   -9.1726   18.8257  -30.8021 H   0  0  0  0  0  0  0  0  0  0  0  0
   -0.3998   24.3558  -27.4034 H   0  0  0  0  0  0  0  0  0  0  0  0
  1  2  1  0
  2  3  2  0
  3  4  1  0
  4  5  2  0
  5  6  1  0
  6  7  2  0
  6  8  1  0
  8  9  1  0
  9 10  2  0
 10 11  1  0
 11 12  2  0
 12 13  1  0
 13 14  2  0
 13 15  1  0
 15 16  1  0
 16 17  2  0
 16 18  1  0
 18 19  1  0
  5 20  1  0
 20 21  1  0
 20 22  2  0
 22  2  1  0
 14  9  1  0
 19 12  1  0
  1 23  1  0
  1 24  1  0
  1 25  1  0
  3 26  1  0
  4 27  1  0
 10 28  1  0
 11 29  1  0
 14 30  1  0
 18 31  1  0
 18 32  1  0
 22 33  1  0
M  CHG  3   8  -1  15  -1  21  -1
M  END
>  <UniqueID>  (9) 
9

>  <SMILES>  (9) 
Cc1ccc(C(=O)[N-]c2ccc3c(c2)[N-]C(=O)CO3)c([O-])c1

>  <Energy>  (9) 
44.27157887571214

>  <Genealogy>  (9) 
Cc1ccc(C(=O)[N-]c2ccc3c(c2)[N-]C(=O)CO3)c([O-])c1 (protonated)
Cc1ccc(C(=O)[N-]c2ccc3c(c2)[N-]C(=O)CO3)c([O-])c1 (3D coordinates assigned)
Cc1ccc(C(=O)[N-]c2ccc3c(c2)[N-]C(=O)CO3)c([O-])c1 (nonaromatic ring conformer: 44.27157887571214 kcal/mol)

>  <smiles>  (9) 
Cc1ccc(C(=O)Nc2ccc3c(c2)NC(=O)CO3)c(O)c1

>  <score_type>  (9) 
oracle

>  <origin>  (9) 
adg

>  <m_score__min__energy>  (9) 
-11.99

>  <m_primary>  (9) 
energy

$$$$
10:0
     RDKit          3D

 45 47  0  0  0  0  0  0  0  0999 V2000
   -6.2650   25.2860  -29.7440 Br  0  0  0  0  0  0  0  0  0  0  0  0
   -5.2710   23.9500  -30.6800 C   0  0  0  0  0  0  0  0  0  0  0  0
   -5.7300   23.4680  -31.9080 C   0  0  0  0  0  0  0  0  0  0  0  0
   -5.0030   22.4900  -32.5940 C   0  0  0  0  0  0  0  0  0  0  0  0
   -3.8060   21.9830  -32.0580 C   0  0  0  0  0  0  0  0  0  0  0  0
   -3.0560   20.9750  -32.7650 N   0  0  0  0  0  0  0  0  0  0  0  0
   -1.8930   21.1340  -33.4310 C   0  0  0  0  0  0  0  0  0  0  0  0
   -1.4750   19.9740  -33.9840 N   0  0  0  0  0  0  0  0  0  0  0  0
   -2.4430   19.1090  -33.6120 C   0  0  0  0  0  0  0  0  0  0  0  0
   -2.4580   17.6610  -33.9930 C   0  0  0  0  0  0  0  0  0  0  0  0
   -3.8120   17.1100  -33.8450 N   0  0  0  0  0  0  0  0  0  0  0  0
   -4.6870   17.4310  -34.9880 C   0  0  0  0  0  0  0  0  0  0  0  0
   -6.1030   17.8370  -34.5430 C   0  0  0  0  0  0  0  0  0  0  0  0
   -6.1370   19.3230  -34.1230 C   0  0  0  0  0  0  0  0  0  0  0  0
   -6.3880   19.5480  -32.6790 N   0  0  0  0  0  0  0  0  0  0  0  0
   -6.6200   18.3160  -31.9160 C   0  0  0  0  0  0  0  0  0  0  0  0
   -8.1090   18.2190  -31.6220 C   0  0  0  0  0  0  0  0  0  0  0  0
   -8.6720   19.6080  -31.8640 C   0  0  0  0  0  0  0  0  0  0  0  0
   -7.5190   20.4440  -32.4070 C   0  0  0  0  0  0  0  0  0  0  0  0
   -3.4010   19.7040  -32.8800 N   0  0  0  0  0  0  0  0  0  0  0  0
   -3.3520   22.4780  -30.8210 C   0  0  0  0  0  0  0  0  0  0  0  0
   -4.0820   23.4550  -30.1370 C   0  0  0  0  0  0  0  0  0  0  0  0
   -6.6650   23.8584  -32.3362 H   0  0  0  0  0  0  0  0  0  0  0  0
   -5.3704   22.1144  -33.5604 H   0  0  0  0  0  0  0  0  0  0  0  0
   -1.3528   22.0887  -33.5134 H   0  0  0  0  0  0  0  0  0  0  0  0
   -2.1363   17.5576  -35.0398 H   0  0  0  0  0  0  0  0  0  0  0  0
   -1.7726   17.1096  -33.3326 H   0  0  0  0  0  0  0  0  0  0  0  0
   -3.7450   16.0710  -33.7310 H   0  0  0  0  0  0  0  0  0  0  0  0
   -4.2411   18.2634  -35.5521 H   0  0  0  0  0  0  0  0  0  0  0  0
   -4.7753   16.5271  -35.6087 H   0  0  0  0  0  0  0  0  0  0  0  0
   -6.8025   17.6813  -35.3775 H   0  0  0  0  0  0  0  0  0  0  0  0
   -6.3943   17.2186  -33.6811 H   0  0  0  0  0  0  0  0  0  0  0  0
   -5.1667   19.7743  -34.3775 H   0  0  0  0  0  0  0  0  0  0  0  0
   -6.9791   19.7814  -34.6622 H   0  0  0  0  0  0  0  0  0  0  0  0
   -6.2985   17.4452  -32.5062 H   0  0  0  0  0  0  0  0  0  0  0  0
   -6.0455   18.3333  -30.9781 H   0  0  0  0  0  0  0  0  0  0  0  0
   -8.5852   17.4905  -32.2947 H   0  0  0  0  0  0  0  0  0  0  0  0
   -8.2962   17.8810  -30.5921 H   0  0  0  0  0  0  0  0  0  0  0  0
   -9.4908   19.5654  -32.5973 H   0  0  0  0  0  0  0  0  0  0  0  0
   -9.0818   20.0416  -30.9399 H   0  0  0  0  0  0  0  0  0  0  0  0
   -7.8283   20.9452  -33.3361 H   0  0  0  0  0  0  0  0  0  0  0  0
   -7.2278   21.2099  -31.6732 H   0  0  0  0  0  0  0  0  0  0  0  0
   -4.2450   19.2510  -32.4640 H   0  0  0  0  0  0  0  0  0  0  0  0
   -2.4162   22.0935  -30.3893 H   0  0  0  0  0  0  0  0  0  0  0  0
   -3.7200   23.8346  -29.1701 H   0  0  0  0  0  0  0  0  0  0  0  0
  1  2  1  0
  2  3  2  0
  3  4  1  0
  4  5  2  0
  5  6  1  0
  6  7  1  0
  7  8  2  0
  8  9  1  0
  9 10  1  0
 10 11  1  0
 11 12  1  0
 12 13  1  0
 13 14  1  0
 14 15  1  0
 15 16  1  0
 16 17  1  0
 17 18  1  0
 18 19  1  0
  9 20  2  0
  5 21  1  0
 21 22  2  0
 22  2  1  0
 20  6  1  0
 19 15  1  0
  3 23  1  0
  4 24  1  0
  7 25  1  0
 10 26  1  0
 10 27  1  0
 11 28  1  0
 12 29  1  0
 12 30  1  0
 13 31  1  0
 13 32  1  0
 14 33  1  0
 14 34  1  0
 16 35  1  0
 16 36  1  0
 17 37  1  0
 17 38  1  0
 18 39  1  0
 18 40  1  0
 19 41  1  0
 19 42  1  0
 20 43  1  0
 21 44  1  0
 22 45  1  0
M  CHG  1  20   1
M  END
>  <UniqueID>  (10) 
10

>  <SMILES>  (10) 
Brc1ccc(-n2cnc(CNCCCN3CCCC3)[nH+]2)cc1

>  <Energy>  (10) 
85.0679063808161

>  <Genealogy>  (10) 
Brc1ccc(-n2cnc(CNCCCN3CCCC3)[nH+]2)cc1 (protonated)
Brc1ccc(-n2cnc(CNCCCN3CCCC3)[nH+]2)cc1 (3D coordinates assigned)
Brc1ccc(-n2cnc(CNCCCN3CCCC3)[nH+]2)cc1 (nonaromatic ring conformer: 85.0679063808161 kcal/mol)

>  <smiles>  (10) 
Brc1ccc(-n2cnc(CNCCCN3CCCC3)n2)cc1

>  <score_type>  (10) 
oracle

>  <origin>  (10) 
adg

>  <m_score__min__energy>  (10) 
-6.7000000000000002

>  <m_primary>  (10) 
energy

$$$$
11:0
     RDKit          3D

 57 60  0  0  0  0  0  0  0  0999 V2000
   -8.7390   20.0760  -32.0430 C   0  0  0  0  0  0  0  0  0  0  0  0
   -7.6290   19.0320  -32.1310 C   0  0  0  0  0  0  0  0  0  0  0  0
   -6.8260   19.1870  -33.4400 C   0  0  0  0  0  0  0  0  0  0  0  0
   -5.5750   18.3970  -33.4760 N   0  0  0  0  0  0  0  0  0  0  0  0
   -5.2120   17.9210  -34.8210 C   0  0  0  0  0  0  0  0  0  0  0  0
   -3.7450   17.4860  -34.8090 C   0  0  0  0  0  0  0  0  0  0  0  0
   -3.4430   16.6600  -33.6280 N   0  0  0  0  0  0  0  0  0  0  0  0
   -2.0930   16.2060  -33.3730 C   0  0  0  0  0  0  0  0  0  0  0  0
   -1.8530   15.4650  -32.3800 O   0  0  0  0  0  0  0  0  0  0  0  0
   -0.9400   16.5980  -34.2600 C   0  0  0  0  0  0  0  0  0  0  0  0
   -0.4090   17.8670  -33.8780 O   0  0  0  0  0  0  0  0  0  0  0  0
   -1.1290   18.8960  -33.2510 C   0  0  0  0  0  0  0  0  0  0  0  0
   -1.1940   19.0370  -31.8520 C   0  0  0  0  0  0  0  0  0  0  0  0
   -1.9220   20.0850  -31.2820 C   0  0  0  0  0  0  0  0  0  0  0  0
   -2.6000   21.0110  -32.0940 C   0  0  0  0  0  0  0  0  0  0  0  0
   -3.3700   22.1280  -31.4880 C   0  0  0  0  0  0  0  0  0  0  0  0
   -2.7030   23.1870  -30.8490 C   0  0  0  0  0  0  0  0  0  0  0  0
   -3.4190   24.2420  -30.2750 C   0  0  0  0  0  0  0  0  0  0  0  0
   -2.7250   25.2700  -29.6460 O   0  0  0  0  0  0  0  0  0  0  0  0
   -4.8240   24.2560  -30.3350 C   0  0  0  0  0  0  0  0  0  0  0  0
   -5.5440   25.2810  -29.7820 N   0  0  0  0  0  0  0  0  0  0  0  0
   -6.9030   25.3040  -29.8360 C   0  0  0  0  0  0  0  0  0  0  0  0
   -7.6040   24.2720  -30.4620 C   0  0  0  0  0  0  0  0  0  0  0  0
   -6.9010   23.2130  -31.0350 C   0  0  0  0  0  0  0  0  0  0  0  0
   -5.5020   23.1930  -30.9770 C   0  0  0  0  0  0  0  0  0  0  0  0
   -4.7750   22.1400  -31.5480 C   0  0  0  0  0  0  0  0  0  0  0  0
   -2.5380   20.8610  -33.4900 C   0  0  0  0  0  0  0  0  0  0  0  0
   -1.8110   19.8110  -34.0600 C   0  0  0  0  0  0  0  0  0  0  0  0
   -4.5560   16.1900  -32.7860 C   0  0  0  0  0  0  0  0  0  0  0  0
   -5.5210   17.3420  -32.4370 C   0  0  0  0  0  0  0  0  0  0  0  0
   -8.9621   20.2858  -30.9865 H   0  0  0  0  0  0  0  0  0  0  0  0
   -8.4121   21.0015  -32.5395 H   0  0  0  0  0  0  0  0  0  0  0  0
   -9.6428   19.6930  -32.5395 H   0  0  0  0  0  0  0  0  0  0  0  0
   -6.9493   19.1567  -31.2752 H   0  0  0  0  0  0  0  0  0  0  0  0
   -8.0868   18.0319  -32.1172 H   0  0  0  0  0  0  0  0  0  0  0  0
   -7.4630   18.8644  -34.2768 H   0  0  0  0  0  0  0  0  0  0  0  0
   -6.5360   20.2456  -33.5120 H   0  0  0  0  0  0  0  0  0  0  0  0
   -5.8489   17.0672  -35.0957 H   0  0  0  0  0  0  0  0  0  0  0  0
   -5.3576   18.7269  -35.5554 H   0  0  0  0  0  0  0  0  0  0  0  0
   -3.5366   16.9022  -35.7177 H   0  0  0  0  0  0  0  0  0  0  0  0
   -3.1153   18.3872  -34.7734 H   0  0  0  0  0  0  0  0  0  0  0  0
   -0.1490   15.8379  -34.1787 H   0  0  0  0  0  0  0  0  0  0  0  0
   -1.3028   16.6674  -35.2961 H   0  0  0  0  0  0  0  0  0  0  0  0
   -0.6694   18.3191  -31.2044 H   0  0  0  0  0  0  0  0  0  0  0  0
   -1.9649   20.1863  -30.1875 H   0  0  0  0  0  0  0  0  0  0  0  0
   -1.6041   23.1860  -30.7998 H   0  0  0  0  0  0  0  0  0  0  0  0
   -5.0600   26.0720  -29.3040 H   0  0  0  0  0  0  0  0  0  0  0  0
   -7.4534   26.1418  -29.3831 H   0  0  0  0  0  0  0  0  0  0  0  0
   -8.7030   24.2940  -30.5030 H   0  0  0  0  0  0  0  0  0  0  0  0
   -7.4440   22.3952  -31.5314 H   0  0  0  0  0  0  0  0  0  0  0  0
   -5.3072   21.3166  -32.0469 H   0  0  0  0  0  0  0  0  0  0  0  0
   -3.0655   21.5751  -34.1395 H   0  0  0  0  0  0  0  0  0  0  0  0
   -1.7752   19.7037  -35.1542 H   0  0  0  0  0  0  0  0  0  0  0  0
   -5.1106   15.4099  -33.3281 H   0  0  0  0  0  0  0  0  0  0  0  0
   -4.1384   15.7916  -31.8496 H   0  0  0  0  0  0  0  0  0  0  0  0
   -6.5310   16.9250  -32.3101 H   0  0  0  0  0  0  0  0  0  0  0  0
   -5.1474   17.8117  -31.5151 H   0  0  0  0  0  0  0  0  0  0  0  0
  1  2  1  0
  2  3  1  0
  3  4  1  0
  4  5  1  0
  5  6  1  0
  6  7  1  0
  7  8  1  0
  8  9  2  0
  8 10  1  0
 10 11  1  0
 11 12  1  0
 12 13  2  0
 13 14  1  0
 14 15  2  0
 15 16  1  0
 16 17  2  0
 17 18  1  0
 18 19  1  0
 18 20  2  0
 20 21  1  0
 21 22  2  0
 22 23  1  0
 23 24  2  0
 24 25  1  0
 25 26  2  0
 15 27  1  0
 27 28  2  0
  7 29  1  0
 29 30  1  0
 30  4  1  0
 28 12  1  0
 26 16  1  0
 25 20  1  0
  1 31  1  0
  1 32  1  0
  1 33  1  0
  2 34  1  0
  2 35  1  0
  3 36  1  0
  3 37  1  0
  5 38  1  0
  5 39  1  0
  6 40  1  0
  6 41  1  0
 10 42  1  0
 10 43  1  0
 13 44  1  0
 14 45  1  0
 17 46  1  0
 21 47  1  0
 22 48  1  0
 23 49  1  0
 24 50  1  0
 26 51  1  0
 27 52  1  0
 28 53  1  0
 29 54  1  0
 29 55  1  0
 30 56  1  0
 30 57  1  0
M  CHG  2  19  -1  21   1
M  END
>  <UniqueID>  (11) 
11

>  <SMILES>  (11) 
CCCN1CCN(C(=O)COc2ccc(-c3cc([O-])c4[nH+]cccc4c3)cc2)CC1

>  <Energy>  (11) 
73.77699606575574

>  <Genealogy>  (11) 
CCCN1CCN(C(=O)COc2ccc(-c3cc([O-])c4[nH+]cccc4c3)cc2)CC1 (protonated)
CCCN1CCN(C(=O)COc2ccc(-c3cc([O-])c4[nH+]cccc4c3)cc2)CC1 (3D coordinates assigned)
CCCN1CCN(C(=O)COc2ccc(-c3cc([O-])c4[nH+]cccc4c3)cc2)CC1 (nonaromatic ring conformer: 73.77699606575574 kcal/mol)

>  <smiles>  (11) 
CCCN1CCN(C(=O)COc2ccc(-c3cc(O)c4ncccc4c3)cc2)CC1

>  <score_type>  (11) 
oracle

>  <origin>  (11) 
adg

>  <m_score__min__energy>  (11) 
-9.8599999999999994

>  <m_primary>  (11) 
energy

$$$$
12:0
     RDKit          3D

 36 38  0  0  0  0  0  0  0  0999 V2000
   -3.2540   22.9300  -27.4970 H   0  0  0  0  0  0  0  0  0  0  0  0
   -2.6040   23.7400  -27.6150 N   0  0  0  0  0  0  0  0  0  0  0  0
   -2.6290   24.4840  -28.6750 C   0  0  0  0  0  0  0  0  0  0  0  0
   -3.7150   24.3160  -29.6520 C   0  0  0  0  0  0  0  0  0  0  0  0
   -4.0820   25.2610  -30.5360 N   0  0  0  0  0  0  0  0  0  0  0  0
   -5.0810   24.7540  -31.2370 N   0  0  0  0  0  0  0  0  0  0  0  0
   -5.3000   23.5100  -30.7670 C   0  0  0  0  0  0  0  0  0  0  0  0
   -6.3460   22.5890  -31.2810 C   0  0  0  0  0  0  0  0  0  0  0  0
   -7.6960   22.9770  -31.2000 C   0  0  0  0  0  0  0  0  0  0  0  0
   -7.9569   23.9517  -30.7620 H   0  0  0  0  0  0  0  0  0  0  0  0
   -8.7060   22.1390  -31.6690 C   0  0  0  0  0  0  0  0  0  0  0  0
   -9.7580   22.4503  -31.5886 H   0  0  0  0  0  0  0  0  0  0  0  0
   -8.3880   20.9090  -32.2390 C   0  0  0  0  0  0  0  0  0  0  0  0
   -9.1918   20.2567  -32.6112 H   0  0  0  0  0  0  0  0  0  0  0  0
   -7.0520   20.4940  -32.3430 C   0  0  0  0  0  0  0  0  0  0  0  0
   -6.7460   19.2090  -33.0140 C   0  0  0  0  0  0  0  0  0  0  0  0
   -6.0230   19.1860  -34.2200 C   0  0  0  0  0  0  0  0  0  0  0  0
   -5.6800   20.1290  -34.6707 H   0  0  0  0  0  0  0  0  0  0  0  0
   -5.7380   17.9700  -34.8490 C   0  0  0  0  0  0  0  0  0  0  0  0
   -5.1686   17.9594  -35.7901 H   0  0  0  0  0  0  0  0  0  0  0  0
   -6.1740   16.7700  -34.2860 C   0  0  0  0  0  0  0  0  0  0  0  0
   -5.9451   15.8148  -34.7812 H   0  0  0  0  0  0  0  0  0  0  0  0
   -6.9020   16.7820  -33.0920 C   0  0  0  0  0  0  0  0  0  0  0  0
   -7.2491   15.8361  -32.6507 H   0  0  0  0  0  0  0  0  0  0  0  0
   -7.1890   17.9940  -32.4590 C   0  0  0  0  0  0  0  0  0  0  0  0
   -7.7645   17.9986  -31.5215 H   0  0  0  0  0  0  0  0  0  0  0  0
   -6.0250   21.3270  -31.8340 C   0  0  0  0  0  0  0  0  0  0  0  0
   -4.6920   20.9040  -31.8730 O   0  0  0  0  0  0  0  0  0  0  0  0
   -3.7790   21.3850  -32.8530 C   0  0  0  0  0  0  0  0  0  0  0  0
   -2.9119   21.8418  -32.3535 H   0  0  0  0  0  0  0  0  0  0  0  0
   -3.4411   20.5479  -33.4815 H   0  0  0  0  0  0  0  0  0  0  0  0
   -4.2783   22.1371  -33.4815 H   0  0  0  0  0  0  0  0  0  0  0  0
   -4.4560   23.1950  -29.7620 N   0  0  0  0  0  0  0  0  0  0  0  0
   -1.6050   25.4610  -28.8910 N   0  0  0  0  0  0  0  0  0  0  0  0
   -1.6120   26.0670  -29.7400 H   0  0  0  0  0  0  0  0  0  0  0  0
   -0.8310   25.5850  -28.2000 H   0  0  0  0  0  0  0  0  0  0  0  0
  1  2  1  0
  2  3  2  0
  3  4  1  0
  4  5  2  0
  5  6  1  0
  6  7  1  0
  7  8  1  0
  8  9  2  0
  9 10  1  0
  9 11  1  0
 11 12  1  0
 11 13  2  0
 13 14  1  0
 13 15  1  0
 15 16  1  0
 16 17  2  0
 17 18  1  0
 17 19  1  0
 19 20  1  0
 19 21  2  0
 21 22  1  0
 21 23  1  0
 23 24  1  0
 23 25  2  0
 25 26  1  0
 15 27  2  0
 27 28  1  0
 28 29  1  0
 29 30  1  0
 29 31  1  0
 29 32  1  0
  7 33  2  0
  3 34  1  0
 34 35  1  0
 34 36  1  0
 33  4  1  0
 27  8  1  0
 25 16  1  0
M  CHG  1   6  -1
M  END
>  <UniqueID>  (12) 
12

>  <SMILES>  (12) 
[H]/N=C(\N)c1n[n-]c(-c2cccc(-c3ccccc3)c2OC)n1

>  <Energy>  (12) 
81.61954324316379

>  <Genealogy>  (12) 
COc1c(-c2ccccc2)cccc1-c1nc(C(=N)N)n[n-]1 (protonated)
[H]/N=C(\N)c1n[n-]c(-c2cccc(-c3ccccc3)c2OC)n1 (cis-trans isomerization)
[H]/N=C(\N)c1n[n-]c(-c2cccc(-c3ccccc3)c2OC)n1 (3D coordinates assigned)
[H]/N=C(\N)c1n[n-]c(-c2cccc(-c3ccccc3)c2OC)n1 (optimized conformer: 81.61954324316379 kcal/mol)

>  <smiles>  (12) 
COc1c(-c2ccccc2)cccc1-c1nc(C(=N)N)n[nH]1

>  <score_type>  (12) 
oracle

>  <origin>  (12) 
adg

>  <m_score__min__energy>  (12) 
-9.9100000000000001

>  <m_primary>  (12) 
energy

$$$$
13:0
     RDKit          3D

 35 38  0  0  0  0  0  0  0  0999 V2000
   -3.8500   14.3530  -33.8580 F   0  0  0  0  0  0  0  0  0  0  0  0
   -4.9340   15.0540  -33.3630 C   0  0  0  0  0  0  0  0  0  0  0  0
   -4.9640   14.9210  -31.9870 F   0  0  0  0  0  0  0  0  0  0  0  0
   -6.0910   14.4920  -33.8800 F   0  0  0  0  0  0  0  0  0  0  0  0
   -4.7900   16.5480  -33.7310 C   0  0  0  0  0  0  0  0  0  0  0  0
   -5.8470   17.5190  -33.2090 C   0  0  0  0  0  0  0  0  0  0  0  0
   -7.2230   17.2090  -33.1420 C   0  0  0  0  0  0  0  0  0  0  0  0
   -8.1020   18.1290  -32.6640 N   0  0  0  0  0  0  0  0  0  0  0  0
   -7.6880   19.3510  -32.2460 C   0  0  0  0  0  0  0  0  0  0  0  0
   -8.6030   20.2870  -31.7590 C   0  0  0  0  0  0  0  0  0  0  0  0
   -8.1570   21.5420  -31.3330 C   0  0  0  0  0  0  0  0  0  0  0  0
   -6.7890   21.8760  -31.3870 C   0  0  0  0  0  0  0  0  0  0  0  0
   -6.3190   23.2090  -30.9330 C   0  0  0  0  0  0  0  0  0  0  0  0
   -7.1480   24.0400  -30.1600 C   0  0  0  0  0  0  0  0  0  0  0  0
   -6.6930   25.2920  -29.7400 C   0  0  0  0  0  0  0  0  0  0  0  0
   -5.4100   25.7070  -30.0950 C   0  0  0  0  0  0  0  0  0  0  0  0
   -4.6150   24.8970  -30.8410 N   0  0  0  0  0  0  0  0  0  0  0  0
   -5.0340   23.6750  -31.2650 C   0  0  0  0  0  0  0  0  0  0  0  0
   -5.8740   20.9250  -31.8790 C   0  0  0  0  0  0  0  0  0  0  0  0
   -6.3210   19.6700  -32.3060 C   0  0  0  0  0  0  0  0  0  0  0  0
   -5.4450   18.7500  -32.7840 N   0  0  0  0  0  0  0  0  0  0  0  0
   -4.1920   16.8410  -35.1070 C   0  0  0  0  0  0  0  0  0  0  0  0
   -3.3580   17.0710  -33.8460 C   0  0  0  0  0  0  0  0  0  0  0  0
   -7.5829   16.2247  -33.4761 H   0  0  0  0  0  0  0  0  0  0  0  0
   -9.6732   20.0373  -31.7106 H   0  0  0  0  0  0  0  0  0  0  0  0
   -8.8817   22.2764  -30.9517 H   0  0  0  0  0  0  0  0  0  0  0  0
   -8.1584   23.7033  -29.8849 H   0  0  0  0  0  0  0  0  0  0  0  0
   -7.3403   25.9441  -29.1352 H   0  0  0  0  0  0  0  0  0  0  0  0
   -5.0414   26.6913  -29.7706 H   0  0  0  0  0  0  0  0  0  0  0  0
   -4.3643   23.0472  -31.8711 H   0  0  0  0  0  0  0  0  0  0  0  0
   -4.8028   21.1702  -31.9277 H   0  0  0  0  0  0  0  0  0  0  0  0
   -3.9442   16.0124  -35.7868 H   0  0  0  0  0  0  0  0  0  0  0  0
   -4.4871   17.4590  -35.9678 H   0  0  0  0  0  0  0  0  0  0  0  0
   -2.5103   16.4079  -33.6186 H   0  0  0  0  0  0  0  0  0  0  0  0
   -2.8047   17.9229  -33.4239 H   0  0  0  0  0  0  0  0  0  0  0  0
  1  2  1  0
  2  3  1  0
  2  4  1  0
  2  5  1  0
  5  6  1  0
  6  7  2  0
  7  8  1  0
  8  9  2  0
  9 10  1  0
 10 11  2  0
 11 12  1  0
 12 13  1  0
 13 14  2  0
 14 15  1  0
 15 16  2  0
 16 17  1  0
 17 18  2  0
 12 19  2  0
 19 20  1  0
 20 21  2  0
  5 22  1  0
 22 23  1  0
 23  5  1  0
 21  6  1  0
 20  9  1  0
 18 13  1  0
  7 24  1  0
 10 25  1  0
 11 26  1  0
 14 27  1  0
 15 28  1  0
 16 29  1  0
 18 30  1  0
 19 31  1  0
 22 32  1  0
 22 33  1  0
 23 34  1  0
 23 35  1  0
M  END
>  <UniqueID>  (13) 
13

>  <SMILES>  (13) 
FC(F)(F)C1(c2cnc3ccc(-c4cccnc4)cc3n2)CC1

>  <Energy>  (13) 
319.91196943201754

>  <Genealogy>  (13) 
FC(F)(F)C1(c2cnc3ccc(-c4cccnc4)cc3n2)CC1 (3D coordinates assigned)
FC(F)(F)C1(c2cnc3ccc(-c4cccnc4)cc3n2)CC1 (nonaromatic ring conformer: 319.91196943201754 kcal/mol)

>  <smiles>  (13) 
FC(F)(F)C1(c2cnc3ccc(-c4cccnc4)cc3n2)CC1

>  <score_type>  (13) 
oracle

>  <origin>  (13) 
adg

>  <m_score__min__energy>  (13) 
-7.9800000000000004

>  <m_primary>  (13) 
energy

$$$$
14:0
     RDKit          3D

 37 37  0  0  0  0  0  0  0  0999 V2000
   -6.7210   17.2760  -33.4230 C   0  0  0  0  0  0  0  0  0  0  0  0
   -7.5290   17.8050  -32.2420 C   0  0  0  0  0  0  0  0  0  0  0  0
   -7.6570   19.2780  -32.3280 N   0  0  0  0  0  0  0  0  0  0  0  0
   -9.0290   19.6780  -32.7160 C   0  0  0  0  0  0  0  0  0  0  0  0
   -9.4320   20.9560  -31.9850 C   0  0  0  0  0  0  0  0  0  0  0  0
   -6.6570   19.8410  -33.2620 C   0  0  0  0  0  0  0  0  0  0  0  0
   -5.9680   21.0120  -32.6280 C   0  0  0  0  0  0  0  0  0  0  0  0
   -4.9380   21.4960  -33.1710 O   0  0  0  0  0  0  0  0  0  0  0  0
   -6.4610   21.5440  -31.3890 N   0  0  0  0  0  0  0  0  0  0  0  0
   -6.1080   22.8400  -30.8770 C   0  0  0  0  0  0  0  0  0  0  0  0
   -7.1230   23.7610  -30.5800 C   0  0  0  0  0  0  0  0  0  0  0  0
   -6.8030   25.0340  -30.1030 C   0  0  0  0  0  0  0  0  0  0  0  0
   -5.4680   25.4050  -29.9360 C   0  0  0  0  0  0  0  0  0  0  0  0
   -4.4380   24.5120  -30.2510 C   0  0  0  0  0  0  0  0  0  0  0  0
   -3.1120   24.9390  -30.0810 O   0  0  0  0  0  0  0  0  0  0  0  0
   -2.1300   24.2330  -29.3290 C   0  0  0  0  0  0  0  0  0  0  0  0
   -4.7630   23.2280  -30.7300 C   0  0  0  0  0  0  0  0  0  0  0  0
   -5.8551   16.7091  -33.0503 H   0  0  0  0  0  0  0  0  0  0  0  0
   -7.3546   16.6173  -34.0351 H   0  0  0  0  0  0  0  0  0  0  0  0
   -6.3707   18.1202  -34.0351 H   0  0  0  0  0  0  0  0  0  0  0  0
   -8.5312   17.3519  -32.2555 H   0  0  0  0  0  0  0  0  0  0  0  0
   -7.0111   17.5439  -31.3073 H   0  0  0  0  0  0  0  0  0  0  0  0
   -9.0630   19.8541  -33.8013 H   0  0  0  0  0  0  0  0  0  0  0  0
   -9.7279   18.8733  -32.4441 H   0  0  0  0  0  0  0  0  0  0  0  0
   -9.3794   20.7893  -30.8990 H   0  0  0  0  0  0  0  0  0  0  0  0
   -8.7469   21.7699  -32.2646 H   0  0  0  0  0  0  0  0  0  0  0  0
  -10.4601   21.2297  -32.2646 H   0  0  0  0  0  0  0  0  0  0  0  0
   -5.9126   19.0693  -33.5078 H   0  0  0  0  0  0  0  0  0  0  0  0
   -7.1653   20.1734  -34.1791 H   0  0  0  0  0  0  0  0  0  0  0  0
   -7.0770   20.9330  -30.8070 H   0  0  0  0  0  0  0  0  0  0  0  0
   -8.1766   23.4793  -30.7235 H   0  0  0  0  0  0  0  0  0  0  0  0
   -7.6051   25.7459  -29.8583 H   0  0  0  0  0  0  0  0  0  0  0  0
   -5.2237   26.4071  -29.5538 H   0  0  0  0  0  0  0  0  0  0  0  0
   -2.3218   24.3709  -28.2547 H   0  0  0  0  0  0  0  0  0  0  0  0
   -2.1791   23.1622  -29.5758 H   0  0  0  0  0  0  0  0  0  0  0  0
   -1.1306   24.6206  -29.5758 H   0  0  0  0  0  0  0  0  0  0  0  0
   -3.9598   22.5232  -30.9911 H   0  0  0  0  0  0  0  0  0  0  0  0
  1  2  1  0
  2  3  1  0
  3  4  1  0
  4  5  1  0
  3  6  1  0
  6  7  1  0
  7  8  2  0
  7  9  1  0
  9 10  1  0
 10 11  2  0
 11 12  1  0
 12 13  2  0
 13 14  1  0
 14 15  1  0
 15 16  1  0
 14 17  2  0
 17 10  1  0
  1 18  1  0
  1 19  1  0
  1 20  1  0
  2 21  1  0
  2 22  1  0
  4 23  1  0
  4 24  1  0
  5 25  1  0
  5 26  1  0
  5 27  1  0
  6 28  1  0
  6 29  1  0
  9 30  1  0
 11 31  1  0
 12 32  1  0
 13 33  1  0
 16 34  1  0
 16 35  1  0
 16 36  1  0
 17 37  1  0
M  END
>  <UniqueID>  (14) 
14

>  <SMILES>  (14) 
CCN(CC)CC(=O)Nc1cccc(OC)c1

>  <Energy>  (14) 
33.999514786956

>  <Genealogy>  (14) 
CCN(CC)CC(=O)Nc1cccc(OC)c1 (3D coordinates assigned)
CCN(CC)CC(=O)Nc1cccc(OC)c1 (optimized conformer: 33.999514786956 kcal/mol)

>  <smiles>  (14) 
CCN(CC)CC(=O)Nc1cccc(OC)c1

>  <score_type>  (14) 
oracle

>  <origin>  (14) 
adg

>  <m_score__min__energy>  (14) 
-6.2999999999999998

>  <m_primary>  (14) 
energy

$$$$
15:0
     RDKit          3D

 37 39  0  0  0  0  0  0  0  0999 V2000
   -2.7350   20.8680  -28.3250 C   0  0  0  0  0  0  0  0  0  0  0  0
   -2.6150   21.8850  -29.3120 O   0  0  0  0  0  0  0  0  0  0  0  0
   -2.6690   21.6680  -30.6990 C   0  0  0  0  0  0  0  0  0  0  0  0
   -1.5340   21.2490  -31.4220 C   0  0  0  0  0  0  0  0  0  0  0  0
   -1.6120   21.0340  -32.7990 C   0  0  0  0  0  0  0  0  0  0  0  0
   -2.8160   21.2300  -33.4710 C   0  0  0  0  0  0  0  0  0  0  0  0
   -3.9490   21.6460  -32.7700 C   0  0  0  0  0  0  0  0  0  0  0  0
   -3.8900   21.8770  -31.3840 C   0  0  0  0  0  0  0  0  0  0  0  0
   -5.1490   22.3270  -30.6640 C   0  0  2  0  0  0  0  0  0  0  0  0
   -6.3500   22.1390  -31.4830 N   0  0  0  0  0  0  0  0  0  0  0  0
   -6.9530   20.8440  -31.6600 C   0  0  0  0  0  0  0  0  0  0  0  0
   -6.1650   19.7180  -31.9490 C   0  0  0  0  0  0  0  0  0  0  0  0
   -6.7570   18.4610  -32.1080 C   0  0  0  0  0  0  0  0  0  0  0  0
   -8.1410   18.3180  -31.9780 C   0  0  0  0  0  0  0  0  0  0  0  0
   -8.9340   19.4320  -31.6890 C   0  0  0  0  0  0  0  0  0  0  0  0
   -8.3450   20.6890  -31.5310 C   0  0  0  0  0  0  0  0  0  0  0  0
   -7.0510   23.3570  -31.7790 C   0  0  0  0  0  0  0  0  0  0  0  0
   -8.0850   23.3680  -32.4990 O   0  0  0  0  0  0  0  0  0  0  0  0
   -6.4860   24.6150  -31.2190 C   0  0  0  0  0  0  0  0  0  0  0  0
   -5.0910   24.0670  -30.2770 S   0  0  0  0  0  0  0  0  0  0  0  0
   -3.8230   24.7320  -30.7380 O   0  0  0  0  0  0  0  0  0  0  0  0
   -5.3040   24.3030  -28.8080 O   0  0  0  0  0  0  0  0  0  0  0  0
   -2.6816   21.3206  -27.3238 H   0  0  0  0  0  0  0  0  0  0  0  0
   -3.7001   20.3537  -28.4439 H   0  0  0  0  0  0  0  0  0  0  0  0
   -1.9161   20.1432  -28.4439 H   0  0  0  0  0  0  0  0  0  0  0  0
   -0.5802   21.0903  -30.8975 H   0  0  0  0  0  0  0  0  0  0  0  0
   -0.7202   20.7089  -33.3548 H   0  0  0  0  0  0  0  0  0  0  0  0
   -2.8741   21.0567  -34.5557 H   0  0  0  0  0  0  0  0  0  0  0  0
   -4.8975   21.7946  -33.3069 H   0  0  0  0  0  0  0  0  0  0  0  0
   -5.1962   21.7119  -29.7533 H   0  0  0  0  0  0  0  0  0  0  0  0
   -5.0750   19.8255  -32.0510 H   0  0  0  0  0  0  0  0  0  0  0  0
   -6.1328   17.5843  -32.3355 H   0  0  0  0  0  0  0  0  0  0  0  0
   -8.6061   17.3291  -32.1031 H   0  0  0  0  0  0  0  0  0  0  0  0
  -10.0233   19.3189  -31.5858 H   0  0  0  0  0  0  0  0  0  0  0  0
   -8.9737   21.5627  -31.3044 H   0  0  0  0  0  0  0  0  0  0  0  0
   -6.1725   25.2963  -32.0237 H   0  0  0  0  0  0  0  0  0  0  0  0
   -7.2137   25.1768  -30.6149 H   0  0  0  0  0  0  0  0  0  0  0  0
  1  2  1  0
  2  3  1  0
  3  4  2  0
  4  5  1  0
  5  6  2  0
  6  7  1  0
  7  8  2  0
  8  9  1  0
  9 10  1  0
 10 11  1  0
 11 12  2  0
 12 13  1  0
 13 14  2  0
 14 15  1  0
 15 16  2  0
 10 17  1  0
 17 18  2  0
 17 19  1  0
 19 20  1  0
 20 21  2  0
 20 22  2  0
  8  3  1  0
 20  9  1  0
 16 11  1  0
  1 23  1  0
  1 24  1  0
  1 25  1  0
  4 26  1  0
  5 27  1  0
  6 28  1  0
  7 29  1  0
  9 30  1  1
 12 31  1  0
 13 32  1  0
 14 33  1  0
 15 34  1  0
 16 35  1  0
 19 36  1  0
 19 37  1  0
M  END
>  <UniqueID>  (15) 
15

>  <SMILES>  (15) 
COc1ccccc1[C@@H]1N(c2ccccc2)C(=O)CS1(=O)=O

>  <Energy>  (15) 
44.95911583497091

>  <Genealogy>  (15) 
COc1ccccc1[C@@H]1N(c2ccccc2)C(=O)CS1(=O)=O (chirality)
COc1ccccc1[C@@H]1N(c2ccccc2)C(=O)CS1(=O)=O (3D coordinates assigned)
COc1ccccc1[C@@H]1N(c2ccccc2)C(=O)CS1(=O)=O (nonaromatic ring conformer: 44.95911583497091 kcal/mol)

>  <smiles>  (15) 
COc1ccccc1C1N(c2ccccc2)C(=O)CS1(=O)=O

>  <score_type>  (15) 
oracle

>  <origin>  (15) 
adg

>  <m_score__min__energy>  (15) 
-7.9699999999999998

>  <m_primary>  (15) 
energy

$$$$
16:0
     RDKit          3D

 33 34  0  0  0  0  0  0  0  0999 V2000
   -3.6960   24.5130  -27.1020 C   0  0  0  0  0  0  0  0  0  0  0  0
   -4.4530   24.1540  -28.3800 C   0  0  0  0  0  0  0  0  0  0  0  0
   -3.5070   23.9410  -29.5660 C   0  0  0  0  0  0  0  0  0  0  0  0
   -3.9020   24.7910  -30.6980 N   0  0  0  0  0  0  0  0  0  0  0  0
   -5.3480   25.0580  -30.7040 C   0  0  0  0  0  0  0  0  0  0  0  0
   -6.1400   23.8570  -31.1350 C   0  0  0  0  0  0  0  0  0  0  0  0
   -7.5110   23.7790  -31.2520 C   0  0  0  0  0  0  0  0  0  0  0  0
   -7.8020   22.5870  -31.7170 O   0  0  0  0  0  0  0  0  0  0  0  0
   -6.6700   21.9380  -31.8940 C   0  0  0  0  0  0  0  0  0  0  0  0
   -6.5990   20.5530  -32.4180 C   0  0  0  0  0  0  0  0  0  0  0  0
   -5.5960   20.1570  -33.3230 C   0  0  0  0  0  0  0  0  0  0  0  0
   -5.5520   18.8430  -33.8010 C   0  0  0  0  0  0  0  0  0  0  0  0
   -6.5070   17.9120  -33.3820 C   0  0  0  0  0  0  0  0  0  0  0  0
   -6.4450   16.1190  -34.0370 Br  0  0  0  0  0  0  0  0  0  0  0  0
   -7.5050   18.2940  -32.4840 C   0  0  0  0  0  0  0  0  0  0  0  0
   -7.5520   19.6070  -32.0040 C   0  0  0  0  0  0  0  0  0  0  0  0
   -5.6050   22.6950  -31.5470 N   0  0  0  0  0  0  0  0  0  0  0  0
   -4.2980   24.2275  -26.2268 H   0  0  0  0  0  0  0  0  0  0  0  0
   -2.7377   23.9735  -27.0796 H   0  0  0  0  0  0  0  0  0  0  0  0
   -3.5074   25.5965  -27.0796 H   0  0  0  0  0  0  0  0  0  0  0  0
   -5.0212   23.2280  -28.2081 H   0  0  0  0  0  0  0  0  0  0  0  0
   -5.1225   24.9916  -28.6253 H   0  0  0  0  0  0  0  0  0  0  0  0
   -2.4814   24.1969  -29.2616 H   0  0  0  0  0  0  0  0  0  0  0  0
   -3.5581   22.8872  -29.8773 H   0  0  0  0  0  0  0  0  0  0  0  0
   -3.6400   24.3110  -31.5920 H   0  0  0  0  0  0  0  0  0  0  0  0
   -5.6606   25.3439  -29.6888 H   0  0  0  0  0  0  0  0  0  0  0  0
   -5.5410   25.8681  -31.4227 H   0  0  0  0  0  0  0  0  0  0  0  0
   -8.2307   24.5721  -31.0011 H   0  0  0  0  0  0  0  0  0  0  0  0
   -4.8421   20.8854  -33.6564 H   0  0  0  0  0  0  0  0  0  0  0  0
   -4.7647   18.5418  -34.5077 H   0  0  0  0  0  0  0  0  0  0  0  0
   -8.2558   17.5613  -32.1532 H   0  0  0  0  0  0  0  0  0  0  0  0
   -8.3414   19.9014  -31.2967 H   0  0  0  0  0  0  0  0  0  0  0  0
   -4.5900   22.4600  -31.5950 H   0  0  0  0  0  0  0  0  0  0  0  0
  1  2  1  0
  2  3  1  0
  3  4  1  0
  4  5  1  0
  5  6  1  0
  6  7  2  0
  7  8  1  0
  8  9  1  0
  9 10  1  0
 10 11  2  0
 11 12  1  0
 12 13  2  0
 13 14  1  0
 13 15  1  0
 15 16  2  0
  9 17  2  0
 17  6  1  0
 16 10  1  0
  1 18  1  0
  1 19  1  0
  1 20  1  0
  2 21  1  0
  2 22  1  0
  3 23  1  0
  3 24  1  0
  4 25  1  0
  5 26  1  0
  5 27  1  0
  7 28  1  0
 11 29  1  0
 12 30  1  0
 15 31  1  0
 16 32  1  0
 17 33  1  0
M  CHG  1  17   1
M  END
>  <UniqueID>  (16) 
16

>  <SMILES>  (16) 
CCCNCc1coc(-c2ccc(Br)cc2)[nH+]1

>  <Energy>  (16) 
58.814642275476196

>  <Genealogy>  (16) 
CCCNCc1coc(-c2ccc(Br)cc2)[nH+]1 (protonated)
CCCNCc1coc(-c2ccc(Br)cc2)[nH+]1 (3D coordinates assigned)
CCCNCc1coc(-c2ccc(Br)cc2)[nH+]1 (optimized conformer: 58.814642275476196 kcal/mol)

>  <smiles>  (16) 
CCCNCc1coc(-c2ccc(Br)cc2)n1

>  <score_type>  (16) 
oracle

>  <origin>  (16) 
adg

>  <m_score__min__energy>  (16) 
-6.3700000000000001

>  <m_primary>  (16) 
energy

$$$$
17:0
     RDKit          3D

 33 35  0  0  0  0  0  0  0  0999 V2000
   -2.2319   23.4812  -27.3432 H   0  0  0  0  0  0  0  0  0  0  0  0
   -2.4980   23.2490  -28.3850 C   0  0  0  0  0  0  0  0  0  0  0  0
   -2.7910   21.7120  -29.0110 S   0  0  0  0  0  0  0  0  0  0  0  0
   -3.1000   22.2950  -30.5630 C   0  0  0  0  0  0  0  0  0  0  0  0
   -3.4100   21.5750  -31.5990 N   0  0  0  0  0  0  0  0  0  0  0  0
   -4.2490   22.0410  -32.6990 C   0  0  0  0  0  0  0  0  0  0  0  0
   -4.1735   21.3375  -33.5413 H   0  0  0  0  0  0  0  0  0  0  0  0
   -3.9110   23.0368  -33.0216 H   0  0  0  0  0  0  0  0  0  0  0  0
   -5.6900   22.1220  -32.2360 C   0  0  0  0  0  0  0  0  0  0  0  0
   -6.1720   23.3350  -31.6880 C   0  0  0  0  0  0  0  0  0  0  0  0
   -5.3070   24.4400  -31.6020 O   0  0  0  0  0  0  0  0  0  0  0  0
   -5.4630   25.5260  -30.6930 C   0  0  0  0  0  0  0  0  0  0  0  0
   -5.4091   25.1505  -29.6605 H   0  0  0  0  0  0  0  0  0  0  0  0
   -4.6612   26.2607  -30.8584 H   0  0  0  0  0  0  0  0  0  0  0  0
   -6.4392   26.0052  -30.8584 H   0  0  0  0  0  0  0  0  0  0  0  0
   -7.5030   23.4180  -31.2430 C   0  0  0  0  0  0  0  0  0  0  0  0
   -7.8717   24.3578  -30.8061 H   0  0  0  0  0  0  0  0  0  0  0  0
   -8.3600   22.3270  -31.3480 C   0  0  0  0  0  0  0  0  0  0  0  0
   -9.3945   22.4073  -30.9828 H   0  0  0  0  0  0  0  0  0  0  0  0
   -7.9140   21.1290  -31.9150 C   0  0  0  0  0  0  0  0  0  0  0  0
   -8.7960   20.0430  -32.0320 C   0  0  0  0  0  0  0  0  0  0  0  0
   -9.8288   20.1355  -31.6650 H   0  0  0  0  0  0  0  0  0  0  0  0
   -8.3710   18.8490  -32.6100 C   0  0  0  0  0  0  0  0  0  0  0  0
   -9.0676   18.0021  -32.6967 H   0  0  0  0  0  0  0  0  0  0  0  0
   -7.0630   18.7260  -33.0790 C   0  0  0  0  0  0  0  0  0  0  0  0
   -6.7326   17.7830  -33.5390 H   0  0  0  0  0  0  0  0  0  0  0  0
   -6.1710   19.7950  -32.9670 C   0  0  0  0  0  0  0  0  0  0  0  0
   -5.1427   19.6874  -33.3425 H   0  0  0  0  0  0  0  0  0  0  0  0
   -6.5760   21.0140  -32.3760 C   0  0  0  0  0  0  0  0  0  0  0  0
   -2.9850   23.6370  -30.6180 N   0  0  0  0  0  0  0  0  0  0  0  0
   -3.1330   24.2040  -31.4820 H   0  0  0  0  0  0  0  0  0  0  0  0
   -2.6510   24.1750  -29.4150 C   0  0  0  0  0  0  0  0  0  0  0  0
   -2.5124   25.2561  -29.2664 H   0  0  0  0  0  0  0  0  0  0  0  0
  1  2  1  0
  2  3  1  0
  3  4  1  0
  4  5  2  0
  5  6  1  0
  6  7  1  0
  6  8  1  0
  6  9  1  0
  9 10  2  0
 10 11  1  0
 11 12  1  0
 12 13  1  0
 12 14  1  0
 12 15  1  0
 10 16  1  0
 16 17  1  0
 16 18  2  0
 18 19  1  0
 18 20  1  0
 20 21  2  0
 21 22  1  0
 21 23  1  0
 23 24  1  0
 23 25  2  0
 25 26  1  0
 25 27  1  0
 27 28  1  0
 27 29  2  0
  4 30  1  0
 30 31  1  0
 30 32  1  0
 32 33  1  0
 32  2  2  0
 29  9  1  0
 29 20  1  0
M  END
>  <UniqueID>  (17) 
17

>  <SMILES>  (17) 
COc1ccc2ccccc2c1C/N=c1/[nH]ccs1

>  <Energy>  (17) 
70.65992884983761

>  <Genealogy>  (17) 
COc1ccc2ccccc2c1C/N=c1/[nH]ccs1 (cis-trans isomerization)
COc1ccc2ccccc2c1C/N=c1/[nH]ccs1 (3D coordinates assigned)
COc1ccc2ccccc2c1C/N=c1/[nH]ccs1 (optimized conformer: 70.65992884983761 kcal/mol)

>  <smiles>  (17) 
COc1ccc2ccccc2c1CN=c1[nH]ccs1

>  <score_type>  (17) 
oracle

>  <origin>  (17) 
adg

>  <m_score__min__energy>  (17) 
-6.9299999999999997

>  <m_primary>  (17) 
energy

$$$$
18:0
     RDKit          3D

 42 44  0  0  0  0  0  0  0  0999 V2000
   -6.9030   23.2270  -32.3140 C   0  0  0  0  0  0  0  0  0  0  0  0
   -5.4710   23.1290  -31.8640 C   0  0  0  0  0  0  0  0  0  0  0  0
   -4.9790   24.0600  -30.9380 C   0  0  0  0  0  0  0  0  0  0  0  0
   -3.6470   23.9990  -30.5000 C   0  0  0  0  0  0  0  0  0  0  0  0
   -3.1160   24.9280  -29.5450 N   0  0  0  0  0  0  0  0  0  0  0  0
   -1.8700   24.5760  -28.3900 S   0  0  0  0  0  0  0  0  0  0  0  0
   -0.5330   24.9060  -28.9900 O   0  0  0  0  0  0  0  0  0  0  0  0
   -2.0800   25.4260  -27.1670 O   0  0  0  0  0  0  0  0  0  0  0  0
   -1.9010   22.8660  -27.9760 C   0  0  0  0  0  0  0  0  0  0  0  0
   -0.6960   22.1720  -27.7950 C   0  0  0  0  0  0  0  0  0  0  0  0
   -0.7100   20.8100  -27.4810 C   0  0  0  0  0  0  0  0  0  0  0  0
   -1.9270   20.1380  -27.3390 C   0  0  0  0  0  0  0  0  0  0  0  0
   -3.1330   20.8240  -27.5200 C   0  0  0  0  0  0  0  0  0  0  0  0
   -3.1210   22.1850  -27.8390 C   0  0  0  0  0  0  0  0  0  0  0  0
   -2.8020   23.0070  -31.0070 C   0  0  0  0  0  0  0  0  0  0  0  0
   -3.2720   22.0610  -31.9340 C   0  0  0  0  0  0  0  0  0  0  0  0
   -2.3620   20.9750  -32.4620 C   0  0  0  0  0  0  0  0  0  0  0  0
   -2.4960   20.8800  -33.8350 F   0  0  0  0  0  0  0  0  0  0  0  0
   -2.7100   19.7650  -31.8880 F   0  0  0  0  0  0  0  0  0  0  0  0
   -1.0320   21.2340  -32.1730 F   0  0  0  0  0  0  0  0  0  0  0  0
   -4.6240   22.1030  -32.3370 C   0  0  0  0  0  0  0  0  0  0  0  0
   -5.1070   21.1270  -33.2180 O   0  0  0  0  0  0  0  0  0  0  0  0
   -6.0630   20.1760  -32.8500 C   0  0  0  0  0  0  0  0  0  0  0  0
   -5.7660   19.2470  -31.8530 C   0  0  0  0  0  0  0  0  0  0  0  0
   -6.7310   18.3110  -31.4860 C   0  0  0  0  0  0  0  0  0  0  0  0
   -7.9720   18.3290  -32.1230 C   0  0  0  0  0  0  0  0  0  0  0  0
   -8.2170   19.2560  -33.0870 N   0  0  0  0  0  0  0  0  0  0  0  0
   -7.2910   20.1500  -33.4390 N   0  0  0  0  0  0  0  0  0  0  0  0
   -7.5616   23.2721  -31.4341 H   0  0  0  0  0  0  0  0  0  0  0  0
   -7.0360   24.1363  -32.9185 H   0  0  0  0  0  0  0  0  0  0  0  0
   -7.1586   22.3442  -32.9185 H   0  0  0  0  0  0  0  0  0  0  0  0
   -5.6438   24.8462  -30.5509 H   0  0  0  0  0  0  0  0  0  0  0  0
    0.2628   22.7008  -27.9004 H   0  0  0  0  0  0  0  0  0  0  0  0
    0.2371   20.2671  -27.3457 H   0  0  0  0  0  0  0  0  0  0  0  0
   -1.9369   19.0679  -27.0845 H   0  0  0  0  0  0  0  0  0  0  0  0
   -4.0900   20.2927  -27.4113 H   0  0  0  0  0  0  0  0  0  0  0  0
   -4.0694   22.7234  -27.9830 H   0  0  0  0  0  0  0  0  0  0  0  0
   -1.7540   22.9664  -30.6754 H   0  0  0  0  0  0  0  0  0  0  0  0
   -4.7816   19.2531  -31.3621 H   0  0  0  0  0  0  0  0  0  0  0  0
   -6.5169   17.5675  -30.7041 H   0  0  0  0  0  0  0  0  0  0  0  0
   -8.7468   17.5984  -31.8473 H   0  0  0  0  0  0  0  0  0  0  0  0
   -9.1460   19.2700  -33.5630 H   0  0  0  0  0  0  0  0  0  0  0  0
  1  2  1  0
  2  3  2  0
  3  4  1  0
  4  5  1  0
  5  6  1  0
  6  7  2  0
  6  8  2  0
  6  9  1  0
  9 10  2  0
 10 11  1  0
 11 12  2  0
 12 13  1  0
 13 14  2  0
  4 15  2  0
 15 16  1  0
 16 17  1  0
 17 18  1  0
 17 19  1  0
 17 20  1  0
 16 21  2  0
 21 22  1  0
 22 23  1  0
 23 24  2  0
 24 25  1  0
 25 26  2  0
 26 27  1  0
 27 28  2  0
 21  2  1  0
 28 23  1  0
 14  9  1  0
  1 29  1  0
  1 30  1  0
  1 31  1  0
  3 32  1  0
 10 33  1  0
 11 34  1  0
 12 35  1  0
 13 36  1  0
 14 37  1  0
 15 38  1  0
 24 39  1  0
 25 40  1  0
 26 41  1  0
 27 42  1  0
M  CHG  2   5  -1  27   1
M  END
>  <UniqueID>  (18) 
18

>  <SMILES>  (18) 
Cc1cc([N-]S(=O)(=O)c2ccccc2)cc(C(F)(F)F)c1Oc1ccc[nH+]n1

>  <Energy>  (18) 
55.83659386297426

>  <Genealogy>  (18) 
Cc1cc([N-]S(=O)(=O)c2ccccc2)cc(C(F)(F)F)c1Oc1ccc[nH+]n1 (protonated)
Cc1cc([N-]S(=O)(=O)c2ccccc2)cc(C(F)(F)F)c1Oc1ccc[nH+]n1 (3D coordinates assigned)
Cc1cc([N-]S(=O)(=O)c2ccccc2)cc(C(F)(F)F)c1Oc1ccc[nH+]n1 (optimized conformer: 55.83659386297426 kcal/mol)

>  <smiles>  (18) 
Cc1cc(NS(=O)(=O)c2ccccc2)cc(C(F)(F)F)c1Oc1cccnn1

>  <score_type>  (18) 
oracle

>  <origin>  (18) 
adg

>  <m_score__min__energy>  (18) 
-9.4600000000000009

>  <m_primary>  (18) 
energy

$$$$
19:0
     RDKit          3D

 50 52  0  0  0  0  0  0  0  0999 V2000
   -8.7850   23.0890  -31.9660 C   0  0  0  0  0  0  0  0  0  0  0  0
   -9.3210   21.7140  -31.5730 C   0  0  0  0  0  0  0  0  0  0  0  0
   -8.4510   20.6440  -32.1060 N   0  0  0  0  0  0  0  0  0  0  0  0
   -9.1180   19.3400  -32.3080 C   0  0  0  0  0  0  0  0  0  0  0  0
   -8.2280   18.1480  -31.9590 C   0  0  0  0  0  0  0  0  0  0  0  0
   -7.0290   20.5880  -31.6740 C   0  0  0  0  0  0  0  0  0  0  0  0
   -5.9780   21.0440  -32.7120 C   0  0  0  0  0  0  0  0  0  0  0  0
   -5.6300   22.4570  -32.5630 N   0  0  0  0  0  0  0  0  0  0  0  0
   -5.0260   23.0360  -31.3880 C   0  0  0  0  0  0  0  0  0  0  0  0
   -5.7360   24.0120  -30.6710 C   0  0  0  0  0  0  0  0  0  0  0  0
   -5.1960   24.5870  -29.5180 C   0  0  0  0  0  0  0  0  0  0  0  0
   -3.9320   24.1960  -29.0580 C   0  0  0  0  0  0  0  0  0  0  0  0
   -3.4000   24.7540  -27.9310 N   0  0  0  0  0  0  0  0  0  0  0  0
   -2.1700   24.3870  -27.4580 C   0  0  0  0  0  0  0  0  0  0  0  0
   -1.6200   25.0210  -26.2330 C   0  0  0  0  0  0  0  0  0  0  0  0
   -1.8380   26.3880  -25.9820 C   0  0  0  0  0  0  0  0  0  0  0  0
   -1.3210   26.9870  -24.8280 C   0  0  0  0  0  0  0  0  0  0  0  0
   -0.5860   26.2290  -23.9140 C   0  0  0  0  0  0  0  0  0  0  0  0
   -0.0870   26.8120  -22.7950 F   0  0  0  0  0  0  0  0  0  0  0  0
   -0.3640   24.8710  -24.1520 C   0  0  0  0  0  0  0  0  0  0  0  0
   -0.8770   24.2670  -25.3040 C   0  0  0  0  0  0  0  0  0  0  0  0
   -1.4290   23.4110  -28.1440 C   0  0  0  0  0  0  0  0  0  0  0  0
   -1.9500   22.8280  -29.2970 C   0  0  0  0  0  0  0  0  0  0  0  0
   -3.2090   23.2150  -29.7680 C   0  0  0  0  0  0  0  0  0  0  0  0
   -3.7540   22.6390  -30.9260 C   0  0  0  0  0  0  0  0  0  0  0  0
   -8.5594   23.6678  -31.0582 H   0  0  0  0  0  0  0  0  0  0  0  0
   -7.8680   22.9686  -32.5614 H   0  0  0  0  0  0  0  0  0  0  0  0
   -9.5416   23.6210  -32.5614 H   0  0  0  0  0  0  0  0  0  0  0  0
   -9.3550   21.6393  -30.4761 H   0  0  0  0  0  0  0  0  0  0  0  0
  -10.3299   21.5932  -31.9943 H   0  0  0  0  0  0  0  0  0  0  0  0
  -10.0153   19.3042  -31.6727 H   0  0  0  0  0  0  0  0  0  0  0  0
   -9.3651   19.2614  -33.3770 H   0  0  0  0  0  0  0  0  0  0  0  0
   -8.1561   18.0518  -30.8656 H   0  0  0  0  0  0  0  0  0  0  0  0
   -8.6632   17.2297  -32.3801 H   0  0  0  0  0  0  0  0  0  0  0  0
   -7.2239   18.3044  -32.3801 H   0  0  0  0  0  0  0  0  0  0  0  0
   -6.9231   21.2291  -30.7864 H   0  0  0  0  0  0  0  0  0  0  0  0
   -6.8196   19.5233  -31.4937 H   0  0  0  0  0  0  0  0  0  0  0  0
   -5.0679   20.4397  -32.5834 H   0  0  0  0  0  0  0  0  0  0  0  0
   -6.4116   20.9072  -33.7136 H   0  0  0  0  0  0  0  0  0  0  0  0
   -5.7320   23.0600  -33.4110 H   0  0  0  0  0  0  0  0  0  0  0  0
   -6.7297   24.3279  -31.0213 H   0  0  0  0  0  0  0  0  0  0  0  0
   -5.7662   25.3506  -28.9686 H   0  0  0  0  0  0  0  0  0  0  0  0
   -3.9590   25.4640  -27.4050 H   0  0  0  0  0  0  0  0  0  0  0  0
   -2.4183   26.9895  -26.6972 H   0  0  0  0  0  0  0  0  0  0  0  0
   -1.4938   28.0570  -24.6404 H   0  0  0  0  0  0  0  0  0  0  0  0
    0.2157   24.2752  -23.4316 H   0  0  0  0  0  0  0  0  0  0  0  0
   -0.6993   23.1968  -25.4858 H   0  0  0  0  0  0  0  0  0  0  0  0
   -0.4394   23.1075  -27.7717 H   0  0  0  0  0  0  0  0  0  0  0  0
   -1.3716   22.0637  -29.8368 H   0  0  0  0  0  0  0  0  0  0  0  0
   -3.1862   21.8741  -31.4760 H   0  0  0  0  0  0  0  0  0  0  0  0
  1  2  1  0
  2  3  1  0
  3  4  1  0
  4  5  1  0
  3  6  1  0
  6  7  1  0
  7  8  1  0
  8  9  1  0
  9 10  2  0
 10 11  1  0
 11 12  2  0
 12 13  1  0
 13 14  2  0
 14 15  1  0
 15 16  2  0
 16 17  1  0
 17 18  2  0
 18 19  1  0
 18 20  1  0
 20 21  2  0
 14 22  1  0
 22 23  2  0
 23 24  1  0
 24 25  2  0
 25  9  1  0
 24 12  1  0
 21 15  1  0
  1 26  1  0
  1 27  1  0
  1 28  1  0
  2 29  1  0
  2 30  1  0
  4 31  1  0
  4 32  1  0
  5 33  1  0
  5 34  1  0
  5 35  1  0
  6 36  1  0
  6 37  1  0
  7 38  1  0
  7 39  1  0
  8 40  1  0
 10 41  1  0
 11 42  1  0
 13 43  1  0
 16 44  1  0
 17 45  1  0
 20 46  1  0
 21 47  1  0
 22 48  1  0
 23 49  1  0
 25 50  1  0
M  CHG  1  13   1
M  END
>  <UniqueID>  (19) 
19

>  <SMILES>  (19) 
CCN(CC)CCNc1ccc2[nH+]c(-c3ccc(F)cc3)ccc2c1

>  <Energy>  (19) 
67.12444670402361

>  <Genealogy>  (19) 
CCN(CC)CCNc1ccc2[nH+]c(-c3ccc(F)cc3)ccc2c1 (protonated)
CCN(CC)CCNc1ccc2[nH+]c(-c3ccc(F)cc3)ccc2c1 (3D coordinates assigned)
CCN(CC)CCNc1ccc2[nH+]c(-c3ccc(F)cc3)ccc2c1 (optimized conformer: 67.12444670402361 kcal/mol)

>  <smiles>  (19) 
CCN(CC)CCNc1ccc2nc(-c3ccc(F)cc3)ccc2c1

>  <score_type>  (19) 
oracle

>  <origin>  (19) 
adg

>  <m_score__min__energy>  (19) 
-7.3300000000000001

>  <m_primary>  (19) 
energy

$$$$
20:0
     RDKit          3D

 42 44  0  0  0  0  0  0  0  0999 V2000
   -2.2650   24.3350  -28.9880 C   0  0  0  0  0  0  0  0  0  0  0  0
   -3.1330   24.9680  -29.9230 O   0  0  0  0  0  0  0  0  0  0  0  0
   -4.4250   24.5180  -30.2360 C   0  0  0  0  0  0  0  0  0  0  0  0
   -5.5150   25.1700  -29.6480 C   0  0  0  0  0  0  0  0  0  0  0  0
   -6.8190   24.7580  -29.9260 C   0  0  0  0  0  0  0  0  0  0  0  0
   -7.0490   23.6910  -30.7970 C   0  0  0  0  0  0  0  0  0  0  0  0
   -5.9700   23.0270  -31.4030 C   0  0  0  0  0  0  0  0  0  0  0  0
   -6.2040   21.9210  -32.2960 N   0  0  0  0  0  0  0  0  0  0  0  0
   -5.1050   21.3620  -33.0950 C   0  0  0  0  0  0  0  0  0  0  0  0
   -5.0210   19.8500  -32.8660 C   0  0  0  0  0  0  0  0  0  0  0  0
   -6.3530   19.2230  -32.9170 N   0  0  0  0  0  0  0  0  0  0  0  0
   -6.4980   17.8310  -32.5800 C   0  0  0  0  0  0  0  0  0  0  0  0
   -7.5080   17.4450  -31.9310 O   0  0  0  0  0  0  0  0  0  0  0  0
   -5.4610   16.8460  -32.9240 C   0  0  0  0  0  0  0  0  0  0  0  0
   -4.9900   15.5880  -31.9130 S   0  0  0  0  0  0  0  0  0  0  0  0
   -3.8600   14.9120  -32.9560 C   0  0  0  0  0  0  0  0  0  0  0  0
   -3.8510   15.6570  -34.1270 C   0  0  0  0  0  0  0  0  0  0  0  0
   -4.7410   16.7420  -34.1190 C   0  0  0  0  0  0  0  0  0  0  0  0
   -4.9890   17.5650  -35.3490 C   0  0  0  0  0  0  0  0  0  0  0  0
   -7.5370   20.0390  -33.2190 C   0  0  0  0  0  0  0  0  0  0  0  0
   -7.5380   21.3060  -32.3550 C   0  0  0  0  0  0  0  0  0  0  0  0
   -4.6580   23.4420  -31.1140 C   0  0  0  0  0  0  0  0  0  0  0  0
   -2.5916   24.5732  -27.9650 H   0  0  0  0  0  0  0  0  0  0  0  0
   -2.2957   23.2458  -29.1384 H   0  0  0  0  0  0  0  0  0  0  0  0
   -1.2373   24.6971  -29.1384 H   0  0  0  0  0  0  0  0  0  0  0  0
   -5.3427   26.0127  -28.9623 H   0  0  0  0  0  0  0  0  0  0  0  0
   -7.6689   25.2757  -29.4573 H   0  0  0  0  0  0  0  0  0  0  0  0
   -8.0793   23.3693  -31.0093 H   0  0  0  0  0  0  0  0  0  0  0  0
   -5.2893   21.5612  -34.1610 H   0  0  0  0  0  0  0  0  0  0  0  0
   -4.1573   21.8307  -32.7914 H   0  0  0  0  0  0  0  0  0  0  0  0
   -4.3859   19.4048  -33.6461 H   0  0  0  0  0  0  0  0  0  0  0  0
   -4.5943   19.6747  -31.8674 H   0  0  0  0  0  0  0  0  0  0  0  0
   -3.2352   14.0311  -32.7470 H   0  0  0  0  0  0  0  0  0  0  0  0
   -3.2044   15.4184  -34.9843 H   0  0  0  0  0  0  0  0  0  0  0  0
   -5.2949   18.5800  -35.0555 H   0  0  0  0  0  0  0  0  0  0  0  0
   -4.0670   17.6183  -35.9466 H   0  0  0  0  0  0  0  0  0  0  0  0
   -5.7869   17.1000  -35.9466 H   0  0  0  0  0  0  0  0  0  0  0  0
   -7.5216   20.3232  -34.2815 H   0  0  0  0  0  0  0  0  0  0  0  0
   -8.4427   19.4539  -33.0012 H   0  0  0  0  0  0  0  0  0  0  0  0
   -8.2464   22.0301  -32.7838 H   0  0  0  0  0  0  0  0  0  0  0  0
   -7.8335   21.0258  -31.3332 H   0  0  0  0  0  0  0  0  0  0  0  0
   -3.8067   22.9219  -31.5775 H   0  0  0  0  0  0  0  0  0  0  0  0
  1  2  1  0
  2  3  1  0
  3  4  2  0
  4  5  1  0
  5  6  2  0
  6  7  1  0
  7  8  1  0
  8  9  1  0
  9 10  1  0
 10 11  1  0
 11 12  1  0
 12 13  2  0
 12 14  1  0
 14 15  1  0
 15 16  1  0
 16 17  2  0
 17 18  1  0
 18 19  1  0
 11 20  1  0
 20 21  1  0
  7 22  2  0
 22  3  1  0
 21  8  1  0
 18 14  2  0
  1 23  1  0
  1 24  1  0
  1 25  1  0
  4 26  1  0
  5 27  1  0
  6 28  1  0
  9 29  1  0
  9 30  1  0
 10 31  1  0
 10 32  1  0
 16 33  1  0
 17 34  1  0
 19 35  1  0
 19 36  1  0
 19 37  1  0
 20 38  1  0
 20 39  1  0
 21 40  1  0
 21 41  1  0
 22 42  1  0
M  END
>  <UniqueID>  (20) 
20

>  <SMILES>  (20) 
COc1cccc(N2CCN(C(=O)c3sccc3C)CC2)c1

>  <Energy>  (20) 
78.28174888122058

>  <Genealogy>  (20) 
COc1cccc(N2CCN(C(=O)c3sccc3C)CC2)c1 (3D coordinates assigned)
COc1cccc(N2CCN(C(=O)c3sccc3C)CC2)c1 (nonaromatic ring conformer: 78.28174888122058 kcal/mol)

>  <smiles>  (20) 
COc1cccc(N2CCN(C(=O)c3sccc3C)CC2)c1

>  <score_type>  (20) 
oracle

>  <origin>  (20) 
adg

>  <m_score__min__energy>  (20) 
-7.9199999999999999

>  <m_primary>  (20) 
energy

$$$$
21:0
     RDKit          3D

 43 45  0  0  0  0  0  0  0  0999 V2000
   -1.6160   17.9060  -34.5990 C   0  0  0  0  0  0  0  0  0  0  0  0
   -2.8740   18.5410  -34.1720 N   0  0  0  0  0  0  0  0  0  0  0  0
   -4.0210   17.7910  -34.0370 C   0  0  0  0  0  0  0  0  0  0  0  0
   -4.0260   16.5530  -34.2800 O   0  0  0  0  0  0  0  0  0  0  0  0
   -5.1810   18.4310  -33.6160 C   0  0  0  0  0  0  0  0  0  0  0  0
   -5.1600   19.7540  -33.3210 C   0  0  0  0  0  0  0  0  0  0  0  0
   -6.3710   20.1460  -32.8870 N   0  0  0  0  0  0  0  0  0  0  0  0
   -7.1160   19.0150  -32.9270 C   0  0  0  0  0  0  0  0  0  0  0  0
   -8.8350   18.9650  -32.4060 S   0  0  0  0  0  0  0  0  0  0  0  0
   -9.0300   20.7830  -32.3400 C   0  0  0  0  0  0  0  0  0  0  0  0
   -8.6740   21.3390  -30.9590 C   0  0  0  0  0  0  0  0  0  0  0  0
   -7.2600   21.3630  -30.7600 O   0  0  0  0  0  0  0  0  0  0  0  0
   -6.4670   22.5190  -30.6650 C   0  0  0  0  0  0  0  0  0  0  0  0
   -5.2250   22.5410  -29.9990 C   0  0  0  0  0  0  0  0  0  0  0  0
   -4.4810   23.7230  -29.9360 C   0  0  0  0  0  0  0  0  0  0  0  0
   -4.9630   24.8890  -30.5380 C   0  0  0  0  0  0  0  0  0  0  0  0
   -4.2400   26.0330  -30.4750 F   0  0  0  0  0  0  0  0  0  0  0  0
   -6.1910   24.8730  -31.2040 C   0  0  0  0  0  0  0  0  0  0  0  0
   -6.9370   23.6920  -31.2690 C   0  0  0  0  0  0  0  0  0  0  0  0
   -6.4180   17.9420  -33.3870 N   0  0  0  0  0  0  0  0  0  0  0  0
   -6.8720   16.5570  -33.5050 C   0  0  0  0  0  0  0  0  0  0  0  0
   -4.0340   20.5100  -33.4250 N   0  0  0  0  0  0  0  0  0  0  0  0
   -4.0710   21.9330  -33.0580 C   0  0  0  0  0  0  0  0  0  0  0  0
   -2.8770   19.8880  -33.8460 C   0  0  0  0  0  0  0  0  0  0  0  0
   -1.8050   20.5510  -33.9310 O   0  0  0  0  0  0  0  0  0  0  0  0
   -1.0343   17.6124  -33.7128 H   0  0  0  0  0  0  0  0  0  0  0  0
   -1.8417   17.0138  -35.2016 H   0  0  0  0  0  0  0  0  0  0  0  0
   -1.0323   18.6174  -35.2016 H   0  0  0  0  0  0  0  0  0  0  0  0
   -6.6730   21.0920  -32.5660 H   0  0  0  0  0  0  0  0  0  0  0  0
   -8.3682   21.2403  -33.0902 H   0  0  0  0  0  0  0  0  0  0  0  0
  -10.0834   21.0234  -32.5461 H   0  0  0  0  0  0  0  0  0  0  0  0
   -9.0658   22.3633  -30.8728 H   0  0  0  0  0  0  0  0  0  0  0  0
   -9.1219   20.6865  -30.1951 H   0  0  0  0  0  0  0  0  0  0  0  0
   -4.8398   21.6250  -29.5272 H   0  0  0  0  0  0  0  0  0  0  0  0
   -3.5142   23.7355  -29.4115 H   0  0  0  0  0  0  0  0  0  0  0  0
   -6.5713   25.7901  -31.6776 H   0  0  0  0  0  0  0  0  0  0  0  0
   -7.9009   23.6842  -31.7989 H   0  0  0  0  0  0  0  0  0  0  0  0
   -7.0119   16.1302  -32.5009 H   0  0  0  0  0  0  0  0  0  0  0  0
   -7.8263   16.5292  -34.0514 H   0  0  0  0  0  0  0  0  0  0  0  0
   -6.1193   15.9697  -34.0514 H   0  0  0  0  0  0  0  0  0  0  0  0
   -4.0735   22.0291  -31.9622 H   0  0  0  0  0  0  0  0  0  0  0  0
   -3.1858   22.4407  -33.4686 H   0  0  0  0  0  0  0  0  0  0  0  0
   -4.9814   22.3940  -33.4686 H   0  0  0  0  0  0  0  0  0  0  0  0
  1  2  1  0
  2  3  1  0
  3  4  2  0
  3  5  1  0
  5  6  2  0
  6  7  1  0
  7  8  2  0
  8  9  1  0
  9 10  1  0
 10 11  1  0
 11 12  1  0
 12 13  1  0
 13 14  2  0
 14 15  1  0
 15 16  2  0
 16 17  1  0
 16 18  1  0
 18 19  2  0
  8 20  1  0
 20 21  1  0
  6 22  1  0
 22 23  1  0
 22 24  1  0
 24 25  2  0
 24  2  1  0
 20  5  1  0
 19 13  1  0
  1 26  1  0
  1 27  1  0
  1 28  1  0
  7 29  1  0
 10 30  1  0
 10 31  1  0
 11 32  1  0
 11 33  1  0
 14 34  1  0
 15 35  1  0
 18 36  1  0
 19 37  1  0
 21 38  1  0
 21 39  1  0
 21 40  1  0
 23 41  1  0
 23 42  1  0
 23 43  1  0
M  CHG  1   7   1
M  END
>  <UniqueID>  (21) 
21

>  <SMILES>  (21) 
Cn1c(=O)c2c([nH+]c(SCCOc3ccc(F)cc3)n2C)n(C)c1=O

>  <Energy>  (21) 
87.60453308796494

>  <Genealogy>  (21) 
Cn1c(=O)c2c([nH+]c(SCCOc3ccc(F)cc3)n2C)n(C)c1=O (protonated)
Cn1c(=O)c2c([nH+]c(SCCOc3ccc(F)cc3)n2C)n(C)c1=O (3D coordinates assigned)
Cn1c(=O)c2c([nH+]c(SCCOc3ccc(F)cc3)n2C)n(C)c1=O (optimized conformer: 87.60453308796494 kcal/mol)

>  <smiles>  (21) 
Cn1c(=O)c2c(nc(SCCOc3ccc(F)cc3)n2C)n(C)c1=O

>  <score_type>  (21) 
oracle

>  <origin>  (21) 
adg

>  <m_score__min__energy>  (21) 
-6.79

>  <m_primary>  (21) 
energy

$$$$
22:0
     RDKit          3D

 57 61  0  0  0  0  0  0  0  0999 V2000
   -9.3010   18.1820  -31.6190 C   0  0  0  0  0  0  0  0  0  0  0  0
   -9.1300   19.5740  -31.3750 O   0  0  0  0  0  0  0  0  0  0  0  0
   -7.9870   20.3070  -31.7300 C   0  0  0  0  0  0  0  0  0  0  0  0
   -7.8420   21.6010  -31.2190 C   0  0  0  0  0  0  0  0  0  0  0  0
   -6.7210   22.3710  -31.5400 C   0  0  0  0  0  0  0  0  0  0  0  0
   -5.7260   21.8560  -32.3860 C   0  0  0  0  0  0  0  0  0  0  0  0
   -4.4980   22.6700  -32.7050 C   0  0  0  0  0  0  0  0  0  0  0  0
   -3.4580   22.4580  -31.6760 N   0  0  0  0  0  0  0  0  0  0  0  0
   -3.2450   23.4160  -30.7110 C   0  0  0  0  0  0  0  0  0  0  0  0
   -3.8970   24.4980  -30.7320 O   0  0  0  0  0  0  0  0  0  0  0  0
   -2.2830   23.2030  -29.7020 C   0  0  0  0  0  0  0  0  0  0  0  0
   -2.0370   24.2010  -28.6340 C   0  0  0  0  0  0  0  0  0  0  0  0
   -0.8680   24.9790  -28.6670 C   0  0  0  0  0  0  0  0  0  0  0  0
   -0.6340   25.9400  -27.6850 C   0  0  0  0  0  0  0  0  0  0  0  0
   -1.5730   26.1250  -26.6730 C   0  0  0  0  0  0  0  0  0  0  0  0
   -2.7040   25.3740  -26.6490 N   0  0  0  0  0  0  0  0  0  0  0  0
   -2.9640   24.4200  -27.5860 C   0  0  0  0  0  0  0  0  0  0  0  0
   -4.2350   23.6310  -27.4700 C   0  0  0  0  0  0  0  0  0  0  0  0
   -1.5690   22.0480  -29.7010 N   0  0  0  0  0  0  0  0  0  0  0  0
   -1.7660   21.0990  -30.6440 C   0  0  0  0  0  0  0  0  0  0  0  0
   -1.0310   19.9140  -30.6360 C   0  0  0  0  0  0  0  0  0  0  0  0
   -1.2550   18.9770  -31.5930 N   0  0  0  0  0  0  0  0  0  0  0  0
   -2.1860   19.1680  -32.5680 C   0  0  0  0  0  0  0  0  0  0  0  0
   -2.4080   18.1570  -33.5750 N   0  0  0  0  0  0  0  0  0  0  0  0
   -1.3050   17.2710  -33.9720 C   0  0  0  0  0  0  0  0  0  0  0  0
   -1.5620   16.6800  -35.3610 C   0  0  0  0  0  0  0  0  0  0  0  0
   -2.8520   16.1070  -35.4330 O   0  0  0  0  0  0  0  0  0  0  0  0
   -3.8250   17.1250  -35.3120 C   0  0  0  0  0  0  0  0  0  0  0  0
   -3.7800   17.7610  -33.9200 C   0  0  0  0  0  0  0  0  0  0  0  0
   -2.9080   20.3230  -32.5850 N   0  0  0  0  0  0  0  0  0  0  0  0
   -2.7260   21.2950  -31.6500 C   0  0  0  0  0  0  0  0  0  0  0  0
   -5.8680   20.5570  -32.8970 C   0  0  0  0  0  0  0  0  0  0  0  0
   -6.9890   19.7870  -32.5750 C   0  0  0  0  0  0  0  0  0  0  0  0
   -9.3667   17.6470  -30.6601 H   0  0  0  0  0  0  0  0  0  0  0  0
  -10.2257   18.0212  -32.1927 H   0  0  0  0  0  0  0  0  0  0  0  0
   -8.4428   17.8022  -32.1927 H   0  0  0  0  0  0  0  0  0  0  0  0
   -8.6174   22.0162  -30.5585 H   0  0  0  0  0  0  0  0  0  0  0  0
   -6.6176   23.3856  -31.1278 H   0  0  0  0  0  0  0  0  0  0  0  0
   -4.1051   22.3642  -33.6859 H   0  0  0  0  0  0  0  0  0  0  0  0
   -4.7707   23.7355  -32.7227 H   0  0  0  0  0  0  0  0  0  0  0  0
   -0.1335   24.8291  -29.4720 H   0  0  0  0  0  0  0  0  0  0  0  0
    0.2834   26.5465  -27.7090 H   0  0  0  0  0  0  0  0  0  0  0  0
   -1.3982   26.8802  -25.8925 H   0  0  0  0  0  0  0  0  0  0  0  0
   -4.4775   23.4805  -26.4077 H   0  0  0  0  0  0  0  0  0  0  0  0
   -5.0533   24.1801  -27.9586 H   0  0  0  0  0  0  0  0  0  0  0  0
   -4.1060   22.6540  -27.9586 H   0  0  0  0  0  0  0  0  0  0  0  0
   -0.2732   19.7391  -29.8581 H   0  0  0  0  0  0  0  0  0  0  0  0
   -0.3679   17.8468  -33.9918 H   0  0  0  0  0  0  0  0  0  0  0  0
   -1.2310   16.4489  -33.2449 H   0  0  0  0  0  0  0  0  0  0  0  0
   -1.4798   17.4784  -36.1132 H   0  0  0  0  0  0  0  0  0  0  0  0
   -0.8165   15.8942  -35.5527 H   0  0  0  0  0  0  0  0  0  0  0  0
   -3.6316   17.8999  -36.0684 H   0  0  0  0  0  0  0  0  0  0  0  0
   -4.8197   16.6803  -35.4633 H   0  0  0  0  0  0  0  0  0  0  0  0
   -4.4266   18.6508  -33.9083 H   0  0  0  0  0  0  0  0  0  0  0  0
   -4.1318   17.0244  -33.1827 H   0  0  0  0  0  0  0  0  0  0  0  0
   -5.0913   20.1416  -33.5559 H   0  0  0  0  0  0  0  0  0  0  0  0
   -7.0916   18.7708  -32.9835 H   0  0  0  0  0  0  0  0  0  0  0  0
  1  2  1  0
  2  3  1  0
  3  4  2  0
  4  5  1  0
  5  6  2  0
  6  7  1  0
  7  8  1  0
  8  9  1  0
  9 10  2  0
  9 11  1  0
 11 12  1  0
 12 13  2  0
 13 14  1  0
 14 15  2  0
 15 16  1  0
 16 17  2  0
 17 18  1  0
 11 19  2  0
 19 20  1  0
 20 21  2  0
 21 22  1  0
 22 23  2  0
 23 24  1  0
 24 25  1  0
 25 26  1  0
 26 27  1  0
 27 28  1  0
 28 29  1  0
 23 30  1  0
 30 31  2  0
  6 32  1  0
 32 33  2  0
 33  3  1  0
 31  8  1  0
 17 12  1  0
 31 20  1  0
 29 24  1  0
  1 34  1  0
  1 35  1  0
  1 36  1  0
  4 37  1  0
  5 38  1  0
  7 39  1  0
  7 40  1  0
 13 41  1  0
 14 42  1  0
 15 43  1  0
 18 44  1  0
 18 45  1  0
 18 46  1  0
 21 47  1  0
 25 48  1  0
 25 49  1  0
 26 50  1  0
 26 51  1  0
 28 52  1  0
 28 53  1  0
 29 54  1  0
 29 55  1  0
 32 56  1  0
 33 57  1  0
M  END
>  <UniqueID>  (22) 
22

>  <SMILES>  (22) 
COc1ccc(Cn2c(=O)c(-c3cccnc3C)nc3cnc(N4CCOCC4)nc32)cc1

>  <Energy>  (22) 
77.45566229019005

>  <Genealogy>  (22) 
COc1ccc(Cn2c(=O)c(-c3cccnc3C)nc3cnc(N4CCOCC4)nc32)cc1 (3D coordinates assigned)
COc1ccc(Cn2c(=O)c(-c3cccnc3C)nc3cnc(N4CCOCC4)nc32)cc1 (nonaromatic ring conformer: 77.45566229019005 kcal/mol)

>  <smiles>  (22) 
COc1ccc(Cn2c(=O)c(-c3cccnc3C)nc3cnc(N4CCOCC4)nc32)cc1

>  <score_type>  (22) 
oracle

>  <origin>  (22) 
adg

>  <m_score__min__energy>  (22) 
-8.2400000000000002

>  <m_primary>  (22) 
energy

$$$$
23:0
     RDKit          3D

 38 40  0  0  0  0  0  0  0  0999 V2000
   -6.6770   25.3220  -29.7110 C   0  0  0  0  0  0  0  0  0  0  0  0
   -5.5340   24.3960  -29.9730 C   0  0  0  0  0  0  0  0  0  0  0  0
   -5.4750   23.1420  -29.3590 C   0  0  0  0  0  0  0  0  0  0  0  0
   -4.3990   22.3010  -29.6340 C   0  0  0  0  0  0  0  0  0  0  0  0
   -3.3960   22.7340  -30.5080 C   0  0  0  0  0  0  0  0  0  0  0  0
   -2.2030   21.8630  -30.8190 C   0  0  0  0  0  0  0  0  0  0  0  0
   -2.4190   20.9360  -31.9520 N   0  0  0  0  0  0  0  0  0  0  0  0
   -2.7270   21.5750  -33.2490 C   0  0  0  0  0  0  0  0  0  0  0  0
   -4.2130   21.9450  -33.3880 C   0  0  0  0  0  0  0  0  0  0  0  0
   -5.0690   21.0170  -32.6400 N   0  0  0  0  0  0  0  0  0  0  0  0
   -6.4020   21.4150  -32.2540 C   0  0  0  0  0  0  0  0  0  0  0  0
   -7.3130   20.4770  -31.8700 N   0  0  0  0  0  0  0  0  0  0  0  0
   -8.5830   20.8210  -31.5380 C   0  0  0  0  0  0  0  0  0  0  0  0
   -8.9760   22.1560  -31.5890 C   0  0  0  0  0  0  0  0  0  0  0  0
   -8.0380   23.1090  -31.9810 C   0  0  0  0  0  0  0  0  0  0  0  0
   -6.7770   22.7230  -32.3060 N   0  0  0  0  0  0  0  0  0  0  0  0
   -4.5610   19.6650  -32.3830 C   0  0  0  0  0  0  0  0  0  0  0  0
   -3.2150   19.7250  -31.6390 C   0  0  0  0  0  0  0  0  0  0  0  0
   -3.5210   23.9520  -31.1020 N   0  0  0  0  0  0  0  0  0  0  0  0
   -4.5550   24.7560  -30.8450 N   0  0  0  0  0  0  0  0  0  0  0  0
   -6.8162   25.4348  -28.6257 H   0  0  0  0  0  0  0  0  0  0  0  0
   -6.4628   26.3043  -30.1572 H   0  0  0  0  0  0  0  0  0  0  0  0
   -7.5935   24.9086  -30.1572 H   0  0  0  0  0  0  0  0  0  0  0  0
   -6.2684   22.8230  -28.6671 H   0  0  0  0  0  0  0  0  0  0  0  0
   -4.3386   21.3062  -29.1685 H   0  0  0  0  0  0  0  0  0  0  0  0
   -1.3514   22.5154  -31.0623 H   0  0  0  0  0  0  0  0  0  0  0  0
   -2.0182   21.2434  -29.9291 H   0  0  0  0  0  0  0  0  0  0  0  0
   -2.1256   22.4914  -33.3418 H   0  0  0  0  0  0  0  0  0  0  0  0
   -2.4884   20.8510  -34.0420 H   0  0  0  0  0  0  0  0  0  0  0  0
   -4.3658   22.9634  -33.0012 H   0  0  0  0  0  0  0  0  0  0  0  0
   -4.4860   21.8860  -34.4520 H   0  0  0  0  0  0  0  0  0  0  0  0
   -9.3007   20.0467  -31.2292 H   0  0  0  0  0  0  0  0  0  0  0  0
  -10.0025   22.4512  -31.3261 H   0  0  0  0  0  0  0  0  0  0  0  0
   -8.3182   24.1717  -32.0271 H   0  0  0  0  0  0  0  0  0  0  0  0
   -5.2896   19.1157  -31.7687 H   0  0  0  0  0  0  0  0  0  0  0  0
   -4.4121   19.1530  -33.3451 H   0  0  0  0  0  0  0  0  0  0  0  0
   -3.4142   19.7094  -30.5573 H   0  0  0  0  0  0  0  0  0  0  0  0
   -2.6251   18.8566  -31.9675 H   0  0  0  0  0  0  0  0  0  0  0  0
  1  2  1  0
  2  3  2  0
  3  4  1  0
  4  5  2  0
  5  6  1  0
  6  7  1  0
  7  8  1  0
  8  9  1  0
  9 10  1  0
 10 11  1  0
 11 12  2  0
 12 13  1  0
 13 14  2  0
 14 15  1  0
 15 16  2  0
 10 17  1  0
 17 18  1  0
  5 19  1  0
 19 20  2  0
 20  2  1  0
 18  7  1  0
 16 11  1  0
  1 21  1  0
  1 22  1  0
  1 23  1  0
  3 24  1  0
  4 25  1  0
  6 26  1  0
  6 27  1  0
  8 28  1  0
  8 29  1  0
  9 30  1  0
  9 31  1  0
 13 32  1  0
 14 33  1  0
 15 34  1  0
 17 35  1  0
 17 36  1  0
 18 37  1  0
 18 38  1  0
M  END
>  <UniqueID>  (23) 
23

>  <SMILES>  (23) 
Cc1ccc(CN2CCN(c3ncccn3)CC2)nn1

>  <Energy>  (23) 
49.60934516238783

>  <Genealogy>  (23) 
Cc1ccc(CN2CCN(c3ncccn3)CC2)nn1 (3D coordinates assigned)
Cc1ccc(CN2CCN(c3ncccn3)CC2)nn1 (nonaromatic ring conformer: 49.60934516238783 kcal/mol)

>  <smiles>  (23) 
Cc1ccc(CN2CCN(c3ncccn3)CC2)nn1

>  <score_type>  (23) 
oracle

>  <origin>  (23) 
adg

>  <m_score__min__energy>  (23) 
-7.6500000000000004

>  <m_primary>  (23) 
energy

$$$$
24:0
     RDKit          3D

 42 44  0  0  1  0  0  0  0  0999 V2000
   -1.1110   25.0420  -28.2310 C   0  0  0  0  0  0  0  0  0  0  0  0
   -1.9470   25.3040  -29.3430 O   0  0  0  0  0  0  0  0  0  0  0  0
   -3.1070   24.5460  -29.5330 C   0  0  0  0  0  0  0  0  0  0  0  0
   -3.3440   23.5530  -28.6090 C   0  0  0  0  0  0  0  0  0  0  0  0
   -4.4720   22.7950  -28.7690 C   0  0  0  0  0  0  0  0  0  0  0  0
   -5.2810   23.0330  -29.7800 N   0  0  0  0  0  0  0  0  0  0  0  0
   -5.0420   23.9990  -30.6720 C   0  0  0  0  0  0  0  0  0  0  0  0
   -5.8280   24.1890  -31.6080 N   0  0  0  0  0  0  0  0  0  0  0  0
   -7.0860   23.8170  -32.0040 C   0  0  0  0  0  0  0  0  0  0  0  0
   -7.6110   22.4700  -32.0690 C   0  0  0  0  0  0  0  0  0  0  0  0
   -8.9380   22.2330  -31.6640 C   0  0  0  0  0  0  0  0  0  0  0  0
   -9.4970   20.9750  -31.7300 C   0  0  0  0  0  0  0  0  0  0  0  0
   -8.7490   19.9190  -32.2020 C   0  0  0  0  0  0  0  0  0  0  0  0
   -7.4440   20.1080  -32.6100 C   0  0  0  0  0  0  0  0  0  0  0  0
   -6.7180   18.9380  -33.0980 C   0  0  0  0  0  0  0  0  0  0  0  0
   -5.9770   18.9220  -34.2470 C   0  0  0  0  0  0  0  0  0  0  0  0
   -5.3180   17.7710  -34.6420 C   0  0  0  0  0  0  0  0  0  0  0  0
   -5.3700   16.6010  -33.9120 C   0  0  0  0  0  0  0  0  0  0  0  0
   -4.6470   15.3720  -34.3640 C   0  0  0  0  0  0  0  0  0  0  0  0
   -6.1220   16.6160  -32.7460 C   0  0  0  0  0  0  0  0  0  0  0  0
   -6.7810   17.7580  -32.3470 C   0  0  0  0  0  0  0  0  0  0  0  0
   -6.8840   21.3660  -32.5430 C   0  0  0  0  0  0  0  0  0  0  0  0
   -3.9340   24.7900  -30.5680 N   0  0  0  0  0  0  0  0  0  0  0  0
   -1.6718   25.2178  -27.3012 H   0  0  0  0  0  0  0  0  0  0  0  0
   -0.7744   23.9953  -28.2639 H   0  0  0  0  0  0  0  0  0  0  0  0
   -0.2372   25.7094  -28.2639 H   0  0  0  0  0  0  0  0  0  0  0  0
   -2.6518   23.3755  -27.7727 H   0  0  0  0  0  0  0  0  0  0  0  0
   -4.7019   21.9899  -28.0556 H   0  0  0  0  0  0  0  0  0  0  0  0
   -6.1240   22.4730  -29.9070 H   0  0  0  0  0  0  0  0  0  0  0  0
   -7.7676   24.3557  -31.3293 H   0  0  0  0  0  0  0  0  0  0  0  0
   -7.0052   24.0298  -33.0802 H   0  0  0  0  0  0  0  0  0  0  0  0
   -9.5425   23.0708  -31.2863 H   0  0  0  0  0  0  0  0  0  0  0  0
  -10.5363   20.8149  -31.4071 H   0  0  0  0  0  0  0  0  0  0  0  0
   -9.1960   18.9153  -32.2543 H   0  0  0  0  0  0  0  0  0  0  0  0
   -5.9041   19.8310  -34.8621 H   0  0  0  0  0  0  0  0  0  0  0  0
   -4.7311   17.7894  -35.5722 H   0  0  0  0  0  0  0  0  0  0  0  0
   -4.3109   14.8006  -33.4862 H   0  0  0  0  0  0  0  0  0  0  0  0
   -5.3233   14.7504  -34.9691 H   0  0  0  0  0  0  0  0  0  0  0  0
   -3.7751   15.6612  -34.9691 H   0  0  0  0  0  0  0  0  0  0  0  0
   -6.1928   15.7053  -32.1331 H   0  0  0  0  0  0  0  0  0  0  0  0
   -7.3697   17.7425  -31.4179 H   0  0  0  0  0  0  0  0  0  0  0  0
   -5.8430   21.5083  -32.8686 H   0  0  0  0  0  0  0  0  0  0  0  0
  1  2  1  0
  2  3  1  0
  3  4  1  0
  4  5  2  0
  5  6  1  0
  6  7  1  0
  7  8  2  0
  8  9  1  0
  9 10  1  0
 10 11  2  0
 11 12  1  0
 12 13  2  0
 13 14  1  0
 14 15  1  0
 15 16  2  0
 16 17  1  0
 17 18  2  0
 18 19  1  0
 18 20  1  0
 20 21  2  0
 14 22  2  0
  7 23  1  0
 23  3  2  0
 22 10  1  0
 21 15  1  0
  1 24  1  0
  1 25  1  0
  1 26  1  0
  4 27  1  0
  5 28  1  0
  6 29  1  0
  9 30  1  0
  9 31  1  0
 11 32  1  0
 12 33  1  0
 13 34  1  0
 16 35  1  0
 17 36  1  0
 19 37  1  0
 19 38  1  0
 19 39  1  0
 20 40  1  0
 21 41  1  0
 22 42  1  0
M  END
>  <smiles>  (24) 
COc1cc[nH]c(=NCc2cccc(-c3ccc(C)cc3)c2)n1

>  <score_type>  (24) 
oracle

>  <origin>  (24) 
adg

>  <m_score__min__energy>  (24) 
-9.6300000000000008

>  <m_primary>  (24) 
energy

$$$$
25:0
     RDKit          3D

 38 39  0  0  0  0  0  0  0  0999 V2000
   -3.1040   24.6030  -26.8610 C   0  0  0  0  0  0  0  0  0  0  0  0
   -4.2320   24.1890  -27.7990 C   0  0  0  0  0  0  0  0  0  0  0  0
   -3.7160   23.8210  -29.0750 O   0  0  0  0  0  0  0  0  0  0  0  0
   -4.2810   24.2360  -30.2880 C   0  0  0  0  0  0  0  0  0  0  0  0
   -3.8690   25.2880  -30.8490 O   0  0  0  0  0  0  0  0  0  0  0  0
   -5.3650   23.4370  -30.9110 C   0  0  0  0  0  0  0  0  0  0  0  0
   -6.5760   23.9990  -31.0740 C   0  0  0  0  0  0  0  0  0  0  0  0
   -7.7030   23.2300  -31.5160 N   0  0  0  0  0  0  0  0  0  0  0  0
   -7.6000   22.0140  -31.9560 C   0  0  0  0  0  0  0  0  0  0  0  0
   -6.2520   21.3820  -32.1670 C   0  0  2  0  0  0  0  0  0  0  0  0
   -6.3620   19.8870  -32.0410 C   0  0  0  0  0  0  0  0  0  0  0  0
   -5.4380   19.2370  -31.4810 O   0  0  0  0  0  0  0  0  0  0  0  0
   -7.5020   19.2330  -32.5210 O   0  0  0  0  0  0  0  0  0  0  0  0
   -8.4280   18.5810  -31.6610 C   0  0  0  0  0  0  0  0  0  0  0  0
   -5.1970   21.9420  -31.1710 C   0  0  1  0  0  0  0  0  0  0  0  0
   -3.7920   21.5660  -31.6350 C   0  0  0  0  0  0  0  0  0  0  0  0
   -3.4840   21.7010  -33.0040 C   0  0  0  0  0  0  0  0  0  0  0  0
   -2.2110   21.3920  -33.4850 C   0  0  0  0  0  0  0  0  0  0  0  0
   -1.2210   20.9500  -32.6090 C   0  0  0  0  0  0  0  0  0  0  0  0
   -1.4990   20.8220  -31.2490 C   0  0  0  0  0  0  0  0  0  0  0  0
   -2.7710   21.1290  -30.7490 C   0  0  0  0  0  0  0  0  0  0  0  0
   -3.0270   20.9220  -28.8550 Br  0  0  0  0  0  0  0  0  0  0  0  0
   -3.4318   24.4827  -25.8179 H   0  0  0  0  0  0  0  0  0  0  0  0
   -2.2237   23.9694  -27.0441 H   0  0  0  0  0  0  0  0  0  0  0  0
   -2.8426   25.6557  -27.0441 H   0  0  0  0  0  0  0  0  0  0  0  0
   -4.7665   23.3314  -27.3646 H   0  0  0  0  0  0  0  0  0  0  0  0
   -4.9167   25.0405  -27.9264 H   0  0  0  0  0  0  0  0  0  0  0  0
   -6.7047   25.0710  -30.8639 H   0  0  0  0  0  0  0  0  0  0  0  0
   -8.5105   21.4378  -32.1776 H   0  0  0  0  0  0  0  0  0  0  0  0
   -5.9101   21.6326  -33.1820 H   0  0  0  0  0  0  0  0  0  0  0  0
   -8.1539   18.7740  -30.6133 H   0  0  0  0  0  0  0  0  0  0  0  0
   -9.4403   18.9667  -31.8522 H   0  0  0  0  0  0  0  0  0  0  0  0
   -8.4061   17.4980  -31.8522 H   0  0  0  0  0  0  0  0  0  0  0  0
   -5.3639   21.4702  -30.1915 H   0  0  0  0  0  0  0  0  0  0  0  0
   -4.2571   22.0545  -33.7021 H   0  0  0  0  0  0  0  0  0  0  0  0
   -1.9885   21.4974  -34.5571 H   0  0  0  0  0  0  0  0  0  0  0  0
   -0.2197   20.7020  -32.9911 H   0  0  0  0  0  0  0  0  0  0  0  0
   -0.7122   20.4767  -30.5621 H   0  0  0  0  0  0  0  0  0  0  0  0
  1  2  1  0
  2  3  1  0
  3  4  1  0
  4  5  2  0
  4  6  1  0
  6  7  2  0
  7  8  1  0
  8  9  2  0
  9 10  1  0
 10 11  1  0
 11 12  2  0
 11 13  1  0
 13 14  1  0
 10 15  1  0
 15 16  1  0
 16 17  2  0
 17 18  1  0
 18 19  2  0
 19 20  1  0
 20 21  2  0
 21 22  1  0
 15  6  1  0
 21 16  1  0
  1 23  1  0
  1 24  1  0
  1 25  1  0
  2 26  1  0
  2 27  1  0
  7 28  1  0
  9 29  1  0
 10 30  1  6
 14 31  1  0
 14 32  1  0
 14 33  1  0
 15 34  1  1
 17 35  1  0
 18 36  1  0
 19 37  1  0
 20 38  1  0
M  END
>  <UniqueID>  (25) 
24

>  <SMILES>  (25) 
CCOC(=O)C1=CN=C[C@H](C(=O)OC)[C@H]1c1ccccc1Br

>  <Energy>  (25) 
38.17124175668467

>  <Genealogy>  (25) 
CCOC(=O)C1=CN=C[C@H](C(=O)OC)[C@H]1c1ccccc1Br (chirality)
CCOC(=O)C1=CN=C[C@H](C(=O)OC)[C@H]1c1ccccc1Br (3D coordinates assigned)
CCOC(=O)C1=CN=C[C@H](C(=O)OC)[C@H]1c1ccccc1Br (nonaromatic ring conformer: 38.17124175668467 kcal/mol)

>  <smiles>  (25) 
CCOC(=O)C1=CN=CC(C(=O)OC)C1c1ccccc1Br

>  <score_type>  (25) 
oracle

>  <origin>  (25) 
adg

>  <m_score__min__energy>  (25) 
-7.3799999999999999

>  <m_primary>  (25) 
energy

$$$$
26:0
     RDKit          3D

 49 51  0  0  0  0  0  0  0  0999 V2000
   -9.1160   19.2180  -32.2380 C   0  0  0  0  0  0  0  0  0  0  0  0
   -7.9490   18.2540  -32.0560 C   0  0  0  0  0  0  0  0  0  0  0  0
   -7.2550   18.0660  -33.2880 O   0  0  0  0  0  0  0  0  0  0  0  0
   -6.3840   19.0160  -33.8390 C   0  0  0  0  0  0  0  0  0  0  0  0
   -6.1110   18.9750  -35.0700 O   0  0  0  0  0  0  0  0  0  0  0  0
   -5.7970   20.0720  -32.9660 C   0  0  0  0  0  0  0  0  0  0  0  0
   -6.4740   21.2840  -32.8100 C   0  0  0  0  0  0  0  0  0  0  0  0
   -5.9930   22.2910  -32.0160 N   0  0  0  0  0  0  0  0  0  0  0  0
   -6.9050   23.4390  -31.8260 C   0  0  0  0  0  0  0  0  0  0  0  0
   -8.3640   23.0000  -31.9290 C   0  0  0  0  0  0  0  0  0  0  0  0
   -4.7540   22.1710  -31.4020 C   0  0  0  0  0  0  0  0  0  0  0  0
   -4.1090   23.2460  -30.7080 C   0  0  0  0  0  0  0  0  0  0  0  0
   -4.5730   24.5600  -30.8340 O   0  0  0  0  0  0  0  0  0  0  0  0
   -5.4150   25.1850  -29.8680 C   0  0  0  0  0  0  0  0  0  0  0  0
   -2.9530   22.9940  -29.9340 C   0  0  0  0  0  0  0  0  0  0  0  0
   -2.4300   23.9900  -29.0400 N   0  0  0  0  0  0  0  0  0  0  0  0
   -1.0970   24.5560  -29.1570 C   0  0  0  0  0  0  0  0  0  0  0  0
   -1.0100   25.6070  -28.0590 C   0  0  0  0  0  0  0  0  0  0  0  0
   -2.1120   25.2560  -27.0620 C   0  0  0  0  0  0  0  0  0  0  0  0
   -3.1200   24.4130  -27.8330 C   0  0  0  0  0  0  0  0  0  0  0  0
   -2.3390   21.7430  -29.9880 C   0  0  0  0  0  0  0  0  0  0  0  0
   -2.8670   20.7320  -30.7760 C   0  0  0  0  0  0  0  0  0  0  0  0
   -4.0690   20.9240  -31.4810 C   0  0  0  0  0  0  0  0  0  0  0  0
   -4.5940   19.8840  -32.2680 C   0  0  0  0  0  0  0  0  0  0  0  0
   -3.9790   18.7840  -32.3500 O   0  0  0  0  0  0  0  0  0  0  0  0
   -9.4921   19.5287  -31.2521 H   0  0  0  0  0  0  0  0  0  0  0  0
   -8.7769   20.1029  -32.7966 H   0  0  0  0  0  0  0  0  0  0  0  0
   -9.9209   18.7180  -32.7966 H   0  0  0  0  0  0  0  0  0  0  0  0
   -7.2540   18.6649  -31.3089 H   0  0  0  0  0  0  0  0  0  0  0  0
   -8.3409   17.2832  -31.7185 H   0  0  0  0  0  0  0  0  0  0  0  0
   -7.4247   21.4345  -33.3424 H   0  0  0  0  0  0  0  0  0  0  0  0
   -6.7302   23.8770  -30.8322 H   0  0  0  0  0  0  0  0  0  0  0  0
   -6.7050   24.1803  -32.6137 H   0  0  0  0  0  0  0  0  0  0  0  0
   -8.7813   22.8744  -30.9190 H   0  0  0  0  0  0  0  0  0  0  0  0
   -8.9396   23.7647  -32.4711 H   0  0  0  0  0  0  0  0  0  0  0  0
   -8.4220   22.0446  -32.4711 H   0  0  0  0  0  0  0  0  0  0  0  0
   -5.0673   24.9269  -28.8568 H   0  0  0  0  0  0  0  0  0  0  0  0
   -5.3783   26.2763  -30.0009 H   0  0  0  0  0  0  0  0  0  0  0  0
   -6.4490   24.8340  -30.0009 H   0  0  0  0  0  0  0  0  0  0  0  0
   -0.3335   23.7783  -29.0075 H   0  0  0  0  0  0  0  0  0  0  0  0
   -0.9203   24.9876  -30.1532 H   0  0  0  0  0  0  0  0  0  0  0  0
   -0.0251   25.5705  -27.5705 H   0  0  0  0  0  0  0  0  0  0  0  0
   -1.1343   26.6238  -28.4598 H   0  0  0  0  0  0  0  0  0  0  0  0
   -1.6976   24.6819  -26.2201 H   0  0  0  0  0  0  0  0  0  0  0  0
   -2.5786   26.1590  -26.6415 H   0  0  0  0  0  0  0  0  0  0  0  0
   -3.4251   23.5393  -27.2384 H   0  0  0  0  0  0  0  0  0  0  0  0
   -4.0345   24.9794  -28.0630 H   0  0  0  0  0  0  0  0  0  0  0  0
   -1.4280   21.5569  -29.4003 H   0  0  0  0  0  0  0  0  0  0  0  0
   -2.3403   19.7692  -30.8508 H   0  0  0  0  0  0  0  0  0  0  0  0
  1  2  1  0
  2  3  1  0
  3  4  1  0
  4  5  2  0
  4  6  1  0
  6  7  2  0
  7  8  1  0
  8  9  1  0
  9 10  1  0
  8 11  1  0
 11 12  2  0
 12 13  1  0
 13 14  1  0
 12 15  1  0
 15 16  1  0
 16 17  1  0
 17 18  1  0
 18 19  1  0
 19 20  1  0
 15 21  2  0
 21 22  1  0
 22 23  2  0
 23 24  1  0
 24 25  2  0
 24  6  1  0
 23 11  1  0
 20 16  1  0
  1 26  1  0
  1 27  1  0
  1 28  1  0
  2 29  1  0
  2 30  1  0
  7 31  1  0
  9 32  1  0
  9 33  1  0
 10 34  1  0
 10 35  1  0
 10 36  1  0
 14 37  1  0
 14 38  1  0
 14 39  1  0
 17 40  1  0
 17 41  1  0
 18 42  1  0
 18 43  1  0
 19 44  1  0
 19 45  1  0
 20 46  1  0
 20 47  1  0
 21 48  1  0
 22 49  1  0
M  END
>  <UniqueID>  (26) 
25

>  <SMILES>  (26) 
CCOC(=O)c1cn(CC)c2c(OC)c(N3CCCC3)ccc2c1=O

>  <Energy>  (26) 
71.76673303478928

>  <Genealogy>  (26) 
CCOC(=O)c1cn(CC)c2c(OC)c(N3CCCC3)ccc2c1=O (3D coordinates assigned)
CCOC(=O)c1cn(CC)c2c(OC)c(N3CCCC3)ccc2c1=O (nonaromatic ring conformer: 71.76673303478928 kcal/mol)

>  <smiles>  (26) 
CCOC(=O)c1cn(CC)c2c(OC)c(N3CCCC3)ccc2c1=O

>  <score_type>  (26) 
oracle

>  <origin>  (26) 
adg

>  <m_score__min__energy>  (26) 
-7.9699999999999998

>  <m_primary>  (26) 
energy

$$$$
27:0
     RDKit          3D

 50 53  0  0  0  0  0  0  0  0999 V2000
   -1.0120   24.9780  -29.2620 O   0  0  0  0  0  0  0  0  0  0  0  0
   -2.0460   24.2550  -29.2960 C   0  0  0  0  0  0  0  0  0  0  0  0
   -3.1650   24.7080  -30.0740 N   0  0  0  0  0  0  0  0  0  0  0  0
   -4.4330   24.0470  -30.2090 C   0  0  0  0  0  0  0  0  0  0  0  0
   -5.5900   24.8220  -30.3700 C   0  0  0  0  0  0  0  0  0  0  0  0
   -6.8220   24.2100  -30.6000 C   0  0  0  0  0  0  0  0  0  0  0  0
   -6.8860   22.8210  -30.6910 C   0  0  0  0  0  0  0  0  0  0  0  0
   -5.7570   22.0810  -30.5540 N   0  0  0  0  0  0  0  0  0  0  0  0
   -4.5410   22.6480  -30.3140 C   0  0  0  0  0  0  0  0  0  0  0  0
   -3.3890   21.8090  -30.1960 N   0  0  0  0  0  0  0  0  0  0  0  0
   -3.2090   20.7090  -31.1570 C   0  0  0  0  0  0  0  0  0  0  0  0
   -3.2770   21.1930  -32.6160 C   0  0  0  0  0  0  0  0  0  0  0  0
   -4.6580   21.0120  -33.2720 C   0  0  0  0  0  0  0  0  0  0  0  0
   -5.0440   19.5360  -33.4650 C   0  0  0  0  0  0  0  0  0  0  0  0
   -6.5070   19.3790  -33.6210 N   0  0  0  0  0  0  0  0  0  0  0  0
   -7.2450   20.5180  -33.0230 C   0  0  0  0  0  0  0  0  0  0  0  0
   -8.6690   20.1100  -32.6130 C   0  0  0  0  0  0  0  0  0  0  0  0
   -8.7060   19.0760  -31.6370 O   0  0  0  0  0  0  0  0  0  0  0  0
   -7.5850   18.2040  -31.6890 C   0  0  0  0  0  0  0  0  0  0  0  0
   -6.9690   18.0700  -33.0940 C   0  0  0  0  0  0  0  0  0  0  0  0
   -2.6830   21.8300  -28.9440 C   0  0  0  0  0  0  0  0  0  0  0  0
   -2.6160   20.6650  -28.1570 C   0  0  0  0  0  0  0  0  0  0  0  0
   -1.9310   20.6670  -26.9420 C   0  0  0  0  0  0  0  0  0  0  0  0
   -1.3030   21.8290  -26.4980 C   0  0  0  0  0  0  0  0  0  0  0  0
   -1.3640   22.9920  -27.2660 C   0  0  0  0  0  0  0  0  0  0  0  0
   -2.0620   23.0130  -28.4880 C   0  0  0  0  0  0  0  0  0  0  0  0
   -3.0880   25.6710  -30.4750 H   0  0  0  0  0  0  0  0  0  0  0  0
   -5.5259   25.9187  -30.3146 H   0  0  0  0  0  0  0  0  0  0  0  0
   -7.7329   24.8170  -30.7083 H   0  0  0  0  0  0  0  0  0  0  0  0
   -7.8507   22.3250  -30.8737 H   0  0  0  0  0  0  0  0  0  0  0  0
   -2.2271   20.2445  -30.9835 H   0  0  0  0  0  0  0  0  0  0  0  0
   -4.0262   19.9891  -31.0022 H   0  0  0  0  0  0  0  0  0  0  0  0
   -3.0212   22.2626  -32.6379 H   0  0  0  0  0  0  0  0  0  0  0  0
   -2.5691   20.5764  -33.1892 H   0  0  0  0  0  0  0  0  0  0  0  0
   -5.4147   21.4914  -32.6335 H   0  0  0  0  0  0  0  0  0  0  0  0
   -4.6106   21.4724  -34.2699 H   0  0  0  0  0  0  0  0  0  0  0  0
   -4.5441   19.1497  -34.3655 H   0  0  0  0  0  0  0  0  0  0  0  0
   -4.7277   18.9749  -32.5733 H   0  0  0  0  0  0  0  0  0  0  0  0
   -6.7025   20.8680  -32.1324 H   0  0  0  0  0  0  0  0  0  0  0  0
   -7.3169   21.3173  -33.7753 H   0  0  0  0  0  0  0  0  0  0  0  0
   -9.1796   20.9938  -32.2029 H   0  0  0  0  0  0  0  0  0  0  0  0
   -9.1654   19.7210  -33.5143 H   0  0  0  0  0  0  0  0  0  0  0  0
   -6.8131   18.5898  -31.0068 H   0  0  0  0  0  0  0  0  0  0  0  0
   -7.9414   17.2049  -31.3979 H   0  0  0  0  0  0  0  0  0  0  0  0
   -6.1107   17.3840  -33.0424 H   0  0  0  0  0  0  0  0  0  0  0  0
   -7.7443   17.6832  -33.7716 H   0  0  0  0  0  0  0  0  0  0  0  0
   -3.1084   19.7444  -28.5034 H   0  0  0  0  0  0  0  0  0  0  0  0
   -1.8865   19.7512  -26.3342 H   0  0  0  0  0  0  0  0  0  0  0  0
   -0.7591   21.8292  -25.5419 H   0  0  0  0  0  0  0  0  0  0  0  0
   -0.8604   23.9037  -26.9122 H   0  0  0  0  0  0  0  0  0  0  0  0
  1  2  2  0
  2  3  1  0
  3  4  1  0
  4  5  2  0
  5  6  1  0
  6  7  2  0
  7  8  1  0
  8  9  2  0
  9 10  1  0
 10 11  1  0
 11 12  1  0
 12 13  1  0
 13 14  1  0
 14 15  1  0
 15 16  1  0
 16 17  1  0
 17 18  1  0
 18 19  1  0
 19 20  1  0
 10 21  1  0
 21 22  2  0
 22 23  1  0
 23 24  2  0
 24 25  1  0
 25 26  2  0
 26  2  1  0
  9  4  1  0
 20 15  1  0
 26 21  1  0
  3 27  1  0
  5 28  1  0
  6 29  1  0
  7 30  1  0
 11 31  1  0
 11 32  1  0
 12 33  1  0
 12 34  1  0
 13 35  1  0
 13 36  1  0
 14 37  1  0
 14 38  1  0
 16 39  1  0
 16 40  1  0
 17 41  1  0
 17 42  1  0
 19 43  1  0
 19 44  1  0
 20 45  1  0
 20 46  1  0
 22 47  1  0
 23 48  1  0
 24 49  1  0
 25 50  1  0
M  END
>  <UniqueID>  (27) 
26

>  <SMILES>  (27) 
O=C1Nc2cccnc2N(CCCCN2CCOCC2)c2ccccc21

>  <Energy>  (27) 
81.72118716163673

>  <Genealogy>  (27) 
O=C1Nc2cccnc2N(CCCCN2CCOCC2)c2ccccc21 (3D coordinates assigned)
O=C1Nc2cccnc2N(CCCCN2CCOCC2)c2ccccc21 (nonaromatic ring conformer: 81.72118716163673 kcal/mol)

>  <smiles>  (27) 
O=C1Nc2cccnc2N(CCCCN2CCOCC2)c2ccccc21

>  <score_type>  (27) 
oracle

>  <origin>  (27) 
adg

>  <m_score__min__energy>  (27) 
-8.7899999999999991

>  <m_primary>  (27) 
energy

$$$$
28:0
     RDKit          3D

 42 43  0  0  0  0  0  0  0  0999 V2000
   -3.4920   24.9070  -31.2620 H   0  0  0  0  0  0  0  0  0  0  0  0
   -3.9580   25.6650  -30.8230 O   0  0  0  0  0  0  0  0  0  0  0  0
   -5.0050   25.1180  -30.0690 C   0  0  0  0  0  0  0  0  0  0  0  0
   -5.9424   25.6264  -30.3390 H   0  0  0  0  0  0  0  0  0  0  0  0
   -4.7720   25.2613  -29.0036 H   0  0  0  0  0  0  0  0  0  0  0  0
   -5.1640   23.6040  -30.3280 C   0  0  0  0  0  0  0  0  0  0  0  0
   -6.2086   23.3317  -30.1166 H   0  0  0  0  0  0  0  0  0  0  0  0
   -4.4350   23.1067  -29.6713 H   0  0  0  0  0  0  0  0  0  0  0  0
   -4.8440   23.1550  -31.7070 N   0  0  0  0  0  0  0  0  0  0  0  0
   -5.8910   22.3020  -32.3090 C   0  0  0  0  0  0  0  0  0  0  0  0
   -5.7877   21.2782  -31.9201 H   0  0  0  0  0  0  0  0  0  0  0  0
   -5.7664   22.3153  -33.4018 H   0  0  0  0  0  0  0  0  0  0  0  0
   -7.2860   22.8240  -31.9740 C   0  0  0  0  0  0  0  0  0  0  0  0
   -7.4079   22.8696  -30.8817 H   0  0  0  0  0  0  0  0  0  0  0  0
   -7.4128   23.8304  -32.3995 H   0  0  0  0  0  0  0  0  0  0  0  0
   -8.0424   22.1481  -32.3995 H   0  0  0  0  0  0  0  0  0  0  0  0
   -3.4710   22.6130  -31.8470 C   0  0  0  0  0  0  0  0  0  0  0  0
   -3.5201   21.6114  -32.2990 H   0  0  0  0  0  0  0  0  0  0  0  0
   -2.8832   23.2861  -32.4884 H   0  0  0  0  0  0  0  0  0  0  0  0
   -2.7960   22.5160  -30.4710 C   0  0  0  0  0  0  0  0  0  0  0  0
   -3.5587   22.2722  -29.7168 H   0  0  0  0  0  0  0  0  0  0  0  0
   -2.0260   21.7322  -30.5226 H   0  0  0  0  0  0  0  0  0  0  0  0
   -2.1450   23.7670  -30.0970 N   0  0  0  0  0  0  0  0  0  0  0  0
   -1.7700   24.2780  -28.9560 C   0  0  0  0  0  0  0  0  0  0  0  0
   -1.5490   25.6270  -28.9480 N   0  0  0  0  0  0  0  0  0  0  0  0
   -0.9460   26.2880  -27.9190 C   0  0  0  0  0  0  0  0  0  0  0  0
   -0.8210   27.3798  -27.9676 H   0  0  0  0  0  0  0  0  0  0  0  0
   -0.4870   25.5850  -26.8050 C   0  0  0  0  0  0  0  0  0  0  0  0
    0.0565   26.0903  -25.9931 H   0  0  0  0  0  0  0  0  0  0  0  0
   -0.7450   24.2180  -26.7630 C   0  0  0  0  0  0  0  0  0  0  0  0
   -1.4230   23.5580  -27.7720 C   0  0  0  0  0  0  0  0  0  0  0  0
   -1.6590   22.2860  -27.2140 C   0  0  0  0  0  0  0  0  0  0  0  0
   -2.6180   21.2240  -27.6370 C   0  0  0  0  0  0  0  0  0  0  0  0
   -3.0507   20.7448  -26.7464 H   0  0  0  0  0  0  0  0  0  0  0  0
   -3.4217   21.6741  -28.2382 H   0  0  0  0  0  0  0  0  0  0  0  0
   -2.0886   20.4702  -28.2382 H   0  0  0  0  0  0  0  0  0  0  0  0
   -1.0810   22.2230  -25.9920 N   0  0  0  0  0  0  0  0  0  0  0  0
   -0.5080   23.3840  -25.7370 N   0  0  0  0  0  0  0  0  0  0  0  0
    0.1240   23.7120  -24.4630 C   0  0  0  0  0  0  0  0  0  0  0  0
   -0.5207   23.3774  -23.6370 H   0  0  0  0  0  0  0  0  0  0  0  0
    1.0983   23.2057  -24.3959 H   0  0  0  0  0  0  0  0  0  0  0  0
    0.2708   24.8001  -24.3959 H   0  0  0  0  0  0  0  0  0  0  0  0
  1  2  1  0
  2  3  1  0
  3  4  1  0
  3  5  1  0
  3  6  1  0
  6  7  1  0
  6  8  1  0
  6  9  1  0
  9 10  1  0
 10 11  1  0
 10 12  1  0
 10 13  1  0
 13 14  1  0
 13 15  1  0
 13 16  1  0
  9 17  1  0
 17 18  1  0
 17 19  1  0
 17 20  1  0
 20 21  1  0
 20 22  1  0
 20 23  1  0
 23 24  2  0
 24 25  1  0
 25 26  1  0
 26 27  1  0
 26 28  2  0
 28 29  1  0
 28 30  1  0
 30 31  2  0
 31 32  1  0
 32 33  1  0
 33 34  1  0
 33 35  1  0
 33 36  1  0
 32 37  2  0
 37 38  1  0
 38 39  1  0
 39 40  1  0
 39 41  1  0
 39 42  1  0
 31 24  1  0
 38 30  1  0
M  CHG  1  25  -1
M  END
>  <UniqueID>  (28) 
27

>  <SMILES>  (28) 
CCN(CCO)CC/N=c1/[n-]ccc2c1c(C)nn2C

>  <Energy>  (28) 
101.27748323384063

>  <Genealogy>  (28) 
CCN(CCO)CCN=c1[n-]ccc2c1c(C)nn2C (protonated)
CCN(CCO)CC/N=c1/[n-]ccc2c1c(C)nn2C (cis-trans isomerization)
CCN(CCO)CC/N=c1/[n-]ccc2c1c(C)nn2C (3D coordinates assigned)
CCN(CCO)CC/N=c1/[n-]ccc2c1c(C)nn2C (optimized conformer: 101.27748323384063 kcal/mol)

>  <smiles>  (28) 
CCN(CCO)CCN=c1[nH]ccc2c1c(C)nn2C

>  <score_type>  (28) 
oracle

>  <origin>  (28) 
adg

>  <m_score__min__energy>  (28) 
-7.75

>  <m_primary>  (28) 
energy

$$$$
29:0
     RDKit          3D

 35 36  0  0  0  0  0  0  0  0999 V2000
   -6.0570   25.3150  -29.5000 C   0  0  0  0  0  0  0  0  0  0  0  0
   -5.3000   25.4060  -30.8200 C   0  0  0  0  0  0  0  0  0  0  0  0
   -3.8600   25.2990  -30.5980 N   0  0  0  0  0  0  0  0  0  0  0  0
   -3.2210   24.3670  -29.7160 C   0  0  0  0  0  0  0  0  0  0  0  0
   -3.2760   24.5700  -28.4740 O   0  0  0  0  0  0  0  0  0  0  0  0
   -2.4990   23.1800  -30.2190 C   0  0  0  0  0  0  0  0  0  0  0  0
   -1.1320   23.0320  -29.9310 C   0  0  0  0  0  0  0  0  0  0  0  0
   -0.4210   21.9360  -30.4230 C   0  0  0  0  0  0  0  0  0  0  0  0
   -1.0650   20.9790  -31.2090 C   0  0  0  0  0  0  0  0  0  0  0  0
   -2.4210   21.1210  -31.5130 C   0  0  0  0  0  0  0  0  0  0  0  0
   -3.1470   22.2290  -31.0400 C   0  0  0  0  0  0  0  0  0  0  0  0
   -4.5550   22.3430  -31.3110 N   0  0  0  0  0  0  0  0  0  0  0  0
   -5.4270   21.2070  -31.4630 C   0  0  0  0  0  0  0  0  0  0  0  0
   -4.9620   20.0400  -31.3550 O   0  0  0  0  0  0  0  0  0  0  0  0
   -6.8710   21.3830  -31.7500 C   0  0  0  0  0  0  0  0  0  0  0  0
   -7.4410   22.6690  -31.7040 C   0  0  0  0  0  0  0  0  0  0  0  0
   -8.8020   22.8510  -31.9670 C   0  0  0  0  0  0  0  0  0  0  0  0
   -9.6100   21.7530  -32.2700 C   0  0  0  0  0  0  0  0  0  0  0  0
   -9.0590   20.4700  -32.3050 C   0  0  0  0  0  0  0  0  0  0  0  0
   -7.6980   20.2820  -32.0440 C   0  0  0  0  0  0  0  0  0  0  0  0
   -5.3475   25.4003  -28.6638 H   0  0  0  0  0  0  0  0  0  0  0  0
   -6.7921   26.1312  -29.4419 H   0  0  0  0  0  0  0  0  0  0  0  0
   -6.5777   24.3478  -29.4419 H   0  0  0  0  0  0  0  0  0  0  0  0
   -5.6253   24.5883  -31.4799 H   0  0  0  0  0  0  0  0  0  0  0  0
   -5.5148   26.3797  -31.2844 H   0  0  0  0  0  0  0  0  0  0  0  0
   -0.6187   23.7843  -29.3141 H   0  0  0  0  0  0  0  0  0  0  0  0
    0.6486   21.8264  -30.1909 H   0  0  0  0  0  0  0  0  0  0  0  0
   -0.5043   20.1124  -31.5893 H   0  0  0  0  0  0  0  0  0  0  0  0
   -2.9250   20.3603  -32.1272 H   0  0  0  0  0  0  0  0  0  0  0  0
   -4.9420   23.3060  -31.4310 H   0  0  0  0  0  0  0  0  0  0  0  0
   -6.8112   23.5371  -31.4594 H   0  0  0  0  0  0  0  0  0  0  0  0
   -9.2371   23.8608  -31.9352 H   0  0  0  0  0  0  0  0  0  0  0  0
  -10.6797   21.8985  -32.4810 H   0  0  0  0  0  0  0  0  0  0  0  0
   -9.6973   19.6051  -32.5385 H   0  0  0  0  0  0  0  0  0  0  0  0
   -7.2712   19.2685  -32.0685 H   0  0  0  0  0  0  0  0  0  0  0  0
  1  2  1  0
  2  3  1  0
  3  4  1  0
  4  5  2  0
  4  6  1  0
  6  7  2  0
  7  8  1  0
  8  9  2  0
  9 10  1  0
 10 11  2  0
 11 12  1  0
 12 13  1  0
 13 14  2  0
 13 15  1  0
 15 16  2  0
 16 17  1  0
 17 18  2  0
 18 19  1  0
 19 20  2  0
 11  6  1  0
 20 15  1  0
  1 21  1  0
  1 22  1  0
  1 23  1  0
  2 24  1  0
  2 25  1  0
  7 26  1  0
  8 27  1  0
  9 28  1  0
 10 29  1  0
 12 30  1  0
 16 31  1  0
 17 32  1  0
 18 33  1  0
 19 34  1  0
 20 35  1  0
M  CHG  1   3  -1
M  END
>  <UniqueID>  (29) 
28

>  <SMILES>  (29) 
CC[N-]C(=O)c1ccccc1NC(=O)c1ccccc1

>  <Energy>  (29) 
44.547409254040176

>  <Genealogy>  (29) 
CC[N-]C(=O)c1ccccc1NC(=O)c1ccccc1 (protonated)
CC[N-]C(=O)c1ccccc1NC(=O)c1ccccc1 (3D coordinates assigned)
CC[N-]C(=O)c1ccccc1NC(=O)c1ccccc1 (optimized conformer: 44.547409254040176 kcal/mol)

>  <smiles>  (29) 
CCNC(=O)c1ccccc1NC(=O)c1ccccc1

>  <score_type>  (29) 
oracle

>  <origin>  (29) 
adg

>  <m_score__min__energy>  (29) 
-8.4299999999999997

>  <m_primary>  (29) 
energy

$$$$
30:0
     RDKit          3D

 45 48  0  0  0  0  0  0  0  0999 V2000
   -6.1290   25.9440  -29.7060 C   0  0  0  0  0  0  0  0  0  0  0  0
   -5.1370   25.6580  -30.8320 C   0  0  0  0  0  0  0  0  0  0  0  0
   -5.2440   24.2540  -31.2820 N   0  0  0  0  0  0  0  0  0  0  0  0
   -6.5840   23.6720  -31.0780 C   0  0  0  0  0  0  0  0  0  0  0  0
   -6.7330   22.4400  -31.9710 C   0  0  0  0  0  0  0  0  0  0  0  0
   -5.5260   21.6030  -31.9200 N   0  0  0  0  0  0  0  0  0  0  0  0
   -5.5240   20.3420  -32.6050 C   0  0  0  0  0  0  0  0  0  0  0  0
   -4.5190   20.0320  -33.4770 N   0  0  0  0  0  0  0  0  0  0  0  0
   -4.4900   18.8340  -34.1430 C   0  0  0  0  0  0  0  0  0  0  0  0
   -5.4800   17.9130  -33.9520 N   0  0  0  0  0  0  0  0  0  0  0  0
   -6.4870   18.2150  -33.0950 C   0  0  0  0  0  0  0  0  0  0  0  0
   -7.5600   17.4540  -32.8300 N   0  0  0  0  0  0  0  0  0  0  0  0
   -8.3150   18.1830  -31.9760 C   0  0  0  0  0  0  0  0  0  0  0  0
   -7.7120   19.4080  -31.7020 C   0  0  0  0  0  0  0  0  0  0  0  0
   -6.5350   19.3990  -32.4240 C   0  0  0  0  0  0  0  0  0  0  0  0
   -4.5150   21.8540  -30.8900 C   0  0  0  0  0  0  0  0  0  0  0  0
   -4.1280   23.3550  -30.8530 C   0  0  2  0  0  0  0  0  0  0  0  0
   -3.5160   23.7100  -29.4980 C   0  0  0  0  0  0  0  0  0  0  0  0
   -4.2870   23.7160  -28.3180 C   0  0  0  0  0  0  0  0  0  0  0  0
   -3.7050   24.0510  -27.0920 C   0  0  0  0  0  0  0  0  0  0  0  0
   -2.3490   24.3810  -27.0260 C   0  0  0  0  0  0  0  0  0  0  0  0
   -1.5730   24.3760  -28.1870 C   0  0  0  0  0  0  0  0  0  0  0  0
   -2.1510   24.0410  -29.4150 C   0  0  0  0  0  0  0  0  0  0  0  0
   -5.6326   25.8009  -28.7349 H   0  0  0  0  0  0  0  0  0  0  0  0
   -6.4855   26.9815  -29.7862 H   0  0  0  0  0  0  0  0  0  0  0  0
   -6.9832   25.2555  -29.7862 H   0  0  0  0  0  0  0  0  0  0  0  0
   -5.3512   26.3257  -31.6796 H   0  0  0  0  0  0  0  0  0  0  0  0
   -4.1177   25.8311  -30.4563 H   0  0  0  0  0  0  0  0  0  0  0  0
   -6.7027   23.3801  -30.0241 H   0  0  0  0  0  0  0  0  0  0  0  0
   -7.3544   24.4135  -31.3363 H   0  0  0  0  0  0  0  0  0  0  0  0
   -7.5951   21.8492  -31.6278 H   0  0  0  0  0  0  0  0  0  0  0  0
   -6.8834   22.7751  -33.0079 H   0  0  0  0  0  0  0  0  0  0  0  0
   -3.6643   18.6133  -34.8354 H   0  0  0  0  0  0  0  0  0  0  0  0
   -5.4660   17.0030  -34.4650 H   0  0  0  0  0  0  0  0  0  0  0  0
   -7.7800   16.5100  -33.2190 H   0  0  0  0  0  0  0  0  0  0  0  0
   -9.2759   17.8525  -31.5548 H   0  0  0  0  0  0  0  0  0  0  0  0
   -8.0913   20.2095  -31.0511 H   0  0  0  0  0  0  0  0  0  0  0  0
   -4.9186   21.5613  -29.9095 H   0  0  0  0  0  0  0  0  0  0  0  0
   -3.6171   21.2640  -31.1259 H   0  0  0  0  0  0  0  0  0  0  0  0
   -3.3476   23.5318  -31.6078 H   0  0  0  0  0  0  0  0  0  0  0  0
   -5.3547   23.4551  -28.3622 H   0  0  0  0  0  0  0  0  0  0  0  0
   -4.3159   24.0548  -26.1773 H   0  0  0  0  0  0  0  0  0  0  0  0
   -1.8930   24.6445  -26.0603 H   0  0  0  0  0  0  0  0  0  0  0  0
   -0.5054   24.6360  -28.1352 H   0  0  0  0  0  0  0  0  0  0  0  0
   -1.5329   24.0361  -30.3249 H   0  0  0  0  0  0  0  0  0  0  0  0
  1  2  1  0
  2  3  1  0
  3  4  1  0
  4  5  1  0
  5  6  1  0
  6  7  1  0
  7  8  2  0
  8  9  1  0
  9 10  2  0
 10 11  1  0
 11 12  1  0
 12 13  1  0
 13 14  2  0
 14 15  1  0
  6 16  1  0
 16 17  1  0
 17 18  1  0
 18 19  2  0
 19 20  1  0
 20 21  2  0
 21 22  1  0
 22 23  2  0
 17  3  1  0
 23 18  1  0
 15  7  1  0
 15 11  2  0
  1 24  1  0
  1 25  1  0
  1 26  1  0
  2 27  1  0
  2 28  1  0
  4 29  1  0
  4 30  1  0
  5 31  1  0
  5 32  1  0
  9 33  1  0
 10 34  1  0
 12 35  1  0
 13 36  1  0
 14 37  1  0
 16 38  1  0
 16 39  1  0
 17 40  1  6
 19 41  1  0
 20 42  1  0
 21 43  1  0
 22 44  1  0
 23 45  1  0
M  CHG  1  10   1
M  END
>  <UniqueID>  (30) 
29

>  <SMILES>  (30) 
CCN1CCN(c2nc[nH+]c3[nH]ccc23)C[C@@H]1c1ccccc1

>  <Energy>  (30) 
98.34220244748727

>  <Genealogy>  (30) 
CCN1CCN(c2nc[nH+]c3[nH]ccc23)CC1c1ccccc1 (protonated)
CCN1CCN(c2nc[nH+]c3[nH]ccc23)C[C@@H]1c1ccccc1 (chirality)
CCN1CCN(c2nc[nH+]c3[nH]ccc23)C[C@@H]1c1ccccc1 (3D coordinates assigned)
CCN1CCN(c2nc[nH+]c3[nH]ccc23)C[C@@H]1c1ccccc1 (nonaromatic ring conformer: 98.34220244748727 kcal/mol)

>  <smiles>  (30) 
CCN1CCN(c2ncnc3[nH]ccc23)CC1c1ccccc1

>  <score_type>  (30) 
oracle

>  <origin>  (30) 
adg

>  <m_score__min__energy>  (30) 
-7.4000000000000004

>  <m_primary>  (30) 
energy

$$$$
31:0
     RDKit          3D

 41 43  0  0  0  0  0  0  0  0999 V2000
   -7.5540   19.2800  -31.7470 C   0  0  0  0  0  0  0  0  0  0  0  0
   -7.2010   20.6590  -32.1250 N   0  0  0  0  0  0  0  0  0  0  0  0
   -8.2410   21.5910  -31.6340 C   0  0  0  0  0  0  0  0  0  0  0  0
   -8.0240   23.0630  -32.0600 C   0  0  0  0  0  0  0  0  0  0  0  0
   -7.1120   23.8610  -31.1220 C   0  0  0  0  0  0  0  0  0  0  0  0
   -5.7160   23.4570  -31.3300 N   0  0  0  0  0  0  0  0  0  0  0  0
   -4.6670   24.1170  -30.5950 C   0  0  0  0  0  0  0  0  0  0  0  0
   -4.3050   25.2750  -30.9350 O   0  0  0  0  0  0  0  0  0  0  0  0
   -4.0240   23.4800  -29.4310 C   0  0  0  0  0  0  0  0  0  0  0  0
   -3.9490   24.0060  -28.1560 C   0  0  0  0  0  0  0  0  0  0  0  0
   -3.3000   23.0400  -27.4190 C   0  0  0  0  0  0  0  0  0  0  0  0
   -3.0150   21.9960  -28.2290 N   0  0  0  0  0  0  0  0  0  0  0  0
   -2.3510   20.7650  -27.8730 C   0  0  0  0  0  0  0  0  0  0  0  0
   -3.0340   19.7920  -27.1170 C   0  0  0  0  0  0  0  0  0  0  0  0
   -2.4060   18.5930  -26.7680 C   0  0  0  0  0  0  0  0  0  0  0  0
   -1.0910   18.3480  -27.1680 C   0  0  0  0  0  0  0  0  0  0  0  0
   -0.4030   19.3010  -27.9220 C   0  0  0  0  0  0  0  0  0  0  0  0
   -1.0250   20.5020  -28.2750 C   0  0  0  0  0  0  0  0  0  0  0  0
   -3.4590   22.2570  -29.4490 N   0  0  0  0  0  0  0  0  0  0  0  0
   -5.4190   22.3470  -32.2430 C   0  0  0  0  0  0  0  0  0  0  0  0
   -5.8470   21.0060  -31.6400 C   0  0  0  0  0  0  0  0  0  0  0  0
   -7.5759   19.1945  -30.6505 H   0  0  0  0  0  0  0  0  0  0  0  0
   -8.5450   19.0305  -32.1541 H   0  0  0  0  0  0  0  0  0  0  0  0
   -6.8048   18.5850  -32.1541 H   0  0  0  0  0  0  0  0  0  0  0  0
   -9.2144   21.2586  -32.0240 H   0  0  0  0  0  0  0  0  0  0  0  0
   -8.1929   21.5689  -30.5353 H   0  0  0  0  0  0  0  0  0  0  0  0
   -7.5755   23.0688  -33.0644 H   0  0  0  0  0  0  0  0  0  0  0  0
   -9.0104   23.5490  -32.0305 H   0  0  0  0  0  0  0  0  0  0  0  0
   -7.2178   24.9350  -31.3350 H   0  0  0  0  0  0  0  0  0  0  0  0
   -7.3979   23.6623  -30.0786 H   0  0  0  0  0  0  0  0  0  0  0  0
   -4.3240   24.9794  -27.8069 H   0  0  0  0  0  0  0  0  0  0  0  0
   -3.0544   23.1070  -26.3489 H   0  0  0  0  0  0  0  0  0  0  0  0
   -4.0705   19.9775  -26.7986 H   0  0  0  0  0  0  0  0  0  0  0  0
   -2.9490   17.8408  -26.1769 H   0  0  0  0  0  0  0  0  0  0  0  0
   -0.5974   17.4052  -26.8895 H   0  0  0  0  0  0  0  0  0  0  0  0
    0.6320   19.1059  -28.2393 H   0  0  0  0  0  0  0  0  0  0  0  0
   -0.4766   21.2469  -28.8703 H   0  0  0  0  0  0  0  0  0  0  0  0
   -5.9598   22.5047  -33.1878 H   0  0  0  0  0  0  0  0  0  0  0  0
   -4.3333   22.3202  -32.4180 H   0  0  0  0  0  0  0  0  0  0  0  0
   -5.1364   20.2233  -31.9442 H   0  0  0  0  0  0  0  0  0  0  0  0
   -5.8583   21.0834  -30.5428 H   0  0  0  0  0  0  0  0  0  0  0  0
  1  2  1  0
  2  3  1  0
  3  4  1  0
  4  5  1  0
  5  6  1  0
  6  7  1  0
  7  8  2  0
  7  9  1  0
  9 10  1  0
 10 11  2  0
 11 12  1  0
 12 13  1  0
 13 14  2  0
 14 15  1  0
 15 16  2  0
 16 17  1  0
 17 18  2  0
 12 19  1  0
  6 20  1  0
 20 21  1  0
 21  2  1  0
 19  9  2  0
 18 13  1  0
  1 22  1  0
  1 23  1  0
  1 24  1  0
  3 25  1  0
  3 26  1  0
  4 27  1  0
  4 28  1  0
  5 29  1  0
  5 30  1  0
 10 31  1  0
 11 32  1  0
 14 33  1  0
 15 34  1  0
 16 35  1  0
 17 36  1  0
 18 37  1  0
 20 38  1  0
 20 39  1  0
 21 40  1  0
 21 41  1  0
M  END
>  <UniqueID>  (31) 
30

>  <SMILES>  (31) 
CN1CCCN(C(=O)c2ccn(-c3ccccc3)n2)CC1

>  <Energy>  (31) 
81.57787020163471

>  <Genealogy>  (31) 
CN1CCCN(C(=O)c2ccn(-c3ccccc3)n2)CC1 (3D coordinates assigned)
CN1CCCN(C(=O)c2ccn(-c3ccccc3)n2)CC1 (nonaromatic ring conformer: 81.57787020163471 kcal/mol)

>  <smiles>  (31) 
CN1CCCN(C(=O)c2ccn(-c3ccccc3)n2)CC1

>  <score_type>  (31) 
oracle

>  <origin>  (31) 
adg

>  <m_score__min__energy>  (31) 
-6.1200000000000001

>  <m_primary>  (31) 
energy

$$$$
32:0
     RDKit          3D

 46 49  0  0  0  0  0  0  0  0999 V2000
   -9.3960   18.2050  -31.8940 C   0  0  0  0  0  0  0  0  0  0  0  0
   -8.0190   18.4200  -32.4500 C   0  0  0  0  0  0  0  0  0  0  0  0
   -7.6920   19.6420  -33.0810 C   0  0  0  0  0  0  0  0  0  0  0  0
   -6.3960   19.8700  -33.5740 C   0  0  0  0  0  0  0  0  0  0  0  0
   -5.4320   18.8720  -33.4180 C   0  0  0  0  0  0  0  0  0  0  0  0
   -4.1000   18.9390  -33.8420 C   0  0  0  0  0  0  0  0  0  0  0  0
   -3.3950   17.7810  -33.5280 C   0  0  0  0  0  0  0  0  0  0  0  0
   -1.6990   17.5090  -33.8830 S   0  0  0  0  0  0  0  0  0  0  0  0
   -1.5340   17.3910  -35.3730 O   0  0  0  0  0  0  0  0  0  0  0  0
   -1.2470   16.2310  -33.2330 O   0  0  0  0  0  0  0  0  0  0  0  0
   -0.7460   18.8430  -33.2780 N   0  0  0  0  0  0  0  0  0  0  0  0
   -0.9140   20.0430  -34.1360 C   0  0  0  0  0  0  0  0  0  0  0  0
   -1.9660   20.9830  -33.6140 C   0  0  0  0  0  0  0  0  0  0  0  0
   -2.0030   21.2440  -32.3090 C   0  0  0  0  0  0  0  0  0  0  0  0
   -3.0170   22.1060  -31.7600 C   0  0  0  0  0  0  0  0  0  0  0  0
   -3.8640   22.8280  -31.2990 C   0  0  0  0  0  0  0  0  0  0  0  0
   -4.8770   23.6920  -30.7500 C   0  0  0  0  0  0  0  0  0  0  0  0
   -6.1050   23.1590  -30.3360 C   0  0  0  0  0  0  0  0  0  0  0  0
   -7.0880   23.9980  -29.8030 C   0  0  0  0  0  0  0  0  0  0  0  0
   -6.8460   25.3710  -29.6810 C   0  0  0  0  0  0  0  0  0  0  0  0
   -5.6220   25.9050  -30.0940 C   0  0  0  0  0  0  0  0  0  0  0  0
   -4.6360   25.0670  -30.6280 C   0  0  0  0  0  0  0  0  0  0  0  0
   -1.0370   20.5270  -31.4140 C   0  0  0  0  0  0  0  0  0  0  0  0
   -0.9980   19.0460  -31.8230 C   0  0  0  0  0  0  0  0  0  0  0  0
   -4.4040   16.6830  -32.7310 S   0  0  0  0  0  0  0  0  0  0  0  0
   -5.7530   17.6810  -32.7840 C   0  0  0  0  0  0  0  0  0  0  0  0
   -7.0290   17.4300  -32.2870 C   0  0  0  0  0  0  0  0  0  0  0  0
   -9.3528   18.2117  -30.7949 H   0  0  0  0  0  0  0  0  0  0  0  0
  -10.0609   19.0102  -32.2398 H   0  0  0  0  0  0  0  0  0  0  0  0
   -9.7838   17.2354  -32.2398 H   0  0  0  0  0  0  0  0  0  0  0  0
   -8.4599   20.4224  -33.1872 H   0  0  0  0  0  0  0  0  0  0  0  0
   -6.1455   20.8174  -34.0737 H   0  0  0  0  0  0  0  0  0  0  0  0
   -3.6623   19.8041  -34.3617 H   0  0  0  0  0  0  0  0  0  0  0  0
    0.0453   20.5791  -34.1841 H   0  0  0  0  0  0  0  0  0  0  0  0
   -1.2365   19.7000  -35.1301 H   0  0  0  0  0  0  0  0  0  0  0  0
   -2.6918   21.4465  -34.2984 H   0  0  0  0  0  0  0  0  0  0  0  0
   -6.2956   22.0798  -30.4305 H   0  0  0  0  0  0  0  0  0  0  0  0
   -8.0521   23.5788  -29.4794 H   0  0  0  0  0  0  0  0  0  0  0  0
   -7.6194   26.0303  -29.2599 H   0  0  0  0  0  0  0  0  0  0  0  0
   -5.4334   26.9846  -29.9993 H   0  0  0  0  0  0  0  0  0  0  0  0
   -3.6725   25.4877  -30.9517 H   0  0  0  0  0  0  0  0  0  0  0  0
   -0.0349   20.9678  -31.5213 H   0  0  0  0  0  0  0  0  0  0  0  0
   -1.3559   20.6195  -30.3653 H   0  0  0  0  0  0  0  0  0  0  0  0
   -0.1967   18.5484  -31.2570 H   0  0  0  0  0  0  0  0  0  0  0  0
   -1.9877   18.6204  -31.6011 H   0  0  0  0  0  0  0  0  0  0  0  0
   -7.2591   16.4817  -31.7792 H   0  0  0  0  0  0  0  0  0  0  0  0
  1  2  1  0
  2  3  2  0
  3  4  1  0
  4  5  2  0
  5  6  1  0
  6  7  2  0
  7  8  1  0
  8  9  2  0
  8 10  2  0
  8 11  1  0
 11 12  1  0
 12 13  1  0
 13 14  2  0
 14 15  1  0
 15 16  3  0
 16 17  1  0
 17 18  2  0
 18 19  1  0
 19 20  2  0
 20 21  1  0
 21 22  2  0
 14 23  1  0
 23 24  1  0
  7 25  1  0
 25 26  1  0
 26 27  2  0
 27  2  1  0
 26  5  1  0
 24 11  1  0
 22 17  1  0
  1 28  1  0
  1 29  1  0
  1 30  1  0
  3 31  1  0
  4 32  1  0
  6 33  1  0
 12 34  1  0
 12 35  1  0
 13 36  1  0
 18 37  1  0
 19 38  1  0
 20 39  1  0
 21 40  1  0
 22 41  1  0
 23 42  1  0
 23 43  1  0
 24 44  1  0
 24 45  1  0
 27 46  1  0
M  END
>  <UniqueID>  (32) 
31

>  <SMILES>  (32) 
Cc1ccc2cc(S(=O)(=O)N3CC=C(C#Cc4ccccc4)CC3)sc2c1

>  <Energy>  (32) 
81.97926116657484

>  <Genealogy>  (32) 
Cc1ccc2cc(S(=O)(=O)N3CC=C(C#Cc4ccccc4)CC3)sc2c1 (3D coordinates assigned)
Cc1ccc2cc(S(=O)(=O)N3CC=C(C#Cc4ccccc4)CC3)sc2c1 (nonaromatic ring conformer: 81.97926116657484 kcal/mol)

>  <smiles>  (32) 
Cc1ccc2cc(S(=O)(=O)N3CC=C(C#Cc4ccccc4)CC3)sc2c1

>  <score_type>  (32) 
oracle

>  <origin>  (32) 
adg

>  <m_score__min__energy>  (32) 
-9.3200000000000003

>  <m_primary>  (32) 
energy

$$$$
33:0
     RDKit          3D

 43 44  0  0  0  0  0  0  0  0999 V2000
   -2.5130   21.5970  -32.1820 C   0  0  0  0  0  0  0  0  0  0  0  0
   -1.4850   20.7470  -32.2140 C   0  0  0  0  0  0  0  0  0  0  0  0
   -0.1260   21.1580  -31.7260 C   0  0  0  0  0  0  0  0  0  0  0  0
   -0.0770   21.1510  -30.3010 O   0  0  0  0  0  0  0  0  0  0  0  0
   -0.0580   20.0070  -29.4830 C   0  0  0  0  0  0  0  0  0  0  0  0
    0.3680   18.7550  -29.9740 C   0  0  0  0  0  0  0  0  0  0  0  0
    0.3410   17.6250  -29.1560 C   0  0  0  0  0  0  0  0  0  0  0  0
   -0.1140   17.7250  -27.8420 C   0  0  0  0  0  0  0  0  0  0  0  0
   -0.5320   18.9560  -27.3380 C   0  0  0  0  0  0  0  0  0  0  0  0
   -0.4920   20.1080  -28.1380 C   0  0  0  0  0  0  0  0  0  0  0  0
   -0.9270   21.3570  -27.5650 N   0  0  0  0  0  0  0  0  0  0  0  0
   -1.6910   22.3490  -28.2670 C   0  0  0  0  0  0  0  0  0  0  0  0
   -2.9360   21.9980  -28.8060 C   0  0  0  0  0  0  0  0  0  0  0  0
   -3.4310   20.7090  -28.6420 O   0  0  0  0  0  0  0  0  0  0  0  0
   -3.6830   22.9330  -29.5260 C   0  0  0  0  0  0  0  0  0  0  0  0
   -3.2020   24.2410  -29.7200 C   0  0  0  0  0  0  0  0  0  0  0  0
   -3.9550   25.2200  -30.4690 N   0  0  0  0  0  0  0  0  0  0  0  0
   -5.3900   25.1110  -30.7740 C   0  0  0  0  0  0  0  0  0  0  0  0
   -5.6620   23.8580  -31.6150 C   0  0  0  0  0  0  0  0  0  0  0  0
   -6.2050   25.0580  -29.4750 C   0  0  0  0  0  0  0  0  0  0  0  0
   -1.9670   24.6020  -29.1470 C   0  0  0  0  0  0  0  0  0  0  0  0
   -1.4780   25.8950  -29.3050 O   0  0  0  0  0  0  0  0  0  0  0  0
   -1.2150   23.6660  -28.4200 C   0  0  0  0  0  0  0  0  0  0  0  0
    0.4310   24.2290  -27.6020 Br  0  0  0  0  0  0  0  0  0  0  0  0
   -3.5017   21.2783  -32.5438 H   0  0  0  0  0  0  0  0  0  0  0  0
   -2.3718   22.6165  -31.7938 H   0  0  0  0  0  0  0  0  0  0  0  0
   -1.6355   19.7295  -32.6039 H   0  0  0  0  0  0  0  0  0  0  0  0
    0.6251   20.4555  -32.1163 H   0  0  0  0  0  0  0  0  0  0  0  0
    0.0830   22.1778  -32.0813 H   0  0  0  0  0  0  0  0  0  0  0  0
    0.7246   18.6688  -31.0110 H   0  0  0  0  0  0  0  0  0  0  0  0
    0.6790   16.6545  -29.5482 H   0  0  0  0  0  0  0  0  0  0  0  0
   -0.1433   16.8311  -27.2017 H   0  0  0  0  0  0  0  0  0  0  0  0
   -0.8969   19.0247  -26.3026 H   0  0  0  0  0  0  0  0  0  0  0  0
   -0.7090   21.5430  -26.5590 H   0  0  0  0  0  0  0  0  0  0  0  0
   -4.6577   22.6438  -29.9459 H   0  0  0  0  0  0  0  0  0  0  0  0
   -3.4410   26.0480  -30.8480 H   0  0  0  0  0  0  0  0  0  0  0  0
   -5.6942   25.9973  -31.3501 H   0  0  0  0  0  0  0  0  0  0  0  0
   -5.8477   23.0025  -30.9489 H   0  0  0  0  0  0  0  0  0  0  0  0
   -6.5444   24.0268  -32.2497 H   0  0  0  0  0  0  0  0  0  0  0  0
   -4.7890   23.6458  -32.2497 H   0  0  0  0  0  0  0  0  0  0  0  0
   -5.5236   25.1023  -28.6126 H   0  0  0  0  0  0  0  0  0  0  0  0
   -6.8961   25.9131  -29.4406 H   0  0  0  0  0  0  0  0  0  0  0  0
   -6.7795   24.1206  -29.4406 H   0  0  0  0  0  0  0  0  0  0  0  0
  1  2  2  0
  2  3  1  0
  3  4  1  0
  4  5  1  0
  5  6  2  0
  6  7  1  0
  7  8  2  0
  8  9  1  0
  9 10  2  0
 10 11  1  0
 11 12  1  0
 12 13  2  0
 13 14  1  0
 13 15  1  0
 15 16  2  0
 16 17  1  0
 17 18  1  0
 18 19  1  0
 18 20  1  0
 16 21  1  0
 21 22  1  0
 21 23  2  0
 23 24  1  0
 10  5  1  0
 23 12  1  0
  1 25  1  0
  1 26  1  0
  2 27  1  0
  3 28  1  0
  3 29  1  0
  6 30  1  0
  7 31  1  0
  8 32  1  0
  9 33  1  0
 11 34  1  0
 15 35  1  0
 17 36  1  0
 18 37  1  0
 19 38  1  0
 19 39  1  0
 19 40  1  0
 20 41  1  0
 20 42  1  0
 20 43  1  0
M  CHG  2  14  -1  22  -1
M  END
>  <UniqueID>  (33) 
32

>  <SMILES>  (33) 
C=CCOc1ccccc1Nc1c([O-])cc(NC(C)C)c([O-])c1Br

>  <Energy>  (33) 
47.07516435124122

>  <Genealogy>  (33) 
C=CCOc1ccccc1Nc1c([O-])cc(NC(C)C)c([O-])c1Br (protonated)
C=CCOc1ccccc1Nc1c([O-])cc(NC(C)C)c([O-])c1Br (3D coordinates assigned)
C=CCOc1ccccc1Nc1c([O-])cc(NC(C)C)c([O-])c1Br (optimized conformer: 47.07516435124122 kcal/mol)

>  <smiles>  (33) 
C=CCOc1ccccc1Nc1c(O)cc(NC(C)C)c(O)c1Br

>  <score_type>  (33) 
oracle

>  <origin>  (33) 
adg

>  <m_score__min__energy>  (33) 
-10.6

>  <m_primary>  (33) 
energy

$$$$
34:0
     RDKit          3D

 33 34  0  0  0  0  0  0  0  0999 V2000
   -8.3280   19.1350  -32.4230 C   0  0  0  0  0  0  0  0  0  0  0  0
   -7.4080   20.0140  -33.0600 O   0  0  0  0  0  0  0  0  0  0  0  0
   -6.8690   21.1640  -32.4630 C   0  0  0  0  0  0  0  0  0  0  0  0
   -7.7400   22.0490  -31.8170 C   0  0  0  0  0  0  0  0  0  0  0  0
   -7.2510   23.2060  -31.2030 C   0  0  0  0  0  0  0  0  0  0  0  0
   -5.8800   23.4910  -31.2280 C   0  0  0  0  0  0  0  0  0  0  0  0
   -5.2580   24.9370  -30.4410 S   0  0  0  0  0  0  0  0  0  0  0  0
   -5.7340   26.1450  -31.1980 O   0  0  0  0  0  0  0  0  0  0  0  0
   -5.7490   25.0210  -29.0230 O   0  0  0  0  0  0  0  0  0  0  0  0
   -3.5230   24.9200  -30.4370 N   0  0  0  0  0  0  0  0  0  0  0  0
   -2.7050   24.2640  -29.4570 C   0  0  0  0  0  0  0  0  0  0  0  0
   -1.5780   24.9380  -28.9710 C   0  0  0  0  0  0  0  0  0  0  0  0
   -0.7440   24.3320  -28.0270 C   0  0  0  0  0  0  0  0  0  0  0  0
   -1.0340   23.0480  -27.5570 C   0  0  0  0  0  0  0  0  0  0  0  0
   -2.1690   22.3670  -28.0190 C   0  0  0  0  0  0  0  0  0  0  0  0
   -2.4560   20.9780  -27.5320 C   0  0  0  0  0  0  0  0  0  0  0  0
   -2.9980   22.9740  -28.9770 C   0  0  0  0  0  0  0  0  0  0  0  0
   -5.0030   22.6140  -31.8800 C   0  0  0  0  0  0  0  0  0  0  0  0
   -5.4900   21.4560  -32.4920 C   0  0  0  0  0  0  0  0  0  0  0  0
   -8.2294   19.2292  -31.3315 H   0  0  0  0  0  0  0  0  0  0  0  0
   -9.3534   19.3975  -32.7225 H   0  0  0  0  0  0  0  0  0  0  0  0
   -8.1125   18.0987  -32.7225 H   0  0  0  0  0  0  0  0  0  0  0  0
   -8.8182   21.8324  -31.7922 H   0  0  0  0  0  0  0  0  0  0  0  0
   -7.9451   23.8945  -30.6988 H   0  0  0  0  0  0  0  0  0  0  0  0
   -1.3476   25.9504  -29.3342 H   0  0  0  0  0  0  0  0  0  0  0  0
    0.1419   24.8664  -27.6534 H   0  0  0  0  0  0  0  0  0  0  0  0
   -0.3694   22.5702  -26.8221 H   0  0  0  0  0  0  0  0  0  0  0  0
   -2.4580   20.9682  -26.4320 H   0  0  0  0  0  0  0  0  0  0  0  0
   -3.4398   20.6552  -27.9034 H   0  0  0  0  0  0  0  0  0  0  0  0
   -1.6807   20.2917  -27.9034 H   0  0  0  0  0  0  0  0  0  0  0  0
   -3.8813   22.4378  -29.3541 H   0  0  0  0  0  0  0  0  0  0  0  0
   -3.9265   22.8381  -31.9102 H   0  0  0  0  0  0  0  0  0  0  0  0
   -4.7950   20.7699  -32.9982 H   0  0  0  0  0  0  0  0  0  0  0  0
  1  2  1  0
  2  3  1  0
  3  4  2  0
  4  5  1  0
  5  6  2  0
  6  7  1  0
  7  8  2  0
  7  9  2  0
  7 10  1  0
 10 11  1  0
 11 12  2  0
 12 13  1  0
 13 14  2  0
 14 15  1  0
 15 16  1  0
 15 17  2  0
  6 18  1  0
 18 19  2  0
 19  3  1  0
 17 11  1  0
  1 20  1  0
  1 21  1  0
  1 22  1  0
  4 23  1  0
  5 24  1  0
 12 25  1  0
 13 26  1  0
 14 27  1  0
 16 28  1  0
 16 29  1  0
 16 30  1  0
 17 31  1  0
 18 32  1  0
 19 33  1  0
M  CHG  1  10  -1
M  END
>  <UniqueID>  (34) 
33

>  <SMILES>  (34) 
COc1ccc(S(=O)(=O)[N-]c2cccc(C)c2)cc1

>  <Energy>  (34) 
34.749706073128166

>  <Genealogy>  (34) 
COc1ccc(S(=O)(=O)[N-]c2cccc(C)c2)cc1 (protonated)
COc1ccc(S(=O)(=O)[N-]c2cccc(C)c2)cc1 (3D coordinates assigned)
COc1ccc(S(=O)(=O)[N-]c2cccc(C)c2)cc1 (optimized conformer: 34.749706073128166 kcal/mol)

>  <smiles>  (34) 
COc1ccc(S(=O)(=O)Nc2cccc(C)c2)cc1

>  <score_type>  (34) 
oracle

>  <origin>  (34) 
adg

>  <m_score__min__energy>  (34) 
-8.1400000000000006

>  <m_primary>  (34) 
energy

$$$$
35:0
     RDKit          3D

 53 56  0  0  0  0  0  0  0  0999 V2000
   -1.5150   24.6090  -28.2850 C   0  0  0  0  0  0  0  0  0  0  0  0
   -2.0690   23.6700  -29.2570 N   0  0  0  0  0  0  0  0  0  0  0  0
   -1.3540   22.9350  -30.1300 C   0  0  0  0  0  0  0  0  0  0  0  0
   -2.2070   22.1530  -30.8910 C   0  0  0  0  0  0  0  0  0  0  0  0
   -1.8290   21.1320  -31.9390 C   0  0  0  0  0  0  0  0  0  0  0  0
   -2.2610   19.6910  -31.5400 C   0  0  0  0  0  0  0  0  0  0  0  0
   -3.2490   19.0530  -32.5250 C   0  0  0  0  0  0  0  0  0  0  0  0
   -4.2840   20.0240  -32.9120 N   0  0  0  0  0  0  0  0  0  0  0  0
   -5.6910   19.7000  -32.8760 C   0  0  0  0  0  0  0  0  0  0  0  0
   -6.5160   20.4250  -33.4990 O   0  0  0  0  0  0  0  0  0  0  0  0
   -6.2080   18.4910  -32.1460 C   0  0  0  0  0  0  0  0  0  0  0  0
   -7.2330   17.6690  -32.9160 C   0  0  0  0  0  0  0  0  0  0  0  0
   -7.6810   18.5580  -31.7710 C   0  0  0  0  0  0  0  0  0  0  0  0
   -3.8750   21.3310  -33.4500 C   0  0  0  0  0  0  0  0  0  0  0  0
   -2.3610   21.5560  -33.3250 C   0  0  0  0  0  0  0  0  0  0  0  0
   -3.4900   22.4050  -30.4400 C   0  0  0  0  0  0  0  0  0  0  0  0
   -3.3690   23.3450  -29.4330 C   0  0  0  0  0  0  0  0  0  0  0  0
   -4.5290   23.9540  -28.6910 C   0  0  0  0  0  0  0  0  0  0  0  0
   -5.4180   24.7910  -29.6200 C   0  0  0  0  0  0  0  0  0  0  0  0
   -6.3630   23.9270  -30.4140 C   0  0  0  0  0  0  0  0  0  0  0  0
   -7.1450   22.9530  -29.7710 C   0  0  0  0  0  0  0  0  0  0  0  0
   -7.9860   22.1200  -30.5160 C   0  0  0  0  0  0  0  0  0  0  0  0
   -8.0490   22.2520  -31.9060 C   0  0  0  0  0  0  0  0  0  0  0  0
   -7.2690   23.2140  -32.5530 C   0  0  0  0  0  0  0  0  0  0  0  0
   -6.4250   24.0460  -31.8120 C   0  0  0  0  0  0  0  0  0  0  0  0
   -1.7266   24.2503  -27.2669 H   0  0  0  0  0  0  0  0  0  0  0  0
   -0.4270   24.6855  -28.4280 H   0  0  0  0  0  0  0  0  0  0  0  0
   -1.9741   25.5983  -28.4280 H   0  0  0  0  0  0  0  0  0  0  0  0
   -0.2582   22.9530  -30.2244 H   0  0  0  0  0  0  0  0  0  0  0  0
   -0.7314   21.1013  -32.0046 H   0  0  0  0  0  0  0  0  0  0  0  0
   -1.3619   19.0592  -31.4905 H   0  0  0  0  0  0  0  0  0  0  0  0
   -2.7737   19.7642  -30.5696 H   0  0  0  0  0  0  0  0  0  0  0  0
   -2.7051   18.7252  -33.4232 H   0  0  0  0  0  0  0  0  0  0  0  0
   -3.7308   18.1911  -32.0403 H   0  0  0  0  0  0  0  0  0  0  0  0
   -5.2735   18.2691  -31.6098 H   0  0  0  0  0  0  0  0  0  0  0  0
   -7.4867   17.9373  -33.9522 H   0  0  0  0  0  0  0  0  0  0  0  0
   -7.3475   16.6034  -33.1637 H   0  0  0  0  0  0  0  0  0  0  0  0
   -8.2597   19.4704  -31.9776 H   0  0  0  0  0  0  0  0  0  0  0  0
   -8.2549   18.4027  -30.8455 H   0  0  0  0  0  0  0  0  0  0  0  0
   -4.1550   21.3811  -34.5126 H   0  0  0  0  0  0  0  0  0  0  0  0
   -4.3841   22.1128  -32.8673 H   0  0  0  0  0  0  0  0  0  0  0  0
   -1.8485   20.9654  -34.0987 H   0  0  0  0  0  0  0  0  0  0  0  0
   -2.1642   22.6308  -33.4517 H   0  0  0  0  0  0  0  0  0  0  0  0
   -4.4206   21.9489  -30.8087 H   0  0  0  0  0  0  0  0  0  0  0  0
   -5.1333   23.1476  -28.2499 H   0  0  0  0  0  0  0  0  0  0  0  0
   -4.1277   24.6168  -27.9102 H   0  0  0  0  0  0  0  0  0  0  0  0
   -6.0045   25.4959  -29.0125 H   0  0  0  0  0  0  0  0  0  0  0  0
   -4.7671   25.3267  -30.3267 H   0  0  0  0  0  0  0  0  0  0  0  0
   -7.0957   22.8451  -28.6774 H   0  0  0  0  0  0  0  0  0  0  0  0
   -8.5982   21.3605  -30.0077 H   0  0  0  0  0  0  0  0  0  0  0  0
   -8.7129   21.5983  -32.4908 H   0  0  0  0  0  0  0  0  0  0  0  0
   -7.3193   23.3167  -33.6470 H   0  0  0  0  0  0  0  0  0  0  0  0
   -5.8069   24.7969  -32.3258 H   0  0  0  0  0  0  0  0  0  0  0  0
  1  2  1  0
  2  3  1  0
  3  4  2  0
  4  5  1  0
  5  6  1  0
  6  7  1  0
  7  8  1  0
  8  9  1  0
  9 10  2  0
  9 11  1  0
 11 12  1  0
 12 13  1  0
  8 14  1  0
 14 15  1  0
  4 16  1  0
 16 17  2  0
 17 18  1  0
 18 19  1  0
 19 20  1  0
 20 21  2  0
 21 22  1  0
 22 23  2  0
 23 24  1  0
 24 25  2  0
 17  2  1  0
 25 20  1  0
 15  5  1  0
 13 11  1  0
  1 26  1  0
  1 27  1  0
  1 28  1  0
  3 29  1  0
  5 30  1  0
  6 31  1  0
  6 32  1  0
  7 33  1  0
  7 34  1  0
 11 35  1  0
 12 36  1  0
 12 37  1  0
 13 38  1  0
 13 39  1  0
 14 40  1  0
 14 41  1  0
 15 42  1  0
 15 43  1  0
 16 44  1  0
 18 45  1  0
 18 46  1  0
 19 47  1  0
 19 48  1  0
 21 49  1  0
 22 50  1  0
 23 51  1  0
 24 52  1  0
 25 53  1  0
M  END
>  <UniqueID>  (35) 
34

>  <SMILES>  (35) 
Cn1cc(C2CCN(C(=O)C3CC3)CC2)cc1CCc1ccccc1

>  <Energy>  (35) 
340.4438958667961

>  <Genealogy>  (35) 
Cn1cc(C2CCN(C(=O)C3CC3)CC2)cc1CCc1ccccc1 (3D coordinates assigned)
Cn1cc(C2CCN(C(=O)C3CC3)CC2)cc1CCc1ccccc1 (nonaromatic ring conformer: 340.4438958667961 kcal/mol)

>  <smiles>  (35) 
Cn1cc(C2CCN(C(=O)C3CC3)CC2)cc1CCc1ccccc1

>  <score_type>  (35) 
oracle

>  <origin>  (35) 
adg

>  <m_score__min__energy>  (35) 
-9.0399999999999991

>  <m_primary>  (35) 
energy

$$$$
36:0
     RDKit          3D

 37 37  0  0  0  0  0  0  0  0999 V2000
   -1.0260   26.0580  -27.8190 C   0  0  0  0  0  0  0  0  0  0  0  0
   -1.6520   25.6720  -29.0220 O   0  0  0  0  0  0  0  0  0  0  0  0
   -2.0080   24.3090  -28.9470 C   0  0  0  0  0  0  0  0  0  0  0  0
   -3.3880   24.1420  -29.4910 C   0  0  0  0  0  0  0  0  0  0  0  0
   -4.0920   23.1670  -29.1130 O   0  0  0  0  0  0  0  0  0  0  0  0
   -3.8740   25.0640  -30.4750 N   0  0  0  0  0  0  0  0  0  0  0  0
   -5.2810   25.3250  -30.7890 C   0  0  2  0  0  0  0  0  0  0  0  0
   -6.0750   25.6110  -29.5070 C   0  0  0  0  0  0  0  0  0  0  0  0
   -5.8760   24.1620  -31.6140 C   0  0  0  0  0  0  0  0  0  0  0  0
   -5.1040   22.9170  -31.4430 N   0  0  0  0  0  0  0  0  0  0  0  0
   -5.2330   22.0260  -32.6090 C   0  0  0  0  0  0  0  0  0  0  0  0
   -6.3760   21.0500  -32.4510 C   0  0  0  0  0  0  0  0  0  0  0  0
   -7.6160   21.4900  -31.9590 C   0  0  0  0  0  0  0  0  0  0  0  0
   -8.6660   20.5820  -31.7860 C   0  0  0  0  0  0  0  0  0  0  0  0
   -8.4840   19.2320  -32.0980 C   0  0  0  0  0  0  0  0  0  0  0  0
   -9.5060   18.3560  -31.9270 F   0  0  0  0  0  0  0  0  0  0  0  0
   -7.2510   18.7860  -32.5820 C   0  0  0  0  0  0  0  0  0  0  0  0
   -7.0710   17.4760  -32.8800 F   0  0  0  0  0  0  0  0  0  0  0  0
   -6.1990   19.6910  -32.7580 C   0  0  0  0  0  0  0  0  0  0  0  0
   -1.6164   25.6940  -26.9652 H   0  0  0  0  0  0  0  0  0  0  0  0
   -0.0152   25.6261  -27.7766 H   0  0  0  0  0  0  0  0  0  0  0  0
   -0.9580   27.1551  -27.7766 H   0  0  0  0  0  0  0  0  0  0  0  0
   -1.3017   23.7092  -29.5398 H   0  0  0  0  0  0  0  0  0  0  0  0
   -1.9751   23.9710  -27.9007 H   0  0  0  0  0  0  0  0  0  0  0  0
   -5.3513   26.2275  -31.4140 H   0  0  0  0  0  0  0  0  0  0  0  0
   -5.4497   25.3858  -28.6305 H   0  0  0  0  0  0  0  0  0  0  0  0
   -6.3678   26.6711  -29.4859 H   0  0  0  0  0  0  0  0  0  0  0  0
   -6.9765   24.9811  -29.4859 H   0  0  0  0  0  0  0  0  0  0  0  0
   -6.9114   23.9866  -31.2865 H   0  0  0  0  0  0  0  0  0  0  0  0
   -5.8393   24.4434  -32.6768 H   0  0  0  0  0  0  0  0  0  0  0  0
   -4.0940   23.1390  -31.2870 H   0  0  0  0  0  0  0  0  0  0  0  0
   -5.4630   22.4020  -30.6050 H   0  0  0  0  0  0  0  0  0  0  0  0
   -5.4097   22.6379  -33.5059 H   0  0  0  0  0  0  0  0  0  0  0  0
   -4.3018   21.4475  -32.6996 H   0  0  0  0  0  0  0  0  0  0  0  0
   -7.7617   22.5513  -31.7091 H   0  0  0  0  0  0  0  0  0  0  0  0
   -9.6365   20.9312  -31.4037 H   0  0  0  0  0  0  0  0  0  0  0  0
   -5.2295   19.3369  -33.1383 H   0  0  0  0  0  0  0  0  0  0  0  0
  1  2  1  0
  2  3  1  0
  3  4  1  0
  4  5  2  0
  4  6  1  0
  6  7  1  0
  7  8  1  0
  7  9  1  0
  9 10  1  0
 10 11  1  0
 11 12  1  0
 12 13  2  0
 13 14  1  0
 14 15  2  0
 15 16  1  0
 15 17  1  0
 17 18  1  0
 17 19  2  0
 19 12  1  0
  1 20  1  0
  1 21  1  0
  1 22  1  0
  3 23  1  0
  3 24  1  0
  7 25  1  6
  8 26  1  0
  8 27  1  0
  8 28  1  0
  9 29  1  0
  9 30  1  0
 10 31  1  0
 10 32  1  0
 11 33  1  0
 11 34  1  0
 13 35  1  0
 14 36  1  0
 19 37  1  0
M  CHG  2   6  -1  10   1
M  END
>  <UniqueID>  (36) 
35

>  <SMILES>  (36) 
COCC(=O)[N-][C@H](C)C[NH2+]Cc1ccc(F)c(F)c1

>  <Energy>  (36) 
29.898939008632105

>  <Genealogy>  (36) 
COCC(=O)[N-]C(C)C[NH2+]Cc1ccc(F)c(F)c1 (protonated)
COCC(=O)[N-][C@H](C)C[NH2+]Cc1ccc(F)c(F)c1 (chirality)
COCC(=O)[N-][C@H](C)C[NH2+]Cc1ccc(F)c(F)c1 (3D coordinates assigned)
COCC(=O)[N-][C@H](C)C[NH2+]Cc1ccc(F)c(F)c1 (optimized conformer: 29.898939008632105 kcal/mol)

>  <smiles>  (36) 
COCC(=O)NC(C)CNCc1ccc(F)c(F)c1

>  <score_type>  (36) 
oracle

>  <origin>  (36) 
adg

>  <m_score__min__energy>  (36) 
-6.9900000000000002

>  <m_primary>  (36) 
energy

$$$$
37:0
     RDKit          3D

 36 37  0  0  0  0  0  0  0  0999 V2000
   -8.1030   19.9410  -32.5320 F   0  0  0  0  0  0  0  0  0  0  0  0
   -7.4670   20.8940  -31.8060 C   0  0  0  0  0  0  0  0  0  0  0  0
   -8.1840   21.6740  -30.8960 C   0  0  0  0  0  0  0  0  0  0  0  0
   -7.5320   22.6570  -30.1470 C   0  0  0  0  0  0  0  0  0  0  0  0
   -6.1490   22.8700  -30.2980 C   0  0  0  0  0  0  0  0  0  0  0  0
   -5.4510   23.9510  -29.4830 C   0  0  1  0  0  0  0  0  0  0  0  0
   -4.0640   23.4470  -28.9980 C   0  0  0  0  0  0  0  0  0  0  0  0
   -3.5380   24.2020  -27.8430 N   0  0  0  0  0  0  0  0  0  0  0  0
   -2.1390   23.8640  -27.5560 C   0  0  0  0  0  0  0  0  0  0  0  0
   -1.6480   24.6640  -26.3810 C   0  0  0  0  0  0  0  0  0  0  0  0
   -2.0330   26.0020  -26.2170 C   0  0  0  0  0  0  0  0  0  0  0  0
   -1.6000   26.7200  -25.1020 C   0  0  0  0  0  0  0  0  0  0  0  0
   -0.7930   26.0910  -24.1530 C   0  0  0  0  0  0  0  0  0  0  0  0
   -0.4370   24.7880  -24.3150 N   0  0  0  0  0  0  0  0  0  0  0  0
   -0.8480   24.0670  -25.3940 C   0  0  0  0  0  0  0  0  0  0  0  0
   -5.3780   25.2750  -30.2770 C   0  0  0  0  0  0  0  0  0  0  0  0
   -5.9800   25.1170  -31.5140 F   0  0  0  0  0  0  0  0  0  0  0  0
   -4.0660   25.6700  -30.4680 F   0  0  0  0  0  0  0  0  0  0  0  0
   -6.0530   26.2760  -29.6030 F   0  0  0  0  0  0  0  0  0  0  0  0
   -5.4370   22.0790  -31.2230 C   0  0  0  0  0  0  0  0  0  0  0  0
   -6.0950   21.0980  -31.9690 C   0  0  0  0  0  0  0  0  0  0  0  0
   -9.2648   21.5141  -30.7686 H   0  0  0  0  0  0  0  0  0  0  0  0
   -8.1039   23.2690  -29.4340 H   0  0  0  0  0  0  0  0  0  0  0  0
   -6.0413   24.1685  -28.5806 H   0  0  0  0  0  0  0  0  0  0  0  0
   -4.1582   22.3896  -28.7100 H   0  0  0  0  0  0  0  0  0  0  0  0
   -3.3574   23.5896  -29.8289 H   0  0  0  0  0  0  0  0  0  0  0  0
   -3.6280   25.2340  -27.9880 H   0  0  0  0  0  0  0  0  0  0  0  0
   -2.0635   22.7915  -27.3237 H   0  0  0  0  0  0  0  0  0  0  0  0
   -1.5225   24.0990  -28.4362 H   0  0  0  0  0  0  0  0  0  0  0  0
   -2.6762   26.4855  -26.9671 H   0  0  0  0  0  0  0  0  0  0  0  0
   -1.8921   27.7725  -24.9720 H   0  0  0  0  0  0  0  0  0  0  0  0
   -0.4440   26.6499  -23.2722 H   0  0  0  0  0  0  0  0  0  0  0  0
    0.1620   24.3290  -23.5920 H   0  0  0  0  0  0  0  0  0  0  0  0
   -0.5520   23.0122  -25.4929 H   0  0  0  0  0  0  0  0  0  0  0  0
   -4.3566   22.2353  -31.3581 H   0  0  0  0  0  0  0  0  0  0  0  0
   -5.5308   20.4845  -32.6868 H   0  0  0  0  0  0  0  0  0  0  0  0
  1  2  1  0
  2  3  2  0
  3  4  1  0
  4  5  2  0
  5  6  1  0
  6  7  1  0
  7  8  1  0
  8  9  1  0
  9 10  1  0
 10 11  2  0
 11 12  1  0
 12 13  2  0
 13 14  1  0
 14 15  2  0
  6 16  1  0
 16 17  1  0
 16 18  1  0
 16 19  1  0
  5 20  1  0
 20 21  2  0
 21  2  1  0
 15 10  1  0
  3 22  1  0
  4 23  1  0
  6 24  1  1
  7 25  1  0
  7 26  1  0
  8 27  1  0
  9 28  1  0
  9 29  1  0
 11 30  1  0
 12 31  1  0
 13 32  1  0
 14 33  1  0
 15 34  1  0
 20 35  1  0
 21 36  1  0
M  CHG  1  14   1
M  END
>  <UniqueID>  (37) 
36

>  <SMILES>  (37) 
Fc1ccc([C@@H](CNCc2ccc[nH+]c2)C(F)(F)F)cc1

>  <Energy>  (37) 
38.328235162911334

>  <Genealogy>  (37) 
Fc1ccc(C(CNCc2ccc[nH+]c2)C(F)(F)F)cc1 (protonated)
Fc1ccc([C@@H](CNCc2ccc[nH+]c2)C(F)(F)F)cc1 (chirality)
Fc1ccc([C@@H](CNCc2ccc[nH+]c2)C(F)(F)F)cc1 (3D coordinates assigned)
Fc1ccc([C@@H](CNCc2ccc[nH+]c2)C(F)(F)F)cc1 (optimized conformer: 38.328235162911334 kcal/mol)

>  <smiles>  (37) 
Fc1ccc(C(CNCc2cccnc2)C(F)(F)F)cc1

>  <score_type>  (37) 
oracle

>  <origin>  (37) 
adg

>  <m_score__min__energy>  (37) 
-6.4100000000000001

>  <m_primary>  (37) 
energy

$$$$
38:0
     RDKit          3D

 48 49  0  0  0  0  0  0  0  0999 V2000
   -5.3460   18.5550  -34.5910 C   0  0  0  0  0  0  0  0  0  0  0  0
   -6.4690   18.9790  -33.7050 C   0  0  0  0  0  0  0  0  0  0  0  0
   -7.2330   18.1430  -32.9130 C   0  0  0  0  0  0  0  0  0  0  0  0
   -8.0850   18.9990  -32.2450 C   0  0  0  0  0  0  0  0  0  0  0  0
   -9.1130   18.5950  -31.2340 C   0  0  0  0  0  0  0  0  0  0  0  0
   -7.8030   20.2680  -32.6130 N   0  0  0  0  0  0  0  0  0  0  0  0
   -8.4810   21.4860  -32.1750 C   0  0  0  0  0  0  0  0  0  0  0  0
   -7.6260   22.2200  -31.1380 C   0  0  0  0  0  0  0  0  0  0  0  0
   -7.0980   23.5670  -31.6560 C   0  0  0  0  0  0  0  0  0  0  0  0
   -6.1430   24.1770  -30.7160 N   0  0  0  0  0  0  0  0  0  0  0  0
   -6.6410   25.1420  -29.7320 C   0  0  0  0  0  0  0  0  0  0  0  0
   -4.7250   23.9190  -30.8420 C   0  0  0  0  0  0  0  0  0  0  0  0
   -3.9060   24.8770  -30.7790 O   0  0  0  0  0  0  0  0  0  0  0  0
   -4.2170   22.5830  -31.0140 N   0  0  0  0  0  0  0  0  0  0  0  0
   -4.6760   21.7490  -32.1330 C   0  0  0  0  0  0  0  0  0  0  0  0
   -3.5050   20.9600  -32.7360 C   0  0  0  0  0  0  0  0  0  0  0  0
   -2.2790   21.7750  -32.6610 N   0  0  0  0  0  0  0  0  0  0  0  0
   -1.2060   21.1650  -33.4600 C   0  0  0  0  0  0  0  0  0  0  0  0
   -1.8350   21.9610  -31.2580 C   0  0  0  0  0  0  0  0  0  0  0  0
   -3.0150   22.1630  -30.2850 C   0  0  0  0  0  0  0  0  0  0  0  0
   -6.8240   20.2630  -33.5040 N   0  0  0  0  0  0  0  0  0  0  0  0
   -4.4938   18.2333  -33.9743 H   0  0  0  0  0  0  0  0  0  0  0  0
   -5.6753   17.7193  -35.2260 H   0  0  0  0  0  0  0  0  0  0  0  0
   -5.0409   19.3998  -35.2260 H   0  0  0  0  0  0  0  0  0  0  0  0
   -7.1753   17.0474  -32.8333 H   0  0  0  0  0  0  0  0  0  0  0  0
   -8.7130   18.7522  -30.2214 H   0  0  0  0  0  0  0  0  0  0  0  0
  -10.0191   19.2039  -31.3689 H   0  0  0  0  0  0  0  0  0  0  0  0
   -9.3621   17.5321  -31.3689 H   0  0  0  0  0  0  0  0  0  0  0  0
   -8.6452   22.1429  -33.0419 H   0  0  0  0  0  0  0  0  0  0  0  0
   -9.4462   21.2175  -31.7209 H   0  0  0  0  0  0  0  0  0  0  0  0
   -8.2376   22.4021  -30.2420 H   0  0  0  0  0  0  0  0  0  0  0  0
   -6.7565   21.5851  -30.9127 H   0  0  0  0  0  0  0  0  0  0  0  0
   -6.5944   23.4051  -32.6205 H   0  0  0  0  0  0  0  0  0  0  0  0
   -7.9531   24.2501  -31.7667 H   0  0  0  0  0  0  0  0  0  0  0  0
   -6.4462   24.7646  -28.7173 H   0  0  0  0  0  0  0  0  0  0  0  0
   -6.1272   26.1048  -29.8700 H   0  0  0  0  0  0  0  0  0  0  0  0
   -7.7234   25.2810  -29.8700 H   0  0  0  0  0  0  0  0  0  0  0  0
   -5.4377   21.0437  -31.7693 H   0  0  0  0  0  0  0  0  0  0  0  0
   -5.1010   22.4014  -32.9100 H   0  0  0  0  0  0  0  0  0  0  0  0
   -3.3611   20.0269  -32.1715 H   0  0  0  0  0  0  0  0  0  0  0  0
   -3.7244   20.7200  -33.7868 H   0  0  0  0  0  0  0  0  0  0  0  0
   -0.4485   20.7344  -32.7887 H   0  0  0  0  0  0  0  0  0  0  0  0
   -1.6273   20.3714  -34.0946 H   0  0  0  0  0  0  0  0  0  0  0  0
   -0.7395   21.9329  -34.0946 H   0  0  0  0  0  0  0  0  0  0  0  0
   -1.2696   21.0704  -30.9462 H   0  0  0  0  0  0  0  0  0  0  0  0
   -1.2141   22.8683  -31.2222 H   0  0  0  0  0  0  0  0  0  0  0  0
   -3.2203   21.2164  -29.7637 H   0  0  0  0  0  0  0  0  0  0  0  0
   -2.7476   22.9456  -29.5597 H   0  0  0  0  0  0  0  0  0  0  0  0
  1  2  1  0
  2  3  1  0
  3  4  2  0
  4  5  1  0
  4  6  1  0
  6  7  1  0
  7  8  1  0
  8  9  1  0
  9 10  1  0
 10 11  1  0
 10 12  1  0
 12 13  2  0
 12 14  1  0
 14 15  1  0
 15 16  1  0
 16 17  1  0
 17 18  1  0
 17 19  1  0
 19 20  1  0
  6 21  1  0
 21  2  2  0
 20 14  1  0
  1 22  1  0
  1 23  1  0
  1 24  1  0
  3 25  1  0
  5 26  1  0
  5 27  1  0
  5 28  1  0
  7 29  1  0
  7 30  1  0
  8 31  1  0
  8 32  1  0
  9 33  1  0
  9 34  1  0
 11 35  1  0
 11 36  1  0
 11 37  1  0
 15 38  1  0
 15 39  1  0
 16 40  1  0
 16 41  1  0
 18 42  1  0
 18 43  1  0
 18 44  1  0
 19 45  1  0
 19 46  1  0
 20 47  1  0
 20 48  1  0
M  END
>  <UniqueID>  (38) 
37

>  <SMILES>  (38) 
Cc1cc(C)n(CCCN(C)C(=O)N2CCN(C)CC2)n1

>  <Energy>  (38) 
76.92409371219702

>  <Genealogy>  (38) 
Cc1cc(C)n(CCCN(C)C(=O)N2CCN(C)CC2)n1 (3D coordinates assigned)
Cc1cc(C)n(CCCN(C)C(=O)N2CCN(C)CC2)n1 (nonaromatic ring conformer: 76.92409371219702 kcal/mol)

>  <smiles>  (38) 
Cc1cc(C)n(CCCN(C)C(=O)N2CCN(C)CC2)n1

>  <score_type>  (38) 
oracle

>  <origin>  (38) 
adg

>  <m_score__min__energy>  (38) 
-7.7000000000000002

>  <m_primary>  (38) 
energy

$$$$
39:0
     RDKit          3D

 77 81  0  0  0  0  0  0  0  0999 V2000
   -3.2670   18.5410  -25.9120 C   0  0  0  0  0  0  0  0  0  0  0  0
   -1.9660   18.5740  -26.7310 C   0  0  0  0  0  0  0  0  0  0  0  0
   -1.7500   19.8380  -27.4810 N   0  0  0  0  0  0  0  0  0  0  0  0
   -1.0970   19.6770  -28.8020 C   0  0  0  0  0  0  0  0  0  0  0  0
   -0.0140   18.5970  -28.7740 C   0  0  0  0  0  0  0  0  0  0  0  0
   -2.9780   20.6620  -27.5560 C   0  0  0  0  0  0  0  0  0  0  0  0
   -2.9710   21.4990  -28.8340 C   0  0  0  0  0  0  0  0  0  0  0  0
   -2.8430   22.8850  -28.5260 O   0  0  0  0  0  0  0  0  0  0  0  0
   -3.2400   23.9230  -29.3800 C   0  0  0  0  0  0  0  0  0  0  0  0
   -2.4190   24.8140  -29.7240 O   0  0  0  0  0  0  0  0  0  0  0  0
   -4.6270   23.9580  -29.9000 C   0  0  0  0  0  0  0  0  0  0  0  0
   -5.5550   24.8300  -29.3050 C   0  0  0  0  0  0  0  0  0  0  0  0
   -6.8490   24.9490  -29.8180 C   0  0  0  0  0  0  0  0  0  0  0  0
   -7.2350   24.1930  -30.9220 C   0  0  0  0  0  0  0  0  0  0  0  0
   -6.3330   23.3100  -31.5160 C   0  0  0  0  0  0  0  0  0  0  0  0
   -5.0300   23.1780  -31.0130 C   0  0  0  0  0  0  0  0  0  0  0  0
   -4.1380   22.1620  -31.6080 C   0  0  0  0  0  0  0  0  0  0  0  0
   -2.8650   22.4640  -31.9860 N   0  0  0  0  0  0  0  0  0  0  0  0
   -2.4420   21.3260  -32.5580 C   0  0  0  0  0  0  0  0  0  0  0  0
   -1.2250   21.0860  -33.1740 C   0  0  0  0  0  0  0  0  0  0  0  0
   -1.0450   19.8340  -33.7800 C   0  0  0  0  0  0  0  0  0  0  0  0
   -2.0840   18.8540  -33.7460 C   0  0  0  0  0  0  0  0  0  0  0  0
   -1.9140   17.5720  -34.4150 N   0  0  0  0  0  0  0  0  0  0  0  0
   -3.1080   16.7810  -34.7630 C   0  0  0  0  0  0  0  0  0  0  0  0
   -2.7740   15.6200  -35.6940 C   0  0  0  0  0  0  0  0  0  0  0  0
   -1.6840   14.8910  -35.1790 O   0  0  0  0  0  0  0  0  0  0  0  0
   -0.5200   15.6760  -35.3050 C   0  0  0  0  0  0  0  0  0  0  0  0
   -0.5800   16.9400  -34.4300 C   0  0  0  0  0  0  0  0  0  0  0  0
   -3.2570   19.1550  -33.0910 N   0  0  0  0  0  0  0  0  0  0  0  0
   -3.4180   20.3850  -32.5300 C   0  0  0  0  0  0  0  0  0  0  0  0
   -4.5180   20.8920  -31.9300 N   0  0  0  0  0  0  0  0  0  0  0  0
   -5.8630   20.3020  -31.7900 C   0  0  0  0  0  0  0  0  0  0  0  0
   -5.7820   18.8020  -31.4030 C   0  0  0  0  0  0  0  0  0  0  0  0
   -6.9670   17.9780  -31.9380 C   0  0  0  0  0  0  0  0  0  0  0  0
   -8.2620   18.8010  -31.9390 C   0  0  0  0  0  0  0  0  0  0  0  0
   -8.1630   20.0260  -32.8700 C   0  0  0  0  0  0  0  0  0  0  0  0
   -6.7250   20.5590  -33.0440 C   0  0  0  0  0  0  0  0  0  0  0  0
   -3.0250   18.5471  -24.8390 H   0  0  0  0  0  0  0  0  0  0  0  0
   -3.8761   19.4240  -26.1556 H   0  0  0  0  0  0  0  0  0  0  0  0
   -3.8306   17.6283  -26.1556 H   0  0  0  0  0  0  0  0  0  0  0  0
   -1.1207   18.4334  -26.0413 H   0  0  0  0  0  0  0  0  0  0  0  0
   -2.0435   17.7718  -27.4796 H   0  0  0  0  0  0  0  0  0  0  0  0
   -1.8593   19.3973  -29.5440 H   0  0  0  0  0  0  0  0  0  0  0  0
   -0.6196   20.6323  -29.0655 H   0  0  0  0  0  0  0  0  0  0  0  0
    0.2321   18.3515  -27.7304 H   0  0  0  0  0  0  0  0  0  0  0  0
   -0.3819   17.6955  -29.2857 H   0  0  0  0  0  0  0  0  0  0  0  0
    0.8865   18.9674  -29.2857 H   0  0  0  0  0  0  0  0  0  0  0  0
   -3.8588   20.0031  -27.5574 H   0  0  0  0  0  0  0  0  0  0  0  0
   -3.0147   21.3338  -26.6857 H   0  0  0  0  0  0  0  0  0  0  0  0
   -2.1244   21.1892  -29.4643 H   0  0  0  0  0  0  0  0  0  0  0  0
   -3.9203   21.3405  -29.3666 H   0  0  0  0  0  0  0  0  0  0  0  0
   -5.2598   25.4241  -28.4276 H   0  0  0  0  0  0  0  0  0  0  0  0
   -7.5641   25.6410  -29.3491 H   0  0  0  0  0  0  0  0  0  0  0  0
   -8.2531   24.2923  -31.3265 H   0  0  0  0  0  0  0  0  0  0  0  0
   -6.6457   22.7128  -32.3852 H   0  0  0  0  0  0  0  0  0  0  0  0
   -0.4310   21.8472  -33.1874 H   0  0  0  0  0  0  0  0  0  0  0  0
   -0.0955   19.6046  -34.2859 H   0  0  0  0  0  0  0  0  0  0  0  0
   -3.5494   16.3793  -33.8390 H   0  0  0  0  0  0  0  0  0  0  0  0
   -3.8133   17.4435  -35.2862 H   0  0  0  0  0  0  0  0  0  0  0  0
   -3.6481   14.9577  -35.7793 H   0  0  0  0  0  0  0  0  0  0  0  0
   -2.5091   16.0155  -36.6857 H   0  0  0  0  0  0  0  0  0  0  0  0
    0.3489   15.0742  -35.0005 H   0  0  0  0  0  0  0  0  0  0  0  0
   -0.4360   15.9932  -36.3549 H   0  0  0  0  0  0  0  0  0  0  0  0
   -0.3114   16.6652  -33.3993 H   0  0  0  0  0  0  0  0  0  0  0  0
    0.1232   17.6691  -34.8589 H   0  0  0  0  0  0  0  0  0  0  0  0
   -4.0110   18.4490  -32.9950 H   0  0  0  0  0  0  0  0  0  0  0  0
   -6.3752   20.8082  -30.9585 H   0  0  0  0  0  0  0  0  0  0  0  0
   -4.8508   18.3840  -31.8131 H   0  0  0  0  0  0  0  0  0  0  0  0
   -5.8097   18.7435  -30.3049 H   0  0  0  0  0  0  0  0  0  0  0  0
   -6.7453   17.6573  -32.9666 H   0  0  0  0  0  0  0  0  0  0  0  0
   -7.1093   17.1070  -31.2814 H   0  0  0  0  0  0  0  0  0  0  0  0
   -9.0897   18.1614  -32.2793 H   0  0  0  0  0  0  0  0  0  0  0  0
   -8.4367   19.1636  -30.9153 H   0  0  0  0  0  0  0  0  0  0  0  0
   -8.5502   19.7421  -33.8597 H   0  0  0  0  0  0  0  0  0  0  0  0
   -8.7501   20.8315  -32.4046 H   0  0  0  0  0  0  0  0  0  0  0  0
   -6.2604   20.0557  -33.9047 H   0  0  0  0  0  0  0  0  0  0  0  0
   -6.7802   21.6459  -33.2041 H   0  0  0  0  0  0  0  0  0  0  0  0
  1  2  1  0
  2  3  1  0
  3  4  1  0
  4  5  1  0
  3  6  1  0
  6  7  1  0
  7  8  1  0
  8  9  1  0
  9 10  2  0
  9 11  1  0
 11 12  2  0
 12 13  1  0
 13 14  2  0
 14 15  1  0
 15 16  2  0
 16 17  1  0
 17 18  2  0
 18 19  1  0
 19 20  2  0
 20 21  1  0
 21 22  2  0
 22 23  1  0
 23 24  1  0
 24 25  1  0
 25 26  1  0
 26 27  1  0
 27 28  1  0
 22 29  1  0
 29 30  2  0
 30 31  1  0
 31 32  1  0
 32 33  1  0
 33 34  1  0
 34 35  1  0
 35 36  1  0
 36 37  1  0
 16 11  1  0
 31 17  1  0
 37 32  1  0
 30 19  1  0
 28 23  1  0
  1 38  1  0
  1 39  1  0
  1 40  1  0
  2 41  1  0
  2 42  1  0
  4 43  1  0
  4 44  1  0
  5 45  1  0
  5 46  1  0
  5 47  1  0
  6 48  1  0
  6 49  1  0
  7 50  1  0
  7 51  1  0
 12 52  1  0
 13 53  1  0
 14 54  1  0
 15 55  1  0
 20 56  1  0
 21 57  1  0
 24 58  1  0
 24 59  1  0
 25 60  1  0
 25 61  1  0
 27 62  1  0
 27 63  1  0
 28 64  1  0
 28 65  1  0
 29 66  1  0
 32 67  1  0
 33 68  1  0
 33 69  1  0
 34 70  1  0
 34 71  1  0
 35 72  1  0
 35 73  1  0
 36 74  1  0
 36 75  1  0
 37 76  1  0
 37 77  1  0
M  CHG  1  29   1
M  END
>  <UniqueID>  (39) 
38

>  <SMILES>  (39) 
CCN(CC)CCOC(=O)c1ccccc1-c1nc2ccc(N3CCOCC3)[nH+]c2n1C1CCCCC1

>  <Energy>  (39) 
137.02193005583953

>  <Genealogy>  (39) 
CCN(CC)CCOC(=O)c1ccccc1-c1nc2ccc(N3CCOCC3)[nH+]c2n1C1CCCCC1 (protonated)
CCN(CC)CCOC(=O)c1ccccc1-c1nc2ccc(N3CCOCC3)[nH+]c2n1C1CCCCC1 (3D coordinates assigned)
CCN(CC)CCOC(=O)c1ccccc1-c1nc2ccc(N3CCOCC3)[nH+]c2n1C1CCCCC1 (nonaromatic ring conformer: 137.02193005583953 kcal/mol)

>  <smiles>  (39) 
CCN(CC)CCOC(=O)c1ccccc1-c1nc2ccc(N3CCOCC3)nc2n1C1CCCCC1

>  <score_type>  (39) 
oracle

>  <origin>  (39) 
adg

>  <m_score__min__energy>  (39) 
-9.4000000000000004

>  <m_primary>  (39) 
energy

$$$$
40:0
     RDKit          3D

 36 39  0  0  0  0  0  0  0  0999 V2000
   -3.8620   25.0040  -30.8410 O   0  0  0  0  0  0  0  0  0  0  0  0
   -3.5600   23.8960  -30.3220 C   0  0  0  0  0  0  0  0  0  0  0  0
   -2.8630   23.8590  -29.0310 C   0  0  0  0  0  0  0  0  0  0  0  0
   -2.5460   24.9340  -28.4520 O   0  0  0  0  0  0  0  0  0  0  0  0
   -2.5460   22.5490  -28.4290 C   0  0  0  0  0  0  0  0  0  0  0  0
   -1.8810   22.4630  -27.1940 C   0  0  0  0  0  0  0  0  0  0  0  0
   -1.5930   21.2170  -26.6350 C   0  0  0  0  0  0  0  0  0  0  0  0
   -1.9650   20.0490  -27.3020 C   0  0  0  0  0  0  0  0  0  0  0  0
   -2.6260   20.1210  -28.5300 C   0  0  0  0  0  0  0  0  0  0  0  0
   -2.9230   21.3690  -29.1090 C   0  0  0  0  0  0  0  0  0  0  0  0
   -3.6290   21.4380  -30.4180 C   0  0  0  0  0  0  0  0  0  0  0  0
   -3.9100   22.6270  -31.0020 C   0  0  0  0  0  0  0  0  0  0  0  0
   -4.6680   22.6780  -32.3100 C   0  0  0  0  0  0  0  0  0  0  0  0
   -4.4830   21.3970  -33.1290 C   0  0  0  0  0  0  0  0  0  0  0  0
   -4.7410   20.1570  -32.2640 C   0  0  2  0  0  0  0  0  0  0  0  0
   -6.2200   19.9520  -31.9990 C   0  0  0  0  0  0  0  0  0  0  0  0
   -7.0620   21.0150  -31.6170 C   0  0  0  0  0  0  0  0  0  0  0  0
   -8.4280   20.7970  -31.4120 C   0  0  0  0  0  0  0  0  0  0  0  0
   -8.9710   19.5230  -31.5930 C   0  0  0  0  0  0  0  0  0  0  0  0
   -8.1480   18.4640  -31.9840 C   0  0  0  0  0  0  0  0  0  0  0  0
   -6.7820   18.6760  -32.1900 C   0  0  0  0  0  0  0  0  0  0  0  0
   -3.9930   20.2330  -31.0460 O   0  0  0  0  0  0  0  0  0  0  0  0
   -1.5862   23.3816  -26.6656 H   0  0  0  0  0  0  0  0  0  0  0  0
   -1.0724   21.1556  -25.6679 H   0  0  0  0  0  0  0  0  0  0  0  0
   -1.7368   19.0684  -26.8590 H   0  0  0  0  0  0  0  0  0  0  0  0
   -2.9167   19.1955  -29.0486 H   0  0  0  0  0  0  0  0  0  0  0  0
   -5.7386   22.8111  -32.0954 H   0  0  0  0  0  0  0  0  0  0  0  0
   -4.2736   23.5188  -32.8994 H   0  0  0  0  0  0  0  0  0  0  0  0
   -5.1897   21.4024  -33.9719 H   0  0  0  0  0  0  0  0  0  0  0  0
   -3.4476   21.3606  -33.4985 H   0  0  0  0  0  0  0  0  0  0  0  0
   -4.3958   19.2756  -32.8243 H   0  0  0  0  0  0  0  0  0  0  0  0
   -6.6424   22.0224  -31.4792 H   0  0  0  0  0  0  0  0  0  0  0  0
   -9.0768   21.6314  -31.1073 H   0  0  0  0  0  0  0  0  0  0  0  0
  -10.0453   19.3537  -31.4279 H   0  0  0  0  0  0  0  0  0  0  0  0
   -8.5760   17.4612  -32.1300 H   0  0  0  0  0  0  0  0  0  0  0  0
   -6.1411   17.8389  -32.5039 H   0  0  0  0  0  0  0  0  0  0  0  0
  1  2  2  0
  2  3  1  0
  3  4  2  0
  3  5  1  0
  5  6  2  0
  6  7  1  0
  7  8  2  0
  8  9  1  0
  9 10  2  0
 10 11  1  0
 11 12  2  0
 12 13  1  0
 13 14  1  0
 14 15  1  0
 15 16  1  0
 16 17  2  0
 17 18  1  0
 18 19  2  0
 19 20  1  0
 20 21  2  0
 15 22  1  0
 12  2  1  0
 21 16  1  0
 10  5  1  0
 22 11  1  0
  6 23  1  0
  7 24  1  0
  8 25  1  0
  9 26  1  0
 13 27  1  0
 13 28  1  0
 14 29  1  0
 14 30  1  0
 15 31  1  6
 17 32  1  0
 18 33  1  0
 19 34  1  0
 20 35  1  0
 21 36  1  0
M  END
>  <UniqueID>  (40) 
39

>  <SMILES>  (40) 
O=C1C(=O)c2ccccc2C2=C1CC[C@H](c1ccccc1)O2

>  <Energy>  (40) 
43.57459847941037

>  <Genealogy>  (40) 
O=C1C(=O)c2ccccc2C2=C1CC[C@H](c1ccccc1)O2 (chirality)
O=C1C(=O)c2ccccc2C2=C1CC[C@H](c1ccccc1)O2 (3D coordinates assigned)
O=C1C(=O)c2ccccc2C2=C1CC[C@H](c1ccccc1)O2 (nonaromatic ring conformer: 43.57459847941037 kcal/mol)

>  <smiles>  (40) 
O=C1C(=O)c2ccccc2C2=C1CCC(c1ccccc1)O2

>  <score_type>  (40) 
oracle

>  <origin>  (40) 
adg

>  <m_score__min__energy>  (40) 
-8.6199999999999992

>  <m_primary>  (40) 
energy

$$$$
41:0
     RDKit          3D

 49 51  0  0  0  0  0  0  0  0999 V2000
   -0.9700   21.5700  -33.2750 F   0  0  0  0  0  0  0  0  0  0  0  0
   -2.1350   20.9600  -32.8310 C   0  0  0  0  0  0  0  0  0  0  0  0
   -1.8020   19.7910  -32.1590 F   0  0  0  0  0  0  0  0  0  0  0  0
   -2.9130   20.6360  -33.9360 F   0  0  0  0  0  0  0  0  0  0  0  0
   -2.8830   21.8870  -31.8960 C   0  0  0  0  0  0  0  0  0  0  0  0
   -2.1980   22.5170  -30.8410 C   0  0  0  0  0  0  0  0  0  0  0  0
   -2.8850   23.3430  -29.9470 C   0  0  0  0  0  0  0  0  0  0  0  0
   -4.2630   23.5290  -30.0740 C   0  0  0  0  0  0  0  0  0  0  0  0
   -4.9820   22.8680  -31.0900 C   0  0  0  0  0  0  0  0  0  0  0  0
   -6.4210   23.0020  -31.1770 N   0  0  0  0  0  0  0  0  0  0  0  0
   -7.2490   22.8690  -29.9780 C   0  0  0  0  0  0  0  0  0  0  0  0
   -8.4190   21.9240  -30.2730 C   0  0  0  0  0  0  0  0  0  0  0  0
   -9.1130   22.2420  -31.5460 N   0  0  0  0  0  0  0  0  0  0  0  0
   -9.4790   21.0450  -32.3350 C   0  0  0  0  0  0  0  0  0  0  0  0
   -8.7780   19.7450  -31.8580 C   0  0  0  0  0  0  0  0  0  0  0  0
   -7.8620   19.1810  -32.8880 N   0  0  0  0  0  0  0  0  0  0  0  0
   -7.4920   17.7950  -32.5390 C   0  0  0  0  0  0  0  0  0  0  0  0
   -6.4830   17.2110  -33.5640 C   0  0  0  0  0  0  0  0  0  0  0  0
   -6.1850   18.1340  -34.5930 O   0  0  0  0  0  0  0  0  0  0  0  0
   -5.6400   19.3120  -34.0310 C   0  0  0  0  0  0  0  0  0  0  0  0
   -6.6300   19.9930  -33.0480 C   0  0  0  0  0  0  0  0  0  0  0  0
   -8.5890   23.3850  -32.3330 C   0  0  0  0  0  0  0  0  0  0  0  0
   -7.0560   23.3880  -32.4430 C   0  0  0  0  0  0  0  0  0  0  0  0
   -4.2810   22.0490  -32.0020 C   0  0  0  0  0  0  0  0  0  0  0  0
   -1.1163   22.3587  -30.7191 H   0  0  0  0  0  0  0  0  0  0  0  0
   -2.3370   23.8494  -29.1388 H   0  0  0  0  0  0  0  0  0  0  0  0
   -4.7909   24.1959  -29.3764 H   0  0  0  0  0  0  0  0  0  0  0  0
   -6.6432   22.4586  -29.1567 H   0  0  0  0  0  0  0  0  0  0  0  0
   -7.6370   23.8562  -29.6866 H   0  0  0  0  0  0  0  0  0  0  0  0
   -8.0331   20.8956  -30.3313 H   0  0  0  0  0  0  0  0  0  0  0  0
   -9.1508   22.0418  -29.4603 H   0  0  0  0  0  0  0  0  0  0  0  0
  -10.5669   20.8999  -32.2615 H   0  0  0  0  0  0  0  0  0  0  0  0
   -9.1488   21.2277  -33.3682 H   0  0  0  0  0  0  0  0  0  0  0  0
   -8.1952   19.9701  -30.9527 H   0  0  0  0  0  0  0  0  0  0  0  0
   -9.5596   18.9968  -31.6597 H   0  0  0  0  0  0  0  0  0  0  0  0
   -8.3780   19.1570  -33.8020 H   0  0  0  0  0  0  0  0  0  0  0  0
   -7.0338   17.7864  -31.5390 H   0  0  0  0  0  0  0  0  0  0  0  0
   -8.4016   17.1765  -32.5528 H   0  0  0  0  0  0  0  0  0  0  0  0
   -5.5522   16.9510  -33.0386 H   0  0  0  0  0  0  0  0  0  0  0  0
   -6.9394   16.3221  -34.0241 H   0  0  0  0  0  0  0  0  0  0  0  0
   -4.7191   19.0542  -33.4874 H   0  0  0  0  0  0  0  0  0  0  0  0
   -5.4316   20.0167  -34.8495 H   0  0  0  0  0  0  0  0  0  0  0  0
   -6.1436   20.1059  -32.0679 H   0  0  0  0  0  0  0  0  0  0  0  0
   -6.9082   20.9763  -33.4551 H   0  0  0  0  0  0  0  0  0  0  0  0
   -9.0128   23.3357  -33.3469 H   0  0  0  0  0  0  0  0  0  0  0  0
   -8.8823   24.3065  -31.8088 H   0  0  0  0  0  0  0  0  0  0  0  0
   -6.7532   22.6765  -33.2254 H   0  0  0  0  0  0  0  0  0  0  0  0
   -6.7317   24.4091  -32.6924 H   0  0  0  0  0  0  0  0  0  0  0  0
   -4.8299   21.5322  -32.8030 H   0  0  0  0  0  0  0  0  0  0  0  0
  1  2  1  0
  2  3  1  0
  2  4  1  0
  2  5  1  0
  5  6  2  0
  6  7  1  0
  7  8  2  0
  8  9  1  0
  9 10  1  0
 10 11  1  0
 11 12  1  0
 12 13  1  0
 13 14  1  0
 14 15  1  0
 15 16  1  0
 16 17  1  0
 17 18  1  0
 18 19  1  0
 19 20  1  0
 20 21  1  0
 13 22  1  0
 22 23  1  0
  9 24  2  0
 24  5  1  0
 23 10  1  0
 21 16  1  0
  6 25  1  0
  7 26  1  0
  8 27  1  0
 11 28  1  0
 11 29  1  0
 12 30  1  0
 12 31  1  0
 14 32  1  0
 14 33  1  0
 15 34  1  0
 15 35  1  0
 16 36  1  0
 17 37  1  0
 17 38  1  0
 18 39  1  0
 18 40  1  0
 20 41  1  0
 20 42  1  0
 21 43  1  0
 21 44  1  0
 22 45  1  0
 22 46  1  0
 23 47  1  0
 23 48  1  0
 24 49  1  0
M  CHG  1  16   1
M  END
>  <UniqueID>  (41) 
40

>  <SMILES>  (41) 
FC(F)(F)c1cccc(N2CCN(CC[NH+]3CCOCC3)CC2)c1

>  <Energy>  (41) 
76.22131740967912

>  <Genealogy>  (41) 
FC(F)(F)c1cccc(N2CCN(CC[NH+]3CCOCC3)CC2)c1 (protonated)
FC(F)(F)c1cccc(N2CCN(CC[NH+]3CCOCC3)CC2)c1 (3D coordinates assigned)
FC(F)(F)c1cccc(N2CCN(CC[NH+]3CCOCC3)CC2)c1 (nonaromatic ring conformer: 76.22131740967912 kcal/mol)

>  <smiles>  (41) 
FC(F)(F)c1cccc(N2CCN(CCN3CCOCC3)CC2)c1

>  <score_type>  (41) 
oracle

>  <origin>  (41) 
adg

>  <m_score__min__energy>  (41) 
-6.7400000000000002

>  <m_primary>  (41) 
energy

$$$$
42:0
     RDKit          3D

 39 40  0  0  0  0  0  0  0  0999 V2000
   -2.3670   24.5920  -28.8010 C   0  0  0  0  0  0  0  0  0  0  0  0
   -3.2170   25.2540  -29.7320 O   0  0  0  0  0  0  0  0  0  0  0  0
   -4.4450   24.7470  -30.1840 C   0  0  0  0  0  0  0  0  0  0  0  0
   -5.6220   25.2690  -29.6330 C   0  0  0  0  0  0  0  0  0  0  0  0
   -6.8690   24.7950  -30.0480 C   0  0  0  0  0  0  0  0  0  0  0  0
   -6.9520   23.7960  -31.0190 C   0  0  0  0  0  0  0  0  0  0  0  0
   -5.7840   23.2620  -31.5850 C   0  0  0  0  0  0  0  0  0  0  0  0
   -5.8840   22.1720  -32.6210 C   0  0  0  0  0  0  0  0  0  0  0  0
   -6.4290   20.9410  -32.0150 N   0  0  0  0  0  0  0  0  0  0  0  0
   -7.8920   20.8670  -32.2220 C   0  0  0  0  0  0  0  0  0  0  0  0
   -8.5500   19.6340  -31.5770 C   0  0  0  0  0  0  0  0  0  0  0  0
   -8.3220   18.3100  -32.3370 C   0  0  0  0  0  0  0  0  0  0  0  0
   -7.0420   17.6140  -32.0290 N   0  0  1  0  0  0  0  0  0  0  0  0
   -6.6040   16.8760  -33.1930 C   0  0  0  0  0  0  0  0  0  0  0  0
   -6.4710   17.4270  -34.2760 O   0  0  0  0  0  0  0  0  0  0  0  0
   -5.9550   18.5150  -31.5690 C   0  0  0  0  0  0  0  0  0  0  0  0
   -5.7240   19.7330  -32.5020 C   0  0  0  0  0  0  0  0  0  0  0  0
   -4.5300   23.7400  -31.1650 C   0  0  0  0  0  0  0  0  0  0  0  0
   -2.6831   24.8382  -27.7766 H   0  0  0  0  0  0  0  0  0  0  0  0
   -2.4325   23.5046  -28.9536 H   0  0  0  0  0  0  0  0  0  0  0  0
   -1.3288   24.9218  -28.9536 H   0  0  0  0  0  0  0  0  0  0  0  0
   -5.5642   26.0576  -28.8683 H   0  0  0  0  0  0  0  0  0  0  0  0
   -7.7878   25.2103  -29.6083 H   0  0  0  0  0  0  0  0  0  0  0  0
   -7.9363   23.4259  -31.3418 H   0  0  0  0  0  0  0  0  0  0  0  0
   -6.5486   22.5023  -33.4329 H   0  0  0  0  0  0  0  0  0  0  0  0
   -4.8803   21.9621  -33.0191 H   0  0  0  0  0  0  0  0  0  0  0  0
   -8.3493   21.7696  -31.7904 H   0  0  0  0  0  0  0  0  0  0  0  0
   -8.0581   20.7878  -33.3065 H   0  0  0  0  0  0  0  0  0  0  0  0
   -8.1433   19.5205  -30.5613 H   0  0  0  0  0  0  0  0  0  0  0  0
   -9.6345   19.8175  -31.5908 H   0  0  0  0  0  0  0  0  0  0  0  0
   -9.1485   17.6281  -32.0881 H   0  0  0  0  0  0  0  0  0  0  0  0
   -8.2764   18.5745  -33.4038 H   0  0  0  0  0  0  0  0  0  0  0  0
   -7.2230   16.8900  -31.2940 H   0  0  0  0  0  0  0  0  0  0  0  0
   -6.3870   15.8014  -33.1023 H   0  0  0  0  0  0  0  0  0  0  0  0
   -6.2128   18.8881  -30.5668 H   0  0  0  0  0  0  0  0  0  0  0  0
   -5.0255   17.9267  -31.5690 H   0  0  0  0  0  0  0  0  0  0  0  0
   -4.6457   19.9452  -32.5500 H   0  0  0  0  0  0  0  0  0  0  0  0
   -6.1225   19.4823  -33.4962 H   0  0  0  0  0  0  0  0  0  0  0  0
   -3.6109   23.3254  -31.6048 H   0  0  0  0  0  0  0  0  0  0  0  0
  1  2  1  0
  2  3  1  0
  3  4  2  0
  4  5  1  0
  5  6  2  0
  6  7  1  0
  7  8  1  0
  8  9  1  0
  9 10  1  0
 10 11  1  0
 11 12  1  0
 12 13  1  0
 13 14  1  0
 14 15  2  0
 13 16  1  0
 16 17  1  0
  7 18  2  0
 18  3  1  0
 17  9  1  0
  1 19  1  0
  1 20  1  0
  1 21  1  0
  4 22  1  0
  5 23  1  0
  6 24  1  0
  8 25  1  0
  8 26  1  0
 10 27  1  0
 10 28  1  0
 11 29  1  0
 11 30  1  0
 12 31  1  0
 12 32  1  0
 13 33  1  1
 14 34  1  0
 16 35  1  0
 16 36  1  0
 17 37  1  0
 17 38  1  0
 18 39  1  0
M  CHG  1  13   1
M  END
>  <UniqueID>  (42) 
41

>  <SMILES>  (42) 
COc1cccc(CN2CCC[N@@H+](C=O)CC2)c1

>  <Energy>  (42) 
52.892511933670605

>  <Genealogy>  (42) 
COc1cccc(CN2CCC[NH+](C=O)CC2)c1 (protonated)
COc1cccc(CN2CCC[N@@H+](C=O)CC2)c1 (chirality)
COc1cccc(CN2CCC[N@@H+](C=O)CC2)c1 (3D coordinates assigned)
COc1cccc(CN2CCC[N@@H+](C=O)CC2)c1 (nonaromatic ring conformer: 52.892511933670605 kcal/mol)

>  <smiles>  (42) 
COc1cccc(CN2CCCN(C=O)CC2)c1

>  <score_type>  (42) 
oracle

>  <origin>  (42) 
adg

>  <m_score__min__energy>  (42) 
-4.5899999999999999

>  <m_primary>  (42) 
energy

$$$$
43:0
     RDKit          3D

 40 41  0  0  0  0  0  0  0  0999 V2000
   -0.1891   27.3641  -25.3787 H   0  0  0  0  0  0  0  0  0  0  0  0
   -0.8640   26.6880  -25.9240 C   0  0  0  0  0  0  0  0  0  0  0  0
   -0.5930   26.3530  -27.2530 C   0  0  0  0  0  0  0  0  0  0  0  0
    0.2914   26.7715  -27.7557 H   0  0  0  0  0  0  0  0  0  0  0  0
   -1.4450   25.4860  -27.9450 C   0  0  0  0  0  0  0  0  0  0  0  0
   -1.2382   25.2366  -28.9962 H   0  0  0  0  0  0  0  0  0  0  0  0
   -2.5620   24.9340  -27.3020 C   0  0  0  0  0  0  0  0  0  0  0  0
   -3.4480   24.0060  -28.0350 C   0  0  0  0  0  0  0  0  0  0  0  0
   -2.9230   22.7020  -28.3530 N   0  0  0  0  0  0  0  0  0  0  0  0
   -1.9480   22.4880  -28.0410 H   0  0  0  0  0  0  0  0  0  0  0  0
   -3.6820   21.6700  -29.0650 C   0  0  0  0  0  0  0  0  0  0  0  0
   -4.7368   21.9771  -29.1197 H   0  0  0  0  0  0  0  0  0  0  0  0
   -3.5753   20.7240  -28.5140 H   0  0  0  0  0  0  0  0  0  0  0  0
   -3.1510   21.4570  -30.4900 C   0  0  0  0  0  0  0  0  0  0  0  0
   -3.9266   21.7642  -31.2069 H   0  0  0  0  0  0  0  0  0  0  0  0
   -2.9022   20.3914  -30.6025 H   0  0  0  0  0  0  0  0  0  0  0  0
   -1.8840   22.2660  -30.7590 C   0  0  0  0  0  0  0  0  0  0  0  0
   -1.4258   22.5586  -29.8027 H   0  0  0  0  0  0  0  0  0  0  0  0
   -1.1734   21.6541  -31.3340 H   0  0  0  0  0  0  0  0  0  0  0  0
   -2.1401   23.1681  -31.3340 H   0  0  0  0  0  0  0  0  0  0  0  0
   -4.6740   24.3360  -28.3560 N   0  0  0  0  0  0  0  0  0  0  0  0
   -5.4130   24.3950  -27.6240 H   0  0  0  0  0  0  0  0  0  0  0  0
   -5.1980   24.7700  -29.9600 S   0  0  0  0  0  0  0  0  0  0  0  0
   -3.9930   24.9580  -30.8360 O   0  0  0  0  0  0  0  0  0  0  0  0
   -5.9560   26.0660  -29.9030 O   0  0  0  0  0  0  0  0  0  0  0  0
   -6.1910   23.4910  -30.6550 C   0  0  0  0  0  0  0  0  0  0  0  0
   -7.3060   22.9940  -29.9630 C   0  0  0  0  0  0  0  0  0  0  0  0
   -7.5959   23.4368  -28.9987 H   0  0  0  0  0  0  0  0  0  0  0  0
   -8.0490   21.9370  -30.4970 C   0  0  0  0  0  0  0  0  0  0  0  0
   -8.9204   21.5467  -29.9508 H   0  0  0  0  0  0  0  0  0  0  0  0
   -7.6850   21.3750  -31.7260 C   0  0  0  0  0  0  0  0  0  0  0  0
   -8.6910   19.9200  -32.4460 Br  0  0  0  0  0  0  0  0  0  0  0  0
   -6.5810   21.8760  -32.4230 C   0  0  0  0  0  0  0  0  0  0  0  0
   -6.2977   21.4385  -33.3917 H   0  0  0  0  0  0  0  0  0  0  0  0
   -5.8370   22.9330  -31.8890 C   0  0  0  0  0  0  0  0  0  0  0  0
   -4.9707   23.3272  -32.4406 H   0  0  0  0  0  0  0  0  0  0  0  0
   -2.8450   25.2950  -25.9760 C   0  0  0  0  0  0  0  0  0  0  0  0
   -3.7393   24.8935  -25.4771 H   0  0  0  0  0  0  0  0  0  0  0  0
   -1.9930   26.1640  -25.2870 C   0  0  0  0  0  0  0  0  0  0  0  0
   -2.2111   26.4354  -24.2436 H   0  0  0  0  0  0  0  0  0  0  0  0
  1  2  1  0
  2  3  2  0
  3  4  1  0
  3  5  1  0
  5  6  1  0
  5  7  2  0
  7  8  1  0
  8  9  1  0
  9 10  1  0
  9 11  1  0
 11 12  1  0
 11 13  1  0
 11 14  1  0
 14 15  1  0
 14 16  1  0
 14 17  1  0
 17 18  1  0
 17 19  1  0
 17 20  1  0
  8 21  2  0
 21 22  1  0
 21 23  1  0
 23 24  2  0
 23 25  2  0
 23 26  1  0
 26 27  2  0
 27 28  1  0
 27 29  1  0
 29 30  1  0
 29 31  2  0
 31 32  1  0
 31 33  1  0
 33 34  1  0
 33 35  2  0
 35 36  1  0
  7 37  1  0
 37 38  1  0
 37 39  2  0
 39 40  1  0
 39  2  1  0
 35 26  1  0
M  CHG  1  21   1
M  END
>  <UniqueID>  (43) 
42

>  <SMILES>  (43) 
CCCN/C(=[NH+]/S(=O)(=O)c1ccc(Br)cc1)c1ccccc1

>  <Energy>  (43) 
42.08930689412083

>  <Genealogy>  (43) 
CCCNC(=[NH+]S(=O)(=O)c1ccc(Br)cc1)c1ccccc1 (protonated)
CCCN/C(=[NH+]/S(=O)(=O)c1ccc(Br)cc1)c1ccccc1 (cis-trans isomerization)
CCCN/C(=[NH+]/S(=O)(=O)c1ccc(Br)cc1)c1ccccc1 (3D coordinates assigned)
CCCN/C(=[NH+]/S(=O)(=O)c1ccc(Br)cc1)c1ccccc1 (optimized conformer: 42.08930689412083 kcal/mol)

>  <smiles>  (43) 
CCCNC(=NS(=O)(=O)c1ccc(Br)cc1)c1ccccc1

>  <score_type>  (43) 
oracle

>  <origin>  (43) 
adg

>  <m_score__min__energy>  (43) 
-8.0099999999999998

>  <m_primary>  (43) 
energy

$$$$
44:0
     RDKit          3D

 32 33  0  0  0  0  0  0  0  0999 V2000
   -3.8490   19.7080  -32.2500 C   0  0  0  0  0  0  0  0  0  0  0  0
   -3.5060   19.1100  -33.6200 C   0  0  0  0  0  0  0  0  0  0  0  0
   -4.3100   17.9050  -33.9550 N   0  0  0  0  0  0  0  0  0  0  0  0
   -5.4470   18.1810  -34.8630 C   0  0  0  0  0  0  0  0  0  0  0  0
   -6.4780   19.1140  -34.2170 C   0  0  0  0  0  0  0  0  0  0  0  0
   -6.7310   18.7350  -32.8230 N   0  0  0  0  0  0  0  0  0  0  0  0
   -7.7960   19.3970  -32.1160 C   0  0  0  0  0  0  0  0  0  0  0  0
   -9.1070   18.5390  -31.6250 S   0  0  0  0  0  0  0  0  0  0  0  0
   -7.7720   20.8530  -31.8910 C   0  0  0  0  0  0  0  0  0  0  0  0
   -8.8610   21.7070  -31.9130 C   0  0  0  0  0  0  0  0  0  0  0  0
   -8.3580   22.9660  -31.6680 C   0  0  0  0  0  0  0  0  0  0  0  0
   -6.9980   22.8040  -31.5180 C   0  0  0  0  0  0  0  0  0  0  0  0
   -5.7460   24.1970  -31.1640 Br  0  0  0  0  0  0  0  0  0  0  0  0
   -6.6760   21.5400  -31.6580 O   0  0  0  0  0  0  0  0  0  0  0  0
   -6.2300   17.4470  -32.3240 C   0  0  0  0  0  0  0  0  0  0  0  0
   -4.7530   17.2040  -32.7150 C   0  0  0  0  0  0  0  0  0  0  0  0
   -3.4701   19.0474  -31.4563 H   0  0  0  0  0  0  0  0  0  0  0  0
   -3.3824   20.6996  -32.1555 H   0  0  0  0  0  0  0  0  0  0  0  0
   -4.9406   19.8059  -32.1555 H   0  0  0  0  0  0  0  0  0  0  0  0
   -3.6865   19.8749  -34.3897 H   0  0  0  0  0  0  0  0  0  0  0  0
   -2.4518   18.7980  -33.5840 H   0  0  0  0  0  0  0  0  0  0  0  0
   -3.6700   17.2490  -34.4640 H   0  0  0  0  0  0  0  0  0  0  0  0
   -5.0641   18.6536  -35.7796 H   0  0  0  0  0  0  0  0  0  0  0  0
   -5.9441   17.2260  -35.0886 H   0  0  0  0  0  0  0  0  0  0  0  0
   -6.0970   20.1455  -34.2456 H   0  0  0  0  0  0  0  0  0  0  0  0
   -7.4211   19.0351  -34.7777 H   0  0  0  0  0  0  0  0  0  0  0  0
   -9.9124   21.4361  -32.0898 H   0  0  0  0  0  0  0  0  0  0  0  0
   -8.9251   23.9064  -31.6051 H   0  0  0  0  0  0  0  0  0  0  0  0
   -6.3127   17.4355  -31.2272 H   0  0  0  0  0  0  0  0  0  0  0  0
   -6.8357   16.6495  -32.7792 H   0  0  0  0  0  0  0  0  0  0  0  0
   -4.1185   17.5454  -31.8838 H   0  0  0  0  0  0  0  0  0  0  0  0
   -4.6600   16.1270  -32.9185 H   0  0  0  0  0  0  0  0  0  0  0  0
  1  2  1  0
  2  3  1  0
  3  4  1  0
  4  5  1  0
  5  6  1  0
  6  7  1  0
  7  8  2  0
  7  9  1  0
  9 10  2  0
 10 11  1  0
 11 12  2  0
 12 13  1  0
 12 14  1  0
  6 15  1  0
 15 16  1  0
 16  3  1  0
 14  9  1  0
  1 17  1  0
  1 18  1  0
  1 19  1  0
  2 20  1  0
  2 21  1  0
  3 22  1  0
  4 23  1  0
  4 24  1  0
  5 25  1  0
  5 26  1  0
 10 27  1  0
 11 28  1  0
 15 29  1  0
 15 30  1  0
 16 31  1  0
 16 32  1  0
M  CHG  1   3   1
M  END
>  <UniqueID>  (44) 
43

>  <SMILES>  (44) 
CC[NH+]1CCN(C(=S)c2ccc(Br)o2)CC1

>  <Energy>  (44) 
68.88523059883755

>  <Genealogy>  (44) 
CC[NH+]1CCN(C(=S)c2ccc(Br)o2)CC1 (protonated)
CC[NH+]1CCN(C(=S)c2ccc(Br)o2)CC1 (3D coordinates assigned)
CC[NH+]1CCN(C(=S)c2ccc(Br)o2)CC1 (nonaromatic ring conformer: 68.88523059883755 kcal/mol)

>  <smiles>  (44) 
CCN1CCN(C(=S)c2ccc(Br)o2)CC1

>  <score_type>  (44) 
oracle

>  <origin>  (44) 
adg

>  <m_score__min__energy>  (44) 
-5.6600000000000001

>  <m_primary>  (44) 
energy

$$$$
45:0
     RDKit          3D

 48 52  0  0  0  0  0  0  0  0999 V2000
   -0.6370   22.7680  -29.5200 C   0  0  0  0  0  0  0  0  0  0  0  0
   -0.7390   23.9470  -28.5960 C   0  0  0  0  0  0  0  0  0  0  0  0
    0.4130   24.5700  -28.2190 N   0  0  0  0  0  0  0  0  0  0  0  0
    0.4200   25.6480  -27.3940 C   0  0  0  0  0  0  0  0  0  0  0  0
   -0.7790   26.1590  -26.9060 C   0  0  0  0  0  0  0  0  0  0  0  0
   -1.9790   25.5500  -27.2680 C   0  0  0  0  0  0  0  0  0  0  0  0
   -1.9820   24.4310  -28.1170 C   0  0  0  0  0  0  0  0  0  0  0  0
   -3.3110   23.7970  -28.4730 C   0  0  0  0  0  0  0  0  0  0  0  0
   -3.7600   24.2240  -29.8160 N   0  0  0  0  0  0  0  0  0  0  0  0
   -3.4340   23.2030  -30.8490 C   0  0  0  0  0  0  0  0  0  0  0  0
   -4.6520   22.3710  -31.2710 C   0  0  0  0  0  0  0  0  0  0  0  0
   -5.7430   23.2740  -31.8840 C   0  0  0  0  0  0  0  0  0  0  0  0
   -7.0770   22.5670  -31.8440 C   0  0  0  0  0  0  0  0  0  0  0  0
   -8.2120   23.0510  -31.2790 N   0  0  0  0  0  0  0  0  0  0  0  0
   -9.1580   22.1210  -31.3480 N   0  0  0  0  0  0  0  0  0  0  0  0
   -8.6570   21.0470  -31.9300 N   0  0  0  0  0  0  0  0  0  0  0  0
   -9.2870   19.8610  -32.1700 C   0  0  0  0  0  0  0  0  0  0  0  0
   -8.5780   18.8420  -32.7500 N   0  0  0  0  0  0  0  0  0  0  0  0
   -7.2670   19.0560  -33.0640 C   0  0  0  0  0  0  0  0  0  0  0  0
   -6.4320   18.1620  -33.6120 N   0  0  0  0  0  0  0  0  0  0  0  0
   -5.2400   18.7970  -33.7160 C   0  0  0  0  0  0  0  0  0  0  0  0
   -5.3230   20.1020  -33.2320 C   0  0  0  0  0  0  0  0  0  0  0  0
   -6.6320   20.2470  -32.8210 C   0  0  0  0  0  0  0  0  0  0  0  0
   -7.3690   21.2720  -32.2410 C   0  0  0  0  0  0  0  0  0  0  0  0
   -5.7850   24.6710  -31.2130 C   0  0  0  0  0  0  0  0  0  0  0  0
   -5.1880   24.6350  -29.8010 C   0  0  0  0  0  0  0  0  0  0  0  0
   -0.5571   21.8442  -28.9282 H   0  0  0  0  0  0  0  0  0  0  0  0
   -1.5344   22.7206  -30.1544 H   0  0  0  0  0  0  0  0  0  0  0  0
    0.2552   22.8754  -30.1544 H   0  0  0  0  0  0  0  0  0  0  0  0
    1.3736   26.1178  -27.1111 H   0  0  0  0  0  0  0  0  0  0  0  0
   -0.7794   27.0352  -26.2409 H   0  0  0  0  0  0  0  0  0  0  0  0
   -2.9306   25.9484  -26.8862 H   0  0  0  0  0  0  0  0  0  0  0  0
   -3.2018   22.7025  -28.4615 H   0  0  0  0  0  0  0  0  0  0  0  0
   -4.0608   24.1177  -27.7348 H   0  0  0  0  0  0  0  0  0  0  0  0
   -3.0351   23.7163  -31.7363 H   0  0  0  0  0  0  0  0  0  0  0  0
   -2.6985   22.5126  -30.4104 H   0  0  0  0  0  0  0  0  0  0  0  0
   -4.3392   21.6254  -32.0168 H   0  0  0  0  0  0  0  0  0  0  0  0
   -5.0645   21.8715  -30.3820 H   0  0  0  0  0  0  0  0  0  0  0  0
   -5.4926   23.4614  -32.9386 H   0  0  0  0  0  0  0  0  0  0  0  0
   -8.3480   23.9870  -30.8390 H   0  0  0  0  0  0  0  0  0  0  0  0
  -10.3453   19.7252  -31.9026 H   0  0  0  0  0  0  0  0  0  0  0  0
   -6.6490   17.1800  -33.8920 H   0  0  0  0  0  0  0  0  0  0  0  0
   -4.3268   18.3429  -34.1280 H   0  0  0  0  0  0  0  0  0  0  0  0
   -4.5199   20.8523  -33.1875 H   0  0  0  0  0  0  0  0  0  0  0  0
   -5.2091   25.3795  -31.8265 H   0  0  0  0  0  0  0  0  0  0  0  0
   -6.8364   24.9847  -31.1350 H   0  0  0  0  0  0  0  0  0  0  0  0
   -5.2652   25.6380  -29.3561 H   0  0  0  0  0  0  0  0  0  0  0  0
   -5.7502   23.8964  -29.2108 H   0  0  0  0  0  0  0  0  0  0  0  0
  1  2  1  0
  2  3  2  0
  3  4  1  0
  4  5  2  0
  5  6  1  0
  6  7  2  0
  7  8  1  0
  8  9  1  0
  9 10  1  0
 10 11  1  0
 11 12  1  0
 12 13  1  0
 13 14  1  0
 14 15  2  0
 15 16  1  0
 16 17  1  0
 17 18  2  0
 18 19  1  0
 19 20  1  0
 20 21  1  0
 21 22  2  0
 22 23  1  0
 23 24  1  0
 12 25  1  0
 25 26  1  0
  7  2  1  0
 26  9  1  0
 24 13  2  0
 24 16  1  0
 23 19  2  0
  1 27  1  0
  1 28  1  0
  1 29  1  0
  4 30  1  0
  5 31  1  0
  6 32  1  0
  8 33  1  0
  8 34  1  0
 10 35  1  0
 10 36  1  0
 11 37  1  0
 11 38  1  0
 12 39  1  0
 14 40  1  0
 17 41  1  0
 20 42  1  0
 21 43  1  0
 22 44  1  0
 25 45  1  0
 25 46  1  0
 26 47  1  0
 26 48  1  0
M  CHG  1  14   1
M  END
>  <UniqueID>  (45) 
44

>  <SMILES>  (45) 
Cc1ncccc1CN1CCC(c2[nH+]nn3cnc4[nH]ccc4c23)CC1

>  <Energy>  (45) 
142.81207738626793

>  <Genealogy>  (45) 
Cc1ncccc1CN1CCC(c2[nH+]nn3cnc4[nH]ccc4c23)CC1 (protonated)
Cc1ncccc1CN1CCC(c2[nH+]nn3cnc4[nH]ccc4c23)CC1 (3D coordinates assigned)
Cc1ncccc1CN1CCC(c2[nH+]nn3cnc4[nH]ccc4c23)CC1 (nonaromatic ring conformer: 142.81207738626793 kcal/mol)

>  <smiles>  (45) 
Cc1ncccc1CN1CCC(c2nnn3cnc4[nH]ccc4c23)CC1

>  <score_type>  (45) 
oracle

>  <origin>  (45) 
adg

>  <m_score__min__energy>  (45) 
-9.1099999999999994

>  <m_primary>  (45) 
energy

$$$$
46:0
     RDKit          3D

 37 39  0  0  0  0  0  0  0  0999 V2000
   -4.2880   19.9660  -33.1200 C   0  0  0  0  0  0  0  0  0  0  0  0
   -4.3860   21.4400  -32.7400 C   0  0  0  0  0  0  0  0  0  0  0  0
   -5.7440   21.7550  -32.1620 C   0  0  0  0  0  0  0  0  0  0  0  0
   -6.7450   20.7670  -32.1710 C   0  0  0  0  0  0  0  0  0  0  0  0
   -8.0130   21.0400  -31.6550 C   0  0  0  0  0  0  0  0  0  0  0  0
   -8.3030   22.3050  -31.1430 C   0  0  0  0  0  0  0  0  0  0  0  0
   -7.3240   23.3010  -31.1410 C   0  0  0  0  0  0  0  0  0  0  0  0
   -6.0370   23.0310  -31.6350 C   0  0  0  0  0  0  0  0  0  0  0  0
   -5.0440   24.0660  -31.6690 N   0  0  0  0  0  0  0  0  0  0  0  0
   -4.2060   24.4570  -30.5740 C   0  0  0  0  0  0  0  0  0  0  0  0
   -3.8750   25.6680  -30.4660 O   0  0  0  0  0  0  0  0  0  0  0  0
   -3.6500   23.4580  -29.5950 C   0  0  0  0  0  0  0  0  0  0  0  0
   -2.0360   22.8060  -30.1530 S   0  0  0  0  0  0  0  0  0  0  0  0
   -1.0690   23.9260  -29.1460 C   0  0  0  0  0  0  0  0  0  0  0  0
    0.2590   23.8150  -28.9580 N   0  0  0  0  0  0  0  0  0  0  0  0
    0.6030   24.8180  -28.1650 N   0  0  0  0  0  0  0  0  0  0  0  0
   -0.5300   25.4980  -27.9040 C   0  0  0  0  0  0  0  0  0  0  0  0
   -0.5940   26.6910  -27.0580 C   0  0  0  0  0  0  0  0  0  0  0  0
   -0.9440   26.7160  -25.7230 C   0  0  0  0  0  0  0  0  0  0  0  0
   -0.8670   28.0400  -25.3460 C   0  0  0  0  0  0  0  0  0  0  0  0
   -0.4770   28.7370  -26.4730 C   0  0  0  0  0  0  0  0  0  0  0  0
   -0.3220   27.9050  -27.4770 O   0  0  0  0  0  0  0  0  0  0  0  0
   -1.5630   24.9550  -28.5020 O   0  0  0  0  0  0  0  0  0  0  0  0
   -4.2473   19.3539  -32.2069 H   0  0  0  0  0  0  0  0  0  0  0  0
   -5.1692   19.6810  -33.7135 H   0  0  0  0  0  0  0  0  0  0  0  0
   -3.3768   19.8002  -33.7135 H   0  0  0  0  0  0  0  0  0  0  0  0
   -3.6132   21.6719  -31.9924 H   0  0  0  0  0  0  0  0  0  0  0  0
   -4.2381   22.0480  -33.6447 H   0  0  0  0  0  0  0  0  0  0  0  0
   -6.5272   19.7725  -32.5875 H   0  0  0  0  0  0  0  0  0  0  0  0
   -8.7849   20.2563  -31.6521 H   0  0  0  0  0  0  0  0  0  0  0  0
   -9.3042   22.5182  -30.7403 H   0  0  0  0  0  0  0  0  0  0  0  0
   -7.5618   24.3016  -30.7508 H   0  0  0  0  0  0  0  0  0  0  0  0
   -3.5201   23.9477  -28.6186 H   0  0  0  0  0  0  0  0  0  0  0  0
   -4.3557   22.6176  -29.5190 H   0  0  0  0  0  0  0  0  0  0  0  0
   -1.2252   25.8597  -25.0925 H   0  0  0  0  0  0  0  0  0  0  0  0
   -1.0742   28.4569  -24.3494 H   0  0  0  0  0  0  0  0  0  0  0  0
   -0.3200   29.8246  -26.5220 H   0  0  0  0  0  0  0  0  0  0  0  0
  1  2  1  0
  2  3  1  0
  3  4  2  0
  4  5  1  0
  5  6  2  0
  6  7  1  0
  7  8  2  0
  8  9  1  0
  9 10  1  0
 10 11  2  0
 10 12  1  0
 12 13  1  0
 13 14  1  0
 14 15  2  0
 15 16  1  0
 16 17  2  0
 17 18  1  0
 18 19  2  0
 19 20  1  0
 20 21  2  0
 21 22  1  0
 17 23  1  0
  8  3  1  0
 23 14  1  0
 22 18  1  0
  1 24  1  0
  1 25  1  0
  1 26  1  0
  2 27  1  0
  2 28  1  0
  4 29  1  0
  5 30  1  0
  6 31  1  0
  7 32  1  0
 12 33  1  0
 12 34  1  0
 19 35  1  0
 20 36  1  0
 21 37  1  0
M  CHG  1   9  -1
M  END
>  <UniqueID>  (46) 
45

>  <SMILES>  (46) 
CCc1ccccc1[N-]C(=O)CSc1nnc(-c2ccco2)o1

>  <Energy>  (46) 
96.78332008652337

>  <Genealogy>  (46) 
CCc1ccccc1[N-]C(=O)CSc1nnc(-c2ccco2)o1 (protonated)
CCc1ccccc1[N-]C(=O)CSc1nnc(-c2ccco2)o1 (3D coordinates assigned)
CCc1ccccc1[N-]C(=O)CSc1nnc(-c2ccco2)o1 (optimized conformer: 96.78332008652337 kcal/mol)

>  <smiles>  (46) 
CCc1ccccc1NC(=O)CSc1nnc(-c2ccco2)o1

>  <score_type>  (46) 
oracle

>  <origin>  (46) 
adg

>  <m_score__min__energy>  (46) 
-9.1199999999999992

>  <m_primary>  (46) 
energy

$$$$
47:0
     RDKit          3D

 22 22  0  0  0  0  0  0  0  0999 V2000
   -3.4360   25.5620  -31.6010 H   0  0  0  0  0  0  0  0  0  0  0  0
   -3.8580   25.0330  -30.8070 N   0  0  0  0  0  0  0  0  0  0  0  0
   -3.2460   24.9070  -29.6000 C   0  0  0  0  0  0  0  0  0  0  0  0
   -2.0050   25.4770  -29.3420 O   0  0  0  0  0  0  0  0  0  0  0  0
   -3.9520   24.1630  -28.6580 C   0  0  0  0  0  0  0  0  0  0  0  0
   -3.4890   23.8070  -27.2790 C   0  0  0  0  0  0  0  0  0  0  0  0
   -4.3068   23.3039  -26.7423 H   0  0  0  0  0  0  0  0  0  0  0  0
   -2.6180   23.1401  -27.3598 H   0  0  0  0  0  0  0  0  0  0  0  0
   -3.0790   25.0570  -26.5080 C   0  0  0  0  0  0  0  0  0  0  0  0
   -3.1438   24.8593  -25.4279 H   0  0  0  0  0  0  0  0  0  0  0  0
   -2.0453   25.3268  -26.7700 H   0  0  0  0  0  0  0  0  0  0  0  0
   -3.7521   25.8866  -26.7700 H   0  0  0  0  0  0  0  0  0  0  0  0
   -5.3780   23.6200  -29.3750 S   0  0  0  0  0  0  0  0  0  0  0  0
   -5.0460   24.3810  -30.8380 C   0  0  0  0  0  0  0  0  0  0  0  0
   -5.8370   24.3260  -31.8680 N   0  0  0  0  0  0  0  0  0  0  0  0
   -6.5250   23.1300  -32.3530 C   0  0  0  0  0  0  0  0  0  0  0  0
   -6.0067   22.2370  -31.9738 H   0  0  0  0  0  0  0  0  0  0  0  0
   -6.5160   23.1395  -33.4529 H   0  0  0  0  0  0  0  0  0  0  0  0
   -7.9730   23.1080  -31.8760 C   0  0  0  0  0  0  0  0  0  0  0  0
   -7.9968   23.1076  -30.7763 H   0  0  0  0  0  0  0  0  0  0  0  0
   -8.4971   23.9983  -32.2538 H   0  0  0  0  0  0  0  0  0  0  0  0
   -8.4698   22.2022  -32.2538 H   0  0  0  0  0  0  0  0  0  0  0  0
  1  2  1  0
  2  3  1  0
  3  4  1  0
  3  5  2  0
  5  6  1  0
  6  7  1  0
  6  8  1  0
  6  9  1  0
  9 10  1  0
  9 11  1  0
  9 12  1  0
  5 13  1  0
 13 14  1  0
 14 15  2  0
 15 16  1  0
 16 17  1  0
 16 18  1  0
 16 19  1  0
 19 20  1  0
 19 21  1  0
 19 22  1  0
 14  2  1  0
M  CHG  1   4  -1
M  END
>  <UniqueID>  (47) 
46

>  <SMILES>  (47) 
CC/N=c1\[nH]c([O-])c(CC)s1

>  <Energy>  (47) 
43.96593412187304

>  <Genealogy>  (47) 
CCN=c1[nH]c([O-])c(CC)s1 (protonated)
CC/N=c1\[nH]c([O-])c(CC)s1 (cis-trans isomerization)
CC/N=c1\[nH]c([O-])c(CC)s1 (3D coordinates assigned)
CC/N=c1\[nH]c([O-])c(CC)s1 (optimized conformer: 43.96593412187304 kcal/mol)

>  <smiles>  (47) 
CCN=c1[nH]c(O)c(CC)s1

>  <score_type>  (47) 
oracle

>  <origin>  (47) 
adg

>  <m_score__min__energy>  (47) 
-7.8899999999999997

>  <m_primary>  (47) 
energy

$$$$
48:0
     RDKit          3D

 55 58  0  0  0  0  0  0  0  0999 V2000
    0.6430   22.1260  -35.4390 C   0  0  0  0  0  0  0  0  0  0  0  0
    0.2760   21.0350  -36.4350 C   0  0  0  0  0  0  0  0  0  0  0  0
    0.4290   19.7090  -35.7920 N   0  0  0  0  0  0  0  0  0  0  0  0
    1.0980   18.7170  -36.6670 C   0  0  0  0  0  0  0  0  0  0  0  0
    2.4280   19.2110  -37.2570 C   0  0  0  0  0  0  0  0  0  0  0  0
    1.0160   19.7730  -34.4370 C   0  0  0  0  0  0  0  0  0  0  0  0
    0.2130   18.8960  -33.4590 C   0  0  0  0  0  0  0  0  0  0  0  0
   -1.0660   18.4450  -34.0350 N   0  0  0  0  0  0  0  0  0  0  0  0
   -2.1750   19.2380  -33.5600 C   0  0  0  0  0  0  0  0  0  0  0  0
   -3.1720   18.6550  -32.7580 C   0  0  0  0  0  0  0  0  0  0  0  0
   -4.2310   19.4270  -32.2740 C   0  0  0  0  0  0  0  0  0  0  0  0
   -4.3100   20.7910  -32.5840 C   0  0  0  0  0  0  0  0  0  0  0  0
   -5.3900   21.5880  -32.0710 N   0  0  0  0  0  0  0  0  0  0  0  0
   -6.7740   21.1710  -32.1630 C   0  0  0  0  0  0  0  0  0  0  0  0
   -7.1400   20.0160  -32.8850 C   0  0  0  0  0  0  0  0  0  0  0  0
   -8.4770   19.6250  -32.9720 C   0  0  0  0  0  0  0  0  0  0  0  0
   -9.4710   20.3780  -32.3500 C   0  0  0  0  0  0  0  0  0  0  0  0
   -9.1330   21.5330  -31.6420 C   0  0  0  0  0  0  0  0  0  0  0  0
   -7.7960   21.9460  -31.5460 C   0  0  0  0  0  0  0  0  0  0  0  0
   -7.4870   23.2120  -30.7710 C   0  0  0  0  0  0  0  0  0  0  0  0
   -6.0700   23.5530  -30.8290 N   0  0  0  0  0  0  0  0  0  0  0  0
   -5.4370   24.6030  -30.2750 C   0  0  0  0  0  0  0  0  0  0  0  0
   -4.1000   24.5630  -30.4790 N   0  0  0  0  0  0  0  0  0  0  0  0
   -3.8950   23.4320  -31.1920 C   0  0  0  0  0  0  0  0  0  0  0  0
   -5.1130   22.8220  -31.4010 C   0  0  0  0  0  0  0  0  0  0  0  0
   -3.3190   21.3770  -33.3830 C   0  0  0  0  0  0  0  0  0  0  0  0
   -2.2600   20.6070  -33.8690 C   0  0  0  0  0  0  0  0  0  0  0  0
    0.5150   21.7456  -34.4148 H   0  0  0  0  0  0  0  0  0  0  0  0
    1.6909   22.4240  -35.5912 H   0  0  0  0  0  0  0  0  0  0  0  0
   -0.0117   22.9968  -35.5912 H   0  0  0  0  0  0  0  0  0  0  0  0
   -0.7673   21.1683  -36.7573 H   0  0  0  0  0  0  0  0  0  0  0  0
    0.9402   21.0978  -37.3096 H   0  0  0  0  0  0  0  0  0  0  0  0
    1.2956   17.8104  -36.0763 H   0  0  0  0  0  0  0  0  0  0  0  0
    0.4217   18.5274  -37.5135 H   0  0  0  0  0  0  0  0  0  0  0  0
    3.1187   19.4675  -36.4402 H   0  0  0  0  0  0  0  0  0  0  0  0
    2.8715   18.4176  -37.8766 H   0  0  0  0  0  0  0  0  0  0  0  0
    2.2460   20.1015  -37.8766 H   0  0  0  0  0  0  0  0  0  0  0  0
    2.0551   19.4141  -34.4754 H   0  0  0  0  0  0  0  0  0  0  0  0
    0.9872   20.8151  -34.0859 H   0  0  0  0  0  0  0  0  0  0  0  0
    0.8152   18.0129  -33.1993 H   0  0  0  0  0  0  0  0  0  0  0  0
   -0.0132   19.5029  -32.5699 H   0  0  0  0  0  0  0  0  0  0  0  0
   -1.2220   17.4480  -33.7600 H   0  0  0  0  0  0  0  0  0  0  0  0
   -1.0130   18.4700  -35.0810 H   0  0  0  0  0  0  0  0  0  0  0  0
   -3.1178   17.5846  -32.5102 H   0  0  0  0  0  0  0  0  0  0  0  0
   -5.0060   18.9620  -31.6469 H   0  0  0  0  0  0  0  0  0  0  0  0
   -6.3640   19.4174  -33.3845 H   0  0  0  0  0  0  0  0  0  0  0  0
   -8.7472   18.7187  -33.5339 H   0  0  0  0  0  0  0  0  0  0  0  0
  -10.5226   20.0623  -32.4168 H   0  0  0  0  0  0  0  0  0  0  0  0
   -9.9224   22.1244  -31.1551 H   0  0  0  0  0  0  0  0  0  0  0  0
   -8.0701   24.0414  -31.1976 H   0  0  0  0  0  0  0  0  0  0  0  0
   -7.7536   23.0405  -29.7176 H   0  0  0  0  0  0  0  0  0  0  0  0
   -5.9482   25.4030  -29.7194 H   0  0  0  0  0  0  0  0  0  0  0  0
   -2.9212   23.0619  -31.5452 H   0  0  0  0  0  0  0  0  0  0  0  0
   -3.3754   22.4478  -33.6284 H   0  0  0  0  0  0  0  0  0  0  0  0
   -1.4876   21.0745  -34.4974 H   0  0  0  0  0  0  0  0  0  0  0  0
  1  2  1  0
  2  3  1  0
  3  4  1  0
  4  5  1  0
  3  6  1  0
  6  7  1  0
  7  8  1  0
  8  9  1  0
  9 10  2  0
 10 11  1  0
 11 12  2  0
 12 13  1  0
 13 14  1  0
 14 15  2  0
 15 16  1  0
 16 17  2  0
 17 18  1  0
 18 19  2  0
 19 20  1  0
 20 21  1  0
 21 22  1  0
 22 23  2  0
 23 24  1  0
 24 25  2  0
 12 26  1  0
 26 27  2  0
 27  9  1  0
 25 13  1  0
 19 14  1  0
 25 21  1  0
  1 28  1  0
  1 29  1  0
  1 30  1  0
  2 31  1  0
  2 32  1  0
  4 33  1  0
  4 34  1  0
  5 35  1  0
  5 36  1  0
  5 37  1  0
  6 38  1  0
  6 39  1  0
  7 40  1  0
  7 41  1  0
  8 42  1  0
  8 43  1  0
 10 44  1  0
 11 45  1  0
 15 46  1  0
 16 47  1  0
 17 48  1  0
 18 49  1  0
 20 50  1  0
 20 51  1  0
 22 52  1  0
 24 53  1  0
 26 54  1  0
 27 55  1  0
M  CHG  1   8   1
M  END
>  <UniqueID>  (48) 
47

>  <SMILES>  (48) 
CCN(CC)CC[NH2+]c1ccc(N2c3ccccc3Cn3cncc32)cc1

>  <Energy>  (48) 
102.03007420482442

>  <Genealogy>  (48) 
CCN(CC)CC[NH2+]c1ccc(N2c3ccccc3Cn3cncc32)cc1 (protonated)
CCN(CC)CC[NH2+]c1ccc(N2c3ccccc3Cn3cncc32)cc1 (3D coordinates assigned)
CCN(CC)CC[NH2+]c1ccc(N2c3ccccc3Cn3cncc32)cc1 (nonaromatic ring conformer: 102.03007420482442 kcal/mol)

>  <smiles>  (48) 
CCN(CC)CCNc1ccc(N2c3ccccc3Cn3cncc32)cc1

>  <score_type>  (48) 
oracle

>  <origin>  (48) 
adg

>  <m_score__min__energy>  (48) 
-7.29

>  <m_primary>  (48) 
energy

$$$$
